47976
     RDKit          3D

 19 21  0  0  0  0  0  0  0  0999 V2000
   -0.3184   -1.0627    0.0002 O   0  0  0  0  0  0  0  0  0  0  0  0
   -6.5642    0.0454   -0.0002 N   0  0  0  0  0  0  0  0  0  0  0  0
    6.0722   -0.4985   -0.0002 N   0  0  0  0  0  0  0  0  0  0  0  0
    5.3196    1.7139    0.0027 N   0  0  0  0  0  0  0  0  0  0  0  0
    1.2837    0.5302   -0.0005 C   0  0  0  0  0  0  0  0  0  0  0  0
    1.0255   -0.8368    0.0001 C   0  0  0  0  0  0  0  0  0  0  0  0
   -0.9227    0.1540   -0.0002 C   0  0  0  0  0  0  0  0  0  0  0  0
    0.0126    1.1628   -0.0006 C   0  0  0  0  0  0  0  0  0  0  0  0
   -2.3582    0.1263    0.0000 C   0  0  0  0  0  0  0  0  0  0  0  0
    2.6219    0.9609   -0.0010 C   0  0  0  0  0  0  0  0  0  0  0  0
    3.6389   -0.0037   -0.0008 C   0  0  0  0  0  0  0  0  0  0  0  0
    2.0145   -1.8189    0.0003 C   0  0  0  0  0  0  0  0  0  0  0  0
    3.3380   -1.3681    0.0000 C   0  0  0  0  0  0  0  0  0  0  0  0
   -3.0855    1.3205   -0.0003 C   0  0  0  0  0  0  0  0  0  0  0  0
   -3.0390   -1.0949    0.0004 C   0  0  0  0  0  0  0  0  0  0  0  0
   -4.4801    1.2937   -0.0001 C   0  0  0  0  0  0  0  0  0  0  0  0
   -4.4337   -1.1218    0.0006 C   0  0  0  0  0  0  0  0  0  0  0  0
   -5.1541    0.0725    0.0004 C   0  0  0  0  0  0  0  0  0  0  0  0
    5.0292    0.4253   -0.0009 C   0  0  0  0  0  0  0  0  0  0  0  0
  1  6  1  0
  1  7  1  0
  2 18  1  0
  3 19  1  0
  4 19  2  0
  5  6  2  0
  5  8  1  0
  5 10  1  0
  6 12  1  0
  7  8  2  0
  7  9  1  0
  9 14  2  0
  9 15  1  0
 10 11  2  0
 11 13  1  0
 11 19  1  0
 12 13  2  0
 14 16  1  0
 15 17  2  0
 16 18  2  0
 17 18  1  0
M  END
>  <PUBCHEM_COMPOUND_CID>  (1) 
47976

>  <PUBCHEM_CONFORMER_RMSD>  (1) 
0.6

>  <PUBCHEM_CONFORMER_DIVERSEORDER>  (1) 
1
2

>  <PUBCHEM_MMFF94_PARTIAL_CHARGES>  (1) 
31
1 -0.28
10 -0.15
11 0.09
12 -0.15
13 -0.15
14 -0.15
15 -0.15
16 -0.15
17 -0.15
18 0.1
19 0.41
2 -0.9
20 0.15
21 0.15
22 0.15
23 0.15
24 0.15
25 0.15
26 0.15
27 0.15
28 0.4
29 0.4
3 -0.85
30 0.4
31 0.4
32 0.4
4 -0.85
6 0.14
7 0.09
8 -0.15
9 0.05

>  <PUBCHEM_EFFECTIVE_ROTOR_COUNT>  (1) 
2

>  <PUBCHEM_PHARMACOPHORE_FEATURES>  (1) 
9
1 1 acceptor
1 2 cation
1 2 donor
1 3 donor
1 4 donor
3 3 4 19 cation
5 1 5 6 7 8 rings
6 5 6 10 11 12 13 rings
6 9 14 15 16 17 18 rings

>  <PUBCHEM_HEAVY_ATOM_COUNT>  (1) 
19

>  <PUBCHEM_ATOM_DEF_STEREO_COUNT>  (1) 
0

>  <PUBCHEM_ATOM_UDEF_STEREO_COUNT>  (1) 
0

>  <PUBCHEM_BOND_DEF_STEREO_COUNT>  (1) 
0

>  <PUBCHEM_BOND_UDEF_STEREO_COUNT>  (1) 
0

>  <PUBCHEM_ISOTOPIC_ATOM_COUNT>  (1) 
0

>  <PUBCHEM_COMPONENT_COUNT>  (1) 
1

>  <PUBCHEM_CACTVS_TAUTO_COUNT>  (1) 
1

>  <PUBCHEM_CONFORMER_ID>  (1) 
0000BB6800000001

>  <PUBCHEM_MMFF94_ENERGY>  (1) 
60.1613

>  <PUBCHEM_FEATURE_SELFOVERLAP>  (1) 
45.816

>  <PUBCHEM_SHAPE_FINGERPRINT>  (1) 
10 15 18261387906032402224
10366900 7 16415477143146394651
10968037 39 18410573998848716959
11315181 36 18202567293515048041
11401426 45 18409448093866198121
12107183 9 17619349805808769865
12236239 1 18060420218162124749
12516196 113 17917709106382425465
13073987 5 18336548210077146337
13288520 33 18412545418833812669
13533116 47 17274824597508411623
14341114 176 18410580574047995139
14528608 73 18412265064595718036
15196674 1 18410575046024281959
15788980 27 12468641637821142913
17834072 33 18342455949918565796
17844677 252 18340775866182018128
1813 80 17022907817487743861
19489759 90 15140676969423500197
200 152 18131068230061960003
20645477 70 18270120106593736926
21267235 1 18411426102410403167
21709351 56 18334570265409247165
23402539 116 18342452668711290431
23402655 69 18343018878486879943
23557571 272 17240761739990226996
23559900 14 18340198713082959697
239999 70 18271812285607484902
26918003 58 18187086169827512939
29717793 49 17703796894684905876
300161 21 18334570239966295511
3004659 81 18335140856927138934
34797466 226 17632584876407169308
34934 24 18411133649560840791
3545911 37 18410856560035434953
4072396 5 18336254687854515402
4073 2 18041285455811374450
4214541 1 18410856538676896357
42630746 31 18341896273326563486
42788 4 18410856563987621316
4325135 7 18410292514511932151
4340502 62 16950564380713132114
4463277 17 18411419509941552385
474229 33 18411700997513203022
4990 188 18060426802779519534
5104073 3 18336828593551915723
542803 24 18411136935110173201
59755656 215 18410860928212795910
67856867 119 18189338038139616237
77779 3 18411138009194908055
9709674 26 18410581677913320551

>  <PUBCHEM_SHAPE_MULTIPOLES>  (1) 
370.2
13.76
1.59
0.6
1.84
0.09
0
-1.53
0
-0.5
0
0.02
0
0

>  <PUBCHEM_SHAPE_SELFOVERLAP>  (1) 
827.326

>  <PUBCHEM_SHAPE_VOLUME>  (1) 
198.1

>  <PUBCHEM_COORDINATE_TYPE>  (1) 
2
5
10

$$$$
