47984
     RDKit          3D

 29 31  0  0  0  0  0  0  0  0999 V2000
   -5.4949   -1.0877    1.4839 O   0  0  0  0  0  0  0  0  0  0  0  0
    5.4953   -1.0883   -1.4831 O   0  0  0  0  0  0  0  0  0  0  0  0
   -6.8369    0.7748   -0.0344 N   0  0  0  0  0  0  0  0  0  0  0  0
    6.8368    0.7747    0.0348 N   0  0  0  0  0  0  0  0  0  0  0  0
    0.0001    1.1240   -0.0006 C   0  0  0  0  0  0  0  0  0  0  0  0
   -1.1581    0.1685    0.1972 C   0  0  0  0  0  0  0  0  0  0  0  0
    1.1582    0.1684   -0.1982 C   0  0  0  0  0  0  0  0  0  0  0  0
   -0.7132   -1.1705    0.1214 C   0  0  0  0  0  0  0  0  0  0  0  0
    0.7133   -1.1706   -0.1221 C   0  0  0  0  0  0  0  0  0  0  0  0
   -2.4880    0.4768    0.4243 C   0  0  0  0  0  0  0  0  0  0  0  0
    2.4881    0.4767   -0.4251 C   0  0  0  0  0  0  0  0  0  0  0  0
   -1.6060   -2.2181    0.2741 C   0  0  0  0  0  0  0  0  0  0  0  0
    1.6060   -2.2183   -0.2741 C   0  0  0  0  0  0  0  0  0  0  0  0
   -3.3876   -0.5794    0.5780 C   0  0  0  0  0  0  0  0  0  0  0  0
    3.3878   -0.5796   -0.5783 C   0  0  0  0  0  0  0  0  0  0  0  0
   -2.9512   -1.9135    0.5036 C   0  0  0  0  0  0  0  0  0  0  0  0
    2.9512   -1.9137   -0.5035 C   0  0  0  0  0  0  0  0  0  0  0  0
   -4.7944   -0.2972    0.8183 C   0  0  0  0  0  0  0  0  0  0  0  0
    4.7945   -0.2976   -0.8182 C   0  0  0  0  0  0  0  0  0  0  0  0
   -5.4211    0.9846    0.2479 C   0  0  0  0  0  0  0  0  0  0  0  0
    5.4211    0.9845   -0.2482 C   0  0  0  0  0  0  0  0  0  0  0  0
   -7.4529    2.0097   -0.5223 C   0  0  0  0  0  0  0  0  0  0  0  0
   -7.0130   -0.3014   -1.0108 C   0  0  0  0  0  0  0  0  0  0  0  0
    7.0126   -0.3009    1.0117 C   0  0  0  0  0  0  0  0  0  0  0  0
    7.4526    2.0099    0.5225 C   0  0  0  0  0  0  0  0  0  0  0  0
   -7.3385    3.1233    0.5047 C   0  0  0  0  0  0  0  0  0  0  0  0
   -8.4837   -0.5314   -1.3149 C   0  0  0  0  0  0  0  0  0  0  0  0
    8.4832   -0.5308    1.3164 C   0  0  0  0  0  0  0  0  0  0  0  0
    7.3386    3.1231   -0.5051 C   0  0  0  0  0  0  0  0  0  0  0  0
  1 18  2  0
  2 19  2  0
  3 20  1  0
  3 22  1  0
  3 23  1  0
  4 21  1  0
  4 24  1  0
  4 25  1  0
  5  6  1  0
  5  7  1  0
  6  8  2  0
  6 10  1  0
  7  9  2  0
  7 11  1  0
  8  9  1  0
  8 12  1  0
  9 13  1  0
 10 14  2  0
 11 15  2  0
 12 16  2  0
 13 17  2  0
 14 16  1  0
 14 18  1  0
 15 17  1  0
 15 19  1  0
 18 20  1  0
 19 21  1  0
 22 26  1  0
 23 27  1  0
 24 28  1  0
 25 29  1  0
M  END
>  <PUBCHEM_COMPOUND_CID>  (1) 
47984

>  <PUBCHEM_CONFORMER_RMSD>  (1) 
1

>  <PUBCHEM_CONFORMER_DIVERSEORDER>  (1) 
1
31
23
4
10
37
61
53
29
34
25
5
19
26
50
2
44
38
18
51
49
17
32
6
64
20
63
41
54
46
58
8
22
7
14
40
27
35
21
48
33
9
42
57
16
36
12
56
24
47
60
43
55
39
28
30
3
59
15
13
62
11
52
45

>  <PUBCHEM_MMFF94_PARTIAL_CHARGES>  (1) 
29
1 -0.57
10 -0.15
11 -0.15
12 -0.15
13 -0.15
14 0.09
15 0.09
16 -0.15
17 -0.15
18 0.42
19 0.42
2 -0.57
20 0.33
21 0.33
22 0.27
23 0.27
24 0.27
25 0.27
3 -0.81
32 0.15
33 0.15
34 0.15
35 0.15
36 0.15
37 0.15
4 -0.81
5 0.29
6 -0.14
7 -0.14

>  <PUBCHEM_EFFECTIVE_ROTOR_COUNT>  (1) 
10.2

>  <PUBCHEM_PHARMACOPHORE_FEATURES>  (1) 
7
1 1 acceptor
1 2 acceptor
1 3 cation
1 4 cation
5 5 6 7 8 9 rings
6 6 8 10 12 14 16 rings
6 7 9 11 13 15 17 rings

>  <PUBCHEM_HEAVY_ATOM_COUNT>  (1) 
29

>  <PUBCHEM_ATOM_DEF_STEREO_COUNT>  (1) 
0

>  <PUBCHEM_ATOM_UDEF_STEREO_COUNT>  (1) 
0

>  <PUBCHEM_BOND_DEF_STEREO_COUNT>  (1) 
0

>  <PUBCHEM_BOND_UDEF_STEREO_COUNT>  (1) 
0

>  <PUBCHEM_ISOTOPIC_ATOM_COUNT>  (1) 
0

>  <PUBCHEM_COMPONENT_COUNT>  (1) 
1

>  <PUBCHEM_CACTVS_TAUTO_COUNT>  (1) 
3

>  <PUBCHEM_CONFORMER_ID>  (1) 
0000BB7000000001

>  <PUBCHEM_MMFF94_ENERGY>  (1) 
83.542

>  <PUBCHEM_FEATURE_SELFOVERLAP>  (1) 
35.685

>  <PUBCHEM_SHAPE_FINGERPRINT>  (1) 
10 15 18261396684839579176
10299344 5 9223231862081060742
10835480 77 18410014334060266089
11135609 187 18342457007203609779
11315181 36 16630527328773581923
11719270 70 18411138026723527986
12082328 90 18130786734079898845
125118 31 18335425681751903012
12838862 33 18338785775757367075
13782708 43 11311772822336227381
14344974 204 8357384030974519585
15131766 46 15721954819523100254
15183329 4 18187082820227736599
15461852 350 17989205988519225447
1577012 14 18339923711170115747
15840311 113 18260545633191751276
17093844 174 17821730568131452955
18335252 98 9367344830645164366
20554085 129 18059281107274185530
21033648 29 18186807967394465487
21130935 74 18040718095543978730
21150785 3 16702582740103096575
21298829 104 18410015408066003189
21792934 111 18336823101037849072
23081809 10 15841282449431185715
23559900 14 18272650190428764249
24771293 8 18410015441945960309
33532 11 9151175346344142492
335352 9 18410015438204432838
3633792 109 18129667391659968235
4073 2 18260835929019022995
4169191 19 18342465854335287889
444735 82 18261397805937813900
5104073 3 18264219027803352346
54039377 194 9871743611922617889
5470011 282 12319741375642366192
5937810 71 17845942827930586529
636775 72 18408604730643282213
9896288 288 11675140555103553551

>  <PUBCHEM_SHAPE_MULTIPOLES>  (1) 
575.11
27.14
2.59
1.07
0.01
1.38
0
15.97
-0.01
0
0
0
-0.18
-0.17

>  <PUBCHEM_SHAPE_SELFOVERLAP>  (1) 
1216.658

>  <PUBCHEM_SHAPE_VOLUME>  (1) 
327.6

>  <PUBCHEM_COORDINATE_TYPE>  (1) 
2
5
10

$$$$
