4798
     RDKit          3D

 27 29  0  0  1  0  0  0  0  0999 V2000
    4.0233    0.1997    1.5175 P   0  0  0  0  0  0  0  0  0  0  0  0
    4.1744   -1.8245   -0.9523 P   0  0  0  0  0  0  0  0  0  0  0  0
   -0.2174    1.2602    0.7945 O   0  0  0  0  0  0  0  0  0  0  0  0
    0.7768    2.1326   -2.5410 O   0  0  0  0  0  0  0  0  0  0  0  0
   -1.9117    3.3363   -1.5790 O   0  0  0  0  0  0  0  0  0  0  0  0
    2.4776    0.5927    1.2583 O   0  0  0  0  0  0  0  0  0  0  0  0
    4.7597    1.6133    1.7910 O   0  0  0  0  0  0  0  0  0  0  0  0
    4.2298   -0.8207    2.5986 O   0  0  0  0  0  0  0  0  0  0  0  0
    4.3558   -2.9668    0.1756 O   0  0  0  0  0  0  0  0  0  0  0  0
    2.5719   -1.6654   -1.0772 O   0  0  0  0  0  0  0  0  0  0  0  0
    4.8993   -2.0710   -2.2411 O   0  0  0  0  0  0  0  0  0  0  0  0
   -2.5555    0.9749    0.5627 N   0  0  0  0  0  0  0  0  0  0  0  0
   -4.4838    0.2413    1.4098 N   0  0  0  0  0  0  0  0  0  0  0  0
   -1.9459   -0.9405   -0.8017 N   0  0  0  0  0  0  0  0  0  0  0  0
   -3.6198   -2.7096   -0.6459 N   0  0  0  0  0  0  0  0  0  0  0  0
   -5.5861   -2.5028    0.7024 N   0  0  0  0  0  0  0  0  0  0  0  0
    0.2874    2.3652   -1.2340 C   0  0  0  0  0  0  0  0  0  0  0  0
   -1.2129    2.1723   -1.1733 C   0  0  0  0  0  0  0  0  0  0  0  0
    0.7698    1.3115   -0.2498 C   0  0  0  0  0  0  0  0  0  0  0  0
   -1.4282    1.8688    0.3050 C   0  0  0  0  0  0  0  0  0  0  0  0
    2.1277    1.6260    0.3520 C   0  0  0  0  0  0  0  0  0  0  0  0
   -2.7462   -0.2752    0.0448 C   0  0  0  0  0  0  0  0  0  0  0  0
   -3.6256    1.2394    1.3768 C   0  0  0  0  0  0  0  0  0  0  0  0
   -3.9467   -0.7120    0.5817 C   0  0  0  0  0  0  0  0  0  0  0  0
    4.6728   -0.3126   -0.0918 C   0  0  0  0  0  0  0  0  0  0  0  0
   -4.3789   -1.9803    0.2070 C   0  0  0  0  0  0  0  0  0  0  0  0
   -2.4674   -2.1526   -1.0907 C   0  0  0  0  0  0  0  0  0  0  0  0
  1  6  1  0
  1  7  1  0
  1  8  2  0
  1 25  1  0
  2  9  1  0
  2 10  1  0
  2 11  2  0
  2 25  1  0
  3 19  1  0
  3 20  1  0
  4 17  1  0
  5 18  1  0
  6 21  1  0
 12 20  1  0
 12 22  1  0
 12 23  1  0
 13 23  2  0
 13 24  1  0
 14 22  1  0
 14 27  2  0
 15 26  2  0
 15 27  1  0
 16 26  1  0
 17 18  1  0
 17 19  1  0
 18 20  1  0
 19 21  1  0
 22 24  2  0
 24 26  1  0
M  END
>  <PUBCHEM_COMPOUND_CID>  (1) 
4798

>  <PUBCHEM_CONFORMER_RMSD>  (1) 
1.2

>  <PUBCHEM_CONFORMER_DIVERSEORDER>  (1) 
3
107
6
32
129
228
205
276
218
16
89
144
215
214
101
254
191
25
148
162
62
63
253
172
230
38
252
72
151
153
137
44
158
249
157
227
91
8
112
196
267
127
37
97
2
125
182
161
116
190
105
66
59
237
36
155
34
85
272
74
235
213
55
30
96
103
241
41
226
165
188
124
26
57
10
54
120
223
183
138
47
12
212
104
45
49
139
207
60
52
118
255
92
33
102
217
1
99
132
73
200
95
94
225
160
4
258
126
68
128
13
169
40
141
275
256
270
247
65
216
7
184
24
248
185
115
189
130
149
231
219
123
67
266
154
42
277
224
14
19
159
198
229
35
109
147
84
83
86
39
233
27
100
21
28
5
264
240
70
76
242
257
261
48
193
29
79
171
75
71
142
131
221
58
203
260
268
46
69
209
18
134
88
238
43
232
273
173
278
77
80
23
210
87
245
106
170
93
271
186
195
179
192
17
175
259
152
244
140
114
121
81
78
220
9
180
20
122
64
269
246
177
136
119
50
178
199
113
145
111
208
222
22
31
234
265
90
98
187
201
117
11
176
262
110
274
174
133
181
108
251
194
53
202
167
150
82
61
236
146
263
156
164
204
143
166
135
51
163
250
243
197
168
206
15
56
211
239

>  <PUBCHEM_MMFF94_PARTIAL_CHARGES>  (1) 
35
1 1.24
10 -0.77
11 -0.7
12 0.05
13 -0.57
14 -0.57
15 -0.62
16 -0.9
17 0.28
18 0.28
19 0.28
2 1.24
20 0.54
21 0.28
22 0.11
23 0.04
24 0.23
26 0.41
27 0.47
3 -0.56
34 0.4
35 0.4
36 0.15
39 0.15
4 -0.68
40 0.5
41 0.4
42 0.4
43 0.5
44 0.5
5 -0.68
6 -0.55
7 -0.77
8 -0.7
9 -0.77

>  <PUBCHEM_EFFECTIVE_ROTOR_COUNT>  (1) 
7

>  <PUBCHEM_PHARMACOPHORE_FEATURES>  (1) 
19
1 10 acceptor
1 11 acceptor
1 16 cation
1 16 donor
1 3 acceptor
1 4 acceptor
1 4 donor
1 5 acceptor
1 5 donor
1 7 acceptor
1 8 acceptor
1 9 acceptor
3 12 13 23 cation
3 12 14 22 cation
3 14 15 27 cation
4 2 9 10 11 anion
5 12 13 22 23 24 rings
5 3 17 18 19 20 rings
6 14 15 22 24 26 27 rings

>  <PUBCHEM_HEAVY_ATOM_COUNT>  (1) 
27

>  <PUBCHEM_ATOM_DEF_STEREO_COUNT>  (1) 
0

>  <PUBCHEM_ATOM_UDEF_STEREO_COUNT>  (1) 
4

>  <PUBCHEM_BOND_DEF_STEREO_COUNT>  (1) 
0

>  <PUBCHEM_BOND_UDEF_STEREO_COUNT>  (1) 
0

>  <PUBCHEM_ISOTOPIC_ATOM_COUNT>  (1) 
0

>  <PUBCHEM_COMPONENT_COUNT>  (1) 
1

>  <PUBCHEM_CACTVS_TAUTO_COUNT>  (1) 
3

>  <PUBCHEM_CONFORMER_ID>  (1) 
000012BE00000003

>  <PUBCHEM_MMFF94_ENERGY>  (1) 
6.0439

>  <PUBCHEM_FEATURE_SELFOVERLAP>  (1) 
97.079

>  <PUBCHEM_SHAPE_FINGERPRINT>  (1) 
10042902 136 18339374031774368726
10928967 22 18261112903170740154
11370993 144 17775004548738318992
11552529 35 17488731410610595486
11582403 64 16627704727459001873
11991303 11 17025145221346935397
12403259 327 16701182039672613411
12422481 6 18271823306472123083
12553582 1 17894918424971750897
12633257 1 17702949128059487054
12892183 10 17703508882340982145
13551218 46 18202289138717219275
13583140 156 17060043883004078704
13692114 37 18120653531819131101
14251740 57 18270409402494896830
14251751 18 18192991526975407362
14420673 8 17986127213827235214
14429115 67 18337388356866546817
14950920 106 17274826826564549818
15342816 4 18040430001890269368
15537594 2 18187656751563545970
1813 80 18113337535037213621
21673915 165 18272365421048678378
21792934 111 18129959953150504915
23559900 14 18202006495351077008
328310 1195 12757155697095817206
341906 21 10951466212246953586
5104073 3 18060140916386528418
6371380 46 17625543389226403072
6823239 73 18131075896811049186
7970288 3 17967803989989282971

>  <PUBCHEM_SHAPE_MULTIPOLES>  (1) 
485.62
11.61
3.58
1.97
3.7
0.43
0.09
9.07
-3.79
-0.88
1.68
1.95
-0.51
1.26

>  <PUBCHEM_SHAPE_SELFOVERLAP>  (1) 
999.744

>  <PUBCHEM_SHAPE_VOLUME>  (1) 
281.6

>  <PUBCHEM_COORDINATE_TYPE>  (1) 
2
5
10

$$$$
