47980
     RDKit          3D

 14 14  0  0  0  0  0  0  0  0999 V2000
    0.3361    3.2374    0.0567 Cl  0  0  0  0  0  0  0  0  0  0  0  0
    4.0568   -0.5325   -0.7281 Cl  0  0  0  0  0  0  0  0  0  0  0  0
    1.8981   -2.7255    0.3610 Cl  0  0  0  0  0  0  0  0  0  0  0  0
   -1.7238    0.9005    1.1295 S   0  0  0  0  0  0  0  0  0  0  0  0
   -2.6993   -0.3110   -0.2829 P   0  0  0  0  0  0  0  0  0  0  0  0
   -2.3098   -1.8642   -0.0203 O   0  0  0  0  0  0  0  0  0  0  0  0
   -4.2873   -0.3141    0.0487 O   0  0  0  0  0  0  0  0  0  0  0  0
   -2.3951    0.1361   -1.6872 O   0  0  0  0  0  0  0  0  0  0  0  0
    0.2972   -0.7364    0.6461 N   0  0  0  0  0  0  0  0  0  0  0  0
   -0.0516    0.5683    0.5825 C   0  0  0  0  0  0  0  0  0  0  0  0
    0.7896    1.5753    0.1374 C   0  0  0  0  0  0  0  0  0  0  0  0
    2.0714    1.2206   -0.2686 C   0  0  0  0  0  0  0  0  0  0  0  0
    2.4670   -0.1115   -0.2179 C   0  0  0  0  0  0  0  0  0  0  0  0
    1.5506   -1.0430    0.2431 C   0  0  0  0  0  0  0  0  0  0  0  0
  1 11  1  0
  2 13  1  0
  3 14  1  0
  4  5  1  0
  4 10  1  0
  5  6  1  0
  5  7  1  0
  5  8  2  0
  9 10  2  0
  9 14  1  0
 10 11  1  0
 11 12  2  0
 12 13  1  0
 13 14  2  0
M  END
>  <PUBCHEM_COMPOUND_CID>  (1) 
47980

>  <PUBCHEM_CONFORMER_RMSD>  (1) 
0.6

>  <PUBCHEM_CONFORMER_DIVERSEORDER>  (1) 
1
3
2

>  <PUBCHEM_MMFF94_PARTIAL_CHARGES>  (1) 
17
1 -0.18
10 0.41
11 0.18
12 -0.15
13 0.18
14 0.49
15 0.15
16 0.5
17 0.5
2 -0.18
3 -0.18
4 -0.35
5 1.49
6 -0.77
7 -0.77
8 -0.7
9 -0.62

>  <PUBCHEM_EFFECTIVE_ROTOR_COUNT>  (1) 
2

>  <PUBCHEM_PHARMACOPHORE_FEATURES>  (1) 
6
1 6 acceptor
1 7 acceptor
1 8 acceptor
1 9 acceptor
4 5 6 7 8 anion
6 9 10 11 12 13 14 rings

>  <PUBCHEM_HEAVY_ATOM_COUNT>  (1) 
14

>  <PUBCHEM_ATOM_DEF_STEREO_COUNT>  (1) 
0

>  <PUBCHEM_ATOM_UDEF_STEREO_COUNT>  (1) 
0

>  <PUBCHEM_BOND_DEF_STEREO_COUNT>  (1) 
0

>  <PUBCHEM_BOND_UDEF_STEREO_COUNT>  (1) 
0

>  <PUBCHEM_ISOTOPIC_ATOM_COUNT>  (1) 
0

>  <PUBCHEM_COMPONENT_COUNT>  (1) 
1

>  <PUBCHEM_CACTVS_TAUTO_COUNT>  (1) 
1

>  <PUBCHEM_CONFORMER_ID>  (1) 
0000BB6C00000001

>  <PUBCHEM_MMFF94_ENERGY>  (1) 
-2.7135

>  <PUBCHEM_FEATURE_SELFOVERLAP>  (1) 
30.489

>  <PUBCHEM_SHAPE_FINGERPRINT>  (1) 
11471102 20 18338232769022475165
14576447 43 18413105065366929455
15757776 16 18411981347429865814
15775835 57 18186522128741603111
16945 1 18337112259447392664
20201158 50 18334858320344549971
20645477 70 18272088348640176159
20671657 53 18342460335106665684
20871998 184 17257661010587148112
21501502 16 17903363611161399378
21634736 98 18056199321867058070
221490 88 18120664787994022675
22802520 49 17823402830226944893
23402539 116 18339367362396760332
23552423 10 18268991062954865169
23559900 14 18340494461010974124
23598291 2 18057908929315131249
25 1 18259703419209784771
2748010 2 18120109513653204192
449060 23 17917717881090028718
6338986 31 18193542377246086202
7364860 26 18129099102941132137

>  <PUBCHEM_SHAPE_MULTIPOLES>  (1) 
278.83
5.67
2.76
0.99
1.53
0.97
0.16
-2.46
1.43
-0.79
-0.29
0.42
0.02
-0.41

>  <PUBCHEM_SHAPE_SELFOVERLAP>  (1) 
519.956

>  <PUBCHEM_SHAPE_VOLUME>  (1) 
178.9

>  <PUBCHEM_COORDINATE_TYPE>  (1) 
2
5
10

$$$$
