47992
     RDKit          3D

 49 56  0  0  0  0  0  0  0  0999 V2000
   -1.4067   -3.7599   -0.0086 O   0  0  0  0  0  0  0  0  0  0  0  0
    4.9235   -2.2795    0.7948 O   0  0  0  0  0  0  0  0  0  0  0  0
   -2.6527   -1.2381    0.0816 N   0  0  0  0  0  0  0  0  0  0  0  0
    3.3692   -0.0303    0.1272 N   0  0  0  0  0  0  0  0  0  0  0  0
   -3.9020    2.7511   -0.2262 N   0  0  0  0  0  0  0  0  0  0  0  0
    0.4902    2.9681   -0.4102 N   0  0  0  0  0  0  0  0  0  0  0  0
    2.3157   -3.5687    0.5031 C   0  0  0  0  0  0  0  0  0  0  0  0
    0.9833   -3.7928   -0.2096 C   0  0  0  0  0  0  0  0  0  0  0  0
    3.4971   -3.7738   -0.4497 C   0  0  0  0  0  0  0  0  0  0  0  0
   -0.1983   -3.5495    0.7186 C   0  0  0  0  0  0  0  0  0  0  0  0
    4.8390   -3.5876    0.2482 C   0  0  0  0  0  0  0  0  0  0  0  0
   -3.0764    0.1147   -0.0229 C   0  0  0  0  0  0  0  0  0  0  0  0
    2.4024    0.9766   -0.0531 C   0  0  0  0  0  0  0  0  0  0  0  0
   -3.9076    0.5013   -1.0791 C   0  0  0  0  0  0  0  0  0  0  0  0
    2.3416    2.0656    0.8333 C   0  0  0  0  0  0  0  0  0  0  0  0
   -2.6584    1.0476    0.9316 C   0  0  0  0  0  0  0  0  0  0  0  0
    1.4919    0.8993   -1.1209 C   0  0  0  0  0  0  0  0  0  0  0  0
   -3.2054   -2.3520    0.7268 C   0  0  0  0  0  0  0  0  0  0  0  0
    4.6879   -0.1855   -0.3527 C   0  0  0  0  0  0  0  0  0  0  0  0
   -4.3017    1.8485   -1.1429 C   0  0  0  0  0  0  0  0  0  0  0  0
    1.3604    3.0473    0.6150 C   0  0  0  0  0  0  0  0  0  0  0  0
   -3.1014    2.3734    0.7892 C   0  0  0  0  0  0  0  0  0  0  0  0
    0.5438    1.9267   -1.2628 C   0  0  0  0  0  0  0  0  0  0  0  0
   -2.5754   -3.6018    0.6745 C   0  0  0  0  0  0  0  0  0  0  0  0
    5.4441   -1.3027   -0.0143 C   0  0  0  0  0  0  0  0  0  0  0  0
   -4.3429   -0.4150   -2.0522 C   0  0  0  0  0  0  0  0  0  0  0  0
    3.2347    2.1788    1.9130 C   0  0  0  0  0  0  0  0  0  0  0  0
   -1.8233    0.6867    2.0033 C   0  0  0  0  0  0  0  0  0  0  0  0
    1.5207   -0.1738   -2.0288 C   0  0  0  0  0  0  0  0  0  0  0  0
   -4.4054   -2.2204    1.4366 C   0  0  0  0  0  0  0  0  0  0  0  0
    5.2364    0.7967   -1.1774 C   0  0  0  0  0  0  0  0  0  0  0  0
   -5.1293    2.2396   -2.1921 C   0  0  0  0  0  0  0  0  0  0  0  0
    1.3042    4.1242    1.4959 C   0  0  0  0  0  0  0  0  0  0  0  0
   -2.6888    3.3069    1.7363 C   0  0  0  0  0  0  0  0  0  0  0  0
   -0.3560    1.8455   -2.3223 C   0  0  0  0  0  0  0  0  0  0  0  0
   -3.1369   -4.7024    1.3222 C   0  0  0  0  0  0  0  0  0  0  0  0
    6.7426   -1.4490   -0.4914 C   0  0  0  0  0  0  0  0  0  0  0  0
   -5.1700    0.0013   -3.0911 C   0  0  0  0  0  0  0  0  0  0  0  0
    3.1576    3.2653    2.7793 C   0  0  0  0  0  0  0  0  0  0  0  0
   -1.4250    1.6391    2.9367 C   0  0  0  0  0  0  0  0  0  0  0  0
    0.6100   -0.2313   -3.0796 C   0  0  0  0  0  0  0  0  0  0  0  0
   -5.5639    1.3315   -3.1608 C   0  0  0  0  0  0  0  0  0  0  0  0
    2.1902    4.2397    2.5699 C   0  0  0  0  0  0  0  0  0  0  0  0
   -1.8588    2.9518    2.8026 C   0  0  0  0  0  0  0  0  0  0  0  0
   -0.3302    0.7806   -3.2262 C   0  0  0  0  0  0  0  0  0  0  0  0
   -4.9666   -3.3212    2.0839 C   0  0  0  0  0  0  0  0  0  0  0  0
    6.5381    0.6560   -1.6590 C   0  0  0  0  0  0  0  0  0  0  0  0
   -4.3325   -4.5620    2.0267 C   0  0  0  0  0  0  0  0  0  0  0  0
    7.2910   -0.4667   -1.3159 C   0  0  0  0  0  0  0  0  0  0  0  0
  1 10  1  0
  1 24  1  0
  2 11  1  0
  2 25  1  0
  3 12  1  0
  3 18  1  0
  4 13  1  0
  4 19  1  0
  5 20  2  0
  5 22  1  0
  6 21  2  0
  6 23  1  0
  7  8  1  0
  7  9  1  0
  8 10  1  0
  9 11  1  0
 12 14  2  0
 12 16  1  0
 13 15  2  0
 13 17  1  0
 14 20  1  0
 14 26  1  0
 15 21  1  0
 15 27  1  0
 16 22  2  0
 16 28  1  0
 17 23  2  0
 17 29  1  0
 18 24  1  0
 18 30  2  0
 19 25  1  0
 19 31  2  0
 20 32  1  0
 21 33  1  0
 22 34  1  0
 23 35  1  0
 24 36  2  0
 25 37  2  0
 26 38  2  0
 27 39  2  0
 28 40  2  0
 29 41  2  0
 30 46  1  0
 31 47  1  0
 32 42  2  0
 33 43  2  0
 34 44  2  0
 35 45  2  0
 36 48  1  0
 37 49  1  0
 38 42  1  0
 39 43  1  0
 40 44  1  0
 41 45  1  0
 46 48  2  0
 47 49  2  0
M  END
>  <PUBCHEM_COMPOUND_CID>  (1) 
47992

>  <PUBCHEM_CONFORMER_RMSD>  (1) 
1.4

>  <PUBCHEM_CONFORMER_DIVERSEORDER>  (1) 
1
283
38
280
108
296
61
71
30
23
260
263
113
89
28
133
137
48
321
65
166
272
43
219
180
320
50
33
62
233
9
204
288
104
247
4
36
164
267
132
293
123
77
290
251
323
230
300
256
302
301
153
31
311
148
140
238
163
139
172
63
176
253
120
208
168
103
146
82
66
305
316
183
162
271
291
322
130
73
186
6
314
287
155
7
308
117
205
303
128
111
239
234
173
145
64
60
157
279
309
190
273
193
2
72
284
24
252
241
206
138
249
244
16
156
12
214
199
213
242
102
325
122
297
5
194
181
34
99
96
285
185
107
210
294
177
39
237
110
76
248
114
222
225
226
317
69
175
147
289
231
84
207
246
189
20
262
86
188
254
85
149
257
235
3
182
13
125
312
100
141
112
324
152
59
109
167
161
53
220
22
212
25
88
229
118
116
266
196
228
243
8
198
232
179
275
75
51
259
255
10
87
187
57
250
299
191
126
92
15
170
270
292
129
151
101
79
144
282
17
201
258
52
223
318
136
203
159
49
121
81
200
277
35
195
58
127
115
268
40
94
14
307
276
295
93
90
124
143
78
42
97
261
310
278
21
306
158
236
98
240
105
106
216
265
245
91
68
55
95
313
18
160
119
67
11
269
192
217
27
83
26
44
274
227
171
56
218
45
54
215
315
150
304
174
286
184
298
70
202
197
169
80
165
211
154
41
135
319
142
224
281
134
209
74
178
221
131
19
46
37
29
47
32
264

>  <PUBCHEM_MMFF94_PARTIAL_CHARGES>  (1) 
68
1 -0.36
10 0.28
11 0.28
12 0.1
13 0.1
18 0.1
19 0.1
2 -0.36
20 0.31
21 0.31
22 0.31
23 0.31
24 0.08
25 0.08
26 -0.15
27 -0.15
28 -0.15
29 -0.15
3 -0.6
30 -0.15
31 -0.15
32 -0.15
33 -0.15
34 -0.15
35 -0.15
36 -0.15
37 -0.15
38 -0.15
39 -0.15
4 -0.6
40 -0.15
41 -0.15
42 -0.15
43 -0.15
44 -0.15
45 -0.15
46 -0.15
47 -0.15
48 -0.15
49 -0.15
5 -0.62
6 -0.62
60 0.4
61 0.4
62 0.15
63 0.15
64 0.15
65 0.15
66 0.15
67 0.15
68 0.15
69 0.15
70 0.15
71 0.15
72 0.15
73 0.15
74 0.15
75 0.15
76 0.15
77 0.15
78 0.15
79 0.15
80 0.15
81 0.15
82 0.15
83 0.15
84 0.15
85 0.15

>  <PUBCHEM_EFFECTIVE_ROTOR_COUNT>  (1) 
12

>  <PUBCHEM_PHARMACOPHORE_FEATURES>  (1) 
16
1 1 acceptor
1 2 acceptor
1 3 cation
1 3 donor
1 4 cation
1 4 donor
1 5 acceptor
1 6 acceptor
6 14 20 26 32 38 42 rings
6 15 21 27 33 39 43 rings
6 16 22 28 34 40 44 rings
6 17 23 29 35 41 45 rings
6 18 24 30 36 46 48 rings
6 19 25 31 37 47 49 rings
6 5 12 14 16 20 22 rings
6 6 13 15 17 21 23 rings

>  <PUBCHEM_HEAVY_ATOM_COUNT>  (1) 
49

>  <PUBCHEM_ATOM_DEF_STEREO_COUNT>  (1) 
0

>  <PUBCHEM_ATOM_UDEF_STEREO_COUNT>  (1) 
0

>  <PUBCHEM_BOND_DEF_STEREO_COUNT>  (1) 
0

>  <PUBCHEM_BOND_UDEF_STEREO_COUNT>  (1) 
0

>  <PUBCHEM_ISOTOPIC_ATOM_COUNT>  (1) 
0

>  <PUBCHEM_COMPONENT_COUNT>  (1) 
1

>  <PUBCHEM_CACTVS_TAUTO_COUNT>  (1) 
3

>  <PUBCHEM_CONFORMER_ID>  (1) 
0000BB7800000001

>  <PUBCHEM_MMFF94_ENERGY>  (1) 
202.9396

>  <PUBCHEM_FEATURE_SELFOVERLAP>  (1) 
81.326

>  <PUBCHEM_SHAPE_FINGERPRINT>  (1) 
10032420 55 18127678345134799808
10290309 65 17908698780455056528
10581848 31 18265634224070193102
11136257 43 17326055551578637567
12107698 1 17703781514048777461
12355185 1 17846489370280072918
12633046 712 18411423912494216148
12977781 61 18265040504818043401
14068700 675 17703494524376340885
14725015 67 18265908032251218731
20764821 26 17037805955289650858
463206 1 18196939872671088474
48014 12 18114761416044770158

>  <PUBCHEM_SHAPE_MULTIPOLES>  (1) 
976.73
13.68
6.72
3.36
12.16
4.76
0.96
5.61
5.13
-2.1
-5.47
-3.25
-2.45
4.29

>  <PUBCHEM_SHAPE_SELFOVERLAP>  (1) 
2192.933

>  <PUBCHEM_SHAPE_VOLUME>  (1) 
512.8

>  <PUBCHEM_COORDINATE_TYPE>  (1) 
2
5
10

$$$$
