4799
     RDKit          2D

 31 33  0  0  1  0  0  0  0  0999 V2000
    0.0000    0.0000    0.0000 P   0  0  0  0  0  0  0  0  0  0  0  0
    0.0000    0.0000    0.0000 P   0  0  0  0  0  0  0  0  0  0  0  0
    0.0000    0.0000    0.0000 P   0  0  0  0  0  0  0  0  0  0  0  0
    0.0000    0.0000    0.0000 O   0  0  0  0  0  0  0  0  0  0  0  0
    0.0000    0.0000    0.0000 O   0  0  0  0  0  0  0  0  0  0  0  0
    0.0000    0.0000    0.0000 O   0  0  0  0  0  0  0  0  0  0  0  0
    0.0000    0.0000    0.0000 O   0  0  0  0  0  0  0  0  0  0  0  0
    0.0000    0.0000    0.0000 O   0  0  0  0  0  0  0  0  0  0  0  0
    0.0000    0.0000    0.0000 O   0  0  0  0  0  0  0  0  0  0  0  0
    0.0000    0.0000    0.0000 O   0  0  0  0  0  0  0  0  0  0  0  0
    0.0000    0.0000    0.0000 O   0  0  0  0  0  0  0  0  0  0  0  0
    0.0000    0.0000    0.0000 O   0  0  0  0  0  0  0  0  0  0  0  0
    0.0000    0.0000    0.0000 O   0  0  0  0  0  0  0  0  0  0  0  0
    0.0000    0.0000    0.0000 O   0  0  0  0  0  0  0  0  0  0  0  0
    0.0000    0.0000    0.0000 O   0  0  0  0  0  0  0  0  0  0  0  0
    0.0000    0.0000    0.0000 N   0  0  0  0  0  0  0  0  0  0  0  0
    0.0000    0.0000    0.0000 N   0  0  0  0  0  0  0  0  0  0  0  0
    0.0000    0.0000    0.0000 N   0  0  0  0  0  0  0  0  0  0  0  0
    0.0000    0.0000    0.0000 N   0  0  0  0  0  0  0  0  0  0  0  0
    0.0000    0.0000    0.0000 N   0  0  0  0  0  0  0  0  0  0  0  0
    0.0000    0.0000    0.0000 C   0  0  0  0  0  0  0  0  0  0  0  0
    0.0000    0.0000    0.0000 C   0  0  0  0  0  0  0  0  0  0  0  0
    0.0000    0.0000    0.0000 C   0  0  0  0  0  0  0  0  0  0  0  0
    0.0000    0.0000    0.0000 C   0  0  0  0  0  0  0  0  0  0  0  0
    0.0000    0.0000    0.0000 C   0  0  0  0  0  0  0  0  0  0  0  0
    0.0000    0.0000    0.0000 C   0  0  0  0  0  0  0  0  0  0  0  0
    0.0000    0.0000    0.0000 C   0  0  0  0  0  0  0  0  0  0  0  0
    0.0000    0.0000    0.0000 C   0  0  0  0  0  0  0  0  0  0  0  0
    0.0000    0.0000    0.0000 C   0  0  0  0  0  0  0  0  0  0  0  0
    0.0000    0.0000    0.0000 C   0  0  0  0  0  0  0  0  0  0  0  0
    0.0000    0.0000    0.0000 C   0  0  0  0  0  0  0  0  0  0  0  0
  1  7  1  0
  1  8  1  0
  1  9  1  0
  1 10  2  0
  2  8  1  0
  2 11  1  0
  2 12  2  0
  2 31  1  0
  3 13  1  0
  3 14  1  0
  3 15  2  0
  3 31  1  0
  4 23  1  0
  4 24  1  0
  5 21  1  0
  6 22  1  0
  7 25  1  0
 16 24  1  0
 16 26  1  0
 16 27  1  0
 17 27  2  0
 17 28  1  0
 18 26  1  0
 18 30  2  0
 19 29  2  0
 19 30  1  0
 20 29  1  0
 21 22  1  0
 21 23  1  0
 22 24  1  0
 23 25  1  0
 26 28  2  0
 28 29  1  0
M  END
>  <PUBCHEM_COMPOUND_CID>  (1) 
4799

>  <PUBCHEM_CONFORMER_RMSD>  (1) 
1.6

>  <PUBCHEM_CONFORMER_DIVERSEORDER>  (1) 
13
111
9
150
125
35
107
134
11
114
82
52
124
99
5
78
85
75
47
25
39
129
160
62
68
2
15
136
23
6
56
44
79
92
131
137
177
34
143
98
29
106
53
148
133
135
3
16
83
57
21
41
153
112
54
30
104
117
156
45
46
166
170
26
55
167
95
42
66
76
32
102
73
14
51
123
171
80
94
119
7
58
101
168
64
108
60
128
37
100
72
142
27
138
81
144
22
165
115
33
43
17
96
71
97
116
20
84
175
103
121
162
61
141
172
93
19
173
158
10
48
86
88
110
18
154
63
59
122
40
1
149
36
147
38
24
69
77
157
28
67
126
70
127
90
31
65
151
12
120
176
109
74
178
169
49
118
146
145
89
174
8
4
161
140
159
163
152
113
132
130
139
87
91
155
164
105
50

>  <PUBCHEM_MMFF94_PARTIAL_CHARGES>  (1) 
40
1 1.51
10 -0.7
11 -0.77
12 -0.7
13 -0.77
14 -0.77
15 -0.7
16 0.05
17 -0.57
18 -0.57
19 -0.62
2 1.24
20 -0.9
21 0.28
22 0.28
23 0.28
24 0.54
25 0.28
26 0.11
27 0.04
28 0.23
29 0.41
3 1.24
30 0.47
38 0.4
39 0.4
4 -0.56
40 0.15
43 0.15
44 0.5
45 0.4
46 0.4
47 0.5
48 0.5
49 0.5
5 -0.68
6 -0.68
7 -0.55
8 -0.54
9 -0.77

>  <PUBCHEM_EFFECTIVE_ROTOR_COUNT>  (1) 
9

>  <PUBCHEM_PHARMACOPHORE_FEATURES>  (1) 
21
1 10 acceptor
1 11 acceptor
1 12 acceptor
1 13 acceptor
1 14 acceptor
1 15 acceptor
1 20 cation
1 20 donor
1 4 acceptor
1 5 acceptor
1 5 donor
1 6 acceptor
1 6 donor
1 9 acceptor
3 16 17 27 cation
3 16 18 26 cation
3 18 19 30 cation
4 3 13 14 15 anion
5 16 17 26 27 28 rings
5 4 21 22 23 24 rings
6 18 19 26 28 29 30 rings

>  <PUBCHEM_HEAVY_ATOM_COUNT>  (1) 
31

>  <PUBCHEM_ATOM_DEF_STEREO_COUNT>  (1) 
0

>  <PUBCHEM_ATOM_UDEF_STEREO_COUNT>  (1) 
4

>  <PUBCHEM_BOND_DEF_STEREO_COUNT>  (1) 
0

>  <PUBCHEM_BOND_UDEF_STEREO_COUNT>  (1) 
0

>  <PUBCHEM_ISOTOPIC_ATOM_COUNT>  (1) 
0

>  <PUBCHEM_COMPONENT_COUNT>  (1) 
1

>  <PUBCHEM_CACTVS_TAUTO_COUNT>  (1) 
3

$$$$
