48006
     RDKit          3D

 37 42  0  0  0  0  0  0  0  0999 V2000
   -3.4551   -1.7957    0.7940 O   0  0  0  0  0  0  0  0  0  0  0  0
   -1.6759    0.2600    0.0664 N   0  0  0  0  0  0  0  0  0  0  0  0
    1.3808   -3.6649    0.6414 N   0  0  0  0  0  0  0  0  0  0  0  0
    1.4988    2.9151   -0.5965 N   0  0  0  0  0  0  0  0  0  0  0  0
    2.5746    0.1503    1.9194 N   0  0  0  0  0  0  0  0  0  0  0  0
   -1.0447   -3.3844    0.4640 C   0  0  0  0  0  0  0  0  0  0  0  0
   -2.4171   -3.9584    0.8188 C   0  0  0  0  0  0  0  0  0  0  0  0
    0.1040   -4.2393    0.9934 C   0  0  0  0  0  0  0  0  0  0  0  0
   -0.5992    1.1602   -0.1585 C   0  0  0  0  0  0  0  0  0  0  0  0
   -3.5440   -3.1093    0.2466 C   0  0  0  0  0  0  0  0  0  0  0  0
    0.2413    0.9743   -1.2606 C   0  0  0  0  0  0  0  0  0  0  0  0
   -0.3898    2.2244    0.7244 C   0  0  0  0  0  0  0  0  0  0  0  0
    1.2926    1.8884   -1.4439 C   0  0  0  0  0  0  0  0  0  0  0  0
    0.6862    3.0897    0.4635 C   0  0  0  0  0  0  0  0  0  0  0  0
   -3.0106    0.2610   -0.3595 C   0  0  0  0  0  0  0  0  0  0  0  0
   -3.8862   -0.7678    0.0096 C   0  0  0  0  0  0  0  0  0  0  0  0
    1.7942   -2.4046    1.0426 C   0  0  0  0  0  0  0  0  0  0  0  0
    2.8256   -1.6900    0.3840 C   0  0  0  0  0  0  0  0  0  0  0  0
    0.0540   -0.0864   -2.1641 C   0  0  0  0  0  0  0  0  0  0  0  0
   -1.2190    2.4352    1.8399 C   0  0  0  0  0  0  0  0  0  0  0  0
    2.1329    1.7086   -2.5394 C   0  0  0  0  0  0  0  0  0  0  0  0
    0.8999    4.1511    1.3389 C   0  0  0  0  0  0  0  0  0  0  0  0
   -3.4825    1.3038   -1.1662 C   0  0  0  0  0  0  0  0  0  0  0  0
    3.1845   -0.4110    0.8583 C   0  0  0  0  0  0  0  0  0  0  0  0
   -5.2129   -0.7536   -0.4214 C   0  0  0  0  0  0  0  0  0  0  0  0
    1.1726   -1.8023    2.1447 C   0  0  0  0  0  0  0  0  0  0  0  0
    0.9081   -0.2439   -3.2514 C   0  0  0  0  0  0  0  0  0  0  0  0
   -0.9839    3.5040    2.6997 C   0  0  0  0  0  0  0  0  0  0  0  0
    1.9497    0.6557   -3.4391 C   0  0  0  0  0  0  0  0  0  0  0  0
    0.0778    4.3634    2.4484 C   0  0  0  0  0  0  0  0  0  0  0  0
    3.4834   -2.2454   -0.7266 C   0  0  0  0  0  0  0  0  0  0  0  0
   -4.8091    1.3177   -1.5972 C   0  0  0  0  0  0  0  0  0  0  0  0
   -5.6742    0.2890   -1.2248 C   0  0  0  0  0  0  0  0  0  0  0  0
    4.2005    0.2720    0.1954 C   0  0  0  0  0  0  0  0  0  0  0  0
    1.5924   -0.5469    2.5352 C   0  0  0  0  0  0  0  0  0  0  0  0
    4.4960   -1.5402   -1.3706 C   0  0  0  0  0  0  0  0  0  0  0  0
    4.8547   -0.2799   -0.9088 C   0  0  0  0  0  0  0  0  0  0  0  0
  1 10  1  0
  1 16  1  0
  2  9  1  0
  2 15  1  0
  3  8  1  0
  3 17  1  0
  4 13  2  0
  4 14  1  0
  5 24  2  0
  5 35  1  0
  6  7  1  0
  6  8  1  0
  7 10  1  0
  9 11  2  0
  9 12  1  0
 11 13  1  0
 11 19  1  0
 12 14  2  0
 12 20  1  0
 13 21  1  0
 14 22  1  0
 15 16  1  0
 15 23  2  0
 16 25  2  0
 17 18  2  0
 17 26  1  0
 18 24  1  0
 18 31  1  0
 19 27  2  0
 20 28  2  0
 21 29  2  0
 22 30  2  0
 23 32  1  0
 24 34  1  0
 25 33  1  0
 26 35  2  0
 27 29  1  0
 28 30  1  0
 31 36  2  0
 32 33  2  0
 34 37  2  0
 36 37  1  0
M  END
>  <PUBCHEM_COMPOUND_CID>  (1) 
48006

>  <PUBCHEM_CONFORMER_RMSD>  (1) 
1.2

>  <PUBCHEM_CONFORMER_DIVERSEORDER>  (1) 
1
116
52
97
104
230
155
147
3
8
51
150
70
91
260
208
200
236
192
55
210
42
6
77
41
195
115
172
222
220
83
206
212
89
47
214
133
119
50
262
211
266
176
127
56
226
163
138
241
46
109
209
272
256
252
227
100
249
132
118
76
160
173
181
268
258
27
117
237
218
215
248
161
169
5
269
102
120
45
125
196
159
21
170
145
231
166
20
264
33
261
228
177
121
267
43
221
189
146
85
201
25
124
58
245
213
106
61
75
81
217
37
247
255
243
126
122
204
72
16
86
229
134
44
57
78
219
90
113
246
223
232
271
63
49
84
186
88
203
185
13
137
67
202
167
128
65
180
15
95
182
94
263
190
242
164
183
53
205
154
18
162
240
17
35
224
239
22
7
87
108
216
34
250
153
107
156
111
130
270
157
174
114
60
40
265
140
79
151
199
197
148
191
142
68
32
143
59
257
149
30
158
175
259
141
244
24
235
2
152
171
234
71
193
207
19
233
198
93
105
98
11
29
69
135
131
80
168
254
96
54
165
39
64
110
4
179
188
184
253
194
23
48
99
12
28
74
144
73
38
66
178
225
36
26
123
9
62
238
10
31
92
14
136
112
129
82
187
139
251
101
103

>  <PUBCHEM_MMFF94_PARTIAL_CHARGES>  (1) 
52
1 -0.36
10 0.28
13 0.31
14 0.31
15 0.1
16 0.08
17 0.1
19 -0.15
2 -0.6
20 -0.15
21 -0.15
22 -0.15
23 -0.15
24 0.31
25 -0.15
26 -0.15
27 -0.15
28 -0.15
29 -0.15
3 -0.87
30 -0.15
31 -0.15
32 -0.15
33 -0.15
34 -0.15
35 0.16
36 -0.15
37 -0.15
4 -0.62
46 0.4
47 0.4
48 0.15
49 0.15
5 -0.62
50 0.15
51 0.15
52 0.15
53 0.15
54 0.15
55 0.15
56 0.15
57 0.15
58 0.15
59 0.15
60 0.15
61 0.15
62 0.15
63 0.15
64 0.15
65 0.15
8 0.37
9 0.1

>  <PUBCHEM_EFFECTIVE_ROTOR_COUNT>  (1) 
9

>  <PUBCHEM_PHARMACOPHORE_FEATURES>  (1) 
13
1 1 acceptor
1 2 cation
1 2 donor
1 3 cation
1 3 donor
1 4 acceptor
1 5 acceptor
6 11 13 19 21 27 29 rings
6 12 14 20 22 28 30 rings
6 15 16 23 25 32 33 rings
6 18 24 31 34 36 37 rings
6 4 9 11 12 13 14 rings
6 5 17 18 24 26 35 rings

>  <PUBCHEM_HEAVY_ATOM_COUNT>  (1) 
37

>  <PUBCHEM_ATOM_DEF_STEREO_COUNT>  (1) 
0

>  <PUBCHEM_ATOM_UDEF_STEREO_COUNT>  (1) 
0

>  <PUBCHEM_BOND_DEF_STEREO_COUNT>  (1) 
0

>  <PUBCHEM_BOND_UDEF_STEREO_COUNT>  (1) 
0

>  <PUBCHEM_ISOTOPIC_ATOM_COUNT>  (1) 
0

>  <PUBCHEM_COMPONENT_COUNT>  (1) 
1

>  <PUBCHEM_CACTVS_TAUTO_COUNT>  (1) 
6

>  <PUBCHEM_CONFORMER_ID>  (1) 
0000BB8600000001

>  <PUBCHEM_MMFF94_ENERGY>  (1) 
148.2249

>  <PUBCHEM_FEATURE_SELFOVERLAP>  (1) 
66.066

>  <PUBCHEM_SHAPE_FINGERPRINT>  (1) 
10190206 1 18193297212762140550
11399939 17 16686262367164348609
11513181 2 17983283834230374095
12156800 1 17323801540199114668
12422481 6 16673265581319752736
12522641 24 18341604946448924955
12788726 201 18055627326749194169
13583140 156 18054219097410125453
14068700 675 18266451023343233678
14117953 113 17681538252027173006
15297060 5 18410579461462250482
161222 10 18120399582522000846
161222 619 17841112797196546816
17492 54 16950581964805074974
20600515 1 18341624701975004605
23559900 14 18188198918877097093
35225 105 17338979855295267652
463206 1 17968384558114231823
57527452 28 17822566127943293186
6669772 16 17911794987998145464

>  <PUBCHEM_SHAPE_MULTIPOLES>  (1) 
735.65
8.19
5.55
2.96
6.37
0.04
-1.04
3.56
-3.55
0.72
4.4
-1.43
-1.76
0.02

>  <PUBCHEM_SHAPE_SELFOVERLAP>  (1) 
1643.176

>  <PUBCHEM_SHAPE_VOLUME>  (1) 
388.2

>  <PUBCHEM_COORDINATE_TYPE>  (1) 
2
5
10

$$$$
