48008
     RDKit          3D

 38 43  0  0  0  0  0  0  0  0999 V2000
   -3.7520   -1.3033   -1.2270 O   0  0  0  0  0  0  0  0  0  0  0  0
    1.2245   -2.9419   -1.0184 N   0  0  0  0  0  0  0  0  0  0  0  0
   -1.8058    0.3908   -0.1173 N   0  0  0  0  0  0  0  0  0  0  0  0
    1.6189    2.4345    1.1724 N   0  0  0  0  0  0  0  0  0  0  0  0
    4.4503   -1.0824    0.8543 N   0  0  0  0  0  0  0  0  0  0  0  0
   -1.7217   -3.3422   -0.6874 C   0  0  0  0  0  0  0  0  0  0  0  0
   -0.7244   -4.4197   -1.1255 C   0  0  0  0  0  0  0  0  0  0  0  0
   -3.1261   -3.6372   -1.2238 C   0  0  0  0  0  0  0  0  0  0  0  0
    0.6733   -4.1929   -0.5546 C   0  0  0  0  0  0  0  0  0  0  0  0
   -4.1452   -2.5971   -0.7747 C   0  0  0  0  0  0  0  0  0  0  0  0
   -0.6444    1.0838    0.3199 C   0  0  0  0  0  0  0  0  0  0  0  0
   -0.1218    2.1213   -0.4589 C   0  0  0  0  0  0  0  0  0  0  0  0
   -0.0344    0.7224    1.5254 C   0  0  0  0  0  0  0  0  0  0  0  0
    2.2958   -2.3025   -0.4149 C   0  0  0  0  0  0  0  0  0  0  0  0
   -3.1725    0.6115    0.0977 C   0  0  0  0  0  0  0  0  0  0  0  0
   -4.1260   -0.2399   -0.4609 C   0  0  0  0  0  0  0  0  0  0  0  0
    1.0272    2.7786    0.0121 C   0  0  0  0  0  0  0  0  0  0  0  0
    1.1113    1.4345    1.9187 C   0  0  0  0  0  0  0  0  0  0  0  0
    2.7983   -1.0876   -0.9001 C   0  0  0  0  0  0  0  0  0  0  0  0
   -0.7146    2.5056   -1.6743 C   0  0  0  0  0  0  0  0  0  0  0  0
   -0.5381   -0.3160    2.3280 C   0  0  0  0  0  0  0  0  0  0  0  0
    3.8916   -0.5045   -0.2260 C   0  0  0  0  0  0  0  0  0  0  0  0
   -3.5766    1.6942    0.8788 C   0  0  0  0  0  0  0  0  0  0  0  0
    2.8694   -2.9004    0.6979 C   0  0  0  0  0  0  0  0  0  0  0  0
    1.5524    3.8124   -0.7588 C   0  0  0  0  0  0  0  0  0  0  0  0
    1.7233    1.0794    3.1179 C   0  0  0  0  0  0  0  0  0  0  0  0
   -5.4834   -0.0083   -0.2381 C   0  0  0  0  0  0  0  0  0  0  0  0
   -0.1700    3.5423   -2.4261 C   0  0  0  0  0  0  0  0  0  0  0  0
    0.0923   -0.6514    3.5225 C   0  0  0  0  0  0  0  0  0  0  0  0
    2.2396   -0.4567   -2.0246 C   0  0  0  0  0  0  0  0  0  0  0  0
    0.9658    4.1969   -1.9671 C   0  0  0  0  0  0  0  0  0  0  0  0
    1.2253    0.0480    3.9180 C   0  0  0  0  0  0  0  0  0  0  0  0
   -4.9341    1.9257    1.1014 C   0  0  0  0  0  0  0  0  0  0  0  0
   -5.8874    1.0744    0.5430 C   0  0  0  0  0  0  0  0  0  0  0  0
    3.9355   -2.2546    1.2907 C   0  0  0  0  0  0  0  0  0  0  0  0
    4.3903    0.7024   -0.7083 C   0  0  0  0  0  0  0  0  0  0  0  0
    2.7585    0.7500   -2.4855 C   0  0  0  0  0  0  0  0  0  0  0  0
    3.8351    1.3299   -1.8262 C   0  0  0  0  0  0  0  0  0  0  0  0
  1 10  1  0
  1 16  1  0
  2  9  1  0
  2 14  1  0
  3 11  1  0
  3 15  1  0
  4 17  2  0
  4 18  1  0
  5 22  2  0
  5 35  1  0
  6  7  1  0
  6  8  1  0
  7  9  1  0
  8 10  1  0
 11 12  2  0
 11 13  1  0
 12 17  1  0
 12 20  1  0
 13 18  2  0
 13 21  1  0
 14 19  2  0
 14 24  1  0
 15 16  1  0
 15 23  2  0
 16 27  2  0
 17 25  1  0
 18 26  1  0
 19 22  1  0
 19 30  1  0
 20 28  2  0
 21 29  2  0
 22 36  1  0
 23 33  1  0
 24 35  2  0
 25 31  2  0
 26 32  2  0
 27 34  1  0
 28 31  1  0
 29 32  1  0
 30 37  2  0
 33 34  2  0
 36 38  2  0
 37 38  1  0
M  END
>  <PUBCHEM_COMPOUND_CID>  (1) 
48008

>  <PUBCHEM_CONFORMER_RMSD>  (1) 
1.2

>  <PUBCHEM_CONFORMER_DIVERSEORDER>  (1) 
1
16
293
21
154
55
183
60
118
327
93
148
387
307
200
317
179
195
222
147
260
113
117
231
384
238
425
146
65
274
201
288
104
6
427
132
10
332
149
269
409
220
82
214
178
275
368
217
382
98
164
123
376
336
300
324
206
256
430
262
150
419
362
413
270
242
232
285
51
57
263
319
310
31
278
264
32
5
235
221
334
196
141
371
89
230
99
321
64
282
358
305
210
119
2
79
283
337
365
26
13
128
304
333
30
312
253
342
294
335
295
311
97
364
279
405
245
52
115
105
394
152
271
329
265
90
399
367
401
379
12
422
243
268
216
83
161
3
389
373
366
219
328
4
255
378
259
306
8
165
87
432
111
344
67
363
106
417
190
258
45
208
400
433
303
350
20
236
313
78
116
402
239
207
386
127
46
410
169
280
72
357
112
29
428
377
421
388
291
411
75
170
395
316
370
125
156
48
403
27
68
297
383
109
213
223
25
286
35
56
88
406
423
424
251
431
226
240
392
215
284
343
180
393
407
237
144
76
121
218
34
175
244
414
314
142
229
416
261
61
14
199
160
272
228
326
17
296
155
37
277
96
153
62
188
28
254
9
227
331
129
404
391
352
247
71
177
166
233
408
19
174
224
86
63
38
353
7
184
320
151
192
374
318
298
241
249
185
309
289
131
252
203
41
340
91
95
143
59
339
159
211
187
163
359
345
398
49
43
322
140
145
234
42
250
273
341
24
302
415
22
36
66
134
107
330
77
346
135
182
18
360
369
287
338
173
193
212
126
47
315
124
122
301
176
385
292
347
356
198
189
94
372
33
44
194
349
257
81
191
355
205
80
209
290
202
225
172
171
102
248
323
396
136
137
429
380
15
114
167
54
325
168
101
397
197
181
50
266
299
103
267
412
133
354
40
73
39
246
276
74
11
120
418
58
92
281
361
130
351
53
162
85
186
23
158
139
348
420
100
375
84
308
157
70
390
69
108
426
138
204
110
381

>  <PUBCHEM_MMFF94_PARTIAL_CHARGES>  (1) 
52
1 -0.36
10 0.28
11 0.1
14 0.1
15 0.1
16 0.08
17 0.31
18 0.31
2 -0.87
20 -0.15
21 -0.15
22 0.31
23 -0.15
24 -0.15
25 -0.15
26 -0.15
27 -0.15
28 -0.15
29 -0.15
3 -0.6
30 -0.15
31 -0.15
32 -0.15
33 -0.15
34 -0.15
35 0.16
36 -0.15
37 -0.15
38 -0.15
4 -0.62
49 0.4
5 -0.62
50 0.4
51 0.15
52 0.15
53 0.15
54 0.15
55 0.15
56 0.15
57 0.15
58 0.15
59 0.15
60 0.15
61 0.15
62 0.15
63 0.15
64 0.15
65 0.15
66 0.15
67 0.15
68 0.15
9 0.37

>  <PUBCHEM_EFFECTIVE_ROTOR_COUNT>  (1) 
10

>  <PUBCHEM_PHARMACOPHORE_FEATURES>  (1) 
13
1 1 acceptor
1 2 cation
1 2 donor
1 3 cation
1 3 donor
1 4 acceptor
1 5 acceptor
6 12 17 20 25 28 31 rings
6 13 18 21 26 29 32 rings
6 15 16 23 27 33 34 rings
6 19 22 30 36 37 38 rings
6 4 11 12 13 17 18 rings
6 5 14 19 22 24 35 rings

>  <PUBCHEM_HEAVY_ATOM_COUNT>  (1) 
38

>  <PUBCHEM_ATOM_DEF_STEREO_COUNT>  (1) 
0

>  <PUBCHEM_ATOM_UDEF_STEREO_COUNT>  (1) 
0

>  <PUBCHEM_BOND_DEF_STEREO_COUNT>  (1) 
0

>  <PUBCHEM_BOND_UDEF_STEREO_COUNT>  (1) 
0

>  <PUBCHEM_ISOTOPIC_ATOM_COUNT>  (1) 
0

>  <PUBCHEM_COMPONENT_COUNT>  (1) 
1

>  <PUBCHEM_CACTVS_TAUTO_COUNT>  (1) 
6

>  <PUBCHEM_CONFORMER_ID>  (1) 
0000BB8800000001

>  <PUBCHEM_MMFF94_ENERGY>  (1) 
146.2752

>  <PUBCHEM_FEATURE_SELFOVERLAP>  (1) 
66.066

>  <PUBCHEM_SHAPE_FINGERPRINT>  (1) 
12128747 34 17346585349582579249
12156800 1 17551212396411344256
12422481 6 17327772516611215841
1361 2 18337403663903052126
13617811 41 18340480085565971933
13642711 20 16877947135129909595
14068700 675 17697321720396516990
14117953 113 18267587892607282367
144659 178 18054786445231001841
14932702 115 18058462065173049538
15001296 14 18193556907711311847
15297060 5 17917165930627688102
17921350 177 17178222790002507054
17974551 9 17346019135358768345
19309040 13 17171277115020459541
20600515 1 18131637751167664318
20764821 26 17908411807999666063
21033648 29 12750379282174028291
22121540 332 17271145838166284256
35225 105 12675200475130123534
463206 1 18334863809455140102
57527452 28 18059023782855823398
70251023 43 17906480752158889950

>  <PUBCHEM_SHAPE_MULTIPOLES>  (1) 
756.23
8.78
5.55
3.05
9.35
2.26
2.8
1.21
-0.93
-0.21
-3.64
-1.85
-0.91
-2.08

>  <PUBCHEM_SHAPE_SELFOVERLAP>  (1) 
1682.038

>  <PUBCHEM_SHAPE_VOLUME>  (1) 
401.2

>  <PUBCHEM_COORDINATE_TYPE>  (1) 
2
5
10

$$$$
