48016
     RDKit          3D

 40 45  0  0  0  0  0  0  0  0999 V2000
    2.7785   -4.2410   -0.2599 S   0  0  0  0  0  0  0  0  0  0  0  0
    3.5294   -5.4684   -0.0721 O   0  0  0  0  0  0  0  0  0  0  0  0
    2.9566   -3.4440   -1.4574 O   0  0  0  0  0  0  0  0  0  0  0  0
    1.1115   -4.5753    0.0149 N   0  0  0  0  0  0  0  0  0  0  0  0
    4.3177    0.2106    1.2424 N   0  0  0  0  0  0  0  0  0  0  0  0
   -2.6525   -0.6482   -1.3914 N   0  0  0  0  0  0  0  0  0  0  0  0
   -5.0933    1.8692    0.9048 N   0  0  0  0  0  0  0  0  0  0  0  0
    2.3654    3.8102    0.4648 N   0  0  0  0  0  0  0  0  0  0  0  0
    4.5722   -2.7278    1.1851 C   0  0  0  0  0  0  0  0  0  0  0  0
    3.1262   -3.2037    1.1428 C   0  0  0  0  0  0  0  0  0  0  0  0
    4.8786   -1.8610    2.4123 C   0  0  0  0  0  0  0  0  0  0  0  0
    4.0685   -0.5667    2.4323 C   0  0  0  0  0  0  0  0  0  0  0  0
   -3.4803    0.2054   -0.6128 C   0  0  0  0  0  0  0  0  0  0  0  0
    0.1553   -3.5775   -0.3437 C   0  0  0  0  0  0  0  0  0  0  0  0
    3.6831    1.4100    0.9593 C   0  0  0  0  0  0  0  0  0  0  0  0
   -4.7588   -0.2209   -0.2391 C   0  0  0  0  0  0  0  0  0  0  0  0
   -3.0091    1.4644   -0.2269 C   0  0  0  0  0  0  0  0  0  0  0  0
   -1.7132   -1.6269   -1.0411 C   0  0  0  0  0  0  0  0  0  0  0  0
   -5.5423    0.6556    0.5305 C   0  0  0  0  0  0  0  0  0  0  0  0
   -3.8611    2.2749    0.5422 C   0  0  0  0  0  0  0  0  0  0  0  0
    3.9570    2.1316   -0.2105 C   0  0  0  0  0  0  0  0  0  0  0  0
   -0.0978   -3.3031   -1.6877 C   0  0  0  0  0  0  0  0  0  0  0  0
   -0.5257   -2.8765    0.6516 C   0  0  0  0  0  0  0  0  0  0  0  0
   -1.0320   -2.3279   -2.0364 C   0  0  0  0  0  0  0  0  0  0  0  0
   -1.4598   -1.9013    0.3029 C   0  0  0  0  0  0  0  0  0  0  0  0
   -5.2577   -1.4809   -0.6127 C   0  0  0  0  0  0  0  0  0  0  0  0
   -1.7286    1.9184   -0.5882 C   0  0  0  0  0  0  0  0  0  0  0  0
    3.2660    3.3432   -0.4206 C   0  0  0  0  0  0  0  0  0  0  0  0
    2.7556    1.8886    1.8735 C   0  0  0  0  0  0  0  0  0  0  0  0
   -6.8161    0.2369    0.9057 C   0  0  0  0  0  0  0  0  0  0  0  0
   -3.3977    3.5294    0.9295 C   0  0  0  0  0  0  0  0  0  0  0  0
    4.8906    1.6738   -1.1559 C   0  0  0  0  0  0  0  0  0  0  0  0
   -6.5346   -1.8755   -0.2247 C   0  0  0  0  0  0  0  0  0  0  0  0
   -1.2892    3.1768   -0.1883 C   0  0  0  0  0  0  0  0  0  0  0  0
   -7.3151   -1.0146    0.5361 C   0  0  0  0  0  0  0  0  0  0  0  0
   -2.1258    3.9837    0.5722 C   0  0  0  0  0  0  0  0  0  0  0  0
    2.1299    3.0835    1.5812 C   0  0  0  0  0  0  0  0  0  0  0  0
    3.5386    4.0596   -1.5827 C   0  0  0  0  0  0  0  0  0  0  0  0
    5.1436    2.4105   -2.3095 C   0  0  0  0  0  0  0  0  0  0  0  0
    4.4666    3.6048   -2.5227 C   0  0  0  0  0  0  0  0  0  0  0  0
  1  2  2  0
  1  3  2  0
  1  4  1  0
  1 10  1  0
  4 14  1  0
  5 12  1  0
  5 15  1  0
  6 13  1  0
  6 18  1  0
  7 19  2  0
  7 20  1  0
  8 28  2  0
  8 37  1  0
  9 10  1  0
  9 11  1  0
 11 12  1  0
 13 16  2  0
 13 17  1  0
 14 22  2  0
 14 23  1  0
 15 21  2  0
 15 29  1  0
 16 19  1  0
 16 26  1  0
 17 20  2  0
 17 27  1  0
 18 24  2  0
 18 25  1  0
 19 30  1  0
 20 31  1  0
 21 28  1  0
 21 32  1  0
 22 24  1  0
 23 25  2  0
 26 33  2  0
 27 34  2  0
 28 38  1  0
 29 37  2  0
 30 35  2  0
 31 36  2  0
 32 39  2  0
 33 35  1  0
 34 36  1  0
 38 40  2  0
 39 40  1  0
M  END
>  <PUBCHEM_COMPOUND_CID>  (1) 
48016

>  <PUBCHEM_CONFORMER_RMSD>  (1) 
1.4

>  <PUBCHEM_CONFORMER_DIVERSEORDER>  (1) 
1
121
21
113
185
144
59
116
102
63
99
77
52
114
180
64
168
108
87
111
67
127
13
20
153
135
51
110
11
162
22
132
165
29
92
28
69
138
192
12
130
47
73
167
105
90
157
94
145
189
26
60
36
70
9
86
173
8
170
96
171
146
89
154
78
134
179
44
129
104
23
166
147
2
194
175
57
58
112
160
149
137
150
169
184
143
75
45
119
118
161
103
131
156
7
123
141
97
25
53
55
68
82
172
190
39
61
140
125
3
183
98
56
181
30
40
122
74
81
93
139
83
126
84
95
49
41
187
31
85
62
188
159
178
177
48
24
50
193
27
19
163
10
155
124
115
72
80
151
136
128
158
191
5
37
32
46
18
16
88
91
186
76
35
133
142
120
43
117
176
17
107
65
174
42
54
4
148
182
34
152
100
71
66
15
195
101
33
106
14
109
79
38
164
6

>  <PUBCHEM_MMFF94_PARTIAL_CHARGES>  (1) 
56
1 1.33
10 0.11
12 0.37
13 0.1
14 0.2
15 0.1
18 0.1
19 0.31
2 -0.65
20 0.31
22 -0.15
23 -0.15
24 -0.15
25 -0.15
26 -0.15
27 -0.15
28 0.31
29 -0.15
3 -0.65
30 -0.15
31 -0.15
32 -0.15
33 -0.15
34 -0.15
35 -0.15
36 -0.15
37 0.16
38 -0.15
39 -0.15
4 -0.76
40 -0.15
49 0.42
5 -0.87
50 0.4
51 0.4
52 0.15
53 0.15
54 0.15
55 0.15
56 0.15
57 0.15
58 0.15
59 0.15
6 -0.6
60 0.15
61 0.15
62 0.15
63 0.15
64 0.15
65 0.15
66 0.15
67 0.15
68 0.15
69 0.15
7 -0.62
8 -0.62

>  <PUBCHEM_EFFECTIVE_ROTOR_COUNT>  (1) 
10

>  <PUBCHEM_PHARMACOPHORE_FEATURES>  (1) 
15
1 2 acceptor
1 3 acceptor
1 4 donor
1 5 cation
1 5 donor
1 6 cation
1 6 donor
1 7 acceptor
1 8 acceptor
6 14 18 22 23 24 25 rings
6 16 19 26 30 33 35 rings
6 17 20 27 31 34 36 rings
6 21 28 32 38 39 40 rings
6 7 13 16 17 19 20 rings
6 8 15 21 28 29 37 rings

>  <PUBCHEM_HEAVY_ATOM_COUNT>  (1) 
40

>  <PUBCHEM_ATOM_DEF_STEREO_COUNT>  (1) 
0

>  <PUBCHEM_ATOM_UDEF_STEREO_COUNT>  (1) 
0

>  <PUBCHEM_BOND_DEF_STEREO_COUNT>  (1) 
0

>  <PUBCHEM_BOND_UDEF_STEREO_COUNT>  (1) 
0

>  <PUBCHEM_ISOTOPIC_ATOM_COUNT>  (1) 
0

>  <PUBCHEM_COMPONENT_COUNT>  (1) 
1

>  <PUBCHEM_CACTVS_TAUTO_COUNT>  (1) 
6

>  <PUBCHEM_CONFORMER_ID>  (1) 
0000BB9000000001

>  <PUBCHEM_MMFF94_ENERGY>  (1) 
149.3701

>  <PUBCHEM_FEATURE_SELFOVERLAP>  (1) 
76.234

>  <PUBCHEM_SHAPE_FINGERPRINT>  (1) 
10581848 197 17768767110133074120
11059048 146 18192429899591695188
11828042 279 18190158218512281615
12925494 130 17839170819481419953
14840074 17 17896037814273259997
14849402 71 18336553720346906374
15001296 14 17975417124475040213
150020 26 18056464067835329184
15200665 1 18051988200859293675
15264996 154 18410862023298048806
15264996 44 18201166468071837495
15406563 185 17773325727648199224
17627616 140 18411146805256645773
19319366 153 17823122600790854320
20764821 26 18124010572054829146
21792938 131 18412260636663862065
21814621 53 14692304975375540917
3383291 50 17908426102003572459
338550 245 18340197493290771880
42767 46 18408327705072628036
437795 96 17617362996834987216
5265222 85 18194129744653672389
5776283 40 18269289005437978548

>  <PUBCHEM_SHAPE_MULTIPOLES>  (1) 
790.39
15.23
7.68
2.04
16.46
3.61
-0.14
-2.79
1.86
-8.96
-1.23
-3.37
-0.37
-4.07

>  <PUBCHEM_SHAPE_SELFOVERLAP>  (1) 
1740.423

>  <PUBCHEM_SHAPE_VOLUME>  (1) 
424.2

>  <PUBCHEM_COORDINATE_TYPE>  (1) 
2
5
10

$$$$
