48012
     RDKit          3D

 40 45  0  0  0  0  0  0  0  0999 V2000
   -4.3588   -1.3431    0.8355 O   0  0  0  0  0  0  0  0  0  0  0  0
    2.3995   -2.5671    0.7111 N   0  0  0  0  0  0  0  0  0  0  0  0
   -2.2960    0.4186    0.0858 N   0  0  0  0  0  0  0  0  0  0  0  0
    1.2258    2.6089   -0.5205 N   0  0  0  0  0  0  0  0  0  0  0  0
    5.3729   -0.3096   -1.2066 N   0  0  0  0  0  0  0  0  0  0  0  0
   -1.4179   -4.3061    1.9777 C   0  0  0  0  0  0  0  0  0  0  0  0
   -0.3198   -3.7017    1.1000 C   0  0  0  0  0  0  0  0  0  0  0  0
   -2.7075   -3.4876    1.8977 C   0  0  0  0  0  0  0  0  0  0  0  0
    0.9830   -4.4996    1.2126 C   0  0  0  0  0  0  0  0  0  0  0  0
   -3.2590   -3.4570    0.4740 C   0  0  0  0  0  0  0  0  0  0  0  0
    2.0978   -3.9291    0.3396 C   0  0  0  0  0  0  0  0  0  0  0  0
   -4.5657   -2.6784    0.3945 C   0  0  0  0  0  0  0  0  0  0  0  0
    3.3753   -1.7998    0.0949 C   0  0  0  0  0  0  0  0  0  0  0  0
   -1.1134    1.1539   -0.1178 C   0  0  0  0  0  0  0  0  0  0  0  0
   -4.6054   -0.3470   -0.0729 C   0  0  0  0  0  0  0  0  0  0  0  0
   -0.2095    0.7751   -1.1253 C   0  0  0  0  0  0  0  0  0  0  0  0
   -0.8290    2.2721    0.6850 C   0  0  0  0  0  0  0  0  0  0  0  0
   -3.5960    0.5314   -0.4534 C   0  0  0  0  0  0  0  0  0  0  0  0
    3.6548   -0.4640    0.4761 C   0  0  0  0  0  0  0  0  0  0  0  0
    0.9583    1.5383   -1.2929 C   0  0  0  0  0  0  0  0  0  0  0  0
    0.3630    2.9767    0.4464 C   0  0  0  0  0  0  0  0  0  0  0  0
    4.1228   -2.3591   -0.9503 C   0  0  0  0  0  0  0  0  0  0  0  0
    4.6658    0.2462   -0.2046 C   0  0  0  0  0  0  0  0  0  0  0  0
   -5.8841   -0.2289   -0.6084 C   0  0  0  0  0  0  0  0  0  0  0  0
   -0.4582   -0.3368   -1.9488 C   0  0  0  0  0  0  0  0  0  0  0  0
   -1.7079    2.6827    1.7024 C   0  0  0  0  0  0  0  0  0  0  0  0
   -3.8681    1.5385   -1.3794 C   0  0  0  0  0  0  0  0  0  0  0  0
    2.9364    0.1475    1.5175 C   0  0  0  0  0  0  0  0  0  0  0  0
    1.8506    1.1588   -2.2922 C   0  0  0  0  0  0  0  0  0  0  0  0
    0.6401    4.0835    1.2443 C   0  0  0  0  0  0  0  0  0  0  0  0
   -6.1560    0.7780   -1.5345 C   0  0  0  0  0  0  0  0  0  0  0  0
   -5.1482    1.6617   -1.9199 C   0  0  0  0  0  0  0  0  0  0  0  0
    5.0919   -1.5858   -1.5564 C   0  0  0  0  0  0  0  0  0  0  0  0
    0.4498   -0.6951   -2.9407 C   0  0  0  0  0  0  0  0  0  0  0  0
   -1.4075    3.7928    2.4862 C   0  0  0  0  0  0  0  0  0  0  0  0
    4.9226    1.5571    0.1874 C   0  0  0  0  0  0  0  0  0  0  0  0
    1.6065    0.0544   -3.1124 C   0  0  0  0  0  0  0  0  0  0  0  0
   -0.2310    4.4944    2.2564 C   0  0  0  0  0  0  0  0  0  0  0  0
    3.2141    1.4598    1.8890 C   0  0  0  0  0  0  0  0  0  0  0  0
    4.2085    2.1652    1.2227 C   0  0  0  0  0  0  0  0  0  0  0  0
  1 12  1  0
  1 15  1  0
  2 11  1  0
  2 13  1  0
  3 14  1  0
  3 18  1  0
  4 20  2  0
  4 21  1  0
  5 23  2  0
  5 33  1  0
  6  7  1  0
  6  8  1  0
  7  9  1  0
  8 10  1  0
  9 11  1  0
 10 12  1  0
 13 19  2  0
 13 22  1  0
 14 16  2  0
 14 17  1  0
 15 18  1  0
 15 24  2  0
 16 20  1  0
 16 25  1  0
 17 21  2  0
 17 26  1  0
 18 27  2  0
 19 23  1  0
 19 28  1  0
 20 29  1  0
 21 30  1  0
 22 33  2  0
 23 36  1  0
 24 31  1  0
 25 34  2  0
 26 35  2  0
 27 32  1  0
 28 39  2  0
 29 37  2  0
 30 38  2  0
 31 32  2  0
 34 37  1  0
 35 38  1  0
 36 40  2  0
 39 40  1  0
M  END
>  <PUBCHEM_COMPOUND_CID>  (1) 
48012

>  <PUBCHEM_CONFORMER_RMSD>  (1) 
1.4

>  <PUBCHEM_CONFORMER_DIVERSEORDER>  (1) 
1
170
52
305
234
118
240
302
287
303
63
177
11
162
255
321
99
296
181
2
5
221
309
236
21
43
27
248
252
190
235
354
189
174
163
82
66
172
161
250
51
158
345
237
169
230
349
274
312
6
15
253
260
54
226
185
275
210
290
62
168
10
219
256
89
217
282
95
145
30
220
215
131
16
244
297
176
180
335
88
276
352
342
216
265
137
72
289
238
152
204
178
329
283
78
196
130
69
37
141
144
325
241
24
351
135
291
31
306
339
307
337
134
9
286
64
57
334
313
320
49
292
128
112
295
293
159
146
94
298
84
272
267
166
225
247
348
132
127
47
299
242
151
228
121
116
193
25
318
200
90
222
340
258
288
93
344
111
266
346
284
188
114
12
269
70
3
179
246
319
326
50
350
251
206
239
254
278
53
184
65
8
35
136
39
315
20
331
257
142
74
13
154
40
198
61
328
113
212
341
224
129
122
347
148
183
80
68
71
29
213
358
106
77
353
34
330
175
117
100
229
150
323
261
195
83
208
191
300
211
259
55
332
279
273
157
58
104
205
45
26
316
199
101
207
48
263
7
270
186
317
243
356
36
32
262
164
153
143
294
73
311
23
102
38
201
18
17
44
310
232
87
42
120
98
245
203
197
314
14
108
277
76
105
209
304
91
22
249
75
140
218
96
124
322
301
343
231
79
285
4
28
85
125
147
202
327
192
214
182
281
156
59
336
173
338
187
171
194
264
60
109
19
227
67
56
155
97
86
133
92
81
126
333
280
223
138
119
355
324
123
271
308
115
160
107
33
268
357
139
233
165
149
41
167
103
110
46

>  <PUBCHEM_MMFF94_PARTIAL_CHARGES>  (1) 
52
1 -0.36
11 0.37
12 0.28
13 0.1
14 0.1
15 0.08
18 0.1
2 -0.87
20 0.31
21 0.31
22 -0.15
23 0.31
24 -0.15
25 -0.15
26 -0.15
27 -0.15
28 -0.15
29 -0.15
3 -0.6
30 -0.15
31 -0.15
32 -0.15
33 0.16
34 -0.15
35 -0.15
36 -0.15
37 -0.15
38 -0.15
39 -0.15
4 -0.62
40 -0.15
5 -0.62
55 0.4
56 0.4
57 0.15
58 0.15
59 0.15
60 0.15
61 0.15
62 0.15
63 0.15
64 0.15
65 0.15
66 0.15
67 0.15
68 0.15
69 0.15
70 0.15
71 0.15
72 0.15
73 0.15
74 0.15

>  <PUBCHEM_EFFECTIVE_ROTOR_COUNT>  (1) 
12

>  <PUBCHEM_PHARMACOPHORE_FEATURES>  (1) 
14
1 1 acceptor
1 2 cation
1 2 donor
1 3 cation
1 3 donor
1 4 acceptor
1 5 acceptor
5 6 7 8 9 10 hydrophobe
6 15 18 24 27 31 32 rings
6 16 20 25 29 34 37 rings
6 17 21 26 30 35 38 rings
6 19 23 28 36 39 40 rings
6 4 14 16 17 20 21 rings
6 5 13 19 22 23 33 rings

>  <PUBCHEM_HEAVY_ATOM_COUNT>  (1) 
40

>  <PUBCHEM_ATOM_DEF_STEREO_COUNT>  (1) 
0

>  <PUBCHEM_ATOM_UDEF_STEREO_COUNT>  (1) 
0

>  <PUBCHEM_BOND_DEF_STEREO_COUNT>  (1) 
0

>  <PUBCHEM_BOND_UDEF_STEREO_COUNT>  (1) 
0

>  <PUBCHEM_ISOTOPIC_ATOM_COUNT>  (1) 
0

>  <PUBCHEM_COMPONENT_COUNT>  (1) 
1

>  <PUBCHEM_CACTVS_TAUTO_COUNT>  (1) 
6

>  <PUBCHEM_CONFORMER_ID>  (1) 
0000BB8C00000001

>  <PUBCHEM_MMFF94_ENERGY>  (1) 
147.4684

>  <PUBCHEM_FEATURE_SELFOVERLAP>  (1) 
71.14

>  <PUBCHEM_SHAPE_FINGERPRINT>  (1) 
10305334 12 17118880657013576211
10581848 31 18335711567680657903
11513181 2 17624421874460395463
11796584 16 18186793716825053969
12107698 1 17917141681632088342
12128747 34 18192702565500889111
12788726 201 18056472846948909287
13583140 156 18197487622925282981
13782708 43 18338516465220029815
14400156 260 17553780465265276513
14840074 17 17203321238998734141
15001296 14 17534641583095733231
15351339 4 18263635183176777731
161222 619 17912063243270767408
19315092 285 18047735023505536674
19319366 153 18270664464266521956
20764821 26 18337127742366996202
23559900 14 18261387905837340245
392239 28 18411984654623554706
45266715 3 18047436111905525631
50150288 127 17414447086768004771
508706 21 18115305712865845995
5265222 85 18041005106442785509

>  <PUBCHEM_SHAPE_MULTIPOLES>  (1) 
797.39
11.05
6.2
2.65
5.23
2.75
-0.88
2.06
-3.52
0.84
5.72
-0.08
-0.77
2.1

>  <PUBCHEM_SHAPE_SELFOVERLAP>  (1) 
1757.782

>  <PUBCHEM_SHAPE_VOLUME>  (1) 
426.6

>  <PUBCHEM_COORDINATE_TYPE>  (1) 
2
5
10

$$$$
