48032
     RDKit          3D

 28 30  0  0  1  0  0  0  0  0999 V2000
    2.2271    4.1139   -0.5078 Cl  0  0  0  0  0  0  0  0  0  0  0  0
   -6.0521   -1.9486    0.7275 O   0  0  0  0  0  0  0  0  0  0  0  0
    5.1572   -0.9819    0.6004 N   0  0  0  0  0  0  0  0  0  0  0  0
    0.0877   -0.7606   -0.5929 N   0  0  0  0  0  0  0  0  0  0  0  0
   -3.0835    1.7651    0.4710 N   0  0  0  0  0  0  0  0  0  0  0  0
    0.7938   -0.6271   -1.8227 C   0  0  0  0  0  0  0  0  0  0  0  0
    2.1599   -1.3200   -1.7290 C   0  0  0  0  0  0  0  0  0  0  0  0
    3.0201   -0.7723   -0.5834 C   0  0  0  0  0  0  0  0  0  0  0  0
    4.3443   -1.5285   -0.4800 C   0  0  0  0  0  0  0  0  0  0  0  0
   -0.9872    0.0963   -0.2321 C   0  0  0  0  0  0  0  0  0  0  0  0
   -0.0508   -1.2357   -2.9373 C   0  0  0  0  0  0  0  0  0  0  0  0
    6.4272   -1.7023    0.7046 C   0  0  0  0  0  0  0  0  0  0  0  0
    4.4333   -1.0425    1.8713 C   0  0  0  0  0  0  0  0  0  0  0  0
   -2.2549   -0.4450    0.0043 C   0  0  0  0  0  0  0  0  0  0  0  0
   -0.7687    1.4729   -0.1166 C   0  0  0  0  0  0  0  0  0  0  0  0
   -3.2885    0.4385    0.3585 C   0  0  0  0  0  0  0  0  0  0  0  0
   -1.8605    2.2813    0.2423 C   0  0  0  0  0  0  0  0  0  0  0  0
    7.1959   -1.6522   -0.6049 C   0  0  0  0  0  0  0  0  0  0  0  0
    5.2425   -0.4164    2.9944 C   0  0  0  0  0  0  0  0  0  0  0  0
   -2.5030   -1.8244   -0.1043 C   0  0  0  0  0  0  0  0  0  0  0  0
    0.4948    2.0439   -0.3482 C   0  0  0  0  0  0  0  0  0  0  0  0
   -4.5529   -0.0943    0.5952 C   0  0  0  0  0  0  0  0  0  0  0  0
   -1.6492    3.6526    0.3589 C   0  0  0  0  0  0  0  0  0  0  0  0
   -3.7759   -2.3318    0.1377 C   0  0  0  0  0  0  0  0  0  0  0  0
   -4.8029   -1.4646    0.4882 C   0  0  0  0  0  0  0  0  0  0  0  0
    0.6796    3.4177   -0.2250 C   0  0  0  0  0  0  0  0  0  0  0  0
   -0.3949    4.2234    0.1294 C   0  0  0  0  0  0  0  0  0  0  0  0
   -6.2382   -3.3575    0.6006 C   0  0  0  0  0  0  0  0  0  0  0  0
  1 26  1  0
  2 25  1  0
  2 28  1  0
  3  9  1  0
  3 12  1  0
  3 13  1  0
  4  6  1  0
  4 10  1  0
  5 16  2  0
  5 17  1  0
  6  7  1  0
  6 11  1  0
  7  8  1  0
  8  9  1  0
 10 14  2  0
 10 15  1  0
 12 18  1  0
 13 19  1  0
 14 16  1  0
 14 20  1  0
 15 17  2  0
 15 21  1  0
 16 22  1  0
 17 23  1  0
 20 24  2  0
 21 26  2  0
 22 25  2  0
 23 27  2  0
 24 25  1  0
 26 27  1  0
M  END
>  <PUBCHEM_COMPOUND_CID>  (1) 
48032

>  <PUBCHEM_CONFORMER_RMSD>  (1) 
1

>  <PUBCHEM_CONFORMER_DIVERSEORDER>  (1) 
1
13
61
8
44
18
38
47
19
12
10
48
60
59
42
68
71
15
17
27
66
21
74
20
22
62
14
54
6
50
23
41
51
40
2
49
52
28
70
53
64
4
33
55
37
67
46
72
36
16
7
24
11
25
35
58
3
39
57
65
32
63
5
43
69
30
45
29
56
34
31
76
75
9
26
73
77

>  <PUBCHEM_MMFF94_PARTIAL_CHARGES>  (1) 
28
1 -0.18
10 0.1
12 0.27
13 0.27
16 0.31
17 0.31
2 -0.36
20 -0.15
21 -0.15
22 -0.15
23 -0.15
24 -0.15
25 0.08
26 0.18
27 -0.15
28 0.28
3 -0.81
36 0.4
4 -0.87
5 -0.62
50 0.15
51 0.15
52 0.15
53 0.15
54 0.15
55 0.15
6 0.37
9 0.27

>  <PUBCHEM_EFFECTIVE_ROTOR_COUNT>  (1) 
9

>  <PUBCHEM_PHARMACOPHORE_FEATURES>  (1) 
8
1 2 acceptor
1 3 cation
1 4 cation
1 4 donor
1 5 acceptor
6 14 16 20 22 24 25 rings
6 15 17 21 23 26 27 rings
6 5 10 14 15 16 17 rings

>  <PUBCHEM_HEAVY_ATOM_COUNT>  (1) 
28

>  <PUBCHEM_ATOM_DEF_STEREO_COUNT>  (1) 
0

>  <PUBCHEM_ATOM_UDEF_STEREO_COUNT>  (1) 
1

>  <PUBCHEM_BOND_DEF_STEREO_COUNT>  (1) 
0

>  <PUBCHEM_BOND_UDEF_STEREO_COUNT>  (1) 
0

>  <PUBCHEM_ISOTOPIC_ATOM_COUNT>  (1) 
0

>  <PUBCHEM_COMPONENT_COUNT>  (1) 
1

>  <PUBCHEM_CACTVS_TAUTO_COUNT>  (1) 
2

>  <PUBCHEM_CONFORMER_ID>  (1) 
0000BBA000000001

>  <PUBCHEM_MMFF94_ENERGY>  (1) 
100.6232

>  <PUBCHEM_FEATURE_SELFOVERLAP>  (1) 
40.656

>  <PUBCHEM_SHAPE_FINGERPRINT>  (1) 
10319926 262 18125149434743352642
10411042 1 18410860992563107663
1100329 8 18268448849594861001
11963148 33 17475517656590546647
12035758 1 18197235663343989497
12166972 35 17676773148983685687
12422481 6 17989201564302016104
12596602 18 17895476939062686186
12788726 201 18262820504894679838
13083527 12 18341056306208481469
13140716 1 18342469123116681697
13583140 156 17843952668596865910
13782708 43 17845376536323771430
14068700 675 18186241736075480734
15324884 4 17487356845356906749
15775530 1 17195461684974874926
15927050 60 17620200171032028422
19309040 13 14404041682815941770
19315092 285 16951106414866652104
20642791 13 17914903024476994213
21033648 29 17416385594946140370
21304303 282 17684627863106761301
21360443 120 17974579301584836540
23366157 5 18044387259955202765
23557571 272 18199755739256305116
23559900 14 18339358677577606161
23845131 108 8972145720631912112
3187 122 18339069402972005716
3886686 26 17400071972910381274
4409770 3 18044369427414682645
469060 322 18338812108449701624
50009960 94 17901931256559363827
5104073 3 18124900069126497387

>  <PUBCHEM_SHAPE_MULTIPOLES>  (1) 
557.28
13.91
4.86
1.78
10.9
6.34
-0.08
-17.17
6.77
-2.42
0.03
2.6
-1
0.18

>  <PUBCHEM_SHAPE_SELFOVERLAP>  (1) 
1172.026

>  <PUBCHEM_SHAPE_VOLUME>  (1) 
318.4

>  <PUBCHEM_COORDINATE_TYPE>  (1) 
2
5
10

$$$$
