48039
     RDKit          3D

 17 19  0  0  0  0  0  0  0  0999 V2000
   -1.8271    3.1808   -0.0006 Cl  0  0  0  0  0  0  0  0  0  0  0  0
    2.8184   -2.4658   -0.0005 Cl  0  0  0  0  0  0  0  0  0  0  0  0
   -2.7707   -3.0060   -0.0001 Cl  0  0  0  0  0  0  0  0  0  0  0  0
    4.8885    0.0358    0.0000 Cl  0  0  0  0  0  0  0  0  0  0  0  0
   -0.0768   -1.4421    0.0003 O   0  0  0  0  0  0  0  0  0  0  0  0
    0.4179    0.7646    0.0001 C   0  0  0  0  0  0  0  0  0  0  0  0
   -1.0006    0.6220    0.0001 C   0  0  0  0  0  0  0  0  0  0  0  0
    0.9330   -0.5279    0.0001 C   0  0  0  0  0  0  0  0  0  0  0  0
   -1.2482   -0.7473    0.0001 C   0  0  0  0  0  0  0  0  0  0  0  0
    1.3202    1.8442    0.0002 C   0  0  0  0  0  0  0  0  0  0  0  0
   -2.0998    1.5004    0.0001 C   0  0  0  0  0  0  0  0  0  0  0  0
    2.2943   -0.8270   -0.0001 C   0  0  0  0  0  0  0  0  0  0  0  0
   -2.5229   -1.3112    0.0002 C   0  0  0  0  0  0  0  0  0  0  0  0
    2.6954    1.5745    0.0003 C   0  0  0  0  0  0  0  0  0  0  0  0
   -3.3939    0.9625   -0.0002 C   0  0  0  0  0  0  0  0  0  0  0  0
    3.1714    0.2615   -0.0001 C   0  0  0  0  0  0  0  0  0  0  0  0
   -3.5990   -0.4191    0.0001 C   0  0  0  0  0  0  0  0  0  0  0  0
  1 11  1  0
  2 12  1  0
  3 13  1  0
  4 16  1  0
  5  8  1  0
  5  9  1  0
  6  7  1  0
  6  8  2  0
  6 10  1  0
  7  9  2  0
  7 11  1  0
  8 12  1  0
  9 13  1  0
 10 14  2  0
 11 15  2  0
 12 16  2  0
 13 17  2  0
 14 16  1  0
 15 17  1  0
M  END
>  <PUBCHEM_COMPOUND_CID>  (1) 
48039

>  <PUBCHEM_CONFORMER_RMSD>  (1) 
0.4

>  <PUBCHEM_CONFORMER_DIVERSEORDER>  (1) 
1

>  <PUBCHEM_MMFF94_PARTIAL_CHARGES>  (1) 
19
1 -0.18
10 -0.15
11 0.18
12 0.18
13 0.18
14 -0.15
15 -0.15
16 0.18
17 -0.15
18 0.15
19 0.15
2 -0.18
20 0.15
21 0.15
3 -0.18
4 -0.18
5 -0.28
8 0.14
9 0.14

>  <PUBCHEM_EFFECTIVE_ROTOR_COUNT>  (1) 
0

>  <PUBCHEM_PHARMACOPHORE_FEATURES>  (1) 
4
1 5 acceptor
5 5 6 7 8 9 rings
6 6 8 10 12 14 16 rings
6 7 9 11 13 15 17 rings

>  <PUBCHEM_HEAVY_ATOM_COUNT>  (1) 
17

>  <PUBCHEM_ATOM_DEF_STEREO_COUNT>  (1) 
0

>  <PUBCHEM_ATOM_UDEF_STEREO_COUNT>  (1) 
0

>  <PUBCHEM_BOND_DEF_STEREO_COUNT>  (1) 
0

>  <PUBCHEM_BOND_UDEF_STEREO_COUNT>  (1) 
0

>  <PUBCHEM_ISOTOPIC_ATOM_COUNT>  (1) 
0

>  <PUBCHEM_COMPONENT_COUNT>  (1) 
1

>  <PUBCHEM_CACTVS_TAUTO_COUNT>  (1) 
1

>  <PUBCHEM_CONFORMER_ID>  (1) 
0000BBA700000001

>  <PUBCHEM_MMFF94_ENERGY>  (1) 
34.7315

>  <PUBCHEM_FEATURE_SELFOVERLAP>  (1) 
20.499

>  <PUBCHEM_SHAPE_FINGERPRINT>  (1) 
10608611 8 18411978053037189840
10616163 171 18411983593545203166
10967382 1 18410575093464055559
11132069 177 18411414037878904384
12032990 46 18193841663446774987
12173636 292 18266457594828027485
12251169 10 18410294700613342713
12403259 226 18270395126318809288
12553582 1 18194962078833835627
13140716 1 18267589185423924033
138480 1 15672667600000326049
14144814 61 18410855425831785584
14178342 30 18337938044219427842
14223421 5 18412262860818461634
14790565 3 16900478040255811936
15196674 1 18338517421979611716
15375462 6 18339642359755699463
15442244 35 18266177219294060658
15536298 74 18342456985554492118
16945 1 18410573976661860261
17804303 29 18412547625925049120
19591789 44 17761496889519316725
200 152 18060413646925420095
20510252 161 18270963427854209601
21267235 1 18338244850496752259
21501502 16 18410856546760168943
221490 88 18265339580533751066
2334 1 18122626325491088909
23366157 5 18113903728503287422
23402539 116 18271800242502810421
23463225 33 18409448051169706790
23557571 272 18272941539165880061
23559900 14 18341043090884495776
238 59 16310171159182359237
2748010 2 18196084671620595925
2871803 45 18192987334433185639
3312278 4 18411702109883105690
335352 9 17906171750330415348
34934 24 18410285904594381382
350125 39 18266745671343804905
5104073 3 18339923830743483184
58051976 378 18412543215104230870
69090 78 18412259511224038183
7364860 26 18341894074197708738
74978 22 18337953385325546542
8809292 202 18261958551886566811
9709674 26 18413392016463969862

>  <PUBCHEM_SHAPE_MULTIPOLES>  (1) 
351.46
7.06
3.11
0.62
4.08
0.19
0
1.08
0
-1.77
0
0.01
0
0

>  <PUBCHEM_SHAPE_SELFOVERLAP>  (1) 
754.987

>  <PUBCHEM_SHAPE_VOLUME>  (1) 
199.3

>  <PUBCHEM_COORDINATE_TYPE>  (1) 
2
5
10

$$$$
