48038
     RDKit          3D

 10  9  0  0  0  0  0  0  0  0999 V2000
   -3.1416   -0.3339   -0.0180 N   0  0  0  0  0  0  0  0  0  0  0  0
    0.5949    0.3998    0.0134 C   0  0  0  0  0  0  0  0  0  0  0  0
    1.8683   -0.4509    0.0294 C   0  0  0  0  0  0  0  0  0  0  0  0
   -0.6917   -0.4294   -0.0081 C   0  0  0  0  0  0  0  0  0  0  0  0
    3.1541    0.3769   -0.0237 C   0  0  0  0  0  0  0  0  0  0  0  0
   -1.9265    0.4716    0.0118 C   0  0  0  0  0  0  0  0  0  0  0  0
    4.3919   -0.5210    0.0072 C   0  0  0  0  0  0  0  0  0  0  0  0
    5.6736    0.2965   -0.0125 C   0  0  0  0  0  0  0  0  0  0  0  0
   -4.3264    0.5119    0.0112 C   0  0  0  0  0  0  0  0  0  0  0  0
   -5.5966   -0.3215   -0.0107 C   0  0  0  0  0  0  0  0  0  0  0  0
  1  6  1  0
  1  9  1  0
  2  3  1  0
  2  4  1  0
  3  5  1  0
  4  6  1  0
  5  7  1  0
  7  8  1  0
  9 10  1  0
M  END
>  <PUBCHEM_COMPOUND_CID>  (1) 
48038

>  <PUBCHEM_CONFORMER_RMSD>  (1) 
0.6

>  <PUBCHEM_CONFORMER_DIVERSEORDER>  (1) 
1
125
363
28
314
258
201
365
350
64
142
362
68
39
336
32
374
239
281
274
358
96
174
366
261
219
20
373
250
271
7
299
364
74
67
206
51
100
40
267
63
156
381
228
327
9
337
315
309
289
262
16
61
88
367
191
65
340
134
288
360
12
284
352
195
59
354
188
3
330
332
55
81
131
263
25
89
144
369
355
11
162
44
77
377
146
140
124
83
148
5
141
295
298
372
205
38
200
97
247
349
106
214
99
13
293
29
371
194
42
290
224
325
139
182
285
209
138
80
357
248
334
69
376
231
370
177
283
157
254
353
104
50
347
259
101
380
91
86
348
378
216
210
212
115
57
35
345
150
199
90
154
184
72
158
339
4
94
319
30
328
235
312
21
227
95
27
255
351
338
264
48
302
98
311
333
361
120
278
17
326
107
356
270
179
10
160
379
211
260
282
149
273
111
181
172
166
287
108
233
269
116
126
178
317
279
232
167
2
78
335
118
375
87
186
143
76
52
297
329
308
43
294
226
368
175
291
164
300
152
197
153
202
286
346
109
137
275
322
56
47
296
341
19
303
268
280
37
159
73
170
277
266
46
342
84
359
176
208
323
318
246
241
190
93
66
221
127
320
242
85
324
135
321
310
344
223
343
79
213
222
196
103
307
198
26
75
41
189
187
229
145
257
237
60
313
193
122
292
58
305
132
34
180
256
31
276
316
151
244
203
45
304
136
236
24
249
238
220
169
331
23
36
265
301
128
129
306
33
207
243
53
71
113
234
161
272
54
82
215
123
147
204
168
185
230
110
245
155
192
240
112
70
173
15
163
114
183
218
133
225
130
252
171
119
253
117
105
22
49
165
251
92
217
121
62
102
18
8
14
6

>  <PUBCHEM_MMFF94_PARTIAL_CHARGES>  (1) 
4
1 -0.9
23 0.36
6 0.27
9 0.27

>  <PUBCHEM_EFFECTIVE_ROTOR_COUNT>  (1) 
7

>  <PUBCHEM_PHARMACOPHORE_FEATURES>  (1) 
4
1 1 cation
1 1 donor
1 8 hydrophobe
5 2 3 4 5 7 hydrophobe

>  <PUBCHEM_HEAVY_ATOM_COUNT>  (1) 
10

>  <PUBCHEM_ATOM_DEF_STEREO_COUNT>  (1) 
0

>  <PUBCHEM_ATOM_UDEF_STEREO_COUNT>  (1) 
0

>  <PUBCHEM_BOND_DEF_STEREO_COUNT>  (1) 
0

>  <PUBCHEM_BOND_UDEF_STEREO_COUNT>  (1) 
0

>  <PUBCHEM_ISOTOPIC_ATOM_COUNT>  (1) 
0

>  <PUBCHEM_COMPONENT_COUNT>  (1) 
1

>  <PUBCHEM_CACTVS_TAUTO_COUNT>  (1) 
1

>  <PUBCHEM_CONFORMER_ID>  (1) 
0000BBA600000001

>  <PUBCHEM_MMFF94_ENERGY>  (1) 
-8.852

>  <PUBCHEM_FEATURE_SELFOVERLAP>  (1) 
20.297

>  <PUBCHEM_SHAPE_FINGERPRINT>  (1) 
11062470 55 18410856555350097026
114248 4 18410855460133436568
14123238 8 18410856555350097044
14251718 22 18408603673357718483
17834072 33 18342457083784735236
17834076 25 18410575088973883466
187816 3 15698000738534916219
20645477 70 18200597982591490462
20719005 15 18410575084668360160
20767249 13 18410011030913631531
20767249 213 17821731654209604300
23402539 116 18343295964344650365
366044 4 18408040714698740435
42788 4 18410856559861413604
8209 1 18410573989451699701

>  <PUBCHEM_SHAPE_MULTIPOLES>  (1) 
200.81
13.62
0.78
0.61
1.1
0
0
-0.07
0.07
-0.02
0
-0.03
0
-0.02

>  <PUBCHEM_SHAPE_SELFOVERLAP>  (1) 
348.609

>  <PUBCHEM_SHAPE_VOLUME>  (1) 
132.8

>  <PUBCHEM_COORDINATE_TYPE>  (1) 
2
5
10

$$$$
