48034
     RDKit          3D

 20 24  0  0  0  0  0  0  0  0999 V2000
   -1.5879   -0.7365    0.0600 C   0  0  0  0  0  0  0  0  0  0  0  0
    0.8563   -0.7032    0.0075 C   0  0  0  0  0  0  0  0  0  0  0  0
    0.8369    0.7171    0.0039 C   0  0  0  0  0  0  0  0  0  0  0  0
   -0.3526   -1.4407    0.0462 C   0  0  0  0  0  0  0  0  0  0  0  0
   -1.6076    0.6833    0.1034 C   0  0  0  0  0  0  0  0  0  0  0  0
   -0.3919    1.4241    0.0551 C   0  0  0  0  0  0  0  0  0  0  0  0
   -2.9114   -1.4884    0.1067 C   0  0  0  0  0  0  0  0  0  0  0  0
    2.1046   -1.3849   -0.0248 C   0  0  0  0  0  0  0  0  0  0  0  0
    2.0693    1.4274   -0.0439 C   0  0  0  0  0  0  0  0  0  0  0  0
   -4.0978   -0.7031   -0.4546 C   0  0  0  0  0  0  0  0  0  0  0  0
   -2.9179    1.3596    0.2307 C   0  0  0  0  0  0  0  0  0  0  0  0
   -0.2588   -2.8521    0.0791 C   0  0  0  0  0  0  0  0  0  0  0  0
   -4.0652    0.7280   -0.0429 C   0  0  0  0  0  0  0  0  0  0  0  0
   -0.3265    2.8402    0.0419 C   0  0  0  0  0  0  0  0  0  0  0  0
    3.2975   -0.6594   -0.0725 C   0  0  0  0  0  0  0  0  0  0  0  0
    3.2798    0.7305   -0.0837 C   0  0  0  0  0  0  0  0  0  0  0  0
    2.1441   -2.7819   -0.0058 C   0  0  0  0  0  0  0  0  0  0  0  0
    2.0770    2.8244   -0.0492 C   0  0  0  0  0  0  0  0  0  0  0  0
    0.9677   -3.5125    0.0510 C   0  0  0  0  0  0  0  0  0  0  0  0
    0.8843    3.5281   -0.0083 C   0  0  0  0  0  0  0  0  0  0  0  0
  1  4  1  0
  1  5  2  0
  1  7  1  0
  2  3  1  0
  2  4  2  0
  2  8  1  0
  3  6  2  0
  3  9  1  0
  4 12  1  0
  5  6  1  0
  5 11  1  0
  6 14  1  0
  7 10  1  0
  8 15  1  0
  8 17  2  0
  9 16  1  0
  9 18  2  0
 10 13  1  0
 11 13  2  0
 12 19  2  0
 14 20  2  0
 15 16  2  0
 17 19  1  0
 18 20  1  0
M  END
>  <PUBCHEM_COMPOUND_CID>  (1) 
48034

>  <PUBCHEM_CONFORMER_RMSD>  (1) 
0.6

>  <PUBCHEM_CONFORMER_DIVERSEORDER>  (1) 
1

>  <PUBCHEM_MMFF94_PARTIAL_CHARGES>  (1) 
24
1 -0.14
10 0.14
11 -0.18
12 -0.15
13 -0.29
14 -0.15
15 -0.15
16 -0.15
17 -0.15
18 -0.15
19 -0.15
20 -0.15
25 0.15
26 0.15
27 0.15
28 0.15
29 0.15
30 0.15
31 0.15
32 0.15
33 0.15
34 0.15
5 0.03
7 0.14

>  <PUBCHEM_EFFECTIVE_ROTOR_COUNT>  (1) 
0.4

>  <PUBCHEM_PHARMACOPHORE_FEATURES>  (1) 
5
6 1 2 3 4 5 6 rings
6 1 5 7 10 11 13 rings
6 2 3 8 9 15 16 rings
6 2 4 8 12 17 19 rings
6 3 6 9 14 18 20 rings

>  <PUBCHEM_HEAVY_ATOM_COUNT>  (1) 
20

>  <PUBCHEM_ATOM_DEF_STEREO_COUNT>  (1) 
0

>  <PUBCHEM_ATOM_UDEF_STEREO_COUNT>  (1) 
0

>  <PUBCHEM_BOND_DEF_STEREO_COUNT>  (1) 
0

>  <PUBCHEM_BOND_UDEF_STEREO_COUNT>  (1) 
0

>  <PUBCHEM_ISOTOPIC_ATOM_COUNT>  (1) 
0

>  <PUBCHEM_COMPONENT_COUNT>  (1) 
1

>  <PUBCHEM_CACTVS_TAUTO_COUNT>  (1) 
1

>  <PUBCHEM_CONFORMER_ID>  (1) 
0000BBA200000001

>  <PUBCHEM_MMFF94_ENERGY>  (1) 
70.6678

>  <PUBCHEM_FEATURE_SELFOVERLAP>  (1) 
25.52

>  <PUBCHEM_SHAPE_FINGERPRINT>  (1) 
10319926 262 16896773798541532642
10411042 1 18050285860702574891
10693767 8 18202558454151171847
10967382 1 18410575041734595930
1100329 8 18266737072729126850
11370993 70 18123460841800138105
11578080 2 17197937888387846481
116883 192 17836364843804744239
12553582 1 18122630457202317315
13140716 1 18410856559666222240
13583140 156 16664551857006169753
138480 1 18338516326757592046
14178342 30 18341884186861272977
14223421 5 17979633438081569794
14790565 3 18337967769636173532
15042514 8 16535388459263255195
15196674 1 18410856563934756878
15442244 35 18195531393801611089
16945 1 18050286964260431626
19591789 44 18194125341710020979
20028762 73 18057321906144330447
20510252 161 16756637226932168105
20739085 24 17763776216100792585
20905425 154 18053665763724793622
21197605 99 17833564766395903891
21267235 1 18339933631816978503
21421861 104 17827923918691853290
221490 88 18336553814698562379
23184049 29 17761772866938161382
2334 1 18410858805912966664
23402539 116 18343011190885985726
23558518 356 17468752343978849434
23559900 14 18339634547320931848
238 59 17829563458443990349
2748010 2 18337677523892177770
3091708 16 9288335032220039305
335352 9 18338517430516786229
34934 24 18267296547890397335
350125 39 17976830005442479491
352729 6 17834396000683760459
484985 159 14716727026672247994
484989 97 17975974590097940135
54173680 148 17185595715630868002
589210 1 17762058044229194792
5939293 188 18411415124663775240
6443956 14 18337110043007047125
7364860 26 18411699889379634827
7832392 63 18268712710392978833
81228 2 17831867841141398657
84936 182 18129942407196088513
9709674 26 18267589202440444551

>  <PUBCHEM_SHAPE_MULTIPOLES>  (1) 
411.59
5.53
4.26
0.63
4.14
0.04
0
-0.06
0.36
-2.22
-0.08
0.05
0
-0.11

>  <PUBCHEM_SHAPE_SELFOVERLAP>  (1) 
959.4

>  <PUBCHEM_SHAPE_VOLUME>  (1) 
189.4

>  <PUBCHEM_COORDINATE_TYPE>  (1) 
2
5
10

$$$$
