4804
     RDKit          3D

 21 21  0  0  1  0  0  0  0  0999 V2000
   -0.1808    0.8851   -1.4832 O   0  0  0  0  0  0  0  0  0  0  0  0
    1.9705   -1.3364    2.5258 O   0  0  0  0  0  0  0  0  0  0  0  0
    2.5300   -2.3279    0.5468 O   0  0  0  0  0  0  0  0  0  0  0  0
    5.3253    0.0528   -1.0503 O   0  0  0  0  0  0  0  0  0  0  0  0
    3.5328    1.2916   -1.7341 O   0  0  0  0  0  0  0  0  0  0  0  0
   -1.2347   -1.7693   -1.1414 O   0  0  0  0  0  0  0  0  0  0  0  0
   -3.3588   -2.5277   -1.0369 O   0  0  0  0  0  0  0  0  0  0  0  0
    0.2139    0.0479    0.6428 N   0  0  0  0  0  0  0  0  0  0  0  0
    1.6387   -0.1414    0.4861 C   0  0  0  0  0  0  0  0  0  0  0  0
    2.4097    1.1280    0.8760 C   0  0  0  0  0  0  0  0  0  0  0  0
    3.9077    1.0503    0.5774 C   0  0  0  0  0  0  0  0  0  0  0  0
   -0.5836    0.5525   -0.3716 C   0  0  0  0  0  0  0  0  0  0  0  0
    2.0912   -1.3867    1.2705 C   0  0  0  0  0  0  0  0  0  0  0  0
   -2.0238    0.7118   -0.0439 C   0  0  0  0  0  0  0  0  0  0  0  0
   -2.9090   -0.3216   -0.2752 C   0  0  0  0  0  0  0  0  0  0  0  0
    4.2963    0.7618   -0.8764 C   0  0  0  0  0  0  0  0  0  0  0  0
   -2.4292    1.9179    0.4936 C   0  0  0  0  0  0  0  0  0  0  0  0
   -4.2551   -0.1426    0.0435 C   0  0  0  0  0  0  0  0  0  0  0  0
   -3.7754    2.0970    0.8122 C   0  0  0  0  0  0  0  0  0  0  0  0
   -4.6883    1.0668    0.5872 C   0  0  0  0  0  0  0  0  0  0  0  0
   -2.4773   -1.6099   -0.8490 C   0  0  0  0  0  0  0  0  0  0  0  0
  1 12  2  0
  2 13  1  0
  3 13  2  0
  4 16  1  0
  5 16  2  0
  6 21  1  0
  7 21  2  0
  8  9  1  0
  8 12  1  0
  9 10  1  0
  9 13  1  0
 10 11  1  0
 11 16  1  0
 12 14  1  0
 14 15  2  0
 14 17  1  0
 15 18  1  0
 15 21  1  0
 17 19  2  0
 18 20  2  0
 19 20  1  0
M  CHG  3   2  -1   4  -1   6  -1
M  END
>  <PUBCHEM_COMPOUND_CID>  (1) 
4804

>  <PUBCHEM_CONFORMER_RMSD>  (1) 
0.8

>  <PUBCHEM_CONFORMER_DIVERSEORDER>  (1) 
1
3
46
30
55
8
12
34
21
33
47
14
37
56
41
11
59
5
52
10
58
36
16
18
39
51
4
24
40
17
31
42
53
32
50
15
35
60
49
57
28
22
13
45
2
26
20
6
43
23
19
27
44
7
25
38
54
48
9
29

>  <PUBCHEM_MMFF94_PARTIAL_CHARGES>  (1) 
25
1 -0.57
11 -0.11
12 0.54
13 0.91
14 0.09
15 -0.18
16 0.91
17 -0.15
18 -0.15
19 -0.15
2 -0.9
20 -0.15
21 0.98
27 0.37
28 0.15
29 0.15
3 -0.9
30 0.15
31 0.15
4 -0.9
5 -0.9
6 -0.9
7 -0.9
8 -0.73
9 0.19

>  <PUBCHEM_EFFECTIVE_ROTOR_COUNT>  (1) 
8

>  <PUBCHEM_PHARMACOPHORE_FEATURES>  (1) 
12
1 1 acceptor
1 2 acceptor
1 3 acceptor
1 4 acceptor
1 5 acceptor
1 6 acceptor
1 7 acceptor
1 8 donor
3 2 3 13 anion
3 4 5 16 anion
3 6 7 21 anion
6 14 15 17 18 19 20 rings

>  <PUBCHEM_HEAVY_ATOM_COUNT>  (1) 
21

>  <PUBCHEM_ATOM_DEF_STEREO_COUNT>  (1) 
0

>  <PUBCHEM_ATOM_UDEF_STEREO_COUNT>  (1) 
1

>  <PUBCHEM_BOND_DEF_STEREO_COUNT>  (1) 
0

>  <PUBCHEM_BOND_UDEF_STEREO_COUNT>  (1) 
0

>  <PUBCHEM_ISOTOPIC_ATOM_COUNT>  (1) 
0

>  <PUBCHEM_COMPONENT_COUNT>  (1) 
1

>  <PUBCHEM_CACTVS_TAUTO_COUNT>  (1) 
2

>  <PUBCHEM_CONFORMER_ID>  (1) 
000012C400000001

>  <PUBCHEM_MMFF94_ENERGY>  (1) 
52.8959

>  <PUBCHEM_FEATURE_SELFOVERLAP>  (1) 
61.075

>  <PUBCHEM_SHAPE_FINGERPRINT>  (1) 
10366900 7 18041000660978087097
10616163 171 18343298206133306647
12173636 292 18272079466531860733
12236239 1 18260551138627856653
12553582 1 17983277512064816087
13583140 156 17894917339099775417
13760787 19 18411982446756747417
14251757 17 17202787924461300638
15415430 112 18341894121183658785
15669948 3 18271796943714771123
16752209 62 17988347252594786183
20681677 155 18201721742960528088
2255824 54 17822851962164285458
23175994 123 15769786766064515240
23493267 7 17775570814411741577
23559900 14 17775290434651788964
23566358 27 18187366476483896410
23598291 2 18263634095895884643
2637199 183 18411989048522446898
2838139 119 13254252528044658379
312423 11 18261662710186495258
474 4 17749115516965684916
4990 188 18060144241097143308
6049 1 16701729574756236035
633830 44 18115033008296191244
7097593 13 18121761851564533635

>  <PUBCHEM_SHAPE_MULTIPOLES>  (1) 
386.1
9.71
2.25
1.49
3.32
0.91
-0.29
-2.34
1.12
-1.42
-0.04
1.45
0.31
-1.84

>  <PUBCHEM_SHAPE_SELFOVERLAP>  (1) 
809.034

>  <PUBCHEM_SHAPE_VOLUME>  (1) 
215.5

>  <PUBCHEM_COORDINATE_TYPE>  (1) 
2
5
10

$$$$
