48044
     RDKit          3D

 17 17  0  0  0  0  0  0  0  0999 V2000
    5.8173   -1.6473   -0.0003 Cl  0  0  0  0  0  0  0  0  0  0  0  0
    0.3488    1.3924    0.0007 S   0  0  0  0  0  0  0  0  0  0  0  0
    0.2519    2.1160    1.2572 O   0  0  0  0  0  0  0  0  0  0  0  0
    0.2730    2.1175   -1.2565 O   0  0  0  0  0  0  0  0  0  0  0  0
   -4.3194   -0.0644   -0.0005 O   0  0  0  0  0  0  0  0  0  0  0  0
   -2.8561   -1.8525    0.0000 O   0  0  0  0  0  0  0  0  0  0  0  0
    1.8975    0.5337    0.0003 C   0  0  0  0  0  0  0  0  0  0  0  0
    2.4854    0.2076   -1.2076 C   0  0  0  0  0  0  0  0  0  0  0  0
    2.4849    0.2062    1.2083 C   0  0  0  0  0  0  0  0  0  0  0  0
   -0.7824    0.0959    0.0008 C   0  0  0  0  0  0  0  0  0  0  0  0
    3.7044   -0.4703   -1.2078 C   0  0  0  0  0  0  0  0  0  0  0  0
    3.7041   -0.4716    1.2082 C   0  0  0  0  0  0  0  0  0  0  0  0
    4.3140   -0.8097    0.0001 C   0  0  0  0  0  0  0  0  0  0  0  0
   -2.0787    0.4203    0.0011 C   0  0  0  0  0  0  0  0  0  0  0  0
   -5.4344   -0.9622   -0.0017 C   0  0  0  0  0  0  0  0  0  0  0  0
   -3.0940   -0.6550    0.0002 C   0  0  0  0  0  0  0  0  0  0  0  0
   -6.7161   -0.1565   -0.0025 C   0  0  0  0  0  0  0  0  0  0  0  0
  1 13  1  0
  2  3  2  0
  2  4  2  0
  2  7  1  0
  2 10  1  0
  5 15  1  0
  5 16  1  0
  6 16  2  0
  7  8  2  0
  7  9  1  0
  8 11  1  0
  9 12  2  0
 10 14  2  0
 11 13  2  0
 12 13  1  0
 14 16  1  0
 15 17  1  0
M  END
>  <PUBCHEM_COMPOUND_CID>  (1) 
48044

>  <PUBCHEM_CONFORMER_RMSD>  (1) 
0.6

>  <PUBCHEM_CONFORMER_DIVERSEORDER>  (1) 
1
29
2
10
26
8
23
37
31
24
28
5
30
4
16
11
15
3
21
9
33
22
20
32
14
19
7
18
34
6
12
13
17
25
35
36
27

>  <PUBCHEM_MMFF94_PARTIAL_CHARGES>  (1) 
22
1 -0.18
10 -0.17
11 -0.15
12 -0.15
13 0.18
14 -0.14
15 0.28
16 0.71
18 0.15
19 0.15
2 1.33
20 0.15
21 0.15
22 0.15
23 0.15
3 -0.65
4 -0.65
5 -0.43
6 -0.57
7 -0.01
8 -0.15
9 -0.15

>  <PUBCHEM_EFFECTIVE_ROTOR_COUNT>  (1) 
5

>  <PUBCHEM_PHARMACOPHORE_FEATURES>  (1) 
4
1 3 acceptor
1 4 acceptor
1 6 acceptor
6 7 8 9 11 12 13 rings

>  <PUBCHEM_HEAVY_ATOM_COUNT>  (1) 
17

>  <PUBCHEM_ATOM_DEF_STEREO_COUNT>  (1) 
0

>  <PUBCHEM_ATOM_UDEF_STEREO_COUNT>  (1) 
0

>  <PUBCHEM_BOND_DEF_STEREO_COUNT>  (1) 
0

>  <PUBCHEM_BOND_UDEF_STEREO_COUNT>  (1) 
1

>  <PUBCHEM_ISOTOPIC_ATOM_COUNT>  (1) 
0

>  <PUBCHEM_COMPONENT_COUNT>  (1) 
1

>  <PUBCHEM_CACTVS_TAUTO_COUNT>  (1) 
1

>  <PUBCHEM_CONFORMER_ID>  (1) 
0000BBAC00000001

>  <PUBCHEM_MMFF94_ENERGY>  (1) 
22.7658

>  <PUBCHEM_FEATURE_SELFOVERLAP>  (1) 
20.315

>  <PUBCHEM_SHAPE_FINGERPRINT>  (1) 
10354089 29 13830130590218330882
10670039 82 9943260280457338250
10753850 27 18186516571238571114
11724838 91 12103553195923184585
12251169 10 15554445202098988580
12507560 40 15051461457552555672
12555020 224 18338226155306239311
12596602 18 13901897925760529766
12633257 1 16343694448437350158
12730499 353 12540696998402672329
12892183 10 15482400746271034570
12916748 109 8790888496977183430
13533116 47 14476693983051821855
13685833 64 18412827992874011651
14251752 14 17749382625329252333
14252887 29 17489594450224517494
14366163 111 14851601094267393133
14528608 73 11891329877014788755
14576447 43 17530963545571614858
15183329 4 17822005377266237613
15188451 53 16987986315342557567
15527383 91 17274819168917143128
15531645 54 18411698782122058761
15885798 251 18272653450198366697
17834072 8 18334289869239233327
1798214 20 17822007605774067186
18006028 8 18130786746084046448
18186145 218 13984381067572658292
19141452 34 17989201581814545751
193927 3 18338812155604917146
19784866 140 16732978704709101801
19784866 240 18335708221262746387
200 152 17240486871353679364
20374829 77 18409166605999551215
20388580 30 18260834821186271500
20645477 70 18261393394314394679
20871999 31 17458338598611150333
21267235 1 18334582321424728947
21637258 2 18334849494524308238
221357 26 14707204409518840630
22224240 67 16271917217232895478
23016692 55 18408610248979159110
23253445 4 17346592002233427056
23402539 116 17677051240190499748
23402655 69 14201399369943796410
23559900 14 18338513170452748745
23590187 302 16443342095982156813
23622692 88 14692567724062927352
26918003 58 17060618906068220947
29717793 49 17967818223705683734
3004659 81 17967251992449995454
3060560 45 14129055928720944618
3472631 163 9078817598616850306
351380 3 18260828189556345194
4325135 7 18410013261046358012
465052 167 18334866047312579303
4990 188 14490187215507142617
5104073 3 18057892527494119011
522135 26 16950278524748173729
5374978 207 15841554080469052035
59682541 52 14056987283732560890
77188 2 18344145895307707912
960060 61 17676773153336473671

>  <PUBCHEM_SHAPE_MULTIPOLES>  (1) 
332.09
13.44
1.66
1.1
14.28
0.45
0
-8.13
0.01
-0.34
0
-1.13
0.27
0

>  <PUBCHEM_SHAPE_SELFOVERLAP>  (1) 
660.769

>  <PUBCHEM_SHAPE_VOLUME>  (1) 
197

>  <PUBCHEM_COORDINATE_TYPE>  (1) 
2
5
10

$$$$
