48045
     RDKit          3D

 10 10  0  0  0  0  0  0  0  0999 V2000
   -0.6876   -0.1864   -1.2096 O   0  0  0  0  0  0  0  0  0  0  0  0
   -0.6583   -0.5438    1.1142 O   0  0  0  0  0  0  0  0  0  0  0  0
    0.2544    1.4347    0.2228 O   0  0  0  0  0  0  0  0  0  0  0  0
    0.0405    0.0435    0.0061 C   0  0  0  0  0  0  0  0  0  0  0  0
    1.4032   -0.6206   -0.1214 C   0  0  0  0  0  0  0  0  0  0  0  0
   -2.0035   -0.5099   -0.7644 C   0  0  0  0  0  0  0  0  0  0  0  0
   -1.7540   -1.2450    0.5248 C   0  0  0  0  0  0  0  0  0  0  0  0
    2.1801   -0.0353   -1.2995 C   0  0  0  0  0  0  0  0  0  0  0  0
    2.2000   -0.4692    1.1735 C   0  0  0  0  0  0  0  0  0  0  0  0
   -0.9748    2.1320    0.3534 C   0  0  0  0  0  0  0  0  0  0  0  0
  1  4  1  0
  1  6  1  0
  2  4  1  0
  2  7  1  0
  3  4  1  0
  3 10  1  0
  4  5  1  0
  5  8  1  0
  5  9  1  0
  6  7  1  0
M  END
>  <PUBCHEM_COMPOUND_CID>  (1) 
48045

>  <PUBCHEM_CONFORMER_RMSD>  (1) 
0.6

>  <PUBCHEM_CONFORMER_DIVERSEORDER>  (1) 
1
4
5
2
3

>  <PUBCHEM_MMFF94_PARTIAL_CHARGES>  (1) 
7
1 -0.56
10 0.28
2 -0.56
3 -0.56
4 0.84
6 0.28
7 0.28

>  <PUBCHEM_EFFECTIVE_ROTOR_COUNT>  (1) 
3

>  <PUBCHEM_PHARMACOPHORE_FEATURES>  (1) 
5
1 1 acceptor
1 2 acceptor
1 3 acceptor
3 5 8 9 hydrophobe
5 1 2 4 6 7 rings

>  <PUBCHEM_HEAVY_ATOM_COUNT>  (1) 
10

>  <PUBCHEM_ATOM_DEF_STEREO_COUNT>  (1) 
0

>  <PUBCHEM_ATOM_UDEF_STEREO_COUNT>  (1) 
0

>  <PUBCHEM_BOND_DEF_STEREO_COUNT>  (1) 
0

>  <PUBCHEM_BOND_UDEF_STEREO_COUNT>  (1) 
0

>  <PUBCHEM_ISOTOPIC_ATOM_COUNT>  (1) 
0

>  <PUBCHEM_COMPONENT_COUNT>  (1) 
1

>  <PUBCHEM_CACTVS_TAUTO_COUNT>  (1) 
1

>  <PUBCHEM_CONFORMER_ID>  (1) 
0000BBAD00000001

>  <PUBCHEM_MMFF94_ENERGY>  (1) 
24.8567

>  <PUBCHEM_FEATURE_SELFOVERLAP>  (1) 
25.49

>  <PUBCHEM_SHAPE_FINGERPRINT>  (1) 
12423570 1 14230412848848734986
13024252 1 17823442464021368390
137420 1 11373642702018247113
14128692 85 17386274476339061322
16945 1 18340769239168351469
21040471 1 17836932200399898808
21922407 69 18041296378192314842
21930827 45 17914060797899678688
23552333 60 17458067079384241458
23552423 10 16153697743566528682
24536 1 18188777136985457734
29004967 10 18270675480029318266
369184 2 18269535200782919922
5084963 1 17546738049215278808

>  <PUBCHEM_SHAPE_MULTIPOLES>  (1) 
188.19
2.81
1.53
1.25
0.84
1.01
-0.11
-0.75
-0.19
-0.78
0.31
0.39
-0.18
-0.13

>  <PUBCHEM_SHAPE_SELFOVERLAP>  (1) 
369.841

>  <PUBCHEM_SHAPE_VOLUME>  (1) 
113.6

>  <PUBCHEM_COORDINATE_TYPE>  (1) 
2
5
10

$$$$
