48043
     RDKit          3D

 50 55  0  0  0  0  0  0  0  0999 V2000
   -4.2218   -4.3408   -0.5280 S   0  0  0  0  0  0  0  0  0  0  0  0
   -5.8608    1.5379    1.0955 S   0  0  0  0  0  0  0  0  0  0  0  0
   -5.3051   -5.1365   -1.0856 O   0  0  0  0  0  0  0  0  0  0  0  0
   -3.6364   -4.7063    0.7517 O   0  0  0  0  0  0  0  0  0  0  0  0
   -7.0853    1.5446    1.8819 O   0  0  0  0  0  0  0  0  0  0  0  0
   -5.8626    2.0749   -0.2557 O   0  0  0  0  0  0  0  0  0  0  0  0
    0.2139   -0.5880   -1.8018 O   0  0  0  0  0  0  0  0  0  0  0  0
   -2.0850    4.9697   -1.0560 O   0  0  0  0  0  0  0  0  0  0  0  0
   -3.0065   -4.1898   -1.7354 N   0  0  0  0  0  0  0  0  0  0  0  0
   -4.6253    2.2687    2.0423 N   0  0  0  0  0  0  0  0  0  0  0  0
    1.9813   -2.0630   -0.1826 N   0  0  0  0  0  0  0  0  0  0  0  0
    0.2540    3.5057   -0.5024 N   0  0  0  0  0  0  0  0  0  0  0  0
    5.6398   -3.9311    0.6402 N   0  0  0  0  0  0  0  0  0  0  0  0
    4.2177    3.1255    0.7999 N   0  0  0  0  0  0  0  0  0  0  0  0
   -5.9017   -2.5303    0.6044 C   0  0  0  0  0  0  0  0  0  0  0  0
   -6.4070   -1.0908    0.6783 C   0  0  0  0  0  0  0  0  0  0  0  0
   -4.7909   -2.6736   -0.4244 C   0  0  0  0  0  0  0  0  0  0  0  0
   -5.2838   -0.1285    1.0320 C   0  0  0  0  0  0  0  0  0  0  0  0
   -1.7351   -3.6437   -1.3413 C   0  0  0  0  0  0  0  0  0  0  0  0
   -3.3824    2.5873    1.3912 C   0  0  0  0  0  0  0  0  0  0  0  0
   -1.3634   -2.3668   -1.7622 C   0  0  0  0  0  0  0  0  0  0  0  0
   -3.3251    3.6341    0.4710 C   0  0  0  0  0  0  0  0  0  0  0  0
   -0.8739   -4.3916   -0.5382 C   0  0  0  0  0  0  0  0  0  0  0  0
   -2.2348    1.8492    1.6800 C   0  0  0  0  0  0  0  0  0  0  0  0
    0.7305   -2.5855   -0.5769 C   0  0  0  0  0  0  0  0  0  0  0  0
   -0.9724    3.2047    0.1289 C   0  0  0  0  0  0  0  0  0  0  0  0
   -0.1306   -1.8377   -1.3799 C   0  0  0  0  0  0  0  0  0  0  0  0
   -2.1201    3.9429   -0.1600 C   0  0  0  0  0  0  0  0  0  0  0  0
    0.3589   -3.8624   -0.1562 C   0  0  0  0  0  0  0  0  0  0  0  0
   -1.0298    2.1578    1.0488 C   0  0  0  0  0  0  0  0  0  0  0  0
    3.2167   -2.6694    0.1125 C   0  0  0  0  0  0  0  0  0  0  0  0
    1.5940    3.3740   -0.0923 C   0  0  0  0  0  0  0  0  0  0  0  0
    4.1129   -2.1084    1.0324 C   0  0  0  0  0  0  0  0  0  0  0  0
    2.6274    3.1442   -1.0106 C   0  0  0  0  0  0  0  0  0  0  0  0
    5.3296   -2.7817    1.2693 C   0  0  0  0  0  0  0  0  0  0  0  0
    3.9424    3.0248   -0.5142 C   0  0  0  0  0  0  0  0  0  0  0  0
    3.5336   -3.8535   -0.5374 C   0  0  0  0  0  0  0  0  0  0  0  0
    1.8745    3.4782    1.2625 C   0  0  0  0  0  0  0  0  0  0  0  0
    3.8216   -0.9105    1.7069 C   0  0  0  0  0  0  0  0  0  0  0  0
    2.3763    3.0338   -2.3887 C   0  0  0  0  0  0  0  0  0  0  0  0
    6.2194   -2.2241    2.1833 C   0  0  0  0  0  0  0  0  0  0  0  0
    4.9686    2.7965   -1.4269 C   0  0  0  0  0  0  0  0  0  0  0  0
    4.7474   -4.4393   -0.2402 C   0  0  0  0  0  0  0  0  0  0  0  0
    3.1917    3.3475    1.6532 C   0  0  0  0  0  0  0  0  0  0  0  0
   -0.7289    0.1020   -2.6191 C   0  0  0  0  0  0  0  0  0  0  0  0
   -1.7842    6.2658   -0.5436 C   0  0  0  0  0  0  0  0  0  0  0  0
    4.7298   -0.3753    2.6157 C   0  0  0  0  0  0  0  0  0  0  0  0
    3.4216    2.8055   -3.2790 C   0  0  0  0  0  0  0  0  0  0  0  0
    5.9302   -1.0332    2.8540 C   0  0  0  0  0  0  0  0  0  0  0  0
    4.7193    2.6867   -2.7970 C   0  0  0  0  0  0  0  0  0  0  0  0
  1  3  2  0
  1  4  2  0
  1  9  1  0
  1 17  1  0
  2  5  2  0
  2  6  2  0
  2 10  1  0
  2 18  1  0
  7 27  1  0
  7 45  1  0
  8 28  1  0
  8 46  1  0
  9 19  1  0
 10 20  1  0
 11 25  1  0
 11 31  1  0
 12 26  1  0
 12 32  1  0
 13 35  2  0
 13 43  1  0
 14 36  2  0
 14 44  1  0
 15 16  1  0
 15 17  1  0
 16 18  1  0
 19 21  2  0
 19 23  1  0
 20 22  2  0
 20 24  1  0
 21 27  1  0
 22 28  1  0
 23 29  2  0
 24 30  2  0
 25 27  2  0
 25 29  1  0
 26 28  2  0
 26 30  1  0
 31 33  2  0
 31 37  1  0
 32 34  2  0
 32 38  1  0
 33 35  1  0
 33 39  1  0
 34 36  1  0
 34 40  1  0
 35 41  1  0
 36 42  1  0
 37 43  2  0
 38 44  2  0
 39 47  2  0
 40 48  2  0
 41 49  2  0
 42 50  2  0
 47 49  1  0
 48 50  1  0
M  END
>  <PUBCHEM_COMPOUND_CID>  (1) 
48043

>  <PUBCHEM_CONFORMER_RMSD>  (1) 
1.8

>  <PUBCHEM_CONFORMER_DIVERSEORDER>  (1) 
1
129
97
17
19
172
174
182
4
123
87
121
106
34
36
142
48
52
7
65
3
43
133
75
105
131
44
187
5
56
2
99
120
164
160
176
96
77
23
125
110
151
45
79
82
156
18
186
37
38
168
10
50
85
173
163
159
15
60
28
127
80
101
55
71
67
72
181
76
12
68
32
89
70
165
190
128
136
180
49
88
78
193
91
134
103
148
155
171
31
58
137
25
150
83
94
11
115
161
93
158
185
135
39
166
42
46
152
154
22
104
98
14
191
138
192
113
57
112
53
16
8
86
169
24
162
175
141
179
63
144
107
116
153
100
102
9
13
64
66
26
124
147
184
61
177
35
157
47
119
81
143
183
59
69
40
188
118
51
140
21
30
54
170
122
149
108
126
41
111
139
132
27
145
130
74
167
84
95
114
62
29
189
178
92
90
146
117
20
73
6
109
33

>  <PUBCHEM_MMFF94_PARTIAL_CHARGES>  (1) 
68
1 1.33
10 -0.76
11 -0.6
12 -0.6
13 -0.62
14 -0.62
17 0.11
18 0.11
19 0.2
2 1.33
20 0.2
21 -0.15
22 -0.15
23 -0.15
24 -0.15
25 0.1
26 0.1
27 0.08
28 0.08
29 -0.15
3 -0.65
30 -0.15
31 0.1
32 0.1
35 0.31
36 0.31
37 -0.15
38 -0.15
39 -0.15
4 -0.65
40 -0.15
41 -0.15
42 -0.15
43 0.16
44 0.16
45 0.28
46 0.28
47 -0.15
48 -0.15
49 -0.15
5 -0.65
50 -0.15
59 0.42
6 -0.65
60 0.42
61 0.15
62 0.15
63 0.15
64 0.15
65 0.15
66 0.15
67 0.4
68 0.4
69 0.15
7 -0.36
70 0.15
71 0.15
72 0.15
73 0.15
74 0.15
75 0.15
76 0.15
8 -0.36
83 0.15
84 0.15
85 0.15
86 0.15
9 -0.76

>  <PUBCHEM_EFFECTIVE_ROTOR_COUNT>  (1) 
15

>  <PUBCHEM_PHARMACOPHORE_FEATURES>  (1) 
20
1 10 donor
1 11 cation
1 11 donor
1 12 cation
1 12 donor
1 13 acceptor
1 14 acceptor
1 3 acceptor
1 4 acceptor
1 5 acceptor
1 6 acceptor
1 7 acceptor
1 8 acceptor
1 9 donor
6 13 31 33 35 37 43 rings
6 14 32 34 36 38 44 rings
6 19 21 23 25 27 29 rings
6 20 22 24 26 28 30 rings
6 33 35 39 41 47 49 rings
6 34 36 40 42 48 50 rings

>  <PUBCHEM_HEAVY_ATOM_COUNT>  (1) 
50

>  <PUBCHEM_ATOM_DEF_STEREO_COUNT>  (1) 
0

>  <PUBCHEM_ATOM_UDEF_STEREO_COUNT>  (1) 
0

>  <PUBCHEM_BOND_DEF_STEREO_COUNT>  (1) 
0

>  <PUBCHEM_BOND_UDEF_STEREO_COUNT>  (1) 
0

>  <PUBCHEM_ISOTOPIC_ATOM_COUNT>  (1) 
0

>  <PUBCHEM_COMPONENT_COUNT>  (1) 
1

>  <PUBCHEM_CACTVS_TAUTO_COUNT>  (1) 
6

>  <PUBCHEM_CONFORMER_ID>  (1) 
0000BBAB00000001

>  <PUBCHEM_MMFF94_ENERGY>  (1) 
192.6173

>  <PUBCHEM_FEATURE_SELFOVERLAP>  (1) 
101.605

>  <PUBCHEM_SHAPE_FINGERPRINT>  (1) 
10675989 125 17474103680035712916
11028528 32 17980204411229462687
11399939 17 18412268324212541520
131258 38 18410858802251320988
15219648 60 18058183863304434206
15219648 81 17894923956964157141
15264996 151 18262522627949438779
15351339 4 17765156459580373853
15444296 7 18408323259923959944
15781502 13 17411645505835624518
17627616 140 18338810025580804175
25019877 29 17344050880496077686
354706 109 17909521996994858857
373842 8 18412538847365298363
469060 322 17686313401678764412

>  <PUBCHEM_SHAPE_MULTIPOLES>  (1) 
971.57
15.29
10.11
2.62
7.58
0.03
0.53
-7.22
-7.84
2.05
2.72
-3.1
1.12
-5.76

>  <PUBCHEM_SHAPE_SELFOVERLAP>  (1) 
2092.846

>  <PUBCHEM_SHAPE_VOLUME>  (1) 
535.9

>  <PUBCHEM_COORDINATE_TYPE>  (1) 
2
5
10

$$$$
