48056
     RDKit          3D

 21 23  0  0  1  0  0  0  0  0999 V2000
    0.2250    2.4344   -1.2485 S   0  0  0  0  0  0  0  0  0  0  0  0
   -0.2032   -2.5884   -0.8896 N   0  0  0  0  0  0  0  0  0  0  0  0
    0.0460   -0.0913    0.5707 N   0  0  0  0  0  0  0  0  0  0  0  0
    2.4301   -0.1920    0.9178 N   0  0  0  0  0  0  0  0  0  0  0  0
   -0.8366   -2.3758    0.4366 C   0  0  0  0  0  0  0  0  0  0  0  0
   -0.0048   -1.3914    1.2530 C   0  0  0  0  0  0  0  0  0  0  0  0
   -1.0370   -3.5543   -1.7423 C   0  0  0  0  0  0  0  0  0  0  0  0
   -0.0797   -1.2625   -1.6523 C   0  0  0  0  0  0  0  0  0  0  0  0
    1.2030   -3.1822   -0.7324 C   0  0  0  0  0  0  0  0  0  0  0  0
   -0.6074   -1.1978    2.6405 C   0  0  0  0  0  0  0  0  0  0  0  0
   -1.1757    0.5798    0.3213 C   0  0  0  0  0  0  0  0  0  0  0  0
    1.3529    0.4261    0.3517 C   0  0  0  0  0  0  0  0  0  0  0  0
   -1.2206    1.7398   -0.4765 C   0  0  0  0  0  0  0  0  0  0  0  0
    1.5417    1.5721   -0.4304 C   0  0  0  0  0  0  0  0  0  0  0  0
   -2.4001    0.1392    0.8722 C   0  0  0  0  0  0  0  0  0  0  0  0
   -2.4383    2.4018   -0.7198 C   0  0  0  0  0  0  0  0  0  0  0  0
    2.8422    2.0646   -0.6181 C   0  0  0  0  0  0  0  0  0  0  0  0
   -3.6067    0.8028    0.6305 C   0  0  0  0  0  0  0  0  0  0  0  0
   -3.6263    1.9343   -0.1689 C   0  0  0  0  0  0  0  0  0  0  0  0
    3.6686    0.3102    0.7193 C   0  0  0  0  0  0  0  0  0  0  0  0
    3.9267    1.4304   -0.0350 C   0  0  0  0  0  0  0  0  0  0  0  0
  1 13  1  0
  1 14  1  0
  2  5  1  0
  2  7  1  0
  2  8  1  0
  2  9  1  0
  3  6  1  0
  3 11  1  0
  3 12  1  0
  4 12  1  0
  4 20  2  0
  5  6  1  0
  6 10  1  0
 11 13  2  0
 11 15  1  0
 12 14  2  0
 13 16  1  0
 14 17  1  0
 15 18  2  0
 16 19  2  0
 17 21  2  0
 18 19  1  0
 20 21  1  0
M  CHG  1   2   1
M  END
>  <PUBCHEM_COMPOUND_CID>  (1) 
48056

>  <PUBCHEM_CONFORMER_RMSD>  (1) 
0.6

>  <PUBCHEM_CONFORMER_DIVERSEORDER>  (1) 
1
5
4
2
3

>  <PUBCHEM_MMFF94_PARTIAL_CHARGES>  (1) 
27
1 -0.2
11 0.1
12 0.41
13 0.1
14 0.1
15 -0.15
16 -0.15
17 -0.15
18 -0.15
19 -0.15
2 -1.01
20 0.16
21 -0.15
3 -0.57
37 0.15
38 0.15
39 0.15
4 -0.62
40 0.15
41 0.15
42 0.15
43 0.15
5 0.5
6 0.37
7 0.5
8 0.5
9 0.5

>  <PUBCHEM_EFFECTIVE_ROTOR_COUNT>  (1) 
3.4

>  <PUBCHEM_PHARMACOPHORE_FEATURES>  (1) 
6
1 2 cation
1 3 cation
1 4 acceptor
6 1 3 11 12 13 14 rings
6 11 13 15 16 18 19 rings
6 4 12 14 17 20 21 rings

>  <PUBCHEM_HEAVY_ATOM_COUNT>  (1) 
21

>  <PUBCHEM_ATOM_DEF_STEREO_COUNT>  (1) 
0

>  <PUBCHEM_ATOM_UDEF_STEREO_COUNT>  (1) 
1

>  <PUBCHEM_BOND_DEF_STEREO_COUNT>  (1) 
0

>  <PUBCHEM_BOND_UDEF_STEREO_COUNT>  (1) 
0

>  <PUBCHEM_ISOTOPIC_ATOM_COUNT>  (1) 
0

>  <PUBCHEM_COMPONENT_COUNT>  (1) 
1

>  <PUBCHEM_CACTVS_TAUTO_COUNT>  (1) 
1

>  <PUBCHEM_CONFORMER_ID>  (1) 
0000BBB800000001

>  <PUBCHEM_MMFF94_ENERGY>  (1) 
122.1454

>  <PUBCHEM_FEATURE_SELFOVERLAP>  (1) 
30.48

>  <PUBCHEM_SHAPE_FINGERPRINT>  (1) 
104564 63 18053662757121215798
10871710 139 17687760745095574052
10948715 1 18409729538794163449
10967382 1 18040997302139549072
12035758 1 18194691371582528354
12035759 4 18193808605310357999
12422481 6 18123500347378981811
12553582 1 17329437658129783198
12592029 89 18342182119973261483
12715332 25 18340197514934380680
12788726 201 17981323700838381302
13004483 165 17550934224005845774
13140716 1 17969500416024371040
133893 2 17769403559292105122
13681431 1 17480020796022335303
14817 1 16618914376190246755
15309172 13 18413392024911492473
15852999 172 17703242787953044038
15906896 17 18263926707738631091
16752209 62 18127402569489792638
16945 1 18186524310384347673
17492 54 18191855924457238389
20511035 2 18115884064155005880
20600515 1 12469214375989545292
20602899 9 17775016694953376078
20645477 70 18120079590701040405
20691752 17 17026580062256286241
20905425 154 17538555518114863880
21524375 3 18407757036466941649
21731228 192 18409171008383442201
2334 1 18113901554432716788
23388829 49 17327742206826073204
23419403 2 17690048553593348162
23728640 28 18339079427351399474
2748010 2 18043260045698501465
298252 57 18411694387521338817
3027735 51 17916304016648749766
3060560 45 18196645207512090966
34934 24 18041559268941163320
3729539 64 17840335249703373406
576247 118 16901870017237990965
5845 1 11053642147856373175
6138700 20 17976824182216451450
6438718 38 18194693784910698760
69090 78 18410290349890944088
7364860 26 18052256194039261181
81228 2 17905589352754580129
84936 31 17627497255600486439
90525 40 18337396057663644332
9862522 239 18262498330665596736

>  <PUBCHEM_SHAPE_MULTIPOLES>  (1) 
421.08
5.01
3.94
1.66
1.5
2.79
-0.38
-4.16
-0.8
-0.73
2.21
-0.32
1.16
-0.09

>  <PUBCHEM_SHAPE_SELFOVERLAP>  (1) 
888.47

>  <PUBCHEM_SHAPE_VOLUME>  (1) 
239.2

>  <PUBCHEM_COORDINATE_TYPE>  (1) 
2
5
10

$$$$
