4805
     RDKit          3D

 21 21  0  0  1  0  0  0  0  0999 V2000
    3.2730    3.0083    0.0086 O   0  0  0  0  0  0  0  0  0  0  0  0
    1.5916    2.8236   -1.5044 O   0  0  0  0  0  0  0  0  0  0  0  0
   -0.7481    0.8431    2.1419 O   0  0  0  0  0  0  0  0  0  0  0  0
    3.8643   -2.4818   -1.4346 O   0  0  0  0  0  0  0  0  0  0  0  0
    4.0357   -2.1472    0.8029 O   0  0  0  0  0  0  0  0  0  0  0  0
   -1.6143   -2.9590   -0.5945 O   0  0  0  0  0  0  0  0  0  0  0  0
   -0.6779   -1.9382    1.2075 O   0  0  0  0  0  0  0  0  0  0  0  0
    0.2122    1.1198    0.0489 N   0  0  0  0  0  0  0  0  0  0  0  0
    1.5338    1.4591    0.5121 C   0  0  0  0  0  0  0  0  0  0  0  0
    2.4244    0.2275    0.7161 C   0  0  0  0  0  0  0  0  0  0  0  0
    2.7175   -0.6009   -0.5413 C   0  0  0  0  0  0  0  0  0  0  0  0
    2.1095    2.4772   -0.4505 C   0  0  0  0  0  0  0  0  0  0  0  0
   -0.8335    0.8359    0.9166 C   0  0  0  0  0  0  0  0  0  0  0  0
   -2.1278    0.4779    0.2813 C   0  0  0  0  0  0  0  0  0  0  0  0
   -2.4190   -0.8392   -0.0109 C   0  0  0  0  0  0  0  0  0  0  0  0
    3.5894   -1.8111   -0.2852 C   0  0  0  0  0  0  0  0  0  0  0  0
   -3.0106    1.5033    0.0024 C   0  0  0  0  0  0  0  0  0  0  0  0
   -3.6429   -1.1447   -0.6065 C   0  0  0  0  0  0  0  0  0  0  0  0
   -4.2344    1.1976   -0.5932 C   0  0  0  0  0  0  0  0  0  0  0  0
   -4.5505   -0.1263   -0.8977 C   0  0  0  0  0  0  0  0  0  0  0  0
   -1.4922   -1.9250    0.2807 C   0  0  0  0  0  0  0  0  0  0  0  0
  1 12  1  0
  2 12  2  0
  3 13  2  0
  4 16  1  0
  5 16  2  0
  6 21  1  0
  7 21  2  0
  8  9  1  0
  8 13  1  0
  9 10  1  0
  9 12  1  0
 10 11  1  0
 11 16  1  0
 13 14  1  0
 14 15  2  0
 14 17  1  0
 15 18  1  0
 15 21  1  0
 17 19  2  0
 18 20  2  0
 19 20  1  0
M  END
>  <PUBCHEM_COMPOUND_CID>  (1) 
4805

>  <PUBCHEM_CONFORMER_RMSD>  (1) 
0.8

>  <PUBCHEM_CONFORMER_DIVERSEORDER>  (1) 
1
80
129
158
128
58
65
45
97
111
30
41
105
178
110
78
67
133
150
8
118
70
82
116
127
157
87
5
74
155
112
114
169
24
154
73
137
117
43
148
106
171
9
49
93
125
28
12
15
95
168
83
35
144
56
103
84
46
104
85
63
115
81
119
98
44
18
179
102
140
124
149
164
170
180
79
66
7
176
134
101
32
60
167
109
151
21
123
54
53
177
152
76
120
142
143
25
96
100
75
162
20
141
51
37
131
156
135
132
159
121
163
48
27
99
62
13
11
64
108
153
29
77
52
175
47
145
126
31
130
39
166
36
146
23
26
147
86
90
71
91
59
173
94
6
19
160
2
38
165
72
10
17
55
88
113
33
69
57
139
42
107
50
3
136
68
138
89
22
4
14
92
40
161
172
122
34
16
61
174

>  <PUBCHEM_MMFF94_PARTIAL_CHARGES>  (1) 
28
1 -0.65
11 0.06
12 0.66
13 0.54
14 0.09
15 0.09
16 0.66
17 -0.15
18 -0.15
19 -0.15
2 -0.57
20 -0.15
21 0.63
27 0.37
28 0.15
29 0.15
3 -0.57
30 0.15
31 0.15
32 0.5
33 0.5
34 0.5
4 -0.65
5 -0.57
6 -0.65
7 -0.57
8 -0.73
9 0.36

>  <PUBCHEM_EFFECTIVE_ROTOR_COUNT>  (1) 
8

>  <PUBCHEM_PHARMACOPHORE_FEATURES>  (1) 
12
1 1 acceptor
1 2 acceptor
1 3 acceptor
1 4 acceptor
1 5 acceptor
1 6 acceptor
1 7 acceptor
1 8 donor
3 1 2 12 anion
3 4 5 16 anion
3 6 7 21 anion
6 14 15 17 18 19 20 rings

>  <PUBCHEM_HEAVY_ATOM_COUNT>  (1) 
21

>  <PUBCHEM_ATOM_DEF_STEREO_COUNT>  (1) 
0

>  <PUBCHEM_ATOM_UDEF_STEREO_COUNT>  (1) 
1

>  <PUBCHEM_BOND_DEF_STEREO_COUNT>  (1) 
0

>  <PUBCHEM_BOND_UDEF_STEREO_COUNT>  (1) 
0

>  <PUBCHEM_ISOTOPIC_ATOM_COUNT>  (1) 
0

>  <PUBCHEM_COMPONENT_COUNT>  (1) 
1

>  <PUBCHEM_CACTVS_TAUTO_COUNT>  (1) 
2

>  <PUBCHEM_CONFORMER_ID>  (1) 
000012C500000001

>  <PUBCHEM_MMFF94_ENERGY>  (1) 
52.0672

>  <PUBCHEM_FEATURE_SELFOVERLAP>  (1) 
61.078

>  <PUBCHEM_SHAPE_FINGERPRINT>  (1) 
10062212 137 18060412491922329743
10616163 171 18050003595102949294
10756046 5 18337954592295746365
11370993 70 18193550288523065316
116883 192 18337667512587811212
12553582 1 18194140537816030242
12788726 201 17059519403399736633
14341114 328 11743537891421420262
15420108 30 16761144632085491529
17492 89 18338232786008036095
18186145 218 18187356628239684245
20645477 70 18410289241709902999
21069387 34 18130791118191935804
22393880 68 18268158737180007388
23559900 14 18272360993169433512
394222 165 14618226551415898146
4280585 95 18337957788648467022
6138700 20 18122905322093068862
633830 44 18334002896620078629
7364860 26 18340487871866776472
9709674 26 18337389460578371715
9981440 41 17758391155913566400

>  <PUBCHEM_SHAPE_MULTIPOLES>  (1) 
386.1
8.11
3.38
1.22
0.41
0.03
-0.2
-1.88
2.41
-3.09
0.77
-0.23
0.06
-0.01

>  <PUBCHEM_SHAPE_SELFOVERLAP>  (1) 
805.912

>  <PUBCHEM_SHAPE_VOLUME>  (1) 
216.9

>  <PUBCHEM_COORDINATE_TYPE>  (1) 
2
5
10

$$$$
