48074
     RDKit          3D

 35 36  0  0  1  0  0  0  0  0999 V2000
   -1.2490   -0.1599   -1.5754 N   0  0  0  0  0  0  0  0  0  0  0  0
    2.2512   -2.9969    0.5551 N   0  0  0  0  0  0  0  0  0  0  0  0
   -2.3286    0.9219   -1.4232 C   0  0  0  0  0  0  0  0  0  0  0  0
    3.2910   -2.4455   -0.3580 C   0  0  0  0  0  0  0  0  0  0  0  0
   -0.6508   -0.4980   -0.2630 C   0  0  0  0  0  0  0  0  0  0  0  0
    1.1799   -1.9416    0.8529 C   0  0  0  0  0  0  0  0  0  0  0  0
    0.4774   -1.5106   -0.4302 C   0  0  0  0  0  0  0  0  0  0  0  0
   -3.4847    0.3888   -0.5689 C   0  0  0  0  0  0  0  0  0  0  0  0
    3.9315   -1.2025    0.2708 C   0  0  0  0  0  0  0  0  0  0  0  0
   -6.8916    0.1035   -0.4715 C   0  0  0  0  0  0  0  0  0  0  0  0
    4.7930    2.0247   -0.3843 C   0  0  0  0  0  0  0  0  0  0  0  0
   -4.6395    1.3837   -0.4193 C   0  0  0  0  0  0  0  0  0  0  0  0
    4.9632   -0.5481   -0.6405 C   0  0  0  0  0  0  0  0  0  0  0  0
   -5.7919    0.7924    0.3631 C   0  0  0  0  0  0  0  0  0  0  0  0
    5.5179    0.7134   -0.0158 C   0  0  0  0  0  0  0  0  0  0  0  0
   -1.9011   -1.3950   -2.2145 C   0  0  0  0  0  0  0  0  0  0  0  0
   -0.1810    0.3684   -2.5446 C   0  0  0  0  0  0  0  0  0  0  0  0
    1.5661   -4.2129   -0.0791 C   0  0  0  0  0  0  0  0  0  0  0  0
    2.8777   -3.4355    1.8836 C   0  0  0  0  0  0  0  0  0  0  0  0
   -7.8322   -0.7507    0.4191 C   0  0  0  0  0  0  0  0  0  0  0  0
    5.2099    3.1893    0.5525 C   0  0  0  0  0  0  0  0  0  0  0  0
   -1.6796    2.1454   -0.7893 C   0  0  0  0  0  0  0  0  0  0  0  0
    4.3196   -3.5398   -0.6117 C   0  0  0  0  0  0  0  0  0  0  0  0
   -5.8593    0.8724    1.7149 C   0  0  0  0  0  0  0  0  0  0  0  0
    6.5934    0.6942    0.8096 C   0  0  0  0  0  0  0  0  0  0  0  0
   -8.2573   -0.0103    1.6762 C   0  0  0  0  0  0  0  0  0  0  0  0
    6.7144    3.2465    0.7587 C   0  0  0  0  0  0  0  0  0  0  0  0
   -7.0376    0.3542    2.5108 C   0  0  0  0  0  0  0  0  0  0  0  0
    7.2097    1.9507    1.3855 C   0  0  0  0  0  0  0  0  0  0  0  0
   -6.2849   -0.8522   -1.5226 C   0  0  0  0  0  0  0  0  0  0  0  0
   -7.7265    1.1745   -1.2080 C   0  0  0  0  0  0  0  0  0  0  0  0
    5.1263    2.4049   -1.8440 C   0  0  0  0  0  0  0  0  0  0  0  0
    3.2609    1.8761   -0.2549 C   0  0  0  0  0  0  0  0  0  0  0  0
   -4.7780    1.4547    2.5910 C   0  0  0  0  0  0  0  0  0  0  0  0
    7.2904   -0.5602    1.2751 C   0  0  0  0  0  0  0  0  0  0  0  0
  1  3  1  0
  1  5  1  0
  1 16  1  0
  1 17  1  0
  2  4  1  0
  2  6  1  0
  2 18  1  0
  2 19  1  0
  3  8  1  0
  3 22  1  0
  4  9  1  0
  4 23  1  0
  5  7  1  0
  6  7  1  0
  8 12  1  0
  9 13  1  0
 10 14  1  0
 10 20  1  0
 10 30  1  0
 10 31  1  0
 11 15  1  0
 11 21  1  0
 11 32  1  0
 11 33  1  0
 12 14  1  0
 13 15  1  0
 14 24  2  0
 15 25  2  0
 20 26  1  0
 21 27  1  0
 24 28  1  0
 24 34  1  0
 25 29  1  0
 25 35  1  0
 26 28  1  0
 27 29  1  0
M  CHG  2   1   1   2   1
M  END
>  <PUBCHEM_COMPOUND_CID>  (1) 
48074

>  <PUBCHEM_CONFORMER_RMSD>  (1) 
1.2

>  <PUBCHEM_CONFORMER_DIVERSEORDER>  (1) 
1
214
197
279
346
104
34
364
116
37
363
269
157
124
291
315
187
298
107
152
204
75
53
206
139
111
154
7
184
302
295
33
317
210
368
17
284
190
322
200
232
345
233
201
108
320
343
272
118
19
68
65
229
258
270
113
309
285
32
66
238
360
344
239
129
150
203
342
89
281
222
6
217
278
93
316
119
240
261
80
8
303
271
140
102
70
158
135
174
120
292
209
211
228
177
18
264
178
191
50
2
358
351
149
27
248
121
307
69
354
106
168
99
45
61
160
253
321
186
202
46
300
252
244
255
357
265
370
330
87
172
145
151
208
134
251
213
10
39
299
280
347
57
85
77
237
365
182
159
223
260
94
142
306
112
51
245
58
195
287
356
267
173
235
318
305
221
296
97
325
141
176
230
110
198
369
324
181
326
130
79
341
101
353
327
205
196
277
352
246
328
59
146
183
361
301
30
167
54
199
304
268
263
86
259
282
29
218
105
20
155
166
185
336
234
161
90
207
38
82
308
96
76
23
143
95
100
241
226
163
109
257
98
56
339
243
194
224
219
311
319
81
14
16
262
276
73
189
84
26
64
274
340
289
256
333
310
126
123
162
367
349
28
332
314
48
266
220
24
227
335
67
242
128
212
275
131
71
13
293
137
297
337
165
4
193
175
138
359
164
12
103
313
115
136
338
288
170
25
249
286
60
83
132
44
63
127
40
225
247
215
49
21
31
355
171
188
350
3
331
371
117
91
36
180
9
11
216
192
78
169
74
312
273
62
122
15
362
290
133
47
153
144
5
41
254
323
231
366
43
294
125
283
156
348
22
52
92
250
114
236
35
42
334
147
55
179
148
329
88
72

>  <PUBCHEM_MMFF94_PARTIAL_CHARGES>  (1) 
22
1 -1.01
10 0.14
11 0.14
12 0.14
13 0.14
14 -0.28
15 -0.28
16 0.5
17 0.5
18 0.5
19 0.5
2 -1.01
24 -0.28
25 -0.28
28 0.14
29 0.14
3 0.5
34 0.14
35 0.14
4 0.5
5 0.5
6 0.5

>  <PUBCHEM_EFFECTIVE_ROTOR_COUNT>  (1) 
13.6

>  <PUBCHEM_PHARMACOPHORE_FEATURES>  (1) 
6
1 1 cation
1 2 cation
3 10 30 31 hydrophobe
3 11 32 33 hydrophobe
6 10 14 20 24 26 28 rings
6 11 15 21 25 27 29 rings

>  <PUBCHEM_HEAVY_ATOM_COUNT>  (1) 
35

>  <PUBCHEM_ATOM_DEF_STEREO_COUNT>  (1) 
0

>  <PUBCHEM_ATOM_UDEF_STEREO_COUNT>  (1) 
2

>  <PUBCHEM_BOND_DEF_STEREO_COUNT>  (1) 
0

>  <PUBCHEM_BOND_UDEF_STEREO_COUNT>  (1) 
0

>  <PUBCHEM_ISOTOPIC_ATOM_COUNT>  (1) 
0

>  <PUBCHEM_COMPONENT_COUNT>  (1) 
1

>  <PUBCHEM_CACTVS_TAUTO_COUNT>  (1) 
1

>  <PUBCHEM_CONFORMER_ID>  (1) 
0000BBCA00000001

>  <PUBCHEM_MMFF94_ENERGY>  (1) 
120.2244

>  <PUBCHEM_FEATURE_SELFOVERLAP>  (1) 
30.447

>  <PUBCHEM_SHAPE_FINGERPRINT>  (1) 
10391435 84 17894915148967161259
10673678 19 18272368663896907278
11007060 377 18335420171651662583
11135609 201 18340759412573485074
11456790 92 18261943069415467656
11828042 279 18041266768350511486
1200032 147 17704076213893904798
12422481 6 17458914845862324018
12677640 9 17980197805474685719
12717326 120 15937274303208943811
13560911 23 17682104487782829208
13751561 76 17531248327420060002
13782708 43 17388260035135475771
14028597 1 18060424594555036673
14461889 52 17385445397295351563
14565420 104 18334288773833136570
14675020 138 15647334091955059139
14747281 78 15123787388331249102
14849402 71 17988925608838842489
14856354 85 17132109153055386693
15183329 4 16774082894620575217
15328684 2 17489592208610311923
15328829 1 18131070446270671661
15392192 104 17969238887276059941
15684389 69 18130781296609604055
15685185 35 18127129899729341304
16096371 109 18187086165495752056
16994733 274 17203896274836710233
17913733 40 18408326587737318786
19301676 85 9583527537664738596
19304671 126 17631743789537564420
19319366 153 18343014476493846842
1979834 28 18113624486714360100
21458453 9 18261398870904522067
21987483 16 18114183043085841963
23522609 53 17632587032902335979
394071 54 18409169891649455071
397830 11 18259708895847059523
4093350 32 17560807606494995254
4339292 15 8934736509236124784
437795 51 18334863804986001938
437795 70 12823303385473884947
5085150 59 15285361730487540337
5109719 28 18408603660757724920
5911458 16 17846782918388922617
9849439 229 18261958570015891596

>  <PUBCHEM_SHAPE_MULTIPOLES>  (1) 
710.32
25.54
4.03
2.17
23.29
2.82
0.25
-12.64
10.15
-9.28
0.53
2.78
-0.3
-0.65

>  <PUBCHEM_SHAPE_SELFOVERLAP>  (1) 
1406.325

>  <PUBCHEM_SHAPE_VOLUME>  (1) 
421.5

>  <PUBCHEM_COORDINATE_TYPE>  (1) 
2
5
10

$$$$
