48092
     RDKit          3D

 24 24  0  0  1  0  0  0  0  0999 V2000
   -1.8392    2.3821   -2.6513 Br  0  0  0  0  0  0  0  0  0  0  0  0
    0.7660   -1.0759   -0.4083 O   0  0  0  0  0  0  0  0  0  0  0  0
   -0.8368   -2.1059    0.8851 O   0  0  0  0  0  0  0  0  0  0  0  0
    3.8539    0.4926    0.4962 N   0  0  0  0  0  0  0  0  0  0  0  0
    3.1296   -1.6924   -0.5456 C   0  0  0  0  0  0  0  0  0  0  0  0
    3.3738   -0.1681   -0.7146 C   0  0  0  0  0  0  0  0  0  0  0  0
    1.7456   -1.9852    0.0768 C   0  0  0  0  0  0  0  0  0  0  0  0
    3.2073   -2.3389   -1.9447 C   0  0  0  0  0  0  0  0  0  0  0  0
    4.2156   -2.3290    0.3420 C   0  0  0  0  0  0  0  0  0  0  0  0
    4.6014    1.7039    0.1579 C   0  0  0  0  0  0  0  0  0  0  0  0
    2.7354    0.8150    1.3826 C   0  0  0  0  0  0  0  0  0  0  0  0
   -1.4308   -0.1876   -0.5142 C   0  0  0  0  0  0  0  0  0  0  0  0
    3.7157    2.7166   -0.5478 C   0  0  0  0  0  0  0  0  0  0  0  0
    3.2236    1.4458    2.6757 C   0  0  0  0  0  0  0  0  0  0  0  0
   -0.5044   -1.2453    0.0805 C   0  0  0  0  0  0  0  0  0  0  0  0
   -0.8655    1.2218   -0.2142 C   0  0  0  0  0  0  0  0  0  0  0  0
   -2.8684   -0.3744   -0.0498 C   0  0  0  0  0  0  0  0  0  0  0  0
   -3.7394   -1.1791   -0.7844 C   0  0  0  0  0  0  0  0  0  0  0  0
   -3.3147    0.2587    1.1103 C   0  0  0  0  0  0  0  0  0  0  0  0
   -1.6799    2.3566   -0.7859 C   0  0  0  0  0  0  0  0  0  0  0  0
   -5.0567   -1.3506   -0.3589 C   0  0  0  0  0  0  0  0  0  0  0  0
   -4.6320    0.0871    1.5358 C   0  0  0  0  0  0  0  0  0  0  0  0
   -5.5029   -0.7176    0.8011 C   0  0  0  0  0  0  0  0  0  0  0  0
   -2.2973    3.2701   -0.0244 C   0  0  0  0  0  0  0  0  0  0  0  0
  1 20  1  0
  2  7  1  0
  2 15  1  0
  3 15  2  0
  4  6  1  0
  4 10  1  0
  4 11  1  0
  5  6  1  0
  5  7  1  0
  5  8  1  0
  5  9  1  0
 10 13  1  0
 11 14  1  0
 12 15  1  0
 12 16  1  0
 12 17  1  0
 16 20  1  0
 17 18  2  0
 17 19  1  0
 18 21  1  0
 19 22  2  0
 20 24  2  0
 21 23  2  0
 22 23  1  0
M  END
>  <PUBCHEM_COMPOUND_CID>  (1) 
48092

>  <PUBCHEM_CONFORMER_RMSD>  (1) 
1.4

>  <PUBCHEM_CONFORMER_DIVERSEORDER>  (1) 
1
52
30
20
13
54
50
12
3
21
7
36
15
49
45
23
10
38
39
27
35
19
47
6
44
43
9
32
14
4
11
5
18
40
34
16
31
51
41
26
33
29
53
55
42
56
8
37
2
24
46
48
25
28
22
17

>  <PUBCHEM_MMFF94_PARTIAL_CHARGES>  (1) 
26
1 -0.11
10 0.27
11 0.27
12 0.2
15 0.66
16 0.14
17 -0.14
18 -0.15
19 -0.15
2 -0.43
20 -0.03
21 -0.15
22 -0.15
23 -0.15
24 -0.3
3 -0.57
4 -0.81
48 0.15
49 0.15
50 0.15
51 0.15
52 0.15
53 0.15
54 0.15
6 0.27
7 0.28

>  <PUBCHEM_EFFECTIVE_ROTOR_COUNT>  (1) 
11

>  <PUBCHEM_PHARMACOPHORE_FEATURES>  (1) 
5
1 1 hydrophobe
1 3 acceptor
1 4 cation
3 5 8 9 hydrophobe
6 17 18 19 21 22 23 rings

>  <PUBCHEM_HEAVY_ATOM_COUNT>  (1) 
24

>  <PUBCHEM_ATOM_DEF_STEREO_COUNT>  (1) 
0

>  <PUBCHEM_ATOM_UDEF_STEREO_COUNT>  (1) 
1

>  <PUBCHEM_BOND_DEF_STEREO_COUNT>  (1) 
0

>  <PUBCHEM_BOND_UDEF_STEREO_COUNT>  (1) 
0

>  <PUBCHEM_ISOTOPIC_ATOM_COUNT>  (1) 
0

>  <PUBCHEM_COMPONENT_COUNT>  (1) 
1

>  <PUBCHEM_CACTVS_TAUTO_COUNT>  (1) 
1

>  <PUBCHEM_CONFORMER_ID>  (1) 
0000BBDC00000001

>  <PUBCHEM_MMFF94_ENERGY>  (1) 
60.6516

>  <PUBCHEM_FEATURE_SELFOVERLAP>  (1) 
25.372

>  <PUBCHEM_SHAPE_FINGERPRINT>  (1) 
10165383 225 18200318852671983528
10366900 7 18339646736770440226
10670039 82 18041296400173846804
11578080 2 18339922602710506889
11595378 159 17749102266632770337
12403259 226 18189616034382350774
12422481 6 18189352194979720289
12633257 1 18189040053582374240
13140716 1 17975136753335890492
13224815 77 18335697209061499543
13583140 156 18117547427658314686
14114211 80 17911819151784508308
14840074 17 18043536220469545021
15806764 133 18055926398196360814
15840311 113 18270138816362666281
15961568 22 18261959651725541380
17349148 13 16732989691235646315
17980427 23 17417820539599702513
1813 80 17821736056852062181
20681677 76 18262791865862748804
22182313 1 18337656525855402053
23557571 272 18334853909634390877
23559900 14 18263918852290835126
25222932 49 17097774831338831387
34797466 226 15912772807644213523
350125 39 18338802221577410206
46194498 28 18271539623892817742
474 4 18339080509488180570
5252454 2 18059285591309290512
5283173 99 18042392544536888253
6049 1 18339920390253041300
6287921 2 18411992342482808084

>  <PUBCHEM_SHAPE_MULTIPOLES>  (1) 
483.13
10.97
3.4
1.88
2.66
1.61
0.02
-1.96
-2.32
-1.53
1.15
-0.4
0.86
1.87

>  <PUBCHEM_SHAPE_SELFOVERLAP>  (1) 
953.71

>  <PUBCHEM_SHAPE_VOLUME>  (1) 
294.1

>  <PUBCHEM_COORDINATE_TYPE>  (1) 
2
5
10

$$$$
