48091
     RDKit          3D

 23 23  0  0  1  0  0  0  0  0999 V2000
    0.6147   -1.0275   -0.0639 O   0  0  0  0  0  0  0  0  0  0  0  0
   -0.8676   -0.8585    1.6956 O   0  0  0  0  0  0  0  0  0  0  0  0
    3.5751    0.9902   -0.0317 N   0  0  0  0  0  0  0  0  0  0  0  0
   -2.7263    0.3351   -0.0640 C   0  0  0  0  0  0  0  0  0  0  0  0
   -2.1079    1.6692    0.3757 C   0  0  0  0  0  0  0  0  0  0  0  0
   -3.8162    0.5601   -1.1206 C   0  0  0  0  0  0  0  0  0  0  0  0
   -1.6493   -0.6105   -0.5926 C   0  0  0  0  0  0  0  0  0  0  0  0
   -3.1722    2.6517    0.8589 C   0  0  0  0  0  0  0  0  0  0  0  0
   -4.8776    1.5447   -0.6351 C   0  0  0  0  0  0  0  0  0  0  0  0
   -4.2583    2.8661   -0.1906 C   0  0  0  0  0  0  0  0  0  0  0  0
   -2.2591   -1.9472   -1.0386 C   0  0  0  0  0  0  0  0  0  0  0  0
    3.0217   -1.4708    0.1134 C   0  0  0  0  0  0  0  0  0  0  0  0
   -0.6145   -0.8374    0.4977 C   0  0  0  0  0  0  0  0  0  0  0  0
    1.6821   -1.2710    0.8577 C   0  0  0  0  0  0  0  0  0  0  0  0
    3.3727   -0.2487   -0.7782 C   0  0  0  0  0  0  0  0  0  0  0  0
    4.1298   -1.7318    1.1511 C   0  0  0  0  0  0  0  0  0  0  0  0
    2.9165   -2.7072   -0.8040 C   0  0  0  0  0  0  0  0  0  0  0  0
   -2.9375   -2.6705    0.0904 C   0  0  0  0  0  0  0  0  0  0  0  0
    2.3465    1.3780    0.6618 C   0  0  0  0  0  0  0  0  0  0  0  0
    4.0155    2.0618   -0.9254 C   0  0  0  0  0  0  0  0  0  0  0  0
   -4.2377   -2.9849    0.1039 C   0  0  0  0  0  0  0  0  0  0  0  0
    2.5581    2.6310    1.4943 C   0  0  0  0  0  0  0  0  0  0  0  0
    5.2914    1.6780   -1.6557 C   0  0  0  0  0  0  0  0  0  0  0  0
  1 13  1  0
  1 14  1  0
  2 13  2  0
  3 15  1  0
  3 19  1  0
  3 20  1  0
  4  5  1  0
  4  6  1  0
  4  7  1  0
  5  8  1  0
  6  9  1  0
  7 11  1  0
  7 13  1  0
  8 10  1  0
  9 10  1  0
 11 18  1  0
 12 14  1  0
 12 15  1  0
 12 16  1  0
 12 17  1  0
 18 21  2  0
 19 22  1  0
 20 23  1  0
M  END
>  <PUBCHEM_COMPOUND_CID>  (1) 
48091

>  <PUBCHEM_CONFORMER_RMSD>  (1) 
1

>  <PUBCHEM_CONFORMER_DIVERSEORDER>  (1) 
4
72
45
101
116
63
10
83
110
26
126
113
118
67
52
88
91
122
117
111
31
46
125
104
17
28
39
89
62
103
55
105
9
5
119
120
99
22
53
82
100
94
19
84
48
49
115
85
75
107
51
13
93
42
59
50
112
96
76
73
81
87
36
40
123
23
95
61
98
108
2
38
77
69
35
18
65
56
21
41
33
92
124
80
29
109
25
27
70
127
11
16
102
74
66
20
47
68
32
34
79
106
114
90
71
86
14
57
3
15
78
6
97
1
24
30
121
8
43
58
54
7
60
64
37
12
44

>  <PUBCHEM_MMFF94_PARTIAL_CHARGES>  (1) 
15
1 -0.43
11 0.14
13 0.66
14 0.28
15 0.27
18 -0.29
19 0.27
2 -0.57
20 0.27
21 -0.3
3 -0.81
48 0.15
53 0.15
54 0.15
7 0.06

>  <PUBCHEM_EFFECTIVE_ROTOR_COUNT>  (1) 
12.2

>  <PUBCHEM_PHARMACOPHORE_FEATURES>  (1) 
5
1 2 acceptor
1 21 hydrophobe
1 3 cation
3 12 16 17 hydrophobe
6 4 5 6 8 9 10 rings

>  <PUBCHEM_HEAVY_ATOM_COUNT>  (1) 
23

>  <PUBCHEM_ATOM_DEF_STEREO_COUNT>  (1) 
0

>  <PUBCHEM_ATOM_UDEF_STEREO_COUNT>  (1) 
1

>  <PUBCHEM_BOND_DEF_STEREO_COUNT>  (1) 
0

>  <PUBCHEM_BOND_UDEF_STEREO_COUNT>  (1) 
0

>  <PUBCHEM_ISOTOPIC_ATOM_COUNT>  (1) 
0

>  <PUBCHEM_COMPONENT_COUNT>  (1) 
1

>  <PUBCHEM_CACTVS_TAUTO_COUNT>  (1) 
1

>  <PUBCHEM_CONFORMER_ID>  (1) 
0000BBDB00000004

>  <PUBCHEM_MMFF94_ENERGY>  (1) 
61.4788

>  <PUBCHEM_FEATURE_SELFOVERLAP>  (1) 
25.371

>  <PUBCHEM_SHAPE_FINGERPRINT>  (1) 
10366900 7 18119254106212368554
10498660 4 18337670927002298460
11405975 8 18334570213817203547
12173636 292 18340476829384545991
12633257 1 18262229998457487118
12788726 201 18262796410207758035
13140716 1 18338223899624995346
14790565 3 18196376905997525929
15163728 17 17097806653632209588
15238133 3 18270114592235315888
15420108 30 14893845056576874570
17492 89 18410573998127056766
18608769 82 18265340680039922393
19930381 70 17691679413132131433
20286276 3 18336836315962122742
20691752 17 16950558883418606734
21033648 144 18336531751261691764
21049683 271 17540540545332196911
21524375 3 18118403939132234859
221357 26 18128546049072031892
22393880 68 18271811267605004212
22907989 373 18343577452454384223
23227448 37 18410008815137761965
23557571 272 18339368594435397271
23558518 356 18260829332149553899
23559900 14 18199742557812399502
23598288 3 18342449374725192823
312423 11 18333730234536905994
46194498 28 17700993281968828460
474 4 18113898243138999444
5104073 3 18334007302628926874
5309563 4 17834116725084376411
53777708 50 18407759231385380674
5895379 119 17845093957281684200
633830 44 18188207581366878511
7399639 24 17982439705114024961
9709674 26 18272928280866166183
9971528 1 18056189177623880946
9981440 41 18050551135151953008

>  <PUBCHEM_SHAPE_MULTIPOLES>  (1) 
456.61
10.92
3.93
1.32
1.65
0.13
-0.05
-3.76
2.92
-1.87
-0.26
0.97
-0.31
-0.67

>  <PUBCHEM_SHAPE_SELFOVERLAP>  (1) 
892.357

>  <PUBCHEM_SHAPE_VOLUME>  (1) 
273.6

>  <PUBCHEM_COORDINATE_TYPE>  (1) 
2
5
10

$$$$
