48106
     RDKit          3D

 17 19  0  0  1  0  0  0  0  0999 V2000
    5.2153    0.2907    0.0909 Cl  0  0  0  0  0  0  0  0  0  0  0  0
    0.2847    0.2051   -0.0325 O   0  0  0  0  0  0  0  0  0  0  0  0
    0.9903   -2.0325   -0.1193 O   0  0  0  0  0  0  0  0  0  0  0  0
   -3.2079   -0.9956   -0.1728 N   0  0  0  0  0  0  0  0  0  0  0  0
    1.4318   -0.6654   -0.0461 C   0  0  0  0  0  0  0  0  0  0  0  0
   -0.8153   -0.6354   -0.3888 C   0  0  0  0  0  0  0  0  0  0  0  0
   -2.1052   -0.0972    0.1921 C   0  0  0  0  0  0  0  0  0  0  0  0
    2.2218   -0.4588    1.2501 C   0  0  0  0  0  0  0  0  0  0  0  0
    2.2899   -0.3624   -1.2780 C   0  0  0  0  0  0  0  0  0  0  0  0
   -0.4082   -1.9788    0.1637 C   0  0  0  0  0  0  0  0  0  0  0  0
   -2.3720    1.3261   -0.3165 C   0  0  0  0  0  0  0  0  0  0  0  0
    2.8618    0.9293    1.3211 C   0  0  0  0  0  0  0  0  0  0  0  0
    2.9281    1.0265   -1.2085 C   0  0  0  0  0  0  0  0  0  0  0  0
    3.7069    1.2602    0.0885 C   0  0  0  0  0  0  0  0  0  0  0  0
   -3.7089    1.8546    0.1961 C   0  0  0  0  0  0  0  0  0  0  0  0
   -4.8293    0.8686   -0.1157 C   0  0  0  0  0  0  0  0  0  0  0  0
   -4.4837   -0.5350    0.3757 C   0  0  0  0  0  0  0  0  0  0  0  0
  1 14  1  0
  2  5  1  0
  2  6  1  0
  3  5  1  0
  3 10  1  0
  4  7  1  0
  4 17  1  0
  5  8  1  0
  5  9  1  0
  6  7  1  0
  6 10  1  0
  7 11  1  0
  8 12  1  0
  9 13  1  0
 11 15  1  0
 12 14  1  0
 13 14  1  0
 15 16  1  0
 16 17  1  0
M  END
>  <PUBCHEM_COMPOUND_CID>  (1) 
48106

>  <PUBCHEM_CONFORMER_RMSD>  (1) 
0.6

>  <PUBCHEM_CONFORMER_DIVERSEORDER>  (1) 
1
70
72
43
65
59
58
62
67
69
27
64
36
26
38
20
39
53
41
60
52
42
29
48
34
6
30
44
56
57
2
49
51
28
37
46
9
55
11
22
35
47
4
40
12
10
14
61
54
7
15
68
17
32
45
63
18
8
50
33
71
24
31
19
21
66
13
25
3
16
23
5

>  <PUBCHEM_MMFF94_PARTIAL_CHARGES>  (1) 
11
1 -0.29
10 0.28
14 0.29
17 0.27
2 -0.56
3 -0.56
35 0.36
4 -0.9
5 0.56
6 0.28
7 0.27

>  <PUBCHEM_EFFECTIVE_ROTOR_COUNT>  (1) 
4

>  <PUBCHEM_PHARMACOPHORE_FEATURES>  (1) 
7
1 2 acceptor
1 3 acceptor
1 4 cation
1 4 donor
5 2 3 5 6 10 rings
6 4 7 11 15 16 17 rings
6 5 8 9 12 13 14 rings

>  <PUBCHEM_HEAVY_ATOM_COUNT>  (1) 
17

>  <PUBCHEM_ATOM_DEF_STEREO_COUNT>  (1) 
0

>  <PUBCHEM_ATOM_UDEF_STEREO_COUNT>  (1) 
2

>  <PUBCHEM_BOND_DEF_STEREO_COUNT>  (1) 
0

>  <PUBCHEM_BOND_UDEF_STEREO_COUNT>  (1) 
0

>  <PUBCHEM_ISOTOPIC_ATOM_COUNT>  (1) 
0

>  <PUBCHEM_COMPONENT_COUNT>  (1) 
1

>  <PUBCHEM_CACTVS_TAUTO_COUNT>  (1) 
1

>  <PUBCHEM_CONFORMER_ID>  (1) 
0000BBEA00000001

>  <PUBCHEM_MMFF94_ENERGY>  (1) 
21.1862

>  <PUBCHEM_FEATURE_SELFOVERLAP>  (1) 
35.571

>  <PUBCHEM_SHAPE_FINGERPRINT>  (1) 
10465860 228 18336548196601569402
10498660 4 18412545384110629513
10608611 8 18267019466987126749
10646746 165 18413106164857269776
11046707 91 9223235147810111549
11132069 177 18260550013520420517
11543360 7 15841262727394582021
11715629 250 18411981334634505069
12236239 1 17748825241600809236
12251169 10 17385442128624493126
12346645 44 18410012122215262783
12403259 415 18130505331458541264
12507557 5 17530962505730762405
12596602 18 16950850305117913321
12633257 1 15430313676581648408
12788726 201 17174075501136838626
12815109 37 8935003663657161648
128620 24 18272091608430656797
13583140 156 16515677884058298157
14251764 18 18261106388416799834
14252887 29 12179840585423499488
14943859 89 18130788983814742166
15775835 57 18410009935691748385
1798214 20 11527952248495678596
18186145 218 17418097619859219411
19784866 9 18337668625121049418
200 152 12751242514649631492
20233049 118 18413668024295413960
20374829 77 9511464411539114693
20645477 56 18273216425615253271
20645477 70 16486988271098761830
21250096 35 9151176449812783108
21501925 9 7997964661267047726
21503847 285 17749113300931482372
21524375 3 18409449193494195278
22646028 28 9511460022130017509
22854114 59 18408042901211224529
231179 274 18060135440466391872
23402539 116 18272644675669539988
23402655 69 17418377982228423153
23557571 272 17988082304604634151
23559900 14 18338519625234856038
26918003 58 13551189996146445213
2916195 48 18059565945199420920
3060560 45 16343702132154838092
351380 180 18343300387987034524
3545911 37 18410013217474075877
4028521 119 18060702788376802913
474 4 17967537873809846781
4921388 177 15554153878952257413
4990 188 17561088015992508670
5104073 3 18262808346279803633
5281201 14 17346609542537355604
58051976 378 18412826867639871117
6333272 397 18335986449365558985
633830 44 18272370828570532429
7364860 26 18198061383069074318
7808743 9 18194401315166357160
9882013 296 17894629257940896749

>  <PUBCHEM_SHAPE_MULTIPOLES>  (1) 
335
9.76
1.75
1.03
2.75
0.25
0.03
-3.8
0.52
0.64
0.01
-0.93
-0.1
0.05

>  <PUBCHEM_SHAPE_SELFOVERLAP>  (1) 
682.481

>  <PUBCHEM_SHAPE_VOLUME>  (1) 
195

>  <PUBCHEM_COORDINATE_TYPE>  (1) 
2
5
10

$$$$
