48111
     RDKit          3D

 21 22  0  0  1  0  0  0  0  0999 V2000
    0.7286    0.1186   -0.6227 O   0  0  0  0  0  0  0  0  0  0  0  0
    1.3786   -1.2266    1.1286 O   0  0  0  0  0  0  0  0  0  0  0  0
    4.0446   -1.7037    0.9246 O   0  0  0  0  0  0  0  0  0  0  0  0
   -3.5082   -0.0590   -0.3806 N   0  0  0  0  0  0  0  0  0  0  0  0
   -4.8747   -0.6270   -0.3173 C   0  0  0  0  0  0  0  0  0  0  0  0
   -5.5116   -0.3372    1.0569 C   0  0  0  0  0  0  0  0  0  0  0  0
   -3.5229    1.3927   -0.1276 C   0  0  0  0  0  0  0  0  0  0  0  0
   -5.5185    1.1517    1.3781 C   0  0  0  0  0  0  0  0  0  0  0  0
   -4.1166    1.7243    1.2395 C   0  0  0  0  0  0  0  0  0  0  0  0
   -2.8519   -0.3160   -1.6659 C   0  0  0  0  0  0  0  0  0  0  0  0
   -4.8955   -2.1457   -0.5428 C   0  0  0  0  0  0  0  0  0  0  0  0
   -1.4299    0.2358   -1.6540 C   0  0  0  0  0  0  0  0  0  0  0  0
   -0.5835   -0.4243   -0.5740 C   0  0  0  0  0  0  0  0  0  0  0  0
    1.6143   -0.3727    0.2879 C   0  0  0  0  0  0  0  0  0  0  0  0
    2.9419    0.2739    0.1340 C   0  0  0  0  0  0  0  0  0  0  0  0
    4.0881   -0.4233    0.4594 C   0  0  0  0  0  0  0  0  0  0  0  0
    2.9824    1.5721   -0.3362 C   0  0  0  0  0  0  0  0  0  0  0  0
    5.3256    0.2026    0.3087 C   0  0  0  0  0  0  0  0  0  0  0  0
    4.2200    2.1979   -0.4867 C   0  0  0  0  0  0  0  0  0  0  0  0
    5.3915    1.5132   -0.1643 C   0  0  0  0  0  0  0  0  0  0  0  0
    4.0975   -2.7472   -0.0458 C   0  0  0  0  0  0  0  0  0  0  0  0
  1 13  1  0
  1 14  1  0
  2 14  2  0
  3 16  1  0
  3 21  1  0
  4  5  1  0
  4  7  1  0
  4 10  1  0
  5  6  1  0
  5 11  1  0
  6  8  1  0
  7  9  1  0
  8  9  1  0
 10 12  1  0
 12 13  1  0
 14 15  1  0
 15 16  2  0
 15 17  1  0
 16 18  1  0
 17 19  2  0
 18 20  2  0
 19 20  1  0
M  END
>  <PUBCHEM_COMPOUND_CID>  (1) 
48111

>  <PUBCHEM_CONFORMER_RMSD>  (1) 
1

>  <PUBCHEM_CONFORMER_DIVERSEORDER>  (1) 
12
217
176
212
128
66
287
184
193
55
283
200
201
222
121
60
271
274
160
220
189
256
89
211
24
149
21
270
280
172
15
178
137
268
288
40
199
225
237
138
22
77
53
241
28
110
209
175
197
168
204
147
144
158
42
303
180
258
227
284
282
242
177
253
308
8
13
151
145
59
31
167
221
1
214
130
78
57
70
290
245
91
23
157
261
148
6
163
310
294
152
133
85
127
136
246
226
125
215
252
154
165
159
179
83
131
188
307
228
202
88
273
244
286
281
206
76
299
35
255
135
19
301
102
187
243
80
114
118
257
208
7
134
293
266
230
37
234
69
262
275
232
191
87
14
132
141
213
117
115
272
17
143
2
146
104
119
170
233
219
153
298
236
10
235
3
84
72
92
260
161
239
45
111
95
112
192
251
34
309
5
109
185
49
50
276
73
38
240
116
231
46
300
150
99
106
90
32
129
247
279
190
265
304
196
155
30
171
47
82
207
296
306
210
36
81
238
20
194
25
18
107
58
285
229
291
68
54
277
93
56
278
75
16
267
105
218
41
186
249
26
11
4
126
169
140
259
166
71
9
254
94
33
124
182
113
63
65
27
67
52
205
108
164
103
156
97
120
292
29
248
48
305
297
39
61
216
269
64
203
174
122
86
183
302
181
250
43
264
198
74
44
62
162
79
173
98
289
142
139
123
223
51
101
100
224
96
263
295
195

>  <PUBCHEM_MMFF94_PARTIAL_CHARGES>  (1) 
20
1 -0.43
10 0.27
13 0.28
14 0.63
15 0.09
16 0.08
17 -0.15
18 -0.15
19 -0.15
2 -0.57
20 -0.15
21 0.28
3 -0.36
4 -0.81
40 0.15
41 0.15
42 0.15
43 0.15
5 0.27
7 0.27

>  <PUBCHEM_EFFECTIVE_ROTOR_COUNT>  (1) 
8.2

>  <PUBCHEM_PHARMACOPHORE_FEATURES>  (1) 
5
1 2 acceptor
1 3 acceptor
1 4 cation
6 15 16 17 18 19 20 rings
6 4 5 6 7 8 9 rings

>  <PUBCHEM_HEAVY_ATOM_COUNT>  (1) 
21

>  <PUBCHEM_ATOM_DEF_STEREO_COUNT>  (1) 
0

>  <PUBCHEM_ATOM_UDEF_STEREO_COUNT>  (1) 
1

>  <PUBCHEM_BOND_DEF_STEREO_COUNT>  (1) 
0

>  <PUBCHEM_BOND_UDEF_STEREO_COUNT>  (1) 
0

>  <PUBCHEM_ISOTOPIC_ATOM_COUNT>  (1) 
0

>  <PUBCHEM_COMPONENT_COUNT>  (1) 
1

>  <PUBCHEM_CACTVS_TAUTO_COUNT>  (1) 
1

>  <PUBCHEM_CONFORMER_ID>  (1) 
0000BBEF0000000C

>  <PUBCHEM_MMFF94_ENERGY>  (1) 
51.0209

>  <PUBCHEM_FEATURE_SELFOVERLAP>  (1) 
25.378

>  <PUBCHEM_SHAPE_FINGERPRINT>  (1) 
10354089 29 18410577297062165076
105312 117 15841552964263189821
10595046 47 18341331183962191051
10912923 1 18341325656334162255
11370993 144 18260553277579352027
11552529 35 18196929096662102031
11796584 16 16056882442802116796
12107183 9 17908707232797298563
12236239 1 18202002140185413760
12596602 18 18408326588423004403
12616971 3 18342171150589662748
12730499 353 18040718082837852490
13167823 11 18411978053068890327
13782708 43 16878214248427364770
13785724 45 17696764259548508814
13955234 65 18335692841950386378
1420 363 16587742044742603521
14251752 14 16773525403939423620
14251764 75 18119819264217557492
14341114 176 18409453561602275977
14341114 328 18413394237294072441
14848160 23 14634865374958755401
14849402 71 18267017444427659760
15183329 4 10447936048754786425
15250474 111 18271511078886806999
15880784 105 18187365432969932179
1601671 61 17203611484345758672
17349148 13 13190343439442068085
17834072 33 18409164437014563062
17844677 252 18261391092159345588
18222031 100 14634869743072280150
19377110 9 18339068384826938370
20645477 70 18334852801986898634
21065198 48 18413951689689205359
21623969 137 17749107798893467360
312425 54 17749681705614643897
314173 85 16370445540739960077
3633792 109 18261379033009634103
5104073 3 18342170059673407322
5283173 99 10087654675587843207
542803 24 18060138760244054988
559249 180 10737551844212763161
8272917 22 18341896273463798086
960060 61 10879992480200092096

>  <PUBCHEM_SHAPE_MULTIPOLES>  (1) 
409.58
15.68
2.23
1.27
3.82
0.61
-0.14
-1.25
3.43
-1.37
0.18
1.29
-0.05
-1.97

>  <PUBCHEM_SHAPE_SELFOVERLAP>  (1) 
839.102

>  <PUBCHEM_SHAPE_VOLUME>  (1) 
236.3

>  <PUBCHEM_COORDINATE_TYPE>  (1) 
2
5
10

$$$$
