48116
     RDKit          3D

 28 30  0  0  0  0  0  0  0  0999 V2000
   -0.0255    1.0440   -1.2428 O   0  0  0  0  0  0  0  0  0  0  0  0
   -0.6154    0.4458   -3.3947 O   0  0  0  0  0  0  0  0  0  0  0  0
    2.2739    1.7925    0.2326 N   0  0  0  0  0  0  0  0  0  0  0  0
   -1.6006   -0.6741   -1.4970 C   0  0  0  0  0  0  0  0  0  0  0  0
   -2.6478    0.0432   -0.6715 C   0  0  0  0  0  0  0  0  0  0  0  0
   -0.7736   -1.6681   -0.7091 C   0  0  0  0  0  0  0  0  0  0  0  0
   -2.6413   -1.8682    0.9911 C   0  0  0  0  0  0  0  0  0  0  0  0
   -3.1420   -0.5276    0.5144 C   0  0  0  0  0  0  0  0  0  0  0  0
   -1.2718   -2.2356    0.4767 C   0  0  0  0  0  0  0  0  0  0  0  0
    3.5631    1.4636   -0.3804 C   0  0  0  0  0  0  0  0  0  0  0  0
    2.4774    2.3253    1.5819 C   0  0  0  0  0  0  0  0  0  0  0  0
    1.5396    2.7419   -0.5904 C   0  0  0  0  0  0  0  0  0  0  0  0
    4.0654    0.1146    0.1313 C   0  0  0  0  0  0  0  0  0  0  0  0
    1.1918    2.2069    2.3987 C   0  0  0  0  0  0  0  0  0  0  0  0
   -0.7035    0.3230   -2.1805 C   0  0  0  0  0  0  0  0  0  0  0  0
    0.8698    2.0346   -1.7577 C   0  0  0  0  0  0  0  0  0  0  0  0
   -3.1579    1.2765   -1.1069 C   0  0  0  0  0  0  0  0  0  0  0  0
    0.4909   -2.0555   -1.1797 C   0  0  0  0  0  0  0  0  0  0  0  0
   -4.1451    0.1357    1.2357 C   0  0  0  0  0  0  0  0  0  0  0  0
   -0.5051   -3.1889    1.1626 C   0  0  0  0  0  0  0  0  0  0  0  0
    5.4010   -0.2584   -0.5128 C   0  0  0  0  0  0  0  0  0  0  0  0
    0.7372    0.7508    2.5059 C   0  0  0  0  0  0  0  0  0  0  0  0
   -4.1456    1.9337   -0.3740 C   0  0  0  0  0  0  0  0  0  0  0  0
    1.2503   -2.9940   -0.4816 C   0  0  0  0  0  0  0  0  0  0  0  0
   -4.6400    1.3629    0.7955 C   0  0  0  0  0  0  0  0  0  0  0  0
    0.7519   -3.5615    0.6878 C   0  0  0  0  0  0  0  0  0  0  0  0
    5.9252   -1.5833    0.0178 C   0  0  0  0  0  0  0  0  0  0  0  0
   -0.5225    0.6206    3.3471 C   0  0  0  0  0  0  0  0  0  0  0  0
  1 15  1  0
  1 16  1  0
  2 15  2  0
  3 10  1  0
  3 11  1  0
  3 12  1  0
  4  5  1  0
  4  6  1  0
  4 15  1  0
  5  8  2  0
  5 17  1  0
  6  9  2  0
  6 18  1  0
  7  8  1  0
  7  9  1  0
  8 19  1  0
  9 20  1  0
 10 13  1  0
 11 14  1  0
 12 16  1  0
 13 21  1  0
 14 22  1  0
 17 23  2  0
 18 24  2  0
 19 25  2  0
 20 26  2  0
 21 27  1  0
 22 28  1  0
 23 25  1  0
 24 26  1  0
M  END
>  <PUBCHEM_COMPOUND_CID>  (1) 
48116

>  <PUBCHEM_CONFORMER_RMSD>  (1) 
1

>  <PUBCHEM_CONFORMER_DIVERSEORDER>  (1) 
1
19
47
123
68
113
21
78
48
92
73
129
58
111
39
112
40
59
60
115
96
61
93
54
41
66
118
65
95
67
14
63
82
57
97
87
18
91
16
125
22
7
15
88
124
25
126
119
116
51
27
122
117
84
106
105
36
77
75
32
76
102
94
11
13
81
114
103
5
6
45
69
72
37
70
53
3
20
104
85
74
128
89
9
23
56
80
8
79
101
4
10
38
120
108
83
62
64
90
2
49
127
99
34
121
17
100
50
12
35
110
52
29
24
28
30
86
33
46
44
55
26
107
109
98
71
31
42
43

>  <PUBCHEM_MMFF94_PARTIAL_CHARGES>  (1) 
30
1 -0.43
10 0.27
11 0.27
12 0.27
15 0.66
16 0.28
17 -0.15
18 -0.15
19 -0.15
2 -0.57
20 -0.15
23 -0.15
24 -0.15
25 -0.15
26 -0.15
3 -0.81
4 0.35
44 0.15
45 0.15
46 0.15
47 0.15
5 -0.14
52 0.15
53 0.15
54 0.15
55 0.15
6 -0.14
7 0.29
8 -0.14
9 -0.14

>  <PUBCHEM_EFFECTIVE_ROTOR_COUNT>  (1) 
11.4

>  <PUBCHEM_PHARMACOPHORE_FEATURES>  (1) 
7
1 2 acceptor
1 27 hydrophobe
1 28 hydrophobe
1 3 cation
6 4 5 6 7 8 9 rings
6 5 8 17 19 23 25 rings
6 6 9 18 20 24 26 rings

>  <PUBCHEM_HEAVY_ATOM_COUNT>  (1) 
28

>  <PUBCHEM_ATOM_DEF_STEREO_COUNT>  (1) 
0

>  <PUBCHEM_ATOM_UDEF_STEREO_COUNT>  (1) 
0

>  <PUBCHEM_BOND_DEF_STEREO_COUNT>  (1) 
0

>  <PUBCHEM_BOND_UDEF_STEREO_COUNT>  (1) 
0

>  <PUBCHEM_ISOTOPIC_ATOM_COUNT>  (1) 
0

>  <PUBCHEM_COMPONENT_COUNT>  (1) 
1

>  <PUBCHEM_CACTVS_TAUTO_COUNT>  (1) 
1

>  <PUBCHEM_CONFORMER_ID>  (1) 
0000BBF400000001

>  <PUBCHEM_MMFF94_ENERGY>  (1) 
54.7169

>  <PUBCHEM_FEATURE_SELFOVERLAP>  (1) 
35.562

>  <PUBCHEM_SHAPE_FINGERPRINT>  (1) 
10165383 225 18335143063849115711
11370993 70 18410576235872686865
11578080 2 18338528435325733801
12156800 1 12401147103075026870
12539773 59 17247492078703227297
12596599 1 17316749181912134344
12633257 1 18333445448166517318
133893 2 17834069184064646087
13402501 40 18334577893798893078
15295992 7 18059578060806180009
16110190 28 18187643657115329188
17349148 13 13901637393091768372
17974551 9 18128818727829158544
21330990 113 18114750330380322340
21403212 168 18339077086673571861
23419403 2 17261833721876684665
2818148 4 17313927702184580442
3027735 51 18124596384509589730
35225 105 17697336348811611435
445580 2 18342737420874836596
469060 322 16969137038829291587
5283178 26 18335416889784562606
6287921 2 17465104138807686412
7097593 13 17827364585222831541
7226269 152 17989208127497581632
9981440 41 16407273905697533304

>  <PUBCHEM_SHAPE_MULTIPOLES>  (1) 
559.51
8.21
3.78
2.64
6.2
2.1
-0.54
-1.58
-0.34
1.28
-0.81
-0.5
-1.23
0.7

>  <PUBCHEM_SHAPE_SELFOVERLAP>  (1) 
1167.768

>  <PUBCHEM_SHAPE_VOLUME>  (1) 
317.8

>  <PUBCHEM_COORDINATE_TYPE>  (1) 
2
5
10

$$$$
