48113
     RDKit          3D

 17 19  0  0  0  0  0  0  0  0999 V2000
    0.0019    1.8267   -1.8008 O   0  0  0  0  0  0  0  0  0  0  0  0
    0.0234    3.3565   -0.0823 N   0  0  0  0  0  0  0  0  0  0  0  0
    0.0001    1.0022    0.4487 C   0  0  0  0  0  0  0  0  0  0  0  0
   -1.2701    0.1834    0.3544 C   0  0  0  0  0  0  0  0  0  0  0  0
    1.2682    0.1800    0.3546 C   0  0  0  0  0  0  0  0  0  0  0  0
   -0.0036   -1.6332   -0.8759 C   0  0  0  0  0  0  0  0  0  0  0  0
   -1.2693   -1.0728   -0.2771 C   0  0  0  0  0  0  0  0  0  0  0  0
    1.2638   -1.0760   -0.2769 C   0  0  0  0  0  0  0  0  0  0  0  0
   -2.4711    0.6930    0.8726 C   0  0  0  0  0  0  0  0  0  0  0  0
    2.4707    0.6859    0.8728 C   0  0  0  0  0  0  0  0  0  0  0  0
    0.0021    2.0827   -0.5992 C   0  0  0  0  0  0  0  0  0  0  0  0
   -2.4689   -1.7900   -0.3918 C   0  0  0  0  0  0  0  0  0  0  0  0
    2.4615   -1.7966   -0.3920 C   0  0  0  0  0  0  0  0  0  0  0  0
   -3.6554   -0.0354    0.7647 C   0  0  0  0  0  0  0  0  0  0  0  0
    3.6528   -0.0459    0.7651 C   0  0  0  0  0  0  0  0  0  0  0  0
   -3.6545   -1.2752    0.1315 C   0  0  0  0  0  0  0  0  0  0  0  0
    3.6485   -1.2856    0.1317 C   0  0  0  0  0  0  0  0  0  0  0  0
  1 11  2  0
  2 11  1  0
  3  4  1  0
  3  5  1  0
  3 11  1  0
  4  7  2  0
  4  9  1  0
  5  8  2  0
  5 10  1  0
  6  7  1  0
  6  8  1  0
  7 12  1  0
  8 13  1  0
  9 14  2  0
 10 15  2  0
 12 16  2  0
 13 17  2  0
 14 16  1  0
 15 17  1  0
M  END
>  <PUBCHEM_COMPOUND_CID>  (1) 
48113

>  <PUBCHEM_CONFORMER_RMSD>  (1) 
0.6

>  <PUBCHEM_CONFORMER_DIVERSEORDER>  (1) 
1
2

>  <PUBCHEM_MMFF94_PARTIAL_CHARGES>  (1) 
27
1 -0.57
10 -0.15
11 0.57
12 -0.15
13 -0.15
14 -0.15
15 -0.15
16 -0.15
17 -0.15
2 -0.8
21 0.15
22 0.15
23 0.15
24 0.15
25 0.15
26 0.15
27 0.15
28 0.15
29 0.37
3 0.35
30 0.37
4 -0.14
5 -0.14
6 0.29
7 -0.14
8 -0.14
9 -0.15

>  <PUBCHEM_EFFECTIVE_ROTOR_COUNT>  (1) 
1.4

>  <PUBCHEM_PHARMACOPHORE_FEATURES>  (1) 
5
1 1 acceptor
1 2 donor
6 3 4 5 6 7 8 rings
6 4 7 9 12 14 16 rings
6 5 8 10 13 15 17 rings

>  <PUBCHEM_HEAVY_ATOM_COUNT>  (1) 
17

>  <PUBCHEM_ATOM_DEF_STEREO_COUNT>  (1) 
0

>  <PUBCHEM_ATOM_UDEF_STEREO_COUNT>  (1) 
0

>  <PUBCHEM_BOND_DEF_STEREO_COUNT>  (1) 
0

>  <PUBCHEM_BOND_UDEF_STEREO_COUNT>  (1) 
0

>  <PUBCHEM_ISOTOPIC_ATOM_COUNT>  (1) 
0

>  <PUBCHEM_COMPONENT_COUNT>  (1) 
1

>  <PUBCHEM_CACTVS_TAUTO_COUNT>  (1) 
2

>  <PUBCHEM_CONFORMER_ID>  (1) 
0000BBF100000001

>  <PUBCHEM_MMFF94_ENERGY>  (1) 
46.1845

>  <PUBCHEM_FEATURE_SELFOVERLAP>  (1) 
25.414

>  <PUBCHEM_SHAPE_FINGERPRINT>  (1) 
10618630 7 18335984190334191090
10922049 32 10087637126219018437
10967382 1 18269272546157636922
11132069 177 18272363153311266330
12251169 10 18202001018924740570
12382932 28 18273216374128568803
12644460 14 18046091473055441569
12696612 119 18340493373387410855
12716301 132 17977080389319733464
13132413 78 18271528701126455325
13140716 1 18342739572331802778
13172582 1 18410576201491849419
14181834 199 18118404174949462341
14790565 3 18050007998020330496
15375462 478 18060418053683483799
15501101 241 18343301483124320624
15536298 74 17989489632233179474
16945 1 18272369793066695363
17357779 13 18263903523905919117
17804303 29 18131078120802222834
17844478 74 18338234860645168106
1813 80 18040159508801893764
19868273 325 18334854995939311236
200 152 17632282498373079847
20361792 2 17967249810311054023
20511035 2 17913208946881550871
20559304 39 18195818581290391219
21029758 27 18335710471815150926
21267235 1 18271816738734365315
22344851 262 18271806869094243307
23184049 59 18343587334694077643
2334 1 18342457070857882022
23388829 49 17984974053783576543
23402539 116 18336818732444556066
23419403 2 16260880439107439975
23463225 33 18413108376754871290
23557571 272 18336268938365917526
23559900 14 18196650688592512958
238 59 16242072846175487581
2748010 2 18342738481494382015
4175511 71 18335428992743991509
5104073 3 18202001027451775170
6992083 37 18342464742059603147
7364860 26 18123191470062327601
81228 2 18043542602790589072
90316 7 18263352621082698032

>  <PUBCHEM_SHAPE_MULTIPOLES>  (1) 
339
5.72
2.54
1.03
0.02
1.58
0.22
-2.66
-1.79
-0.02
0.78
0
0.32
0

>  <PUBCHEM_SHAPE_SELFOVERLAP>  (1) 
751.951

>  <PUBCHEM_SHAPE_VOLUME>  (1) 
179.7

>  <PUBCHEM_COORDINATE_TYPE>  (1) 
2
5
10

$$$$
