48129
     RDKit          3D

 19 20  0  0  0  0  0  0  0  0999 V2000
   -2.3905    2.9799   -0.1640 O   0  0  0  0  0  0  0  0  0  0  0  0
   -2.6797   -1.0759    0.0781 N   0  0  0  0  0  0  0  0  0  0  0  0
   -2.5528    0.2538    0.6735 C   0  0  0  0  0  0  0  0  0  0  0  0
   -1.2568    0.9180    0.2917 C   0  0  0  0  0  0  0  0  0  0  0  0
   -2.6369   -0.9889   -1.3810 C   0  0  0  0  0  0  0  0  0  0  0  0
   -3.9199   -1.7156    0.5160 C   0  0  0  0  0  0  0  0  0  0  0  0
   -0.0829    0.1779    0.3469 C   0  0  0  0  0  0  0  0  0  0  0  0
    1.1263    0.7786   -0.0037 C   0  0  0  0  0  0  0  0  0  0  0  0
   -1.2428    2.2478   -0.1076 C   0  0  0  0  0  0  0  0  0  0  0  0
   -2.7676   -2.3624   -2.0170 C   0  0  0  0  0  0  0  0  0  0  0  0
   -3.9543   -1.8700    2.0270 C   0  0  0  0  0  0  0  0  0  0  0  0
    1.1509    2.1137   -0.4062 C   0  0  0  0  0  0  0  0  0  0  0  0
   -0.0337    2.8484   -0.4580 C   0  0  0  0  0  0  0  0  0  0  0  0
    2.3552    0.0167    0.0495 C   0  0  0  0  0  0  0  0  0  0  0  0
    2.7850   -0.6931   -1.0717 C   0  0  0  0  0  0  0  0  0  0  0  0
    3.1103   -0.0078    1.2220 C   0  0  0  0  0  0  0  0  0  0  0  0
    3.9699   -1.4274   -1.0205 C   0  0  0  0  0  0  0  0  0  0  0  0
    4.2953   -0.7420    1.2733 C   0  0  0  0  0  0  0  0  0  0  0  0
    4.7250   -1.4518    0.1520 C   0  0  0  0  0  0  0  0  0  0  0  0
  1  9  1  0
  2  3  1  0
  2  5  1  0
  2  6  1  0
  3  4  1  0
  4  7  2  0
  4  9  1  0
  5 10  1  0
  6 11  1  0
  7  8  1  0
  8 12  2  0
  8 14  1  0
  9 13  2  0
 12 13  1  0
 14 15  2  0
 14 16  1  0
 15 17  1  0
 16 18  2  0
 17 19  2  0
 18 19  1  0
M  END
>  <PUBCHEM_COMPOUND_CID>  (1) 
48129

>  <PUBCHEM_CONFORMER_RMSD>  (1) 
0.6

>  <PUBCHEM_CONFORMER_DIVERSEORDER>  (1) 
1
15
18
20
2
6
9
24
3
12
8
22
25
13
7
26
27
17
21
16
5
23
4
19
10
14
11

>  <PUBCHEM_MMFF94_PARTIAL_CHARGES>  (1) 
24
1 -0.53
12 -0.15
13 -0.15
15 -0.15
16 -0.15
17 -0.15
18 -0.15
19 -0.15
2 -0.81
26 0.15
3 0.41
33 0.15
34 0.15
35 0.15
36 0.15
37 0.45
38 0.15
39 0.15
4 -0.14
40 0.15
5 0.27
6 0.27
7 -0.15
9 0.08

>  <PUBCHEM_EFFECTIVE_ROTOR_COUNT>  (1) 
5

>  <PUBCHEM_PHARMACOPHORE_FEATURES>  (1) 
4
1 1 donor
1 2 cation
6 14 15 16 17 18 19 rings
6 4 7 8 9 12 13 rings

>  <PUBCHEM_HEAVY_ATOM_COUNT>  (1) 
19

>  <PUBCHEM_ATOM_DEF_STEREO_COUNT>  (1) 
0

>  <PUBCHEM_ATOM_UDEF_STEREO_COUNT>  (1) 
0

>  <PUBCHEM_BOND_DEF_STEREO_COUNT>  (1) 
0

>  <PUBCHEM_BOND_UDEF_STEREO_COUNT>  (1) 
0

>  <PUBCHEM_ISOTOPIC_ATOM_COUNT>  (1) 
0

>  <PUBCHEM_COMPONENT_COUNT>  (1) 
1

>  <PUBCHEM_CACTVS_TAUTO_COUNT>  (1) 
3

>  <PUBCHEM_CONFORMER_ID>  (1) 
0000BC0100000001

>  <PUBCHEM_MMFF94_ENERGY>  (1) 
54.231

>  <PUBCHEM_FEATURE_SELFOVERLAP>  (1) 
20.297

>  <PUBCHEM_SHAPE_FINGERPRINT>  (1) 
10042902 136 17774447212623886230
11370993 144 16558761078745831710
11543360 7 15213303066301362250
11552529 35 17704062993494216642
11578080 2 17701802483999072009
12346177 29 18338507526459526828
12363563 72 18334861644591143410
12403259 118 13542460977312280483
12403259 327 15984833665683713443
12422481 6 18055947353932713371
12553582 1 18340493369008190790
12633257 1 16917072178293953378
12707595 3 18188208809416548778
12714826 92 18342743979068254112
13083527 12 18052793000674581192
13140716 1 18409732833061031640
13583140 156 15410886349447486610
13931106 250 18270944766110246581
15042514 8 18191313684493681441
15099037 37 18341039736525112784
15342168 16 9294748522732844823
15842332 3 17628083613711207383
15885798 251 18336836376502205843
1813 80 18339931505602101055
18927931 339 18339920412255846702
19141452 34 18131631171272589359
193927 3 18335712658022349474
20291156 8 18409452521993427995
20361792 2 18335982051187153237
20645477 70 18119240908004720943
20671657 53 18041275555837656768
20693207 138 17241328130597801307
21452121 199 18195791084546155089
21713013 43 16950562241946239611
23402539 116 18114463349893893142
23557571 272 18341326678937441936
23559900 14 18124596371888522934
23598288 3 18336557031639707829
25 1 10737555082364578460
312423 11 18188224155714518420
5104073 3 18340762634146883248
7064713 232 17203342129861923887
7970288 3 18335143119584588146
81228 2 18337104558212750505

>  <PUBCHEM_SHAPE_MULTIPOLES>  (1) 
380.16
8.56
3.02
1.51
3.93
1.94
-0.01
-7.33
1.83
-2.15
-0.7
-0.91
-1.15
0.19

>  <PUBCHEM_SHAPE_SELFOVERLAP>  (1) 
801.608

>  <PUBCHEM_SHAPE_VOLUME>  (1) 
216

>  <PUBCHEM_COORDINATE_TYPE>  (1) 
2
5
10

$$$$
