48127
     RDKit          3D

 19 21  0  0  0  0  0  0  0  0999 V2000
   -2.2462   -2.9282    0.2869 O   0  0  0  0  0  0  0  0  0  0  0  0
   -3.0943    0.3916   -0.1838 N   0  0  0  0  0  0  0  0  0  0  0  0
   -4.3077    0.9235   -0.8034 C   0  0  0  0  0  0  0  0  0  0  0  0
   -2.3547    1.5678    0.2735 C   0  0  0  0  0  0  0  0  0  0  0  0
   -4.7294    2.0215    0.1618 C   0  0  0  0  0  0  0  0  0  0  0  0
   -3.4452    2.4473    0.8669 C   0  0  0  0  0  0  0  0  0  0  0  0
   -2.3181   -0.4316   -1.0993 C   0  0  0  0  0  0  0  0  0  0  0  0
   -1.0725   -0.9721   -0.4488 C   0  0  0  0  0  0  0  0  0  0  0  0
    0.0983   -0.2286   -0.5217 C   0  0  0  0  0  0  0  0  0  0  0  0
   -1.1012   -2.1935    0.2112 C   0  0  0  0  0  0  0  0  0  0  0  0
    1.2612   -0.7152    0.0758 C   0  0  0  0  0  0  0  0  0  0  0  0
    0.0613   -2.6801    0.8092 C   0  0  0  0  0  0  0  0  0  0  0  0
    1.2425   -1.9410    0.7415 C   0  0  0  0  0  0  0  0  0  0  0  0
    2.4864    0.0510    0.0057 C   0  0  0  0  0  0  0  0  0  0  0  0
    2.7836    0.9832    0.9999 C   0  0  0  0  0  0  0  0  0  0  0  0
    3.3702   -0.1424   -1.0559 C   0  0  0  0  0  0  0  0  0  0  0  0
    3.9651    1.7219    0.9326 C   0  0  0  0  0  0  0  0  0  0  0  0
    4.5515    0.5965   -1.1233 C   0  0  0  0  0  0  0  0  0  0  0  0
    4.8492    1.5285   -0.1290 C   0  0  0  0  0  0  0  0  0  0  0  0
  1 10  1  0
  2  3  1  0
  2  4  1  0
  2  7  1  0
  3  5  1  0
  4  6  1  0
  5  6  1  0
  7  8  1  0
  8  9  2  0
  8 10  1  0
  9 11  1  0
 10 12  2  0
 11 13  2  0
 11 14  1  0
 12 13  1  0
 14 15  2  0
 14 16  1  0
 15 17  1  0
 16 18  2  0
 17 19  2  0
 18 19  1  0
M  END
>  <PUBCHEM_COMPOUND_CID>  (1) 
48127

>  <PUBCHEM_CONFORMER_RMSD>  (1) 
0.6

>  <PUBCHEM_CONFORMER_DIVERSEORDER>  (1) 
2
4
1
3
8
6
5
7

>  <PUBCHEM_MMFF94_PARTIAL_CHARGES>  (1) 
24
1 -0.53
10 0.08
12 -0.15
13 -0.15
15 -0.15
16 -0.15
17 -0.15
18 -0.15
19 -0.15
2 -0.81
3 0.27
30 0.15
31 0.15
32 0.15
33 0.45
34 0.15
35 0.15
36 0.15
37 0.15
38 0.15
4 0.27
7 0.41
8 -0.14
9 -0.15

>  <PUBCHEM_EFFECTIVE_ROTOR_COUNT>  (1) 
4

>  <PUBCHEM_PHARMACOPHORE_FEATURES>  (1) 
5
1 1 donor
1 2 cation
5 2 3 4 5 6 rings
6 14 15 16 17 18 19 rings
6 8 9 10 11 12 13 rings

>  <PUBCHEM_HEAVY_ATOM_COUNT>  (1) 
19

>  <PUBCHEM_ATOM_DEF_STEREO_COUNT>  (1) 
0

>  <PUBCHEM_ATOM_UDEF_STEREO_COUNT>  (1) 
0

>  <PUBCHEM_BOND_DEF_STEREO_COUNT>  (1) 
0

>  <PUBCHEM_BOND_UDEF_STEREO_COUNT>  (1) 
0

>  <PUBCHEM_ISOTOPIC_ATOM_COUNT>  (1) 
0

>  <PUBCHEM_COMPONENT_COUNT>  (1) 
1

>  <PUBCHEM_CACTVS_TAUTO_COUNT>  (1) 
3

>  <PUBCHEM_CONFORMER_ID>  (1) 
0000BBFF00000002

>  <PUBCHEM_MMFF94_ENERGY>  (1) 
53.1824

>  <PUBCHEM_FEATURE_SELFOVERLAP>  (1) 
25.373

>  <PUBCHEM_SHAPE_FINGERPRINT>  (1) 
10382601 240 17822853061559627858
10493431 412 18334860519515453157
10498660 4 18412537691697627869
10646746 165 18340204193629579344
10681291 71 18410581656169010617
11405975 8 18409448098921061090
12173636 292 18411135874248418446
12390115 104 18336280010248280886
12644460 14 17604989217857037426
12788726 201 17683256015707252970
13140716 1 18187639163752025338
13257819 101 15552153803019261626
13464514 151 18271250430543331806
13764800 53 18334859458473862859
13828863 39 14708930737775010590
13878862 14 17612294274592075325
13965767 371 17895739717551281508
14123255 52 18410011000986244385
14251764 38 18126275587642049456
14251764 75 18055925294638913497
14739800 52 18200007626303690584
14787075 74 18342450474684459447
14848178 96 18410853226824841420
15342168 16 18260548879601601341
15534591 1 18413666911677188743
15806764 133 17914637152894475476
1741750 31 18410007749632756306
1798214 55 18408321064372725533
18186145 218 18335697226610653678
200 152 13183026211297858036
204376 136 18260267425951793351
20510252 161 18193556898461948778
20645477 70 16917083161252823244
20671657 1 18265045834503530202
20671657 53 11599996639883142939
21524375 3 18339357457474526159
21756936 100 18341891900406011405
22079108 93 18410577288619663705
221357 26 17632856425741020953
22182937 141 18340210777371488641
23557571 272 18268998767926078622
23559900 14 18413673522348911790
23845131 108 18261115124185445867
25 1 18413107230209534862
25147074 1 18189033387456312978
2637199 183 18270968933680185012
283562 15 18117555360616196395
350125 39 18045780083626336796
4028521 119 18201719552501138417
458136 41 18188777123757865775
469060 322 18042984240521448147
474 4 18261114058331962077
5048184 11 18409729530378523001
5104073 3 18260264135722294570
5486654 2 18410853292193336719
59755656 520 18335419058410874094
633830 44 18342172215804934093
6442390 28 18335711545794761251
7808743 9 18334016137767440580
84936 182 18270114587359762464
9981440 41 18340194280333890658

>  <PUBCHEM_SHAPE_MULTIPOLES>  (1) 
380.16
9.55
2.97
1.08
1.2
1.33
0.07
-8.6
1.15
-1.91
-1.07
0.4
-0.08
-0.16

>  <PUBCHEM_SHAPE_SELFOVERLAP>  (1) 
822.943

>  <PUBCHEM_SHAPE_VOLUME>  (1) 
210.9

>  <PUBCHEM_COORDINATE_TYPE>  (1) 
2
5
10

$$$$
