48124
     RDKit          3D

 25 28  0  0  0  0  0  0  0  0999 V2000
    0.8821   -0.1982    0.4393 O   0  0  0  0  0  0  0  0  0  0  0  0
    7.2244    0.4622   -0.1898 O   0  0  0  0  0  0  0  0  0  0  0  0
   -0.1760   -0.0607   -1.6098 O   0  0  0  0  0  0  0  0  0  0  0  0
    4.5601   -0.4535    0.2159 N   0  0  0  0  0  0  0  0  0  0  0  0
   -1.4575   -0.0428    0.4356 C   0  0  0  0  0  0  0  0  0  0  0  0
   -2.3267   -1.2482    0.1460 C   0  0  0  0  0  0  0  0  0  0  0  0
   -2.1588    1.2831    0.2284 C   0  0  0  0  0  0  0  0  0  0  0  0
   -4.3977    0.1476    0.5704 C   0  0  0  0  0  0  0  0  0  0  0  0
   -3.7281   -1.1550    0.2103 C   0  0  0  0  0  0  0  0  0  0  0  0
   -3.5604    1.3712    0.2928 C   0  0  0  0  0  0  0  0  0  0  0  0
    3.2416   -0.3684    0.8407 C   0  0  0  0  0  0  0  0  0  0  0  0
    4.8460    0.7572   -0.5661 C   0  0  0  0  0  0  0  0  0  0  0  0
    5.6052   -0.6570    1.2288 C   0  0  0  0  0  0  0  0  0  0  0  0
   -0.1980   -0.0992   -0.3870 C   0  0  0  0  0  0  0  0  0  0  0  0
    2.1532   -0.2614   -0.2153 C   0  0  0  0  0  0  0  0  0  0  0  0
    6.2308    0.6502   -1.1982 C   0  0  0  0  0  0  0  0  0  0  0  0
    6.9726   -0.7300    0.5549 C   0  0  0  0  0  0  0  0  0  0  0  0
   -1.7319   -2.4827   -0.1590 C   0  0  0  0  0  0  0  0  0  0  0  0
   -1.4055    2.4457    0.0016 C   0  0  0  0  0  0  0  0  0  0  0  0
   -4.5084   -2.2977   -0.0170 C   0  0  0  0  0  0  0  0  0  0  0  0
   -4.1827    2.6192    0.1439 C   0  0  0  0  0  0  0  0  0  0  0  0
   -2.5186   -3.6094   -0.3967 C   0  0  0  0  0  0  0  0  0  0  0  0
   -2.0361    3.6791   -0.1591 C   0  0  0  0  0  0  0  0  0  0  0  0
   -3.9058   -3.5173   -0.3241 C   0  0  0  0  0  0  0  0  0  0  0  0
   -3.4236    3.7659   -0.0865 C   0  0  0  0  0  0  0  0  0  0  0  0
  1 14  1  0
  1 15  1  0
  2 16  1  0
  2 17  1  0
  3 14  2  0
  4 11  1  0
  4 12  1  0
  4 13  1  0
  5  6  1  0
  5  7  1  0
  5 14  1  0
  6  9  2  0
  6 18  1  0
  7 10  2  0
  7 19  1  0
  8  9  1  0
  8 10  1  0
  9 20  1  0
 10 21  1  0
 11 15  1  0
 12 16  1  0
 13 17  1  0
 18 22  2  0
 19 23  2  0
 20 24  2  0
 21 25  2  0
 22 24  1  0
 23 25  1  0
M  END
>  <PUBCHEM_COMPOUND_CID>  (1) 
48124

>  <PUBCHEM_CONFORMER_RMSD>  (1) 
0.8

>  <PUBCHEM_CONFORMER_DIVERSEORDER>  (1) 
1
20
43
30
55
8
19
21
53
49
45
27
52
14
44
9
10
15
54
33
35
34
22
36
46
13
18
6
48
25
51
42
29
41
24
47
3
26
28
2
12
50
16
32
23
38
7
4
40
37
17
39
31
11
5

>  <PUBCHEM_MMFF94_PARTIAL_CHARGES>  (1) 
33
1 -0.43
10 -0.14
11 0.27
12 0.27
13 0.27
14 0.66
15 0.28
16 0.28
17 0.28
18 -0.15
19 -0.15
2 -0.56
20 -0.15
21 -0.15
22 -0.15
23 -0.15
24 -0.15
25 -0.15
3 -0.57
4 -0.81
41 0.15
42 0.15
43 0.15
44 0.15
45 0.15
46 0.15
47 0.15
48 0.15
5 0.35
6 -0.14
7 -0.14
8 0.29
9 -0.14

>  <PUBCHEM_EFFECTIVE_ROTOR_COUNT>  (1) 
6.6

>  <PUBCHEM_PHARMACOPHORE_FEATURES>  (1) 
7
1 2 acceptor
1 3 acceptor
1 4 cation
6 2 4 12 13 16 17 rings
6 5 6 7 8 9 10 rings
6 6 9 18 20 22 24 rings
6 7 10 19 21 23 25 rings

>  <PUBCHEM_HEAVY_ATOM_COUNT>  (1) 
25

>  <PUBCHEM_ATOM_DEF_STEREO_COUNT>  (1) 
0

>  <PUBCHEM_ATOM_UDEF_STEREO_COUNT>  (1) 
0

>  <PUBCHEM_BOND_DEF_STEREO_COUNT>  (1) 
0

>  <PUBCHEM_BOND_UDEF_STEREO_COUNT>  (1) 
0

>  <PUBCHEM_ISOTOPIC_ATOM_COUNT>  (1) 
0

>  <PUBCHEM_COMPONENT_COUNT>  (1) 
1

>  <PUBCHEM_CACTVS_TAUTO_COUNT>  (1) 
1

>  <PUBCHEM_CONFORMER_ID>  (1) 
0000BBFC00000001

>  <PUBCHEM_MMFF94_ENERGY>  (1) 
62.8722

>  <PUBCHEM_FEATURE_SELFOVERLAP>  (1) 
35.564

>  <PUBCHEM_SHAPE_FINGERPRINT>  (1) 
10165383 225 18129668491999960169
10319926 262 18270101462746905770
10411042 1 18122906692957743515
10595046 47 18334013926301809970
10912923 1 17967527970364179890
11056379 131 18411706486602583838
11101153 10 18264210395130362692
11273773 42 17677915581327427084
11315181 36 18187081776112846670
11524674 6 16917352558112266671
12082328 90 18412827998155117702
12107183 9 17902221214359487658
12236239 1 17894349986029155898
12390115 104 18128265497286865473
12788726 201 18334851744749860691
13140716 1 18267877249845571137
13583140 156 17917983971710396354
13782708 43 17632013156463066438
13911987 19 18191289487276190421
14508225 48 18197765803978471831
14844126 61 18408605881409051419
14856354 85 18338804532117634110
14910302 57 18199764578183183702
15042514 8 18410295843850415475
15230672 131 18122064205179545214
15250474 111 18261379032577598066
15876981 60 18335143136853251397
16087824 20 18410572865668505693
16992779 147 16613650614449679369
16992828 155 17604706638631277028
17844677 252 18411984698026700256
17980427 26 17477191735899290677
18927931 339 18411705413024510983
19377110 9 17895181213384481544
20101258 96 18265060317581034987
20511986 3 17749100059141288996
21033650 10 18192177961342430028
21236236 1 18411417306274994538
2132832 1 18187930654523502524
21426921 1 18411418422971759763
21792961 116 17561089078052126054
2297311 6 18342464784803684046
23081809 10 17894633656767934770
23522609 53 17822876190739622444
23557571 272 18202010923330282772
23559900 14 18196925785078182457
25147074 1 17967825972090443188
255183 313 18271262534298963435
255183 451 17766558332806961687
335352 9 18411134780197432647
3504750 166 18189881064346354170
3610482 184 17968397692562060078
4409770 3 18408878517617126309
497634 4 18186516627083507366
531348 171 18338239263145409106
5364581 5 18127112281883964568
57634706 229 17772208430476721753
5969126 39 18200583804803784495
6327066 14 18117835491727027389
6700243 42 17842031971721492500
7808743 9 18337670815427893104
9981440 41 18121221970360403209

>  <PUBCHEM_SHAPE_MULTIPOLES>  (1) 
491.9
15.21
4.21
0.92
37.5
0.73
-0.09
-1.02
0.77
-9.32
-0.51
0.85
-0.05
-1.05

>  <PUBCHEM_SHAPE_SELFOVERLAP>  (1) 
1063.934

>  <PUBCHEM_SHAPE_VOLUME>  (1) 
267.8

>  <PUBCHEM_COORDINATE_TYPE>  (1) 
2
5
10

$$$$
