48131
     RDKit          3D

  9  8  0  0  0  0  0  0  0  0999 V2000
   -1.2054    0.5921    0.1169 O   0  0  0  0  0  0  0  0  0  0  0  0
   -2.5372   -1.2202   -0.3745 O   0  0  0  0  0  0  0  0  0  0  0  0
    2.3938   -0.0897   -0.2918 N   0  0  0  0  0  0  0  0  0  0  0  0
   -3.4451    0.7754    0.3185 N   0  0  0  0  0  0  0  0  0  0  0  0
    1.1914    0.6918   -0.0049 C   0  0  0  0  0  0  0  0  0  0  0  0
   -0.0459   -0.1680   -0.1992 C   0  0  0  0  0  0  0  0  0  0  0  0
    2.4620   -1.2615    0.5805 C   0  0  0  0  0  0  0  0  0  0  0  0
    3.5902    0.7361   -0.1328 C   0  0  0  0  0  0  0  0  0  0  0  0
   -2.4038   -0.0560   -0.0127 C   0  0  0  0  0  0  0  0  0  0  0  0
  1  6  1  0
  1  9  1  0
  2  9  2  0
  3  5  1  0
  3  7  1  0
  3  8  1  0
  4  9  1  0
  5  6  1  0
M  END
>  <PUBCHEM_COMPOUND_CID>  (1) 
48131

>  <PUBCHEM_CONFORMER_RMSD>  (1) 
0.6

>  <PUBCHEM_CONFORMER_DIVERSEORDER>  (1) 
4
29
23
11
3
13
17
26
25
12
15
21
19
10
22
5
27
14
1
18
28
9
6
20
16
8
7
24
2

>  <PUBCHEM_MMFF94_PARTIAL_CHARGES>  (1) 
11
1 -0.43
2 -0.57
20 0.37
21 0.37
3 -0.81
4 -0.8
5 0.27
6 0.28
7 0.27
8 0.27
9 0.78

>  <PUBCHEM_EFFECTIVE_ROTOR_COUNT>  (1) 
4

>  <PUBCHEM_PHARMACOPHORE_FEATURES>  (1) 
3
1 2 acceptor
1 3 cation
1 4 donor

>  <PUBCHEM_HEAVY_ATOM_COUNT>  (1) 
9

>  <PUBCHEM_ATOM_DEF_STEREO_COUNT>  (1) 
0

>  <PUBCHEM_ATOM_UDEF_STEREO_COUNT>  (1) 
0

>  <PUBCHEM_BOND_DEF_STEREO_COUNT>  (1) 
0

>  <PUBCHEM_BOND_UDEF_STEREO_COUNT>  (1) 
0

>  <PUBCHEM_ISOTOPIC_ATOM_COUNT>  (1) 
0

>  <PUBCHEM_COMPONENT_COUNT>  (1) 
1

>  <PUBCHEM_CACTVS_TAUTO_COUNT>  (1) 
2

>  <PUBCHEM_CONFORMER_ID>  (1) 
0000BC0300000004

>  <PUBCHEM_MMFF94_ENERGY>  (1) 
15.1778

>  <PUBCHEM_FEATURE_SELFOVERLAP>  (1) 
15.223

>  <PUBCHEM_SHAPE_FINGERPRINT>  (1) 
10857977 72 17132108069774191563
11062470 55 18410576184180176332
12932764 1 18334010579620323356
14325111 11 18410856568240293174
20645477 70 18188482471921886719
23552423 10 18264205988182089333
3248919 1 17704353238577686021
5460574 1 9295291638083713884

>  <PUBCHEM_SHAPE_MULTIPOLES>  (1) 
163.52
6.23
1.13
0.65
0.7
0.28
0.02
-0.49
0.2
-0.25
0.07
-0.06
0.05
-0.45

>  <PUBCHEM_SHAPE_SELFOVERLAP>  (1) 
299.516

>  <PUBCHEM_SHAPE_VOLUME>  (1) 
105.2

>  <PUBCHEM_COORDINATE_TYPE>  (1) 
2
5
10

$$$$
