48138
     RDKit          3D

 22 23  0  0  0  0  0  0  0  0999 V2000
   -0.9794   -5.4903    0.9650 Cl  0  0  0  0  0  0  0  0  0  0  0  0
   -0.0191   -1.7670   -0.2390 N   0  0  0  0  0  0  0  0  0  0  0  0
   -0.7716   -0.8248   -1.0589 C   0  0  0  0  0  0  0  0  0  0  0  0
    1.3606   -1.8777   -0.7159 C   0  0  0  0  0  0  0  0  0  0  0  0
   -2.0072   -0.3350   -0.3055 C   0  0  0  0  0  0  0  0  0  0  0  0
    2.1931   -0.7010   -0.2093 C   0  0  0  0  0  0  0  0  0  0  0  0
   -0.6639   -3.0813   -0.2412 C   0  0  0  0  0  0  0  0  0  0  0  0
   -2.7996    0.6726   -1.1425 C   0  0  0  0  0  0  0  0  0  0  0  0
    3.6456   -0.8104   -0.6802 C   0  0  0  0  0  0  0  0  0  0  0  0
   -0.2147   -3.8832    0.9705 C   0  0  0  0  0  0  0  0  0  0  0  0
   -4.0423    1.1371   -0.4271 C   0  0  0  0  0  0  0  0  0  0  0  0
    4.4713    0.3633   -0.2192 C   0  0  0  0  0  0  0  0  0  0  0  0
   -5.2425    0.4460   -0.5939 C   0  0  0  0  0  0  0  0  0  0  0  0
    4.5699    1.5032   -1.0173 C   0  0  0  0  0  0  0  0  0  0  0  0
   -3.9922    2.2576    0.4023 C   0  0  0  0  0  0  0  0  0  0  0  0
    5.1365    0.3101    1.0058 C   0  0  0  0  0  0  0  0  0  0  0  0
   -6.3926    0.8756    0.0683 C   0  0  0  0  0  0  0  0  0  0  0  0
    5.3337    2.5895   -0.5907 C   0  0  0  0  0  0  0  0  0  0  0  0
   -5.1424    2.6870    1.0645 C   0  0  0  0  0  0  0  0  0  0  0  0
    5.9004    1.3966    1.4324 C   0  0  0  0  0  0  0  0  0  0  0  0
   -6.3425    1.9960    0.8975 C   0  0  0  0  0  0  0  0  0  0  0  0
    5.9988    2.5362    0.6341 C   0  0  0  0  0  0  0  0  0  0  0  0
  1 10  1  0
  2  3  1  0
  2  4  1  0
  2  7  1  0
  3  5  1  0
  4  6  1  0
  5  8  1  0
  6  9  1  0
  7 10  1  0
  8 11  1  0
  9 12  1  0
 11 13  2  0
 11 15  1  0
 12 14  2  0
 12 16  1  0
 13 17  1  0
 14 18  1  0
 15 19  2  0
 16 20  2  0
 17 21  2  0
 18 22  2  0
 19 21  1  0
 20 22  1  0
M  END
>  <PUBCHEM_COMPOUND_CID>  (1) 
48138

>  <PUBCHEM_CONFORMER_RMSD>  (1) 
1

>  <PUBCHEM_CONFORMER_DIVERSEORDER>  (1) 
1
75
52
51
48
87
35
33
22
121
27
105
26
62
118
93
124
115
2
103
67
71
81
50
63
43
92
28
59
119
85
36
32
133
83
38
29
49
17
116
45
91
86
30
15
31
108
117
42
112
47
77
10
128
94
80
70
131
78
114
55
76
72
130
19
100
123
126
57
14
21
69
135
56
74
41
64
16
106
111
9
40
122
95
90
13
127
34
11
60
61
99
102
7
25
104
6
136
125
58
110
120
101
68
66
44
98
65
97
88
73
96
8
107
37
134
129
84
20
109
46
89
132
3
18
23
39
54
4
113
79
5
12
53
82
24

>  <PUBCHEM_MMFF94_PARTIAL_CHARGES>  (1) 
30
1 -0.29
10 0.29
11 -0.14
12 -0.14
13 -0.15
14 -0.15
15 -0.15
16 -0.15
17 -0.15
18 -0.15
19 -0.15
2 -0.81
20 -0.15
21 -0.15
22 -0.15
3 0.27
39 0.15
4 0.27
40 0.15
41 0.15
42 0.15
43 0.15
44 0.15
45 0.15
46 0.15
47 0.15
48 0.15
7 0.27
8 0.14
9 0.14

>  <PUBCHEM_EFFECTIVE_ROTOR_COUNT>  (1) 
10

>  <PUBCHEM_PHARMACOPHORE_FEATURES>  (1) 
3
1 2 cation
6 11 13 15 17 19 21 rings
6 12 14 16 18 20 22 rings

>  <PUBCHEM_HEAVY_ATOM_COUNT>  (1) 
22

>  <PUBCHEM_ATOM_DEF_STEREO_COUNT>  (1) 
0

>  <PUBCHEM_ATOM_UDEF_STEREO_COUNT>  (1) 
0

>  <PUBCHEM_BOND_DEF_STEREO_COUNT>  (1) 
0

>  <PUBCHEM_BOND_UDEF_STEREO_COUNT>  (1) 
0

>  <PUBCHEM_ISOTOPIC_ATOM_COUNT>  (1) 
0

>  <PUBCHEM_COMPONENT_COUNT>  (1) 
1

>  <PUBCHEM_CACTVS_TAUTO_COUNT>  (1) 
1

>  <PUBCHEM_CONFORMER_ID>  (1) 
0000BC0A00000001

>  <PUBCHEM_MMFF94_ENERGY>  (1) 
43.8366

>  <PUBCHEM_FEATURE_SELFOVERLAP>  (1) 
15.223

>  <PUBCHEM_SHAPE_FINGERPRINT>  (1) 
10074138 170 17603873363815578883
10692045 39 18265041454301565810
12107183 9 18261657209388339786
12788726 201 17755305909264809106
12895836 83 16917058975775358885
13540713 4 18198923555421544638
13885169 86 18411422851147176980
13911852 28 8502655895874156821
13955234 65 18046912572040034931
14251764 30 8718828678103829568
14251764 75 18341619174736638377
14429114 114 18201156542534882577
14565420 104 18337112250868144131
14849402 71 18193559969807027666
15142526 21 18411139117222773451
15183329 4 14908184139933543829
18222031 100 8502367845560719214
18393751 57 18261114075981024233
19438510 23 18340760533675734096
20238998 120 17546448238092941487
21401589 2 18408881858284011395
22224240 67 18408322181881607767
23536364 44 11239727314558174171
23845131 108 18334013874425274595
2748736 6 18341041960844029101
2838139 119 17846768612069117844
3014063 24 11963395162928077153
3246875 12 18412266168560678947
3680242 22 18336542733989088792
5104073 3 18260827098756121082
5372103 7 15050578662017728634
543368 44 18060134324297563061
59682541 52 15841279155750381132
633830 44 18270960137608710823
7288768 16 18410571807666712663
960060 61 11095871683892419652
9658208 31 18337405889081941670
9981440 41 18334299747458617531

>  <PUBCHEM_SHAPE_MULTIPOLES>  (1) 
449.64
17.45
5.28
1.22
0.17
9.13
-0.14
-22.58
-3.96
-1.55
-2.32
0.4
-0.08
-0.37

>  <PUBCHEM_SHAPE_SELFOVERLAP>  (1) 
906.847

>  <PUBCHEM_SHAPE_VOLUME>  (1) 
262.8

>  <PUBCHEM_COORDINATE_TYPE>  (1) 
2
5
10

$$$$
