48134
     RDKit          3D

 18 21  0  0  1  0  0  0  0  0999 V2000
    0.7783   -3.2120   -0.5076 O   0  0  0  0  0  0  0  0  0  0  0  0
    0.0135   -2.4677    0.4308 C   0  0  0  0  0  0  0  0  0  0  0  0
    0.0023   -0.9736    0.2424 C   0  0  0  0  0  0  0  0  0  0  0  0
   -0.6481   -3.3335   -0.5819 C   0  0  0  0  0  0  0  0  0  0  0  0
    1.2222   -0.2820    0.1563 C   0  0  0  0  0  0  0  0  0  0  0  0
   -1.2279   -0.3006    0.1565 C   0  0  0  0  0  0  0  0  0  0  0  0
    1.2116    1.1189   -0.0203 C   0  0  0  0  0  0  0  0  0  0  0  0
   -1.2385    1.1004   -0.0204 C   0  0  0  0  0  0  0  0  0  0  0  0
   -0.0187    1.7919   -0.1063 C   0  0  0  0  0  0  0  0  0  0  0  0
    2.4528   -0.9543    0.2420 C   0  0  0  0  0  0  0  0  0  0  0  0
   -2.4481   -0.9914    0.2425 C   0  0  0  0  0  0  0  0  0  0  0  0
    2.4319    1.8097   -0.1063 C   0  0  0  0  0  0  0  0  0  0  0  0
   -2.4691    1.7726   -0.1063 C   0  0  0  0  0  0  0  0  0  0  0  0
   -0.0297    3.2851   -0.2932 C   0  0  0  0  0  0  0  0  0  0  0  0
    3.6557   -0.2533    0.1547 C   0  0  0  0  0  0  0  0  0  0  0  0
   -3.6616   -0.3087    0.1552 C   0  0  0  0  0  0  0  0  0  0  0  0
    3.6453    1.1270   -0.0191 C   0  0  0  0  0  0  0  0  0  0  0  0
   -3.6720    1.0715   -0.0191 C   0  0  0  0  0  0  0  0  0  0  0  0
  1  2  1  0
  1  4  1  0
  2  3  1  0
  2  4  1  0
  3  5  2  0
  3  6  1  0
  5  7  1  0
  5 10  1  0
  6  8  2  0
  6 11  1  0
  7  9  2  0
  7 12  1  0
  8  9  1  0
  8 13  1  0
  9 14  1  0
 10 15  2  0
 11 16  2  0
 12 17  2  0
 13 18  2  0
 15 17  1  0
 16 18  1  0
M  END
>  <PUBCHEM_COMPOUND_CID>  (1) 
48134

>  <PUBCHEM_CONFORMER_RMSD>  (1) 
0.6

>  <PUBCHEM_CONFORMER_DIVERSEORDER>  (1) 
1

>  <PUBCHEM_MMFF94_PARTIAL_CHARGES>  (1) 
25
1 -0.3
10 -0.15
11 -0.15
12 -0.15
13 -0.15
14 0.14
15 -0.15
16 -0.15
17 -0.15
18 -0.15
19 0.1
2 0.08
20 0.1
21 0.1
22 0.15
23 0.15
24 0.15
25 0.15
29 0.15
3 -0.03
30 0.15
31 0.15
32 0.15
4 -0.05
9 -0.14

>  <PUBCHEM_EFFECTIVE_ROTOR_COUNT>  (1) 
1.6

>  <PUBCHEM_PHARMACOPHORE_FEATURES>  (1) 
4
1 1 acceptor
6 3 5 6 7 8 9 rings
6 5 7 10 12 15 17 rings
6 6 8 11 13 16 18 rings

>  <PUBCHEM_HEAVY_ATOM_COUNT>  (1) 
18

>  <PUBCHEM_ATOM_DEF_STEREO_COUNT>  (1) 
0

>  <PUBCHEM_ATOM_UDEF_STEREO_COUNT>  (1) 
1

>  <PUBCHEM_BOND_DEF_STEREO_COUNT>  (1) 
0

>  <PUBCHEM_BOND_UDEF_STEREO_COUNT>  (1) 
0

>  <PUBCHEM_ISOTOPIC_ATOM_COUNT>  (1) 
0

>  <PUBCHEM_COMPONENT_COUNT>  (1) 
1

>  <PUBCHEM_CACTVS_TAUTO_COUNT>  (1) 
1

>  <PUBCHEM_CONFORMER_ID>  (1) 
0000BC0600000001

>  <PUBCHEM_MMFF94_ENERGY>  (1) 
71.2815

>  <PUBCHEM_FEATURE_SELFOVERLAP>  (1) 
20.349

>  <PUBCHEM_SHAPE_FINGERPRINT>  (1) 
10411042 1 17041479415702139219
10967382 1 18410012121824762251
11132069 177 18409442570559653528
11578080 2 16157362205373920150
12035759 4 18127381597623468295
12553582 1 17041204009049838242
13140716 1 18409448042305764865
13380535 76 18335420136626876891
14178342 30 17835511631762032040
14223421 5 18049161060090439121
14790565 3 18338532888089240748
15042514 8 18408601496147358026
15196674 1 18408885139591708665
15309172 13 18411708698568633761
16945 1 18050006593021887193
193761 8 17761773961975460768
19591789 44 18410857667783952710
20028762 73 17985831656164808487
20261772 1 18123202456805143859
20510252 161 18344148085598181792
20645476 183 17605857999382862734
20645477 70 18263918844296953925
20739085 24 18191052060798083049
20905425 154 17979920410505701822
21267235 1 18336555966176185530
21501502 16 17834958568437879009
21524375 3 18335137596197706898
2334 1 18409449219121515801
23402539 116 18342728646272221980
23419403 2 15664704034505624025
23463225 33 18334293141334646576
23558518 356 17468470864496265936
23559900 14 18271249434839354572
23566358 2 17689430482119138957
238 59 17683760464185079389
2748010 2 18409169913097962868
335352 9 17977101262602400412
34934 24 18263356066036774920
352729 6 18339084903118392011
43471831 8 18336544898145950434
5104073 3 18408603660335998833
54173680 148 18049442848541896114
589210 1 17689716363642474613
6138700 20 18122911928549374710
69090 78 18339357573380373994
7364860 26 18124596375302645407
7832392 63 18194401319423823000
81228 2 17760916738127163603
8272917 22 18197218053756035709
90525 40 18411419531147370119
9709674 26 18270405030734647662

>  <PUBCHEM_SHAPE_MULTIPOLES>  (1) 
364.56
5.38
3.6
0.67
0.16
1.55
0.01
-1.53
-0.27
-0.16
0.66
-0.01
0.11
-0.04

>  <PUBCHEM_SHAPE_SELFOVERLAP>  (1) 
825.882

>  <PUBCHEM_SHAPE_VOLUME>  (1) 
193.6

>  <PUBCHEM_COORDINATE_TYPE>  (1) 
2
5
10

$$$$
