4813
     RDKit          3D

 18 19  0  0  0  0  0  0  0  0999 V2000
    4.9724   -1.6474    0.8840 O   0  0  0  0  0  0  0  0  0  0  0  0
   -5.1872    1.9867    0.6384 O   0  0  0  0  0  0  0  0  0  0  0  0
   -4.2699   -2.5385   -0.5725 O   0  0  0  0  0  0  0  0  0  0  0  0
    5.8804    0.7320   -0.2295 O   0  0  0  0  0  0  0  0  0  0  0  0
   -1.9947    0.2968   -0.0365 C   0  0  0  0  0  0  0  0  0  0  0  0
    1.8105   -0.0689   -0.0502 C   0  0  0  0  0  0  0  0  0  0  0  0
   -0.5921    0.5908   -0.0733 C   0  0  0  0  0  0  0  0  0  0  0  0
    0.3839   -0.3454    0.0106 C   0  0  0  0  0  0  0  0  0  0  0  0
    2.7229   -0.9978    0.4502 C   0  0  0  0  0  0  0  0  0  0  0  0
   -2.4653   -0.9957   -0.3246 C   0  0  0  0  0  0  0  0  0  0  0  0
   -2.9298    1.2947    0.2876 C   0  0  0  0  0  0  0  0  0  0  0  0
    2.2662    1.1252   -0.6087 C   0  0  0  0  0  0  0  0  0  0  0  0
    4.0911   -0.7325    0.3919 C   0  0  0  0  0  0  0  0  0  0  0  0
   -4.2946    1.0089    0.3223 C   0  0  0  0  0  0  0  0  0  0  0  0
   -3.8301   -1.2817   -0.2897 C   0  0  0  0  0  0  0  0  0  0  0  0
    3.6344    1.3906   -0.6669 C   0  0  0  0  0  0  0  0  0  0  0  0
    4.5468    0.4616   -0.1667 C   0  0  0  0  0  0  0  0  0  0  0  0
   -4.7448   -0.2793    0.0337 C   0  0  0  0  0  0  0  0  0  0  0  0
  1 13  1  0
  2 14  1  0
  3 15  1  0
  4 17  1  0
  5  7  1  0
  5 10  2  0
  5 11  1  0
  6  8  1  0
  6  9  2  0
  6 12  1  0
  7  8  2  0
  9 13  1  0
 10 15  1  0
 11 14  2  0
 12 16  2  0
 13 17  2  0
 14 18  1  0
 15 18  2  0
 16 17  1  0
M  END
>  <PUBCHEM_COMPOUND_CID>  (1) 
4813

>  <PUBCHEM_CONFORMER_RMSD>  (1) 
0.6

>  <PUBCHEM_CONFORMER_DIVERSEORDER>  (1) 
3
1
2

>  <PUBCHEM_MMFF94_PARTIAL_CHARGES>  (1) 
30
1 -0.53
10 -0.15
11 -0.15
12 -0.15
13 0.08
14 0.08
15 0.08
16 -0.15
17 0.08
18 -0.15
19 0.15
2 -0.53
20 0.15
21 0.15
22 0.15
23 0.15
24 0.15
25 0.15
26 0.15
27 0.45
28 0.45
29 0.45
3 -0.53
30 0.45
4 -0.53
5 0.03
6 0.03
7 -0.18
8 -0.18
9 -0.15

>  <PUBCHEM_EFFECTIVE_ROTOR_COUNT>  (1) 
2

>  <PUBCHEM_PHARMACOPHORE_FEATURES>  (1) 
6
1 1 donor
1 2 donor
1 3 donor
1 4 donor
6 5 10 11 14 15 18 rings
6 6 9 12 13 16 17 rings

>  <PUBCHEM_HEAVY_ATOM_COUNT>  (1) 
18

>  <PUBCHEM_ATOM_DEF_STEREO_COUNT>  (1) 
0

>  <PUBCHEM_ATOM_UDEF_STEREO_COUNT>  (1) 
0

>  <PUBCHEM_BOND_DEF_STEREO_COUNT>  (1) 
0

>  <PUBCHEM_BOND_UDEF_STEREO_COUNT>  (1) 
1

>  <PUBCHEM_ISOTOPIC_ATOM_COUNT>  (1) 
0

>  <PUBCHEM_COMPONENT_COUNT>  (1) 
1

>  <PUBCHEM_CACTVS_TAUTO_COUNT>  (1) 
80

>  <PUBCHEM_CONFORMER_ID>  (1) 
000012CD00000003

>  <PUBCHEM_MMFF94_ENERGY>  (1) 
51.9816

>  <PUBCHEM_FEATURE_SELFOVERLAP>  (1) 
30.453

>  <PUBCHEM_SHAPE_FINGERPRINT>  (1) 
10595046 47 18337391655274829668
10616163 171 18341051912504917079
10912923 1 18334573555522792626
11315181 36 18409166653312724317
11405975 8 18411981360230378513
12107183 9 17760928446155070416
12236239 1 18408604747004584016
12616971 3 18113620070870735652
13073987 5 18409166636101141882
13167823 11 18408602578009429530
13760787 19 18411982455346746883
14341114 176 18409736123142473984
14528608 73 18335707199646333084
15196674 1 18410011048088219462
15250474 111 18338222838726699850
15788980 27 18334860514961724067
17834072 33 18408604785891346236
17844677 252 18272094945267071345
18186145 218 16805321110686365825
18681886 176 18272088349062090992
19050596 39 18410292497295119849
19489759 90 17489867107839143281
200 152 18408039636703692331
20279233 1 16056880225739219645
20281475 54 18409161130016352175
20645477 70 18114178597746710354
21033648 29 15339112399281320635
21065198 48 18409728469384139022
21267235 1 18337399317422736559
220451 1 18335145280231536550
22646028 1 18407757040698319302
23402539 116 18411416223948660372
23402655 69 18409168813929077140
23559900 14 17916317051705252686
300161 21 18409443682924443516
3004659 81 18410578345266196494
34797466 226 17417539115097060492
3545911 37 18342461421759862765
4073 2 18040723610091653706
4214541 1 18411700984912975341
5104073 3 18409729573153740176
542803 24 18272932713034551216
559249 180 18337948996359905283
573450 72 18411976957994323467
602551 16 16916494986498075734
633830 44 17095244713402066721
67856867 119 18337389460837191868
7062679 117 18338517542307527727
7495541 125 17988358273496484144
77779 3 18410856572535273493
9709674 26 18409174315503277466
9971528 1 17822010913342062060

>  <PUBCHEM_SHAPE_MULTIPOLES>  (1) 
346.95
13.4
1.82
0.76
2.99
0.39
0
-0.12
-0.85
-1.43
0.02
0.12
0.02
-1.65

>  <PUBCHEM_SHAPE_SELFOVERLAP>  (1) 
752.654

>  <PUBCHEM_SHAPE_VOLUME>  (1) 
190.2

>  <PUBCHEM_COORDINATE_TYPE>  (1) 
2
5
10

$$$$
