48141
     RDKit          3D

 26 26  0  0  1  0  0  0  0  0999 V2000
    0.3181    3.5366    0.7323 N   0  0  0  0  0  0  0  0  0  0  0  0
    4.5422    1.2572    0.1469 C   0  0  0  0  0  0  0  0  0  0  0  0
    4.9831    0.0468   -0.6798 C   0  0  0  0  0  0  0  0  0  0  0  0
    2.6016   -3.0532   -0.0303 C   0  0  0  0  0  0  0  0  0  0  0  0
    3.6902   -2.0112    0.1204 C   0  0  0  0  0  0  0  0  0  0  0  0
    3.2664    1.8685   -0.3868 C   0  0  0  0  0  0  0  0  0  0  0  0
    3.8994   -0.9930   -0.7371 C   0  0  0  0  0  0  0  0  0  0  0  0
    1.3194   -2.7292    0.7476 C   0  0  0  0  0  0  0  0  0  0  0  0
    2.1078    1.9276    0.2987 C   0  0  0  0  0  0  0  0  0  0  0  0
    0.8009    2.4967   -0.1702 C   0  0  0  0  0  0  0  0  0  0  0  0
    4.6046   -2.2015    1.3031 C   0  0  0  0  0  0  0  0  0  0  0  0
    3.3516    2.4108   -1.7889 C   0  0  0  0  0  0  0  0  0  0  0  0
    0.3100   -3.8418    0.6880 C   0  0  0  0  0  0  0  0  0  0  0  0
   -0.9844    4.0371    0.2908 C   0  0  0  0  0  0  0  0  0  0  0  0
   -0.7335   -3.9747   -0.1524 C   0  0  0  0  0  0  0  0  0  0  0  0
    1.2829    4.6341    0.8154 C   0  0  0  0  0  0  0  0  0  0  0  0
   -1.6432   -5.1703   -0.0511 C   0  0  0  0  0  0  0  0  0  0  0  0
   -1.0966   -3.0125   -1.2469 C   0  0  0  0  0  0  0  0  0  0  0  0
   -1.9608    2.9475    0.2033 C   0  0  0  0  0  0  0  0  0  0  0  0
   -2.7640    2.0570    0.1307 C   0  0  0  0  0  0  0  0  0  0  0  0
   -3.7190    0.9955    0.0447 C   0  0  0  0  0  0  0  0  0  0  0  0
   -3.4008   -0.2685    0.5395 C   0  0  0  0  0  0  0  0  0  0  0  0
   -4.9663    1.2266   -0.5335 C   0  0  0  0  0  0  0  0  0  0  0  0
   -4.3319   -1.3037    0.4556 C   0  0  0  0  0  0  0  0  0  0  0  0
   -5.8974    0.1914   -0.6172 C   0  0  0  0  0  0  0  0  0  0  0  0
   -5.5802   -1.0738   -0.1226 C   0  0  0  0  0  0  0  0  0  0  0  0
  1 10  1  0
  1 14  1  0
  1 16  1  0
  2  3  1  0
  2  6  1  0
  3  7  1  0
  4  5  1  0
  4  8  1  0
  5  7  2  0
  5 11  1  0
  6  9  2  0
  6 12  1  0
  8 13  1  0
  9 10  1  0
 13 15  2  3
 14 19  1  0
 15 17  1  0
 15 18  1  0
 19 20  3  0
 20 21  1  0
 21 22  2  0
 21 23  1  0
 22 24  1  0
 23 25  2  0
 24 26  2  0
 25 26  1  0
M  END
>  <PUBCHEM_COMPOUND_CID>  (1) 
48141

>  <PUBCHEM_CONFORMER_RMSD>  (1) 
1.2

>  <PUBCHEM_CONFORMER_DIVERSEORDER>  (1) 
6
55
311
570
293
393
675
19
650
214
347
10
326
237
153
149
63
174
338
320
100
312
403
626
142
634
129
477
455
192
52
248
292
314
747
378
573
46
713
118
232
282
220
168
62
270
421
14
733
676
321
37
139
30
487
217
295
172
496
484
396
29
686
306
144
515
615
7
470
80
261
209
440
369
627
121
566
84
290
303
797
583
297
114
631
332
388
418
91
617
639
182
330
324
73
175
577
652
154
315
719
27
350
180
479
79
147
525
266
512
298
215
523
798
427
43
222
233
186
152
204
89
176
543
498
36
106
732
567
102
339
600
579
203
252
41
462
210
108
779
219
513
464
101
458
58
445
9
247
663
15
107
599
693
382
136
488
792
622
585
275
380
65
794
249
748
141
253
164
110
169
580
340
374
358
606
679
74
234
302
212
57
44
40
259
92
105
360
712
1
22
572
21
402
69
229
359
603
457
502
704
134
366
578
97
563
145
245
485
284
554
199
28
87
159
385
125
564
509
64
188
620
32
242
191
757
213
365
161
304
287
216
200
60
750
109
456
48
23
516
157
760
674
782
423
342
555
116
17
386
519
788
611
501
370
76
553
177
68
24
343
401
708
26
743
411
16
677
283
86
552
742
710
375
124
47
198
681
387
42
278
225
195
170
126
276
13
236
612
140
605
510
119
508
383
202
728
81
730
783
50
250
651
39
122
120
143
178
435
404
384
158
131
3
54
726
692
517
415
230
193
5
128
98
132
12
666
621
112
167
25
718
725
530
96
196
727
78
707
535
581
72
11
77
83
56
20
279
53
449
685
2
8
323
781
95
228
104
700
34
127
226
61
623
85
4
520

>  <PUBCHEM_MMFF94_PARTIAL_CHARGES>  (1) 
34
1 -0.81
10 0.41
11 0.14
12 0.14
13 -0.29
14 0.47
15 -0.28
16 0.27
17 0.14
18 0.14
19 -0.2
2 0.14
20 -0.07
21 0.07
22 -0.15
23 -0.15
24 -0.15
25 -0.15
26 -0.15
3 0.14
33 0.15
36 0.15
4 0.14
45 0.15
5 -0.28
57 0.15
58 0.15
59 0.15
6 -0.28
60 0.15
61 0.15
7 -0.29
8 0.14
9 -0.29

>  <PUBCHEM_EFFECTIVE_ROTOR_COUNT>  (1) 
9

>  <PUBCHEM_PHARMACOPHORE_FEATURES>  (1) 
7
1 1 cation
1 11 hydrophobe
1 12 hydrophobe
3 15 17 18 hydrophobe
4 2 3 6 7 hydrophobe
4 4 5 8 13 hydrophobe
6 21 22 23 24 25 26 rings

>  <PUBCHEM_HEAVY_ATOM_COUNT>  (1) 
26

>  <PUBCHEM_ATOM_DEF_STEREO_COUNT>  (1) 
0

>  <PUBCHEM_ATOM_UDEF_STEREO_COUNT>  (1) 
0

>  <PUBCHEM_BOND_DEF_STEREO_COUNT>  (1) 
0

>  <PUBCHEM_BOND_UDEF_STEREO_COUNT>  (1) 
2

>  <PUBCHEM_ISOTOPIC_ATOM_COUNT>  (1) 
0

>  <PUBCHEM_COMPONENT_COUNT>  (1) 
1

>  <PUBCHEM_CACTVS_TAUTO_COUNT>  (1) 
1

>  <PUBCHEM_CONFORMER_ID>  (1) 
0000BC0D00000006

>  <PUBCHEM_MMFF94_ENERGY>  (1) 
42.1138

>  <PUBCHEM_FEATURE_SELFOVERLAP>  (1) 
35.55

>  <PUBCHEM_SHAPE_FINGERPRINT>  (1) 
12978246 48 18410008797625999058
13122387 1 18194405480951876682
13165053 182 17029134533348307252
13383661 66 17701557120806614558
1361 2 18410852166510933171
15250474 111 18193558861410027184
15320467 1 18411136931010657603
15483637 11 17977947118105074027
20028762 73 18198619939434527846
20764821 26 18409454673909193467
21133410 62 18188473723606184159
23559900 14 18409156711160169129
3246872 21 18267021643976331155
325973 47 18410296887026217555
3298306 158 18336543910751585775
338550 245 18334859475801217350
3882209 13 17108434231893875331
437795 70 18129685027328715814
463206 1 18340207504432212089
5047190 2 17984695878080897079
5309563 4 18340483366503871329
6433294 58 18339365287295021064
9896288 288 17695620750591314914

>  <PUBCHEM_SHAPE_MULTIPOLES>  (1) 
530.09
11.66
7.58
1.05
6.89
2.29
-0.18
0.51
-1.44
-1.02
1.05
-0.69
-0.05
-1.03

>  <PUBCHEM_SHAPE_SELFOVERLAP>  (1) 
1050.265

>  <PUBCHEM_SHAPE_VOLUME>  (1) 
314.6

>  <PUBCHEM_COORDINATE_TYPE>  (1) 
2
5
10

$$$$
