48151
     RDKit          3D

 17 17  0  0  0  0  0  0  0  0999 V2000
   -0.0171    0.0575    2.3314 O   0  0  0  0  0  0  0  0  0  0  0  0
    0.4594    0.2020   -2.4479 O   0  0  0  0  0  0  0  0  0  0  0  0
    3.5734   -1.8479    0.2163 O   0  0  0  0  0  0  0  0  0  0  0  0
    1.7595   -0.8861    1.2427 N   0  0  0  0  0  0  0  0  0  0  0  0
    1.9935   -0.8135   -1.0884 N   0  0  0  0  0  0  0  0  0  0  0  0
   -0.0013    0.2174   -0.0774 C   0  0  0  0  0  0  0  0  0  0  0  0
   -0.2546    1.7309   -0.0610 C   0  0  0  0  0  0  0  0  0  0  0  0
   -1.2912   -0.5403   -0.2238 C   0  0  0  0  0  0  0  0  0  0  0  0
    1.0413    2.4988    0.1588 C   0  0  0  0  0  0  0  0  0  0  0  0
    0.5616   -0.1941    1.2724 C   0  0  0  0  0  0  0  0  0  0  0  0
    0.8201   -0.1151   -1.3124 C   0  0  0  0  0  0  0  0  0  0  0  0
   -2.4563    0.1184   -0.3724 C   0  0  0  0  0  0  0  0  0  0  0  0
   -1.1427   -2.0345   -0.1754 C   0  0  0  0  0  0  0  0  0  0  0  0
    0.7866    3.9970    0.1996 C   0  0  0  0  0  0  0  0  0  0  0  0
    2.5132   -1.2258    0.1294 C   0  0  0  0  0  0  0  0  0  0  0  0
   -3.8261   -0.4665   -0.5626 C   0  0  0  0  0  0  0  0  0  0  0  0
   -4.5193   -0.6981    0.7707 C   0  0  0  0  0  0  0  0  0  0  0  0
  1 10  2  0
  2 11  2  0
  3 15  2  0
  4 10  1  0
  4 15  1  0
  5 11  1  0
  5 15  1  0
  6  7  1  0
  6  8  1  0
  6 10  1  0
  6 11  1  0
  7  9  1  0
  8 12  2  0
  8 13  1  0
  9 14  1  0
 12 16  1  0
 16 17  1  0
M  END
>  <PUBCHEM_COMPOUND_CID>  (1) 
48151

>  <PUBCHEM_CONFORMER_RMSD>  (1) 
0.6

>  <PUBCHEM_CONFORMER_DIVERSEORDER>  (1) 
1
13
10
11
3
8
5
9
7
15
12
2
14
4
6

>  <PUBCHEM_MMFF94_PARTIAL_CHARGES>  (1) 
16
1 -0.57
10 0.57
11 0.57
12 -0.29
13 0.14
15 0.69
16 0.14
2 -0.57
22 0.15
26 0.37
27 0.37
3 -0.57
4 -0.49
5 -0.49
6 0.26
8 -0.28

>  <PUBCHEM_EFFECTIVE_ROTOR_COUNT>  (1) 
4.6

>  <PUBCHEM_PHARMACOPHORE_FEATURES>  (1) 
9
1 1 acceptor
1 13 hydrophobe
1 14 hydrophobe
1 17 hydrophobe
1 2 acceptor
1 3 acceptor
1 4 donor
1 5 donor
6 4 5 6 10 11 15 rings

>  <PUBCHEM_HEAVY_ATOM_COUNT>  (1) 
17

>  <PUBCHEM_ATOM_DEF_STEREO_COUNT>  (1) 
0

>  <PUBCHEM_ATOM_UDEF_STEREO_COUNT>  (1) 
0

>  <PUBCHEM_BOND_DEF_STEREO_COUNT>  (1) 
0

>  <PUBCHEM_BOND_UDEF_STEREO_COUNT>  (1) 
1

>  <PUBCHEM_ISOTOPIC_ATOM_COUNT>  (1) 
0

>  <PUBCHEM_COMPONENT_COUNT>  (1) 
1

>  <PUBCHEM_CACTVS_TAUTO_COUNT>  (1) 
5

>  <PUBCHEM_CONFORMER_ID>  (1) 
0000BC1700000001

>  <PUBCHEM_MMFF94_ENERGY>  (1) 
34.6896

>  <PUBCHEM_FEATURE_SELFOVERLAP>  (1) 
45.713

>  <PUBCHEM_SHAPE_FINGERPRINT>  (1) 
11578080 2 17170360027797034516
12423570 1 12319158586902766440
12592029 89 18124598845019825096
13380536 53 17489586719030209686
13464514 151 18194412301465762573
14181834 199 17632002165119094068
14344429 50 18408887373296254711
14648413 74 18266738176424835115
14817 1 10712480272879586372
16945 1 18266731566211957060
1813 80 18130520638363184102
19010151 120 18341336595716085642
20233049 118 18115579328109985653
20339313 130 18342178873331192689
20511035 2 17559097998767723399
20600515 1 18059863847935330590
21296965 67 18337107869542397122
21501502 16 17985543605481747991
21524375 3 17551228901691263077
22112679 90 18196394540383702193
22344851 341 17836939158172811933
23402539 116 18200019638741680351
23419403 2 17970318543143595388
2748010 2 18123158291397923849
3286 77 18334019415095986423
4175511 376 18195541504154762220
4175511 71 18411975849924584881
430814 3 17619608620459366045
6442390 28 16833205537363953785
7364860 26 18266737063891259285
81228 2 17984156858824807913
81539 233 18047746293763647373

>  <PUBCHEM_SHAPE_MULTIPOLES>  (1) 
322.28
4.92
2.84
1.54
5.91
3.49
0.05
-2.38
-0.48
-2.61
-0.22
-0.32
-0.18
-0.02

>  <PUBCHEM_SHAPE_SELFOVERLAP>  (1) 
658.149

>  <PUBCHEM_SHAPE_VOLUME>  (1) 
185.8

>  <PUBCHEM_COORDINATE_TYPE>  (1) 
2
5
10

$$$$
