48157
     RDKit          3D

 18 18  0  0  1  0  0  0  0  0999 V2000
   -0.0877    0.1686    2.2226 O   0  0  0  0  0  0  0  0  0  0  0  0
   -0.1794   -1.1108   -2.3742 O   0  0  0  0  0  0  0  0  0  0  0  0
   -3.4900    1.5101   -0.6497 O   0  0  0  0  0  0  0  0  0  0  0  0
   -1.7506    0.9361    0.7961 N   0  0  0  0  0  0  0  0  0  0  0  0
   -1.8056    0.2027   -1.4495 N   0  0  0  0  0  0  0  0  0  0  0  0
    0.1536   -0.3784   -0.1006 C   0  0  0  0  0  0  0  0  0  0  0  0
    0.6545   -1.7775    0.2897 C   0  0  0  0  0  0  0  0  0  0  0  0
    1.3170    0.5329   -0.3822 C   0  0  0  0  0  0  0  0  0  0  0  0
   -0.5644    0.2454    1.0857 C   0  0  0  0  0  0  0  0  0  0  0  0
   -0.6102   -0.4873   -1.4024 C   0  0  0  0  0  0  0  0  0  0  0  0
   -0.5065   -2.7508    0.4333 C   0  0  0  0  0  0  0  0  0  0  0  0
    2.5805    0.0957   -0.2213 C   0  0  0  0  0  0  0  0  0  0  0  0
    0.9300    1.9149   -0.8267 C   0  0  0  0  0  0  0  0  0  0  0  0
   -2.4189    0.9340   -0.4398 C   0  0  0  0  0  0  0  0  0  0  0  0
   -0.0128   -4.1290    0.8430 C   0  0  0  0  0  0  0  0  0  0  0  0
    3.8542    0.8470   -0.4825 C   0  0  0  0  0  0  0  0  0  0  0  0
   -2.3818    1.6487    1.9029 C   0  0  0  0  0  0  0  0  0  0  0  0
    4.3179    1.5978    0.7556 C   0  0  0  0  0  0  0  0  0  0  0  0
  1  9  2  0
  2 10  2  0
  3 14  2  0
  4  9  1  0
  4 14  1  0
  4 17  1  0
  5 10  1  0
  5 14  1  0
  6  7  1  0
  6  8  1  0
  6  9  1  0
  6 10  1  0
  7 11  1  0
  8 12  2  0
  8 13  1  0
 11 15  1  0
 12 16  1  0
 16 18  1  0
M  END
>  <PUBCHEM_COMPOUND_CID>  (1) 
48157

>  <PUBCHEM_CONFORMER_RMSD>  (1) 
0.6

>  <PUBCHEM_CONFORMER_DIVERSEORDER>  (1) 
1
16
17
3
14
10
19
9
20
5
8
15
7
18
11
4
2
12
13
6

>  <PUBCHEM_MMFF94_PARTIAL_CHARGES>  (1) 
16
1 -0.57
10 0.57
12 -0.29
13 0.14
14 0.69
16 0.14
17 0.3
2 -0.57
23 0.15
24 0.37
3 -0.57
4 -0.42
5 -0.49
6 0.26
8 -0.28
9 0.57

>  <PUBCHEM_EFFECTIVE_ROTOR_COUNT>  (1) 
4.6

>  <PUBCHEM_PHARMACOPHORE_FEATURES>  (1) 
8
1 1 acceptor
1 13 hydrophobe
1 15 hydrophobe
1 18 hydrophobe
1 2 acceptor
1 3 acceptor
1 5 donor
6 4 5 6 9 10 14 rings

>  <PUBCHEM_HEAVY_ATOM_COUNT>  (1) 
18

>  <PUBCHEM_ATOM_DEF_STEREO_COUNT>  (1) 
0

>  <PUBCHEM_ATOM_UDEF_STEREO_COUNT>  (1) 
0

>  <PUBCHEM_BOND_DEF_STEREO_COUNT>  (1) 
0

>  <PUBCHEM_BOND_UDEF_STEREO_COUNT>  (1) 
1

>  <PUBCHEM_ISOTOPIC_ATOM_COUNT>  (1) 
0

>  <PUBCHEM_COMPONENT_COUNT>  (1) 
1

>  <PUBCHEM_CACTVS_TAUTO_COUNT>  (1) 
3

>  <PUBCHEM_CONFORMER_ID>  (1) 
0000BC1D00000001

>  <PUBCHEM_MMFF94_ENERGY>  (1) 
37.2724

>  <PUBCHEM_FEATURE_SELFOVERLAP>  (1) 
40.597

>  <PUBCHEM_SHAPE_FINGERPRINT>  (1) 
11315181 36 17703508883538480456
12119455 92 17677038092657452684
12326174 3 17837795347155667311
12423570 1 14363069407712910803
12491281 212 17704079486279526408
12592029 89 18263918848032680491
13024252 1 13985203549430245166
14787075 74 18129093605815106911
14817 1 15377880354738101991
15309172 13 18261401030977425296
15906896 17 18128552624245098758
16945 1 17561071514680801388
19765921 60 18271231755582215690
21339142 149 18129939113045394544
21524375 3 18202005374148159552
23419403 2 17267279765793051959
23559900 14 15214152843293683530
2748010 2 18189922858071640274
394222 165 18057321687052577003
4340502 62 18126877970005811137
81228 2 17976561698978300146
9981440 41 17560506422361658610

>  <PUBCHEM_SHAPE_MULTIPOLES>  (1) 
342.86
4.74
3.12
1.76
5.1
4.4
-0.02
-4.09
-0.45
-1.25
-0.95
-0.82
-0.24
-0.06

>  <PUBCHEM_SHAPE_SELFOVERLAP>  (1) 
699.762

>  <PUBCHEM_SHAPE_VOLUME>  (1) 
198.3

>  <PUBCHEM_COORDINATE_TYPE>  (1) 
2
5
10

$$$$
