48153
     RDKit          3D

 17 17  0  0  1  0  0  0  0  0999 V2000
    1.4193   -2.5992   -0.6193 S   0  0  0  0  0  0  0  0  0  0  0  0
    1.5568   -0.7796    2.0486 O   0  0  0  0  0  0  0  0  0  0  0  0
   -0.1677   -0.1184   -2.2687 O   0  0  0  0  0  0  0  0  0  0  0  0
    2.6250    2.9799   -0.3558 O   0  0  0  0  0  0  0  0  0  0  0  0
    2.0102    1.1442    0.8842 N   0  0  0  0  0  0  0  0  0  0  0  0
    1.1482    1.4749   -1.2722 N   0  0  0  0  0  0  0  0  0  0  0  0
    0.1625   -0.2821    0.1280 C   0  0  0  0  0  0  0  0  0  0  0  0
   -1.0905    0.3787    0.7300 C   0  0  0  0  0  0  0  0  0  0  0  0
   -2.3364    0.1977   -0.1567 C   0  0  0  0  0  0  0  0  0  0  0  0
   -0.0764   -1.7930   -0.0079 C   0  0  0  0  0  0  0  0  0  0  0  0
   -1.3604   -0.1984    2.1218 C   0  0  0  0  0  0  0  0  0  0  0  0
    1.3102   -0.0332    1.1017 C   0  0  0  0  0  0  0  0  0  0  0  0
    0.3687    0.3279   -1.2548 C   0  0  0  0  0  0  0  0  0  0  0  0
   -3.5807    0.9026    0.3888 C   0  0  0  0  0  0  0  0  0  0  0  0
    1.9606    1.9477   -0.2487 C   0  0  0  0  0  0  0  0  0  0  0  0
   -4.7621    0.7531   -0.5580 C   0  0  0  0  0  0  0  0  0  0  0  0
    0.8126   -4.3028   -0.6607 C   0  0  0  0  0  0  0  0  0  0  0  0
  1 10  1  0
  1 17  1  0
  2 12  2  0
  3 13  2  0
  4 15  2  0
  5 12  1  0
  5 15  1  0
  6 13  1  0
  6 15  1  0
  7  8  1  0
  7 10  1  0
  7 12  1  0
  7 13  1  0
  8  9  1  0
  8 11  1  0
  9 14  1  0
 14 16  1  0
M  END
>  <PUBCHEM_COMPOUND_CID>  (1) 
48153

>  <PUBCHEM_CONFORMER_RMSD>  (1) 
0.8

>  <PUBCHEM_CONFORMER_DIVERSEORDER>  (1) 
1
9
7
11
8
12
5
6
3
13
2
4
10

>  <PUBCHEM_MMFF94_PARTIAL_CHARGES>  (1) 
14
1 -0.46
10 0.23
12 0.57
13 0.57
15 0.69
17 0.23
2 -0.57
28 0.37
29 0.37
3 -0.57
4 -0.57
5 -0.49
6 -0.49
7 0.12

>  <PUBCHEM_EFFECTIVE_ROTOR_COUNT>  (1) 
5.6

>  <PUBCHEM_PHARMACOPHORE_FEATURES>  (1) 
9
1 11 hydrophobe
1 16 hydrophobe
1 17 hydrophobe
1 2 acceptor
1 3 acceptor
1 4 acceptor
1 5 donor
1 6 donor
6 5 6 7 12 13 15 rings

>  <PUBCHEM_HEAVY_ATOM_COUNT>  (1) 
17

>  <PUBCHEM_ATOM_DEF_STEREO_COUNT>  (1) 
0

>  <PUBCHEM_ATOM_UDEF_STEREO_COUNT>  (1) 
1

>  <PUBCHEM_BOND_DEF_STEREO_COUNT>  (1) 
0

>  <PUBCHEM_BOND_UDEF_STEREO_COUNT>  (1) 
0

>  <PUBCHEM_ISOTOPIC_ATOM_COUNT>  (1) 
0

>  <PUBCHEM_COMPONENT_COUNT>  (1) 
1

>  <PUBCHEM_CACTVS_TAUTO_COUNT>  (1) 
5

>  <PUBCHEM_CONFORMER_ID>  (1) 
0000BC1900000001

>  <PUBCHEM_MMFF94_ENERGY>  (1) 
50.845

>  <PUBCHEM_FEATURE_SELFOVERLAP>  (1) 
45.712

>  <PUBCHEM_SHAPE_FINGERPRINT>  (1) 
12138202 97 17841449316331522076
12423570 1 18121185771768935331
12725867 57 18122628249420120847
13134695 92 18049167670314009975
14004458 79 17258232185260653111
14142880 1 17393868983366962068
14617773 55 17396400072371828024
14817 1 16305944700698069866
15906896 17 17683529811313801394
16945 1 18196680452293354914
20473742 2 18408608032918355206
20511035 2 17750244762277329456
20600515 1 17317060047461158994
20671657 53 17910394983615673159
21524375 3 18044094776718771225
23419403 2 17320758925030968298
23526113 38 17826530876420517555
23557571 272 17605016830591900689
3060560 45 18411135818561192350
7364860 26 18338521841696079757
81228 2 16971706060911916882

>  <PUBCHEM_SHAPE_MULTIPOLES>  (1) 
326.13
4.64
3.37
1.72
8.3
1.79
0.33
-0.19
-0.45
-4.58
-1.06
-0.15
-0.05
0.12

>  <PUBCHEM_SHAPE_SELFOVERLAP>  (1) 
646.692

>  <PUBCHEM_SHAPE_VOLUME>  (1) 
196.6

>  <PUBCHEM_COORDINATE_TYPE>  (1) 
2
5
10

$$$$
