48158
     RDKit          3D

 17 17  0  0  0  0  0  0  0  0999 V2000
    1.7335   -2.4601   -0.2962 O   0  0  0  0  0  0  0  0  0  0  0  0
    0.5323    1.8400    1.4803 O   0  0  0  0  0  0  0  0  0  0  0  0
    4.2173    1.2861   -1.1863 O   0  0  0  0  0  0  0  0  0  0  0  0
    2.9478   -0.5693   -0.7232 N   0  0  0  0  0  0  0  0  0  0  0  0
    2.3637    1.5278    0.1455 N   0  0  0  0  0  0  0  0  0  0  0  0
    0.9246   -0.4005    0.6694 C   0  0  0  0  0  0  0  0  0  0  0  0
   -0.3880   -0.4717   -0.0594 C   0  0  0  0  0  0  0  0  0  0  0  0
    0.8047   -1.0095    2.0731 C   0  0  0  0  0  0  0  0  0  0  0  0
    1.8888   -1.2466   -0.1446 C   0  0  0  0  0  0  0  0  0  0  0  0
    1.2400    1.0791    0.8170 C   0  0  0  0  0  0  0  0  0  0  0  0
   -1.5351   -0.9510    0.4576 C   0  0  0  0  0  0  0  0  0  0  0  0
   -2.8750   -1.0497   -0.2148 C   0  0  0  0  0  0  0  0  0  0  0  0
   -3.7361    0.1788    0.0826 C   0  0  0  0  0  0  0  0  0  0  0  0
   -0.3426    0.0358   -1.4760 C   0  0  0  0  0  0  0  0  0  0  0  0
   -5.0866    0.0955   -0.6292 C   0  0  0  0  0  0  0  0  0  0  0  0
    3.2414    0.7825   -0.6270 C   0  0  0  0  0  0  0  0  0  0  0  0
   -5.9309    1.3327   -0.3686 C   0  0  0  0  0  0  0  0  0  0  0  0
  1  9  2  0
  2 10  2  0
  3 16  2  0
  4  9  1  0
  4 16  1  0
  5 10  1  0
  5 16  1  0
  6  7  1  0
  6  8  1  0
  6  9  1  0
  6 10  1  0
  7 11  2  0
  7 14  1  0
 11 12  1  0
 12 13  1  0
 13 15  1  0
 15 17  1  0
M  END
>  <PUBCHEM_COMPOUND_CID>  (1) 
48158

>  <PUBCHEM_CONFORMER_RMSD>  (1) 
0.6

>  <PUBCHEM_CONFORMER_DIVERSEORDER>  (1) 
1
21
29
11
55
43
8
4
34
47
24
32
12
33
35
45
48
42
25
10
38
46
27
15
30
37
40
6
19
14
22
28
51
13
39
16
52
53
3
31
54
41
2
50
5
9
20
49
36
7
17
18
26
23
44

>  <PUBCHEM_MMFF94_PARTIAL_CHARGES>  (1) 
16
1 -0.57
10 0.57
11 -0.29
12 0.14
14 0.14
16 0.69
2 -0.57
21 0.15
3 -0.57
31 0.37
32 0.37
4 -0.49
5 -0.49
6 0.26
7 -0.28
9 0.57

>  <PUBCHEM_EFFECTIVE_ROTOR_COUNT>  (1) 
4.6

>  <PUBCHEM_PHARMACOPHORE_FEATURES>  (1) 
9
1 1 acceptor
1 14 hydrophobe
1 17 hydrophobe
1 2 acceptor
1 3 acceptor
1 4 donor
1 5 donor
4 11 12 13 15 hydrophobe
6 4 5 6 9 10 16 rings

>  <PUBCHEM_HEAVY_ATOM_COUNT>  (1) 
17

>  <PUBCHEM_ATOM_DEF_STEREO_COUNT>  (1) 
0

>  <PUBCHEM_ATOM_UDEF_STEREO_COUNT>  (1) 
0

>  <PUBCHEM_BOND_DEF_STEREO_COUNT>  (1) 
0

>  <PUBCHEM_BOND_UDEF_STEREO_COUNT>  (1) 
1

>  <PUBCHEM_ISOTOPIC_ATOM_COUNT>  (1) 
0

>  <PUBCHEM_COMPONENT_COUNT>  (1) 
1

>  <PUBCHEM_CACTVS_TAUTO_COUNT>  (1) 
5

>  <PUBCHEM_CONFORMER_ID>  (1) 
0000BC1E00000001

>  <PUBCHEM_MMFF94_ENERGY>  (1) 
32.1938

>  <PUBCHEM_FEATURE_SELFOVERLAP>  (1) 
45.713

>  <PUBCHEM_SHAPE_FINGERPRINT>  (1) 
10447042 23 8285904745755243089
11471102 20 18413672409029358758
11806522 49 10879997956035364157
12500047 106 18410854408463022335
12730499 353 18408612478473555995
13380536 243 16630530656333993270
13955234 65 17023459738297562515
14252887 29 14996562846472977897
14993402 34 17132123458525916782
15048467 5 18260833717121090244
15210252 30 18333453165986190213
15848700 24 14117520930395255923
16752209 62 16343429414632326467
16945 1 18270131209294699962
17834072 33 18412822517212702607
20645477 70 18271810081946468119
20820808 20 18340490062210153906
21069387 34 12463575101410089863
212847 35 18338793421521905465
21452121 103 17240473698219451716
21637258 2 14476695061516108284
22289505 5 18341608166756889005
22892500 29 18272364295862101269
231179 274 18113614603562075141
23402539 116 17676765491563106518
23402655 69 18343021090769518781
23559900 14 18271518694148386059
25 1 18410012169185680930
2748010 2 17266117840512302760
276578 36 16877655777333282458
3060560 45 16988842782643146853
4047638 21 18040437689480769910
4072396 5 18341601608552655810
42 15 9655580716770496447
427121 178 16008749112728457425
474 4 17458633362306326189
522135 26 18341609283485133631
528886 8 18200314441524039346
633830 44 17822572814790745502
76465 3 12391249166200019500
8272917 22 18272374114268434863

>  <PUBCHEM_SHAPE_MULTIPOLES>  (1) 
322.28
8.78
1.77
1.34
14.01
0.15
0.41
-4.11
-2.74
-0.95
0.15
-0.7
-0.03
-0.09

>  <PUBCHEM_SHAPE_SELFOVERLAP>  (1) 
654.54

>  <PUBCHEM_SHAPE_VOLUME>  (1) 
187

>  <PUBCHEM_COORDINATE_TYPE>  (1) 
2
5
10

$$$$
