48175
     RDKit          3D

 33 36  0  0  1  0  0  0  0  0999 V2000
   -4.8948   -2.5637    1.9711 Cl  0  0  0  0  0  0  0  0  0  0  0  0
    1.6488   -0.5930   -1.0489 F   0  0  0  0  0  0  0  0  0  0  0  0
    3.9661    3.0703   -0.4300 F   0  0  0  0  0  0  0  0  0  0  0  0
   -2.7885   -0.2935   -1.0341 O   0  0  0  0  0  0  0  0  0  0  0  0
    1.2051   -2.8259    0.4842 O   0  0  0  0  0  0  0  0  0  0  0  0
   -4.4194    0.3646    1.8592 O   0  0  0  0  0  0  0  0  0  0  0  0
   -4.8795    0.6504   -1.2793 O   0  0  0  0  0  0  0  0  0  0  0  0
    6.4547   -0.8528   -1.9354 O   0  0  0  0  0  0  0  0  0  0  0  0
   -1.2704   -0.0179    0.8653 C   0  0  0  0  0  0  0  0  0  0  0  0
   -0.3960    1.0210    0.1301 C   0  0  0  0  0  0  0  0  0  0  0  0
    1.0682    1.0071    0.5907 C   0  0  0  0  0  0  0  0  0  0  0  0
    1.6944   -0.4102    0.3195 C   0  0  0  0  0  0  0  0  0  0  0  0
   -2.6650    0.3159    0.2581 C   0  0  0  0  0  0  0  0  0  0  0  0
   -1.1965    2.3114    0.2815 C   0  0  0  0  0  0  0  0  0  0  0  0
   -0.6963   -1.4023    0.5324 C   0  0  0  0  0  0  0  0  0  0  0  0
   -2.6644    1.8643    0.0629 C   0  0  0  0  0  0  0  0  0  0  0  0
    0.7916   -1.5328    0.9218 C   0  0  0  0  0  0  0  0  0  0  0  0
    3.2276   -0.4523    0.7215 C   0  0  0  0  0  0  0  0  0  0  0  0
    1.8673    2.1142   -0.1109 C   0  0  0  0  0  0  0  0  0  0  0  0
   -1.2925    0.1720    2.4072 C   0  0  0  0  0  0  0  0  0  0  0  0
    3.3358    2.0918    0.2842 C   0  0  0  0  0  0  0  0  0  0  0  0
    3.9250    0.7284    0.0239 C   0  0  0  0  0  0  0  0  0  0  0  0
   -3.8299   -0.2794    0.9927 C   0  0  0  0  0  0  0  0  0  0  0  0
   -3.6081    2.6646    0.9557 C   0  0  0  0  0  0  0  0  0  0  0  0
    3.4232   -0.3249    2.2510 C   0  0  0  0  0  0  0  0  0  0  0  0
    3.8910   -1.7693    0.3409 C   0  0  0  0  0  0  0  0  0  0  0  0
    4.9590    0.5891   -0.8216 C   0  0  0  0  0  0  0  0  0  0  0  0
   -4.2056   -1.6886    0.5958 C   0  0  0  0  0  0  0  0  0  0  0  0
    4.9188   -1.9119   -0.5009 C   0  0  0  0  0  0  0  0  0  0  0  0
   -3.9565   -0.0377   -1.6926 C   0  0  0  0  0  0  0  0  0  0  0  0
    5.5192   -0.7360   -1.1512 C   0  0  0  0  0  0  0  0  0  0  0  0
   -3.9275   -0.7461   -3.0267 C   0  0  0  0  0  0  0  0  0  0  0  0
   -5.2051   -0.5269   -3.8181 C   0  0  0  0  0  0  0  0  0  0  0  0
  1 28  1  0
  2 12  1  0
  3 21  1  0
  4 13  1  0
  4 30  1  0
  5 17  1  0
  6 23  2  0
  7 30  2  0
  8 31  2  0
  9 10  1  0
  9 13  1  0
  9 15  1  0
  9 20  1  0
 10 11  1  0
 10 14  1  0
 11 12  1  0
 11 19  1  0
 12 17  1  0
 12 18  1  0
 13 16  1  0
 13 23  1  0
 14 16  1  0
 15 17  1  0
 16 24  1  0
 18 22  1  0
 18 25  1  0
 18 26  1  0
 19 21  1  0
 21 22  1  0
 22 27  2  0
 23 28  1  0
 26 29  2  0
 27 31  1  0
 29 31  1  0
 30 32  1  0
 32 33  1  0
M  END
>  <PUBCHEM_COMPOUND_CID>  (1) 
48175

>  <PUBCHEM_CONFORMER_RMSD>  (1) 
0.8

>  <PUBCHEM_CONFORMER_DIVERSEORDER>  (1) 
2
60
66
37
11
41
30
38
23
51
28
43
20
35
6
47
4
57
55
18
56
44
12
3
61
33
64
7
27
42
15
13
19
46
31
9
58
36
49
59
32
54
65
5
16
29
48
63
52
25
21
8
34
45
17
24
53
26
40
62
1
22
50
10
39
14

>  <PUBCHEM_MMFF94_PARTIAL_CHARGES>  (1) 
26
1 -0.29
12 0.34
13 0.34
17 0.28
18 0.28
2 -0.34
21 0.48
22 -0.28
23 0.45
26 -0.29
27 -0.14
28 0.35
29 -0.14
3 -0.34
30 0.66
31 0.54
32 0.06
4 -0.43
5 -0.68
54 0.15
55 0.4
56 0.15
59 0.15
6 -0.57
7 -0.57
8 -0.57

>  <PUBCHEM_EFFECTIVE_ROTOR_COUNT>  (1) 
6.4

>  <PUBCHEM_PHARMACOPHORE_FEATURES>  (1) 
10
1 33 hydrophobe
1 5 acceptor
1 5 donor
1 6 acceptor
1 7 acceptor
1 8 acceptor
5 9 10 13 14 16 rings
6 11 12 18 19 21 22 rings
6 18 22 26 27 29 31 rings
6 9 10 11 12 15 17 rings

>  <PUBCHEM_HEAVY_ATOM_COUNT>  (1) 
33

>  <PUBCHEM_ATOM_DEF_STEREO_COUNT>  (1) 
4

>  <PUBCHEM_ATOM_UDEF_STEREO_COUNT>  (1) 
5

>  <PUBCHEM_BOND_DEF_STEREO_COUNT>  (1) 
0

>  <PUBCHEM_BOND_UDEF_STEREO_COUNT>  (1) 
0

>  <PUBCHEM_ISOTOPIC_ATOM_COUNT>  (1) 
0

>  <PUBCHEM_COMPONENT_COUNT>  (1) 
1

>  <PUBCHEM_CACTVS_TAUTO_COUNT>  (1) 
2

>  <PUBCHEM_CONFORMER_ID>  (1) 
0000BC2F00000002

>  <PUBCHEM_MMFF94_ENERGY>  (1) 
116.8041

>  <PUBCHEM_FEATURE_SELFOVERLAP>  (1) 
50.845

>  <PUBCHEM_SHAPE_FINGERPRINT>  (1) 
10498660 4 17022897935068812172
11227688 84 18412259558517047903
11578080 2 16588862352908267935
12236239 1 17775014487202964833
12403259 415 17822013133259846477
12553582 1 18409728443598621752
12616971 3 17703799131961985600
12788726 201 17557707958652064369
13224815 77 18186802473920232657
13583140 156 17095233739639170233
13782708 43 17489585637310673358
14856354 85 18266765570032535755
15163728 17 15792281580247355437
15788980 27 17060623274070832762
17349148 13 17989492917914569042
1813 80 13902188209667328176
20775438 99 17626633314587187222
21033648 144 18040149639030663060
21033648 29 16226041189226675532
21709351 56 18342460300979211396
22182313 1 18188767395672531137
22393880 68 17894628166813553378
23559900 14 18408323298183000536
23569914 152 17618761584199454527
23569914 2 15866852864225342412
23598288 3 18059861636702640305
3380486 145 17684115825447630203
350125 39 18336844033996267688
46194498 28 17532939526158065909
497634 4 18114473301058746417
5104073 3 18412548686903330616
563151 248 16271659983226216111
6086070 43 17530952597452044452
633830 44 18409731742138753608
70251023 43 17630588219716280009
7970288 3 16557037173557587055
9849439 229 13914264004700616503

>  <PUBCHEM_SHAPE_MULTIPOLES>  (1) 
637.1
12.86
2.66
2.45
4.86
0.51
-1.98
-3.02
-6.18
0.13
0.81
-3.94
-0.72
0.51

>  <PUBCHEM_SHAPE_SELFOVERLAP>  (1) 
1370.861

>  <PUBCHEM_SHAPE_VOLUME>  (1) 
355.6

>  <PUBCHEM_COORDINATE_TYPE>  (1) 
2
5
10

$$$$
