48189
     RDKit          3D

 15 15  0  0  1  0  0  0  0  0999 V2000
    2.5961    0.3423    0.2803 O   0  0  0  0  0  0  0  0  0  0  0  0
    1.2362    1.1379   -1.3999 O   0  0  0  0  0  0  0  0  0  0  0  0
   -0.4589   -4.1039    0.0068 N   0  0  0  0  0  0  0  0  0  0  0  0
    0.3408   -0.3627    0.3118 C   0  0  0  0  0  0  0  0  0  0  0  0
    0.3967   -1.8154   -0.2090 C   0  0  0  0  0  0  0  0  0  0  0  0
   -1.0313    0.2836    0.1953 C   0  0  0  0  0  0  0  0  0  0  0  0
   -0.5447   -2.7533    0.5520 C   0  0  0  0  0  0  0  0  0  0  0  0
    1.4107    0.4681   -0.3902 C   0  0  0  0  0  0  0  0  0  0  0  0
   -1.4338    1.1762    1.1682 C   0  0  0  0  0  0  0  0  0  0  0  0
   -1.8334   -0.0411   -0.8802 C   0  0  0  0  0  0  0  0  0  0  0  0
   -2.6919    1.7690    1.0614 C   0  0  0  0  0  0  0  0  0  0  0  0
   -3.0914    0.5518   -0.9870 C   0  0  0  0  0  0  0  0  0  0  0  0
   -3.5207    1.4569   -0.0161 C   0  0  0  0  0  0  0  0  0  0  0  0
    3.6994    1.0671   -0.2729 C   0  0  0  0  0  0  0  0  0  0  0  0
    4.9264    0.8237    0.5796 C   0  0  0  0  0  0  0  0  0  0  0  0
  1  8  1  0
  1 14  1  0
  2  8  2  0
  3  7  1  0
  4  5  1  0
  4  6  1  0
  4  8  1  0
  5  7  1  0
  6  9  2  0
  6 10  1  0
  9 11  1  0
 10 12  2  0
 11 13  2  0
 12 13  1  0
 14 15  1  0
M  END
>  <PUBCHEM_COMPOUND_CID>  (1) 
48189

>  <PUBCHEM_CONFORMER_RMSD>  (1) 
0.6

>  <PUBCHEM_CONFORMER_DIVERSEORDER>  (1) 
2
112
27
120
90
101
129
127
86
15
103
62
51
121
78
14
19
60
70
63
100
13
76
114
16
67
4
102
31
84
83
17
88
91
82
104
35
56
110
43
71
34
8
52
117
1
61
45
75
59
21
54
125
96
122
53
128
24
107
118
33
5
124
92
64
57
3
40
73
111
123
109
44
38
46
119
6
89
106
12
22
68
72
41
30
37
66
115
99
74
29
79
48
42
11
49
10
55
39
65
18
113
108
69
28
50
77
95
97
93
7
47
80
81
87
25
32
23
126
26
9
116
85
98
20
94
58
105
36

>  <PUBCHEM_MMFF94_PARTIAL_CHARGES>  (1) 
20
1 -0.43
10 -0.15
11 -0.15
12 -0.15
13 -0.15
14 0.28
2 -0.57
21 0.15
22 0.15
23 0.15
24 0.15
25 0.36
26 0.36
27 0.15
3 -0.99
4 0.2
6 -0.14
7 0.27
8 0.66
9 -0.15

>  <PUBCHEM_EFFECTIVE_ROTOR_COUNT>  (1) 
6

>  <PUBCHEM_PHARMACOPHORE_FEATURES>  (1) 
4
1 2 acceptor
1 3 cation
1 3 donor
6 6 9 10 11 12 13 rings

>  <PUBCHEM_HEAVY_ATOM_COUNT>  (1) 
15

>  <PUBCHEM_ATOM_DEF_STEREO_COUNT>  (1) 
0

>  <PUBCHEM_ATOM_UDEF_STEREO_COUNT>  (1) 
1

>  <PUBCHEM_BOND_DEF_STEREO_COUNT>  (1) 
0

>  <PUBCHEM_BOND_UDEF_STEREO_COUNT>  (1) 
0

>  <PUBCHEM_ISOTOPIC_ATOM_COUNT>  (1) 
0

>  <PUBCHEM_COMPONENT_COUNT>  (1) 
1

>  <PUBCHEM_CACTVS_TAUTO_COUNT>  (1) 
1

>  <PUBCHEM_CONFORMER_ID>  (1) 
0000BC3D00000002

>  <PUBCHEM_MMFF94_ENERGY>  (1) 
25.7461

>  <PUBCHEM_FEATURE_SELFOVERLAP>  (1) 
20.297

>  <PUBCHEM_SHAPE_FINGERPRINT>  (1) 
11357001 24 18191592071315066402
12119455 92 17967805029307713348
121448 382 18272365403863384891
12326174 3 17751922411042305123
124424 183 15936125261633681357
12500047 106 18410851105696065976
12788726 201 17902236946692959994
13380535 76 18342739615729641038
14178000 22 18408594864453692916
15309172 13 18260267430057116412
15775835 57 18201441320383115321
16945 1 18193854853286033879
18186145 218 18341339885782444692
19021347 4 18410580590832647763
19765921 60 18130511825253836169
201361 129 18054797186732874929
204376 136 18408326574826166416
20510252 161 18270121356281163227
21339142 149 18131069384970364584
21499 59 18409727327017835773
21524375 3 18271805696499508692
23402539 116 18200583799960229813
23419403 2 16841345685879533683
23552423 10 18053660279341570263
257057 1 17402894921569173110
2748010 2 18191612811585563827
305870 269 18266180539092874769
3071541 236 18338230578452192722
3091708 16 9122881617615594986
3250762 1 17621306270892106177
474229 33 18337112362637605003
5706482 22 18409730676933947802
633830 44 18129951057138682156
6992083 37 18040998500788482444
7364860 26 18052540958913330859
81228 2 17975429218944131227
84936 182 18128250078253981240

>  <PUBCHEM_SHAPE_MULTIPOLES>  (1) 
291.97
6.39
2.98
1.07
6.7
4.93
0.06
-5.28
-0.29
-0.81
-0.52
-0.38
-0.34
-0.34

>  <PUBCHEM_SHAPE_SELFOVERLAP>  (1) 
588.151

>  <PUBCHEM_SHAPE_VOLUME>  (1) 
170.8

>  <PUBCHEM_COORDINATE_TYPE>  (1) 
2
5
10

$$$$
