48199
     RDKit          3D

 14 13  0  0  0  0  0  0  0  0999 V2000
   -0.6795   -0.1830    0.9403 S   0  0  0  0  0  0  0  0  0  0  0  0
    1.8010    0.9385   -1.6079 O   0  0  0  0  0  0  0  0  0  0  0  0
    1.7422    1.7353    0.5541 N   0  0  0  0  0  0  0  0  0  0  0  0
    0.9456   -0.5531    0.1373 C   0  0  0  0  0  0  0  0  0  0  0  0
    0.7141   -1.5805   -1.0044 C   0  0  0  0  0  0  0  0  0  0  0  0
    1.8921   -1.1817    1.1964 C   0  0  0  0  0  0  0  0  0  0  0  0
    1.5357    0.7644   -0.4184 C   0  0  0  0  0  0  0  0  0  0  0  0
   -1.5074    0.4819   -0.5164 C   0  0  0  0  0  0  0  0  0  0  0  0
   -2.9452    0.9197   -0.2384 C   0  0  0  0  0  0  0  0  0  0  0  0
    0.0622   -2.8989   -0.5915 C   0  0  0  0  0  0  0  0  0  0  0  0
    3.3056   -1.5064    0.7171 C   0  0  0  0  0  0  0  0  0  0  0  0
   -3.8593   -0.2221    0.2145 C   0  0  0  0  0  0  0  0  0  0  0  0
   -5.2958    0.2514    0.3776 C   0  0  0  0  0  0  0  0  0  0  0  0
    2.2887    3.0346    0.2399 C   0  0  0  0  0  0  0  0  0  0  0  0
  1  4  1  0
  1  8  1  0
  2  7  2  0
  3  7  1  0
  3 14  1  0
  4  5  1  0
  4  6  1  0
  4  7  1  0
  5 10  1  0
  6 11  1  0
  8  9  1  0
  9 12  1  0
 12 13  1  0
M  END
>  <PUBCHEM_COMPOUND_CID>  (1) 
48199

>  <PUBCHEM_CONFORMER_RMSD>  (1) 
0.8

>  <PUBCHEM_CONFORMER_DIVERSEORDER>  (1) 
1
20
52
37
34
7
25
51
36
14
24
55
41
49
5
31
39
35
40
27
15
23
30
46
3
54
38
8
48
29
19
44
43
28
47
56
10
21
4
13
50
32
26
11
33
42
12
18
45
53
2
16
9
22
17
6

>  <PUBCHEM_MMFF94_PARTIAL_CHARGES>  (1) 
8
1 -0.46
14 0.3
2 -0.57
3 -0.73
31 0.37
4 0.29
7 0.57
8 0.23

>  <PUBCHEM_EFFECTIVE_ROTOR_COUNT>  (1) 
8

>  <PUBCHEM_PHARMACOPHORE_FEATURES>  (1) 
7
1 10 hydrophobe
1 11 hydrophobe
1 13 hydrophobe
1 2 acceptor
1 3 donor
3 8 9 12 hydrophobe
4 1 4 5 6 hydrophobe

>  <PUBCHEM_HEAVY_ATOM_COUNT>  (1) 
14

>  <PUBCHEM_ATOM_DEF_STEREO_COUNT>  (1) 
0

>  <PUBCHEM_ATOM_UDEF_STEREO_COUNT>  (1) 
0

>  <PUBCHEM_BOND_DEF_STEREO_COUNT>  (1) 
0

>  <PUBCHEM_BOND_UDEF_STEREO_COUNT>  (1) 
0

>  <PUBCHEM_ISOTOPIC_ATOM_COUNT>  (1) 
0

>  <PUBCHEM_COMPONENT_COUNT>  (1) 
1

>  <PUBCHEM_CACTVS_TAUTO_COUNT>  (1) 
2

>  <PUBCHEM_CONFORMER_ID>  (1) 
0000BC4700000001

>  <PUBCHEM_MMFF94_ENERGY>  (1) 
23.2892

>  <PUBCHEM_FEATURE_SELFOVERLAP>  (1) 
35.591

>  <PUBCHEM_SHAPE_FINGERPRINT>  (1) 
10219947 1 18268982094947444338
13134695 92 18190160318191534716
13380536 305 18342462542809552702
14344429 50 18410575067778667380
14993402 34 18341332202339250438
15775835 57 18338236084373432253
16945 1 18191841501598595730
20511035 2 18187370973192965658
20559304 39 18270684160442995145
20645477 70 18408880716555907743
20671657 1 18337110171798147380
20708731 107 18340779130430704591
20820808 20 18130229358261109697
21501502 16 18269826683186625199
21524375 3 18263932209729108116
23419403 2 17752736118614502820
23558518 356 17545034266117853596
3060560 45 18271816717348537613
3286 77 18260264110226608269
449060 62 18187654643066945133
7364860 26 18410011035330041688
81228 2 17113834440060833496

>  <PUBCHEM_SHAPE_MULTIPOLES>  (1) 
281.11
6.65
2.71
1.14
10.98
0.49
0.11
0.98
-1.39
-2.83
0.26
-0.52
-0.16
-0.26

>  <PUBCHEM_SHAPE_SELFOVERLAP>  (1) 
507.691

>  <PUBCHEM_SHAPE_VOLUME>  (1) 
182.6

>  <PUBCHEM_COORDINATE_TYPE>  (1) 
2
5
10

$$$$
