48192
     RDKit          3D

 16 16  0  0  0  0  0  0  0  0999 V2000
    5.4107    0.1480    0.0833 O   0  0  0  0  0  0  0  0  0  0  0  0
   -0.9813    0.0494    0.5182 O   0  0  0  0  0  0  0  0  0  0  0  0
   -1.9012    1.9633   -0.3855 O   0  0  0  0  0  0  0  0  0  0  0  0
    2.6219   -0.3540   -0.1863 N   0  0  0  0  0  0  0  0  0  0  0  0
   -4.1657   -0.4094   -0.0838 C   0  0  0  0  0  0  0  0  0  0  0  0
    3.1254    0.9133    0.3613 C   0  0  0  0  0  0  0  0  0  0  0  0
    3.5741   -1.4376    0.0948 C   0  0  0  0  0  0  0  0  0  0  0  0
    1.3031   -0.6677    0.3595 C   0  0  0  0  0  0  0  0  0  0  0  0
   -3.2827    0.4253    0.8694 C   0  0  0  0  0  0  0  0  0  0  0  0
    4.5068    1.2130   -0.2136 C   0  0  0  0  0  0  0  0  0  0  0  0
    4.9454   -1.0824   -0.4728 C   0  0  0  0  0  0  0  0  0  0  0  0
   -5.4624   -0.7773    0.6629 C   0  0  0  0  0  0  0  0  0  0  0  0
   -3.4576   -1.7086   -0.5022 C   0  0  0  0  0  0  0  0  0  0  0  0
   -4.5386    0.3946   -1.3406 C   0  0  0  0  0  0  0  0  0  0  0  0
    0.2956    0.4054   -0.0211 C   0  0  0  0  0  0  0  0  0  0  0  0
   -1.9937    0.9249    0.2565 C   0  0  0  0  0  0  0  0  0  0  0  0
  1 10  1  0
  1 11  1  0
  2 15  1  0
  2 16  1  0
  3 16  2  0
  4  6  1  0
  4  7  1  0
  4  8  1  0
  5  9  1  0
  5 12  1  0
  5 13  1  0
  5 14  1  0
  6 10  1  0
  7 11  1  0
  8 15  1  0
  9 16  1  0
M  END
>  <PUBCHEM_COMPOUND_CID>  (1) 
48192

>  <PUBCHEM_CONFORMER_RMSD>  (1) 
0.8

>  <PUBCHEM_CONFORMER_DIVERSEORDER>  (1) 
1
11
15
47
68
113
5
110
99
10
32
111
21
54
62
60
28
22
104
42
33
37
52
35
93
55
112
17
6
101
46
98
88
100
38
70
103
24
57
2
76
18
7
66
74
92
78
109
40
82
77
4
106
45
53
14
3
25
95
41
75
56
49
81
9
114
58
59
16
73
36
27
51
29
72
105
86
84
13
116
30
108
12
102
85
64
97
39
80
50
96
48
91
44
90
43
94
19
65
107
20
79
8
115
83
87
31
67
63
69
61
34
89
71
26
23

>  <PUBCHEM_MMFF94_PARTIAL_CHARGES>  (1) 
12
1 -0.56
10 0.28
11 0.28
15 0.28
16 0.66
2 -0.43
3 -0.57
4 -0.81
6 0.27
7 0.27
8 0.27
9 0.06

>  <PUBCHEM_EFFECTIVE_ROTOR_COUNT>  (1) 
7.2

>  <PUBCHEM_PHARMACOPHORE_FEATURES>  (1) 
5
1 1 acceptor
1 3 acceptor
1 4 cation
4 5 12 13 14 hydrophobe
6 1 4 6 7 10 11 rings

>  <PUBCHEM_HEAVY_ATOM_COUNT>  (1) 
16

>  <PUBCHEM_ATOM_DEF_STEREO_COUNT>  (1) 
0

>  <PUBCHEM_ATOM_UDEF_STEREO_COUNT>  (1) 
0

>  <PUBCHEM_BOND_DEF_STEREO_COUNT>  (1) 
0

>  <PUBCHEM_BOND_UDEF_STEREO_COUNT>  (1) 
0

>  <PUBCHEM_ISOTOPIC_ATOM_COUNT>  (1) 
0

>  <PUBCHEM_COMPONENT_COUNT>  (1) 
1

>  <PUBCHEM_CACTVS_TAUTO_COUNT>  (1) 
1

>  <PUBCHEM_CONFORMER_ID>  (1) 
0000BC4000000001

>  <PUBCHEM_MMFF94_ENERGY>  (1) 
27.7085

>  <PUBCHEM_FEATURE_SELFOVERLAP>  (1) 
25.371

>  <PUBCHEM_SHAPE_FINGERPRINT>  (1) 
10366900 7 16917062265952409139
10680689 15 18040720251363709841
10968037 39 18410575115408494439
11045515 52 18333729122130190677
11089746 13 13767930143677342598
11287383 113 18187086182353634138
117890 112 12179840606592374542
12107183 9 17550397241123964362
124424 183 12035451640152649487
12596602 18 12679454292086153798
128620 24 18187365436885032703
13167823 11 18413389813193050666
13288520 33 18272934916859007363
13533116 47 16805592643177731904
14123238 8 17917992776308690788
1420 363 18334020501131985763
14251718 22 18040436602969945566
14251764 18 18060708295453077115
17834072 33 18411420631012217908
17834076 25 15140679180761821720
17844677 252 18411426093894685364
19489759 90 16081084883535155881
200 152 18272650138757183561
20645477 56 10087634892788467363
20645477 70 18411422770101681674
22646028 1 18342176648327214746
23402539 116 17894908529367087637
23402655 69 18334854983065049772
23557571 272 18342743974683973389
23559900 14 18412537743120788424
2871803 45 18334572421551290554
3268164 11 17458338620128022597
4214541 1 18341614771941758480
4325135 7 18412830209229980876
5104073 3 18341892931583402144
5283173 99 17968365741926442069
542803 24 14418135105984156990
58051976 378 18272652324800767222
5924683 9 8718241547886127153
7062679 117 18342741848796286222
7495541 125 17703785951218966570
77779 3 18342460318169363640

>  <PUBCHEM_SHAPE_MULTIPOLES>  (1) 
306.68
13.54
1.52
0.87
3.32
0.02
0.11
2.28
0.97
0.16
0.15
-0.85
-0.03
0.2

>  <PUBCHEM_SHAPE_SELFOVERLAP>  (1) 
595.109

>  <PUBCHEM_SHAPE_VOLUME>  (1) 
186.5

>  <PUBCHEM_COORDINATE_TYPE>  (1) 
2
5
10

$$$$
