48206
     RDKit          3D

 14 13  0  0  0  0  0  0  0  0999 V2000
   -0.6265    0.3813    0.8216 S   0  0  0  0  0  0  0  0  0  0  0  0
   -0.6655   -0.5442    1.9273 O   0  0  0  0  0  0  0  0  0  0  0  0
   -0.7248    1.8077    1.0123 O   0  0  0  0  0  0  0  0  0  0  0  0
    1.0813   -1.8185   -1.5905 O   0  0  0  0  0  0  0  0  0  0  0  0
    0.9802   -2.2743    0.6457 N   0  0  0  0  0  0  0  0  0  0  0  0
    0.9124    0.0763   -0.0622 C   0  0  0  0  0  0  0  0  0  0  0  0
    0.9418    0.9687   -1.3340 C   0  0  0  0  0  0  0  0  0  0  0  0
    2.1004    0.4964    0.8470 C   0  0  0  0  0  0  0  0  0  0  0  0
   -1.8447   -0.1110   -0.3650 C   0  0  0  0  0  0  0  0  0  0  0  0
    1.0004   -1.4144   -0.4313 C   0  0  0  0  0  0  0  0  0  0  0  0
   -3.2519    0.0658    0.1807 C   0  0  0  0  0  0  0  0  0  0  0  0
    0.9047    2.4738   -1.0853 C   0  0  0  0  0  0  0  0  0  0  0  0
    3.4912    0.2673    0.2626 C   0  0  0  0  0  0  0  0  0  0  0  0
   -4.2989   -0.3747   -0.8287 C   0  0  0  0  0  0  0  0  0  0  0  0
  1  2  2  0
  1  3  2  0
  1  6  1  0
  1  9  1  0
  4 10  2  0
  5 10  1  0
  6  7  1  0
  6  8  1  0
  6 10  1  0
  7 12  1  0
  8 13  1  0
  9 11  1  0
 11 14  1  0
M  END
>  <PUBCHEM_COMPOUND_CID>  (1) 
48206

>  <PUBCHEM_CONFORMER_RMSD>  (1) 
0.6

>  <PUBCHEM_CONFORMER_DIVERSEORDER>  (1) 
5
45
2
41
44
7
8
20
26
32
24
37
19
30
33
1
21
12
47
42
27
17
34
18
40
6
15
49
16
10
28
43
9
23
39
22
25
46
38
4
3
29
36
50
14
11
31
48
13
35

>  <PUBCHEM_MMFF94_PARTIAL_CHARGES>  (1) 
10
1 1.09
10 0.57
2 -0.65
3 -0.65
32 0.37
33 0.37
4 -0.57
5 -0.8
6 0.17
9 0.11

>  <PUBCHEM_EFFECTIVE_ROTOR_COUNT>  (1) 
6

>  <PUBCHEM_PHARMACOPHORE_FEATURES>  (1) 
7
1 12 hydrophobe
1 13 hydrophobe
1 14 hydrophobe
1 2 acceptor
1 3 acceptor
1 4 acceptor
1 5 donor

>  <PUBCHEM_HEAVY_ATOM_COUNT>  (1) 
14

>  <PUBCHEM_ATOM_DEF_STEREO_COUNT>  (1) 
0

>  <PUBCHEM_ATOM_UDEF_STEREO_COUNT>  (1) 
0

>  <PUBCHEM_BOND_DEF_STEREO_COUNT>  (1) 
0

>  <PUBCHEM_BOND_UDEF_STEREO_COUNT>  (1) 
0

>  <PUBCHEM_ISOTOPIC_ATOM_COUNT>  (1) 
0

>  <PUBCHEM_COMPONENT_COUNT>  (1) 
1

>  <PUBCHEM_CACTVS_TAUTO_COUNT>  (1) 
2

>  <PUBCHEM_CONFORMER_ID>  (1) 
0000BC4E00000005

>  <PUBCHEM_MMFF94_ENERGY>  (1) 
26.3461

>  <PUBCHEM_FEATURE_SELFOVERLAP>  (1) 
35.539

>  <PUBCHEM_SHAPE_FINGERPRINT>  (1) 
10219947 1 18333446556104406476
12423570 1 9350259866319983954
14252887 29 15266789935237897999
14344429 50 16877661275002099829
14993402 34 18334582382018371516
15207287 21 17749385970628890322
15757776 16 18272923925763643671
16945 1 18116410674405544140
18511873 20 8214139681106174592
19010151 120 17968365763195147176
20201158 50 18260266352283952331
20473742 2 17750223875978158252
20511035 2 17533789465878758212
21501502 16 18048316644071780928
21922407 69 17130721469631774522
21947302 44 17677055771128205301
22344851 262 18411693318074527319
23402539 116 18260534607003153177
23419403 2 17621551139577560737
241688 4 17828772741716117968
3250762 1 17686887329331028404
3286 77 18059850620079338330
5084963 1 17203894067650690512

>  <PUBCHEM_SHAPE_MULTIPOLES>  (1) 
269.37
4.83
2.01
1.44
4.73
0.15
-0.05
-0.11
0.57
-1.05
0.48
-0.07
-0.07
-0.13

>  <PUBCHEM_SHAPE_SELFOVERLAP>  (1) 
504.213

>  <PUBCHEM_SHAPE_VOLUME>  (1) 
169.1

>  <PUBCHEM_COORDINATE_TYPE>  (1) 
2
5
10

$$$$
