4820
     RDKit          3D

 20 22  0  0  0  0  0  0  0  0999 V2000
   -0.0016    0.0945    1.2796 O   0  0  0  0  0  0  0  0  0  0  0  0
   -3.6924    0.0325   -0.8325 N   0  0  0  0  0  0  0  0  0  0  0  0
    1.1528   -0.0278   -0.7625 N   0  0  0  0  0  0  0  0  0  0  0  0
   -2.5034    0.0160    0.0643 C   0  0  0  0  0  0  0  0  0  0  0  0
   -2.5706    1.2957    0.9074 C   0  0  0  0  0  0  0  0  0  0  0  0
   -2.6344   -1.2647    0.9019 C   0  0  0  0  0  0  0  0  0  0  0  0
   -4.3747    1.3177   -0.6305 C   0  0  0  0  0  0  0  0  0  0  0  0
   -4.5463   -1.1075   -0.4654 C   0  0  0  0  0  0  0  0  0  0  0  0
   -4.0159    1.7427    0.7818 C   0  0  0  0  0  0  0  0  0  0  0  0
   -3.5762   -2.1309    0.0878 C   0  0  0  0  0  0  0  0  0  0  0  0
   -1.2312   -0.0208   -0.7884 C   0  0  0  0  0  0  0  0  0  0  0  0
    0.0276    0.0234    0.0554 C   0  0  0  0  0  0  0  0  0  0  0  0
    2.5106   -0.0096   -0.3640 C   0  0  0  0  0  0  0  0  0  0  0  0
    3.1684    1.2052   -0.2413 C   0  0  0  0  0  0  0  0  0  0  0  0
    3.1603   -1.2068   -0.1030 C   0  0  0  0  0  0  0  0  0  0  0  0
    4.5067    1.2231    0.1514 C   0  0  0  0  0  0  0  0  0  0  0  0
    4.4986   -1.1888    0.2900 C   0  0  0  0  0  0  0  0  0  0  0  0
    2.4836    2.5041   -0.5187 C   0  0  0  0  0  0  0  0  0  0  0  0
    2.4665   -2.5243   -0.2305 C   0  0  0  0  0  0  0  0  0  0  0  0
    5.1718    0.0262    0.4173 C   0  0  0  0  0  0  0  0  0  0  0  0
  1 12  2  0
  2  4  1  0
  2  7  1  0
  2  8  1  0
  3 12  1  0
  3 13  1  0
  4  5  1  0
  4  6  1  0
  4 11  1  0
  5  9  1  0
  6 10  1  0
  7  9  1  0
  8 10  1  0
 11 12  1  0
 13 14  2  0
 13 15  1  0
 14 16  1  0
 14 18  1  0
 15 17  2  0
 15 19  1  0
 16 20  2  0
 17 20  1  0
M  END
>  <PUBCHEM_COMPOUND_CID>  (1) 
4820

>  <PUBCHEM_CONFORMER_RMSD>  (1) 
0.8

>  <PUBCHEM_CONFORMER_DIVERSEORDER>  (1) 
1
10
8
6
5
9
13
12
3
11
7
2
4

>  <PUBCHEM_MMFF94_PARTIAL_CHARGES>  (1) 
20
1 -0.57
11 0.06
12 0.57
13 0.12
14 -0.14
15 -0.14
16 -0.15
17 -0.15
18 0.14
19 0.14
2 -0.81
20 -0.15
3 -0.55
35 0.37
36 0.15
37 0.15
4 0.27
44 0.15
7 0.27
8 0.27

>  <PUBCHEM_EFFECTIVE_ROTOR_COUNT>  (1) 
5.2

>  <PUBCHEM_PHARMACOPHORE_FEATURES>  (1) 
6
1 1 acceptor
1 2 cation
1 3 donor
5 2 4 5 7 9 rings
5 2 4 6 8 10 rings
6 13 14 15 16 17 20 rings

>  <PUBCHEM_HEAVY_ATOM_COUNT>  (1) 
20

>  <PUBCHEM_ATOM_DEF_STEREO_COUNT>  (1) 
0

>  <PUBCHEM_ATOM_UDEF_STEREO_COUNT>  (1) 
0

>  <PUBCHEM_BOND_DEF_STEREO_COUNT>  (1) 
0

>  <PUBCHEM_BOND_UDEF_STEREO_COUNT>  (1) 
0

>  <PUBCHEM_ISOTOPIC_ATOM_COUNT>  (1) 
0

>  <PUBCHEM_COMPONENT_COUNT>  (1) 
1

>  <PUBCHEM_CACTVS_TAUTO_COUNT>  (1) 
2

>  <PUBCHEM_CONFORMER_ID>  (1) 
000012D400000001

>  <PUBCHEM_MMFF94_ENERGY>  (1) 
71.8076

>  <PUBCHEM_FEATURE_SELFOVERLAP>  (1) 
30.88

>  <PUBCHEM_SHAPE_FINGERPRINT>  (1) 
10014705 185 18260827077607974605
10616163 171 18341897419671745167
11315181 36 18335701667311477240
11370993 70 18409165528063363522
11405975 8 18407762529661281633
12107183 9 17764593109815342387
12236239 1 17988922263190543934
12507557 5 18410854382250022360
12633257 1 18187641362985627594
128620 24 16988848293096827516
13167823 11 18411417327871540166
13224815 77 17203335502336456686
13533116 47 18342454807853293619
13583140 156 17917422150905885273
13631057 29 18197214956657880023
13675066 3 17676216740449968069
14004511 7 17676209065359045993
14289901 80 18340208595448825027
14341114 176 18411987961452537872
15196674 1 18410575089380208278
15375358 24 18334013886924801098
15788980 27 18409732858867004858
15848702 151 18334294257894112509
17349148 13 18260545662269981186
17492 89 18412548712431040551
17834072 33 18411979178223403111
17844677 252 18412550928654647004
1813 80 16950290580774095884
18186145 218 17894912914555051096
18681886 176 18272366508324055834
19050596 39 18413111653719894576
19489759 90 18343578534189842193
200 152 18343298184420684007
20645477 56 18186801353587954477
20645477 70 18342739581306872270
20715895 44 17984143656496903393
21065198 57 18408323289218246574
21709351 56 18409727383110776516
23402539 116 18260260850277871860
23559900 14 18341610374296167498
26918003 58 18411132520321681914
300161 21 18410568457665762701
351380 180 18335698355818007908
3545911 37 18411421695805625453
4214541 1 18409448081218718621
474 4 18334295405035716484
4921388 177 17603591863179580627
5104073 3 18410292514770382506
5283173 99 18261944164294965965
543358 83 18338801096253995122
58051976 100 18410859837042929503
5924683 9 18411980308396232159
633830 44 16443070495061289756
67856867 119 18338795736151004112
7495541 125 17774438424883154739
77779 3 18410575093311061838
9709674 26 18410018736080393886
9971528 1 18336548231699916132
9981440 41 17396706857180338360

>  <PUBCHEM_SHAPE_MULTIPOLES>  (1) 
395.76
11.38
2.28
0.94
1.72
0.18
-0.09
-0.27
-0.2
0.14
0.03
-0.46
-0.1
-0.33

>  <PUBCHEM_SHAPE_SELFOVERLAP>  (1) 
842.811

>  <PUBCHEM_SHAPE_VOLUME>  (1) 
223.3

>  <PUBCHEM_COORDINATE_TYPE>  (1) 
2
5
10

$$$$
