48208
     RDKit          3D

 17 16  0  0  0  0  0  0  0  0999 V2000
   -1.1086   -0.9316   -0.7485 S   0  0  0  0  0  0  0  0  0  0  0  0
   -2.4432   -0.7709   -1.2397 O   0  0  0  0  0  0  0  0  0  0  0  0
    0.0313   -1.1226   -1.5926 O   0  0  0  0  0  0  0  0  0  0  0  0
    0.6815    0.3852    2.1357 O   0  0  0  0  0  0  0  0  0  0  0  0
    1.7947    0.2562    0.1359 N   0  0  0  0  0  0  0  0  0  0  0  0
   -0.7542    0.5992    0.2104 C   0  0  0  0  0  0  0  0  0  0  0  0
   -1.9275    0.7430    1.2201 C   0  0  0  0  0  0  0  0  0  0  0  0
   -0.7924    1.7598   -0.8221 C   0  0  0  0  0  0  0  0  0  0  0  0
    0.6314    0.4023    0.8970 C   0  0  0  0  0  0  0  0  0  0  0  0
   -1.0975   -2.1406    0.5338 C   0  0  0  0  0  0  0  0  0  0  0  0
   -1.8380    1.9441    2.1561 C   0  0  0  0  0  0  0  0  0  0  0  0
   -2.1530    2.0238   -1.4604 C   0  0  0  0  0  0  0  0  0  0  0  0
    2.0432    0.7606   -1.2086 C   0  0  0  0  0  0  0  0  0  0  0  0
    2.8936   -0.5391    0.6799 C   0  0  0  0  0  0  0  0  0  0  0  0
   -1.3716   -3.5257   -0.0076 C   0  0  0  0  0  0  0  0  0  0  0  0
    2.6451    2.1551   -1.1693 C   0  0  0  0  0  0  0  0  0  0  0  0
    2.7652   -1.9990    0.2798 C   0  0  0  0  0  0  0  0  0  0  0  0
  1  2  2  0
  1  3  2  0
  1  6  1  0
  1 10  1  0
  4  9  2  0
  5  9  1  0
  5 13  1  0
  5 14  1  0
  6  7  1  0
  6  8  1  0
  6  9  1  0
  7 11  1  0
  8 12  1  0
 10 15  1  0
 13 16  1  0
 14 17  1  0
M  END
>  <PUBCHEM_COMPOUND_CID>  (1) 
48208

>  <PUBCHEM_CONFORMER_RMSD>  (1) 
0.8

>  <PUBCHEM_CONFORMER_DIVERSEORDER>  (1) 
2
17
10
9
23
22
24
16
6
11
18
21
3
7
13
14
5
8
12
1
19
20
25
4
15

>  <PUBCHEM_MMFF94_PARTIAL_CHARGES>  (1) 
10
1 1.09
10 0.11
13 0.3
14 0.3
2 -0.65
3 -0.65
4 -0.57
5 -0.66
6 0.17
9 0.57

>  <PUBCHEM_EFFECTIVE_ROTOR_COUNT>  (1) 
8

>  <PUBCHEM_PHARMACOPHORE_FEATURES>  (1) 
5
1 11 hydrophobe
1 12 hydrophobe
1 2 acceptor
1 3 acceptor
1 4 acceptor

>  <PUBCHEM_HEAVY_ATOM_COUNT>  (1) 
17

>  <PUBCHEM_ATOM_DEF_STEREO_COUNT>  (1) 
0

>  <PUBCHEM_ATOM_UDEF_STEREO_COUNT>  (1) 
0

>  <PUBCHEM_BOND_DEF_STEREO_COUNT>  (1) 
0

>  <PUBCHEM_BOND_UDEF_STEREO_COUNT>  (1) 
0

>  <PUBCHEM_ISOTOPIC_ATOM_COUNT>  (1) 
0

>  <PUBCHEM_COMPONENT_COUNT>  (1) 
1

>  <PUBCHEM_CACTVS_TAUTO_COUNT>  (1) 
1

>  <PUBCHEM_CONFORMER_ID>  (1) 
0000BC5000000002

>  <PUBCHEM_MMFF94_ENERGY>  (1) 
55.8814

>  <PUBCHEM_FEATURE_SELFOVERLAP>  (1) 
25.389

>  <PUBCHEM_SHAPE_FINGERPRINT>  (1) 
12423570 1 12597612968964603025
12592029 89 17831568782895599523
12654903 92 18045200662378402828
14142880 1 18050587414450973332
14181834 199 16761131433629468849
144361 1 17835496255340924107
14817 1 12922592201992271219
15852999 172 18055042433829105758
16945 1 18191577773347598461
17492 54 16381704848713722470
18981168 100 14996295725124087534
20082192 1 18335129891300619400
20645476 183 17843151167089627936
20711985 344 17774177806114561497
22344851 341 17769669598325217443
23419403 2 17196520802704340969
23559900 14 17914306041376539954
2748010 2 17829608362269313022
3060560 45 17755272614250400469
353137 74 17978236281078311668
5084963 1 18268977726749082165
528862 383 17265543443917078601
576247 118 17270900659388122042
5845 1 14926510937189276643
6992083 37 18192143798724352944
81228 2 17846224388114922745

>  <PUBCHEM_SHAPE_MULTIPOLES>  (1) 
331.11
3.84
3.15
1.86
2.34
2.13
-0.56
-0.58
0.1
-0.89
0.57
-0.73
-0.88
-0.88

>  <PUBCHEM_SHAPE_SELFOVERLAP>  (1) 
621.106

>  <PUBCHEM_SHAPE_VOLUME>  (1) 
208.1

>  <PUBCHEM_COORDINATE_TYPE>  (1) 
2
5
10

$$$$
