48202
     RDKit          3D

 11 10  0  0  0  0  0  0  0  0999 V2000
    1.1582   -0.3316    1.1346 S   0  0  0  0  0  0  0  0  0  0  0  0
   -0.5716    1.5521   -1.5862 O   0  0  0  0  0  0  0  0  0  0  0  0
   -0.4904    2.2606    0.5801 N   0  0  0  0  0  0  0  0  0  0  0  0
   -0.4052   -0.1599    0.1632 C   0  0  0  0  0  0  0  0  0  0  0  0
   -1.6044   -0.4663    1.1027 C   0  0  0  0  0  0  0  0  0  0  0  0
   -0.4012   -1.1989   -0.9914 C   0  0  0  0  0  0  0  0  0  0  0  0
   -0.4973    1.2784   -0.3890 C   0  0  0  0  0  0  0  0  0  0  0  0
   -2.9929   -0.3268    0.4812 C   0  0  0  0  0  0  0  0  0  0  0  0
   -0.2350   -2.6604   -0.5807 C   0  0  0  0  0  0  0  0  0  0  0  0
    2.3031    0.0553   -0.2032 C   0  0  0  0  0  0  0  0  0  0  0  0
    3.7368   -0.0024    0.2888 C   0  0  0  0  0  0  0  0  0  0  0  0
  1  4  1  0
  1 10  1  0
  2  7  2  0
  3  7  1  0
  4  5  1  0
  4  6  1  0
  4  7  1  0
  5  8  1  0
  6  9  1  0
 10 11  1  0
M  END
>  <PUBCHEM_COMPOUND_CID>  (1) 
48202

>  <PUBCHEM_CONFORMER_RMSD>  (1) 
0.6

>  <PUBCHEM_CONFORMER_DIVERSEORDER>  (1) 
1
21
11
24
13
15
6
3
20
19
18
7
16
17
4
2
14
22
9
23
10
8
5
12

>  <PUBCHEM_MMFF94_PARTIAL_CHARGES>  (1) 
8
1 -0.46
10 0.23
2 -0.57
24 0.37
25 0.37
3 -0.8
4 0.29
7 0.57

>  <PUBCHEM_EFFECTIVE_ROTOR_COUNT>  (1) 
5

>  <PUBCHEM_PHARMACOPHORE_FEATURES>  (1) 
7
1 11 hydrophobe
1 2 acceptor
1 3 donor
1 8 hydrophobe
1 9 hydrophobe
3 4 5 6 hydrophobe
5 1 4 5 6 10 hydrophobe

>  <PUBCHEM_HEAVY_ATOM_COUNT>  (1) 
11

>  <PUBCHEM_ATOM_DEF_STEREO_COUNT>  (1) 
0

>  <PUBCHEM_ATOM_UDEF_STEREO_COUNT>  (1) 
0

>  <PUBCHEM_BOND_DEF_STEREO_COUNT>  (1) 
0

>  <PUBCHEM_BOND_UDEF_STEREO_COUNT>  (1) 
0

>  <PUBCHEM_ISOTOPIC_ATOM_COUNT>  (1) 
0

>  <PUBCHEM_COMPONENT_COUNT>  (1) 
1

>  <PUBCHEM_CACTVS_TAUTO_COUNT>  (1) 
2

>  <PUBCHEM_CONFORMER_ID>  (1) 
0000BC4A00000001

>  <PUBCHEM_MMFF94_ENERGY>  (1) 
25.3222

>  <PUBCHEM_FEATURE_SELFOVERLAP>  (1) 
39.112

>  <PUBCHEM_SHAPE_FINGERPRINT>  (1) 
10219947 1 18340779203650831467
12423570 1 15738766553694903631
12932764 1 18339068364011530386
13024252 1 16370720431088596426
13380535 220 18049719925514228671
13380536 237 17757271483376700735
13380536 243 18339354279467564167
13380536 53 18262813877622784015
137420 1 15405251606085115993
14993402 34 18340767156119905455
15219459 52 18195813100764707879
16945 1 18268730405347132066
19837323 101 18128248987543206352
21501502 16 17908990902650009651
21922407 69 16371873750172158222
2748010 2 18123750859761959326
3250762 1 17763473811489549907
5084963 1 18041003873824042504
68250623 7 17899129412698625579

>  <PUBCHEM_SHAPE_MULTIPOLES>  (1) 
219.37
3.74
2.12
1.23
2.87
0.34
0.11
0.16
-0.94
-0.65
0.62
-0.22
-0.11
0.03

>  <PUBCHEM_SHAPE_SELFOVERLAP>  (1) 
394.655

>  <PUBCHEM_SHAPE_VOLUME>  (1) 
143.2

>  <PUBCHEM_COORDINATE_TYPE>  (1) 
2
5
10

$$$$
