48205
     RDKit          3D

 13 12  0  0  0  0  0  0  0  0999 V2000
   -0.9468   -0.4465    1.0560 S   0  0  0  0  0  0  0  0  0  0  0  0
    1.1169    1.0550   -1.6626 O   0  0  0  0  0  0  0  0  0  0  0  0
    1.0391    1.8829    0.4871 N   0  0  0  0  0  0  0  0  0  0  0  0
    0.6673   -0.5247    0.1553 C   0  0  0  0  0  0  0  0  0  0  0  0
    1.7782   -0.9358    1.1600 C   0  0  0  0  0  0  0  0  0  0  0  0
    0.5662   -1.6070   -0.9543 C   0  0  0  0  0  0  0  0  0  0  0  0
    0.9620    0.8653   -0.4560 C   0  0  0  0  0  0  0  0  0  0  0  0
    3.1960   -1.0009    0.5953 C   0  0  0  0  0  0  0  0  0  0  0  0
    0.2023   -3.0132   -0.4815 C   0  0  0  0  0  0  0  0  0  0  0  0
   -1.9725    0.0121   -0.3537 C   0  0  0  0  0  0  0  0  0  0  0  0
    1.3093    3.2532    0.1198 C   0  0  0  0  0  0  0  0  0  0  0  0
   -3.3810    0.1658    0.0182 C   0  0  0  0  0  0  0  0  0  0  0  0
   -4.5370    0.2937    0.3163 C   0  0  0  0  0  0  0  0  0  0  0  0
  1  4  1  0
  1 10  1  0
  2  7  2  0
  3  7  1  0
  3 11  1  0
  4  5  1  0
  4  6  1  0
  4  7  1  0
  5  8  1  0
  6  9  1  0
 10 12  1  0
 12 13  3  0
M  END
>  <PUBCHEM_COMPOUND_CID>  (1) 
48205

>  <PUBCHEM_CONFORMER_RMSD>  (1) 
0.6

>  <PUBCHEM_CONFORMER_DIVERSEORDER>  (1) 
1
22
9
27
21
18
25
23
26
20
2
3
19
15
16
7
8
17
12
24
13
6
11
10
14
4
5

>  <PUBCHEM_MMFF94_PARTIAL_CHARGES>  (1) 
11
1 -0.46
10 0.43
11 0.3
12 -0.2
13 -0.18
2 -0.57
24 0.37
3 -0.73
30 0.18
4 0.29
7 0.57

>  <PUBCHEM_EFFECTIVE_ROTOR_COUNT>  (1) 
6

>  <PUBCHEM_PHARMACOPHORE_FEATURES>  (1) 
6
1 13 hydrophobe
1 2 acceptor
1 3 donor
1 8 hydrophobe
1 9 hydrophobe
6 1 4 5 6 10 12 hydrophobe

>  <PUBCHEM_HEAVY_ATOM_COUNT>  (1) 
13

>  <PUBCHEM_ATOM_DEF_STEREO_COUNT>  (1) 
0

>  <PUBCHEM_ATOM_UDEF_STEREO_COUNT>  (1) 
0

>  <PUBCHEM_BOND_DEF_STEREO_COUNT>  (1) 
0

>  <PUBCHEM_BOND_UDEF_STEREO_COUNT>  (1) 
0

>  <PUBCHEM_ISOTOPIC_ATOM_COUNT>  (1) 
0

>  <PUBCHEM_COMPONENT_COUNT>  (1) 
1

>  <PUBCHEM_CACTVS_TAUTO_COUNT>  (1) 
2

>  <PUBCHEM_CONFORMER_ID>  (1) 
0000BC4D00000001

>  <PUBCHEM_MMFF94_ENERGY>  (1) 
24.3575

>  <PUBCHEM_FEATURE_SELFOVERLAP>  (1) 
30.457

>  <PUBCHEM_SHAPE_FINGERPRINT>  (1) 
10219947 1 18340482270696640170
12423570 1 14173484621024946374
12725867 57 18198910197207382247
13134695 92 18189599597210147413
13294875 104 18126000701039493920
13380536 305 18341620342561645255
13380536 55 17835231629621090478
13922767 16 18261105241164750521
14344429 50 18408606963228820657
14993402 34 18413392033886256574
15490181 7 17833285481060086138
15775835 57 18265055906359705077
16945 1 18191280776190281458
20511035 2 18042695076909796219
20559304 39 18341901740740712473
20671657 1 18264772240844405677
20708731 107 18339093596533164935
20711985 344 17398400723656725923
21524375 3 18047473610511040893
22344851 12 11311762960732756198
23419403 2 17825075208956356228
23558518 356 17471854079202916484
305870 269 18192710278745557969
3060560 45 18343310275033152159
589210 1 17979063113801390962
7364860 26 18410857680848053345
81228 2 17469054262667553753

>  <PUBCHEM_SHAPE_MULTIPOLES>  (1) 
260.53
4.99
2.89
1.14
6.96
1.15
0.11
0.12
-1.04
-2.12
0.44
-0.38
-0.1
-0.22

>  <PUBCHEM_SHAPE_SELFOVERLAP>  (1) 
476.819

>  <PUBCHEM_SHAPE_VOLUME>  (1) 
166.5

>  <PUBCHEM_COORDINATE_TYPE>  (1) 
2
5
10

$$$$
