48207
     RDKit          3D

 12 11  0  0  0  0  0  0  0  0999 V2000
   -0.6549    0.3996    1.2536 S   0  0  0  0  0  0  0  0  0  0  0  0
    0.7865   -1.5773   -1.5675 O   0  0  0  0  0  0  0  0  0  0  0  0
    0.8449   -2.2609    0.6076 N   0  0  0  0  0  0  0  0  0  0  0  0
    0.8214    0.1569    0.1677 C   0  0  0  0  0  0  0  0  0  0  0  0
    2.1002    0.4249    1.0086 C   0  0  0  0  0  0  0  0  0  0  0  0
    0.7686    1.1839   -0.9964 C   0  0  0  0  0  0  0  0  0  0  0  0
    0.8152   -1.2892   -0.3717 C   0  0  0  0  0  0  0  0  0  0  0  0
   -1.9134    0.0451    0.0123 C   0  0  0  0  0  0  0  0  0  0  0  0
    3.4304    0.2247    0.2845 C   0  0  0  0  0  0  0  0  0  0  0  0
    0.6911    2.6548   -0.5929 C   0  0  0  0  0  0  0  0  0  0  0  0
   -3.3082    0.1651    0.6161 C   0  0  0  0  0  0  0  0  0  0  0  0
   -4.3816   -0.1277   -0.4219 C   0  0  0  0  0  0  0  0  0  0  0  0
  1  4  1  0
  1  8  1  0
  2  7  2  0
  3  7  1  0
  4  5  1  0
  4  6  1  0
  4  7  1  0
  5  9  1  0
  6 10  1  0
  8 11  1  0
 11 12  1  0
M  END
>  <PUBCHEM_COMPOUND_CID>  (1) 
48207

>  <PUBCHEM_CONFORMER_RMSD>  (1) 
0.6

>  <PUBCHEM_CONFORMER_DIVERSEORDER>  (1) 
1
40
21
54
64
2
29
50
20
58
43
66
68
10
26
51
6
46
16
56
3
36
65
37
15
41
48
61
14
4
39
63
60
67
19
23
28
34
30
55
18
38
9
31
62
13
52
33
53
42
24
17
57
25
44
12
49
5
22
32
7
27
11
59
35
8
45
47

>  <PUBCHEM_MMFF94_PARTIAL_CHARGES>  (1) 
8
1 -0.46
2 -0.57
27 0.37
28 0.37
3 -0.8
4 0.29
7 0.57
8 0.23

>  <PUBCHEM_EFFECTIVE_ROTOR_COUNT>  (1) 
6

>  <PUBCHEM_PHARMACOPHORE_FEATURES>  (1) 
6
1 10 hydrophobe
1 12 hydrophobe
1 2 acceptor
1 3 donor
1 9 hydrophobe
6 1 4 5 6 8 11 hydrophobe

>  <PUBCHEM_HEAVY_ATOM_COUNT>  (1) 
12

>  <PUBCHEM_ATOM_DEF_STEREO_COUNT>  (1) 
0

>  <PUBCHEM_ATOM_UDEF_STEREO_COUNT>  (1) 
0

>  <PUBCHEM_BOND_DEF_STEREO_COUNT>  (1) 
0

>  <PUBCHEM_BOND_UDEF_STEREO_COUNT>  (1) 
0

>  <PUBCHEM_ISOTOPIC_ATOM_COUNT>  (1) 
0

>  <PUBCHEM_COMPONENT_COUNT>  (1) 
1

>  <PUBCHEM_CACTVS_TAUTO_COUNT>  (1) 
2

>  <PUBCHEM_CONFORMER_ID>  (1) 
0000BC4F00000001

>  <PUBCHEM_MMFF94_ENERGY>  (1) 
25.1403

>  <PUBCHEM_FEATURE_SELFOVERLAP>  (1) 
30.456

>  <PUBCHEM_SHAPE_FINGERPRINT>  (1) 
10219947 1 18335420175096953232
12423570 1 15392540702101927124
12725867 57 18261394377877716685
12932764 1 9439405684257438577
14344429 50 17095527309370444857
14993402 34 18336835281259327284
15757776 16 18340764858254373251
15775835 57 17632574968228450799
161256 15 18197503913514534510
16945 1 18335123315520988520
20201158 50 18259704489078439897
20473742 2 17895751932169155300
20511035 2 18050851314462907968
20645477 70 18130221537647961615
21501502 16 17902794063895683328
21730867 7 18060417997785345651
23402539 116 18334563634243394705
3248919 1 18410584998201998457
3250762 1 17688581672364844936
68250623 7 17683512949598991562

>  <PUBCHEM_SHAPE_MULTIPOLES>  (1) 
239.95
5.23
1.99
1.21
5.86
0.29
0.06
0.08
-0.31
-1.1
0.56
-0.17
-0.08
-0.07

>  <PUBCHEM_SHAPE_SELFOVERLAP>  (1) 
432.59

>  <PUBCHEM_SHAPE_VOLUME>  (1) 
156.1

>  <PUBCHEM_COORDINATE_TYPE>  (1) 
2
5
10

$$$$
