48216
     RDKit          3D

 17 17  0  0  1  0  0  0  0  0999 V2000
    3.1645   -0.6352    0.1544 O   0  0  0  0  0  0  0  0  0  0  0  0
    1.3480   -1.9169   -0.4481 O   0  0  0  0  0  0  0  0  0  0  0  0
   -4.5213   -0.6260    0.1603 O   0  0  0  0  0  0  0  0  0  0  0  0
    1.2963    4.0200   -0.5943 N   0  0  0  0  0  0  0  0  0  0  0  0
    1.0304    0.3363    0.4493 C   0  0  0  0  0  0  0  0  0  0  0  0
    1.4883    1.5891   -0.3286 C   0  0  0  0  0  0  0  0  0  0  0  0
   -0.4665    0.0770    0.3713 C   0  0  0  0  0  0  0  0  0  0  0  0
    0.8142    2.8721    0.1663 C   0  0  0  0  0  0  0  0  0  0  0  0
    1.8289   -0.8805   -0.0087 C   0  0  0  0  0  0  0  0  0  0  0  0
   -1.2039    0.0685    1.5376 C   0  0  0  0  0  0  0  0  0  0  0  0
   -1.0422   -0.1421   -0.8637 C   0  0  0  0  0  0  0  0  0  0  0  0
   -2.5765   -0.1696    1.4660 C   0  0  0  0  0  0  0  0  0  0  0  0
   -2.4149   -0.3801   -0.9355 C   0  0  0  0  0  0  0  0  0  0  0  0
   -3.1821   -0.3937    0.2295 C   0  0  0  0  0  0  0  0  0  0  0  0
    4.0402   -1.6996   -0.2306 C   0  0  0  0  0  0  0  0  0  0  0  0
    5.4722   -1.2718    0.0105 C   0  0  0  0  0  0  0  0  0  0  0  0
   -5.0758   -0.8475   -1.1356 C   0  0  0  0  0  0  0  0  0  0  0  0
  1  9  1  0
  1 15  1  0
  2  9  2  0
  3 14  1  0
  3 17  1  0
  4  8  1  0
  5  6  1  0
  5  7  1  0
  5  9  1  0
  6  8  1  0
  7 10  2  0
  7 11  1  0
 10 12  1  0
 11 13  2  0
 12 14  2  0
 13 14  1  0
 15 16  1  0
M  END
>  <PUBCHEM_COMPOUND_CID>  (1) 
48216

>  <PUBCHEM_CONFORMER_RMSD>  (1) 
0.8

>  <PUBCHEM_CONFORMER_DIVERSEORDER>  (1) 
1
29
37
62
69
31
60
9
18
43
59
35
63
54
45
50
47
57
53
68
33
48
70
22
24
32
10
26
67
20
7
2
56
15
66
8
51
58
38
65
42
3
36
23
19
46
12
55
11
16
40
21
52
28
27
13
30
14
44
17
41
49
25
61
34
6
4
39
64
5

>  <PUBCHEM_MMFF94_PARTIAL_CHARGES>  (1) 
21
1 -0.43
10 -0.15
11 -0.15
12 -0.15
13 -0.15
14 0.08
15 0.28
17 0.28
2 -0.57
23 0.15
24 0.15
25 0.15
26 0.15
27 0.36
28 0.36
3 -0.36
4 -0.99
5 0.2
7 -0.14
8 0.27
9 0.66

>  <PUBCHEM_EFFECTIVE_ROTOR_COUNT>  (1) 
7

>  <PUBCHEM_PHARMACOPHORE_FEATURES>  (1) 
5
1 2 acceptor
1 3 acceptor
1 4 cation
1 4 donor
6 7 10 11 12 13 14 rings

>  <PUBCHEM_HEAVY_ATOM_COUNT>  (1) 
17

>  <PUBCHEM_ATOM_DEF_STEREO_COUNT>  (1) 
0

>  <PUBCHEM_ATOM_UDEF_STEREO_COUNT>  (1) 
1

>  <PUBCHEM_BOND_DEF_STEREO_COUNT>  (1) 
0

>  <PUBCHEM_BOND_UDEF_STEREO_COUNT>  (1) 
0

>  <PUBCHEM_ISOTOPIC_ATOM_COUNT>  (1) 
0

>  <PUBCHEM_COMPONENT_COUNT>  (1) 
1

>  <PUBCHEM_CACTVS_TAUTO_COUNT>  (1) 
1

>  <PUBCHEM_CONFORMER_ID>  (1) 
0000BC5800000001

>  <PUBCHEM_MMFF94_ENERGY>  (1) 
39.127

>  <PUBCHEM_FEATURE_SELFOVERLAP>  (1) 
25.371

>  <PUBCHEM_SHAPE_FINGERPRINT>  (1) 
10989021 7 18413109455134677424
11806522 49 17989485212574733778
12236239 1 17775566442077083202
13134695 92 18335142011645763300
13911987 19 18115325435650808838
14115302 16 17774718774800142207
167882 2 18191870239393948676
16945 1 18339939193862469321
17980427 23 17417817214403647553
1813 80 18200888287793478390
18186145 218 17603576457458644525
18222031 100 18413103944781346330
19784866 240 18273497875181239655
200 152 18272086080781574419
20645476 183 17915462920460014607
20645477 70 18335978787486911211
20671657 53 18411984637100326031
20711985 327 18341902865731824756
21029758 11 18334577923625910368
21041028 32 18409738330576842236
21296965 67 18411135797260467816
21339142 126 18124317108366171994
221490 88 18191873537665094427
2255824 54 18341054132701601102
23175994 123 18261399922696404416
23402539 116 18339923701926313346
23559900 14 18338509854632377931
23566358 27 18121500416952367431
23598291 2 18130806550173136009
3250762 1 17755596175854458490
3286 77 18261113001901603295
68521 5 18264210201861745236
7364860 26 18339642368393515912
7471813 234 18202279225647856993
7615 1 17916882304125180393
77492 1 17775016725139343177
81228 2 17902807266667693520

>  <PUBCHEM_SHAPE_MULTIPOLES>  (1) 
327.26
8.71
2.65
1.13
0.83
4.03
0.24
-6.53
-1.42
2.84
-0.69
-1.04
-0.03
-0.37

>  <PUBCHEM_SHAPE_SELFOVERLAP>  (1) 
661.144

>  <PUBCHEM_SHAPE_VOLUME>  (1) 
191.9

>  <PUBCHEM_COORDINATE_TYPE>  (1) 
2
5
10

$$$$
