48212
     RDKit          3D

 16 16  0  0  1  0  0  0  0  0999 V2000
   -4.9985   -1.3329   -0.0875 Cl  0  0  0  0  0  0  0  0  0  0  0  0
    2.8535   -0.6350    0.2704 O   0  0  0  0  0  0  0  0  0  0  0  0
    1.3813   -1.2204   -1.4016 O   0  0  0  0  0  0  0  0  0  0  0  0
    0.4682    4.2238    0.0053 N   0  0  0  0  0  0  0  0  0  0  0  0
    0.7327    0.4068    0.3057 C   0  0  0  0  0  0  0  0  0  0  0  0
    0.9877    1.8369   -0.2178 C   0  0  0  0  0  0  0  0  0  0  0  0
   -0.7196   -0.0348    0.2055 C   0  0  0  0  0  0  0  0  0  0  0  0
    0.1748    2.8956    0.5331 C   0  0  0  0  0  0  0  0  0  0  0  0
    1.6618   -0.5776   -0.3982 C   0  0  0  0  0  0  0  0  0  0  0  0
   -1.4760    0.3953   -0.8659 C   0  0  0  0  0  0  0  0  0  0  0  0
   -1.2385   -0.8520    1.1896 C   0  0  0  0  0  0  0  0  0  0  0  0
   -2.8079   -0.0088   -0.9572 C   0  0  0  0  0  0  0  0  0  0  0  0
   -2.5705   -1.2561    1.0984 C   0  0  0  0  0  0  0  0  0  0  0  0
   -3.3552   -0.8347    0.0249 C   0  0  0  0  0  0  0  0  0  0  0  0
    3.8271   -1.5299   -0.2770 C   0  0  0  0  0  0  0  0  0  0  0  0
    5.0791   -1.4760    0.5724 C   0  0  0  0  0  0  0  0  0  0  0  0
  1 14  1  0
  2  9  1  0
  2 15  1  0
  3  9  2  0
  4  8  1  0
  5  6  1  0
  5  7  1  0
  5  9  1  0
  6  8  1  0
  7 10  2  0
  7 11  1  0
 10 12  1  0
 11 13  2  0
 12 14  2  0
 13 14  1  0
 15 16  1  0
M  END
>  <PUBCHEM_COMPOUND_CID>  (1) 
48212

>  <PUBCHEM_CONFORMER_RMSD>  (1) 
0.8

>  <PUBCHEM_CONFORMER_DIVERSEORDER>  (1) 
1
41
33
34
32
3
8
12
14
37
2
22
27
23
25
29
42
5
20
26
28
39
24
38
15
21
31
30
36
18
40
7
11
17
19
10
13
6
4
9
16
35

>  <PUBCHEM_MMFF94_PARTIAL_CHARGES>  (1) 
20
1 -0.18
10 -0.15
11 -0.15
12 -0.15
13 -0.15
14 0.18
15 0.28
2 -0.43
22 0.15
23 0.15
24 0.15
25 0.15
26 0.36
27 0.36
3 -0.57
4 -0.99
5 0.2
7 -0.14
8 0.27
9 0.66

>  <PUBCHEM_EFFECTIVE_ROTOR_COUNT>  (1) 
6

>  <PUBCHEM_PHARMACOPHORE_FEATURES>  (1) 
4
1 3 acceptor
1 4 cation
1 4 donor
6 7 10 11 12 13 14 rings

>  <PUBCHEM_HEAVY_ATOM_COUNT>  (1) 
16

>  <PUBCHEM_ATOM_DEF_STEREO_COUNT>  (1) 
0

>  <PUBCHEM_ATOM_UDEF_STEREO_COUNT>  (1) 
1

>  <PUBCHEM_BOND_DEF_STEREO_COUNT>  (1) 
0

>  <PUBCHEM_BOND_UDEF_STEREO_COUNT>  (1) 
0

>  <PUBCHEM_ISOTOPIC_ATOM_COUNT>  (1) 
0

>  <PUBCHEM_COMPONENT_COUNT>  (1) 
1

>  <PUBCHEM_CACTVS_TAUTO_COUNT>  (1) 
1

>  <PUBCHEM_CONFORMER_ID>  (1) 
0000BC5400000001

>  <PUBCHEM_MMFF94_ENERGY>  (1) 
26.6179

>  <PUBCHEM_FEATURE_SELFOVERLAP>  (1) 
20.297

>  <PUBCHEM_SHAPE_FINGERPRINT>  (1) 
1 1 17907018735114257700
10465860 250 18334571322261371266
12251169 10 14045737127664316195
12363563 72 18410582768539335366
12507560 14 18342459265812965103
12532896 13 17403178101795567436
13134695 92 18338514243677692580
13955234 65 18051697938669470921
14115302 16 17458352956655418839
16945 1 18122911086054691921
17841504 4 18337957895305126881
1813 80 18131084718124931110
18186145 218 17822841087829077591
18222031 100 18272939327648424582
200 152 18261391122540945706
20097449 115 18412826876103451824
20645476 183 14562528518321870731
20671657 53 18412549820526438179
20711985 327 18343309166636268110
20711985 344 18121494657406400744
20832881 197 18333733511902511899
21029758 11 18408321090179186314
21041028 32 18413110554583235409
21061003 4 18413390929689154539
21296965 67 18412262817879331736
21339142 36 18336540525810947991
21524375 3 17264137649260249628
23175994 123 18409169900434425167
23402539 116 18341044116853944351
23419403 2 18190156018892803484
23526113 38 18187364393118439361
23557571 272 18267026059614071046
23558518 356 17830182307550255698
23559900 14 17604429724872059199
3286 77 18335421313643159903
458136 41 17615144594808282641
68521 5 18338518513239129452
7364860 26 18194965364240834193
81228 2 18051992328386344184

>  <PUBCHEM_SHAPE_MULTIPOLES>  (1) 
314.42
7.75
3.01
1.05
1.58
4.98
-0.03
-7.5
0.21
1.63
0.36
-0.26
-0.24
0.3

>  <PUBCHEM_SHAPE_SELFOVERLAP>  (1) 
627.152

>  <PUBCHEM_SHAPE_VOLUME>  (1) 
186.7

>  <PUBCHEM_COORDINATE_TYPE>  (1) 
2
5
10

$$$$
