48218
     RDKit          3D

 16 16  0  0  1  0  0  0  0  0999 V2000
   -6.2771   -2.0677    0.0169 O   0  0  0  0  0  0  0  0  0  0  0  0
   -1.0096    1.1579    0.1284 N   0  0  0  0  0  0  0  0  0  0  0  0
   -1.7846   -0.0432   -0.1602 C   0  0  0  0  0  0  0  0  0  0  0  0
    0.4050    0.9457   -0.1830 C   0  0  0  0  0  0  0  0  0  0  0  0
   -3.2483    0.1644    0.2247 C   0  0  0  0  0  0  0  0  0  0  0  0
   -1.5295    2.3001   -0.6254 C   0  0  0  0  0  0  0  0  0  0  0  0
    1.0012   -0.2364    0.5774 C   0  0  0  0  0  0  0  0  0  0  0  0
   -4.0773   -1.0866   -0.0614 C   0  0  0  0  0  0  0  0  0  0  0  0
    2.4665   -0.4464    0.2837 C   0  0  0  0  0  0  0  0  0  0  0  0
   -0.7730    3.5729   -0.2849 C   0  0  0  0  0  0  0  0  0  0  0  0
   -5.5469   -0.8769    0.2793 C   0  0  0  0  0  0  0  0  0  0  0  0
    2.8380   -1.2748   -0.7639 C   0  0  0  0  0  0  0  0  0  0  0  0
    3.4154    0.1929    1.0663 C   0  0  0  0  0  0  0  0  0  0  0  0
    4.1923   -1.4688   -1.0356 C   0  0  0  0  0  0  0  0  0  0  0  0
    4.7697   -0.0011    0.7945 C   0  0  0  0  0  0  0  0  0  0  0  0
    5.1581   -0.8320   -0.2566 C   0  0  0  0  0  0  0  0  0  0  0  0
  1 11  1  0
  2  3  1  0
  2  4  1  0
  2  6  1  0
  3  5  1  0
  4  7  1  0
  5  8  1  0
  6 10  1  0
  7  9  1  0
  8 11  1  0
  9 12  2  0
  9 13  1  0
 12 14  1  0
 13 15  2  0
 14 16  2  0
 15 16  1  0
M  END
>  <PUBCHEM_COMPOUND_CID>  (1) 
48218

>  <PUBCHEM_CONFORMER_RMSD>  (1) 
0.8

>  <PUBCHEM_CONFORMER_DIVERSEORDER>  (1) 
1
98
56
44
51
82
114
131
32
135
9
113
48
47
88
60
129
24
37
59
74
46
117
39
68
126
102
11
101
72
121
132
107
77
84
108
118
127
73
41
36
125
16
89
54
13
81
33
63
21
50
110
120
124
94
115
130
62
65
27
3
35
106
95
6
119
85
28
4
53
99
14
83
10
97
70
58
100
66
2
30
78
123
93
136
122
69
61
67
26
15
86
42
55
43
133
52
22
18
134
57
23
109
71
19
128
25
79
5
49
111
90
45
112
103
12
91
31
20
40
105
17
38
92
34
8
104
87
80
64
29
116
7
75
76
96

>  <PUBCHEM_MMFF94_PARTIAL_CHARGES>  (1) 
19
1 -0.68
11 0.28
12 -0.15
13 -0.15
14 -0.15
15 -0.15
16 -0.15
2 -0.81
3 0.27
34 0.15
35 0.15
36 0.15
37 0.15
38 0.15
39 0.4
4 0.27
6 0.27
7 0.14
9 -0.14

>  <PUBCHEM_EFFECTIVE_ROTOR_COUNT>  (1) 
8

>  <PUBCHEM_PHARMACOPHORE_FEATURES>  (1) 
4
1 1 acceptor
1 1 donor
1 2 cation
6 9 12 13 14 15 16 rings

>  <PUBCHEM_HEAVY_ATOM_COUNT>  (1) 
16

>  <PUBCHEM_ATOM_DEF_STEREO_COUNT>  (1) 
0

>  <PUBCHEM_ATOM_UDEF_STEREO_COUNT>  (1) 
0

>  <PUBCHEM_BOND_DEF_STEREO_COUNT>  (1) 
0

>  <PUBCHEM_BOND_UDEF_STEREO_COUNT>  (1) 
0

>  <PUBCHEM_ISOTOPIC_ATOM_COUNT>  (1) 
0

>  <PUBCHEM_COMPONENT_COUNT>  (1) 
1

>  <PUBCHEM_CACTVS_TAUTO_COUNT>  (1) 
1

>  <PUBCHEM_CONFORMER_ID>  (1) 
0000BC5A00000001

>  <PUBCHEM_MMFF94_ENERGY>  (1) 
28.3214

>  <PUBCHEM_FEATURE_SELFOVERLAP>  (1) 
20.297

>  <PUBCHEM_SHAPE_FINGERPRINT>  (1) 
11265709 11 18408044026682833001
12553582 1 18337093640637895115
12623949 98 17631748096418812630
12841375 25 18408321116439743309
13685833 64 18336549412926919755
13740256 8 18334296522011933251
14123256 34 18262246611697294019
14178000 29 18411419557460362965
14252887 29 18343585152639616835
14350574 20 17917435298576446254
15885798 251 18410013247575802601
17492 89 18192990427136894274
1813 80 18340216249423567957
18186145 218 17986674758412771992
18222031 100 18409448115736706051
19141452 34 17988640835263879679
193927 3 18335994146416575499
19784866 34 8862672283193054759
200 152 15936410017970174054
20374829 77 18334010597359335691
20388580 30 18114185275909023005
20871999 31 18040428859513351661
212847 35 10015869777723774998
21426921 1 18264206907136766372
22943178 12 18057034710607901172
2297311 6 18411707556102058228
23402539 116 18187642475012788007
23402655 69 12685090388742737755
23557571 272 18410576141409955572
23559900 14 18123745353914371294
2767999 5 10519990340174009883
2871803 45 18408882902040529842
314173 85 18409735058317599929
3268164 11 18041556936504428892
351380 3 18335136510009116699
4325135 7 18335423504271510316
5104073 3 17987230037380809378
5352402 22 17418101987682892534
6049 1 18129935668650798672
621550 34 18201710769820272640
621550 5 18059856138564337584
68521 5 18261390006034065229
77188 2 18410576232021688701

>  <PUBCHEM_SHAPE_MULTIPOLES>  (1) 
318.42
12.67
2.52
0.9
7.96
2.7
-0.01
-10.08
-0.62
2.59
0.62
-0.82
-0.05
0.96

>  <PUBCHEM_SHAPE_SELFOVERLAP>  (1) 
625.283

>  <PUBCHEM_SHAPE_VOLUME>  (1) 
192.1

>  <PUBCHEM_COORDINATE_TYPE>  (1) 
2
5
10

$$$$
