48210
     RDKit          3D

 27 27  0  0  1  0  0  0  0  0999 V2000
   -0.2699    0.9349    0.3435 O   0  0  0  0  0  0  0  0  0  0  0  0
    3.8887    0.7346    0.0821 O   0  0  0  0  0  0  0  0  0  0  0  0
    1.5425    0.8980    1.7696 O   0  0  0  0  0  0  0  0  0  0  0  0
    5.5837    0.6526   -1.4854 O   0  0  0  0  0  0  0  0  0  0  0  0
   -3.7908    1.0095   -0.3172 N   0  0  0  0  0  0  0  0  0  0  0  0
   -2.0629    2.5830    0.6430 C   0  0  0  0  0  0  0  0  0  0  0  0
   -2.6886    1.9203   -0.6144 C   0  0  0  0  0  0  0  0  0  0  0  0
   -1.0236    1.6607    1.3195 C   0  0  0  0  0  0  0  0  0  0  0  0
   -1.3714    3.8869    0.1922 C   0  0  0  0  0  0  0  0  0  0  0  0
   -3.1493    2.9436    1.6737 C   0  0  0  0  0  0  0  0  0  0  0  0
    1.6824   -0.1606   -0.4189 C   0  0  0  0  0  0  0  0  0  0  0  0
   -4.6844    0.8919   -1.4697 C   0  0  0  0  0  0  0  0  0  0  0  0
   -3.2795   -0.3063    0.0675 C   0  0  0  0  0  0  0  0  0  0  0  0
    2.9153    0.5994   -0.9500 C   0  0  0  0  0  0  0  0  0  0  0  0
    2.0087   -1.5721    0.1130 C   0  0  0  0  0  0  0  0  0  0  0  0
    1.0077    0.6171    0.7044 C   0  0  0  0  0  0  0  0  0  0  0  0
   -3.9616    0.2972   -2.6665 C   0  0  0  0  0  0  0  0  0  0  0  0
   -4.4121   -1.2475    0.4414 C   0  0  0  0  0  0  0  0  0  0  0  0
    0.8095   -2.4842    0.1887 C   0  0  0  0  0  0  0  0  0  0  0  0
    2.5763    1.9797   -1.5042 C   0  0  0  0  0  0  0  0  0  0  0  0
    0.0403   -2.5299    1.3516 C   0  0  0  0  0  0  0  0  0  0  0  0
    0.4692   -3.2814   -0.9042 C   0  0  0  0  0  0  0  0  0  0  0  0
    5.1909    0.7463   -0.3305 C   0  0  0  0  0  0  0  0  0  0  0  0
   -1.0687   -3.3730    1.4216 C   0  0  0  0  0  0  0  0  0  0  0  0
   -0.6400   -4.1244   -0.8341 C   0  0  0  0  0  0  0  0  0  0  0  0
   -1.4089   -4.1701    0.3288 C   0  0  0  0  0  0  0  0  0  0  0  0
    6.0965    0.8939    0.8546 C   0  0  0  0  0  0  0  0  0  0  0  0
  1  8  1  0
  1 16  1  0
  2 14  1  0
  2 23  1  0
  3 16  2  0
  4 23  2  0
  5  7  1  0
  5 12  1  0
  5 13  1  0
  6  7  1  0
  6  8  1  0
  6  9  1  0
  6 10  1  0
 11 14  1  0
 11 15  1  0
 11 16  1  0
 12 17  1  0
 13 18  1  0
 14 20  1  0
 15 19  1  0
 19 21  2  0
 19 22  1  0
 21 24  1  0
 22 25  2  0
 23 27  1  0
 24 26  2  0
 25 26  1  0
M  END
>  <PUBCHEM_COMPOUND_CID>  (1) 
48210

>  <PUBCHEM_CONFORMER_RMSD>  (1) 
1.4

>  <PUBCHEM_CONFORMER_DIVERSEORDER>  (1) 
1
64
42
90
28
95
38
110
79
88
43
89
58
51
33
11
67
104
56
101
21
4
31
112
61
20
78
117
105
3
29
50
15
23
74
45
46
94
36
82
6
8
100
116
47
16
98
119
65
111
37
87
18
96
48
26
69
59
40
124
126
99
68
30
102
73
72
129
123
77
70
128
97
9
84
115
76
39
106
75
66
34
24
19
118
53
62
57
71
55
35
86
122
14
114
121
113
107
120
17
54
44
109
91
127
12
60
93
7
63
13
108
52
22
83
25
85
92
125
27
5
49
81
103
10
2
32
80
41

>  <PUBCHEM_MMFF94_PARTIAL_CHARGES>  (1) 
26
1 -0.43
11 0.06
12 0.27
13 0.27
14 0.28
15 0.14
16 0.66
19 -0.14
2 -0.43
21 -0.15
22 -0.15
23 0.66
24 -0.15
25 -0.15
26 -0.15
27 0.06
3 -0.57
4 -0.57
5 -0.81
55 0.15
56 0.15
57 0.15
58 0.15
59 0.15
7 0.27
8 0.28

>  <PUBCHEM_EFFECTIVE_ROTOR_COUNT>  (1) 
13

>  <PUBCHEM_PHARMACOPHORE_FEATURES>  (1) 
5
1 3 acceptor
1 4 acceptor
1 5 cation
3 6 9 10 hydrophobe
6 19 21 22 24 25 26 rings

>  <PUBCHEM_HEAVY_ATOM_COUNT>  (1) 
27

>  <PUBCHEM_ATOM_DEF_STEREO_COUNT>  (1) 
0

>  <PUBCHEM_ATOM_UDEF_STEREO_COUNT>  (1) 
2

>  <PUBCHEM_BOND_DEF_STEREO_COUNT>  (1) 
0

>  <PUBCHEM_BOND_UDEF_STEREO_COUNT>  (1) 
0

>  <PUBCHEM_ISOTOPIC_ATOM_COUNT>  (1) 
0

>  <PUBCHEM_COMPONENT_COUNT>  (1) 
1

>  <PUBCHEM_CACTVS_TAUTO_COUNT>  (1) 
1

>  <PUBCHEM_CONFORMER_ID>  (1) 
0000BC5200000001

>  <PUBCHEM_MMFF94_ENERGY>  (1) 
62.4467

>  <PUBCHEM_FEATURE_SELFOVERLAP>  (1) 
25.372

>  <PUBCHEM_SHAPE_FINGERPRINT>  (1) 
10032420 55 18200574926473932588
10119406 146 18341623569100781198
10577160 183 17968387776005163990
10675989 125 17540519233504020733
11069576 57 17837740389213441735
11370993 70 18333730187117698879
121448 382 18343585131317878072
12293681 25 17630353967783748494
13052359 8 18335980969251293314
13140716 1 18051420865738917386
13402501 40 18338805636383028467
13583140 156 16878236350001963808
14251757 5 18264773340371636870
14931854 50 18340188757601780935
17138139 8 18127663089637409015
17980427 23 17832688089785712866
19319366 153 18055648213344447321
20197701 30 18335976498300913006
20764821 26 17908427201093057679
21796203 349 16899092684952278554
22393880 68 18053672382417343396
238 59 18263364690241544875
4409770 3 18339931531641332786
7226269 152 18340198700292483330

>  <PUBCHEM_SHAPE_MULTIPOLES>  (1) 
527.19
9.55
5.27
1.73
9.59
4.54
0.46
-6.21
2.89
-3.24
-1.02
-0.99
-0.37
-0.41

>  <PUBCHEM_SHAPE_SELFOVERLAP>  (1) 
1052.905

>  <PUBCHEM_SHAPE_VOLUME>  (1) 
311.7

>  <PUBCHEM_COORDINATE_TYPE>  (1) 
2
5
10

$$$$
