48229
     RDKit          3D

 30 33  0  0  1  0  0  0  0  0999 V2000
   -7.4109    0.5234    0.8629 F   0  0  0  0  0  0  0  0  0  0  0  0
   -6.4444   -1.3196    0.2521 F   0  0  0  0  0  0  0  0  0  0  0  0
   -5.9219   -0.3988    2.1516 F   0  0  0  0  0  0  0  0  0  0  0  0
    3.2247    1.6861    0.2719 O   0  0  0  0  0  0  0  0  0  0  0  0
    2.3652   -0.5262    0.3287 O   0  0  0  0  0  0  0  0  0  0  0  0
    4.6655    3.0519   -0.9167 O   0  0  0  0  0  0  0  0  0  0  0  0
    0.5743    0.7148    1.0717 O   0  0  0  0  0  0  0  0  0  0  0  0
   -1.5182    0.3496   -0.6174 N   0  0  0  0  0  0  0  0  0  0  0  0
   -1.8158   -1.8962   -1.3162 N   0  0  0  0  0  0  0  0  0  0  0  0
    3.2692    0.3883    0.9214 C   0  0  0  0  0  0  0  0  0  0  0  0
    4.6662   -0.0381    0.6819 C   0  0  0  0  0  0  0  0  0  0  0  0
    5.3324    0.9336   -0.0374 C   0  0  0  0  0  0  0  0  0  0  0  0
    5.3213   -1.1921    1.0730 C   0  0  0  0  0  0  0  0  0  0  0  0
    4.4178    2.0317   -0.3056 C   0  0  0  0  0  0  0  0  0  0  0  0
    6.6593    0.8121   -0.4064 C   0  0  0  0  0  0  0  0  0  0  0  0
    0.1997   -1.2766   -0.1848 C   0  0  0  0  0  0  0  0  0  0  0  0
    6.6643   -1.3459    0.7153 C   0  0  0  0  0  0  0  0  0  0  0  0
    7.3287   -0.3498   -0.0204 C   0  0  0  0  0  0  0  0  0  0  0  0
   -1.0313   -0.9784   -0.7082 C   0  0  0  0  0  0  0  0  0  0  0  0
    1.0384   -0.2459    0.4778 C   0  0  0  0  0  0  0  0  0  0  0  0
   -2.8152    0.8783   -0.5256 C   0  0  0  0  0  0  0  0  0  0  0  0
   -3.8327    0.1459    0.0941 C   0  0  0  0  0  0  0  0  0  0  0  0
   -5.1213    0.6719    0.1853 C   0  0  0  0  0  0  0  0  0  0  0  0
    0.6878   -2.5615   -0.2658 C   0  0  0  0  0  0  0  0  0  0  0  0
   -3.0994    2.1418   -1.0530 C   0  0  0  0  0  0  0  0  0  0  0  0
   -5.3990    1.9329   -0.3425 C   0  0  0  0  0  0  0  0  0  0  0  0
   -4.3881    2.6678   -0.9615 C   0  0  0  0  0  0  0  0  0  0  0  0
   -0.0904   -3.5340   -0.8842 C   0  0  0  0  0  0  0  0  0  0  0  0
   -6.2026   -0.1137    0.8465 C   0  0  0  0  0  0  0  0  0  0  0  0
   -1.3237   -3.1534   -1.3886 C   0  0  0  0  0  0  0  0  0  0  0  0
  1 29  1  0
  2 29  1  0
  3 29  1  0
  4 10  1  0
  4 14  1  0
  5 10  1  0
  5 20  1  0
  6 14  2  0
  7 20  2  0
  8 19  1  0
  8 21  1  0
  9 19  2  0
  9 30  1  0
 10 11  1  0
 11 12  2  0
 11 13  1  0
 12 14  1  0
 12 15  1  0
 13 17  2  0
 15 18  2  0
 16 19  1  0
 16 20  1  0
 16 24  2  0
 17 18  1  0
 21 22  2  0
 21 25  1  0
 22 23  1  0
 23 26  2  0
 23 29  1  0
 24 28  1  0
 25 27  2  0
 26 27  1  0
 28 30  2  0
M  END
>  <PUBCHEM_COMPOUND_CID>  (1) 
48229

>  <PUBCHEM_CONFORMER_RMSD>  (1) 
1

>  <PUBCHEM_CONFORMER_DIVERSEORDER>  (1) 
3
280
710
428
13
299
519
597
705
309
379
7
363
170
298
527
389
381
643
276
535
14
376
364
679
636
44
495
396
2
348
192
27
465
443
366
522
9
121
514
5
708
554
629
316
383
42
185
10
584
260
127
593
444
98
17
606
398
616
351
6
237
657
45
249
525
623
367
715
16
37
646
619
39
118
671
140
120
375
18
1
373
322
391
509
479
38
676
36
32
658
85
216
70
664
308
378
197
585
724
4
327
385
294
152
553
277
164
484
206
591
706
600
289
534
580
132
582
362
487
716
193
43
20
630
8
93
471
696
286
134
615
26
427
115
273
469
409
261
305
217
262
649
498
196
478
248
264
114
625
72
537
347
417
323
598
89
635
651
283
586
236
198
151
157
655
90
590
68
207
659
163
62
15
353
515
84
437
617
456
356
154
213
290
578
61
19
165
219
183
263
314
24
34
319
306
11
101
326
650
542
12
218
310
23
432
25
608
460
103
566
360
60
125
684
288
33
307
159
532
680
199
404
455
369
612
46
555
689
54
384
47
370
116
300
719
130
59
380
92
374
269
55
246
57
291
48
123
481
166
401
304
91
126
65
49
295
339
112
136
228
50
110
109
189

>  <PUBCHEM_MMFF94_PARTIAL_CHARGES>  (1) 
42
1 -0.34
10 0.7
11 -0.14
12 0.09
13 -0.15
14 0.63
15 -0.15
16 0.09
17 -0.15
18 -0.15
19 0.41
2 -0.34
20 0.63
21 0.1
22 -0.15
23 -0.14
24 -0.15
25 -0.15
26 -0.15
27 -0.15
28 -0.15
29 1.16
3 -0.34
30 0.16
32 0.15
33 0.15
34 0.15
35 0.15
36 0.4
37 0.15
38 0.15
39 0.15
4 -0.43
40 0.15
41 0.15
42 0.15
43 0.15
5 -0.43
6 -0.57
7 -0.57
8 -0.6
9 -0.62

>  <PUBCHEM_EFFECTIVE_ROTOR_COUNT>  (1) 
6.4

>  <PUBCHEM_PHARMACOPHORE_FEATURES>  (1) 
9
1 6 acceptor
1 7 acceptor
1 8 cation
1 8 donor
1 9 acceptor
5 4 10 11 12 14 rings
6 11 12 13 15 17 18 rings
6 21 22 23 25 26 27 rings
6 9 16 19 24 28 30 rings

>  <PUBCHEM_HEAVY_ATOM_COUNT>  (1) 
30

>  <PUBCHEM_ATOM_DEF_STEREO_COUNT>  (1) 
0

>  <PUBCHEM_ATOM_UDEF_STEREO_COUNT>  (1) 
1

>  <PUBCHEM_BOND_DEF_STEREO_COUNT>  (1) 
0

>  <PUBCHEM_BOND_UDEF_STEREO_COUNT>  (1) 
0

>  <PUBCHEM_ISOTOPIC_ATOM_COUNT>  (1) 
0

>  <PUBCHEM_COMPONENT_COUNT>  (1) 
1

>  <PUBCHEM_CACTVS_TAUTO_COUNT>  (1) 
3

>  <PUBCHEM_CONFORMER_ID>  (1) 
0000BC6500000003

>  <PUBCHEM_MMFF94_ENERGY>  (1) 
91.9328

>  <PUBCHEM_FEATURE_SELFOVERLAP>  (1) 
45.762

>  <PUBCHEM_SHAPE_FINGERPRINT>  (1) 
10 15 18334014977993972995
10165383 225 18202284702105173187
10447042 23 9079117752448366800
11135609 201 14851895815851731404
11135609 99 16154289332978974395
11524674 6 17775846830849289063
11646440 116 17917991663891569504
11991303 11 18342458187797805895
12107183 9 18337659821008018914
12166972 35 18113903766705059780
12516196 113 8286195063362662564
13782708 43 14129885965785078776
1454969 45 18339919420540134919
14790565 3 18340484560066929895
14856354 85 17703793643821871901
14933364 13 18186802461383704464
14955137 171 18113903783562850940
15119646 104 14979962415637744972
15183329 4 12895355469427058361
15849732 13 18259705592858784828
17913733 40 18130506349492631219
18222031 100 12612755700652607370
19315958 150 18269564845786439609
19611394 137 17895770602940513665
20567600 70 9222931699891815940
20642791 13 11242514597845957143
21781051 124 18337408096637031086
21792965 169 18338236097780814886
23559900 14 17976538304876741479
249057 3 18413107273823807108
3009799 131 9511460013561136411
3178227 256 18412268319722005888
350125 39 18412823603211778143
3610482 184 18269279130690896012
4093350 32 16056608599128118758
444735 79 18335991952105447451
5385378 56 18059299751321008851
59755656 520 17704351078668429551
6669772 16 17846219908285309158
7226269 152 17704066287860681688
9996256 80 18411133658166482807

>  <PUBCHEM_SHAPE_MULTIPOLES>  (1) 
562.13
19.51
3.18
1.19
1.69
1.21
-0.17
-6.59
-5.03
-0.47
1.66
-0.95
0.23
-0.33

>  <PUBCHEM_SHAPE_SELFOVERLAP>  (1) 
1251.828

>  <PUBCHEM_SHAPE_VOLUME>  (1) 
299.7

>  <PUBCHEM_COORDINATE_TYPE>  (1) 
2
5
10

$$$$
