48227
     RDKit          3D

 14 15  0  0  0  0  0  0  0  0999 V2000
   -0.4554   -1.6329   -0.0773 O   0  0  0  0  0  0  0  0  0  0  0  0
    1.7401   -2.2209    0.1325 O   0  0  0  0  0  0  0  0  0  0  0  0
    2.6812    0.4013    0.6155 C   0  0  0  0  0  0  0  0  0  0  0  0
    1.2352    0.0863    0.3802 C   0  0  0  0  0  0  0  0  0  0  0  0
    3.4091    0.7094   -0.6888 C   0  0  0  0  0  0  0  0  0  0  0  0
   -1.1082    0.6945    0.1521 C   0  0  0  0  0  0  0  0  0  0  0  0
    0.2860    1.0318    0.3829 C   0  0  0  0  0  0  0  0  0  0  0  0
   -1.4477   -0.6345   -0.0730 C   0  0  0  0  0  0  0  0  0  0  0  0
    0.8879   -1.3386    0.1401 C   0  0  0  0  0  0  0  0  0  0  0  0
    4.8691    1.0521   -0.4356 C   0  0  0  0  0  0  0  0  0  0  0  0
   -2.1189    1.6587    0.1494 C   0  0  0  0  0  0  0  0  0  0  0  0
   -2.7652   -1.0274   -0.3001 C   0  0  0  0  0  0  0  0  0  0  0  0
   -3.4456    1.2803   -0.0769 C   0  0  0  0  0  0  0  0  0  0  0  0
   -3.7676   -0.0601   -0.3011 C   0  0  0  0  0  0  0  0  0  0  0  0
  1  8  1  0
  1  9  1  0
  2  9  2  0
  3  4  1  0
  3  5  1  0
  4  7  2  0
  4  9  1  0
  5 10  1  0
  6  7  1  0
  6  8  2  0
  6 11  1  0
  8 12  1  0
 11 13  2  0
 12 14  2  0
 13 14  1  0
M  END
>  <PUBCHEM_COMPOUND_CID>  (1) 
48227

>  <PUBCHEM_CONFORMER_RMSD>  (1) 
0.6

>  <PUBCHEM_CONFORMER_DIVERSEORDER>  (1) 
1
4
3
2

>  <PUBCHEM_MMFF94_PARTIAL_CHARGES>  (1) 
17
1 -0.23
11 -0.15
12 -0.15
13 -0.15
14 -0.15
19 0.15
2 -0.57
23 0.15
24 0.15
25 0.15
26 0.15
3 0.14
4 -0.12
6 0.03
7 -0.18
8 0.08
9 0.71

>  <PUBCHEM_EFFECTIVE_ROTOR_COUNT>  (1) 
2

>  <PUBCHEM_PHARMACOPHORE_FEATURES>  (1) 
4
1 10 hydrophobe
1 2 acceptor
6 1 4 6 7 8 9 rings
6 6 8 11 12 13 14 rings

>  <PUBCHEM_HEAVY_ATOM_COUNT>  (1) 
14

>  <PUBCHEM_ATOM_DEF_STEREO_COUNT>  (1) 
0

>  <PUBCHEM_ATOM_UDEF_STEREO_COUNT>  (1) 
0

>  <PUBCHEM_BOND_DEF_STEREO_COUNT>  (1) 
0

>  <PUBCHEM_BOND_UDEF_STEREO_COUNT>  (1) 
0

>  <PUBCHEM_ISOTOPIC_ATOM_COUNT>  (1) 
0

>  <PUBCHEM_COMPONENT_COUNT>  (1) 
1

>  <PUBCHEM_CACTVS_TAUTO_COUNT>  (1) 
1

>  <PUBCHEM_CONFORMER_ID>  (1) 
0000BC6300000001

>  <PUBCHEM_MMFF94_ENERGY>  (1) 
34.043

>  <PUBCHEM_FEATURE_SELFOVERLAP>  (1) 
20.324

>  <PUBCHEM_SHAPE_FINGERPRINT>  (1) 
10608611 8 18338228250643319065
11206711 2 18341039800691289469
12119455 92 14346064365373252008
12346645 44 18409166606194535144
12932764 1 17560505262198086387
13380535 21 18341055125050120971
13380535 76 18407759235574580138
14325111 11 18339638945557496369
14897335 6 18409728443825312258
14911166 2 18343581879869262397
14993402 34 18261108612255369492
15536298 74 18270962341364529502
15775835 57 18411703166471499073
16945 1 18341319089555896643
200 152 15482682273241059420
20523700 14 18409445886390249133
20645476 183 18041842938598325546
20645477 70 18268702806462476455
21501502 16 18268424646852137587
21524375 3 18260547848861957032
231179 274 17458617904644986364
2334 1 18340482266654614043
23366157 5 18042127549091378314
23402539 116 18342452673544568284
23402655 69 18270667676949500061
23463225 33 18336819776084432522
23552423 10 18264203604517658979
23559900 14 18127125269786003870
2748010 2 18340764819752550943
3312278 4 18412826902089169707
474 4 17676212398496533860
4990 188 17846503629814114796
53812653 166 18272923934058147080
57096353 35 18341602733469915199
58051976 378 18412261722752706052
7364860 26 18198623237948162422

>  <PUBCHEM_SHAPE_MULTIPOLES>  (1) 
276.37
7.21
1.82
0.72
4.43
0.59
0.01
-2.68
1.47
-0.13
-0.03
0.23
-0.07
-0.35

>  <PUBCHEM_SHAPE_SELFOVERLAP>  (1) 
588.027

>  <PUBCHEM_SHAPE_VOLUME>  (1) 
153.8

>  <PUBCHEM_COORDINATE_TYPE>  (1) 
2
5
10

$$$$
