48221
     RDKit          3D

 14 13  0  0  0  0  0  0  0  0999 V2000
   -1.0308   -1.2699   -1.1561 S   0  0  0  0  0  0  0  0  0  0  0  0
    0.5546    0.7611    1.5394 O   0  0  0  0  0  0  0  0  0  0  0  0
    1.1506    0.9007   -0.6828 N   0  0  0  0  0  0  0  0  0  0  0  0
   -1.1622    0.2691   -0.1377 C   0  0  0  0  0  0  0  0  0  0  0  0
   -2.1049   -0.0089    1.0651 C   0  0  0  0  0  0  0  0  0  0  0  0
   -1.7807    1.3935   -1.0129 C   0  0  0  0  0  0  0  0  0  0  0  0
    0.2518    0.6633    0.3501 C   0  0  0  0  0  0  0  0  0  0  0  0
   -3.5136   -0.4820    0.7114 C   0  0  0  0  0  0  0  0  0  0  0  0
   -1.9168    2.7596   -0.3435 C   0  0  0  0  0  0  0  0  0  0  0  0
   -0.3298   -2.3300    0.1223 C   0  0  0  0  0  0  0  0  0  0  0  0
    2.5212    1.2837   -0.4369 C   0  0  0  0  0  0  0  0  0  0  0  0
   -0.0913   -3.7278   -0.4163 C   0  0  0  0  0  0  0  0  0  0  0  0
    3.3610    0.0537   -0.3382 C   0  0  0  0  0  0  0  0  0  0  0  0
    4.0912   -0.2662    0.7361 C   0  0  0  0  0  0  0  0  0  0  0  0
  1  4  1  0
  1 10  1  0
  2  7  2  0
  3  7  1  0
  3 11  1  0
  4  5  1  0
  4  6  1  0
  4  7  1  0
  5  8  1  0
  6  9  1  0
 10 12  1  0
 11 13  1  0
 13 14  2  0
M  END
>  <PUBCHEM_COMPOUND_CID>  (1) 
48221

>  <PUBCHEM_CONFORMER_RMSD>  (1) 
0.8

>  <PUBCHEM_CONFORMER_DIVERSEORDER>  (1) 
1
47
48
22
32
14
18
53
35
51
38
36
49
9
24
40
17
43
16
54
31
28
33
8
52
10
45
34
41
20
4
25
29
7
12
46
23
11
30
44
13
3
26
2
42
39
21
37
27
50
19
15
5
6

>  <PUBCHEM_MMFF94_PARTIAL_CHARGES>  (1) 
13
1 -0.46
10 0.23
11 0.44
13 -0.29
14 -0.3
2 -0.57
27 0.37
3 -0.73
33 0.15
34 0.15
35 0.15
4 0.29
7 0.57

>  <PUBCHEM_EFFECTIVE_ROTOR_COUNT>  (1) 
8

>  <PUBCHEM_PHARMACOPHORE_FEATURES>  (1) 
8
1 12 hydrophobe
1 14 hydrophobe
1 2 acceptor
1 3 donor
1 8 hydrophobe
1 9 hydrophobe
3 4 5 6 hydrophobe
5 1 4 5 6 10 hydrophobe

>  <PUBCHEM_HEAVY_ATOM_COUNT>  (1) 
14

>  <PUBCHEM_ATOM_DEF_STEREO_COUNT>  (1) 
0

>  <PUBCHEM_ATOM_UDEF_STEREO_COUNT>  (1) 
0

>  <PUBCHEM_BOND_DEF_STEREO_COUNT>  (1) 
0

>  <PUBCHEM_BOND_UDEF_STEREO_COUNT>  (1) 
0

>  <PUBCHEM_ISOTOPIC_ATOM_COUNT>  (1) 
0

>  <PUBCHEM_COMPONENT_COUNT>  (1) 
1

>  <PUBCHEM_CACTVS_TAUTO_COUNT>  (1) 
2

>  <PUBCHEM_CONFORMER_ID>  (1) 
0000BC5D00000001

>  <PUBCHEM_MMFF94_ENERGY>  (1) 
23.9006

>  <PUBCHEM_FEATURE_SELFOVERLAP>  (1) 
44.197

>  <PUBCHEM_SHAPE_FINGERPRINT>  (1) 
11680986 33 17905333922760076557
12500047 106 18340472410211169376
12592029 89 18265899051268081755
12932764 1 18339645645981141988
13380535 76 18116991083686139773
14577589 140 18334290925458452532
14993402 34 18192719071144506055
15001771 113 17401771220901565175
15219456 202 18191594038726312853
16945 1 18411146860821805540
20871998 184 18334577923441521501
21501502 16 18122342377040626581
22344851 341 18055370049597318327
23402539 116 18340476837810911381
23419403 2 16036281678636149160
2748010 2 18194410982836664118
3250762 1 17975705987263997461
45790113 50 17023194863221802620
45790113 53 18409171021415952480
465052 167 17968956304282404267
528862 383 18336548213808241243
5706482 22 18338226077131060167
81228 2 17837753887899876811
90525 40 18334009463102815118

>  <PUBCHEM_SHAPE_MULTIPOLES>  (1) 
281.11
5.15
3.12
1.17
4.63
2.64
-0.11
-1.16
-1.07
-1.23
0.79
-0.25
-0.06
0.12

>  <PUBCHEM_SHAPE_SELFOVERLAP>  (1) 
512.775

>  <PUBCHEM_SHAPE_VOLUME>  (1) 
180.7

>  <PUBCHEM_COORDINATE_TYPE>  (1) 
2
5
10

$$$$
