4823
     RDKit          3D

 25 28  0  0  1  0  0  0  0  0999 V2000
    7.7389   -0.9143   -0.0231 O   0  0  0  0  0  0  0  0  0  0  0  0
   -7.5624   -0.6251    0.1679 O   0  0  0  0  0  0  0  0  0  0  0  0
    4.7448    0.9076    0.5111 N   0  0  0  0  0  0  0  0  0  0  0  0
   -1.1421   -0.4464    0.1487 N   0  0  0  0  0  0  0  0  0  0  0  0
    6.0343    0.5019    0.5638 N   0  0  0  0  0  0  0  0  0  0  0  0
   -1.5557    1.6953   -0.2780 N   0  0  0  0  0  0  0  0  0  0  0  0
    4.1856   -1.3450   -0.3274 C   0  0  0  0  0  0  0  0  0  0  0  0
    3.8435    0.0866    0.0617 C   0  0  0  0  0  0  0  0  0  0  0  0
    5.5771   -1.3548   -0.9401 C   0  0  0  0  0  0  0  0  0  0  0  0
    2.4251    0.5635   -0.0389 C   0  0  0  0  0  0  0  0  0  0  0  0
    4.1020   -2.2587    0.8970 C   0  0  0  0  0  0  0  0  0  0  0  0
    0.0883    0.1485    0.0350 C   0  0  0  0  0  0  0  0  0  0  0  0
    1.3863   -0.3524    0.1392 C   0  0  0  0  0  0  0  0  0  0  0  0
   -0.1968    1.4848   -0.2313 C   0  0  0  0  0  0  0  0  0  0  0  0
    6.5515   -0.5967   -0.0813 C   0  0  0  0  0  0  0  0  0  0  0  0
    2.1756    1.9089   -0.3069 C   0  0  0  0  0  0  0  0  0  0  0  0
    0.8639    2.3894   -0.4071 C   0  0  0  0  0  0  0  0  0  0  0  0
   -2.0915    0.5178   -0.0461 C   0  0  0  0  0  0  0  0  0  0  0  0
   -3.5029    0.2227    0.0095 C   0  0  0  0  0  0  0  0  0  0  0  0
   -4.4032    1.2011    0.4297 C   0  0  0  0  0  0  0  0  0  0  0  0
   -3.9658   -1.0407   -0.3575 C   0  0  0  0  0  0  0  0  0  0  0  0
   -5.7675    0.9160    0.4833 C   0  0  0  0  0  0  0  0  0  0  0  0
   -5.3301   -1.3258   -0.3041 C   0  0  0  0  0  0  0  0  0  0  0  0
   -6.2311   -0.3473    0.1163 C   0  0  0  0  0  0  0  0  0  0  0  0
   -7.9679   -1.9365   -0.2213 C   0  0  0  0  0  0  0  0  0  0  0  0
  1 15  2  0
  2 24  1  0
  2 25  1  0
  3  5  1  0
  3  8  2  0
  4 12  1  0
  4 18  1  0
  5 15  1  0
  6 14  1  0
  6 18  2  0
  7  8  1  0
  7  9  1  0
  7 11  1  0
  8 10  1  0
  9 15  1  0
 10 13  1  0
 10 16  2  0
 12 13  2  0
 12 14  1  0
 14 17  2  0
 16 17  1  0
 18 19  1  0
 19 20  2  0
 19 21  1  0
 20 22  1  0
 21 23  2  0
 22 24  2  0
 23 24  1  0
M  END
>  <PUBCHEM_COMPOUND_CID>  (1) 
4823

>  <PUBCHEM_CONFORMER_RMSD>  (1) 
0.8

>  <PUBCHEM_CONFORMER_DIVERSEORDER>  (1) 
2
7
5
3
6
4
1

>  <PUBCHEM_MMFF94_PARTIAL_CHARGES>  (1) 
33
1 -0.57
10 0.09
12 -0.15
13 -0.15
14 0.23
15 0.57
16 -0.15
17 -0.15
18 0.13
19 0.05
2 -0.36
20 -0.15
21 -0.15
22 -0.15
23 -0.15
24 0.08
25 0.28
3 -0.51
32 0.15
33 0.15
34 0.15
35 0.27
36 0.37
37 0.15
38 0.15
39 0.15
4 0.03
40 0.15
5 -0.37
6 -0.57
7 0.06
8 0.3
9 0.06

>  <PUBCHEM_EFFECTIVE_ROTOR_COUNT>  (1) 
3.6

>  <PUBCHEM_PHARMACOPHORE_FEATURES>  (1) 
10
1 1 acceptor
1 2 acceptor
1 3 acceptor
1 4 donor
1 5 donor
3 4 6 18 cation
5 4 6 12 14 18 rings
6 10 12 13 14 16 17 rings
6 19 20 21 22 23 24 rings
6 3 5 7 8 9 15 rings

>  <PUBCHEM_HEAVY_ATOM_COUNT>  (1) 
25

>  <PUBCHEM_ATOM_DEF_STEREO_COUNT>  (1) 
0

>  <PUBCHEM_ATOM_UDEF_STEREO_COUNT>  (1) 
1

>  <PUBCHEM_BOND_DEF_STEREO_COUNT>  (1) 
0

>  <PUBCHEM_BOND_UDEF_STEREO_COUNT>  (1) 
0

>  <PUBCHEM_ISOTOPIC_ATOM_COUNT>  (1) 
0

>  <PUBCHEM_COMPONENT_COUNT>  (1) 
1

>  <PUBCHEM_CACTVS_TAUTO_COUNT>  (1) 
6

>  <PUBCHEM_CONFORMER_ID>  (1) 
000012D700000002

>  <PUBCHEM_MMFF94_ENERGY>  (1) 
76.8013

>  <PUBCHEM_FEATURE_SELFOVERLAP>  (1) 
50.854

>  <PUBCHEM_SHAPE_FINGERPRINT>  (1) 
10 15 12751233718319531399
10299344 5 18411421708627158910
106641 1 17918270970294364874
11135609 99 18339364192558512847
11315181 36 18273217500317329225
11524674 6 16630805517335719823
11578080 2 16843583115323366730
11963148 33 18408316679586585074
12166972 35 18272653471794795681
12236239 1 18272936024918664209
12516196 113 18412824677196188848
12596602 18 17775286062501448618
12623949 98 17773888506435841534
13288520 33 18410012135432532597
13533116 47 18271525393933234833
1361 2 18410293592649859594
13668630 136 18272656722778758558
13685833 64 18410575093263563025
13862211 1 18334012778632918968
13885169 127 18411981330941294445
14170010 4 18410291445455790072
14178184 131 18057325201138893247
14251764 18 18201441397961051741
14556957 393 16009041535851087167
14849402 71 18059012920478279240
15183329 4 18040715866075558835
15419008 91 18264186124027865733
15690457 1 18130784590601509215
15716309 27 17989204863079460071
15849732 13 18272369775928966167
15927050 60 17767119079647491868
17492 89 17974846169351159018
1768 124 17989207048944183423
1813 80 17676487241632465188
18681886 176 18341607144501535459
19141452 34 18201717375195118006
19611394 137 11742969504888410581
20028762 73 18343302569561948111
20612939 158 17895201046789658389
20721686 124 11674868984242865664
21033648 29 14332863573458071969
21049683 271 18408889564273862668
21130935 74 18201441350421447731
21150785 3 15646774500571298863
21267235 1 18408889555535240801
22224240 67 16630802214379099230
23035841 295 18409167701263496155
23522609 53 18119843285410565684
23559900 14 18189616214491636105
23569943 247 18120376449570604475
3004659 81 18040435499390470244
335352 9 18335703874771855791
3383291 50 18334579092274617491
34797466 226 16988851613618698380
397830 11 15912182373821057834
4073 2 18188213228990689715
4340502 62 14979960263316083444
465052 167 18272936003422612078
5104073 3 18200022925072118296
5385378 56 11671793649750119780
559249 180 18412826872562514197
59682541 35 18343575270911321176
59682541 52 12973877062776765504
59755656 215 18186238415876123155
999808 66 18040729086655192595

>  <PUBCHEM_SHAPE_MULTIPOLES>  (1) 
482.83
21.19
2.06
0.74
9.4
0.15
0
-11.73
-0.45
-0.12
0.1
-0.31
-0.09
-0.39

>  <PUBCHEM_SHAPE_SELFOVERLAP>  (1) 
1070.107

>  <PUBCHEM_SHAPE_VOLUME>  (1) 
260.5

>  <PUBCHEM_COORDINATE_TYPE>  (1) 
2
5
10

$$$$
