48235
     RDKit          3D

 29 31  0  0  1  0  0  0  0  0999 V2000
   -2.6979   -1.2771    0.2087 O   0  0  0  0  0  0  0  0  0  0  0  0
    5.2343   -0.3316    0.2226 O   0  0  0  0  0  0  0  0  0  0  0  0
   -2.4555   -3.3302    1.2398 O   0  0  0  0  0  0  0  0  0  0  0  0
    2.5606    0.5839    0.5611 N   0  0  0  0  0  0  0  0  0  0  0  0
   -0.7251    0.2505    0.4090 C   0  0  0  0  0  0  0  0  0  0  0  0
    0.2768    0.7261    1.5445 C   0  0  0  0  0  0  0  0  0  0  0  0
    1.5626    1.4877    1.1294 C   0  0  0  0  0  0  0  0  0  0  0  0
   -1.8485   -0.6145    1.1527 C   0  0  0  0  0  0  0  0  0  0  0  0
    0.1033   -0.6316   -0.5777 C   0  0  0  0  0  0  0  0  0  0  0  0
   -1.4583    1.4235   -0.3098 C   0  0  0  0  0  0  0  0  0  0  0  0
   -2.7353    0.1444    2.1654 C   0  0  0  0  0  0  0  0  0  0  0  0
    2.1835    2.1842    2.3442 C   0  0  0  0  0  0  0  0  0  0  0  0
    3.2602   -0.1543    1.6218 C   0  0  0  0  0  0  0  0  0  0  0  0
    3.5289    1.3252   -0.2590 C   0  0  0  0  0  0  0  0  0  0  0  0
    4.3047   -1.0809    1.0060 C   0  0  0  0  0  0  0  0  0  0  0  0
    4.5661    0.3631   -0.8311 C   0  0  0  0  0  0  0  0  0  0  0  0
    0.6523   -0.0642   -1.7276 C   0  0  0  0  0  0  0  0  0  0  0  0
   -2.3908    1.1537   -1.3115 C   0  0  0  0  0  0  0  0  0  0  0  0
    0.2949   -1.9870   -0.3091 C   0  0  0  0  0  0  0  0  0  0  0  0
   -1.1822    2.7429    0.0489 C   0  0  0  0  0  0  0  0  0  0  0  0
   -3.7701   -0.7693    2.8159 C   0  0  0  0  0  0  0  0  0  0  0  0
    1.3926   -0.8519   -2.6091 C   0  0  0  0  0  0  0  0  0  0  0  0
   -3.0470    2.2032   -1.9546 C   0  0  0  0  0  0  0  0  0  0  0  0
    1.0353   -2.7747   -1.1906 C   0  0  0  0  0  0  0  0  0  0  0  0
   -1.8385    3.7924   -0.5941 C   0  0  0  0  0  0  0  0  0  0  0  0
   -2.6707   -2.6391    0.2533 C   0  0  0  0  0  0  0  0  0  0  0  0
    1.5842   -2.2071   -2.3406 C   0  0  0  0  0  0  0  0  0  0  0  0
   -2.7709    3.5224   -1.5960 C   0  0  0  0  0  0  0  0  0  0  0  0
   -2.9494   -3.1896   -1.1125 C   0  0  0  0  0  0  0  0  0  0  0  0
  1  8  1  0
  1 26  1  0
  2 15  1  0
  2 16  1  0
  3 26  2  0
  4  7  1  0
  4 13  1  0
  4 14  1  0
  5  6  1  0
  5  8  1  0
  5  9  1  0
  5 10  1  0
  6  7  1  0
  7 12  1  0
  8 11  1  0
  9 17  2  0
  9 19  1  0
 10 18  2  0
 10 20  1  0
 11 21  1  0
 13 15  1  0
 14 16  1  0
 17 22  1  0
 18 23  1  0
 19 24  2  0
 20 25  2  0
 22 27  2  0
 23 28  2  0
 24 27  1  0
 25 28  1  0
 26 29  1  0
M  END
>  <PUBCHEM_COMPOUND_CID>  (1) 
48235

>  <PUBCHEM_CONFORMER_RMSD>  (1) 
1

>  <PUBCHEM_CONFORMER_DIVERSEORDER>  (1) 
1
44
60
47
59
40
45
37
12
42
32
38
52
22
17
18
39
35
51
46
48
19
55
10
50
30
57
36
9
43
58
2
15
4
31
6
49
53
21
16
7
27
56
28
41
29
5
11
20
8
14
3
34
33
54
24
23
25
26
13

>  <PUBCHEM_MMFF94_PARTIAL_CHARGES>  (1) 
35
1 -0.43
10 -0.14
13 0.27
14 0.27
15 0.28
16 0.28
17 -0.15
18 -0.15
19 -0.15
2 -0.56
20 -0.15
22 -0.15
23 -0.15
24 -0.15
25 -0.15
26 0.66
27 -0.15
28 -0.15
29 0.06
3 -0.57
4 -0.81
47 0.15
48 0.15
49 0.15
5 0.29
50 0.15
54 0.15
55 0.15
56 0.15
57 0.15
58 0.15
59 0.15
7 0.27
8 0.28
9 -0.14

>  <PUBCHEM_EFFECTIVE_ROTOR_COUNT>  (1) 
10.2

>  <PUBCHEM_PHARMACOPHORE_FEATURES>  (1) 
7
1 2 acceptor
1 21 hydrophobe
1 3 acceptor
1 4 cation
6 10 18 20 23 25 28 rings
6 2 4 13 14 15 16 rings
6 9 17 19 22 24 27 rings

>  <PUBCHEM_HEAVY_ATOM_COUNT>  (1) 
29

>  <PUBCHEM_ATOM_DEF_STEREO_COUNT>  (1) 
0

>  <PUBCHEM_ATOM_UDEF_STEREO_COUNT>  (1) 
2

>  <PUBCHEM_BOND_DEF_STEREO_COUNT>  (1) 
0

>  <PUBCHEM_BOND_UDEF_STEREO_COUNT>  (1) 
0

>  <PUBCHEM_ISOTOPIC_ATOM_COUNT>  (1) 
0

>  <PUBCHEM_COMPONENT_COUNT>  (1) 
1

>  <PUBCHEM_CACTVS_TAUTO_COUNT>  (1) 
1

>  <PUBCHEM_CONFORMER_ID>  (1) 
0000BC6B00000001

>  <PUBCHEM_MMFF94_ENERGY>  (1) 
98.8382

>  <PUBCHEM_FEATURE_SELFOVERLAP>  (1) 
35.522

>  <PUBCHEM_SHAPE_FINGERPRINT>  (1) 
10169797 241 14108990966643562981
10863032 1 17967812692088447568
11578080 2 18050034119546610100
11763715 3 17896612871322412798
12156800 1 15040951298827840278
12592029 89 17772445950868257588
12633257 1 18130238124009773450
12788726 201 18041264565090284243
13140716 1 17417540218929718392
133893 2 17130701661448203574
13583140 156 18270944813755793690
15219462 58 17315325228782399304
17980427 26 17126787323060336689
1813 80 18046089282638022571
20600515 1 17907889501200018282
20691752 17 18266201558694983091
21330990 113 18128841765685438370
22182313 1 18195262013341886775
22907989 373 18336824285805771212
23419403 2 17910979953649876653
238 59 17986932094951080092
3380486 145 18339091462097643745
35225 105 17678431126745450933
57527452 28 15892592220435146295
633830 44 16774085063974243896
9981440 41 18194105335683641689

>  <PUBCHEM_SHAPE_MULTIPOLES>  (1) 
574.22
7.09
4.13
2.61
6.43
0
0.31
0.22
1.43
-4.09
-1.39
-0.9
-0.06
2.57

>  <PUBCHEM_SHAPE_SELFOVERLAP>  (1) 
1202.532

>  <PUBCHEM_SHAPE_VOLUME>  (1) 
320.9

>  <PUBCHEM_COORDINATE_TYPE>  (1) 
2
5
10

$$$$
