48231
     RDKit          3D

 25 28  0  0  1  0  0  0  0  0999 V2000
   -5.1041   -1.3339    0.9099 O   0  0  0  0  0  0  0  0  0  0  0  0
   -2.7785   -2.3619   -0.4020 O   0  0  0  0  0  0  0  0  0  0  0  0
   -5.4014    0.9992    1.4322 O   0  0  0  0  0  0  0  0  0  0  0  0
    0.1710    0.4441   -1.7663 N   0  0  0  0  0  0  0  0  0  0  0  0
    0.3152    1.6475   -0.9265 C   0  0  0  0  0  0  0  0  0  0  0  0
   -1.0387    2.2723   -0.5369 C   0  0  0  0  0  0  0  0  0  0  0  0
    1.1691    1.3513    0.3166 C   0  0  0  0  0  0  0  0  0  0  0  0
   -0.6456   -0.5960   -1.1191 C   0  0  0  0  0  0  0  0  0  0  0  0
   -2.0857    1.2605   -0.1414 C   0  0  0  0  0  0  0  0  0  0  0  0
   -1.9188   -0.1082   -0.4667 C   0  0  0  0  0  0  0  0  0  0  0  0
    2.5213    0.7699   -0.0758 C   0  0  0  0  0  0  0  0  0  0  0  0
   -0.3216    0.7601   -3.1081 C   0  0  0  0  0  0  0  0  0  0  0  0
   -2.9123   -1.0388   -0.1218 C   0  0  0  0  0  0  0  0  0  0  0  0
   -3.2578    1.6964    0.4969 C   0  0  0  0  0  0  0  0  0  0  0  0
    3.3803    0.5121    1.1640 C   0  0  0  0  0  0  0  0  0  0  0  0
   -4.0466   -0.5755    0.5118 C   0  0  0  0  0  0  0  0  0  0  0  0
   -4.2151    0.7547    0.8117 C   0  0  0  0  0  0  0  0  0  0  0  0
    4.7380   -0.0308    0.7983 C   0  0  0  0  0  0  0  0  0  0  0  0
   -5.9591   -0.3293    1.4925 C   0  0  0  0  0  0  0  0  0  0  0  0
    4.9193   -1.4024    0.6981 C   0  0  0  0  0  0  0  0  0  0  0  0
    5.7848    0.8496    0.5672 C   0  0  0  0  0  0  0  0  0  0  0  0
   -3.7667   -2.9522   -1.2469 C   0  0  0  0  0  0  0  0  0  0  0  0
    6.1756   -1.9050    0.3594 C   0  0  0  0  0  0  0  0  0  0  0  0
    7.0411    0.3469    0.2284 C   0  0  0  0  0  0  0  0  0  0  0  0
    7.2364   -1.0304    0.1245 C   0  0  0  0  0  0  0  0  0  0  0  0
  1 16  1  0
  1 19  1  0
  2 13  1  0
  2 22  1  0
  3 17  1  0
  3 19  1  0
  4  5  1  0
  4  8  1  0
  4 12  1  0
  5  6  1  0
  5  7  1  0
  6  9  1  0
  7 11  1  0
  8 10  1  0
  9 10  2  0
  9 14  1  0
 10 13  1  0
 11 15  1  0
 13 16  2  0
 14 17  2  0
 15 18  1  0
 16 17  1  0
 18 20  2  0
 18 21  1  0
 20 23  1  0
 21 24  2  0
 23 25  2  0
 24 25  1  0
M  END
>  <PUBCHEM_COMPOUND_CID>  (1) 
48231

>  <PUBCHEM_CONFORMER_RMSD>  (1) 
0.8

>  <PUBCHEM_CONFORMER_DIVERSEORDER>  (1) 
1
23
27
9
33
42
38
46
32
34
22
36
11
26
49
51
20
21
14
39
17
19
29
5
44
35
43
3
45
16
7
4
47
54
24
25
40
2
8
10
52
53
28
31
18
48
12
6
13
37
41
50
30
15

>  <PUBCHEM_MMFF94_PARTIAL_CHARGES>  (1) 
29
1 -0.36
10 -0.14
12 0.27
13 0.08
14 -0.15
15 0.14
16 0.08
17 0.08
18 -0.14
19 0.56
2 -0.36
20 -0.15
21 -0.15
22 0.28
23 -0.15
24 -0.15
25 -0.15
3 -0.36
38 0.15
4 -0.81
43 0.15
44 0.15
48 0.15
49 0.15
5 0.27
50 0.15
6 0.14
8 0.41
9 -0.14

>  <PUBCHEM_EFFECTIVE_ROTOR_COUNT>  (1) 
6.4

>  <PUBCHEM_PHARMACOPHORE_FEATURES>  (1) 
8
1 1 acceptor
1 2 acceptor
1 3 acceptor
1 4 cation
5 1 3 16 17 19 rings
6 18 20 21 23 24 25 rings
6 4 5 6 8 9 10 rings
6 9 10 13 14 16 17 rings

>  <PUBCHEM_HEAVY_ATOM_COUNT>  (1) 
25

>  <PUBCHEM_ATOM_DEF_STEREO_COUNT>  (1) 
0

>  <PUBCHEM_ATOM_UDEF_STEREO_COUNT>  (1) 
1

>  <PUBCHEM_BOND_DEF_STEREO_COUNT>  (1) 
0

>  <PUBCHEM_BOND_UDEF_STEREO_COUNT>  (1) 
0

>  <PUBCHEM_ISOTOPIC_ATOM_COUNT>  (1) 
0

>  <PUBCHEM_COMPONENT_COUNT>  (1) 
1

>  <PUBCHEM_CACTVS_TAUTO_COUNT>  (1) 
1

>  <PUBCHEM_CONFORMER_ID>  (1) 
0000BC6700000001

>  <PUBCHEM_MMFF94_ENERGY>  (1) 
74.6979

>  <PUBCHEM_FEATURE_SELFOVERLAP>  (1) 
40.775

>  <PUBCHEM_SHAPE_FINGERPRINT>  (1) 
10076449 9 10737298935448809625
10291535 26 9799403464390821918
10299344 5 18410015438462674458
10319926 262 17917724499402659703
10692045 39 15267071285713253116
10928967 22 17896297195832633930
11089746 13 10375870784569711064
11387372 6 18334581217550244331
11524674 6 17132112437740341886
12107183 9 18342463621047161785
12596602 18 17703788176086132474
12633257 1 18131356340489109425
13103583 49 18202004351856012618
13540713 5 18052829327924631061
13673619 4 18113899343294393876
13911987 19 14057014788866348904
14251764 18 18202565094053818824
14251764 30 17894912906366121490
14341114 176 18342176661671338536
14420673 8 18272091557065473262
14556957 393 14418425330242423334
14840074 17 17822009809076836178
15348495 7 17703783769375599890
15537594 2 18113330899692783610
16110190 28 18342458162206518304
17780758 139 18272369776140118521
17913733 40 14907911491204096711
1813 80 17386012749558291270
19438510 23 14404366983402194035
19784866 240 17240490229939087601
20157964 124 9151176459273331448
20871999 31 11674869001063030773
21033648 29 15913065213096732985
21403212 168 16845291592487626069
22950370 63 18411133645977783192
23516275 137 18197240082723529778
23522609 53 18193585387444883092
23559900 14 18268696363415790729
2767999 5 12823295689266439058
2838139 119 10952053346786919386
312425 54 18201995560390546922
351380 3 17967249801958373296
3737641 26 18042117666329439154
4409770 3 18262510374208153917
474113 269 18264488572279396691
5104073 3 17846204610127940042
5385378 56 15338850715962250780
563151 74 15410632371305176695
59755656 520 14261345843027855860
9981440 41 15913056382939286927
999808 66 17968107420933301435

>  <PUBCHEM_SHAPE_MULTIPOLES>  (1) 
491.9
17.19
2.29
1.64
23.36
1
1.17
6.72
-8.21
-1.54
0.51
-1.36
-0.23
-0.78

>  <PUBCHEM_SHAPE_SELFOVERLAP>  (1) 
1064.38

>  <PUBCHEM_SHAPE_VOLUME>  (1) 
269.8

>  <PUBCHEM_COORDINATE_TYPE>  (1) 
2
5
10

$$$$
