48233
     RDKit          3D

 17 17  0  0  0  0  0  0  0  0999 V2000
   -4.6262    0.1327   -0.0627 O   0  0  0  0  0  0  0  0  0  0  0  0
    5.2881    0.7075   -0.0849 N   0  0  0  0  0  0  0  0  0  0  0  0
    1.6467   -0.0778   -0.1419 N   0  0  0  0  0  0  0  0  0  0  0  0
    1.1920   -2.4208   -0.2864 N   0  0  0  0  0  0  0  0  0  0  0  0
    3.8466    0.9541   -0.0794 C   0  0  0  0  0  0  0  0  0  0  0  0
    3.0835   -0.3590   -0.1796 C   0  0  0  0  0  0  0  0  0  0  0  0
   -0.6212   -0.7619   -0.1588 C   0  0  0  0  0  0  0  0  0  0  0  0
    0.8426   -1.0888   -0.1955 C   0  0  0  0  0  0  0  0  0  0  0  0
    5.6611   -0.1676    1.0260 C   0  0  0  0  0  0  0  0  0  0  0  0
    6.0230    1.9695   -0.0104 C   0  0  0  0  0  0  0  0  0  0  0  0
   -1.0338    0.4365   -0.6853 C   0  0  0  0  0  0  0  0  0  0  0  0
   -1.4799   -1.6760    0.3987 C   0  0  0  0  0  0  0  0  0  0  0  0
   -3.2981   -0.1632   -0.0935 C   0  0  0  0  0  0  0  0  0  0  0  0
   -2.3947    0.7409   -0.6521 C   0  0  0  0  0  0  0  0  0  0  0  0
   -2.8407   -1.3717    0.4319 C   0  0  0  0  0  0  0  0  0  0  0  0
   -4.9824    1.5117    0.0249 C   0  0  0  0  0  0  0  0  0  0  0  0
   -6.3062    1.6339    0.7490 C   0  0  0  0  0  0  0  0  0  0  0  0
  1 13  1  0
  1 16  1  0
  2  5  1  0
  2  9  1  0
  2 10  1  0
  3  6  1  0
  3  8  2  0
  4  8  1  0
  5  6  1  0
  7  8  1  0
  7 11  2  0
  7 12  1  0
 11 14  1  0
 12 15  2  0
 13 14  2  0
 13 15  1  0
 16 17  1  0
M  END
>  <PUBCHEM_COMPOUND_CID>  (1) 
48233

>  <PUBCHEM_CONFORMER_RMSD>  (1) 
0.8

>  <PUBCHEM_CONFORMER_DIVERSEORDER>  (1) 
1
34
22
26
33
36
8
6
13
25
24
3
32
7
11
30
35
19
14
9
10
27
21
17
23
31
28
15
5
12
20
18
29
2
4
16

>  <PUBCHEM_MMFF94_PARTIAL_CHARGES>  (1) 
22
1 -0.36
10 0.27
11 -0.15
12 -0.15
13 0.08
14 -0.15
15 -0.15
16 0.28
2 -0.81
28 0.15
29 0.15
3 -0.7
30 0.15
31 0.15
34 0.4
35 0.4
4 -0.85
5 0.27
6 0.25
7 0.09
8 0.41
9 0.27

>  <PUBCHEM_EFFECTIVE_ROTOR_COUNT>  (1) 
6

>  <PUBCHEM_PHARMACOPHORE_FEATURES>  (1) 
5
1 1 acceptor
1 2 cation
1 4 donor
3 3 4 8 cation
6 7 11 12 13 14 15 rings

>  <PUBCHEM_HEAVY_ATOM_COUNT>  (1) 
17

>  <PUBCHEM_ATOM_DEF_STEREO_COUNT>  (1) 
0

>  <PUBCHEM_ATOM_UDEF_STEREO_COUNT>  (1) 
0

>  <PUBCHEM_BOND_DEF_STEREO_COUNT>  (1) 
0

>  <PUBCHEM_BOND_UDEF_STEREO_COUNT>  (1) 
0

>  <PUBCHEM_ISOTOPIC_ATOM_COUNT>  (1) 
0

>  <PUBCHEM_COMPONENT_COUNT>  (1) 
1

>  <PUBCHEM_CACTVS_TAUTO_COUNT>  (1) 
2

>  <PUBCHEM_CONFORMER_ID>  (1) 
0000BC6900000001

>  <PUBCHEM_MMFF94_ENERGY>  (1) 
54.362

>  <PUBCHEM_FEATURE_SELFOVERLAP>  (1) 
25.372

>  <PUBCHEM_SHAPE_FINGERPRINT>  (1) 
10 15 18113908164888129825
100836 57 18411421717444005252
10493431 412 18335424556522705683
106641 1 18040725788104250905
117890 112 18412826884735454432
12616971 3 16226051127786182294
12670543 26 11887675044497734217
13167372 99 18412262801085058776
13214271 11 18336546105343107479
13533116 47 17386279897057131962
13690532 89 8790882982259995087
14123256 34 8862937312128598353
14251718 22 10519984872616909578
14251752 14 12607134976047732155
14251764 18 18334015016891291193
14341114 176 17675923188457731276
14350574 20 10231747890794960035
15048467 5 18343302544319151553
15501527 16 18408604764411468829
15778101 99 18411423937947144686
17980427 23 18114747139188096823
19784866 170 18333452032113888423
19784866 240 8070025588510755767
20281389 69 18259702289565132461
20526848 3 18272939293394415153
20621476 66 18410578413896184308
20645477 56 18333449833043082319
21033648 29 18200584925864257744
21150785 3 15482661382483390253
212847 35 18413385458744942296
21452121 103 18263081024520250795
21637258 2 12757157909056663785
22224240 67 18186806860083940873
23402539 116 18341606044620752918
23402655 69 17988640774901780575
23559900 14 18339644421878870758
2838139 119 18130777945643744633
2916195 48 18058723736530234392
293599 30 18342740710608658789
34934 24 18412261718747810975
351380 3 8214142941018449016
465052 167 7997676619475499201
5104073 3 18186517730768848306
59682541 35 18262247707324885601
59682541 52 16558482894130652580
76465 3 8358250432855360145
77188 2 17474954225220902134

>  <PUBCHEM_SHAPE_MULTIPOLES>  (1) 
329.04
14.72
1.97
0.79
6.75
0.25
-0.07
-10.93
-3.43
-0.21
-0.1
0.01
-0.04
-0.29

>  <PUBCHEM_SHAPE_SELFOVERLAP>  (1) 
660.822

>  <PUBCHEM_SHAPE_VOLUME>  (1) 
196.2

>  <PUBCHEM_COORDINATE_TYPE>  (1) 
2
5
10

$$$$
