48241
     RDKit          3D

 26 28  0  0  0  0  0  0  0  0999 V2000
    4.9852    1.4768   -0.9274 O   0  0  0  0  0  0  0  0  0  0  0  0
    0.4751   -1.1817    0.3069 O   0  0  0  0  0  0  0  0  0  0  0  0
   -1.1359   -2.0667   -1.0790 O   0  0  0  0  0  0  0  0  0  0  0  0
    3.2404   -0.4916    0.1603 N   0  0  0  0  0  0  0  0  0  0  0  0
    2.8294   -1.8756    0.3873 C   0  0  0  0  0  0  0  0  0  0  0  0
    3.2445   -0.1773   -1.2752 C   0  0  0  0  0  0  0  0  0  0  0  0
    4.5698   -0.2414    0.7342 C   0  0  0  0  0  0  0  0  0  0  0  0
    1.4405   -2.0672   -0.2483 C   0  0  0  0  0  0  0  0  0  0  0  0
    2.7874   -2.1192    1.9021 C   0  0  0  0  0  0  0  0  0  0  0  0
    3.8586   -2.8174   -0.2546 C   0  0  0  0  0  0  0  0  0  0  0  0
    3.6886    1.2671   -1.4882 C   0  0  0  0  0  0  0  0  0  0  0  0
    4.9818    1.2048    0.4746 C   0  0  0  0  0  0  0  0  0  0  0  0
   -1.7286   -0.3206    0.5259 C   0  0  0  0  0  0  0  0  0  0  0  0
   -0.7952   -1.2829   -0.2020 C   0  0  0  0  0  0  0  0  0  0  0  0
   -1.2942    1.1370    0.4465 C   0  0  0  0  0  0  0  0  0  0  0  0
   -3.1906   -0.5017    0.1375 C   0  0  0  0  0  0  0  0  0  0  0  0
   -1.6124    1.9844    1.4875 C   0  0  0  0  0  0  0  0  0  0  0  0
   -3.6924    0.2242   -0.9223 C   0  0  0  0  0  0  0  0  0  0  0  0
   -0.5956    1.5644   -0.6636 C   0  0  0  0  0  0  0  0  0  0  0  0
   -3.9658   -1.3864    0.8577 C   0  0  0  0  0  0  0  0  0  0  0  0
   -1.2143    3.3193    1.4150 C   0  0  0  0  0  0  0  0  0  0  0  0
   -5.0309    0.0582   -1.2781 C   0  0  0  0  0  0  0  0  0  0  0  0
   -0.1976    2.8993   -0.7359 C   0  0  0  0  0  0  0  0  0  0  0  0
   -5.3043   -1.5524    0.5018 C   0  0  0  0  0  0  0  0  0  0  0  0
   -0.5070    3.7768    0.3034 C   0  0  0  0  0  0  0  0  0  0  0  0
   -5.8367   -0.8301   -0.5661 C   0  0  0  0  0  0  0  0  0  0  0  0
  1 11  1  0
  1 12  1  0
  2  8  1  0
  2 14  1  0
  3 14  2  0
  4  5  1  0
  4  6  1  0
  4  7  1  0
  5  8  1  0
  5  9  1  0
  5 10  1  0
  6 11  1  0
  7 12  1  0
 13 14  1  0
 13 15  1  0
 13 16  1  0
 15 17  2  0
 15 19  1  0
 16 18  2  0
 16 20  1  0
 17 21  1  0
 18 22  1  0
 19 23  2  0
 20 24  2  0
 21 25  2  0
 22 26  2  0
 23 25  1  0
 24 26  1  0
M  END
>  <PUBCHEM_COMPOUND_CID>  (1) 
48241

>  <PUBCHEM_CONFORMER_RMSD>  (1) 
1

>  <PUBCHEM_CONFORMER_DIVERSEORDER>  (1) 
2
66
29
17
49
67
36
48
37
5
24
19
51
71
32
64
10
13
54
69
18
62
47
38
16
57
42
59
14
35
25
22
56
21
63
60
20
9
34
39
53
46
43
4
45
7
50
28
11
65
61
6
30
44
68
31
70
1
23
55
33
3
40
41
15
58
8
12
52
26
27

>  <PUBCHEM_MMFF94_PARTIAL_CHARGES>  (1) 
34
1 -0.56
11 0.28
12 0.28
13 0.35
14 0.66
15 -0.14
16 -0.14
17 -0.15
18 -0.15
19 -0.15
2 -0.43
20 -0.15
21 -0.15
22 -0.15
23 -0.15
24 -0.15
25 -0.15
26 -0.15
3 -0.57
4 -0.81
44 0.15
45 0.15
46 0.15
47 0.15
48 0.15
49 0.15
5 0.27
50 0.15
51 0.15
52 0.15
53 0.15
6 0.27
7 0.27
8 0.28

>  <PUBCHEM_EFFECTIVE_ROTOR_COUNT>  (1) 
8.2

>  <PUBCHEM_PHARMACOPHORE_FEATURES>  (1) 
7
1 1 acceptor
1 3 acceptor
1 4 cation
3 5 9 10 hydrophobe
6 1 4 6 7 11 12 rings
6 15 17 19 21 23 25 rings
6 16 18 20 22 24 26 rings

>  <PUBCHEM_HEAVY_ATOM_COUNT>  (1) 
26

>  <PUBCHEM_ATOM_DEF_STEREO_COUNT>  (1) 
0

>  <PUBCHEM_ATOM_UDEF_STEREO_COUNT>  (1) 
0

>  <PUBCHEM_BOND_DEF_STEREO_COUNT>  (1) 
0

>  <PUBCHEM_BOND_UDEF_STEREO_COUNT>  (1) 
0

>  <PUBCHEM_ISOTOPIC_ATOM_COUNT>  (1) 
0

>  <PUBCHEM_COMPONENT_COUNT>  (1) 
1

>  <PUBCHEM_CACTVS_TAUTO_COUNT>  (1) 
1

>  <PUBCHEM_CONFORMER_ID>  (1) 
0000BC7100000002

>  <PUBCHEM_MMFF94_ENERGY>  (1) 
77.8843

>  <PUBCHEM_FEATURE_SELFOVERLAP>  (1) 
35.522

>  <PUBCHEM_SHAPE_FINGERPRINT>  (1) 
10090160 65 18187077373365777594
10165383 225 16128384808990096180
10498660 4 18340491166064299662
10670039 82 18339657663652856644
10906281 52 18271535187460339633
1100329 8 18124038093967885004
11045515 52 18334856091773377621
11112241 14 16841619455658782088
11135609 187 18191031307405650637
11582403 64 15581743606437955301
12107698 1 18264204725847358914
12166972 35 17894632573855973388
12403260 363 18266173929586924018
12516196 113 18342173384664019435
12553582 1 18272083937254952351
12788726 201 18272938206292785913
12838862 33 18265880531923612948
13004483 165 18340196398074098051
13140716 1 18052540160249783120
13899415 154 18341622571950313361
13911987 19 18412541024908553511
14251757 17 17241309301387147661
14464042 87 18413394241151378009
14787075 74 18187931754172448739
14840074 17 17846500365565156069
14955137 171 18129394859222061459
15927050 60 17405432590063367420
17492 89 18265894653428052378
1813 80 17989490732045188901
20715895 44 17753595863666723109
21049683 271 18263085586503571597
2132832 1 17972297552551973026
23557571 272 18127407848283966535
23558518 356 17978796701385867779
23559900 14 18116987784903830403
3004659 81 18040994016637033098
312423 11 18338807689129164058
3493558 16 17748824082044523853
350125 39 18269277863897088830
463206 1 18195808702691615167
474 4 17967818279935877582
5265222 85 16895119608291827973
5283173 99 17895464813969310757
532947 4 17984130736992437217
59755656 215 18408889534287673870
6669772 16 17836927076652153461
7164475 11 18267866081960157150

>  <PUBCHEM_SHAPE_MULTIPOLES>  (1) 
512.48
11.3
3.72
1.39
1.9
2.62
-0.13
-4.33
1.62
-0.89
-0.79
-0.26
0.24
-0.98

>  <PUBCHEM_SHAPE_SELFOVERLAP>  (1) 
1087.739

>  <PUBCHEM_SHAPE_VOLUME>  (1) 
285.6

>  <PUBCHEM_COORDINATE_TYPE>  (1) 
2
5
10

$$$$
