48246
     RDKit          3D

 25 27  0  0  1  0  0  0  0  0999 V2000
   -0.5190    0.0234   -0.6675 O   0  0  0  0  0  0  0  0  0  0  0  0
    0.3213   -1.6357    0.6892 O   0  0  0  0  0  0  0  0  0  0  0  0
   -4.5757    0.4529    0.7358 N   0  0  0  0  0  0  0  0  0  0  0  0
   -4.2635    0.2193   -0.6931 C   0  0  0  0  0  0  0  0  0  0  0  0
   -4.5164   -1.2565   -1.0618 C   0  0  0  0  0  0  0  0  0  0  0  0
   -5.9387   -1.6899   -0.7306 C   0  0  0  0  0  0  0  0  0  0  0  0
   -5.9702    0.0884    1.0425 C   0  0  0  0  0  0  0  0  0  0  0  0
   -6.2569   -1.3769    0.7230 C   0  0  0  0  0  0  0  0  0  0  0  0
   -2.8071    0.5564   -1.0436 C   0  0  0  0  0  0  0  0  0  0  0  0
   -4.3418    1.8417    1.1422 C   0  0  0  0  0  0  0  0  0  0  0  0
   -1.8421   -0.3546   -0.3135 C   0  0  0  0  0  0  0  0  0  0  0  0
    1.8445   -0.2293   -0.6062 C   0  0  0  0  0  0  0  0  0  0  0  0
    0.4905   -0.7062   -0.0899 C   0  0  0  0  0  0  0  0  0  0  0  0
    3.0003   -1.1081   -0.1449 C   0  0  0  0  0  0  0  0  0  0  0  0
    2.1149    1.2478   -0.3521 C   0  0  0  0  0  0  0  0  0  0  0  0
    3.6368   -0.8027    1.0400 C   0  0  0  0  0  0  0  0  0  0  0  0
    2.9147    1.9403   -1.2375 C   0  0  0  0  0  0  0  0  0  0  0  0
    3.3733   -2.1816   -0.9264 C   0  0  0  0  0  0  0  0  0  0  0  0
    1.5513    1.8474    0.7549 C   0  0  0  0  0  0  0  0  0  0  0  0
    4.6948   -1.6073    1.4625 C   0  0  0  0  0  0  0  0  0  0  0  0
    3.1622    3.2932   -1.0051 C   0  0  0  0  0  0  0  0  0  0  0  0
    4.4314   -2.9863   -0.5036 C   0  0  0  0  0  0  0  0  0  0  0  0
    1.7988    3.2003    0.9873 C   0  0  0  0  0  0  0  0  0  0  0  0
    5.0921   -2.6991    0.6910 C   0  0  0  0  0  0  0  0  0  0  0  0
    2.6043    3.9232    0.1072 C   0  0  0  0  0  0  0  0  0  0  0  0
  1 11  1  0
  1 13  1  0
  2 13  2  0
  3  4  1  0
  3  7  1  0
  3 10  1  0
  4  5  1  0
  4  9  1  0
  5  6  1  0
  6  8  1  0
  7  8  1  0
  9 11  1  0
 12 13  1  0
 12 14  1  0
 12 15  1  0
 14 16  2  0
 14 18  1  0
 15 17  2  0
 15 19  1  0
 16 20  1  0
 17 21  1  0
 18 22  2  0
 19 23  2  0
 20 24  2  0
 21 25  2  0
 22 24  1  0
 23 25  1  0
M  END
>  <PUBCHEM_COMPOUND_CID>  (1) 
48246

>  <PUBCHEM_CONFORMER_RMSD>  (1) 
1

>  <PUBCHEM_CONFORMER_DIVERSEORDER>  (1) 
4
298
411
436
137
480
360
702
852
751
140
196
42
309
74
11
102
531
36
75
1
394
748
396
706
899
52
398
46
25
79
474
207
655
21
693
806
864
804
918
156
830
41
40
167
643
657
607
189
466
10
891
70
3
818
511
315
229
258
810
415
605
373
69
30
493
407
735
567
216
255
122
8
312
287
47
2
609
431
569
27
48
805
897
182
265
59
308
165
97
447
108
546
457
31
164
181
144
841
62
533
65
84
752
249
32
76
143
381
14
913
104
64
132
281
210
844
124
26
614
280
7
412
219
518
43
162
200
691
461
66
56
37
17
631
502
717
465
760
827
35
20
13
301
371
612
863
22
496
241
236
252
244
288
28
422
467
44
83
299
24
123
54
5
470
50
224
633
179
869
175
487
242

>  <PUBCHEM_MMFF94_PARTIAL_CHARGES>  (1) 
31
1 -0.43
10 0.27
11 0.28
12 0.35
13 0.66
14 -0.14
15 -0.14
16 -0.15
17 -0.15
18 -0.15
19 -0.15
2 -0.57
20 -0.15
21 -0.15
22 -0.15
23 -0.15
24 -0.15
25 -0.15
3 -0.81
4 0.27
43 0.15
44 0.15
45 0.15
46 0.15
47 0.15
48 0.15
49 0.15
50 0.15
51 0.15
52 0.15
7 0.27

>  <PUBCHEM_EFFECTIVE_ROTOR_COUNT>  (1) 
8.2

>  <PUBCHEM_PHARMACOPHORE_FEATURES>  (1) 
5
1 2 acceptor
1 3 cation
6 14 16 18 20 22 24 rings
6 15 17 19 21 23 25 rings
6 3 4 5 6 7 8 rings

>  <PUBCHEM_HEAVY_ATOM_COUNT>  (1) 
25

>  <PUBCHEM_ATOM_DEF_STEREO_COUNT>  (1) 
0

>  <PUBCHEM_ATOM_UDEF_STEREO_COUNT>  (1) 
1

>  <PUBCHEM_BOND_DEF_STEREO_COUNT>  (1) 
0

>  <PUBCHEM_BOND_UDEF_STEREO_COUNT>  (1) 
0

>  <PUBCHEM_ISOTOPIC_ATOM_COUNT>  (1) 
0

>  <PUBCHEM_COMPONENT_COUNT>  (1) 
1

>  <PUBCHEM_CACTVS_TAUTO_COUNT>  (1) 
1

>  <PUBCHEM_CONFORMER_ID>  (1) 
0000BC7600000004

>  <PUBCHEM_MMFF94_ENERGY>  (1) 
58.0305

>  <PUBCHEM_FEATURE_SELFOVERLAP>  (1) 
25.373

>  <PUBCHEM_SHAPE_FINGERPRINT>  (1) 
11265709 11 18267304236403947278
11405975 8 18410856594458938187
11545043 162 17676482809779791581
12107183 9 18126295147175887937
12166972 35 18343865498224512866
12403259 118 18131352973746439033
12516196 113 18338233770114319722
12616971 3 18343866624086205607
12730499 353 18193002731674189725
13009979 54 17917157087126066880
13533116 47 18337954592913074179
13590594 115 18337390414119445544
13782708 43 17894352159673420355
13955234 65 18337388361251347384
14739800 52 17702374242176030336
14849402 71 18337956795989171736
14950920 106 18263950807638809049
14955137 171 18340768126766826414
15021287 119 18342167848087379839
15081414 286 18411974742260898456
15238133 3 17274833428477500593
15250474 111 17987225802501351271
15842332 3 17773297131670982237
17844677 252 18410295787888869789
17980427 26 17841977073824684380
1813 80 18338515214951964694
18785283 64 18335700589443627572
19377110 9 18059287790237405543
19841028 212 18262514931664398507
20028762 73 18412259532620857879
21033648 29 17415814951899514883
21049683 271 18260555532938641692
21344244 78 18272642437917953512
23559900 14 17458348567514970223
249057 25 17918275355735652937
312423 11 18412267242186425973
5104073 3 18411425038070748241
513532 50 17918000512004065028
5385378 56 18339640165766552160
5895379 119 17345491304921014040
5912855 24 17982447398013382391
6086070 43 18044069308084471557
67856867 119 18270956946700866017
6823239 73 16515405170372045981
7495541 125 18040997319387723638
8863177 126 18040727995211448171
9841814 1 18187638086173461730
9962374 69 18339067294132943007
9971528 1 18272083851819985838
9981440 41 17763450013186760672

>  <PUBCHEM_SHAPE_MULTIPOLES>  (1) 
497.77
14.46
4.06
1.3
22.02
2.92
-0.09
-8.42
-2.36
-6.98
-0.05
-0.02
0.09
-1.46

>  <PUBCHEM_SHAPE_SELFOVERLAP>  (1) 
1050.201

>  <PUBCHEM_SHAPE_VOLUME>  (1) 
278.2

>  <PUBCHEM_COORDINATE_TYPE>  (1) 
2
5
10

$$$$
