48259
     RDKit          3D

 25 27  0  0  1  0  0  0  0  0999 V2000
   -0.7496    1.0598    0.3319 O   0  0  0  0  0  0  0  0  0  0  0  0
    0.7915    1.9614   -1.1211 O   0  0  0  0  0  0  0  0  0  0  0  0
   -3.4482   -0.3550    0.7419 N   0  0  0  0  0  0  0  0  0  0  0  0
    1.4528    0.1948    0.4640 C   0  0  0  0  0  0  0  0  0  0  0  0
   -1.5327    2.2573    0.3568 C   0  0  0  0  0  0  0  0  0  0  0  0
    1.0495   -1.2390    0.3871 C   0  0  0  0  0  0  0  0  0  0  0  0
    2.9091    0.4337    0.0398 C   0  0  0  0  0  0  0  0  0  0  0  0
   -2.8856    1.9829    1.0240 C   0  0  0  0  0  0  0  0  0  0  0  0
    0.4927    1.1766   -0.2299 C   0  0  0  0  0  0  0  0  0  0  0  0
   -0.7515    3.3269    1.1097 C   0  0  0  0  0  0  0  0  0  0  0  0
   -3.6630    0.9004    0.3132 C   0  0  0  0  0  0  0  0  0  0  0  0
    1.4012   -2.1183    1.4114 C   0  0  0  0  0  0  0  0  0  0  0  0
    3.3907   -0.2439   -1.0534 C   0  0  0  0  0  0  0  0  0  0  0  0
    0.3203   -1.7007   -0.7087 C   0  0  0  0  0  0  0  0  0  0  0  0
    3.6668    1.3151    0.7716 C   0  0  0  0  0  0  0  0  0  0  0  0
    1.0239   -3.4592    1.3396 C   0  0  0  0  0  0  0  0  0  0  0  0
    4.7135   -0.0267   -1.4390 C   0  0  0  0  0  0  0  0  0  0  0  0
   -0.0571   -3.0418   -0.7803 C   0  0  0  0  0  0  0  0  0  0  0  0
    4.9896    1.5323    0.3858 C   0  0  0  0  0  0  0  0  0  0  0  0
   -4.5198    1.2605   -0.7025 C   0  0  0  0  0  0  0  0  0  0  0  0
    0.2948   -3.9210    0.2440 C   0  0  0  0  0  0  0  0  0  0  0  0
    5.5129    0.8612   -0.7195 C   0  0  0  0  0  0  0  0  0  0  0  0
   -5.2201    0.2401   -1.3365 C   0  0  0  0  0  0  0  0  0  0  0  0
   -4.1463   -1.3200    0.1022 C   0  0  0  0  0  0  0  0  0  0  0  0
   -5.0355   -1.0775   -0.9323 C   0  0  0  0  0  0  0  0  0  0  0  0
  1  5  1  0
  1  9  1  0
  2  9  2  0
  3 11  2  0
  3 24  1  0
  4  6  1  0
  4  7  1  0
  4  9  1  0
  5  8  1  0
  5 10  1  0
  6 12  2  0
  6 14  1  0
  7 13  2  0
  7 15  1  0
  8 11  1  0
 11 20  1  0
 12 16  1  0
 13 17  1  0
 14 18  2  0
 15 19  2  0
 16 21  2  0
 17 22  2  0
 18 21  1  0
 19 22  1  0
 20 23  2  0
 23 25  1  0
 24 25  2  0
M  END
>  <PUBCHEM_COMPOUND_CID>  (1) 
48259

>  <PUBCHEM_CONFORMER_RMSD>  (1) 
1

>  <PUBCHEM_CONFORMER_DIVERSEORDER>  (1) 
1
43
34
430
409
22
384
313
9
237
327
268
82
161
486
47
413
579
185
37
404
136
134
526
471
513
395
310
357
581
350
470
173
7
143
544
234
112
10
77
12
281
366
102
585
241
165
38
200
132
287
4
235
211
139
187
120
126
2
539
81
26
175
381
194
78
164
294
255
91
64
149
444
66
16
497
181
14
466
3
24
494
431
219
57
299
108
259
72
304
5
292
96
386
188
390
31
236
553
123
201
21
51
36
69
316
229
415
110
40
412
325
33
61
330
492
19
8
133
174
280

>  <PUBCHEM_MMFF94_PARTIAL_CHARGES>  (1) 
38
1 -0.43
11 0.17
12 -0.15
13 -0.15
14 -0.15
15 -0.15
16 -0.15
17 -0.15
18 -0.15
19 -0.15
2 -0.57
20 -0.15
21 -0.15
22 -0.15
23 -0.15
24 0.16
25 -0.15
3 -0.62
33 0.15
34 0.15
35 0.15
36 0.15
37 0.15
38 0.15
39 0.15
4 0.35
40 0.15
41 0.15
42 0.15
43 0.15
44 0.15
45 0.15
46 0.15
5 0.28
6 -0.14
7 -0.14
8 0.14
9 0.66

>  <PUBCHEM_EFFECTIVE_ROTOR_COUNT>  (1) 
7

>  <PUBCHEM_PHARMACOPHORE_FEATURES>  (1) 
5
1 2 acceptor
1 3 acceptor
6 3 11 20 23 24 25 rings
6 6 12 14 16 18 21 rings
6 7 13 15 17 19 22 rings

>  <PUBCHEM_HEAVY_ATOM_COUNT>  (1) 
25

>  <PUBCHEM_ATOM_DEF_STEREO_COUNT>  (1) 
0

>  <PUBCHEM_ATOM_UDEF_STEREO_COUNT>  (1) 
1

>  <PUBCHEM_BOND_DEF_STEREO_COUNT>  (1) 
0

>  <PUBCHEM_BOND_UDEF_STEREO_COUNT>  (1) 
0

>  <PUBCHEM_ISOTOPIC_ATOM_COUNT>  (1) 
0

>  <PUBCHEM_COMPONENT_COUNT>  (1) 
1

>  <PUBCHEM_CACTVS_TAUTO_COUNT>  (1) 
2

>  <PUBCHEM_CONFORMER_ID>  (1) 
0000BC8300000001

>  <PUBCHEM_MMFF94_ENERGY>  (1) 
72.0538

>  <PUBCHEM_FEATURE_SELFOVERLAP>  (1) 
25.373

>  <PUBCHEM_SHAPE_FINGERPRINT>  (1) 
10090160 65 18334295361759002429
10498660 4 18413105044081646145
10759866 29 18262512594288987975
108634 29 18270129031788712790
10940486 97 17117202794017135574
1100329 8 18194962082917189369
11007060 377 18342466984433971848
11135926 11 18336540517685289045
11488393 25 17773332131592410726
11578080 2 17316483890425053589
12553582 1 18342174437031201665
12969540 114 18337382829101134414
13052359 8 18262238957632880490
13083527 12 17826494596763034410
14251757 17 17417550011508101966
14251757 5 18048613799911032942
14617045 38 18410856556289061445
14787075 74 18201719608525864504
14790565 3 18335140937877851444
14931854 50 18338504314546871439
15537594 2 18341897377333391039
16114785 44 15183141533954077016
173720 79 18260818324670113402
17980427 23 16588314855962491292
18681886 176 18262234533848434792
19591789 44 18338801100807470566
20028762 73 18271237236530899502
20197701 30 18409164433030838678
21054139 6 18410285934653676615
21421861 104 18051705347530403953
21796203 349 17041800515498627635
22393880 68 18268431243758504181
23559900 14 17908405971069713961
283562 15 18342179938119852048
2871803 45 18341610399891884869
350125 39 18335416804207132170
404807 78 17824260621797441763
4258327 124 17679317501465896796
463206 1 18198051690029377495
474229 33 18411136956790796480
5486654 2 18411701023420260820
59755656 215 18342744026487195487
59755656 520 18261385685370818782
7495541 125 15697994150223876312
81228 2 18191869140245687608

>  <PUBCHEM_SHAPE_MULTIPOLES>  (1) 
497.77
10.62
3.96
1.3
2.07
2.83
-0.05
-3.96
-3.86
0.12
1.35
-0.17
0.17
-0.67

>  <PUBCHEM_SHAPE_SELFOVERLAP>  (1) 
1072.43

>  <PUBCHEM_SHAPE_VOLUME>  (1) 
271.4

>  <PUBCHEM_COORDINATE_TYPE>  (1) 
2
5
10

$$$$
