48250
     RDKit          3D

 25 27  0  0  0  0  0  0  0  0999 V2000
   -0.2234    1.5616    0.4656 O   0  0  0  0  0  0  0  0  0  0  0  0
    1.4740    2.2411   -0.9331 O   0  0  0  0  0  0  0  0  0  0  0  0
   -5.3651   -0.3112   -0.5766 N   0  0  0  0  0  0  0  0  0  0  0  0
   -3.0801    1.2090    0.4542 C   0  0  0  0  0  0  0  0  0  0  0  0
   -4.4249    1.1479    1.1861 C   0  0  0  0  0  0  0  0  0  0  0  0
   -3.2935    0.9586   -1.0426 C   0  0  0  0  0  0  0  0  0  0  0  0
   -5.1717   -0.1498    0.8707 C   0  0  0  0  0  0  0  0  0  0  0  0
   -4.0781   -0.3326   -1.2845 C   0  0  0  0  0  0  0  0  0  0  0  0
   -2.3857    2.5469    0.6930 C   0  0  0  0  0  0  0  0  0  0  0  0
   -1.0459    2.6147   -0.0175 C   0  0  0  0  0  0  0  0  0  0  0  0
   -6.1248   -1.5289   -0.8590 C   0  0  0  0  0  0  0  0  0  0  0  0
    1.8181    0.3473    0.5741 C   0  0  0  0  0  0  0  0  0  0  0  0
    1.0339    1.4808   -0.0799 C   0  0  0  0  0  0  0  0  0  0  0  0
    3.2794    0.3103    0.1453 C   0  0  0  0  0  0  0  0  0  0  0  0
    1.1517   -1.0161    0.4462 C   0  0  0  0  0  0  0  0  0  0  0  0
    3.6296   -0.4350   -0.9612 C   0  0  0  0  0  0  0  0  0  0  0  0
    1.3556   -1.9526    1.4385 C   0  0  0  0  0  0  0  0  0  0  0  0
    4.2060    1.0235    0.8768 C   0  0  0  0  0  0  0  0  0  0  0  0
    0.3646   -1.2721   -0.6573 C   0  0  0  0  0  0  0  0  0  0  0  0
    4.9675   -0.4689   -1.3540 C   0  0  0  0  0  0  0  0  0  0  0  0
    0.7453   -3.2014    1.3216 C   0  0  0  0  0  0  0  0  0  0  0  0
    5.5440    0.9897    0.4838 C   0  0  0  0  0  0  0  0  0  0  0  0
   -0.2459   -2.5209   -0.7740 C   0  0  0  0  0  0  0  0  0  0  0  0
    5.9247    0.2434   -0.6317 C   0  0  0  0  0  0  0  0  0  0  0  0
   -0.0555   -3.4854    0.2156 C   0  0  0  0  0  0  0  0  0  0  0  0
  1 10  1  0
  1 13  1  0
  2 13  2  0
  3  7  1  0
  3  8  1  0
  3 11  1  0
  4  5  1  0
  4  6  1  0
  4  9  1  0
  5  7  1  0
  6  8  1  0
  9 10  1  0
 12 13  1  0
 12 14  1  0
 12 15  1  0
 14 16  2  0
 14 18  1  0
 15 17  2  0
 15 19  1  0
 16 20  1  0
 17 21  1  0
 18 22  2  0
 19 23  2  0
 20 24  2  0
 21 25  2  0
 22 24  1  0
 23 25  1  0
M  END
>  <PUBCHEM_COMPOUND_CID>  (1) 
48250

>  <PUBCHEM_CONFORMER_RMSD>  (1) 
0.8

>  <PUBCHEM_CONFORMER_DIVERSEORDER>  (1) 
1
320
176
195
351
93
103
280
15
46
308
159
205
396
365
240
244
170
400
54
242
287
380
219
251
215
395
75
331
329
145
363
117
182
354
178
326
392
279
118
17
122
255
339
273
362
268
4
135
60
235
321
269
37
150
174
221
110
217
290
266
119
361
281
140
94
265
42
151
101
188
312
153
97
314
201
126
202
386
196
224
100
26
190
247
355
171
200
338
184
294
323
6
212
403
9
35
348
166
257
346
24
233
366
325
317
127
405
5
275
109
52
368
239
85
163
234
262
296
56
43
307
31
306
304
98
227
226
394
72
92
149
288
186
340
2
51
192
123
34
157
28
146
33
169
142
278
137
375
318
364
378
358
404
132
25
336
230
330
209
96
277
345
398
102
315
50
397
352
191
14
393
3
148
407
349
299
204
232
350
29
272
302
335
61
376
162
90
274
258
359
298
241
347
105
297
55
390
246
172
208
53
313
88
311
270
267
271
143
310
41
389
193
324
84
160
134
259
11
211
120
168
216
74
78
124
337
367
23
327
199
229
95
222
238
45
357
66
295
194
256
282
108
156
252
253
225
237
206
391
260
343
264
112
48
181
58
19
250
91
177
57
21
130
300
47
292
10
309
179
167
133
36
131
8
301
22
27
284
356
344
77
44
183
139
289
231
20
322
341
136
104
316
353
106
276
87
173
40
291
382
203
155
261
175
369
76
384
387
152
138
13
286
161
342
67
64
197
16
63
283
293
38
121
285
373
80
125
332
388
180
71
245
7
228
165
374
49
12
99
111
220
107
128
114
18
223
236
210
218
377
158
399
248
243
89
214
70
30
383
263
113
254
333
319
32
189
116
39
207
303
198
164
73
81
334
79
68
401
115
370
62
185
187
402
86
408
59
379
328
305
249
360
381
154
371
406
82
141
65
69
385
129
144
372
147
83
213

>  <PUBCHEM_MMFF94_PARTIAL_CHARGES>  (1) 
31
1 -0.43
10 0.28
11 0.27
12 0.35
13 0.66
14 -0.14
15 -0.14
16 -0.15
17 -0.15
18 -0.15
19 -0.15
2 -0.57
20 -0.15
21 -0.15
22 -0.15
23 -0.15
24 -0.15
25 -0.15
3 -0.81
43 0.15
44 0.15
45 0.15
46 0.15
47 0.15
48 0.15
49 0.15
50 0.15
51 0.15
52 0.15
7 0.27
8 0.27

>  <PUBCHEM_EFFECTIVE_ROTOR_COUNT>  (1) 
8.2

>  <PUBCHEM_PHARMACOPHORE_FEATURES>  (1) 
5
1 2 acceptor
1 3 cation
6 14 16 18 20 22 24 rings
6 15 17 19 21 23 25 rings
6 3 4 5 6 7 8 rings

>  <PUBCHEM_HEAVY_ATOM_COUNT>  (1) 
25

>  <PUBCHEM_ATOM_DEF_STEREO_COUNT>  (1) 
0

>  <PUBCHEM_ATOM_UDEF_STEREO_COUNT>  (1) 
0

>  <PUBCHEM_BOND_DEF_STEREO_COUNT>  (1) 
0

>  <PUBCHEM_BOND_UDEF_STEREO_COUNT>  (1) 
0

>  <PUBCHEM_ISOTOPIC_ATOM_COUNT>  (1) 
0

>  <PUBCHEM_COMPONENT_COUNT>  (1) 
1

>  <PUBCHEM_CACTVS_TAUTO_COUNT>  (1) 
1

>  <PUBCHEM_CONFORMER_ID>  (1) 
0000BC7A00000001

>  <PUBCHEM_MMFF94_ENERGY>  (1) 
56.9727

>  <PUBCHEM_FEATURE_SELFOVERLAP>  (1) 
25.373

>  <PUBCHEM_SHAPE_FINGERPRINT>  (1) 
10090160 65 18113903740580925072
10119406 146 18337686209329686462
1100329 8 18265610072983563249
11488393 25 17771081401162317270
11578080 2 17462000964690655981
12553582 1 18341886364942519609
12596602 18 17489308611930358153
12838862 33 18268126769875546717
14787075 74 18201717379543307032
14790565 3 18409455794980761740
14931854 50 18336252506101176815
15209289 33 18273494580730307297
15537594 2 18340211804438196153
15849732 13 17458065976337184996
17349148 13 18040442057484018336
173720 79 18113891668182288586
17980427 23 16805898289972493284
19591789 44 18266177223921460658
20028762 73 18343582970764796550
20567600 347 18261963938092164578
208703 8 17414413290414885359
21054139 6 18408882940594592929
21344244 181 18131362903321068086
22393880 68 18267585693462635524
22956985 138 17535182246875514378
3737641 26 18198633142079196583
404807 78 17314796420109868627
4258327 124 17751376177893521036
463206 1 18267861865098889911
469060 322 17749940159165669447
474229 33 18408324388809047728
484989 97 17973724968217795739
58260988 647 16987739912942101070
59755656 215 18341895203378819959
6442390 28 18411703154098189786

>  <PUBCHEM_SHAPE_MULTIPOLES>  (1) 
497.77
12.65
3.29
1.31
3.33
1.8
0
-1.72
-2.41
0.87
0.71
0.12
0.34
-0.74

>  <PUBCHEM_SHAPE_SELFOVERLAP>  (1) 
1050.353

>  <PUBCHEM_SHAPE_VOLUME>  (1) 
277.8

>  <PUBCHEM_COORDINATE_TYPE>  (1) 
2
5
10

$$$$
