48255
     RDKit          3D

 26 28  0  0  0  0  0  0  0  0999 V2000
   -0.1960    1.4729    0.1322 O   0  0  0  0  0  0  0  0  0  0  0  0
   -2.1732    2.2677    1.0031 O   0  0  0  0  0  0  0  0  0  0  0  0
    6.1624   -0.5759   -0.7946 N   0  0  0  0  0  0  0  0  0  0  0  0
    4.0220    0.9053    0.5542 C   0  0  0  0  0  0  0  0  0  0  0  0
    4.6002   -0.3981    1.1154 C   0  0  0  0  0  0  0  0  0  0  0  0
    4.2211    0.9483   -0.9647 C   0  0  0  0  0  0  0  0  0  0  0  0
    2.5473    1.0531    0.9185 C   0  0  0  0  0  0  0  0  0  0  0  0
    6.0499   -0.6009    0.6699 C   0  0  0  0  0  0  0  0  0  0  0  0
    5.6832    0.7005   -1.3416 C   0  0  0  0  0  0  0  0  0  0  0  0
    1.9924    2.3919    0.4474 C   0  0  0  0  0  0  0  0  0  0  0  0
    7.5443   -0.8226   -1.2063 C   0  0  0  0  0  0  0  0  0  0  0  0
    0.5113    2.5262    0.7719 C   0  0  0  0  0  0  0  0  0  0  0  0
   -2.1836    0.3108   -0.4619 C   0  0  0  0  0  0  0  0  0  0  0  0
   -1.5548    1.4539    0.3288 C   0  0  0  0  0  0  0  0  0  0  0  0
   -3.7065    0.3352   -0.4337 C   0  0  0  0  0  0  0  0  0  0  0  0
   -1.6289   -1.0622   -0.1066 C   0  0  0  0  0  0  0  0  0  0  0  0
   -4.3645   -0.3437    0.5705 C   0  0  0  0  0  0  0  0  0  0  0  0
   -1.6017   -2.0413   -1.0779 C   0  0  0  0  0  0  0  0  0  0  0  0
   -4.3793    1.0359   -1.4129 C   0  0  0  0  0  0  0  0  0  0  0  0
   -1.1703   -1.2839    1.1755 C   0  0  0  0  0  0  0  0  0  0  0  0
   -5.7589   -0.3213    0.5966 C   0  0  0  0  0  0  0  0  0  0  0  0
   -1.0935   -3.2989   -0.7525 C   0  0  0  0  0  0  0  0  0  0  0  0
   -5.7739    1.0583   -1.3867 C   0  0  0  0  0  0  0  0  0  0  0  0
   -0.6620   -2.5416    1.5007 C   0  0  0  0  0  0  0  0  0  0  0  0
   -6.4636    0.3797   -0.3818 C   0  0  0  0  0  0  0  0  0  0  0  0
   -0.6236   -3.5489    0.5367 C   0  0  0  0  0  0  0  0  0  0  0  0
  1 12  1  0
  1 14  1  0
  2 14  2  0
  3  8  1  0
  3  9  1  0
  3 11  1  0
  4  5  1  0
  4  6  1  0
  4  7  1  0
  5  8  1  0
  6  9  1  0
  7 10  1  0
 10 12  1  0
 13 14  1  0
 13 15  1  0
 13 16  1  0
 15 17  2  0
 15 19  1  0
 16 18  2  0
 16 20  1  0
 17 21  1  0
 18 22  1  0
 19 23  2  0
 20 24  2  0
 21 25  2  0
 22 26  2  0
 23 25  1  0
 24 26  1  0
M  END
>  <PUBCHEM_COMPOUND_CID>  (1) 
48255

>  <PUBCHEM_CONFORMER_RMSD>  (1) 
1

>  <PUBCHEM_CONFORMER_DIVERSEORDER>  (1) 
1
7
99
120
121
55
113
3
52
2
150
145
159
57
167
50
74
106
62
22
76
14
86
36
146
29
160
95
127
23
119
133
94
83
151
39
10
13
33
152
149
5
114
77
65
84
107
136
40
142
81
59
102
75
163
45
78
87
162
115
89
147
98
44
68
168
135
137
139
90
12
17
108
64
93
110
164
128
15
85
69
138
66
20
28
30
117
4
70
118
18
101
153
60
161
144
58
123
25
24
26
148
158
73
82
9
32
11
6
61
54
43
97
79
53
134
71
51
169
88
124
92
47
154
21
125
122
129
8
56
103
49
16
27
126
34
80
35
38
111
105
19
67
96
41
157
100
63
37
31
165
170
155
109
131
156
42
130
166
46
91
104
140
72
112
141
48
132
171
143
116

>  <PUBCHEM_MMFF94_PARTIAL_CHARGES>  (1) 
31
1 -0.43
11 0.27
12 0.28
13 0.35
14 0.66
15 -0.14
16 -0.14
17 -0.15
18 -0.15
19 -0.15
2 -0.57
20 -0.15
21 -0.15
22 -0.15
23 -0.15
24 -0.15
25 -0.15
26 -0.15
3 -0.81
46 0.15
47 0.15
48 0.15
49 0.15
50 0.15
51 0.15
52 0.15
53 0.15
54 0.15
55 0.15
8 0.27
9 0.27

>  <PUBCHEM_EFFECTIVE_ROTOR_COUNT>  (1) 
9.2

>  <PUBCHEM_PHARMACOPHORE_FEATURES>  (1) 
5
1 2 acceptor
1 3 cation
6 15 17 19 21 23 25 rings
6 16 18 20 22 24 26 rings
6 3 4 5 6 8 9 rings

>  <PUBCHEM_HEAVY_ATOM_COUNT>  (1) 
26

>  <PUBCHEM_ATOM_DEF_STEREO_COUNT>  (1) 
0

>  <PUBCHEM_ATOM_UDEF_STEREO_COUNT>  (1) 
0

>  <PUBCHEM_BOND_DEF_STEREO_COUNT>  (1) 
0

>  <PUBCHEM_BOND_UDEF_STEREO_COUNT>  (1) 
0

>  <PUBCHEM_ISOTOPIC_ATOM_COUNT>  (1) 
0

>  <PUBCHEM_COMPONENT_COUNT>  (1) 
1

>  <PUBCHEM_CACTVS_TAUTO_COUNT>  (1) 
1

>  <PUBCHEM_CONFORMER_ID>  (1) 
0000BC7F00000001

>  <PUBCHEM_MMFF94_ENERGY>  (1) 
57.6529

>  <PUBCHEM_FEATURE_SELFOVERLAP>  (1) 
25.373

>  <PUBCHEM_SHAPE_FINGERPRINT>  (1) 
10391435 84 18341333384193377892
10674148 151 18059859424662289632
10764073 3 18046096945139676699
107951 10 17603587438872915315
11578080 2 16984890201681925169
11991303 11 17894907473333439491
12011746 2 18412825776633794668
12555020 224 18342734139414243189
12643181 29 18411699903087833326
12788726 201 18340485561184888840
13402501 40 18272655636637186438
13533116 47 13973977493193977140
14251752 14 18040994029579944348
14251757 5 18334581291086037634
14617045 38 18409168801334514034
14866123 147 18266735964855171355
14931854 50 18338238159528341318
15183329 4 18413390921341916984
15849732 13 17603868913859694629
15927050 60 17552649049406894593
16628084 112 18190457147919285326
19319366 153 17821720625071640930
20465049 17 18334010613995873402
21344244 246 18201715120554195983
21781051 124 18260835946815719923
23559900 14 18200869707676006064
249057 3 18187368749033117436
3004659 81 18260829298348873956
3298306 158 18334564733849948611
3383291 50 18342738528786936850
340366 18 18188209917602747908
3729539 64 18339360768825771986
4015057 19 17702934971742181184
404807 14 15191108139909682054
4058900 60 17822849750435170585
44062 13 18340486793582240790
5265222 85 18187933936126293252
58260988 521 18114762507277634723
59755656 215 18343017753115764831
6138700 20 18412826867502636375
621550 34 11242514610293236992
6679774 75 17969481801789131139
7399639 24 7853309647495258152
9709674 26 18125714845048064848

>  <PUBCHEM_SHAPE_MULTIPOLES>  (1) 
518.35
16.48
3.14
1.4
16.11
2.18
0.14
-1.85
5.94
-0.9
-0.52
0.4
0.12
0.69

>  <PUBCHEM_SHAPE_SELFOVERLAP>  (1) 
1087.987

>  <PUBCHEM_SHAPE_VOLUME>  (1) 
290.8

>  <PUBCHEM_COORDINATE_TYPE>  (1) 
2
5
10

$$$$
