48263
     RDKit          3D

 24 26  0  0  0  0  0  0  0  0999 V2000
    0.6165   -1.5200    0.4428 O   0  0  0  0  0  0  0  0  0  0  0  0
   -1.1094   -2.3101   -0.8596 O   0  0  0  0  0  0  0  0  0  0  0  0
    3.3274   -0.1721    1.0791 N   0  0  0  0  0  0  0  0  0  0  0  0
   -1.4156   -0.3043    0.5383 C   0  0  0  0  0  0  0  0  0  0  0  0
   -0.7969    1.0304    0.2929 C   0  0  0  0  0  0  0  0  0  0  0  0
   -2.9086   -0.3499    0.1827 C   0  0  0  0  0  0  0  0  0  0  0  0
   -0.6525   -1.4944   -0.0689 C   0  0  0  0  0  0  0  0  0  0  0  0
   -0.9610    2.0569    1.2230 C   0  0  0  0  0  0  0  0  0  0  0  0
   -3.3264    0.2781   -0.9652 C   0  0  0  0  0  0  0  0  0  0  0  0
   -0.0536    1.2521   -0.8666 C   0  0  0  0  0  0  0  0  0  0  0  0
   -3.7617   -1.0170    1.0273 C   0  0  0  0  0  0  0  0  0  0  0  0
    1.4428   -2.5993   -0.0052 C   0  0  0  0  0  0  0  0  0  0  0  0
    2.8188   -2.4988    0.6439 C   0  0  0  0  0  0  0  0  0  0  0  0
   -0.3822    3.3051    0.9936 C   0  0  0  0  0  0  0  0  0  0  0  0
   -4.6826    0.2367   -1.2886 C   0  0  0  0  0  0  0  0  0  0  0  0
    0.5252    2.5004   -1.0958 C   0  0  0  0  0  0  0  0  0  0  0  0
   -5.1179   -1.0585    0.7039 C   0  0  0  0  0  0  0  0  0  0  0  0
    3.5378   -1.2252    0.2705 C   0  0  0  0  0  0  0  0  0  0  0  0
    0.3609    3.5269   -0.1656 C   0  0  0  0  0  0  0  0  0  0  0  0
   -5.5783   -0.4316   -0.4541 C   0  0  0  0  0  0  0  0  0  0  0  0
    4.3435   -1.2231   -0.8465 C   0  0  0  0  0  0  0  0  0  0  0  0
    4.9915   -0.0341   -1.1627 C   0  0  0  0  0  0  0  0  0  0  0  0
    3.9738    0.9660    0.7402 C   0  0  0  0  0  0  0  0  0  0  0  0
    4.8084    1.0859   -0.3593 C   0  0  0  0  0  0  0  0  0  0  0  0
  1  7  1  0
  1 12  1  0
  2  7  2  0
  3 18  2  0
  3 23  1  0
  4  5  1  0
  4  6  1  0
  4  7  1  0
  5  8  2  0
  5 10  1  0
  6  9  2  0
  6 11  1  0
  8 14  1  0
  9 15  1  0
 10 16  2  0
 11 17  2  0
 12 13  1  0
 13 18  1  0
 14 19  2  0
 15 20  2  0
 16 19  1  0
 17 20  1  0
 18 21  1  0
 21 22  2  0
 22 24  1  0
 23 24  2  0
M  END
>  <PUBCHEM_COMPOUND_CID>  (1) 
48263

>  <PUBCHEM_CONFORMER_RMSD>  (1) 
0.8

>  <PUBCHEM_CONFORMER_DIVERSEORDER>  (1) 
1
244
288
255
311
161
218
287
97
355
312
40
256
34
12
216
206
349
220
323
189
351
352
262
247
292
128
91
183
354
365
307
154
172
378
242
101
181
243
135
325
144
400
27
235
156
63
146
221
57
374
383
9
338
348
310
353
61
330
112
212
24
276
318
110
209
107
190
14
196
168
295
275
18
124
371
266
138
5
360
399
314
182
339
340
41
342
56
194
347
47
87
396
304
230
359
208
167
358
4
290
251
108
237
88
261
106
326
319
201
50
111
122
270
321
214
305
267
397
148
203
42
192
178
35
155
11
408
263
322
381
6
226
389
23
104
13
236
392
238
219
271
254
89
115
388
133
83
39
273
224
210
121
264
8
179
225
401
222
282
198
51
120
356
142
301
80
331
137
141
385
382
367
21
140
410
279
373
327
109
289
10
48
272
376
303
293
274
25
309
328
334
175
411
44
320
134
85
28
117
372
16
297
317
298
294
250
252
147
362
232
357
291
207
268
65
76
329
363
157
173
36
364
19
26
158
300
202
278
129
177
404
53
379
180
92
369
257
160
103
68
96
335
52
345
71
95
296
215
280
403
116
233
286
174
240
94
114
394
195
204
370
248
234
306
58
20
193
390
22
151
100
113
150
350
59
239
17
102
336
231
70
269
281
54
73
171
60
277
165
199
402
217
37
123
384
186
62
29
15
223
316
375
78
241
159
377
74
265
361
324
406
164
337
131
213
405
31
75
260
7
90
249
33
302
344
152
227
228
366
188
205
315
211
284
253
197
162
46
332
38
391
69
398
229
67
43
130
127
343
64
308
153
409
386
169
341
176
2
246
49
333
79
187
258
98
387
185
126
86
283
259
149
395
93
313
407
170
166
132
3
163
191
346
393
125
32
299
285
143
145
118
99
105
184
45
72
30
380
77
82
81
84
66
55
139
245
119
368
200
136

>  <PUBCHEM_MMFF94_PARTIAL_CHARGES>  (1) 
38
1 -0.43
10 -0.15
11 -0.15
12 0.28
13 0.14
14 -0.15
15 -0.15
16 -0.15
17 -0.15
18 0.17
19 -0.15
2 -0.57
20 -0.15
21 -0.15
22 -0.15
23 0.16
24 -0.15
26 0.15
27 0.15
28 0.15
29 0.15
3 -0.62
34 0.15
35 0.15
36 0.15
37 0.15
38 0.15
39 0.15
4 0.35
40 0.15
41 0.15
42 0.15
43 0.15
5 -0.14
6 -0.14
7 0.66
8 -0.15
9 -0.15

>  <PUBCHEM_EFFECTIVE_ROTOR_COUNT>  (1) 
7

>  <PUBCHEM_PHARMACOPHORE_FEATURES>  (1) 
5
1 2 acceptor
1 3 acceptor
6 3 18 21 22 23 24 rings
6 5 8 10 14 16 19 rings
6 6 9 11 15 17 20 rings

>  <PUBCHEM_HEAVY_ATOM_COUNT>  (1) 
24

>  <PUBCHEM_ATOM_DEF_STEREO_COUNT>  (1) 
0

>  <PUBCHEM_ATOM_UDEF_STEREO_COUNT>  (1) 
0

>  <PUBCHEM_BOND_DEF_STEREO_COUNT>  (1) 
0

>  <PUBCHEM_BOND_UDEF_STEREO_COUNT>  (1) 
0

>  <PUBCHEM_ISOTOPIC_ATOM_COUNT>  (1) 
0

>  <PUBCHEM_COMPONENT_COUNT>  (1) 
1

>  <PUBCHEM_CACTVS_TAUTO_COUNT>  (1) 
2

>  <PUBCHEM_CONFORMER_ID>  (1) 
0000BC8700000001

>  <PUBCHEM_MMFF94_ENERGY>  (1) 
63.9275

>  <PUBCHEM_FEATURE_SELFOVERLAP>  (1) 
25.373

>  <PUBCHEM_SHAPE_FINGERPRINT>  (1) 
10498660 4 18409451418819965566
10670039 82 18265629710460186494
10906281 52 18269283357497552205
1100329 8 18194968663076014648
11112241 14 17128157657866958920
12011746 2 18410859871565970724
12166972 35 17749396957682845518
12553582 1 18340760520474352960
12788726 201 18412547587534250232
12838862 33 18265597936049965764
12969540 114 18410562994599731695
13004483 165 18266447720729771235
13140716 1 18050851314589417601
13544653 18 18411698777241788969
13899415 154 18338529615333658353
13911987 19 18409167701527753959
14170010 4 18410569613782072665
14251757 17 17531793659064146541
14787075 74 18186804720399586275
14840074 17 18060139847102747023
14955137 171 18270975647088914075
15927050 60 17692257751889752460
1601671 61 18409163324797310155
17492 54 17896058675219339636
18785283 64 17970638608643994669
20715895 44 17389362841208311941
21033650 10 15503221034051236518
21049683 271 18261119629532240621
221357 26 18201165360829883846
23558518 356 17759802546380453587
23559900 14 18055915635309867568
2871803 45 18410013213421643172
312423 11 18193842539942266242
3493558 16 17530965735577948365
350125 39 18266740178323031610
44154327 71 18408886265485017966
5265222 85 17036709188579078468
5283173 99 17823409393126812333
532947 4 18198052788623250368
537710 114 18335421278971951060
6443956 14 18337953492853294408
70251023 43 18121781617025414635
81228 2 17762628291806844819

>  <PUBCHEM_SHAPE_MULTIPOLES>  (1) 
477.19
10.62
3.41
1.21
1.37
2.04
0.06
-3.72
1.74
-1.38
-0.4
0.18
0.27
0.05

>  <PUBCHEM_SHAPE_SELFOVERLAP>  (1) 
1030.199

>  <PUBCHEM_SHAPE_VOLUME>  (1) 
259.2

>  <PUBCHEM_COORDINATE_TYPE>  (1) 
2
5
10

$$$$
