48267
     RDKit          3D

 25 27  0  0  0  0  0  0  0  0999 V2000
   -0.1625    1.2589    0.0595 O   0  0  0  0  0  0  0  0  0  0  0  0
    1.6422    2.2599   -0.9604 O   0  0  0  0  0  0  0  0  0  0  0  0
   -6.9824   -0.1803    0.6116 N   0  0  0  0  0  0  0  0  0  0  0  0
    1.9551    0.2764    0.4677 C   0  0  0  0  0  0  0  0  0  0  0  0
    1.5362   -1.1145    0.1292 C   0  0  0  0  0  0  0  0  0  0  0  0
    3.4702    0.4947    0.3470 C   0  0  0  0  0  0  0  0  0  0  0  0
   -2.4564    1.9633   -0.0704 C   0  0  0  0  0  0  0  0  0  0  0  0
   -2.9163    0.5757   -0.5143 C   0  0  0  0  0  0  0  0  0  0  0  0
   -1.0270    2.2467   -0.5107 C   0  0  0  0  0  0  0  0  0  0  0  0
    1.1646    1.3843   -0.2499 C   0  0  0  0  0  0  0  0  0  0  0  0
   -4.3460    0.3093   -0.1189 C   0  0  0  0  0  0  0  0  0  0  0  0
    1.6706   -2.1325    1.0732 C   0  0  0  0  0  0  0  0  0  0  0  0
    4.1275   -0.0623   -0.7226 C   0  0  0  0  0  0  0  0  0  0  0  0
    1.0097   -1.3971   -1.1313 C   0  0  0  0  0  0  0  0  0  0  0  0
    4.1024    1.2380    1.3136 C   0  0  0  0  0  0  0  0  0  0  0  0
    1.2787   -3.4333    0.7568 C   0  0  0  0  0  0  0  0  0  0  0  0
    5.5038    0.1361   -0.8325 C   0  0  0  0  0  0  0  0  0  0  0  0
    0.6177   -2.6980   -1.4475 C   0  0  0  0  0  0  0  0  0  0  0  0
    5.4787    1.4363    1.2036 C   0  0  0  0  0  0  0  0  0  0  0  0
   -4.6179   -0.2693    1.1069 C   0  0  0  0  0  0  0  0  0  0  0  0
   -5.3679    0.6477   -0.9862 C   0  0  0  0  0  0  0  0  0  0  0  0
    0.7523   -3.7161   -0.5034 C   0  0  0  0  0  0  0  0  0  0  0  0
    6.1793    0.8855    0.1305 C   0  0  0  0  0  0  0  0  0  0  0  0
   -5.9481   -0.4927    1.4241 C   0  0  0  0  0  0  0  0  0  0  0  0
   -6.6645    0.3831   -0.5755 C   0  0  0  0  0  0  0  0  0  0  0  0
  1  9  1  0
  1 10  1  0
  2 10  2  0
  3 24  2  0
  3 25  1  0
  4  5  1  0
  4  6  1  0
  4 10  1  0
  5 12  2  0
  5 14  1  0
  6 13  2  0
  6 15  1  0
  7  8  1  0
  7  9  1  0
  8 11  1  0
 11 20  2  0
 11 21  1  0
 12 16  1  0
 13 17  1  0
 14 18  2  0
 15 19  2  0
 16 22  2  0
 17 23  2  0
 18 22  1  0
 19 23  1  0
 20 24  1  0
 21 25  2  0
M  END
>  <PUBCHEM_COMPOUND_CID>  (1) 
48267

>  <PUBCHEM_CONFORMER_RMSD>  (1) 
0.8

>  <PUBCHEM_CONFORMER_DIVERSEORDER>  (1) 
1
41
85
72
380
223
187
13
392
420
58
237
377
285
488
478
150
325
86
52
279
105
475
367
97
14
360
278
299
348
480
193
446
271
433
183
142
2
490
430
224
112
47
375
33
391
123
308
317
16
421
431
269
76
192
176
104
400
342
92
379
143
393
268
169
354
330
292
151
474
352
422
411
220
282
469
316
412
204
7
234
289
338
231
491
79
70
264
274
30
266
110
106
276
149
327
468
235
275
167
157
273
447
310
144
281
399
201
11
191
309
302
82
331
418
78
443
29
453
44
320
171
483
390
305
243
394
8
291
137
172
357
324
455
376
470
4
312
335
270
240
81
217
476
6
336
487
314
139
318
450
215
250
265
115
230
486
146
341
350
454
160
333
434
493
15
107
402
448
404
339
351
295
75
345
388
358
200
255
226
261
64
101
473
91
389
156
28
426
297
381
10
489
196
121
403
328
113
124
286
258
415
298
18
219
164
227
301
496
89
239
153
133
166
69
25
464
71
100
170
347
313
57
272
26
429
383
461
436
108
423
62
254
87
410
353
303
257
370
84
238
152
465
23
199
356
148
372
329
417
368
189
374
294
90
211
53
251
479
459
98
198
114
485
326
21
155
182
42
414
438
280
472
22
437
206
3
63
180
229
262
162
24
444
365
385
216
185
175
55
34
56
371
311
212
366
304
409
284
208
482
432
481
195
80
119
471
61
51
66
252
218
322
49
439
60
395
424
202
138
38
378
221
343
373
451
158
427
73
407
74
384
122
334
174
17
449
462
159
120
111
45
136
246
48
287
445
236
35
94
127
184
43
408
93
315
39
456
27
307
209
319
179
131
256
50
406
249
188
332
396
361
405
147
109
140
130
401
103
9
460
260
267
300
213
83
346
186
135
117
161
36
154
177
194
116
20
126
190
203
40
67
163
141
452
244
435
128
416
88
102
168
277
323
283
99
363
228
96
5
467
290
222
321
12
293
495
247
132
457
263
253
242
145
173
442
31
340
19
207
59
466
463
419
181
492
413
178
398
386
425
369
458
205
225
118
95
344
387
129
37
165
494
232
355
440
134
77
210
382
32
296
65
125
233
214
306
288
362
197
68
477
397
54
441
349
46
364
241
484
337
245
359
428
248
259

>  <PUBCHEM_MMFF94_PARTIAL_CHARGES>  (1) 
38
1 -0.43
10 0.66
11 -0.14
12 -0.15
13 -0.15
14 -0.15
15 -0.15
16 -0.15
17 -0.15
18 -0.15
19 -0.15
2 -0.57
20 -0.15
21 -0.15
22 -0.15
23 -0.15
24 0.16
25 0.16
3 -0.62
33 0.15
34 0.15
35 0.15
36 0.15
37 0.15
38 0.15
39 0.15
4 0.35
40 0.15
41 0.15
42 0.15
43 0.15
44 0.15
45 0.15
46 0.15
5 -0.14
6 -0.14
8 0.14
9 0.28

>  <PUBCHEM_EFFECTIVE_ROTOR_COUNT>  (1) 
8

>  <PUBCHEM_PHARMACOPHORE_FEATURES>  (1) 
5
1 2 acceptor
1 3 acceptor
6 3 11 20 21 24 25 rings
6 5 12 14 16 18 22 rings
6 6 13 15 17 19 23 rings

>  <PUBCHEM_HEAVY_ATOM_COUNT>  (1) 
25

>  <PUBCHEM_ATOM_DEF_STEREO_COUNT>  (1) 
0

>  <PUBCHEM_ATOM_UDEF_STEREO_COUNT>  (1) 
0

>  <PUBCHEM_BOND_DEF_STEREO_COUNT>  (1) 
0

>  <PUBCHEM_BOND_UDEF_STEREO_COUNT>  (1) 
0

>  <PUBCHEM_ISOTOPIC_ATOM_COUNT>  (1) 
0

>  <PUBCHEM_COMPONENT_COUNT>  (1) 
1

>  <PUBCHEM_CACTVS_TAUTO_COUNT>  (1) 
1

>  <PUBCHEM_CONFORMER_ID>  (1) 
0000BC8B00000001

>  <PUBCHEM_MMFF94_ENERGY>  (1) 
66.5529

>  <PUBCHEM_FEATURE_SELFOVERLAP>  (1) 
25.373

>  <PUBCHEM_SHAPE_FINGERPRINT>  (1) 
10673678 19 13469830620016810632
10835480 77 18188762848141396069
10906281 52 18041296386666828457
1100329 8 18267298918797039604
11421498 54 17131559336072862867
11488393 25 17986121699437510414
11578080 2 16953086509962954038
11646440 116 18341904016910063897
11719270 70 18333728013711376475
11963148 33 18113332037606474931
12596602 18 17203327840948237753
12778500 126 15912782574257484763
12838862 33 18338779187852742949
13257819 37 18262540147084246358
13402501 40 18260833709074273123
146900 427 18201998811385072379
14840074 17 18272646853392117085
14863182 85 18335711515650492350
15183329 4 11671789273267673711
15537594 2 18343578538964870783
15849732 13 17967816072496806804
18681886 176 18260830432078218180
192875 21 11746940854455932015
20028762 73 18270680990483214319
20567600 347 18334579001773809218
20642791 13 17838034263960701286
21033650 10 15721085943291189397
21197605 99 18193283112067905459
21315763 178 18201998825003508717
21344244 181 17917161524444839382
21365058 27 17775291589971761206
21521721 280 18271809059728252072
21623969 137 18408890646430573363
21781051 124 18260840289228375818
22224240 67 18271518784009850889
2260408 40 18196118602347609689
22956985 138 17753601344277484658
25222932 49 17676483990906698699
255183 313 18266436850547145320
3009799 131 9295289439287298692
3178227 256 18409171034306239952
3737641 26 18128544773234499837
4258327 124 18116444833309929220
439807 62 15430614973517739529
465052 167 17749390377640083624
469060 322 17969480753890346439
474229 33 18408603669268544472
5104073 3 18266176124257073657
5486654 2 18412826919274761740
57359948 33 17531806828156277205
58260988 647 16916245264789253286
59755656 215 18334857203821559169
6442390 28 18411980248329532286
6669772 16 18272932709557742806

>  <PUBCHEM_SHAPE_MULTIPOLES>  (1) 
497.77
15.56
3.18
1.28
17.54
3.35
0.11
-5.76
2.69
-2.11
-0.3
0.06
0.26
1.03

>  <PUBCHEM_SHAPE_SELFOVERLAP>  (1) 
1068.584

>  <PUBCHEM_SHAPE_VOLUME>  (1) 
271.2

>  <PUBCHEM_COORDINATE_TYPE>  (1) 
2
5
10

$$$$
