4827
     RDKit          3D

 30 32  0  0  1  0  0  0  0  0999 V2000
   -0.9666    1.5908    3.2936 Br  0  0  0  0  0  0  0  0  0  0  0  0
    3.4943   -3.2510    1.5276 O   0  0  0  0  0  0  0  0  0  0  0  0
   -4.0592    1.9006    1.8256 O   0  0  0  0  0  0  0  0  0  0  0  0
    3.1940   -0.6106    0.7093 O   0  0  0  0  0  0  0  0  0  0  0  0
    0.1033   -2.2780    0.4155 N   0  0  0  0  0  0  0  0  0  0  0  0
   -2.4670    1.4640    0.1929 N   0  0  0  0  0  0  0  0  0  0  0  0
    1.7800    2.4073   -2.5359 N   0  0  0  0  0  0  0  0  0  0  0  0
   -1.9620   -2.0004   -0.8448 C   0  0  0  0  0  0  0  0  0  0  0  0
   -3.3214    0.6647   -0.6722 C   0  0  0  0  0  0  0  0  0  0  0  0
   -0.8277   -2.9607   -0.4916 C   0  0  0  0  0  0  0  0  0  0  0  0
   -1.4227   -0.7795   -1.5989 C   0  0  0  0  0  0  0  0  0  0  0  0
   -2.7213   -1.5723    0.4165 C   0  0  0  0  0  0  0  0  0  0  0  0
   -2.5335    0.2224   -1.9217 C   0  0  0  0  0  0  0  0  0  0  0  0
   -3.8330   -0.5711    0.0951 C   0  0  0  0  0  0  0  0  0  0  0  0
   -4.5127    1.5338   -1.0981 C   0  0  0  0  0  0  0  0  0  0  0  0
   -1.3835   -4.1977    0.2252 C   0  0  0  0  0  0  0  0  0  0  0  0
   -0.0760   -3.3854   -1.7607 C   0  0  0  0  0  0  0  0  0  0  0  0
    1.4002   -2.9321    0.4010 C   0  0  0  0  0  0  0  0  0  0  0  0
   -2.9211    2.0132    1.3740 C   0  0  0  0  0  0  0  0  0  0  0  0
    2.2265   -2.5989    1.6454 C   0  0  0  0  0  0  0  0  0  0  0  0
   -1.8611    2.8121    2.0828 C   0  0  0  0  0  0  0  0  0  0  0  0
    2.4651   -1.1019    1.8299 C   0  0  0  0  0  0  0  0  0  0  0  0
    2.9621    0.6892    0.3464 C   0  0  0  0  0  0  0  0  0  0  0  0
    2.4705    1.0181   -0.9325 C   0  0  0  0  0  0  0  0  0  0  0  0
    3.2194    1.7146    1.2635 C   0  0  0  0  0  0  0  0  0  0  0  0
    2.2547    2.3622   -1.2443 C   0  0  0  0  0  0  0  0  0  0  0  0
    2.1085    0.2597   -2.0808 C   0  0  0  0  0  0  0  0  0  0  0  0
    2.9949    3.0475    0.9245 C   0  0  0  0  0  0  0  0  0  0  0  0
    2.5072    3.3977   -0.3377 C   0  0  0  0  0  0  0  0  0  0  0  0
    1.6880    1.1416   -3.0496 C   0  0  0  0  0  0  0  0  0  0  0  0
  1 21  1  0
  2 20  1  0
  3 19  2  0
  4 22  1  0
  4 23  1  0
  5 10  1  0
  5 18  1  0
  6  9  1  0
  6 19  1  0
  7 26  1  0
  7 30  1  0
  8 10  1  0
  8 11  1  0
  8 12  1  0
  9 13  1  0
  9 14  1  0
  9 15  1  0
 10 16  1  0
 10 17  1  0
 11 13  1  0
 12 14  1  0
 18 20  1  0
 19 21  1  0
 20 22  1  0
 23 24  1  0
 23 25  2  0
 24 26  2  0
 24 27  1  0
 25 28  1  0
 26 29  1  0
 27 30  2  0
 28 29  2  0
M  END
>  <PUBCHEM_COMPOUND_CID>  (1) 
4827

>  <PUBCHEM_CONFORMER_RMSD>  (1) 
1.2

>  <PUBCHEM_CONFORMER_DIVERSEORDER>  (1) 
1
138
54
82
205
17
142
150
37
130
159
189
115
57
44
98
65
20
169
214
217
47
146
12
218
97
14
210
152
100
173
3
194
67
30
102
149
154
140
110
123
70
39
208
111
93
29
144
53
207
166
198
22
220
216
163
60
85
177
167
76
184
128
181
158
6
118
36
203
28
77
26
139
174
219
75
15
141
215
8
179
84
119
162
27
86
87
43
185
126
172
132
16
124
61
183
78
25
66
83
81
5
107
21
32
59
24
89
72
191
170
105
206
96
193
117
19
176
192
196
199
168
11
178
129
101
180
175
73
161
135
88
109
127
74
4
10
56
182
151
52
188
209
69
213
63
71
50
131
112
212
2
91
186
187
147
165
9
31
153
200
164
160
13
155
171
80
64
92
197
55
113
145
90
79
137
121
42
33
103
133
156
201
120
122
41
38
48
23
40
58
51
108
46
99
7
62
106
49
211
136
148
116
114
134
204
125
45
195
202
95
190
68
157
143
18
104
34
94
35

>  <PUBCHEM_MMFF94_PARTIAL_CHARGES>  (1) 
30
1 -0.23
10 0.27
18 0.27
19 0.57
2 -0.68
20 0.28
21 0.29
22 0.28
23 0.08
25 -0.15
26 -0.15
27 -0.15
28 -0.15
29 -0.15
3 -0.57
30 -0.3
4 -0.36
49 0.36
5 -0.9
50 0.37
58 0.4
59 0.15
6 -0.73
60 0.15
61 0.15
62 0.15
63 0.27
64 0.15
7 0.03
9 0.3

>  <PUBCHEM_EFFECTIVE_ROTOR_COUNT>  (1) 
11.2

>  <PUBCHEM_PHARMACOPHORE_FEATURES>  (1) 
14
1 1 hydrophobe
1 2 acceptor
1 2 donor
1 3 acceptor
1 4 acceptor
1 5 cation
1 5 donor
1 6 donor
1 7 cation
1 7 donor
3 10 16 17 hydrophobe
5 7 24 26 27 30 rings
6 23 24 25 26 28 29 rings
6 8 9 11 12 13 14 rings

>  <PUBCHEM_HEAVY_ATOM_COUNT>  (1) 
30

>  <PUBCHEM_ATOM_DEF_STEREO_COUNT>  (1) 
0

>  <PUBCHEM_ATOM_UDEF_STEREO_COUNT>  (1) 
1

>  <PUBCHEM_BOND_DEF_STEREO_COUNT>  (1) 
0

>  <PUBCHEM_BOND_UDEF_STEREO_COUNT>  (1) 
0

>  <PUBCHEM_ISOTOPIC_ATOM_COUNT>  (1) 
0

>  <PUBCHEM_COMPONENT_COUNT>  (1) 
1

>  <PUBCHEM_CACTVS_TAUTO_COUNT>  (1) 
2

>  <PUBCHEM_CONFORMER_ID>  (1) 
000012DB00000001

>  <PUBCHEM_MMFF94_ENERGY>  (1) 
72.0915

>  <PUBCHEM_FEATURE_SELFOVERLAP>  (1) 
71.141

>  <PUBCHEM_SHAPE_FINGERPRINT>  (1) 
10032420 55 17333069327429761796
10708813 3 18336533980623816568
11244481 83 16445067160901113701
12156800 1 15168929061874034049
12166972 35 18194663909582554295
12422481 6 17681792377516481408
12539773 59 18056733598602974447
12788726 201 17398405602654860111
13965767 371 17897976188616014376
19319366 153 18047177837382870227
22749437 52 18263067980572450878
25265897 201 15478167459105926301
35225 105 17760976021639709097
469060 322 17320720669788846763
539174 4 18334853896433055919

>  <PUBCHEM_SHAPE_MULTIPOLES>  (1) 
590.78
6.97
5.2
2.92
1.62
3.27
-0.05
-3.89
0.14
-0.27
1.77
-0.84
-1.41
-2.37

>  <PUBCHEM_SHAPE_SELFOVERLAP>  (1) 
1222.972

>  <PUBCHEM_SHAPE_VOLUME>  (1) 
344.7

>  <PUBCHEM_COORDINATE_TYPE>  (1) 
2
5
10

$$$$
