48273
     RDKit          3D

 22 23  0  0  1  0  0  0  0  0999 V2000
   -0.0539    0.4122   -0.2512 O   0  0  0  0  0  0  0  0  0  0  0  0
    1.5288   -1.0604    0.5531 O   0  0  0  0  0  0  0  0  0  0  0  0
    7.5850   -0.3581    0.4514 O   0  0  0  0  0  0  0  0  0  0  0  0
   -4.8596   -0.2052   -0.3035 N   0  0  0  0  0  0  0  0  0  0  0  0
   -5.9965   -1.1418   -0.2157 C   0  0  0  0  0  0  0  0  0  0  0  0
   -7.2699   -0.4619   -0.7544 C   0  0  0  0  0  0  0  0  0  0  0  0
   -5.0875    1.0565    0.4096 C   0  0  0  0  0  0  0  0  0  0  0  0
   -7.5629    0.8643   -0.0594 C   0  0  0  0  0  0  0  0  0  0  0  0
   -6.3380    1.7690   -0.1060 C   0  0  0  0  0  0  0  0  0  0  0  0
   -3.5886   -0.8077    0.0886 C   0  0  0  0  0  0  0  0  0  0  0  0
   -6.2420   -1.7453    1.1760 C   0  0  0  0  0  0  0  0  0  0  0  0
   -2.4314    0.1214   -0.2639 C   0  0  0  0  0  0  0  0  0  0  0  0
   -1.0889   -0.4902    0.1138 C   0  0  0  0  0  0  0  0  0  0  0  0
    1.2244    0.0013    0.0266 C   0  0  0  0  0  0  0  0  0  0  0  0
    2.1961    1.0679   -0.4192 C   0  0  0  0  0  0  0  0  0  0  0  0
    3.6354    0.6867   -0.1865 C   0  0  0  0  0  0  0  0  0  0  0  0
    4.2417    1.0151    1.0170 C   0  0  0  0  0  0  0  0  0  0  0  0
    4.3313    0.0140   -1.1800 C   0  0  0  0  0  0  0  0  0  0  0  0
    5.5742    0.6629    1.2316 C   0  0  0  0  0  0  0  0  0  0  0  0
    5.6637   -0.3383   -0.9652 C   0  0  0  0  0  0  0  0  0  0  0  0
    6.2852   -0.0138    0.2406 C   0  0  0  0  0  0  0  0  0  0  0  0
    8.2533   -1.0485   -0.6034 C   0  0  0  0  0  0  0  0  0  0  0  0
  1 13  1  0
  1 14  1  0
  2 14  2  0
  3 21  1  0
  3 22  1  0
  4  5  1  0
  4  7  1  0
  4 10  1  0
  5  6  1  0
  5 11  1  0
  6  8  1  0
  7  9  1  0
  8  9  1  0
 10 12  1  0
 12 13  1  0
 14 15  1  0
 15 16  1  0
 16 17  2  0
 16 18  1  0
 17 19  1  0
 18 20  2  0
 19 21  2  0
 20 21  1  0
M  END
>  <PUBCHEM_COMPOUND_CID>  (1) 
48273

>  <PUBCHEM_CONFORMER_RMSD>  (1) 
1

>  <PUBCHEM_CONFORMER_DIVERSEORDER>  (1) 
1
298
121
399
24
307
57
262
405
220
165
112
28
168
133
313
335
30
394
378
241
141
385
48
17
41
139
132
123
276
412
344
149
47
383
340
322
80
341
193
328
49
288
180
332
131
225
116
411
317
318
302
272
65
393
38
300
189
161
134
81
213
151
264
9
46
147
357
242
86
351
321
173
75
110
249
29
221
146
392
129
333
120
191
310
143
179
97
320
314
162
157
212
31
312
98
77
407
395
400
79
347
406
148
104
114
259
95
346
160
382
43
279
159
25
50
329
18
12
170
247
175
88
207
257
343
20
137
163
99
306
197
294
240
150
235
117
201
111
223
389
176
188
52
66
376
290
323
283
227
291
113
39
153
87
109
381
156
254
219
203
253
387
251
62
55
83
305
119
185
359
377
196
372
183
182
56
319
44
26
401
93
27
6
78
187
42
19
2
33
409
125
198
169
237
229
363
248
367
206
361
327
155
122
374
224
158
154
96
373
16
7
232
200
273
408
375
205
293
336
215
63
243
297
171
403
325
8
316
289
166
164
366
292
304
258
295
85
226
51
178
35
37
303
369
105
128
252
234
356
371
94
115
127
15
167
64
53
337
275
11
138
130
124
214
45
142
68
89
324
181
277
284
404
54
245
230
261
286
370
309
70
108
186
61
5
23
100
60
410
246
91
222
365
92
145
360
21
208
36
315
368
210
233
107
13
106
364
72
353
278
59
296
136
265
58
384
40
4
184
331
231
140
218
354
90
355
135
349
339
74
267
269
358
73
268
301
239
266
271
396
67
199
152
69
228
211
280
285
311
345
391
71
287
3
144
82
398
379
348
103
102
76
263
334
388
32
260
22
238
282
330
342
338
204
270
84
177
216
172
308
236
274
10
194
195
299
192
118
101
386
362
250
202
326
380
34
190
390
255
402
397
244
352
209
217
14
350
126
256
174
281

>  <PUBCHEM_MMFF94_PARTIAL_CHARGES>  (1) 
21
1 -0.43
10 0.27
13 0.28
14 0.66
15 0.2
16 -0.14
17 -0.15
18 -0.15
19 -0.15
2 -0.57
20 -0.15
21 0.08
22 0.28
3 -0.36
4 -0.81
43 0.15
44 0.15
45 0.15
46 0.15
5 0.27
7 0.27

>  <PUBCHEM_EFFECTIVE_ROTOR_COUNT>  (1) 
9.2

>  <PUBCHEM_PHARMACOPHORE_FEATURES>  (1) 
5
1 2 acceptor
1 3 acceptor
1 4 cation
6 16 17 18 19 20 21 rings
6 4 5 6 7 8 9 rings

>  <PUBCHEM_HEAVY_ATOM_COUNT>  (1) 
22

>  <PUBCHEM_ATOM_DEF_STEREO_COUNT>  (1) 
0

>  <PUBCHEM_ATOM_UDEF_STEREO_COUNT>  (1) 
1

>  <PUBCHEM_BOND_DEF_STEREO_COUNT>  (1) 
0

>  <PUBCHEM_BOND_UDEF_STEREO_COUNT>  (1) 
0

>  <PUBCHEM_ISOTOPIC_ATOM_COUNT>  (1) 
0

>  <PUBCHEM_COMPONENT_COUNT>  (1) 
1

>  <PUBCHEM_CACTVS_TAUTO_COUNT>  (1) 
1

>  <PUBCHEM_CONFORMER_ID>  (1) 
0000BC9100000001

>  <PUBCHEM_MMFF94_ENERGY>  (1) 
42.9453

>  <PUBCHEM_FEATURE_SELFOVERLAP>  (1) 
25.372

>  <PUBCHEM_SHAPE_FINGERPRINT>  (1) 
10299344 5 17095242522810295346
10968037 39 9007060167237496629
11315181 36 17895196636675350793
11638347 137 14117804596812661870
11719270 70 17775284950464186758
12091667 2 18272369785394626087
125118 31 18343020012343201584
13533116 47 15574701487775021120
13885169 127 18413108333931883277
14251764 18 17458344139424670052
14251764 46 18410011039498297887
14294032 229 17824261497243108093
14933364 13 18343864424445875489
15183329 4 17458060469382119569
15419008 47 17989200430489608416
17093844 174 18342455950862759513
19489759 90 18410575098429078937
20157964 124 16559032701578878484
21315759 40 17530965778358308222
21315763 28 18272367598749993573
220451 1 16370721547700979019
23035841 295 17240481420470449099
23081809 10 17240485840250272671
23522609 53 17096390383096524197
28498 318 18343584015132575462
33684 2 18202562878784299343
4073 2 18187930637338533642
4325135 7 17313101947472028359
59755656 215 18411984637401376886
59755656 520 16877940572979420947
8209 1 18272088296921083836

>  <PUBCHEM_SHAPE_MULTIPOLES>  (1) 
430.16
27.33
1.36
0.99
0.07
0.04
-0.08
-2.63
0.6
1.79
-0.18
-0.65
-0.06
1.09

>  <PUBCHEM_SHAPE_SELFOVERLAP>  (1) 
873.705

>  <PUBCHEM_SHAPE_VOLUME>  (1) 
250.6

>  <PUBCHEM_COORDINATE_TYPE>  (1) 
2
5
10

$$$$
