48286
     RDKit          3D

 24 25  0  0  1  0  0  0  0  0999 V2000
    2.7545    3.5215    0.8654 O   0  0  0  0  0  0  0  0  0  0  0  0
   -1.6019   -1.6420   -0.4278 N   0  0  0  0  0  0  0  0  0  0  0  0
    2.5451    0.4262   -0.2592 N   0  0  0  0  0  0  0  0  0  0  0  0
   -0.6878   -2.4668    0.4905 C   0  0  0  0  0  0  0  0  0  0  0  0
    0.0012   -1.5536    1.5147 C   0  0  0  0  0  0  0  0  0  0  0  0
   -2.6835   -0.9924    0.3482 C   0  0  0  0  0  0  0  0  0  0  0  0
    0.9090   -0.5177    0.8823 C   0  0  0  0  0  0  0  0  0  0  0  0
   -2.1817   -2.5859   -1.4918 C   0  0  0  0  0  0  0  0  0  0  0  0
   -0.7359   -0.5946   -1.1435 C   0  0  0  0  0  0  0  0  0  0  0  0
   -3.6358   -0.2440   -0.5769 C   0  0  0  0  0  0  0  0  0  0  0  0
    0.7560   -2.4026    2.5464 C   0  0  0  0  0  0  0  0  0  0  0  0
    0.7503    0.8627    0.9978 C   0  0  0  0  0  0  0  0  0  0  0  0
    1.9967   -0.7949    0.1205 C   0  0  0  0  0  0  0  0  0  0  0  0
   -4.8063    0.4728    0.1056 C   0  0  0  0  0  0  0  0  0  0  0  0
    1.7788    1.4345    0.2800 C   0  0  0  0  0  0  0  0  0  0  0  0
   -5.7624    1.1481   -0.8778 C   0  0  0  0  0  0  0  0  0  0  0  0
   -0.3064    1.5848    1.7386 C   0  0  0  0  0  0  0  0  0  0  0  0
    2.6463   -1.9779   -0.3371 C   0  0  0  0  0  0  0  0  0  0  0  0
    3.6850    0.5339   -1.0564 C   0  0  0  0  0  0  0  0  0  0  0  0
    2.0357    2.8343    0.1033 C   0  0  0  0  0  0  0  0  0  0  0  0
    3.7472   -1.8768   -1.1065 C   0  0  0  0  0  0  0  0  0  0  0  0
   -6.9078    1.8381   -0.1525 C   0  0  0  0  0  0  0  0  0  0  0  0
    4.2933   -0.5839   -1.4852 C   0  0  0  0  0  0  0  0  0  0  0  0
    1.4105    3.5759   -1.0788 C   0  0  0  0  0  0  0  0  0  0  0  0
  1 20  2  0
  2  4  1  0
  2  6  1  0
  2  8  1  0
  2  9  1  0
  3 13  1  0
  3 15  1  0
  3 19  1  0
  4  5  1  0
  5  7  1  0
  5 11  1  0
  6 10  1  0
  7 12  1  0
  7 13  2  0
 10 14  1  0
 12 15  2  0
 12 17  1  0
 13 18  1  0
 14 16  1  0
 15 20  1  0
 16 22  1  0
 18 21  2  0
 19 23  2  0
 20 24  1  0
 21 23  1  0
M  CHG  1   2   1
M  END
>  <PUBCHEM_COMPOUND_CID>  (1) 
48286

>  <PUBCHEM_CONFORMER_RMSD>  (1) 
0.8

>  <PUBCHEM_CONFORMER_DIVERSEORDER>  (1) 
7
23
13
9
33
21
28
41
40
34
42
35
12
46
4
15
24
19
6
14
39
32
31
1
47
36
2
18
49
45
20
17
8
16
37
43
3
10
27
38
22
48
44
29
11
25
30
5
26

>  <PUBCHEM_MMFF94_PARTIAL_CHARGES>  (1) 
23
1 -0.57
12 -0.18
13 -0.2
15 -0.24
17 0.18
18 -0.11
19 -0.18
2 -1.01
20 0.59
21 -0.15
23 -0.15
24 0.06
3 0.33
4 0.5
48 0.15
49 0.15
5 0.18
50 0.15
54 0.15
6 0.5
7 -0.18
8 0.5
9 0.5

>  <PUBCHEM_EFFECTIVE_ROTOR_COUNT>  (1) 
8

>  <PUBCHEM_PHARMACOPHORE_FEATURES>  (1) 
7
1 1 acceptor
1 11 hydrophobe
1 2 cation
1 22 hydrophobe
1 3 cation
5 3 7 12 13 15 rings
6 3 13 18 19 21 23 rings

>  <PUBCHEM_HEAVY_ATOM_COUNT>  (1) 
24

>  <PUBCHEM_ATOM_DEF_STEREO_COUNT>  (1) 
0

>  <PUBCHEM_ATOM_UDEF_STEREO_COUNT>  (1) 
1

>  <PUBCHEM_BOND_DEF_STEREO_COUNT>  (1) 
0

>  <PUBCHEM_BOND_UDEF_STEREO_COUNT>  (1) 
0

>  <PUBCHEM_ISOTOPIC_ATOM_COUNT>  (1) 
0

>  <PUBCHEM_COMPONENT_COUNT>  (1) 
1

>  <PUBCHEM_CACTVS_TAUTO_COUNT>  (1) 
2

>  <PUBCHEM_CONFORMER_ID>  (1) 
0000BC9E00000007

>  <PUBCHEM_MMFF94_ENERGY>  (1) 
86.7188

>  <PUBCHEM_FEATURE_SELFOVERLAP>  (1) 
35.622

>  <PUBCHEM_SHAPE_FINGERPRINT>  (1) 
10165383 225 17458352905147408007
10447042 23 10953744430657729779
10764073 3 17769613673714046512
10906281 52 18335988687740261880
11578080 2 17169855472751426796
12160290 23 15519760828275207899
12363563 72 14189581848791105599
12596602 18 13623540013581516925
12617007 42 18202003179266689414
13004483 165 18199179582563941294
13083527 12 11312049950669560467
13464514 151 18264767843087629360
13878862 14 17534311515749995173
13944108 23 17975132042284846661
14341114 328 13479427066993130103
14713325 29 16960992406694473048
14955137 171 17970892389329235938
15163728 17 17464552166769899956
15210252 30 17967822638942906252
15238133 3 18115577146108161987
1601671 61 18196087751365192351
16752209 62 17987235530369531011
16945 1 18340779229484023258
17492 54 18265350442300191036
17980427 23 17982132855934870416
17980427 26 18190439718794337830
20465049 17 18410016507609077999
20600515 1 17986365872406503442
20691752 17 17677875997827125382
20832881 197 18335141942947352898
21285901 2 17772195210498280142
21503847 285 18410570678580735637
21864079 5 18262789800405335963
221357 26 18339923706421838389
22224240 67 7853270022036944062
23114952 82 18048048651108344796
23419403 2 17684120197966936354
23557571 272 16813210338892520138
23558518 356 17973155420650775555
23559900 14 18131071575925925184
238 59 17407109332722092950
2637199 183 18410293580228421067
2748010 2 17618246317600375058
340366 18 18131071545439603271
3797600 57 13623527965401575534
392239 28 11819571396819734743
427121 178 12324253745107677406
57527295 17 18335702805842541610
57527585 21 17470169623030523399
633830 44 18336537313766312831
6442390 28 17458352974136073003
7399639 24 17474679819722852834
81228 2 18195549021054100386
9981440 41 17693649729511073304
9999458 23 18260547810233644861

>  <PUBCHEM_SHAPE_MULTIPOLES>  (1) 
478.08
9.69
3.76
1.69
18.95
2.36
-0.6
4.3
4.31
-1.89
-0.25
-0.67
-0.72
0.2

>  <PUBCHEM_SHAPE_SELFOVERLAP>  (1) 
984.403

>  <PUBCHEM_SHAPE_VOLUME>  (1) 
279.2

>  <PUBCHEM_COORDINATE_TYPE>  (1) 
2
5
10

$$$$
