4828
     RDKit          3D

 18 19  0  0  1  0  0  0  0  0999 V2000
   -0.1604   -1.6209   -0.5169 O   0  0  0  0  0  0  0  0  0  0  0  0
    2.2569   -2.9044   -1.1529 O   0  0  0  0  0  0  0  0  0  0  0  0
    2.5704    0.2789    0.7112 N   0  0  0  0  0  0  0  0  0  0  0  0
   -2.8398    2.1809   -0.4326 N   0  0  0  0  0  0  0  0  0  0  0  0
    2.1449   -2.0538   -0.0082 C   0  0  0  0  0  0  0  0  0  0  0  0
    2.5922   -0.6472   -0.4129 C   0  0  0  0  0  0  0  0  0  0  0  0
    3.0536    1.5938    0.3124 C   0  0  0  0  0  0  0  0  0  0  0  0
    0.7064   -2.1067    0.5016 C   0  0  0  0  0  0  0  0  0  0  0  0
   -1.6072    0.3212   -0.4319 C   0  0  0  0  0  0  0  0  0  0  0  0
   -1.3195   -1.0189   -0.1051 C   0  0  0  0  0  0  0  0  0  0  0  0
    4.4912    1.4991   -0.1908 C   0  0  0  0  0  0  0  0  0  0  0  0
    2.9487    2.5532    1.4938 C   0  0  0  0  0  0  0  0  0  0  0  0
   -2.8054    0.8802    0.0176 C   0  0  0  0  0  0  0  0  0  0  0  0
   -0.9252    1.3310   -1.1670 C   0  0  0  0  0  0  0  0  0  0  0  0
   -2.2388   -1.7482    0.6577 C   0  0  0  0  0  0  0  0  0  0  0  0
   -3.7338    0.1634    0.7806 C   0  0  0  0  0  0  0  0  0  0  0  0
   -1.7079    2.4624   -1.1496 C   0  0  0  0  0  0  0  0  0  0  0  0
   -3.4267   -1.1640    1.0929 C   0  0  0  0  0  0  0  0  0  0  0  0
  1  8  1  0
  1 10  1  0
  2  5  1  0
  3  6  1  0
  3  7  1  0
  4 13  1  0
  4 17  1  0
  5  6  1  0
  5  8  1  0
  7 11  1  0
  7 12  1  0
  9 10  1  0
  9 13  2  0
  9 14  1  0
 10 15  2  0
 13 16  1  0
 14 17  2  0
 15 18  1  0
 16 18  2  0
M  END
>  <PUBCHEM_COMPOUND_CID>  (1) 
4828

>  <PUBCHEM_CONFORMER_RMSD>  (1) 
0.8

>  <PUBCHEM_CONFORMER_DIVERSEORDER>  (1) 
1
100
128
39
142
15
146
122
77
107
131
89
138
140
88
97
145
9
42
139
123
73
92
105
8
94
31
50
76
27
90
98
101
59
29
72
10
143
147
65
85
127
134
45
144
137
63
83
99
36
96
67
33
14
66
110
18
55
82
106
79
21
111
6
102
69
12
86
61
35
91
78
7
30
41
75
121
53
44
126
64
115
46
114
80
48
130
74
40
71
52
124
84
108
120
87
2
11
113
103
24
34
22
3
141
17
43
109
25
57
38
132
26
118
95
119
93
135
13
125
16
60
47
136
68
112
4
19
70
23
58
20
28
129
49
133
62
117
104
32
56
37
54
81
5
116
51

>  <PUBCHEM_MMFF94_PARTIAL_CHARGES>  (1) 
23
1 -0.36
10 0.08
13 -0.15
14 -0.15
15 -0.15
16 -0.15
17 -0.3
18 -0.15
2 -0.68
23 0.36
3 -0.9
32 0.15
33 0.15
34 0.4
35 0.27
36 0.15
37 0.15
38 0.15
4 0.03
5 0.28
6 0.27
7 0.27
8 0.28

>  <PUBCHEM_EFFECTIVE_ROTOR_COUNT>  (1) 
6

>  <PUBCHEM_PHARMACOPHORE_FEATURES>  (1) 
10
1 1 acceptor
1 2 acceptor
1 2 donor
1 3 cation
1 3 donor
1 4 cation
1 4 donor
3 7 11 12 hydrophobe
5 4 9 13 14 17 rings
6 9 10 13 15 16 18 rings

>  <PUBCHEM_HEAVY_ATOM_COUNT>  (1) 
18

>  <PUBCHEM_ATOM_DEF_STEREO_COUNT>  (1) 
0

>  <PUBCHEM_ATOM_UDEF_STEREO_COUNT>  (1) 
1

>  <PUBCHEM_BOND_DEF_STEREO_COUNT>  (1) 
0

>  <PUBCHEM_BOND_UDEF_STEREO_COUNT>  (1) 
0

>  <PUBCHEM_ISOTOPIC_ATOM_COUNT>  (1) 
0

>  <PUBCHEM_COMPONENT_COUNT>  (1) 
1

>  <PUBCHEM_CACTVS_TAUTO_COUNT>  (1) 
1

>  <PUBCHEM_CONFORMER_ID>  (1) 
000012DC00000001

>  <PUBCHEM_MMFF94_ENERGY>  (1) 
31.6275

>  <PUBCHEM_FEATURE_SELFOVERLAP>  (1) 
50.84

>  <PUBCHEM_SHAPE_FINGERPRINT>  (1) 
10165383 225 18128267859592335096
10366900 7 18410291458008109752
10608611 8 18336546001931348887
11715629 250 18412545426917585414
12403259 226 18047191847850701255
12633257 1 18191866717114116737
13083527 12 17469057999996691475
13140716 1 18189900807798849691
14026960 21 18410011061004867370
14223421 5 18408325458161004199
14386348 128 18413106186495760104
15475509 84 14517228162463908393
15806764 133 18053964856493965071
173720 79 14780097560302256293
18981168 100 18264751208278371723
20645476 183 15051743009643388631
20681677 76 18337103458816849055
21524375 3 18340482391546652546
23175994 123 17768256712893368934
23419403 2 16309068907159920419
23557571 272 18113904891932983659
23559900 14 18041569014005446519
238 59 18054191450262568668
2748010 2 18261114019930217287
3187 122 17822566222237752053
3524813 1 18341895259413614376
44154327 71 18044101378336537676
6049 1 18264778674594431015
7097593 13 17244684690146699754
8050 44 18410846646881761144
81228 2 17895204268420850587
9925002 15 16616172417550342254

>  <PUBCHEM_SHAPE_MULTIPOLES>  (1) 
348.73
7.18
3.31
1.16
3.24
0.29
-0.09
-2.69
-1.74
1.23
0.43
0.08
-0.31
1.83

>  <PUBCHEM_SHAPE_SELFOVERLAP>  (1) 
725.933

>  <PUBCHEM_SHAPE_VOLUME>  (1) 
201

>  <PUBCHEM_COORDINATE_TYPE>  (1) 
2
5
10

$$$$
