48294
     RDKit          3D

 27 29  0  0  0  0  0  0  0  0999 V2000
    0.2701    1.6375    0.7801 O   0  0  0  0  0  0  0  0  0  0  0  0
    0.3419    2.5861   -1.3293 O   0  0  0  0  0  0  0  0  0  0  0  0
    0.0925   -1.7891    0.7068 N   0  0  0  0  0  0  0  0  0  0  0  0
    2.2540    2.6344   -0.0059 N   0  0  0  0  0  0  0  0  0  0  0  0
   -0.2653   -0.8550   -0.3918 C   0  0  0  0  0  0  0  0  0  0  0  0
    1.2295   -2.7249    0.2761 C   0  0  0  0  0  0  0  0  0  0  0  0
    0.5543   -1.0157    1.9490 C   0  0  0  0  0  0  0  0  0  0  0  0
   -1.1137   -2.6515    1.1011 C   0  0  0  0  0  0  0  0  0  0  0  0
   -1.3743    0.0859   -0.0260 C   0  0  0  0  0  0  0  0  0  0  0  0
    2.4947   -1.9945   -0.0654 C   0  0  0  0  0  0  0  0  0  0  0  0
   -2.7189   -0.2470   -0.2578 C   0  0  0  0  0  0  0  0  0  0  0  0
   -1.0331    1.3084    0.5536 C   0  0  0  0  0  0  0  0  0  0  0  0
   -3.7317    0.6729    0.1038 C   0  0  0  0  0  0  0  0  0  0  0  0
    2.7134   -1.5693   -1.3711 C   0  0  0  0  0  0  0  0  0  0  0  0
    3.4373   -1.7485    0.9269 C   0  0  0  0  0  0  0  0  0  0  0  0
   -2.0292    2.2129    0.9096 C   0  0  0  0  0  0  0  0  0  0  0  0
   -3.0806   -1.4726   -0.8403 C   0  0  0  0  0  0  0  0  0  0  0  0
   -3.3702    1.8986    0.6867 C   0  0  0  0  0  0  0  0  0  0  0  0
   -5.0763    0.3401   -0.1276 C   0  0  0  0  0  0  0  0  0  0  0  0
    3.8895   -0.8899   -1.6887 C   0  0  0  0  0  0  0  0  0  0  0  0
    4.6133   -1.0691    0.6093 C   0  0  0  0  0  0  0  0  0  0  0  0
   -4.4215   -1.7867   -1.0632 C   0  0  0  0  0  0  0  0  0  0  0  0
   -5.4175   -0.8820   -0.7076 C   0  0  0  0  0  0  0  0  0  0  0  0
    4.8394   -0.6398   -0.6986 C   0  0  0  0  0  0  0  0  0  0  0  0
    0.9190    2.3144   -0.2769 C   0  0  0  0  0  0  0  0  0  0  0  0
    3.0552    3.3338   -1.0001 C   0  0  0  0  0  0  0  0  0  0  0  0
    2.9282    2.3107    1.2473 C   0  0  0  0  0  0  0  0  0  0  0  0
  1 12  1  0
  1 25  1  0
  2 25  2  0
  3  5  1  0
  3  6  1  0
  3  7  1  0
  3  8  1  0
  4 25  1  0
  4 26  1  0
  4 27  1  0
  5  9  1  0
  6 10  1  0
  9 11  1  0
  9 12  2  0
 10 14  2  0
 10 15  1  0
 11 13  2  0
 11 17  1  0
 12 16  1  0
 13 18  1  0
 13 19  1  0
 14 20  1  0
 15 21  2  0
 16 18  2  0
 17 22  2  0
 19 23  2  0
 20 24  2  0
 21 24  1  0
 22 23  1  0
M  CHG  1   3   1
M  END
>  <PUBCHEM_COMPOUND_CID>  (1) 
48294

>  <PUBCHEM_CONFORMER_RMSD>  (1) 
0.8

>  <PUBCHEM_CONFORMER_DIVERSEORDER>  (1) 
5
11
13
12
20
26
1
7
27
18
22
28
16
3
6
8
4
17
10
25
14
21
23
9
29
15
19
24
2

>  <PUBCHEM_MMFF94_PARTIAL_CHARGES>  (1) 
36
1 -0.23
10 -0.14
12 0.08
14 -0.15
15 -0.15
16 -0.15
17 -0.15
18 -0.15
19 -0.15
2 -0.57
20 -0.15
21 -0.15
22 -0.15
23 -0.15
24 -0.15
25 0.78
26 0.3
27 0.3
3 -1.01
38 0.15
39 0.15
4 -0.66
40 0.15
41 0.15
42 0.15
43 0.15
44 0.15
45 0.15
46 0.15
47 0.15
48 0.15
5 0.65
6 0.65
7 0.5
8 0.5
9 -0.14

>  <PUBCHEM_EFFECTIVE_ROTOR_COUNT>  (1) 
7

>  <PUBCHEM_PHARMACOPHORE_FEATURES>  (1) 
5
1 2 acceptor
1 3 cation
6 10 14 15 20 21 24 rings
6 11 13 17 19 22 23 rings
6 9 11 12 13 16 18 rings

>  <PUBCHEM_HEAVY_ATOM_COUNT>  (1) 
27

>  <PUBCHEM_ATOM_DEF_STEREO_COUNT>  (1) 
0

>  <PUBCHEM_ATOM_UDEF_STEREO_COUNT>  (1) 
0

>  <PUBCHEM_BOND_DEF_STEREO_COUNT>  (1) 
0

>  <PUBCHEM_BOND_UDEF_STEREO_COUNT>  (1) 
0

>  <PUBCHEM_ISOTOPIC_ATOM_COUNT>  (1) 
0

>  <PUBCHEM_COMPONENT_COUNT>  (1) 
1

>  <PUBCHEM_CACTVS_TAUTO_COUNT>  (1) 
1

>  <PUBCHEM_CONFORMER_ID>  (1) 
0000BCA600000005

>  <PUBCHEM_MMFF94_ENERGY>  (1) 
106.2484

>  <PUBCHEM_FEATURE_SELFOVERLAP>  (1) 
25.398

>  <PUBCHEM_SHAPE_FINGERPRINT>  (1) 
10369192 42 16985991801307625858
10498660 4 18195809557321639142
1100329 8 18411138026538398795
11135609 187 18262238957395874044
11963148 33 17762044846128270503
12156800 1 15649826663599120196
12166972 35 17822292332516125646
12467345 10 18202561791297886445
12596599 1 17844538707998395738
12645989 146 18268999675003519926
13140716 1 18412268337455613417
13402501 40 18413666916552294272
13583140 156 14779848060449988082
13944108 23 15662781947117272245
14787075 74 18188214208285456730
14790565 3 17262163528068331409
14931854 50 18337122215355632908
14955137 171 17909581396460815577
15219462 58 16515678889039292337
15536298 74 18272083924433503393
16090146 7 17489315157893533507
17492 54 18114758074649377532
17909252 39 18059863912317797767
20691752 17 18040433287244994504
20775438 99 18128241484051354750
20905425 154 17908720758182225726
21634736 98 18413386540612490055
22393880 68 18335410245660170269
23402539 116 18339917109262615038
23557571 272 17917147191669336810
23559900 14 18272079505165486865
25147074 1 18202286914435525041
3298306 158 17979640361764263844
338550 245 18410853299807572028
34934 24 18047472223521135697
350125 39 18339927001004807937
352729 6 17759526964246591833
3680242 22 18262801753146561130
463206 1 18057036032972655279
474 4 18262513809495252616
484989 97 18116732887269136978
59755656 215 18339073920934599533
6287921 2 18272364269817971514
6669772 16 17896032316593210656
9709674 26 18268431406866975832
9981440 41 17762334021637886720

>  <PUBCHEM_SHAPE_MULTIPOLES>  (1) 
533.95
9.66
3.73
1.39
3.71
1.99
-0.04
-2.23
2.5
-2.15
-0.06
-0.76
-0.16
-0.87

>  <PUBCHEM_SHAPE_SELFOVERLAP>  (1) 
1145.508

>  <PUBCHEM_SHAPE_VOLUME>  (1) 
295.6

>  <PUBCHEM_COORDINATE_TYPE>  (1) 
2
5
10

$$$$
