483
     RDKit          3D

 20 20  0  0  1  0  0  0  0  0999 V2000
    1.5562    2.2355   -0.4364 P   0  0  0  0  0  0  0  0  0  0  0  0
   -3.8566    0.2892    0.2425 P   0  0  0  0  0  0  0  0  0  0  0  0
    0.3914   -0.3041    0.8473 O   0  0  0  0  0  0  0  0  0  0  0  0
    1.7905    0.6732   -0.7650 O   0  0  0  0  0  0  0  0  0  0  0  0
    3.0072   -1.7333   -1.1761 O   0  0  0  0  0  0  0  0  0  0  0  0
    0.4504   -3.4024   -0.9179 O   0  0  0  0  0  0  0  0  0  0  0  0
   -2.4176   -0.3361    0.6403 O   0  0  0  0  0  0  0  0  0  0  0  0
    2.5738   -0.7435    2.4970 O   0  0  0  0  0  0  0  0  0  0  0  0
    0.0036    2.3082    0.0102 O   0  0  0  0  0  0  0  0  0  0  0  0
    1.5518    2.9072   -1.9074 O   0  0  0  0  0  0  0  0  0  0  0  0
    2.5314    2.8375    0.5324 O   0  0  0  0  0  0  0  0  0  0  0  0
   -4.5717   -0.8950   -0.5949 O   0  0  0  0  0  0  0  0  0  0  0  0
   -3.4763    1.3727   -0.8961 O   0  0  0  0  0  0  0  0  0  0  0  0
   -4.6520    0.8321    1.3935 O   0  0  0  0  0  0  0  0  0  0  0  0
    1.7287   -0.2589    0.3155 C   0  0  0  0  0  0  0  0  0  0  0  0
    1.9765   -1.6690   -0.2108 C   0  0  0  0  0  0  0  0  0  0  0  0
    0.6276   -2.0019   -0.8098 C   0  0  0  0  0  0  0  0  0  0  0  0
   -0.3165   -1.3930    0.2211 C   0  0  0  0  0  0  0  0  0  0  0  0
    2.7061    0.1517    1.4062 C   0  0  0  0  0  0  0  0  0  0  0  0
   -1.6044   -0.8701   -0.3914 C   0  0  0  0  0  0  0  0  0  0  0  0
  1  4  1  0
  1  9  1  0
  1 10  1  0
  1 11  2  0
  2  7  1  0
  2 12  1  0
  2 13  1  0
  2 14  2  0
  3 15  1  0
  3 18  1  0
  4 15  1  0
  5 16  1  0
  6 17  1  0
  7 20  1  0
  8 19  1  0
 15 16  1  0
 15 19  1  0
 16 17  1  0
 17 18  1  0
 18 20  1  0
M  END
>  <PUBCHEM_COMPOUND_CID>  (1) 
483

>  <PUBCHEM_CONFORMER_RMSD>  (1) 
0.8

>  <PUBCHEM_CONFORMER_DIVERSEORDER>  (1) 
2
38
139
78
70
63
132
69
42
131
62
51
155
91
109
130
37
147
149
50
45
105
151
89
23
125
66
144
46
106
84
128
52
21
164
127
100
95
111
80
16
15
65
54
102
48
153
33
135
77
94
4
142
119
36
117
19
85
76
158
20
39
159
129
112
53
6
146
44
108
123
88
47
1
134
81
72
140
40
114
90
93
28
137
74
18
136
103
161
10
152
150
160
61
98
86
9
101
24
122
64
138
110
82
41
27
124
97
71
141
121
29
133
113
67
126
25
58
14
26
99
31
59
156
12
11
75
83
17
92
22
162
68
165
55
57
87
145
3
49
154
79
120
73
34
43
7
30
96
157
104
5
56
118
163
60
8
107
116
13
32
35
115
143
148

>  <PUBCHEM_MMFF94_PARTIAL_CHARGES>  (1) 
27
1 1.51
10 -0.77
11 -0.7
12 -0.77
13 -0.77
14 -0.7
15 0.56
16 0.28
17 0.28
18 0.28
19 0.28
2 1.51
20 0.28
28 0.4
29 0.4
3 -0.56
30 0.4
31 0.5
32 0.5
33 0.5
34 0.5
4 -0.55
5 -0.68
6 -0.68
7 -0.55
8 -0.68
9 -0.77

>  <PUBCHEM_EFFECTIVE_ROTOR_COUNT>  (1) 
7

>  <PUBCHEM_PHARMACOPHORE_FEATURES>  (1) 
16
1 10 acceptor
1 11 acceptor
1 12 acceptor
1 13 acceptor
1 14 acceptor
1 3 acceptor
1 5 acceptor
1 5 donor
1 6 acceptor
1 6 donor
1 8 acceptor
1 8 donor
1 9 acceptor
4 1 9 10 11 anion
4 2 12 13 14 anion
5 3 15 16 17 18 rings

>  <PUBCHEM_HEAVY_ATOM_COUNT>  (1) 
20

>  <PUBCHEM_ATOM_DEF_STEREO_COUNT>  (1) 
0

>  <PUBCHEM_ATOM_UDEF_STEREO_COUNT>  (1) 
4

>  <PUBCHEM_BOND_DEF_STEREO_COUNT>  (1) 
0

>  <PUBCHEM_BOND_UDEF_STEREO_COUNT>  (1) 
0

>  <PUBCHEM_ISOTOPIC_ATOM_COUNT>  (1) 
0

>  <PUBCHEM_COMPONENT_COUNT>  (1) 
1

>  <PUBCHEM_CACTVS_TAUTO_COUNT>  (1) 
1

>  <PUBCHEM_CONFORMER_ID>  (1) 
000001E300000002

>  <PUBCHEM_MMFF94_ENERGY>  (1) 
-12.4009

>  <PUBCHEM_FEATURE_SELFOVERLAP>  (1) 
81.289

>  <PUBCHEM_SHAPE_FINGERPRINT>  (1) 
10366900 7 17458638791635410379
10382601 240 18041557061238269920
10980938 120 18335986475320245509
11086676 242 18115008750152176392
12633257 1 18186801366435777483
13583140 156 17385993005979103947
1601671 61 18410013213253013556
16945 1 17844803672963149490
17357779 13 18053096229264656893
18186145 218 18272370815817888691
20233049 118 18041003886519170598
20645477 70 18335132107962764765
20671657 1 18343027713366502703
21503847 285 18337122163668455121
21524375 3 18046628081631642169
22149856 69 18131080368463199323
2255824 54 18342464711810683391
23419403 2 17414696689167126066
23557571 272 16773230824885539371
238 59 17901629904536557653
2748010 2 18272375299331482486
3060560 45 18412549812010629838
3286 77 17023173921124635443
474 4 18412826897910513275
5939293 188 18334006173026439525
7364860 26 18341619225854434452
81228 2 17687466767252754281

>  <PUBCHEM_SHAPE_MULTIPOLES>  (1) 
348.86
6.53
3.21
1.48
10.08
0.73
-0.47
1.24
-1.28
-2.36
1.48
-0.91
0.16
-0.31

>  <PUBCHEM_SHAPE_SELFOVERLAP>  (1) 
678.749

>  <PUBCHEM_SHAPE_VOLUME>  (1) 
212.3

>  <PUBCHEM_COORDINATE_TYPE>  (1) 
2
5
10

$$$$
