48304
     RDKit          3D

 34 35  0  0  0  0  0  0  0  0999 V2000
   -2.8567    3.3107    0.1603 Cl  0  0  0  0  0  0  0  0  0  0  0  0
    7.6890   -3.9033   -0.6872 Cl  0  0  0  0  0  0  0  0  0  0  0  0
    1.3924    1.2091   -0.6675 O   0  0  0  0  0  0  0  0  0  0  0  0
   -1.3150    0.7704   -0.1949 O   0  0  0  0  0  0  0  0  0  0  0  0
    4.8255    2.1330    0.3456 N   0  0  0  0  0  0  0  0  0  0  0  0
    3.5999    1.2984    0.2692 C   0  0  0  0  0  0  0  0  0  0  0  0
    5.8703    1.4835    1.2633 C   0  0  0  0  0  0  0  0  0  0  0  0
    4.5015    3.5261    0.9018 C   0  0  0  0  0  0  0  0  0  0  0  0
    5.4530    2.3074   -1.0440 C   0  0  0  0  0  0  0  0  0  0  0  0
   -2.3249   -1.8767   -0.2547 C   0  0  0  0  0  0  0  0  0  0  0  0
   -6.9100    0.0426    0.4156 C   0  0  0  0  0  0  0  0  0  0  0  0
    2.5813    1.9852   -0.6190 C   0  0  0  0  0  0  0  0  0  0  0  0
   -3.2013   -0.6815   -0.0704 C   0  0  0  0  0  0  0  0  0  0  0  0
   -5.4109    0.2408    0.2520 C   0  0  0  0  0  0  0  0  0  0  0  0
    6.3249    0.1389    0.7773 C   0  0  0  0  0  0  0  0  0  0  0  0
   -2.3599   -2.8496    0.9597 C   0  0  0  0  0  0  0  0  0  0  0  0
   -2.6543   -2.6801   -1.5463 C   0  0  0  0  0  0  0  0  0  0  0  0
   -4.5763   -0.8633    0.0792 C   0  0  0  0  0  0  0  0  0  0  0  0
   -7.5482   -0.6149   -0.8295 C   0  0  0  0  0  0  0  0  0  0  0  0
   -7.2532   -0.7831    1.6766 C   0  0  0  0  0  0  0  0  0  0  0  0
   -2.6611    0.6043   -0.0471 C   0  0  0  0  0  0  0  0  0  0  0  0
   -4.8707    1.5266    0.2751 C   0  0  0  0  0  0  0  0  0  0  0  0
   -3.4958    1.7083    0.1257 C   0  0  0  0  0  0  0  0  0  0  0  0
    0.4060    1.8177   -1.4923 C   0  0  0  0  0  0  0  0  0  0  0  0
    7.4198    0.0414   -0.0815 C   0  0  0  0  0  0  0  0  0  0  0  0
    5.6516   -1.0136    1.1826 C   0  0  0  0  0  0  0  0  0  0  0  0
   -1.9008   -2.1945    2.2571 C   0  0  0  0  0  0  0  0  0  0  0  0
   -2.4968   -1.8508   -2.8156 C   0  0  0  0  0  0  0  0  0  0  0  0
   -0.8264    0.9344   -1.5236 C   0  0  0  0  0  0  0  0  0  0  0  0
   -7.3669    0.2030   -2.1028 C   0  0  0  0  0  0  0  0  0  0  0  0
   -6.7692   -0.1375    2.9698 C   0  0  0  0  0  0  0  0  0  0  0  0
    7.8416   -1.2085   -0.5347 C   0  0  0  0  0  0  0  0  0  0  0  0
    6.0733   -2.2635    0.7295 C   0  0  0  0  0  0  0  0  0  0  0  0
    7.1683   -2.3610   -0.1293 C   0  0  0  0  0  0  0  0  0  0  0  0
  1 23  1  0
  2 34  1  0
  3 12  1  0
  3 24  1  0
  4 21  1  0
  4 29  1  0
  5  6  1  0
  5  7  1  0
  5  8  1  0
  5  9  1  0
  6 12  1  0
  7 15  1  0
 10 13  1  0
 10 16  1  0
 10 17  1  0
 11 14  1  0
 11 19  1  0
 11 20  1  0
 13 18  2  0
 13 21  1  0
 14 18  1  0
 14 22  2  0
 15 25  2  0
 15 26  1  0
 16 27  1  0
 17 28  1  0
 19 30  1  0
 20 31  1  0
 21 23  2  0
 22 23  1  0
 24 29  1  0
 25 32  1  0
 26 33  2  0
 32 34  2  0
 33 34  1  0
M  CHG  1   5   1
M  END
>  <PUBCHEM_COMPOUND_CID>  (1) 
48304

>  <PUBCHEM_CONFORMER_RMSD>  (1) 
1.2

>  <PUBCHEM_CONFORMER_DIVERSEORDER>  (1) 
2
36
42
31
19
17
25
54
27
5
26
35
22
13
28
51
49
9
30
12
33
15
45
56
48
11
47
40
18
41
7
46
16
44
20
6
53
50
23
8
43
34
52
29
14
1
24
21
55
4
39
10
38
37
32
3

>  <PUBCHEM_MMFF94_PARTIAL_CHARGES>  (1) 
32
1 -0.18
10 0.14
11 0.14
12 0.28
13 -0.14
14 -0.14
15 -0.14
18 -0.15
2 -0.18
21 0.08
22 -0.15
23 0.18
24 0.28
25 -0.15
26 -0.15
29 0.28
3 -0.56
32 -0.15
33 -0.15
34 0.18
4 -0.36
5 -1.01
53 0.15
58 0.15
6 0.5
61 0.15
62 0.15
7 0.65
77 0.15
78 0.15
8 0.5
9 0.5

>  <PUBCHEM_EFFECTIVE_ROTOR_COUNT>  (1) 
15

>  <PUBCHEM_PHARMACOPHORE_FEATURES>  (1) 
9
1 27 hydrophobe
1 28 hydrophobe
1 3 acceptor
1 30 hydrophobe
1 31 hydrophobe
1 4 acceptor
1 5 cation
6 13 14 18 21 22 23 rings
6 15 25 26 32 33 34 rings

>  <PUBCHEM_HEAVY_ATOM_COUNT>  (1) 
34

>  <PUBCHEM_ATOM_DEF_STEREO_COUNT>  (1) 
0

>  <PUBCHEM_ATOM_UDEF_STEREO_COUNT>  (1) 
0

>  <PUBCHEM_BOND_DEF_STEREO_COUNT>  (1) 
0

>  <PUBCHEM_BOND_UDEF_STEREO_COUNT>  (1) 
0

>  <PUBCHEM_ISOTOPIC_ATOM_COUNT>  (1) 
0

>  <PUBCHEM_COMPONENT_COUNT>  (1) 
1

>  <PUBCHEM_CACTVS_TAUTO_COUNT>  (1) 
1

>  <PUBCHEM_CONFORMER_ID>  (1) 
0000BCB000000002

>  <PUBCHEM_MMFF94_ENERGY>  (1) 
98.8521

>  <PUBCHEM_FEATURE_SELFOVERLAP>  (1) 
45.676

>  <PUBCHEM_SHAPE_FINGERPRINT>  (1) 
10677351 27 18114195150587274030
10692045 39 18411144623381494003
10838868 229 18338518538819698214
11387372 6 18113904857283439323
117089 54 18053670175553804558
12422481 6 18130783461193844446
14400156 162 18337682923225453337
15001296 14 18113891719605812984
15131766 46 16011863093294657157
15183329 4 18408038515975632800
15352257 5 18333732408338412134
15361156 5 18334017220436133876
15439362 3 17538546727145881357
15799311 1 18187941581711366356
16994733 274 15123244199975693627
19315958 150 18335420235448515608
20554085 129 15195568991864932206
23569917 315 18334581295898924691
335507 130 18261111903234514132
3383291 50 18187652414068966747
3552219 110 8430322393986629631
4073 2 18189055468594838184
4435113 14 18261967293079268754
57816373 69 18411696591478099236
9831232 110 17822008697138742002
9896288 288 18192151499685968481

>  <PUBCHEM_SHAPE_MULTIPOLES>  (1) 
686.72
26.51
3.95
1.98
20.21
0.33
-0.11
9.67
-3.73
6.34
0.2
-3.47
0.8
0.68

>  <PUBCHEM_SHAPE_SELFOVERLAP>  (1) 
1372.198

>  <PUBCHEM_SHAPE_VOLUME>  (1) 
411.1

>  <PUBCHEM_COORDINATE_TYPE>  (1) 
2
5
10

$$$$
