4830
     RDKit          3D

 27 29  0  0  0  0  0  0  0  0999 V2000
   -8.6331    0.7813    0.9064 F   0  0  0  0  0  0  0  0  0  0  0  0
    2.6151    2.2182   -1.1463 O   0  0  0  0  0  0  0  0  0  0  0  0
   -2.9407    0.2491   -1.6768 O   0  0  0  0  0  0  0  0  0  0  0  0
    4.7561    0.1762    0.3319 N   0  0  0  0  0  0  0  0  0  0  0  0
    0.6383   -0.7564    0.5907 N   0  0  0  0  0  0  0  0  0  0  0  0
    3.7156    2.7391    0.8061 N   0  0  0  0  0  0  0  0  0  0  0  0
    3.3145    0.4169    0.2742 C   0  0  0  0  0  0  0  0  0  0  0  0
    2.6865    0.1513    1.6481 C   0  0  0  0  0  0  0  0  0  0  0  0
    2.6777   -0.4864   -0.7893 C   0  0  0  0  0  0  0  0  0  0  0  0
    1.1544    0.1821    1.5958 C   0  0  0  0  0  0  0  0  0  0  0  0
    1.1459   -0.4309   -0.7485 C   0  0  0  0  0  0  0  0  0  0  0  0
    5.0304   -1.1976    0.7760 C   0  0  0  0  0  0  0  0  0  0  0  0
    5.3750    0.4460   -0.9735 C   0  0  0  0  0  0  0  0  0  0  0  0
    6.5344   -1.4510    0.8890 C   0  0  0  0  0  0  0  0  0  0  0  0
    6.8905    0.2465   -0.9176 C   0  0  0  0  0  0  0  0  0  0  0  0
    3.1657    1.8687   -0.1051 C   0  0  0  0  0  0  0  0  0  0  0  0
    7.2477   -1.1509   -0.4244 C   0  0  0  0  0  0  0  0  0  0  0  0
   -0.8245   -0.7585    0.5964 C   0  0  0  0  0  0  0  0  0  0  0  0
   -1.3561   -1.7841   -0.4069 C   0  0  0  0  0  0  0  0  0  0  0  0
   -2.8864   -1.8236   -0.4418 C   0  0  0  0  0  0  0  0  0  0  0  0
   -3.5142   -0.5171   -0.9062 C   0  0  0  0  0  0  0  0  0  0  0  0
   -4.8813   -0.1703   -0.4232 C   0  0  0  0  0  0  0  0  0  0  0  0
   -5.7594   -1.1914   -0.1360 C   0  0  0  0  0  0  0  0  0  0  0  0
   -5.2151    1.1580   -0.2806 C   0  0  0  0  0  0  0  0  0  0  0  0
   -7.0381   -0.8670    0.3173 C   0  0  0  0  0  0  0  0  0  0  0  0
   -6.4937    1.4823    0.1727 C   0  0  0  0  0  0  0  0  0  0  0  0
   -7.4053    0.4698    0.4717 C   0  0  0  0  0  0  0  0  0  0  0  0
  1 27  1  0
  2 16  2  0
  3 21  2  0
  4  7  1  0
  4 12  1  0
  4 13  1  0
  5 10  1  0
  5 11  1  0
  5 18  1  0
  6 16  1  0
  7  8  1  0
  7  9  1  0
  7 16  1  0
  8 10  1  0
  9 11  1  0
 12 14  1  0
 13 15  1  0
 14 17  1  0
 15 17  1  0
 18 19  1  0
 19 20  1  0
 20 21  1  0
 21 22  1  0
 22 23  2  0
 22 24  1  0
 23 25  1  0
 24 26  2  0
 25 27  2  0
 26 27  1  0
M  END
>  <PUBCHEM_COMPOUND_CID>  (1) 
4830

>  <PUBCHEM_CONFORMER_RMSD>  (1) 
1

>  <PUBCHEM_CONFORMER_DIVERSEORDER>  (1) 
1
12
107
105
48
163
212
203
78
24
22
13
229
181
136
220
164
140
51
198
234
251
35
110
257
119
155
225
222
266
134
218
54
49
44
253
2
180
154
179
122
215
221
254
125
202
19
190
271
73
76
176
169
84
118
244
262
209
92
4
199
237
192
9
216
233
39
143
108
74
260
146
8
27
265
205
185
165
114
261
193
156
97
219
29
255
85
223
150
64
117
71
171
83
127
113
79
258
81
269
106
40
131
98
208
160
183
38
72
34
161
252
191
30
214
224
47
25
186
121
166
120
246
159
268
53
232
77
170
187
100
65
60
109
272
17
167
243
14
58
148
196
182
173
242
158
259
20
104
147
36
93
115
82
188
28
10
200
201
228
126
70
250
245
50
235
256
89
168
5
133
55
227
91
264
152
142
238
263
57
45
139
52
103
249
67
59
3
231
94
195
174
270
141
247
157
23
123
239
211
101
56
111
68
75
99
128
267
102
86
172
116
96
16
197
207
6
124
162
7
95
129
61
80
41
21
213
240
132
210
236
88
248
189
31
178
217
144
69
11
18
177
26
241
206
33
184
194
46
145
62
226
66
149
138
32
90
42
43
153
63
175
15
135
130
204
151
87
137
230
112
37

>  <PUBCHEM_MMFF94_PARTIAL_CHARGES>  (1) 
27
1 -0.19
10 0.27
11 0.27
12 0.27
13 0.27
16 0.57
18 0.27
2 -0.57
20 0.06
21 0.42
22 0.09
23 -0.15
24 -0.15
25 -0.15
26 -0.15
27 0.19
3 -0.57
4 -0.81
5 -0.81
50 0.37
51 0.37
54 0.15
55 0.15
56 0.15
57 0.15
6 -0.8
7 0.33

>  <PUBCHEM_EFFECTIVE_ROTOR_COUNT>  (1) 
9.4

>  <PUBCHEM_PHARMACOPHORE_FEATURES>  (1) 
8
1 2 acceptor
1 3 acceptor
1 4 cation
1 5 cation
1 6 donor
6 22 23 24 25 26 27 rings
6 4 12 13 14 15 17 rings
6 5 7 8 9 10 11 rings

>  <PUBCHEM_HEAVY_ATOM_COUNT>  (1) 
27

>  <PUBCHEM_ATOM_DEF_STEREO_COUNT>  (1) 
0

>  <PUBCHEM_ATOM_UDEF_STEREO_COUNT>  (1) 
0

>  <PUBCHEM_BOND_DEF_STEREO_COUNT>  (1) 
0

>  <PUBCHEM_BOND_UDEF_STEREO_COUNT>  (1) 
0

>  <PUBCHEM_ISOTOPIC_ATOM_COUNT>  (1) 
0

>  <PUBCHEM_COMPONENT_COUNT>  (1) 
1

>  <PUBCHEM_CACTVS_TAUTO_COUNT>  (1) 
4

>  <PUBCHEM_CONFORMER_ID>  (1) 
000012DE00000001

>  <PUBCHEM_MMFF94_ENERGY>  (1) 
61.0756

>  <PUBCHEM_FEATURE_SELFOVERLAP>  (1) 
40.596

>  <PUBCHEM_SHAPE_FINGERPRINT>  (1) 
10 15 18186524290033033161
10299344 5 18187083948923433671
10613725 11 18273494576382430122
106641 1 13262402184552376054
10670039 82 18272649005361051921
10883706 142 14056722362377128534
11315181 36 11674879984012162887
11719270 70 17275106115782961918
11724838 91 9439401329255786106
11796584 16 18060419157849191030
11828422 8 16841893213022523472
12166972 35 18408323314957044873
12236239 1 18040151812115108047
12516196 113 8142088662974829023
12664476 115 18342173350526047993
12730499 353 15430031038021865082
13167372 99 18342176665686620377
13914758 101 14908186326209223219
14251752 14 18060137635126101835
14251764 18 18260266351941340454
14294032 229 17773050656636838529
14394314 77 9079124371446877991
14461889 52 8286201639258370836
1454969 45 9511455645827543930
14849402 71 17894919576071083060
14933364 13 18260830405991162607
15119646 104 13973695987719498159
15142383 8 17632857512361939256
15183329 4 16128660743385063523
15301273 46 16008743585696488463
15357212 105 17388840830841133412
15419008 145 18337383821186397552
15728490 51 10881691216642691273
17857418 61 10015589411022453317
18608769 82 16370731456243447459
19611394 137 18116444824777562699
20105231 36 17167868543006929571
20281389 69 18408601470160892849
20511986 3 11312057621628350085
21033648 29 18130212874065780034
21095086 128 17167861954590173347
21150785 3 15719396127110756062
21315759 40 18201717384260033319
21365058 27 17095244709260607459
21585482 111 18196095444343801089
21774942 28 15769505218226302875
22149856 69 11819263413199319829
22224240 67 13262401072187455920
23559900 14 18270110336070191498
249057 3 18412824698634011158
2838139 119 18201994431151712341
3004659 81 18273495689068896040
3009799 131 15841831148767313682
339767 52 11743835880705399189
4073 2 18041001807803004898
4098825 35 18412263973199348954
4339292 15 16343407524044096767
474113 269 15769222627254525126
5758199 1 16587745334761399147
59682541 35 13695879142155738125
5969126 39 12895076184989664883
59755656 215 17704075062494899454
59755656 520 18187361052246416571
6081469 158 16917074331222146382
9996256 80 18113051649530224215

>  <PUBCHEM_SHAPE_MULTIPOLES>  (1) 
521.69
23.32
1.88
1.24
21.03
0.72
-0.11
0.56
-1.02
-0.73
0
-0.77
0.1
-0.72

>  <PUBCHEM_SHAPE_SELFOVERLAP>  (1) 
1095.127

>  <PUBCHEM_SHAPE_VOLUME>  (1) 
293.3

>  <PUBCHEM_COORDINATE_TYPE>  (1) 
2
5
10

$$$$
