48310
     RDKit          3D

 28 29  0  0  0  0  0  0  0  0999 V2000
    4.2290    4.4119    1.0743 Cl  0  0  0  0  0  0  0  0  0  0  0  0
   -6.4112    2.3878   -1.1942 Cl  0  0  0  0  0  0  0  0  0  0  0  0
   -0.1131   -2.2468    0.0391 O   0  0  0  0  0  0  0  0  0  0  0  0
   -2.5264   -1.3635    1.1460 O   0  0  0  0  0  0  0  0  0  0  0  0
    3.5889   -2.1426   -0.4201 N   0  0  0  0  0  0  0  0  0  0  0  0
    2.1462   -1.6707   -0.5312 C   0  0  0  0  0  0  0  0  0  0  0  0
    4.4998   -1.1658   -1.1497 C   0  0  0  0  0  0  0  0  0  0  0  0
    3.9889   -2.2103    1.0468 C   0  0  0  0  0  0  0  0  0  0  0  0
    3.7204   -3.5234   -1.0461 C   0  0  0  0  0  0  0  0  0  0  0  0
    1.2397   -2.6629    0.1703 C   0  0  0  0  0  0  0  0  0  0  0  0
    4.4329    0.2267   -0.5953 C   0  0  0  0  0  0  0  0  0  0  0  0
    5.2975    0.6116    0.4294 C   0  0  0  0  0  0  0  0  0  0  0  0
    3.5051    1.1360   -1.1032 C   0  0  0  0  0  0  0  0  0  0  0  0
   -1.0013   -3.1498    0.6836 C   0  0  0  0  0  0  0  0  0  0  0  0
   -2.4217   -2.6413    0.5299 C   0  0  0  0  0  0  0  0  0  0  0  0
    5.2343    1.9057    0.9461 C   0  0  0  0  0  0  0  0  0  0  0  0
    3.4418    2.4300   -0.5866 C   0  0  0  0  0  0  0  0  0  0  0  0
   -1.5683    1.1355    0.1379 C   0  0  0  0  0  0  0  0  0  0  0  0
   -3.0086    0.7439    0.0952 C   0  0  0  0  0  0  0  0  0  0  0  0
   -3.4271   -0.4872    0.6002 C   0  0  0  0  0  0  0  0  0  0  0  0
    4.3064    2.8149    0.4381 C   0  0  0  0  0  0  0  0  0  0  0  0
   -3.9390    1.6239   -0.4570 C   0  0  0  0  0  0  0  0  0  0  0  0
   -1.3262    2.3900    0.9974 C   0  0  0  0  0  0  0  0  0  0  0  0
   -0.9737    1.3407   -1.2676 C   0  0  0  0  0  0  0  0  0  0  0  0
   -4.7764   -0.8380    0.5528 C   0  0  0  0  0  0  0  0  0  0  0  0
   -5.7070    0.0421    0.0006 C   0  0  0  0  0  0  0  0  0  0  0  0
   -5.2883    1.2731   -0.5044 C   0  0  0  0  0  0  0  0  0  0  0  0
   -7.1429   -0.3714   -0.0322 C   0  0  0  0  0  0  0  0  0  0  0  0
  1 21  1  0
  2 27  1  0
  3 10  1  0
  3 14  1  0
  4 15  1  0
  4 20  1  0
  5  6  1  0
  5  7  1  0
  5  8  1  0
  5  9  1  0
  6 10  1  0
  7 11  1  0
 11 12  2  0
 11 13  1  0
 12 16  1  0
 13 17  2  0
 14 15  1  0
 16 21  2  0
 17 21  1  0
 18 19  1  0
 18 23  1  0
 18 24  1  0
 19 20  2  0
 19 22  1  0
 20 25  1  0
 22 27  2  0
 25 26  2  0
 26 27  1  0
 26 28  1  0
M  CHG  1   5   1
M  END
>  <PUBCHEM_COMPOUND_CID>  (1) 
48310

>  <PUBCHEM_CONFORMER_RMSD>  (1) 
1.2

>  <PUBCHEM_CONFORMER_DIVERSEORDER>  (1) 
1
33
31
3
111
147
98
134
15
137
139
159
119
20
138
19
72
123
105
154
155
145
46
43
64
92
153
28
57
84
55
65
7
114
17
131
100
165
108
101
13
16
94
41
152
103
89
95
158
140
129
42
104
69
157
50
47
58
116
49
66
82
149
18
160
106
44
113
142
128
34
135
93
71
136
10
117
5
59
156
86
11
38
6
151
161
60
56
53
62
12
115
125
76
4
130
32
166
81
110
9
36
163
141
70
91
97
132
73
39
162
90
22
25
133
77
61
30
78
2
120
143
74
80
99
124
102
48
144
164
21
109
67
148
127
63
87
122
24
52
51
126
83
150
27
37
85
29
96
112
26
107
45
118
35
75
88
68
79
14
8
23
40
146
54
121

>  <PUBCHEM_MMFF94_PARTIAL_CHARGES>  (1) 
32
1 -0.18
10 0.28
11 -0.14
12 -0.15
13 -0.15
14 0.28
15 0.28
16 -0.15
17 -0.15
18 0.14
19 -0.14
2 -0.18
20 0.08
21 0.18
22 -0.15
25 -0.15
26 -0.14
27 0.18
28 0.14
3 -0.56
4 -0.36
41 0.15
42 0.15
48 0.15
49 0.15
5 -1.01
50 0.15
57 0.15
6 0.5
7 0.65
8 0.5
9 0.5

>  <PUBCHEM_EFFECTIVE_ROTOR_COUNT>  (1) 
10

>  <PUBCHEM_PHARMACOPHORE_FEATURES>  (1) 
6
1 3 acceptor
1 4 acceptor
1 5 cation
3 18 23 24 hydrophobe
6 11 12 13 16 17 21 rings
6 19 20 22 25 26 27 rings

>  <PUBCHEM_HEAVY_ATOM_COUNT>  (1) 
28

>  <PUBCHEM_ATOM_DEF_STEREO_COUNT>  (1) 
0

>  <PUBCHEM_ATOM_UDEF_STEREO_COUNT>  (1) 
0

>  <PUBCHEM_BOND_DEF_STEREO_COUNT>  (1) 
0

>  <PUBCHEM_BOND_UDEF_STEREO_COUNT>  (1) 
0

>  <PUBCHEM_ISOTOPIC_ATOM_COUNT>  (1) 
0

>  <PUBCHEM_COMPONENT_COUNT>  (1) 
1

>  <PUBCHEM_CACTVS_TAUTO_COUNT>  (1) 
1

>  <PUBCHEM_CONFORMER_ID>  (1) 
0000BCB600000001

>  <PUBCHEM_MMFF94_ENERGY>  (1) 
92.1267

>  <PUBCHEM_FEATURE_SELFOVERLAP>  (1) 
30.45

>  <PUBCHEM_SHAPE_FINGERPRINT>  (1) 
10835480 77 18410568453872592213
10864689 126 18264773155624597230
11112241 14 17630598144689700889
12925494 130 18193835930056636933
13402501 40 18408887343099692612
13533116 47 18413113839895425116
1361 2 18335421296052028665
13617811 41 18335695083765591493
14556957 393 17274825693310368897
14725015 67 18043803187341491826
14739800 52 18114170930639432331
14790565 3 18339365146177882793
14931854 50 18340220596162463468
16067689 134 17622457043145360561
16067689 302 18197784500235693135
18681886 176 18197494022485394714
20715895 44 18408881811202875650
21049683 118 17603297138081225139
21133410 127 18042688493184907844
21197605 99 18339364200689394390
21315764 268 18334290929321208502
21623110 236 18340216215190248339
21859007 373 17459734944261450069
23559900 14 18339360755988083083
2838139 119 18409724075828196327
3298306 158 18340483469082206009
338550 245 18188214320170748220
34797466 226 18060708273372053407
3680242 22 18188210892528357234
404807 14 17835248844124585823
4403749 210 17980751964200277568
5265222 85 17831308559312607452
53794403 172 18261122919118649476
59755656 215 18410298004202881332
6036956 94 17183338963593732148
653340 110 17692526033122808872

>  <PUBCHEM_SHAPE_MULTIPOLES>  (1) 
563.25
16.52
4.81
1.17
13.25
0.15
0.09
7.29
1.2
-5.91
-0.74
-0.47
0.18
2.8

>  <PUBCHEM_SHAPE_SELFOVERLAP>  (1) 
1138.232

>  <PUBCHEM_SHAPE_VOLUME>  (1) 
334.6

>  <PUBCHEM_COORDINATE_TYPE>  (1) 
2
5
10

$$$$
