4832
     RDKit          3D

 26 28  0  0  1  0  0  0  0  0999 V2000
    1.0094   -0.2796   -0.4093 O   0  0  0  0  0  0  0  0  0  0  0  0
   -0.7019   -0.4546    1.6289 O   0  0  0  0  0  0  0  0  0  0  0  0
   -0.4716   -1.8091   -1.2782 O   0  0  0  0  0  0  0  0  0  0  0  0
    4.0360   -0.3257    0.3271 N   0  0  0  0  0  0  0  0  0  0  0  0
    3.3390   -0.0451   -1.0155 C   0  0  0  0  0  0  0  0  0  0  0  0
    4.1958   -1.8295    0.5660 C   0  0  0  0  0  0  0  0  0  0  0  0
    2.0483   -0.8396   -1.2049 C   0  0  0  0  0  0  0  0  0  0  0  0
    2.8682   -2.5646    0.4489 C   0  0  0  0  0  0  0  0  0  0  0  0
    2.2157   -2.3248   -0.9055 C   0  0  0  0  0  0  0  0  0  0  0  0
    5.4416    0.2937    0.2610 C   0  0  0  0  0  0  0  0  0  0  0  0
    3.3134    0.3440    1.4960 C   0  0  0  0  0  0  0  0  0  0  0  0
    5.3198    1.7785   -0.0028 C   0  0  0  0  0  0  0  0  0  0  0  0
   -0.2258   -0.8636   -0.5388 C   0  0  0  0  0  0  0  0  0  0  0  0
   -1.2569   -0.1439    0.3345 C   0  0  0  0  0  0  0  0  0  0  0  0
   -2.6747   -0.7086    0.2169 C   0  0  0  0  0  0  0  0  0  0  0  0
   -1.2540    1.3718    0.1239 C   0  0  0  0  0  0  0  0  0  0  0  0
   -3.3549   -0.5391   -0.9670 C   0  0  0  0  0  0  0  0  0  0  0  0
   -1.4167    2.1892    1.2187 C   0  0  0  0  0  0  0  0  0  0  0  0
   -3.2144   -1.3635    1.2996 C   0  0  0  0  0  0  0  0  0  0  0  0
   -1.0891    1.8593   -1.1521 C   0  0  0  0  0  0  0  0  0  0  0  0
   -4.6471   -1.0532   -1.0740 C   0  0  0  0  0  0  0  0  0  0  0  0
   -1.4145    3.5709    1.0268 C   0  0  0  0  0  0  0  0  0  0  0  0
   -4.5066   -1.8778    1.1926 C   0  0  0  0  0  0  0  0  0  0  0  0
   -1.0868    3.2408   -1.3440 C   0  0  0  0  0  0  0  0  0  0  0  0
   -5.2229   -1.7226    0.0057 C   0  0  0  0  0  0  0  0  0  0  0  0
   -1.2495    4.0967   -0.2546 C   0  0  0  0  0  0  0  0  0  0  0  0
  1  7  1  0
  1 13  1  0
  2 14  1  0
  3 13  2  0
  4  5  1  0
  4  6  1  0
  4 10  1  0
  4 11  1  0
  5  7  1  0
  6  8  1  0
  7  9  1  0
  8  9  1  0
 10 12  1  0
 13 14  1  0
 14 15  1  0
 14 16  1  0
 15 17  2  0
 15 19  1  0
 16 18  2  0
 16 20  1  0
 17 21  1  0
 18 22  1  0
 19 23  2  0
 20 24  2  0
 21 25  2  0
 22 26  2  0
 23 25  1  0
 24 26  1  0
M  CHG  1   4   1
M  END
>  <PUBCHEM_COMPOUND_CID>  (1) 
4832

>  <PUBCHEM_CONFORMER_RMSD>  (1) 
0.8

>  <PUBCHEM_CONFORMER_DIVERSEORDER>  (1) 
2
125
336
421
166
301
130
63
163
498
478
360
337
416
394
473
410
279
65
261
151
316
334
122
328
41
93
408
321
118
388
395
218
369
272
359
387
190
482
220
84
355
274
303
142
127
487
101
126
458
486
52
178
24
222
250
260
145
352
401
12
324
445
56
136
293
358
23
226
174
45
161
89
214
51
449
397
318
211
364
203
488
414
431
379
212
236
181
15
36
32
43
248
224
225
382
257
323
140
349
429
459
46
179
277
306
322
430
391
238
483
393
149
76
302
406
217
39
426
425
165
373
180
113
420
305
171
390
168
207
234
98
427
366
315
50
30
398
494
489
259
183
135
462
172
287
5
177
108
404
150
210
227
422
9
249
244
490
103
94
407
484
85
197
62
403
455
120
81
267
201
264
38
139
49
208
417
466
40
368
107
219
77
92
418
115
480
82
263
215
370
213
367
485
144
457
192
191
347
265
21
152
297
28
493
78
14
280
6
433
463
1
434
156
11
255
365
338
16
194
381
8
361
124
64
320
253
413
173
442
309
186
311
345
454
423
450
27
444
335
61
436
184
229
164
216
114
158
102
332
148
308
129
69
363
439
377
343
60
500
223
47
245
48
481
392
80
460
491
495
384
235
317
110
341
221
128
492
58
419
374
29
83
3
296
456
87
262
91
289
182
300
465
170
26
167
451
86
310
298
54
281
123
435
200
378
232
331
333
79
380
252
96
53
273
59
104
385
295
66
464
282
71
278
121
35
294
90
75
105
189
134
138
99
461
268
477
344
33
475
70
441
476
353
474
299
269
73
20
196
176
57
175
202
42
479
256
237
470
254
258
147
157
4
402
162
330
169
499
31
141
275
116
131
204
312
288
452
228
497
233
44
187
67
185
440
468
412
292
155
448
137
396
307
17
100
117
284
276
362
106
159
243
496
428
55
314
327
326
286
153
339
19
143
193
13
88
342
346
424
325
432
247
266
383
386
290
270
209
251
376
25
319
231
246
350
198
453
304
195
37
188
132
329
467
242
199
160
438
97
240
68
133
437
357
405
356
469
472
34
283
271
415
372
10
7
400
313
239
112
409
119
22
146
446
411
95
72
285
371
154
375
291
443
205
74
206
471
111
230
351
348
399
18
340
354
447
109
241
389

>  <PUBCHEM_MMFF94_PARTIAL_CHARGES>  (1) 
34
1 -0.43
10 0.5
11 0.5
13 0.66
14 0.63
15 -0.14
16 -0.14
17 -0.15
18 -0.15
19 -0.15
2 -0.68
20 -0.15
21 -0.15
22 -0.15
23 -0.15
24 -0.15
25 -0.15
26 -0.15
3 -0.57
4 -1.01
44 0.4
45 0.15
46 0.15
47 0.15
48 0.15
49 0.15
5 0.5
50 0.15
51 0.15
52 0.15
53 0.15
54 0.15
6 0.5
7 0.28

>  <PUBCHEM_EFFECTIVE_ROTOR_COUNT>  (1) 
7.2

>  <PUBCHEM_PHARMACOPHORE_FEATURES>  (1) 
7
1 2 acceptor
1 2 donor
1 3 acceptor
1 4 cation
6 15 17 19 21 23 25 rings
6 16 18 20 22 24 26 rings
6 4 5 6 7 8 9 rings

>  <PUBCHEM_HEAVY_ATOM_COUNT>  (1) 
26

>  <PUBCHEM_ATOM_DEF_STEREO_COUNT>  (1) 
0

>  <PUBCHEM_ATOM_UDEF_STEREO_COUNT>  (1) 
2

>  <PUBCHEM_BOND_DEF_STEREO_COUNT>  (1) 
0

>  <PUBCHEM_BOND_UDEF_STEREO_COUNT>  (1) 
0

>  <PUBCHEM_ISOTOPIC_ATOM_COUNT>  (1) 
0

>  <PUBCHEM_COMPONENT_COUNT>  (1) 
1

>  <PUBCHEM_CACTVS_TAUTO_COUNT>  (1) 
1

>  <PUBCHEM_CONFORMER_ID>  (1) 
000012E000000002

>  <PUBCHEM_MMFF94_ENERGY>  (1) 
86.0158

>  <PUBCHEM_FEATURE_SELFOVERLAP>  (1) 
35.522

>  <PUBCHEM_SHAPE_FINGERPRINT>  (1) 
10366900 7 18409173225129762610
10670039 82 18337971038723023236
10930396 42 18049971636778951312
1100329 8 17979641456864464028
11045515 52 18334293189022327277
11101153 10 18336558183234268756
11578080 2 16914846672723605065
11595378 159 18412827967220232910
12403814 3 18201433666756441247
12422481 6 18055097392742400345
12516196 113 18337392738039514115
12553582 1 18265921166339882607
12596602 18 17386277792633919856
12788726 201 18261664909246148075
13004483 165 18411133607033148047
13134695 92 18339081622486012693
13140716 1 18124597750024450574
13224815 77 18271528606753161006
13544653 18 18411984680540771839
13681431 1 18265339589376951597
13911987 19 18117293646683112662
14223421 5 18339927000440110702
14787075 74 18189051061220031010
14840074 17 18130791221302663367
14955137 171 18053671549108869459
17349148 13 17603873282000027398
17492 89 18338515214736407762
17809404 112 13118006587332467032
1813 80 18270694155143018959
18769570 83 18260266309825117221
18785283 64 17903930199041810603
20600515 1 17968956274185737567
21033650 10 13985776236439244838
21049683 271 18118406378731967293
21304303 282 17611154115208628333
21524375 3 17398684402215383809
21703447 108 18337102350858322282
22907989 373 18198607861548589277
23419403 2 18192410056658866805
23557571 272 18409443648706941629
23558518 356 18116442439941376442
23559900 14 18040434365340074294
283562 15 18335700503444067963
312423 11 18264220131789281926
3187 122 18409157809938541496
3493558 16 17894345583988742325
350125 39 18342178804828305678
3886686 26 17398080791712036034
469060 322 18337121123954339680
5104073 3 18267578010589089194
5283173 99 18115576055392333645
6004065 56 18266733770226810911
6913067 236 18130490994467563694
7097593 13 17612031478032196834
7164475 11 18336549296134354918
7399639 24 18201721734729556134
81228 2 18191884339844986037
9962374 69 18123750018819742739
9981440 41 17411589447136037786

>  <PUBCHEM_SHAPE_MULTIPOLES>  (1) 
512.48
10.14
3.94
1.44
5.59
4.39
0.09
-5.04
1.12
-1.7
-0.03
-0.43
0.07
0.35

>  <PUBCHEM_SHAPE_SELFOVERLAP>  (1) 
1090.009

>  <PUBCHEM_SHAPE_VOLUME>  (1) 
283.7

>  <PUBCHEM_COORDINATE_TYPE>  (1) 
2
5
10

$$$$
