48322
     RDKit          3D

 28 30  0  0  1  0  0  0  0  0999 V2000
   -3.7814    1.8624   -1.4617 Cl  0  0  0  0  0  0  0  0  0  0  0  0
   -5.2274   -3.0626    0.1581 Cl  0  0  0  0  0  0  0  0  0  0  0  0
    5.5315   -0.6319    0.4226 O   0  0  0  0  0  0  0  0  0  0  0  0
   -0.7720    1.9813    0.6506 N   0  0  0  0  0  0  0  0  0  0  0  0
    2.3771   -1.1986   -0.2619 N   0  0  0  0  0  0  0  0  0  0  0  0
   -0.7945    1.7853   -0.8585 C   0  0  0  0  0  0  0  0  0  0  0  0
    0.6333    1.8271   -1.4204 C   0  0  0  0  0  0  0  0  0  0  0  0
   -2.1988    2.0212    1.1785 C   0  0  0  0  0  0  0  0  0  0  0  0
    1.5383    0.7568   -0.8327 C   0  0  0  0  0  0  0  0  0  0  0  0
   -0.0226    0.8273    1.3011 C   0  0  0  0  0  0  0  0  0  0  0  0
   -0.0718    3.2915    0.9813 C   0  0  0  0  0  0  0  0  0  0  0  0
    0.5991    1.7203   -2.9495 C   0  0  0  0  0  0  0  0  0  0  0  0
    2.7053    1.0067   -0.1164 C   0  0  0  0  0  0  0  0  0  0  0  0
    1.3260   -0.5771   -0.9290 C   0  0  0  0  0  0  0  0  0  0  0  0
   -2.9660    0.7634    0.8948 C   0  0  0  0  0  0  0  0  0  0  0  0
    3.2159   -0.2253    0.2320 C   0  0  0  0  0  0  0  0  0  0  0  0
    3.2942    2.3225    0.2129 C   0  0  0  0  0  0  0  0  0  0  0  0
    0.3356   -1.4144   -1.5198 C   0  0  0  0  0  0  0  0  0  0  0  0
    2.4959   -2.5843   -0.1522 C   0  0  0  0  0  0  0  0  0  0  0  0
   -3.7061    0.6120   -0.2743 C   0  0  0  0  0  0  0  0  0  0  0  0
   -2.9202   -0.2601    1.8375 C   0  0  0  0  0  0  0  0  0  0  0  0
    4.4126   -0.4854    0.9784 C   0  0  0  0  0  0  0  0  0  0  0  0
    0.4477   -2.7525   -1.4149 C   0  0  0  0  0  0  0  0  0  0  0  0
    1.5601   -3.3690   -0.7107 C   0  0  0  0  0  0  0  0  0  0  0  0
   -4.4064   -0.5726   -0.5027 C   0  0  0  0  0  0  0  0  0  0  0  0
   -3.6204   -1.4445    1.6090 C   0  0  0  0  0  0  0  0  0  0  0  0
    4.3788   -0.5986    2.5089 C   0  0  0  0  0  0  0  0  0  0  0  0
   -4.3636   -1.6008    0.4390 C   0  0  0  0  0  0  0  0  0  0  0  0
  1 20  1  0
  2 28  1  0
  3 22  2  0
  4  6  1  0
  4  8  1  0
  4 10  1  0
  4 11  1  0
  5 14  1  0
  5 16  1  0
  5 19  1  0
  6  7  1  0
  7  9  1  0
  7 12  1  0
  8 15  1  0
  9 13  1  0
  9 14  2  0
 13 16  2  0
 13 17  1  0
 14 18  1  0
 15 20  2  0
 15 21  1  0
 16 22  1  0
 18 23  2  0
 19 24  2  0
 20 25  1  0
 21 26  2  0
 22 27  1  0
 23 24  1  0
 25 28  2  0
 26 28  1  0
M  CHG  1   4   1
M  END
>  <PUBCHEM_COMPOUND_CID>  (1) 
48322

>  <PUBCHEM_CONFORMER_RMSD>  (1) 
0.8

>  <PUBCHEM_CONFORMER_DIVERSEORDER>  (1) 
14
4
9
11
7
1
15
13
3
10
8
2
16
5
12
6

>  <PUBCHEM_MMFF94_PARTIAL_CHARGES>  (1) 
34
1 -0.18
10 0.5
11 0.5
13 -0.18
14 -0.2
15 -0.14
16 -0.24
17 0.18
18 -0.11
19 -0.18
2 -0.18
20 0.18
21 -0.15
22 0.59
23 -0.15
24 -0.15
25 -0.15
26 -0.15
27 0.06
28 0.18
3 -0.57
4 -1.01
46 0.15
47 0.15
48 0.15
49 0.15
5 0.33
50 0.15
51 0.15
52 0.15
6 0.5
7 0.18
8 0.65
9 -0.18

>  <PUBCHEM_EFFECTIVE_ROTOR_COUNT>  (1) 
6

>  <PUBCHEM_PHARMACOPHORE_FEATURES>  (1) 
7
1 12 hydrophobe
1 3 acceptor
1 4 cation
1 5 cation
5 5 9 13 14 16 rings
6 15 20 21 25 26 28 rings
6 5 14 18 19 23 24 rings

>  <PUBCHEM_HEAVY_ATOM_COUNT>  (1) 
28

>  <PUBCHEM_ATOM_DEF_STEREO_COUNT>  (1) 
0

>  <PUBCHEM_ATOM_UDEF_STEREO_COUNT>  (1) 
1

>  <PUBCHEM_BOND_DEF_STEREO_COUNT>  (1) 
0

>  <PUBCHEM_BOND_UDEF_STEREO_COUNT>  (1) 
0

>  <PUBCHEM_ISOTOPIC_ATOM_COUNT>  (1) 
0

>  <PUBCHEM_COMPONENT_COUNT>  (1) 
1

>  <PUBCHEM_CACTVS_TAUTO_COUNT>  (1) 
2

>  <PUBCHEM_CONFORMER_ID>  (1) 
0000BCC20000000E

>  <PUBCHEM_MMFF94_ENERGY>  (1) 
113.928

>  <PUBCHEM_FEATURE_SELFOVERLAP>  (1) 
35.622

>  <PUBCHEM_SHAPE_FINGERPRINT>  (1) 
10165383 225 12463568491292040101
10675989 125 17186709525448106213
1100329 8 17767124581105193032
12156800 1 16478221031397953099
12166972 35 18115306812276844047
12422481 6 18338782434827173170
12553582 1 18198932312574192705
12633257 1 18262240993431535360
128993 33 10087347864777862383
12930653 34 17915744180345832648
131258 38 17833815450076673286
13140716 1 18268980068144906222
13224815 77 18201450146677623327
13464514 151 9799399002252143020
14081887 123 18269558243071258603
14178342 30 18059030405684922297
14223421 5 17913777115330643022
14787075 74 17274525607871008072
14863182 85 18200331994628480919
14955137 171 18339641141082350152
15475509 84 17470729278803128794
17349148 13 18334019414463003403
17809404 112 18339924801649087295
17980427 23 18261968387530830388
20028762 73 18059858423550476542
20626108 58 18040710407056165345
20739085 24 18188207727680792150
20775530 9 18337686234703779671
21304303 282 16169490346993883988
23419403 2 18117535491896823436
23559900 14 18197498428799054016
2637199 183 9151172043471626089
3027735 51 13119380894946310448
3797600 57 16702018643356445162
392239 28 17560222730459240714
439807 62 17972880539240882803
4403749 210 18341032078725479560
44802255 64 14497562946102708076
46194498 28 11675469316873244608
463206 1 18196376046977543515
469060 322 17770460305845917316
484985 159 16085552044924161098
57527293 21 17823983334275940592
9709674 26 18197221343315836525

>  <PUBCHEM_SHAPE_MULTIPOLES>  (1) 
564.14
9.4
3.71
2.05
2.38
1.02
-0.23
4.75
3.62
0.85
-0.69
-0.4
-0.46
0.39

>  <PUBCHEM_SHAPE_SELFOVERLAP>  (1) 
1192.266

>  <PUBCHEM_SHAPE_VOLUME>  (1) 
321.5

>  <PUBCHEM_COORDINATE_TYPE>  (1) 
2
5
10

$$$$
