48328
     RDKit          3D

 23 24  0  0  0  0  0  0  0  0999 V2000
   -0.2978    0.2363   -0.0084 O   0  0  0  0  0  0  0  0  0  0  0  0
    0.6210    1.4549    1.7260 O   0  0  0  0  0  0  0  0  0  0  0  0
   -3.9867   -0.0355    0.2265 N   0  0  0  0  0  0  0  0  0  0  0  0
    2.0380    0.5301   -0.0098 C   0  0  0  0  0  0  0  0  0  0  0  0
    1.9676    1.2035   -1.4069 C   0  0  0  0  0  0  0  0  0  0  0  0
    3.1997    1.1645    0.8012 C   0  0  0  0  0  0  0  0  0  0  0  0
    1.9300    2.7322   -1.3531 C   0  0  0  0  0  0  0  0  0  0  0  0
    3.1771    2.6947    0.8260 C   0  0  0  0  0  0  0  0  0  0  0  0
    3.1116    3.2894   -0.5730 C   0  0  0  0  0  0  0  0  0  0  0  0
    2.2122   -0.9988   -0.0630 C   0  0  0  0  0  0  0  0  0  0  0  0
    0.7224    0.8099    0.6911 C   0  0  0  0  0  0  0  0  0  0  0  0
   -2.6306   -0.2649   -0.3328 C   0  0  0  0  0  0  0  0  0  0  0  0
   -4.2933    1.4658    0.3118 C   0  0  0  0  0  0  0  0  0  0  0  0
   -5.0578   -0.6924   -0.6548 C   0  0  0  0  0  0  0  0  0  0  0  0
   -1.6041    0.4230    0.5454 C   0  0  0  0  0  0  0  0  0  0  0  0
   -4.1009   -0.6272    1.6379 C   0  0  0  0  0  0  0  0  0  0  0  0
    2.2589   -1.7307    1.1199 C   0  0  0  0  0  0  0  0  0  0  0  0
    2.3217   -1.6398   -1.2936 C   0  0  0  0  0  0  0  0  0  0  0  0
   -4.1876    2.0752   -1.0690 C   0  0  0  0  0  0  0  0  0  0  0  0
   -4.8238   -2.1868   -0.6927 C   0  0  0  0  0  0  0  0  0  0  0  0
    2.4165   -3.1158    1.0718 C   0  0  0  0  0  0  0  0  0  0  0  0
    2.4792   -3.0249   -1.3416 C   0  0  0  0  0  0  0  0  0  0  0  0
    2.5266   -3.7628   -0.1589 C   0  0  0  0  0  0  0  0  0  0  0  0
  1 11  1  0
  1 15  1  0
  2 11  2  0
  3 12  1  0
  3 13  1  0
  3 14  1  0
  3 16  1  0
  4  5  1  0
  4  6  1  0
  4 10  1  0
  4 11  1  0
  5  7  1  0
  6  8  1  0
  7  9  1  0
  8  9  1  0
 10 17  2  0
 10 18  1  0
 12 15  1  0
 13 19  1  0
 14 20  1  0
 17 21  1  0
 18 22  2  0
 21 23  2  0
 22 23  1  0
M  CHG  1   3   1
M  END
>  <PUBCHEM_COMPOUND_CID>  (1) 
48328

>  <PUBCHEM_CONFORMER_RMSD>  (1) 
1

>  <PUBCHEM_CONFORMER_DIVERSEORDER>  (1) 
1
55
38
105
97
9
75
85
81
51
29
26
25
36
13
74
18
21
69
99
89
76
56
46
39
64
83
48
100
41
63
17
32
91
104
47
68
102
16
7
90
71
23
106
61
33
62
34
98
53
88
94
43
70
19
59
27
77
67
42
44
96
58
103
40
92
28
10
73
30
95
37
57
86
14
50
8
45
31
72
60
65
79
78
87
11
35
22
6
5
15
20
82
101
66
3
2
80
52
24
93
49
84
12
54
4

>  <PUBCHEM_MMFF94_PARTIAL_CHARGES>  (1) 
21
1 -0.43
10 -0.14
11 0.66
12 0.5
13 0.5
14 0.5
15 0.28
16 0.5
17 -0.15
18 -0.15
2 -0.57
21 -0.15
22 -0.15
23 -0.15
3 -1.01
4 0.2
45 0.15
46 0.15
53 0.15
54 0.15
55 0.15

>  <PUBCHEM_EFFECTIVE_ROTOR_COUNT>  (1) 
9.2

>  <PUBCHEM_PHARMACOPHORE_FEATURES>  (1) 
4
1 2 acceptor
1 3 cation
6 10 17 18 21 22 23 rings
6 4 5 6 7 8 9 rings

>  <PUBCHEM_HEAVY_ATOM_COUNT>  (1) 
23

>  <PUBCHEM_ATOM_DEF_STEREO_COUNT>  (1) 
0

>  <PUBCHEM_ATOM_UDEF_STEREO_COUNT>  (1) 
0

>  <PUBCHEM_BOND_DEF_STEREO_COUNT>  (1) 
0

>  <PUBCHEM_BOND_UDEF_STEREO_COUNT>  (1) 
0

>  <PUBCHEM_ISOTOPIC_ATOM_COUNT>  (1) 
0

>  <PUBCHEM_COMPONENT_COUNT>  (1) 
1

>  <PUBCHEM_CACTVS_TAUTO_COUNT>  (1) 
1

>  <PUBCHEM_CONFORMER_ID>  (1) 
0000BCC800000001

>  <PUBCHEM_MMFF94_ENERGY>  (1) 
72.8928

>  <PUBCHEM_FEATURE_SELFOVERLAP>  (1) 
20.297

>  <PUBCHEM_SHAPE_FINGERPRINT>  (1) 
10074138 170 17259594459135957560
10090160 65 18266737072396914781
11069576 57 18201139027810925455
11315621 136 18342461473305336703
11405975 8 18338801100934084385
12107183 9 17910681964956547209
12293681 25 17615093643895885670
12553582 1 17977964383630965738
12788726 201 17323521787235290650
13004483 165 17758949329921506330
13224815 77 18131354128870985089
13533116 47 18272929441182374031
13583140 156 17988628736419946029
14289901 80 18409729599514529793
14863182 85 18201718483550102002
15502722 9 18409735079301897248
17138139 8 17340106146398069567
17492 89 18412261718990852359
17818456 19 17771635551038608969
1813 80 18123758547579612046
20567600 347 18267581501827684058
20600515 1 17769930178069644938
20626108 58 18264194834036432035
20645477 70 18342173345608257279
20681651 13 18060423538789153411
21054139 6 18055907946906386111
21421861 104 18271535199496072056
21709351 56 18409443713163450676
22393880 68 18342464758917634861
2255824 54 18410300211346787286
23419403 2 17408197467171334800
23559900 14 18341887438182930289
238 59 18263376913344085514
25222932 49 17630597037131217159
3060560 45 18262524818182540252
314173 41 18194688059703891111
5281201 14 18260833657524219885
58051976 378 18189615119459215067
6443956 14 18194401087295232866
7364860 26 18413674595568638976
9709674 26 18334579036207361803
9841814 1 18262236591174316522

>  <PUBCHEM_SHAPE_MULTIPOLES>  (1) 
456.61
9.6
4.34
1.47
16.09
1.47
0.06
0.38
-0.69
-5.39
-0.8
-0.28
0
0.09

>  <PUBCHEM_SHAPE_SELFOVERLAP>  (1) 
932.272

>  <PUBCHEM_SHAPE_VOLUME>  (1) 
264.2

>  <PUBCHEM_COORDINATE_TYPE>  (1) 
2
5
10

$$$$
