48332
     RDKit          3D

 19 19  0  0  0  0  0  0  0  0999 V2000
   -1.3231   -0.0855    0.6184 O   0  0  0  0  0  0  0  0  0  0  0  0
   -2.5213   -0.5199   -1.3127 O   0  0  0  0  0  0  0  0  0  0  0  0
    1.9590    0.9826   -0.0071 N   0  0  0  0  0  0  0  0  0  0  0  0
    1.3910   -2.1558   -0.6819 N   0  0  0  0  0  0  0  0  0  0  0  0
   -3.1067    1.3225   -0.0193 N   0  0  0  0  0  0  0  0  0  0  0  0
    1.0418    0.2172   -0.9499 C   0  0  0  0  0  0  0  0  0  0  0  0
    2.3586    2.3033   -0.6490 C   0  0  0  0  0  0  0  0  0  0  0  0
    1.2294    1.2542    1.3006 C   0  0  0  0  0  0  0  0  0  0  0  0
    3.2062    0.1555    0.2700 C   0  0  0  0  0  0  0  0  0  0  0  0
    0.5973   -1.1036   -0.3942 C   0  0  0  0  0  0  0  0  0  0  0  0
    3.0831    2.0267   -1.9483 C   0  0  0  0  0  0  0  0  0  0  0  0
    2.1458    2.0150    2.2338 C   0  0  0  0  0  0  0  0  0  0  0  0
   -0.5602   -1.1776    0.3576 C   0  0  0  0  0  0  0  0  0  0  0  0
   -0.9311   -2.4236    0.8510 C   0  0  0  0  0  0  0  0  0  0  0  0
    0.9986   -3.3505   -0.1854 C   0  0  0  0  0  0  0  0  0  0  0  0
   -0.1423   -3.5358    0.5789 C   0  0  0  0  0  0  0  0  0  0  0  0
   -2.3432    0.1899   -0.3233 C   0  0  0  0  0  0  0  0  0  0  0  0
   -4.1935    1.7299   -0.8983 C   0  0  0  0  0  0  0  0  0  0  0  0
   -2.8895    2.1556    1.1590 C   0  0  0  0  0  0  0  0  0  0  0  0
  1 13  1  0
  1 17  1  0
  2 17  2  0
  3  6  1  0
  3  7  1  0
  3  8  1  0
  3  9  1  0
  4 10  2  0
  4 15  1  0
  5 17  1  0
  5 18  1  0
  5 19  1  0
  6 10  1  0
  7 11  1  0
  8 12  1  0
 10 13  1  0
 13 14  2  0
 14 16  1  0
 15 16  2  0
M  CHG  1   3   1
M  END
>  <PUBCHEM_COMPOUND_CID>  (1) 
48332

>  <PUBCHEM_CONFORMER_RMSD>  (1) 
0.8

>  <PUBCHEM_CONFORMER_DIVERSEORDER>  (1) 
1
43
12
38
40
7
6
34
26
21
33
18
50
23
17
28
41
35
22
37
25
48
27
19
49
36
44
2
30
3
53
42
46
29
5
32
14
9
39
52
24
58
11
56
31
4
57
13
55
10
45
20
16
51
15
8
54
47

>  <PUBCHEM_MMFF94_PARTIAL_CHARGES>  (1) 
20
1 -0.23
10 0.17
13 0.08
14 -0.15
15 0.16
16 -0.15
17 0.78
18 0.3
19 0.3
2 -0.57
3 -1.01
35 0.15
36 0.15
37 0.15
4 -0.62
5 -0.66
6 0.65
7 0.5
8 0.5
9 0.5

>  <PUBCHEM_EFFECTIVE_ROTOR_COUNT>  (1) 
7

>  <PUBCHEM_PHARMACOPHORE_FEATURES>  (1) 
4
1 2 acceptor
1 3 cation
1 4 acceptor
6 4 10 13 14 15 16 rings

>  <PUBCHEM_HEAVY_ATOM_COUNT>  (1) 
19

>  <PUBCHEM_ATOM_DEF_STEREO_COUNT>  (1) 
0

>  <PUBCHEM_ATOM_UDEF_STEREO_COUNT>  (1) 
0

>  <PUBCHEM_BOND_DEF_STEREO_COUNT>  (1) 
0

>  <PUBCHEM_BOND_UDEF_STEREO_COUNT>  (1) 
0

>  <PUBCHEM_ISOTOPIC_ATOM_COUNT>  (1) 
0

>  <PUBCHEM_COMPONENT_COUNT>  (1) 
1

>  <PUBCHEM_CACTVS_TAUTO_COUNT>  (1) 
1

>  <PUBCHEM_CONFORMER_ID>  (1) 
0000BCCC00000001

>  <PUBCHEM_MMFF94_ENERGY>  (1) 
68.3316

>  <PUBCHEM_FEATURE_SELFOVERLAP>  (1) 
20.297

>  <PUBCHEM_SHAPE_FINGERPRINT>  (1) 
10165383 225 17977988779113681161
11578080 2 12553460039193951111
12173636 292 18192437586997865741
12788726 201 17465372419180731259
13132413 78 17691971462075309292
13134695 92 17769355142004392965
13294875 104 18200580424347816264
13464514 151 18199192793223213610
14713325 29 17757022212586943636
14817 1 15684855076223478889
15490181 8 18408885161071995310
16945 1 18119263778225459294
18410436 195 17620179945688484027
18785283 64 18044119889487035513
19868273 325 17041487683007496062
20510252 161 18122352547079980971
20511035 2 18269546303632101950
20671657 1 18200304399785025705
21524375 3 18413668011135848071
22112679 90 17125368931174212481
2255824 54 18193279594225419631
22907989 373 17905058292938450879
23419403 2 15102300586082411755
23526113 38 17630072539988309148
23557571 272 17548419666556559072
23558518 356 18189886681425274498
23598291 2 17841148849341555973
23598294 1 17685219764848863098
25 1 18341622468575653461
2748010 2 17192918982820791346
2803657 2 17341264661980336417
305870 269 18337663127341260139
350125 39 18263661678223585611
474 4 18335137549364490781
5895379 119 15838452169526658809
621550 5 16831828347936992604
6442390 28 18195268787027792659
7364860 26 18126554627229234979
7471813 234 17552612791809264093
81228 2 17548415263993495899
84936 182 18272081643879839409
90316 7 17330261187690781018

>  <PUBCHEM_SHAPE_MULTIPOLES>  (1) 
364.33
5.34
4.02
1.57
3
3.43
0.29
-5.5
-1.3
-0.17
0.43
-0.86
-1.13
0.04

>  <PUBCHEM_SHAPE_SELFOVERLAP>  (1) 
730.397

>  <PUBCHEM_SHAPE_VOLUME>  (1) 
215.4

>  <PUBCHEM_COORDINATE_TYPE>  (1) 
2
5
10

$$$$
