48348
     RDKit          3D

 23 23  0  0  1  0  0  0  0  0999 V2000
    4.8673   -2.8309   -3.0323 Cl  0  0  0  0  0  0  0  0  0  0  0  0
    3.4337   -1.1668    0.3459 N   0  0  0  0  0  0  0  0  0  0  0  0
   -1.9336   -0.9546    0.2437 C   0  0  0  0  0  0  0  0  0  0  0  0
   -0.8923   -1.3424    1.2960 C   0  0  0  0  0  0  0  0  0  0  0  0
   -3.3158   -0.6613    0.8342 C   0  0  0  0  0  0  0  0  0  0  0  0
    0.4757   -1.5931    0.6559 C   0  0  0  0  0  0  0  0  0  0  0  0
   -4.3759   -0.3452   -0.2246 C   0  0  0  0  0  0  0  0  0  0  0  0
    1.5244   -1.9535    1.7126 C   0  0  0  0  0  0  0  0  0  0  0  0
   -5.7492   -0.1314    0.4177 C   0  0  0  0  0  0  0  0  0  0  0  0
    2.8930   -2.2821    1.1133 C   0  0  0  0  0  0  0  0  0  0  0  0
   -6.8476    0.2105   -0.5934 C   0  0  0  0  0  0  0  0  0  0  0  0
   -8.2037    0.4964    0.0550 C   0  0  0  0  0  0  0  0  0  0  0  0
    4.0496   -0.1797    1.2346 C   0  0  0  0  0  0  0  0  0  0  0  0
    4.4085   -1.6421   -0.6377 C   0  0  0  0  0  0  0  0  0  0  0  0
   -9.2426    0.9021   -0.9916 C   0  0  0  0  0  0  0  0  0  0  0  0
    4.1796    1.1665    0.5731 C   0  0  0  0  0  0  0  0  0  0  0  0
    3.6888   -2.2331   -1.8400 C   0  0  0  0  0  0  0  0  0  0  0  0
  -10.5829    1.2248   -0.3503 C   0  0  0  0  0  0  0  0  0  0  0  0
    5.2242    2.0201    0.9283 C   0  0  0  0  0  0  0  0  0  0  0  0
    3.2559    1.5602   -0.3951 C   0  0  0  0  0  0  0  0  0  0  0  0
    5.3449    3.2673    0.3155 C   0  0  0  0  0  0  0  0  0  0  0  0
    3.3768    2.8075   -1.0080 C   0  0  0  0  0  0  0  0  0  0  0  0
    4.4214    3.6609   -0.6526 C   0  0  0  0  0  0  0  0  0  0  0  0
  1 17  1  0
  2 10  1  0
  2 13  1  0
  2 14  1  0
  3  4  1  0
  3  5  1  0
  4  6  1  0
  5  7  1  0
  6  8  1  0
  7  9  1  0
  8 10  1  0
  9 11  1  0
 11 12  1  0
 12 15  1  0
 13 16  1  0
 14 17  1  0
 15 18  1  0
 16 19  2  0
 16 20  1  0
 19 21  1  0
 20 22  2  0
 21 23  2  0
 22 23  1  0
M  END
>  <PUBCHEM_COMPOUND_CID>  (1) 
48348

>  <PUBCHEM_CONFORMER_RMSD>  (1) 
1.4

>  <PUBCHEM_CONFORMER_DIVERSEORDER>  (1) 
1
13
63
68
76
2
31
78
88
87
55
8
4
65
83
84
10
67
21
28
50
73
75
74
22
12
77
35
32
30
11
85
86
17
59
26
19
20
69
64
52
82
54
53
27
3
43
70
44
41
38
57
6
39
58
51
66
60
23
7
47
18
9
61
72
79
24
40
42
49
15
37
16
81
48
36
45
46
80
5
33
14
62
25
71
34
56
29

>  <PUBCHEM_MMFF94_PARTIAL_CHARGES>  (1) 
17
1 -0.29
10 0.27
13 0.41
14 0.27
16 -0.14
17 0.29
19 -0.15
2 -0.81
20 -0.15
21 -0.15
22 -0.15
23 -0.15
55 0.15
56 0.15
57 0.15
58 0.15
59 0.15

>  <PUBCHEM_EFFECTIVE_ROTOR_COUNT>  (1) 
15

>  <PUBCHEM_PHARMACOPHORE_FEATURES>  (1) 
3
1 18 hydrophobe
1 2 cation
6 16 19 20 21 22 23 rings

>  <PUBCHEM_HEAVY_ATOM_COUNT>  (1) 
23

>  <PUBCHEM_ATOM_DEF_STEREO_COUNT>  (1) 
0

>  <PUBCHEM_ATOM_UDEF_STEREO_COUNT>  (1) 
0

>  <PUBCHEM_BOND_DEF_STEREO_COUNT>  (1) 
0

>  <PUBCHEM_BOND_UDEF_STEREO_COUNT>  (1) 
0

>  <PUBCHEM_ISOTOPIC_ATOM_COUNT>  (1) 
0

>  <PUBCHEM_COMPONENT_COUNT>  (1) 
1

>  <PUBCHEM_CACTVS_TAUTO_COUNT>  (1) 
1

>  <PUBCHEM_CONFORMER_ID>  (1) 
0000BCDC00000001

>  <PUBCHEM_MMFF94_ENERGY>  (1) 
24.8244

>  <PUBCHEM_FEATURE_SELFOVERLAP>  (1) 
15.223

>  <PUBCHEM_SHAPE_FINGERPRINT>  (1) 
10411042 1 17901374599054661322
11135609 127 18272642489431050528
11211813 74 18261104155166181413
11386260 185 18342464711794391868
11966995 178 18260833674983572789
12661589 4 12823026296059346372
13944108 23 18261396706204724484
14142895 15 18335134346131173655
14251757 52 18333725815642883889
14429380 56 18187914085414984103
14598715 104 16443890689004360709
15183329 4 16702306767638927401
155225 6 17751929261357770404
15840311 113 18334294254485258231
16087824 20 18187925119287161948
17810953 82 18114742750153707536
20157964 124 18408321094711485073
20554085 129 15863783985918248961
20587220 17 18202558497090379108
20715895 44 18260544575991623392
20721686 124 18413388727237147542
20721686 146 18190183584937512060
23081809 10 16917077637983422307
27425 322 18410571825010696783
33532 11 10231753406113476825
34797466 226 18342455920471252511
397830 11 17894921771695780451
4093350 32 18272650147347085967
444735 82 18113899352021680237
445580 126 18335127717772991625
46194498 28 18271814497383546166
57676310 151 17632303384462555273
59682541 52 17917715686261760303
60111433 81 17983848157998953889
60123966 16 18413114961372460838

>  <PUBCHEM_SHAPE_MULTIPOLES>  (1) 
470.22
26.41
3.89
1.8
97.2
2.29
1.02
15.09
8.53
-10.91
1.39
-3.03
-1.74
2.69

>  <PUBCHEM_SHAPE_SELFOVERLAP>  (1) 
894.29

>  <PUBCHEM_SHAPE_VOLUME>  (1) 
288.8

>  <PUBCHEM_COORDINATE_TYPE>  (1) 
2
5
10

$$$$
