48344
     RDKit          3D

 19 19  0  0  1  0  0  0  0  0999 V2000
   -5.3391    0.6698    1.3892 Cl  0  0  0  0  0  0  0  0  0  0  0  0
   -1.9107   -0.5180   -0.3599 N   0  0  0  0  0  0  0  0  0  0  0  0
    1.2671    2.1118   -0.1401 C   0  0  0  0  0  0  0  0  0  0  0  0
    1.4997    0.6089    0.0870 C   0  0  0  0  0  0  0  0  0  0  0  0
    0.4262   -0.2113    0.3298 C   0  0  0  0  0  0  0  0  0  0  0  0
   -0.9707    0.3217    0.3814 C   0  0  0  0  0  0  0  0  0  0  0  0
    2.6187    2.8144   -0.3920 C   0  0  0  0  0  0  0  0  0  0  0  0
    0.5990    2.7286    1.1079 C   0  0  0  0  0  0  0  0  0  0  0  0
    0.3564    2.4279   -1.3481 C   0  0  0  0  0  0  0  0  0  0  0  0
    0.6617   -1.5711    0.5319 C   0  0  0  0  0  0  0  0  0  0  0  0
    2.7957    0.1551    0.0332 C   0  0  0  0  0  0  0  0  0  0  0  0
    3.0312   -1.2049    0.2354 C   0  0  0  0  0  0  0  0  0  0  0  0
    1.9643   -2.0680    0.4847 C   0  0  0  0  0  0  0  0  0  0  0  0
   -3.2711    0.0045   -0.2351 C   0  0  0  0  0  0  0  0  0  0  0  0
   -1.5223   -0.6006   -1.7674 C   0  0  0  0  0  0  0  0  0  0  0  0
   -0.4637   -2.5160    0.8013 C   0  0  0  0  0  0  0  0  0  0  0  0
    4.4238   -1.7359    0.1847 C   0  0  0  0  0  0  0  0  0  0  0  0
   -3.6772    0.0531    1.2298 C   0  0  0  0  0  0  0  0  0  0  0  0
   -2.4890   -1.4700   -2.5536 C   0  0  0  0  0  0  0  0  0  0  0  0
  1 18  1  0
  2  6  1  0
  2 14  1  0
  2 15  1  0
  3  4  1  0
  3  7  1  0
  3  8  1  0
  3  9  1  0
  4  5  2  0
  4 11  1  0
  5  6  1  0
  5 10  1  0
 10 13  2  0
 10 16  1  0
 11 12  2  0
 12 13  1  0
 12 17  1  0
 14 18  1  0
 15 19  1  0
M  END
>  <PUBCHEM_COMPOUND_CID>  (1) 
48344

>  <PUBCHEM_CONFORMER_RMSD>  (1) 
0.8

>  <PUBCHEM_CONFORMER_DIVERSEORDER>  (1) 
1
4
2
3

>  <PUBCHEM_MMFF94_PARTIAL_CHARGES>  (1) 
17
1 -0.29
10 -0.14
11 -0.15
12 -0.14
13 -0.15
14 0.27
15 0.27
16 0.14
17 0.14
18 0.29
2 -0.81
3 0.14
31 0.15
32 0.15
4 -0.14
5 -0.14
6 0.41

>  <PUBCHEM_EFFECTIVE_ROTOR_COUNT>  (1) 
6

>  <PUBCHEM_PHARMACOPHORE_FEATURES>  (1) 
3
1 2 cation
4 3 7 8 9 hydrophobe
6 4 5 10 11 12 13 rings

>  <PUBCHEM_HEAVY_ATOM_COUNT>  (1) 
19

>  <PUBCHEM_ATOM_DEF_STEREO_COUNT>  (1) 
0

>  <PUBCHEM_ATOM_UDEF_STEREO_COUNT>  (1) 
0

>  <PUBCHEM_BOND_DEF_STEREO_COUNT>  (1) 
0

>  <PUBCHEM_BOND_UDEF_STEREO_COUNT>  (1) 
0

>  <PUBCHEM_ISOTOPIC_ATOM_COUNT>  (1) 
0

>  <PUBCHEM_COMPONENT_COUNT>  (1) 
1

>  <PUBCHEM_CACTVS_TAUTO_COUNT>  (1) 
1

>  <PUBCHEM_CONFORMER_ID>  (1) 
0000BCD800000001

>  <PUBCHEM_MMFF94_ENERGY>  (1) 
83.9136

>  <PUBCHEM_FEATURE_SELFOVERLAP>  (1) 
15.223

>  <PUBCHEM_SHAPE_FINGERPRINT>  (1) 
10165383 225 17824846656287137709
104564 63 18122619453485516484
10756046 70 18202002131611115397
10967382 1 18335422404533100416
11578080 2 13194907520846738060
11680986 33 18190747620810062610
12173636 292 17400374832497265653
12236239 1 18060419093144593475
12553582 1 18337099056697267386
12633257 1 18264509333680878707
13132413 78 18339923693120204764
13140716 1 18263080071512226354
13965767 371 17053335548014996121
14178342 30 17905040700847669976
14790565 3 18263377931673574420
14955137 171 18200606812368790163
15042514 8 17688029709064335234
15527383 91 18261119539010710745
15852999 172 17398632046215548164
16945 1 18187630406587462722
17357990 137 17774740709256054273
1813 80 18268721523724172294
18219364 16 17968362554854407943
18785283 64 17969515968290340528
19422 9 18201435930473257655
20739085 24 18188224133902468008
21029758 27 18261119521672475370
21041028 32 18338803312262304841
21061003 4 18187927240214204071
21501502 16 18192432102382845578
22112679 90 17845926416031645213
22182313 1 17968922146223045076
23175994 123 18188496761230302474
2334 1 17974567210992570954
23402539 116 18339348657688124610
23558518 356 17551514774593022525
23598291 2 18201713002891946087
238 59 17755541109830746015
25 1 18264774431361940784
266924 1 17986662886864722847
2748010 2 18042101241989305756
312423 11 18200870803055839503
3286 77 18113628888865985979
350125 39 17613727332946651408
474 4 18265890452886285137
621550 5 17241058599798286911
633830 44 18053393385594973780
6992083 37 17988637467692638063
7615 1 17916572280305440229
77492 1 18059569234911883975
7832392 63 18130785693790555209
81228 2 17689132531827072760
8272917 22 18338249176182577171
84936 182 17913767485924983608
9981440 41 17264380619828603488
9999458 23 18260559917773046803

>  <PUBCHEM_SHAPE_MULTIPOLES>  (1) 
387.9
6.98
3.11
1.58
5.76
1.47
1
-1.06
-2.2
-2.59
0
1.85
-0.28
-1.24

>  <PUBCHEM_SHAPE_SELFOVERLAP>  (1) 
777.632

>  <PUBCHEM_SHAPE_VOLUME>  (1) 
233.1

>  <PUBCHEM_COORDINATE_TYPE>  (1) 
2
5
10

$$$$
