48346
     RDKit          3D

 15 15  0  0  1  0  0  0  0  0999 V2000
    3.5569    3.5355   -0.0529 Cl  0  0  0  0  0  0  0  0  0  0  0  0
    0.8518    0.5511    0.0501 N   0  0  0  0  0  0  0  0  0  0  0  0
    0.9278   -0.8372   -0.3890 C   0  0  0  0  0  0  0  0  0  0  0  0
    2.0802   -1.5535    0.3131 C   0  0  0  0  0  0  0  0  0  0  0  0
   -0.2713    1.2346   -0.5939 C   0  0  0  0  0  0  0  0  0  0  0  0
    2.1046    1.2519   -0.2371 C   0  0  0  0  0  0  0  0  0  0  0  0
    2.1647   -3.0183   -0.1174 C   0  0  0  0  0  0  0  0  0  0  0  0
   -1.5851    0.5839   -0.2707 C   0  0  0  0  0  0  0  0  0  0  0  0
    2.0444    2.6700    0.3092 C   0  0  0  0  0  0  0  0  0  0  0  0
    3.3311   -3.7292    0.5502 C   0  0  0  0  0  0  0  0  0  0  0  0
   -2.0691   -0.4311   -1.0878 C   0  0  0  0  0  0  0  0  0  0  0  0
   -2.3043    1.0025    0.8427 C   0  0  0  0  0  0  0  0  0  0  0  0
   -3.2896   -1.0360   -0.7875 C   0  0  0  0  0  0  0  0  0  0  0  0
   -3.5248    0.3975    1.1430 C   0  0  0  0  0  0  0  0  0  0  0  0
   -4.0173   -0.6218    0.3279 C   0  0  0  0  0  0  0  0  0  0  0  0
  1  9  1  0
  2  3  1  0
  2  5  1  0
  2  6  1  0
  3  4  1  0
  4  7  1  0
  5  8  1  0
  6  9  1  0
  7 10  1  0
  8 11  2  0
  8 12  1  0
 11 13  1  0
 12 14  2  0
 13 15  2  0
 14 15  1  0
M  END
>  <PUBCHEM_COMPOUND_CID>  (1) 
48346

>  <PUBCHEM_CONFORMER_RMSD>  (1) 
0.8

>  <PUBCHEM_CONFORMER_DIVERSEORDER>  (1) 
1
33
30
28
21
46
14
50
23
34
32
49
20
27
47
22
26
19
36
44
15
43
17
25
37
24
9
7
18
48
8
39
38
4
2
40
41
45
31
29
3
5
51
12
10
42
13
16
6
35
11

>  <PUBCHEM_MMFF94_PARTIAL_CHARGES>  (1) 
17
1 -0.29
11 -0.15
12 -0.15
13 -0.15
14 -0.15
15 -0.15
2 -0.81
3 0.27
31 0.15
32 0.15
33 0.15
34 0.15
35 0.15
5 0.41
6 0.27
8 -0.14
9 0.29

>  <PUBCHEM_EFFECTIVE_ROTOR_COUNT>  (1) 
7

>  <PUBCHEM_PHARMACOPHORE_FEATURES>  (1) 
3
1 10 hydrophobe
1 2 cation
6 8 11 12 13 14 15 rings

>  <PUBCHEM_HEAVY_ATOM_COUNT>  (1) 
15

>  <PUBCHEM_ATOM_DEF_STEREO_COUNT>  (1) 
0

>  <PUBCHEM_ATOM_UDEF_STEREO_COUNT>  (1) 
0

>  <PUBCHEM_BOND_DEF_STEREO_COUNT>  (1) 
0

>  <PUBCHEM_BOND_UDEF_STEREO_COUNT>  (1) 
0

>  <PUBCHEM_ISOTOPIC_ATOM_COUNT>  (1) 
0

>  <PUBCHEM_COMPONENT_COUNT>  (1) 
1

>  <PUBCHEM_CACTVS_TAUTO_COUNT>  (1) 
1

>  <PUBCHEM_CONFORMER_ID>  (1) 
0000BCDA00000001

>  <PUBCHEM_MMFF94_ENERGY>  (1) 
31.0495

>  <PUBCHEM_FEATURE_SELFOVERLAP>  (1) 
15.223

>  <PUBCHEM_SHAPE_FINGERPRINT>  (1) 
11056379 131 17402338071171276622
11357001 24 17400920795981339450
12346645 44 18128542750205176805
12532896 13 17980203307607204348
12553582 1 18124318207493379742
13052359 8 17544466909538042268
13533116 47 18409455782744193451
136203 1 17257932590233404896
14787075 74 17265251446365516053
15279307 12 18128537248441423463
15309172 13 18119808268415100396
15375462 189 18339371751246993518
15842332 3 17988921184921806599
17841504 4 18337395920177276595
18915476 22 18262778757664798741
201361 129 18271536380501723921
204376 136 18047471411424631292
20600515 1 17696756554112843992
20645477 70 18261939809150473047
20671657 1 18412269449541263758
21061003 4 18118686521926015415
21524375 3 18057043734065574020
21650355 55 17761769568540402130
22445834 79 18342462538809834951
2255824 54 18412830200613626950
23598291 2 18131635599088648101
3091708 16 9288335032615587130
3250762 1 18117260489557251524
43471831 8 18267582592538211684
458136 41 18264499540628110628
474 4 18194969775304512233
633830 44 18128829722808786956
7097593 13 18271248201196641113
7364860 26 18411982464142286390
7615 1 17917419926603514285
81228 2 17260177805825522728
90316 7 17764029064808913778

>  <PUBCHEM_SHAPE_MULTIPOLES>  (1) 
305.58
7.05
4.21
0.96
3.2
1.6
0.02
0.14
1.06
-8.65
0.54
0.65
0.02
-0.84

>  <PUBCHEM_SHAPE_SELFOVERLAP>  (1) 
593.986

>  <PUBCHEM_SHAPE_VOLUME>  (1) 
185.3

>  <PUBCHEM_COORDINATE_TYPE>  (1) 
2
5
10

$$$$
