48350
     RDKit          3D

 16 16  0  0  1  0  0  0  0  0999 V2000
   -5.8101    1.4001   -0.5071 Cl  0  0  0  0  0  0  0  0  0  0  0  0
   -2.2354   -0.4060   -0.0792 N   0  0  0  0  0  0  0  0  0  0  0  0
   -1.5001    0.6790    0.5696 C   0  0  0  0  0  0  0  0  0  0  0  0
   -0.0110    0.5152    0.4201 C   0  0  0  0  0  0  0  0  0  0  0  0
    4.2091    0.0529   -0.0038 C   0  0  0  0  0  0  0  0  0  0  0  0
    2.7342    0.2147    0.1444 C   0  0  0  0  0  0  0  0  0  0  0  0
   -3.6768   -0.1856    0.0336 C   0  0  0  0  0  0  0  0  0  0  0  0
   -1.8679   -1.6945    0.5068 C   0  0  0  0  0  0  0  0  0  0  0  0
    0.5176    0.1706   -0.8158 C   0  0  0  0  0  0  0  0  0  0  0  0
    0.8116    0.7118    1.5202 C   0  0  0  0  0  0  0  0  0  0  0  0
    1.8974    0.0195   -0.9544 C   0  0  0  0  0  0  0  0  0  0  0  0
    2.1913    0.5609    1.3816 C   0  0  0  0  0  0  0  0  0  0  0  0
    4.8155    1.0613   -0.9982 C   0  0  0  0  0  0  0  0  0  0  0  0
    4.6073   -1.3801   -0.4055 C   0  0  0  0  0  0  0  0  0  0  0  0
   -4.0597    1.1145   -0.6566 C   0  0  0  0  0  0  0  0  0  0  0  0
   -2.6230   -2.8343   -0.1557 C   0  0  0  0  0  0  0  0  0  0  0  0
  1 15  1  0
  2  3  1  0
  2  7  1  0
  2  8  1  0
  3  4  1  0
  4  9  2  0
  4 10  1  0
  5  6  1  0
  5 13  1  0
  5 14  1  0
  6 11  2  0
  6 12  1  0
  7 15  1  0
  8 16  1  0
  9 11  1  0
 10 12  2  0
M  END
>  <PUBCHEM_COMPOUND_CID>  (1) 
48350

>  <PUBCHEM_CONFORMER_RMSD>  (1) 
0.8

>  <PUBCHEM_CONFORMER_DIVERSEORDER>  (1) 
2
20
18
1
19
3
22
11
5
23
21
13
25
6
4
12
17
14
24
15
16
7
8
10
9

>  <PUBCHEM_MMFF94_PARTIAL_CHARGES>  (1) 
17
1 -0.29
10 -0.15
11 -0.15
12 -0.15
15 0.29
2 -0.81
24 0.15
25 0.15
26 0.15
27 0.15
3 0.41
4 -0.14
5 0.14
6 -0.14
7 0.27
8 0.27
9 -0.15

>  <PUBCHEM_EFFECTIVE_ROTOR_COUNT>  (1) 
6

>  <PUBCHEM_PHARMACOPHORE_FEATURES>  (1) 
3
1 2 cation
3 5 13 14 hydrophobe
6 4 6 9 10 11 12 rings

>  <PUBCHEM_HEAVY_ATOM_COUNT>  (1) 
16

>  <PUBCHEM_ATOM_DEF_STEREO_COUNT>  (1) 
0

>  <PUBCHEM_ATOM_UDEF_STEREO_COUNT>  (1) 
0

>  <PUBCHEM_BOND_DEF_STEREO_COUNT>  (1) 
0

>  <PUBCHEM_BOND_UDEF_STEREO_COUNT>  (1) 
0

>  <PUBCHEM_ISOTOPIC_ATOM_COUNT>  (1) 
0

>  <PUBCHEM_COMPONENT_COUNT>  (1) 
1

>  <PUBCHEM_CACTVS_TAUTO_COUNT>  (1) 
1

>  <PUBCHEM_CONFORMER_ID>  (1) 
0000BCDE00000002

>  <PUBCHEM_MMFF94_ENERGY>  (1) 
37.0847

>  <PUBCHEM_FEATURE_SELFOVERLAP>  (1) 
15.223

>  <PUBCHEM_SHAPE_FINGERPRINT>  (1) 
10354089 29 15936414412112452365
10366900 7 17418098710691131392
107951 10 17894638036870582699
11543360 7 18189342423675277772
11796584 16 18411983546727915142
12236239 1 17385723586833038057
12346177 29 18342449396273583167
124424 183 17918274250895102362
12500047 106 18411695504471519079
12555020 224 18271242720908548983
13760787 19 18408042931349939598
13760787 5 16630255800308353424
14115302 16 18410579487020453149
14911166 2 18272929414890110089
15048467 5 18333169479454158820
15242439 84 18131068233945691425
15375358 24 17917994974946954495
15848700 24 16056884624281804168
17862501 102 12535348995383043332
17959699 21 17895198835039905884
18186145 218 15357698638853949366
18222031 100 15698283304871079008
187816 3 18130785634220403257
19010151 120 14405183984506626515
192875 21 14476956813633587483
200 152 14979953666689258849
20279233 1 17846504741873014735
20645476 183 17894629266810529923
20645477 56 18334575750604775053
20645477 70 16917065590067146756
20681677 155 18113899381289385539
20871999 31 18262517112567943231
21618674 57 17989489589256853731
22079108 93 15430044270426018697
22485316 2 18410856585921400234
23402539 116 18341606006557079341
23402655 69 17967817163038587556
23559900 14 18343017805304192752
23598291 2 17604716714898073191
26918003 58 18273494559761704154
300161 21 18409165532811498220
3004659 81 18337391548555047674
3286 77 11887953246424652122
32948 21 18341047436847898328
58051976 100 18113617902381808103
59755656 520 18201442450882154155
633830 44 16660651786404694686

>  <PUBCHEM_SHAPE_MULTIPOLES>  (1) 
326.16
10.85
1.82
1.15
2.91
1.57
0.23
-2.61
-3.38
1.83
-0.13
-0.6
-0.27
0.42

>  <PUBCHEM_SHAPE_SELFOVERLAP>  (1) 
640.7

>  <PUBCHEM_SHAPE_VOLUME>  (1) 
197.3

>  <PUBCHEM_COORDINATE_TYPE>  (1) 
2
5
10

$$$$
