48352
     RDKit          3D

 16 17  0  0  1  0  0  0  0  0999 V2000
   -5.5988   -1.0467    1.1015 Cl  0  0  0  0  0  0  0  0  0  0  0  0
    2.8672    0.9394    1.5276 O   0  0  0  0  0  0  0  0  0  0  0  0
    4.2128   -0.1553   -0.1454 O   0  0  0  0  0  0  0  0  0  0  0  0
   -2.0424    0.3898   -0.1269 N   0  0  0  0  0  0  0  0  0  0  0  0
   -1.3343   -0.8758   -0.3243 C   0  0  0  0  0  0  0  0  0  0  0  0
    0.1481   -0.7057   -0.3062 C   0  0  0  0  0  0  0  0  0  0  0  0
   -3.4869    0.1659   -0.0929 C   0  0  0  0  0  0  0  0  0  0  0  0
   -1.6958    1.3383   -1.1841 C   0  0  0  0  0  0  0  0  0  0  0  0
    0.7434    0.0855    0.6791 C   0  0  0  0  0  0  0  0  0  0  0  0
    2.1170    0.2129    0.6548 C   0  0  0  0  0  0  0  0  0  0  0  0
    0.9332   -1.3442   -1.2822 C   0  0  0  0  0  0  0  0  0  0  0  0
    2.8855   -0.4121   -0.3004 C   0  0  0  0  0  0  0  0  0  0  0  0
   -3.8437   -0.7535    1.0648 C   0  0  0  0  0  0  0  0  0  0  0  0
   -2.4220    2.6595   -0.9960 C   0  0  0  0  0  0  0  0  0  0  0  0
    2.3226   -1.1989   -1.2842 C   0  0  0  0  0  0  0  0  0  0  0  0
    4.1941    0.7010    1.0148 C   0  0  0  0  0  0  0  0  0  0  0  0
  1 13  1  0
  2 10  1  0
  2 16  1  0
  3 12  1  0
  3 16  1  0
  4  5  1  0
  4  7  1  0
  4  8  1  0
  5  6  1  0
  6  9  1  0
  6 11  2  0
  7 13  1  0
  8 14  1  0
  9 10  2  0
 10 12  1  0
 11 15  1  0
 12 15  2  0
M  END
>  <PUBCHEM_COMPOUND_CID>  (1) 
48352

>  <PUBCHEM_CONFORMER_RMSD>  (1) 
0.6

>  <PUBCHEM_CONFORMER_DIVERSEORDER>  (1) 
3
41
28
44
39
26
31
35
29
56
42
45
51
7
33
5
20
60
58
34
37
46
17
18
43
19
36
40
38
6
53
8
48
55
2
4
50
13
59
16
1
12
57
15
14
54
27
10
49
25
52
47
9
30
11
23
21
32
22
24

>  <PUBCHEM_MMFF94_PARTIAL_CHARGES>  (1) 
18
1 -0.29
10 0.08
11 -0.15
12 0.08
13 0.29
15 -0.15
16 0.56
2 -0.36
23 0.15
24 0.15
3 -0.36
30 0.15
4 -0.81
5 0.41
6 -0.14
7 0.27
8 0.27
9 -0.15

>  <PUBCHEM_EFFECTIVE_ROTOR_COUNT>  (1) 
5.6

>  <PUBCHEM_PHARMACOPHORE_FEATURES>  (1) 
5
1 2 acceptor
1 3 acceptor
1 4 cation
5 2 3 10 12 16 rings
6 6 9 10 11 12 15 rings

>  <PUBCHEM_HEAVY_ATOM_COUNT>  (1) 
16

>  <PUBCHEM_ATOM_DEF_STEREO_COUNT>  (1) 
0

>  <PUBCHEM_ATOM_UDEF_STEREO_COUNT>  (1) 
0

>  <PUBCHEM_BOND_DEF_STEREO_COUNT>  (1) 
0

>  <PUBCHEM_BOND_UDEF_STEREO_COUNT>  (1) 
0

>  <PUBCHEM_ISOTOPIC_ATOM_COUNT>  (1) 
0

>  <PUBCHEM_COMPONENT_COUNT>  (1) 
1

>  <PUBCHEM_CACTVS_TAUTO_COUNT>  (1) 
1

>  <PUBCHEM_CONFORMER_ID>  (1) 
0000BCE000000003

>  <PUBCHEM_MMFF94_ENERGY>  (1) 
36.9626

>  <PUBCHEM_FEATURE_SELFOVERLAP>  (1) 
25.527

>  <PUBCHEM_SHAPE_FINGERPRINT>  (1) 
10354089 29 16773525429477209811
10608611 8 18271517598651741628
11132069 177 18341891930935155607
11471102 20 17489588948255353630
12236239 1 16225766328578572243
12403259 415 18273492364917423336
12892183 10 17968359187974490656
13581323 91 17894629257756306346
13583140 156 18044346440611908080
13764800 53 18263640658991262213
14178342 30 17750232504736013717
14289901 80 17967536744196401394
15219456 202 18272366413017045916
15342168 16 17702100468107108681
17844478 74 18413110537329065029
17862501 102 16660360385310196138
18186145 218 17418085525516111460
18222031 100 18261119625263646695
19010151 120 15574714694540720303
19049666 15 18196092131736137647
200 152 14923941271563078267
20645477 56 18200863080688634936
20645477 70 17559951013632298535
21639500 275 17203028738977442096
22079108 93 17060053804716077019
22854114 59 18131636694658638811
22943178 12 18267305331072215743
23402539 116 18114175363462113607
23402655 69 15554445227947803352
23532345 42 18334304192812909431
23557571 272 18334020458414336957
23559900 14 18043534915052506023
25 1 17489300897947418006
314173 85 18261403256450739377
4047638 21 17703794738569332858
449060 50 17847067700896502891
5374978 207 17822015345347241553
5902787 121 17532950500421791299
6049 1 18270126686440942781
621550 34 18272092682119765871
633830 44 16200145547578260240
77492 1 16153434908731675063
81228 2 17969238741663929061
8272917 22 16199607800403345799

>  <PUBCHEM_SHAPE_MULTIPOLES>  (1) 
314.42
9.14
1.69
1.39
5.24
1.27
-0.03
-1.57
-3.8
1.67
0.56
-0.54
-0.05
1.79

>  <PUBCHEM_SHAPE_SELFOVERLAP>  (1) 
646.397

>  <PUBCHEM_SHAPE_VOLUME>  (1) 
184.1

>  <PUBCHEM_COORDINATE_TYPE>  (1) 
2
5
10

$$$$
