48367
     RDKit          3D

 14 14  0  0  0  0  0  0  0  0999 V2000
   -1.3810   -0.7445    1.2512 O   0  0  0  0  0  0  0  0  0  0  0  0
   -3.9083   -1.2914    0.1235 O   0  0  0  0  0  0  0  0  0  0  0  0
   -0.4611    1.2257    0.4312 N   0  0  0  0  0  0  0  0  0  0  0  0
   -2.5261    0.5372   -0.3234 N   0  0  0  0  0  0  0  0  0  0  0  0
   -4.5576    0.3161   -1.3846 N   0  0  0  0  0  0  0  0  0  0  0  0
    0.7687    1.1917    1.1890 C   0  0  0  0  0  0  0  0  0  0  0  0
    1.8613    0.4629    0.4527 C   0  0  0  0  0  0  0  0  0  0  0  0
    2.0120   -0.9050    0.6329 C   0  0  0  0  0  0  0  0  0  0  0  0
    2.7026    1.1692   -0.3954 C   0  0  0  0  0  0  0  0  0  0  0  0
    3.0245   -1.5802   -0.0489 C   0  0  0  0  0  0  0  0  0  0  0  0
    3.7150    0.4940   -1.0773 C   0  0  0  0  0  0  0  0  0  0  0  0
    3.8759   -0.8807   -0.9039 C   0  0  0  0  0  0  0  0  0  0  0  0
   -1.4467    0.2451    0.5239 C   0  0  0  0  0  0  0  0  0  0  0  0
   -3.6791   -0.2400   -0.4709 C   0  0  0  0  0  0  0  0  0  0  0  0
  1 13  2  0
  2 14  2  0
  3  6  1  0
  3 13  1  0
  4 13  1  0
  4 14  1  0
  5 14  1  0
  6  7  1  0
  7  8  2  0
  7  9  1  0
  8 10  1  0
  9 11  2  0
 10 12  2  0
 11 12  1  0
M  END
>  <PUBCHEM_COMPOUND_CID>  (1) 
48367

>  <PUBCHEM_CONFORMER_RMSD>  (1) 
0.6

>  <PUBCHEM_CONFORMER_DIVERSEORDER>  (1) 
2
29
34
6
24
22
23
19
17
9
33
14
26
15
25
20
32
3
12
27
1
5
13
10
28
35
7
8
16
11
36
4
37
21
18
39
30
38
31

>  <PUBCHEM_MMFF94_PARTIAL_CHARGES>  (1) 
23
1 -0.57
10 -0.15
11 -0.15
12 -0.15
13 0.69
14 0.69
17 0.15
18 0.15
19 0.37
2 -0.57
20 0.15
21 0.15
22 0.15
23 0.37
24 0.37
25 0.37
3 -0.73
4 -0.49
5 -0.8
6 0.44
7 -0.14
8 -0.15
9 -0.15

>  <PUBCHEM_EFFECTIVE_ROTOR_COUNT>  (1) 
5

>  <PUBCHEM_PHARMACOPHORE_FEATURES>  (1) 
6
1 1 acceptor
1 2 acceptor
1 3 donor
1 4 donor
1 5 donor
6 7 8 9 10 11 12 rings

>  <PUBCHEM_HEAVY_ATOM_COUNT>  (1) 
14

>  <PUBCHEM_ATOM_DEF_STEREO_COUNT>  (1) 
0

>  <PUBCHEM_ATOM_UDEF_STEREO_COUNT>  (1) 
0

>  <PUBCHEM_BOND_DEF_STEREO_COUNT>  (1) 
0

>  <PUBCHEM_BOND_UDEF_STEREO_COUNT>  (1) 
0

>  <PUBCHEM_ISOTOPIC_ATOM_COUNT>  (1) 
0

>  <PUBCHEM_COMPONENT_COUNT>  (1) 
1

>  <PUBCHEM_CACTVS_TAUTO_COUNT>  (1) 
8

>  <PUBCHEM_CONFORMER_ID>  (1) 
0000BCEF00000002

>  <PUBCHEM_MMFF94_ENERGY>  (1) 
26.7585

>  <PUBCHEM_FEATURE_SELFOVERLAP>  (1) 
30.55

>  <PUBCHEM_SHAPE_FINGERPRINT>  (1) 
10465860 228 12252173048593853112
10498660 4 16588292874620134573
11543360 7 17821733870259741775
12251169 10 10519979370268074169
12346177 29 16415201114219701625
12616999 72 18334296495872864278
13296908 3 17346873429654533921
14252887 29 16559031584634037410
14576447 43 18342182137860097014
15239191 94 17418093226038999975
15653759 3 13182749116971530978
177051 138 15841830062224704397
1798214 20 18130783447491082599
18186145 218 18040994021111153617
18915474 69 18273498991740666598
200 152 18272092673550728714
20281475 54 18343304764579633011
20361792 2 17489868228340499296
20523700 14 18114185254412976706
20645477 70 17917701444308345501
20671657 53 17989489623316139057
20767249 442 14129060322177108532
20871999 31 18335423422034512053
21065199 12 11743844646459350103
21665062 11 8862938369022830294
21713013 43 18334295383402598919
22169311 14 12031791365780356885
22485316 2 17775283863256834720
22646028 28 17703793595791345630
23402655 69 18187365406746512700
23557571 272 16588603000912219705
251288 83 15697703875017262874
32948 21 18339351964680970061
42 15 13183026215292066965
94968 8 18131351929515322710
960060 61 18342448257996252989

>  <PUBCHEM_SHAPE_MULTIPOLES>  (1) 
261.43
8.55
1.41
1.17
6.56
0.11
-0.07
2.39
-3.88
-0.75
0.18
0.14
-0.06
0.06

>  <PUBCHEM_SHAPE_SELFOVERLAP>  (1) 
536.103

>  <PUBCHEM_SHAPE_VOLUME>  (1) 
149.6

>  <PUBCHEM_COORDINATE_TYPE>  (1) 
2
5
10

$$$$
