48360
     RDKit          3D

 18 18  0  0  1  0  0  0  0  0999 V2000
   -2.2394    4.9975    0.2819 Cl  0  0  0  0  0  0  0  0  0  0  0  0
    2.6445    0.4946   -0.1664 O   0  0  0  0  0  0  0  0  0  0  0  0
    4.8177   -1.2591    0.0094 O   0  0  0  0  0  0  0  0  0  0  0  0
   -0.9699    1.2122   -0.2508 N   0  0  0  0  0  0  0  0  0  0  0  0
    0.3280    0.7250   -0.7164 C   0  0  0  0  0  0  0  0  0  0  0  0
   -2.0547    0.5268   -0.9523 C   0  0  0  0  0  0  0  0  0  0  0  0
   -1.0714    2.6586   -0.4416 C   0  0  0  0  0  0  0  0  0  0  0  0
    1.4071    0.9985    0.3192 C   0  0  0  0  0  0  0  0  0  0  0  0
   -2.3236   -0.8368   -0.3733 C   0  0  0  0  0  0  0  0  0  0  0  0
   -2.0956    3.2396    0.5210 C   0  0  0  0  0  0  0  0  0  0  0  0
   -2.8090   -1.8580   -1.1904 C   0  0  0  0  0  0  0  0  0  0  0  0
   -2.0869   -1.0793    0.9799 C   0  0  0  0  0  0  0  0  0  0  0  0
    3.6986    0.7199    0.7596 C   0  0  0  0  0  0  0  0  0  0  0  0
   -3.0580   -3.1214   -0.6543 C   0  0  0  0  0  0  0  0  0  0  0  0
   -2.3359   -2.3429    1.5158 C   0  0  0  0  0  0  0  0  0  0  0  0
    4.9829    0.1412    0.1977 C   0  0  0  0  0  0  0  0  0  0  0  0
   -2.8214   -3.3639    0.6986 C   0  0  0  0  0  0  0  0  0  0  0  0
    5.9871   -1.8522   -0.5377 C   0  0  0  0  0  0  0  0  0  0  0  0
  1 10  1  0
  2  8  1  0
  2 13  1  0
  3 16  1  0
  3 18  1  0
  4  5  1  0
  4  6  1  0
  4  7  1  0
  5  8  1  0
  6  9  1  0
  7 10  1  0
  9 11  2  0
  9 12  1  0
 11 14  1  0
 12 15  2  0
 13 16  1  0
 14 17  2  0
 15 17  1  0
M  END
>  <PUBCHEM_COMPOUND_CID>  (1) 
48360

>  <PUBCHEM_CONFORMER_RMSD>  (1) 
0.8

>  <PUBCHEM_CONFORMER_DIVERSEORDER>  (1) 
1
107
230
153
8
276
154
131
250
319
296
59
140
145
207
381
255
17
228
285
55
365
108
102
284
352
5
227
172
161
151
128
39
262
50
361
51
242
163
134
180
330
239
287
117
122
62
133
185
253
95
91
191
53
67
65
155
389
124
322
132
57
339
35
83
63
359
24
222
127
189
81
245
282
158
394
286
393
254
342
252
143
166
89
11
312
103
301
121
144
217
70
293
72
348
310
157
120
148
21
116
224
175
32
325
236
398
212
375
30
58
267
177
218
109
47
323
113
85
4
2
229
76
216
199
119
88
238
184
60
96
298
329
304
168
383
377
92
31
56
336
84
86
317
387
94
234
43
114
324
395
137
392
73
321
368
374
278
266
123
307
351
243
14
350
27
279
232
71
75
331
223
170
165
221
326
208
280
309
277
147
181
174
126
106
249
198
346
69
271
141
20
320
349
364
52
115
193
18
6
19
379
302
300
97
241
220
313
186
111
129
295
308
22
347
135
118
197
149
397
194
74
235
283
87
211
79
105
318
44
178
259
367
275
38
66
110
360
142
396
294
248
167
98
23
260
42
156
61
337
299
130
15
335
138
370
332
264
99
195
33
179
340
29
162
196
355
146
136
344
371
68
269
353
256
363
388
231
34
210
192
246
12
82
358
345
357
327
315
362
139
9
306
334
390
41
7
104
49
270
251
3
90
281
25
291
265
385
338
386
100
206
152
244
45
305
77
80
36
176
160
369
182
261
213
233
268
201
28
274
183
16
333
125
225
343
258
237
112
376
190
316
203
311
341
272
169
273
209
46
64
366
204
219
159
247
314
382
150
48
54
205
328
263
356
240
372
101
93
226
289
215
214
26
380
391
187
200
373
290
164
257
40
37
292
78
13
202
303
188
173
378
354
297
384
171
288
10

>  <PUBCHEM_MMFF94_PARTIAL_CHARGES>  (1) 
23
1 -0.29
10 0.29
11 -0.15
12 -0.15
13 0.28
14 -0.15
15 -0.15
16 0.28
17 -0.15
18 0.28
2 -0.56
29 0.15
3 -0.56
30 0.15
33 0.15
34 0.15
37 0.15
4 -0.81
5 0.27
6 0.41
7 0.27
8 0.28
9 -0.14

>  <PUBCHEM_EFFECTIVE_ROTOR_COUNT>  (1) 
10

>  <PUBCHEM_PHARMACOPHORE_FEATURES>  (1) 
4
1 2 acceptor
1 3 acceptor
1 4 cation
6 9 11 12 14 15 17 rings

>  <PUBCHEM_HEAVY_ATOM_COUNT>  (1) 
18

>  <PUBCHEM_ATOM_DEF_STEREO_COUNT>  (1) 
0

>  <PUBCHEM_ATOM_UDEF_STEREO_COUNT>  (1) 
0

>  <PUBCHEM_BOND_DEF_STEREO_COUNT>  (1) 
0

>  <PUBCHEM_BOND_UDEF_STEREO_COUNT>  (1) 
0

>  <PUBCHEM_ISOTOPIC_ATOM_COUNT>  (1) 
0

>  <PUBCHEM_COMPONENT_COUNT>  (1) 
1

>  <PUBCHEM_CACTVS_TAUTO_COUNT>  (1) 
1

>  <PUBCHEM_CONFORMER_ID>  (1) 
0000BCE800000001

>  <PUBCHEM_MMFF94_ENERGY>  (1) 
41.1846

>  <PUBCHEM_FEATURE_SELFOVERLAP>  (1) 
20.301

>  <PUBCHEM_SHAPE_FINGERPRINT>  (1) 
107951 10 18052821342857579052
10968037 57 18341054115622673114
11036077 51 18194961842388750641
12363563 72 18192151713985355478
12549972 3 17702359811707998944
12788726 201 18336812118447777361
13135754 10 17462039550312625451
13955234 65 17186727654725738515
14866123 147 18339080376576218739
15042514 8 18410016541995242145
17859628 70 17255971589581182027
20286276 3 18412267221086441052
23559900 14 18336531824671929948
4073 2 18339077087406723482
5365585 94 18260271888624138194
59755656 520 18122902036543295037
77188 2 18195244657754161549
81228 2 18410576180365679309

>  <PUBCHEM_SHAPE_MULTIPOLES>  (1) 
355.58
9.52
5.51
1.11
22.91
5.44
0.11
-7.17
-0.29
-7.97
0.78
-0.73
-0.54
0.48

>  <PUBCHEM_SHAPE_SELFOVERLAP>  (1) 
688.207

>  <PUBCHEM_SHAPE_VOLUME>  (1) 
217.3

>  <PUBCHEM_COORDINATE_TYPE>  (1) 
2
5
10

$$$$
