48376
     RDKit          3D

 27 29  0  0  0  0  0  0  0  0999 V2000
   -0.6296    0.9741    2.0854 O   0  0  0  0  0  0  0  0  0  0  0  0
   -4.8051   -2.4030   -0.2936 O   0  0  0  0  0  0  0  0  0  0  0  0
   -4.8002    2.3848   -0.4030 O   0  0  0  0  0  0  0  0  0  0  0  0
   -6.0737   -0.0208   -0.9147 O   0  0  0  0  0  0  0  0  0  0  0  0
    1.3593   -0.6623    1.1127 N   0  0  0  0  0  0  0  0  0  0  0  0
    3.9672   -0.1660    0.0584 N   0  0  0  0  0  0  0  0  0  0  0  0
    6.1480   -0.9377   -0.4152 N   0  0  0  0  0  0  0  0  0  0  0  0
    5.5984    1.3994   -0.6232 N   0  0  0  0  0  0  0  0  0  0  0  0
    1.5656    0.3804    0.1002 C   0  0  0  0  0  0  0  0  0  0  0  0
    2.2904   -1.7737    0.8819 C   0  0  0  0  0  0  0  0  0  0  0  0
    2.9946    0.9265    0.1561 C   0  0  0  0  0  0  0  0  0  0  0  0
    3.7430   -1.2992    0.9650 C   0  0  0  0  0  0  0  0  0  0  0  0
   -0.0235   -1.1377    1.0853 C   0  0  0  0  0  0  0  0  0  0  0  0
    5.2805    0.1074   -0.3399 C   0  0  0  0  0  0  0  0  0  0  0  0
   -0.9541    0.0265    1.3730 C   0  0  0  0  0  0  0  0  0  0  0  0
   -2.3172    0.0136    0.7631 C   0  0  0  0  0  0  0  0  0  0  0  0
   -2.9170    1.2157    0.4667 C   0  0  0  0  0  0  0  0  0  0  0  0
   -2.9197   -1.1995    0.5221 C   0  0  0  0  0  0  0  0  0  0  0  0
   -4.1930   -1.2111   -0.0473 C   0  0  0  0  0  0  0  0  0  0  0  0
   -4.1904    1.2041   -0.1027 C   0  0  0  0  0  0  0  0  0  0  0  0
   -4.8283   -0.0093   -0.3598 C   0  0  0  0  0  0  0  0  0  0  0  0
    7.4055   -0.6382   -0.8017 C   0  0  0  0  0  0  0  0  0  0  0  0
    6.8727    1.6271   -1.0032 C   0  0  0  0  0  0  0  0  0  0  0  0
    7.8288    0.6382   -1.1115 C   0  0  0  0  0  0  0  0  0  0  0  0
   -4.5772   -2.9971   -1.5700 C   0  0  0  0  0  0  0  0  0  0  0  0
   -5.6089    2.9734    0.6137 C   0  0  0  0  0  0  0  0  0  0  0  0
   -6.2159    0.5844   -2.1978 C   0  0  0  0  0  0  0  0  0  0  0  0
  1 15  2  0
  2 19  1  0
  2 25  1  0
  3 20  1  0
  3 26  1  0
  4 21  1  0
  4 27  1  0
  5  9  1  0
  5 10  1  0
  5 13  1  0
  6 11  1  0
  6 12  1  0
  6 14  1  0
  7 14  2  0
  7 22  1  0
  8 14  1  0
  8 23  2  0
  9 11  1  0
 10 12  1  0
 13 15  1  0
 15 16  1  0
 16 17  2  0
 16 18  1  0
 17 20  1  0
 18 19  2  0
 19 21  1  0
 20 21  2  0
 22 24  2  0
 23 24  1  0
M  END
>  <PUBCHEM_COMPOUND_CID>  (1) 
48376

>  <PUBCHEM_CONFORMER_RMSD>  (1) 
1

>  <PUBCHEM_CONFORMER_DIVERSEORDER>  (1) 
1
50
36
16
3
25
31
30
54
22
47
55
2
17
35
44
42
38
45
18
40
21
41
13
7
46
23
9
53
4
19
43
5
8
51
26
34
32
14
20
48
49
37
29
15
52
39
6
11
28
24
12
33
10
27

>  <PUBCHEM_MMFF94_PARTIAL_CHARGES>  (1) 
32
1 -0.57
10 0.27
11 0.37
12 0.37
13 0.33
14 0.72
15 0.42
16 0.09
17 -0.15
18 -0.15
19 0.08
2 -0.36
20 0.08
21 0.08
22 0.16
23 0.16
24 -0.15
25 0.28
26 0.28
27 0.28
3 -0.36
38 0.15
39 0.15
4 -0.36
40 0.15
41 0.15
42 0.15
5 -0.81
6 -0.84
7 -0.62
8 -0.62
9 0.27

>  <PUBCHEM_EFFECTIVE_ROTOR_COUNT>  (1) 
8.2

>  <PUBCHEM_PHARMACOPHORE_FEATURES>  (1) 
10
1 1 acceptor
1 2 acceptor
1 3 acceptor
1 4 acceptor
1 5 cation
1 8 acceptor
4 6 7 8 14 cation
6 16 17 18 19 20 21 rings
6 5 6 9 10 11 12 rings
6 7 8 14 22 23 24 rings

>  <PUBCHEM_HEAVY_ATOM_COUNT>  (1) 
27

>  <PUBCHEM_ATOM_DEF_STEREO_COUNT>  (1) 
0

>  <PUBCHEM_ATOM_UDEF_STEREO_COUNT>  (1) 
0

>  <PUBCHEM_BOND_DEF_STEREO_COUNT>  (1) 
0

>  <PUBCHEM_BOND_UDEF_STEREO_COUNT>  (1) 
0

>  <PUBCHEM_ISOTOPIC_ATOM_COUNT>  (1) 
0

>  <PUBCHEM_COMPONENT_COUNT>  (1) 
1

>  <PUBCHEM_CACTVS_TAUTO_COUNT>  (1) 
2

>  <PUBCHEM_CONFORMER_ID>  (1) 
0000BCF800000001

>  <PUBCHEM_MMFF94_ENERGY>  (1) 
113.6505

>  <PUBCHEM_FEATURE_SELFOVERLAP>  (1) 
50.757

>  <PUBCHEM_SHAPE_FINGERPRINT>  (1) 
10 15 12179852705852701434
10076449 9 18337670915251481283
10554248 39 17458062660744362038
10595046 47 18334010596805792259
11089746 13 18041001761148519264
11315181 36 18334580157077683989
12082328 90 18411984658654537415
12236239 1 18411421713586822962
13668630 136 16128649773785265319
13673619 4 15051735296082838730
13685833 64 13183020722624974726
13690498 29 18199743803832833727
13782708 43 14764350410292469188
14251764 18 11239992361474459168
14528608 73 18334296487694276082
14556957 393 18059307512485538968
15064981 113 18056742257525828319
15064981 194 18114757026941335245
15183329 4 18260827077396835056
15461852 350 13190341313723745475
15716309 27 12391513083423977898
1577012 14 18261389997285667337
16992828 155 17897160213856194677
18643901 69 17917712461538263719
18681886 176 18272647991706136962
18927931 339 16056885736498680427
20505436 4 18188209785291835003
21033648 144 16805316691418810747
21150785 3 18342459261918664630
21298829 104 18113905927057564652
21424621 283 16081363012611134129
21585481 151 8934733188910140032
22393880 68 18342733031091011426
23198884 109 18186240636431912515
23559900 14 18271236244081912681
2838139 119 17458063776797224492
312425 54 10303824176472635684
328310 630 17676216783399680540
3663271 9 9439402420034775374
4073 2 17749399178175942298
4169191 19 16733557138526125868
504579 68 18410284826626155983
543368 44 17894911828366129641
7226269 152 14490189427599871062
999808 66 13758071922053665645

>  <PUBCHEM_SHAPE_MULTIPOLES>  (1) 
512.25
21.48
2.44
1.47
25.19
0.07
0.18
-5.15
11.98
-4
0.32
-1.07
0.11
-1.91

>  <PUBCHEM_SHAPE_SELFOVERLAP>  (1) 
1083.632

>  <PUBCHEM_SHAPE_VOLUME>  (1) 
286.3

>  <PUBCHEM_COORDINATE_TYPE>  (1) 
2
5
10

$$$$
