48373
     RDKit          3D

 14 15  0  0  0  0  0  0  0  0999 V2000
    2.6829   -0.3891   -0.1497 O   0  0  0  0  0  0  0  0  0  0  0  0
    1.3887   -2.4013    0.1413 O   0  0  0  0  0  0  0  0  0  0  0  0
    1.4773    2.2224   -0.4153 O   0  0  0  0  0  0  0  0  0  0  0  0
   -3.4614    1.1280   -0.0905 O   0  0  0  0  0  0  0  0  0  0  0  0
    1.3443   -0.1440   -0.1265 C   0  0  0  0  0  0  0  0  0  0  0  0
    0.6053   -1.2929    0.0397 C   0  0  0  0  0  0  0  0  0  0  0  0
    0.7454    1.0928   -0.2510 C   0  0  0  0  0  0  0  0  0  0  0  0
   -1.4046   -0.0285   -0.0331 C   0  0  0  0  0  0  0  0  0  0  0  0
   -0.7733   -1.2684    0.0905 C   0  0  0  0  0  0  0  0  0  0  0  0
   -0.6496    1.1454   -0.2029 C   0  0  0  0  0  0  0  0  0  0  0  0
    2.7037   -1.8212    0.0207 C   0  0  0  0  0  0  0  0  0  0  0  0
   -2.8566    0.0497    0.0141 C   0  0  0  0  0  0  0  0  0  0  0  0
   -3.6827   -1.2115    0.1970 C   0  0  0  0  0  0  0  0  0  0  0  0
    1.8806    2.9186    0.7658 C   0  0  0  0  0  0  0  0  0  0  0  0
  1  5  1  0
  1 11  1  0
  2  6  1  0
  2 11  1  0
  3  7  1  0
  3 14  1  0
  4 12  2  0
  5  6  2  0
  5  7  1  0
  6  9  1  0
  7 10  2  0
  8  9  2  0
  8 10  1  0
  8 12  1  0
 12 13  1  0
M  END
>  <PUBCHEM_COMPOUND_CID>  (1) 
48373

>  <PUBCHEM_CONFORMER_RMSD>  (1) 
0.6

>  <PUBCHEM_CONFORMER_DIVERSEORDER>  (1) 
1
4
6
5
3
2

>  <PUBCHEM_MMFF94_PARTIAL_CHARGES>  (1) 
16
1 -0.36
10 -0.15
11 0.56
12 0.42
13 0.06
14 0.28
15 0.15
16 0.15
2 -0.36
3 -0.36
4 -0.57
5 0.08
6 0.08
7 0.08
8 0.09
9 -0.15

>  <PUBCHEM_EFFECTIVE_ROTOR_COUNT>  (1) 
2.6

>  <PUBCHEM_PHARMACOPHORE_FEATURES>  (1) 
6
1 1 acceptor
1 2 acceptor
1 3 acceptor
1 4 acceptor
5 1 2 5 6 11 rings
6 5 6 7 8 9 10 rings

>  <PUBCHEM_HEAVY_ATOM_COUNT>  (1) 
14

>  <PUBCHEM_ATOM_DEF_STEREO_COUNT>  (1) 
0

>  <PUBCHEM_ATOM_UDEF_STEREO_COUNT>  (1) 
0

>  <PUBCHEM_BOND_DEF_STEREO_COUNT>  (1) 
0

>  <PUBCHEM_BOND_UDEF_STEREO_COUNT>  (1) 
0

>  <PUBCHEM_ISOTOPIC_ATOM_COUNT>  (1) 
0

>  <PUBCHEM_COMPONENT_COUNT>  (1) 
1

>  <PUBCHEM_CACTVS_TAUTO_COUNT>  (1) 
2

>  <PUBCHEM_CONFORMER_ID>  (1) 
0000BCF500000001

>  <PUBCHEM_MMFF94_ENERGY>  (1) 
47.0281

>  <PUBCHEM_FEATURE_SELFOVERLAP>  (1) 
30.605

>  <PUBCHEM_SHAPE_FINGERPRINT>  (1) 
1 1 18266741461895540092
10130415 120 18116432540078883979
10608611 8 18408038529092902749
108231 29 18337111159714381290
10967382 1 18337955721819391117
11471102 20 18409163277779451799
12032990 46 18266746787692365006
13140716 1 18265614470977431146
13380535 76 18048310338616711170
14648413 74 18408042931107158281
15501101 241 18260552216474588101
161256 15 18334290976555136957
16945 1 18410852157345907455
17990270 104 18408604747173583963
193761 8 18122064479297186182
20511035 2 18189908693221810966
20645477 70 18341328976977119103
21501502 16 18409172134123315773
21524375 3 17840589519645028092
221490 88 18335710493675551091
2334 1 18049445047490928319
23402539 116 18197767826428526854
23419403 2 14284908282710894938
23552423 10 18409449215222005559
2748010 2 18047762773273242790
305870 269 18267015253165500936
3071541 12 18411704313344097508
3071541 158 18261112924365572612
53812653 166 18339081604973905280
5493415 88 18336263453223324827
63268167 104 18337398145044169537
7364860 26 18341895229105977000
81228 2 17618230502976935624
84936 182 18130226081111808113

>  <PUBCHEM_SHAPE_MULTIPOLES>  (1) 
264.64
4.86
2.74
0.66
4.13
0.86
-0.03
-0.39
-0.26
-2.35
-0.36
-0.08
0.14
0.3

>  <PUBCHEM_SHAPE_SELFOVERLAP>  (1) 
571.541

>  <PUBCHEM_SHAPE_VOLUME>  (1) 
147.5

>  <PUBCHEM_COORDINATE_TYPE>  (1) 
2
5
10

$$$$
