48378
     RDKit          3D

 21 23  0  0  0  0  0  0  0  0999 V2000
   -0.0001   -0.8967   -0.1175 N   0  0  0  0  0  0  0  0  0  0  0  0
   -4.8001   -1.0820   -0.1277 N   0  0  0  0  0  0  0  0  0  0  0  0
    4.8000   -1.0819   -0.1293 N   0  0  0  0  0  0  0  0  0  0  0  0
   -1.1872   -0.2632   -0.0751 C   0  0  0  0  0  0  0  0  0  0  0  0
    1.1870   -0.2632   -0.0754 C   0  0  0  0  0  0  0  0  0  0  0  0
   -1.2157    1.1432    0.0186 C   0  0  0  0  0  0  0  0  0  0  0  0
    1.2156    1.1432    0.0183 C   0  0  0  0  0  0  0  0  0  0  0  0
   -0.0001    1.8368    0.0648 C   0  0  0  0  0  0  0  0  0  0  0  0
   -2.3801   -0.9923   -0.1235 C   0  0  0  0  0  0  0  0  0  0  0  0
    2.3800   -0.9924   -0.1242 C   0  0  0  0  0  0  0  0  0  0  0  0
   -2.4584    1.7953    0.0623 C   0  0  0  0  0  0  0  0  0  0  0  0
    2.4582    1.7953    0.0617 C   0  0  0  0  0  0  0  0  0  0  0  0
   -3.6450    1.0612    0.0134 C   0  0  0  0  0  0  0  0  0  0  0  0
    3.6450    1.0611    0.0126 C   0  0  0  0  0  0  0  0  0  0  0  0
   -3.6057   -0.3290   -0.0792 C   0  0  0  0  0  0  0  0  0  0  0  0
    3.6055   -0.3290   -0.0801 C   0  0  0  0  0  0  0  0  0  0  0  0
    0.0001   -2.3724   -0.2142 C   0  0  0  0  0  0  0  0  0  0  0  0
   -4.9466    1.7945    0.0602 C   0  0  0  0  0  0  0  0  0  0  0  0
    4.9466    1.7939    0.0626 C   0  0  0  0  0  0  0  0  0  0  0  0
   -4.8985   -2.4119    0.3854 C   0  0  0  0  0  0  0  0  0  0  0  0
    4.8995   -2.4107    0.3864 C   0  0  0  0  0  0  0  0  0  0  0  0
  1  4  2  0
  1  5  1  0
  1 17  1  0
  2 15  1  0
  2 20  1  0
  3 16  1  0
  3 21  1  0
  4  6  1  0
  4  9  1  0
  5  7  2  0
  5 10  1  0
  6  8  2  0
  6 11  1  0
  7  8  1  0
  7 12  1  0
  9 15  2  0
 10 16  2  0
 11 13  2  0
 12 14  2  0
 13 15  1  0
 13 18  1  0
 14 16  1  0
 14 19  1  0
M  CHG  1   1   1
M  END
>  <PUBCHEM_COMPOUND_CID>  (1) 
48378

>  <PUBCHEM_CONFORMER_RMSD>  (1) 
0.6

>  <PUBCHEM_CONFORMER_DIVERSEORDER>  (1) 
1
2

>  <PUBCHEM_MMFF94_PARTIAL_CHARGES>  (1) 
26
1 -0.21
10 -0.15
11 -0.15
12 -0.15
13 -0.14
14 -0.14
15 0.1
16 0.1
17 0.49
18 0.14
19 0.14
2 -0.87
20 0.37
21 0.37
22 0.15
23 0.15
24 0.15
25 0.15
26 0.15
3 -0.87
36 0.4
37 0.4
4 0.36
5 0.36
8 -0.15
9 -0.15

>  <PUBCHEM_EFFECTIVE_ROTOR_COUNT>  (1) 
2

>  <PUBCHEM_PHARMACOPHORE_FEATURES>  (1) 
7
1 2 cation
1 2 donor
1 3 cation
1 3 donor
6 1 4 5 6 7 8 rings
6 4 6 9 11 13 15 rings
6 5 7 10 12 14 16 rings

>  <PUBCHEM_HEAVY_ATOM_COUNT>  (1) 
21

>  <PUBCHEM_ATOM_DEF_STEREO_COUNT>  (1) 
0

>  <PUBCHEM_ATOM_UDEF_STEREO_COUNT>  (1) 
0

>  <PUBCHEM_BOND_DEF_STEREO_COUNT>  (1) 
0

>  <PUBCHEM_BOND_UDEF_STEREO_COUNT>  (1) 
0

>  <PUBCHEM_ISOTOPIC_ATOM_COUNT>  (1) 
0

>  <PUBCHEM_COMPONENT_COUNT>  (1) 
1

>  <PUBCHEM_CACTVS_TAUTO_COUNT>  (1) 
2

>  <PUBCHEM_CONFORMER_ID>  (1) 
0000BCFA00000001

>  <PUBCHEM_MMFF94_ENERGY>  (1) 
107.2128

>  <PUBCHEM_FEATURE_SELFOVERLAP>  (1) 
35.579

>  <PUBCHEM_SHAPE_FINGERPRINT>  (1) 
10062212 137 18342168947503762927
10616163 171 18411983542411524087
10967382 1 18339642351361131956
11405975 8 18340207397147778793
11806522 49 18337110167529268069
11963148 33 18120650498601801946
12107183 9 18051132488702360912
12236239 1 18040995172341970792
12403259 226 18410288116466083301
12403259 415 18131067194463723753
12788726 201 17632026273298502520
13073987 5 18411701006087118688
13140716 1 18340769247489475368
13167823 11 18410008831943409354
13675066 3 18202558488425779144
13862211 1 18411976966389624879
14341114 176 18335989735432239491
14790565 3 18411705391254424660
15196674 1 18411138038911590980
15442244 35 18411699851284189312
15536298 74 18342175566333202540
16945 1 18123755248823046213
17492 89 18411138021864311626
17804303 29 18412827966845660460
1813 80 17312820481306818212
18186145 218 17895187788146013236
19591789 44 18411135844209988287
200 152 18059852874715836885
20028762 73 18201995555785194295
20261772 1 18059014020295211927
20510252 161 18272936028797075729
20645477 70 18412827976089774918
21236236 1 18412545427428989491
21267235 1 18411427214838730790
21279426 13 18337952290182732959
221490 88 18409453612904441874
23402539 116 18342731888661346135
23559900 14 18341328903825186786
3004659 81 18335141956464913278
335352 9 18339079259552425517
350125 39 18338517439771638020
4073 2 18114467854491621930
4214541 1 18410856542824125133
474 4 17459194160903443644
474229 33 18340206405147561135
5104073 3 18413671305133119673
59755656 215 18194403286181338831
6138700 20 18193841440678694486
633830 44 17167868555854615056
77779 3 18410575088968816597
9709674 26 18335988656836402443

>  <PUBCHEM_SHAPE_MULTIPOLES>  (1) 
417.23
11.14
2.73
0.63
0
0.75
-0.01
2
-0.67
0
-0.18
0
0.03
0

>  <PUBCHEM_SHAPE_SELFOVERLAP>  (1) 
915.29

>  <PUBCHEM_SHAPE_VOLUME>  (1) 
228.9

>  <PUBCHEM_COORDINATE_TYPE>  (1) 
2
5
10

$$$$
