48385
     RDKit          3D

 17 17  0  0  1  0  0  0  0  0999 V2000
    3.0709   -0.5629    0.1987 O   0  0  0  0  0  0  0  0  0  0  0  0
    1.2830   -1.9029   -0.3609 O   0  0  0  0  0  0  0  0  0  0  0  0
    1.0725    4.0269   -0.6145 N   0  0  0  0  0  0  0  0  0  0  0  0
    0.9150    0.3574    0.4987 C   0  0  0  0  0  0  0  0  0  0  0  0
    1.3316    1.6072   -0.3067 C   0  0  0  0  0  0  0  0  0  0  0  0
   -0.5752    0.0574    0.4415 C   0  0  0  0  0  0  0  0  0  0  0  0
    0.6289    2.8809    0.1721 C   0  0  0  0  0  0  0  0  0  0  0  0
   -1.1582   -0.1997   -0.7828 C   0  0  0  0  0  0  0  0  0  0  0  0
    1.7407   -0.8462    0.0544 C   0  0  0  0  0  0  0  0  0  0  0  0
   -1.3001    0.0511    1.6160 C   0  0  0  0  0  0  0  0  0  0  0  0
   -2.5248   -0.4750   -0.8347 C   0  0  0  0  0  0  0  0  0  0  0  0
   -3.2788   -0.4872    0.3388 C   0  0  0  0  0  0  0  0  0  0  0  0
   -2.6665   -0.2241    1.5641 C   0  0  0  0  0  0  0  0  0  0  0  0
   -3.1593   -0.7519   -2.1581 C   0  0  0  0  0  0  0  0  0  0  0  0
   -4.7434   -0.7788    0.3079 C   0  0  0  0  0  0  0  0  0  0  0  0
    3.9705   -1.6109   -0.1762 C   0  0  0  0  0  0  0  0  0  0  0  0
    5.3931   -1.1412    0.0417 C   0  0  0  0  0  0  0  0  0  0  0  0
  1  9  1  0
  1 16  1  0
  2  9  2  0
  3  7  1  0
  4  5  1  0
  4  6  1  0
  4  9  1  0
  5  7  1  0
  6  8  2  0
  6 10  1  0
  8 11  1  0
 10 13  2  0
 11 12  2  0
 11 14  1  0
 12 13  1  0
 12 15  1  0
 16 17  1  0
M  END
>  <PUBCHEM_COMPOUND_CID>  (1) 
48385

>  <PUBCHEM_CONFORMER_RMSD>  (1) 
0.8

>  <PUBCHEM_CONFORMER_DIVERSEORDER>  (1) 
1
13
72
77
5
50
48
81
69
35
78
47
98
73
55
74
30
24
29
60
64
87
97
45
34
71
49
10
17
26
92
62
84
67
44
86
59
15
99
42
85
61
70
88
79
43
76
20
51
39
94
95
7
8
38
12
58
90
80
52
83
28
25
56
37
41
23
40
93
32
65
33
46
4
82
89
53
31
18
3
54
19
75
96
36
27
14
22
91
11
21
68
66
9
16
6
2
63
57

>  <PUBCHEM_MMFF94_PARTIAL_CHARGES>  (1) 
20
1 -0.43
10 -0.15
11 -0.14
12 -0.14
13 -0.15
14 0.14
15 0.14
16 0.28
2 -0.57
23 0.15
24 0.15
25 0.15
3 -0.99
32 0.36
33 0.36
4 0.2
6 -0.14
7 0.27
8 -0.15
9 0.66

>  <PUBCHEM_EFFECTIVE_ROTOR_COUNT>  (1) 
6

>  <PUBCHEM_PHARMACOPHORE_FEATURES>  (1) 
4
1 2 acceptor
1 3 cation
1 3 donor
6 6 8 10 11 12 13 rings

>  <PUBCHEM_HEAVY_ATOM_COUNT>  (1) 
17

>  <PUBCHEM_ATOM_DEF_STEREO_COUNT>  (1) 
0

>  <PUBCHEM_ATOM_UDEF_STEREO_COUNT>  (1) 
1

>  <PUBCHEM_BOND_DEF_STEREO_COUNT>  (1) 
0

>  <PUBCHEM_BOND_UDEF_STEREO_COUNT>  (1) 
0

>  <PUBCHEM_ISOTOPIC_ATOM_COUNT>  (1) 
0

>  <PUBCHEM_COMPONENT_COUNT>  (1) 
1

>  <PUBCHEM_CACTVS_TAUTO_COUNT>  (1) 
1

>  <PUBCHEM_CONFORMER_ID>  (1) 
0000BD0100000001

>  <PUBCHEM_MMFF94_ENERGY>  (1) 
31.2291

>  <PUBCHEM_FEATURE_SELFOVERLAP>  (1) 
20.297

>  <PUBCHEM_SHAPE_FINGERPRINT>  (1) 
10989021 7 18412829083869622848
11578080 2 17558799884977328737
12236239 1 17846781814418725563
12553582 1 18339069415656577482
13009979 54 17774727557659992363
13134695 92 18335419097260849492
13538477 17 17346038995366659471
13583140 156 14332831644370545146
13911987 19 18114763593767281846
14115302 16 17632294622844138679
16945 1 18337943597437950871
1813 80 18200327541084452830
18186145 218 17604136113087734245
18785283 64 17899140691525655852
19786989 88 18046335607670947873
200 152 18260266305150387138
20361792 2 18412825759327292422
20645476 183 17843973765470332159
20671657 53 18411421700037081354
20711985 327 18342745104555277532
21029758 27 18411422799891613574
21041028 32 18410019814349202841
21061003 4 18260277338562317339
21339142 126 18197497312292173234
21639500 275 18193273215945881269
22112679 90 17560813159634520585
2255824 54 18268996547264118262
23175994 123 18260554406812904768
232386 152 16702017621291384967
23402539 116 18338797806446332866
23526113 38 17894916281851908464
23559900 14 18336543936510996443
23566358 27 18121222244963743303
23598291 2 18130784602963840469
3286 77 18187936118075141711
34934 24 18121786027940262753
6049 1 17677042547092426709
6992083 37 17988932132498031857
7364860 26 18266743656523893768
77492 1 17775010140885867497
81228 2 17975136444293580088
9981440 41 13194899974979699982

>  <PUBCHEM_SHAPE_MULTIPOLES>  (1) 
333.13
7.99
2.61
1.36
4.33
4.05
-0.18
-5.72
-0.24
2.53
-0.69
-1.61
-0.17
-0.38

>  <PUBCHEM_SHAPE_SELFOVERLAP>  (1) 
673.9

>  <PUBCHEM_SHAPE_VOLUME>  (1) 
195.9

>  <PUBCHEM_COORDINATE_TYPE>  (1) 
2
5
10

$$$$
