48382
     RDKit          3D

 20 22  0  0  1  0  0  0  0  0999 V2000
    3.5473    0.6866   -0.6197 N   0  0  0  0  0  0  0  0  0  0  0  0
   -3.5472    0.6868    0.6198 N   0  0  0  0  0  0  0  0  0  0  0  0
    1.0643   -0.3986    0.6999 C   0  0  0  0  0  0  0  0  0  0  0  0
   -1.0644   -0.3991   -0.6996 C   0  0  0  0  0  0  0  0  0  0  0  0
   -0.6915   -2.1897    1.0521 C   0  0  0  0  0  0  0  0  0  0  0  0
    0.6918   -2.1895   -1.0519 C   0  0  0  0  0  0  0  0  0  0  0  0
   -0.0002    0.4795   -0.0001 C   0  0  0  0  0  0  0  0  0  0  0  0
    0.3575   -1.2995    1.7388 C   0  0  0  0  0  0  0  0  0  0  0  0
    1.7380   -1.2995   -0.3608 C   0  0  0  0  0  0  0  0  0  0  0  0
   -1.7379   -1.2999    0.3611 C   0  0  0  0  0  0  0  0  0  0  0  0
   -0.3575   -1.2998   -1.7386 C   0  0  0  0  0  0  0  0  0  0  0  0
    0.0003   -3.0708    0.0000 C   0  0  0  0  0  0  0  0  0  0  0  0
    2.1104    0.4833    1.3876 C   0  0  0  0  0  0  0  0  0  0  0  0
   -2.1106    0.4826   -1.3875 C   0  0  0  0  0  0  0  0  0  0  0  0
    2.8381    1.4281    0.4231 C   0  0  0  0  0  0  0  0  0  0  0  0
   -2.8382    1.4278   -0.4235 C   0  0  0  0  0  0  0  0  0  0  0  0
    3.8445    2.2877    1.1868 C   0  0  0  0  0  0  0  0  0  0  0  0
   -3.8448    2.2870   -1.1874 C   0  0  0  0  0  0  0  0  0  0  0  0
    4.1896    1.5982   -1.5533 C   0  0  0  0  0  0  0  0  0  0  0  0
   -4.1895    1.5989    1.5530 C   0  0  0  0  0  0  0  0  0  0  0  0
  1 15  1  0
  1 19  1  0
  2 16  1  0
  2 20  1  0
  3  7  1  0
  3  8  1  0
  3  9  1  0
  3 13  1  0
  4  7  1  0
  4 10  1  0
  4 11  1  0
  4 14  1  0
  5  8  1  0
  5 10  1  0
  5 12  1  0
  6  9  1  0
  6 11  1  0
  6 12  1  0
 13 15  1  0
 14 16  1  0
 15 17  1  0
 16 18  1  0
M  END
>  <PUBCHEM_COMPOUND_CID>  (1) 
48382

>  <PUBCHEM_CONFORMER_RMSD>  (1) 
0.8

>  <PUBCHEM_CONFORMER_DIVERSEORDER>  (1) 
3
7
12
13
8
10
4
16
5
14
1
17
11
6
2
9
15

>  <PUBCHEM_MMFF94_PARTIAL_CHARGES>  (1) 
8
1 -0.9
15 0.27
16 0.27
19 0.27
2 -0.9
20 0.27
47 0.36
48 0.36

>  <PUBCHEM_EFFECTIVE_ROTOR_COUNT>  (1) 
7.2

>  <PUBCHEM_PHARMACOPHORE_FEATURES>  (1) 
8
1 1 cation
1 1 donor
1 2 cation
1 2 donor
6 3 4 5 7 8 10 rings
6 3 4 6 7 9 11 rings
6 3 5 6 8 9 12 rings
6 4 5 6 10 11 12 rings

>  <PUBCHEM_HEAVY_ATOM_COUNT>  (1) 
20

>  <PUBCHEM_ATOM_DEF_STEREO_COUNT>  (1) 
0

>  <PUBCHEM_ATOM_UDEF_STEREO_COUNT>  (1) 
2

>  <PUBCHEM_BOND_DEF_STEREO_COUNT>  (1) 
0

>  <PUBCHEM_BOND_UDEF_STEREO_COUNT>  (1) 
0

>  <PUBCHEM_ISOTOPIC_ATOM_COUNT>  (1) 
0

>  <PUBCHEM_COMPONENT_COUNT>  (1) 
1

>  <PUBCHEM_CACTVS_TAUTO_COUNT>  (1) 
1

>  <PUBCHEM_CONFORMER_ID>  (1) 
0000BCFE00000003

>  <PUBCHEM_MMFF94_ENERGY>  (1) 
68.2211

>  <PUBCHEM_FEATURE_SELFOVERLAP>  (1) 
53.086

>  <PUBCHEM_SHAPE_FINGERPRINT>  (1) 
10165383 225 18338537281834782285
10291535 26 17701813508879356144
10498660 4 18270948094821294037
10863032 1 18343024401704409975
10922049 32 18410580582231903714
10948715 1 18410569587105186887
11578080 2 17834162715166556679
12035759 4 15553623789244815510
12173636 292 18263915712886110502
12491281 212 18060411426374612851
12633257 1 15647601264280022157
12788726 201 17837464694682533223
13024252 1 16663988902768811186
13134695 92 17619052942033224791
13464514 151 18057621892123150417
13544653 18 7997971279927870792
13583140 156 15864342579899235749
14142880 1 17971729306608619308
14713325 29 18194691581851075218
14787075 74 18410854400083772537
14817 1 14597810492909747798
14955137 171 17974836281977644042
15534591 1 18339630252279860666
16945 1 18053374414433971199
17134986 127 18270950293759776732
1741750 31 18269546290520347104
17921350 177 16469561836512101657
1813 80 16838545908463548383
18186145 218 18131349726197457184
18785283 64 18188778232234072170
19837323 101 18196636609219990902
19862831 5 15769777944090854153
21503847 285 17840595799388323097
21524375 3 18338499902734138818
21731228 192 18335133211083362609
21756936 100 17386576902704500524
22182937 141 18197212757397098512
23419403 2 17692301474393633635
23559900 14 16155971371036793727
25 1 18201443545091232866
2637199 183 17988932145304039833
427121 178 17968958395815017027
458136 41 18337402530195339643
474 4 18270388400468498009
495365 180 17680975302832906517
633830 44 17775569727790771049
6442390 28 18339933696436771003
6786 2 18338816562088778211
7808743 9 18115036323884778580
81228 2 17828754376462295058
81539 233 18263637386120382317
9999458 23 17605271779128066642

>  <PUBCHEM_SHAPE_MULTIPOLES>  (1) 
401.63
6.67
3.02
1.73
0
0.92
0
-7.94
0
0
0
0
-0.19
0.26

>  <PUBCHEM_SHAPE_SELFOVERLAP>  (1) 
834.383

>  <PUBCHEM_SHAPE_VOLUME>  (1) 
222.5

>  <PUBCHEM_COORDINATE_TYPE>  (1) 
2
5
10

$$$$
