48387
     RDKit          3D

 25 27  0  0  1  0  0  0  0  0999 V2000
   -0.7844    0.4973    0.5775 O   0  0  0  0  0  0  0  0  0  0  0  0
    0.4029    1.8878   -0.8211 O   0  0  0  0  0  0  0  0  0  0  0  0
   -4.4642    1.0476    0.7878 N   0  0  0  0  0  0  0  0  0  0  0  0
   -3.1415    0.4167    0.9119 C   0  0  0  0  0  0  0  0  0  0  0  0
   -3.2379   -1.0937    0.6260 C   0  0  0  0  0  0  0  0  0  0  0  0
   -3.5608   -1.5228   -0.8013 C   0  0  0  0  0  0  0  0  0  0  0  0
   -4.8648   -0.9578   -1.3574 C   0  0  0  0  0  0  0  0  0  0  0  0
   -4.8727    1.4978   -0.5451 C   0  0  0  0  0  0  0  0  0  0  0  0
   -4.7468    0.5178   -1.7163 C   0  0  0  0  0  0  0  0  0  0  0  0
   -1.9920    1.0986    0.1632 C   0  0  0  0  0  0  0  0  0  0  0  0
   -4.6309    2.1396    1.7523 C   0  0  0  0  0  0  0  0  0  0  0  0
    1.5925    0.2849    0.5900 C   0  0  0  0  0  0  0  0  0  0  0  0
    0.3696    0.9849    0.0054 C   0  0  0  0  0  0  0  0  0  0  0  0
    1.5791   -1.2278    0.4140 C   0  0  0  0  0  0  0  0  0  0  0  0
    2.9075    0.9008    0.1292 C   0  0  0  0  0  0  0  0  0  0  0  0
    2.2075   -2.0135    1.3578 C   0  0  0  0  0  0  0  0  0  0  0  0
    3.5028    0.4180   -1.0174 C   0  0  0  0  0  0  0  0  0  0  0  0
    0.9386   -1.7651   -0.6832 C   0  0  0  0  0  0  0  0  0  0  0  0
    3.4609    1.9222    0.8728 C   0  0  0  0  0  0  0  0  0  0  0  0
    2.1951   -3.3991    1.1969 C   0  0  0  0  0  0  0  0  0  0  0  0
    4.7066    0.9819   -1.4396 C   0  0  0  0  0  0  0  0  0  0  0  0
    0.9262   -3.1506   -0.8440 C   0  0  0  0  0  0  0  0  0  0  0  0
    4.6647    2.4862    0.4504 C   0  0  0  0  0  0  0  0  0  0  0  0
    1.5545   -3.9676    0.0961 C   0  0  0  0  0  0  0  0  0  0  0  0
    5.2875    2.0160   -0.7058 C   0  0  0  0  0  0  0  0  0  0  0  0
  1 10  1  0
  1 13  1  0
  2 13  2  0
  3  4  1  0
  3  8  1  0
  3 11  1  0
  4  5  1  0
  4 10  1  0
  5  6  1  0
  6  7  1  0
  7  9  1  0
  8  9  1  0
 12 13  1  0
 12 14  1  0
 12 15  1  0
 14 16  2  0
 14 18  1  0
 15 17  2  0
 15 19  1  0
 16 20  1  0
 17 21  1  0
 18 22  2  0
 19 23  2  0
 20 24  2  0
 21 25  2  0
 22 24  1  0
 23 25  1  0
M  END
>  <PUBCHEM_COMPOUND_CID>  (1) 
48387

>  <PUBCHEM_CONFORMER_RMSD>  (1) 
1

>  <PUBCHEM_CONFORMER_DIVERSEORDER>  (1) 
1
410
163
141
21
640
679
320
7
218
86
508
310
64
431
217
592
266
193
487
97
483
224
602
164
12
302
26
227
106
580
231
22
38
705
24
191
5
81
109
583
491
183
259
204
3
435
17
13
220
73
18
29
567
715
36
4
208
50
15
186
253
313
2
23
352
250
37
288
459
683
79
25
323
10
66
633
165
731
62
291
92
232
95
189
77
168
126
6
393
230
116
378
598
594
381
16
244
55
274
45
526
74
625
312
254
297
661
122
32
515
137
638
44
548
61
75
190
156
63
299
474
682
585
43
112
372
69
349
642

>  <PUBCHEM_MMFF94_PARTIAL_CHARGES>  (1) 
31
1 -0.43
10 0.28
11 0.27
12 0.35
13 0.66
14 -0.14
15 -0.14
16 -0.15
17 -0.15
18 -0.15
19 -0.15
2 -0.57
20 -0.15
21 -0.15
22 -0.15
23 -0.15
24 -0.15
25 -0.15
3 -0.81
4 0.27
43 0.15
44 0.15
45 0.15
46 0.15
47 0.15
48 0.15
49 0.15
50 0.15
51 0.15
52 0.15
8 0.27

>  <PUBCHEM_EFFECTIVE_ROTOR_COUNT>  (1) 
7.4

>  <PUBCHEM_PHARMACOPHORE_FEATURES>  (1) 
5
1 2 acceptor
1 3 cation
6 14 16 18 20 22 24 rings
6 15 17 19 21 23 25 rings
7 3 4 5 6 7 8 9 rings

>  <PUBCHEM_HEAVY_ATOM_COUNT>  (1) 
25

>  <PUBCHEM_ATOM_DEF_STEREO_COUNT>  (1) 
0

>  <PUBCHEM_ATOM_UDEF_STEREO_COUNT>  (1) 
1

>  <PUBCHEM_BOND_DEF_STEREO_COUNT>  (1) 
0

>  <PUBCHEM_BOND_UDEF_STEREO_COUNT>  (1) 
0

>  <PUBCHEM_ISOTOPIC_ATOM_COUNT>  (1) 
0

>  <PUBCHEM_COMPONENT_COUNT>  (1) 
1

>  <PUBCHEM_CACTVS_TAUTO_COUNT>  (1) 
1

>  <PUBCHEM_CONFORMER_ID>  (1) 
0000BD0300000001

>  <PUBCHEM_MMFF94_ENERGY>  (1) 
66.7952

>  <PUBCHEM_FEATURE_SELFOVERLAP>  (1) 
25.373

>  <PUBCHEM_SHAPE_FINGERPRINT>  (1) 
11007060 377 18055359286847547176
11315621 136 18342172228785587047
11488393 25 18189049790379157554
11545043 162 14117798003526444653
11578080 2 17242735286253055956
12422481 6 17823395172637671000
12553582 1 17978515230556619491
12633257 1 18125718990023847159
12788726 201 17131000741839110121
12969540 114 18336258063334917236
13083527 12 18117539765842593546
13533116 47 18271518698986003393
13631057 29 18198616838710505663
14528608 73 18341891921902401741
14790565 3 18263648527303088676
1601671 61 18113617919451252164
17138139 8 17698697510048001295
17818456 19 17412747203369242449
20197701 30 18338515360870076406
20600515 1 17115501841218268602
20645477 70 18261672558910131419
21054139 6 18270107041086457567
21421861 104 18123483686699394600
21796203 349 17617129934608780074
22393880 68 18201715184766896269
23557571 272 15792027631626256813
23558518 356 17764017374361887680
23559900 14 18196640805360971275
404807 78 17827913242211263859
4280585 95 17554342315010543134
59755656 520 18337388357473124156
633830 44 18202006551043259764
9841814 1 17825950321443649370

>  <PUBCHEM_SHAPE_MULTIPOLES>  (1) 
497.77
11.67
3.88
1.47
6.66
3.86
-0.06
-8.33
-2.32
-3.4
0.68
0.75
-0.07
-1.66

>  <PUBCHEM_SHAPE_SELFOVERLAP>  (1) 
1048.49

>  <PUBCHEM_SHAPE_VOLUME>  (1) 
277.1

>  <PUBCHEM_COORDINATE_TYPE>  (1) 
2
5
10

$$$$
