4839
     RDKit          3D

 24 26  0  0  1  0  0  0  0  0999 V2000
    0.8683    1.0198   -0.3727 O   0  0  0  0  0  0  0  0  0  0  0  0
    0.2738   -0.8509   -1.5753 O   0  0  0  0  0  0  0  0  0  0  0  0
    4.2365   -0.5030   -0.0086 N   0  0  0  0  0  0  0  0  0  0  0  0
    2.2556    0.8420   -0.6378 C   0  0  0  0  0  0  0  0  0  0  0  0
    2.9892    2.1264   -0.2648 C   0  0  0  0  0  0  0  0  0  0  0  0
    2.7864   -0.3499    0.1640 C   0  0  0  0  0  0  0  0  0  0  0  0
    4.4959    1.9314   -0.3719 C   0  0  0  0  0  0  0  0  0  0  0  0
    4.9533    0.7059    0.4212 C   0  0  0  0  0  0  0  0  0  0  0  0
    4.7191   -1.6726    0.7252 C   0  0  0  0  0  0  0  0  0  0  0  0
    6.1953   -1.9159    0.4610 C   0  0  0  0  0  0  0  0  0  0  0  0
   -1.1147   -0.1056    0.2935 C   0  0  0  0  0  0  0  0  0  0  0  0
    0.0581   -0.0436   -0.6802 C   0  0  0  0  0  0  0  0  0  0  0  0
   -1.9659    1.1570    0.3135 C   0  0  0  0  0  0  0  0  0  0  0  0
   -1.9610   -1.3612    0.1263 C   0  0  0  0  0  0  0  0  0  0  0  0
   -2.6096    1.5080    1.4821 C   0  0  0  0  0  0  0  0  0  0  0  0
   -3.0271   -1.3338   -0.7483 C   0  0  0  0  0  0  0  0  0  0  0  0
   -2.0673    1.9103   -0.8375 C   0  0  0  0  0  0  0  0  0  0  0  0
   -1.6346   -2.4858    0.8549 C   0  0  0  0  0  0  0  0  0  0  0  0
   -3.3897    2.6643    1.5003 C   0  0  0  0  0  0  0  0  0  0  0  0
   -3.8023   -2.4833   -0.9011 C   0  0  0  0  0  0  0  0  0  0  0  0
   -2.8473    3.0665   -0.8194 C   0  0  0  0  0  0  0  0  0  0  0  0
   -2.4097   -3.6354    0.7020 C   0  0  0  0  0  0  0  0  0  0  0  0
   -3.5085    3.4435    0.3496 C   0  0  0  0  0  0  0  0  0  0  0  0
   -3.4936   -3.6341   -0.1760 C   0  0  0  0  0  0  0  0  0  0  0  0
  1  4  1  0
  1 12  1  0
  2 12  2  0
  3  6  1  0
  3  8  1  0
  3  9  1  0
  4  5  1  0
  4  6  1  0
  5  7  1  0
  7  8  1  0
  9 10  1  0
 11 12  1  0
 11 13  1  0
 11 14  1  0
 13 15  2  0
 13 17  1  0
 14 16  2  0
 14 18  1  0
 15 19  1  0
 16 20  1  0
 17 21  2  0
 18 22  2  0
 19 23  2  0
 20 24  2  0
 21 23  1  0
 22 24  1  0
M  END
>  <PUBCHEM_COMPOUND_CID>  (1) 
4839

>  <PUBCHEM_CONFORMER_RMSD>  (1) 
0.8

>  <PUBCHEM_CONFORMER_DIVERSEORDER>  (1) 
1
114
152
97
243
20
167
121
169
26
78
19
237
185
113
28
119
170
36
151
23
293
131
118
273
159
12
163
147
158
184
196
146
70
199
18
10
230
215
259
71
282
177
287
52
73
270
61
226
207
143
248
99
100
40
262
150
271
94
247
66
98
242
281
190
266
161
64
171
129
15
213
14
22
179
263
227
200
192
211
84
284
206
63
17
267
65
62
210
87
44
45
104
68
186
234
180
85
102
239
160
182
89
11
101
79
27
7
256
187
261
166
201
53
249
275
280
6
258
103
120
80
253
8
82
157
202
228
58
3
123
260
108
292
81
209
231
217
153
254
74
145
198
5
88
29
164
286
9
48
117
72
283
175
274
174
252
31
212
290
195
229
24
189
277
238
57
188
138
268
46
75
135
125
38
244
111
154
191
181
130
136
86
77
219
291
47
250
105
39
193
60
149
34
13
222
141
205
59
223
245
137
216
288
69
172
55
257
25
106
41
246
35
204
21
168
251
183
90
162
178
56
203
49
235
33
272
92
115
276
156
37
67
116
126
289
265
107
32
140
294
224
233
132
148
96
93
110
50
220
221
95
269
43
240
112
127
83
214
285
278
236
91
197
51
133
124
128
109
54
255
42
279
225
208
139
134
165
264
241
144
30
16
122
218
142
155
2
76
176
4
194
232
173

>  <PUBCHEM_MMFF94_PARTIAL_CHARGES>  (1) 
31
1 -0.43
11 0.35
12 0.66
13 -0.14
14 -0.14
15 -0.15
16 -0.15
17 -0.15
18 -0.15
19 -0.15
2 -0.57
20 -0.15
21 -0.15
22 -0.15
23 -0.15
24 -0.15
3 -0.81
4 0.28
40 0.15
41 0.15
42 0.15
43 0.15
44 0.15
45 0.15
46 0.15
47 0.15
48 0.15
49 0.15
6 0.27
8 0.27
9 0.27

>  <PUBCHEM_EFFECTIVE_ROTOR_COUNT>  (1) 
7.2

>  <PUBCHEM_PHARMACOPHORE_FEATURES>  (1) 
5
1 2 acceptor
1 3 cation
6 13 15 17 19 21 23 rings
6 14 16 18 20 22 24 rings
6 3 4 5 6 7 8 rings

>  <PUBCHEM_HEAVY_ATOM_COUNT>  (1) 
24

>  <PUBCHEM_ATOM_DEF_STEREO_COUNT>  (1) 
0

>  <PUBCHEM_ATOM_UDEF_STEREO_COUNT>  (1) 
1

>  <PUBCHEM_BOND_DEF_STEREO_COUNT>  (1) 
0

>  <PUBCHEM_BOND_UDEF_STEREO_COUNT>  (1) 
0

>  <PUBCHEM_ISOTOPIC_ATOM_COUNT>  (1) 
0

>  <PUBCHEM_COMPONENT_COUNT>  (1) 
1

>  <PUBCHEM_CACTVS_TAUTO_COUNT>  (1) 
1

>  <PUBCHEM_CONFORMER_ID>  (1) 
000012E700000001

>  <PUBCHEM_MMFF94_ENERGY>  (1) 
57.4455

>  <PUBCHEM_FEATURE_SELFOVERLAP>  (1) 
25.373

>  <PUBCHEM_SHAPE_FINGERPRINT>  (1) 
10366900 7 18122630719575078840
10670039 82 18049177849841293412
1100329 8 17977663113165987202
11036077 51 18338797814988580291
11045515 52 17973720565659221229
11101153 10 17977394059694055036
11265709 11 18050296057181022451
11405975 8 18411418380766022008
11552529 35 18412546547988387304
12107183 9 18193556658507808642
12160290 23 18123783978476253257
12633257 1 18337110038991518036
12643181 29 18124599683404117894
12788726 201 18337943601738576643
12892183 10 18270394023013204996
13004483 165 18268708497093878183
13134695 92 17694500756164362119
13140716 1 18341612599310837800
13149001 5 17411095792538236423
13533116 47 18337387266108637250
13583140 156 17604436171834618761
13631057 29 18195249043041994436
14251740 79 18336815430004952855
14866123 147 18336542703407457083
14955137 171 17329726323082785635
15042514 8 18336552707108638123
15250474 111 18334289873508365978
15420108 30 17905038154327708577
15842332 3 17969524742998158676
16728300 4 17172640255972664001
17492 89 18337107973149587618
19141452 34 18263643970637406828
20286276 3 18409454704543527204
20600515 1 17767710590827320463
21033648 144 18339348704843412900
21033648 29 18121202204773720256
21065198 48 18411701015373346276
21478907 32 18337109089740539507
21703447 108 18196359532595571616
23402539 116 18268991054634300375
23558518 356 18261402177691469402
23559900 14 18263914609052875150
23598288 3 18272085015471267374
23622692 118 18410849997425919414
255183 313 18270697385296081713
283562 15 18337950207319260251
312423 11 18335427910749602980
38695281 34 17977100159223287473
5104073 3 18341323445254102648
532947 4 17762619486491223119
53777708 50 18335708281941272084
5486654 36 18259990357859883858
56633871 153 17975685100891532210
5924683 9 18411696608204079314
59755656 520 18338793391267542501
7097593 13 18333734594128794512
7164475 11 18336827610157540916
79837 15 18269561533296139537
81228 2 18267607839009988295
9709674 26 18411985767099212038
9981440 41 17131266827356810263

>  <PUBCHEM_SHAPE_MULTIPOLES>  (1) 
477.19
10.85
4.73
1.15
18.16
1.07
-0.1
2.05
-1.44
-6.53
-0.49
-0.76
-0.22
-1.47

>  <PUBCHEM_SHAPE_SELFOVERLAP>  (1) 
1012.331

>  <PUBCHEM_SHAPE_VOLUME>  (1) 
264.8

>  <PUBCHEM_COORDINATE_TYPE>  (1) 
2
5
10

$$$$
