48409
     RDKit          3D

 19 20  0  0  1  0  0  0  0  0999 V2000
    0.5511   -0.1740   -2.2138 O   0  0  0  0  0  0  0  0  0  0  0  0
   -0.2847   -1.0581    2.2547 O   0  0  0  0  0  0  0  0  0  0  0  0
    3.3903    1.4145    1.1030 O   0  0  0  0  0  0  0  0  0  0  0  0
    1.9176    0.8056   -0.6037 N   0  0  0  0  0  0  0  0  0  0  0  0
    1.5120    0.2362    1.6549 N   0  0  0  0  0  0  0  0  0  0  0  0
   -0.2957   -0.0657    0.0442 C   0  0  0  0  0  0  0  0  0  0  0  0
   -1.0892    1.2286    0.1754 C   0  0  0  0  0  0  0  0  0  0  0  0
   -1.2483   -1.1977   -0.3712 C   0  0  0  0  0  0  0  0  0  0  0  0
   -1.8525    1.5863   -1.1089 C   0  0  0  0  0  0  0  0  0  0  0  0
   -0.5404   -2.5466   -0.5410 C   0  0  0  0  0  0  0  0  0  0  0  0
    0.7546    0.1528   -1.0432 C   0  0  0  0  0  0  0  0  0  0  0  0
   -2.1940    1.1018    1.1788 C   0  0  0  0  0  0  0  0  0  0  0  0
    0.2949   -0.3776    1.4093 C   0  0  0  0  0  0  0  0  0  0  0  0
   -3.2989    1.1407   -0.8871 C   0  0  0  0  0  0  0  0  0  0  0  0
   -3.3968    1.0570    0.5982 C   0  0  0  0  0  0  0  0  0  0  0  0
    0.5832   -2.4950   -1.5771 C   0  0  0  0  0  0  0  0  0  0  0  0
    0.0216   -2.9973    0.8095 C   0  0  0  0  0  0  0  0  0  0  0  0
    2.3414    0.8773    0.7374 C   0  0  0  0  0  0  0  0  0  0  0  0
    2.8337    1.3112   -1.6193 C   0  0  0  0  0  0  0  0  0  0  0  0
  1 11  2  0
  2 13  2  0
  3 18  2  0
  4 11  1  0
  4 18  1  0
  4 19  1  0
  5 13  1  0
  5 18  1  0
  6  7  1  0
  6  8  1  0
  6 11  1  0
  6 13  1  0
  7  9  1  0
  7 12  1  0
  8 10  1  0
  9 14  1  0
 10 16  1  0
 10 17  1  0
 12 15  2  0
 14 15  1  0
M  END
>  <PUBCHEM_COMPOUND_CID>  (1) 
48409

>  <PUBCHEM_CONFORMER_RMSD>  (1) 
0.6

>  <PUBCHEM_CONFORMER_DIVERSEORDER>  (1) 
1
6
2
3
4
5

>  <PUBCHEM_MMFF94_PARTIAL_CHARGES>  (1) 
17
1 -0.57
11 0.57
12 -0.29
13 0.57
14 0.14
15 -0.29
18 0.69
19 0.3
2 -0.57
26 0.15
29 0.15
3 -0.57
30 0.37
4 -0.42
5 -0.49
6 0.12
7 0.14

>  <PUBCHEM_EFFECTIVE_ROTOR_COUNT>  (1) 
4.2

>  <PUBCHEM_PHARMACOPHORE_FEATURES>  (1) 
7
1 1 acceptor
1 2 acceptor
1 3 acceptor
1 5 donor
3 10 16 17 hydrophobe
5 7 9 12 14 15 rings
6 4 5 6 11 13 18 rings

>  <PUBCHEM_HEAVY_ATOM_COUNT>  (1) 
19

>  <PUBCHEM_ATOM_DEF_STEREO_COUNT>  (1) 
0

>  <PUBCHEM_ATOM_UDEF_STEREO_COUNT>  (1) 
2

>  <PUBCHEM_BOND_DEF_STEREO_COUNT>  (1) 
0

>  <PUBCHEM_BOND_UDEF_STEREO_COUNT>  (1) 
0

>  <PUBCHEM_ISOTOPIC_ATOM_COUNT>  (1) 
0

>  <PUBCHEM_COMPONENT_COUNT>  (1) 
1

>  <PUBCHEM_CACTVS_TAUTO_COUNT>  (1) 
3

>  <PUBCHEM_CONFORMER_ID>  (1) 
0000BD1900000001

>  <PUBCHEM_MMFF94_ENERGY>  (1) 
84.906

>  <PUBCHEM_FEATURE_SELFOVERLAP>  (1) 
35.522

>  <PUBCHEM_SHAPE_FINGERPRINT>  (1) 
10863032 1 18272363178901630854
10948715 1 18342728620186075864
12138202 97 18058721541353494508
12326174 3 17899974937340526843
12423570 1 11613540810555623390
13132413 78 17123393078587714032
13681431 1 17619071629251111935
141345 1 10010443674575964579
14181834 199 17981026540720402255
14617773 55 17607794308094650884
14817 1 10046913809581116027
15775835 57 18262223482702202153
15852999 172 17847063306970768892
15881359 60 17907613498201404155
15906896 17 17896609572660851091
16945 1 18118398690181175519
19765921 60 17275109392462693569
20361792 2 8358252653179742665
21524375 3 18259984876927699889
23419403 2 17256029528394424042
23557571 272 17912364539653735600
25 1 17346052085862904128
2748010 2 18267327415857543519
430814 3 18190155971521068562
4340502 62 18201164265623643001
5845 1 16909203184016691322
7364860 26 17983010051254350157
81228 2 18051972824807756723

>  <PUBCHEM_SHAPE_MULTIPOLES>  (1) 
363.44
4.06
2.64
1.95
1.14
2.5
0.08
-3.5
-0.09
-0.58
-0.3
-0.65
0.12
0.21

>  <PUBCHEM_SHAPE_SELFOVERLAP>  (1) 
776.47

>  <PUBCHEM_SHAPE_VOLUME>  (1) 
200.1

>  <PUBCHEM_COORDINATE_TYPE>  (1) 
2
5
10

$$$$
