48402
     RDKit          3D

 20 21  0  0  1  0  0  0  0  0999 V2000
   -0.1457   -0.3490    1.9509 O   0  0  0  0  0  0  0  0  0  0  0  0
   -3.4531   -1.1691   -1.1854 O   0  0  0  0  0  0  0  0  0  0  0  0
   -2.0743    3.1320   -0.4469 O   0  0  0  0  0  0  0  0  0  0  0  0
   -0.9343    1.4243    0.6650 N   0  0  0  0  0  0  0  0  0  0  0  0
   -2.6958    0.9695   -0.8452 N   0  0  0  0  0  0  0  0  0  0  0  0
   -1.3074   -0.8912   -0.0945 C   0  0  0  0  0  0  0  0  0  0  0  0
   -0.2530   -1.0065   -1.2103 C   0  0  0  0  0  0  0  0  0  0  0  0
    2.1983   -0.8944   -0.7386 C   0  0  0  0  0  0  0  0  0  0  0  0
    3.4773   -1.4674   -0.1861 C   0  0  0  0  0  0  0  0  0  0  0  0
    2.3243    0.4765   -1.3500 C   0  0  0  0  0  0  0  0  0  0  0  0
   -1.5341   -2.2787    0.5262 C   0  0  0  0  0  0  0  0  0  0  0  0
    4.1354   -0.4870    0.7859 C   0  0  0  0  0  0  0  0  0  0  0  0
    2.9877    1.4471   -0.3720 C   0  0  0  0  0  0  0  0  0  0  0  0
    4.3116    0.8991    0.1635 C   0  0  0  0  0  0  0  0  0  0  0  0
    1.0295   -1.5479   -0.6723 C   0  0  0  0  0  0  0  0  0  0  0  0
   -0.7514    0.0636    0.9602 C   0  0  0  0  0  0  0  0  0  0  0  0
   -2.5976   -0.4078   -0.7360 C   0  0  0  0  0  0  0  0  0  0  0  0
   -2.6365   -2.2371    1.5616 C   0  0  0  0  0  0  0  0  0  0  0  0
   -1.8938    1.9302   -0.2330 C   0  0  0  0  0  0  0  0  0  0  0  0
   -0.1871    2.3940    1.4572 C   0  0  0  0  0  0  0  0  0  0  0  0
  1 16  2  0
  2 17  2  0
  3 19  2  0
  4 16  1  0
  4 19  1  0
  4 20  1  0
  5 17  1  0
  5 19  1  0
  6  7  1  0
  6 11  1  0
  6 16  1  0
  6 17  1  0
  7 15  1  0
  8  9  1  0
  8 10  1  0
  8 15  2  3
  9 12  1  0
 10 13  1  0
 11 18  1  0
 12 14  1  0
 13 14  1  0
M  END
>  <PUBCHEM_COMPOUND_CID>  (1) 
48402

>  <PUBCHEM_CONFORMER_RMSD>  (1) 
0.6

>  <PUBCHEM_CONFORMER_DIVERSEORDER>  (1) 
9
53
17
45
8
62
61
42
27
63
26
57
37
21
29
30
64
59
50
24
34
40
18
51
28
48
35
11
47
52
39
2
55
56
14
25
58
38
31
33
15
20
44
49
60
46
22
36
1
41
43
6
32
5
54
4
12
13
3
10
23
7
19
16

>  <PUBCHEM_MMFF94_PARTIAL_CHARGES>  (1) 
17
1 -0.57
10 0.14
15 -0.29
16 0.57
17 0.57
19 0.69
2 -0.57
20 0.3
3 -0.57
35 0.15
39 0.37
4 -0.42
5 -0.49
6 0.12
7 0.14
8 -0.28
9 0.14

>  <PUBCHEM_EFFECTIVE_ROTOR_COUNT>  (1) 
4.6

>  <PUBCHEM_PHARMACOPHORE_FEATURES>  (1) 
7
1 1 acceptor
1 18 hydrophobe
1 2 acceptor
1 3 acceptor
1 5 donor
6 4 5 6 16 17 19 rings
6 8 9 10 12 13 14 rings

>  <PUBCHEM_HEAVY_ATOM_COUNT>  (1) 
20

>  <PUBCHEM_ATOM_DEF_STEREO_COUNT>  (1) 
0

>  <PUBCHEM_ATOM_UDEF_STEREO_COUNT>  (1) 
1

>  <PUBCHEM_BOND_DEF_STEREO_COUNT>  (1) 
0

>  <PUBCHEM_BOND_UDEF_STEREO_COUNT>  (1) 
0

>  <PUBCHEM_ISOTOPIC_ATOM_COUNT>  (1) 
0

>  <PUBCHEM_COMPONENT_COUNT>  (1) 
1

>  <PUBCHEM_CACTVS_TAUTO_COUNT>  (1) 
3

>  <PUBCHEM_CONFORMER_ID>  (1) 
0000BD1200000009

>  <PUBCHEM_MMFF94_ENERGY>  (1) 
40.5096

>  <PUBCHEM_FEATURE_SELFOVERLAP>  (1) 
35.522

>  <PUBCHEM_SHAPE_FINGERPRINT>  (1) 
11370993 70 18266447711981581332
12035758 1 18338242695098332211
12077114 3 18411697660892936516
12403814 3 18343303695190921759
13224815 77 17632865230624008966
14142880 1 17631748096281252937
14223421 5 18410582816147706182
14790565 3 18056763118430930641
15420108 30 15751476212591030200
16945 1 18261403255659643631
17492 89 18340763732931549542
18981168 100 17701286670962895038
192875 21 18333723633166507812
19765921 60 18049999992084486241
20510252 161 18335710480558456258
20525323 117 18202012009687859642
20715895 44 18192982738971218701
21524375 3 17762068635629369205
23352939 185 17846491582662821403
23402539 116 18335972121650195591
23419403 2 17610618992432583719
23557571 272 17775003470817500630
23559900 14 17843391887712542726
2748010 2 18058184859662675022
394222 165 17473262077146794073
4340502 62 17824557266614030561
6049 1 18057068864029934590
6287921 2 11527362958114700866
74978 22 18188782656218938750
81228 2 18196959732489023419
9709674 26 18411983538042716998
9981440 41 18270386201456065106

>  <PUBCHEM_SHAPE_MULTIPOLES>  (1) 
384.02
6.36
2.77
1.46
5.5
1.31
0.35
-0.63
-0.33
-1.75
0.44
-0.46
-0.14
0.51

>  <PUBCHEM_SHAPE_SELFOVERLAP>  (1) 
797.574

>  <PUBCHEM_SHAPE_VOLUME>  (1) 
216.2

>  <PUBCHEM_COORDINATE_TYPE>  (1) 
2
5
10

$$$$
