48404
     RDKit          3D

 23 25  0  0  0  0  0  0  0  0999 V2000
   -0.4697   -0.3159    2.3501 O   0  0  0  0  0  0  0  0  0  0  0  0
   -0.8173   -0.4992   -2.4274 O   0  0  0  0  0  0  0  0  0  0  0  0
   -1.7742   -4.1378    0.1869 O   0  0  0  0  0  0  0  0  0  0  0  0
   -1.1534   -2.1970    1.2426 N   0  0  0  0  0  0  0  0  0  0  0  0
   -1.3261   -2.2859   -1.0925 N   0  0  0  0  0  0  0  0  0  0  0  0
   -0.8252   -0.1051   -0.0371 C   0  0  0  0  0  0  0  0  0  0  0  0
    2.9174    0.1262   -0.4513 C   0  0  0  0  0  0  0  0  0  0  0  0
    4.0646   -0.8425   -0.5742 C   0  0  0  0  0  0  0  0  0  0  0  0
    3.3022    1.5818   -0.5020 C   0  0  0  0  0  0  0  0  0  0  0  0
    5.1559   -0.5231    0.4486 C   0  0  0  0  0  0  0  0  0  0  0  0
    4.3969    1.8889    0.5209 C   0  0  0  0  0  0  0  0  0  0  0  0
    5.5898    0.9420    0.3790 C   0  0  0  0  0  0  0  0  0  0  0  0
    0.4853    0.6562   -0.1621 C   0  0  0  0  0  0  0  0  0  0  0  0
    1.6494   -0.2774   -0.2877 C   0  0  0  0  0  0  0  0  0  0  0  0
   -1.9562    0.8836    0.0078 C   0  0  0  0  0  0  0  0  0  0  0  0
   -0.7830   -0.8651    1.2918 C   0  0  0  0  0  0  0  0  0  0  0  0
   -0.9721   -0.9642   -1.2961 C   0  0  0  0  0  0  0  0  0  0  0  0
   -3.2561    0.4310    0.1953 C   0  0  0  0  0  0  0  0  0  0  0  0
   -1.6889    2.2389   -0.1391 C   0  0  0  0  0  0  0  0  0  0  0  0
   -1.4474   -2.9516    0.1175 C   0  0  0  0  0  0  0  0  0  0  0  0
   -4.3060    1.3486    0.2367 C   0  0  0  0  0  0  0  0  0  0  0  0
   -2.7387    3.1565   -0.0977 C   0  0  0  0  0  0  0  0  0  0  0  0
   -4.0472    2.7113    0.0902 C   0  0  0  0  0  0  0  0  0  0  0  0
  1 16  2  0
  2 17  2  0
  3 20  2  0
  4 16  1  0
  4 20  1  0
  5 17  1  0
  5 20  1  0
  6 13  1  0
  6 15  1  0
  6 16  1  0
  6 17  1  0
  7  8  1  0
  7  9  1  0
  7 14  2  3
  8 10  1  0
  9 11  1  0
 10 12  1  0
 11 12  1  0
 13 14  1  0
 15 18  2  0
 15 19  1  0
 18 21  1  0
 19 22  2  0
 21 23  2  0
 22 23  1  0
M  END
>  <PUBCHEM_COMPOUND_CID>  (1) 
48404

>  <PUBCHEM_CONFORMER_RMSD>  (1) 
0.8

>  <PUBCHEM_CONFORMER_DIVERSEORDER>  (1) 
1
11
6
3
9
8
4
5
7
2
10

>  <PUBCHEM_MMFF94_PARTIAL_CHARGES>  (1) 
28
1 -0.57
13 0.14
14 -0.29
15 -0.14
16 0.57
17 0.57
18 -0.15
19 -0.15
2 -0.57
20 0.69
21 -0.15
22 -0.15
23 -0.15
3 -0.57
36 0.15
37 0.37
38 0.37
39 0.15
4 -0.49
40 0.15
41 0.15
42 0.15
43 0.15
5 -0.49
6 0.27
7 -0.28
8 0.14
9 0.14

>  <PUBCHEM_EFFECTIVE_ROTOR_COUNT>  (1) 
4.6

>  <PUBCHEM_PHARMACOPHORE_FEATURES>  (1) 
8
1 1 acceptor
1 2 acceptor
1 3 acceptor
1 4 donor
1 5 donor
6 15 18 19 21 22 23 rings
6 4 5 6 16 17 20 rings
6 7 8 9 10 11 12 rings

>  <PUBCHEM_HEAVY_ATOM_COUNT>  (1) 
23

>  <PUBCHEM_ATOM_DEF_STEREO_COUNT>  (1) 
0

>  <PUBCHEM_ATOM_UDEF_STEREO_COUNT>  (1) 
0

>  <PUBCHEM_BOND_DEF_STEREO_COUNT>  (1) 
0

>  <PUBCHEM_BOND_UDEF_STEREO_COUNT>  (1) 
0

>  <PUBCHEM_ISOTOPIC_ATOM_COUNT>  (1) 
0

>  <PUBCHEM_COMPONENT_COUNT>  (1) 
1

>  <PUBCHEM_CACTVS_TAUTO_COUNT>  (1) 
5

>  <PUBCHEM_CONFORMER_ID>  (1) 
0000BD1400000001

>  <PUBCHEM_MMFF94_ENERGY>  (1) 
61.5715

>  <PUBCHEM_FEATURE_SELFOVERLAP>  (1) 
40.639

>  <PUBCHEM_SHAPE_FINGERPRINT>  (1) 
10411042 1 17834114530103120811
10922049 32 18338242540025633309
10948715 1 18339081471692522239
11315181 36 17970055842249533168
11405975 8 18408317805383760320
12173636 292 18409728469384197758
12592029 89 18196659484178873363
12633257 1 17749657572388845688
12788726 201 18266726047421886827
12969540 114 18262219041996175357
13004483 165 18051410970034598803
13149001 5 15409739589016219373
13583140 156 17988080110298157216
14178342 30 18334852874921916070
14251751 93 18342170012813947069
14955137 171 10375289198405449093
15042514 8 18263933288113864299
15131766 46 15649049493466905276
15534591 1 18409724037046461253
17349148 13 15338839716830645268
17980427 23 17313968354503905821
19930381 70 17688311192357472562
200 152 9151163251768770140
20197701 30 18335417903270308597
20645477 56 18412547600297728652
21033648 29 18339629045679887728
21065198 57 18410012156997059344
212916 134 18268695139702954848
21521721 280 18272656736328448377
21524375 3 18115876208696530337
22224240 67 18343029861609962169
23227448 37 18412545439807723180
23402539 116 18411975849861366133
23419403 2 16772661303595407851
23558518 356 18044096976169047968
23559900 14 18272652316954318994
23728640 28 18408606971866377658
298252 57 17916860214775852949
394222 165 17769657490933541091
5309563 4 17329433255709060074
532947 4 17980486654931641374
59755656 520 18334289834220202958
6138700 20 17690569585209675694
633830 44 18056759823784241717
69090 78 18410856538244295244
7364860 26 17688314482649664973
7399639 24 17480567683236374872
77188 2 17617379919401707415
9709674 26 18342744022519113262

>  <PUBCHEM_SHAPE_MULTIPOLES>  (1) 
445.76
9.15
3.54
1.3
11.78
2.11
0.02
-6.19
-0.94
-3.75
-0.16
-0.26
0.53
0.21

>  <PUBCHEM_SHAPE_SELFOVERLAP>  (1) 
959.969

>  <PUBCHEM_SHAPE_VOLUME>  (1) 
242.6

>  <PUBCHEM_COORDINATE_TYPE>  (1) 
2
5
10

$$$$
