48417
     RDKit          3D

 16 17  0  0  0  0  0  0  0  0999 V2000
    0.5052   -1.3343   -2.1102 O   0  0  0  0  0  0  0  0  0  0  0  0
    0.4764   -0.3147    2.4734 O   0  0  0  0  0  0  0  0  0  0  0  0
    3.3627    1.8159   -0.3876 O   0  0  0  0  0  0  0  0  0  0  0  0
    1.8628    0.3097   -1.2636 N   0  0  0  0  0  0  0  0  0  0  0  0
    1.8488    0.8186    1.0262 N   0  0  0  0  0  0  0  0  0  0  0  0
   -1.1038    0.5356   -0.1308 C   0  0  0  0  0  0  0  0  0  0  0  0
   -0.0098   -0.4913    0.1043 C   0  0  0  0  0  0  0  0  0  0  0  0
   -2.0278    0.6681    1.0727 C   0  0  0  0  0  0  0  0  0  0  0  0
   -2.0572    0.1095   -1.2418 C   0  0  0  0  0  0  0  0  0  0  0  0
   -3.2675    1.3362    0.4950 C   0  0  0  0  0  0  0  0  0  0  0  0
   -3.3545    0.8630   -0.9561 C   0  0  0  0  0  0  0  0  0  0  0  0
   -0.6495   -1.8548    0.4036 C   0  0  0  0  0  0  0  0  0  0  0  0
    0.8028   -0.5810   -1.1834 C   0  0  0  0  0  0  0  0  0  0  0  0
    0.7872   -0.0247    1.3185 C   0  0  0  0  0  0  0  0  0  0  0  0
    0.4110   -2.9043    0.6027 C   0  0  0  0  0  0  0  0  0  0  0  0
    2.4131    1.0483   -0.2229 C   0  0  0  0  0  0  0  0  0  0  0  0
  1 13  2  0
  2 14  2  0
  3 16  2  0
  4 13  1  0
  4 16  1  0
  5 14  1  0
  5 16  1  0
  6  7  1  0
  6  8  1  0
  6  9  1  0
  7 12  1  0
  7 13  1  0
  7 14  1  0
  8 10  1  0
  9 11  1  0
 10 11  1  0
 12 15  1  0
M  END
>  <PUBCHEM_COMPOUND_CID>  (1) 
48417

>  <PUBCHEM_CONFORMER_RMSD>  (1) 
0.6

>  <PUBCHEM_CONFORMER_DIVERSEORDER>  (1) 
1
5
2
4
3
6

>  <PUBCHEM_MMFF94_PARTIAL_CHARGES>  (1) 
11
1 -0.57
13 0.57
14 0.57
16 0.69
2 -0.57
3 -0.57
31 0.37
32 0.37
4 -0.49
5 -0.49
7 0.12

>  <PUBCHEM_EFFECTIVE_ROTOR_COUNT>  (1) 
3.6

>  <PUBCHEM_PHARMACOPHORE_FEATURES>  (1) 
8
1 1 acceptor
1 15 hydrophobe
1 2 acceptor
1 3 acceptor
1 4 donor
1 5 donor
5 6 8 9 10 11 rings
6 4 5 7 13 14 16 rings

>  <PUBCHEM_HEAVY_ATOM_COUNT>  (1) 
16

>  <PUBCHEM_ATOM_DEF_STEREO_COUNT>  (1) 
0

>  <PUBCHEM_ATOM_UDEF_STEREO_COUNT>  (1) 
0

>  <PUBCHEM_BOND_DEF_STEREO_COUNT>  (1) 
0

>  <PUBCHEM_BOND_UDEF_STEREO_COUNT>  (1) 
0

>  <PUBCHEM_ISOTOPIC_ATOM_COUNT>  (1) 
0

>  <PUBCHEM_COMPONENT_COUNT>  (1) 
1

>  <PUBCHEM_CACTVS_TAUTO_COUNT>  (1) 
5

>  <PUBCHEM_CONFORMER_ID>  (1) 
0000BD2100000001

>  <PUBCHEM_MMFF94_ENERGY>  (1) 
49.4143

>  <PUBCHEM_FEATURE_SELFOVERLAP>  (1) 
40.636

>  <PUBCHEM_SHAPE_FINGERPRINT>  (1) 
12138202 97 18340773765937307134
12251169 10 14201400503541258669
12326174 3 18126849296081683103
12423570 1 10084586110116394462
12491281 212 18114748251700657088
12725867 57 17616234902141463887
13024252 1 16372965788562087938
13132413 78 17619345403467355818
13299463 15 16128374921331737149
13380537 58 18189628309182585326
14617773 55 17317582611989817042
14817 1 9582147555833776314
15775835 57 17894625989265225085
15852999 172 18272381892422156382
16945 1 18190739730728364170
18534176 82 18127419066601250436
19765921 60 18130515153821770513
19837323 101 18266179615680115954
20473742 2 18042394738785108410
20820808 20 18200604604855631929
21524375 3 18343295981113257580
21947302 44 18271258148351539116
23419403 2 17552410653062679207
25 1 17988380190361368760
305870 269 18335138639858753532
430814 3 18261666047454809000
5084963 1 18127385935012461071
528886 8 16630524012082967637
549884 4 15554159311864385449
5845 1 10045420788717504343
7364860 26 18045216046824545819
81228 2 17757003559000904931

>  <PUBCHEM_SHAPE_MULTIPOLES>  (1) 
301.7
4.18
2.02
1.76
1.93
1.45
0.08
-3.28
-0.33
-1.01
0.09
-0.2
0.25
-0.1

>  <PUBCHEM_SHAPE_SELFOVERLAP>  (1) 
639.141

>  <PUBCHEM_SHAPE_VOLUME>  (1) 
167

>  <PUBCHEM_COORDINATE_TYPE>  (1) 
2
5
10

$$$$
