48413
     RDKit          3D

 18 19  0  0  1  0  0  0  0  0999 V2000
    0.1971    0.4707    2.0849 O   0  0  0  0  0  0  0  0  0  0  0  0
   -0.1815   -1.9521   -2.0106 O   0  0  0  0  0  0  0  0  0  0  0  0
   -3.5299    0.8431   -0.6788 O   0  0  0  0  0  0  0  0  0  0  0  0
   -1.6691    0.6950    0.7230 N   0  0  0  0  0  0  0  0  0  0  0  0
   -1.8196   -0.5284   -1.2921 N   0  0  0  0  0  0  0  0  0  0  0  0
    1.4293    0.1675   -0.6246 C   0  0  0  0  0  0  0  0  0  0  0  0
    0.2799   -0.6403   -0.0401 C   0  0  0  0  0  0  0  0  0  0  0  0
    0.9464    1.4469   -1.3238 C   0  0  0  0  0  0  0  0  0  0  0  0
    2.0075    2.5097   -1.0371 C   0  0  0  0  0  0  0  0  0  0  0  0
    2.3613    0.7057    0.4169 C   0  0  0  0  0  0  0  0  0  0  0  0
   -0.3897    0.2079    1.0299 C   0  0  0  0  0  0  0  0  0  0  0  0
    0.7772   -1.8765    0.6551 C   0  0  0  0  0  0  0  0  0  0  0  0
   -0.5758   -1.1193   -1.1923 C   0  0  0  0  0  0  0  0  0  0  0  0
    2.6783    1.9834    0.1865 C   0  0  0  0  0  0  0  0  0  0  0  0
    2.0798   -2.4337    0.1624 C   0  0  0  0  0  0  0  0  0  0  0  0
   -2.4143    0.3800   -0.4252 C   0  0  0  0  0  0  0  0  0  0  0  0
    0.0956   -2.4483    1.6588 C   0  0  0  0  0  0  0  0  0  0  0  0
   -2.2724    1.5888    1.7071 C   0  0  0  0  0  0  0  0  0  0  0  0
  1 11  2  0
  2 13  2  0
  3 16  2  0
  4 11  1  0
  4 16  1  0
  4 18  1  0
  5 13  1  0
  5 16  1  0
  6  7  1  0
  6  8  1  0
  6 10  1  0
  7 11  1  0
  7 12  1  0
  7 13  1  0
  8  9  1  0
  9 14  1  0
 10 14  2  0
 12 15  1  0
 12 17  2  0
M  END
>  <PUBCHEM_COMPOUND_CID>  (1) 
48413

>  <PUBCHEM_CONFORMER_RMSD>  (1) 
0.6

>  <PUBCHEM_CONFORMER_DIVERSEORDER>  (1) 
1
10
3
5
8
7
4
6
9
11
2

>  <PUBCHEM_MMFF94_PARTIAL_CHARGES>  (1) 
22
1 -0.57
10 -0.29
11 0.57
12 -0.28
13 0.57
14 -0.29
15 0.14
16 0.69
17 -0.3
18 0.3
2 -0.57
24 0.15
25 0.15
26 0.37
3 -0.57
30 0.15
31 0.15
4 -0.42
5 -0.49
6 0.14
7 0.26
9 0.14

>  <PUBCHEM_EFFECTIVE_ROTOR_COUNT>  (1) 
3.2

>  <PUBCHEM_PHARMACOPHORE_FEATURES>  (1) 
6
1 1 acceptor
1 2 acceptor
1 3 acceptor
1 5 donor
5 6 8 9 10 14 rings
6 4 5 7 11 13 16 rings

>  <PUBCHEM_HEAVY_ATOM_COUNT>  (1) 
18

>  <PUBCHEM_ATOM_DEF_STEREO_COUNT>  (1) 
0

>  <PUBCHEM_ATOM_UDEF_STEREO_COUNT>  (1) 
2

>  <PUBCHEM_BOND_DEF_STEREO_COUNT>  (1) 
0

>  <PUBCHEM_BOND_UDEF_STEREO_COUNT>  (1) 
0

>  <PUBCHEM_ISOTOPIC_ATOM_COUNT>  (1) 
0

>  <PUBCHEM_COMPONENT_COUNT>  (1) 
1

>  <PUBCHEM_CACTVS_TAUTO_COUNT>  (1) 
3

>  <PUBCHEM_CONFORMER_ID>  (1) 
0000BD1D00000001

>  <PUBCHEM_MMFF94_ENERGY>  (1) 
51.7675

>  <PUBCHEM_FEATURE_SELFOVERLAP>  (1) 
30.446

>  <PUBCHEM_SHAPE_FINGERPRINT>  (1) 
10863032 1 18262793089770100815
10948715 1 18189328129470384645
12326174 3 18049465663349935759
12423570 1 14095917395241375682
12491281 212 18201165463260414596
13024252 1 12687581993934273790
13132413 78 17613739019526432896
13134695 92 18045504101522518052
13299463 15 15122968273295077084
13898156 1 17988629770905482603
141345 1 10960135946782777974
14142880 1 16595624683957288324
14181834 199 18199188373643902436
14817 1 10508766181320755709
15490181 8 18116989086499836894
15775835 57 18340203093564538093
15848702 105 18197486544756343597
16945 1 18338803295097824658
19010151 120 17976252439726243786
19765921 60 18266726060248363601
19837323 101 17903072579455206766
20510252 161 17544201935757305952
21524375 3 18341628047691139924
23419403 2 14068352948366458788
305870 269 18261666047544544708
353137 74 18060138790477897545
430814 3 18339069488528103311
4340502 62 18260832639922867563
568465 68 17097794369113515874
5845 1 16189494788466006868
81228 2 17325798244418772738
9981440 41 17553183807933125864

>  <PUBCHEM_SHAPE_MULTIPOLES>  (1) 
342.86
3.57
2.79
1.79
1.11
1.06
0.1
-2.49
-0.14
-1.48
0.21
0.67
0.2
-0.56

>  <PUBCHEM_SHAPE_SELFOVERLAP>  (1) 
737.483

>  <PUBCHEM_SHAPE_VOLUME>  (1) 
189.4

>  <PUBCHEM_COORDINATE_TYPE>  (1) 
2
5
10

$$$$
