48422
     RDKit          3D

 23 23  0  0  0  0  0  0  0  0999 V2000
   -0.4786    1.1183    1.2252 O   0  0  0  0  0  0  0  0  0  0  0  0
   -3.3848   -1.9740   -0.6284 O   0  0  0  0  0  0  0  0  0  0  0  0
    0.7379   -1.3531   -2.5158 O   0  0  0  0  0  0  0  0  0  0  0  0
    1.9435   -1.2984    0.6659 O   0  0  0  0  0  0  0  0  0  0  0  0
    0.1328    0.0519   -0.7519 N   0  0  0  0  0  0  0  0  0  0  0  0
   -1.3401   -1.5937   -1.5964 N   0  0  0  0  0  0  0  0  0  0  0  0
    3.6905    0.1870    0.3154 N   0  0  0  0  0  0  0  0  0  0  0  0
   -2.2354    0.0841   -0.0678 C   0  0  0  0  0  0  0  0  0  0  0  0
   -2.8003    1.1524   -1.0214 C   0  0  0  0  0  0  0  0  0  0  0  0
   -3.0527    0.0913    1.2338 C   0  0  0  0  0  0  0  0  0  0  0  0
   -0.7849    0.4604    0.2292 C   0  0  0  0  0  0  0  0  0  0  0  0
   -2.3880   -1.2640   -0.7528 C   0  0  0  0  0  0  0  0  0  0  0  0
    1.4762    0.6164   -0.6983 C   0  0  0  0  0  0  0  0  0  0  0  0
   -0.0968   -0.9722   -1.6909 C   0  0  0  0  0  0  0  0  0  0  0  0
   -2.6216    2.5213   -0.4521 C   0  0  0  0  0  0  0  0  0  0  0  0
   -2.5323   -0.9287    2.1909 C   0  0  0  0  0  0  0  0  0  0  0  0
    2.3746   -0.2611    0.1555 C   0  0  0  0  0  0  0  0  0  0  0  0
    4.6751   -0.5443    1.1089 C   0  0  0  0  0  0  0  0  0  0  0  0
    4.1764    1.4168   -0.2982 C   0  0  0  0  0  0  0  0  0  0  0  0
   -3.6334    3.3609   -0.2054 C   0  0  0  0  0  0  0  0  0  0  0  0
   -3.2688   -1.9345    2.6760 C   0  0  0  0  0  0  0  0  0  0  0  0
    5.4349   -1.5462    0.2643 C   0  0  0  0  0  0  0  0  0  0  0  0
    3.9756    2.6091    0.6143 C   0  0  0  0  0  0  0  0  0  0  0  0
  1 11  2  0
  2 12  2  0
  3 14  2  0
  4 17  2  0
  5 11  1  0
  5 13  1  0
  5 14  1  0
  6 12  1  0
  6 14  1  0
  7 17  1  0
  7 18  1  0
  7 19  1  0
  8  9  1  0
  8 10  1  0
  8 11  1  0
  8 12  1  0
  9 15  1  0
 10 16  1  0
 13 17  1  0
 15 20  2  0
 16 21  2  0
 18 22  1  0
 19 23  1  0
M  END
>  <PUBCHEM_COMPOUND_CID>  (1) 
48422

>  <PUBCHEM_CONFORMER_RMSD>  (1) 
1

>  <PUBCHEM_CONFORMER_DIVERSEORDER>  (1) 
1
32
37
10
55
34
25
5
48
36
19
49
14
52
8
11
45
53
27
33
21
56
41
12
28
13
24
54
16
46
57
26
39
17
50
47
30
38
22
43
23
29
42
9
35
20
51
7
15
2
18
40
6
44
3
31
4

>  <PUBCHEM_MMFF94_PARTIAL_CHARGES>  (1) 
28
1 -0.57
10 0.14
11 0.57
12 0.57
13 0.36
14 0.69
15 -0.29
16 -0.29
17 0.57
18 0.3
19 0.3
2 -0.57
20 -0.3
21 -0.3
3 -0.57
30 0.37
31 0.15
32 0.15
37 0.15
38 0.15
39 0.15
4 -0.57
40 0.15
5 -0.42
6 -0.49
7 -0.66
8 0.12
9 0.14

>  <PUBCHEM_EFFECTIVE_ROTOR_COUNT>  (1) 
9.6

>  <PUBCHEM_PHARMACOPHORE_FEATURES>  (1) 
8
1 1 acceptor
1 2 acceptor
1 20 hydrophobe
1 21 hydrophobe
1 3 acceptor
1 4 acceptor
1 6 donor
6 5 6 8 11 12 14 rings

>  <PUBCHEM_HEAVY_ATOM_COUNT>  (1) 
23

>  <PUBCHEM_ATOM_DEF_STEREO_COUNT>  (1) 
0

>  <PUBCHEM_ATOM_UDEF_STEREO_COUNT>  (1) 
0

>  <PUBCHEM_BOND_DEF_STEREO_COUNT>  (1) 
0

>  <PUBCHEM_BOND_UDEF_STEREO_COUNT>  (1) 
0

>  <PUBCHEM_ISOTOPIC_ATOM_COUNT>  (1) 
0

>  <PUBCHEM_COMPONENT_COUNT>  (1) 
1

>  <PUBCHEM_CACTVS_TAUTO_COUNT>  (1) 
3

>  <PUBCHEM_CONFORMER_ID>  (1) 
0000BD2600000001

>  <PUBCHEM_MMFF94_ENERGY>  (1) 
52.6223

>  <PUBCHEM_FEATURE_SELFOVERLAP>  (1) 
40.597

>  <PUBCHEM_SHAPE_FINGERPRINT>  (1) 
11370993 144 18041558027721423458
11405975 8 18260263015221217544
11552529 35 17677054650009866106
12403814 3 18340772645314917569
12892183 10 18188213203595282348
13224815 77 18341048609837946928
13583140 156 18335704931655505464
14178342 30 17386014939875684467
14289901 80 18335976571225692968
18186145 218 17346049908883989692
21339142 149 18040431084132337537
22907989 373 17845638369913623869
2306618 200 17846773018805465307
23402539 116 18337658755708242093
23559900 14 17916299442850983182
27216 239 18411419501494315457
2748010 2 17913235090848297749
5104073 3 18186795873289079424
633830 44 18040431075821756864
90127 26 18410293614688366848
9981440 41 18057035814150680809

>  <PUBCHEM_SHAPE_MULTIPOLES>  (1) 
434.91
9.17
2.79
1.95
11.4
1.89
-0.05
0.5
3.08
-2.05
0.56
-1.4
-1.35
1.02

>  <PUBCHEM_SHAPE_SELFOVERLAP>  (1) 
883.075

>  <PUBCHEM_SHAPE_VOLUME>  (1) 
249.6

>  <PUBCHEM_COORDINATE_TYPE>  (1) 
2
5
10

$$$$
