48428
     RDKit          3D

 25 26  0  0  0  0  0  0  0  0999 V2000
    2.1015   -1.8615    0.1731 O   0  0  0  0  0  0  0  0  0  0  0  0
    5.3932    1.1443   -1.0820 O   0  0  0  0  0  0  0  0  0  0  0  0
    1.2159    2.6948   -0.0369 O   0  0  0  0  0  0  0  0  0  0  0  0
   -5.1328    1.6276   -0.0764 O   0  0  0  0  0  0  0  0  0  0  0  0
   -6.0695   -0.9558    0.3427 O   0  0  0  0  0  0  0  0  0  0  0  0
    1.6313    0.4168    0.2641 N   0  0  0  0  0  0  0  0  0  0  0  0
    3.3108    1.9014   -0.4882 N   0  0  0  0  0  0  0  0  0  0  0  0
    3.9764   -0.3413    0.2051 C   0  0  0  0  0  0  0  0  0  0  0  0
    4.7917   -1.5014   -0.3876 C   0  0  0  0  0  0  0  0  0  0  0  0
    4.3856   -0.1401    1.6757 C   0  0  0  0  0  0  0  0  0  0  0  0
    2.4898   -0.6921    0.1904 C   0  0  0  0  0  0  0  0  0  0  0  0
    4.3082    0.9416   -0.5392 C   0  0  0  0  0  0  0  0  0  0  0  0
    0.2238    0.1645    0.5493 C   0  0  0  0  0  0  0  0  0  0  0  0
    4.4983   -1.6742   -1.8617 C   0  0  0  0  0  0  0  0  0  0  0  0
    4.1189   -1.3879    2.4868 C   0  0  0  0  0  0  0  0  0  0  0  0
    1.9942    1.7376   -0.0631 C   0  0  0  0  0  0  0  0  0  0  0  0
   -0.5987   -0.0633   -0.7166 C   0  0  0  0  0  0  0  0  0  0  0  0
   -2.0622   -0.2983   -0.4333 C   0  0  0  0  0  0  0  0  0  0  0  0
   -2.9277    0.7833   -0.3852 C   0  0  0  0  0  0  0  0  0  0  0  0
   -2.5150   -1.5919   -0.2262 C   0  0  0  0  0  0  0  0  0  0  0  0
   -4.2805    0.5659   -0.1239 C   0  0  0  0  0  0  0  0  0  0  0  0
   -3.8678   -1.8092    0.0356 C   0  0  0  0  0  0  0  0  0  0  0  0
   -4.7506   -0.7305    0.0867 C   0  0  0  0  0  0  0  0  0  0  0  0
   -5.3171    2.2546    1.1912 C   0  0  0  0  0  0  0  0  0  0  0  0
   -6.9179   -1.1851   -0.7805 C   0  0  0  0  0  0  0  0  0  0  0  0
  1 11  2  0
  2 12  2  0
  3 16  2  0
  4 21  1  0
  4 24  1  0
  5 23  1  0
  5 25  1  0
  6 11  1  0
  6 13  1  0
  6 16  1  0
  7 12  1  0
  7 16  1  0
  8  9  1  0
  8 10  1  0
  8 11  1  0
  8 12  1  0
  9 14  1  0
 10 15  1  0
 13 17  1  0
 17 18  1  0
 18 19  2  0
 18 20  1  0
 19 21  1  0
 20 22  2  0
 21 23  2  0
 22 23  1  0
M  END
>  <PUBCHEM_COMPOUND_CID>  (1) 
48428

>  <PUBCHEM_CONFORMER_RMSD>  (1) 
0.8

>  <PUBCHEM_CONFORMER_DIVERSEORDER>  (1) 
1
37
85
69
65
57
119
110
101
90
45
93
99
46
20
15
35
55
27
59
39
107
11
18
117
25
76
63
111
122
113
38
80
97
60
112
104
56
108
34
120
81
102
94
21
29
75
79
92
91
114
84
71
22
61
47
77
121
13
96
10
115
103
87
54
98
62
17
8
50
58
83
72
44
73
32
41
43
28
68
74
82
7
124
118
40
95
100
67
5
30
2
33
64
24
66
125
48
53
89
12
49
105
16
9
106
3
52
23
109
123
6
26
51
14
4
86
42
19
88
78
70
31
116
36

>  <PUBCHEM_MMFF94_PARTIAL_CHARGES>  (1) 
25
1 -0.57
11 0.57
12 0.57
13 0.3
16 0.69
17 0.14
18 -0.14
19 -0.15
2 -0.57
20 -0.15
21 0.08
22 -0.15
23 0.08
24 0.28
25 0.28
3 -0.57
32 0.37
4 -0.36
41 0.15
42 0.15
43 0.15
5 -0.36
6 -0.42
7 -0.49
8 0.12

>  <PUBCHEM_EFFECTIVE_ROTOR_COUNT>  (1) 
7.6

>  <PUBCHEM_PHARMACOPHORE_FEATURES>  (1) 
10
1 1 acceptor
1 14 hydrophobe
1 15 hydrophobe
1 2 acceptor
1 3 acceptor
1 4 acceptor
1 5 acceptor
1 7 donor
6 18 19 20 21 22 23 rings
6 6 7 8 11 12 16 rings

>  <PUBCHEM_HEAVY_ATOM_COUNT>  (1) 
25

>  <PUBCHEM_ATOM_DEF_STEREO_COUNT>  (1) 
0

>  <PUBCHEM_ATOM_UDEF_STEREO_COUNT>  (1) 
0

>  <PUBCHEM_BOND_DEF_STEREO_COUNT>  (1) 
0

>  <PUBCHEM_BOND_UDEF_STEREO_COUNT>  (1) 
0

>  <PUBCHEM_ISOTOPIC_ATOM_COUNT>  (1) 
0

>  <PUBCHEM_COMPONENT_COUNT>  (1) 
1

>  <PUBCHEM_CACTVS_TAUTO_COUNT>  (1) 
3

>  <PUBCHEM_CONFORMER_ID>  (1) 
0000BD2C00000001

>  <PUBCHEM_MMFF94_ENERGY>  (1) 
85.0083

>  <PUBCHEM_FEATURE_SELFOVERLAP>  (1) 
50.752

>  <PUBCHEM_SHAPE_FINGERPRINT>  (1) 
10366900 7 17676209065686054969
10912923 1 18259982669593701513
11405975 8 18335417984890427353
12107183 9 17978228254026892539
12166972 35 17775569766724727177
12236239 1 18342741805741007792
12596602 18 15267057094915037887
12633257 1 18261947470960457779
13167823 11 18408885174215132631
13533116 47 16988850453566143750
13675066 3 17846491534753646814
14251764 18 18335136513886969176
14341114 176 18337115652539998205
15183329 4 18335138674682663549
15196674 1 18410857659346784677
15250474 111 18263629805488053683
15788980 27 17561360677944416589
15799311 1 17531253841794161955
1601671 61 18342459235990754796
17349148 13 16200439073990337383
17844677 252 18412552002570472869
17857418 61 18334005121202290643
1813 80 17167580492413774005
20645477 70 18408604768980599958
21033648 29 17274807035344472987
21065198 48 18334011692486279937
21267235 1 18411425011504586303
21421861 104 18042401323085738954
221357 26 18410011052620771725
23522609 53 17970654950483464188
23559900 14 18201162048835222222
239999 70 18409451401787867574
3004659 81 18334859403045287846
3411729 13 18265326404038752536
34797466 226 18271534177193570119
3680242 22 18187641345716334954
4073 2 17677618729323122434
4214541 1 18410856560304583765
4340502 62 16660637501733826208
5104073 3 18408038528781732113
543358 83 18335423456805252240
7495541 125 17240483615494123536
77779 3 18409731793857533797

>  <PUBCHEM_SHAPE_MULTIPOLES>  (1) 
475.18
16.01
2.29
1.34
14.56
0.79
-0.57
-2.22
0.19
0.39
0.07
-2.15
-0.4
-1.07

>  <PUBCHEM_SHAPE_SELFOVERLAP>  (1) 
995.569

>  <PUBCHEM_SHAPE_VOLUME>  (1) 
268

>  <PUBCHEM_COORDINATE_TYPE>  (1) 
2
5
10

$$$$
