4842
     RDKit          3D

 16 16  0  0  0  0  0  0  0  0999 V2000
    6.4111   -1.1883   -0.1109 Br  0  0  0  0  0  0  0  0  0  0  0  0
   -6.4089    1.1908    0.1283 Br  0  0  0  0  0  0  0  0  0  0  0  0
    3.0189    1.9221   -0.0530 O   0  0  0  0  0  0  0  0  0  0  0  0
   -3.0101   -1.9128    0.1272 O   0  0  0  0  0  0  0  0  0  0  0  0
    1.3327    0.3682    0.3162 N   0  0  0  0  0  0  0  0  0  0  0  0
   -1.3316   -0.3673   -0.3066 N   0  0  0  0  0  0  0  0  0  0  0  0
    0.2736    1.3797    0.3569 C   0  0  0  0  0  0  0  0  0  0  0  0
    0.8776   -1.0029    0.5826 C   0  0  0  0  0  0  0  0  0  0  0  0
   -0.8763    1.0036   -0.5737 C   0  0  0  0  0  0  0  0  0  0  0  0
   -0.2724   -1.3788   -0.3481 C   0  0  0  0  0  0  0  0  0  0  0  0
    2.6555    0.7541    0.1068 C   0  0  0  0  0  0  0  0  0  0  0  0
   -2.6543   -0.7528   -0.0955 C   0  0  0  0  0  0  0  0  0  0  0  0
    3.6828   -0.3490    0.0749 C   0  0  0  0  0  0  0  0  0  0  0  0
   -3.6915    0.3404   -0.1458 C   0  0  0  0  0  0  0  0  0  0  0  0
    5.0627    0.2192   -0.1591 C   0  0  0  0  0  0  0  0  0  0  0  0
   -5.0699   -0.2264    0.0997 C   0  0  0  0  0  0  0  0  0  0  0  0
  1 15  1  0
  2 16  1  0
  3 11  2  0
  4 12  2  0
  5  7  1  0
  5  8  1  0
  5 11  1  0
  6  9  1  0
  6 10  1  0
  6 12  1  0
  7  9  1  0
  8 10  1  0
 11 13  1  0
 12 14  1  0
 13 15  1  0
 14 16  1  0
M  END
>  <PUBCHEM_COMPOUND_CID>  (1) 
4842

>  <PUBCHEM_CONFORMER_RMSD>  (1) 
0.8

>  <PUBCHEM_CONFORMER_DIVERSEORDER>  (1) 
1
42
54
27
8
50
60
4
2
72
75
68
62
29
67
79
16
39
63
41
70
9
33
52
40
64
66
51
3
55
76
11
78
65
35
61
6
34
15
23
30
77
59
47
26
53
18
31
12
73
28
71
10
22
5
37
46
32
24
58
20
44
49
25
19
21
45
69
17
74
56
7
43
38
13
48
57
14
36

>  <PUBCHEM_MMFF94_PARTIAL_CHARGES>  (1) 
16
1 -0.23
10 0.3
11 0.57
12 0.57
13 0.06
14 0.06
15 0.23
16 0.23
2 -0.23
3 -0.57
4 -0.57
5 -0.66
6 -0.66
7 0.3
8 0.3
9 0.3

>  <PUBCHEM_EFFECTIVE_ROTOR_COUNT>  (1) 
7.2

>  <PUBCHEM_PHARMACOPHORE_FEATURES>  (1) 
5
1 1 hydrophobe
1 2 hydrophobe
1 3 acceptor
1 4 acceptor
6 5 6 7 8 9 10 rings

>  <PUBCHEM_HEAVY_ATOM_COUNT>  (1) 
16

>  <PUBCHEM_ATOM_DEF_STEREO_COUNT>  (1) 
0

>  <PUBCHEM_ATOM_UDEF_STEREO_COUNT>  (1) 
0

>  <PUBCHEM_BOND_DEF_STEREO_COUNT>  (1) 
0

>  <PUBCHEM_BOND_UDEF_STEREO_COUNT>  (1) 
0

>  <PUBCHEM_ISOTOPIC_ATOM_COUNT>  (1) 
0

>  <PUBCHEM_COMPONENT_COUNT>  (1) 
1

>  <PUBCHEM_CACTVS_TAUTO_COUNT>  (1) 
1

>  <PUBCHEM_CONFORMER_ID>  (1) 
000012EA00000001

>  <PUBCHEM_MMFF94_ENERGY>  (1) 
26.9683

>  <PUBCHEM_FEATURE_SELFOVERLAP>  (1) 
25.371

>  <PUBCHEM_SHAPE_FINGERPRINT>  (1) 
11089746 13 17489582364313264185
12032990 46 18337391646906447546
12236239 1 18202562895167706873
13288520 33 18412265017577833534
13533116 47 13110697016882772380
13690532 89 18410292506718536754
14123256 10 8574706901759066481
1420 363 10737286831339088121
14251718 22 9295287235583953935
14251731 8 18335417954704219814
14251752 14 18040993999725910180
14251764 18 18342739637141011445
15048467 5 18187083957671584997
15099037 51 18413388743798818230
15196674 1 18338516459832999943
15531645 54 18341895181861291301
17834072 8 18342177756555299790
17834076 25 16081089268543699889
18186145 218 17895462734988640348
19141452 34 18130784590110911910
19489759 90 15482674563416073611
200 152 18060137648253583786
20281389 69 18335137588024763401
20374829 77 18411136944254184222
20621476 66 18409171012857770321
21267235 1 18408891732424413363
22079108 93 11169920515422061390
23035841 295 15791451521708411544
23218964 4 18412262822137362725
23402539 116 17917987291245167964
23559900 14 18270956955280589208
3004659 81 18334016078222934678
335352 9 18411136935110154133
347723 3 18131350791169686922
3545911 37 18409730656139612659
4463277 17 18409449189346817064
5104073 3 18336542840771992944
59682541 35 8430299230794939716
59755656 215 18339927008966754958
59755656 520 17822008718582495595
633830 44 18115301305870132318

>  <PUBCHEM_SHAPE_MULTIPOLES>  (1) 
319.46
14.54
1.65
0.69
0.02
0.01
0
0
0.05
0
-0.02
0
0
0.01

>  <PUBCHEM_SHAPE_SELFOVERLAP>  (1) 
598.104

>  <PUBCHEM_SHAPE_VOLUME>  (1) 
203.3

>  <PUBCHEM_COORDINATE_TYPE>  (1) 
2
5
10

$$$$
