48420
     RDKit          3D

 18 19  0  0  0  0  0  0  0  0999 V2000
   -3.0964   -0.7129    1.6142 O   0  0  0  0  0  0  0  0  0  0  0  0
   -0.0953   -0.6356   -1.9965 O   0  0  0  0  0  0  0  0  0  0  0  0
   -1.9423    3.2478   -0.3954 O   0  0  0  0  0  0  0  0  0  0  0  0
   -2.4419    1.2741    0.6725 N   0  0  0  0  0  0  0  0  0  0  0  0
   -0.9432    1.3125   -1.1316 N   0  0  0  0  0  0  0  0  0  0  0  0
   -1.1320   -0.7441    0.1928 C   0  0  0  0  0  0  0  0  0  0  0  0
    0.0495   -0.6653    1.1763 C   0  0  0  0  0  0  0  0  0  0  0  0
    2.4044   -0.5023    0.3655 C   0  0  0  0  0  0  0  0  0  0  0  0
    3.6646   -1.0360   -0.2543 C   0  0  0  0  0  0  0  0  0  0  0  0
    2.5659    0.9435    0.7400 C   0  0  0  0  0  0  0  0  0  0  0  0
    4.4780    0.2256   -0.5185 C   0  0  0  0  0  0  0  0  0  0  0  0
    4.0677    1.1669    0.6059 C   0  0  0  0  0  0  0  0  0  0  0  0
   -1.4490   -2.2174   -0.1022 C   0  0  0  0  0  0  0  0  0  0  0  0
    1.2907   -1.2172    0.5580 C   0  0  0  0  0  0  0  0  0  0  0  0
   -2.3285   -0.0927    0.8790 C   0  0  0  0  0  0  0  0  0  0  0  0
   -0.6905   -0.0505   -1.0921 C   0  0  0  0  0  0  0  0  0  0  0  0
   -2.6275   -2.3288   -1.0320 C   0  0  0  0  0  0  0  0  0  0  0  0
   -1.7741    2.0325   -0.2816 C   0  0  0  0  0  0  0  0  0  0  0  0
  1 15  2  0
  2 16  2  0
  3 18  2  0
  4 15  1  0
  4 18  1  0
  5 16  1  0
  5 18  1  0
  6  7  1  0
  6 13  1  0
  6 15  1  0
  6 16  1  0
  7 14  1  0
  8  9  1  0
  8 10  1  0
  8 14  2  3
  9 11  1  0
 10 12  1  0
 11 12  1  0
 13 17  1  0
M  END
>  <PUBCHEM_COMPOUND_CID>  (1) 
48420

>  <PUBCHEM_CONFORMER_RMSD>  (1) 
0.6

>  <PUBCHEM_CONFORMER_DIVERSEORDER>  (1) 
1
14
8
10
24
25
27
7
22
15
6
18
23
20
4
19
21
13
26
5
12
17
16
9
11
2
3

>  <PUBCHEM_MMFF94_PARTIAL_CHARGES>  (1) 
17
1 -0.57
10 0.14
14 -0.29
15 0.57
16 0.57
18 0.69
2 -0.57
3 -0.57
31 0.15
35 0.37
36 0.37
4 -0.49
5 -0.49
6 0.12
7 0.14
8 -0.28
9 0.14

>  <PUBCHEM_EFFECTIVE_ROTOR_COUNT>  (1) 
4.4

>  <PUBCHEM_PHARMACOPHORE_FEATURES>  (1) 
8
1 1 acceptor
1 17 hydrophobe
1 2 acceptor
1 3 acceptor
1 4 donor
1 5 donor
5 8 9 10 11 12 rings
6 4 5 6 15 16 18 rings

>  <PUBCHEM_HEAVY_ATOM_COUNT>  (1) 
18

>  <PUBCHEM_ATOM_DEF_STEREO_COUNT>  (1) 
0

>  <PUBCHEM_ATOM_UDEF_STEREO_COUNT>  (1) 
0

>  <PUBCHEM_BOND_DEF_STEREO_COUNT>  (1) 
0

>  <PUBCHEM_BOND_UDEF_STEREO_COUNT>  (1) 
0

>  <PUBCHEM_ISOTOPIC_ATOM_COUNT>  (1) 
0

>  <PUBCHEM_COMPONENT_COUNT>  (1) 
1

>  <PUBCHEM_CACTVS_TAUTO_COUNT>  (1) 
5

>  <PUBCHEM_CONFORMER_ID>  (1) 
0000BD2400000001

>  <PUBCHEM_MMFF94_ENERGY>  (1) 
40.305

>  <PUBCHEM_FEATURE_SELFOVERLAP>  (1) 
40.636

>  <PUBCHEM_SHAPE_FINGERPRINT>  (1) 
10498660 4 18335971060650796380
10922523 26 18340774754222753730
11715629 250 18412542124451459096
12011746 2 18336265652542200357
12173636 292 18411130312471206006
12403814 3 18411985775551671891
128993 33 18188205399676596496
12932764 1 18411698786090323090
12969540 114 18262498331139967661
13024252 1 17530959198616350683
13693222 15 13695591044529231200
13764800 53 18260261906734513496
14142880 1 17821997688478550116
16945 1 18410007749600977963
17834072 14 9655281606557828624
17844478 74 18333739026228998352
18186145 218 17988927777955114314
18981168 100 18269530815742571792
20525323 117 18114174242106260858
21501502 16 18261944159915517922
21524375 3 17756694252831132325
22112679 90 18123770882973417815
23227448 37 18340766039275628960
23402539 116 18114736144393695050
23419403 2 16526650154888676546
23557571 272 18340487871486858126
312423 11 17822005390024805354
4175511 318 18060139829854350978
6287921 2 18263654025325217516
81228 2 18260541259886317771

>  <PUBCHEM_SHAPE_MULTIPOLES>  (1) 
342.86
6.47
2.46
1.33
7.4
1.18
-0.17
0.29
0.5
-2.28
-0.53
-0.6
-0.17
0.12

>  <PUBCHEM_SHAPE_SELFOVERLAP>  (1) 
719.593

>  <PUBCHEM_SHAPE_VOLUME>  (1) 
192.3

>  <PUBCHEM_COORDINATE_TYPE>  (1) 
2
5
10

$$$$
