48426
     RDKit          3D

 25 26  0  0  0  0  0  0  0  0999 V2000
    1.7613   -1.9230   -0.3583 O   0  0  0  0  0  0  0  0  0  0  0  0
    5.2063    1.1499   -0.7260 O   0  0  0  0  0  0  0  0  0  0  0  0
    1.1346    2.5186    0.8535 O   0  0  0  0  0  0  0  0  0  0  0  0
   -2.6336    2.2638    0.2366 O   0  0  0  0  0  0  0  0  0  0  0  0
   -6.3374   -0.7348    0.2912 O   0  0  0  0  0  0  0  0  0  0  0  0
    1.4226    0.2394    0.4350 N   0  0  0  0  0  0  0  0  0  0  0  0
    3.1764    1.7948    0.1259 N   0  0  0  0  0  0  0  0  0  0  0  0
    3.7200   -0.5834    0.0850 C   0  0  0  0  0  0  0  0  0  0  0  0
    4.4619   -1.5470   -0.8546 C   0  0  0  0  0  0  0  0  0  0  0  0
    4.1545   -0.8625    1.5354 C   0  0  0  0  0  0  0  0  0  0  0  0
    2.2157   -0.8363    0.0040 C   0  0  0  0  0  0  0  0  0  0  0  0
    4.1169    0.8468   -0.2418 C   0  0  0  0  0  0  0  0  0  0  0  0
    0.0058   -0.0156    0.6674 C   0  0  0  0  0  0  0  0  0  0  0  0
    4.1445   -1.2458   -2.3029 C   0  0  0  0  0  0  0  0  0  0  0  0
    3.8251   -2.2832    1.9347 C   0  0  0  0  0  0  0  0  0  0  0  0
    1.8568    1.5766    0.5160 C   0  0  0  0  0  0  0  0  0  0  0  0
   -0.8409    0.1969   -0.5852 C   0  0  0  0  0  0  0  0  0  0  0  0
   -2.3124   -0.0382   -0.3477 C   0  0  0  0  0  0  0  0  0  0  0  0
   -3.1300    1.0085    0.0514 C   0  0  0  0  0  0  0  0  0  0  0  0
   -2.8216   -1.3144   -0.5365 C   0  0  0  0  0  0  0  0  0  0  0  0
   -4.4879    0.7737    0.2665 C   0  0  0  0  0  0  0  0  0  0  0  0
   -4.1796   -1.5493   -0.3214 C   0  0  0  0  0  0  0  0  0  0  0  0
   -5.0127   -0.5052    0.0802 C   0  0  0  0  0  0  0  0  0  0  0  0
   -2.6393    3.1357   -0.8919 C   0  0  0  0  0  0  0  0  0  0  0  0
   -6.8069   -2.0661    0.0835 C   0  0  0  0  0  0  0  0  0  0  0  0
  1 11  2  0
  2 12  2  0
  3 16  2  0
  4 19  1  0
  4 24  1  0
  5 23  1  0
  5 25  1  0
  6 11  1  0
  6 13  1  0
  6 16  1  0
  7 12  1  0
  7 16  1  0
  8  9  1  0
  8 10  1  0
  8 11  1  0
  8 12  1  0
  9 14  1  0
 10 15  1  0
 13 17  1  0
 17 18  1  0
 18 19  2  0
 18 20  1  0
 19 21  1  0
 20 22  2  0
 21 23  2  0
 22 23  1  0
M  END
>  <PUBCHEM_COMPOUND_CID>  (1) 
48426

>  <PUBCHEM_CONFORMER_RMSD>  (1) 
0.8

>  <PUBCHEM_CONFORMER_DIVERSEORDER>  (1) 
1
95
44
37
72
64
12
6
65
75
53
79
78
89
83
69
25
8
34
70
5
48
46
92
54
30
91
80
20
55
32
98
22
73
19
67
58
85
56
68
76
41
99
51
36
23
84
96
4
81
57
97
7
26
82
11
61
63
62
93
59
90
10
49
38
31
17
33
39
87
27
52
42
66
77
50
24
28
13
21
47
45
9
86
15
94
74
14
60
40
100
2
71
35
88
43
18
3
29
16

>  <PUBCHEM_MMFF94_PARTIAL_CHARGES>  (1) 
25
1 -0.57
11 0.57
12 0.57
13 0.3
16 0.69
17 0.14
18 -0.14
19 0.08
2 -0.57
20 -0.15
21 -0.15
22 -0.15
23 0.08
24 0.28
25 0.28
3 -0.57
32 0.37
4 -0.36
41 0.15
42 0.15
43 0.15
5 -0.36
6 -0.42
7 -0.49
8 0.12

>  <PUBCHEM_EFFECTIVE_ROTOR_COUNT>  (1) 
7.6

>  <PUBCHEM_PHARMACOPHORE_FEATURES>  (1) 
10
1 1 acceptor
1 14 hydrophobe
1 15 hydrophobe
1 2 acceptor
1 3 acceptor
1 4 acceptor
1 5 acceptor
1 7 donor
6 18 19 20 21 22 23 rings
6 6 7 8 11 12 16 rings

>  <PUBCHEM_HEAVY_ATOM_COUNT>  (1) 
25

>  <PUBCHEM_ATOM_DEF_STEREO_COUNT>  (1) 
0

>  <PUBCHEM_ATOM_UDEF_STEREO_COUNT>  (1) 
0

>  <PUBCHEM_BOND_DEF_STEREO_COUNT>  (1) 
0

>  <PUBCHEM_BOND_UDEF_STEREO_COUNT>  (1) 
0

>  <PUBCHEM_ISOTOPIC_ATOM_COUNT>  (1) 
0

>  <PUBCHEM_COMPONENT_COUNT>  (1) 
1

>  <PUBCHEM_CACTVS_TAUTO_COUNT>  (1) 
3

>  <PUBCHEM_CONFORMER_ID>  (1) 
0000BD2A00000001

>  <PUBCHEM_MMFF94_ENERGY>  (1) 
84.236

>  <PUBCHEM_FEATURE_SELFOVERLAP>  (1) 
50.748

>  <PUBCHEM_SHAPE_FINGERPRINT>  (1) 
10366900 7 18186528700162814107
10595046 47 18259703393598223488
12107183 9 17685766926481347177
12236239 1 18040432192502834159
12633257 1 18343023251106517737
12916748 109 18407761434444568874
13073987 5 18334568015168117736
13167823 11 18261105232058111362
13533116 47 18113893858067347459
13675066 3 17561073679439231554
14341114 176 18343308084678945423
14347332 77 18261665992057908611
15196674 1 18412545383830866297
17492 89 18264765459223128730
17844677 252 18409453561402082277
17857418 61 18409439289573833027
1813 80 17675921027941716277
20645477 70 18413673508926127854
21033648 29 16701440270022574443
21033650 10 17973187057606517196
21267235 1 18343027683243780630
221357 26 18342178873009549725
22393880 68 18337956680108905196
2297311 6 18343029873988149789
23522609 53 18194150519162504745
23559900 14 18339636841466743449
239999 70 18342461452447165158
3004659 81 18410014316969963854
312423 11 17677331606522296458
350125 39 18413672409536131209
4073 2 18042969968055291283
4214541 1 18340486673370369289
46194498 28 18341620338673204676
465052 167 18130794494384500775
5104073 3 18342170047105146729
5281201 14 18343306933590943044
6823239 73 18130797711541923878
9709674 26 18341896341608411103

>  <PUBCHEM_SHAPE_MULTIPOLES>  (1) 
475.18
14.16
2.71
1.28
12.43
1.29
0.17
-6.53
0.47
0.79
-0.09
-2.11
-0.56
-0.05

>  <PUBCHEM_SHAPE_SELFOVERLAP>  (1) 
996.979

>  <PUBCHEM_SHAPE_VOLUME>  (1) 
267.4

>  <PUBCHEM_COORDINATE_TYPE>  (1) 
2
5
10

$$$$
