48434
     RDKit          3D

 18 18  0  0  1  0  0  0  0  0999 V2000
   -0.3780    1.2441   -1.5871 O   0  0  0  0  0  0  0  0  0  0  0  0
    0.8579   -1.8087    1.6687 O   0  0  0  0  0  0  0  0  0  0  0  0
   -3.4400   -0.2385    1.5770 O   0  0  0  0  0  0  0  0  0  0  0  0
   -2.0121    0.4154   -0.1509 N   0  0  0  0  0  0  0  0  0  0  0  0
   -1.3072   -1.0582    1.5585 N   0  0  0  0  0  0  0  0  0  0  0  0
    0.1157   -0.8031   -0.4072 C   0  0  0  0  0  0  0  0  0  0  0  0
    1.5927   -0.4842   -0.6870 C   0  0  0  0  0  0  0  0  0  0  0  0
    2.0805    0.6519    0.2059 C   0  0  0  0  0  0  0  0  0  0  0  0
   -0.3241   -1.9737   -1.3052 C   0  0  0  0  0  0  0  0  0  0  0  0
   -0.7520    0.4002   -0.7707 C   0  0  0  0  0  0  0  0  0  0  0  0
    3.5753    0.9672    0.0131 C   0  0  0  0  0  0  0  0  0  0  0  0
   -0.0394   -1.2537    1.0360 C   0  0  0  0  0  0  0  0  0  0  0  0
   -0.1701   -1.6209   -2.7674 C   0  0  0  0  0  0  0  0  0  0  0  0
   -2.3419   -0.2986    1.0173 C   0  0  0  0  0  0  0  0  0  0  0  0
    4.4091   -0.2888    0.2788 C   0  0  0  0  0  0  0  0  0  0  0  0
    4.0541    2.1043    0.9168 C   0  0  0  0  0  0  0  0  0  0  0  0
   -3.0040    1.3556   -0.6591 C   0  0  0  0  0  0  0  0  0  0  0  0
   -2.9165    2.6897    0.0625 C   0  0  0  0  0  0  0  0  0  0  0  0
  1 10  2  0
  2 12  2  0
  3 14  2  0
  4 10  1  0
  4 14  1  0
  4 17  1  0
  5 12  1  0
  5 14  1  0
  6  7  1  0
  6  9  1  0
  6 10  1  0
  6 12  1  0
  7  8  1  0
  8 11  1  0
  9 13  1  0
 11 15  1  0
 11 16  1  0
 17 18  1  0
M  END
>  <PUBCHEM_COMPOUND_CID>  (1) 
48434

>  <PUBCHEM_CONFORMER_RMSD>  (1) 
0.8

>  <PUBCHEM_CONFORMER_DIVERSEORDER>  (1) 
2
8
13
6
10
9
7
12
11
3
14
1
5
4

>  <PUBCHEM_MMFF94_PARTIAL_CHARGES>  (1) 
11
1 -0.57
10 0.57
12 0.57
14 0.69
17 0.3
2 -0.57
29 0.37
3 -0.57
4 -0.42
5 -0.49
6 0.12

>  <PUBCHEM_EFFECTIVE_ROTOR_COUNT>  (1) 
5.6

>  <PUBCHEM_PHARMACOPHORE_FEATURES>  (1) 
7
1 1 acceptor
1 13 hydrophobe
1 2 acceptor
1 3 acceptor
1 5 donor
3 11 15 16 hydrophobe
6 4 5 6 10 12 14 rings

>  <PUBCHEM_HEAVY_ATOM_COUNT>  (1) 
18

>  <PUBCHEM_ATOM_DEF_STEREO_COUNT>  (1) 
0

>  <PUBCHEM_ATOM_UDEF_STEREO_COUNT>  (1) 
1

>  <PUBCHEM_BOND_DEF_STEREO_COUNT>  (1) 
0

>  <PUBCHEM_BOND_UDEF_STEREO_COUNT>  (1) 
0

>  <PUBCHEM_ISOTOPIC_ATOM_COUNT>  (1) 
0

>  <PUBCHEM_COMPONENT_COUNT>  (1) 
1

>  <PUBCHEM_CACTVS_TAUTO_COUNT>  (1) 
3

>  <PUBCHEM_CONFORMER_ID>  (1) 
0000BD3200000002

>  <PUBCHEM_MMFF94_ENERGY>  (1) 
38.8667

>  <PUBCHEM_FEATURE_SELFOVERLAP>  (1) 
35.522

>  <PUBCHEM_SHAPE_FINGERPRINT>  (1) 
10948715 1 18340481179795825021
11132069 177 17022616468528989920
11725454 13 18191002556946721573
12119455 92 18272369750238374190
122479 349 18408881850105858196
12382932 28 17386007221935653649
12423570 1 15457984187921834247
12592029 89 18130506331991002222
13024252 1 17604976190820165214
13140716 1 15305671153118779715
13296909 8 17530684324940849589
13464514 151 17979924804209967472
13544653 18 10881403136206667824
14178342 30 17532109210770397137
14648413 74 17697044634669998405
14817 1 15023281713003605991
15309172 13 18131073731530009332
16945 1 18264221346948262159
1813 80 14562822023174903322
18186145 218 17274833419597532420
19786989 88 17774451473141505879
20871999 31 12463567366026627945
21524375 3 18339071597415399108
23382010 3 16415185802281171096
23402539 116 18260829345530100331
23419403 2 17838095573806897358
23557571 272 18117587126731751115
23559900 14 17752507368915268166
27216 239 18267296724121648480
2748010 2 17459765709280904739
298252 57 18131057213033112870
427121 178 17752784436864804857
68419 9 17837727340606923414
90316 7 16153417351032275220

>  <PUBCHEM_SHAPE_MULTIPOLES>  (1) 
342.86
6.15
2.34
1.85
5.2
0.34
0.09
4.7
1.07
-0.26
-0.89
-0.99
-0.97
0.42

>  <PUBCHEM_SHAPE_SELFOVERLAP>  (1) 
690.643

>  <PUBCHEM_SHAPE_VOLUME>  (1) 
199.9

>  <PUBCHEM_COORDINATE_TYPE>  (1) 
2
5
10

$$$$
