48431
     RDKit          3D

 18 18  0  0  1  0  0  0  0  0999 V2000
   -0.2137    1.7410    0.5620 O   0  0  0  0  0  0  0  0  0  0  0  0
    3.0449   -1.5495    0.5644 O   0  0  0  0  0  0  0  0  0  0  0  0
   -1.1309   -2.5248   -1.0348 O   0  0  0  0  0  0  0  0  0  0  0  0
   -0.6975   -0.3150   -0.4170 N   0  0  0  0  0  0  0  0  0  0  0  0
    0.9641   -1.9926   -0.2937 N   0  0  0  0  0  0  0  0  0  0  0  0
    1.6516    0.3357   -0.0488 C   0  0  0  0  0  0  0  0  0  0  0  0
   -2.1003    0.0431   -0.5909 C   0  0  0  0  0  0  0  0  0  0  0  0
    0.1671    0.6678    0.0912 C   0  0  0  0  0  0  0  0  0  0  0  0
    2.0752    0.7218   -1.4776 C   0  0  0  0  0  0  0  0  0  0  0  0
    2.4680    1.1629    0.9568 C   0  0  0  0  0  0  0  0  0  0  0  0
   -2.7757    0.4087    0.7524 C   0  0  0  0  0  0  0  0  0  0  0  0
    1.9670   -1.1395    0.1364 C   0  0  0  0  0  0  0  0  0  0  0  0
   -0.3468   -1.6622   -0.6303 C   0  0  0  0  0  0  0  0  0  0  0  0
   -2.2335    1.1451   -1.6401 C   0  0  0  0  0  0  0  0  0  0  0  0
    1.8252    2.1902   -1.7375 C   0  0  0  0  0  0  0  0  0  0  0  0
    2.1599    0.7480    2.3786 C   0  0  0  0  0  0  0  0  0  0  0  0
   -4.2732    0.7046    0.6261 C   0  0  0  0  0  0  0  0  0  0  0  0
   -2.5516   -0.6851    1.8028 C   0  0  0  0  0  0  0  0  0  0  0  0
  1  8  2  0
  2 12  2  0
  3 13  2  0
  4  7  1  0
  4  8  1  0
  4 13  1  0
  5 12  1  0
  5 13  1  0
  6  8  1  0
  6  9  1  0
  6 10  1  0
  6 12  1  0
  7 11  1  0
  7 14  1  0
  9 15  1  0
 10 16  1  0
 11 17  1  0
 11 18  1  0
M  END
>  <PUBCHEM_COMPOUND_CID>  (1) 
48431

>  <PUBCHEM_CONFORMER_RMSD>  (1) 
0.6

>  <PUBCHEM_CONFORMER_DIVERSEORDER>  (1) 
1
31
28
26
27
17
35
15
24
33
19
32
30
29
20
34
22
3
36
11
14
23
9
18
2
12
25
21
5
13
10
6
4
7
16
8

>  <PUBCHEM_MMFF94_PARTIAL_CHARGES>  (1) 
11
1 -0.57
12 0.57
13 0.69
2 -0.57
28 0.37
3 -0.57
4 -0.42
5 -0.49
6 0.12
7 0.3
8 0.57

>  <PUBCHEM_EFFECTIVE_ROTOR_COUNT>  (1) 
4.6

>  <PUBCHEM_PHARMACOPHORE_FEATURES>  (1) 
8
1 1 acceptor
1 15 hydrophobe
1 16 hydrophobe
1 2 acceptor
1 3 acceptor
1 5 donor
3 11 17 18 hydrophobe
6 4 5 6 8 12 13 rings

>  <PUBCHEM_HEAVY_ATOM_COUNT>  (1) 
18

>  <PUBCHEM_ATOM_DEF_STEREO_COUNT>  (1) 
0

>  <PUBCHEM_ATOM_UDEF_STEREO_COUNT>  (1) 
1

>  <PUBCHEM_BOND_DEF_STEREO_COUNT>  (1) 
0

>  <PUBCHEM_BOND_UDEF_STEREO_COUNT>  (1) 
0

>  <PUBCHEM_ISOTOPIC_ATOM_COUNT>  (1) 
0

>  <PUBCHEM_COMPONENT_COUNT>  (1) 
1

>  <PUBCHEM_CACTVS_TAUTO_COUNT>  (1) 
3

>  <PUBCHEM_CONFORMER_ID>  (1) 
0000BD2F00000001

>  <PUBCHEM_MMFF94_ENERGY>  (1) 
45.9957

>  <PUBCHEM_FEATURE_SELFOVERLAP>  (1) 
40.597

>  <PUBCHEM_SHAPE_FINGERPRINT>  (1) 
11471102 22 18268720424091231531
12423570 1 12042280763008002132
12491281 212 15769508615466234361
13140716 1 18271231790206309050
13172582 1 18412260640404772159
13693222 7 18270392909825176726
14178342 30 18127677421605606715
15309172 13 18341625836204508043
15775835 57 18059855069085273217
15852999 172 17982410993263133726
15881359 60 18115849893610937581
16945 1 18128805366201854942
18186145 218 17846497028481197973
18981168 100 17201937026614805930
20510252 161 17194863993109785984
20511035 2 18412543232189472638
21029758 27 18191032196948599470
21041028 32 17125090754537693002
21501502 16 18261684761070533139
21524375 3 17099482407578642172
2334 1 18198606925493554222
23419403 2 16105791755592688731
23493267 7 17604990312767488872
23557571 272 16984895707661634687
23559900 14 17749393620229563963
2748010 2 18120642535857769308
276578 36 18342751727136404601
3286 77 18272929406342230675
3797600 57 17827103966691400817
430814 3 17972058073543929860
81228 2 17838613714524924471

>  <PUBCHEM_SHAPE_MULTIPOLES>  (1) 
342.86
5.13
2.14
1.83
3.46
0.29
0.66
-0.77
1.6
-0.76
-0.99
-0.38
-0.22
-0.13

>  <PUBCHEM_SHAPE_SELFOVERLAP>  (1) 
695.991

>  <PUBCHEM_SHAPE_VOLUME>  (1) 
199.6

>  <PUBCHEM_COORDINATE_TYPE>  (1) 
2
5
10

$$$$
