4843
     RDKit          3D

 10 10  0  0  0  0  0  0  0  0999 V2000
   -0.9783   -2.0049    0.3757 O   0  0  0  0  0  0  0  0  0  0  0  0
    1.7567   -0.5514   -1.2306 O   0  0  0  0  0  0  0  0  0  0  0  0
   -0.3184    0.2542    0.4253 N   0  0  0  0  0  0  0  0  0  0  0  0
    3.2603    0.4805    0.1697 N   0  0  0  0  0  0  0  0  0  0  0  0
   -0.8520    1.5146   -0.0342 C   0  0  0  0  0  0  0  0  0  0  0  0
   -2.3354    1.2329   -0.1653 C   0  0  0  0  0  0  0  0  0  0  0  0
   -2.3972   -0.2503   -0.5105 C   0  0  0  0  0  0  0  0  0  0  0  0
   -1.1692   -0.8170    0.1630 C   0  0  0  0  0  0  0  0  0  0  0  0
    1.0192    0.1496    0.9667 C   0  0  0  0  0  0  0  0  0  0  0  0
    2.0142   -0.0082   -0.1598 C   0  0  0  0  0  0  0  0  0  0  0  0
  1  8  2  0
  2 10  2  0
  3  5  1  0
  3  8  1  0
  3  9  1  0
  4 10  1  0
  5  6  1  0
  6  7  1  0
  7  8  1  0
  9 10  1  0
M  END
>  <PUBCHEM_COMPOUND_CID>  (1) 
4843

>  <PUBCHEM_CONFORMER_RMSD>  (1) 
0.6

>  <PUBCHEM_CONFORMER_DIVERSEORDER>  (1) 
1
4
5
2
3

>  <PUBCHEM_MMFF94_PARTIAL_CHARGES>  (1) 
11
1 -0.57
10 0.57
19 0.37
2 -0.57
20 0.37
3 -0.66
4 -0.8
5 0.3
7 0.06
8 0.57
9 0.36

>  <PUBCHEM_EFFECTIVE_ROTOR_COUNT>  (1) 
2.8

>  <PUBCHEM_PHARMACOPHORE_FEATURES>  (1) 
4
1 1 acceptor
1 2 acceptor
1 4 donor
5 3 5 6 7 8 rings

>  <PUBCHEM_HEAVY_ATOM_COUNT>  (1) 
10

>  <PUBCHEM_ATOM_DEF_STEREO_COUNT>  (1) 
0

>  <PUBCHEM_ATOM_UDEF_STEREO_COUNT>  (1) 
0

>  <PUBCHEM_BOND_DEF_STEREO_COUNT>  (1) 
0

>  <PUBCHEM_BOND_UDEF_STEREO_COUNT>  (1) 
0

>  <PUBCHEM_ISOTOPIC_ATOM_COUNT>  (1) 
0

>  <PUBCHEM_COMPONENT_COUNT>  (1) 
1

>  <PUBCHEM_CACTVS_TAUTO_COUNT>  (1) 
4

>  <PUBCHEM_CONFORMER_ID>  (1) 
000012EB00000001

>  <PUBCHEM_MMFF94_ENERGY>  (1) 
15.9798

>  <PUBCHEM_FEATURE_SELFOVERLAP>  (1) 
20.297

>  <PUBCHEM_SHAPE_FINGERPRINT>  (1) 
12716758 59 18410013212989230562
12897270 3 18342741836122231476
15775835 57 17822569408802603828
16714656 1 18408040706377428281
18534176 82 18411422851320516310
19837323 101 18336837381271475345
20201158 50 17989204832840661182
20871998 184 18270966872238665239
21040471 1 18336256834831559657
21293036 1 18335409188960902837
23235685 24 18410286982763035045
23402539 116 18339625798361916709
23552423 10 18046054969980965915
29004967 10 16702297949269085136
369184 2 18409448076675837968
5084963 1 18271804558317376969

>  <PUBCHEM_SHAPE_MULTIPOLES>  (1) 
184.09
3.86
1.45
0.87
1.94
0.28
0.07
-0.66
0.55
-0.82
-0.1
0.25
0.07
0.19

>  <PUBCHEM_SHAPE_SELFOVERLAP>  (1) 
368.22

>  <PUBCHEM_SHAPE_VOLUME>  (1) 
110

>  <PUBCHEM_COORDINATE_TYPE>  (1) 
2
5
10

$$$$
