48438
     RDKit          3D

 23 24  0  0  0  0  0  0  0  0999 V2000
   -1.6216   -1.8371   -0.0302 O   0  0  0  0  0  0  0  0  0  0  0  0
   -4.8328    1.3723   -0.9422 O   0  0  0  0  0  0  0  0  0  0  0  0
   -0.6315    2.6894    0.3063 O   0  0  0  0  0  0  0  0  0  0  0  0
    5.7114    1.3021    0.1458 O   0  0  0  0  0  0  0  0  0  0  0  0
   -1.1017    0.4026    0.3352 N   0  0  0  0  0  0  0  0  0  0  0  0
   -2.7401    2.0048   -0.2473 N   0  0  0  0  0  0  0  0  0  0  0  0
   -3.4624   -0.2882    0.1695 C   0  0  0  0  0  0  0  0  0  0  0  0
   -4.2974   -1.3503   -0.5631 C   0  0  0  0  0  0  0  0  0  0  0  0
   -3.8814   -0.2535    1.6504 C   0  0  0  0  0  0  0  0  0  0  0  0
   -1.9838   -0.6693    0.1237 C   0  0  0  0  0  0  0  0  0  0  0  0
   -3.7580    1.0815   -0.4193 C   0  0  0  0  0  0  0  0  0  0  0  0
    0.2970    0.0856    0.5986 C   0  0  0  0  0  0  0  0  0  0  0  0
   -3.9445   -1.3965   -2.0326 C   0  0  0  0  0  0  0  0  0  0  0  0
   -3.5907   -1.5744    2.3284 C   0  0  0  0  0  0  0  0  0  0  0  0
   -1.4314    1.7609    0.1636 C   0  0  0  0  0  0  0  0  0  0  0  0
    1.0873   -0.0299   -0.7053 C   0  0  0  0  0  0  0  0  0  0  0  0
    2.5314   -0.3797   -0.4478 C   0  0  0  0  0  0  0  0  0  0  0  0
    3.4569    0.6374   -0.2700 C   0  0  0  0  0  0  0  0  0  0  0  0
    2.9097   -1.7127   -0.3926 C   0  0  0  0  0  0  0  0  0  0  0  0
    4.7926    0.3139   -0.0312 C   0  0  0  0  0  0  0  0  0  0  0  0
    4.2451   -2.0362   -0.1539 C   0  0  0  0  0  0  0  0  0  0  0  0
    5.1866   -1.0231    0.0270 C   0  0  0  0  0  0  0  0  0  0  0  0
    7.0591    0.9004    0.3868 C   0  0  0  0  0  0  0  0  0  0  0  0
  1 10  2  0
  2 11  2  0
  3 15  2  0
  4 20  1  0
  4 23  1  0
  5 10  1  0
  5 12  1  0
  5 15  1  0
  6 11  1  0
  6 15  1  0
  7  8  1  0
  7  9  1  0
  7 10  1  0
  7 11  1  0
  8 13  1  0
  9 14  1  0
 12 16  1  0
 16 17  1  0
 17 18  2  0
 17 19  1  0
 18 20  1  0
 19 21  2  0
 20 22  2  0
 21 22  1  0
M  END
>  <PUBCHEM_COMPOUND_CID>  (1) 
48438

>  <PUBCHEM_CONFORMER_RMSD>  (1) 
0.8

>  <PUBCHEM_CONFORMER_DIVERSEORDER>  (1) 
2
17
77
56
71
89
68
57
86
70
80
53
41
5
9
83
63
84
58
16
46
37
38
26
44
88
24
78
35
40
82
69
36
42
79
55
72
47
28
18
54
81
61
15
64
19
32
25
85
66
50
73
49
76
29
30
45
62
52
59
4
74
43
20
48
34
65
60
3
75
23
8
67
27
12
22
6
39
14
31
13
21
87
11
33
10
51
1
7

>  <PUBCHEM_MMFF94_PARTIAL_CHARGES>  (1) 
24
1 -0.57
10 0.57
11 0.57
12 0.3
15 0.69
16 0.14
17 -0.14
18 -0.15
19 -0.15
2 -0.57
20 0.08
21 -0.15
22 -0.15
23 0.28
3 -0.57
30 0.37
39 0.15
4 -0.36
40 0.15
41 0.15
42 0.15
5 -0.42
6 -0.49
7 0.12

>  <PUBCHEM_EFFECTIVE_ROTOR_COUNT>  (1) 
6.6

>  <PUBCHEM_PHARMACOPHORE_FEATURES>  (1) 
9
1 1 acceptor
1 13 hydrophobe
1 14 hydrophobe
1 2 acceptor
1 3 acceptor
1 4 acceptor
1 6 donor
6 17 18 19 20 21 22 rings
6 5 6 7 10 11 15 rings

>  <PUBCHEM_HEAVY_ATOM_COUNT>  (1) 
23

>  <PUBCHEM_ATOM_DEF_STEREO_COUNT>  (1) 
0

>  <PUBCHEM_ATOM_UDEF_STEREO_COUNT>  (1) 
0

>  <PUBCHEM_BOND_DEF_STEREO_COUNT>  (1) 
0

>  <PUBCHEM_BOND_UDEF_STEREO_COUNT>  (1) 
0

>  <PUBCHEM_ISOTOPIC_ATOM_COUNT>  (1) 
0

>  <PUBCHEM_COMPONENT_COUNT>  (1) 
1

>  <PUBCHEM_CACTVS_TAUTO_COUNT>  (1) 
3

>  <PUBCHEM_CONFORMER_ID>  (1) 
0000BD3600000002

>  <PUBCHEM_MMFF94_ENERGY>  (1) 
66.9756

>  <PUBCHEM_FEATURE_SELFOVERLAP>  (1) 
45.672

>  <PUBCHEM_SHAPE_FINGERPRINT>  (1) 
10 15 18336822087832054856
10366900 7 18272366516592334706
105312 117 16660631922387088639
10835480 77 18408598141540711364
11315181 36 17203327844673473232
11552529 35 16486965245716122231
12091667 2 18409167731787125068
12107183 9 17618503182351254410
12596602 18 17312821615510610632
13167823 11 18340484470126110094
13544653 18 18409454695204655869
13631057 29 17631161073179121071
13675066 3 18259993673210515618
14341114 176 18410863144652816428
14790565 3 17622731921136421265
15196674 1 18411699855362930886
15788980 27 18408043996227515982
17093844 174 14490462119336793444
17349148 13 18113343002994577518
17844677 252 18272377421561726188
18927931 339 18410865334305714743
19489759 90 17603584140316516536
200 152 18410290315488695950
23402539 116 18409725157943138126
23559900 14 18412818097375025616
26918003 58 18040156236036866098
2838139 119 14273719764873773215
300161 21 18411132528953814494
3545911 37 18410576172028504060
4073 2 18041286504379266122
4214541 1 18338517439476005108
4325135 7 18272647969962197092
4921388 177 17023194833494576979
497634 4 17203330030875136711
5104073 3 18336271128846685800
5283173 99 18262791857125666845
542803 24 16702024167011389722
67856867 119 18261956362070762300
7495541 125 17489577979362515194
9709674 26 18339651040180646958

>  <PUBCHEM_SHAPE_MULTIPOLES>  (1) 
439.89
14.09
2.18
1.3
18.29
0.41
0.33
0.1
0.19
-0.55
-0.07
-2.32
-0.62
0.59

>  <PUBCHEM_SHAPE_SELFOVERLAP>  (1) 
924.661

>  <PUBCHEM_SHAPE_VOLUME>  (1) 
246.1

>  <PUBCHEM_COORDINATE_TYPE>  (1) 
2
5
10

$$$$
