48436
     RDKit          3D

 16 16  0  0  1  0  0  0  0  0999 V2000
   -0.2529    1.9417    1.0233 O   0  0  0  0  0  0  0  0  0  0  0  0
    1.9050   -1.9035   -0.8365 O   0  0  0  0  0  0  0  0  0  0  0  0
   -2.6396   -1.7443   -0.5176 O   0  0  0  0  0  0  0  0  0  0  0  0
   -1.4727    0.1160    0.2727 N   0  0  0  0  0  0  0  0  0  0  0  0
   -0.3676   -1.7605   -0.6426 N   0  0  0  0  0  0  0  0  0  0  0  0
    1.0113    0.0758    0.2071 C   0  0  0  0  0  0  0  0  0  0  0  0
    1.8031   -0.1045    1.5101 C   0  0  0  0  0  0  0  0  0  0  0  0
   -0.2806    0.8054    0.5382 C   0  0  0  0  0  0  0  0  0  0  0  0
    1.7463    0.9615   -0.7598 C   0  0  0  0  0  0  0  0  0  0  0  0
    0.9118   -1.2726   -0.4694 C   0  0  0  0  0  0  0  0  0  0  0  0
    1.1304   -1.1071    2.4230 C   0  0  0  0  0  0  0  0  0  0  0  0
   -1.5735   -1.1606   -0.3035 C   0  0  0  0  0  0  0  0  0  0  0  0
   -2.7094    0.8076    0.6249 C   0  0  0  0  0  0  0  0  0  0  0  0
    1.1019    1.1555   -2.1003 C   0  0  0  0  0  0  0  0  0  0  0  0
    2.9113    1.5452   -0.4419 C   0  0  0  0  0  0  0  0  0  0  0  0
   -3.2248    1.6444   -0.5278 C   0  0  0  0  0  0  0  0  0  0  0  0
  1  8  2  0
  2 10  2  0
  3 12  2  0
  4  8  1  0
  4 12  1  0
  4 13  1  0
  5 10  1  0
  5 12  1  0
  6  7  1  0
  6  8  1  0
  6  9  1  0
  6 10  1  0
  7 11  1  0
  9 14  1  0
  9 15  2  0
 13 16  1  0
M  END
>  <PUBCHEM_COMPOUND_CID>  (1) 
48436

>  <PUBCHEM_CONFORMER_RMSD>  (1) 
0.6

>  <PUBCHEM_CONFORMER_DIVERSEORDER>  (1) 
1
16
3
9
5
14
11
15
6
8
7
12
10
13
4
2

>  <PUBCHEM_MMFF94_PARTIAL_CHARGES>  (1) 
16
1 -0.57
10 0.57
12 0.69
13 0.3
14 0.14
15 -0.3
2 -0.57
22 0.37
28 0.15
29 0.15
3 -0.57
4 -0.42
5 -0.49
6 0.26
8 0.57
9 -0.28

>  <PUBCHEM_EFFECTIVE_ROTOR_COUNT>  (1) 
3.6

>  <PUBCHEM_PHARMACOPHORE_FEATURES>  (1) 
6
1 1 acceptor
1 11 hydrophobe
1 2 acceptor
1 3 acceptor
1 5 donor
6 4 5 6 8 10 12 rings

>  <PUBCHEM_HEAVY_ATOM_COUNT>  (1) 
16

>  <PUBCHEM_ATOM_DEF_STEREO_COUNT>  (1) 
0

>  <PUBCHEM_ATOM_UDEF_STEREO_COUNT>  (1) 
1

>  <PUBCHEM_BOND_DEF_STEREO_COUNT>  (1) 
0

>  <PUBCHEM_BOND_UDEF_STEREO_COUNT>  (1) 
0

>  <PUBCHEM_ISOTOPIC_ATOM_COUNT>  (1) 
0

>  <PUBCHEM_COMPONENT_COUNT>  (1) 
1

>  <PUBCHEM_CACTVS_TAUTO_COUNT>  (1) 
3

>  <PUBCHEM_CONFORMER_ID>  (1) 
0000BD3400000001

>  <PUBCHEM_MMFF94_ENERGY>  (1) 
32.1495

>  <PUBCHEM_FEATURE_SELFOVERLAP>  (1) 
30.446

>  <PUBCHEM_SHAPE_FINGERPRINT>  (1) 
10863032 1 18202008737212813724
11206711 2 18200030801809822325
11680611 10 18260816086565280635
12326174 3 17822015268053667634
12423570 1 18262513693768590448
12491281 212 18268166394890398320
13299463 15 17773051936203944190
14181834 199 18261946345536562820
144361 1 18046359525795219089
14614273 12 18339366382659011141
15775835 57 18334862761383048933
15852999 172 17912613892458834295
15881359 60 17759765223061624469
16945 1 17983875392585789838
19765921 60 18114757030429635760
20511035 2 17987789714094552895
21524375 3 17970641893951299316
22344851 341 18260271845251718466
22802520 49 17487648314316267660
2334 1 18272934942318016655
23559900 14 17917725630108316732
2748010 2 18130790049024874879
305870 269 17530682121464643984
528886 8 18201167614848833560
77492 1 18187917443388442880

>  <PUBCHEM_SHAPE_MULTIPOLES>  (1) 
301.7
3.91
2.16
1.68
2.38
0.03
0.36
-1.32
-0.15
-0.14
-0.33
-0.69
0.34
-0.77

>  <PUBCHEM_SHAPE_SELFOVERLAP>  (1) 
622.708

>  <PUBCHEM_SHAPE_VOLUME>  (1) 
174.1

>  <PUBCHEM_COORDINATE_TYPE>  (1) 
2
5
10

$$$$
