48433
     RDKit          3D

 18 18  0  0  0  0  0  0  0  0999 V2000
   -0.1521   -1.0599   -1.5942 O   0  0  0  0  0  0  0  0  0  0  0  0
    2.9588    1.4663    0.7269 O   0  0  0  0  0  0  0  0  0  0  0  0
   -1.4805    1.8581    1.7686 O   0  0  0  0  0  0  0  0  0  0  0  0
   -0.8770    0.2435    0.1934 N   0  0  0  0  0  0  0  0  0  0  0  0
    0.7349    1.5937    1.2749 N   0  0  0  0  0  0  0  0  0  0  0  0
    1.5114   -0.3351   -0.0020 C   0  0  0  0  0  0  0  0  0  0  0  0
   -2.2765   -0.0264   -0.1143 C   0  0  0  0  0  0  0  0  0  0  0  0
    0.0971   -0.4155   -0.5738 C   0  0  0  0  0  0  0  0  0  0  0  0
    1.6351   -1.4317    1.0715 C   0  0  0  0  0  0  0  0  0  0  0  0
    2.5389   -0.6032   -1.1130 C   0  0  0  0  0  0  0  0  0  0  0  0
    1.8248    0.9934    0.6664 C   0  0  0  0  0  0  0  0  0  0  0  0
   -2.5987   -1.5143    0.0922 C   0  0  0  0  0  0  0  0  0  0  0  0
   -2.6078    0.3982   -1.5536 C   0  0  0  0  0  0  0  0  0  0  0  0
   -0.6096    1.2563    1.1348 C   0  0  0  0  0  0  0  0  0  0  0  0
    1.3699   -2.7983    0.4815 C   0  0  0  0  0  0  0  0  0  0  0  0
    2.5260    0.5041   -2.1437 C   0  0  0  0  0  0  0  0  0  0  0  0
   -2.2900   -1.9967    1.5041 C   0  0  0  0  0  0  0  0  0  0  0  0
   -2.3049    1.8674   -1.8196 C   0  0  0  0  0  0  0  0  0  0  0  0
  1  8  2  0
  2 11  2  0
  3 14  2  0
  4  7  1  0
  4  8  1  0
  4 14  1  0
  5 11  1  0
  5 14  1  0
  6  8  1  0
  6  9  1  0
  6 10  1  0
  6 11  1  0
  7 12  1  0
  7 13  1  0
  9 15  1  0
 10 16  1  0
 12 17  1  0
 13 18  1  0
M  END
>  <PUBCHEM_COMPOUND_CID>  (1) 
48433

>  <PUBCHEM_CONFORMER_RMSD>  (1) 
0.8

>  <PUBCHEM_CONFORMER_DIVERSEORDER>  (1) 
1
8
3
9
10
7
6
5
4
2

>  <PUBCHEM_MMFF94_PARTIAL_CHARGES>  (1) 
11
1 -0.57
11 0.57
14 0.69
2 -0.57
28 0.37
3 -0.57
4 -0.42
5 -0.49
6 0.12
7 0.3
8 0.57

>  <PUBCHEM_EFFECTIVE_ROTOR_COUNT>  (1) 
5.6

>  <PUBCHEM_PHARMACOPHORE_FEATURES>  (1) 
9
1 1 acceptor
1 15 hydrophobe
1 16 hydrophobe
1 17 hydrophobe
1 18 hydrophobe
1 2 acceptor
1 3 acceptor
1 5 donor
6 4 5 6 8 11 14 rings

>  <PUBCHEM_HEAVY_ATOM_COUNT>  (1) 
18

>  <PUBCHEM_ATOM_DEF_STEREO_COUNT>  (1) 
0

>  <PUBCHEM_ATOM_UDEF_STEREO_COUNT>  (1) 
0

>  <PUBCHEM_BOND_DEF_STEREO_COUNT>  (1) 
0

>  <PUBCHEM_BOND_UDEF_STEREO_COUNT>  (1) 
0

>  <PUBCHEM_ISOTOPIC_ATOM_COUNT>  (1) 
0

>  <PUBCHEM_COMPONENT_COUNT>  (1) 
1

>  <PUBCHEM_CACTVS_TAUTO_COUNT>  (1) 
3

>  <PUBCHEM_CONFORMER_ID>  (1) 
0000BD3100000001

>  <PUBCHEM_MMFF94_ENERGY>  (1) 
40.3101

>  <PUBCHEM_FEATURE_SELFOVERLAP>  (1) 
45.672

>  <PUBCHEM_SHAPE_FINGERPRINT>  (1) 
10353120 184 18059032655883541174
10863032 1 17896015724833735602
12423570 1 17979066420672858413
12491281 212 17023190366274850053
12654903 92 17170383010103328767
13299463 15 18187377548629633751
144361 1 16485296010786414359
14761567 1 18339644438504163267
14817 1 10044702468480536043
15852999 172 17971158548478292315
16945 1 18267574706893788787
17492 54 16378637146763672671
20082192 1 17676493804305244755
20645476 183 17619106873784404176
22112679 90 17699008375495979986
22802520 49 18189034427090976061
2334 1 17775573030741759288
23419403 2 16311671395342393296
23557571 272 17968929915734233893
2748010 2 17775293728997420760
353137 74 18131062762236653256
44249140 249 18113913653407830515
5084963 1 18262817240598014358
568465 68 18049727622185262099
5845 1 13628251385729030024
81228 2 17415555415847938593

>  <PUBCHEM_SHAPE_MULTIPOLES>  (1) 
342.86
4.28
2.43
1.93
0.19
1.26
0.11
-0.39
-0.97
0.58
0.11
-0.12
-0.95
0.52

>  <PUBCHEM_SHAPE_SELFOVERLAP>  (1) 
694.279

>  <PUBCHEM_SHAPE_VOLUME>  (1) 
199.7

>  <PUBCHEM_COORDINATE_TYPE>  (1) 
2
5
10

$$$$
