48435
     RDKit          3D

 18 18  0  0  0  0  0  0  0  0999 V2000
    0.1225    1.8685    0.2364 O   0  0  0  0  0  0  0  0  0  0  0  0
    3.3318   -1.4231    0.7950 O   0  0  0  0  0  0  0  0  0  0  0  0
   -0.9038   -2.6074   -0.4710 O   0  0  0  0  0  0  0  0  0  0  0  0
   -0.4202   -0.3287   -0.3087 N   0  0  0  0  0  0  0  0  0  0  0  0
    1.2200   -1.9831    0.0958 N   0  0  0  0  0  0  0  0  0  0  0  0
    1.9481    0.3340   -0.1374 C   0  0  0  0  0  0  0  0  0  0  0  0
    2.3342    0.4256   -1.6250 C   0  0  0  0  0  0  0  0  0  0  0  0
    2.8062    1.3248    0.6650 C   0  0  0  0  0  0  0  0  0  0  0  0
    0.4735    0.7167   -0.0255 C   0  0  0  0  0  0  0  0  0  0  0  0
    2.2476   -1.0829    0.3239 C   0  0  0  0  0  0  0  0  0  0  0  0
   -1.8222    0.0166   -0.5119 C   0  0  0  0  0  0  0  0  0  0  0  0
   -2.6228   -0.0025    0.7881 C   0  0  0  0  0  0  0  0  0  0  0  0
   -4.1213    0.3268    0.6362 C   0  0  0  0  0  0  0  0  0  0  0  0
   -0.0955   -1.6984   -0.2639 C   0  0  0  0  0  0  0  0  0  0  0  0
    2.0978    1.8199   -2.1600 C   0  0  0  0  0  0  0  0  0  0  0  0
    2.5350    1.2013    2.1482 C   0  0  0  0  0  0  0  0  0  0  0  0
   -4.7720   -0.6644   -0.3327 C   0  0  0  0  0  0  0  0  0  0  0  0
   -4.3587    1.7563    0.1476 C   0  0  0  0  0  0  0  0  0  0  0  0
  1  9  2  0
  2 10  2  0
  3 14  2  0
  4  9  1  0
  4 11  1  0
  4 14  1  0
  5 10  1  0
  5 14  1  0
  6  7  1  0
  6  8  1  0
  6  9  1  0
  6 10  1  0
  7 15  1  0
  8 16  1  0
 11 12  1  0
 12 13  1  0
 13 17  1  0
 13 18  1  0
M  END
>  <PUBCHEM_COMPOUND_CID>  (1) 
48435

>  <PUBCHEM_CONFORMER_RMSD>  (1) 
0.8

>  <PUBCHEM_CONFORMER_DIVERSEORDER>  (1) 
1
12
10
8
11
7
9
6
4
3
5
2

>  <PUBCHEM_MMFF94_PARTIAL_CHARGES>  (1) 
11
1 -0.57
10 0.57
11 0.3
14 0.69
2 -0.57
28 0.37
3 -0.57
4 -0.42
5 -0.49
6 0.12
9 0.57

>  <PUBCHEM_EFFECTIVE_ROTOR_COUNT>  (1) 
5.6

>  <PUBCHEM_PHARMACOPHORE_FEATURES>  (1) 
8
1 1 acceptor
1 15 hydrophobe
1 16 hydrophobe
1 2 acceptor
1 3 acceptor
1 5 donor
3 13 17 18 hydrophobe
6 4 5 6 9 10 14 rings

>  <PUBCHEM_HEAVY_ATOM_COUNT>  (1) 
18

>  <PUBCHEM_ATOM_DEF_STEREO_COUNT>  (1) 
0

>  <PUBCHEM_ATOM_UDEF_STEREO_COUNT>  (1) 
0

>  <PUBCHEM_BOND_DEF_STEREO_COUNT>  (1) 
0

>  <PUBCHEM_BOND_UDEF_STEREO_COUNT>  (1) 
0

>  <PUBCHEM_ISOTOPIC_ATOM_COUNT>  (1) 
0

>  <PUBCHEM_COMPONENT_COUNT>  (1) 
1

>  <PUBCHEM_CACTVS_TAUTO_COUNT>  (1) 
3

>  <PUBCHEM_CONFORMER_ID>  (1) 
0000BD3300000001

>  <PUBCHEM_MMFF94_ENERGY>  (1) 
38.4261

>  <PUBCHEM_FEATURE_SELFOVERLAP>  (1) 
40.597

>  <PUBCHEM_SHAPE_FINGERPRINT>  (1) 
10646746 165 18201156568546701065
10980938 120 18410860953776481231
12644460 14 17458069278634447716
13140716 1 18339630226906222362
13922767 16 18272083842892272531
14115302 16 18338809986994358646
14178342 30 18195230346659173106
14289901 80 18114192955721667059
15775835 57 18342458170369172019
16945 1 18269255903750370946
18186145 218 17918003780115305553
20233049 118 18342468027577936556
20511035 2 18410576236163233358
20645476 183 18116730670965161943
22854114 111 18341894086924212329
23526113 38 16987188017880740340
23557571 272 17200230649109324319
23559900 14 17822294552560413547
2748010 2 18046045082986953508
276578 36 18410581707602934602
3286 77 18272083872978142507
394222 165 17532385346860503184
4990 188 17703523137463758877
5104073 3 18413109438329102099
633830 44 17274835636064556969

>  <PUBCHEM_SHAPE_MULTIPOLES>  (1) 
342.86
7.31
2.2
1.47
9.65
0.67
-0.12
-1.7
0.97
-0.44
-0.2
-1.62
-0.8
-0.52

>  <PUBCHEM_SHAPE_SELFOVERLAP>  (1) 
690.756

>  <PUBCHEM_SHAPE_VOLUME>  (1) 
200.2

>  <PUBCHEM_COORDINATE_TYPE>  (1) 
2
5
10

$$$$
