48443
     RDKit          3D

 18 18  0  0  1  0  0  0  0  0999 V2000
    0.4152   -1.5907   -1.4071 O   0  0  0  0  0  0  0  0  0  0  0  0
    3.2553    1.3653    0.7476 O   0  0  0  0  0  0  0  0  0  0  0  0
   -1.0485    2.6363   -0.1509 O   0  0  0  0  0  0  0  0  0  0  0  0
   -0.4425    0.4376   -0.6522 N   0  0  0  0  0  0  0  0  0  0  0  0
    1.0744    1.9522    0.3458 N   0  0  0  0  0  0  0  0  0  0  0  0
    1.6755   -0.4117    0.2809 C   0  0  0  0  0  0  0  0  0  0  0  0
    1.2049   -0.9245    1.6541 C   0  0  0  0  0  0  0  0  0  0  0  0
    2.8778   -1.2496   -0.1819 C   0  0  0  0  0  0  0  0  0  0  0  0
    0.5133   -0.5903   -0.6943 C   0  0  0  0  0  0  0  0  0  0  0  0
   -1.7147    0.2059   -1.3258 C   0  0  0  0  0  0  0  0  0  0  0  0
   -2.7546   -0.5033   -0.4448 C   0  0  0  0  0  0  0  0  0  0  0  0
    2.1061    1.0350    0.4586 C   0  0  0  0  0  0  0  0  0  0  0  0
   -0.2123    1.7291   -0.1396 C   0  0  0  0  0  0  0  0  0  0  0  0
   -3.0569    0.2333    0.8744 C   0  0  0  0  0  0  0  0  0  0  0  0
    0.7866   -2.3754    1.5751 C   0  0  0  0  0  0  0  0  0  0  0  0
    3.4411   -0.7197   -1.4821 C   0  0  0  0  0  0  0  0  0  0  0  0
   -4.0571   -0.7414   -1.2169 C   0  0  0  0  0  0  0  0  0  0  0  0
   -4.0635   -0.4881    1.7592 C   0  0  0  0  0  0  0  0  0  0  0  0
  1  9  2  0
  2 12  2  0
  3 13  2  0
  4  9  1  0
  4 10  1  0
  4 13  1  0
  5 12  1  0
  5 13  1  0
  6  7  1  0
  6  8  1  0
  6  9  1  0
  6 12  1  0
  7 15  1  0
  8 16  1  0
 10 11  1  0
 11 14  1  0
 11 17  1  0
 14 18  1  0
M  END
>  <PUBCHEM_COMPOUND_CID>  (1) 
48443

>  <PUBCHEM_CONFORMER_RMSD>  (1) 
0.8

>  <PUBCHEM_CONFORMER_DIVERSEORDER>  (1) 
1
36
3
28
37
21
32
14
13
29
38
10
31
34
20
27
24
39
26
4
40
35
30
25
19
33
22
23
7
18
2
15
11
17
16
5
9
6
8
12

>  <PUBCHEM_MMFF94_PARTIAL_CHARGES>  (1) 
11
1 -0.57
10 0.3
12 0.57
13 0.69
2 -0.57
28 0.37
3 -0.57
4 -0.42
5 -0.49
6 0.12
9 0.57

>  <PUBCHEM_EFFECTIVE_ROTOR_COUNT>  (1) 
5.6

>  <PUBCHEM_PHARMACOPHORE_FEATURES>  (1) 
9
1 1 acceptor
1 15 hydrophobe
1 16 hydrophobe
1 17 hydrophobe
1 18 hydrophobe
1 2 acceptor
1 3 acceptor
1 5 donor
6 4 5 6 9 12 13 rings

>  <PUBCHEM_HEAVY_ATOM_COUNT>  (1) 
18

>  <PUBCHEM_ATOM_DEF_STEREO_COUNT>  (1) 
0

>  <PUBCHEM_ATOM_UDEF_STEREO_COUNT>  (1) 
1

>  <PUBCHEM_BOND_DEF_STEREO_COUNT>  (1) 
0

>  <PUBCHEM_BOND_UDEF_STEREO_COUNT>  (1) 
0

>  <PUBCHEM_ISOTOPIC_ATOM_COUNT>  (1) 
0

>  <PUBCHEM_COMPONENT_COUNT>  (1) 
1

>  <PUBCHEM_CACTVS_TAUTO_COUNT>  (1) 
3

>  <PUBCHEM_CONFORMER_ID>  (1) 
0000BD3B00000001

>  <PUBCHEM_MMFF94_ENERGY>  (1) 
38.3811

>  <PUBCHEM_FEATURE_SELFOVERLAP>  (1) 
45.673

>  <PUBCHEM_SHAPE_FINGERPRINT>  (1) 
10863032 1 16774083998205000618
11067466 332 17894921732112470787
11086676 242 18343022146830372280
11471102 22 18410011078496096385
12423570 1 9769428436871597966
12491281 212 17845094154348584242
12596599 1 18272087231854123059
13140716 1 17765411520529865608
13296908 3 18409160004972278141
13464513 79 16807320087772619923
13538477 17 17830166914075977044
14252887 29 18342172314705148013
14787075 74 17897452919580285792
15375462 189 18260549983302811555
16945 1 18411975845692732862
18981168 100 16557881456373800889
19422 9 17418094334151202807
20645477 70 18339626911291203071
23419403 2 15508628638247908148
23559900 14 16805870793697079186
2748010 2 18127391398612353588
5337951 7 18335431200663156258
568465 68 17822014271726743857

>  <PUBCHEM_SHAPE_MULTIPOLES>  (1) 
342.86
6.12
2.12
1.65
4.08
0.5
0
-1.22
0.13
-0.71
-0.66
0.42
-0.65
0.34

>  <PUBCHEM_SHAPE_SELFOVERLAP>  (1) 
690.787

>  <PUBCHEM_SHAPE_VOLUME>  (1) 
200.2

>  <PUBCHEM_COORDINATE_TYPE>  (1) 
2
5
10

$$$$
