48445
     RDKit          3D

 19 20  0  0  0  0  0  0  0  0999 V2000
    3.0731    2.2150    0.4502 O   0  0  0  0  0  0  0  0  0  0  0  0
    1.5945   -1.8642   -1.2416 O   0  0  0  0  0  0  0  0  0  0  0  0
    0.8479    1.6551    0.3743 N   0  0  0  0  0  0  0  0  0  0  0  0
    0.0694   -0.4654   -0.2883 N   0  0  0  0  0  0  0  0  0  0  0  0
   -1.4375    1.2091    0.3364 N   0  0  0  0  0  0  0  0  0  0  0  0
    2.4891   -0.1229    0.1600 C   0  0  0  0  0  0  0  0  0  0  0  0
    3.7981   -0.2923   -0.6259 C   0  0  0  0  0  0  0  0  0  0  0  0
    2.6515   -0.7264    1.5634 C   0  0  0  0  0  0  0  0  0  0  0  0
    2.1970    1.3630    0.3174 C   0  0  0  0  0  0  0  0  0  0  0  0
    1.3578   -0.8810   -0.5409 C   0  0  0  0  0  0  0  0  0  0  0  0
    3.6600    0.2784   -2.0117 C   0  0  0  0  0  0  0  0  0  0  0  0
    3.0280   -2.1808    1.4728 C   0  0  0  0  0  0  0  0  0  0  0  0
   -0.1653    0.7449    0.1267 C   0  0  0  0  0  0  0  0  0  0  0  0
   -2.6445    0.5293    0.1610 C   0  0  0  0  0  0  0  0  0  0  0  0
   -3.8085    1.2260   -0.1930 C   0  0  0  0  0  0  0  0  0  0  0  0
   -2.7108   -0.8601    0.3367 C   0  0  0  0  0  0  0  0  0  0  0  0
   -5.0145    0.5469   -0.3682 C   0  0  0  0  0  0  0  0  0  0  0  0
   -3.9168   -1.5390    0.1617 C   0  0  0  0  0  0  0  0  0  0  0  0
   -5.0686   -0.8358   -0.1910 C   0  0  0  0  0  0  0  0  0  0  0  0
  1  9  2  0
  2 10  2  0
  3  9  1  0
  3 13  1  0
  4 10  1  0
  4 13  2  0
  5 13  1  0
  5 14  1  0
  6  7  1  0
  6  8  1  0
  6  9  1  0
  6 10  1  0
  7 11  1  0
  8 12  1  0
 14 15  2  0
 14 16  1  0
 15 17  1  0
 16 18  2  0
 17 19  2  0
 18 19  1  0
M  END
>  <PUBCHEM_COMPOUND_CID>  (1) 
48445

>  <PUBCHEM_CONFORMER_RMSD>  (1) 
0.6

>  <PUBCHEM_CONFORMER_DIVERSEORDER>  (1) 
1
42
26
30
41
24
33
17
22
25
19
8
37
16
39
27
40
32
35
13
5
31
23
43
38
3
29
36
18
15
10
14
7
9
28
21
6
20
34
11
12
2
4

>  <PUBCHEM_MMFF94_PARTIAL_CHARGES>  (1) 
22
1 -0.57
10 0.72
13 0.56
14 0.1
15 -0.15
16 -0.15
17 -0.15
18 -0.15
19 -0.15
2 -0.57
3 -0.49
30 0.37
31 0.4
32 0.15
33 0.15
34 0.15
35 0.15
36 0.15
4 -0.66
5 -0.55
6 0.12
9 0.57

>  <PUBCHEM_EFFECTIVE_ROTOR_COUNT>  (1) 
4.4

>  <PUBCHEM_PHARMACOPHORE_FEATURES>  (1) 
9
1 1 acceptor
1 11 hydrophobe
1 12 hydrophobe
1 2 acceptor
1 3 donor
1 4 donor
1 5 donor
6 14 15 16 17 18 19 rings
6 3 4 6 9 10 13 rings

>  <PUBCHEM_HEAVY_ATOM_COUNT>  (1) 
19

>  <PUBCHEM_ATOM_DEF_STEREO_COUNT>  (1) 
0

>  <PUBCHEM_ATOM_UDEF_STEREO_COUNT>  (1) 
0

>  <PUBCHEM_BOND_DEF_STEREO_COUNT>  (1) 
0

>  <PUBCHEM_BOND_UDEF_STEREO_COUNT>  (1) 
0

>  <PUBCHEM_ISOTOPIC_ATOM_COUNT>  (1) 
0

>  <PUBCHEM_COMPONENT_COUNT>  (1) 
1

>  <PUBCHEM_CACTVS_TAUTO_COUNT>  (1) 
5

>  <PUBCHEM_CONFORMER_ID>  (1) 
0000BD3D00000001

>  <PUBCHEM_MMFF94_ENERGY>  (1) 
62.4015

>  <PUBCHEM_FEATURE_SELFOVERLAP>  (1) 
45.796

>  <PUBCHEM_SHAPE_FINGERPRINT>  (1) 
10759866 29 18114187449120393398
11543360 7 17023190456732893917
11615757 297 17632302297866151353
12616999 72 18411709759399370686
12633257 1 18340769222236571393
13167823 11 18040432162142885155
13224815 77 18060136557210545321
13464513 79 17989490727607705926
13533116 47 18040991818125675907
13760787 19 18113341911724958479
14178342 30 17843120298985208760
14252887 29 16988847155167858028
14289901 80 17458062655573331325
15196674 1 18341612659371431333
15375358 24 18412542124467373959
17349148 13 18272925008353702679
18186145 218 18408322185781117953
200 152 17632858629491227629
20281475 54 18261672580337397529
20645477 70 18343020012368808557
21267235 1 18343030999238134007
21452121 103 18059848519756357120
221490 88 18341340005877881451
22393880 68 18410577300998170287
23558518 356 17403442465791245928
23559900 14 18200032820133539807
239999 70 18272092737996551636
2871803 45 18411420626595950781
296302 2 16226053322382348037
3004659 81 18041275461406567586
3060560 45 18202286900917445550
474 4 16226909889385655556
4921388 177 15864083095829983043
4990 188 18130518482553391164
5104073 3 18412543224116146265
960060 61 17967534562411076303
9709674 26 18412266172834664095

>  <PUBCHEM_SHAPE_MULTIPOLES>  (1) 
364.33
9.77
1.95
1.23
10.01
0.18
-0.26
0.95
-1.22
-0.89
0.46
-1.7
0.27
-0.39

>  <PUBCHEM_SHAPE_SELFOVERLAP>  (1) 
774.109

>  <PUBCHEM_SHAPE_VOLUME>  (1) 
200.9

>  <PUBCHEM_COORDINATE_TYPE>  (1) 
2
5
10

$$$$
