48444
     RDKit          3D

 21 22  0  0  0  0  0  0  0  0999 V2000
    0.9097   -1.8258   -0.1260 O   0  0  0  0  0  0  0  0  0  0  0  0
    4.3100    1.2159   -0.9212 O   0  0  0  0  0  0  0  0  0  0  0  0
    0.2216    2.7304    0.4705 O   0  0  0  0  0  0  0  0  0  0  0  0
    0.5414    0.4197    0.3659 N   0  0  0  0  0  0  0  0  0  0  0  0
    2.2723    1.9427   -0.1584 N   0  0  0  0  0  0  0  0  0  0  0  0
    2.8497   -0.4111    0.1237 C   0  0  0  0  0  0  0  0  0  0  0  0
    3.2903   -0.4835    1.5970 C   0  0  0  0  0  0  0  0  0  0  0  0
    3.6040   -1.4835   -0.6783 C   0  0  0  0  0  0  0  0  0  0  0  0
    1.3490   -0.6936    0.0830 C   0  0  0  0  0  0  0  0  0  0  0  0
    3.2257    0.9666   -0.3966 C   0  0  0  0  0  0  0  0  0  0  0  0
   -0.8712    0.1791    0.6358 C   0  0  0  0  0  0  0  0  0  0  0  0
    2.9819   -1.8408    2.1875 C   0  0  0  0  0  0  0  0  0  0  0  0
    3.2802   -1.3871   -2.1529 C   0  0  0  0  0  0  0  0  0  0  0  0
    0.9566    1.7614    0.2623 C   0  0  0  0  0  0  0  0  0  0  0  0
   -1.7227    0.2069   -0.6311 C   0  0  0  0  0  0  0  0  0  0  0  0
   -3.1904   -0.0141   -0.3589 C   0  0  0  0  0  0  0  0  0  0  0  0
   -3.6969   -1.3045   -0.3670 C   0  0  0  0  0  0  0  0  0  0  0  0
   -4.0070    1.0772   -0.1058 C   0  0  0  0  0  0  0  0  0  0  0  0
   -5.0537   -1.5088   -0.1157 C   0  0  0  0  0  0  0  0  0  0  0  0
   -5.3637    0.8730    0.1456 C   0  0  0  0  0  0  0  0  0  0  0  0
   -5.8870   -0.4201    0.1406 C   0  0  0  0  0  0  0  0  0  0  0  0
  1  9  2  0
  2 10  2  0
  3 14  2  0
  4  9  1  0
  4 11  1  0
  4 14  1  0
  5 10  1  0
  5 14  1  0
  6  7  1  0
  6  8  1  0
  6  9  1  0
  6 10  1  0
  7 12  1  0
  8 13  1  0
 11 15  1  0
 15 16  1  0
 16 17  2  0
 16 18  1  0
 17 19  1  0
 18 20  2  0
 19 21  2  0
 20 21  1  0
M  END
>  <PUBCHEM_COMPOUND_CID>  (1) 
48444

>  <PUBCHEM_CONFORMER_RMSD>  (1) 
0.8

>  <PUBCHEM_CONFORMER_DIVERSEORDER>  (1) 
1
13
7
4
16
25
18
20
3
6
17
15
24
9
5
19
26
23
2
22
8
11
27
10
21
14
12

>  <PUBCHEM_MMFF94_PARTIAL_CHARGES>  (1) 
23
1 -0.57
10 0.57
11 0.3
14 0.69
15 0.14
16 -0.14
17 -0.15
18 -0.15
19 -0.15
2 -0.57
20 -0.15
21 -0.15
28 0.37
3 -0.57
37 0.15
38 0.15
39 0.15
4 -0.42
40 0.15
41 0.15
5 -0.49
6 0.12
9 0.57

>  <PUBCHEM_EFFECTIVE_ROTOR_COUNT>  (1) 
5.6

>  <PUBCHEM_PHARMACOPHORE_FEATURES>  (1) 
8
1 1 acceptor
1 12 hydrophobe
1 13 hydrophobe
1 2 acceptor
1 3 acceptor
1 5 donor
6 16 17 18 19 20 21 rings
6 4 5 6 9 10 14 rings

>  <PUBCHEM_HEAVY_ATOM_COUNT>  (1) 
21

>  <PUBCHEM_ATOM_DEF_STEREO_COUNT>  (1) 
0

>  <PUBCHEM_ATOM_UDEF_STEREO_COUNT>  (1) 
0

>  <PUBCHEM_BOND_DEF_STEREO_COUNT>  (1) 
0

>  <PUBCHEM_BOND_UDEF_STEREO_COUNT>  (1) 
0

>  <PUBCHEM_ISOTOPIC_ATOM_COUNT>  (1) 
0

>  <PUBCHEM_COMPONENT_COUNT>  (1) 
1

>  <PUBCHEM_CACTVS_TAUTO_COUNT>  (1) 
3

>  <PUBCHEM_CONFORMER_ID>  (1) 
0000BD3C00000001

>  <PUBCHEM_MMFF94_ENERGY>  (1) 
52.5923

>  <PUBCHEM_FEATURE_SELFOVERLAP>  (1) 
40.596

>  <PUBCHEM_SHAPE_FINGERPRINT>  (1) 
116883 192 18200319792694814940
12107183 9 17830728756365686441
12553582 1 18201428203605429293
12616999 72 18343026609665298878
12633257 1 18409161091920997651
12788726 201 18341899545622528353
13167823 11 18409447016457290707
13533116 47 16486979449489435391
13675066 3 17632852019388872519
14178342 30 17980470166556784952
14252887 29 18060699481141130642
14341114 176 18341059575226998777
15196674 1 18411982468606026343
1601671 61 18202284714325566668
17844677 252 18335989701178294901
1813 80 17748829618367962221
18186145 218 18187078447259997839
18681886 176 18058730333399599152
19078846 21 18338227181191083937
20281475 54 18187636986450811171
20645477 70 18410857667751921062
21033648 29 16701723961676981667
21267235 1 18341621390586471463
21421861 104 18044657494843737755
221357 26 18412825794293887253
221490 88 18267028430425657043
23557571 272 17916296135167093640
23559900 14 18201160961955327647
239999 70 18411422825767074886
3004659 81 18335140860420253110
314173 41 18411421721728371093
34934 24 18341047540533560484
3680242 22 18335417911944906147
4214541 1 18411982447532343757
4340502 62 17168141273798827848
5104073 3 18410572907906048969
5281201 14 18408606967866848661
54040823 5 18334293188769009312
543358 83 18409735040726312993
6823239 73 18201167589105780742
7164475 11 17896593982151274796
7495541 125 17676209086918259241
77779 3 18411983585550828285
960060 61 17748832899200541511
9709674 26 18340208617536032823
9841814 1 18408595968207638360

>  <PUBCHEM_SHAPE_MULTIPOLES>  (1) 
404.6
11.54
2.13
1.34
15.1
0.61
-0.13
-2.36
0.77
-1.03
-0.11
-2.13
-0.74
-0.42

>  <PUBCHEM_SHAPE_SELFOVERLAP>  (1) 
851.718

>  <PUBCHEM_SHAPE_VOLUME>  (1) 
225.6

>  <PUBCHEM_COORDINATE_TYPE>  (1) 
2
5
10

$$$$
