48441
     RDKit          3D

 18 18  0  0  1  0  0  0  0  0999 V2000
   -0.4110    0.1925   -1.9046 O   0  0  0  0  0  0  0  0  0  0  0  0
    1.9796   -2.4447    1.0581 O   0  0  0  0  0  0  0  0  0  0  0  0
    2.2174    2.1121    1.4109 O   0  0  0  0  0  0  0  0  0  0  0  0
    0.7381    1.2244   -0.1626 N   0  0  0  0  0  0  0  0  0  0  0  0
    2.0272   -0.1597    1.2562 N   0  0  0  0  0  0  0  0  0  0  0  0
    0.2163   -1.1809   -0.0211 C   0  0  0  0  0  0  0  0  0  0  0  0
    0.0525   -2.3762   -0.9729 C   0  0  0  0  0  0  0  0  0  0  0  0
   -0.9580   -1.1672    0.9744 C   0  0  0  0  0  0  0  0  0  0  0  0
    0.1567    0.1239   -0.8130 C   0  0  0  0  0  0  0  0  0  0  0  0
    1.4940   -1.3480    0.7847 C   0  0  0  0  0  0  0  0  0  0  0  0
    1.2362   -2.4921   -1.9081 C   0  0  0  0  0  0  0  0  0  0  0  0
   -2.2455   -0.8888    0.2683 C   0  0  0  0  0  0  0  0  0  0  0  0
    1.6798    1.1361    0.8808 C   0  0  0  0  0  0  0  0  0  0  0  0
    0.4694    2.5503   -0.7066 C   0  0  0  0  0  0  0  0  0  0  0  0
   -3.0709    0.1600    0.4477 C   0  0  0  0  0  0  0  0  0  0  0  0
    1.5088    2.9391   -1.7443 C   0  0  0  0  0  0  0  0  0  0  0  0
   -4.3568    0.3855   -0.2958 C   0  0  0  0  0  0  0  0  0  0  0  0
   -2.7335    1.2338    1.4477 C   0  0  0  0  0  0  0  0  0  0  0  0
  1  9  2  0
  2 10  2  0
  3 13  2  0
  4  9  1  0
  4 13  1  0
  4 14  1  0
  5 10  1  0
  5 13  1  0
  6  7  1  0
  6  8  1  0
  6  9  1  0
  6 10  1  0
  7 11  1  0
  8 12  1  0
 12 15  2  3
 14 16  1  0
 15 17  1  0
 15 18  1  0
M  END
>  <PUBCHEM_COMPOUND_CID>  (1) 
48441

>  <PUBCHEM_CONFORMER_RMSD>  (1) 
0.6

>  <PUBCHEM_CONFORMER_DIVERSEORDER>  (1) 
4
49
42
55
25
26
39
9
17
45
41
52
24
28
56
22
27
51
53
20
37
54
58
13
10
46
40
31
43
23
32
2
57
47
35
60
15
33
5
50
16
34
1
48
44
38
29
7
18
21
30
59
12
36
61
19
8
11
6
3
14

>  <PUBCHEM_MMFF94_PARTIAL_CHARGES>  (1) 
17
1 -0.57
10 0.57
12 -0.29
13 0.69
14 0.3
15 -0.28
17 0.14
18 0.14
2 -0.57
26 0.37
27 0.15
3 -0.57
4 -0.42
5 -0.49
6 0.12
8 0.14
9 0.57

>  <PUBCHEM_EFFECTIVE_ROTOR_COUNT>  (1) 
4.6

>  <PUBCHEM_PHARMACOPHORE_FEATURES>  (1) 
7
1 1 acceptor
1 11 hydrophobe
1 2 acceptor
1 3 acceptor
1 5 donor
3 15 17 18 hydrophobe
6 4 5 6 9 10 13 rings

>  <PUBCHEM_HEAVY_ATOM_COUNT>  (1) 
18

>  <PUBCHEM_ATOM_DEF_STEREO_COUNT>  (1) 
0

>  <PUBCHEM_ATOM_UDEF_STEREO_COUNT>  (1) 
1

>  <PUBCHEM_BOND_DEF_STEREO_COUNT>  (1) 
0

>  <PUBCHEM_BOND_UDEF_STEREO_COUNT>  (1) 
0

>  <PUBCHEM_ISOTOPIC_ATOM_COUNT>  (1) 
0

>  <PUBCHEM_COMPONENT_COUNT>  (1) 
1

>  <PUBCHEM_CACTVS_TAUTO_COUNT>  (1) 
3

>  <PUBCHEM_CONFORMER_ID>  (1) 
0000BD3900000004

>  <PUBCHEM_MMFF94_ENERGY>  (1) 
38.3975

>  <PUBCHEM_FEATURE_SELFOVERLAP>  (1) 
35.522

>  <PUBCHEM_SHAPE_FINGERPRINT>  (1) 
12011746 2 18336259055097549422
12423570 1 12328422912885495562
12725867 57 18189621540240254159
13134695 92 18114736024023717615
14142880 1 17691649666051333592
14181834 199 18342454811942220931
14817 1 16767858730972542666
15534591 1 17323251771067730420
15881359 60 17755819247675798289
15906896 17 17545887491124582758
16945 1 18041831930317298251
17357779 13 17908129989461793365
20511035 2 18338515373301505810
20600515 1 18048619039507779218
21524375 3 17977119168595344317
23419403 2 17973415764192964340
2748010 2 17973411387726940756
430814 3 17682686468625795904
5845 1 11415061575724952019
7364860 26 18059584546507379739
81228 2 17400377654200452241

>  <PUBCHEM_SHAPE_MULTIPOLES>  (1) 
342.86
4.25
3.23
1.76
5.81
0.59
0.37
1.01
-0.87
-2.58
1.12
-0.83
0.11
-0.22

>  <PUBCHEM_SHAPE_SELFOVERLAP>  (1) 
697.372

>  <PUBCHEM_SHAPE_VOLUME>  (1) 
198

>  <PUBCHEM_COORDINATE_TYPE>  (1) 
2
5
10

$$$$
