48440
     RDKit          3D

 21 22  0  0  0  0  0  0  0  0999 V2000
    0.6760   -1.5876   -0.9783 O   0  0  0  0  0  0  0  0  0  0  0  0
    4.3002    1.0478   -0.2770 O   0  0  0  0  0  0  0  0  0  0  0  0
    0.1775    2.7690    0.6629 O   0  0  0  0  0  0  0  0  0  0  0  0
   -5.2859   -0.1024   -0.1805 O   0  0  0  0  0  0  0  0  0  0  0  0
    0.2651    0.5102   -0.0126 N   0  0  0  0  0  0  0  0  0  0  0  0
    2.1932    1.8899    0.0814 N   0  0  0  0  0  0  0  0  0  0  0  0
    2.5033   -0.5173    0.1710 C   0  0  0  0  0  0  0  0  0  0  0  0
    3.3763   -1.5793   -0.5175 C   0  0  0  0  0  0  0  0  0  0  0  0
    2.4948   -0.7897    1.6857 C   0  0  0  0  0  0  0  0  0  0  0  0
    1.0640   -0.6095   -0.3363 C   0  0  0  0  0  0  0  0  0  0  0  0
    3.1052    0.8568   -0.0610 C   0  0  0  0  0  0  0  0  0  0  0  0
    3.4865   -1.3118   -2.0023 C   0  0  0  0  0  0  0  0  0  0  0  0
    1.9353   -2.1624    1.9862 C   0  0  0  0  0  0  0  0  0  0  0  0
    0.8111    1.7893    0.2614 C   0  0  0  0  0  0  0  0  0  0  0  0
   -1.1730    0.3515   -0.0567 C   0  0  0  0  0  0  0  0  0  0  0  0
   -1.7349   -0.8898    0.2149 C   0  0  0  0  0  0  0  0  0  0  0  0
   -1.9748    1.4420   -0.3698 C   0  0  0  0  0  0  0  0  0  0  0  0
   -3.1208   -1.0428    0.1726 C   0  0  0  0  0  0  0  0  0  0  0  0
   -3.3606    1.2890   -0.4119 C   0  0  0  0  0  0  0  0  0  0  0  0
   -3.9336    0.0466   -0.1408 C   0  0  0  0  0  0  0  0  0  0  0  0
   -5.8051   -1.3995    0.1088 C   0  0  0  0  0  0  0  0  0  0  0  0
  1 10  2  0
  2 11  2  0
  3 14  2  0
  4 20  1  0
  4 21  1  0
  5 10  1  0
  5 14  1  0
  5 15  1  0
  6 11  1  0
  6 14  1  0
  7  8  1  0
  7  9  1  0
  7 10  1  0
  7 11  1  0
  8 12  1  0
  9 13  1  0
 15 16  2  0
 15 17  1  0
 16 18  1  0
 17 19  2  0
 18 20  2  0
 19 20  1  0
M  END
>  <PUBCHEM_COMPOUND_CID>  (1) 
48440

>  <PUBCHEM_CONFORMER_RMSD>  (1) 
0.8

>  <PUBCHEM_CONFORMER_DIVERSEORDER>  (1) 
1
3
6
4
5
2

>  <PUBCHEM_MMFF94_PARTIAL_CHARGES>  (1) 
22
1 -0.57
10 0.57
11 0.57
14 0.69
15 0.12
16 -0.15
17 -0.15
18 -0.15
19 -0.15
2 -0.57
20 0.08
21 0.28
3 -0.57
32 0.37
33 0.15
34 0.15
35 0.15
36 0.15
4 -0.36
5 -0.24
6 -0.49
7 0.12

>  <PUBCHEM_EFFECTIVE_ROTOR_COUNT>  (1) 
4.6

>  <PUBCHEM_PHARMACOPHORE_FEATURES>  (1) 
9
1 1 acceptor
1 12 hydrophobe
1 13 hydrophobe
1 2 acceptor
1 3 acceptor
1 4 acceptor
1 6 donor
6 15 16 17 18 19 20 rings
6 5 6 7 10 11 14 rings

>  <PUBCHEM_HEAVY_ATOM_COUNT>  (1) 
21

>  <PUBCHEM_ATOM_DEF_STEREO_COUNT>  (1) 
0

>  <PUBCHEM_ATOM_UDEF_STEREO_COUNT>  (1) 
0

>  <PUBCHEM_BOND_DEF_STEREO_COUNT>  (1) 
0

>  <PUBCHEM_BOND_UDEF_STEREO_COUNT>  (1) 
0

>  <PUBCHEM_ISOTOPIC_ATOM_COUNT>  (1) 
0

>  <PUBCHEM_COMPONENT_COUNT>  (1) 
1

>  <PUBCHEM_CACTVS_TAUTO_COUNT>  (1) 
3

>  <PUBCHEM_CONFORMER_ID>  (1) 
0000BD3800000001

>  <PUBCHEM_MMFF94_ENERGY>  (1) 
84.9408

>  <PUBCHEM_FEATURE_SELFOVERLAP>  (1) 
45.672

>  <PUBCHEM_SHAPE_FINGERPRINT>  (1) 
10366900 7 17895201008387679499
11543360 7 16081099172928201575
11578080 2 17314770924814208220
12553582 1 18272076228152705005
13140716 1 18196362624423775192
13296908 3 18341612577207929110
13464513 79 18342175600202168126
13533116 47 16487262041226279823
13955234 65 17703789236895659290
14252887 29 18201721755982514968
14787075 74 18263365952803576764
15196674 1 18412265008650496693
15375462 189 18115029584795598497
15635459 17 18412548720993789186
16945 1 18123471570934112752
18186145 218 18188207602688916205
18222031 100 18130497583585309607
200 152 17917992793878989141
20645477 70 18411699915450112631
21033648 29 16916489355959221051
21267235 1 18412271631110129078
2255824 54 18040718095089686612
23557571 272 17313094237752745692
23559900 14 18053379907675953102
239999 70 18410295834732843190
2748010 2 18342171155185589868
2871803 45 18260266351940950435
314173 41 18336266829262882729
34934 24 18341888658069751780
4340502 62 17749105638424651978
465052 167 18342181102651815247
474 4 17168716356861124884
5104073 3 18411980235318238561
54040823 5 18408038532960414146
7364860 26 18271523220732523904
9709674 26 18338238275323841271
9999458 23 18042121123693475804

>  <PUBCHEM_SHAPE_MULTIPOLES>  (1) 
398.73
9.21
2.28
1.25
10.96
0.65
-0.08
-2.85
1.33
-0.74
-0.47
-1.56
-0.76
0.22

>  <PUBCHEM_SHAPE_SELFOVERLAP>  (1) 
849.867

>  <PUBCHEM_SHAPE_VOLUME>  (1) 
220.2

>  <PUBCHEM_COORDINATE_TYPE>  (1) 
2
5
10

$$$$
