48454
     RDKit          3D

 16 16  0  0  1  0  0  0  0  0999 V2000
   -0.3877   -2.1259    0.6774 O   0  0  0  0  0  0  0  0  0  0  0  0
    0.4370    2.3424   -0.2178 O   0  0  0  0  0  0  0  0  0  0  0  0
   -3.6536    0.5639   -1.2421 O   0  0  0  0  0  0  0  0  0  0  0  0
   -2.1303   -0.8029   -0.1180 N   0  0  0  0  0  0  0  0  0  0  0  0
   -1.6271    1.4433   -0.6583 N   0  0  0  0  0  0  0  0  0  0  0  0
   -0.1496    0.2671    0.8868 C   0  0  0  0  0  0  0  0  0  0  0  0
    1.3588    0.0002    1.0101 C   0  0  0  0  0  0  0  0  0  0  0  0
    1.9557   -0.3718   -0.3431 C   0  0  0  0  0  0  0  0  0  0  0  0
    3.4798   -0.5847   -0.2887 C   0  0  0  0  0  0  0  0  0  0  0  0
   -0.8692   -1.0119    0.4633 C   0  0  0  0  0  0  0  0  0  0  0  0
   -0.7026    0.6693    2.2661 C   0  0  0  0  0  0  0  0  0  0  0  0
   -0.3804    1.4376   -0.0548 C   0  0  0  0  0  0  0  0  0  0  0  0
    4.1615    0.6785    0.2435 C   0  0  0  0  0  0  0  0  0  0  0  0
    4.0677   -0.9523   -1.6518 C   0  0  0  0  0  0  0  0  0  0  0  0
   -2.5596    0.4089   -0.6929 C   0  0  0  0  0  0  0  0  0  0  0  0
   -3.0004   -1.9617   -0.2797 C   0  0  0  0  0  0  0  0  0  0  0  0
  1 10  2  0
  2 12  2  0
  3 15  2  0
  4 10  1  0
  4 15  1  0
  4 16  1  0
  5 12  1  0
  5 15  1  0
  6  7  1  0
  6 10  1  0
  6 11  1  0
  6 12  1  0
  7  8  1  0
  8  9  1  0
  9 13  1  0
  9 14  1  0
M  END
>  <PUBCHEM_COMPOUND_CID>  (1) 
48454

>  <PUBCHEM_CONFORMER_RMSD>  (1) 
0.6

>  <PUBCHEM_CONFORMER_DIVERSEORDER>  (1) 
1
10
12
5
9
6
7
8
3
11
4
2

>  <PUBCHEM_MMFF94_PARTIAL_CHARGES>  (1) 
11
1 -0.57
10 0.57
12 0.57
15 0.69
16 0.3
2 -0.57
3 -0.57
31 0.37
4 -0.42
5 -0.49
6 0.12

>  <PUBCHEM_EFFECTIVE_ROTOR_COUNT>  (1) 
3.6

>  <PUBCHEM_PHARMACOPHORE_FEATURES>  (1) 
6
1 1 acceptor
1 2 acceptor
1 3 acceptor
1 5 donor
3 9 13 14 hydrophobe
6 4 5 6 10 12 15 rings

>  <PUBCHEM_HEAVY_ATOM_COUNT>  (1) 
16

>  <PUBCHEM_ATOM_DEF_STEREO_COUNT>  (1) 
0

>  <PUBCHEM_ATOM_UDEF_STEREO_COUNT>  (1) 
1

>  <PUBCHEM_BOND_DEF_STEREO_COUNT>  (1) 
0

>  <PUBCHEM_BOND_UDEF_STEREO_COUNT>  (1) 
0

>  <PUBCHEM_ISOTOPIC_ATOM_COUNT>  (1) 
0

>  <PUBCHEM_COMPONENT_COUNT>  (1) 
1

>  <PUBCHEM_CACTVS_TAUTO_COUNT>  (1) 
3

>  <PUBCHEM_CONFORMER_ID>  (1) 
0000BD4600000001

>  <PUBCHEM_MMFF94_ENERGY>  (1) 
37.5117

>  <PUBCHEM_FEATURE_SELFOVERLAP>  (1) 
30.446

>  <PUBCHEM_SHAPE_FINGERPRINT>  (1) 
10465860 71 18408041827163400244
11127187 94 18412269427829044143
11206711 2 18115013195422183095
12119455 92 12757420653100527051
12251169 10 9799396837404204246
12423570 1 13171009794815243841
12932764 1 18263945267078164290
13024252 1 16153726326547178489
13299463 15 18271520884428083082
14911166 2 18335969909868508669
15775835 57 17095517357799176124
16945 1 18337939109297424953
17834072 14 18410569634877302540
18186145 218 18411139108685378360
19765921 60 16878496826609160041
19868273 293 17894635833630675070
200 152 17346595249429156190
20201158 50 18202561774371335150
20645476 183 17385720292239830787
20871999 31 18334855051974606223
22213442 358 18339920536340042524
22802520 49 18342170046777994266
23402539 116 18334844031468144254
23526113 38 17988626506703899201
23557571 272 18339080496982878952
23559900 14 18411130321783761986
27216 239 12180714783114478582
2748010 2 18045198682662171293
528886 8 18262504936430422865
7364860 26 17909544296122245553
84936 31 17415264298833334440

>  <PUBCHEM_SHAPE_MULTIPOLES>  (1) 
301.7
6.29
1.89
1.43
4.97
0.08
-0.38
1.87
2.85
-0.66
0.08
-0.19
-0.22
0.71

>  <PUBCHEM_SHAPE_SELFOVERLAP>  (1) 
610.403

>  <PUBCHEM_SHAPE_VOLUME>  (1) 
175.5

>  <PUBCHEM_COORDINATE_TYPE>  (1) 
2
5
10

$$$$
