48452
     RDKit          3D

 19 19  0  0  1  0  0  0  0  0999 V2000
    0.9775   -0.2662    2.5212 O   0  0  0  0  0  0  0  0  0  0  0  0
    0.4672   -0.6457   -2.1313 O   0  0  0  0  0  0  0  0  0  0  0  0
    2.0366    3.2343   -0.2503 O   0  0  0  0  0  0  0  0  0  0  0  0
    1.5995    1.4463    1.1273 N   0  0  0  0  0  0  0  0  0  0  0  0
    1.3439    1.2570   -1.1967 N   0  0  0  0  0  0  0  0  0  0  0  0
    1.2335   -0.7807    0.1653 C   0  0  0  0  0  0  0  0  0  0  0  0
   -1.2305   -1.4238    0.5914 C   0  0  0  0  0  0  0  0  0  0  0  0
    0.2174   -1.9140    0.3693 C   0  0  0  0  0  0  0  0  0  0  0  0
   -1.7351   -0.5918   -0.6093 C   0  0  0  0  0  0  0  0  0  0  0  0
   -3.1373    0.0481   -0.4673 C   0  0  0  0  0  0  0  0  0  0  0  0
    2.6477   -1.3787    0.0588 C   0  0  0  0  0  0  0  0  0  0  0  0
   -2.1270   -2.6366    0.8641 C   0  0  0  0  0  0  0  0  0  0  0  0
    1.2267    0.1356    1.3848 C   0  0  0  0  0  0  0  0  0  0  0  0
    0.9479   -0.0715   -1.1546 C   0  0  0  0  0  0  0  0  0  0  0  0
   -3.2521    0.8900    0.8187 C   0  0  0  0  0  0  0  0  0  0  0  0
   -3.4259    0.8856   -1.7206 C   0  0  0  0  0  0  0  0  0  0  0  0
    2.7635   -2.2824   -1.1480 C   0  0  0  0  0  0  0  0  0  0  0  0
   -2.2541    2.0380    0.8945 C   0  0  0  0  0  0  0  0  0  0  0  0
    1.7005    2.0564   -0.1172 C   0  0  0  0  0  0  0  0  0  0  0  0
  1 13  2  0
  2 14  2  0
  3 19  2  0
  4 13  1  0
  4 19  1  0
  5 14  1  0
  5 19  1  0
  6  8  1  0
  6 11  1  0
  6 13  1  0
  6 14  1  0
  7  8  1  0
  7  9  1  0
  7 12  1  0
  9 10  1  0
 10 15  1  0
 10 16  1  0
 11 17  1  0
 15 18  1  0
M  END
>  <PUBCHEM_COMPOUND_CID>  (1) 
48452

>  <PUBCHEM_CONFORMER_RMSD>  (1) 
0.8

>  <PUBCHEM_CONFORMER_DIVERSEORDER>  (1) 
1
8
7
4
12
6
5
11
3
2
9
10

>  <PUBCHEM_MMFF94_PARTIAL_CHARGES>  (1) 
11
1 -0.57
13 0.57
14 0.57
19 0.69
2 -0.57
3 -0.57
39 0.37
4 -0.49
40 0.37
5 -0.49
6 0.12

>  <PUBCHEM_EFFECTIVE_ROTOR_COUNT>  (1) 
6.6

>  <PUBCHEM_PHARMACOPHORE_FEATURES>  (1) 
11
1 1 acceptor
1 12 hydrophobe
1 16 hydrophobe
1 17 hydrophobe
1 18 hydrophobe
1 2 acceptor
1 3 acceptor
1 4 donor
1 5 donor
5 7 8 9 10 15 hydrophobe
6 4 5 6 13 14 19 rings

>  <PUBCHEM_HEAVY_ATOM_COUNT>  (1) 
19

>  <PUBCHEM_ATOM_DEF_STEREO_COUNT>  (1) 
0

>  <PUBCHEM_ATOM_UDEF_STEREO_COUNT>  (1) 
2

>  <PUBCHEM_BOND_DEF_STEREO_COUNT>  (1) 
0

>  <PUBCHEM_BOND_UDEF_STEREO_COUNT>  (1) 
0

>  <PUBCHEM_ISOTOPIC_ATOM_COUNT>  (1) 
0

>  <PUBCHEM_COMPONENT_COUNT>  (1) 
1

>  <PUBCHEM_CACTVS_TAUTO_COUNT>  (1) 
5

>  <PUBCHEM_CONFORMER_ID>  (1) 
0000BD4400000001

>  <PUBCHEM_MMFF94_ENERGY>  (1) 
57.2704

>  <PUBCHEM_FEATURE_SELFOVERLAP>  (1) 
55.957

>  <PUBCHEM_SHAPE_FINGERPRINT>  (1) 
104564 63 17329430541041900023
10863032 1 18338525226172565414
12654903 92 18337399231549783883
12788726 201 17833276320549621150
13132413 78 18125729976164821616
13134695 92 17632002053555322546
13464514 151 18340225045463998436
13693222 7 18188495778030762837
13764800 53 18265624367130453923
14223421 5 18116996795981885955
14250199 8 18341887477075162341
14648413 74 18409168848051646462
14713325 29 15726204453491686998
14817 1 15459411113374900552
16945 1 17678188100479744646
18186145 218 18336814300649768815
18981168 100 18336556005210679987
20233049 118 17751351790113710742
20511035 2 18059850675270562178
20600515 1 18198917902869724670
21330990 113 16769860555395325542
21524375 3 17757265251632602072
21947302 44 18342742948428953957
22802520 49 18199766850062380243
23402539 116 17982453689839231606
23419403 2 17101769220076123480
23557571 272 17828491593510843603
2748010 2 18188778369562132383
350125 39 18262533600979268579
74978 22 18408042896842540615
81228 2 15303630824694801955

>  <PUBCHEM_SHAPE_MULTIPOLES>  (1) 
363.44
4.84
2.91
1.77
3.08
0.87
-0.04
0.19
0.94
-1.03
-0.27
-0.01
-0.01
0.47

>  <PUBCHEM_SHAPE_SELFOVERLAP>  (1) 
730.935

>  <PUBCHEM_SHAPE_VOLUME>  (1) 
211.1

>  <PUBCHEM_COORDINATE_TYPE>  (1) 
2
5
10

$$$$
