48467
     RDKit          3D

 16 16  0  0  1  0  0  0  0  0999 V2000
    0.0835   -1.4552    1.8899 O   0  0  0  0  0  0  0  0  0  0  0  0
   -0.2537    1.4321   -1.7979 O   0  0  0  0  0  0  0  0  0  0  0  0
    3.7402    0.8776    0.3922 O   0  0  0  0  0  0  0  0  0  0  0  0
    1.9315   -0.3646    1.0786 N   0  0  0  0  0  0  0  0  0  0  0  0
    1.7628    1.0783   -0.7632 N   0  0  0  0  0  0  0  0  0  0  0  0
   -0.0747   -0.4884   -0.3284 C   0  0  0  0  0  0  0  0  0  0  0  0
   -1.5885   -0.3720   -0.0988 C   0  0  0  0  0  0  0  0  0  0  0  0
   -1.9253    0.7025    0.9699 C   0  0  0  0  0  0  0  0  0  0  0  0
    0.2067   -1.6672   -1.2773 C   0  0  0  0  0  0  0  0  0  0  0  0
   -2.2958   -0.1621   -1.4403 C   0  0  0  0  0  0  0  0  0  0  0  0
    0.6187   -0.8037    0.9933 C   0  0  0  0  0  0  0  0  0  0  0  0
    0.4345    0.7726   -1.0195 C   0  0  0  0  0  0  0  0  0  0  0  0
   -1.4167    2.1054    0.6272 C   0  0  0  0  0  0  0  0  0  0  0  0
   -3.4288    0.7589    1.2610 C   0  0  0  0  0  0  0  0  0  0  0  0
   -0.3597   -2.9550   -0.7229 C   0  0  0  0  0  0  0  0  0  0  0  0
    2.5653    0.5407    0.2360 C   0  0  0  0  0  0  0  0  0  0  0  0
  1 11  2  0
  2 12  2  0
  3 16  2  0
  4 11  1  0
  4 16  1  0
  5 12  1  0
  5 16  1  0
  6  7  1  0
  6  9  1  0
  6 11  1  0
  6 12  1  0
  7  8  1  0
  7 10  1  0
  8 13  1  0
  8 14  1  0
  9 15  1  0
M  END
>  <PUBCHEM_COMPOUND_CID>  (1) 
48467

>  <PUBCHEM_CONFORMER_RMSD>  (1) 
0.6

>  <PUBCHEM_CONFORMER_DIVERSEORDER>  (1) 
1
3
2

>  <PUBCHEM_MMFF94_PARTIAL_CHARGES>  (1) 
11
1 -0.57
11 0.57
12 0.57
16 0.69
2 -0.57
3 -0.57
33 0.37
34 0.37
4 -0.49
5 -0.49
6 0.12

>  <PUBCHEM_EFFECTIVE_ROTOR_COUNT>  (1) 
3.6

>  <PUBCHEM_PHARMACOPHORE_FEATURES>  (1) 
9
1 1 acceptor
1 10 hydrophobe
1 15 hydrophobe
1 2 acceptor
1 3 acceptor
1 4 donor
1 5 donor
3 8 13 14 hydrophobe
6 4 5 6 11 12 16 rings

>  <PUBCHEM_HEAVY_ATOM_COUNT>  (1) 
16

>  <PUBCHEM_ATOM_DEF_STEREO_COUNT>  (1) 
0

>  <PUBCHEM_ATOM_UDEF_STEREO_COUNT>  (1) 
1

>  <PUBCHEM_BOND_DEF_STEREO_COUNT>  (1) 
0

>  <PUBCHEM_BOND_UDEF_STEREO_COUNT>  (1) 
0

>  <PUBCHEM_ISOTOPIC_ATOM_COUNT>  (1) 
0

>  <PUBCHEM_COMPONENT_COUNT>  (1) 
1

>  <PUBCHEM_CACTVS_TAUTO_COUNT>  (1) 
5

>  <PUBCHEM_CONFORMER_ID>  (1) 
0000BD5300000001

>  <PUBCHEM_MMFF94_ENERGY>  (1) 
61.6067

>  <PUBCHEM_FEATURE_SELFOVERLAP>  (1) 
45.717

>  <PUBCHEM_SHAPE_FINGERPRINT>  (1) 
10863032 1 17561089081060034351
10948715 1 17775013357626624249
12138202 97 16271929311354229853
12326174 3 18115598015254116915
12423570 1 13899046973513429767
12491281 212 18271249421057160240
12808571 1 18412265038593740666
13024252 1 15936670636743937982
144361 1 17972568083550962901
14617773 55 17830457541559241934
14648413 74 17622739613137297105
14713566 1 18195509605332311190
14817 1 12428225578985824599
15309172 13 18410006615919366388
15775835 57 17704077261212017857
16945 1 18410572915862921540
19010151 120 17895469357997113279
19837323 101 17988368164447509339
20379382 53 17911241611447153583
21922407 69 17985246513792601389
22344851 12 10222273544652574893
23236772 104 18410003360328978809
23402539 116 17774148145265620567
23419403 2 17686062695219949702
25 1 14476692853670737745
2748010 2 17533475869242294612
276578 36 17702681955513497027
305870 269 18200038330486610638
430814 3 18340761568219656450
5084963 1 18042401507410506149
63268167 104 18114727309387322272
7364860 26 17841728304648619227
81228 2 17771324650734440203

>  <PUBCHEM_SHAPE_MULTIPOLES>  (1) 
301.7
3.84
2.21
1.63
0.58
1.43
0.02
-2.24
-0.95
-0.24
0.21
-0.24
0.04
-0.45

>  <PUBCHEM_SHAPE_SELFOVERLAP>  (1) 
620.646

>  <PUBCHEM_SHAPE_VOLUME>  (1) 
171.8

>  <PUBCHEM_COORDINATE_TYPE>  (1) 
2
5
10

$$$$
