48469
     RDKit          3D

 16 16  0  0  0  0  0  0  0  0999 V2000
   -0.5608    1.0124    2.0782 O   0  0  0  0  0  0  0  0  0  0  0  0
    0.7006   -2.3707   -0.9242 O   0  0  0  0  0  0  0  0  0  0  0  0
    3.4282    1.2432   -0.1781 O   0  0  0  0  0  0  0  0  0  0  0  0
    1.3863    1.1742    0.8760 N   0  0  0  0  0  0  0  0  0  0  0  0
    2.0161   -0.5153   -0.6243 N   0  0  0  0  0  0  0  0  0  0  0  0
   -0.3074   -0.4506    0.1610 C   0  0  0  0  0  0  0  0  0  0  0  0
   -1.0637    0.2705   -0.9690 C   0  0  0  0  0  0  0  0  0  0  0  0
   -1.2588   -1.4295    0.8643 C   0  0  0  0  0  0  0  0  0  0  0  0
    0.1449    0.6196    1.1495 C   0  0  0  0  0  0  0  0  0  0  0  0
    0.8333   -1.2269   -0.4895 C   0  0  0  0  0  0  0  0  0  0  0  0
   -0.1282    1.2788   -1.6504 C   0  0  0  0  0  0  0  0  0  0  0  0
   -1.5483   -0.7585   -1.9997 C   0  0  0  0  0  0  0  0  0  0  0  0
   -0.5847   -2.0812    2.0506 C   0  0  0  0  0  0  0  0  0  0  0  0
   -2.2290    0.9854   -0.4017 C   0  0  0  0  0  0  0  0  0  0  0  0
    2.3454    0.6824   -0.0012 C   0  0  0  0  0  0  0  0  0  0  0  0
   -3.1739    1.5662    0.0585 C   0  0  0  0  0  0  0  0  0  0  0  0
  1  9  2  0
  2 10  2  0
  3 15  2  0
  4  9  1  0
  4 15  1  0
  5 10  1  0
  5 15  1  0
  6  7  1  0
  6  8  1  0
  6  9  1  0
  6 10  1  0
  7 11  1  0
  7 12  1  0
  7 14  1  0
  8 13  1  0
 14 16  3  0
M  END
>  <PUBCHEM_COMPOUND_CID>  (1) 
48469

>  <PUBCHEM_CONFORMER_RMSD>  (1) 
0.6

>  <PUBCHEM_CONFORMER_DIVERSEORDER>  (1) 
1
4
3
5
2
6

>  <PUBCHEM_MMFF94_PARTIAL_CHARGES>  (1) 
15
1 -0.57
10 0.57
14 -0.2
15 0.69
16 -0.18
2 -0.57
28 0.37
29 0.37
3 -0.57
30 0.18
4 -0.49
5 -0.49
6 0.12
7 0.2
9 0.57

>  <PUBCHEM_EFFECTIVE_ROTOR_COUNT>  (1) 
2.6

>  <PUBCHEM_PHARMACOPHORE_FEATURES>  (1) 
9
1 1 acceptor
1 13 hydrophobe
1 16 hydrophobe
1 2 acceptor
1 3 acceptor
1 4 donor
1 5 donor
3 7 11 12 hydrophobe
6 4 5 6 9 10 15 rings

>  <PUBCHEM_HEAVY_ATOM_COUNT>  (1) 
16

>  <PUBCHEM_ATOM_DEF_STEREO_COUNT>  (1) 
0

>  <PUBCHEM_ATOM_UDEF_STEREO_COUNT>  (1) 
0

>  <PUBCHEM_BOND_DEF_STEREO_COUNT>  (1) 
0

>  <PUBCHEM_BOND_UDEF_STEREO_COUNT>  (1) 
0

>  <PUBCHEM_ISOTOPIC_ATOM_COUNT>  (1) 
0

>  <PUBCHEM_COMPONENT_COUNT>  (1) 
1

>  <PUBCHEM_CACTVS_TAUTO_COUNT>  (1) 
5

>  <PUBCHEM_CONFORMER_ID>  (1) 
0000BD5500000001

>  <PUBCHEM_MMFF94_ENERGY>  (1) 
58.036

>  <PUBCHEM_FEATURE_SELFOVERLAP>  (1) 
45.713

>  <PUBCHEM_SHAPE_FINGERPRINT>  (1) 
10702982 57 16154801661830522678
10863032 1 18408326557788618047
10948715 1 18408323263443479845
12326174 3 17975392638786558343
12423570 1 13718834612581137440
12491281 212 18131634456827826549
13024252 1 14129603523918440508
137420 1 10012766740876794859
141345 1 10875555976198450275
144361 1 15553057506486579797
14817 1 16177834377490699591
15557651 10 18263340560693282741
16945 1 18126571111155169341
19765921 60 18339351977106682809
19837323 101 18338508763262382476
21501502 16 18409720755586205511
22344851 341 18262798458785533467
23419403 2 17835848189388429835
25 1 18341051809166816624
2748010 2 18199772339310146278
353137 74 17489307425775819497
430814 3 18269821060958228093
5084963 1 17685725329743969407
528886 8 17560219358830590181
54276843 12 17901362796087989487
81228 2 17315078989374129435

>  <PUBCHEM_SHAPE_MULTIPOLES>  (1) 
301.7
3.33
2.11
1.84
0.62
1.27
0.08
-2.1
-0.32
-0.25
-0.21
-0.33
0.25
0.32

>  <PUBCHEM_SHAPE_SELFOVERLAP>  (1) 
633.681

>  <PUBCHEM_SHAPE_VOLUME>  (1) 
168.1

>  <PUBCHEM_COORDINATE_TYPE>  (1) 
2
5
10

$$$$
