48464
     RDKit          3D

 18 18  0  0  1  0  0  0  0  0999 V2000
    2.3362    1.9731   -0.9900 O   0  0  0  0  0  0  0  0  0  0  0  0
    0.1450   -0.7857    2.1144 O   0  0  0  0  0  0  0  0  0  0  0  0
    3.3593   -2.4895   -0.6826 O   0  0  0  0  0  0  0  0  0  0  0  0
    2.7754   -0.2767   -0.9021 N   0  0  0  0  0  0  0  0  0  0  0  0
    1.6805   -1.6550    0.6482 N   0  0  0  0  0  0  0  0  0  0  0  0
    0.7547    0.5723    0.2002 C   0  0  0  0  0  0  0  0  0  0  0  0
   -0.3662    0.3125   -0.8221 C   0  0  0  0  0  0  0  0  0  0  0  0
   -1.7200    0.0183   -0.1477 C   0  0  0  0  0  0  0  0  0  0  0  0
    0.3968    1.8051    1.0431 C   0  0  0  0  0  0  0  0  0  0  0  0
   -2.8663   -0.1785   -1.1476 C   0  0  0  0  0  0  0  0  0  0  0  0
   -0.5029    1.5169   -1.7569 C   0  0  0  0  0  0  0  0  0  0  0  0
    2.0275    0.8497   -0.5934 C   0  0  0  0  0  0  0  0  0  0  0  0
    0.8314   -0.6563    1.1009 C   0  0  0  0  0  0  0  0  0  0  0  0
   -4.2149   -0.4975   -0.4738 C   0  0  0  0  0  0  0  0  0  0  0  0
    1.5222    2.1591    1.9889 C   0  0  0  0  0  0  0  0  0  0  0  0
   -4.0883   -1.7732    0.3628 C   0  0  0  0  0  0  0  0  0  0  0  0
   -4.7135    0.6497    0.4059 C   0  0  0  0  0  0  0  0  0  0  0  0
    2.6432   -1.5443   -0.3479 C   0  0  0  0  0  0  0  0  0  0  0  0
  1 12  2  0
  2 13  2  0
  3 18  2  0
  4 12  1  0
  4 18  1  0
  5 13  1  0
  5 18  1  0
  6  7  1  0
  6  9  1  0
  6 12  1  0
  6 13  1  0
  7  8  1  0
  7 11  1  0
  8 10  1  0
  9 15  1  0
 10 14  1  0
 14 16  1  0
 14 17  1  0
M  END
>  <PUBCHEM_COMPOUND_CID>  (1) 
48464

>  <PUBCHEM_CONFORMER_RMSD>  (1) 
0.8

>  <PUBCHEM_CONFORMER_DIVERSEORDER>  (1) 
1
4
2
5
6
3
7

>  <PUBCHEM_MMFF94_PARTIAL_CHARGES>  (1) 
11
1 -0.57
12 0.57
13 0.57
18 0.69
2 -0.57
3 -0.57
33 0.37
34 0.37
4 -0.49
5 -0.49
6 0.12

>  <PUBCHEM_EFFECTIVE_ROTOR_COUNT>  (1) 
5.6

>  <PUBCHEM_PHARMACOPHORE_FEATURES>  (1) 
10
1 1 acceptor
1 11 hydrophobe
1 15 hydrophobe
1 2 acceptor
1 3 acceptor
1 4 donor
1 5 donor
3 14 16 17 hydrophobe
4 7 8 10 14 hydrophobe
6 4 5 6 12 13 18 rings

>  <PUBCHEM_HEAVY_ATOM_COUNT>  (1) 
18

>  <PUBCHEM_ATOM_DEF_STEREO_COUNT>  (1) 
0

>  <PUBCHEM_ATOM_UDEF_STEREO_COUNT>  (1) 
1

>  <PUBCHEM_BOND_DEF_STEREO_COUNT>  (1) 
0

>  <PUBCHEM_BOND_UDEF_STEREO_COUNT>  (1) 
0

>  <PUBCHEM_ISOTOPIC_ATOM_COUNT>  (1) 
0

>  <PUBCHEM_COMPONENT_COUNT>  (1) 
1

>  <PUBCHEM_CACTVS_TAUTO_COUNT>  (1) 
5

>  <PUBCHEM_CONFORMER_ID>  (1) 
0000BD5000000001

>  <PUBCHEM_MMFF94_ENERGY>  (1) 
51.155

>  <PUBCHEM_FEATURE_SELFOVERLAP>  (1) 
50.868

>  <PUBCHEM_SHAPE_FINGERPRINT>  (1) 
11086676 242 15984816004661861706
11961588 58 15141829347651015038
12011746 2 11815901162903474816
12932764 1 18059569261003577765
13296908 3 17967801752822387343
13533116 47 18343017835722917879
13911882 115 17753068351551764427
14178342 30 17980745358007014111
14251745 187 17896325898803355075
16945 1 18261403230111307796
1813 80 17131560444638551222
18186145 218 17967811644016103135
19078846 21 17703799085107859161
19422 9 18411142437490813263
20231682 184 12035738595391968435
20233049 118 15195289784514870041
20339313 130 17989208135628359151
20645477 70 18261661645677956935
23382010 3 16588323660724497014
23402539 116 17385715928832217366
23419403 2 18051940724760354232
23526113 38 18114752619392169097
3060560 45 17022895783153105031
3323516 105 17894639157803662279
394222 165 16485275378000875794
6786 2 17480289515189179536
7364860 26 18130776910482260216
74978 22 17846207912926258647

>  <PUBCHEM_SHAPE_MULTIPOLES>  (1) 
342.86
6.75
2.26
1.64
8.76
0.19
0.34
2.62
-0.53
-1.92
0.36
-0.47
-0.61
0.5

>  <PUBCHEM_SHAPE_SELFOVERLAP>  (1) 
693.128

>  <PUBCHEM_SHAPE_VOLUME>  (1) 
198.4

>  <PUBCHEM_COORDINATE_TYPE>  (1) 
2
5
10

$$$$
