48466
     RDKit          3D

 18 18  0  0  1  0  0  0  0  0999 V2000
   -0.7574   -0.1750   -2.5372 O   0  0  0  0  0  0  0  0  0  0  0  0
   -0.3182   -0.6249    2.1163 O   0  0  0  0  0  0  0  0  0  0  0  0
   -2.8711    2.7346    0.3129 O   0  0  0  0  0  0  0  0  0  0  0  0
   -1.8922    1.2169   -1.1097 N   0  0  0  0  0  0  0  0  0  0  0  0
   -1.6722    0.9925    1.2147 N   0  0  0  0  0  0  0  0  0  0  0  0
   -0.9348   -0.8582   -0.2173 C   0  0  0  0  0  0  0  0  0  0  0  0
    0.3703   -1.6426   -0.4164 C   0  0  0  0  0  0  0  0  0  0  0  0
    1.6227   -0.7494   -0.5517 C   0  0  0  0  0  0  0  0  0  0  0  0
    1.8272    0.1306    0.7021 C   0  0  0  0  0  0  0  0  0  0  0  0
   -2.1204   -1.8396   -0.2001 C   0  0  0  0  0  0  0  0  0  0  0  0
    2.9928    1.1399    0.6415 C   0  0  0  0  0  0  0  0  0  0  0  0
    2.8386   -1.6411   -0.8274 C   0  0  0  0  0  0  0  0  0  0  0  0
   -1.1501    0.0817   -1.3993 C   0  0  0  0  0  0  0  0  0  0  0  0
   -0.9101   -0.1638    1.1408 C   0  0  0  0  0  0  0  0  0  0  0  0
   -2.0127   -2.7978    0.9647 C   0  0  0  0  0  0  0  0  0  0  0  0
    2.8705    2.1009   -0.5416 C   0  0  0  0  0  0  0  0  0  0  0  0
    4.3236    0.3857    0.5569 C   0  0  0  0  0  0  0  0  0  0  0  0
   -2.2064    1.7098    0.1510 C   0  0  0  0  0  0  0  0  0  0  0  0
  1 13  2  0
  2 14  2  0
  3 18  2  0
  4 13  1  0
  4 18  1  0
  5 14  1  0
  5 18  1  0
  6  7  1  0
  6 10  1  0
  6 13  1  0
  6 14  1  0
  7  8  1  0
  8  9  1  0
  8 12  1  0
  9 11  1  0
 10 15  1  0
 11 16  1  0
 11 17  1  0
M  END
>  <PUBCHEM_COMPOUND_CID>  (1) 
48466

>  <PUBCHEM_CONFORMER_RMSD>  (1) 
0.8

>  <PUBCHEM_CONFORMER_DIVERSEORDER>  (1) 
1
3
2
4

>  <PUBCHEM_MMFF94_PARTIAL_CHARGES>  (1) 
11
1 -0.57
13 0.57
14 0.57
18 0.69
2 -0.57
3 -0.57
39 0.37
4 -0.49
40 0.37
5 -0.49
6 0.12

>  <PUBCHEM_EFFECTIVE_ROTOR_COUNT>  (1) 
5.6

>  <PUBCHEM_PHARMACOPHORE_FEATURES>  (1) 
10
1 1 acceptor
1 12 hydrophobe
1 15 hydrophobe
1 2 acceptor
1 3 acceptor
1 4 donor
1 5 donor
3 11 16 17 hydrophobe
4 7 8 9 11 hydrophobe
6 4 5 6 13 14 18 rings

>  <PUBCHEM_HEAVY_ATOM_COUNT>  (1) 
18

>  <PUBCHEM_ATOM_DEF_STEREO_COUNT>  (1) 
0

>  <PUBCHEM_ATOM_UDEF_STEREO_COUNT>  (1) 
1

>  <PUBCHEM_BOND_DEF_STEREO_COUNT>  (1) 
0

>  <PUBCHEM_BOND_UDEF_STEREO_COUNT>  (1) 
0

>  <PUBCHEM_ISOTOPIC_ATOM_COUNT>  (1) 
0

>  <PUBCHEM_COMPONENT_COUNT>  (1) 
1

>  <PUBCHEM_CACTVS_TAUTO_COUNT>  (1) 
5

>  <PUBCHEM_CONFORMER_ID>  (1) 
0000BD5200000001

>  <PUBCHEM_MMFF94_ENERGY>  (1) 
63.7717

>  <PUBCHEM_FEATURE_SELFOVERLAP>  (1) 
51.037

>  <PUBCHEM_SHAPE_FINGERPRINT>  (1) 
10863032 1 18272649008927479661
12403814 3 18057038227569061658
13024252 1 13768190697525547327
13132413 78 17837508697202456747
13299463 15 17488444438102106786
13764800 53 18413388760735912241
14142880 1 18189043351653618236
14614273 12 17988648561587882338
14817 1 13577595433454227895
15557651 10 17533788091473295295
15775835 57 17386265619994872204
16945 1 18261401065411159595
18981168 100 18342192071823878236
20653085 51 18129659677803538189
21296965 12 17988931071466932591
21524375 3 18056753235299140853
23419403 2 17251151292081636183
23557571 272 18189615123501383994
23558518 356 18410856529923542103
25 1 18053665767787522262
2748010 2 18131362894725279910
3286 77 17899981534431561219
74978 22 18338798910221285794
81228 2 17822583797111947995
9999458 23 17978518529307417069

>  <PUBCHEM_SHAPE_MULTIPOLES>  (1) 
342.86
5.26
2.63
1.61
5.26
0.36
-0.31
1.36
0.62
-1.74
0.16
-0.51
-0.13
0.44

>  <PUBCHEM_SHAPE_SELFOVERLAP>  (1) 
693.839

>  <PUBCHEM_SHAPE_VOLUME>  (1) 
197.9

>  <PUBCHEM_COORDINATE_TYPE>  (1) 
2
5
10

$$$$
