48472
     RDKit          3D

 25 27  0  0  0  0  0  0  0  0999 V2000
    0.8488    1.5862    2.3555 O   0  0  0  0  0  0  0  0  0  0  0  0
    0.0665    0.9528   -2.2311 O   0  0  0  0  0  0  0  0  0  0  0  0
   -1.1073    4.8807   -0.1694 O   0  0  0  0  0  0  0  0  0  0  0  0
   -0.2177    3.1925    1.1127 N   0  0  0  0  0  0  0  0  0  0  0  0
   -0.6091    2.8759   -1.1784 N   0  0  0  0  0  0  0  0  0  0  0  0
   -0.0251    0.9264    0.1919 C   0  0  0  0  0  0  0  0  0  0  0  0
    1.0618   -0.1578    0.1563 C   0  0  0  0  0  0  0  0  0  0  0  0
   -1.3823    0.2756    0.5135 C   0  0  0  0  0  0  0  0  0  0  0  0
    0.2751    1.9122    1.3167 C   0  0  0  0  0  0  0  0  0  0  0  0
   -0.1521    1.5665   -1.1869 C   0  0  0  0  0  0  0  0  0  0  0  0
    2.4376    0.4637   -0.0401 C   0  0  0  0  0  0  0  0  0  0  0  0
   -1.7484   -0.7646   -0.5379 C   0  0  0  0  0  0  0  0  0  0  0  0
    3.5102   -0.5947   -0.0717 C   0  0  0  0  0  0  0  0  0  0  0  0
   -3.0725   -1.4129   -0.2244 C   0  0  0  0  0  0  0  0  0  0  0  0
   -0.6903    3.7246   -0.0810 C   0  0  0  0  0  0  0  0  0  0  0  0
    4.1233   -0.9794    1.1117 C   0  0  0  0  0  0  0  0  0  0  0  0
   -3.1028   -2.5559    0.5608 C   0  0  0  0  0  0  0  0  0  0  0  0
    3.8672   -1.1678   -1.2834 C   0  0  0  0  0  0  0  0  0  0  0  0
   -4.2399   -0.8561   -0.7256 C   0  0  0  0  0  0  0  0  0  0  0  0
    5.1158   -1.9591    1.0826 C   0  0  0  0  0  0  0  0  0  0  0  0
   -4.3280   -3.1560    0.8512 C   0  0  0  0  0  0  0  0  0  0  0  0
    4.8597   -2.1475   -1.3123 C   0  0  0  0  0  0  0  0  0  0  0  0
   -5.4652   -1.4562   -0.4350 C   0  0  0  0  0  0  0  0  0  0  0  0
    5.4839   -2.5431   -0.1292 C   0  0  0  0  0  0  0  0  0  0  0  0
   -5.5092   -2.6060    0.3535 C   0  0  0  0  0  0  0  0  0  0  0  0
  1  9  2  0
  2 10  2  0
  3 15  2  0
  4  9  1  0
  4 15  1  0
  5 10  1  0
  5 15  1  0
  6  7  1  0
  6  8  1  0
  6  9  1  0
  6 10  1  0
  7 11  1  0
  8 12  1  0
 11 13  1  0
 12 14  1  0
 13 16  2  0
 13 18  1  0
 14 17  2  0
 14 19  1  0
 16 20  1  0
 17 21  1  0
 18 22  2  0
 19 23  2  0
 20 24  2  0
 21 25  2  0
 22 24  1  0
 23 25  1  0
M  END
>  <PUBCHEM_COMPOUND_CID>  (1) 
48472

>  <PUBCHEM_CONFORMER_RMSD>  (1) 
0.8

>  <PUBCHEM_CONFORMER_DIVERSEORDER>  (1) 
1
6
2
4
5
7
3

>  <PUBCHEM_MMFF94_PARTIAL_CHARGES>  (1) 
35
1 -0.57
10 0.57
11 0.14
12 0.14
13 -0.14
14 -0.14
15 0.69
16 -0.15
17 -0.15
18 -0.15
19 -0.15
2 -0.57
20 -0.15
21 -0.15
22 -0.15
23 -0.15
24 -0.15
25 -0.15
3 -0.57
34 0.37
35 0.37
36 0.15
37 0.15
38 0.15
39 0.15
4 -0.49
40 0.15
41 0.15
42 0.15
43 0.15
44 0.15
45 0.15
5 -0.49
6 0.12
9 0.57

>  <PUBCHEM_EFFECTIVE_ROTOR_COUNT>  (1) 
6.6

>  <PUBCHEM_PHARMACOPHORE_FEATURES>  (1) 
8
1 1 acceptor
1 2 acceptor
1 3 acceptor
1 4 donor
1 5 donor
6 13 16 18 20 22 24 rings
6 14 17 19 21 23 25 rings
6 4 5 6 9 10 15 rings

>  <PUBCHEM_HEAVY_ATOM_COUNT>  (1) 
25

>  <PUBCHEM_ATOM_DEF_STEREO_COUNT>  (1) 
0

>  <PUBCHEM_ATOM_UDEF_STEREO_COUNT>  (1) 
0

>  <PUBCHEM_BOND_DEF_STEREO_COUNT>  (1) 
0

>  <PUBCHEM_BOND_UDEF_STEREO_COUNT>  (1) 
0

>  <PUBCHEM_ISOTOPIC_ATOM_COUNT>  (1) 
0

>  <PUBCHEM_COMPONENT_COUNT>  (1) 
1

>  <PUBCHEM_CACTVS_TAUTO_COUNT>  (1) 
5

>  <PUBCHEM_CONFORMER_ID>  (1) 
0000BD5800000001

>  <PUBCHEM_MMFF94_ENERGY>  (1) 
74.117

>  <PUBCHEM_FEATURE_SELFOVERLAP>  (1) 
40.638

>  <PUBCHEM_SHAPE_FINGERPRINT>  (1) 
10692045 39 8934456060186470092
10721379 63 17751660954760605164
10764073 3 17488191396057335633
107951 10 17694778519667168300
11809386 21 18192712237973727802
12516196 113 18411136982371118486
12549972 3 17557120824048846826
12760667 363 18340765953397681006
12788726 201 18335146367048673282
13004483 165 18412823594637440638
13052359 8 18122342380935044037
13134695 92 18268706289469866085
13533116 47 17976261554517576219
13544653 18 18343866640543537638
13631057 29 18336827499190426946
13673619 4 17274279266265063534
13955234 65 17761785357114242345
14866123 147 18195247715860112123
15042514 8 18339646629354326169
15664445 248 18193564599845160820
17492 89 18340205177451948958
1813 80 18341339971359972175
193927 3 18412553114872518254
21120745 212 18338817636194658004
21703447 108 18411411826714506800
23559900 14 18191581059720539059
2838139 119 8790887350363736498
3004659 81 17967813860214589750
3027735 51 18265615368663103866
3380486 145 17129547277487448800
3421961 26 18269271438040231027
38695281 34 17329144083988340648
437815 12 18411130351474272815
4409770 3 18118962495492965549
463206 1 18261109733184675723
59755656 520 17833546791413684476
6442390 28 16536245640551470633
77188 2 18411138082009541701
79837 15 17765436448224606840

>  <PUBCHEM_SHAPE_MULTIPOLES>  (1) 
486.92
11.35
4.84
1.49
0.96
5.38
0.03
-17.36
-0.2
-2.36
0.44
0.84
0.41
0.96

>  <PUBCHEM_SHAPE_SELFOVERLAP>  (1) 
1050.72

>  <PUBCHEM_SHAPE_VOLUME>  (1) 
263.3

>  <PUBCHEM_COORDINATE_TYPE>  (1) 
2
5
10

$$$$
