48487
     RDKit          3D

 32 34  0  0  0  0  0  0  0  0999 V2000
   -3.4615    2.2290   -1.9897 O   0  0  0  0  0  0  0  0  0  0  0  0
   -1.2659   -3.3918   -0.9101 O   0  0  0  0  0  0  0  0  0  0  0  0
   -2.4206    2.9250   -0.0426 O   0  0  0  0  0  0  0  0  0  0  0  0
   -0.2919   -2.5677    1.0215 O   0  0  0  0  0  0  0  0  0  0  0  0
    2.9346    1.9637    1.0522 N   0  0  0  0  0  0  0  0  0  0  0  0
   -4.4618   -0.9642    0.8215 N   0  0  0  0  0  0  0  0  0  0  0  0
    1.6696    1.3916    0.6474 C   0  0  0  0  0  0  0  0  0  0  0  0
    4.0165    0.9297    1.4969 C   0  0  0  0  0  0  0  0  0  0  0  0
   -2.0760   -0.2998   -0.5510 C   0  0  0  0  0  0  0  0  0  0  0  0
    2.7704    2.9220    2.2659 C   0  0  0  0  0  0  0  0  0  0  0  0
    3.5979    2.7682   -0.1019 C   0  0  0  0  0  0  0  0  0  0  0  0
   -0.7617    0.2932   -0.1307 C   0  0  0  0  0  0  0  0  0  0  0  0
    0.6645    1.1824    1.5918 C   0  0  0  0  0  0  0  0  0  0  0  0
    1.4542    1.0497   -0.6877 C   0  0  0  0  0  0  0  0  0  0  0  0
   -3.2077    0.7036   -0.2955 C   0  0  0  0  0  0  0  0  0  0  0  0
   -2.2945   -1.6408    0.1565 C   0  0  0  0  0  0  0  0  0  0  0  0
   -0.5558    0.6309    1.2013 C   0  0  0  0  0  0  0  0  0  0  0  0
    0.2337    0.4985   -1.0782 C   0  0  0  0  0  0  0  0  0  0  0  0
    4.3745   -0.0479    0.4167 C   0  0  0  0  0  0  0  0  0  0  0  0
   -4.3369    0.3341    0.3511 C   0  0  0  0  0  0  0  0  0  0  0  0
   -3.4628   -1.9230    0.7758 C   0  0  0  0  0  0  0  0  0  0  0  0
    3.6693   -1.2413    0.3063 C   0  0  0  0  0  0  0  0  0  0  0  0
    5.4087    0.2476   -0.4647 C   0  0  0  0  0  0  0  0  0  0  0  0
   -2.9710    2.0884   -0.7346 C   0  0  0  0  0  0  0  0  0  0  0  0
   -1.1568   -2.5746    0.1650 C   0  0  0  0  0  0  0  0  0  0  0  0
   -5.5222    1.2219    0.6185 C   0  0  0  0  0  0  0  0  0  0  0  0
   -3.7998   -3.2241    1.4524 C   0  0  0  0  0  0  0  0  0  0  0  0
    4.0025   -2.1503   -0.6979 C   0  0  0  0  0  0  0  0  0  0  0  0
    5.7417   -0.6613   -1.4690 C   0  0  0  0  0  0  0  0  0  0  0  0
    5.0385   -1.8602   -1.5858 C   0  0  0  0  0  0  0  0  0  0  0  0
   -3.3048    3.5324   -2.5602 C   0  0  0  0  0  0  0  0  0  0  0  0
   -0.2244   -4.3648   -1.0412 C   0  0  0  0  0  0  0  0  0  0  0  0
  1 24  1  0
  1 31  1  0
  2 25  1  0
  2 32  1  0
  3 24  2  0
  4 25  2  0
  5  7  1  0
  5  8  1  0
  5 10  1  0
  5 11  1  0
  6 20  1  0
  6 21  1  0
  7 13  2  0
  7 14  1  0
  8 19  1  0
  9 12  1  0
  9 15  1  0
  9 16  1  0
 12 17  2  0
 12 18  1  0
 13 17  1  0
 14 18  2  0
 15 20  2  0
 15 24  1  0
 16 21  2  0
 16 25  1  0
 19 22  2  0
 19 23  1  0
 20 26  1  0
 21 27  1  0
 22 28  1  0
 23 29  2  0
 28 30  2  0
 29 30  1  0
M  CHG  1   5   1
M  END
>  <PUBCHEM_COMPOUND_CID>  (1) 
48487

>  <PUBCHEM_CONFORMER_RMSD>  (1) 
1

>  <PUBCHEM_CONFORMER_DIVERSEORDER>  (1) 
4
22
28
25
27
3
9
19
14
12
8
20
11
26
16
18
17
13
21
10
5
15
7
23
24
6
1
2

>  <PUBCHEM_MMFF94_PARTIAL_CHARGES>  (1) 
42
1 -0.43
10 0.5
11 0.5
12 -0.14
13 -0.15
14 -0.15
15 -0.12
16 -0.12
17 -0.15
18 -0.15
19 -0.14
2 -0.43
20 -0.04
21 -0.04
22 -0.15
23 -0.15
24 0.71
25 0.71
26 0.14
27 0.14
28 -0.15
29 -0.15
3 -0.57
30 -0.15
31 0.28
32 0.28
4 -0.57
42 0.15
43 0.15
44 0.15
45 0.15
46 0.4
47 0.15
48 0.15
5 -0.87
55 0.15
56 0.15
57 0.15
6 -0.6
7 0.36
8 0.65
9 0.42

>  <PUBCHEM_EFFECTIVE_ROTOR_COUNT>  (1) 
8.4

>  <PUBCHEM_PHARMACOPHORE_FEATURES>  (1) 
8
1 3 acceptor
1 4 acceptor
1 5 cation
1 6 cation
1 6 donor
6 19 22 23 28 29 30 rings
6 6 9 15 16 20 21 rings
6 7 12 13 14 17 18 rings

>  <PUBCHEM_HEAVY_ATOM_COUNT>  (1) 
32

>  <PUBCHEM_ATOM_DEF_STEREO_COUNT>  (1) 
0

>  <PUBCHEM_ATOM_UDEF_STEREO_COUNT>  (1) 
0

>  <PUBCHEM_BOND_DEF_STEREO_COUNT>  (1) 
0

>  <PUBCHEM_BOND_UDEF_STEREO_COUNT>  (1) 
0

>  <PUBCHEM_ISOTOPIC_ATOM_COUNT>  (1) 
0

>  <PUBCHEM_COMPONENT_COUNT>  (1) 
1

>  <PUBCHEM_CACTVS_TAUTO_COUNT>  (1) 
2

>  <PUBCHEM_CONFORMER_ID>  (1) 
0000BD6700000004

>  <PUBCHEM_MMFF94_ENERGY>  (1) 
117.4501

>  <PUBCHEM_FEATURE_SELFOVERLAP>  (1) 
40.596

>  <PUBCHEM_SHAPE_FINGERPRINT>  (1) 
10165383 225 18264499377978990373
105312 117 17969210140827917773
10675989 125 17039787270921380132
11112241 14 16987133111293427474
11370993 144 18201439211649040897
12422481 6 18193302838942230995
12553582 1 17686615053736552275
12596602 18 12750941206179073902
13140716 1 18410583894353588547
13402501 40 18341339919857547671
13583140 156 17987508389647542560
13617811 41 17821729464087513663
13642711 20 18056479448092624351
13690498 29 18337401551428197206
13782708 43 18272373122331397279
14251751 93 18260544502829258401
14251757 17 18341613681331275874
144659 178 14668911056801958096
14910302 57 18339077197899609709
15361156 5 18340773735893648324
17349148 13 16056593244868052380
1813 80 17241320416451097508
18608769 82 18262809569718352122
19315092 285 14547311127153868622
21033648 29 18338780252525247129
21033650 10 17605005723680190476
23559900 14 18411983598114347080
3298306 158 18266451006079189439
350125 39 18336271146005734449
3729539 64 18197501718728587758
4015057 19 17774425161940086304
460360 51 17605811669380678210
46194498 28 18334863865727870276
508706 21 18335135397396075495
5265222 85 18265350545859512982
59755656 215 18336265635583500423
6823239 73 18341617036275656066
7399639 24 17337013258769578800
9709674 26 18271801389011288170

>  <PUBCHEM_SHAPE_MULTIPOLES>  (1) 
625.11
11.51
4.55
1.8
5.95
2.14
0.26
-0.46
1.35
-2.32
0.89
0.07
-1.09
3.9

>  <PUBCHEM_SHAPE_SELFOVERLAP>  (1) 
1333.985

>  <PUBCHEM_SHAPE_VOLUME>  (1) 
348.1

>  <PUBCHEM_COORDINATE_TYPE>  (1) 
2
5
10

$$$$
