48495
     RDKit          3D

 26 27  0  0  0  0  0  0  0  0999 V2000
   -1.6629    3.0674   -1.4223 O   0  0  0  0  0  0  0  0  0  0  0  0
   -1.6587   -3.0628   -1.4235 O   0  0  0  0  0  0  0  0  0  0  0  0
   -0.2175    2.9904    0.3844 O   0  0  0  0  0  0  0  0  0  0  0  0
   -0.2276   -2.9956    0.3949 O   0  0  0  0  0  0  0  0  0  0  0  0
    4.4586   -0.0008    0.4099 N   0  0  0  0  0  0  0  0  0  0  0  0
   -3.4683    0.0010    1.1150 N   0  0  0  0  0  0  0  0  0  0  0  0
   -1.1856   -0.0007   -0.5602 C   0  0  0  0  0  0  0  0  0  0  0  0
    0.2946   -0.0008   -0.3058 C   0  0  0  0  0  0  0  0  0  0  0  0
    3.0334   -0.0008    0.1649 C   0  0  0  0  0  0  0  0  0  0  0  0
   -1.8132    1.2791    0.0063 C   0  0  0  0  0  0  0  0  0  0  0  0
   -1.8135   -1.2772    0.0081 C   0  0  0  0  0  0  0  0  0  0  0  0
    5.1481    1.2502   -0.2054 C   0  0  0  0  0  0  0  0  0  0  0  0
    5.1451   -1.2627   -0.1863 C   0  0  0  0  0  0  0  0  0  0  0  0
    4.8714    0.0098    1.9155 C   0  0  0  0  0  0  0  0  0  0  0  0
    1.1758   -0.0014   -1.3801 C   0  0  0  0  0  0  0  0  0  0  0  0
    0.7667   -0.0001    1.0011 C   0  0  0  0  0  0  0  0  0  0  0  0
   -2.9149    1.2300    0.7897 C   0  0  0  0  0  0  0  0  0  0  0  0
   -2.9211   -1.2275    0.7818 C   0  0  0  0  0  0  0  0  0  0  0  0
    2.5505   -0.0015   -1.1437 C   0  0  0  0  0  0  0  0  0  0  0  0
    2.1415    0.0000    1.2372 C   0  0  0  0  0  0  0  0  0  0  0  0
   -1.1207    2.5419   -0.2973 C   0  0  0  0  0  0  0  0  0  0  0  0
   -1.1233   -2.5418   -0.2932 C   0  0  0  0  0  0  0  0  0  0  0  0
   -3.6342    2.4208    1.3633 C   0  0  0  0  0  0  0  0  0  0  0  0
   -3.6463   -2.4195    1.3451 C   0  0  0  0  0  0  0  0  0  0  0  0
   -1.0900    4.3073   -1.8502 C   0  0  0  0  0  0  0  0  0  0  0  0
   -1.0878   -4.3045   -1.8491 C   0  0  0  0  0  0  0  0  0  0  0  0
  1 21  1  0
  1 25  1  0
  2 22  1  0
  2 26  1  0
  3 21  2  0
  4 22  2  0
  5  9  1  0
  5 12  1  0
  5 13  1  0
  5 14  1  0
  6 17  1  0
  6 18  1  0
  7  8  1  0
  7 10  1  0
  7 11  1  0
  8 15  2  0
  8 16  1  0
  9 19  2  0
  9 20  1  0
 10 17  2  0
 10 21  1  0
 11 18  2  0
 11 22  1  0
 15 19  1  0
 16 20  2  0
 17 23  1  0
 18 24  1  0
M  CHG  1   5   1
M  END
>  <PUBCHEM_COMPOUND_CID>  (1) 
48495

>  <PUBCHEM_CONFORMER_RMSD>  (1) 
0.8

>  <PUBCHEM_CONFORMER_DIVERSEORDER>  (1) 
1
4
2
3

>  <PUBCHEM_MMFF94_PARTIAL_CHARGES>  (1) 
31
1 -0.43
10 -0.12
11 -0.12
12 0.5
13 0.5
14 0.5
15 -0.15
16 -0.15
17 -0.04
18 -0.04
19 -0.15
2 -0.43
20 -0.15
21 0.71
22 0.71
23 0.14
24 0.14
25 0.28
26 0.28
3 -0.57
37 0.15
38 0.15
39 0.15
4 -0.57
40 0.15
41 0.4
5 -0.87
6 -0.6
7 0.42
8 -0.14
9 0.36

>  <PUBCHEM_EFFECTIVE_ROTOR_COUNT>  (1) 
6.4

>  <PUBCHEM_PHARMACOPHORE_FEATURES>  (1) 
7
1 3 acceptor
1 4 acceptor
1 5 cation
1 6 cation
1 6 donor
6 6 7 10 11 17 18 rings
6 8 9 15 16 19 20 rings

>  <PUBCHEM_HEAVY_ATOM_COUNT>  (1) 
26

>  <PUBCHEM_ATOM_DEF_STEREO_COUNT>  (1) 
0

>  <PUBCHEM_ATOM_UDEF_STEREO_COUNT>  (1) 
0

>  <PUBCHEM_BOND_DEF_STEREO_COUNT>  (1) 
0

>  <PUBCHEM_BOND_UDEF_STEREO_COUNT>  (1) 
0

>  <PUBCHEM_ISOTOPIC_ATOM_COUNT>  (1) 
0

>  <PUBCHEM_COMPONENT_COUNT>  (1) 
1

>  <PUBCHEM_CACTVS_TAUTO_COUNT>  (1) 
2

>  <PUBCHEM_CONFORMER_ID>  (1) 
0000BD6F00000001

>  <PUBCHEM_MMFF94_ENERGY>  (1) 
93.7446

>  <PUBCHEM_FEATURE_SELFOVERLAP>  (1) 
35.52

>  <PUBCHEM_SHAPE_FINGERPRINT>  (1) 
10165383 225 18127701434878937817
11552529 35 17773877691360042602
11595378 159 18114167658406894704
12236239 1 17748831829642733211
12553582 1 18193273220499486726
12633257 1 17488476341008970907
12788726 201 18260828237359712962
13140716 1 18337122232303880049
13583140 156 18057297597229749792
13681431 1 17473526427455678055
14178342 30 18196679353245912337
14420673 8 18048600318505342282
15042514 8 18335710437655996219
15230672 131 17684373850626272182
15420108 30 18130231441858604259
1813 80 18119807156007631370
20600515 1 18200605811883938177
21033648 29 17846499231572308657
22112679 90 18189063138583405028
22182313 1 17393905959373390189
23366157 5 17395016895149553581
23402539 116 18271518788658395615
23419403 2 16398526191445045823
23557571 272 18129677390871392924
23559900 14 18200886054822207278
23598288 3 18188193313601572314
238 59 17400904320576430757
2748010 2 18197522674227446407
350125 39 17471310456707867569
5104073 3 18410290307684797600
5265222 85 18198925737475674470
59554788 191 18336837502274085143
81228 2 18267854172021334555
90316 7 18260274035817369245
9862522 239 18117827820413457998
9981440 41 17906144288325914032

>  <PUBCHEM_SHAPE_MULTIPOLES>  (1) 
501.63
8.13
4.59
1.66
11.86
0
-0.19
-0.01
3.6
-5.08
-2.89
-0.17
0.01
0

>  <PUBCHEM_SHAPE_SELFOVERLAP>  (1) 
1052.333

>  <PUBCHEM_SHAPE_VOLUME>  (1) 
285.4

>  <PUBCHEM_COORDINATE_TYPE>  (1) 
2
5
10

$$$$
