4849
     RDKit          3D

 25 27  0  0  0  0  0  0  0  0999 V2000
   -0.4451   -2.8833   -0.8600 S   0  0  0  0  0  0  0  0  0  0  0  0
    1.0999   -0.3220   -1.0349 O   0  0  0  0  0  0  0  0  0  0  0  0
   -1.5941   -3.7105   -1.1960 O   0  0  0  0  0  0  0  0  0  0  0  0
    0.6620   -2.7635   -1.7966 O   0  0  0  0  0  0  0  0  0  0  0  0
   -4.4886    1.6283    0.9924 O   0  0  0  0  0  0  0  0  0  0  0  0
   -5.0059   -0.5822    0.8815 O   0  0  0  0  0  0  0  0  0  0  0  0
    0.1812    2.2597   -0.4209 N   0  0  0  0  0  0  0  0  0  0  0  0
    0.1672   -3.3761    0.6564 N   0  0  0  0  0  0  0  0  0  0  0  0
    0.0633    3.4591    0.4048 C   0  0  0  0  0  0  0  0  0  0  0  0
    1.2676    2.3773   -1.3904 C   0  0  0  0  0  0  0  0  0  0  0  0
    1.3425    4.2365    0.1029 C   0  0  0  0  0  0  0  0  0  0  0  0
    1.6466    3.8555   -1.3355 C   0  0  0  0  0  0  0  0  0  0  0  0
   -0.6314    1.1531   -0.2992 C   0  0  0  0  0  0  0  0  0  0  0  0
   -0.1858   -0.1656   -0.6052 C   0  0  0  0  0  0  0  0  0  0  0  0
   -1.9792    1.2688    0.1454 C   0  0  0  0  0  0  0  0  0  0  0  0
   -1.0203   -1.2760   -0.4768 C   0  0  0  0  0  0  0  0  0  0  0  0
   -2.8136    0.1586    0.2738 C   0  0  0  0  0  0  0  0  0  0  0  0
   -2.3341   -1.1139   -0.0371 C   0  0  0  0  0  0  0  0  0  0  0  0
   -4.1835    0.3275    0.7320 C   0  0  0  0  0  0  0  0  0  0  0  0
    2.0732   -0.5394   -0.0765 C   0  0  0  0  0  0  0  0  0  0  0  0
    1.7083   -0.5886    1.2576 C   0  0  0  0  0  0  0  0  0  0  0  0
    3.3886   -0.7021   -0.4748 C   0  0  0  0  0  0  0  0  0  0  0  0
    2.6900   -0.8071    2.2241 C   0  0  0  0  0  0  0  0  0  0  0  0
    4.3702   -0.9207    0.4917 C   0  0  0  0  0  0  0  0  0  0  0  0
    4.0209   -0.9732    1.8412 C   0  0  0  0  0  0  0  0  0  0  0  0
  1  3  2  0
  1  4  2  0
  1  8  1  0
  1 16  1  0
  2 14  1  0
  2 20  1  0
  5 19  1  0
  6 19  2  0
  7  9  1  0
  7 10  1  0
  7 13  1  0
  9 11  1  0
 10 12  1  0
 11 12  1  0
 13 14  1  0
 13 15  2  0
 14 16  2  0
 15 17  1  0
 16 18  1  0
 17 18  2  0
 17 19  1  0
 20 21  2  0
 20 22  1  0
 21 23  1  0
 22 24  2  0
 23 25  2  0
 24 25  1  0
M  END
>  <PUBCHEM_COMPOUND_CID>  (1) 
4849

>  <PUBCHEM_CONFORMER_RMSD>  (1) 
0.8

>  <PUBCHEM_CONFORMER_DIVERSEORDER>  (1) 
1
6
3
4
2
5

>  <PUBCHEM_MMFF94_PARTIAL_CHARGES>  (1) 
33
1 1.45
10 0.37
13 0.1
14 0.08
15 -0.15
16 -0.01
17 0.09
18 -0.15
19 0.63
2 -0.17
20 0.08
21 -0.15
22 -0.15
23 -0.15
24 -0.15
25 -0.15
3 -0.65
34 0.15
35 0.15
36 0.42
37 0.42
38 0.15
39 0.15
4 -0.65
40 0.15
41 0.15
42 0.5
43 0.15
5 -0.65
6 -0.57
7 -0.84
8 -0.98
9 0.37

>  <PUBCHEM_EFFECTIVE_ROTOR_COUNT>  (1) 
6

>  <PUBCHEM_PHARMACOPHORE_FEATURES>  (1) 
11
1 2 acceptor
1 3 acceptor
1 4 acceptor
1 5 acceptor
1 6 acceptor
1 7 cation
1 8 donor
3 5 6 19 anion
5 7 9 10 11 12 rings
6 13 14 15 16 17 18 rings
6 20 21 22 23 24 25 rings

>  <PUBCHEM_HEAVY_ATOM_COUNT>  (1) 
25

>  <PUBCHEM_ATOM_DEF_STEREO_COUNT>  (1) 
0

>  <PUBCHEM_ATOM_UDEF_STEREO_COUNT>  (1) 
0

>  <PUBCHEM_BOND_DEF_STEREO_COUNT>  (1) 
0

>  <PUBCHEM_BOND_UDEF_STEREO_COUNT>  (1) 
0

>  <PUBCHEM_ISOTOPIC_ATOM_COUNT>  (1) 
0

>  <PUBCHEM_COMPONENT_COUNT>  (1) 
1

>  <PUBCHEM_CACTVS_TAUTO_COUNT>  (1) 
1

>  <PUBCHEM_CONFORMER_ID>  (1) 
000012F100000001

>  <PUBCHEM_MMFF94_ENERGY>  (1) 
79.8836

>  <PUBCHEM_FEATURE_SELFOVERLAP>  (1) 
55.909

>  <PUBCHEM_SHAPE_FINGERPRINT>  (1) 
10162869 55 18342457003689624457
10165383 225 17917426472197061650
107951 10 17103440666644690652
1100329 8 18338240482446115658
11578080 2 17461127084679447452
12553582 1 18335691733305504522
12633257 1 18189071866716456835
12788726 201 18188494545649351896
13140716 1 18338525256648741355
133893 2 17463662627386758264
13583140 156 17749379404204305659
14022347 108 18336842896241780350
14178342 30 18198915716904989577
14223421 5 17692249638427511266
14713325 29 17762062034734075102
14787075 74 17749116594991803568
14790565 3 18339940237429655364
14943834 7 17979064208753924135
14955137 171 18336840731103399027
15475509 35 17168444739250895745
15513586 35 16323075435915414352
1601671 61 18338524014970896873
16945 1 18200861881928464086
17980427 23 17916289696863332796
19319366 153 17749962158468096210
20028762 73 18130786819795628895
20600515 1 18343863320850283484
20723712 36 18340775857660356737
20739085 24 17981913855642169699
20905425 154 17693946597312618020
21033648 29 17917418788194413153
21421861 104 17832422377460096155
22182313 1 17978232656336722285
229495 10 17458615731639415934
23366157 5 17970066862091395933
23419403 2 16474234056174969916
23558518 356 17397838250597609836
23598288 3 17680680676270579810
25147074 1 18126000714097923415
2748010 2 17907300953525953575
34934 24 18335989782735051596
394222 165 18118140270626456993
465052 167 18114473314023094891
484985 159 14569246259299706754
5104073 3 18192171454773153457
5265222 85 18270683061881719510
59554788 170 18125727781616479470
59554788 191 18334854970666023045
7097593 13 18265042716525623616
81228 2 17982693585306238294
90316 7 18264184960164516088
9981440 41 16971337260865794856

>  <PUBCHEM_SHAPE_MULTIPOLES>  (1) 
479.03
6.56
4.88
1.55
3.46
3.17
-0.23
-1.31
-3.75
-1.17
1.78
-0.91
-0.48
-1.54

>  <PUBCHEM_SHAPE_SELFOVERLAP>  (1) 
1027.311

>  <PUBCHEM_SHAPE_VOLUME>  (1) 
264.8

>  <PUBCHEM_COORDINATE_TYPE>  (1) 
2
5
10

$$$$
