48491
     RDKit          3D

 30 31  0  0  0  0  0  0  0  0999 V2000
    3.8397    1.6523    1.4599 O   0  0  0  0  0  0  0  0  0  0  0  0
   -0.1471   -3.1004    0.3601 O   0  0  0  0  0  0  0  0  0  0  0  0
    3.4177    2.6736   -0.5743 O   0  0  0  0  0  0  0  0  0  0  0  0
    1.0166   -2.6489    2.3098 O   0  0  0  0  0  0  0  0  0  0  0  0
   -3.0027    2.5331   -0.2774 N   0  0  0  0  0  0  0  0  0  0  0  0
    3.2857   -1.6059   -1.5536 N   0  0  0  0  0  0  0  0  0  0  0  0
   -4.1769    1.6739   -0.8435 C   0  0  0  0  0  0  0  0  0  0  0  0
   -1.7643    1.8166   -0.0676 C   0  0  0  0  0  0  0  0  0  0  0  0
   -4.2482    0.3257   -0.1365 C   0  0  0  0  0  0  0  0  0  0  0  0
   -2.8286    3.6970   -1.2943 C   0  0  0  0  0  0  0  0  0  0  0  0
   -3.5495    3.1377    1.0473 C   0  0  0  0  0  0  0  0  0  0  0  0
    1.9159   -0.3020    0.5537 C   0  0  0  0  0  0  0  0  0  0  0  0
   -5.3657   -0.6150   -0.6006 C   0  0  0  0  0  0  0  0  0  0  0  0
    0.6269    0.4379    0.3366 C   0  0  0  0  0  0  0  0  0  0  0  0
   -1.1298    1.1915   -1.1410 C   0  0  0  0  0  0  0  0  0  0  0  0
   -1.2033    1.7524    1.2080 C   0  0  0  0  0  0  0  0  0  0  0  0
    0.0659    0.5021   -0.9388 C   0  0  0  0  0  0  0  0  0  0  0  0
   -0.0077    1.0631    1.4100 C   0  0  0  0  0  0  0  0  0  0  0  0
    3.0386    0.3558   -0.2546 C   0  0  0  0  0  0  0  0  0  0  0  0
    1.7285   -1.7873    0.2196 C   0  0  0  0  0  0  0  0  0  0  0  0
   -5.4277   -1.9221    0.1900 C   0  0  0  0  0  0  0  0  0  0  0  0
    3.6447   -0.2980   -1.2709 C   0  0  0  0  0  0  0  0  0  0  0  0
    2.3935   -2.3620   -0.8086 C   0  0  0  0  0  0  0  0  0  0  0  0
   -6.5551   -2.8160   -0.3038 C   0  0  0  0  0  0  0  0  0  0  0  0
    3.4479    1.7063    0.1640 C   0  0  0  0  0  0  0  0  0  0  0  0
    0.8418   -2.5551    1.1089 C   0  0  0  0  0  0  0  0  0  0  0  0
    4.7171    0.2722   -2.1592 C   0  0  0  0  0  0  0  0  0  0  0  0
    2.2550   -3.7944   -1.2484 C   0  0  0  0  0  0  0  0  0  0  0  0
    4.2697    2.8989    2.0165 C   0  0  0  0  0  0  0  0  0  0  0  0
   -1.0986   -3.8832    1.0887 C   0  0  0  0  0  0  0  0  0  0  0  0
  1 25  1  0
  1 29  1  0
  2 26  1  0
  2 30  1  0
  3 25  2  0
  4 26  2  0
  5  7  1  0
  5  8  1  0
  5 10  1  0
  5 11  1  0
  6 22  1  0
  6 23  1  0
  7  9  1  0
  8 15  2  0
  8 16  1  0
  9 13  1  0
 12 14  1  0
 12 19  1  0
 12 20  1  0
 13 21  1  0
 14 17  2  0
 14 18  1  0
 15 17  1  0
 16 18  2  0
 19 22  2  0
 19 25  1  0
 20 23  2  0
 20 26  1  0
 21 24  1  0
 22 27  1  0
 23 28  1  0
M  CHG  1   5   1
M  END
>  <PUBCHEM_COMPOUND_CID>  (1) 
48491

>  <PUBCHEM_CONFORMER_RMSD>  (1) 
1

>  <PUBCHEM_CONFORMER_DIVERSEORDER>  (1) 
1
35
14
54
13
32
16
36
9
24
38
50
22
49
3
33
21
42
15
52
37
46
55
39
27
26
53
10
29
43
11
8
51
7
18
45
47
23
28
48
44
17
41
12
31
40
30
34
6
20
5
19
4
25
2

>  <PUBCHEM_MMFF94_PARTIAL_CHARGES>  (1) 
31
1 -0.43
10 0.5
11 0.5
12 0.42
14 -0.14
15 -0.15
16 -0.15
17 -0.15
18 -0.15
19 -0.12
2 -0.43
20 -0.12
22 -0.04
23 -0.04
25 0.71
26 0.71
27 0.14
28 0.14
29 0.28
3 -0.57
30 0.28
4 -0.57
44 0.15
45 0.15
46 0.15
47 0.15
5 -0.87
50 0.4
6 -0.6
7 0.5
8 0.36

>  <PUBCHEM_EFFECTIVE_ROTOR_COUNT>  (1) 
10.4

>  <PUBCHEM_PHARMACOPHORE_FEATURES>  (1) 
8
1 24 hydrophobe
1 3 acceptor
1 4 acceptor
1 5 cation
1 6 cation
1 6 donor
6 6 12 19 20 22 23 rings
6 8 14 15 16 17 18 rings

>  <PUBCHEM_HEAVY_ATOM_COUNT>  (1) 
30

>  <PUBCHEM_ATOM_DEF_STEREO_COUNT>  (1) 
0

>  <PUBCHEM_ATOM_UDEF_STEREO_COUNT>  (1) 
0

>  <PUBCHEM_BOND_DEF_STEREO_COUNT>  (1) 
0

>  <PUBCHEM_BOND_UDEF_STEREO_COUNT>  (1) 
0

>  <PUBCHEM_ISOTOPIC_ATOM_COUNT>  (1) 
0

>  <PUBCHEM_COMPONENT_COUNT>  (1) 
1

>  <PUBCHEM_CACTVS_TAUTO_COUNT>  (1) 
2

>  <PUBCHEM_CONFORMER_ID>  (1) 
0000BD6B00000001

>  <PUBCHEM_MMFF94_ENERGY>  (1) 
94.4537

>  <PUBCHEM_FEATURE_SELFOVERLAP>  (1) 
40.594

>  <PUBCHEM_SHAPE_FINGERPRINT>  (1) 
10074138 170 17761179491742124536
10169797 241 18409176501583778363
108634 29 18335429014251126211
11186622 123 18336262350055325419
11552529 35 18270123401408587809
12788726 201 17611467828336287560
13583140 156 18197204859195113869
13631057 29 18411704283679844135
14068700 686 18411411839257231685
14787075 74 18200021988473964889
14955137 171 18052523384419281066
16114785 44 15397648590854577449
161222 619 17412450708290952896
17349148 13 17167868560445176429
17909252 39 18130517357061430622
20567600 347 18335131012345073786
21054139 6 18187647985551164198
22149856 69 18270132326529399259
22393880 68 18263926527571310621
23559900 14 17983286032867811845
238 59 18191037720112518096
3737641 26 18341622503674370387
4340502 62 18339916129566498769
444735 86 18340474639209915375
463206 1 17615129884635302555
9981440 41 17629738314582238272

>  <PUBCHEM_SHAPE_MULTIPOLES>  (1) 
583.95
10.9
5.18
1.75
11.85
2.08
0.23
0.38
-2.53
1.79
0.84
-1.76
-0.14
1.76

>  <PUBCHEM_SHAPE_SELFOVERLAP>  (1) 
1203.531

>  <PUBCHEM_SHAPE_VOLUME>  (1) 
337.8

>  <PUBCHEM_COORDINATE_TYPE>  (1) 
2
5
10

$$$$
