48493
     RDKit          3D

 26 27  0  0  0  0  0  0  0  0999 V2000
   -0.2817   -3.0669   -0.4141 O   0  0  0  0  0  0  0  0  0  0  0  0
   -0.2511    3.0632   -0.4298 O   0  0  0  0  0  0  0  0  0  0  0  0
   -2.3305   -2.9818   -1.4885 O   0  0  0  0  0  0  0  0  0  0  0  0
   -2.3094    3.0041   -1.4877 O   0  0  0  0  0  0  0  0  0  0  0  0
    3.3724   -0.0122    1.1897 N   0  0  0  0  0  0  0  0  0  0  0  0
   -2.4129    0.0143    1.8364 N   0  0  0  0  0  0  0  0  0  0  0  0
   -1.2039    0.0052   -0.7239 C   0  0  0  0  0  0  0  0  0  0  0  0
    2.5012   -0.0093    0.0357 C   0  0  0  0  0  0  0  0  0  0  0  0
    0.2868   -0.0016   -0.9077 C   0  0  0  0  0  0  0  0  0  0  0  0
   -1.6466   -1.2711    0.0026 C   0  0  0  0  0  0  0  0  0  0  0  0
   -1.6357    1.2852   -0.0015 C   0  0  0  0  0  0  0  0  0  0  0  0
    1.1169   -0.0030    0.2068 C   0  0  0  0  0  0  0  0  0  0  0  0
    4.7140   -0.7422    0.8959 C   0  0  0  0  0  0  0  0  0  0  0  0
    2.7088   -0.7116    2.4103 C   0  0  0  0  0  0  0  0  0  0  0  0
    3.7866    1.4003    1.7102 C   0  0  0  0  0  0  0  0  0  0  0  0
   -2.2052   -1.2169    1.2334 C   0  0  0  0  0  0  0  0  0  0  0  0
   -2.1842    1.2405    1.2334 C   0  0  0  0  0  0  0  0  0  0  0  0
    3.0450   -0.0139   -1.2488 C   0  0  0  0  0  0  0  0  0  0  0  0
    0.8204   -0.0061   -2.1909 C   0  0  0  0  0  0  0  0  0  0  0  0
    2.2046   -0.0123   -2.3621 C   0  0  0  0  0  0  0  0  0  0  0  0
   -1.4869   -2.5361   -0.7327 C   0  0  0  0  0  0  0  0  0  0  0  0
   -1.4654    2.5476   -0.7389 C   0  0  0  0  0  0  0  0  0  0  0  0
   -2.6370   -2.4041    2.0511 C   0  0  0  0  0  0  0  0  0  0  0  0
   -2.5930    2.4361    2.0505 C   0  0  0  0  0  0  0  0  0  0  0  0
    0.0230   -4.3095   -1.0558 C   0  0  0  0  0  0  0  0  0  0  0  0
    0.0639    4.3022   -1.0737 C   0  0  0  0  0  0  0  0  0  0  0  0
  1 21  1  0
  1 25  1  0
  2 22  1  0
  2 26  1  0
  3 21  2  0
  4 22  2  0
  5  8  1  0
  5 13  1  0
  5 14  1  0
  5 15  1  0
  6 16  1  0
  6 17  1  0
  7  9  1  0
  7 10  1  0
  7 11  1  0
  8 12  2  0
  8 18  1  0
  9 12  1  0
  9 19  2  0
 10 16  2  0
 10 21  1  0
 11 17  2  0
 11 22  1  0
 16 23  1  0
 17 24  1  0
 18 20  2  0
 19 20  1  0
M  CHG  1   5   1
M  END
>  <PUBCHEM_COMPOUND_CID>  (1) 
48493

>  <PUBCHEM_CONFORMER_RMSD>  (1) 
0.8

>  <PUBCHEM_CONFORMER_DIVERSEORDER>  (1) 
1
13
10
23
22
20
12
9
11
18
16
14
2
21
24
7
19
6
15
3
8
17
5
4

>  <PUBCHEM_MMFF94_PARTIAL_CHARGES>  (1) 
31
1 -0.43
10 -0.12
11 -0.12
12 -0.15
13 0.5
14 0.5
15 0.5
16 -0.04
17 -0.04
18 -0.15
19 -0.15
2 -0.43
20 -0.15
21 0.71
22 0.71
23 0.14
24 0.14
25 0.28
26 0.28
28 0.15
3 -0.57
38 0.15
39 0.15
4 -0.57
40 0.4
41 0.15
5 -0.87
6 -0.6
7 0.42
8 0.36
9 -0.14

>  <PUBCHEM_EFFECTIVE_ROTOR_COUNT>  (1) 
6.4

>  <PUBCHEM_PHARMACOPHORE_FEATURES>  (1) 
7
1 3 acceptor
1 4 acceptor
1 5 cation
1 6 cation
1 6 donor
6 6 7 10 11 16 17 rings
6 8 9 12 18 19 20 rings

>  <PUBCHEM_HEAVY_ATOM_COUNT>  (1) 
26

>  <PUBCHEM_ATOM_DEF_STEREO_COUNT>  (1) 
0

>  <PUBCHEM_ATOM_UDEF_STEREO_COUNT>  (1) 
0

>  <PUBCHEM_BOND_DEF_STEREO_COUNT>  (1) 
0

>  <PUBCHEM_BOND_UDEF_STEREO_COUNT>  (1) 
0

>  <PUBCHEM_ISOTOPIC_ATOM_COUNT>  (1) 
0

>  <PUBCHEM_COMPONENT_COUNT>  (1) 
1

>  <PUBCHEM_CACTVS_TAUTO_COUNT>  (1) 
2

>  <PUBCHEM_CONFORMER_ID>  (1) 
0000BD6D00000001

>  <PUBCHEM_MMFF94_ENERGY>  (1) 
93.3138

>  <PUBCHEM_FEATURE_SELFOVERLAP>  (1) 
35.52

>  <PUBCHEM_SHAPE_FINGERPRINT>  (1) 
10165383 225 17623613819122849929
11112241 14 17129283279107724982
11578080 2 13033058486226785251
12539773 59 17320367481458813034
12553582 1 18120382205105757686
12633257 1 17775013443869160794
13004483 165 18049126107615215290
13294875 104 17556030086511696234
13583140 156 18057861642405151810
14713325 29 17397037466861763070
14856354 85 18266451191923228286
16945 1 17772781418026532831
17980427 26 17127338178059298225
18981168 100 17203335528528688936
20600515 1 17982437493322308375
21033648 29 17702409293635650497
21421861 104 17112987816124010987
21731516 1 18117282668736088846
229495 10 14620801504743078639
23419403 2 17197093712844839613
23559900 14 17106243991867607845
23598288 3 18186525392842602918
23598294 1 18191895442061023084
2748010 2 17981643435837581927
3380486 77 18123456430990434607
350125 39 16820847052811743917
35225 105 18124286386211876840
484985 159 16371550489401058210
5265222 85 17982208658324926782
6287921 2 17840887466338523916
81228 2 18271251628565069967
90316 7 18334301954486562944
9981440 41 17834092170587605312

>  <PUBCHEM_SHAPE_MULTIPOLES>  (1) 
501.63
5.58
4.59
2.43
5.69
0.11
0.46
-0.1
3.37
-3.5
-1.82
0.54
-0.01
0.05

>  <PUBCHEM_SHAPE_SELFOVERLAP>  (1) 
1050.955

>  <PUBCHEM_SHAPE_VOLUME>  (1) 
287.1

>  <PUBCHEM_COORDINATE_TYPE>  (1) 
2
5
10

$$$$
