48499
     RDKit          3D

 12 12  0  0  0  0  0  0  0  0999 V2000
    2.2089   -2.3967    0.0000 O   0  0  0  0  0  0  0  0  0  0  0  0
    2.2277    2.3770    0.0010 O   0  0  0  0  0  0  0  0  0  0  0  0
   -2.0008    0.0068    0.0000 N   0  0  0  0  0  0  0  0  0  0  0  0
   -0.4702    0.0007   -0.0002 C   0  0  0  0  0  0  0  0  0  0  0  0
   -2.4887    0.7312   -1.2514 C   0  0  0  0  0  0  0  0  0  0  0  0
   -2.4889    0.7134    1.2615 C   0  0  0  0  0  0  0  0  0  0  0  0
   -2.5839   -1.4048   -0.0096 C   0  0  0  0  0  0  0  0  0  0  0  0
    0.1475    1.2063   -0.0003 C   0  0  0  0  0  0  0  0  0  0  0  0
    0.1381   -1.2096   -0.0001 C   0  0  0  0  0  0  0  0  0  0  0  0
    1.5329   -1.2151    0.0000 C   0  0  0  0  0  0  0  0  0  0  0  0
    1.5424    1.2008   -0.0005 C   0  0  0  0  0  0  0  0  0  0  0  0
    2.2350   -0.0100   -0.0003 C   0  0  0  0  0  0  0  0  0  0  0  0
  1 10  1  0
  2 11  1  0
  3  4  1  0
  3  5  1  0
  3  6  1  0
  3  7  1  0
  4  8  2  0
  4  9  1  0
  8 11  1  0
  9 10  2  0
 10 12  1  0
 11 12  2  0
M  CHG  1   3   1
M  END
>  <PUBCHEM_COMPOUND_CID>  (1) 
48499

>  <PUBCHEM_CONFORMER_RMSD>  (1) 
0.4

>  <PUBCHEM_CONFORMER_DIVERSEORDER>  (1) 
1

>  <PUBCHEM_MMFF94_PARTIAL_CHARGES>  (1) 
17
1 -0.53
10 0.08
11 0.08
12 -0.15
2 -0.53
22 0.15
23 0.15
24 0.15
25 0.45
26 0.45
3 -0.87
4 0.36
5 0.5
6 0.5
7 0.5
8 -0.15
9 -0.15

>  <PUBCHEM_EFFECTIVE_ROTOR_COUNT>  (1) 
1

>  <PUBCHEM_PHARMACOPHORE_FEATURES>  (1) 
4
1 1 donor
1 2 donor
1 3 cation
6 4 8 9 10 11 12 rings

>  <PUBCHEM_HEAVY_ATOM_COUNT>  (1) 
12

>  <PUBCHEM_ATOM_DEF_STEREO_COUNT>  (1) 
0

>  <PUBCHEM_ATOM_UDEF_STEREO_COUNT>  (1) 
0

>  <PUBCHEM_BOND_DEF_STEREO_COUNT>  (1) 
0

>  <PUBCHEM_BOND_UDEF_STEREO_COUNT>  (1) 
0

>  <PUBCHEM_ISOTOPIC_ATOM_COUNT>  (1) 
0

>  <PUBCHEM_COMPONENT_COUNT>  (1) 
1

>  <PUBCHEM_CACTVS_TAUTO_COUNT>  (1) 
5

>  <PUBCHEM_CONFORMER_ID>  (1) 
0000BD7300000001

>  <PUBCHEM_MMFF94_ENERGY>  (1) 
49.9365

>  <PUBCHEM_FEATURE_SELFOVERLAP>  (1) 
20.297

>  <PUBCHEM_SHAPE_FINGERPRINT>  (1) 
1 1 18338516464492016324
12423570 1 18194090054290164386
12897270 3 18337386153532415389
12932764 1 17967535644811490987
14648413 74 18334851693246863965
16945 1 18410575050466942308
17844478 74 17750251260974395793
17990270 104 18409444769625126426
18380122 1 17969789764023404721
19973954 147 18408882923604783821
20645477 70 18411129252142200975
20653091 64 18413109454839096570
21028194 46 18118118297673561804
21040471 1 18050287273825286944
21501502 16 18410576210308650283
21524375 3 18048033270767335872
23552423 10 18411140255183281007
241688 4 17906452130459600698
2748010 2 18193562400620620060
5084963 1 18263080075327015225
63268167 104 18410855430073992345
7364860 26 18343303678037309398
74978 22 18340207388763383815
8030462 33 17917706924649737113
81228 2 17401766320470182224

>  <PUBCHEM_SHAPE_MULTIPOLES>  (1) 
230.23
4.09
2.11
0.88
1.14
0.21
0
0.03
0
-1.45
0
0.71
-0.2
0

>  <PUBCHEM_SHAPE_SELFOVERLAP>  (1) 
473.064

>  <PUBCHEM_SHAPE_VOLUME>  (1) 
136

>  <PUBCHEM_COORDINATE_TYPE>  (1) 
2
5
10

$$$$
