48503
     RDKit          3D

 21 21  0  0  0  0  0  0  0  0999 V2000
   -2.5164   -0.4377    0.5686 O   0  0  0  0  0  0  0  0  0  0  0  0
   -2.5192    0.6648   -1.4660 O   0  0  0  0  0  0  0  0  0  0  0  0
    2.3206    0.6464    0.0328 N   0  0  0  0  0  0  0  0  0  0  0  0
   -0.3247   -0.4659   -0.1931 N   0  0  0  0  0  0  0  0  0  0  0  0
   -4.1186    1.2228    0.1279 N   0  0  0  0  0  0  0  0  0  0  0  0
    2.5619    0.0017    1.3901 C   0  0  0  0  0  0  0  0  0  0  0  0
    3.5818    1.3699   -0.4168 C   0  0  0  0  0  0  0  0  0  0  0  0
    1.9633   -0.4288   -0.9833 C   0  0  0  0  0  0  0  0  0  0  0  0
    1.1752    1.6428    0.1411 C   0  0  0  0  0  0  0  0  0  0  0  0
    1.2902   -0.7136    1.8168 C   0  0  0  0  0  0  0  0  0  0  0  0
    2.9704    1.0868    2.3734 C   0  0  0  0  0  0  0  0  0  0  0  0
    3.3159    2.0044   -1.7725 C   0  0  0  0  0  0  0  0  0  0  0  0
    4.7225    0.3662   -0.4641 C   0  0  0  0  0  0  0  0  0  0  0  0
    0.7266   -1.1956   -0.6176 C   0  0  0  0  0  0  0  0  0  0  0  0
    0.7316   -2.5723   -0.7332 C   0  0  0  0  0  0  0  0  0  0  0  0
   -0.4307   -3.2525   -0.3868 C   0  0  0  0  0  0  0  0  0  0  0  0
   -1.4368   -1.1614    0.1346 C   0  0  0  0  0  0  0  0  0  0  0  0
   -1.5400   -2.5410    0.0564 C   0  0  0  0  0  0  0  0  0  0  0  0
   -3.0176    0.5050   -0.3523 C   0  0  0  0  0  0  0  0  0  0  0  0
   -4.7517    2.2352   -0.7053 C   0  0  0  0  0  0  0  0  0  0  0  0
   -4.7044    1.0229    1.4493 C   0  0  0  0  0  0  0  0  0  0  0  0
  1 17  1  0
  1 19  1  0
  2 19  2  0
  3  6  1  0
  3  7  1  0
  3  8  1  0
  3  9  1  0
  4 14  2  0
  4 17  1  0
  5 19  1  0
  5 20  1  0
  5 21  1  0
  6 10  1  0
  6 11  1  0
  7 12  1  0
  7 13  1  0
  8 14  1  0
 14 15  1  0
 15 16  2  0
 16 18  1  0
 17 18  2  0
M  CHG  1   3   1
M  END
>  <PUBCHEM_COMPOUND_CID>  (1) 
48503

>  <PUBCHEM_CONFORMER_RMSD>  (1) 
0.8

>  <PUBCHEM_CONFORMER_DIVERSEORDER>  (1) 
46
22
51
32
11
47
20
35
19
17
4
38
43
49
25
48
44
39
34
16
37
31
5
33
9
14
7
41
13
24
28
40
42
50
6
23
45
18
26
10
36
8
15
27
3
2
29
12
21
30
1

>  <PUBCHEM_MMFF94_PARTIAL_CHARGES>  (1) 
20
1 -0.23
14 0.17
15 -0.15
16 -0.15
17 0.39
18 -0.15
19 0.78
2 -0.57
20 0.3
21 0.3
3 -1.01
4 -0.62
41 0.15
42 0.15
43 0.15
5 -0.66
6 0.5
7 0.5
8 0.65
9 0.5

>  <PUBCHEM_EFFECTIVE_ROTOR_COUNT>  (1) 
7

>  <PUBCHEM_PHARMACOPHORE_FEATURES>  (1) 
6
1 2 acceptor
1 3 cation
1 4 acceptor
3 6 10 11 hydrophobe
3 7 12 13 hydrophobe
6 4 14 15 16 17 18 rings

>  <PUBCHEM_HEAVY_ATOM_COUNT>  (1) 
21

>  <PUBCHEM_ATOM_DEF_STEREO_COUNT>  (1) 
0

>  <PUBCHEM_ATOM_UDEF_STEREO_COUNT>  (1) 
0

>  <PUBCHEM_BOND_DEF_STEREO_COUNT>  (1) 
0

>  <PUBCHEM_BOND_UDEF_STEREO_COUNT>  (1) 
0

>  <PUBCHEM_ISOTOPIC_ATOM_COUNT>  (1) 
0

>  <PUBCHEM_COMPONENT_COUNT>  (1) 
1

>  <PUBCHEM_CACTVS_TAUTO_COUNT>  (1) 
1

>  <PUBCHEM_CONFORMER_ID>  (1) 
0000BD770000002E

>  <PUBCHEM_MMFF94_ENERGY>  (1) 
117.886

>  <PUBCHEM_FEATURE_SELFOVERLAP>  (1) 
30.45

>  <PUBCHEM_SHAPE_FINGERPRINT>  (1) 
10165383 225 18270420350751058657
10498660 4 18343863316592434465
12173636 292 18195243549399125670
12403259 415 17988361580230911859
12500047 106 18271804674582258734
12633257 1 17313651677405349497
12730499 353 18340496560859689035
12788726 201 17900816368700377779
12892183 10 16081085965808996189
13134695 92 17487614126719774990
13464514 151 17917438579103259290
13583140 156 16660354905311825621
13878862 14 17762612890371645709
13965767 371 18114452405695172940
14251751 93 18189339142056577918
14251764 30 15359092643478119466
14787075 74 15945989281368444634
14957384 54 18186516630993547300
15295992 7 17989202681041070610
15342168 16 18408889499727338901
15664445 248 16324277403581911214
16752209 62 18196644314175256615
16945 1 17908414007175551182
1798214 55 18413668006841056073
18186145 218 17346040072860229522
18785283 64 18262526870486187654
18981168 100 17842831406974549808
200 152 11383835965134453985
201361 129 17676481791835482496
20600515 1 18129924789393377288
21069387 34 13614260186565800940
21250096 35 9727636072872266629
21524375 3 18410288133898984831
22907989 373 18049996998297187287
23419403 2 17468815832180625242
23493267 7 18334580182726162122
23557571 272 17771613826703180786
25 1 18131357375486517687
314173 85 10881397608836705435
458136 41 18340780234458994859
474 4 18339641136270340189
495365 180 18123458394301372893
6049 1 17486218017598541370
633830 44 17241333615692784572
6442390 28 18271816756563074579
7097593 13 17823674456812082002
7615 1 17680122343454409114
7808743 9 18337116790226732108
7832392 63 18263080075733320772
81228 2 17836352019159362563
84936 182 17987516996698167969

>  <PUBCHEM_SHAPE_MULTIPOLES>  (1) 
405.49
8.4
2.9
1.66
5.51
1.96
0.73
-7.43
0.01
1.2
-0.79
-1.12
-0.63
-0.1

>  <PUBCHEM_SHAPE_SELFOVERLAP>  (1) 
821.637

>  <PUBCHEM_SHAPE_VOLUME>  (1) 
238.4

>  <PUBCHEM_COORDINATE_TYPE>  (1) 
2
5
10

$$$$
