48509
     RDKit          3D

 13 13  0  0  0  0  0  0  0  0999 V2000
    2.6537   -1.7670    0.5046 O   0  0  0  0  0  0  0  0  0  0  0  0
   -1.9083   -0.3546   -0.2805 N   0  0  0  0  0  0  0  0  0  0  0  0
   -2.7731    0.8481    0.0917 C   0  0  0  0  0  0  0  0  0  0  0  0
   -0.4128   -0.0381   -0.2025 C   0  0  0  0  0  0  0  0  0  0  0  0
   -2.2221   -1.4857    0.6945 C   0  0  0  0  0  0  0  0  0  0  0  0
   -2.2503   -0.7603   -1.7115 C   0  0  0  0  0  0  0  0  0  0  0  0
   -2.4731    1.2552    1.5177 C   0  0  0  0  0  0  0  0  0  0  0  0
    0.4151   -1.0618    0.1164 C   0  0  0  0  0  0  0  0  0  0  0  0
   -0.0428    1.2392   -0.4604 C   0  0  0  0  0  0  0  0  0  0  0  0
    1.7779   -0.7732    0.1858 C   0  0  0  0  0  0  0  0  0  0  0  0
    1.3201    1.5277   -0.3908 C   0  0  0  0  0  0  0  0  0  0  0  0
    2.2305    0.5215   -0.0676 C   0  0  0  0  0  0  0  0  0  0  0  0
    3.6854    0.8490    0.0026 C   0  0  0  0  0  0  0  0  0  0  0  0
  1 10  1  0
  2  3  1  0
  2  4  1  0
  2  5  1  0
  2  6  1  0
  3  7  1  0
  4  8  2  0
  4  9  1  0
  8 10  1  0
  9 11  2  0
 10 12  2  0
 11 12  1  0
 12 13  1  0
M  CHG  1   2   1
M  END
>  <PUBCHEM_COMPOUND_CID>  (1) 
48509

>  <PUBCHEM_CONFORMER_RMSD>  (1) 
0.6

>  <PUBCHEM_CONFORMER_DIVERSEORDER>  (1) 
10
9
3
4
1
2
7
5
6
8

>  <PUBCHEM_MMFF94_PARTIAL_CHARGES>  (1) 
16
1 -0.53
10 0.08
11 -0.15
12 -0.14
13 0.14
2 -0.87
25 0.15
26 0.15
27 0.15
3 0.5
31 0.45
4 0.36
5 0.5
6 0.5
8 -0.15
9 -0.15

>  <PUBCHEM_EFFECTIVE_ROTOR_COUNT>  (1) 
2

>  <PUBCHEM_PHARMACOPHORE_FEATURES>  (1) 
3
1 1 donor
1 2 cation
6 4 8 9 10 11 12 rings

>  <PUBCHEM_HEAVY_ATOM_COUNT>  (1) 
13

>  <PUBCHEM_ATOM_DEF_STEREO_COUNT>  (1) 
0

>  <PUBCHEM_ATOM_UDEF_STEREO_COUNT>  (1) 
0

>  <PUBCHEM_BOND_DEF_STEREO_COUNT>  (1) 
0

>  <PUBCHEM_BOND_UDEF_STEREO_COUNT>  (1) 
0

>  <PUBCHEM_ISOTOPIC_ATOM_COUNT>  (1) 
0

>  <PUBCHEM_COMPONENT_COUNT>  (1) 
1

>  <PUBCHEM_CACTVS_TAUTO_COUNT>  (1) 
3

>  <PUBCHEM_CONFORMER_ID>  (1) 
0000BD7D0000000A

>  <PUBCHEM_MMFF94_ENERGY>  (1) 
57.8272

>  <PUBCHEM_FEATURE_SELFOVERLAP>  (1) 
15.223

>  <PUBCHEM_SHAPE_FINGERPRINT>  (1) 
12202030 40 16153716392303614955
12251169 10 18335714848671701401
12346645 44 18342740749701331408
12382932 28 18408324384535263952
12423570 1 17912919479012705567
124424 183 16516504690821793340
12491281 212 18059583455279744753
12696612 119 18261406571221473604
12932764 1 17489587904420025754
13024252 1 13840254914745690215
13380535 21 18335154080540573650
14144814 61 18408602560908402384
15775835 57 18201446856558893921
15906896 17 18131639980614659703
16945 1 18187363246594286020
17844478 74 17240492372695245173
200 152 18268984470301781519
20201158 50 18114173176848882782
207724 885 18334581187648107025
21501502 16 18411978031635907546
21524375 3 17843127996226401817
22445834 79 18411142437058225099
23236772 104 18413672426399119249
23402539 116 16988839467572407365
23402655 69 18337372878273989109
23552423 10 18260833742911687460
2748010 2 18334011675063915150
3248919 1 18336537287521787642
369184 2 18260265235502700027
5084963 1 17532651449837330133
528886 8 18335698355738743792
63268167 104 18408599249425489001
8030462 33 18343014531900770669

>  <PUBCHEM_SHAPE_MULTIPOLES>  (1) 
256.68
5.05
1.72
1.12
1.78
0.14
0.13
-0.38
-0.5
0.05
-0.27
-0.96
0.01
-0.72

>  <PUBCHEM_SHAPE_SELFOVERLAP>  (1) 
523.295

>  <PUBCHEM_SHAPE_VOLUME>  (1) 
152.3

>  <PUBCHEM_COORDINATE_TYPE>  (1) 
2
5
10

$$$$
