48505
     RDKit          3D

 13 13  0  0  0  0  0  0  0  0999 V2000
    2.0873    2.5622   -0.2450 O   0  0  0  0  0  0  0  0  0  0  0  0
   -1.7891   -0.3470   -0.3268 N   0  0  0  0  0  0  0  0  0  0  0  0
   -2.5840    0.8622    0.1618 C   0  0  0  0  0  0  0  0  0  0  0  0
   -0.2790   -0.1436   -0.1818 C   0  0  0  0  0  0  0  0  0  0  0  0
   -2.2035   -1.5565    0.5062 C   0  0  0  0  0  0  0  0  0  0  0  0
   -2.1158   -0.5654   -1.8015 C   0  0  0  0  0  0  0  0  0  0  0  0
   -2.2990    1.0853    1.6309 C   0  0  0  0  0  0  0  0  0  0  0  0
    0.4707   -1.2506    0.0372 C   0  0  0  0  0  0  0  0  0  0  0  0
    0.1811    1.1263   -0.2845 C   0  0  0  0  0  0  0  0  0  0  0  0
    1.8467   -1.0650    0.1693 C   0  0  0  0  0  0  0  0  0  0  0  0
    1.5572    1.3119   -0.1523 C   0  0  0  0  0  0  0  0  0  0  0  0
    2.3901    0.2163    0.0745 C   0  0  0  0  0  0  0  0  0  0  0  0
    2.7373   -2.2361    0.4120 C   0  0  0  0  0  0  0  0  0  0  0  0
  1 11  1  0
  2  3  1  0
  2  4  1  0
  2  5  1  0
  2  6  1  0
  3  7  1  0
  4  8  2  0
  4  9  1  0
  8 10  1  0
  9 11  2  0
 10 12  2  0
 10 13  1  0
 11 12  1  0
M  CHG  1   2   1
M  END
>  <PUBCHEM_COMPOUND_CID>  (1) 
48505

>  <PUBCHEM_CONFORMER_RMSD>  (1) 
0.6

>  <PUBCHEM_CONFORMER_DIVERSEORDER>  (1) 
12
11
4
3
2
1
10
5
7
8
6
9

>  <PUBCHEM_MMFF94_PARTIAL_CHARGES>  (1) 
16
1 -0.53
10 -0.14
11 0.08
12 -0.15
13 0.14
2 -0.87
25 0.15
26 0.15
27 0.15
3 0.5
31 0.45
4 0.36
5 0.5
6 0.5
8 -0.15
9 -0.15

>  <PUBCHEM_EFFECTIVE_ROTOR_COUNT>  (1) 
2

>  <PUBCHEM_PHARMACOPHORE_FEATURES>  (1) 
3
1 1 donor
1 2 cation
6 4 8 9 10 11 12 rings

>  <PUBCHEM_HEAVY_ATOM_COUNT>  (1) 
13

>  <PUBCHEM_ATOM_DEF_STEREO_COUNT>  (1) 
0

>  <PUBCHEM_ATOM_UDEF_STEREO_COUNT>  (1) 
0

>  <PUBCHEM_BOND_DEF_STEREO_COUNT>  (1) 
0

>  <PUBCHEM_BOND_UDEF_STEREO_COUNT>  (1) 
0

>  <PUBCHEM_ISOTOPIC_ATOM_COUNT>  (1) 
0

>  <PUBCHEM_COMPONENT_COUNT>  (1) 
1

>  <PUBCHEM_CACTVS_TAUTO_COUNT>  (1) 
9

>  <PUBCHEM_CONFORMER_ID>  (1) 
0000BD790000000C

>  <PUBCHEM_MMFF94_ENERGY>  (1) 
56.1605

>  <PUBCHEM_FEATURE_SELFOVERLAP>  (1) 
15.223

>  <PUBCHEM_SHAPE_FINGERPRINT>  (1) 
12202030 40 16660656136789925555
12251169 10 18339088102974392987
12423570 1 17173482864284408399
12696612 119 18410300189755613840
12932764 1 17167858642990831827
15279308 10 18202284714462794561
15775835 57 18200888351944200601
15852999 172 17753862194134728902
16945 1 18334853913855491956
17357990 137 17630352764665501433
17841504 4 18335426750570661667
17990270 104 18407755941398000042
19973954 147 18409731785114637835
20510252 161 17403462265579950736
20653091 64 18410011052662878810
207724 885 18266744575672970243
20871998 184 17548972261517643254
21061003 4 18042693797067648818
21501502 16 18408891762636981475
22445834 79 18411145731324638387
228727 97 17843683515569610373
23402539 116 16055165997445009881
23419403 2 16542624650090520881
23552423 10 18410292553177187078
2748010 2 17974289030171178924
4175511 71 18123205510436797896
5084963 1 18342443829636913935
57426455 70 17903651686864846115
63268167 104 18409445864788883488
6992083 37 17986107405353156539
7364860 26 18413389860690560676
74978 22 18409730638400704223
8030462 33 18200870785400963069
81228 2 17616805540550419306

>  <PUBCHEM_SHAPE_MULTIPOLES>  (1) 
256.68
4.32
2.21
1.14
0.01
0.43
0.12
-0.63
-0.56
-1.38
-0.14
1.03
-0.02
-0.74

>  <PUBCHEM_SHAPE_SELFOVERLAP>  (1) 
522.498

>  <PUBCHEM_SHAPE_VOLUME>  (1) 
152.6

>  <PUBCHEM_COORDINATE_TYPE>  (1) 
2
5
10

$$$$
