48524
     RDKit          3D

 19 19  0  0  1  0  0  0  0  0999 V2000
   -1.8253    0.5200    0.1328 S   0  0  0  0  0  0  0  0  0  0  0  0
    0.1490   -0.3103    2.2097 O   0  0  0  0  0  0  0  0  0  0  0  0
    2.6928    0.9208   -1.5404 O   0  0  0  0  0  0  0  0  0  0  0  0
    2.4129   -3.4682   -0.2314 O   0  0  0  0  0  0  0  0  0  0  0  0
    1.2003   -1.8979    0.9303 N   0  0  0  0  0  0  0  0  0  0  0  0
    2.4716   -1.2828   -0.9426 N   0  0  0  0  0  0  0  0  0  0  0  0
    0.9132    0.3569    0.0072 C   0  0  0  0  0  0  0  0  0  0  0  0
   -0.3388    0.2407   -0.8805 C   0  0  0  0  0  0  0  0  0  0  0  0
    1.0193    1.7897    0.5496 C   0  0  0  0  0  0  0  0  0  0  0  0
    0.7294   -0.6154    1.1682 C   0  0  0  0  0  0  0  0  0  0  0  0
    2.1182    0.0568   -0.8787 C   0  0  0  0  0  0  0  0  0  0  0  0
   -0.2904    1.2405   -2.0240 C   0  0  0  0  0  0  0  0  0  0  0  0
   -3.0642    0.3199   -1.1669 C   0  0  0  0  0  0  0  0  0  0  0  0
    2.2984    1.9803    1.2949 C   0  0  0  0  0  0  0  0  0  0  0  0
   -4.4955    0.4942   -0.6596 C   0  0  0  0  0  0  0  0  0  0  0  0
    2.0403   -2.3010   -0.1008 C   0  0  0  0  0  0  0  0  0  0  0  0
   -4.9030   -0.5352    0.3979 C   0  0  0  0  0  0  0  0  0  0  0  0
    3.2361    2.8674    0.9443 C   0  0  0  0  0  0  0  0  0  0  0  0
   -6.3644   -0.3763    0.7899 C   0  0  0  0  0  0  0  0  0  0  0  0
  1  8  1  0
  1 13  1  0
  2 10  2  0
  3 11  2  0
  4 16  2  0
  5 10  1  0
  5 16  1  0
  6 11  1  0
  6 16  1  0
  7  8  1  0
  7  9  1  0
  7 10  1  0
  7 11  1  0
  8 12  1  0
  9 14  1  0
 13 15  1  0
 14 18  2  0
 15 17  1  0
 17 19  1  0
M  END
>  <PUBCHEM_COMPOUND_CID>  (1) 
48524

>  <PUBCHEM_CONFORMER_RMSD>  (1) 
0.8

>  <PUBCHEM_CONFORMER_DIVERSEORDER>  (1) 
1
6
53
43
49
35
12
62
52
56
37
28
23
11
42
33
40
15
5
19
58
7
30
36
61
24
9
44
55
38
21
25
32
26
45
51
34
17
20
57
54
4
63
41
60
13
31
14
3
18
2
39
16
59
29
47
27
48
8
10
46
50
22

>  <PUBCHEM_MMFF94_PARTIAL_CHARGES>  (1) 
20
1 -0.46
10 0.57
11 0.57
13 0.23
14 -0.29
16 0.69
18 -0.3
2 -0.57
28 0.37
29 0.37
3 -0.57
30 0.15
35 0.15
36 0.15
4 -0.57
5 -0.49
6 -0.49
7 0.12
8 0.23
9 0.14

>  <PUBCHEM_EFFECTIVE_ROTOR_COUNT>  (1) 
7.6

>  <PUBCHEM_PHARMACOPHORE_FEATURES>  (1) 
10
1 12 hydrophobe
1 18 hydrophobe
1 19 hydrophobe
1 2 acceptor
1 3 acceptor
1 4 acceptor
1 5 donor
1 6 donor
5 1 8 13 15 17 hydrophobe
6 5 6 7 10 11 16 rings

>  <PUBCHEM_HEAVY_ATOM_COUNT>  (1) 
19

>  <PUBCHEM_ATOM_DEF_STEREO_COUNT>  (1) 
0

>  <PUBCHEM_ATOM_UDEF_STEREO_COUNT>  (1) 
1

>  <PUBCHEM_BOND_DEF_STEREO_COUNT>  (1) 
0

>  <PUBCHEM_BOND_UDEF_STEREO_COUNT>  (1) 
0

>  <PUBCHEM_ISOTOPIC_ATOM_COUNT>  (1) 
0

>  <PUBCHEM_COMPONENT_COUNT>  (1) 
1

>  <PUBCHEM_CACTVS_TAUTO_COUNT>  (1) 
5

>  <PUBCHEM_CONFORMER_ID>  (1) 
0000BD8C00000001

>  <PUBCHEM_MMFF94_ENERGY>  (1) 
53.7919

>  <PUBCHEM_FEATURE_SELFOVERLAP>  (1) 
50.788

>  <PUBCHEM_SHAPE_FINGERPRINT>  (1) 
10382601 240 17345450721727275624
11552529 35 17915744374511157615
11961588 58 15069780502371999694
12596602 18 17988096594836625891
12616999 72 17604158090029187023
12644460 14 17918274277002665593
12730499 353 18338807817909319075
12778500 126 18198079005942077065
13533116 47 18411424986763450243
13911882 115 17823438122379397955
13955234 65 18413669114958488467
14252887 29 18259983782343821205
15238133 3 15626235593721535763
16945 1 18412834572853436808
1813 80 17487904410663769654
20645477 70 18266998636564390927
23419403 2 18189924018034258754
23526113 38 17749968673136834401
23557571 272 17531240635233839725
23558518 356 17121677217631263236
23559900 14 17968656013211809557
3052486 1 15864929766780240411
394222 165 17345743230653927856
427121 178 18188482600702080856
4340502 62 18272367637193546971
458136 41 18340476880565320636
474 4 18127125492665465001
6442390 28 18123467447332868422
6786 2 17982162632874580792
7364860 26 18341881983516448460
81539 233 18269261512513669664

>  <PUBCHEM_SHAPE_MULTIPOLES>  (1) 
367.29
8.44
2.66
1.66
18.92
1.37
-0.1
-0.38
1.43
-4.42
0.5
-0.31
-0.39
1.04

>  <PUBCHEM_SHAPE_SELFOVERLAP>  (1) 
728.151

>  <PUBCHEM_SHAPE_VOLUME>  (1) 
219.4

>  <PUBCHEM_COORDINATE_TYPE>  (1) 
2
5
10

$$$$
