48534
     RDKit          3D

 17 17  0  0  1  0  0  0  0  0999 V2000
   -2.1070    0.5761   -0.1002 O   0  0  0  0  0  0  0  0  0  0  0  0
    0.9238   -1.6193    1.7774 O   0  0  0  0  0  0  0  0  0  0  0  0
   -0.2042    2.0604   -0.9129 O   0  0  0  0  0  0  0  0  0  0  0  0
    4.1664    0.7405   -0.4529 O   0  0  0  0  0  0  0  0  0  0  0  0
    2.5314   -0.4998    0.5836 N   0  0  0  0  0  0  0  0  0  0  0  0
    1.9679    1.3388   -0.7598 N   0  0  0  0  0  0  0  0  0  0  0  0
    0.1746   -0.1561   -0.0053 C   0  0  0  0  0  0  0  0  0  0  0  0
   -1.1407    0.0076    0.7701 C   0  0  0  0  0  0  0  0  0  0  0  0
   -0.0534   -1.0993   -1.2001 C   0  0  0  0  0  0  0  0  0  0  0  0
    1.2168   -0.8160    0.8922 C   0  0  0  0  0  0  0  0  0  0  0  0
    0.6010    1.1927   -0.5761 C   0  0  0  0  0  0  0  0  0  0  0  0
   -0.9336    0.9045    1.9739 C   0  0  0  0  0  0  0  0  0  0  0  0
   -0.6140   -2.4052   -0.7442 C   0  0  0  0  0  0  0  0  0  0  0  0
    2.9712    0.5305   -0.2388 C   0  0  0  0  0  0  0  0  0  0  0  0
   -3.3570    0.7579    0.5524 C   0  0  0  0  0  0  0  0  0  0  0  0
   -4.3402    1.3651   -0.4255 C   0  0  0  0  0  0  0  0  0  0  0  0
   -1.8029   -2.8786   -1.1338 C   0  0  0  0  0  0  0  0  0  0  0  0
  1  8  1  0
  1 15  1  0
  2 10  2  0
  3 11  2  0
  4 14  2  0
  5 10  1  0
  5 14  1  0
  6 11  1  0
  6 14  1  0
  7  8  1  0
  7  9  1  0
  7 10  1  0
  7 11  1  0
  8 12  1  0
  9 13  1  0
 13 17  2  0
 15 16  1  0
M  END
>  <PUBCHEM_COMPOUND_CID>  (1) 
48534

>  <PUBCHEM_CONFORMER_RMSD>  (1) 
0.8

>  <PUBCHEM_CONFORMER_DIVERSEORDER>  (1) 
1
8
9
14
4
7
17
15
3
5
18
6
2
13
10
16
12
11

>  <PUBCHEM_MMFF94_PARTIAL_CHARGES>  (1) 
20
1 -0.56
10 0.57
11 0.57
13 -0.29
14 0.69
15 0.28
17 -0.3
2 -0.57
24 0.37
25 0.37
26 0.15
3 -0.57
32 0.15
33 0.15
4 -0.57
5 -0.49
6 -0.49
7 0.12
8 0.28
9 0.14

>  <PUBCHEM_EFFECTIVE_ROTOR_COUNT>  (1) 
5.6

>  <PUBCHEM_PHARMACOPHORE_FEATURES>  (1) 
8
1 1 acceptor
1 17 hydrophobe
1 2 acceptor
1 3 acceptor
1 4 acceptor
1 5 donor
1 6 donor
6 5 6 7 10 11 14 rings

>  <PUBCHEM_HEAVY_ATOM_COUNT>  (1) 
17

>  <PUBCHEM_ATOM_DEF_STEREO_COUNT>  (1) 
0

>  <PUBCHEM_ATOM_UDEF_STEREO_COUNT>  (1) 
1

>  <PUBCHEM_BOND_DEF_STEREO_COUNT>  (1) 
0

>  <PUBCHEM_BOND_UDEF_STEREO_COUNT>  (1) 
0

>  <PUBCHEM_ISOTOPIC_ATOM_COUNT>  (1) 
0

>  <PUBCHEM_COMPONENT_COUNT>  (1) 
1

>  <PUBCHEM_CACTVS_TAUTO_COUNT>  (1) 
5

>  <PUBCHEM_CONFORMER_ID>  (1) 
0000BD9600000001

>  <PUBCHEM_MMFF94_ENERGY>  (1) 
49.1294

>  <PUBCHEM_FEATURE_SELFOVERLAP>  (1) 
40.653

>  <PUBCHEM_SHAPE_FINGERPRINT>  (1) 
10219947 1 18338518526023635601
10702982 57 18336831986560488250
10756046 5 18126006211297554684
12119455 92 18409166571682004436
12138202 97 18059583515361924567
12326174 3 18046369451701926355
12423570 1 14789676921292315986
12716301 132 17916851539042609595
13380536 243 18342451521976225005
13380536 261 17545608215186646909
13538477 17 18341602746122948490
14713566 1 18201164337888994144
14817 1 13281484582520332243
14993402 34 18341896281293986333
15775835 57 18408326592196004540
15852999 172 17774734103184909735
15906896 17 18264215879534463851
16752209 62 18128803313286940407
16945 1 18130803268918121352
18534176 82 17274555320301572702
20645476 183 18412259549731291239
22112679 90 18191278624722974106
22344851 262 18113902696946154461
23402539 116 17203054001643105728
23419403 2 15983411000479144939
23557571 272 17701817911394277048
2748010 2 18126315011046171415
298252 57 18411423907724267675
3060560 45 18341333280196408333
3250762 1 17413290722658319281
34934 24 18187078455707734848
528886 8 18040151846643755680

>  <PUBCHEM_SHAPE_MULTIPOLES>  (1) 
316.41
5.16
2.42
1.42
0.87
2.01
0.6
-2.74
-0.84
1.34
-0.78
-0.03
0.01
-0.74

>  <PUBCHEM_SHAPE_SELFOVERLAP>  (1) 
648.435

>  <PUBCHEM_SHAPE_VOLUME>  (1) 
180.3

>  <PUBCHEM_COORDINATE_TYPE>  (1) 
2
5
10

$$$$
