48535
     RDKit          3D

 17 17  0  0  0  0  0  0  0  0999 V2000
   -2.4297   -0.4668   -0.4875 O   0  0  0  0  0  0  0  0  0  0  0  0
   -0.1546    0.5339    2.1552 O   0  0  0  0  0  0  0  0  0  0  0  0
    0.5129   -0.4750   -2.4952 O   0  0  0  0  0  0  0  0  0  0  0  0
    3.8209   -1.1370    0.6057 O   0  0  0  0  0  0  0  0  0  0  0  0
    1.8147   -0.3046    1.3480 N   0  0  0  0  0  0  0  0  0  0  0  0
    2.1414   -0.7943   -0.9208 N   0  0  0  0  0  0  0  0  0  0  0  0
   -0.0545    0.0653   -0.2110 C   0  0  0  0  0  0  0  0  0  0  0  0
   -0.5820    1.4551   -0.5924 C   0  0  0  0  0  0  0  0  0  0  0  0
    0.5100    0.1314    1.1979 C   0  0  0  0  0  0  0  0  0  0  0  0
    0.8715   -0.4133   -1.3174 C   0  0  0  0  0  0  0  0  0  0  0  0
   -1.1748   -0.9348   -0.1496 C   0  0  0  0  0  0  0  0  0  0  0  0
    0.5254    2.4579   -0.6199 C   0  0  0  0  0  0  0  0  0  0  0  0
    2.6697   -0.7713    0.3612 C   0  0  0  0  0  0  0  0  0  0  0  0
   -1.0084   -2.2130    0.2081 C   0  0  0  0  0  0  0  0  0  0  0  0
   -3.3274   -0.6162    0.5943 C   0  0  0  0  0  0  0  0  0  0  0  0
    0.5479    3.5616    0.1354 C   0  0  0  0  0  0  0  0  0  0  0  0
   -4.6831   -0.0788    0.1880 C   0  0  0  0  0  0  0  0  0  0  0  0
  1 11  1  0
  1 15  1  0
  2  9  2  0
  3 10  2  0
  4 13  2  0
  5  9  1  0
  5 13  1  0
  6 10  1  0
  6 13  1  0
  7  8  1  0
  7  9  1  0
  7 10  1  0
  7 11  1  0
  8 12  1  0
 11 14  2  0
 12 16  2  0
 15 17  1  0
M  END
>  <PUBCHEM_COMPOUND_CID>  (1) 
48535

>  <PUBCHEM_CONFORMER_RMSD>  (1) 
0.8

>  <PUBCHEM_CONFORMER_DIVERSEORDER>  (1) 
1
12
15
11
7
2
5
14
6
9
8
3
4
10
13
16

>  <PUBCHEM_MMFF94_PARTIAL_CHARGES>  (1) 
23
1 -0.36
10 0.57
11 -0.06
12 -0.29
13 0.69
14 -0.3
15 0.28
16 -0.3
2 -0.57
20 0.37
21 0.37
22 0.15
23 0.15
24 0.15
27 0.15
28 0.15
3 -0.57
4 -0.57
5 -0.49
6 -0.49
7 0.26
8 0.14
9 0.57

>  <PUBCHEM_EFFECTIVE_ROTOR_COUNT>  (1) 
5.6

>  <PUBCHEM_PHARMACOPHORE_FEATURES>  (1) 
8
1 1 acceptor
1 16 hydrophobe
1 2 acceptor
1 3 acceptor
1 4 acceptor
1 5 donor
1 6 donor
6 5 6 7 9 10 13 rings

>  <PUBCHEM_HEAVY_ATOM_COUNT>  (1) 
17

>  <PUBCHEM_ATOM_DEF_STEREO_COUNT>  (1) 
0

>  <PUBCHEM_ATOM_UDEF_STEREO_COUNT>  (1) 
0

>  <PUBCHEM_BOND_DEF_STEREO_COUNT>  (1) 
0

>  <PUBCHEM_BOND_UDEF_STEREO_COUNT>  (1) 
0

>  <PUBCHEM_ISOTOPIC_ATOM_COUNT>  (1) 
0

>  <PUBCHEM_COMPONENT_COUNT>  (1) 
1

>  <PUBCHEM_CACTVS_TAUTO_COUNT>  (1) 
5

>  <PUBCHEM_CONFORMER_ID>  (1) 
0000BD9700000001

>  <PUBCHEM_MMFF94_ENERGY>  (1) 
41.7561

>  <PUBCHEM_FEATURE_SELFOVERLAP>  (1) 
40.638

>  <PUBCHEM_SHAPE_FINGERPRINT>  (1) 
11578080 2 16952499538289477876
12423570 1 15893258769500027268
13380536 53 17989488493881943926
13464514 151 18119262893604907013
14344429 50 18261397792714327167
14648413 74 18193283124630287131
14817 1 15261403594923999260
16945 1 17632005382049540182
19010151 120 18409736127321273578
20233049 118 17968088678017800437
20511035 2 17772181174645298267
20600515 1 18272095988906785038
21501502 16 18053946440006606511
21524375 3 17334227117864234293
22344851 341 17690296214307945464
229495 10 14260222026269205210
23402539 116 18270388413210910223
23557571 272 18340209588229848508
2748010 2 18119780621668372517
305870 269 17833271204678945629
4175511 71 18408881858521576561
430814 3 17330823033795454261
68250623 7 17905044003614021771
7364860 26 18121500412604489873
74978 22 18263645233331762411
81228 2 18053970371110530249

>  <PUBCHEM_SHAPE_MULTIPOLES>  (1) 
316.41
4.83
2.51
1.54
4.48
2.87
0.21
-2.07
-0.9
-0.98
-0.02
-0.56
-0.12
-0.06

>  <PUBCHEM_SHAPE_SELFOVERLAP>  (1) 
653.207

>  <PUBCHEM_SHAPE_VOLUME>  (1) 
180.1

>  <PUBCHEM_COORDINATE_TYPE>  (1) 
2
5
10

$$$$
