48544
     RDKit          3D

 17 17  0  0  1  0  0  0  0  0999 V2000
   -2.4215   -0.1008    0.4934 S   0  0  0  0  0  0  0  0  0  0  0  0
    0.0513   -0.7621    2.0929 O   0  0  0  0  0  0  0  0  0  0  0  0
    1.4512   -0.2872   -2.3641 O   0  0  0  0  0  0  0  0  0  0  0  0
    2.7133    2.7557    0.8304 O   0  0  0  0  0  0  0  0  0  0  0  0
    1.2999    1.0481    1.4401 N   0  0  0  0  0  0  0  0  0  0  0  0
    1.9987    1.2858   -0.7865 N   0  0  0  0  0  0  0  0  0  0  0  0
    0.2041   -0.3101   -0.2846 C   0  0  0  0  0  0  0  0  0  0  0  0
   -1.0861    0.4649   -0.6070 C   0  0  0  0  0  0  0  0  0  0  0  0
   -0.0326   -1.8092   -0.5187 C   0  0  0  0  0  0  0  0  0  0  0  0
    0.5145   -0.0671    1.1890 C   0  0  0  0  0  0  0  0  0  0  0  0
    1.2785    0.1924   -1.2438 C   0  0  0  0  0  0  0  0  0  0  0  0
   -1.4893    0.2711   -2.0594 C   0  0  0  0  0  0  0  0  0  0  0  0
    1.1489   -2.6070   -0.0770 C   0  0  0  0  0  0  0  0  0  0  0  0
    2.0373    1.7755    0.5135 C   0  0  0  0  0  0  0  0  0  0  0  0
   -3.7380    0.9690   -0.1282 C   0  0  0  0  0  0  0  0  0  0  0  0
   -5.0297    0.7175    0.6262 C   0  0  0  0  0  0  0  0  0  0  0  0
    1.0993   -3.5366    0.8837 C   0  0  0  0  0  0  0  0  0  0  0  0
  1  8  1  0
  1 15  1  0
  2 10  2  0
  3 11  2  0
  4 14  2  0
  5 10  1  0
  5 14  1  0
  6 11  1  0
  6 14  1  0
  7  8  1  0
  7  9  1  0
  7 10  1  0
  7 11  1  0
  8 12  1  0
  9 13  1  0
 13 17  2  0
 15 16  1  0
M  END
>  <PUBCHEM_COMPOUND_CID>  (1) 
48544

>  <PUBCHEM_CONFORMER_RMSD>  (1) 
0.8

>  <PUBCHEM_CONFORMER_DIVERSEORDER>  (1) 
2
6
14
4
5
10
13
9
11
1
7
12
3
8

>  <PUBCHEM_MMFF94_PARTIAL_CHARGES>  (1) 
20
1 -0.46
10 0.57
11 0.57
13 -0.29
14 0.69
15 0.23
17 -0.3
2 -0.57
24 0.37
25 0.37
26 0.15
3 -0.57
32 0.15
33 0.15
4 -0.57
5 -0.49
6 -0.49
7 0.12
8 0.23
9 0.14

>  <PUBCHEM_EFFECTIVE_ROTOR_COUNT>  (1) 
5.6

>  <PUBCHEM_PHARMACOPHORE_FEATURES>  (1) 
9
1 12 hydrophobe
1 16 hydrophobe
1 17 hydrophobe
1 2 acceptor
1 3 acceptor
1 4 acceptor
1 5 donor
1 6 donor
6 5 6 7 10 11 14 rings

>  <PUBCHEM_HEAVY_ATOM_COUNT>  (1) 
17

>  <PUBCHEM_ATOM_DEF_STEREO_COUNT>  (1) 
0

>  <PUBCHEM_ATOM_UDEF_STEREO_COUNT>  (1) 
1

>  <PUBCHEM_BOND_DEF_STEREO_COUNT>  (1) 
0

>  <PUBCHEM_BOND_UDEF_STEREO_COUNT>  (1) 
0

>  <PUBCHEM_ISOTOPIC_ATOM_COUNT>  (1) 
0

>  <PUBCHEM_COMPONENT_COUNT>  (1) 
1

>  <PUBCHEM_CACTVS_TAUTO_COUNT>  (1) 
5

>  <PUBCHEM_CONFORMER_ID>  (1) 
0000BDA000000002

>  <PUBCHEM_MMFF94_ENERGY>  (1) 
53.7391

>  <PUBCHEM_FEATURE_SELFOVERLAP>  (1) 
45.712

>  <PUBCHEM_SHAPE_FINGERPRINT>  (1) 
12423570 1 11653688352431010702
12532896 13 18196934585212808135
13132413 78 17912635809508036848
13134695 92 17977932498067683511
14178342 30 18187933940838004579
14617773 55 16595325608594565916
14817 1 14855499824944618710
15906896 17 17767111382496001950
16945 1 18192968483831883082
19765921 60 17917142922387137081
20820808 20 17989492943536809761
21041028 32 17979346465372575641
21524375 3 17915725664678600193
23419403 2 14209918278566599366
25 1 17775013443489300081
298252 57 16954546884858951926
305870 269 18411973684960263921
430814 3 18268130123532868105
576247 118 17616509788559546091
6442390 28 18195256730949155875
7364860 26 18337670802511180147
81228 2 17542775864633271326
9999458 23 18411136935210504132

>  <PUBCHEM_SHAPE_MULTIPOLES>  (1) 
326.13
4.96
2.82
1.81
9.2
1.62
-0.5
-2.04
0.98
-3.45
0.99
-0.46
-0.12
0.26

>  <PUBCHEM_SHAPE_SELFOVERLAP>  (1) 
652.18

>  <PUBCHEM_SHAPE_VOLUME>  (1) 
193.8

>  <PUBCHEM_COORDINATE_TYPE>  (1) 
2
5
10

$$$$
