48540
     RDKit          3D

 17 17  0  0  0  0  0  0  0  0999 V2000
   -0.4745   -1.8267   -1.6285 O   0  0  0  0  0  0  0  0  0  0  0  0
    0.3590    1.1257    1.9267 O   0  0  0  0  0  0  0  0  0  0  0  0
    3.8173   -0.9498   -0.2615 O   0  0  0  0  0  0  0  0  0  0  0  0
    1.6731   -1.3107   -1.0083 N   0  0  0  0  0  0  0  0  0  0  0  0
    2.0894    0.1636    0.7680 N   0  0  0  0  0  0  0  0  0  0  0  0
   -0.1564    0.1209   -0.2192 C   0  0  0  0  0  0  0  0  0  0  0  0
   -1.5832   -0.1040    0.3021 C   0  0  0  0  0  0  0  0  0  0  0  0
   -1.6537   -1.3130    1.2585 C   0  0  0  0  0  0  0  0  0  0  0  0
   -2.5822   -0.3182   -0.8543 C   0  0  0  0  0  0  0  0  0  0  0  0
   -0.1550    1.3050   -1.2026 C   0  0  0  0  0  0  0  0  0  0  0  0
    0.3012   -1.1077   -0.9989 C   0  0  0  0  0  0  0  0  0  0  0  0
    0.7561    0.5036    0.9418 C   0  0  0  0  0  0  0  0  0  0  0  0
   -0.7642   -1.1793    2.4867 C   0  0  0  0  0  0  0  0  0  0  0  0
   -4.0027   -0.6154   -0.3941 C   0  0  0  0  0  0  0  0  0  0  0  0
   -0.5220    2.5726   -0.5054 C   0  0  0  0  0  0  0  0  0  0  0  0
    2.6126   -0.7029   -0.1843 C   0  0  0  0  0  0  0  0  0  0  0  0
    0.2852    3.6364   -0.4266 C   0  0  0  0  0  0  0  0  0  0  0  0
  1 11  2  0
  2 12  2  0
  3 16  2  0
  4 11  1  0
  4 16  1  0
  5 12  1  0
  5 16  1  0
  6  7  1  0
  6 10  1  0
  6 11  1  0
  6 12  1  0
  7  8  1  0
  7  9  1  0
  8 13  1  0
  9 14  1  0
 10 15  1  0
 15 17  2  0
M  END
>  <PUBCHEM_COMPOUND_CID>  (1) 
48540

>  <PUBCHEM_CONFORMER_RMSD>  (1) 
0.8

>  <PUBCHEM_CONFORMER_DIVERSEORDER>  (1) 
1
4
3
2

>  <PUBCHEM_MMFF94_PARTIAL_CHARGES>  (1) 
17
1 -0.57
10 0.14
11 0.57
12 0.57
15 -0.29
16 0.69
17 -0.3
2 -0.57
3 -0.57
31 0.37
32 0.37
33 0.15
34 0.15
35 0.15
4 -0.49
5 -0.49
6 0.12

>  <PUBCHEM_EFFECTIVE_ROTOR_COUNT>  (1) 
5.6

>  <PUBCHEM_PHARMACOPHORE_FEATURES>  (1) 
9
1 1 acceptor
1 13 hydrophobe
1 14 hydrophobe
1 17 hydrophobe
1 2 acceptor
1 3 acceptor
1 4 donor
1 5 donor
6 4 5 6 11 12 16 rings

>  <PUBCHEM_HEAVY_ATOM_COUNT>  (1) 
17

>  <PUBCHEM_ATOM_DEF_STEREO_COUNT>  (1) 
0

>  <PUBCHEM_ATOM_UDEF_STEREO_COUNT>  (1) 
0

>  <PUBCHEM_BOND_DEF_STEREO_COUNT>  (1) 
0

>  <PUBCHEM_BOND_UDEF_STEREO_COUNT>  (1) 
0

>  <PUBCHEM_ISOTOPIC_ATOM_COUNT>  (1) 
0

>  <PUBCHEM_COMPONENT_COUNT>  (1) 
1

>  <PUBCHEM_CACTVS_TAUTO_COUNT>  (1) 
5

>  <PUBCHEM_CONFORMER_ID>  (1) 
0000BD9C00000001

>  <PUBCHEM_MMFF94_ENERGY>  (1) 
61.7961

>  <PUBCHEM_FEATURE_SELFOVERLAP>  (1) 
45.712

>  <PUBCHEM_SHAPE_FINGERPRINT>  (1) 
12423570 1 11286166935860699533
12592029 89 17762062442096591764
13024252 1 17531254902751095682
141345 1 12303580718918730896
14181834 199 17845091950972404213
14648413 74 18045221802233826677
14713566 1 17022628554566967506
14817 1 17327963929932704688
16945 1 18264481797875351418
20473742 2 17702927240832105529
20511035 2 17700123597829580903
21524375 3 17180253206043677364
22344851 12 15522108195574234245
22344851 262 17911216623263991853
22344851 341 17471577620647364971
23402539 116 18188205386337897110
23419403 2 16770663318767906019
23526113 38 18114740537881423347
23559900 14 17603588547923555562
2748010 2 18125128650505076717
3250762 1 17621322333832364671
430814 3 16975376187706915681
5337951 7 17822571736869764653
68250623 7 17758386383846073843
7364860 26 18121220050203851949
81228 2 18117574928396993260

>  <PUBCHEM_SHAPE_MULTIPOLES>  (1) 
322.28
3.93
2.67
1.75
0.66
3.4
-0.74
-2.02
0.86
-0.56
0.08
0.25
-0.79
0.54

>  <PUBCHEM_SHAPE_SELFOVERLAP>  (1) 
661.223

>  <PUBCHEM_SHAPE_VOLUME>  (1) 
182.1

>  <PUBCHEM_COORDINATE_TYPE>  (1) 
2
5
10

$$$$
