4854
     RDKit          3D

 23 26  0  0  1  0  0  0  0  0999 V2000
    3.3158   -0.7400    0.1568 N   0  0  0  0  0  0  0  0  0  0  0  0
    2.2344    0.2657    0.0824 C   0  0  0  0  0  0  0  0  0  0  0  0
    0.9844   -0.5801    0.1385 C   0  0  0  0  0  0  0  0  0  0  0  0
    1.3609   -2.0256    0.0080 C   0  0  0  0  0  0  0  0  0  0  0  0
    2.7971   -1.9467   -0.4930 C   0  0  0  0  0  0  0  0  0  0  0  0
   -0.2672   -0.1323    0.2902 C   0  0  0  0  0  0  0  0  0  0  0  0
    4.6121   -0.3339   -0.3564 C   0  0  0  0  0  0  0  0  0  0  0  0
    2.2437    1.1651   -1.1594 C   0  0  0  0  0  0  0  0  0  0  0  0
   -0.4353    1.3319    0.4015 C   0  0  0  0  0  0  0  0  0  0  0  0
   -1.3999   -1.0941    0.2342 C   0  0  0  0  0  0  0  0  0  0  0  0
   -1.1337    2.0249   -0.6010 C   0  0  0  0  0  0  0  0  0  0  0  0
   -2.5744   -0.8604   -0.5150 C   0  0  0  0  0  0  0  0  0  0  0  0
   -1.7121    1.2773   -1.7751 C   0  0  0  0  0  0  0  0  0  0  0  0
   -2.8689    0.3683   -1.3575 C   0  0  0  0  0  0  0  0  0  0  0  0
    5.6580   -1.4099   -0.1189 C   0  0  0  0  0  0  0  0  0  0  0  0
    0.0874    2.0353    1.4977 C   0  0  0  0  0  0  0  0  0  0  0  0
   -1.3140   -2.2710    1.0107 C   0  0  0  0  0  0  0  0  0  0  0  0
   -1.2922    3.4141   -0.4950 C   0  0  0  0  0  0  0  0  0  0  0  0
   -3.6100   -1.8203   -0.4651 C   0  0  0  0  0  0  0  0  0  0  0  0
   -0.0774    3.4169    1.5914 C   0  0  0  0  0  0  0  0  0  0  0  0
   -2.3469   -3.2078    1.0350 C   0  0  0  0  0  0  0  0  0  0  0  0
   -0.7654    4.1055    0.5958 C   0  0  0  0  0  0  0  0  0  0  0  0
   -3.4965   -2.9831    0.2940 C   0  0  0  0  0  0  0  0  0  0  0  0
  1  2  1  0
  1  5  1  0
  1  7  1  0
  2  3  1  0
  2  8  1  0
  3  4  1  0
  3  6  2  3
  4  5  1  0
  6  9  1  0
  6 10  1  0
  7 15  1  0
  9 11  2  0
  9 16  1  0
 10 12  2  0
 10 17  1  0
 11 13  1  0
 11 18  1  0
 12 14  1  0
 12 19  1  0
 13 14  1  0
 16 20  2  0
 17 21  2  0
 18 22  2  0
 19 23  2  0
 20 22  1  0
 21 23  1  0
M  END
>  <PUBCHEM_COMPOUND_CID>  (1) 
4854

>  <PUBCHEM_CONFORMER_RMSD>  (1) 
0.6

>  <PUBCHEM_CONFORMER_DIVERSEORDER>  (1) 
1
3
4
2
5

>  <PUBCHEM_MMFF94_PARTIAL_CHARGES>  (1) 
29
1 -0.81
10 0.03
11 -0.14
12 -0.14
13 0.14
14 0.14
16 -0.15
17 -0.15
18 -0.15
19 -0.15
2 0.41
20 -0.15
21 -0.15
22 -0.15
23 -0.15
3 -0.28
4 0.14
41 0.15
42 0.15
43 0.15
44 0.15
45 0.15
46 0.15
47 0.15
48 0.15
5 0.27
6 -0.06
7 0.27
9 0.03

>  <PUBCHEM_EFFECTIVE_ROTOR_COUNT>  (1) 
2.2

>  <PUBCHEM_PHARMACOPHORE_FEATURES>  (1) 
5
1 1 cation
5 1 2 3 4 5 rings
6 10 12 17 19 21 23 rings
6 9 11 16 18 20 22 rings
7 6 9 10 11 12 13 14 rings

>  <PUBCHEM_HEAVY_ATOM_COUNT>  (1) 
23

>  <PUBCHEM_ATOM_DEF_STEREO_COUNT>  (1) 
0

>  <PUBCHEM_ATOM_UDEF_STEREO_COUNT>  (1) 
1

>  <PUBCHEM_BOND_DEF_STEREO_COUNT>  (1) 
0

>  <PUBCHEM_BOND_UDEF_STEREO_COUNT>  (1) 
0

>  <PUBCHEM_ISOTOPIC_ATOM_COUNT>  (1) 
0

>  <PUBCHEM_COMPONENT_COUNT>  (1) 
1

>  <PUBCHEM_CACTVS_TAUTO_COUNT>  (1) 
1

>  <PUBCHEM_CONFORMER_ID>  (1) 
000012F600000001

>  <PUBCHEM_MMFF94_ENERGY>  (1) 
81.2861

>  <PUBCHEM_FEATURE_SELFOVERLAP>  (1) 
25.386

>  <PUBCHEM_SHAPE_FINGERPRINT>  (1) 
1100329 8 18411143506822262049
11036077 51 17978790108421002042
11578080 2 16198709516414199089
12035758 1 17547566441259712624
12173636 292 17977953379898301628
12293681 160 17981865481114888857
12403259 226 18119244206049338035
12506688 2 18338239391540441695
12788726 201 18267293240697105299
13027679 85 18411418444905681653
13134695 92 18124880307116609711
13140716 1 18410582815841679842
138480 1 15600048150992859688
14251740 79 18261392191971952338
14787075 74 17982442707908756877
14790565 3 18122345679749917997
14863182 85 16388467979228207935
16945 1 18261385607522875735
17980427 23 17274280429958133523
1813 80 17915764143227087574
19591789 44 16823908642701370116
1979834 28 16675294253620434995
20510252 161 18266175037376749771
20600515 1 18262254311998513039
20775438 99 17188089902114704687
21049683 271 17901962059652255830
21339142 36 18412822499331128686
22182313 1 18049420832692433157
22907989 373 18337973220006707644
23419403 2 18127114488800587697
23557571 272 18341898454937776454
23558518 356 18122916326015234238
23559900 14 18410000040888893208
2748010 2 17468747941858988559
283562 15 18408327679208157978
3380486 145 18194127540897099666
394222 165 16883835917966983385
458136 41 17185890930460893707
495365 180 17695058199917092083
5895379 119 15978133255019769931
59755656 520 18048321037770635724
6786 2 13714899460360416661
7364860 26 17762340618954994627
81228 2 18340781337848553593
84936 31 17483403301980052997
9709674 26 18199188374235129526
9981440 41 17841971327152926978

>  <PUBCHEM_SHAPE_MULTIPOLES>  (1) 
468.35
6.69
4.73
1.29
9.01
3.28
-0.02
-6.53
-1.48
-3.25
1.63
-0.55
0.68
0.8

>  <PUBCHEM_SHAPE_SELFOVERLAP>  (1) 
1024.76

>  <PUBCHEM_SHAPE_VOLUME>  (1) 
252.7

>  <PUBCHEM_COORDINATE_TYPE>  (1) 
2
5
10

$$$$
