48552
     RDKit          3D

 16 16  0  0  1  0  0  0  0  0999 V2000
    0.5057   -1.8087   -1.6050 O   0  0  0  0  0  0  0  0  0  0  0  0
    0.0020    0.9222    2.1816 O   0  0  0  0  0  0  0  0  0  0  0  0
   -3.6656   -0.6507   -0.0836 O   0  0  0  0  0  0  0  0  0  0  0  0
   -1.5753   -1.1482   -0.9011 N   0  0  0  0  0  0  0  0  0  0  0  0
   -1.8269    0.2165    0.9901 N   0  0  0  0  0  0  0  0  0  0  0  0
    0.3907    0.0443   -0.0451 C   0  0  0  0  0  0  0  0  0  0  0  0
    0.4857    1.2962   -0.9356 C   0  0  0  0  0  0  0  0  0  0  0  0
    1.7977   -0.3505    0.4268 C   0  0  0  0  0  0  0  0  0  0  0  0
   -0.1904   -1.0730   -0.9059 C   0  0  0  0  0  0  0  0  0  0  0  0
   -0.4654    0.4179    1.1609 C   0  0  0  0  0  0  0  0  0  0  0  0
    1.3485    1.0078   -2.1606 C   0  0  0  0  0  0  0  0  0  0  0  0
    1.0539    2.4456   -0.1490 C   0  0  0  0  0  0  0  0  0  0  0  0
    1.7629   -1.6435    1.1715 C   0  0  0  0  0  0  0  0  0  0  0  0
   -2.4422   -0.5220   -0.0135 C   0  0  0  0  0  0  0  0  0  0  0  0
    0.3948    3.5865    0.0836 C   0  0  0  0  0  0  0  0  0  0  0  0
    2.4237   -2.7404    0.7848 C   0  0  0  0  0  0  0  0  0  0  0  0
  1  9  2  0
  2 10  2  0
  3 14  2  0
  4  9  1  0
  4 14  1  0
  5 10  1  0
  5 14  1  0
  6  7  1  0
  6  8  1  0
  6  9  1  0
  6 10  1  0
  7 11  1  0
  7 12  1  0
  8 13  1  0
 12 15  2  0
 13 16  2  0
M  END
>  <PUBCHEM_COMPOUND_CID>  (1) 
48552

>  <PUBCHEM_CONFORMER_RMSD>  (1) 
0.6

>  <PUBCHEM_CONFORMER_DIVERSEORDER>  (1) 
4
27
13
24
3
9
8
15
10
28
6
17
5
23
19
18
25
2
22
26
12
1
16
20
11
7
14
21

>  <PUBCHEM_MMFF94_PARTIAL_CHARGES>  (1) 
23
1 -0.57
10 0.57
12 -0.29
13 -0.29
14 0.69
15 -0.3
16 -0.3
2 -0.57
23 0.15
24 0.37
25 0.37
26 0.15
27 0.15
28 0.15
29 0.15
3 -0.57
30 0.15
4 -0.49
5 -0.49
6 0.12
7 0.14
8 0.14
9 0.57

>  <PUBCHEM_EFFECTIVE_ROTOR_COUNT>  (1) 
4.6

>  <PUBCHEM_PHARMACOPHORE_FEATURES>  (1) 
9
1 1 acceptor
1 11 hydrophobe
1 15 hydrophobe
1 16 hydrophobe
1 2 acceptor
1 3 acceptor
1 4 donor
1 5 donor
6 4 5 6 9 10 14 rings

>  <PUBCHEM_HEAVY_ATOM_COUNT>  (1) 
16

>  <PUBCHEM_ATOM_DEF_STEREO_COUNT>  (1) 
0

>  <PUBCHEM_ATOM_UDEF_STEREO_COUNT>  (1) 
1

>  <PUBCHEM_BOND_DEF_STEREO_COUNT>  (1) 
0

>  <PUBCHEM_BOND_UDEF_STEREO_COUNT>  (1) 
0

>  <PUBCHEM_ISOTOPIC_ATOM_COUNT>  (1) 
0

>  <PUBCHEM_COMPONENT_COUNT>  (1) 
1

>  <PUBCHEM_CACTVS_TAUTO_COUNT>  (1) 
5

>  <PUBCHEM_CONFORMER_ID>  (1) 
0000BDA800000004

>  <PUBCHEM_MMFF94_ENERGY>  (1) 
47.8969

>  <PUBCHEM_FEATURE_SELFOVERLAP>  (1) 
45.712

>  <PUBCHEM_SHAPE_FINGERPRINT>  (1) 
10702982 57 17616245223006041352
12138202 97 17111001544056901286
12326174 3 18117869717692979486
12423570 1 9710956880736595029
12716301 132 16969442711804520170
13024252 1 14783795092714228154
13132413 78 18271233997650453576
13134695 92 18264467556175384885
14817 1 11969505135878781353
16945 1 18264751311373423970
19765921 60 17695072493141037441
20511035 2 17986372589825108939
21524375 3 17836933669521437237
22112679 90 18054257369409804768
22344851 12 7870011297708406351
22344851 341 17908991246089202538
23419403 2 17695298726100596449
305870 269 17901373820921144773
430814 3 17761200412248240981
5845 1 8566494919914973918
7364860 26 18262794193729689723
81228 2 17464530902117181058

>  <PUBCHEM_SHAPE_MULTIPOLES>  (1) 
301.7
3.19
3.01
1.7
1.11
3.21
0.2
-2.75
-0.76
-1.1
0.26
0.05
-0.37
0.58

>  <PUBCHEM_SHAPE_SELFOVERLAP>  (1) 
624.292

>  <PUBCHEM_SHAPE_VOLUME>  (1) 
169.4

>  <PUBCHEM_COORDINATE_TYPE>  (1) 
2
5
10

$$$$
