48559
     RDKit          3D

 16 16  0  0  0  0  0  0  0  0999 V2000
   -0.0382    0.6681    2.2487 O   0  0  0  0  0  0  0  0  0  0  0  0
   -0.1778   -0.4690   -2.4179 O   0  0  0  0  0  0  0  0  0  0  0  0
    3.4105   -1.5602    0.2145 O   0  0  0  0  0  0  0  0  0  0  0  0
    1.6631   -0.4467    1.2022 N   0  0  0  0  0  0  0  0  0  0  0  0
    1.5963   -0.9991   -1.0748 N   0  0  0  0  0  0  0  0  0  0  0  0
   -0.3379    0.1675   -0.0940 C   0  0  0  0  0  0  0  0  0  0  0  0
   -0.7170    1.6140   -0.4393 C   0  0  0  0  0  0  0  0  0  0  0  0
   -1.5656   -0.6643    0.1507 C   0  0  0  0  0  0  0  0  0  0  0  0
    0.4230    0.1670    1.2210 C   0  0  0  0  0  0  0  0  0  0  0  0
    0.3481   -0.4471   -1.3032 C   0  0  0  0  0  0  0  0  0  0  0  0
   -1.2782   -2.0825    0.5554 C   0  0  0  0  0  0  0  0  0  0  0  0
   -2.7911   -0.1266    0.0027 C   0  0  0  0  0  0  0  0  0  0  0  0
    0.5032    2.4507   -0.6487 C   0  0  0  0  0  0  0  0  0  0  0  0
    2.2979   -1.0386    0.1207 C   0  0  0  0  0  0  0  0  0  0  0  0
   -4.1204   -0.7807    0.1982 C   0  0  0  0  0  0  0  0  0  0  0  0
    0.7839    3.5474    0.0638 C   0  0  0  0  0  0  0  0  0  0  0  0
  1  9  2  0
  2 10  2  0
  3 14  2  0
  4  9  1  0
  4 14  1  0
  5 10  1  0
  5 14  1  0
  6  7  1  0
  6  8  1  0
  6  9  1  0
  6 10  1  0
  7 13  1  0
  8 11  1  0
  8 12  2  0
 12 15  1  0
 13 16  2  0
M  END
>  <PUBCHEM_COMPOUND_CID>  (1) 
48559

>  <PUBCHEM_CONFORMER_RMSD>  (1) 
0.6

>  <PUBCHEM_CONFORMER_DIVERSEORDER>  (1) 
1
3
6
5
10
4
7
2
8
9

>  <PUBCHEM_MMFF94_PARTIAL_CHARGES>  (1) 
22
1 -0.57
10 0.57
11 0.14
12 -0.29
13 -0.29
14 0.69
15 0.14
16 -0.3
2 -0.57
22 0.37
23 0.37
24 0.15
25 0.15
29 0.15
3 -0.57
30 0.15
4 -0.49
5 -0.49
6 0.26
7 0.14
8 -0.28
9 0.57

>  <PUBCHEM_EFFECTIVE_ROTOR_COUNT>  (1) 
3.6

>  <PUBCHEM_PHARMACOPHORE_FEATURES>  (1) 
9
1 1 acceptor
1 11 hydrophobe
1 15 hydrophobe
1 16 hydrophobe
1 2 acceptor
1 3 acceptor
1 4 donor
1 5 donor
6 4 5 6 9 10 14 rings

>  <PUBCHEM_HEAVY_ATOM_COUNT>  (1) 
16

>  <PUBCHEM_ATOM_DEF_STEREO_COUNT>  (1) 
0

>  <PUBCHEM_ATOM_UDEF_STEREO_COUNT>  (1) 
0

>  <PUBCHEM_BOND_DEF_STEREO_COUNT>  (1) 
0

>  <PUBCHEM_BOND_UDEF_STEREO_COUNT>  (1) 
1

>  <PUBCHEM_ISOTOPIC_ATOM_COUNT>  (1) 
0

>  <PUBCHEM_COMPONENT_COUNT>  (1) 
1

>  <PUBCHEM_CACTVS_TAUTO_COUNT>  (1) 
5

>  <PUBCHEM_CONFORMER_ID>  (1) 
0000BDAF00000001

>  <PUBCHEM_MMFF94_ENERGY>  (1) 
39.2647

>  <PUBCHEM_FEATURE_SELFOVERLAP>  (1) 
45.713

>  <PUBCHEM_SHAPE_FINGERPRINT>  (1) 
11578080 2 16807258437274099916
12423570 1 12019975618817878836
12592029 89 17977958100178129672
13024252 1 17314804987925213650
13134695 92 17846203476172450297
14181834 199 17845926454549291893
14344429 50 18188212099846631639
14648413 74 18191309488420980763
14817 1 11143977018341056284
15557651 10 17626915639650683177
16945 1 18266749167003675873
19010151 120 18337681823202037506
20233049 118 17823129039352869581
20473742 2 18189328138097093405
20511035 2 17844240946395214507
20600515 1 18200888304509441711
21501502 16 18054512680031654951
21524375 3 17478622660004202605
22344851 341 17691989453635315950
23402539 116 18339633426282005943
23419403 2 17915434173869908121
2748010 2 18192403351877105713
305870 269 17832988630148370261
430814 3 17619339253053361669
6442390 28 17046280995354148217
68250623 7 17976540838253162203
7364860 26 18193560188596567489
81228 2 18050586057082324801
81539 233 17829327235258910669

>  <PUBCHEM_SHAPE_MULTIPOLES>  (1) 
301.7
3.89
2.69
1.54
3.28
2.53
0.15
-1.93
-0.38
-1.94
-0.03
-0.29
-0.12
0.09

>  <PUBCHEM_SHAPE_SELFOVERLAP>  (1) 
624.527

>  <PUBCHEM_SHAPE_VOLUME>  (1) 
171.4

>  <PUBCHEM_COORDINATE_TYPE>  (1) 
2
5
10

$$$$
