48562
     RDKit          3D

 20 21  0  0  0  0  0  0  0  0999 V2000
    1.0984   -0.8799    2.0401 O   0  0  0  0  0  0  0  0  0  0  0  0
    1.0254    1.2328   -2.1529 O   0  0  0  0  0  0  0  0  0  0  0  0
    4.5241    1.8844    0.7437 O   0  0  0  0  0  0  0  0  0  0  0  0
    2.8560    0.4230    1.3500 N   0  0  0  0  0  0  0  0  0  0  0  0
    2.8191    1.4789   -0.7443 N   0  0  0  0  0  0  0  0  0  0  0  0
    1.2306   -0.3424   -0.3208 C   0  0  0  0  0  0  0  0  0  0  0  0
   -0.2951   -0.5068   -0.3771 C   0  0  0  0  0  0  0  0  0  0  0  0
    1.8987   -1.5760   -0.9542 C   0  0  0  0  0  0  0  0  0  0  0  0
   -0.9936    0.6835    0.2685 C   0  0  0  0  0  0  0  0  0  0  0  0
    1.6842   -0.2868    1.1346 C   0  0  0  0  0  0  0  0  0  0  0  0
    1.6441    0.8666   -1.1541 C   0  0  0  0  0  0  0  0  0  0  0  0
   -2.4921    0.5334    0.2088 C   0  0  0  0  0  0  0  0  0  0  0  0
    1.4343   -2.8292   -0.2899 C   0  0  0  0  0  0  0  0  0  0  0  0
    3.4819    1.2901    0.4626 C   0  0  0  0  0  0  0  0  0  0  0  0
   -3.1843    1.0344   -0.8839 C   0  0  0  0  0  0  0  0  0  0  0  0
   -3.1555   -0.1038    1.2470 C   0  0  0  0  0  0  0  0  0  0  0  0
    0.7874   -3.8111   -0.9277 C   0  0  0  0  0  0  0  0  0  0  0  0
   -4.5711    0.8953   -0.9395 C   0  0  0  0  0  0  0  0  0  0  0  0
   -4.5423   -0.2429    1.1912 C   0  0  0  0  0  0  0  0  0  0  0  0
   -5.2501    0.2566    0.0979 C   0  0  0  0  0  0  0  0  0  0  0  0
  1 10  2  0
  2 11  2  0
  3 14  2  0
  4 10  1  0
  4 14  1  0
  5 11  1  0
  5 14  1  0
  6  7  1  0
  6  8  1  0
  6 10  1  0
  6 11  1  0
  7  9  1  0
  8 13  1  0
  9 12  1  0
 12 15  2  0
 12 16  1  0
 13 17  2  0
 15 18  1  0
 16 19  2  0
 18 20  2  0
 19 20  1  0
M  END
>  <PUBCHEM_COMPOUND_CID>  (1) 
48562

>  <PUBCHEM_CONFORMER_RMSD>  (1) 
0.8

>  <PUBCHEM_CONFORMER_DIVERSEORDER>  (1) 
1
12
11
6
14
7
9
8
13
3
10
4
2
5

>  <PUBCHEM_MMFF94_PARTIAL_CHARGES>  (1) 
29
1 -0.57
10 0.57
11 0.57
12 -0.14
13 -0.29
14 0.69
15 -0.15
16 -0.15
17 -0.3
18 -0.15
19 -0.15
2 -0.57
20 -0.15
27 0.37
28 0.37
29 0.15
3 -0.57
30 0.15
31 0.15
32 0.15
33 0.15
34 0.15
35 0.15
36 0.15
4 -0.49
5 -0.49
6 0.12
8 0.14
9 0.14

>  <PUBCHEM_EFFECTIVE_ROTOR_COUNT>  (1) 
5.6

>  <PUBCHEM_PHARMACOPHORE_FEATURES>  (1) 
8
1 1 acceptor
1 17 hydrophobe
1 2 acceptor
1 3 acceptor
1 4 donor
1 5 donor
6 12 15 16 18 19 20 rings
6 4 5 6 10 11 14 rings

>  <PUBCHEM_HEAVY_ATOM_COUNT>  (1) 
20

>  <PUBCHEM_ATOM_DEF_STEREO_COUNT>  (1) 
0

>  <PUBCHEM_ATOM_UDEF_STEREO_COUNT>  (1) 
0

>  <PUBCHEM_BOND_DEF_STEREO_COUNT>  (1) 
0

>  <PUBCHEM_BOND_UDEF_STEREO_COUNT>  (1) 
0

>  <PUBCHEM_ISOTOPIC_ATOM_COUNT>  (1) 
0

>  <PUBCHEM_COMPONENT_COUNT>  (1) 
1

>  <PUBCHEM_CACTVS_TAUTO_COUNT>  (1) 
5

>  <PUBCHEM_CONFORMER_ID>  (1) 
0000BDB200000001

>  <PUBCHEM_MMFF94_ENERGY>  (1) 
55.9471

>  <PUBCHEM_FEATURE_SELFOVERLAP>  (1) 
40.636

>  <PUBCHEM_SHAPE_FINGERPRINT>  (1) 
121448 382 17986659570675534991
13224815 77 18411984637754577209
13533116 47 18059295349854743219
13631057 29 17701242862703132399
13955234 65 18341619161556876603
14004458 79 17405156604387378654
14289901 80 18201149963129371865
15375358 24 18187363225425248729
17980427 23 17677894719668794205
1813 80 17199683870024401126
204376 136 18342174522160199512
20645477 70 18337107861490714791
21054139 6 18058154202323480823
2255824 54 18059013860996475535
23419403 2 17264653964854299746
23557571 272 17749395810963578541
23559900 14 18042697113204420623
239999 70 17967828132379858203
3060560 45 18410019831723673230
312423 11 17560247899336613259
427121 178 18060423542435338746
474 4 17702942668217989521
633830 44 17704083909753008537
7364860 26 18341052904478364270
81539 233 18411417310765290082
9709674 26 17895204298681002235
9971528 1 11818991911147245462
9999458 23 18272650134768112966

>  <PUBCHEM_SHAPE_MULTIPOLES>  (1) 
384.02
8.63
2.55
1.56
9.74
3.23
0.08
-3.97
1.24
-3.14
-0.77
-0.22
-0.19
0.78

>  <PUBCHEM_SHAPE_SELFOVERLAP>  (1) 
814.859

>  <PUBCHEM_SHAPE_VOLUME>  (1) 
210.7

>  <PUBCHEM_COORDINATE_TYPE>  (1) 
2
5
10

$$$$
