48564
     RDKit          3D

 15 15  0  0  0  0  0  0  0  0999 V2000
   -0.3783   -1.8412   -1.8154 O   0  0  0  0  0  0  0  0  0  0  0  0
   -0.3708    1.0807    1.8605 O   0  0  0  0  0  0  0  0  0  0  0  0
    3.4616   -1.0960    0.5839 O   0  0  0  0  0  0  0  0  0  0  0  0
    1.5614   -1.3911   -0.6761 N   0  0  0  0  0  0  0  0  0  0  0  0
    1.5648    0.0680    1.1606 N   0  0  0  0  0  0  0  0  0  0  0  0
   -0.3647    0.0943   -0.3547 C   0  0  0  0  0  0  0  0  0  0  0  0
   -1.8823   -0.0880   -0.2067 C   0  0  0  0  0  0  0  0  0  0  0  0
   -0.0842    1.2789   -1.2966 C   0  0  0  0  0  0  0  0  0  0  0  0
   -2.2030   -1.2749    0.6902 C   0  0  0  0  0  0  0  0  0  0  0  0
    0.2368   -1.1468   -1.0065 C   0  0  0  0  0  0  0  0  0  0  0  0
    0.2407    0.4479    1.0001 C   0  0  0  0  0  0  0  0  0  0  0  0
   -0.5763    2.5562   -0.7017 C   0  0  0  0  0  0  0  0  0  0  0  0
   -3.7053   -1.4700    0.8169 C   0  0  0  0  0  0  0  0  0  0  0  0
    2.2833   -0.8129    0.3610 C   0  0  0  0  0  0  0  0  0  0  0  0
    0.2164    3.5950   -0.4154 C   0  0  0  0  0  0  0  0  0  0  0  0
  1 10  2  0
  2 11  2  0
  3 14  2  0
  4 10  1  0
  4 14  1  0
  5 11  1  0
  5 14  1  0
  6  7  1  0
  6  8  1  0
  6 10  1  0
  6 11  1  0
  7  9  1  0
  8 12  1  0
  9 13  1  0
 12 15  2  0
M  END
>  <PUBCHEM_COMPOUND_CID>  (1) 
48564

>  <PUBCHEM_CONFORMER_RMSD>  (1) 
0.6

>  <PUBCHEM_CONFORMER_DIVERSEORDER>  (1) 
1
4
10
5
2
8
6
9
3
7

>  <PUBCHEM_MMFF94_PARTIAL_CHARGES>  (1) 
17
1 -0.57
10 0.57
11 0.57
12 -0.29
14 0.69
15 -0.3
2 -0.57
22 0.37
23 0.37
24 0.15
28 0.15
29 0.15
3 -0.57
4 -0.49
5 -0.49
6 0.12
8 0.14

>  <PUBCHEM_EFFECTIVE_ROTOR_COUNT>  (1) 
4.6

>  <PUBCHEM_PHARMACOPHORE_FEATURES>  (1) 
8
1 1 acceptor
1 13 hydrophobe
1 15 hydrophobe
1 2 acceptor
1 3 acceptor
1 4 donor
1 5 donor
6 4 5 6 10 11 14 rings

>  <PUBCHEM_HEAVY_ATOM_COUNT>  (1) 
15

>  <PUBCHEM_ATOM_DEF_STEREO_COUNT>  (1) 
0

>  <PUBCHEM_ATOM_UDEF_STEREO_COUNT>  (1) 
0

>  <PUBCHEM_BOND_DEF_STEREO_COUNT>  (1) 
0

>  <PUBCHEM_BOND_UDEF_STEREO_COUNT>  (1) 
0

>  <PUBCHEM_ISOTOPIC_ATOM_COUNT>  (1) 
0

>  <PUBCHEM_COMPONENT_COUNT>  (1) 
1

>  <PUBCHEM_CACTVS_TAUTO_COUNT>  (1) 
5

>  <PUBCHEM_CONFORMER_ID>  (1) 
0000BDB400000001

>  <PUBCHEM_MMFF94_ENERGY>  (1) 
35.9661

>  <PUBCHEM_FEATURE_SELFOVERLAP>  (1) 
40.636

>  <PUBCHEM_SHAPE_FINGERPRINT>  (1) 
1 1 17686067497088481045
10702982 57 11095876034520282132
12423570 1 10962936248264251941
12592029 89 17758129467534631328
13024252 1 16516534270240299450
13380536 167 17623289785452366495
14817 1 12223984443537414361
15852999 172 17405127548811918114
16945 1 18118683214589869596
17844478 74 18340478993937150146
18534176 82 18120079594425743060
20511035 2 17912929675481701387
21524375 3 17186407181140369180
22344851 341 17402351745586653726
23419403 2 18199727250627792457
25 1 16904949770919735212
2748010 2 18268687507303762164
298252 57 15015915698035321399
305870 269 17543074927712159701
3250762 1 17692536615342159703
430814 3 17401773419961587965
528862 383 18049447242388002135
68419 9 17192625413216084511
7364860 26 18046916158268414537
81228 2 18046920285647661325
81539 233 17393609507586722813

>  <PUBCHEM_SHAPE_MULTIPOLES>  (1) 
281.12
3.56
2.96
1.47
2.68
3.13
0.02
-2.67
-1.37
-1.66
0.67
0.02
-0.19
-0.15

>  <PUBCHEM_SHAPE_SELFOVERLAP>  (1) 
574.627

>  <PUBCHEM_SHAPE_VOLUME>  (1) 
159.7

>  <PUBCHEM_COORDINATE_TYPE>  (1) 
2
5
10

$$$$
