48576
     RDKit          3D

 22 23  0  0  0  0  0  0  0  0999 V2000
   -0.5275    0.7878   -1.7760 O   0  0  0  0  0  0  0  0  0  0  0  0
   -3.4107   -1.0520    1.3462 O   0  0  0  0  0  0  0  0  0  0  0  0
    0.6389   -3.0424    0.5813 O   0  0  0  0  0  0  0  0  0  0  0  0
    0.2012   -1.0252   -0.5104 N   0  0  0  0  0  0  0  0  0  0  0  0
   -1.3478   -1.9910    0.9926 N   0  0  0  0  0  0  0  0  0  0  0  0
   -1.7210    0.3085    0.2668 C   0  0  0  0  0  0  0  0  0  0  0  0
   -1.0684    1.1344    1.3903 C   0  0  0  0  0  0  0  0  0  0  0  0
   -2.8769    1.1172   -0.3430 C   0  0  0  0  0  0  0  0  0  0  0  0
   -0.6501    0.0553   -0.7927 C   0  0  0  0  0  0  0  0  0  0  0  0
   -2.2696   -0.9617    0.8958 C   0  0  0  0  0  0  0  0  0  0  0  0
    1.4163   -1.1543   -1.3059 C   0  0  0  0  0  0  0  0  0  0  0  0
   -0.1005   -2.0758    0.3778 C   0  0  0  0  0  0  0  0  0  0  0  0
   -0.5667    2.4383    0.8653 C   0  0  0  0  0  0  0  0  0  0  0  0
   -3.6284    0.3002   -1.3420 C   0  0  0  0  0  0  0  0  0  0  0  0
    2.5722   -0.4209   -0.6893 C   0  0  0  0  0  0  0  0  0  0  0  0
    2.8014    0.9080   -1.0256 C   0  0  0  0  0  0  0  0  0  0  0  0
    3.4014   -1.0781    0.2123 C   0  0  0  0  0  0  0  0  0  0  0  0
   -1.0007    3.6279    1.2965 C   0  0  0  0  0  0  0  0  0  0  0  0
   -4.9251   -0.0070   -1.2253 C   0  0  0  0  0  0  0  0  0  0  0  0
    3.8751    1.5897   -0.4526 C   0  0  0  0  0  0  0  0  0  0  0  0
    4.4750   -0.3964    0.7853 C   0  0  0  0  0  0  0  0  0  0  0  0
    4.7119    0.9375    0.4528 C   0  0  0  0  0  0  0  0  0  0  0  0
  1  9  2  0
  2 10  2  0
  3 12  2  0
  4  9  1  0
  4 11  1  0
  4 12  1  0
  5 10  1  0
  5 12  1  0
  6  7  1  0
  6  8  1  0
  6  9  1  0
  6 10  1  0
  7 13  1  0
  8 14  1  0
 11 15  1  0
 13 18  2  0
 14 19  2  0
 15 16  2  0
 15 17  1  0
 16 20  1  0
 17 21  2  0
 20 22  2  0
 21 22  1  0
M  END
>  <PUBCHEM_COMPOUND_CID>  (1) 
48576

>  <PUBCHEM_CONFORMER_RMSD>  (1) 
0.8

>  <PUBCHEM_CONFORMER_DIVERSEORDER>  (1) 
2
52
46
60
53
54
62
38
56
25
26
12
36
61
27
34
44
31
45
57
43
9
58
6
33
5
39
18
40
10
20
28
13
42
32
41
14
50
35
21
47
49
59
22
11
24
15
19
23
48
29
16
55
51
8
1
30
37
4
17
7
3

>  <PUBCHEM_MMFF94_PARTIAL_CHARGES>  (1) 
34
1 -0.57
10 0.57
11 0.44
12 0.69
13 -0.29
14 -0.29
15 -0.14
16 -0.15
17 -0.15
18 -0.3
19 -0.3
2 -0.57
20 -0.15
21 -0.15
22 -0.15
29 0.37
3 -0.57
30 0.15
31 0.15
32 0.15
33 0.15
34 0.15
35 0.15
36 0.15
37 0.15
38 0.15
39 0.15
4 -0.42
40 0.15
5 -0.49
6 0.12
7 0.14
8 0.14
9 0.57

>  <PUBCHEM_EFFECTIVE_ROTOR_COUNT>  (1) 
6.6

>  <PUBCHEM_PHARMACOPHORE_FEATURES>  (1) 
8
1 1 acceptor
1 18 hydrophobe
1 19 hydrophobe
1 2 acceptor
1 3 acceptor
1 5 donor
6 15 16 17 20 21 22 rings
6 4 5 6 9 10 12 rings

>  <PUBCHEM_HEAVY_ATOM_COUNT>  (1) 
22

>  <PUBCHEM_ATOM_DEF_STEREO_COUNT>  (1) 
0

>  <PUBCHEM_ATOM_UDEF_STEREO_COUNT>  (1) 
0

>  <PUBCHEM_BOND_DEF_STEREO_COUNT>  (1) 
0

>  <PUBCHEM_BOND_UDEF_STEREO_COUNT>  (1) 
0

>  <PUBCHEM_ISOTOPIC_ATOM_COUNT>  (1) 
0

>  <PUBCHEM_COMPONENT_COUNT>  (1) 
1

>  <PUBCHEM_CACTVS_TAUTO_COUNT>  (1) 
3

>  <PUBCHEM_CONFORMER_ID>  (1) 
0000BDC000000002

>  <PUBCHEM_MMFF94_ENERGY>  (1) 
56.9075

>  <PUBCHEM_FEATURE_SELFOVERLAP>  (1) 
40.596

>  <PUBCHEM_SHAPE_FINGERPRINT>  (1) 
10366900 7 18130791178996769640
10498660 4 18200317757349646084
11370993 70 18114175328606438054
12035758 1 18266458896450635569
12403260 363 18268986493241719306
12592029 89 17095798819980694755
12788726 201 18271813410377525280
13224815 77 17988931050192672956
13583140 156 16950288428853393105
13911987 19 18340491169942516589
14787075 74 18341324578487210381
16945 1 18265914465958662271
17349148 13 18409163273262990398
17980427 23 17478025182370761010
192875 21 18411413978097658156
200 152 18342167856392049039
20510252 161 18337685177661114498
20715895 44 18115017499006190549
21069387 34 14490486316897890643
21521721 280 18337110168104177093
22749437 52 18336270042046087152
23402539 116 18273208690416069974
23419403 2 17834662078540585367
23558518 356 18054236431444658948
23559900 14 18335989705462660926
2748010 2 17751665177135910419
34934 24 18058449807953753657
4340502 62 18113902603237452951
70251023 43 17772199613272625743
9981440 41 18337667520992824738

>  <PUBCHEM_SHAPE_MULTIPOLES>  (1) 
425.18
7.96
2.81
1.48
3.2
1.28
-0.15
0.79
-1.18
-0.28
1.39
-0.78
0.09
-0.1

>  <PUBCHEM_SHAPE_SELFOVERLAP>  (1) 
900.394

>  <PUBCHEM_SHAPE_VOLUME>  (1) 
234.6

>  <PUBCHEM_COORDINATE_TYPE>  (1) 
2
5
10

$$$$
