48589
     RDKit          3D

 17 17  0  0  0  0  0  0  0  0999 V2000
    1.3031   -1.1105   -2.0565 O   0  0  0  0  0  0  0  0  0  0  0  0
   -0.8423    0.2759    1.8837 O   0  0  0  0  0  0  0  0  0  0  0  0
    3.0658    2.2547    0.5174 O   0  0  0  0  0  0  0  0  0  0  0  0
    2.1291    0.6374   -0.8214 N   0  0  0  0  0  0  0  0  0  0  0  0
    1.0577    1.3295    1.1472 N   0  0  0  0  0  0  0  0  0  0  0  0
   -0.1732   -0.1068   -0.4154 C   0  0  0  0  0  0  0  0  0  0  0  0
   -1.0329    0.8768   -1.2294 C   0  0  0  0  0  0  0  0  0  0  0  0
   -0.8934   -1.4605   -0.3312 C   0  0  0  0  0  0  0  0  0  0  0  0
    1.1439   -0.2758   -1.1661 C   0  0  0  0  0  0  0  0  0  0  0  0
   -0.0271    0.4807    0.9848 C   0  0  0  0  0  0  0  0  0  0  0  0
   -2.3428    1.1760   -0.5565 C   0  0  0  0  0  0  0  0  0  0  0  0
   -0.1037   -2.4796    0.4434 C   0  0  0  0  0  0  0  0  0  0  0  0
    2.1403    1.4743    0.2880 C   0  0  0  0  0  0  0  0  0  0  0  0
   -2.3887    2.3609    0.3648 C   0  0  0  0  0  0  0  0  0  0  0  0
   -0.3666   -2.5765    1.9188 C   0  0  0  0  0  0  0  0  0  0  0  0
   -3.4376    0.4405   -0.8050 C   0  0  0  0  0  0  0  0  0  0  0  0
    0.7684   -3.2971   -0.1666 C   0  0  0  0  0  0  0  0  0  0  0  0
  1  9  2  0
  2 10  2  0
  3 13  2  0
  4  9  1  0
  4 13  1  0
  5 10  1  0
  5 13  1  0
  6  7  1  0
  6  8  1  0
  6  9  1  0
  6 10  1  0
  7 11  1  0
  8 12  1  0
 11 14  1  0
 11 16  2  0
 12 15  1  0
 12 17  2  0
M  END
>  <PUBCHEM_COMPOUND_CID>  (1) 
48589

>  <PUBCHEM_CONFORMER_RMSD>  (1) 
0.6

>  <PUBCHEM_CONFORMER_DIVERSEORDER>  (1) 
1
4
5
2
3
7
6

>  <PUBCHEM_MMFF94_PARTIAL_CHARGES>  (1) 
23
1 -0.57
10 0.57
11 -0.28
12 -0.28
13 0.69
14 0.14
15 0.14
16 -0.3
17 -0.3
2 -0.57
22 0.37
23 0.37
3 -0.57
30 0.15
31 0.15
32 0.15
33 0.15
4 -0.49
5 -0.49
6 0.12
7 0.14
8 0.14
9 0.57

>  <PUBCHEM_EFFECTIVE_ROTOR_COUNT>  (1) 
4.6

>  <PUBCHEM_PHARMACOPHORE_FEATURES>  (1) 
6
1 1 acceptor
1 2 acceptor
1 3 acceptor
1 4 donor
1 5 donor
6 4 5 6 9 10 13 rings

>  <PUBCHEM_HEAVY_ATOM_COUNT>  (1) 
17

>  <PUBCHEM_ATOM_DEF_STEREO_COUNT>  (1) 
0

>  <PUBCHEM_ATOM_UDEF_STEREO_COUNT>  (1) 
0

>  <PUBCHEM_BOND_DEF_STEREO_COUNT>  (1) 
0

>  <PUBCHEM_BOND_UDEF_STEREO_COUNT>  (1) 
0

>  <PUBCHEM_ISOTOPIC_ATOM_COUNT>  (1) 
0

>  <PUBCHEM_COMPONENT_COUNT>  (1) 
1

>  <PUBCHEM_CACTVS_TAUTO_COUNT>  (1) 
5

>  <PUBCHEM_CONFORMER_ID>  (1) 
0000BDCD00000001

>  <PUBCHEM_MMFF94_ENERGY>  (1) 
52.7364

>  <PUBCHEM_FEATURE_SELFOVERLAP>  (1) 
30.487

>  <PUBCHEM_SHAPE_FINGERPRINT>  (1) 
12138202 97 18265608977735293404
12423570 1 15106847530240223895
13132413 78 17621584026210671992
141345 1 13795255639925420995
14817 1 14897686114591120958
15852999 172 18272085058531722844
16945 1 17775278400259030901
18534176 82 18123747818672114020
19765921 60 18131062732087499081
19930374 2 18049736409619842354
21524375 3 18200294602611578972
22112679 90 17047967650268903716
22344851 12 12749507459478729022
22344851 341 18343016679585125631
23388829 49 17039807066594315894
23419403 2 17625307221732804831
25 1 18131919251503319500
2748010 2 18122653761515777454
305870 269 18265040345524639885
430814 3 18118654764774279009
7364860 26 18122331394434535655
81228 2 17900820766608945859

>  <PUBCHEM_SHAPE_MULTIPOLES>  (1) 
322.28
3.51
3.2
1.63
3.23
1.57
-0.15
-1.33
0.56
-2.51
-0.93
-0.4
-0.26
-0.5

>  <PUBCHEM_SHAPE_SELFOVERLAP>  (1) 
666.345

>  <PUBCHEM_SHAPE_VOLUME>  (1) 
181.4

>  <PUBCHEM_COORDINATE_TYPE>  (1) 
2
5
10

$$$$
