48585
     RDKit          3D

 21 22  0  0  0  0  0  0  0  0999 V2000
   -1.5017    0.2607    0.0069 O   0  0  0  0  0  0  0  0  0  0  0  0
    3.4396    1.1276   -2.1340 O   0  0  0  0  0  0  0  0  0  0  0  0
    2.1798    0.2523    2.3041 O   0  0  0  0  0  0  0  0  0  0  0  0
    4.0686   -3.0272   -0.2908 O   0  0  0  0  0  0  0  0  0  0  0  0
    3.6623   -0.9742   -1.2421 N   0  0  0  0  0  0  0  0  0  0  0  0
    3.0324   -1.4117    0.9747 N   0  0  0  0  0  0  0  0  0  0  0  0
    2.2299    0.6492   -0.0876 C   0  0  0  0  0  0  0  0  0  0  0  0
    0.8084    0.2965   -0.5609 C   0  0  0  0  0  0  0  0  0  0  0  0
    2.3015    2.1501    0.2288 C   0  0  0  0  0  0  0  0  0  0  0  0
    3.1770    0.3251   -1.2386 C   0  0  0  0  0  0  0  0  0  0  0  0
    2.4892   -0.1528    1.1838 C   0  0  0  0  0  0  0  0  0  0  0  0
   -0.2206    0.6274    0.5000 C   0  0  0  0  0  0  0  0  0  0  0  0
    3.7104    2.5591    0.5952 C   0  0  0  0  0  0  0  0  0  0  0  0
    3.6044   -1.8897   -0.1981 C   0  0  0  0  0  0  0  0  0  0  0  0
   -2.5274    0.5605    0.9441 C   0  0  0  0  0  0  0  0  0  0  0  0
   -3.8515    0.1521    0.3684 C   0  0  0  0  0  0  0  0  0  0  0  0
   -4.5847    1.0621   -0.3850 C   0  0  0  0  0  0  0  0  0  0  0  0
   -4.3331   -1.1328    0.5931 C   0  0  0  0  0  0  0  0  0  0  0  0
   -5.8155    0.6825   -0.9204 C   0  0  0  0  0  0  0  0  0  0  0  0
   -5.5639   -1.5123    0.0575 C   0  0  0  0  0  0  0  0  0  0  0  0
   -6.3050   -0.6046   -0.6992 C   0  0  0  0  0  0  0  0  0  0  0  0
  1 12  1  0
  1 15  1  0
  2 10  2  0
  3 11  2  0
  4 14  2  0
  5 10  1  0
  5 14  1  0
  6 11  1  0
  6 14  1  0
  7  8  1  0
  7  9  1  0
  7 10  1  0
  7 11  1  0
  8 12  1  0
  9 13  1  0
 15 16  1  0
 16 17  2  0
 16 18  1  0
 17 19  1  0
 18 20  2  0
 19 21  2  0
 20 21  1  0
M  END
>  <PUBCHEM_COMPOUND_CID>  (1) 
48585

>  <PUBCHEM_CONFORMER_RMSD>  (1) 
0.8

>  <PUBCHEM_CONFORMER_DIVERSEORDER>  (1) 
1
23
17
21
13
22
25
37
12
11
39
10
30
38
14
2
29
15
28
31
16
6
5
36
32
27
4
18
9
7
3
26
19
8
33
34
20
35
24

>  <PUBCHEM_MMFF94_PARTIAL_CHARGES>  (1) 
25
1 -0.56
10 0.57
11 0.57
12 0.28
14 0.69
15 0.42
16 -0.14
17 -0.15
18 -0.15
19 -0.15
2 -0.57
20 -0.15
21 -0.15
3 -0.57
31 0.37
32 0.37
35 0.15
36 0.15
37 0.15
38 0.15
39 0.15
4 -0.57
5 -0.49
6 -0.49
7 0.12

>  <PUBCHEM_EFFECTIVE_ROTOR_COUNT>  (1) 
6.6

>  <PUBCHEM_PHARMACOPHORE_FEATURES>  (1) 
9
1 1 acceptor
1 13 hydrophobe
1 2 acceptor
1 3 acceptor
1 4 acceptor
1 5 donor
1 6 donor
6 16 17 18 19 20 21 rings
6 5 6 7 10 11 14 rings

>  <PUBCHEM_HEAVY_ATOM_COUNT>  (1) 
21

>  <PUBCHEM_ATOM_DEF_STEREO_COUNT>  (1) 
0

>  <PUBCHEM_ATOM_UDEF_STEREO_COUNT>  (1) 
0

>  <PUBCHEM_BOND_DEF_STEREO_COUNT>  (1) 
0

>  <PUBCHEM_BOND_UDEF_STEREO_COUNT>  (1) 
0

>  <PUBCHEM_ISOTOPIC_ATOM_COUNT>  (1) 
0

>  <PUBCHEM_COMPONENT_COUNT>  (1) 
1

>  <PUBCHEM_CACTVS_TAUTO_COUNT>  (1) 
5

>  <PUBCHEM_CONFORMER_ID>  (1) 
0000BDC900000001

>  <PUBCHEM_MMFF94_ENERGY>  (1) 
58.5553

>  <PUBCHEM_FEATURE_SELFOVERLAP>  (1) 
45.713

>  <PUBCHEM_SHAPE_FINGERPRINT>  (1) 
10670039 82 13262675876980405103
10912923 1 17632303393341300833
11405975 8 18201443528407587129
13167823 11 18410571791103885223
13533116 47 18272930536013666083
13955234 65 18201154451138120728
14528608 73 17094961061335794827
15183329 4 17603577505604738479
15348495 7 10231756699999835397
17349148 13 17632302272259851831
17844677 252 18342742918807781817
17857418 61 18131068212819222615
18222031 100 16988562424959670169
19377110 9 11743536809627517157
20369508 70 18343584027753681044
20645477 70 18410854360632377779
22061861 79 18410008828334023791
22393880 68 17967810535993902571
22646028 1 17489591147515901549
23081809 10 17489587879599781209
23559900 14 18409445895238783049
239999 70 18272656783134907020
29717793 49 18260545602662737095
300161 21 17895185641242737337
3004659 81 18259983747472529403
3060560 45 16009038293477792450
312423 11 17846510213862083153
34797466 226 18341333405146416677
4340502 62 18059851818269783840
5104073 3 17846785096448700897
54040823 5 18201727245562596924
59682541 52 18114449082076164599
633830 44 17167863063039531283
90127 26 17894916217976070409
960060 61 17967257489791674847
9841814 1 17060618897688939178
9971528 1 17967813855713556693

>  <PUBCHEM_SHAPE_MULTIPOLES>  (1) 
398.73
14.08
2.21
1.41
21.13
0.61
0.01
3.06
-2.99
-3.3
0.03
-1.32
-0.17
0.48

>  <PUBCHEM_SHAPE_SELFOVERLAP>  (1) 
838.478

>  <PUBCHEM_SHAPE_VOLUME>  (1) 
221.8

>  <PUBCHEM_COORDINATE_TYPE>  (1) 
2
5
10

$$$$
