48586
     RDKit          3D

 20 21  0  0  0  0  0  0  0  0999 V2000
   -0.2007    0.8972    0.0911 O   0  0  0  0  0  0  0  0  0  0  0  0
    2.5040    0.3366   -2.3282 O   0  0  0  0  0  0  0  0  0  0  0  0
    2.6051   -0.0762    2.3483 O   0  0  0  0  0  0  0  0  0  0  0  0
    0.1007   -2.9479   -0.2087 O   0  0  0  0  0  0  0  0  0  0  0  0
    1.2269   -1.2415   -1.2600 N   0  0  0  0  0  0  0  0  0  0  0  0
    1.2768   -1.4473    1.0761 N   0  0  0  0  0  0  0  0  0  0  0  0
    2.1723    0.5982    0.0596 C   0  0  0  0  0  0  0  0  0  0  0  0
    3.5103    1.3508    0.0972 C   0  0  0  0  0  0  0  0  0  0  0  0
    1.0169    1.6088    0.1736 C   0  0  0  0  0  0  0  0  0  0  0  0
    2.0202   -0.1042   -1.2859 C   0  0  0  0  0  0  0  0  0  0  0  0
    2.0750   -0.3294    1.2667 C   0  0  0  0  0  0  0  0  0  0  0  0
    4.6696    0.4046   -0.1198 C   0  0  0  0  0  0  0  0  0  0  0  0
    0.8044   -1.9392   -0.1348 C   0  0  0  0  0  0  0  0  0  0  0  0
   -1.3280    1.7622    0.1885 C   0  0  0  0  0  0  0  0  0  0  0  0
   -2.5825    0.9443    0.0938 C   0  0  0  0  0  0  0  0  0  0  0  0
   -3.1564    0.7057   -1.1500 C   0  0  0  0  0  0  0  0  0  0  0  0
   -3.1595    0.4321    1.2506 C   0  0  0  0  0  0  0  0  0  0  0  0
   -4.3225   -0.0548   -1.2381 C   0  0  0  0  0  0  0  0  0  0  0  0
   -4.3255   -0.3284    1.1622 C   0  0  0  0  0  0  0  0  0  0  0  0
   -4.9069   -0.5718   -0.0821 C   0  0  0  0  0  0  0  0  0  0  0  0
  1  9  1  0
  1 14  1  0
  2 10  2  0
  3 11  2  0
  4 13  2  0
  5 10  1  0
  5 13  1  0
  6 11  1  0
  6 13  1  0
  7  8  1  0
  7  9  1  0
  7 10  1  0
  7 11  1  0
  8 12  1  0
 14 15  1  0
 15 16  2  0
 15 17  1  0
 16 18  1  0
 17 19  2  0
 18 20  2  0
 19 20  1  0
M  END
>  <PUBCHEM_COMPOUND_CID>  (1) 
48586

>  <PUBCHEM_CONFORMER_RMSD>  (1) 
0.8

>  <PUBCHEM_CONFORMER_DIVERSEORDER>  (1) 
1
14
5
8
16
13
10
2
6
11
15
9
3
4
12
7

>  <PUBCHEM_MMFF94_PARTIAL_CHARGES>  (1) 
25
1 -0.56
10 0.57
11 0.57
13 0.69
14 0.42
15 -0.14
16 -0.15
17 -0.15
18 -0.15
19 -0.15
2 -0.57
20 -0.15
28 0.37
29 0.37
3 -0.57
32 0.15
33 0.15
34 0.15
35 0.15
36 0.15
4 -0.57
5 -0.49
6 -0.49
7 0.12
9 0.28

>  <PUBCHEM_EFFECTIVE_ROTOR_COUNT>  (1) 
5.6

>  <PUBCHEM_PHARMACOPHORE_FEATURES>  (1) 
9
1 1 acceptor
1 12 hydrophobe
1 2 acceptor
1 3 acceptor
1 4 acceptor
1 5 donor
1 6 donor
6 15 16 17 18 19 20 rings
6 5 6 7 10 11 13 rings

>  <PUBCHEM_HEAVY_ATOM_COUNT>  (1) 
20

>  <PUBCHEM_ATOM_DEF_STEREO_COUNT>  (1) 
0

>  <PUBCHEM_ATOM_UDEF_STEREO_COUNT>  (1) 
0

>  <PUBCHEM_BOND_DEF_STEREO_COUNT>  (1) 
0

>  <PUBCHEM_BOND_UDEF_STEREO_COUNT>  (1) 
0

>  <PUBCHEM_ISOTOPIC_ATOM_COUNT>  (1) 
0

>  <PUBCHEM_COMPONENT_COUNT>  (1) 
1

>  <PUBCHEM_CACTVS_TAUTO_COUNT>  (1) 
5

>  <PUBCHEM_CONFORMER_ID>  (1) 
0000BDCA00000001

>  <PUBCHEM_MMFF94_ENERGY>  (1) 
53.6169

>  <PUBCHEM_FEATURE_SELFOVERLAP>  (1) 
45.713

>  <PUBCHEM_SHAPE_FINGERPRINT>  (1) 
10064457 181 14979947112062919621
10759866 29 17386013917663080498
11370993 70 15936407866450028729
12553582 1 18411705383349993641
12596599 1 17632866321772679143
12778500 126 15768678428906849531
128620 24 18409452492303248973
13224815 77 18412826854944808013
13296908 3 18059857208364387749
13464513 79 18272370918601392869
13583140 156 17241041114854763681
14178342 30 18198055872546873657
14289901 80 14907887302449347365
14787075 74 17846216721303296296
15375358 24 18333724702966895821
19078846 21 11239725145246008335
20442098 301 17775286024200313117
21069387 34 16733540503542775033
21503847 285 15482669099916980193
22892500 29 14345799391666167484
23402539 116 18202003209753817136
23557571 272 17168141213669655885
23559900 14 18045208346053978187
2871803 45 18343301448949439045
3052486 1 18266176325714568527
3060560 45 18410011056820767580
3323516 105 16487259867619010004
427121 178 17989198270199399834
474229 33 18411701019240928780
9971528 1 13334729103267973656

>  <PUBCHEM_SHAPE_MULTIPOLES>  (1) 
378.15
8.77
1.87
1.63
6.17
1.03
-0.02
-0.9
-0.12
-0.48
-0.02
-0.5
0.12
-0.01

>  <PUBCHEM_SHAPE_SELFOVERLAP>  (1) 
800.596

>  <PUBCHEM_SHAPE_VOLUME>  (1) 
208.4

>  <PUBCHEM_COORDINATE_TYPE>  (1) 
2
5
10

$$$$
