48582
     RDKit          3D

 19 20  0  0  0  0  0  0  0  0999 V2000
   -0.8252    0.4465    2.3719 O   0  0  0  0  0  0  0  0  0  0  0  0
   -1.0870    0.2558   -2.4224 O   0  0  0  0  0  0  0  0  0  0  0  0
   -0.7470   -3.5424    0.1182 O   0  0  0  0  0  0  0  0  0  0  0  0
   -0.7928   -1.5266    1.2151 N   0  0  0  0  0  0  0  0  0  0  0  0
   -0.9178   -1.6197   -1.1237 N   0  0  0  0  0  0  0  0  0  0  0  0
   -1.0064    0.5856   -0.0315 C   0  0  0  0  0  0  0  0  0  0  0  0
    0.1153    1.6276   -0.1382 C   0  0  0  0  0  0  0  0  0  0  0  0
   -2.3530    1.2512    0.0207 C   0  0  0  0  0  0  0  0  0  0  0  0
   -0.8627   -0.1468    1.2918 C   0  0  0  0  0  0  0  0  0  0  0  0
   -1.0031   -0.2500   -1.3012 C   0  0  0  0  0  0  0  0  0  0  0  0
    1.4693    0.9815   -0.0823 C   0  0  0  0  0  0  0  0  0  0  0  0
   -3.5343    0.3420    0.1874 C   0  0  0  0  0  0  0  0  0  0  0  0
   -0.8160   -2.3128    0.0731 C   0  0  0  0  0  0  0  0  0  0  0  0
    2.0959    0.8023    1.1456 C   0  0  0  0  0  0  0  0  0  0  0  0
    2.0832    0.5690   -1.2592 C   0  0  0  0  0  0  0  0  0  0  0  0
   -2.4904    2.5820   -0.0757 C   0  0  0  0  0  0  0  0  0  0  0  0
    3.3540    0.2016    1.1972 C   0  0  0  0  0  0  0  0  0  0  0  0
    3.3413   -0.0314   -1.2075 C   0  0  0  0  0  0  0  0  0  0  0  0
    3.9767   -0.2155    0.0207 C   0  0  0  0  0  0  0  0  0  0  0  0
  1  9  2  0
  2 10  2  0
  3 13  2  0
  4  9  1  0
  4 13  1  0
  5 10  1  0
  5 13  1  0
  6  7  1  0
  6  8  1  0
  6  9  1  0
  6 10  1  0
  7 11  1  0
  8 12  1  0
  8 16  2  0
 11 14  2  0
 11 15  1  0
 14 17  1  0
 15 18  2  0
 17 19  2  0
 18 19  1  0
M  END
>  <PUBCHEM_COMPOUND_CID>  (1) 
48582

>  <PUBCHEM_CONFORMER_RMSD>  (1) 
0.6

>  <PUBCHEM_CONFORMER_DIVERSEORDER>  (1) 
1
2
3

>  <PUBCHEM_MMFF94_PARTIAL_CHARGES>  (1) 
28
1 -0.57
10 0.57
11 -0.14
12 0.14
13 0.69
14 -0.15
15 -0.15
16 -0.3
17 -0.15
18 -0.15
19 -0.15
2 -0.57
22 0.37
23 0.37
27 0.15
28 0.15
29 0.15
3 -0.57
30 0.15
31 0.15
32 0.15
33 0.15
4 -0.49
5 -0.49
6 0.26
7 0.14
8 -0.28
9 0.57

>  <PUBCHEM_EFFECTIVE_ROTOR_COUNT>  (1) 
3.6

>  <PUBCHEM_PHARMACOPHORE_FEATURES>  (1) 
7
1 1 acceptor
1 2 acceptor
1 3 acceptor
1 4 donor
1 5 donor
6 11 14 15 17 18 19 rings
6 4 5 6 9 10 13 rings

>  <PUBCHEM_HEAVY_ATOM_COUNT>  (1) 
19

>  <PUBCHEM_ATOM_DEF_STEREO_COUNT>  (1) 
0

>  <PUBCHEM_ATOM_UDEF_STEREO_COUNT>  (1) 
0

>  <PUBCHEM_BOND_DEF_STEREO_COUNT>  (1) 
0

>  <PUBCHEM_BOND_UDEF_STEREO_COUNT>  (1) 
0

>  <PUBCHEM_ISOTOPIC_ATOM_COUNT>  (1) 
0

>  <PUBCHEM_COMPONENT_COUNT>  (1) 
1

>  <PUBCHEM_CACTVS_TAUTO_COUNT>  (1) 
5

>  <PUBCHEM_CONFORMER_ID>  (1) 
0000BDC600000001

>  <PUBCHEM_MMFF94_ENERGY>  (1) 
54.1157

>  <PUBCHEM_FEATURE_SELFOVERLAP>  (1) 
35.562

>  <PUBCHEM_SHAPE_FINGERPRINT>  (1) 
10863032 1 18196371420700997549
10948715 1 18338798896930136996
11322862 65 18409171025537047990
12173636 292 18408602569567266212
12423570 1 14826307615233564543
12592029 89 18267309729197783139
13024252 1 14418127426682929925
13538477 17 18114186392558133204
13581323 91 18343014493351904180
14817 1 12180960875691720271
15309172 13 18334582291338832921
15852999 172 18201726111147970590
15881359 60 17631740507242851999
15906896 17 18114189652443547003
16752209 62 18334851753545165683
16945 1 18409731793968342445
18186145 218 17632296714029287153
20645476 183 18188223030374830852
20905425 154 17477772273263727692
21731516 1 17974581495848192554
23419403 2 17129851971152001947
23559900 14 18342739595056391308
23728640 28 18335697222273793706
4340502 62 17701007399884578729
43471831 8 18264768749183336395
465052 167 17676788538500061489
598444 67 17910149886711246958
69090 78 17274812554467313717
7364860 26 17763458414179441345
74978 22 18336547217808143748
81228 2 18125714832268365619
90525 40 18040722432996158068

>  <PUBCHEM_SHAPE_MULTIPOLES>  (1) 
363.44
5.1
2.38
1.7
3.63
1.93
0.05
-1.53
-0.04
-1.74
-0.06
0.11
0
0.08

>  <PUBCHEM_SHAPE_SELFOVERLAP>  (1) 
784.986

>  <PUBCHEM_SHAPE_VOLUME>  (1) 
197.7

>  <PUBCHEM_COORDINATE_TYPE>  (1) 
2
5
10

$$$$
