48588
     RDKit          3D

 25 27  0  0  0  0  0  0  0  0999 V2000
   -0.1090   -0.3919   -2.0674 O   0  0  0  0  0  0  0  0  0  0  0  0
   -0.8688   -2.0033    2.2773 O   0  0  0  0  0  0  0  0  0  0  0  0
    1.0244   -4.6893   -0.9254 O   0  0  0  0  0  0  0  0  0  0  0  0
    0.5472   -2.5065   -1.4669 N   0  0  0  0  0  0  0  0  0  0  0  0
    0.1670   -3.3115    0.7032 N   0  0  0  0  0  0  0  0  0  0  0  0
   -0.0005   -0.8970    0.3019 C   0  0  0  0  0  0  0  0  0  0  0  0
   -3.5335    0.7130    0.4327 C   0  0  0  0  0  0  0  0  0  0  0  0
    3.1003    1.4347    0.3844 C   0  0  0  0  0  0  0  0  0  0  0  0
   -1.0725    0.1818    0.5145 C   0  0  0  0  0  0  0  0  0  0  0  0
    1.3677   -0.3485    0.7447 C   0  0  0  0  0  0  0  0  0  0  0  0
   -2.4646   -0.3524    0.1961 C   0  0  0  0  0  0  0  0  0  0  0  0
    1.7455    0.8865   -0.0601 C   0  0  0  0  0  0  0  0  0  0  0  0
   -4.9325    0.1490    0.1503 C   0  0  0  0  0  0  0  0  0  0  0  0
   -3.2609    1.9544   -0.4273 C   0  0  0  0  0  0  0  0  0  0  0  0
    3.4551    2.7045   -0.4009 C   0  0  0  0  0  0  0  0  0  0  0  0
    4.1943    0.3702    0.2255 C   0  0  0  0  0  0  0  0  0  0  0  0
   -6.0150    1.2113    0.3284 C   0  0  0  0  0  0  0  0  0  0  0  0
   -4.3462    3.0136   -0.2481 C   0  0  0  0  0  0  0  0  0  0  0  0
    4.8305    3.2421   -0.0120 C   0  0  0  0  0  0  0  0  0  0  0  0
    5.5683    0.9118    0.6135 C   0  0  0  0  0  0  0  0  0  0  0  0
   -5.7360    2.4472   -0.5212 C   0  0  0  0  0  0  0  0  0  0  0  0
    5.9138    2.1787   -0.1628 C   0  0  0  0  0  0  0  0  0  0  0  0
    0.1083   -1.2215   -1.1846 C   0  0  0  0  0  0  0  0  0  0  0  0
   -0.3067   -2.1012    1.1868 C   0  0  0  0  0  0  0  0  0  0  0  0
    0.6240   -3.5756   -0.5825 C   0  0  0  0  0  0  0  0  0  0  0  0
  1 23  2  0
  2 24  2  0
  3 25  2  0
  4 23  1  0
  4 25  1  0
  5 24  1  0
  5 25  1  0
  6  9  1  0
  6 10  1  0
  6 23  1  0
  6 24  1  0
  7 11  1  0
  7 13  1  0
  7 14  1  0
  8 12  1  0
  8 15  1  0
  8 16  1  0
  9 11  1  0
 10 12  1  0
 13 17  1  0
 14 18  1  0
 15 19  1  0
 16 20  1  0
 17 21  1  0
 18 21  1  0
 19 22  1  0
 20 22  1  0
M  END
>  <PUBCHEM_COMPOUND_CID>  (1) 
48588

>  <PUBCHEM_CONFORMER_RMSD>  (1) 
1

>  <PUBCHEM_CONFORMER_DIVERSEORDER>  (1) 
1
11
7
15
9
3
14
8
4
13
5
10
2
12
16
6

>  <PUBCHEM_MMFF94_PARTIAL_CHARGES>  (1) 
11
1 -0.57
2 -0.57
23 0.57
24 0.57
25 0.69
3 -0.57
4 -0.49
5 -0.49
56 0.37
57 0.37
6 0.12

>  <PUBCHEM_EFFECTIVE_ROTOR_COUNT>  (1) 
9

>  <PUBCHEM_PHARMACOPHORE_FEATURES>  (1) 
8
1 1 acceptor
1 2 acceptor
1 3 acceptor
1 4 donor
1 5 donor
6 4 5 6 23 24 25 rings
6 7 13 14 17 18 21 rings
6 8 15 16 19 20 22 rings

>  <PUBCHEM_HEAVY_ATOM_COUNT>  (1) 
25

>  <PUBCHEM_ATOM_DEF_STEREO_COUNT>  (1) 
0

>  <PUBCHEM_ATOM_UDEF_STEREO_COUNT>  (1) 
0

>  <PUBCHEM_BOND_DEF_STEREO_COUNT>  (1) 
0

>  <PUBCHEM_BOND_UDEF_STEREO_COUNT>  (1) 
0

>  <PUBCHEM_ISOTOPIC_ATOM_COUNT>  (1) 
0

>  <PUBCHEM_COMPONENT_COUNT>  (1) 
1

>  <PUBCHEM_CACTVS_TAUTO_COUNT>  (1) 
5

>  <PUBCHEM_CONFORMER_ID>  (1) 
0000BDCC00000001

>  <PUBCHEM_MMFF94_ENERGY>  (1) 
48.896

>  <PUBCHEM_FEATURE_SELFOVERLAP>  (1) 
40.638

>  <PUBCHEM_SHAPE_FINGERPRINT>  (1) 
10369192 42 18409168831019834661
10764073 3 17750787762398285466
11763715 3 17038398047038754630
12107183 9 18261381240448686008
12293681 160 17703793638899593312
12516196 113 8646772192146825824
12760667 363 8862681074184644432
12769317 202 18340477877283050857
12788726 201 17832690641122874018
13103583 49 11963387397859236789
133893 2 17700999655273059922
13544653 18 9439406856134903860
13590594 115 17259356470175474368
13631057 29 18129655439778917871
13785724 45 17903629680149195770
14790565 3 18410854390914115248
15163728 17 18336846228746155005
15664445 248 17694788415388330319
15878777 1 11153193588546128946
15961568 22 18260266322409969261
17980427 23 17749675211428653431
17980427 26 18189601770548586543
18785283 64 18265328413592557054
20197701 30 18411979169744329184
20567600 254 18260260841962646565
21756936 100 18337945822268349264
22950370 63 9367351443861338505
23559900 14 17978787909946047543
23598288 3 17828777479444795030
244849 19 18044966518147295715
2838139 119 18412538833985004829
314194 84 9150879590479976953
3411729 13 18262796255324528555
3759504 43 18340485685416946094
38695281 34 18342736291108618303
4017518 198 17989488495011599094
474 4 18411420579288234545
5104073 3 17970637286374628793
5219985 13 18410289246121642588
59755656 215 18339646616078878493
59755656 520 18335414712077744972
60123966 16 17904183851252566205
6669772 16 18272938202414440166
77188 2 17546446674355210438
9981440 41 18409454716990729163

>  <PUBCHEM_SHAPE_MULTIPOLES>  (1) 
486.92
12.35
4.75
1.24
1.79
4.06
-0.03
-17.01
0.52
-1.59
-1.01
0.08
0.92
0.69

>  <PUBCHEM_SHAPE_SELFOVERLAP>  (1) 
1004.911

>  <PUBCHEM_SHAPE_VOLUME>  (1) 
272.3

>  <PUBCHEM_COORDINATE_TYPE>  (1) 
2
5
10

$$$$
