48592
     RDKit          3D

 29 31  0  0  0  0  0  0  0  0999 V2000
    0.0287    0.5666    1.8026 O   0  0  0  0  0  0  0  0  0  0  0  0
    0.9632    2.8517   -2.1918 O   0  0  0  0  0  0  0  0  0  0  0  0
    4.6443   -0.0502   -0.4295 O   0  0  0  0  0  0  0  0  0  0  0  0
   -3.7586   -1.6833   -0.2803 O   0  0  0  0  0  0  0  0  0  0  0  0
   -0.6813    5.0872    1.4627 O   0  0  0  0  0  0  0  0  0  0  0  0
   -0.4178    2.8074    1.5988 N   0  0  0  0  0  0  0  0  0  0  0  0
    0.0484    3.9489   -0.3967 N   0  0  0  0  0  0  0  0  0  0  0  0
   -0.0179    1.4966   -0.4364 C   0  0  0  0  0  0  0  0  0  0  0  0
    0.9469    0.3764   -0.8515 C   0  0  0  0  0  0  0  0  0  0  0  0
   -1.4301    1.1693   -0.9538 C   0  0  0  0  0  0  0  0  0  0  0  0
    2.3757    0.7153   -0.4572 C   0  0  0  0  0  0  0  0  0  0  0  0
   -1.9251   -0.1462   -0.3776 C   0  0  0  0  0  0  0  0  0  0  0  0
   -0.1029    1.5581    1.0855 C   0  0  0  0  0  0  0  0  0  0  0  0
    0.4069    2.8054   -1.0949 C   0  0  0  0  0  0  0  0  0  0  0  0
    3.3298   -0.4099   -0.8319 C   0  0  0  0  0  0  0  0  0  0  0  0
   -3.3365   -0.4550   -0.8566 C   0  0  0  0  0  0  0  0  0  0  0  0
   -0.3876    4.0202    0.9209 C   0  0  0  0  0  0  0  0  0  0  0  0
    5.4939   -1.0756   -0.1043 C   0  0  0  0  0  0  0  0  0  0  0  0
   -5.1037   -1.8358   -0.0652 C   0  0  0  0  0  0  0  0  0  0  0  0
    5.3539   -2.3196   -0.7198 C   0  0  0  0  0  0  0  0  0  0  0  0
   -6.0206   -1.1967   -0.8999 C   0  0  0  0  0  0  0  0  0  0  0  0
    6.4984   -0.8752    0.8426 C   0  0  0  0  0  0  0  0  0  0  0  0
   -5.5558   -2.6298    0.9889 C   0  0  0  0  0  0  0  0  0  0  0  0
    6.2181   -3.3631   -0.3883 C   0  0  0  0  0  0  0  0  0  0  0  0
   -7.3894   -1.3513   -0.6805 C   0  0  0  0  0  0  0  0  0  0  0  0
    7.3627   -1.9188    1.1740 C   0  0  0  0  0  0  0  0  0  0  0  0
   -6.9247   -2.7845    1.2082 C   0  0  0  0  0  0  0  0  0  0  0  0
    7.2224   -3.1627    0.5586 C   0  0  0  0  0  0  0  0  0  0  0  0
   -7.8414   -2.1452    0.3735 C   0  0  0  0  0  0  0  0  0  0  0  0
  1 13  2  0
  2 14  2  0
  3 15  1  0
  3 18  1  0
  4 16  1  0
  4 19  1  0
  5 17  2  0
  6 13  1  0
  6 17  1  0
  7 14  1  0
  7 17  1  0
  8  9  1  0
  8 10  1  0
  8 13  1  0
  8 14  1  0
  9 11  1  0
 10 12  1  0
 11 15  1  0
 12 16  1  0
 18 20  2  0
 18 22  1  0
 19 21  2  0
 19 23  1  0
 20 24  1  0
 21 25  1  0
 22 26  2  0
 23 27  2  0
 24 28  2  0
 25 29  2  0
 26 28  1  0
 27 29  1  0
M  END
>  <PUBCHEM_COMPOUND_CID>  (1) 
48592

>  <PUBCHEM_CONFORMER_RMSD>  (1) 
1

>  <PUBCHEM_CONFORMER_DIVERSEORDER>  (1) 
1
21
19
87
168
178
91
121
28
159
80
165
8
90
160
125
185
107
47
194
89
131
118
188
100
180
60
95
176
31
153
85
132
43
71
117
69
166
98
49
123
101
24
93
162
170
41
191
57
127
56
92
163
78
114
201
142
39
124
137
189
152
34
190
59
182
15
179
157
183
112
187
29
144
110
75
148
175
45
145
141
173
97
196
155
181
198
27
174
139
106
134
7
79
119
42
58
146
30
52
156
158
83
51
88
77
140
48
154
202
72
184
103
115
149
36
84
74
63
164
73
67
17
113
200
120
133
109
102
33
104
66
167
26
136
9
172
46
186
128
53
111
18
55
13
35
25
169
147
61
54
38
70
81
150
10
126
62
65
76
129
195
143
99
20
16
94
86
11
14
130
199
105
161
82
50
116
171
197
22
135
37
23
3
138
151
2
5
32
122
64
96
44
68
108
192
12
177
6
4
40
193

>  <PUBCHEM_MMFF94_PARTIAL_CHARGES>  (1) 
37
1 -0.57
13 0.57
14 0.57
15 0.28
16 0.28
17 0.69
18 0.08
19 0.08
2 -0.57
20 -0.15
21 -0.15
22 -0.15
23 -0.15
24 -0.15
25 -0.15
26 -0.15
27 -0.15
28 -0.15
29 -0.15
3 -0.36
4 -0.36
42 0.37
43 0.37
44 0.15
45 0.15
46 0.15
47 0.15
48 0.15
49 0.15
5 -0.57
50 0.15
51 0.15
52 0.15
53 0.15
6 -0.49
7 -0.49
8 0.12

>  <PUBCHEM_EFFECTIVE_ROTOR_COUNT>  (1) 
10.6

>  <PUBCHEM_PHARMACOPHORE_FEATURES>  (1) 
10
1 1 acceptor
1 2 acceptor
1 3 acceptor
1 4 acceptor
1 5 acceptor
1 6 donor
1 7 donor
6 18 20 22 24 26 28 rings
6 19 21 23 25 27 29 rings
6 6 7 8 13 14 17 rings

>  <PUBCHEM_HEAVY_ATOM_COUNT>  (1) 
29

>  <PUBCHEM_ATOM_DEF_STEREO_COUNT>  (1) 
0

>  <PUBCHEM_ATOM_UDEF_STEREO_COUNT>  (1) 
0

>  <PUBCHEM_BOND_DEF_STEREO_COUNT>  (1) 
0

>  <PUBCHEM_BOND_UDEF_STEREO_COUNT>  (1) 
0

>  <PUBCHEM_ISOTOPIC_ATOM_COUNT>  (1) 
0

>  <PUBCHEM_COMPONENT_COUNT>  (1) 
1

>  <PUBCHEM_CACTVS_TAUTO_COUNT>  (1) 
5

>  <PUBCHEM_CONFORMER_ID>  (1) 
0000BDD000000001

>  <PUBCHEM_MMFF94_ENERGY>  (1) 
93.9179

>  <PUBCHEM_FEATURE_SELFOVERLAP>  (1) 
50.79

>  <PUBCHEM_SHAPE_FINGERPRINT>  (1) 
10 15 12319738077055326495
10721379 63 17971772209005661636
10753850 27 18407758136147491198
11399510 152 17986657192202922962
11456790 92 18200609077040486851
11720765 8 18339363097099220249
13004483 165 18343580763620734420
13150687 139 10953733366241726944
13540713 5 18263103049788415252
13782708 43 18042124418208016695
13955234 65 17909835671536656665
14068700 675 18334577919526173900
15219462 58 15767549114158407484
15803439 3 13190342370016655816
16993427 108 18410282601775600058
17686467 74 18336817634014005704
19301679 30 18271535203860052718
20721686 146 11959740377587195387
21130935 74 17977112576939617763
21639891 77 18341605971876178457
23523787 8 14273454799101891504
23559900 14 17970627609744114999
32027 91 18267018535111449655
5219985 9 18342457057983179037
5718773 13 18261391126983729534
6009941 240 18262510378412573941
70251023 43 18408885135998426648
9962374 69 18199743829840235399

>  <PUBCHEM_SHAPE_MULTIPOLES>  (1) 
557.5
21.44
5.51
1.45
2.47
6.02
-0.18
-36.59
-3.26
-0.58
-1.67
0.11
0.85
0.13

>  <PUBCHEM_SHAPE_SELFOVERLAP>  (1) 
1183.693

>  <PUBCHEM_SHAPE_VOLUME>  (1) 
306.8

>  <PUBCHEM_COORDINATE_TYPE>  (1) 
2
5
10

$$$$
