48596
     RDKit          3D

 17 17  0  0  0  0  0  0  0  0999 V2000
   -3.0287   -2.0291    0.4263 Br  0  0  0  0  0  0  0  0  0  0  0  0
    1.4791    0.9527   -1.9820 O   0  0  0  0  0  0  0  0  0  0  0  0
   -0.8741   -0.2338    1.9045 O   0  0  0  0  0  0  0  0  0  0  0  0
    2.5646   -2.8459    0.3521 O   0  0  0  0  0  0  0  0  0  0  0  0
    1.9548   -0.9961   -0.8692 N   0  0  0  0  0  0  0  0  0  0  0  0
    0.7789   -1.5892    1.0718 N   0  0  0  0  0  0  0  0  0  0  0  0
   -0.1558    0.1548   -0.3787 C   0  0  0  0  0  0  0  0  0  0  0  0
   -0.5971    1.6148   -0.2002 C   0  0  0  0  0  0  0  0  0  0  0  0
   -1.1954   -0.5896   -1.2357 C   0  0  0  0  0  0  0  0  0  0  0  0
    1.1649    0.1111   -1.1408 C   0  0  0  0  0  0  0  0  0  0  0  0
   -0.1197   -0.5368    0.9804 C   0  0  0  0  0  0  0  0  0  0  0  0
    0.4387    2.4369    0.5134 C   0  0  0  0  0  0  0  0  0  0  0  0
   -2.5654   -0.5516   -0.6266 C   0  0  0  0  0  0  0  0  0  0  0  0
    1.8080   -1.8875    0.1868 C   0  0  0  0  0  0  0  0  0  0  0  0
    0.3774    2.4703    2.0135 C   0  0  0  0  0  0  0  0  0  0  0  0
    1.4057    3.0777   -0.1614 C   0  0  0  0  0  0  0  0  0  0  0  0
   -3.4360    0.4412   -0.8544 C   0  0  0  0  0  0  0  0  0  0  0  0
  1 13  1  0
  2 10  2  0
  3 11  2  0
  4 14  2  0
  5 10  1  0
  5 14  1  0
  6 11  1  0
  6 14  1  0
  7  8  1  0
  7  9  1  0
  7 10  1  0
  7 11  1  0
  8 12  1  0
  9 13  1  0
 12 15  1  0
 12 16  2  0
 13 17  2  0
M  END
>  <PUBCHEM_COMPOUND_CID>  (1) 
48596

>  <PUBCHEM_CONFORMER_RMSD>  (1) 
0.6

>  <PUBCHEM_CONFORMER_DIVERSEORDER>  (1) 
1
19
14
11
16
10
24
13
25
23
5
7
8
18
3
15
4
17
12
9
2
6
22
20
21

>  <PUBCHEM_MMFF94_PARTIAL_CHARGES>  (1) 
23
1 -0.11
10 0.57
11 0.57
12 -0.28
13 -0.03
14 0.69
15 0.14
16 -0.3
17 -0.3
2 -0.57
22 0.37
23 0.37
27 0.15
28 0.15
29 0.15
3 -0.57
30 0.15
4 -0.57
5 -0.49
6 -0.49
7 0.12
8 0.14
9 0.14

>  <PUBCHEM_EFFECTIVE_ROTOR_COUNT>  (1) 
4.6

>  <PUBCHEM_PHARMACOPHORE_FEATURES>  (1) 
7
1 1 hydrophobe
1 2 acceptor
1 3 acceptor
1 4 acceptor
1 5 donor
1 6 donor
6 5 6 7 10 11 14 rings

>  <PUBCHEM_HEAVY_ATOM_COUNT>  (1) 
17

>  <PUBCHEM_ATOM_DEF_STEREO_COUNT>  (1) 
0

>  <PUBCHEM_ATOM_UDEF_STEREO_COUNT>  (1) 
0

>  <PUBCHEM_BOND_DEF_STEREO_COUNT>  (1) 
0

>  <PUBCHEM_BOND_UDEF_STEREO_COUNT>  (1) 
0

>  <PUBCHEM_ISOTOPIC_ATOM_COUNT>  (1) 
0

>  <PUBCHEM_COMPONENT_COUNT>  (1) 
1

>  <PUBCHEM_CACTVS_TAUTO_COUNT>  (1) 
5

>  <PUBCHEM_CONFORMER_ID>  (1) 
0000BDD400000001

>  <PUBCHEM_MMFF94_ENERGY>  (1) 
51.9901

>  <PUBCHEM_FEATURE_SELFOVERLAP>  (1) 
35.563

>  <PUBCHEM_SHAPE_FINGERPRINT>  (1) 
10922049 32 17760924447630473781
12326174 3 18057329580980907725
12423570 1 16335328208231271876
12716301 132 17109323139451599648
13464514 151 18410289242005873957
141345 1 8198772996753773817
14617773 55 17975426719615653494
14648413 74 18338221756963646799
14817 1 8522963248589616121
15001771 113 18117559522301732415
16945 1 17750513983923516671
18410436 195 18270666568109173253
20711985 344 17699869322801355103
21524375 3 17338426126858287373
22112679 90 18055370049386373717
22344851 341 17696192882425575479
229495 10 17535511155391328681
23419403 2 17466453020336131748
23557571 272 17985257483397843554
25 1 17411637078486984493
305870 269 18052236681992240477
5845 1 12005169797086002879
7364860 26 18339348781925288455
81228 2 17840307713966002011

>  <PUBCHEM_SHAPE_MULTIPOLES>  (1) 
328.22
3.81
3.17
1.64
3.34
2.27
0.25
-1.87
-0.25
-1.93
0.59
-0.4
-0.31
0.8

>  <PUBCHEM_SHAPE_SELFOVERLAP>  (1) 
667.138

>  <PUBCHEM_SHAPE_VOLUME>  (1) 
192.5

>  <PUBCHEM_COORDINATE_TYPE>  (1) 
2
5
10

$$$$
