48599
     RDKit          3D

 17 17  0  0  0  0  0  0  0  0999 V2000
   -2.8837    1.8331   -0.2412 O   0  0  0  0  0  0  0  0  0  0  0  0
    3.9529   -1.7560    0.2024 O   0  0  0  0  0  0  0  0  0  0  0  0
   -3.1115   -0.4605    0.0157 N   0  0  0  0  0  0  0  0  0  0  0  0
    3.8962   -0.4871    0.0522 N   0  0  0  0  0  0  0  0  0  0  0  0
    4.3762    0.1923   -0.9150 N   0  0  0  0  0  0  0  0  0  0  0  0
   -4.5265   -0.5216   -0.2597 C   0  0  0  0  0  0  0  0  0  0  0  0
   -0.9450    0.6212    0.2793 C   0  0  0  0  0  0  0  0  0  0  0  0
    1.7570    0.4187    0.7968 C   0  0  0  0  0  0  0  0  0  0  0  0
   -2.4002    0.7303    0.0011 C   0  0  0  0  0  0  0  0  0  0  0  0
   -5.1717   -1.6518    0.5318 C   0  0  0  0  0  0  0  0  0  0  0  0
   -4.7738   -0.6831   -1.7544 C   0  0  0  0  0  0  0  0  0  0  0  0
   -0.0938    1.5733   -0.2418 C   0  0  0  0  0  0  0  0  0  0  0  0
   -0.4912   -0.4289    1.0505 C   0  0  0  0  0  0  0  0  0  0  0  0
    3.2181    0.3089    1.0758 C   0  0  0  0  0  0  0  0  0  0  0  0
    1.2724    1.4709    0.0197 C   0  0  0  0  0  0  0  0  0  0  0  0
    0.8750   -0.5313    1.3121 C   0  0  0  0  0  0  0  0  0  0  0  0
    5.0496   -0.6283   -1.9252 C   0  0  0  0  0  0  0  0  0  0  0  0
  1  9  2  0
  2  4  1  0
  3  6  1  0
  3  9  1  0
  4  5  2  0
  4 14  1  0
  5 17  1  0
  6 10  1  0
  6 11  1  0
  7  9  1  0
  7 12  2  0
  7 13  1  0
  8 14  1  0
  8 15  2  0
  8 16  1  0
 12 15  1  0
 13 16  2  0
M  CHG  2   2  -1   4   1
M  END
>  <PUBCHEM_COMPOUND_CID>  (1) 
48599

>  <PUBCHEM_CONFORMER_RMSD>  (1) 
0.6

>  <PUBCHEM_CONFORMER_DIVERSEORDER>  (1) 
1
42
37
28
47
68
48
32
33
23
27
59
70
22
63
4
50
16
69
24
71
2
73
12
39
44
21
53
14
20
36
25
35
34
30
49
9
41
6
10
40
45
66
38
61
8
64
60
11
31
62
67
29
46
5
13
51
54
52
17
43
65
3
57
26
58
7
55
15
56
19
72
18

>  <PUBCHEM_MMFF94_PARTIAL_CHARGES>  (1) 
20
1 -0.57
12 -0.15
13 -0.15
14 0.24
15 -0.15
16 -0.15
17 0.25
19 0.37
2 -0.63
26 0.15
27 0.15
3 -0.73
30 0.15
31 0.15
4 0.74
5 -0.45
6 0.3
7 0.09
8 -0.14
9 0.54

>  <PUBCHEM_EFFECTIVE_ROTOR_COUNT>  (1) 
5

>  <PUBCHEM_PHARMACOPHORE_FEATURES>  (1) 
5
1 1 acceptor
1 2 anion
1 3 donor
3 6 10 11 hydrophobe
6 7 8 12 13 15 16 rings

>  <PUBCHEM_HEAVY_ATOM_COUNT>  (1) 
17

>  <PUBCHEM_ATOM_DEF_STEREO_COUNT>  (1) 
0

>  <PUBCHEM_ATOM_UDEF_STEREO_COUNT>  (1) 
0

>  <PUBCHEM_BOND_DEF_STEREO_COUNT>  (1) 
0

>  <PUBCHEM_BOND_UDEF_STEREO_COUNT>  (1) 
0

>  <PUBCHEM_ISOTOPIC_ATOM_COUNT>  (1) 
0

>  <PUBCHEM_COMPONENT_COUNT>  (1) 
1

>  <PUBCHEM_CACTVS_TAUTO_COUNT>  (1) 
2

>  <PUBCHEM_CONFORMER_ID>  (1) 
0000BDD700000001

>  <PUBCHEM_MMFF94_ENERGY>  (1) 
37.5579

>  <PUBCHEM_FEATURE_SELFOVERLAP>  (1) 
25.371

>  <PUBCHEM_SHAPE_FINGERPRINT>  (1) 
11089746 13 12829478260202769808
11128504 68 17894638062655294382
11543360 7 15574712512771063553
11796584 16 17418089906182482031
12032990 46 18410289216172390001
12596602 18 13758068619102820255
12644460 14 14907603667009297906
12670546 177 17603588542763600606
13675066 3 12103569718588551897
13760787 5 17022903398119597552
14178000 29 18060140950915077644
14251718 22 17531249499460613335
14251732 14 18335714865598466982
14251757 5 17751092507339377963
14251758 9 12823028486070641176
14251764 38 13551199895730078654
14455015 7 17489594458497940982
14528608 73 16153427267948198542
14911166 2 17894630374384324648
14993402 34 17458063772159287592
15209294 21 9367345929239063113
17959699 21 14490463162813399527
18186145 218 17749658684647809545
19026448 4 17632004286965047752
193927 3 18272092720753229415
200 152 18340196471389229113
20281475 54 18340771416853881912
20621476 21 18059871587545974455
20645477 70 18262513814085632185
20871999 31 18259988149703127516
212916 134 9367345907622003565
21475661 188 11963683273703048702
21637258 2 17489864917189570582
221490 88 17897449625794148347
23379529 103 18125728026403436351
23402539 116 18334293128386441076
23402655 69 17313371306657116229
23503953 91 10591757667252100908
23559900 14 18263923409357053432
2838139 119 14201397205248962742
2916195 48 12107783008713062743
29717793 49 18201427121790590013
33382 64 17560809830876824894
42 15 15626227926640409585
4259306 186 18410848841699973671
465052 167 16128661872755701956
4990 188 18408882919336053904
57096353 35 17967811626335119440
58807428 26 11743841343872599660

>  <PUBCHEM_SHAPE_MULTIPOLES>  (1) 
323.17
11.33
1.55
1.39
1.93
0.17
0.4
-6.29
4.36
0.33
0.12
-0.65
-0.4
0.55

>  <PUBCHEM_SHAPE_SELFOVERLAP>  (1) 
656.556

>  <PUBCHEM_SHAPE_VOLUME>  (1) 
189.2

>  <PUBCHEM_COORDINATE_TYPE>  (1) 
2
5
10

$$$$
