48605
     RDKit          3D

 24 24  0  0  0  0  0  0  0  0999 V2000
   -5.0181    0.3331   -0.3196 O   0  0  0  0  0  0  0  0  0  0  0  0
    5.0176    0.3315    0.3210 O   0  0  0  0  0  0  0  0  0  0  0  0
   -5.8559   -1.0575    1.3198 O   0  0  0  0  0  0  0  0  0  0  0  0
    5.8579   -1.0511   -1.3238 O   0  0  0  0  0  0  0  0  0  0  0  0
   -1.4439    1.1407    0.0701 N   0  0  0  0  0  0  0  0  0  0  0  0
    1.4439    1.1408   -0.0699 N   0  0  0  0  0  0  0  0  0  0  0  0
   -0.6993    2.3469   -0.3116 C   0  0  0  0  0  0  0  0  0  0  0  0
   -0.6996   -0.0642   -0.3165 C   0  0  0  0  0  0  0  0  0  0  0  0
    0.6990    2.3457    0.3158 C   0  0  0  0  0  0  0  0  0  0  0  0
    0.6991   -0.0660    0.3097 C   0  0  0  0  0  0  0  0  0  0  0  0
   -2.7768    1.1421   -0.5292 C   0  0  0  0  0  0  0  0  0  0  0  0
    2.7761    1.1394    0.5313 C   0  0  0  0  0  0  0  0  0  0  0  0
   -3.7338    0.2892    0.2883 C   0  0  0  0  0  0  0  0  0  0  0  0
    3.7342    0.2905   -0.2889 C   0  0  0  0  0  0  0  0  0  0  0  0
   -6.0000   -0.3918    0.3036 C   0  0  0  0  0  0  0  0  0  0  0  0
    6.0004   -0.3903   -0.3044 C   0  0  0  0  0  0  0  0  0  0  0  0
   -7.2943   -0.2381   -0.4622 C   0  0  0  0  0  0  0  0  0  0  0  0
    7.2936   -0.2403    0.4641 C   0  0  0  0  0  0  0  0  0  0  0  0
   -8.4308   -1.0421    0.1672 C   0  0  0  0  0  0  0  0  0  0  0  0
    8.4311   -1.0411   -0.1676 C   0  0  0  0  0  0  0  0  0  0  0  0
   -9.7402   -0.8448   -0.5953 C   0  0  0  0  0  0  0  0  0  0  0  0
    9.7394   -0.8476    0.5978 C   0  0  0  0  0  0  0  0  0  0  0  0
  -10.8820   -1.6128    0.0507 C   0  0  0  0  0  0  0  0  0  0  0  0
   10.8822   -1.6123   -0.0504 C   0  0  0  0  0  0  0  0  0  0  0  0
  1 13  1  0
  1 15  1  0
  2 14  1  0
  2 16  1  0
  3 15  2  0
  4 16  2  0
  5  7  1  0
  5  8  1  0
  5 11  1  0
  6  9  1  0
  6 10  1  0
  6 12  1  0
  7  9  1  0
  8 10  1  0
 11 13  1  0
 12 14  1  0
 15 17  1  0
 16 18  1  0
 17 19  1  0
 18 20  1  0
 19 21  1  0
 20 22  1  0
 21 23  1  0
 22 24  1  0
M  END
>  <PUBCHEM_COMPOUND_CID>  (1) 
48605

>  <PUBCHEM_CONFORMER_RMSD>  (1) 
1.4

>  <PUBCHEM_CONFORMER_DIVERSEORDER>  (1) 
1
25
35
23
2
20
34
32
33
15
7
30
3
28
8
4
27
14
18
12
16
17
11
10
13
5
21
9
29
31
24
19
26
22
6

>  <PUBCHEM_MMFF94_PARTIAL_CHARGES>  (1) 
18
1 -0.43
10 0.27
11 0.27
12 0.27
13 0.28
14 0.28
15 0.66
16 0.66
17 0.06
18 0.06
2 -0.43
3 -0.57
4 -0.57
5 -0.81
6 -0.81
7 0.27
8 0.27
9 0.27

>  <PUBCHEM_EFFECTIVE_ROTOR_COUNT>  (1) 
15.2

>  <PUBCHEM_PHARMACOPHORE_FEATURES>  (1) 
7
1 23 hydrophobe
1 24 hydrophobe
1 3 acceptor
1 4 acceptor
1 5 cation
1 6 cation
6 5 6 7 8 9 10 rings

>  <PUBCHEM_HEAVY_ATOM_COUNT>  (1) 
24

>  <PUBCHEM_ATOM_DEF_STEREO_COUNT>  (1) 
0

>  <PUBCHEM_ATOM_UDEF_STEREO_COUNT>  (1) 
0

>  <PUBCHEM_BOND_DEF_STEREO_COUNT>  (1) 
0

>  <PUBCHEM_BOND_UDEF_STEREO_COUNT>  (1) 
0

>  <PUBCHEM_ISOTOPIC_ATOM_COUNT>  (1) 
0

>  <PUBCHEM_COMPONENT_COUNT>  (1) 
1

>  <PUBCHEM_CACTVS_TAUTO_COUNT>  (1) 
1

>  <PUBCHEM_CONFORMER_ID>  (1) 
0000BDDD00000001

>  <PUBCHEM_MMFF94_ENERGY>  (1) 
18.99

>  <PUBCHEM_FEATURE_SELFOVERLAP>  (1) 
35.522

>  <PUBCHEM_SHAPE_FINGERPRINT>  (1) 
10 15 12247680474289839373
10411042 1 18410573985157908165
106641 1 16415479354663752542
11408170 108 17917437492619478407
11463208 3 18410857663515995815
11638347 137 15913335688841196301
12498461 61 17632571700508211703
12522641 33 13117996691211021736
12539745 222 17988646255291289033
14026016 60 16009297709729455442
14216079 64 18412263934792459223
14251764 46 18202282506686087107
14251920 17 18334859455719571372
14344974 52 13045953425204526223
15247644 1 18410293609724493330
15510794 2 18410854360616767884
155225 1 9079116661241888647
15690457 1 18413387635760494262
15706992 2 11887953280836981922
1754911 235 13118002210444137987
18335252 98 18201439147799290910
20771845 65 18343020025186327744
21150785 3 16081088173638295212
21267235 1 18410855460128629504
21792961 116 17967251988645567113
232437 2 18410573989446652291
23524908 199 12757142447728234808
246663 6 18410576184174739172
33684 2 18407759235732634115
5758199 1 9295293837729708597
5937810 71 12613017368074255655
59521099 67 17603589656031199652
59521270 166 17676482818886677943
59848396 5 17773869974396336071
636775 8 18041003942279970242

>  <PUBCHEM_SHAPE_MULTIPOLES>  (1) 
460.47
39.95
1.79
0.82
0
0.8
0
-33.38
0.01
0
0
0
-0.11
0.61

>  <PUBCHEM_SHAPE_SELFOVERLAP>  (1) 
882.736

>  <PUBCHEM_SHAPE_VOLUME>  (1) 
281.5

>  <PUBCHEM_COORDINATE_TYPE>  (1) 
2
5
10

$$$$
