48601
     RDKit          3D

 30 32  0  0  0  0  0  0  0  0999 V2000
    4.8122    0.0000   -1.2634 O   0  0  0  0  0  0  0  0  0  0  0  0
   -4.8952    1.1771    1.1207 O   0  0  0  0  0  0  0  0  0  0  0  0
    4.6221   -1.3906    0.5715 O   0  0  0  0  0  0  0  0  0  0  0  0
   -4.9004   -0.9773    0.2867 O   0  0  0  0  0  0  0  0  0  0  0  0
    1.3367    1.1560   -0.7856 N   0  0  0  0  0  0  0  0  0  0  0  0
   -1.3499    1.5735    0.1977 N   0  0  0  0  0  0  0  0  0  0  0  0
    6.7842   -0.6219   -0.1651 C   0  0  0  0  0  0  0  0  0  0  0  0
   -6.9612    0.2671    0.4573 C   0  0  0  0  0  0  0  0  0  0  0  0
    7.3520   -1.9190    0.4139 C   0  0  0  0  0  0  0  0  0  0  0  0
    7.1300    0.6008    0.6903 C   0  0  0  0  0  0  0  0  0  0  0  0
   -7.6904   -0.7011    1.3936 C   0  0  0  0  0  0  0  0  0  0  0  0
   -7.3580    0.2227   -1.0224 C   0  0  0  0  0  0  0  0  0  0  0  0
    8.7771   -2.2455   -0.0266 C   0  0  0  0  0  0  0  0  0  0  0  0
    8.5854    1.0523    0.6082 C   0  0  0  0  0  0  0  0  0  0  0  0
   -9.1743   -0.8994    1.0962 C   0  0  0  0  0  0  0  0  0  0  0  0
   -7.6260   -1.1737   -1.5829 C   0  0  0  0  0  0  0  0  0  0  0  0
    0.8150    2.5065   -0.5422 C   0  0  0  0  0  0  0  0  0  0  0  0
    0.6948    0.1885    0.1128 C   0  0  0  0  0  0  0  0  0  0  0  0
   -0.7089    2.5399   -0.7025 C   0  0  0  0  0  0  0  0  0  0  0  0
   -0.8290    0.2228   -0.0464 C   0  0  0  0  0  0  0  0  0  0  0  0
    9.7586   -1.0812   -0.1307 C   0  0  0  0  0  0  0  0  0  0  0  0
    9.6217   -0.0163    0.9534 C   0  0  0  0  0  0  0  0  0  0  0  0
   -9.4292   -1.9957    0.0639 C   0  0  0  0  0  0  0  0  0  0  0  0
   -9.0676   -1.6316   -1.3714 C   0  0  0  0  0  0  0  0  0  0  0  0
    2.7896    1.1248   -0.6296 C   0  0  0  0  0  0  0  0  0  0  0  0
   -2.8028    1.6053    0.0437 C   0  0  0  0  0  0  0  0  0  0  0  0
    5.2879   -0.7338   -0.2173 C   0  0  0  0  0  0  0  0  0  0  0  0
   -5.4778    0.0553    0.5988 C   0  0  0  0  0  0  0  0  0  0  0  0
    3.3911   -0.0184   -1.4313 C   0  0  0  0  0  0  0  0  0  0  0  0
   -3.4876    1.1130    1.3087 C   0  0  0  0  0  0  0  0  0  0  0  0
  1 27  1  0
  1 29  1  0
  2 28  1  0
  2 30  1  0
  3 27  2  0
  4 28  2  0
  5 17  1  0
  5 18  1  0
  5 25  1  0
  6 19  1  0
  6 20  1  0
  6 26  1  0
  7  9  1  0
  7 10  1  0
  7 27  1  0
  8 11  1  0
  8 12  1  0
  8 28  1  0
  9 13  1  0
 10 14  1  0
 11 15  1  0
 12 16  1  0
 13 21  1  0
 14 22  1  0
 15 23  1  0
 16 24  1  0
 17 19  1  0
 18 20  1  0
 21 22  1  0
 23 24  1  0
 25 29  1  0
 26 30  1  0
M  END
>  <PUBCHEM_COMPOUND_CID>  (1) 
48601

>  <PUBCHEM_CONFORMER_RMSD>  (1) 
1.2

>  <PUBCHEM_CONFORMER_DIVERSEORDER>  (1) 
7
14
27
39
13
36
25
19
15
11
30
22
1
20
9
8
5
34
38
33
35
10
18
16
28
23
17
6
29
12
24
21
26
37
32
4
3
2
31

>  <PUBCHEM_MMFF94_PARTIAL_CHARGES>  (1) 
18
1 -0.43
17 0.27
18 0.27
19 0.27
2 -0.43
20 0.27
25 0.27
26 0.27
27 0.66
28 0.66
29 0.28
3 -0.57
30 0.28
4 -0.57
5 -0.81
6 -0.81
7 0.06
8 0.06

>  <PUBCHEM_EFFECTIVE_ROTOR_COUNT>  (1) 
14

>  <PUBCHEM_PHARMACOPHORE_FEATURES>  (1) 
7
1 3 acceptor
1 4 acceptor
1 5 cation
1 6 cation
6 5 6 17 18 19 20 rings
7 7 9 10 13 14 21 22 rings
7 8 11 12 15 16 23 24 rings

>  <PUBCHEM_HEAVY_ATOM_COUNT>  (1) 
30

>  <PUBCHEM_ATOM_DEF_STEREO_COUNT>  (1) 
0

>  <PUBCHEM_ATOM_UDEF_STEREO_COUNT>  (1) 
0

>  <PUBCHEM_BOND_DEF_STEREO_COUNT>  (1) 
0

>  <PUBCHEM_BOND_UDEF_STEREO_COUNT>  (1) 
0

>  <PUBCHEM_ISOTOPIC_ATOM_COUNT>  (1) 
0

>  <PUBCHEM_COMPONENT_COUNT>  (1) 
1

>  <PUBCHEM_CACTVS_TAUTO_COUNT>  (1) 
1

>  <PUBCHEM_CONFORMER_ID>  (1) 
0000BDD900000007

>  <PUBCHEM_MMFF94_ENERGY>  (1) 
49.14

>  <PUBCHEM_FEATURE_SELFOVERLAP>  (1) 
35.524

>  <PUBCHEM_SHAPE_FINGERPRINT>  (1) 
10 15 13254801226942954725
10162869 55 18040718074274135940
10190206 1 14996273683768753733
10533779 47 14979684231175909902
106641 1 17989205949996570120
10670039 82 15864063270667302029
10674148 151 11891334266270782260
11135609 99 18271242828715014343
11135926 11 17676492718564768987
11211813 128 18272091570060924390
11386260 185 15936419969636208052
11408170 132 12757158983104761750
11410812 94 16009020645003539061
12838862 33 17095238129939590170
14150022 121 16486982747961022569
14251764 18 18272373070654516180
14400156 96 18263644125795417524
14918687 75 18201997755271711718
15065858 18 18409725153632671132
15183329 4 14634868643513465197
15198563 99 15719389495327766183
15326923 82 17749390391189715148
15350500 16 18260829301857636957
15392192 104 17703792505961870990
15690457 1 18408324380424834778
15706992 2 12031789188427038481
15728490 51 17847057796438187655
1768 4 11384114137993353755
18335252 98 17131836456401095374
190975 80 18272368664213327224
20105231 36 18200881661698801038
2026 5 18334576793997433075
21095123 145 16056874745340097892
21095123 293 9727638302203334507
21130935 74 18127979603252718718
212700 22 18187083961866852178
21792938 703 18261958556661758123
21792961 116 16660084408772923769
232437 2 18272370867404852066
23524908 199 11097847481430716880
3633792 109 7925909297425104332
3991529 128 12607405515679205987
4760202 170 13262693556120804878
54039377 194 18407758136379152079
54076057 127 15051460375706120676
5758199 1 10087642589945173645
59682541 35 17132112454919976466
6126387 218 18341333310620479345
6438161 24 18261114092986917409
9511036 111 17917138507730807471
9689198 14 11527945655736651676
9953998 17 14620792709272418821
9962374 69 18342735264600859045

>  <PUBCHEM_SHAPE_MULTIPOLES>  (1) 
583.95
40.53
2.2
1.27
5.53
0.32
-0.12
-26.65
4.64
0.3
-0.26
-1.84
-0.07
-0.8

>  <PUBCHEM_SHAPE_SELFOVERLAP>  (1) 
1168.684

>  <PUBCHEM_SHAPE_VOLUME>  (1) 
339.2

>  <PUBCHEM_COORDINATE_TYPE>  (1) 
2
5
10

$$$$
