48603
     RDKit          3D

 30 32  0  0  0  0  0  0  0  0999 V2000
    5.0280   -0.0067    0.0951 O   0  0  0  0  0  0  0  0  0  0  0  0
   -5.0281    0.0080    0.0952 O   0  0  0  0  0  0  0  0  0  0  0  0
    5.7744    1.6716   -1.2926 O   0  0  0  0  0  0  0  0  0  0  0  0
   -5.7720   -1.6789   -1.2833 O   0  0  0  0  0  0  0  0  0  0  0  0
    1.4368    0.1653    0.9030 N   0  0  0  0  0  0  0  0  0  0  0  0
   -1.4367   -0.1542    0.9041 N   0  0  0  0  0  0  0  0  0  0  0  0
    0.7172   -0.2598    2.1100 C   0  0  0  0  0  0  0  0  0  0  0  0
    0.7172   -0.2662   -0.3017 C   0  0  0  0  0  0  0  0  0  0  0  0
   -0.7175    0.2793    2.1082 C   0  0  0  0  0  0  0  0  0  0  0  0
   -0.7178    0.2717   -0.3029 C   0  0  0  0  0  0  0  0  0  0  0  0
    2.8038   -0.3518    0.9045 C   0  0  0  0  0  0  0  0  0  0  0  0
   -2.8044    0.3609    0.9027 C   0  0  0  0  0  0  0  0  0  0  0  0
    3.7091    0.5220    0.0511 C   0  0  0  0  0  0  0  0  0  0  0  0
   -3.7084   -0.5189    0.0542 C   0  0  0  0  0  0  0  0  0  0  0  0
    5.9671    0.6678   -0.6243 C   0  0  0  0  0  0  0  0  0  0  0  0
   -5.9662   -0.6716   -0.6205 C   0  0  0  0  0  0  0  0  0  0  0  0
    7.2955    0.0168   -0.4971 C   0  0  0  0  0  0  0  0  0  0  0  0
   -7.2954   -0.0219   -0.4970 C   0  0  0  0  0  0  0  0  0  0  0  0
    8.3883    0.7044    0.0308 C   0  0  0  0  0  0  0  0  0  0  0  0
   -8.3873   -0.7081    0.0346 C   0  0  0  0  0  0  0  0  0  0  0  0
    7.4401   -1.3056   -0.9169 C   0  0  0  0  0  0  0  0  0  0  0  0
   -7.4420    1.2979   -0.9240 C   0  0  0  0  0  0  0  0  0  0  0  0
    9.6256    0.0696    0.1389 C   0  0  0  0  0  0  0  0  0  0  0  0
   -9.6256   -0.0745    0.1393 C   0  0  0  0  0  0  0  0  0  0  0  0
    8.2617    2.1216    0.4870 C   0  0  0  0  0  0  0  0  0  0  0  0
   -8.2588   -2.1225    0.4986 C   0  0  0  0  0  0  0  0  0  0  0  0
    8.6776   -1.9402   -0.8088 C   0  0  0  0  0  0  0  0  0  0  0  0
   -8.6804    1.9315   -0.8194 C   0  0  0  0  0  0  0  0  0  0  0  0
    9.7702   -1.2528   -0.2810 C   0  0  0  0  0  0  0  0  0  0  0  0
   -9.7721    1.2453   -0.2879 C   0  0  0  0  0  0  0  0  0  0  0  0
  1 13  1  0
  1 15  1  0
  2 14  1  0
  2 16  1  0
  3 15  2  0
  4 16  2  0
  5  7  1  0
  5  8  1  0
  5 11  1  0
  6  9  1  0
  6 10  1  0
  6 12  1  0
  7  9  1  0
  8 10  1  0
 11 13  1  0
 12 14  1  0
 15 17  1  0
 16 18  1  0
 17 19  2  0
 17 21  1  0
 18 20  2  0
 18 22  1  0
 19 23  1  0
 19 25  1  0
 20 24  1  0
 20 26  1  0
 21 27  2  0
 22 28  2  0
 23 29  2  0
 24 30  2  0
 27 29  1  0
 28 30  1  0
M  END
>  <PUBCHEM_COMPOUND_CID>  (1) 
48603

>  <PUBCHEM_CONFORMER_RMSD>  (1) 
1.4

>  <PUBCHEM_CONFORMER_DIVERSEORDER>  (1) 
1
22
15
2
16
4
26
5
6
23
31
27
8
13
21
12
20
14
24
29
17
9
28
19
10
30
25
18
7
11
3

>  <PUBCHEM_MMFF94_PARTIAL_CHARGES>  (1) 
38
1 -0.43
10 0.27
11 0.27
12 0.27
13 0.28
14 0.28
15 0.63
16 0.63
17 0.09
18 0.09
19 -0.14
2 -0.43
20 -0.14
21 -0.15
22 -0.15
23 -0.15
24 -0.15
25 0.14
26 0.14
27 -0.15
28 -0.15
29 -0.15
3 -0.57
30 -0.15
4 -0.57
47 0.15
48 0.15
49 0.15
5 -0.81
50 0.15
57 0.15
58 0.15
59 0.15
6 -0.81
60 0.15
7 0.27
8 0.27
9 0.27

>  <PUBCHEM_EFFECTIVE_ROTOR_COUNT>  (1) 
11.2

>  <PUBCHEM_PHARMACOPHORE_FEATURES>  (1) 
7
1 3 acceptor
1 4 acceptor
1 5 cation
1 6 cation
6 17 19 21 23 27 29 rings
6 18 20 22 24 28 30 rings
6 5 6 7 8 9 10 rings

>  <PUBCHEM_HEAVY_ATOM_COUNT>  (1) 
30

>  <PUBCHEM_ATOM_DEF_STEREO_COUNT>  (1) 
0

>  <PUBCHEM_ATOM_UDEF_STEREO_COUNT>  (1) 
0

>  <PUBCHEM_BOND_DEF_STEREO_COUNT>  (1) 
0

>  <PUBCHEM_BOND_UDEF_STEREO_COUNT>  (1) 
0

>  <PUBCHEM_ISOTOPIC_ATOM_COUNT>  (1) 
0

>  <PUBCHEM_COMPONENT_COUNT>  (1) 
1

>  <PUBCHEM_CACTVS_TAUTO_COUNT>  (1) 
1

>  <PUBCHEM_CONFORMER_ID>  (1) 
0000BDDB00000001

>  <PUBCHEM_MMFF94_ENERGY>  (1) 
78.2805

>  <PUBCHEM_FEATURE_SELFOVERLAP>  (1) 
35.524

>  <PUBCHEM_SHAPE_FINGERPRINT>  (1) 
10 15 12251903694077947369
10674148 151 18409726279024794867
11061554 47 17312816091956263268
11211813 89 16845572036835514727
11672396 167 18058170532491299206
11828042 53 17771068190444847761
12082328 90 18202565042773141933
12089408 11 18413107290048842463
12522641 33 17458345225825277610
12539745 222 11167953445838702747
12643181 29 16773793723642381583
14251764 46 17490150811518641709
14428016 86 15719390620640611272
14937079 2 16081378504642658956
15061470 23 18333167271920226460
15065858 18 18341611533657684538
15247644 1 16917069953838726014
15392192 104 10881400933152709032
15510794 2 18411421725907618635
15773216 30 17969216742589239346
1754911 235 17967531277135556711
20105231 36 18201440324905601899
20501277 279 15430036544570923125
21095123 145 14707217626029638833
21792934 111 14908175348541678234
21792961 116 17775567507835445945
22164985 6 17846493759715745308
232437 2 18409167714164501591
23729398 52 16372958908004032146
24771293 8 15719389504513766071
24893992 56 16081374089395224185
3092352 35 17822008722845710523
3633792 109 18408324372225349122
3991529 128 12901557823362738606
439807 62 17490150820884120842
4625314 4 18410855503077834766
5219985 9 15769777961344388968
5283156 175 18060421313953824182
5470011 282 18202566206999117564
5758199 1 16515400768800545017
58083652 198 16128376025386662386
6081469 158 18201720643860694488
67123 10 18410573989446418437
9663363 56 15769774645777341859
9937071 3 18060140925572834222
9962374 69 14261055593485317208

>  <PUBCHEM_SHAPE_MULTIPOLES>  (1) 
583.95
43.76
1.66
1.28
0.01
0.01
0.52
0.09
-11.52
-0.01
-0.37
0.01
0
1.54

>  <PUBCHEM_SHAPE_SELFOVERLAP>  (1) 
1223.109

>  <PUBCHEM_SHAPE_VOLUME>  (1) 
330.2

>  <PUBCHEM_COORDINATE_TYPE>  (1) 
2
5
10

$$$$
