48609
     RDKit          3D

 24 26  0  0  0  0  0  0  0  0999 V2000
   -5.0210    0.2351   -0.2684 O   0  0  0  0  0  0  0  0  0  0  0  0
    5.0206    0.2338    0.2696 O   0  0  0  0  0  0  0  0  0  0  0  0
   -5.8193   -1.1500    1.3817 O   0  0  0  0  0  0  0  0  0  0  0  0
    5.8213   -1.1439   -1.3855 O   0  0  0  0  0  0  0  0  0  0  0  0
   -1.4431    1.0428    0.0846 N   0  0  0  0  0  0  0  0  0  0  0  0
    1.4431    1.0430   -0.0850 N   0  0  0  0  0  0  0  0  0  0  0  0
   -7.3530   -0.3712   -0.3667 C   0  0  0  0  0  0  0  0  0  0  0  0
    7.3525   -0.3728    0.3686 C   0  0  0  0  0  0  0  0  0  0  0  0
   -8.0927   -1.6816   -0.7078 C   0  0  0  0  0  0  0  0  0  0  0  0
   -8.5841    0.0136    0.4799 C   0  0  0  0  0  0  0  0  0  0  0  0
    8.5848    0.0159   -0.4745 C   0  0  0  0  0  0  0  0  0  0  0  0
    8.0918   -1.6846    0.7049 C   0  0  0  0  0  0  0  0  0  0  0  0
   -9.4068   -0.9218   -0.4304 C   0  0  0  0  0  0  0  0  0  0  0  0
    9.4062   -0.9236    0.4327 C   0  0  0  0  0  0  0  0  0  0  0  0
   -0.7028   -0.1621   -0.3094 C   0  0  0  0  0  0  0  0  0  0  0  0
   -0.7025    2.2490   -0.3049 C   0  0  0  0  0  0  0  0  0  0  0  0
    0.7023   -0.1638    0.3025 C   0  0  0  0  0  0  0  0  0  0  0  0
    0.7022    2.2480    0.3081 C   0  0  0  0  0  0  0  0  0  0  0  0
   -2.7821    1.0441   -0.5010 C   0  0  0  0  0  0  0  0  0  0  0  0
    2.7814    1.0418    0.5026 C   0  0  0  0  0  0  0  0  0  0  0  0
   -6.0044   -0.4886    0.3601 C   0  0  0  0  0  0  0  0  0  0  0  0
    6.0050   -0.4871   -0.3608 C   0  0  0  0  0  0  0  0  0  0  0  0
   -3.7306    0.1913    0.3263 C   0  0  0  0  0  0  0  0  0  0  0  0
    3.7311    0.1927   -0.3272 C   0  0  0  0  0  0  0  0  0  0  0  0
  1 21  1  0
  1 23  1  0
  2 22  1  0
  2 24  1  0
  3 21  2  0
  4 22  2  0
  5 15  1  0
  5 16  1  0
  5 19  1  0
  6 17  1  0
  6 18  1  0
  6 20  1  0
  7  9  1  0
  7 10  1  0
  7 21  1  0
  8 11  1  0
  8 12  1  0
  8 22  1  0
  9 13  1  0
 10 13  1  0
 11 14  1  0
 12 14  1  0
 15 17  1  0
 16 18  1  0
 19 23  1  0
 20 24  1  0
M  END
>  <PUBCHEM_COMPOUND_CID>  (1) 
48609

>  <PUBCHEM_CONFORMER_RMSD>  (1) 
1

>  <PUBCHEM_CONFORMER_DIVERSEORDER>  (1) 
1
7
4
29
18
16
26
27
11
13
20
21
22
6
25
3
14
15
5
9
12
28
8
2
23
19
24
10
17

>  <PUBCHEM_MMFF94_PARTIAL_CHARGES>  (1) 
18
1 -0.43
15 0.27
16 0.27
17 0.27
18 0.27
19 0.27
2 -0.43
20 0.27
21 0.67
22 0.67
23 0.28
24 0.28
3 -0.57
4 -0.57
5 -0.81
6 -0.81
7 0.05
8 0.05

>  <PUBCHEM_EFFECTIVE_ROTOR_COUNT>  (1) 
12.8

>  <PUBCHEM_PHARMACOPHORE_FEATURES>  (1) 
7
1 3 acceptor
1 4 acceptor
1 5 cation
1 6 cation
4 7 9 10 13 rings
4 8 11 12 14 rings
6 5 6 15 16 17 18 rings

>  <PUBCHEM_HEAVY_ATOM_COUNT>  (1) 
24

>  <PUBCHEM_ATOM_DEF_STEREO_COUNT>  (1) 
0

>  <PUBCHEM_ATOM_UDEF_STEREO_COUNT>  (1) 
0

>  <PUBCHEM_BOND_DEF_STEREO_COUNT>  (1) 
0

>  <PUBCHEM_BOND_UDEF_STEREO_COUNT>  (1) 
0

>  <PUBCHEM_ISOTOPIC_ATOM_COUNT>  (1) 
0

>  <PUBCHEM_COMPONENT_COUNT>  (1) 
1

>  <PUBCHEM_CACTVS_TAUTO_COUNT>  (1) 
1

>  <PUBCHEM_CONFORMER_ID>  (1) 
0000BDE100000001

>  <PUBCHEM_MMFF94_ENERGY>  (1) 
43.1849

>  <PUBCHEM_FEATURE_SELFOVERLAP>  (1) 
35.524

>  <PUBCHEM_SHAPE_FINGERPRINT>  (1) 
10 15 12391514182993706013
106641 1 17132112446809966376
11135609 99 18199467835135916087
11638347 137 15051739673034003028
12539745 222 17703513203289397377
12592606 108 18410290346002184523
12643181 29 18114184164061398923
13673619 4 18410854364912339309
13685833 64 18343021086685723400
13885169 127 18341332206840179961
13974486 27 17411354122069467879
14026016 60 15864619567531850514
14123256 10 17749390360101316962
14216079 64 18412263926228976302
14251764 18 15698281114084239272
14251764 46 17917712400458778398
14251920 17 18336547210347421972
14344974 52 13479144522337278612
14428016 86 9295293845881754168
15510794 2 18410851062082027508
15690457 1 18412260636384299782
15706992 2 11527945698923532450
1754911 235 13118000011394593107
1818759 1 18410576184175063970
18335252 98 18272652321149280678
18643901 69 17967250888901714205
20721686 124 12829483732725089224
20771845 65 18341050804150647265
21130935 74 17915182317763032886
21150785 3 15864069870971491604
21267235 1 18410572885640291073
21585482 111 8718286636774885535
21792934 111 18272927232767688464
21792961 116 17894345558382019405
22224240 67 16558749014213930470
232437 2 18410855460128402147
23524908 199 12685081555055281272
246663 6 18410575088958072196
249057 3 15719398355660465550
335352 9 18335985345427166751
33684 2 18186801378782615147
4325135 7 16877942732688398795
5219985 9 18410856559640536617
5283156 175 17894351068940974774
5470011 282 16878233030097498334
5758199 1 9439407926177846637
5937810 71 13335002878118020303
59521099 67 17676773154054744116
59521270 166 17603862274731785359
59682541 35 15913326900863633806
636775 72 10087653602621654635
6438161 24 18335420179565935404
67123 10 18409448094504573084
9953998 17 14549013299965656941
9962374 69 18130217259100762604

>  <PUBCHEM_SHAPE_MULTIPOLES>  (1) 
460.47
34.94
1.67
0.87
0
0.59
0
-21.36
0.02
0
0
0
-0.19
-0.34

>  <PUBCHEM_SHAPE_SELFOVERLAP>  (1) 
925.13

>  <PUBCHEM_SHAPE_VOLUME>  (1) 
272.8

>  <PUBCHEM_COORDINATE_TYPE>  (1) 
2
5
10

$$$$
