48611
     RDKit          3D

 26 28  0  0  0  0  0  0  0  0999 V2000
   -4.9843   -0.5417   -0.1390 O   0  0  0  0  0  0  0  0  0  0  0  0
    4.9841   -0.5413    0.1409 O   0  0  0  0  0  0  0  0  0  0  0  0
   -5.6746    1.0361    1.4008 O   0  0  0  0  0  0  0  0  0  0  0  0
    5.6766    1.0308   -1.4037 O   0  0  0  0  0  0  0  0  0  0  0  0
   -1.4372   -1.4957    0.1548 N   0  0  0  0  0  0  0  0  0  0  0  0
    1.4374   -1.4965   -0.1544 N   0  0  0  0  0  0  0  0  0  0  0  0
   -7.2217    0.1632   -0.2240 C   0  0  0  0  0  0  0  0  0  0  0  0
    7.2213    0.1641    0.2265 C   0  0  0  0  0  0  0  0  0  0  0  0
   -7.3429    1.1938   -1.3521 C   0  0  0  0  0  0  0  0  0  0  0  0
   -8.3587    0.4635    0.7539 C   0  0  0  0  0  0  0  0  0  0  0  0
    7.3409    1.1989    1.3510 C   0  0  0  0  0  0  0  0  0  0  0  0
    8.3597    0.4608   -0.7509 C   0  0  0  0  0  0  0  0  0  0  0  0
   -8.6039    1.9962   -1.0495 C   0  0  0  0  0  0  0  0  0  0  0  0
   -8.7489    1.9047    0.4588 C   0  0  0  0  0  0  0  0  0  0  0  0
    8.6023    2.0002    1.0472 C   0  0  0  0  0  0  0  0  0  0  0  0
    8.7495    1.9031   -0.4606 C   0  0  0  0  0  0  0  0  0  0  0  0
   -0.7164   -0.2912   -0.2750 C   0  0  0  0  0  0  0  0  0  0  0  0
   -0.7167   -2.7023   -0.2697 C   0  0  0  0  0  0  0  0  0  0  0  0
    0.7163   -0.2899    0.2692 C   0  0  0  0  0  0  0  0  0  0  0  0
    0.7164   -2.7016    0.2734 C   0  0  0  0  0  0  0  0  0  0  0  0
   -2.8030   -1.4966   -0.3652 C   0  0  0  0  0  0  0  0  0  0  0  0
    2.8026   -1.4954    0.3675 C   0  0  0  0  0  0  0  0  0  0  0  0
   -5.8924    0.2905    0.4555 C   0  0  0  0  0  0  0  0  0  0  0  0
    5.8930    0.2887   -0.4553 C   0  0  0  0  0  0  0  0  0  0  0  0
   -3.6733   -0.5205    0.4101 C   0  0  0  0  0  0  0  0  0  0  0  0
    3.6740   -0.5221   -0.4101 C   0  0  0  0  0  0  0  0  0  0  0  0
  1 23  1  0
  1 25  1  0
  2 24  1  0
  2 26  1  0
  3 23  2  0
  4 24  2  0
  5 17  1  0
  5 18  1  0
  5 21  1  0
  6 19  1  0
  6 20  1  0
  6 22  1  0
  7  9  1  0
  7 10  1  0
  7 23  1  0
  8 11  1  0
  8 12  1  0
  8 24  1  0
  9 13  1  0
 10 14  1  0
 11 15  1  0
 12 16  1  0
 13 14  1  0
 15 16  1  0
 17 19  1  0
 18 20  1  0
 21 25  1  0
 22 26  1  0
M  END
>  <PUBCHEM_COMPOUND_CID>  (1) 
48611

>  <PUBCHEM_CONFORMER_RMSD>  (1) 
1.2

>  <PUBCHEM_CONFORMER_DIVERSEORDER>  (1) 
2
31
42
9
32
11
30
7
41
38
13
39
28
20
1
10
5
8
3
21
6
35
25
40
37
4
17
23
22
34
36
14
15
33
26
18
29
19
27
24
12
16

>  <PUBCHEM_MMFF94_PARTIAL_CHARGES>  (1) 
18
1 -0.43
17 0.27
18 0.27
19 0.27
2 -0.43
20 0.27
21 0.27
22 0.27
23 0.66
24 0.66
25 0.28
26 0.28
3 -0.57
4 -0.57
5 -0.81
6 -0.81
7 0.06
8 0.06

>  <PUBCHEM_EFFECTIVE_ROTOR_COUNT>  (1) 
13.2

>  <PUBCHEM_PHARMACOPHORE_FEATURES>  (1) 
7
1 3 acceptor
1 4 acceptor
1 5 cation
1 6 cation
5 7 9 10 13 14 rings
5 8 11 12 15 16 rings
6 5 6 17 18 19 20 rings

>  <PUBCHEM_HEAVY_ATOM_COUNT>  (1) 
26

>  <PUBCHEM_ATOM_DEF_STEREO_COUNT>  (1) 
0

>  <PUBCHEM_ATOM_UDEF_STEREO_COUNT>  (1) 
0

>  <PUBCHEM_BOND_DEF_STEREO_COUNT>  (1) 
0

>  <PUBCHEM_BOND_UDEF_STEREO_COUNT>  (1) 
0

>  <PUBCHEM_ISOTOPIC_ATOM_COUNT>  (1) 
0

>  <PUBCHEM_COMPONENT_COUNT>  (1) 
1

>  <PUBCHEM_CACTVS_TAUTO_COUNT>  (1) 
1

>  <PUBCHEM_CONFORMER_ID>  (1) 
0000BDE300000002

>  <PUBCHEM_MMFF94_ENERGY>  (1) 
36.6761

>  <PUBCHEM_FEATURE_SELFOVERLAP>  (1) 
35.524

>  <PUBCHEM_SHAPE_FINGERPRINT>  (1) 
10 15 17894631439879209219
10533779 47 15213296374900649160
106641 1 17894917339236789339
11211813 74 18342740689524076158
11315181 36 18059859459570439587
11386260 185 15267050480585892146
11409948 35 18339365151249076934
11409948 41 15195024700367998188
11607047 141 18187636961704816850
11607047 74 9439102284069703482
11638347 137 14273452570520500048
11672396 167 8430015553376394377
12539745 222 12396289349499243279
12559415 43 18410564089547931477
12838862 33 18410562994330517445
13248334 5 18122345679307377954
13668630 136 10664102246377717762
14026016 60 15195020297678223692
14150023 24 18187079550961988163
14216079 64 8502377728734303696
14251920 17 18408601445673217909
14344974 52 17988920111549104687
14428016 86 18412267216174152386
15183329 4 15841556257933477498
15350500 55 18187078421991341141
15461852 350 17274818095418107447
155225 1 18411982451642766233
15690457 1 9007057954970656036
1577012 14 18410847772169149567
15840311 113 18260832562307962214
16991971 28 10375869688340324390
1754908 1 14923947863868704065
1754911 235 17632858624563640933
1768 4 18411989044860333449
18335252 114 17275103947182763816
2026 5 9295021162814349072
20505436 4 18410848863064917134
21095123 293 17967256416556708364
21150785 3 15698000729839252722
21867018 265 15841545310636658829
22224240 67 17894632556476170147
23524908 199 17845943940511316886
23576562 1 16773217630682910473
24771293 8 18333167272083347855
25242607 90 10665232578643096925
25269216 80 17131537441194966031
2851757 41 9295289473246889877
3178227 256 15285358436226374822
3711267 37 18341061756659773249
406291 66 9223231844953887130
4073 2 18334019372400437435
4403749 210 18335143124602118627
54039377 194 9655574119663780705
5470011 282 12607397810987678290
5758199 1 18410293609802893699
59682541 35 17894634768505101113
636775 72 18335138658025755005
636775 8 12103842384914620149
9953998 17 16081371873561137403
9962374 69 10737296765851684090

>  <PUBCHEM_SHAPE_MULTIPOLES>  (1) 
501.63
35.55
2.4
1.07
0
0.77
0
-32.24
-0.01
0
0
0
-0.48
0.79

>  <PUBCHEM_SHAPE_SELFOVERLAP>  (1) 
1018.973

>  <PUBCHEM_SHAPE_VOLUME>  (1) 
294

>  <PUBCHEM_COORDINATE_TYPE>  (1) 
2
5
10

$$$$
