48615
     RDKit          3D

 30 32  0  0  0  0  0  0  0  0999 V2000
    5.0589    0.0379    0.2564 O   0  0  0  0  0  0  0  0  0  0  0  0
   -4.9564   -0.2809   -0.0844 O   0  0  0  0  0  0  0  0  0  0  0  0
    5.6611    1.5958    1.8405 O   0  0  0  0  0  0  0  0  0  0  0  0
   -5.6462    1.1088   -1.7850 O   0  0  0  0  0  0  0  0  0  0  0  0
    1.5051   -0.9327    0.3444 N   0  0  0  0  0  0  0  0  0  0  0  0
   -1.3499   -1.0370   -0.0995 N   0  0  0  0  0  0  0  0  0  0  0  0
    0.7691    0.2327   -0.1611 C   0  0  0  0  0  0  0  0  0  0  0  0
    0.8424   -2.1761   -0.0678 C   0  0  0  0  0  0  0  0  0  0  0  0
   -0.6878    0.2065    0.3135 C   0  0  0  0  0  0  0  0  0  0  0  0
   -0.6143   -2.2017    0.4080 C   0  0  0  0  0  0  0  0  0  0  0  0
    2.8932   -0.9082   -0.1124 C   0  0  0  0  0  0  0  0  0  0  0  0
   -2.7385   -1.0616    0.3553 C   0  0  0  0  0  0  0  0  0  0  0  0
    3.7163    0.0592    0.7231 C   0  0  0  0  0  0  0  0  0  0  0  0
   -3.6158   -0.2144   -0.5526 C   0  0  0  0  0  0  0  0  0  0  0  0
    5.9312    0.8571    0.9063 C   0  0  0  0  0  0  0  0  0  0  0  0
   -5.8743    0.4304   -0.7956 C   0  0  0  0  0  0  0  0  0  0  0  0
    7.2927    0.7434    0.3253 C   0  0  0  0  0  0  0  0  0  0  0  0
   -7.2287    0.2796   -0.2061 C   0  0  0  0  0  0  0  0  0  0  0  0
    7.7091   -0.4581   -0.2482 C   0  0  0  0  0  0  0  0  0  0  0  0
   -8.3184    0.9304   -0.7845 C   0  0  0  0  0  0  0  0  0  0  0  0
    8.1556    1.8390    0.3529 C   0  0  0  0  0  0  0  0  0  0  0  0
   -7.4110   -0.5136    0.9267 C   0  0  0  0  0  0  0  0  0  0  0  0
    8.9883   -0.5637   -0.7943 C   0  0  0  0  0  0  0  0  0  0  0  0
   -9.5904    0.7877   -0.2302 C   0  0  0  0  0  0  0  0  0  0  0  0
    9.4348    1.7334   -0.1931 C   0  0  0  0  0  0  0  0  0  0  0  0
   -8.6829   -0.6563    1.4811 C   0  0  0  0  0  0  0  0  0  0  0  0
    9.8510    0.5320   -0.7667 C   0  0  0  0  0  0  0  0  0  0  0  0
   -9.7727   -0.0055    0.9025 C   0  0  0  0  0  0  0  0  0  0  0  0
    9.4345   -1.8483   -1.4069 C   0  0  0  0  0  0  0  0  0  0  0  0
  -10.7560    1.4841   -0.8479 C   0  0  0  0  0  0  0  0  0  0  0  0
  1 13  1  0
  1 15  1  0
  2 14  1  0
  2 16  1  0
  3 15  2  0
  4 16  2  0
  5  7  1  0
  5  8  1  0
  5 11  1  0
  6  9  1  0
  6 10  1  0
  6 12  1  0
  7  9  1  0
  8 10  1  0
 11 13  1  0
 12 14  1  0
 15 17  1  0
 16 18  1  0
 17 19  2  0
 17 21  1  0
 18 20  2  0
 18 22  1  0
 19 23  1  0
 20 24  1  0
 21 25  2  0
 22 26  2  0
 23 27  2  0
 23 29  1  0
 24 28  2  0
 24 30  1  0
 25 27  1  0
 26 28  1  0
M  END
>  <PUBCHEM_COMPOUND_CID>  (1) 
48615

>  <PUBCHEM_CONFORMER_RMSD>  (1) 
1.2

>  <PUBCHEM_CONFORMER_DIVERSEORDER>  (1) 
2
47
50
34
27
6
42
33
37
48
44
12
56
22
55
14
58
25
39
28
1
46
51
41
49
20
53
40
26
43
45
59
18
38
57
7
16
52
31
35
29
54
19
23
15
17
24
36
21
8
9
3
30
10
32
4
13
5
11

>  <PUBCHEM_MMFF94_PARTIAL_CHARGES>  (1) 
38
1 -0.43
10 0.27
11 0.27
12 0.27
13 0.28
14 0.28
15 0.63
16 0.63
17 0.09
18 0.09
19 -0.15
2 -0.43
20 -0.15
21 -0.15
22 -0.15
23 -0.14
24 -0.14
25 -0.15
26 -0.15
27 -0.15
28 -0.15
29 0.14
3 -0.57
30 0.14
4 -0.57
47 0.15
48 0.15
49 0.15
5 -0.81
50 0.15
51 0.15
52 0.15
53 0.15
54 0.15
6 -0.81
7 0.27
8 0.27
9 0.27

>  <PUBCHEM_EFFECTIVE_ROTOR_COUNT>  (1) 
11.2

>  <PUBCHEM_PHARMACOPHORE_FEATURES>  (1) 
7
1 3 acceptor
1 4 acceptor
1 5 cation
1 6 cation
6 17 19 21 23 25 27 rings
6 18 20 22 24 26 28 rings
6 5 6 7 8 9 10 rings

>  <PUBCHEM_HEAVY_ATOM_COUNT>  (1) 
30

>  <PUBCHEM_ATOM_DEF_STEREO_COUNT>  (1) 
0

>  <PUBCHEM_ATOM_UDEF_STEREO_COUNT>  (1) 
0

>  <PUBCHEM_BOND_DEF_STEREO_COUNT>  (1) 
0

>  <PUBCHEM_BOND_UDEF_STEREO_COUNT>  (1) 
0

>  <PUBCHEM_ISOTOPIC_ATOM_COUNT>  (1) 
0

>  <PUBCHEM_COMPONENT_COUNT>  (1) 
1

>  <PUBCHEM_CACTVS_TAUTO_COUNT>  (1) 
1

>  <PUBCHEM_CONFORMER_ID>  (1) 
0000BDE700000002

>  <PUBCHEM_MMFF94_ENERGY>  (1) 
72.367

>  <PUBCHEM_FEATURE_SELFOVERLAP>  (1) 
35.524

>  <PUBCHEM_SHAPE_FINGERPRINT>  (1) 
10 15 17967810548820632851
10162869 55 13695872549375748450
106641 1 16153426155672786627
11061554 47 18342167869784262664
11409948 35 18341897330400786526
11672396 167 8934699095749778289
11828042 53 13181364776747602875
11966995 178 18113338601265100250
12089408 11 15985104128042056017
12522641 33 17846781797271025367
12559415 86 18059587836194170997
12643181 29 11024103261866699997
14150022 121 15068890933246166527
14251764 18 15357695292800151578
14251764 46 18410013238526821671
14428016 86 18342460335096220115
14918687 75 13984670286902600193
15247644 1 11383834878661619124
15392192 104 16588023511335394698
15510794 2 18343306980778119599
155225 1 18408319986921477181
15530121 191 18334005095138160165
15706992 2 18113623390890946529
15840311 113 17676212403287523388
1754911 235 18060415824758773197
21095123 145 17748827445246404611
21362267 2 18340756135540850824
21362267 313 14707471548105622364
22164985 6 16200142188882290084
232437 2 17346880061716749239
23524908 199 17917714574672378574
2835820 33 17676774262414209907
3092352 35 16845570924998434167
3991529 128 17022906761738237060
44575985 240 11386378050596703902
58902169 19 16343413007525336064
59521099 67 14333120906455313522
59521270 166 13973691607554644617
6081469 158 18273215288261640888
6126387 218 10737280247782133183
6438161 24 10664100064724092786
67123 10 16515404070770571592
9953998 17 17749389274682600379
9962374 69 11963681053046551235

>  <PUBCHEM_SHAPE_MULTIPOLES>  (1) 
583.95
46.03
1.74
1.17
10.3
0.33
0.04
-16.44
-5.83
-2.22
-0.06
0.37
-0.15
3.31

>  <PUBCHEM_SHAPE_SELFOVERLAP>  (1) 
1221.486

>  <PUBCHEM_SHAPE_VOLUME>  (1) 
330.7

>  <PUBCHEM_COORDINATE_TYPE>  (1) 
2
5
10

$$$$
