48625
     RDKit          3D

 27 29  0  0  1  0  0  0  0  0999 V2000
    4.6035   -1.7964   -1.4324 O   0  0  0  0  0  0  0  0  0  0  0  0
   -0.9909    1.9487   -0.2252 N   0  0  0  0  0  0  0  0  0  0  0  0
    2.2639   -1.2220    0.2568 N   0  0  0  0  0  0  0  0  0  0  0  0
    0.0719    2.8236    0.4237 C   0  0  0  0  0  0  0  0  0  0  0  0
    0.9087    1.9982    1.4108 C   0  0  0  0  0  0  0  0  0  0  0  0
   -1.8544    1.3135    0.8551 C   0  0  0  0  0  0  0  0  0  0  0  0
    1.6183    0.8240    0.7566 C   0  0  0  0  0  0  0  0  0  0  0  0
   -1.8631    2.8010   -1.1358 C   0  0  0  0  0  0  0  0  0  0  0  0
   -0.3180    0.8566   -1.0441 C   0  0  0  0  0  0  0  0  0  0  0  0
    1.9175    2.9025    2.1285 C   0  0  0  0  0  0  0  0  0  0  0  0
    2.5557    0.9304   -0.2667 C   0  0  0  0  0  0  0  0  0  0  0  0
    1.4309   -0.4762    1.0851 C   0  0  0  0  0  0  0  0  0  0  0  0
   -2.9333    0.4301    0.3015 C   0  0  0  0  0  0  0  0  0  0  0  0
    2.9481   -0.3565   -0.5663 C   0  0  0  0  0  0  0  0  0  0  0  0
    3.0436    2.1669   -0.9146 C   0  0  0  0  0  0  0  0  0  0  0  0
    0.6278   -1.1882    2.0227 C   0  0  0  0  0  0  0  0  0  0  0  0
    2.3407   -2.6141    0.3085 C   0  0  0  0  0  0  0  0  0  0  0  0
   -2.6781   -0.9206    0.0919 C   0  0  0  0  0  0  0  0  0  0  0  0
   -4.1795    0.9703    0.0032 C   0  0  0  0  0  0  0  0  0  0  0  0
    3.9010   -0.7608   -1.5589 C   0  0  0  0  0  0  0  0  0  0  0  0
    0.7002   -2.5320    2.0750 C   0  0  0  0  0  0  0  0  0  0  0  0
    1.5817   -3.2803    1.1937 C   0  0  0  0  0  0  0  0  0  0  0  0
   -3.6814   -1.7415   -0.4228 C   0  0  0  0  0  0  0  0  0  0  0  0
   -5.1827    0.1492   -0.5116 C   0  0  0  0  0  0  0  0  0  0  0  0
   -4.9336   -1.2067   -0.7246 C   0  0  0  0  0  0  0  0  0  0  0  0
    4.1080    0.0651   -2.8364 C   0  0  0  0  0  0  0  0  0  0  0  0
   -6.0066   -2.0847   -1.2739 C   0  0  0  0  0  0  0  0  0  0  0  0
  1 20  2  0
  2  4  1  0
  2  6  1  0
  2  8  1  0
  2  9  1  0
  3 12  1  0
  3 14  1  0
  3 17  1  0
  4  5  1  0
  5  7  1  0
  5 10  1  0
  6 13  1  0
  7 11  1  0
  7 12  2  0
 11 14  2  0
 11 15  1  0
 12 16  1  0
 13 18  2  0
 13 19  1  0
 14 20  1  0
 16 21  2  0
 17 22  2  0
 18 23  1  0
 19 24  2  0
 20 26  1  0
 21 22  1  0
 23 25  2  0
 24 25  1  0
 25 27  1  0
M  CHG  1   2   1
M  END
>  <PUBCHEM_COMPOUND_CID>  (1) 
48625

>  <PUBCHEM_CONFORMER_RMSD>  (1) 
0.8

>  <PUBCHEM_CONFORMER_DIVERSEORDER>  (1) 
1
7
11
5
4
9
8
12
2
6
10
3

>  <PUBCHEM_MMFF94_PARTIAL_CHARGES>  (1) 
34
1 -0.57
11 -0.18
12 -0.2
13 -0.14
14 -0.24
15 0.18
16 -0.11
17 -0.18
18 -0.15
19 -0.15
2 -1.01
20 0.59
21 -0.15
22 -0.15
23 -0.15
24 -0.15
25 -0.14
26 0.06
27 0.14
3 0.33
4 0.5
45 0.15
46 0.15
47 0.15
48 0.15
49 0.15
5 0.18
50 0.15
51 0.15
52 0.15
6 0.65
7 -0.18
8 0.5
9 0.5

>  <PUBCHEM_EFFECTIVE_ROTOR_COUNT>  (1) 
6

>  <PUBCHEM_PHARMACOPHORE_FEATURES>  (1) 
7
1 1 acceptor
1 10 hydrophobe
1 2 cation
1 3 cation
5 3 7 11 12 14 rings
6 13 18 19 23 24 25 rings
6 3 12 16 17 21 22 rings

>  <PUBCHEM_HEAVY_ATOM_COUNT>  (1) 
27

>  <PUBCHEM_ATOM_DEF_STEREO_COUNT>  (1) 
0

>  <PUBCHEM_ATOM_UDEF_STEREO_COUNT>  (1) 
1

>  <PUBCHEM_BOND_DEF_STEREO_COUNT>  (1) 
0

>  <PUBCHEM_BOND_UDEF_STEREO_COUNT>  (1) 
0

>  <PUBCHEM_ISOTOPIC_ATOM_COUNT>  (1) 
0

>  <PUBCHEM_COMPONENT_COUNT>  (1) 
1

>  <PUBCHEM_CACTVS_TAUTO_COUNT>  (1) 
2

>  <PUBCHEM_CONFORMER_ID>  (1) 
0000BDF100000001

>  <PUBCHEM_MMFF94_ENERGY>  (1) 
109.3396

>  <PUBCHEM_FEATURE_SELFOVERLAP>  (1) 
35.622

>  <PUBCHEM_SHAPE_FINGERPRINT>  (1) 
10498660 4 17894915186825060667
114674 6 18267011933361217507
11578080 2 17897981591310852948
12553582 1 18335981991600845833
12596599 1 18130795550830326651
12788726 201 17910964534644016193
13383661 66 16413819010792526038
13533116 47 17916582197970326411
13692114 37 17192051463614522000
14787075 74 18341335565441198032
14931854 50 18334301941670207534
15001296 14 17914035763274257031
15210252 30 17603585261561827605
15537594 2 18337402547844687795
15664445 248 18189045550961924941
17138139 8 18409455760810583262
17492 54 17386582365485572260
17909252 39 18129667375018760222
17980427 23 15576086863762581612
19319366 153 18114181912744583915
20691752 17 18113903783705048121
20715895 44 10087657974771397779
20775438 99 17911219926274159047
22393880 68 18410284822832133917
23559900 14 17846493725872860985
238 59 18186526505096961322
239999 70 18129654339391453713
2818148 4 18268713796977844843
2838139 119 14707493654207349950
2871803 45 18334857225164507469
404807 78 16952824019401990675
463206 1 18408042896895457395
57527585 21 16807606930941784965
58260988 114 14330076216870878838
6786 2 15620561245753742064
6823239 73 18130782360964654891
70251023 43 18343023289624281195
8509985 295 12679470789329415119
960060 61 18187075149178762791

>  <PUBCHEM_SHAPE_MULTIPOLES>  (1) 
539.82
9.58
3.67
2.03
12.11
0.08
-0.16
4.44
-6.49
-1.17
1.25
-2.28
0.18
-0.23

>  <PUBCHEM_SHAPE_SELFOVERLAP>  (1) 
1156.678

>  <PUBCHEM_SHAPE_VOLUME>  (1) 
301.4

>  <PUBCHEM_COORDINATE_TYPE>  (1) 
2
5
10

$$$$
