4865
     RDKit          3D

 30 34  0  0  1  0  0  0  0  0999 V2000
   -2.0553   -3.7021   -1.2879 O   0  0  0  0  0  0  0  0  0  0  0  0
   -3.8037   -1.5326    1.9683 O   0  0  0  0  0  0  0  0  0  0  0  0
    0.2006   -3.8160   -1.6792 O   0  0  0  0  0  0  0  0  0  0  0  0
   -2.3573    3.6026   -1.3150 O   0  0  0  0  0  0  0  0  0  0  0  0
   -3.9837    3.3373    0.4417 O   0  0  0  0  0  0  0  0  0  0  0  0
    3.0625    0.4130    2.5613 O   0  0  0  0  0  0  0  0  0  0  0  0
    4.1039    0.2612   -2.1109 O   0  0  0  0  0  0  0  0  0  0  0  0
    4.8854    0.7432    0.5022 O   0  0  0  0  0  0  0  0  0  0  0  0
   -2.0097   -2.4840    0.6961 C   0  0  0  0  0  0  0  0  0  0  0  0
   -0.6678   -2.2989    0.0151 C   0  0  0  0  0  0  0  0  0  0  0  0
   -0.4183   -0.9110   -0.6263 C   0  0  0  0  0  0  0  0  0  0  0  0
   -2.4805   -1.2788    1.4997 C   0  0  0  0  0  0  0  0  0  0  0  0
   -1.4366    0.1764   -0.2976 C   0  0  0  0  0  0  0  0  0  0  0  0
   -2.9103   -2.9248   -0.4420 C   0  0  0  0  0  0  0  0  0  0  0  0
   -2.4181    0.0085    0.7127 C   0  0  0  0  0  0  0  0  0  0  0  0
   -0.7502   -3.3564   -1.0644 C   0  0  0  0  0  0  0  0  0  0  0  0
    1.0113   -0.4660   -0.3220 C   0  0  0  0  0  0  0  0  0  0  0  0
   -1.3866    1.3823   -1.0287 C   0  0  0  0  0  0  0  0  0  0  0  0
   -3.2969    1.0666    1.0151 C   0  0  0  0  0  0  0  0  0  0  0  0
   -2.2800    2.3838   -0.7158 C   0  0  0  0  0  0  0  0  0  0  0  0
   -3.2066    2.2317    0.2829 C   0  0  0  0  0  0  0  0  0  0  0  0
    1.9150   -0.3038   -1.3641 C   0  0  0  0  0  0  0  0  0  0  0  0
    1.3898   -0.2276    0.9928 C   0  0  0  0  0  0  0  0  0  0  0  0
    2.6947    0.1796    1.2705 C   0  0  0  0  0  0  0  0  0  0  0  0
    3.2200    0.1034   -1.0864 C   0  0  0  0  0  0  0  0  0  0  0  0
    3.6098    0.3450    0.2309 C   0  0  0  0  0  0  0  0  0  0  0  0
   -3.4398    4.2032   -0.5752 C   0  0  0  0  0  0  0  0  0  0  0  0
    3.5918   -0.6902    3.2940 C   0  0  0  0  0  0  0  0  0  0  0  0
    4.1706    1.5508   -2.7165 C   0  0  0  0  0  0  0  0  0  0  0  0
    5.0459    2.0038    1.1484 C   0  0  0  0  0  0  0  0  0  0  0  0
  1 14  1  0
  1 16  1  0
  2 12  1  0
  3 16  2  0
  4 20  1  0
  4 27  1  0
  5 21  1  0
  5 27  1  0
  6 24  1  0
  6 28  1  0
  7 25  1  0
  7 29  1  0
  8 26  1  0
  8 30  1  0
  9 10  1  0
  9 12  1  0
  9 14  1  0
 10 11  1  0
 10 16  1  0
 11 13  1  0
 11 17  1  0
 12 15  1  0
 13 15  2  0
 13 18  1  0
 15 19  1  0
 17 22  2  0
 17 23  1  0
 18 20  2  0
 19 21  2  0
 20 21  1  0
 22 25  1  0
 23 24  2  0
 24 26  1  0
 25 26  2  0
M  END
>  <PUBCHEM_COMPOUND_CID>  (1) 
4865

>  <PUBCHEM_CONFORMER_RMSD>  (1) 
0.8

>  <PUBCHEM_CONFORMER_DIVERSEORDER>  (1) 
1
50
28
25
39
36
13
43
37
31
48
29
42
41
46
9
52
18
6
47
4
8
24
51
11
38
15
45
35
32
44
23
10
19
34
27
21
30
16
33
49
26
12
17
20
3
2
22
14
5
40
7

>  <PUBCHEM_MMFF94_PARTIAL_CHARGES>  (1) 
34
1 -0.43
10 0.06
11 0.29
12 0.42
13 -0.14
14 0.28
15 -0.14
16 0.66
17 -0.14
18 -0.15
19 -0.15
2 -0.68
20 0.08
21 0.08
22 -0.15
23 -0.15
24 0.08
25 0.08
26 0.08
27 0.56
28 0.28
29 0.28
3 -0.57
30 0.28
37 0.15
38 0.15
39 0.4
4 -0.36
40 0.15
41 0.15
5 -0.36
6 -0.36
7 -0.36
8 -0.36

>  <PUBCHEM_EFFECTIVE_ROTOR_COUNT>  (1) 
5.4

>  <PUBCHEM_PHARMACOPHORE_FEATURES>  (1) 
13
1 2 acceptor
1 2 donor
1 3 acceptor
1 4 acceptor
1 5 acceptor
1 6 acceptor
1 7 acceptor
1 8 acceptor
5 1 9 10 14 16 rings
5 4 5 20 21 27 rings
6 13 15 18 19 20 21 rings
6 17 22 23 24 25 26 rings
6 9 10 11 12 13 15 rings

>  <PUBCHEM_HEAVY_ATOM_COUNT>  (1) 
30

>  <PUBCHEM_ATOM_DEF_STEREO_COUNT>  (1) 
0

>  <PUBCHEM_ATOM_UDEF_STEREO_COUNT>  (1) 
4

>  <PUBCHEM_BOND_DEF_STEREO_COUNT>  (1) 
0

>  <PUBCHEM_BOND_UDEF_STEREO_COUNT>  (1) 
0

>  <PUBCHEM_ISOTOPIC_ATOM_COUNT>  (1) 
0

>  <PUBCHEM_COMPONENT_COUNT>  (1) 
1

>  <PUBCHEM_CACTVS_TAUTO_COUNT>  (1) 
2

>  <PUBCHEM_CONFORMER_ID>  (1) 
0000130100000001

>  <PUBCHEM_MMFF94_ENERGY>  (1) 
116.6364

>  <PUBCHEM_FEATURE_SELFOVERLAP>  (1) 
66.366

>  <PUBCHEM_SHAPE_FINGERPRINT>  (1) 
10165383 225 17913242851590437787
10721379 63 16754075360908694431
10906281 52 18116172012639110953
11578080 2 18059868298175602776
11582403 64 16409793724455195138
11595378 159 18262511615088861226
11763715 3 17974553999578372474
12160290 23 18334284379838590445
12553582 1 18047200918526257271
12788726 201 18188496907412158335
13004483 165 18051388950127370219
13583140 156 17629167624939396602
13617811 41 18123477338748728951
13681431 1 17260448792365665167
13726171 33 18265360381182626896
13965767 371 17896593986636295812
14910302 57 17916039017324426126
14955137 171 17615159962380875499
15230672 131 18265341604308126846
15842332 3 17894342289906561050
15961568 22 17620468447596266000
16988056 13 16895950242076094084
17974551 9 17532366457256089880
1813 80 17836649991073854239
20600515 1 17695606834312382607
21033648 29 18202275875525900400
21304303 282 17552303966285686183
22149856 69 17977680706576463065
22907989 373 18335137639553309015
23559900 14 17545601154719828709
23598288 3 18113340833693273343
238 59 17629481891437277087
392239 28 16664904800191726528
469060 322 18195249043032043011
4938544 92 17982975030655411818
495365 180 17909541758255126101
5252454 2 18128556906490990827
5265222 85 18267328533319525366
57527573 199 15151338649946510964
7097593 13 17241038782951155968
7808743 9 18335435559939346348
81228 2 18054788648422721519
90316 7 18195232550098773587
9849439 229 18195236720517916281
9862522 239 18409172082415176015
9981440 41 18197479754376261929

>  <PUBCHEM_SHAPE_MULTIPOLES>  (1) 
570.43
8.72
4.64
2.35
8.16
0.35
0.72
5.91
1.92
-7.04
-2.1
3.06
-0.37
-0.13

>  <PUBCHEM_SHAPE_SELFOVERLAP>  (1) 
1269.487

>  <PUBCHEM_SHAPE_VOLUME>  (1) 
304.8

>  <PUBCHEM_COORDINATE_TYPE>  (1) 
2
5
10

$$$$
