48655
     RDKit          3D

 13 13  0  0  0  0  0  0  0  0999 V2000
    2.4033   -1.6923    0.0000 O   0  0  0  0  0  0  0  0  0  0  0  0
    1.2809    2.9477    0.0010 O   0  0  0  0  0  0  0  0  0  0  0  0
   -2.2588   -0.3643    0.0000 N   0  0  0  0  0  0  0  0  0  0  0  0
   -0.7710   -0.0044   -0.0002 C   0  0  0  0  0  0  0  0  0  0  0  0
   -2.9055    0.2225   -1.2514 C   0  0  0  0  0  0  0  0  0  0  0  0
   -2.9015    0.2052    1.2615 C   0  0  0  0  0  0  0  0  0  0  0  0
   -2.4876   -1.8743   -0.0096 C   0  0  0  0  0  0  0  0  0  0  0  0
    0.1088   -1.0344   -0.0001 C   0  0  0  0  0  0  0  0  0  0  0  0
   -0.4592    1.3138   -0.0003 C   0  0  0  0  0  0  0  0  0  0  0  0
    1.4645   -0.7065    0.0000 C   0  0  0  0  0  0  0  0  0  0  0  0
    0.8965    1.6417   -0.0005 C   0  0  0  0  0  0  0  0  0  0  0  0
    1.8584    0.6316   -0.0003 C   0  0  0  0  0  0  0  0  0  0  0  0
    3.7710   -1.2862   -0.0001 C   0  0  0  0  0  0  0  0  0  0  0  0
  1 10  1  0
  1 13  1  0
  2 11  1  0
  3  4  1  0
  3  5  1  0
  3  6  1  0
  3  7  1  0
  4  8  2  0
  4  9  1  0
  8 10  1  0
  9 11  2  0
 10 12  2  0
 11 12  1  0
M  CHG  1   3   1
M  END
>  <PUBCHEM_COMPOUND_CID>  (1) 
48655

>  <PUBCHEM_CONFORMER_RMSD>  (1) 
0.6

>  <PUBCHEM_CONFORMER_DIVERSEORDER>  (1) 
2
3
1
4

>  <PUBCHEM_MMFF94_PARTIAL_CHARGES>  (1) 
17
1 -0.36
10 0.08
11 0.08
12 -0.15
13 0.28
2 -0.53
23 0.15
24 0.15
25 0.15
26 0.45
3 -0.87
4 0.36
5 0.5
6 0.5
7 0.5
8 -0.15
9 -0.15

>  <PUBCHEM_EFFECTIVE_ROTOR_COUNT>  (1) 
2

>  <PUBCHEM_PHARMACOPHORE_FEATURES>  (1) 
4
1 1 acceptor
1 2 donor
1 3 cation
6 4 8 9 10 11 12 rings

>  <PUBCHEM_HEAVY_ATOM_COUNT>  (1) 
13

>  <PUBCHEM_ATOM_DEF_STEREO_COUNT>  (1) 
0

>  <PUBCHEM_ATOM_UDEF_STEREO_COUNT>  (1) 
0

>  <PUBCHEM_BOND_DEF_STEREO_COUNT>  (1) 
0

>  <PUBCHEM_BOND_UDEF_STEREO_COUNT>  (1) 
0

>  <PUBCHEM_ISOTOPIC_ATOM_COUNT>  (1) 
0

>  <PUBCHEM_COMPONENT_COUNT>  (1) 
1

>  <PUBCHEM_CACTVS_TAUTO_COUNT>  (1) 
3

>  <PUBCHEM_CONFORMER_ID>  (1) 
0000BE0F00000002

>  <PUBCHEM_MMFF94_ENERGY>  (1) 
62.3137

>  <PUBCHEM_FEATURE_SELFOVERLAP>  (1) 
20.297

>  <PUBCHEM_SHAPE_FINGERPRINT>  (1) 
1 1 18050286174123872268
10130415 120 18334575694242510658
12032990 46 18410860919485658918
12251169 10 18342750602182196331
12932764 1 17676481761549360227
14128692 85 18411984663081269350
14648413 74 18335133249954547249
14911166 2 18263632996737574599
15375462 189 18187089412232831826
16945 1 18410575110459444837
17844478 74 17677064502885985841
17990270 104 18336823207652512658
193761 8 17906452478399820294
20201158 50 18336541625307173655
20645477 70 18265322001459838815
20653091 64 18341335599125287554
207724 885 18341056228877834683
20871998 184 17983858874252053452
20871998 22 18198916824590106158
21061003 4 18336835203517204459
21130352 189 18409441466715940181
21501502 16 18267311004845404131
21524375 3 17614278196883616464
22213442 358 18411135844536867054
23402539 116 18127115390696084886
23552423 10 18266743665245281383
2748010 2 18264485255371536543
3071541 12 18339367490797912192
3071541 158 18259983777743048604
5493415 88 18409163333361091802
63268167 104 18410856602721480881
7364860 26 18269836587322940680
74978 22 18411418431957372231
8030462 33 17845091942804553497
81228 2 17978794502278001744

>  <PUBCHEM_SHAPE_MULTIPOLES>  (1) 
250.81
5
2.24
0.85
0.67
1.05
0
-2.29
0
1.11
0
-0.75
0.05
0

>  <PUBCHEM_SHAPE_SELFOVERLAP>  (1) 
511.983

>  <PUBCHEM_SHAPE_VOLUME>  (1) 
149.1

>  <PUBCHEM_COORDINATE_TYPE>  (1) 
2
5
10

$$$$
