48668
     RDKit          3D

 20 20  0  0  0  0  0  0  0  0999 V2000
   -1.3912   -0.2766    0.6395 O   0  0  0  0  0  0  0  0  0  0  0  0
   -2.5515   -0.8900   -1.2660 O   0  0  0  0  0  0  0  0  0  0  0  0
    1.7451    1.1346   -0.0517 N   0  0  0  0  0  0  0  0  0  0  0  0
    1.5243   -2.0631   -0.6457 N   0  0  0  0  0  0  0  0  0  0  0  0
   -3.3271    0.9070   -0.0095 N   0  0  0  0  0  0  0  0  0  0  0  0
    0.9096    0.2488   -0.9647 C   0  0  0  0  0  0  0  0  0  0  0  0
    1.9885    2.4753   -0.7295 C   0  0  0  0  0  0  0  0  0  0  0  0
    1.0029    1.3557    1.2584 C   0  0  0  0  0  0  0  0  0  0  0  0
    3.0794    0.4587    0.2289 C   0  0  0  0  0  0  0  0  0  0  0  0
    0.6210   -1.0992   -0.3725 C   0  0  0  0  0  0  0  0  0  0  0  0
    0.6589    3.1426   -1.0059 C   0  0  0  0  0  0  0  0  0  0  0  0
    1.8379    2.2367    2.1617 C   0  0  0  0  0  0  0  0  0  0  0  0
    3.8124    0.2417   -1.0769 C   0  0  0  0  0  0  0  0  0  0  0  0
   -0.5135   -1.2830    0.3954 C   0  0  0  0  0  0  0  0  0  0  0  0
   -0.7380   -2.5500    0.9226 C   0  0  0  0  0  0  0  0  0  0  0  0
    1.2728   -3.2815   -0.1163 C   0  0  0  0  0  0  0  0  0  0  0  0
    0.1674   -3.5738    0.6665 C   0  0  0  0  0  0  0  0  0  0  0  0
   -2.4446   -0.1405   -0.2959 C   0  0  0  0  0  0  0  0  0  0  0  0
   -3.1934    1.7881    1.1460 C   0  0  0  0  0  0  0  0  0  0  0  0
   -4.4609    1.1686   -0.8846 C   0  0  0  0  0  0  0  0  0  0  0  0
  1 14  1  0
  1 18  1  0
  2 18  2  0
  3  6  1  0
  3  7  1  0
  3  8  1  0
  3  9  1  0
  4 10  2  0
  4 16  1  0
  5 18  1  0
  5 19  1  0
  5 20  1  0
  6 10  1  0
  7 11  1  0
  8 12  1  0
  9 13  1  0
 10 14  1  0
 14 15  2  0
 15 17  1  0
 16 17  2  0
M  CHG  1   3   1
M  END
>  <PUBCHEM_COMPOUND_CID>  (1) 
48668

>  <PUBCHEM_CONFORMER_RMSD>  (1) 
0.8

>  <PUBCHEM_CONFORMER_DIVERSEORDER>  (1) 
1
4
35
28
2
36
7
34
32
23
26
12
6
21
14
24
13
17
33
11
15
20
25
30
31
27
19
18
8
9
29
3
22
5
10
16

>  <PUBCHEM_MMFF94_PARTIAL_CHARGES>  (1) 
20
1 -0.23
10 0.17
14 0.08
15 -0.15
16 0.16
17 -0.15
18 0.78
19 0.3
2 -0.57
20 0.3
3 -1.01
38 0.15
39 0.15
4 -0.62
40 0.15
5 -0.66
6 0.65
7 0.5
8 0.5
9 0.5

>  <PUBCHEM_EFFECTIVE_ROTOR_COUNT>  (1) 
8

>  <PUBCHEM_PHARMACOPHORE_FEATURES>  (1) 
4
1 2 acceptor
1 3 cation
1 4 acceptor
6 4 10 14 15 16 17 rings

>  <PUBCHEM_HEAVY_ATOM_COUNT>  (1) 
20

>  <PUBCHEM_ATOM_DEF_STEREO_COUNT>  (1) 
0

>  <PUBCHEM_ATOM_UDEF_STEREO_COUNT>  (1) 
0

>  <PUBCHEM_BOND_DEF_STEREO_COUNT>  (1) 
0

>  <PUBCHEM_BOND_UDEF_STEREO_COUNT>  (1) 
0

>  <PUBCHEM_ISOTOPIC_ATOM_COUNT>  (1) 
0

>  <PUBCHEM_COMPONENT_COUNT>  (1) 
1

>  <PUBCHEM_CACTVS_TAUTO_COUNT>  (1) 
1

>  <PUBCHEM_CONFORMER_ID>  (1) 
0000BE1C00000001

>  <PUBCHEM_MMFF94_ENERGY>  (1) 
76.4871

>  <PUBCHEM_FEATURE_SELFOVERLAP>  (1) 
20.297

>  <PUBCHEM_SHAPE_FINGERPRINT>  (1) 
10165383 225 17831061049042001841
10382601 240 18049743831228293593
104564 63 17112700289537613575
11578080 2 12622976691998790743
12788726 201 17322943916322630155
13132413 78 17980200781612318700
13294875 104 18271228470248888642
13464514 151 18341060600911929214
14251745 187 18412545405437558628
14251751 93 17398961956087790548
15490181 8 18337391672407453415
16945 1 18335996358192727542
18219364 16 18262535744288989401
18981168 100 17691404530961875132
19049666 15 18055922240937049786
19868273 325 16608857388144043894
20510252 161 17977671140665130539
20511035 2 18055915648157099076
20905425 154 18053942849055108180
21524375 3 18341895220764033903
22112679 90 17413317862435116131
22907989 373 17831594436440152431
23419403 2 17120812567900075530
23557571 272 17404293491780053216
23558518 356 18122893497989729990
23598291 2 18057039100001154895
25 1 18411145701212446327
2748010 2 17981051022228947230
3060560 45 18410003334390272757
3084891 72 18410014317006692268
3084891 8 18190181174800767596
350125 39 18120392079050753299
352729 6 18120937475520516439
474 4 18408321082074697757
5895379 119 16197620845537650897
7364860 26 18269827619494731459
7471813 234 17837753544444807567
74978 22 18117841233802175244
81228 2 17474105878832083099
84936 182 18271520910145204697
9981440 41 16910564341121280432

>  <PUBCHEM_SHAPE_MULTIPOLES>  (1) 
384.91
5.46
4.13
1.42
4.37
2.32
0.48
-3.38
-1.29
-1.22
0.53
-0.29
-0.8
0.26

>  <PUBCHEM_SHAPE_SELFOVERLAP>  (1) 
771.388

>  <PUBCHEM_SHAPE_VOLUME>  (1) 
227.4

>  <PUBCHEM_COORDINATE_TYPE>  (1) 
2
5
10

$$$$
