48664
     RDKit          3D

 24 25  0  0  0  0  0  0  0  0999 V2000
   -0.3602   -1.4328    0.8173 O   0  0  0  0  0  0  0  0  0  0  0  0
   -0.0435   -1.7220   -1.4566 O   0  0  0  0  0  0  0  0  0  0  0  0
   -4.6582    0.5786   -0.1335 N   0  0  0  0  0  0  0  0  0  0  0  0
    0.9025    1.0650    0.6428 N   0  0  0  0  0  0  0  0  0  0  0  0
    0.9004   -3.2546    0.0165 N   0  0  0  0  0  0  0  0  0  0  0  0
    1.4990    0.9360   -0.4515 N   0  0  0  0  0  0  0  0  0  0  0  0
   -3.1478    0.7068    0.0787 C   0  0  0  0  0  0  0  0  0  0  0  0
   -4.9999    1.0699   -1.5373 C   0  0  0  0  0  0  0  0  0  0  0  0
   -5.3752    1.4138    0.9236 C   0  0  0  0  0  0  0  0  0  0  0  0
   -5.1390   -0.8653   -0.0045 C   0  0  0  0  0  0  0  0  0  0  0  0
   -2.4679   -0.4331    0.3495 C   0  0  0  0  0  0  0  0  0  0  0  0
   -2.6179    1.9493   -0.0230 C   0  0  0  0  0  0  0  0  0  0  0  0
   -1.0912   -0.3162    0.5421 C   0  0  0  0  0  0  0  0  0  0  0  0
   -1.2415    2.0662    0.1695 C   0  0  0  0  0  0  0  0  0  0  0  0
   -0.4781    0.9335    0.4518 C   0  0  0  0  0  0  0  0  0  0  0  0
    0.1565   -2.1146   -0.3076 C   0  0  0  0  0  0  0  0  0  0  0  0
    2.8851    1.0683   -0.2603 C   0  0  0  0  0  0  0  0  0  0  0  0
    1.4975   -4.0626   -1.0372 C   0  0  0  0  0  0  0  0  0  0  0  0
    1.1348   -3.7097    1.3830 C   0  0  0  0  0  0  0  0  0  0  0  0
    3.6534   -0.0571    0.0216 C   0  0  0  0  0  0  0  0  0  0  0  0
    3.4788    2.3232   -0.3537 C   0  0  0  0  0  0  0  0  0  0  0  0
    5.0289    0.0738    0.2122 C   0  0  0  0  0  0  0  0  0  0  0  0
    4.8543    2.4541   -0.1633 C   0  0  0  0  0  0  0  0  0  0  0  0
    5.6293    1.3293    0.1198 C   0  0  0  0  0  0  0  0  0  0  0  0
  1 13  1  0
  1 16  1  0
  2 16  2  0
  3  7  1  0
  3  8  1  0
  3  9  1  0
  3 10  1  0
  4  6  2  0
  4 15  1  0
  5 16  1  0
  5 18  1  0
  5 19  1  0
  6 17  1  0
  7 11  2  0
  7 12  1  0
 11 13  1  0
 12 14  2  0
 13 15  2  0
 14 15  1  0
 17 20  2  0
 17 21  1  0
 20 22  1  0
 21 23  2  0
 22 24  2  0
 23 24  1  0
M  CHG  1   3   1
M  END
>  <PUBCHEM_COMPOUND_CID>  (1) 
48664

>  <PUBCHEM_CONFORMER_RMSD>  (1) 
0.8

>  <PUBCHEM_CONFORMER_DIVERSEORDER>  (1) 
1
15
6
8
20
11
17
23
26
22
13
10
5
18
4
21
24
14
25
9
7
16
2
12
19
3

>  <PUBCHEM_MMFF94_PARTIAL_CHARGES>  (1) 
32
1 -0.23
10 0.5
11 -0.15
12 -0.15
13 0.08
14 -0.15
15 0.18
16 0.78
17 0.18
18 0.3
19 0.3
2 -0.57
20 -0.15
21 -0.15
22 -0.15
23 -0.15
24 -0.15
3 -0.87
34 0.15
35 0.15
36 0.15
4 -0.18
43 0.15
44 0.15
45 0.15
46 0.15
47 0.15
5 -0.66
6 -0.18
7 0.36
8 0.5
9 0.5

>  <PUBCHEM_EFFECTIVE_ROTOR_COUNT>  (1) 
6

>  <PUBCHEM_PHARMACOPHORE_FEATURES>  (1) 
4
1 2 acceptor
1 3 cation
6 17 20 21 22 23 24 rings
6 7 11 12 13 14 15 rings

>  <PUBCHEM_HEAVY_ATOM_COUNT>  (1) 
24

>  <PUBCHEM_ATOM_DEF_STEREO_COUNT>  (1) 
0

>  <PUBCHEM_ATOM_UDEF_STEREO_COUNT>  (1) 
0

>  <PUBCHEM_BOND_DEF_STEREO_COUNT>  (1) 
0

>  <PUBCHEM_BOND_UDEF_STEREO_COUNT>  (1) 
0

>  <PUBCHEM_ISOTOPIC_ATOM_COUNT>  (1) 
0

>  <PUBCHEM_COMPONENT_COUNT>  (1) 
1

>  <PUBCHEM_CACTVS_TAUTO_COUNT>  (1) 
1

>  <PUBCHEM_CONFORMER_ID>  (1) 
0000BE1800000001

>  <PUBCHEM_MMFF94_ENERGY>  (1) 
90.4479

>  <PUBCHEM_FEATURE_SELFOVERLAP>  (1) 
20.297

>  <PUBCHEM_SHAPE_FINGERPRINT>  (1) 
10050765 1 18194121807838582049
10090160 65 18409445882042527797
107951 10 17676769867924051514
11370993 70 18410575102465557244
11963148 33 18263354949604845419
12236239 1 17822005436900414096
12592029 89 18409732820302061322
12788726 201 17832413581573029682
12969540 114 18337092570980055237
13140716 1 18267875063259428625
13257819 101 17241306024390254989
133893 2 18125176934706363914
13533116 47 17918276420771562540
13540713 5 17986106306685853169
138480 1 17834397822341244322
14790565 3 18340492252401388505
167882 2 18338237059732032446
19591789 44 18195526115608642083
20197701 30 18408599292549098862
20554085 129 18058993052233017040
20567600 347 18335144176319842818
21033650 10 17201113394218271472
21054139 6 18270671073909792215
21421861 104 18123480384085698417
21521721 280 18200037381795094257
21859007 373 17823672236720795364
23366157 5 18044664096118865379
23402539 116 18342453776765912621
23419403 2 17389083560917886230
23559900 14 18121777223442383211
23598288 3 17608949907832305250
23728640 28 18267304420987743146
249057 3 18336830883941141380
25147074 1 17986668165696475857
266924 87 18338513015565329373
3178227 256 18267597969291323721
3298306 158 18410292497590571030
3411729 13 18341057302883370177
3759504 43 18261955274905563090
38695281 34 18343019986736635719
4017518 198 18202848752145963590
4280585 95 17546442280830649854
474229 33 18410856594179044933
5312544 6 18408317783386989474
532947 4 18268436737570542134
59755656 215 18188771634821082925
6138700 20 18338521816507005398
6669772 16 18273220789946124590
69090 78 18410292544983274608
81539 233 18408040688981437255
9981440 41 18334579057328537051

>  <PUBCHEM_SHAPE_MULTIPOLES>  (1) 
462.25
11.43
3.98
1.03
1.28
5.19
-0.14
-8.4
-0.56
-3.04
-0.17
0.54
0.46
-0.09

>  <PUBCHEM_SHAPE_SELFOVERLAP>  (1) 
970.374

>  <PUBCHEM_SHAPE_VOLUME>  (1) 
263.4

>  <PUBCHEM_COORDINATE_TYPE>  (1) 
2
5
10

$$$$
