48661
     RDKit          3D

 21 22  0  0  0  0  0  0  0  0999 V2000
    1.7669    0.4779    0.6501 O   0  0  0  0  0  0  0  0  0  0  0  0
    2.1074    1.6423   -1.3203 O   0  0  0  0  0  0  0  0  0  0  0  0
    0.1425   -2.5083    0.1833 N   0  0  0  0  0  0  0  0  0  0  0  0
    3.9345    0.6814   -0.2489 N   0  0  0  0  0  0  0  0  0  0  0  0
    0.1497   -1.3444   -0.7404 C   0  0  0  0  0  0  0  0  0  0  0  0
   -0.4278   -0.1035   -0.1277 C   0  0  0  0  0  0  0  0  0  0  0  0
    0.7436   -3.7454   -0.4965 C   0  0  0  0  0  0  0  0  0  0  0  0
    0.9653   -2.2070    1.4429 C   0  0  0  0  0  0  0  0  0  0  0  0
   -1.2892   -2.8490    0.6172 C   0  0  0  0  0  0  0  0  0  0  0  0
   -1.7976    0.1899   -0.2288 C   0  0  0  0  0  0  0  0  0  0  0  0
    0.4368    0.7572    0.5489 C   0  0  0  0  0  0  0  0  0  0  0  0
   -2.2974    1.3731    0.3653 C   0  0  0  0  0  0  0  0  0  0  0  0
   -0.0549    1.9206    1.1334 C   0  0  0  0  0  0  0  0  0  0  0  0
   -2.6820   -0.6652   -0.9061 C   0  0  0  0  0  0  0  0  0  0  0  0
   -1.4128    2.2278    1.0430 C   0  0  0  0  0  0  0  0  0  0  0  0
   -3.6671    1.6665    0.2643 C   0  0  0  0  0  0  0  0  0  0  0  0
   -4.0398   -0.3579   -0.9970 C   0  0  0  0  0  0  0  0  0  0  0  0
   -4.5314    0.8057   -0.4130 C   0  0  0  0  0  0  0  0  0  0  0  0
    2.5767    0.9893   -0.3889 C   0  0  0  0  0  0  0  0  0  0  0  0
    4.8950    1.1400   -1.2424 C   0  0  0  0  0  0  0  0  0  0  0  0
    4.4815   -0.0910    0.8618 C   0  0  0  0  0  0  0  0  0  0  0  0
  1 11  1  0
  1 19  1  0
  2 19  2  0
  3  5  1  0
  3  7  1  0
  3  8  1  0
  3  9  1  0
  4 19  1  0
  4 20  1  0
  4 21  1  0
  5  6  1  0
  6 10  2  0
  6 11  1  0
 10 12  1  0
 10 14  1  0
 11 13  2  0
 12 15  2  0
 12 16  1  0
 13 15  1  0
 14 17  2  0
 16 18  2  0
 17 18  1  0
M  CHG  1   3   1
M  END
>  <PUBCHEM_COMPOUND_CID>  (1) 
48661

>  <PUBCHEM_CONFORMER_RMSD>  (1) 
0.8

>  <PUBCHEM_CONFORMER_DIVERSEORDER>  (1) 
1
7
2
5
8
9
6
4
3

>  <PUBCHEM_MMFF94_PARTIAL_CHARGES>  (1) 
25
1 -0.23
11 0.08
13 -0.15
14 -0.15
15 -0.15
16 -0.15
17 -0.15
18 -0.15
19 0.78
2 -0.57
20 0.3
21 0.3
3 -1.01
33 0.15
34 0.15
35 0.15
36 0.15
37 0.15
38 0.15
4 -0.66
5 0.65
6 -0.14
7 0.5
8 0.5
9 0.5

>  <PUBCHEM_EFFECTIVE_ROTOR_COUNT>  (1) 
5

>  <PUBCHEM_PHARMACOPHORE_FEATURES>  (1) 
4
1 2 acceptor
1 3 cation
6 10 12 14 16 17 18 rings
6 6 10 11 12 13 15 rings

>  <PUBCHEM_HEAVY_ATOM_COUNT>  (1) 
21

>  <PUBCHEM_ATOM_DEF_STEREO_COUNT>  (1) 
0

>  <PUBCHEM_ATOM_UDEF_STEREO_COUNT>  (1) 
0

>  <PUBCHEM_BOND_DEF_STEREO_COUNT>  (1) 
0

>  <PUBCHEM_BOND_UDEF_STEREO_COUNT>  (1) 
0

>  <PUBCHEM_ISOTOPIC_ATOM_COUNT>  (1) 
0

>  <PUBCHEM_COMPONENT_COUNT>  (1) 
1

>  <PUBCHEM_CACTVS_TAUTO_COUNT>  (1) 
1

>  <PUBCHEM_CONFORMER_ID>  (1) 
0000BE1500000001

>  <PUBCHEM_MMFF94_ENERGY>  (1) 
84.9112

>  <PUBCHEM_FEATURE_SELFOVERLAP>  (1) 
20.324

>  <PUBCHEM_SHAPE_FINGERPRINT>  (1) 
10062212 137 18342164553667777559
11458722 379 18343864420145523021
121448 382 18272090504312844921
12236239 1 18334571331125729472
12592029 89 17822005376680642682
12644460 14 18196382429198108369
12788726 201 17901670698204746362
13140716 1 18128814321562264369
13583140 156 17023193780895468208
14115302 16 18336828709854044852
14790565 3 18341341062772997041
15163728 17 17750523883622895501
15209289 33 18343300409577746657
16752209 62 18265891552461339882
16945 1 18271249433762629577
1813 80 17686614650047141002
19591789 44 18195807603549577227
19784866 9 18410290268565997433
20028762 73 17700131299318593687
20645476 183 18188775070895074964
20905425 154 17987235517236754653
21421861 104 18050009891983954609
21524375 3 18407757045009149934
22907989 373 17976566088302657388
2334 1 17621301868951209825
23366157 5 17974012747372579378
23402539 116 18273208707875981876
23419403 2 16842755221147409131
23559900 14 17626940876926299311
25147074 1 17915172409225995305
2748010 2 17693080174039978577
3084891 72 18343016713797066810
34934 24 18059568032685369149
352729 6 18338248161942670962
3759504 43 18113903809311081138
394222 165 18113891637500346002
4340502 62 18115320990459422865
43471831 8 18341327786659150586
474 4 18261957349253324259
59755656 215 18271810064380938062
6034566 193 16880219942272250620
6138700 20 18195812869501593046
7364860 26 18126564514017181615
81228 2 17397814061415528251
81539 233 18261672567167594079
9709674 26 18130518504476380284

>  <PUBCHEM_SHAPE_MULTIPOLES>  (1) 
410.47
7.58
3.28
1.21
3.41
3.37
-0.03
-3.98
2.26
0.16
-0.52
0.45
-0.07
-0.99

>  <PUBCHEM_SHAPE_SELFOVERLAP>  (1) 
864.418

>  <PUBCHEM_SHAPE_VOLUME>  (1) 
232.6

>  <PUBCHEM_COORDINATE_TYPE>  (1) 
2
5
10

$$$$
