48666
     RDKit          3D

 16 16  0  0  0  0  0  0  0  0999 V2000
   -0.8203   -0.0446    0.6181 O   0  0  0  0  0  0  0  0  0  0  0  0
   -1.6648   -1.3748   -1.0765 O   0  0  0  0  0  0  0  0  0  0  0  0
    1.3135    1.6576   -0.1366 N   0  0  0  0  0  0  0  0  0  0  0  0
   -3.1078    0.0486    0.0642 N   0  0  0  0  0  0  0  0  0  0  0  0
    1.4931    0.1454    0.0181 C   0  0  0  0  0  0  0  0  0  0  0  0
    2.6488    2.2707   -0.5485 C   0  0  0  0  0  0  0  0  0  0  0  0
    0.8384    2.2344    1.1940 C   0  0  0  0  0  0  0  0  0  0  0  0
    0.2789    2.0099   -1.2035 C   0  0  0  0  0  0  0  0  0  0  0  0
    0.4104   -0.5818    0.3841 C   0  0  0  0  0  0  0  0  0  0  0  0
    2.7356   -0.3408   -0.2258 C   0  0  0  0  0  0  0  0  0  0  0  0
    0.5894   -1.9582    0.5231 C   0  0  0  0  0  0  0  0  0  0  0  0
    2.9148   -1.7173   -0.0875 C   0  0  0  0  0  0  0  0  0  0  0  0
    1.8417   -2.5259    0.2872 C   0  0  0  0  0  0  0  0  0  0  0  0
   -1.8614   -0.5268   -0.2068 C   0  0  0  0  0  0  0  0  0  0  0  0
   -4.2792   -0.3476   -0.7042 C   0  0  0  0  0  0  0  0  0  0  0  0
   -3.3310    1.0513    1.1007 C   0  0  0  0  0  0  0  0  0  0  0  0
  1  9  1  0
  1 14  1  0
  2 14  2  0
  3  5  1  0
  3  6  1  0
  3  7  1  0
  3  8  1  0
  4 14  1  0
  4 15  1  0
  4 16  1  0
  5  9  2  0
  5 10  1  0
  9 11  1  0
 10 12  2  0
 11 13  2  0
 12 13  1  0
M  CHG  1   3   1
M  END
>  <PUBCHEM_COMPOUND_CID>  (1) 
48666

>  <PUBCHEM_CONFORMER_RMSD>  (1) 
0.6

>  <PUBCHEM_CONFORMER_DIVERSEORDER>  (1) 
1
8
7
12
5
3
10
11
9
2
6
4

>  <PUBCHEM_MMFF94_PARTIAL_CHARGES>  (1) 
20
1 -0.23
10 -0.15
11 -0.15
12 -0.15
13 -0.15
14 0.78
15 0.3
16 0.3
2 -0.57
26 0.15
27 0.15
28 0.15
29 0.15
3 -0.87
4 -0.66
5 0.36
6 0.5
7 0.5
8 0.5
9 0.08

>  <PUBCHEM_EFFECTIVE_ROTOR_COUNT>  (1) 
4

>  <PUBCHEM_PHARMACOPHORE_FEATURES>  (1) 
3
1 2 acceptor
1 3 cation
6 5 9 10 11 12 13 rings

>  <PUBCHEM_HEAVY_ATOM_COUNT>  (1) 
16

>  <PUBCHEM_ATOM_DEF_STEREO_COUNT>  (1) 
0

>  <PUBCHEM_ATOM_UDEF_STEREO_COUNT>  (1) 
0

>  <PUBCHEM_BOND_DEF_STEREO_COUNT>  (1) 
0

>  <PUBCHEM_BOND_UDEF_STEREO_COUNT>  (1) 
0

>  <PUBCHEM_ISOTOPIC_ATOM_COUNT>  (1) 
0

>  <PUBCHEM_COMPONENT_COUNT>  (1) 
1

>  <PUBCHEM_CACTVS_TAUTO_COUNT>  (1) 
1

>  <PUBCHEM_CONFORMER_ID>  (1) 
0000BE1A00000001

>  <PUBCHEM_MMFF94_ENERGY>  (1) 
75.1489

>  <PUBCHEM_FEATURE_SELFOVERLAP>  (1) 
15.223

>  <PUBCHEM_SHAPE_FINGERPRINT>  (1) 
10382601 240 18040995176436595240
104564 63 17979644437345167260
10980938 120 18409730655443273913
11086676 242 18194693561498533640
11471102 20 18334855004513590534
11578080 2 17841961473981070129
12654215 9 18261103063146904572
13132413 78 18269559338388554824
13464514 151 18269007534212876828
14181834 199 18410302397310905468
14251717 144 18409726270334581191
14817 1 15288192031751002640
15442244 35 18268995280459859993
15490181 8 17903352950651799842
15775835 57 18270689786913657741
161256 15 18262230032643100204
16945 1 18333732381919963226
17357990 137 17630353890199880753
18410436 195 18270109111439925144
20559304 39 18272367585759408451
20645477 70 18410006646353727623
20671657 1 18342175608834417689
20708731 107 18335422391168131135
21160774 45 17254839672503954044
21296965 67 18265326201615730354
21524375 3 18046057430928271344
22094290 62 18412830157510895201
22112679 90 17774459173754247393
221490 88 18335146448368494771
22289505 5 18116418272761906133
2255824 54 18409167727044102702
22854114 111 18410577327031698337
2334 1 18120376720316151130
23402539 116 18196084448472661822
23419403 2 14576230477239114090
23598291 2 18272652355039462311
25 1 18335426815216450588
2748010 2 18046924932986950394
305870 269 18266171923430703056
3060560 45 18410848850274350615
3071541 12 18410019866099371700
474 4 18262516025804106261
54173680 148 17182774377568857618
63268167 104 18411139155713922809
6992083 37 18056768619961295995
7364860 26 18343296002535106170
77492 1 18131356289017943611
7832392 63 18343864402970831091
81228 2 17833839265812059818
84936 182 18201157783732536208

>  <PUBCHEM_SHAPE_MULTIPOLES>  (1) 
307.57
5.53
2.78
1.04
5.84
0.51
-0.03
-0.62
0.52
-2.37
-0.04
0.37
0.38
-0.66

>  <PUBCHEM_SHAPE_SELFOVERLAP>  (1) 
626.189

>  <PUBCHEM_SHAPE_VOLUME>  (1) 
180.3

>  <PUBCHEM_COORDINATE_TYPE>  (1) 
2
5
10

$$$$
