48670
     RDKit          3D

 15 15  0  0  0  0  0  0  0  0999 V2000
    1.1517    0.9425    0.7059 O   0  0  0  0  0  0  0  0  0  0  0  0
    2.4465    1.1344   -1.2348 O   0  0  0  0  0  0  0  0  0  0  0  0
   -2.2844    0.6530    0.0605 N   0  0  0  0  0  0  0  0  0  0  0  0
   -0.5162   -1.9594   -0.7560 N   0  0  0  0  0  0  0  0  0  0  0  0
   -1.1371    0.3679   -0.8980 C   0  0  0  0  0  0  0  0  0  0  0  0
   -1.7253    1.1193    1.3969 C   0  0  0  0  0  0  0  0  0  0  0  0
   -3.1750    1.7400   -0.5239 C   0  0  0  0  0  0  0  0  0  0  0  0
   -3.1004   -0.6150    0.2667 C   0  0  0  0  0  0  0  0  0  0  0  0
   -0.2049   -0.6965   -0.3988 C   0  0  0  0  0  0  0  0  0  0  0  0
    0.8855   -0.3467    0.3752 C   0  0  0  0  0  0  0  0  0  0  0  0
    1.7188   -1.3690    0.8156 C   0  0  0  0  0  0  0  0  0  0  0  0
    0.3164   -2.9262   -0.3093 C   0  0  0  0  0  0  0  0  0  0  0  0
    1.4359   -2.6862    0.4712 C   0  0  0  0  0  0  0  0  0  0  0  0
    1.9772    1.6156   -0.2119 C   0  0  0  0  0  0  0  0  0  0  0  0
    2.2113    3.0263    0.2409 C   0  0  0  0  0  0  0  0  0  0  0  0
  1 10  1  0
  1 14  1  0
  2 14  2  0
  3  5  1  0
  3  6  1  0
  3  7  1  0
  3  8  1  0
  4  9  2  0
  4 12  1  0
  5  9  1  0
  9 10  1  0
 10 11  2  0
 11 13  1  0
 12 13  2  0
 14 15  1  0
M  CHG  1   3   1
M  END
>  <PUBCHEM_COMPOUND_CID>  (1) 
48670

>  <PUBCHEM_CONFORMER_RMSD>  (1) 
0.6

>  <PUBCHEM_CONFORMER_DIVERSEORDER>  (1) 
2
5
12
26
27
21
19
14
28
1
7
9
8
10
20
29
11
3
6
22
23
13
17
25
15
18
4
24
16

>  <PUBCHEM_MMFF94_PARTIAL_CHARGES>  (1) 
18
1 -0.23
10 0.08
11 -0.15
12 0.16
13 -0.15
14 0.66
15 0.06
2 -0.57
27 0.15
28 0.15
29 0.15
3 -1.01
4 -0.62
5 0.65
6 0.5
7 0.5
8 0.5
9 0.17

>  <PUBCHEM_EFFECTIVE_ROTOR_COUNT>  (1) 
4

>  <PUBCHEM_PHARMACOPHORE_FEATURES>  (1) 
4
1 2 acceptor
1 3 cation
1 4 acceptor
6 4 9 10 11 12 13 rings

>  <PUBCHEM_HEAVY_ATOM_COUNT>  (1) 
15

>  <PUBCHEM_ATOM_DEF_STEREO_COUNT>  (1) 
0

>  <PUBCHEM_ATOM_UDEF_STEREO_COUNT>  (1) 
0

>  <PUBCHEM_BOND_DEF_STEREO_COUNT>  (1) 
0

>  <PUBCHEM_BOND_UDEF_STEREO_COUNT>  (1) 
0

>  <PUBCHEM_ISOTOPIC_ATOM_COUNT>  (1) 
0

>  <PUBCHEM_COMPONENT_COUNT>  (1) 
1

>  <PUBCHEM_CACTVS_TAUTO_COUNT>  (1) 
1

>  <PUBCHEM_CONFORMER_ID>  (1) 
0000BE1E00000002

>  <PUBCHEM_MMFF94_ENERGY>  (1) 
52.5622

>  <PUBCHEM_FEATURE_SELFOVERLAP>  (1) 
20.297

>  <PUBCHEM_SHAPE_FINGERPRINT>  (1) 
1 1 18408887334530818164
116883 192 17115500745368975828
12423570 1 13436181264438114202
12532896 13 18122628520166590684
12696612 119 18197497320692463603
14614273 12 17757244339251819118
14648413 74 18263359192551420241
15490181 7 18338237192559176278
15775835 57 18336551611085057357
16945 1 18194125105528965795
17134986 127 18336824285716035260
17990270 104 18265048029495315699
19837323 101 17976543041734856898
20510252 161 17546443839876566712
20511035 2 18128797678115371535
20559304 39 18198340663269627713
21130352 189 17833262022101748109
21501502 16 18337390444610854333
21524375 3 18263931093105845048
22802520 49 17767706197001572996
23402539 116 17189242233333506278
23419403 2 16744596114735715578
2748010 2 18408322215518679149
305870 269 18409158935472946600
31174 14 18120118120815372385
353137 74 17906158912657362590
430814 3 18337953501405766564
528862 383 18335698308562753218
7364860 26 18338234856044252221
81228 2 17401498533269433392

>  <PUBCHEM_SHAPE_MULTIPOLES>  (1) 
286.99
4.05
3.42
1.05
3.26
0.08
-0.07
1.61
-0.03
-2.69
0.09
0.07
0.14
-0.31

>  <PUBCHEM_SHAPE_SELFOVERLAP>  (1) 
580.527

>  <PUBCHEM_SHAPE_VOLUME>  (1) 
168

>  <PUBCHEM_COORDINATE_TYPE>  (1) 
2
5
10

$$$$
