48676
     RDKit          3D

 17 17  0  0  0  0  0  0  0  0999 V2000
    0.9766    0.2806    0.6527 O   0  0  0  0  0  0  0  0  0  0  0  0
    1.9246    1.1646   -1.2641 O   0  0  0  0  0  0  0  0  0  0  0  0
   -1.5640   -2.0448   -0.0134 N   0  0  0  0  0  0  0  0  0  0  0  0
   -2.3243    1.0476   -0.7107 N   0  0  0  0  0  0  0  0  0  0  0  0
    3.1927   -0.2702    0.0561 N   0  0  0  0  0  0  0  0  0  0  0  0
   -1.0254   -0.9724   -0.9492 C   0  0  0  0  0  0  0  0  0  0  0  0
   -3.0458   -1.8032    0.2357 C   0  0  0  0  0  0  0  0  0  0  0  0
   -1.3730   -3.4146   -0.6485 C   0  0  0  0  0  0  0  0  0  0  0  0
   -0.8119   -1.9892    1.3085 C   0  0  0  0  0  0  0  0  0  0  0  0
   -1.1737    0.4158   -0.3998 C   0  0  0  0  0  0  0  0  0  0  0  0
   -0.1632    0.9614    0.3695 C   0  0  0  0  0  0  0  0  0  0  0  0
   -0.3468    2.2508    0.8563 C   0  0  0  0  0  0  0  0  0  0  0  0
   -2.4672    2.2992   -0.2200 C   0  0  0  0  0  0  0  0  0  0  0  0
   -1.5180    2.9395    0.5603 C   0  0  0  0  0  0  0  0  0  0  0  0
    2.0365    0.4471   -0.2706 C   0  0  0  0  0  0  0  0  0  0  0  0
    4.3665   -0.1966   -0.8021 C   0  0  0  0  0  0  0  0  0  0  0  0
    3.3164   -1.1157    1.2391 C   0  0  0  0  0  0  0  0  0  0  0  0
  1 11  1  0
  1 15  1  0
  2 15  2  0
  3  6  1  0
  3  7  1  0
  3  8  1  0
  3  9  1  0
  4 10  2  0
  4 13  1  0
  5 15  1  0
  5 16  1  0
  5 17  1  0
  6 10  1  0
 10 11  1  0
 11 12  2  0
 12 14  1  0
 13 14  2  0
M  CHG  1   3   1
M  END
>  <PUBCHEM_COMPOUND_CID>  (1) 
48676

>  <PUBCHEM_CONFORMER_RMSD>  (1) 
0.6

>  <PUBCHEM_CONFORMER_DIVERSEORDER>  (1) 
1
31
2
33
38
43
37
41
36
10
40
42
9
35
4
21
13
7
19
26
14
16
20
24
25
29
39
3
27
6
22
11
5
23
30
28
15
12
8
18
34
32
17

>  <PUBCHEM_MMFF94_PARTIAL_CHARGES>  (1) 
20
1 -0.23
10 0.17
11 0.08
12 -0.15
13 0.16
14 -0.15
15 0.78
16 0.3
17 0.3
2 -0.57
29 0.15
3 -1.01
30 0.15
31 0.15
4 -0.62
5 -0.66
6 0.65
7 0.5
8 0.5
9 0.5

>  <PUBCHEM_EFFECTIVE_ROTOR_COUNT>  (1) 
5

>  <PUBCHEM_PHARMACOPHORE_FEATURES>  (1) 
4
1 2 acceptor
1 3 cation
1 4 acceptor
6 4 10 11 12 13 14 rings

>  <PUBCHEM_HEAVY_ATOM_COUNT>  (1) 
17

>  <PUBCHEM_ATOM_DEF_STEREO_COUNT>  (1) 
0

>  <PUBCHEM_ATOM_UDEF_STEREO_COUNT>  (1) 
0

>  <PUBCHEM_BOND_DEF_STEREO_COUNT>  (1) 
0

>  <PUBCHEM_BOND_UDEF_STEREO_COUNT>  (1) 
0

>  <PUBCHEM_ISOTOPIC_ATOM_COUNT>  (1) 
0

>  <PUBCHEM_COMPONENT_COUNT>  (1) 
1

>  <PUBCHEM_CACTVS_TAUTO_COUNT>  (1) 
1

>  <PUBCHEM_CONFORMER_ID>  (1) 
0000BE2400000001

>  <PUBCHEM_MMFF94_ENERGY>  (1) 
59.0844

>  <PUBCHEM_FEATURE_SELFOVERLAP>  (1) 
20.297

>  <PUBCHEM_SHAPE_FINGERPRINT>  (1) 
12500047 106 18340481150332382100
12553582 1 18195525020017902830
12592029 89 17754176384125409337
12644460 14 16973663745839910145
12788726 201 18335988644141495746
13538477 17 18335136458416365288
14178342 30 18335123277499188490
14817 1 11042848787741254594
15279307 12 18189054205510436642
15490181 8 17979077089471634057
15669948 3 18409446969022564488
15852999 172 17986673662710789140
15906896 17 18262532411119924811
16752209 62 18409720755739134263
16945 1 18342453695039876660
20510252 161 18342740714919379112
20645476 183 18261961738826153516
20645477 70 16753794989728288743
20871998 22 17908703174216610201
21452121 199 17977930608224018288
21524375 3 18120369852563321969
21731516 1 18052540164228538102
23184049 29 18267855262979600184
23402539 116 18271513200726771005
23419403 2 16749524336125327044
23557571 272 18271525407466723248
23559900 14 18200587004970949632
23598291 2 17895193243250500722
23598294 1 18410575076199836226
23728640 28 18268416963119241738
257057 1 18052526965746473631
2748010 2 18127392665263533385
305870 269 17762341310007301565
3071541 236 18339919303610614408
43471831 8 17980194189117055233
5706482 22 18195520390132399985
6992083 37 18042125358420433836
7364860 26 17116639294386872199
74978 22 18409168779822864652
81228 2 18337111275514909721
81539 233 17759524370107586933
90525 40 18262242101332169418
9709674 26 18129944477665392894

>  <PUBCHEM_SHAPE_MULTIPOLES>  (1) 
323.17
5.3
3.55
1.13
6.57
0.87
-0.11
0.67
0.57
-3.65
-0.28
0.38
0.18
-0.42

>  <PUBCHEM_SHAPE_SELFOVERLAP>  (1) 
650.113

>  <PUBCHEM_SHAPE_VOLUME>  (1) 
190.9

>  <PUBCHEM_COORDINATE_TYPE>  (1) 
2
5
10

$$$$
