48708
     RDKit          3D

 19 20  0  0  1  0  0  0  0  0999 V2000
   -0.2331   -0.7698   -2.0074 O   0  0  0  0  0  0  0  0  0  0  0  0
    0.2934    0.3161    2.4659 O   0  0  0  0  0  0  0  0  0  0  0  0
   -1.3417   -2.7222    0.4487 O   0  0  0  0  0  0  0  0  0  0  0  0
   -3.4474   -2.0798   -0.0880 O   0  0  0  0  0  0  0  0  0  0  0  0
   -2.2899    2.7615   -1.3722 O   0  0  0  0  0  0  0  0  0  0  0  0
   -1.8063    2.5319    0.8340 O   0  0  0  0  0  0  0  0  0  0  0  0
   -0.3948   -0.2554    0.2852 N   0  0  0  0  0  0  0  0  0  0  0  0
   -1.8267   -0.3676    0.4798 C   0  0  0  0  0  0  0  0  0  0  0  0
    1.6558   -0.2405   -0.6763 C   0  0  0  0  0  0  0  0  0  0  0  0
    1.8122    0.0844    0.6630 C   0  0  0  0  0  0  0  0  0  0  0  0
    0.2323   -0.4648   -0.9250 C   0  0  0  0  0  0  0  0  0  0  0  0
    0.4908    0.0727    1.2900 C   0  0  0  0  0  0  0  0  0  0  0  0
   -2.5842    0.5997   -0.4341 C   0  0  0  0  0  0  0  0  0  0  0  0
   -2.3047   -1.7912    0.2464 C   0  0  0  0  0  0  0  0  0  0  0  0
    2.7291   -0.3137   -1.5401 C   0  0  0  0  0  0  0  0  0  0  0  0
    3.0504    0.3533    1.2093 C   0  0  0  0  0  0  0  0  0  0  0  0
   -2.1818    2.0443   -0.2229 C   0  0  0  0  0  0  0  0  0  0  0  0
    3.9937   -0.0445   -1.0088 C   0  0  0  0  0  0  0  0  0  0  0  0
    4.1528    0.2856    0.3526 C   0  0  0  0  0  0  0  0  0  0  0  0
  1 11  2  0
  2 12  2  0
  3 14  1  0
  4 14  2  0
  5 17  1  0
  6 17  2  0
  7  8  1  0
  7 11  1  0
  7 12  1  0
  8 13  1  0
  8 14  1  0
  9 10  2  0
  9 11  1  0
  9 15  1  0
 10 12  1  0
 10 16  1  0
 13 17  1  0
 15 18  2  0
 16 19  2  0
 18 19  1  0
M  END
>  <PUBCHEM_COMPOUND_CID>  (1) 
48708

>  <PUBCHEM_CONFORMER_RMSD>  (1) 
0.6

>  <PUBCHEM_CONFORMER_DIVERSEORDER>  (1) 
1
11
10
15
4
6
2
13
3
14
12
5
8
7
9

>  <PUBCHEM_MMFF94_PARTIAL_CHARGES>  (1) 
25
1 -0.57
10 0.09
11 0.54
12 0.54
13 0.06
14 0.66
15 -0.15
16 -0.15
17 0.66
18 -0.15
19 -0.15
2 -0.57
23 0.15
24 0.15
25 0.15
26 0.15
27 0.5
28 0.5
3 -0.65
4 -0.57
5 -0.65
6 -0.57
7 -0.42
8 0.36
9 0.09

>  <PUBCHEM_EFFECTIVE_ROTOR_COUNT>  (1) 
4.2

>  <PUBCHEM_PHARMACOPHORE_FEATURES>  (1) 
10
1 1 acceptor
1 2 acceptor
1 3 acceptor
1 4 acceptor
1 5 acceptor
1 6 acceptor
3 3 4 14 anion
3 5 6 17 anion
5 7 9 10 11 12 rings
6 9 10 15 16 18 19 rings

>  <PUBCHEM_HEAVY_ATOM_COUNT>  (1) 
19

>  <PUBCHEM_ATOM_DEF_STEREO_COUNT>  (1) 
1

>  <PUBCHEM_ATOM_UDEF_STEREO_COUNT>  (1) 
0

>  <PUBCHEM_BOND_DEF_STEREO_COUNT>  (1) 
0

>  <PUBCHEM_BOND_UDEF_STEREO_COUNT>  (1) 
0

>  <PUBCHEM_ISOTOPIC_ATOM_COUNT>  (1) 
0

>  <PUBCHEM_COMPONENT_COUNT>  (1) 
1

>  <PUBCHEM_CACTVS_TAUTO_COUNT>  (1) 
1

>  <PUBCHEM_CONFORMER_ID>  (1) 
0000BE4400000001

>  <PUBCHEM_MMFF94_ENERGY>  (1) 
42.2107

>  <PUBCHEM_FEATURE_SELFOVERLAP>  (1) 
50.96

>  <PUBCHEM_SHAPE_FINGERPRINT>  (1) 
11640471 11 17459464455542166797
12138202 97 18339643326181395813
12173636 292 18334285440336842302
12236239 1 17313100873872635379
12403814 3 17987511692297538352
12491281 212 17895204263846327960
12500047 106 18337390431552126110
13583140 156 18200289092827447466
14289901 80 18334299803292945034
14617773 55 17458059391329406614
15309172 13 15140685769537189592
16752209 62 18115289164398623551
16945 1 18410298024949782362
17357779 13 18058431266458098349
17844478 74 17988367064988564058
18186145 218 17703793557463797948
18219364 16 17060334154126194662
18534176 82 18343864394359894953
19049666 15 18130515119578290838
19765921 60 17483963675022019657
200 152 16515952778955564622
20510252 161 18410013260159972355
20600515 1 18192989542404467691
22802520 49 17988364762928479808
23236772 104 17313105254570368393
23402539 116 18411131468250068327
23419403 2 17703215347402046625
23493267 7 18271811168614846210
23526113 38 17774996847888402322
23557571 272 18341049726192002856
23559900 14 18342461405097010478
25 1 17486499191600701401
2748010 2 17060066908639821360
6049 1 18131072657978284304
6442390 28 18054808186898650169
77492 1 17385439925385437042
81228 2 18337121141349973219

>  <PUBCHEM_SHAPE_MULTIPOLES>  (1) 
350.81
5.98
2.19
1.65
3.84
0.46
0.15
0.14
-0.74
-3.41
-0.17
0.64
0.2
0.69

>  <PUBCHEM_SHAPE_SELFOVERLAP>  (1) 
765.502

>  <PUBCHEM_SHAPE_VOLUME>  (1) 
191.1

>  <PUBCHEM_COORDINATE_TYPE>  (1) 
2
5
10

$$$$
