48714
     RDKit          3D

 12 13  0  0  1  0  0  0  0  0999 V2000
   -2.7021   -1.0089    0.2261 O   0  0  0  0  0  0  0  0  0  0  0  0
   -0.5044   -1.3037    0.8135 N   0  0  0  0  0  0  0  0  0  0  0  0
    1.3317   -0.2555   -0.4740 C   0  0  0  0  0  0  0  0  0  0  0  0
    0.3647    0.9571   -0.5552 C   0  0  0  0  0  0  0  0  0  0  0  0
    0.8640   -0.7878    0.8942 C   0  0  0  0  0  0  0  0  0  0  0  0
    0.5109    1.6130    0.8390 C   0  0  0  0  0  0  0  0  0  0  0  0
    0.8463    0.4582    1.7933 C   0  0  0  0  0  0  0  0  0  0  0  0
   -1.0871    0.4732   -0.8070 C   0  0  0  0  0  0  0  0  0  0  0  0
    1.2008   -1.2832   -1.6121 C   0  0  0  0  0  0  0  0  0  0  0  0
    2.8125    0.1867   -0.4561 C   0  0  0  0  0  0  0  0  0  0  0  0
   -1.5254   -0.6573    0.1365 C   0  0  0  0  0  0  0  0  0  0  0  0
   -2.1119    1.6080   -0.7982 C   0  0  0  0  0  0  0  0  0  0  0  0
  1 11  2  0
  2  5  1  0
  2 11  1  0
  3  4  1  0
  3  5  1  0
  3  9  1  0
  3 10  1  0
  4  6  1  0
  4  8  1  0
  5  7  1  0
  6  7  1  0
  8 11  1  0
  8 12  1  0
M  END
>  <PUBCHEM_COMPOUND_CID>  (1) 
48714

>  <PUBCHEM_CONFORMER_RMSD>  (1) 
0.4

>  <PUBCHEM_CONFORMER_DIVERSEORDER>  (1) 
1
2
4
3

>  <PUBCHEM_MMFF94_PARTIAL_CHARGES>  (1) 
6
1 -0.57
11 0.57
2 -0.73
20 0.37
5 0.3
8 0.06

>  <PUBCHEM_EFFECTIVE_ROTOR_COUNT>  (1) 
1

>  <PUBCHEM_PHARMACOPHORE_FEATURES>  (1) 
4
1 1 acceptor
1 2 donor
3 3 9 10 hydrophobe
8 2 3 4 5 6 7 8 11 rings

>  <PUBCHEM_HEAVY_ATOM_COUNT>  (1) 
12

>  <PUBCHEM_ATOM_DEF_STEREO_COUNT>  (1) 
0

>  <PUBCHEM_ATOM_UDEF_STEREO_COUNT>  (1) 
3

>  <PUBCHEM_BOND_DEF_STEREO_COUNT>  (1) 
0

>  <PUBCHEM_BOND_UDEF_STEREO_COUNT>  (1) 
0

>  <PUBCHEM_ISOTOPIC_ATOM_COUNT>  (1) 
0

>  <PUBCHEM_COMPONENT_COUNT>  (1) 
1

>  <PUBCHEM_CACTVS_TAUTO_COUNT>  (1) 
2

>  <PUBCHEM_CONFORMER_ID>  (1) 
0000BE4A00000001

>  <PUBCHEM_MMFF94_ENERGY>  (1) 
42.4907

>  <PUBCHEM_FEATURE_SELFOVERLAP>  (1) 
20.297

>  <PUBCHEM_SHAPE_FINGERPRINT>  (1) 
12423570 1 16591662722755296872
12491281 212 17386014953061389908
13024252 1 15725367574513209990
15557651 10 17768519843784878113
16945 1 18041850639326675982
19837323 101 17605016761070492269
20653085 51 17387156211797436084
20653091 64 15122923193212460029
21040471 1 17899395520572384205
21922407 69 15430301517354822121
241688 4 17826524554122714675
29004967 10 17775292650912786222
5084963 1 18340484594326337449
528886 8 17968091958866360228
68250623 7 17968091972014973810

>  <PUBCHEM_SHAPE_MULTIPOLES>  (1) 
236.1
2.9
1.59
1.46
0.54
0.15
-0.2
-0.19
0.64
0.14
0.05
-0.15
0
0.72

>  <PUBCHEM_SHAPE_SELFOVERLAP>  (1) 
493.323

>  <PUBCHEM_SHAPE_VOLUME>  (1) 
136.5

>  <PUBCHEM_COORDINATE_TYPE>  (1) 
2
5
10

$$$$
