48718
     RDKit          3D

 24 26  0  0  0  0  0  0  0  0999 V2000
    5.1548   -1.8528   -1.3950 O   0  0  0  0  0  0  0  0  0  0  0  0
   -0.2735   -0.1950   -0.0833 N   0  0  0  0  0  0  0  0  0  0  0  0
   -8.0972   -0.0240   -0.4981 N   0  0  0  0  0  0  0  0  0  0  0  0
    1.4397    0.9982    0.1716 C   0  0  0  0  0  0  0  0  0  0  0  0
    0.5637    0.5916   -1.0219 C   0  0  0  0  0  0  0  0  0  0  0  0
    0.1918    0.6914    1.0114 C   0  0  0  0  0  0  0  0  0  0  0  0
    1.8652    2.4604    0.1789 C   0  0  0  0  0  0  0  0  0  0  0  0
    2.6977    0.1549    0.4429 C   0  0  0  0  0  0  0  0  0  0  0  0
   -1.6865    0.0311   -0.3533 C   0  0  0  0  0  0  0  0  0  0  0  0
    2.8889    2.7183   -0.9241 C   0  0  0  0  0  0  0  0  0  0  0  0
   -2.5631   -0.8096    0.5755 C   0  0  0  0  0  0  0  0  0  0  0  0
    3.3683   -0.4779   -0.6113 C   0  0  0  0  0  0  0  0  0  0  0  0
    3.1856    0.0108    1.7477 C   0  0  0  0  0  0  0  0  0  0  0  0
    3.3610    4.1629   -0.9219 C   0  0  0  0  0  0  0  0  0  0  0  0
    4.5085   -1.2423   -0.3647 C   0  0  0  0  0  0  0  0  0  0  0  0
   -4.0294   -0.6016    0.2910 C   0  0  0  0  0  0  0  0  0  0  0  0
    4.3259   -0.7536    1.9945 C   0  0  0  0  0  0  0  0  0  0  0  0
    4.9874   -1.3802    0.9382 C   0  0  0  0  0  0  0  0  0  0  0  0
   -4.7169    0.3997    0.9598 C   0  0  0  0  0  0  0  0  0  0  0  0
   -4.6657   -1.4150   -0.6343 C   0  0  0  0  0  0  0  0  0  0  0  0
   -6.0734    0.5921    0.6970 C   0  0  0  0  0  0  0  0  0  0  0  0
   -6.0220   -1.2225   -0.8972 C   0  0  0  0  0  0  0  0  0  0  0  0
   -6.7258   -0.2190   -0.2315 C   0  0  0  0  0  0  0  0  0  0  0  0
    6.3150   -2.6180   -1.0719 C   0  0  0  0  0  0  0  0  0  0  0  0
  1 15  1  0
  1 24  1  0
  2  5  1  0
  2  6  1  0
  2  9  1  0
  3 23  1  0
  4  5  1  0
  4  6  1  0
  4  7  1  0
  4  8  1  0
  7 10  1  0
  8 12  2  0
  8 13  1  0
  9 11  1  0
 10 14  1  0
 11 16  1  0
 12 15  1  0
 13 17  2  0
 15 18  2  0
 16 19  2  0
 16 20  1  0
 17 18  1  0
 19 21  1  0
 20 22  2  0
 21 23  2  0
 22 23  1  0
M  END
>  <PUBCHEM_COMPOUND_CID>  (1) 
48718

>  <PUBCHEM_CONFORMER_RMSD>  (1) 
0.8

>  <PUBCHEM_CONFORMER_DIVERSEORDER>  (1) 
1
46
54
34
37
16
28
43
51
55
39
47
14
29
20
53
19
61
17
52
22
56
30
38
48
45
15
60
41
23
27
57
3
6
59
44
4
40
24
8
58
18
7
49
50
25
42
11
10
26
35
12
9
31
36
5
32
21
33
2
13

>  <PUBCHEM_MMFF94_PARTIAL_CHARGES>  (1) 
31
1 -0.36
11 0.14
12 -0.15
13 -0.15
15 0.08
16 -0.14
17 -0.15
18 -0.15
19 -0.15
2 -0.69
20 -0.15
21 -0.15
22 -0.15
23 0.1
24 0.28
3 -0.9
37 0.15
38 0.15
4 0.11
42 0.15
43 0.15
44 0.15
45 0.15
46 0.15
47 0.15
5 0.21
51 0.4
52 0.4
6 0.21
8 -0.11
9 0.27

>  <PUBCHEM_EFFECTIVE_ROTOR_COUNT>  (1) 
7.8

>  <PUBCHEM_PHARMACOPHORE_FEATURES>  (1) 
8
1 1 acceptor
1 14 hydrophobe
1 2 cation
1 3 cation
1 3 donor
4 2 4 5 6 rings
6 16 19 20 21 22 23 rings
6 8 12 13 15 17 18 rings

>  <PUBCHEM_HEAVY_ATOM_COUNT>  (1) 
24

>  <PUBCHEM_ATOM_DEF_STEREO_COUNT>  (1) 
0

>  <PUBCHEM_ATOM_UDEF_STEREO_COUNT>  (1) 
0

>  <PUBCHEM_BOND_DEF_STEREO_COUNT>  (1) 
0

>  <PUBCHEM_BOND_UDEF_STEREO_COUNT>  (1) 
0

>  <PUBCHEM_ISOTOPIC_ATOM_COUNT>  (1) 
0

>  <PUBCHEM_COMPONENT_COUNT>  (1) 
1

>  <PUBCHEM_CACTVS_TAUTO_COUNT>  (1) 
1

>  <PUBCHEM_CONFORMER_ID>  (1) 
0000BE4E00000001

>  <PUBCHEM_MMFF94_ENERGY>  (1) 
85.8577

>  <PUBCHEM_FEATURE_SELFOVERLAP>  (1) 
40.596

>  <PUBCHEM_SHAPE_FINGERPRINT>  (1) 
10 15 14620785016010409146
10554248 39 18341601660139834117
11719270 70 17275105020634691327
11796584 16 18261111910822265411
12166972 35 18131352998904463153
12596602 18 17131827668460833707
12616971 3 18341886437988333015
13533116 47 17847057796390766786
13540713 4 17606418780377754554
1361 4 18050005794939607827
13878862 14 18191001569579322005
13914758 101 18341045230342165809
14739800 52 17844240950437702697
15183329 4 18114183008493331579
15188451 53 17561080272240664835
1577012 14 18272093842478568153
17844677 252 18113892763230520837
1813 80 18410291381352780640
18222031 100 18411703162656527914
19489759 90 17775283859863882875
20369508 70 17968087638630277640
20567600 234 14045732733875628467
20612939 158 18336551602764037545
20645477 70 18334574697963046178
20771845 65 18202566155771006768
23016692 55 18187085027266316418
23081809 10 18060140990212945613
23559900 14 18340487858411883314
23569943 247 18052823550630194147
29717793 49 18411979178698000807
3004659 81 18413108372417543649
338550 245 18060133288477365255
3411729 13 18189332553957093112
4073 2 17751081525154545795
5104073 3 18262241139961148361
5372103 7 16154861075221191502
54076057 127 18263658422564353585
543368 44 11097859592853420991
57527293 21 18124843951189264010
59755656 215 18336543820700249527
633830 44 18188202221379886795
90127 26 17749385992832006165
960060 61 17022620875297564506
9658208 31 16443631306469294641
9841814 1 18114174255502963504
9971528 1 18343862229764956312

>  <PUBCHEM_SHAPE_MULTIPOLES>  (1) 
478.08
18.47
2.81
1.4
28.78
3.09
-0.35
-9.02
2.54
-6.31
1.33
-1.57
-0.26
-0.52

>  <PUBCHEM_SHAPE_SELFOVERLAP>  (1) 
1009.213

>  <PUBCHEM_SHAPE_VOLUME>  (1) 
271.6

>  <PUBCHEM_COORDINATE_TYPE>  (1) 
2
5
10

$$$$
