48717
     RDKit          3D

 11 11  0  0  1  0  0  0  0  0999 V2000
   -2.7731    1.3247   -0.3593 O   0  0  0  0  0  0  0  0  0  0  0  0
   -1.5733   -0.6121   -0.1859 N   0  0  0  0  0  0  0  0  0  0  0  0
    1.5533    0.2715   -0.0818 C   0  0  0  0  0  0  0  0  0  0  0  0
    0.8438   -1.0391   -0.5127 C   0  0  0  0  0  0  0  0  0  0  0  0
    0.6318    1.5131   -0.1650 C   0  0  0  0  0  0  0  0  0  0  0  0
   -0.4324   -1.4085    0.2605 C   0  0  0  0  0  0  0  0  0  0  0  0
   -0.6311    1.4775    0.6917 C   0  0  0  0  0  0  0  0  0  0  0  0
    2.1523    0.1267    1.3326 C   0  0  0  0  0  0  0  0  0  0  0  0
    2.7353    0.5025   -1.0538 C   0  0  0  0  0  0  0  0  0  0  0  0
   -1.7539    0.7363    0.0057 C   0  0  0  0  0  0  0  0  0  0  0  0
   -0.7527   -2.8926    0.0682 C   0  0  0  0  0  0  0  0  0  0  0  0
  1 10  2  0
  2  6  1  0
  2 10  1  0
  3  4  1  0
  3  5  1  0
  3  8  1  0
  3  9  1  0
  4  6  1  0
  5  7  1  0
  6 11  1  0
  7 10  1  0
M  END
>  <PUBCHEM_COMPOUND_CID>  (1) 
48717

>  <PUBCHEM_CONFORMER_RMSD>  (1) 
0.4

>  <PUBCHEM_CONFORMER_DIVERSEORDER>  (1) 
1
6
4
8
2
10
7
3
5
9

>  <PUBCHEM_MMFF94_PARTIAL_CHARGES>  (1) 
6
1 -0.57
10 0.57
2 -0.73
25 0.37
6 0.3
7 0.06

>  <PUBCHEM_EFFECTIVE_ROTOR_COUNT>  (1) 
1.2

>  <PUBCHEM_PHARMACOPHORE_FEATURES>  (1) 
4
1 1 acceptor
1 2 donor
3 3 8 9 hydrophobe
7 2 3 4 5 6 7 10 rings

>  <PUBCHEM_HEAVY_ATOM_COUNT>  (1) 
11

>  <PUBCHEM_ATOM_DEF_STEREO_COUNT>  (1) 
0

>  <PUBCHEM_ATOM_UDEF_STEREO_COUNT>  (1) 
1

>  <PUBCHEM_BOND_DEF_STEREO_COUNT>  (1) 
0

>  <PUBCHEM_BOND_UDEF_STEREO_COUNT>  (1) 
0

>  <PUBCHEM_ISOTOPIC_ATOM_COUNT>  (1) 
0

>  <PUBCHEM_COMPONENT_COUNT>  (1) 
1

>  <PUBCHEM_CACTVS_TAUTO_COUNT>  (1) 
2

>  <PUBCHEM_CONFORMER_ID>  (1) 
0000BE4D00000001

>  <PUBCHEM_MMFF94_ENERGY>  (1) 
28.9202

>  <PUBCHEM_FEATURE_SELFOVERLAP>  (1) 
20.297

>  <PUBCHEM_SHAPE_FINGERPRINT>  (1) 
100427 49 17330843928916766407
12138202 97 18338249231574196406
12423570 1 10761761462051978120
12524768 44 17261597790332403302
12716758 59 18411990186614855870
14817 1 12773445360770901930
15310529 11 17022904561897511297
15775835 57 17967819344528669540
161256 15 17476650144311530468
16945 1 18265047114339935051
193761 8 17907017635681543189
20645476 183 18113911458911599118
20711985 344 18121222236041609515
21040471 1 18411135827108811618
21922407 69 15720260420052956731
22802520 49 18057914422815192662
23235685 24 18411986827539253108
23552423 10 17834402220012864829
23559900 14 18272100383898052060
241688 4 16606602736376927491
2748010 2 18338806610823276039
5084963 1 18127412246103585084
66348 1 17979641134625988971

>  <PUBCHEM_SHAPE_MULTIPOLES>  (1) 
215.52
3.2
2.34
0.97
0.58
1.39
-0.16
-0.88
0.45
-1.48
-0.06
0.61
-0.06
0.04

>  <PUBCHEM_SHAPE_SELFOVERLAP>  (1) 
420.772

>  <PUBCHEM_SHAPE_VOLUME>  (1) 
130.1

>  <PUBCHEM_COORDINATE_TYPE>  (1) 
2
5
10

$$$$
