48715
     RDKit          3D

 21 24  0  0  1  0  0  0  0  0999 V2000
    2.9925   -0.1792    0.5169 N   0  0  0  0  0  0  0  0  0  0  0  0
    0.4737    1.0943    0.8323 N   0  0  0  0  0  0  0  0  0  0  0  0
   -3.1077   -1.9968   -1.0095 N   0  0  0  0  0  0  0  0  0  0  0  0
   -0.5961   -0.7816    0.2880 C   0  0  0  0  0  0  0  0  0  0  0  0
    0.5992   -0.2617    0.7435 C   0  0  0  0  0  0  0  0  0  0  0  0
    1.8726   -0.9237    1.0923 C   0  0  0  0  0  0  0  0  0  0  0  0
   -1.4941    0.3223    0.1035 C   0  0  0  0  0  0  0  0  0  0  0  0
    2.8740   -0.1224   -0.9468 C   0  0  0  0  0  0  0  0  0  0  0  0
    4.2712   -0.7787    0.9235 C   0  0  0  0  0  0  0  0  0  0  0  0
    4.0114    0.6951   -1.5613 C   0  0  0  0  0  0  0  0  0  0  0  0
    5.4542    0.0171    0.3701 C   0  0  0  0  0  0  0  0  0  0  0  0
   -0.8480   -2.2238    0.0028 C   0  0  0  0  0  0  0  0  0  0  0  0
    5.3730    0.1495   -1.1464 C   0  0  0  0  0  0  0  0  0  0  0  0
   -2.8423    0.4345   -0.3267 C   0  0  0  0  0  0  0  0  0  0  0  0
   -3.7664   -0.7348   -0.6487 C   0  0  0  0  0  0  0  0  0  0  0  0
   -0.7840    1.4810    0.4342 C   0  0  0  0  0  0  0  0  0  0  0  0
   -2.3166   -2.6370    0.0378 C   0  0  0  0  0  0  0  0  0  0  0  0
   -3.3817    1.7408   -0.4179 C   0  0  0  0  0  0  0  0  0  0  0  0
   -1.3285    2.7649    0.3480 C   0  0  0  0  0  0  0  0  0  0  0  0
   -4.8132   -0.9358    0.4565 C   0  0  0  0  0  0  0  0  0  0  0  0
   -2.6435    2.8759   -0.0920 C   0  0  0  0  0  0  0  0  0  0  0  0
  1  6  1  0
  1  8  1  0
  1  9  1  0
  2  5  1  0
  2 16  1  0
  3 15  1  0
  3 17  1  0
  4  5  2  0
  4  7  1  0
  4 12  1  0
  5  6  1  0
  7 14  1  0
  7 16  2  0
  8 10  1  0
  9 11  1  0
 10 13  1  0
 11 13  1  0
 12 17  1  0
 14 15  1  0
 14 18  2  0
 15 20  1  0
 16 19  1  0
 18 21  1  0
 19 21  2  0
M  END
>  <PUBCHEM_COMPOUND_CID>  (1) 
48715

>  <PUBCHEM_CONFORMER_RMSD>  (1) 
0.6

>  <PUBCHEM_CONFORMER_DIVERSEORDER>  (1) 
5
23
27
9
17
30
3
14
18
28
8
16
26
20
15
19
25
4
24
1
22
21
2
10
12
29
11
6
7
13

>  <PUBCHEM_MMFF94_PARTIAL_CHARGES>  (1) 
21
1 -0.81
12 0.18
14 -0.14
15 0.41
16 -0.15
17 0.27
18 -0.15
19 -0.15
2 0.03
21 -0.15
3 -0.9
37 0.27
4 -0.18
40 0.36
41 0.15
42 0.15
46 0.15
5 -0.33
6 0.45
8 0.27
9 0.27

>  <PUBCHEM_EFFECTIVE_ROTOR_COUNT>  (1) 
4

>  <PUBCHEM_PHARMACOPHORE_FEATURES>  (1) 
9
1 1 cation
1 2 cation
1 2 donor
1 3 cation
1 3 donor
5 2 4 5 7 16 rings
6 1 8 9 10 11 13 rings
6 7 14 16 18 19 21 rings
7 3 4 7 12 14 15 17 rings

>  <PUBCHEM_HEAVY_ATOM_COUNT>  (1) 
21

>  <PUBCHEM_ATOM_DEF_STEREO_COUNT>  (1) 
0

>  <PUBCHEM_ATOM_UDEF_STEREO_COUNT>  (1) 
1

>  <PUBCHEM_BOND_DEF_STEREO_COUNT>  (1) 
0

>  <PUBCHEM_BOND_UDEF_STEREO_COUNT>  (1) 
0

>  <PUBCHEM_ISOTOPIC_ATOM_COUNT>  (1) 
0

>  <PUBCHEM_COMPONENT_COUNT>  (1) 
1

>  <PUBCHEM_CACTVS_TAUTO_COUNT>  (1) 
1

>  <PUBCHEM_CONFORMER_ID>  (1) 
0000BE4B00000005

>  <PUBCHEM_MMFF94_ENERGY>  (1) 
33.2846

>  <PUBCHEM_FEATURE_SELFOVERLAP>  (1) 
45.805

>  <PUBCHEM_SHAPE_FINGERPRINT>  (1) 
10369192 42 16840482552636538744
10411042 1 18122619728754495635
10498660 4 18339359665272436460
10759866 29 18114175272951315499
10906281 52 18265617572993786401
11640471 11 17895205363510884812
12011746 2 18412256251771232535
12107183 9 17685484356978988058
12173636 292 18195237824144591765
12236239 1 17967248685335577674
12390115 104 18057895649613816913
12403814 3 17603302627091262917
12553582 1 18339349868705177019
12714826 92 18201441388959712739
12788726 201 18409164398597338675
13140716 1 18268427026586033155
14251757 5 18336550524632541111
14386348 63 17346602988854910526
14787075 74 17822296837804931179
14790565 3 17982175517687779217
15961568 22 18194955465175388048
16752209 62 18411125931483348699
16945 1 18341032065787401227
17349148 13 17749105587127708896
17492 89 18263642870673066730
19141452 34 17560801091182782687
200 152 18040996254404366330
20300324 65 18410295804715642220
20510252 161 18271522001214558553
20511986 3 17968079929322483476
20645477 70 16415204438904008662
20871999 31 18342457027934446493
21029758 27 18334296509142699681
21033650 10 18193863491087732420
22182313 1 18195219296120004321
22620623 9 18060694000889461831
22907989 373 18116132412608034925
2297311 6 18342464754575265830
23175994 123 16845573140589382299
23402539 116 18411130325493134516
23557571 272 18202003222696494480
23558518 356 18117842101275332243
23559900 14 18130225935741841406
238078 22 18336550533343515819
2748010 2 18052518144463571667
2838139 119 16372393793571365061
335352 9 18411975897965661151
34797466 226 17988091088509294716
350125 39 18409730647544949121
352729 6 17836634237428607579
474 4 17240489113384571704
559249 180 18264764364502236442
57724786 102 15430336715197103422
7237137 82 18335697252143327509
9709674 26 18271810082057055846

>  <PUBCHEM_SHAPE_MULTIPOLES>  (1) 
417.23
10.19
2.64
1.11
11.21
0.64
-0.18
-0.69
-2.03
-3.64
0.01
0.98
-0.03
-0.73

>  <PUBCHEM_SHAPE_SELFOVERLAP>  (1) 
899.958

>  <PUBCHEM_SHAPE_VOLUME>  (1) 
228

>  <PUBCHEM_COORDINATE_TYPE>  (1) 
2
5
10

$$$$
