48727
     RDKit          3D

 16 16  0  0  1  0  0  0  0  0999 V2000
   -2.3819    0.1872    0.4922 S   0  0  0  0  0  0  0  0  0  0  0  0
   -0.0008    0.3698    2.3379 O   0  0  0  0  0  0  0  0  0  0  0  0
    1.5049   -1.7959   -1.5470 O   0  0  0  0  0  0  0  0  0  0  0  0
    2.9738    2.4211   -0.4904 O   0  0  0  0  0  0  0  0  0  0  0  0
    1.4092    1.4312    0.8725 N   0  0  0  0  0  0  0  0  0  0  0  0
    2.1609    0.3497   -1.0686 N   0  0  0  0  0  0  0  0  0  0  0  0
    0.2279   -0.5832    0.1199 C   0  0  0  0  0  0  0  0  0  0  0  0
   -0.9856   -0.0377   -0.6542 C   0  0  0  0  0  0  0  0  0  0  0  0
   -0.1333   -1.9420    0.7374 C   0  0  0  0  0  0  0  0  0  0  0  0
    0.5348    0.4161    1.2308 C   0  0  0  0  0  0  0  0  0  0  0  0
    1.3565   -0.7658   -0.8899 C   0  0  0  0  0  0  0  0  0  0  0  0
   -1.3811   -0.9786   -1.7802 C   0  0  0  0  0  0  0  0  0  0  0  0
    0.9967   -2.4633    1.5964 C   0  0  0  0  0  0  0  0  0  0  0  0
    2.2209    1.4746   -0.2547 C   0  0  0  0  0  0  0  0  0  0  0  0
   -3.5914    0.8130   -0.6950 C   0  0  0  0  0  0  0  0  0  0  0  0
   -4.9117    1.1039   -0.0072 C   0  0  0  0  0  0  0  0  0  0  0  0
  1  8  1  0
  1 15  1  0
  2 10  2  0
  3 11  2  0
  4 14  2  0
  5 10  1  0
  5 14  1  0
  6 11  1  0
  6 14  1  0
  7  8  1  0
  7  9  1  0
  7 10  1  0
  7 11  1  0
  8 12  1  0
  9 13  1  0
 15 16  1  0
M  END
>  <PUBCHEM_COMPOUND_CID>  (1) 
48727

>  <PUBCHEM_CONFORMER_RMSD>  (1) 
0.6

>  <PUBCHEM_CONFORMER_DIVERSEORDER>  (1) 
2
5
17
4
16
15
6
11
1
12
10
9
13
14
3
8
7

>  <PUBCHEM_MMFF94_PARTIAL_CHARGES>  (1) 
14
1 -0.46
10 0.57
11 0.57
14 0.69
15 0.23
2 -0.57
26 0.37
27 0.37
3 -0.57
4 -0.57
5 -0.49
6 -0.49
7 0.12
8 0.23

>  <PUBCHEM_EFFECTIVE_ROTOR_COUNT>  (1) 
4.6

>  <PUBCHEM_PHARMACOPHORE_FEATURES>  (1) 
9
1 12 hydrophobe
1 13 hydrophobe
1 16 hydrophobe
1 2 acceptor
1 3 acceptor
1 4 acceptor
1 5 donor
1 6 donor
6 5 6 7 10 11 14 rings

>  <PUBCHEM_HEAVY_ATOM_COUNT>  (1) 
16

>  <PUBCHEM_ATOM_DEF_STEREO_COUNT>  (1) 
0

>  <PUBCHEM_ATOM_UDEF_STEREO_COUNT>  (1) 
1

>  <PUBCHEM_BOND_DEF_STEREO_COUNT>  (1) 
0

>  <PUBCHEM_BOND_UDEF_STEREO_COUNT>  (1) 
0

>  <PUBCHEM_ISOTOPIC_ATOM_COUNT>  (1) 
0

>  <PUBCHEM_COMPONENT_COUNT>  (1) 
1

>  <PUBCHEM_CACTVS_TAUTO_COUNT>  (1) 
5

>  <PUBCHEM_CONFORMER_ID>  (1) 
0000BE5700000002

>  <PUBCHEM_MMFF94_ENERGY>  (1) 
50.5414

>  <PUBCHEM_FEATURE_SELFOVERLAP>  (1) 
45.712

>  <PUBCHEM_SHAPE_FINGERPRINT>  (1) 
10922049 32 18114185280061383304
12423570 1 13924054287640171418
13024252 1 14638215737496969050
13132413 78 17903616515678111922
14817 1 10696897345371198946
16945 1 18129964302669856918
19765921 60 18340764948401096969
19837323 101 18048311442502440412
20233049 118 17632005330852980153
20820808 20 18411984663023299105
21524375 3 18266729354293230757
22112679 90 17404039027958226922
23419403 2 17763233233001865555
25 1 18342184396316607732
298252 57 17917995017912451935
305870 269 18186512224372685280
427121 178 17167870750931011305
430814 3 18041827540734322649
549884 4 16486968527223927981
6442390 28 18115882947969813923
7364860 26 18041835087218656683
81228 2 17028533159652096850

>  <PUBCHEM_SHAPE_MULTIPOLES>  (1) 
305.55
5.14
2.22
1.74
7.8
0.38
0.13
-3.43
-0.64
-2
0.38
-0.37
0.55
-0.18

>  <PUBCHEM_SHAPE_SELFOVERLAP>  (1) 
608.93

>  <PUBCHEM_SHAPE_VOLUME>  (1) 
182.9

>  <PUBCHEM_COORDINATE_TYPE>  (1) 
2
5
10

$$$$
