48729
     RDKit          3D

 19 19  0  0  1  0  0  0  0  0999 V2000
   -0.0644    0.2621    2.0927 O   0  0  0  0  0  0  0  0  0  0  0  0
    1.4413   -0.0638   -2.3432 O   0  0  0  0  0  0  0  0  0  0  0  0
    1.6689   -3.6705    0.4846 O   0  0  0  0  0  0  0  0  0  0  0  0
    0.8927   -1.6725    1.3158 N   0  0  0  0  0  0  0  0  0  0  0  0
    1.6454   -1.8352   -0.8998 N   0  0  0  0  0  0  0  0  0  0  0  0
    0.3148    1.5877   -0.3615 C   0  0  0  0  0  0  0  0  0  0  0  0
    1.1973    0.3922    0.0260 C   0  0  0  0  0  0  0  0  0  0  0  0
   -1.0278    1.1262   -0.9660 C   0  0  0  0  0  0  0  0  0  0  0  0
    0.1739    2.5411    0.8399 C   0  0  0  0  0  0  0  0  0  0  0  0
    2.5832    0.9025    0.4591 C   0  0  0  0  0  0  0  0  0  0  0  0
   -1.9287    0.3250   -0.0203 C   0  0  0  0  0  0  0  0  0  0  0  0
    0.5886   -0.3223    1.2285 C   0  0  0  0  0  0  0  0  0  0  0  0
    1.4107   -0.5001   -1.1926 C   0  0  0  0  0  0  0  0  0  0  0  0
   -3.2627   -0.0175   -0.6896 C   0  0  0  0  0  0  0  0  0  0  0  0
   -0.6804    3.7670    0.5508 C   0  0  0  0  0  0  0  0  0  0  0  0
    3.2264    1.7197   -0.6387 C   0  0  0  0  0  0  0  0  0  0  0  0
    1.4351   -2.4724    0.3172 C   0  0  0  0  0  0  0  0  0  0  0  0
   -4.1512   -0.8494    0.2351 C   0  0  0  0  0  0  0  0  0  0  0  0
   -5.4631   -1.2198   -0.4381 C   0  0  0  0  0  0  0  0  0  0  0  0
  1 12  2  0
  2 13  2  0
  3 17  2  0
  4 12  1  0
  4 17  1  0
  5 13  1  0
  5 17  1  0
  6  7  1  0
  6  8  1  0
  6  9  1  0
  7 10  1  0
  7 12  1  0
  7 13  1  0
  8 11  1  0
  9 15  1  0
 10 16  1  0
 11 14  1  0
 14 18  1  0
 18 19  1  0
M  END
>  <PUBCHEM_COMPOUND_CID>  (1) 
48729

>  <PUBCHEM_CONFORMER_RMSD>  (1) 
0.8

>  <PUBCHEM_CONFORMER_DIVERSEORDER>  (1) 
1
10
16
5
17
12
18
13
3
15
4
8
6
14
9
7
11
2

>  <PUBCHEM_MMFF94_PARTIAL_CHARGES>  (1) 
11
1 -0.57
12 0.57
13 0.57
17 0.69
2 -0.57
3 -0.57
37 0.37
38 0.37
4 -0.49
5 -0.49
7 0.12

>  <PUBCHEM_EFFECTIVE_ROTOR_COUNT>  (1) 
7.6

>  <PUBCHEM_PHARMACOPHORE_FEATURES>  (1) 
11
1 1 acceptor
1 15 hydrophobe
1 16 hydrophobe
1 19 hydrophobe
1 2 acceptor
1 3 acceptor
1 4 donor
1 5 donor
3 11 14 18 hydrophobe
3 6 8 9 hydrophobe
6 4 5 7 12 13 17 rings

>  <PUBCHEM_HEAVY_ATOM_COUNT>  (1) 
19

>  <PUBCHEM_ATOM_DEF_STEREO_COUNT>  (1) 
0

>  <PUBCHEM_ATOM_UDEF_STEREO_COUNT>  (1) 
1

>  <PUBCHEM_BOND_DEF_STEREO_COUNT>  (1) 
0

>  <PUBCHEM_BOND_UDEF_STEREO_COUNT>  (1) 
0

>  <PUBCHEM_ISOTOPIC_ATOM_COUNT>  (1) 
0

>  <PUBCHEM_COMPONENT_COUNT>  (1) 
1

>  <PUBCHEM_CACTVS_TAUTO_COUNT>  (1) 
5

>  <PUBCHEM_CONFORMER_ID>  (1) 
0000BE5900000001

>  <PUBCHEM_MMFF94_ENERGY>  (1) 
58.3157

>  <PUBCHEM_FEATURE_SELFOVERLAP>  (1) 
55.958

>  <PUBCHEM_SHAPE_FINGERPRINT>  (1) 
10863032 1 17765140680018221482
11067466 332 18113615728969919167
11680611 10 17912656708623869809
12035758 1 17979076312214981680
13083527 12 18263630797714520410
13464513 79 18128817628438765887
14863182 85 18260550051790400383
15001771 113 18120090576657164233
15852999 172 17458925806771662330
16945 1 18128233650367784540
20645477 70 18260817212342532319
21421861 104 18263930938503009625
21452121 199 18192414308370229259
21452121 71 17976823090872518462
21452121 99 17243593175869003355
2255824 54 18194960975359257709
23184049 29 18124591981603797205
23419403 2 17032411970429149136
3060560 45 18265889349174239301
4175511 335 18260826016455582167
54040823 5 18342460386862512151

>  <PUBCHEM_SHAPE_MULTIPOLES>  (1) 
363.44
5.82
3.49
1.47
11.21
0.01
-0.11
1.75
-1.28
-1.82
0.95
-0.58
0.12
-0.2

>  <PUBCHEM_SHAPE_SELFOVERLAP>  (1) 
731.115

>  <PUBCHEM_SHAPE_VOLUME>  (1) 
210.2

>  <PUBCHEM_COORDINATE_TYPE>  (1) 
2
5
10

$$$$
