48721
     RDKit          3D

 19 19  0  0  0  0  0  0  0  0999 V2000
   -0.0385   -0.3530    1.9317 O   0  0  0  0  0  0  0  0  0  0  0  0
    0.5020    0.8078   -2.5861 O   0  0  0  0  0  0  0  0  0  0  0  0
    3.7665    1.7695    0.4918 O   0  0  0  0  0  0  0  0  0  0  0  0
    1.9038    0.6184    1.1924 N   0  0  0  0  0  0  0  0  0  0  0  0
    2.1734    1.1989   -1.0643 N   0  0  0  0  0  0  0  0  0  0  0  0
    0.3682   -0.3485   -0.4588 C   0  0  0  0  0  0  0  0  0  0  0  0
   -1.1546   -0.3920   -0.6522 C   0  0  0  0  0  0  0  0  0  0  0  0
   -1.8577    0.9638   -0.4175 C   0  0  0  0  0  0  0  0  0  0  0  0
    0.9573   -1.7411   -0.7464 C   0  0  0  0  0  0  0  0  0  0  0  0
   -3.3578    0.8118   -0.7551 C   0  0  0  0  0  0  0  0  0  0  0  0
   -1.5998    1.5560    0.9850 C   0  0  0  0  0  0  0  0  0  0  0  0
    0.6883   -0.0198    0.9960 C   0  0  0  0  0  0  0  0  0  0  0  0
    0.9831    0.6140   -1.4700 C   0  0  0  0  0  0  0  0  0  0  0  0
    0.3274   -2.8095    0.1022 C   0  0  0  0  0  0  0  0  0  0  0  0
   -4.1046   -0.1491    0.1588 C   0  0  0  0  0  0  0  0  0  0  0  0
   -2.2278    2.9198    1.2364 C   0  0  0  0  0  0  0  0  0  0  0  0
    2.6977    1.2187    0.2226 C   0  0  0  0  0  0  0  0  0  0  0  0
   -0.8658   -3.5240   -0.4641 C   0  0  0  0  0  0  0  0  0  0  0  0
    0.8390   -3.1415    1.2977 C   0  0  0  0  0  0  0  0  0  0  0  0
  1 12  2  0
  2 13  2  0
  3 17  2  0
  4 12  1  0
  4 17  1  0
  5 13  1  0
  5 17  1  0
  6  7  1  0
  6  9  1  0
  6 12  1  0
  6 13  1  0
  7  8  1  0
  8 10  1  0
  8 11  1  0
  9 14  1  0
 10 15  1  0
 11 16  1  0
 14 18  1  0
 14 19  2  0
M  END
>  <PUBCHEM_COMPOUND_CID>  (1) 
48721

>  <PUBCHEM_CONFORMER_RMSD>  (1) 
0.8

>  <PUBCHEM_CONFORMER_DIVERSEORDER>  (1) 
2
1
3

>  <PUBCHEM_MMFF94_PARTIAL_CHARGES>  (1) 
17
1 -0.57
12 0.57
13 0.57
14 -0.28
17 0.69
18 0.14
19 -0.3
2 -0.57
3 -0.57
35 0.37
36 0.37
4 -0.49
40 0.15
41 0.15
5 -0.49
6 0.12
9 0.14

>  <PUBCHEM_EFFECTIVE_ROTOR_COUNT>  (1) 
6.6

>  <PUBCHEM_PHARMACOPHORE_FEATURES>  (1) 
9
1 1 acceptor
1 15 hydrophobe
1 16 hydrophobe
1 2 acceptor
1 3 acceptor
1 4 donor
1 5 donor
4 7 8 10 11 hydrophobe
6 4 5 6 12 13 17 rings

>  <PUBCHEM_HEAVY_ATOM_COUNT>  (1) 
19

>  <PUBCHEM_ATOM_DEF_STEREO_COUNT>  (1) 
0

>  <PUBCHEM_ATOM_UDEF_STEREO_COUNT>  (1) 
0

>  <PUBCHEM_BOND_DEF_STEREO_COUNT>  (1) 
0

>  <PUBCHEM_BOND_UDEF_STEREO_COUNT>  (1) 
0

>  <PUBCHEM_ISOTOPIC_ATOM_COUNT>  (1) 
0

>  <PUBCHEM_COMPONENT_COUNT>  (1) 
1

>  <PUBCHEM_CACTVS_TAUTO_COUNT>  (1) 
5

>  <PUBCHEM_CONFORMER_ID>  (1) 
0000BE5100000002

>  <PUBCHEM_MMFF94_ENERGY>  (1) 
60.2097

>  <PUBCHEM_FEATURE_SELFOVERLAP>  (1) 
45.767

>  <PUBCHEM_SHAPE_FINGERPRINT>  (1) 
10922049 32 18408602586852331450
12326174 3 17532378569079609725
12423570 1 9819427104383498458
12716301 132 18053366988482911699
12788726 201 17757840304993546646
13134695 92 17185607814506592929
14617773 55 17246393679461515748
14787075 74 18055344993042956805
14817 1 15294316998606973598
15852999 172 17968101919180200473
15906896 17 17679590209553999626
16945 1 17560508586218177204
21524375 3 18343578547259600624
23402539 116 18129934701729230116
23419403 2 12628622662785207804
23557571 272 17765443428037170556
3052486 1 18050837021265953575
305870 269 18339083661941551688
427121 178 18271534181800039819
528886 8 15123790712192506405
576247 118 17183051454140068598
7364860 26 18194680371886062903
81228 2 17905906020804207194

>  <PUBCHEM_SHAPE_MULTIPOLES>  (1) 
363.44
4.48
3.51
1.67
3.54
2.75
-0.32
-2.53
0.45
-1.45
0.77
-0.27
-0.37
-0.71

>  <PUBCHEM_SHAPE_SELFOVERLAP>  (1) 
737.609

>  <PUBCHEM_SHAPE_VOLUME>  (1) 
208.6

>  <PUBCHEM_COORDINATE_TYPE>  (1) 
2
5
10

$$$$
