48734
     RDKit          3D

 17 17  0  0  1  0  0  0  0  0999 V2000
    0.3843    2.1645   -0.1066 O   0  0  0  0  0  0  0  0  0  0  0  0
   -0.8627   -2.2799   -0.4801 O   0  0  0  0  0  0  0  0  0  0  0  0
    3.5798   -1.2052   -0.2469 O   0  0  0  0  0  0  0  0  0  0  0  0
    2.0331    0.5251    0.0100 N   0  0  0  0  0  0  0  0  0  0  0  0
    1.3539   -1.7194   -0.2925 N   0  0  0  0  0  0  0  0  0  0  0  0
   -0.3230   -0.0875    0.3991 C   0  0  0  0  0  0  0  0  0  0  0  0
   -1.7160    0.3565   -0.0743 C   0  0  0  0  0  0  0  0  0  0  0  0
   -0.3373   -0.2361    1.9313 C   0  0  0  0  0  0  0  0  0  0  0  0
   -2.8086   -0.6235    0.3963 C   0  0  0  0  0  0  0  0  0  0  0  0
   -1.7741    0.4826   -1.6094 C   0  0  0  0  0  0  0  0  0  0  0  0
    0.7075    0.9864    0.0556 C   0  0  0  0  0  0  0  0  0  0  0  0
   -0.0011   -1.4521   -0.1875 C   0  0  0  0  0  0  0  0  0  0  0  0
   -0.6838    1.0756    2.5986 C   0  0  0  0  0  0  0  0  0  0  0  0
   -4.2156   -0.2335   -0.0351 C   0  0  0  0  0  0  0  0  0  0  0  0
   -0.8423    1.5440   -2.1779 C   0  0  0  0  0  0  0  0  0  0  0  0
    2.4104   -0.8208   -0.1616 C   0  0  0  0  0  0  0  0  0  0  0  0
    3.0955    1.5234   -0.0190 C   0  0  0  0  0  0  0  0  0  0  0  0
  1 11  2  0
  2 12  2  0
  3 16  2  0
  4 11  1  0
  4 16  1  0
  4 17  1  0
  5 12  1  0
  5 16  1  0
  6  7  1  0
  6  8  1  0
  6 11  1  0
  6 12  1  0
  7  9  1  0
  7 10  1  0
  8 13  1  0
  9 14  1  0
 10 15  1  0
M  END
>  <PUBCHEM_COMPOUND_CID>  (1) 
48734

>  <PUBCHEM_CONFORMER_RMSD>  (1) 
0.6

>  <PUBCHEM_CONFORMER_DIVERSEORDER>  (1) 
1
8
5
7
3
4
6
2

>  <PUBCHEM_MMFF94_PARTIAL_CHARGES>  (1) 
11
1 -0.57
11 0.57
12 0.57
16 0.69
17 0.3
2 -0.57
3 -0.57
34 0.37
4 -0.42
5 -0.49
6 0.12

>  <PUBCHEM_EFFECTIVE_ROTOR_COUNT>  (1) 
4.6

>  <PUBCHEM_PHARMACOPHORE_FEATURES>  (1) 
8
1 1 acceptor
1 13 hydrophobe
1 14 hydrophobe
1 15 hydrophobe
1 2 acceptor
1 3 acceptor
1 5 donor
6 4 5 6 11 12 16 rings

>  <PUBCHEM_HEAVY_ATOM_COUNT>  (1) 
17

>  <PUBCHEM_ATOM_DEF_STEREO_COUNT>  (1) 
0

>  <PUBCHEM_ATOM_UDEF_STEREO_COUNT>  (1) 
1

>  <PUBCHEM_BOND_DEF_STEREO_COUNT>  (1) 
0

>  <PUBCHEM_BOND_UDEF_STEREO_COUNT>  (1) 
0

>  <PUBCHEM_ISOTOPIC_ATOM_COUNT>  (1) 
0

>  <PUBCHEM_COMPONENT_COUNT>  (1) 
1

>  <PUBCHEM_CACTVS_TAUTO_COUNT>  (1) 
3

>  <PUBCHEM_CONFORMER_ID>  (1) 
0000BE5E00000001

>  <PUBCHEM_MMFF94_ENERGY>  (1) 
62.1394

>  <PUBCHEM_FEATURE_SELFOVERLAP>  (1) 
40.597

>  <PUBCHEM_SHAPE_FINGERPRINT>  (1) 
10353120 184 17022895778963457549
10863032 1 18339927137752242671
11578080 2 17200476720760519225
12403814 3 18187916330833638183
12423570 1 14041789009136729953
13024252 1 15719687480105929178
144361 1 18187091688475470176
14617773 55 17560530507984275576
14817 1 10173724844924985579
15219456 202 18260822691976815149
15375462 478 17489311841149509299
15775835 57 18336551637165623406
16945 1 18268429216528470413
17844478 74 18040716952575586661
20511035 2 16955646521009533141
22112679 90 16128075828473063789
22344851 262 17972320878144661437
22802520 49 17969207941646198468
23419403 2 16907723142829298826
23559900 14 17630612434879493600
2748010 2 18263629706613440156
3286 77 18410294692034022764
45790113 50 17845947246649326638
5084963 1 17603872143733051612
528886 8 18340198695538625657
54276843 12 17703506580317450591
68250623 7 17170661182302962195
77492 1 17489873738825419553

>  <PUBCHEM_SHAPE_MULTIPOLES>  (1) 
322.28
4.62
1.94
1.76
0.37
0.1
-1.01
-0.48
0.6
-0.62
0.68
0.69
0.54
0.52

>  <PUBCHEM_SHAPE_SELFOVERLAP>  (1) 
659.547

>  <PUBCHEM_SHAPE_VOLUME>  (1) 
184.4

>  <PUBCHEM_COORDINATE_TYPE>  (1) 
2
5
10

$$$$
