48731
     RDKit          3D

 19 19  0  0  1  0  0  0  0  0999 V2000
   -1.1787    1.0448    2.2315 O   0  0  0  0  0  0  0  0  0  0  0  0
   -0.4116   -0.3858   -2.1748 O   0  0  0  0  0  0  0  0  0  0  0  0
   -2.5663   -3.0996    0.8333 O   0  0  0  0  0  0  0  0  0  0  0  0
   -1.9586   -0.9858    1.5028 N   0  0  0  0  0  0  0  0  0  0  0  0
   -1.5750   -1.7006   -0.6981 N   0  0  0  0  0  0  0  0  0  0  0  0
   -1.2567    0.6726   -0.1634 C   0  0  0  0  0  0  0  0  0  0  0  0
    1.2316    1.1898    0.2891 C   0  0  0  0  0  0  0  0  0  0  0  0
   -0.1095    1.6853   -0.2924 C   0  0  0  0  0  0  0  0  0  0  0  0
    1.7281   -0.1364   -0.3340 C   0  0  0  0  0  0  0  0  0  0  0  0
   -2.5727    1.3357   -0.6079 C   0  0  0  0  0  0  0  0  0  0  0  0
    2.3252    2.2770    0.1914 C   0  0  0  0  0  0  0  0  0  0  0  0
   -1.4272    0.2791    1.3005 C   0  0  0  0  0  0  0  0  0  0  0  0
   -1.0083   -0.5018   -1.1046 C   0  0  0  0  0  0  0  0  0  0  0  0
    3.0838   -0.6318    0.1808 C   0  0  0  0  0  0  0  0  0  0  0  0
   -2.5125    1.7339   -2.0654 C   0  0  0  0  0  0  0  0  0  0  0  0
    1.9540    3.5814    0.8850 C   0  0  0  0  0  0  0  0  0  0  0  0
    3.5060   -1.9178   -0.5327 C   0  0  0  0  0  0  0  0  0  0  0  0
   -2.0831   -1.9995    0.5604 C   0  0  0  0  0  0  0  0  0  0  0  0
    4.8314   -2.4405   -0.0014 C   0  0  0  0  0  0  0  0  0  0  0  0
  1 12  2  0
  2 13  2  0
  3 18  2  0
  4 12  1  0
  4 18  1  0
  5 13  1  0
  5 18  1  0
  6  8  1  0
  6 10  1  0
  6 12  1  0
  6 13  1  0
  7  8  1  0
  7  9  1  0
  7 11  1  0
  9 14  1  0
 10 15  1  0
 11 16  1  0
 14 17  1  0
 17 19  1  0
M  END
>  <PUBCHEM_COMPOUND_CID>  (1) 
48731

>  <PUBCHEM_CONFORMER_RMSD>  (1) 
0.8

>  <PUBCHEM_CONFORMER_DIVERSEORDER>  (1) 
1
7
8
5
4
3
6
9
2

>  <PUBCHEM_MMFF94_PARTIAL_CHARGES>  (1) 
11
1 -0.57
12 0.57
13 0.57
18 0.69
2 -0.57
3 -0.57
39 0.37
4 -0.49
40 0.37
5 -0.49
6 0.12

>  <PUBCHEM_EFFECTIVE_ROTOR_COUNT>  (1) 
7.6

>  <PUBCHEM_PHARMACOPHORE_FEATURES>  (1) 
10
1 1 acceptor
1 15 hydrophobe
1 16 hydrophobe
1 19 hydrophobe
1 2 acceptor
1 3 acceptor
1 4 donor
1 5 donor
6 4 5 6 12 13 18 rings
6 7 8 9 11 14 17 hydrophobe

>  <PUBCHEM_HEAVY_ATOM_COUNT>  (1) 
19

>  <PUBCHEM_ATOM_DEF_STEREO_COUNT>  (1) 
0

>  <PUBCHEM_ATOM_UDEF_STEREO_COUNT>  (1) 
1

>  <PUBCHEM_BOND_DEF_STEREO_COUNT>  (1) 
0

>  <PUBCHEM_BOND_UDEF_STEREO_COUNT>  (1) 
0

>  <PUBCHEM_ISOTOPIC_ATOM_COUNT>  (1) 
0

>  <PUBCHEM_COMPONENT_COUNT>  (1) 
1

>  <PUBCHEM_CACTVS_TAUTO_COUNT>  (1) 
5

>  <PUBCHEM_CONFORMER_ID>  (1) 
0000BE5B00000001

>  <PUBCHEM_MMFF94_ENERGY>  (1) 
47.3819

>  <PUBCHEM_FEATURE_SELFOVERLAP>  (1) 
50.788

>  <PUBCHEM_SHAPE_FINGERPRINT>  (1) 
11315181 36 17487884632946279330
12553582 1 18126859205262181998
12633257 1 18055946279526523827
12788726 201 17763451830332128482
14115302 16 18042411235843741414
14142880 1 17414151300744238632
14223421 5 18194402414471710912
14863182 85 17252040814026457538
15422964 175 17828210126986761379
16945 1 18126261083420829189
19930381 70 17615688432099662763
21069387 34 17988343889419057276
229495 10 18055626463566314669
23419403 2 17916286394666387387
23557571 272 17460301390075221119
23559900 14 18261387914126263092
2748010 2 18338225080883575932
3250762 1 18335973276569272845
44249140 249 18122055670139875137
5845 1 12606264313094024909
6992083 37 17774719749852378164
81228 2 17677329558298085085
9709674 26 18337656616060030870
9981440 41 17409039967476680801

>  <PUBCHEM_SHAPE_MULTIPOLES>  (1) 
363.44
5.77
3.55
1.66
7.34
0.74
-0.09
-3.7
-0.67
1.12
0.94
-1.44
0.22
1.49

>  <PUBCHEM_SHAPE_SELFOVERLAP>  (1) 
726.101

>  <PUBCHEM_SHAPE_VOLUME>  (1) 
212

>  <PUBCHEM_COORDINATE_TYPE>  (1) 
2
5
10

$$$$
