48732
     RDKit          3D

 18 18  0  0  0  0  0  0  0  0999 V2000
    2.9392    0.5611    1.7621 O   0  0  0  0  0  0  0  0  0  0  0  0
   -0.0984    1.0258   -1.7885 O   0  0  0  0  0  0  0  0  0  0  0  0
    2.2170   -2.8883   -1.1767 O   0  0  0  0  0  0  0  0  0  0  0  0
    2.5032   -1.1946    0.3513 N   0  0  0  0  0  0  0  0  0  0  0  0
    0.9862   -0.9621   -1.4227 N   0  0  0  0  0  0  0  0  0  0  0  0
    0.9586    0.7116    0.3711 C   0  0  0  0  0  0  0  0  0  0  0  0
   -0.1873    0.2544    1.2914 C   0  0  0  0  0  0  0  0  0  0  0  0
    1.0966    2.2387    0.4530 C   0  0  0  0  0  0  0  0  0  0  0  0
    2.2352    0.0558    0.8880 C   0  0  0  0  0  0  0  0  0  0  0  0
    0.5774    0.3096   -1.0502 C   0  0  0  0  0  0  0  0  0  0  0  0
   -1.5148    0.7573    0.8011 C   0  0  0  0  0  0  0  0  0  0  0  0
    2.2416    2.7288   -0.4067 C   0  0  0  0  0  0  0  0  0  0  0  0
   -2.5645    0.0232    0.3808 C   0  0  0  0  0  0  0  0  0  0  0  0
   -3.8152    0.7145   -0.1223 C   0  0  0  0  0  0  0  0  0  0  0  0
   -2.5886   -1.4886    0.3758 C   0  0  0  0  0  0  0  0  0  0  0  0
    1.9106   -1.7670   -0.7678 C   0  0  0  0  0  0  0  0  0  0  0  0
   -3.7727    0.9787   -1.6212 C   0  0  0  0  0  0  0  0  0  0  0  0
   -3.1241   -2.0588    1.6815 C   0  0  0  0  0  0  0  0  0  0  0  0
  1  9  2  0
  2 10  2  0
  3 16  2  0
  4  9  1  0
  4 16  1  0
  5 10  1  0
  5 16  1  0
  6  7  1  0
  6  8  1  0
  6  9  1  0
  6 10  1  0
  7 11  1  0
  8 12  1  0
 11 13  2  3
 13 14  1  0
 13 15  1  0
 14 17  1  0
 15 18  1  0
M  END
>  <PUBCHEM_COMPOUND_CID>  (1) 
48732

>  <PUBCHEM_CONFORMER_RMSD>  (1) 
0.8

>  <PUBCHEM_CONFORMER_DIVERSEORDER>  (1) 
1
18
23
26
16
13
25
15
30
20
11
8
4
17
14
10
24
22
5
7
29
19
21
27
28
9
31
6
3
12
2

>  <PUBCHEM_MMFF94_PARTIAL_CHARGES>  (1) 
17
1 -0.57
10 0.57
11 -0.29
13 -0.28
14 0.14
15 0.14
16 0.69
2 -0.57
23 0.15
27 0.37
28 0.37
3 -0.57
4 -0.49
5 -0.49
6 0.12
7 0.14
9 0.57

>  <PUBCHEM_EFFECTIVE_ROTOR_COUNT>  (1) 
5.6

>  <PUBCHEM_PHARMACOPHORE_FEATURES>  (1) 
9
1 1 acceptor
1 12 hydrophobe
1 17 hydrophobe
1 18 hydrophobe
1 2 acceptor
1 3 acceptor
1 4 donor
1 5 donor
6 4 5 6 9 10 16 rings

>  <PUBCHEM_HEAVY_ATOM_COUNT>  (1) 
18

>  <PUBCHEM_ATOM_DEF_STEREO_COUNT>  (1) 
0

>  <PUBCHEM_ATOM_UDEF_STEREO_COUNT>  (1) 
0

>  <PUBCHEM_BOND_DEF_STEREO_COUNT>  (1) 
0

>  <PUBCHEM_BOND_UDEF_STEREO_COUNT>  (1) 
0

>  <PUBCHEM_ISOTOPIC_ATOM_COUNT>  (1) 
0

>  <PUBCHEM_COMPONENT_COUNT>  (1) 
1

>  <PUBCHEM_CACTVS_TAUTO_COUNT>  (1) 
5

>  <PUBCHEM_CONFORMER_ID>  (1) 
0000BE5C00000001

>  <PUBCHEM_MMFF94_ENERGY>  (1) 
37.1629

>  <PUBCHEM_FEATURE_SELFOVERLAP>  (1) 
45.712

>  <PUBCHEM_SHAPE_FINGERPRINT>  (1) 
10922523 26 18259989292728774787
11471102 22 17846212203129270594
116883 192 18125436406423666037
12633257 1 18187629302496284905
16945 1 18130790095995046152
18186145 218 18264765468361228009
18981168 100 8862662322684068459
20600515 1 17969499304001757524
20645477 70 18339642347440769595
21069387 34 18059570227313177455
21524375 3 17540549340713283220
23557571 272 17896323683059075049
23559900 14 18409728426898663978
633830 44 17201659953995787808
7364860 26 18340219581954153488
74978 22 18334867086741897481
81228 2 17479758017075167880
9709674 26 18410009953478577819
9925002 15 16391278343701674429

>  <PUBCHEM_SHAPE_MULTIPOLES>  (1) 
342.86
5.71
2.59
1.68
4.52
0.51
-0.19
0.27
0.27
-1.26
-0.49
0.07
0.23
1.66

>  <PUBCHEM_SHAPE_SELFOVERLAP>  (1) 
693.693

>  <PUBCHEM_SHAPE_VOLUME>  (1) 
198.2

>  <PUBCHEM_COORDINATE_TYPE>  (1) 
2
5
10

$$$$
