48736
     RDKit          3D

 16 16  0  0  0  0  0  0  0  0999 V2000
   -0.4066    2.3108    0.0009 O   0  0  0  0  0  0  0  0  0  0  0  0
    0.3410   -2.3117   -0.3515 O   0  0  0  0  0  0  0  0  0  0  0  0
    3.8584    0.6321   -0.2202 O   0  0  0  0  0  0  0  0  0  0  0  0
    1.7250    1.4626   -0.0099 N   0  0  0  0  0  0  0  0  0  0  0  0
    2.0983   -0.8464   -0.1866 N   0  0  0  0  0  0  0  0  0  0  0  0
   -0.1476   -0.0641    0.4167 C   0  0  0  0  0  0  0  0  0  0  0  0
   -1.5650   -0.2506   -0.1440 C   0  0  0  0  0  0  0  0  0  0  0  0
   -0.1870   -0.1877    1.9504 C   0  0  0  0  0  0  0  0  0  0  0  0
   -1.5939   -0.0889   -1.6784 C   0  0  0  0  0  0  0  0  0  0  0  0
   -2.5597    0.7468    0.4859 C   0  0  0  0  0  0  0  0  0  0  0  0
    0.3473    1.3423    0.0944 C   0  0  0  0  0  0  0  0  0  0  0  0
    0.7552   -1.1808   -0.0982 C   0  0  0  0  0  0  0  0  0  0  0  0
   -0.6375   -1.5686    2.3705 C   0  0  0  0  0  0  0  0  0  0  0  0
   -0.7058   -1.0793   -2.4188 C   0  0  0  0  0  0  0  0  0  0  0  0
   -3.9686    0.6544   -0.0835 C   0  0  0  0  0  0  0  0  0  0  0  0
    2.6466    0.4292   -0.1277 C   0  0  0  0  0  0  0  0  0  0  0  0
  1 11  2  0
  2 12  2  0
  3 16  2  0
  4 11  1  0
  4 16  1  0
  5 12  1  0
  5 16  1  0
  6  7  1  0
  6  8  1  0
  6 11  1  0
  6 12  1  0
  7  9  1  0
  7 10  1  0
  8 13  1  0
  9 14  1  0
 10 15  1  0
M  END
>  <PUBCHEM_COMPOUND_CID>  (1) 
48736

>  <PUBCHEM_CONFORMER_RMSD>  (1) 
0.6

>  <PUBCHEM_CONFORMER_DIVERSEORDER>  (1) 
1
3
2
4

>  <PUBCHEM_MMFF94_PARTIAL_CHARGES>  (1) 
11
1 -0.57
11 0.57
12 0.57
16 0.69
2 -0.57
3 -0.57
33 0.37
34 0.37
4 -0.49
5 -0.49
6 0.12

>  <PUBCHEM_EFFECTIVE_ROTOR_COUNT>  (1) 
4.6

>  <PUBCHEM_PHARMACOPHORE_FEATURES>  (1) 
9
1 1 acceptor
1 13 hydrophobe
1 14 hydrophobe
1 15 hydrophobe
1 2 acceptor
1 3 acceptor
1 4 donor
1 5 donor
6 4 5 6 11 12 16 rings

>  <PUBCHEM_HEAVY_ATOM_COUNT>  (1) 
16

>  <PUBCHEM_ATOM_DEF_STEREO_COUNT>  (1) 
0

>  <PUBCHEM_ATOM_UDEF_STEREO_COUNT>  (1) 
0

>  <PUBCHEM_BOND_DEF_STEREO_COUNT>  (1) 
0

>  <PUBCHEM_BOND_UDEF_STEREO_COUNT>  (1) 
0

>  <PUBCHEM_ISOTOPIC_ATOM_COUNT>  (1) 
0

>  <PUBCHEM_COMPONENT_COUNT>  (1) 
1

>  <PUBCHEM_CACTVS_TAUTO_COUNT>  (1) 
5

>  <PUBCHEM_CONFORMER_ID>  (1) 
0000BE6000000001

>  <PUBCHEM_MMFF94_ENERGY>  (1) 
59.5057

>  <PUBCHEM_FEATURE_SELFOVERLAP>  (1) 
45.712

>  <PUBCHEM_SHAPE_FINGERPRINT>  (1) 
10702982 57 18131349756193266991
10863032 1 18411422808328840155
12138202 97 17749685072172586866
12326174 3 17970605438389885187
12423570 1 14291645029240573954
12491281 212 18271821076856718713
13024252 1 17967536813089964244
13380536 243 17560506318865776837
144361 1 17845947207841795934
14817 1 17387710524181598755
14993402 34 17775280556480274157
15219459 28 18042709301862833339
15557651 10 17604414288912370301
15775835 57 18060421309036501196
16945 1 18340210669976103081
20511035 2 17972331864792655036
21501502 16 17315936625618258800
22112679 90 17984104202573238143
22344851 262 18201434817702084068
22344851 341 17827918421149895600
23402539 116 17603578651374653628
23419403 2 16909530606786020439
23559900 14 18040719199803902944
25 1 18334292046081049829
2748010 2 18121232131994321736
298252 57 18202281398900756501
528886 8 18341887502380605857
5337951 7 18187663391740948481
68250623 7 17908150875713686705

>  <PUBCHEM_SHAPE_MULTIPOLES>  (1) 
301.7
4.14
1.87
1.82
0.09
1.11
0.28
-1.04
-1.35
-0.6
0.7
0.1
-0.52
0.37

>  <PUBCHEM_SHAPE_SELFOVERLAP>  (1) 
618.042

>  <PUBCHEM_SHAPE_VOLUME>  (1) 
171.2

>  <PUBCHEM_COORDINATE_TYPE>  (1) 
2
5
10

$$$$
