48744
     RDKit          3D

 16 16  0  0  1  0  0  0  0  0999 V2000
    2.3153    0.4763   -0.6220 S   0  0  0  0  0  0  0  0  0  0  0  0
   -0.0239   -1.7175   -1.2261 O   0  0  0  0  0  0  0  0  0  0  0  0
    0.5071    1.9372    1.5682 O   0  0  0  0  0  0  0  0  0  0  0  0
   -3.4279    1.4016   -0.7064 O   0  0  0  0  0  0  0  0  0  0  0  0
   -1.8372   -0.2988   -0.8809 N   0  0  0  0  0  0  0  0  0  0  0  0
   -1.4799    1.6086    0.4698 N   0  0  0  0  0  0  0  0  0  0  0  0
    0.0431   -0.2821    0.7135 C   0  0  0  0  0  0  0  0  0  0  0  0
   -0.5652   -1.0651    1.8912 C   0  0  0  0  0  0  0  0  0  0  0  0
    1.5635   -0.5052    0.6953 C   0  0  0  0  0  0  0  0  0  0  0  0
   -0.5770   -0.8341   -0.5686 C   0  0  0  0  0  0  0  0  0  0  0  0
   -0.2487    1.1910    0.9475 C   0  0  0  0  0  0  0  0  0  0  0  0
   -0.2914   -2.5458    1.7550 C   0  0  0  0  0  0  0  0  0  0  0  0
   -2.3374    0.9210   -0.3861 C   0  0  0  0  0  0  0  0  0  0  0  0
   -2.6212   -0.9718   -1.9098 C   0  0  0  0  0  0  0  0  0  0  0  0
    4.0402   -0.0055   -0.3688 C   0  0  0  0  0  0  0  0  0  0  0  0
    4.9405    0.6903   -1.3718 C   0  0  0  0  0  0  0  0  0  0  0  0
  1  9  1  0
  1 15  1  0
  2 10  2  0
  3 11  2  0
  4 13  2  0
  5 10  1  0
  5 13  1  0
  5 14  1  0
  6 11  1  0
  6 13  1  0
  7  8  1  0
  7  9  1  0
  7 10  1  0
  7 11  1  0
  8 12  1  0
 15 16  1  0
M  END
>  <PUBCHEM_COMPOUND_CID>  (1) 
48744

>  <PUBCHEM_CONFORMER_RMSD>  (1) 
0.6

>  <PUBCHEM_CONFORMER_DIVERSEORDER>  (1) 
1
14
12
3
22
16
5
10
18
13
9
6
23
17
15
11
4
20
19
7
8
24
21
2

>  <PUBCHEM_MMFF94_PARTIAL_CHARGES>  (1) 
14
1 -0.46
10 0.57
11 0.57
13 0.69
14 0.3
15 0.23
2 -0.57
24 0.37
3 -0.57
4 -0.57
5 -0.42
6 -0.49
7 0.12
9 0.23

>  <PUBCHEM_EFFECTIVE_ROTOR_COUNT>  (1) 
4.6

>  <PUBCHEM_PHARMACOPHORE_FEATURES>  (1) 
7
1 12 hydrophobe
1 16 hydrophobe
1 2 acceptor
1 3 acceptor
1 4 acceptor
1 6 donor
6 5 6 7 10 11 13 rings

>  <PUBCHEM_HEAVY_ATOM_COUNT>  (1) 
16

>  <PUBCHEM_ATOM_DEF_STEREO_COUNT>  (1) 
0

>  <PUBCHEM_ATOM_UDEF_STEREO_COUNT>  (1) 
1

>  <PUBCHEM_BOND_DEF_STEREO_COUNT>  (1) 
0

>  <PUBCHEM_BOND_UDEF_STEREO_COUNT>  (1) 
0

>  <PUBCHEM_ISOTOPIC_ATOM_COUNT>  (1) 
0

>  <PUBCHEM_COMPONENT_COUNT>  (1) 
1

>  <PUBCHEM_CACTVS_TAUTO_COUNT>  (1) 
3

>  <PUBCHEM_CONFORMER_ID>  (1) 
0000BE6800000001

>  <PUBCHEM_MMFF94_ENERGY>  (1) 
40.4778

>  <PUBCHEM_FEATURE_SELFOVERLAP>  (1) 
35.522

>  <PUBCHEM_SHAPE_FINGERPRINT>  (1) 
11315181 36 18272378564613844868
12173636 292 17967258598014582404
12423570 1 9026003991900352643
13024252 1 18187661239867407098
13214271 11 13262394488266419742
14817 1 15805189094869228043
15775835 57 18261390005706822980
16945 1 18199730570468382075
18186145 218 17822283536153843990
19765921 60 18263079924866081513
20645476 183 18260829306347698678
20671657 53 16773798142778723608
20871999 31 17988637527590052492
21296965 67 13254788023596093938
21524375 3 17694243075085393160
22802520 49 17626931320665906287
2306618 200 16701474376916910610
23382010 3 18187915231432767060
23419403 2 17832158481810408115
23559900 14 18334299791041318532
27216 239 15502949643947926140
2748010 2 17771310297460035125
528886 8 17774427305286528743

>  <PUBCHEM_SHAPE_MULTIPOLES>  (1) 
305.55
5.66
2.05
1.82
7.87
1.71
0.11
-3.68
2.58
-0.81
-0.53
-0.83
-0.21
-0.27

>  <PUBCHEM_SHAPE_SELFOVERLAP>  (1) 
605.516

>  <PUBCHEM_SHAPE_VOLUME>  (1) 
184.6

>  <PUBCHEM_COORDINATE_TYPE>  (1) 
2
5
10

$$$$
