48748
     RDKit          3D

 18 18  0  0  1  0  0  0  0  0999 V2000
   -1.3172    1.5291    1.8567 O   0  0  0  0  0  0  0  0  0  0  0  0
   -0.4212   -0.5048   -2.2797 O   0  0  0  0  0  0  0  0  0  0  0  0
   -3.0872   -2.5774    0.8271 O   0  0  0  0  0  0  0  0  0  0  0  0
   -2.2805   -0.4773    1.3008 N   0  0  0  0  0  0  0  0  0  0  0  0
   -1.8324   -1.4935   -0.7653 N   0  0  0  0  0  0  0  0  0  0  0  0
    1.2224    1.1700    0.1175 C   0  0  0  0  0  0  0  0  0  0  0  0
   -0.0066    1.7350   -0.6259 C   0  0  0  0  0  0  0  0  0  0  0  0
   -1.2722    0.8778   -0.4787 C   0  0  0  0  0  0  0  0  0  0  0  0
    1.5999   -0.2689   -0.3077 C   0  0  0  0  0  0  0  0  0  0  0  0
    2.4416    2.1104   -0.0116 C   0  0  0  0  0  0  0  0  0  0  0  0
    2.8479   -0.8435    0.3708 C   0  0  0  0  0  0  0  0  0  0  0  0
   -2.4660    1.6222   -1.1033 C   0  0  0  0  0  0  0  0  0  0  0  0
   -1.5896    0.6874    1.0012 C   0  0  0  0  0  0  0  0  0  0  0  0
   -1.1003   -0.4229   -1.2567 C   0  0  0  0  0  0  0  0  0  0  0  0
    2.1809    3.5225    0.4963 C   0  0  0  0  0  0  0  0  0  0  0  0
    3.1628   -2.2456   -0.1546 C   0  0  0  0  0  0  0  0  0  0  0  0
   -2.4587   -1.5787    0.4723 C   0  0  0  0  0  0  0  0  0  0  0  0
    4.3764   -2.8418    0.5408 C   0  0  0  0  0  0  0  0  0  0  0  0
  1 13  2  0
  2 14  2  0
  3 17  2  0
  4 13  1  0
  4 17  1  0
  5 14  1  0
  5 17  1  0
  6  7  1  0
  6  9  1  0
  6 10  1  0
  7  8  1  0
  8 12  1  0
  8 13  1  0
  8 14  1  0
  9 11  1  0
 10 15  1  0
 11 16  1  0
 16 18  1  0
M  END
>  <PUBCHEM_COMPOUND_CID>  (1) 
48748

>  <PUBCHEM_CONFORMER_RMSD>  (1) 
0.8

>  <PUBCHEM_CONFORMER_DIVERSEORDER>  (1) 
1
8
6
7
3
5
2
4

>  <PUBCHEM_MMFF94_PARTIAL_CHARGES>  (1) 
11
1 -0.57
13 0.57
14 0.57
17 0.69
2 -0.57
3 -0.57
36 0.37
37 0.37
4 -0.49
5 -0.49
8 0.12

>  <PUBCHEM_EFFECTIVE_ROTOR_COUNT>  (1) 
6.6

>  <PUBCHEM_PHARMACOPHORE_FEATURES>  (1) 
9
1 1 acceptor
1 15 hydrophobe
1 18 hydrophobe
1 2 acceptor
1 3 acceptor
1 4 donor
1 5 donor
6 4 5 8 13 14 17 rings
6 6 7 9 10 11 16 hydrophobe

>  <PUBCHEM_HEAVY_ATOM_COUNT>  (1) 
18

>  <PUBCHEM_ATOM_DEF_STEREO_COUNT>  (1) 
0

>  <PUBCHEM_ATOM_UDEF_STEREO_COUNT>  (1) 
1

>  <PUBCHEM_BOND_DEF_STEREO_COUNT>  (1) 
0

>  <PUBCHEM_BOND_UDEF_STEREO_COUNT>  (1) 
0

>  <PUBCHEM_ISOTOPIC_ATOM_COUNT>  (1) 
0

>  <PUBCHEM_COMPONENT_COUNT>  (1) 
1

>  <PUBCHEM_CACTVS_TAUTO_COUNT>  (1) 
5

>  <PUBCHEM_CONFORMER_ID>  (1) 
0000BE6C00000001

>  <PUBCHEM_MMFF94_ENERGY>  (1) 
43.8441

>  <PUBCHEM_FEATURE_SELFOVERLAP>  (1) 
45.712

>  <PUBCHEM_SHAPE_FINGERPRINT>  (1) 
12202030 40 17821441374560525350
12553582 1 18124604081038437966
12633257 1 18127153921132625171
12788726 201 17617364088246751970
14115302 16 17896606072520772958
14223421 5 18337110197504322864
14863182 85 17466244336302168906
15076042 46 17916883368860201473
15375462 189 17770505544767990739
15422964 175 17898860311902567539
16945 1 18270412572328142477
17841504 4 18410014334065274546
20344682 10 17764594608838406737
22445834 79 18198915887986236873
229495 10 18197487627114657765
23728640 28 17326035270942831426
238078 22 18193010235794783462
6992083 37 17916575420016106910
7097593 13 18341345421926490192
81228 2 17694217769253843304

>  <PUBCHEM_SHAPE_MULTIPOLES>  (1) 
342.86
5.64
3.58
1.42
4.96
1.04
-0.18
-4.61
1.02
2.31
0.76
-1
0.01
0.42

>  <PUBCHEM_SHAPE_SELFOVERLAP>  (1) 
684.696

>  <PUBCHEM_SHAPE_VOLUME>  (1) 
200

>  <PUBCHEM_COORDINATE_TYPE>  (1) 
2
5
10

$$$$
