48752
     RDKit          3D

 15 15  0  0  0  0  0  0  0  0999 V2000
    0.2279   -0.0880    2.3952 O   0  0  0  0  0  0  0  0  0  0  0  0
    0.1085   -0.6911   -2.3523 O   0  0  0  0  0  0  0  0  0  0  0  0
   -3.0756    1.7805   -0.1727 O   0  0  0  0  0  0  0  0  0  0  0  0
   -1.4284    0.8012    1.0919 N   0  0  0  0  0  0  0  0  0  0  0  0
   -1.4872    0.5052   -1.2321 N   0  0  0  0  0  0  0  0  0  0  0  0
    0.2020   -0.7326    0.0642 C   0  0  0  0  0  0  0  0  0  0  0  0
   -0.2088   -2.1687    0.2528 C   0  0  0  0  0  0  0  0  0  0  0  0
    1.7329   -0.6436    0.0154 C   0  0  0  0  0  0  0  0  0  0  0  0
   -0.3017    0.0208    1.2876 C   0  0  0  0  0  0  0  0  0  0  0  0
   -0.3662   -0.3060   -1.2821 C   0  0  0  0  0  0  0  0  0  0  0  0
   -1.7150   -2.2999    0.3313 C   0  0  0  0  0  0  0  0  0  0  0  0
    2.5037    0.4574   -0.0645 C   0  0  0  0  0  0  0  0  0  0  0  0
   -2.0703    1.0706   -0.1078 C   0  0  0  0  0  0  0  0  0  0  0  0
    4.0055    0.4699   -0.1085 C   0  0  0  0  0  0  0  0  0  0  0  0
    1.8728    1.8242   -0.1183 C   0  0  0  0  0  0  0  0  0  0  0  0
  1  9  2  0
  2 10  2  0
  3 13  2  0
  4  9  1  0
  4 13  1  0
  5 10  1  0
  5 13  1  0
  6  7  1  0
  6  8  1  0
  6  9  1  0
  6 10  1  0
  7 11  1  0
  8 12  2  3
 12 14  1  0
 12 15  1  0
M  END
>  <PUBCHEM_COMPOUND_CID>  (1) 
48752

>  <PUBCHEM_CONFORMER_RMSD>  (1) 
0.6

>  <PUBCHEM_CONFORMER_DIVERSEORDER>  (1) 
1
3
4
2

>  <PUBCHEM_MMFF94_PARTIAL_CHARGES>  (1) 
16
1 -0.57
10 0.57
12 -0.28
13 0.69
14 0.14
15 0.14
18 0.15
2 -0.57
22 0.37
23 0.37
3 -0.57
4 -0.49
5 -0.49
6 0.26
8 -0.29
9 0.57

>  <PUBCHEM_EFFECTIVE_ROTOR_COUNT>  (1) 
2.6

>  <PUBCHEM_PHARMACOPHORE_FEATURES>  (1) 
8
1 1 acceptor
1 11 hydrophobe
1 2 acceptor
1 3 acceptor
1 4 donor
1 5 donor
3 12 14 15 hydrophobe
6 4 5 6 9 10 13 rings

>  <PUBCHEM_HEAVY_ATOM_COUNT>  (1) 
15

>  <PUBCHEM_ATOM_DEF_STEREO_COUNT>  (1) 
0

>  <PUBCHEM_ATOM_UDEF_STEREO_COUNT>  (1) 
0

>  <PUBCHEM_BOND_DEF_STEREO_COUNT>  (1) 
0

>  <PUBCHEM_BOND_UDEF_STEREO_COUNT>  (1) 
0

>  <PUBCHEM_ISOTOPIC_ATOM_COUNT>  (1) 
0

>  <PUBCHEM_COMPONENT_COUNT>  (1) 
1

>  <PUBCHEM_CACTVS_TAUTO_COUNT>  (1) 
5

>  <PUBCHEM_CONFORMER_ID>  (1) 
0000BE7000000001

>  <PUBCHEM_MMFF94_ENERGY>  (1) 
35.2255

>  <PUBCHEM_FEATURE_SELFOVERLAP>  (1) 
40.638

>  <PUBCHEM_SHAPE_FINGERPRINT>  (1) 
10702982 57 18410285900267635679
12119455 92 17822281332392288669
12138202 97 18271814513972565039
12423570 1 17701552924174744503
12491281 212 18259705605253049924
13024252 1 14129324230774709646
13132413 78 17329729015773754267
14817 1 9863309992053334859
15557651 10 17458897146238761340
15775835 57 17894628132532832128
16945 1 18264773348840213171
19837323 101 18339910632140131214
20473742 2 17827352185588657982
20653085 51 18343582966860076108
430814 3 18267851814036556349
5084963 1 18057024844593158085
528886 8 18339351981459659120

>  <PUBCHEM_SHAPE_MULTIPOLES>  (1) 
281.12
3.98
1.98
1.58
3.27
0.43
0.03
-1.64
0.11
-1.32
-0.05
-0.29
0.12
0.08

>  <PUBCHEM_SHAPE_SELFOVERLAP>  (1) 
579.649

>  <PUBCHEM_SHAPE_VOLUME>  (1) 
160.2

>  <PUBCHEM_COORDINATE_TYPE>  (1) 
2
5
10

$$$$
