48757
     RDKit          3D

 17 17  0  0  0  0  0  0  0  0999 V2000
   -1.3813   -0.2890    1.2220 S   0  0  0  0  0  0  0  0  0  0  0  0
    0.0673   -1.7832   -1.2735 O   0  0  0  0  0  0  0  0  0  0  0  0
    1.1266    1.9461    1.3761 O   0  0  0  0  0  0  0  0  0  0  0  0
    4.2028   -1.3856    0.6748 O   0  0  0  0  0  0  0  0  0  0  0  0
    2.1657   -1.5342   -0.3804 N   0  0  0  0  0  0  0  0  0  0  0  0
    2.6945    0.3284    0.9437 N   0  0  0  0  0  0  0  0  0  0  0  0
    0.6765    0.4144   -0.4492 C   0  0  0  0  0  0  0  0  0  0  0  0
    1.1227    1.1814   -1.7068 C   0  0  0  0  0  0  0  0  0  0  0  0
   -0.8187    0.6658   -0.2053 C   0  0  0  0  0  0  0  0  0  0  0  0
    0.9058   -1.0682   -0.7254 C   0  0  0  0  0  0  0  0  0  0  0  0
    1.4838    0.9673    0.7211 C   0  0  0  0  0  0  0  0  0  0  0  0
   -3.1159    0.2233    1.2240 C   0  0  0  0  0  0  0  0  0  0  0  0
   -3.9188   -0.1657   -0.0291 C   0  0  0  0  0  0  0  0  0  0  0  0
    0.9628    2.6729   -1.5159 C   0  0  0  0  0  0  0  0  0  0  0  0
    3.1046   -0.8903    0.4165 C   0  0  0  0  0  0  0  0  0  0  0  0
   -3.9347   -1.6756   -0.2765 C   0  0  0  0  0  0  0  0  0  0  0  0
   -5.3436    0.3922   -0.0160 C   0  0  0  0  0  0  0  0  0  0  0  0
  1  9  1  0
  1 12  1  0
  2 10  2  0
  3 11  2  0
  4 15  2  0
  5 10  1  0
  5 15  1  0
  6 11  1  0
  6 15  1  0
  7  8  1  0
  7  9  1  0
  7 10  1  0
  7 11  1  0
  8 14  1  0
 12 13  1  0
 13 16  1  0
 13 17  1  0
M  END
>  <PUBCHEM_COMPOUND_CID>  (1) 
48757

>  <PUBCHEM_CONFORMER_RMSD>  (1) 
0.8

>  <PUBCHEM_CONFORMER_DIVERSEORDER>  (1) 
1
11
8
12
9
3
10
7
6
5
4
2

>  <PUBCHEM_MMFF94_PARTIAL_CHARGES>  (1) 
14
1 -0.46
10 0.57
11 0.57
12 0.23
15 0.69
2 -0.57
28 0.37
29 0.37
3 -0.57
4 -0.57
5 -0.49
6 -0.49
7 0.12
9 0.23

>  <PUBCHEM_EFFECTIVE_ROTOR_COUNT>  (1) 
5.6

>  <PUBCHEM_PHARMACOPHORE_FEATURES>  (1) 
9
1 14 hydrophobe
1 2 acceptor
1 3 acceptor
1 4 acceptor
1 5 donor
1 6 donor
3 13 16 17 hydrophobe
4 1 9 12 13 hydrophobe
6 5 6 7 10 11 15 rings

>  <PUBCHEM_HEAVY_ATOM_COUNT>  (1) 
17

>  <PUBCHEM_ATOM_DEF_STEREO_COUNT>  (1) 
0

>  <PUBCHEM_ATOM_UDEF_STEREO_COUNT>  (1) 
0

>  <PUBCHEM_BOND_DEF_STEREO_COUNT>  (1) 
0

>  <PUBCHEM_BOND_UDEF_STEREO_COUNT>  (1) 
0

>  <PUBCHEM_ISOTOPIC_ATOM_COUNT>  (1) 
0

>  <PUBCHEM_COMPONENT_COUNT>  (1) 
1

>  <PUBCHEM_CACTVS_TAUTO_COUNT>  (1) 
5

>  <PUBCHEM_CONFORMER_ID>  (1) 
0000BE7500000001

>  <PUBCHEM_MMFF94_ENERGY>  (1) 
45.0284

>  <PUBCHEM_FEATURE_SELFOVERLAP>  (1) 
45.77

>  <PUBCHEM_SHAPE_FINGERPRINT>  (1) 
10366900 7 9511167535605954103
10759866 29 17903080271873944599
10922049 32 12607397789370435820
116883 192 18188492359168626653
12011746 2 18131073714550827406
13134695 92 18187083970387837893
14178342 30 17416706673505194131
14181834 199 18336558208381372260
14863182 85 17775300334593877495
15163728 17 15071478229575607055
15375462 478 16988559069919877049
15848700 24 18040710351036766115
16945 1 18188510041516861110
17834072 14 18201999898307229659
18186145 218 17488761068013830787
192875 21 18335424565038949697
20511035 2 18195532712351503930
21069387 34 18187926222565678003
21730867 7 18202845461298173851
231179 274 10663820750047555099
23402539 116 18114456747716704475
23419403 2 18266152007810276436
2748010 2 17481977944638286518
3286 77 18271802454126254433
347723 3 14273739516958277314
7364860 26 18041570263740813164
74978 22 17458635565888039731
81228 2 17609229960805822564
9971528 1 18259699008320680161

>  <PUBCHEM_SHAPE_MULTIPOLES>  (1) 
326.13
7.5
2.08
1.44
8.83
0.87
-0.02
-2.49
-0.98
-1.35
0.76
-0.35
0.34
-0.42

>  <PUBCHEM_SHAPE_SELFOVERLAP>  (1) 
643.238

>  <PUBCHEM_SHAPE_VOLUME>  (1) 
197.1

>  <PUBCHEM_COORDINATE_TYPE>  (1) 
2
5
10

$$$$
