48750
     RDKit          3D

 19 19  0  0  0  0  0  0  0  0999 V2000
    0.5407    0.2809    0.0319 S   0  0  0  0  0  0  0  0  0  0  0  0
   -1.6913    0.8702   -2.2674 O   0  0  0  0  0  0  0  0  0  0  0  0
   -1.8265   -1.1071    1.9896 O   0  0  0  0  0  0  0  0  0  0  0  0
   -4.8090    2.1828    0.8333 O   0  0  0  0  0  0  0  0  0  0  0  0
   -3.3108    1.4545   -0.7512 N   0  0  0  0  0  0  0  0  0  0  0  0
   -3.3779    0.4672    1.3755 N   0  0  0  0  0  0  0  0  0  0  0  0
   -2.0330   -0.6056   -0.3739 C   0  0  0  0  0  0  0  0  0  0  0  0
   -2.9471   -1.7174   -0.9191 C   0  0  0  0  0  0  0  0  0  0  0  0
   -0.5663   -1.0342   -0.5264 C   0  0  0  0  0  0  0  0  0  0  0  0
   -2.2909    0.6387   -1.2178 C   0  0  0  0  0  0  0  0  0  0  0  0
   -2.3646   -0.4405    1.1059 C   0  0  0  0  0  0  0  0  0  0  0  0
    3.2922    0.3298    0.1387 C   0  0  0  0  0  0  0  0  0  0  0  0
    2.1219   -0.5534   -0.2855 C   0  0  0  0  0  0  0  0  0  0  0  0
    4.6292   -0.3716   -0.1206 C   0  0  0  0  0  0  0  0  0  0  0  0
   -2.7858   -2.9909   -0.1199 C   0  0  0  0  0  0  0  0  0  0  0  0
    5.8088    0.5221    0.2694 C   0  0  0  0  0  0  0  0  0  0  0  0
   -3.9076    1.4104    0.5031 C   0  0  0  0  0  0  0  0  0  0  0  0
    7.1711   -0.1233    0.0074 C   0  0  0  0  0  0  0  0  0  0  0  0
    8.3467    0.7873    0.3269 C   0  0  0  0  0  0  0  0  0  0  0  0
  1  9  1  0
  1 13  1  0
  2 10  2  0
  3 11  2  0
  4 17  2  0
  5 10  1  0
  5 17  1  0
  6 11  1  0
  6 17  1  0
  7  8  1  0
  7  9  1  0
  7 10  1  0
  7 11  1  0
  8 15  1  0
 12 13  1  0
 12 14  1  0
 14 16  1  0
 16 18  1  0
 18 19  1  0
M  END
>  <PUBCHEM_COMPOUND_CID>  (1) 
48750

>  <PUBCHEM_CONFORMER_RMSD>  (1) 
0.8

>  <PUBCHEM_CONFORMER_DIVERSEORDER>  (1) 
1
165
106
124
174
13
184
93
129
143
179
109
134
72
136
105
36
142
97
187
107
43
173
162
34
28
139
79
17
191
21
52
89
114
152
85
6
147
83
99
146
153
121
138
112
15
144
185
120
38
169
157
67
113
122
59
149
137
33
154
91
94
186
182
10
159
175
96
104
70
100
117
86
166
65
151
133
127
78
116
77
115
193
126
49
84
54
171
110
108
102
39
92
125
29
160
161
141
190
111
98
5
56
155
118
74
128
123
164
57
75
192
62
132
58
131
73
130
176
22
163
7
170
189
103
177
40
95
20
119
16
148
25
181
168
26
87
183
167
2
51
19
32
178
156
3
150
172
41
42
140
71
69
135
76
180
158
45
47
37
14
88
82
9
61
50
145
8
64
4
23
80
81
35
55
101
30
27
44
90
60
24
188
11
18
48
53
31
12
66
68
46
63

>  <PUBCHEM_MMFF94_PARTIAL_CHARGES>  (1) 
14
1 -0.46
10 0.57
11 0.57
13 0.23
17 0.69
2 -0.57
3 -0.57
35 0.37
36 0.37
4 -0.57
5 -0.49
6 -0.49
7 0.12
9 0.23

>  <PUBCHEM_EFFECTIVE_ROTOR_COUNT>  (1) 
8.6

>  <PUBCHEM_PHARMACOPHORE_FEATURES>  (1) 
8
1 15 hydrophobe
1 19 hydrophobe
1 2 acceptor
1 3 acceptor
1 4 acceptor
1 5 donor
1 6 donor
6 5 6 7 10 11 17 rings

>  <PUBCHEM_HEAVY_ATOM_COUNT>  (1) 
19

>  <PUBCHEM_ATOM_DEF_STEREO_COUNT>  (1) 
0

>  <PUBCHEM_ATOM_UDEF_STEREO_COUNT>  (1) 
0

>  <PUBCHEM_BOND_DEF_STEREO_COUNT>  (1) 
0

>  <PUBCHEM_BOND_UDEF_STEREO_COUNT>  (1) 
0

>  <PUBCHEM_ISOTOPIC_ATOM_COUNT>  (1) 
0

>  <PUBCHEM_COMPONENT_COUNT>  (1) 
1

>  <PUBCHEM_CACTVS_TAUTO_COUNT>  (1) 
5

>  <PUBCHEM_CONFORMER_ID>  (1) 
0000BE6E00000001

>  <PUBCHEM_MMFF94_ENERGY>  (1) 
39.2858

>  <PUBCHEM_FEATURE_SELFOVERLAP>  (1) 
40.636

>  <PUBCHEM_SHAPE_FINGERPRINT>  (1) 
10291535 26 17846785083057695393
10680689 15 18186799197382392502
11315181 36 18261951946690738414
12091667 2 16343985832420284974
12616971 3 17531253876781277340
12916754 54 18266174126769934062
15183329 4 13686304570001718700
15716309 27 13190342362180814736
15778101 99 18343585131554890892
17093844 174 18131066052703484218
17844677 252 18270121339866191312
18927931 339 16588025710479806230
200 152 9367337124698576589
20645477 56 18410291380735602333
21150785 3 10807926069163946312
220451 1 18186801366894868858
23198884 109 18202560653073563021
23402539 116 16950277417290183358
300161 21 17560798810871288926
5104073 3 18410565198466373074

>  <PUBCHEM_SHAPE_MULTIPOLES>  (1) 
367.29
16.06
1.94
1.34
46.3
0.77
0.08
-5.04
-2.14
-3.82
-0.06
-1.71
-0.13
-0.08

>  <PUBCHEM_SHAPE_SELFOVERLAP>  (1) 
715.23

>  <PUBCHEM_SHAPE_VOLUME>  (1) 
223

>  <PUBCHEM_COORDINATE_TYPE>  (1) 
2
5
10

$$$$
