48762
     RDKit          3D

 22 23  0  0  1  0  0  0  0  0999 V2000
    0.0702    0.1174    1.9832 O   0  0  0  0  0  0  0  0  0  0  0  0
    2.8018    2.7083   -0.5458 O   0  0  0  0  0  0  0  0  0  0  0  0
   -1.3605    1.7564   -2.1628 O   0  0  0  0  0  0  0  0  0  0  0  0
   -0.7422    0.7314   -0.1299 N   0  0  0  0  0  0  0  0  0  0  0  0
    0.6610    2.2762   -1.2589 N   0  0  0  0  0  0  0  0  0  0  0  0
    1.6889    0.7301    0.3070 C   0  0  0  0  0  0  0  0  0  0  0  0
    2.0741   -0.4476   -0.6060 C   0  0  0  0  0  0  0  0  0  0  0  0
    2.0314   -1.7771    0.1512 C   0  0  0  0  0  0  0  0  0  0  0  0
    2.6782    0.7888    1.4822 C   0  0  0  0  0  0  0  0  0  0  0  0
    0.2710    0.4858    0.8242 C   0  0  0  0  0  0  0  0  0  0  0  0
    2.3396   -2.9981   -0.7352 C   0  0  0  0  0  0  0  0  0  0  0  0
    1.7905    2.0108   -0.5015 C   0  0  0  0  0  0  0  0  0  0  0  0
    2.3542    1.9417    2.4060 C   0  0  0  0  0  0  0  0  0  0  0  0
    1.3560   -3.0500   -1.9070 C   0  0  0  0  0  0  0  0  0  0  0  0
    2.2845   -4.3137    0.0425 C   0  0  0  0  0  0  0  0  0  0  0  0
   -0.5597    1.5963   -1.2379 C   0  0  0  0  0  0  0  0  0  0  0  0
   -2.0437    0.1400    0.0969 C   0  0  0  0  0  0  0  0  0  0  0  0
   -2.1405   -1.0642    0.7837 C   0  0  0  0  0  0  0  0  0  0  0  0
   -3.1819    0.7833   -0.3738 C   0  0  0  0  0  0  0  0  0  0  0  0
   -3.3946   -1.6340    1.0028 C   0  0  0  0  0  0  0  0  0  0  0  0
   -4.4361    0.2134   -0.1546 C   0  0  0  0  0  0  0  0  0  0  0  0
   -4.5423   -0.9952    0.5337 C   0  0  0  0  0  0  0  0  0  0  0  0
  1 10  2  0
  2 12  2  0
  3 16  2  0
  4 10  1  0
  4 16  1  0
  4 17  1  0
  5 12  1  0
  5 16  1  0
  6  7  1  0
  6  9  1  0
  6 10  1  0
  6 12  1  0
  7  8  1  0
  8 11  1  0
  9 13  1  0
 11 14  1  0
 11 15  1  0
 17 18  2  0
 17 19  1  0
 18 20  1  0
 19 21  2  0
 20 22  2  0
 21 22  1  0
M  END
>  <PUBCHEM_COMPOUND_CID>  (1) 
48762

>  <PUBCHEM_CONFORMER_RMSD>  (1) 
0.8

>  <PUBCHEM_CONFORMER_DIVERSEORDER>  (1) 
2
1
10
4
3
5
12
8
6
11
7
9

>  <PUBCHEM_MMFF94_PARTIAL_CHARGES>  (1) 
21
1 -0.57
10 0.57
12 0.57
16 0.69
17 0.12
18 -0.15
19 -0.15
2 -0.57
20 -0.15
21 -0.15
22 -0.15
3 -0.57
33 0.37
4 -0.24
40 0.15
41 0.15
42 0.15
43 0.15
44 0.15
5 -0.49
6 0.12

>  <PUBCHEM_EFFECTIVE_ROTOR_COUNT>  (1) 
5.6

>  <PUBCHEM_PHARMACOPHORE_FEATURES>  (1) 
8
1 1 acceptor
1 13 hydrophobe
1 2 acceptor
1 3 acceptor
1 5 donor
3 11 14 15 hydrophobe
6 17 18 19 20 21 22 rings
6 4 5 6 10 12 16 rings

>  <PUBCHEM_HEAVY_ATOM_COUNT>  (1) 
22

>  <PUBCHEM_ATOM_DEF_STEREO_COUNT>  (1) 
0

>  <PUBCHEM_ATOM_UDEF_STEREO_COUNT>  (1) 
1

>  <PUBCHEM_BOND_DEF_STEREO_COUNT>  (1) 
0

>  <PUBCHEM_BOND_UDEF_STEREO_COUNT>  (1) 
0

>  <PUBCHEM_ISOTOPIC_ATOM_COUNT>  (1) 
0

>  <PUBCHEM_COMPONENT_COUNT>  (1) 
1

>  <PUBCHEM_CACTVS_TAUTO_COUNT>  (1) 
3

>  <PUBCHEM_CONFORMER_ID>  (1) 
0000BE7A00000002

>  <PUBCHEM_MMFF94_ENERGY>  (1) 
76.3452

>  <PUBCHEM_FEATURE_SELFOVERLAP>  (1) 
40.596

>  <PUBCHEM_SHAPE_FINGERPRINT>  (1) 
10064457 181 17914892273624719434
10616163 171 17901676191341135499
11582403 64 16171352520428156556
116883 192 18261956224299148485
12293681 25 17972572443127619127
12506688 2 18198348359724694238
12553582 1 17905913386573445186
13533116 47 18201445770749696195
13544592 145 18120085083868753021
13583140 156 17632004343369152641
13631057 29 17762343518343886422
14022347 108 17240774930431092753
14863182 85 18121793978151723503
14866123 147 17258782517069442603
15420108 30 17686896533240995085
16945 1 18335709346665900017
17138139 8 17054686126483505951
18681886 176 17902798792349442028
20602899 9 17620799314691164588
20645477 70 18408322220272809623
21285901 2 18113605790853472543
21315764 371 17557704960917754567
21452121 199 18116715102199434390
23419403 2 17982426244945131394
23557571 272 18115014200096383553
23559900 14 18409729547542321017
2748010 2 17972297548024929221
3060560 45 18191879035354699588
4340502 62 17630880693708649003
495365 180 18130494293424108929
59554788 248 18045190938641263348
7364860 26 18409738390716446773
84936 31 18130781256989267630
9709674 26 18334581265427413083
9925002 15 16679508698135605541

>  <PUBCHEM_SHAPE_MULTIPOLES>  (1) 
425.18
6.34
3.94
1.79
7.71
3.59
0.15
2.04
1.1
-4.88
-0.97
-0.65
-0.75
1.66

>  <PUBCHEM_SHAPE_SELFOVERLAP>  (1) 
894.005

>  <PUBCHEM_SHAPE_VOLUME>  (1) 
237.1

>  <PUBCHEM_COORDINATE_TYPE>  (1) 
2
5
10

$$$$
