4877
     RDKit          3D

 24 27  0  0  0  0  0  0  0  0999 V2000
    2.1284    0.8353   -0.1243 N   0  0  0  0  0  0  0  0  0  0  0  0
    0.8929    1.2316   -0.4825 N   0  0  0  0  0  0  0  0  0  0  0  0
    3.3216   -1.1818    0.4840 N   0  0  0  0  0  0  0  0  0  0  0  0
    1.8635   -3.1371    0.4508 N   0  0  0  0  0  0  0  0  0  0  0  0
   -0.4502   -3.0111   -0.1219 N   0  0  0  0  0  0  0  0  0  0  0  0
    3.1889    1.8102   -0.0285 C   0  0  0  0  0  0  0  0  0  0  0  0
    2.2238   -0.5037    0.1136 C   0  0  0  0  0  0  0  0  0  0  0  0
    4.3245    1.4433   -1.0095 C   0  0  0  0  0  0  0  0  0  0  0  0
    3.7391    1.8428    1.4148 C   0  0  0  0  0  0  0  0  0  0  0  0
    2.7480    3.2546   -0.3722 C   0  0  0  0  0  0  0  0  0  0  0  0
    0.9591   -1.0214   -0.1046 C   0  0  0  0  0  0  0  0  0  0  0  0
    0.1870    0.0964   -0.4681 C   0  0  0  0  0  0  0  0  0  0  0  0
   -1.2154    0.1213   -0.8060 C   0  0  0  0  0  0  0  0  0  0  0  0
   -2.2186    0.3168    0.1572 C   0  0  0  0  0  0  0  0  0  0  0  0
    0.7966   -2.3909    0.0767 C   0  0  0  0  0  0  0  0  0  0  0  0
   -3.5744    0.3287   -0.2485 C   0  0  0  0  0  0  0  0  0  0  0  0
   -1.5441   -0.0601   -2.1497 C   0  0  0  0  0  0  0  0  0  0  0  0
   -1.9062    0.5008    1.5140 C   0  0  0  0  0  0  0  0  0  0  0  0
   -3.8870    0.1449   -1.6053 C   0  0  0  0  0  0  0  0  0  0  0  0
   -2.8774   -0.0481   -2.5487 C   0  0  0  0  0  0  0  0  0  0  0  0
    3.0429   -2.4953    0.6287 C   0  0  0  0  0  0  0  0  0  0  0  0
   -4.5778    0.5242    0.7145 C   0  0  0  0  0  0  0  0  0  0  0  0
   -2.9160    0.6935    2.4572 C   0  0  0  0  0  0  0  0  0  0  0  0
   -4.2492    0.7051    2.0583 C   0  0  0  0  0  0  0  0  0  0  0  0
  1  2  1  0
  1  6  1  0
  1  7  1  0
  2 12  2  0
  3  7  2  0
  3 21  1  0
  4 15  1  0
  4 21  2  0
  5 15  1  0
  6  8  1  0
  6  9  1  0
  6 10  1  0
  7 11  1  0
 11 12  1  0
 11 15  2  0
 12 13  1  0
 13 14  1  0
 13 17  2  0
 14 16  2  0
 14 18  1  0
 16 19  1  0
 16 22  1  0
 17 20  1  0
 18 23  2  0
 19 20  2  0
 22 24  2  0
 23 24  1  0
M  END
>  <PUBCHEM_COMPOUND_CID>  (1) 
4877

>  <PUBCHEM_CONFORMER_RMSD>  (1) 
0.6

>  <PUBCHEM_CONFORMER_DIVERSEORDER>  (1) 
2
1

>  <PUBCHEM_MMFF94_PARTIAL_CHARGES>  (1) 
28
1 0.31
12 0.23
13 0.05
15 0.41
17 -0.15
18 -0.15
19 -0.15
2 -0.71
20 -0.15
21 0.47
22 -0.15
23 -0.15
24 -0.15
3 -0.57
34 0.15
35 0.15
36 0.15
37 0.15
38 0.15
39 0.15
4 -0.62
40 0.4
41 0.4
42 0.15
43 0.15
5 -0.9
6 0.26
7 0.11

>  <PUBCHEM_EFFECTIVE_ROTOR_COUNT>  (1) 
2

>  <PUBCHEM_PHARMACOPHORE_FEATURES>  (1) 
10
1 2 acceptor
1 5 cation
1 5 donor
3 1 3 7 cation
3 3 4 21 cation
4 6 8 9 10 hydrophobe
5 1 2 7 11 12 rings
6 13 14 16 17 19 20 rings
6 14 16 18 22 23 24 rings
6 3 4 7 11 15 21 rings

>  <PUBCHEM_HEAVY_ATOM_COUNT>  (1) 
24

>  <PUBCHEM_ATOM_DEF_STEREO_COUNT>  (1) 
0

>  <PUBCHEM_ATOM_UDEF_STEREO_COUNT>  (1) 
0

>  <PUBCHEM_BOND_DEF_STEREO_COUNT>  (1) 
0

>  <PUBCHEM_BOND_UDEF_STEREO_COUNT>  (1) 
0

>  <PUBCHEM_ISOTOPIC_ATOM_COUNT>  (1) 
0

>  <PUBCHEM_COMPONENT_COUNT>  (1) 
1

>  <PUBCHEM_CACTVS_TAUTO_COUNT>  (1) 
5

>  <PUBCHEM_CONFORMER_ID>  (1) 
0000130D00000002

>  <PUBCHEM_MMFF94_ENERGY>  (1) 
74.0304

>  <PUBCHEM_FEATURE_SELFOVERLAP>  (1) 
51.052

>  <PUBCHEM_SHAPE_FINGERPRINT>  (1) 
10165383 225 18044118914835765380
11640471 11 17989212555250219417
11725454 13 16880996106780647485
12160290 23 17688023528712189822
12236239 1 17917705782240995647
12390115 104 17977396258832945644
12553582 1 18194399988042600662
12644460 14 18335143068439475890
12788726 201 17560227172062391807
13009979 54 17702934842755849366
13134695 92 18116707409744182714
13140716 1 18336255838874336082
13583140 156 18341341050188236393
13911987 19 18116713108812799244
14341114 328 17988659488665315195
14739800 52 16629091413373405258
14787075 74 17769654531796097407
14955137 171 17986125002298807630
15309172 13 18262240031205697932
15534591 1 17845946233047620245
15842332 3 17917419909181065263
16752209 62 16486965181729085557
17138139 8 17625228160333926207
1813 80 17840878378113892598
18186145 218 18412824715866673572
18219364 16 18188486998822555204
18915476 22 18186799153931605095
19049666 15 17314782997682082669
204376 136 18263365948366230196
20510252 161 17619345854681489010
20600515 1 14397635588105815013
20645477 70 18187634774168276319
20715895 44 17266954126496182505
20739085 24 18336558109734572988
21033648 29 17895183411606448652
21120745 212 10867792427801105058
21618674 53 17703520981627611137
21756936 100 17987252186205465848
22079108 93 18199194060650035777
22112679 90 17560507426687686101
23419403 2 17822298911756890435
23557571 272 16588311544684604205
23559900 14 16081648855627795446
23598291 2 17988084383068086005
283562 15 17617092955446359954
350125 39 18118969337233066294
38570 142 17985855776426452380
392239 28 17912651503492883259
4340502 62 18339654429426314603
458136 41 18334022704750810982
469060 322 17679863992624240487
474 4 18341613762777567632
48014 12 15885999995709449793
57527293 21 17168433764992138673
59755656 520 18270131235032796700
602551 16 15574716889073966128
6034566 193 17827926444376002276
6049 1 17458911426999694053
633830 44 18200603612908454580
7097593 13 17699571346871867019
7615 1 17917699176486472189
77492 1 17917702479421759591
81228 2 17251462479773877898
8272917 22 18339935800906987545
9981440 41 16336362033067664832

>  <PUBCHEM_SHAPE_MULTIPOLES>  (1) 
469
8.38
2.85
2
1.63
1.45
-0.14
-3.78
1.34
-4.23
0.46
2.67
-0.49
-1.2

>  <PUBCHEM_SHAPE_SELFOVERLAP>  (1) 
1050.338

>  <PUBCHEM_SHAPE_VOLUME>  (1) 
246.8

>  <PUBCHEM_COORDINATE_TYPE>  (1) 
2
5
10

$$$$
