48772
     RDKit          3D

 15 15  0  0  1  0  0  0  0  0999 V2000
   -0.0604    2.2810   -0.4433 O   0  0  0  0  0  0  0  0  0  0  0  0
   -1.1766   -2.3221    0.2397 O   0  0  0  0  0  0  0  0  0  0  0  0
    3.1585   -0.9398    0.5173 O   0  0  0  0  0  0  0  0  0  0  0  0
    1.5707    0.6984    0.0249 N   0  0  0  0  0  0  0  0  0  0  0  0
    0.9756   -1.5630    0.3593 N   0  0  0  0  0  0  0  0  0  0  0  0
   -0.8055    0.0135   -0.2216 C   0  0  0  0  0  0  0  0  0  0  0  0
   -1.4415   -0.0348   -1.6181 C   0  0  0  0  0  0  0  0  0  0  0  0
    0.2519    1.1058   -0.2232 C   0  0  0  0  0  0  0  0  0  0  0  0
   -1.8099    0.4165    0.8217 C   0  0  0  0  0  0  0  0  0  0  0  0
   -0.3767   -1.3891    0.1452 C   0  0  0  0  0  0  0  0  0  0  0  0
   -0.4676   -0.5764   -2.6426 C   0  0  0  0  0  0  0  0  0  0  0  0
    1.9867   -0.6120    0.3108 C   0  0  0  0  0  0  0  0  0  0  0  0
   -1.3212    0.4310    2.2397 C   0  0  0  0  0  0  0  0  0  0  0  0
    2.5868    1.7463   -0.0123 C   0  0  0  0  0  0  0  0  0  0  0  0
   -3.0707    0.7447    0.5027 C   0  0  0  0  0  0  0  0  0  0  0  0
  1  8  2  0
  2 10  2  0
  3 12  2  0
  4  8  1  0
  4 12  1  0
  4 14  1  0
  5 10  1  0
  5 12  1  0
  6  7  1  0
  6  8  1  0
  6  9  1  0
  6 10  1  0
  7 11  1  0
  9 13  1  0
  9 15  2  0
M  END
>  <PUBCHEM_COMPOUND_CID>  (1) 
48772

>  <PUBCHEM_CONFORMER_RMSD>  (1) 
0.6

>  <PUBCHEM_CONFORMER_DIVERSEORDER>  (1) 
1
4
5
7
8
3
2
6

>  <PUBCHEM_MMFF94_PARTIAL_CHARGES>  (1) 
16
1 -0.57
10 0.57
12 0.69
13 0.14
14 0.3
15 -0.3
2 -0.57
21 0.37
28 0.15
29 0.15
3 -0.57
4 -0.42
5 -0.49
6 0.26
8 0.57
9 -0.28

>  <PUBCHEM_EFFECTIVE_ROTOR_COUNT>  (1) 
2.6

>  <PUBCHEM_PHARMACOPHORE_FEATURES>  (1) 
6
1 1 acceptor
1 11 hydrophobe
1 2 acceptor
1 3 acceptor
1 5 donor
6 4 5 6 8 10 12 rings

>  <PUBCHEM_HEAVY_ATOM_COUNT>  (1) 
15

>  <PUBCHEM_ATOM_DEF_STEREO_COUNT>  (1) 
0

>  <PUBCHEM_ATOM_UDEF_STEREO_COUNT>  (1) 
1

>  <PUBCHEM_BOND_DEF_STEREO_COUNT>  (1) 
0

>  <PUBCHEM_BOND_UDEF_STEREO_COUNT>  (1) 
0

>  <PUBCHEM_ISOTOPIC_ATOM_COUNT>  (1) 
0

>  <PUBCHEM_COMPONENT_COUNT>  (1) 
1

>  <PUBCHEM_CACTVS_TAUTO_COUNT>  (1) 
3

>  <PUBCHEM_CONFORMER_ID>  (1) 
0000BE8400000001

>  <PUBCHEM_MMFF94_ENERGY>  (1) 
33.9862

>  <PUBCHEM_FEATURE_SELFOVERLAP>  (1) 
30.446

>  <PUBCHEM_SHAPE_FINGERPRINT>  (1) 
10702982 57 18272928315256974639
12138202 97 14117216357089916557
12423570 1 9177764934764407301
13024252 1 15502654854018702978
14817 1 11398559727242454095
15775835 57 18130792260679928793
15906896 17 17917430986028504031
16945 1 18200610085107106243
19837323 101 16412986800437425289
22344851 12 8133972351500705885
23236772 104 18057603376582700680
23419403 2 17243564296667056503
2748010 2 18263640826505211246
5084963 1 17987519199742090459
528886 8 18264752290879077705
535629 181 17845919848836687228
53812653 217 17559112300866141118
54276843 12 17702096959086834795
77492 1 17988634199206642957

>  <PUBCHEM_SHAPE_MULTIPOLES>  (1) 
281.12
3.43
1.94
1.76
1.28
0.1
0.55
-0.89
-0.78
0.11
0.09
-0.6
0.37
-0.72

>  <PUBCHEM_SHAPE_SELFOVERLAP>  (1) 
583.773

>  <PUBCHEM_SHAPE_VOLUME>  (1) 
161.3

>  <PUBCHEM_COORDINATE_TYPE>  (1) 
2
5
10

$$$$
