48777
     RDKit          3D

 17 17  0  0  1  0  0  0  0  0999 V2000
   -2.0245    0.2718   -0.8459 S   0  0  0  0  0  0  0  0  0  0  0  0
    0.3800   -1.9107   -0.9639 O   0  0  0  0  0  0  0  0  0  0  0  0
   -0.3603    2.1311    1.1744 O   0  0  0  0  0  0  0  0  0  0  0  0
    3.6910    1.3443   -0.8033 O   0  0  0  0  0  0  0  0  0  0  0  0
    2.1454   -0.4055   -0.7707 N   0  0  0  0  0  0  0  0  0  0  0  0
    1.6839    1.6844    0.2345 N   0  0  0  0  0  0  0  0  0  0  0  0
    0.1874   -0.1831    0.7107 C   0  0  0  0  0  0  0  0  0  0  0  0
    0.7497   -0.7499    2.0269 C   0  0  0  0  0  0  0  0  0  0  0  0
   -1.3258   -0.4467    0.6572 C   0  0  0  0  0  0  0  0  0  0  0  0
    0.8819   -0.9176   -0.4344 C   0  0  0  0  0  0  0  0  0  0  0  0
    0.4389    1.3157    0.7168 C   0  0  0  0  0  0  0  0  0  0  0  0
    0.5698   -2.2499    2.0902 C   0  0  0  0  0  0  0  0  0  0  0  0
   -3.7514   -0.2051   -0.5974 C   0  0  0  0  0  0  0  0  0  0  0  0
    2.5961    0.8918   -0.4586 C   0  0  0  0  0  0  0  0  0  0  0  0
    2.9945   -1.2131   -1.6383 C   0  0  0  0  0  0  0  0  0  0  0  0
   -4.2727    0.4071    0.6972 C   0  0  0  0  0  0  0  0  0  0  0  0
   -4.5839    0.2353   -1.7956 C   0  0  0  0  0  0  0  0  0  0  0  0
  1  9  1  0
  1 13  1  0
  2 10  2  0
  3 11  2  0
  4 14  2  0
  5 10  1  0
  5 14  1  0
  5 15  1  0
  6 11  1  0
  6 14  1  0
  7  8  1  0
  7  9  1  0
  7 10  1  0
  7 11  1  0
  8 12  1  0
 13 16  1  0
 13 17  1  0
M  END
>  <PUBCHEM_COMPOUND_CID>  (1) 
48777

>  <PUBCHEM_CONFORMER_RMSD>  (1) 
0.6

>  <PUBCHEM_CONFORMER_DIVERSEORDER>  (1) 
2
23
11
7
17
22
13
20
21
19
14
15
18
24
6
16
12
5
10
3
1
4
9
8

>  <PUBCHEM_MMFF94_PARTIAL_CHARGES>  (1) 
14
1 -0.46
10 0.57
11 0.57
13 0.23
14 0.69
15 0.3
2 -0.57
25 0.37
3 -0.57
4 -0.57
5 -0.42
6 -0.49
7 0.12
9 0.23

>  <PUBCHEM_EFFECTIVE_ROTOR_COUNT>  (1) 
4.6

>  <PUBCHEM_PHARMACOPHORE_FEATURES>  (1) 
7
1 12 hydrophobe
1 2 acceptor
1 3 acceptor
1 4 acceptor
1 6 donor
3 13 16 17 hydrophobe
6 5 6 7 10 11 14 rings

>  <PUBCHEM_HEAVY_ATOM_COUNT>  (1) 
17

>  <PUBCHEM_ATOM_DEF_STEREO_COUNT>  (1) 
0

>  <PUBCHEM_ATOM_UDEF_STEREO_COUNT>  (1) 
1

>  <PUBCHEM_BOND_DEF_STEREO_COUNT>  (1) 
0

>  <PUBCHEM_BOND_UDEF_STEREO_COUNT>  (1) 
0

>  <PUBCHEM_ISOTOPIC_ATOM_COUNT>  (1) 
0

>  <PUBCHEM_COMPONENT_COUNT>  (1) 
1

>  <PUBCHEM_CACTVS_TAUTO_COUNT>  (1) 
3

>  <PUBCHEM_CONFORMER_ID>  (1) 
0000BE8900000002

>  <PUBCHEM_MMFF94_ENERGY>  (1) 
45.3294

>  <PUBCHEM_FEATURE_SELFOVERLAP>  (1) 
35.522

>  <PUBCHEM_SHAPE_FINGERPRINT>  (1) 
10610426 29 16343706482576699050
10922049 32 17313105280223997792
12138202 97 17970925563893389042
14576447 43 17417806292301300829
14817 1 8317860027690785714
15852999 172 18114758121778135382
15906896 17 14708361194609069640
16945 1 18341910570955972786
18186145 218 18114192929440205511
19765921 60 18260264187261680643
21452121 199 17983563113929890263
22112679 90 17834117437805737682
231179 274 18113326531642276573
23402539 116 18131636664493673476
23402655 69 18059581252473497305
23419403 2 17903675029990767057
23526113 38 18336275637976881130
25 1 18410579512974879633
2748010 2 17553498272437455360
276578 36 17313099765312007419
298252 57 18270961366116861398
3060560 45 18129644409590485709
353137 74 18336551529633653081
528886 8 18059860592307642794
59915604 170 18339655502624611504
633830 44 18262532419942279413
68419 9 17760087315528164328
7364860 26 17532074017328338811

>  <PUBCHEM_SHAPE_MULTIPOLES>  (1) 
326.13
6.46
1.95
1.82
7.16
1.67
-0.03
-3.55
-1.78
-0.82
0.15
-0.68
-0.34
0.61

>  <PUBCHEM_SHAPE_SELFOVERLAP>  (1) 
646.8

>  <PUBCHEM_SHAPE_VOLUME>  (1) 
197

>  <PUBCHEM_COORDINATE_TYPE>  (1) 
2
5
10

$$$$
