48799
     RDKit          3D

 18 18  0  0  0  0  0  0  0  0999 V2000
    1.6351   -1.8167   -1.6171 O   0  0  0  0  0  0  0  0  0  0  0  0
    0.4399    1.0253    2.0685 O   0  0  0  0  0  0  0  0  0  0  0  0
    4.0070    1.9811   -0.6441 O   0  0  0  0  0  0  0  0  0  0  0  0
    2.7941    0.0878   -1.1053 N   0  0  0  0  0  0  0  0  0  0  0  0
    2.2129    1.4727    0.6941 N   0  0  0  0  0  0  0  0  0  0  0  0
    0.8347   -0.5203    0.2557 C   0  0  0  0  0  0  0  0  0  0  0  0
    0.7907   -1.7396    1.1867 C   0  0  0  0  0  0  0  0  0  0  0  0
   -0.5087   -0.2779   -0.3735 C   0  0  0  0  0  0  0  0  0  0  0  0
    1.7753   -0.8255   -0.8977 C   0  0  0  0  0  0  0  0  0  0  0  0
    1.1298    0.7111    1.0964 C   0  0  0  0  0  0  0  0  0  0  0  0
   -1.6218   -0.9919   -0.1201 C   0  0  0  0  0  0  0  0  0  0  0  0
   -2.9894   -0.8020   -0.7126 C   0  0  0  0  0  0  0  0  0  0  0  0
    2.1587   -2.0339    1.7633 C   0  0  0  0  0  0  0  0  0  0  0  0
   -0.5380    0.8562   -1.3630 C   0  0  0  0  0  0  0  0  0  0  0  0
   -3.8579    0.0924    0.1735 C   0  0  0  0  0  0  0  0  0  0  0  0
    3.0674    1.2319   -0.3711 C   0  0  0  0  0  0  0  0  0  0  0  0
   -5.2381    0.3144   -0.4456 C   0  0  0  0  0  0  0  0  0  0  0  0
   -6.0917    1.2349    0.4121 C   0  0  0  0  0  0  0  0  0  0  0  0
  1  9  2  0
  2 10  2  0
  3 16  2  0
  4  9  1  0
  4 16  1  0
  5 10  1  0
  5 16  1  0
  6  7  1  0
  6  8  1  0
  6  9  1  0
  6 10  1  0
  7 13  1  0
  8 11  2  0
  8 14  1  0
 11 12  1  0
 12 15  1  0
 15 17  1  0
 17 18  1  0
M  END
>  <PUBCHEM_COMPOUND_CID>  (1) 
48799

>  <PUBCHEM_CONFORMER_RMSD>  (1) 
0.8

>  <PUBCHEM_CONFORMER_DIVERSEORDER>  (1) 
1
30
13
29
24
4
10
25
11
31
14
5
15
21
7
18
26
6
9
17
27
20
8
28
23
12
22
16
19
2
3

>  <PUBCHEM_MMFF94_PARTIAL_CHARGES>  (1) 
16
1 -0.57
10 0.57
11 -0.29
12 0.14
14 0.14
16 0.69
2 -0.57
21 0.15
3 -0.57
32 0.37
33 0.37
4 -0.49
5 -0.49
6 0.26
8 -0.28
9 0.57

>  <PUBCHEM_EFFECTIVE_ROTOR_COUNT>  (1) 
5.6

>  <PUBCHEM_PHARMACOPHORE_FEATURES>  (1) 
10
1 1 acceptor
1 13 hydrophobe
1 14 hydrophobe
1 18 hydrophobe
1 2 acceptor
1 3 acceptor
1 4 donor
1 5 donor
4 11 12 15 17 hydrophobe
6 4 5 6 9 10 16 rings

>  <PUBCHEM_HEAVY_ATOM_COUNT>  (1) 
18

>  <PUBCHEM_ATOM_DEF_STEREO_COUNT>  (1) 
0

>  <PUBCHEM_ATOM_UDEF_STEREO_COUNT>  (1) 
0

>  <PUBCHEM_BOND_DEF_STEREO_COUNT>  (1) 
0

>  <PUBCHEM_BOND_UDEF_STEREO_COUNT>  (1) 
1

>  <PUBCHEM_ISOTOPIC_ATOM_COUNT>  (1) 
0

>  <PUBCHEM_COMPONENT_COUNT>  (1) 
1

>  <PUBCHEM_CACTVS_TAUTO_COUNT>  (1) 
5

>  <PUBCHEM_CONFORMER_ID>  (1) 
0000BE9F00000001

>  <PUBCHEM_MMFF94_ENERGY>  (1) 
32.2689

>  <PUBCHEM_FEATURE_SELFOVERLAP>  (1) 
50.788

>  <PUBCHEM_SHAPE_FINGERPRINT>  (1) 
12500047 106 18059854017351315327
12616999 72 17917992784851380287
13464514 151 18340491152672917730
13955234 65 17894628115379421851
14178342 30 17822570637680358419
14252887 29 16732703818544324729
14993402 34 15625951966312224901
15048467 5 18342179998265016949
15210252 30 18343024423396128881
15238133 3 18131062693696265081
15848700 24 11959739256441955127
16945 1 18127987492891188214
21069387 34 10303820903644350069
212847 35 18272086055433562505
21452121 103 17676477328900394093
21637258 2 12463028588497574700
22289505 5 17846218809190093413
231179 274 18410290337143101121
23402539 116 18189329242336309052
23402655 69 17775288270420749245
23557571 272 15502644958862446591
23559900 14 17703790263266496191
25 1 18202284748737942174
276578 36 18113330938051907826
3060560 45 17417808482460412372
4047638 21 18410016545709642670
427121 178 17676206891910435259
474 4 18041847336523699629
5104073 3 17894916183943139833
522135 26 17917993845934967279
633830 44 18262517125515954270
7364860 26 18041550352493896930
9999458 23 17749388178890998342

>  <PUBCHEM_SHAPE_MULTIPOLES>  (1) 
342.86
8.64
1.91
1.54
16.48
0.38
0.2
-4.05
0.43
-2.03
0.36
-0.79
0.21
-0.51

>  <PUBCHEM_SHAPE_SELFOVERLAP>  (1) 
695.6

>  <PUBCHEM_SHAPE_VOLUME>  (1) 
199.5

>  <PUBCHEM_COORDINATE_TYPE>  (1) 
2
5
10

$$$$
