4879
     RDKit          3D

 16 18  0  0  0  0  0  0  0  0999 V2000
   -0.2621    0.6326    0.0748 N   0  0  0  0  0  0  0  0  0  0  0  0
    0.0633    1.9300    0.2255 N   0  0  0  0  0  0  0  0  0  0  0  0
    0.8047   -1.5252   -0.1857 N   0  0  0  0  0  0  0  0  0  0  0  0
    3.2367   -1.3358   -0.1779 N   0  0  0  0  0  0  0  0  0  0  0  0
    4.3616    0.7608    0.0624 N   0  0  0  0  0  0  0  0  0  0  0  0
    0.8185   -0.1920   -0.0286 C   0  0  0  0  0  0  0  0  0  0  0  0
    1.9320    0.6246    0.0609 C   0  0  0  0  0  0  0  0  0  0  0  0
   -1.6014    0.2469    0.0374 C   0  0  0  0  0  0  0  0  0  0  0  0
    1.4008    1.9186    0.2165 C   0  0  0  0  0  0  0  0  0  0  0  0
    3.1763    0.0082   -0.0191 C   0  0  0  0  0  0  0  0  0  0  0  0
   -1.9659   -1.0114    0.4999 C   0  0  0  0  0  0  0  0  0  0  0  0
   -2.5554    1.1267   -0.4584 C   0  0  0  0  0  0  0  0  0  0  0  0
   -3.3062   -1.3963    0.4656 C   0  0  0  0  0  0  0  0  0  0  0  0
   -3.8958    0.7417   -0.4925 C   0  0  0  0  0  0  0  0  0  0  0  0
    2.0639   -2.0095   -0.2503 C   0  0  0  0  0  0  0  0  0  0  0  0
   -4.2710   -0.5198   -0.0305 C   0  0  0  0  0  0  0  0  0  0  0  0
  1  2  1  0
  1  6  1  0
  1  8  1  0
  2  9  2  0
  3  6  2  0
  3 15  1  0
  4 10  1  0
  4 15  2  0
  5 10  1  0
  6  7  1  0
  7  9  1  0
  7 10  2  0
  8 11  2  0
  8 12  1  0
 11 13  1  0
 12 14  2  0
 13 16  2  0
 14 16  1  0
M  END
>  <PUBCHEM_COMPOUND_CID>  (1) 
4879

>  <PUBCHEM_CONFORMER_RMSD>  (1) 
0.6

>  <PUBCHEM_CONFORMER_DIVERSEORDER>  (1) 
1

>  <PUBCHEM_MMFF94_PARTIAL_CHARGES>  (1) 
24
1 0.59
10 0.41
11 -0.15
12 -0.15
13 -0.15
14 -0.15
15 0.47
16 -0.15
17 0.15
18 0.15
19 0.15
2 -0.71
20 0.15
21 0.15
22 0.15
23 0.15
24 0.4
25 0.4
3 -0.57
4 -0.62
5 -0.9
6 0.11
8 -0.02
9 0.14

>  <PUBCHEM_EFFECTIVE_ROTOR_COUNT>  (1) 
1

>  <PUBCHEM_PHARMACOPHORE_FEATURES>  (1) 
8
1 2 acceptor
1 5 cation
1 5 donor
3 1 3 6 cation
3 3 4 15 cation
5 1 2 6 7 9 rings
6 3 4 6 7 10 15 rings
6 8 11 12 13 14 16 rings

>  <PUBCHEM_HEAVY_ATOM_COUNT>  (1) 
16

>  <PUBCHEM_ATOM_DEF_STEREO_COUNT>  (1) 
0

>  <PUBCHEM_ATOM_UDEF_STEREO_COUNT>  (1) 
0

>  <PUBCHEM_BOND_DEF_STEREO_COUNT>  (1) 
0

>  <PUBCHEM_BOND_UDEF_STEREO_COUNT>  (1) 
0

>  <PUBCHEM_ISOTOPIC_ATOM_COUNT>  (1) 
0

>  <PUBCHEM_COMPONENT_COUNT>  (1) 
1

>  <PUBCHEM_CACTVS_TAUTO_COUNT>  (1) 
5

>  <PUBCHEM_CONFORMER_ID>  (1) 
0000130F00000001

>  <PUBCHEM_MMFF94_ENERGY>  (1) 
49.525

>  <PUBCHEM_FEATURE_SELFOVERLAP>  (1) 
40.876

>  <PUBCHEM_SHAPE_FINGERPRINT>  (1) 
10608611 8 18408317800587977181
10967382 1 18411419543979349002
11132069 177 18410852183326681898
11471102 20 18411978057210435173
11806522 49 18411698824307003199
12032990 46 18412268311184844238
13296908 3 18411983524783158047
14115302 16 18041009418447532335
14144814 61 18412827958498163201
14251717 144 18413106177705287463
14252887 29 17775294858673611174
14576447 43 18129928100754769703
15196674 1 18410575063241204335
15219456 202 18409166614889925775
15375358 24 18408881836793337691
15442244 35 18196657289445193401
15536298 74 18343584018984508798
16945 1 18413113874212698896
17834074 16 18408324401910259719
18186145 218 17895193247170791767
19107657 46 18411419518373309527
19591789 44 16027630270340856045
200 152 17988637519754277095
20201158 50 18409449180751575331
20279233 1 18407762538457015739
20645477 70 18272084951041665175
21249577 43 18409449189278258307
21267235 1 18339652160855640814
21501502 16 18125445215643787136
221490 88 18336553827293417867
22721475 48 18409172095226029933
23402539 116 17095514102192990164
23402655 69 18341041935543321237
23463225 33 18410012130435795886
23557571 272 17530960263451846564
23559900 14 18264764372938845754
2748010 2 18410574002336614638
2871803 45 18408603630371265246
3312278 4 18411984641532664393
34934 24 18411973659190473094
4072396 5 18337090303532267322
5104073 3 18410012100455421753
53812653 166 18341609343319172864
69090 78 18411695500630277943
7364860 26 18340486793329026665
8809292 202 18260271888460049235
9709674 26 18408608080184555443

>  <PUBCHEM_SHAPE_MULTIPOLES>  (1) 
304.37
7.4
1.94
0.67
1.56
0.08
0
0.75
-0.35
-0.6
0.02
0.18
0.01
0.58

>  <PUBCHEM_SHAPE_SELFOVERLAP>  (1) 
683.074

>  <PUBCHEM_SHAPE_VOLUME>  (1) 
158

>  <PUBCHEM_COORDINATE_TYPE>  (1) 
2
5
10

$$$$
