488
     RDKit          3D

 22 21  0  0  1  0  0  0  0  0999 V2000
   -2.0749    2.0284    0.7556 S   0  0  0  0  0  0  0  0  0  0  0  0
    1.5675    0.5832   -2.1068 O   0  0  0  0  0  0  0  0  0  0  0  0
   -1.5820   -1.7076    0.6452 O   0  0  0  0  0  0  0  0  0  0  0  0
    4.7075   -1.0567    2.0758 O   0  0  0  0  0  0  0  0  0  0  0  0
    5.9829   -1.8482    0.3763 O   0  0  0  0  0  0  0  0  0  0  0  0
   -4.8942   -0.3305    0.6741 O   0  0  0  0  0  0  0  0  0  0  0  0
   -6.0354   -2.2893    0.7653 O   0  0  0  0  0  0  0  0  0  0  0  0
   -3.2618    4.3145    1.1743 O   0  0  0  0  0  0  0  0  0  0  0  0
    0.2675    0.0200   -0.2662 N   0  0  0  0  0  0  0  0  0  0  0  0
    6.4020    0.7435   -0.4635 N   0  0  0  0  0  0  0  0  0  0  0  0
   -3.1010   -1.1772   -1.0261 N   0  0  0  0  0  0  0  0  0  0  0  0
    3.9765    0.4846   -0.6767 C   0  0  0  0  0  0  0  0  0  0  0  0
   -1.0133    0.0453   -0.9338 C   0  0  0  0  0  0  0  0  0  0  0  0
    2.6489    0.1855    0.0227 C   0  0  0  0  0  0  0  0  0  0  0  0
    5.1741    0.4490    0.2792 C   0  0  0  0  0  0  0  0  0  0  0  0
    1.4609    0.2943   -0.9181 C   0  0  0  0  0  0  0  0  0  0  0  0
   -1.6449    1.4395   -0.9149 C   0  0  0  0  0  0  0  0  0  0  0  0
   -1.9084   -1.0356   -0.3311 C   0  0  0  0  0  0  0  0  0  0  0  0
    5.3537   -0.9302    0.8874 C   0  0  0  0  0  0  0  0  0  0  0  0
   -4.1030   -2.1521   -0.6635 C   0  0  0  0  0  0  0  0  0  0  0  0
   -5.1097   -1.6197    0.3235 C   0  0  0  0  0  0  0  0  0  0  0  0
   -2.8128    3.5592    0.3211 C   0  0  0  0  0  0  0  0  0  0  0  0
  1 17  1  0
  1 22  1  0
  2 16  2  0
  3 18  2  0
  4 19  1  0
  5 19  2  0
  6 21  1  0
  7 21  2  0
  8 22  2  0
  9 13  1  0
  9 16  1  0
 10 15  1  0
 11 18  1  0
 11 20  1  0
 12 14  1  0
 12 15  1  0
 13 17  1  0
 13 18  1  0
 14 16  1  0
 15 19  1  0
 20 21  1  0
M  END
>  <PUBCHEM_COMPOUND_CID>  (1) 
488

>  <PUBCHEM_CONFORMER_RMSD>  (1) 
1

>  <PUBCHEM_CONFORMER_DIVERSEORDER>  (1) 
1
80
155
106
79
54
28
127
119
63
48
65
27
143
69
148
16
159
40
72
133
64
23
123
37
30
130
160
41
57
45
31
55
76
147
116
32
89
97
11
74
19
59
53
50
47
113
114
103
163
42
73
118
78
26
94
156
120
134
157
46
70
81
136
111
144
129
49
15
109
36
112
71
152
101
14
8
121
87
90
86
77
38
122
108
95
34
126
105
132
142
33
98
91
85
60
164
56
51
102
25
137
29
84
24
141
162
20
22
158
52
62
138
139
92
43
149
135
145
5
61
110
17
104
66
35
146
83
131
115
100
12
82
58
39
9
150
154
2
107
75
13
151
6
153
117
93
161
99
21
3
44
125
68
88
96
67
140
4
10
128
18
124
7

>  <PUBCHEM_MMFF94_PARTIAL_CHARGES>  (1) 
28
1 -0.37
10 -0.99
11 -0.73
13 0.36
14 0.06
15 0.33
16 0.57
17 0.23
18 0.57
19 0.66
2 -0.57
20 0.36
21 0.66
22 0.65
29 0.37
3 -0.57
32 0.36
33 0.36
34 0.37
37 0.5
38 0.06
39 0.5
4 -0.65
5 -0.57
6 -0.65
7 -0.57
8 -0.57
9 -0.73

>  <PUBCHEM_EFFECTIVE_ROTOR_COUNT>  (1) 
13

>  <PUBCHEM_PHARMACOPHORE_FEATURES>  (1) 
12
1 10 cation
1 10 donor
1 11 donor
1 2 acceptor
1 3 acceptor
1 4 acceptor
1 5 acceptor
1 6 acceptor
1 7 acceptor
1 9 donor
3 4 5 19 anion
3 6 7 21 anion

>  <PUBCHEM_HEAVY_ATOM_COUNT>  (1) 
22

>  <PUBCHEM_ATOM_DEF_STEREO_COUNT>  (1) 
0

>  <PUBCHEM_ATOM_UDEF_STEREO_COUNT>  (1) 
2

>  <PUBCHEM_BOND_DEF_STEREO_COUNT>  (1) 
0

>  <PUBCHEM_BOND_UDEF_STEREO_COUNT>  (1) 
0

>  <PUBCHEM_ISOTOPIC_ATOM_COUNT>  (1) 
0

>  <PUBCHEM_COMPONENT_COUNT>  (1) 
1

>  <PUBCHEM_CACTVS_TAUTO_COUNT>  (1) 
4

>  <PUBCHEM_CONFORMER_ID>  (1) 
000001E800000001

>  <PUBCHEM_MMFF94_ENERGY>  (1) 
27.4884

>  <PUBCHEM_FEATURE_SELFOVERLAP>  (1) 
61.017

>  <PUBCHEM_SHAPE_FINGERPRINT>  (1) 
12107183 9 17977662005686144408
12236239 1 18113337522241761548
12596602 18 18261108573959243168
12788726 201 18338534026529114453
12930653 34 18271808956369280319
13073987 5 18411694375564844984
13533116 47 18114463474115518652
13540713 4 17701557116194538837
13583140 156 17417232257359171198
14178342 30 18339084774327220556
17844677 252 18341897398861286908
19784866 240 17603304868663537623
200 152 17895188943450076527
20645477 70 16298381396971831646
21065198 48 18334858303866151324
22182313 1 17346049865470398788
23402539 116 18411978096350632775
23557571 272 17917162627781708148
23559900 14 17751357515901429724
25147074 1 18114479923624595740
312423 11 18186809084386708132
4409770 3 18410848838380894277
5104073 3 18338222779540533464
57724786 102 15338542969097832762
633830 44 12967126147171004388
7226269 152 18410572899247470309

>  <PUBCHEM_SHAPE_MULTIPOLES>  (1) 
400.57
14.85
3.33
1.33
14.24
3.86
-0.02
-7.41
4.43
-6.59
1.27
0.65
0.03
-1.52

>  <PUBCHEM_SHAPE_SELFOVERLAP>  (1) 
771.455

>  <PUBCHEM_SHAPE_VOLUME>  (1) 
242.2

>  <PUBCHEM_COORDINATE_TYPE>  (1) 
2
5
10

$$$$
