48801
     RDKit          3D

 17 17  0  0  1  0  0  0  0  0999 V2000
   -0.0885   -1.2275   -1.9132 O   0  0  0  0  0  0  0  0  0  0  0  0
   -0.1786    2.4342    1.1461 O   0  0  0  0  0  0  0  0  0  0  0  0
   -3.4934   -0.6981    1.2095 O   0  0  0  0  0  0  0  0  0  0  0  0
   -1.7529   -1.0480   -0.3048 N   0  0  0  0  0  0  0  0  0  0  0  0
   -1.8069    0.8301    1.1282 N   0  0  0  0  0  0  0  0  0  0  0  0
    0.1534    0.5407   -0.3102 C   0  0  0  0  0  0  0  0  0  0  0  0
    0.6568    1.4708   -1.4249 C   0  0  0  0  0  0  0  0  0  0  0  0
    1.3152   -0.0514    0.4400 C   0  0  0  0  0  0  0  0  0  0  0  0
   -0.5655   -0.6451   -0.9339 C   0  0  0  0  0  0  0  0  0  0  0  0
   -0.6104    1.3701    0.6992 C   0  0  0  0  0  0  0  0  0  0  0  0
   -0.4944    2.1858   -2.0986 C   0  0  0  0  0  0  0  0  0  0  0  0
    2.5795    0.2156    0.0608 C   0  0  0  0  0  0  0  0  0  0  0  0
    0.9259   -0.9367    1.5897 C   0  0  0  0  0  0  0  0  0  0  0  0
   -2.4213   -0.3441    0.7110 C   0  0  0  0  0  0  0  0  0  0  0  0
    3.8519   -0.2565    0.7034 C   0  0  0  0  0  0  0  0  0  0  0  0
   -2.3852   -2.2619   -0.8126 C   0  0  0  0  0  0  0  0  0  0  0  0
    4.3145   -1.5779    0.1104 C   0  0  0  0  0  0  0  0  0  0  0  0
  1  9  2  0
  2 10  2  0
  3 14  2  0
  4  9  1  0
  4 14  1  0
  4 16  1  0
  5 10  1  0
  5 14  1  0
  6  7  1  0
  6  8  1  0
  6  9  1  0
  6 10  1  0
  7 11  1  0
  8 12  2  0
  8 13  1  0
 12 15  1  0
 15 17  1  0
M  END
>  <PUBCHEM_COMPOUND_CID>  (1) 
48801

>  <PUBCHEM_CONFORMER_RMSD>  (1) 
0.6

>  <PUBCHEM_CONFORMER_DIVERSEORDER>  (1) 
1
10
14
13
12
2
7
8
4
6
9
11
3
5

>  <PUBCHEM_MMFF94_PARTIAL_CHARGES>  (1) 
16
1 -0.57
10 0.57
12 -0.29
13 0.14
14 0.69
15 0.14
16 0.3
2 -0.57
23 0.15
24 0.37
3 -0.57
4 -0.42
5 -0.49
6 0.26
8 -0.28
9 0.57

>  <PUBCHEM_EFFECTIVE_ROTOR_COUNT>  (1) 
3.6

>  <PUBCHEM_PHARMACOPHORE_FEATURES>  (1) 
8
1 1 acceptor
1 11 hydrophobe
1 13 hydrophobe
1 17 hydrophobe
1 2 acceptor
1 3 acceptor
1 5 donor
6 4 5 6 9 10 14 rings

>  <PUBCHEM_HEAVY_ATOM_COUNT>  (1) 
17

>  <PUBCHEM_ATOM_DEF_STEREO_COUNT>  (1) 
0

>  <PUBCHEM_ATOM_UDEF_STEREO_COUNT>  (1) 
0

>  <PUBCHEM_BOND_DEF_STEREO_COUNT>  (1) 
0

>  <PUBCHEM_BOND_UDEF_STEREO_COUNT>  (1) 
1

>  <PUBCHEM_ISOTOPIC_ATOM_COUNT>  (1) 
0

>  <PUBCHEM_COMPONENT_COUNT>  (1) 
1

>  <PUBCHEM_CACTVS_TAUTO_COUNT>  (1) 
3

>  <PUBCHEM_CONFORMER_ID>  (1) 
0000BEA100000001

>  <PUBCHEM_MMFF94_ENERGY>  (1) 
37.4187

>  <PUBCHEM_FEATURE_SELFOVERLAP>  (1) 
40.597

>  <PUBCHEM_SHAPE_FINGERPRINT>  (1) 
11578080 2 18194375978838098333
11680611 10 17627525057298495523
12119455 92 15051450462045959193
12423570 1 13305713678521342845
13024252 1 15575284159901630532
13299463 15 15068617180266841690
13571099 52 14764083224255338083
14817 1 9176909205327748405
15375462 478 18410865355738106264
15906896 17 17462823416230425917
16945 1 18272099278862341748
1813 80 18260278446875142830
19010151 120 17894641343773165536
200 152 16660360364415718898
20361792 2 18040432226335097486
20653085 51 8213873633915754762
21296965 67 17749110006227089076
22112679 90 18128547144056486181
232386 152 18128546035976081219
23402539 116 17703783687876852185
23419403 2 17911202273836746205
2748010 2 17626982736231025121
53812653 217 17825366515070541542
77492 1 18265909122882059717

>  <PUBCHEM_SHAPE_MULTIPOLES>  (1) 
322.28
5
2.22
1.71
4.6
0.91
-0.3
-3.48
0.9
-0.66
-0.69
-0.7
0.31
-0.27

>  <PUBCHEM_SHAPE_SELFOVERLAP>  (1) 
661.786

>  <PUBCHEM_SHAPE_VOLUME>  (1) 
185.4

>  <PUBCHEM_COORDINATE_TYPE>  (1) 
2
5
10

$$$$
