48803
     RDKit          3D

 18 18  0  0  1  0  0  0  0  0999 V2000
    1.9410   -1.4566    1.5674 O   0  0  0  0  0  0  0  0  0  0  0  0
   -0.0571   -0.4151   -2.4767 O   0  0  0  0  0  0  0  0  0  0  0  0
    2.8070    2.5881   -0.5474 O   0  0  0  0  0  0  0  0  0  0  0  0
    2.2841    0.6605    0.6622 N   0  0  0  0  0  0  0  0  0  0  0  0
    1.3278    1.1015   -1.4548 N   0  0  0  0  0  0  0  0  0  0  0  0
    0.3789   -0.6997   -0.1101 C   0  0  0  0  0  0  0  0  0  0  0  0
   -0.7875   -0.0074    0.6180 C   0  0  0  0  0  0  0  0  0  0  0  0
   -2.1166   -0.1292   -0.1507 C   0  0  0  0  0  0  0  0  0  0  0  0
    0.0354   -2.1846   -0.3081 C   0  0  0  0  0  0  0  0  0  0  0  0
    1.6137   -0.5677    0.7793 C   0  0  0  0  0  0  0  0  0  0  0  0
    0.5303   -0.0308   -1.4665 C   0  0  0  0  0  0  0  0  0  0  0  0
   -0.9438   -0.5992    2.0210 C   0  0  0  0  0  0  0  0  0  0  0  0
   -3.2886    0.5735    0.5412 C   0  0  0  0  0  0  0  0  0  0  0  0
    1.1399   -2.9005   -1.0522 C   0  0  0  0  0  0  0  0  0  0  0  0
   -4.5734    0.4427   -0.2784 C   0  0  0  0  0  0  0  0  0  0  0  0
    2.1745    1.5345   -0.4368 C   0  0  0  0  0  0  0  0  0  0  0  0
    3.2844    0.9846    1.6724 C   0  0  0  0  0  0  0  0  0  0  0  0
   -5.7499    1.1054    0.4203 C   0  0  0  0  0  0  0  0  0  0  0  0
  1 10  2  0
  2 11  2  0
  3 16  2  0
  4 10  1  0
  4 16  1  0
  4 17  1  0
  5 11  1  0
  5 16  1  0
  6  7  1  0
  6  9  1  0
  6 10  1  0
  6 11  1  0
  7  8  1  0
  7 12  1  0
  8 13  1  0
  9 14  1  0
 13 15  1  0
 15 18  1  0
M  END
>  <PUBCHEM_COMPOUND_CID>  (1) 
48803

>  <PUBCHEM_CONFORMER_RMSD>  (1) 
0.8

>  <PUBCHEM_CONFORMER_DIVERSEORDER>  (1) 
1
16
29
5
25
24
12
31
3
26
30
17
11
23
2
13
10
8
6
20
4
22
7
15
19
9
14
21
18
28
27

>  <PUBCHEM_MMFF94_PARTIAL_CHARGES>  (1) 
11
1 -0.57
10 0.57
11 0.57
16 0.69
17 0.3
2 -0.57
3 -0.57
32 0.37
4 -0.42
5 -0.49
6 0.12

>  <PUBCHEM_EFFECTIVE_ROTOR_COUNT>  (1) 
5.6

>  <PUBCHEM_PHARMACOPHORE_FEATURES>  (1) 
9
1 1 acceptor
1 12 hydrophobe
1 14 hydrophobe
1 18 hydrophobe
1 2 acceptor
1 3 acceptor
1 5 donor
4 7 8 13 15 hydrophobe
6 4 5 6 10 11 16 rings

>  <PUBCHEM_HEAVY_ATOM_COUNT>  (1) 
18

>  <PUBCHEM_ATOM_DEF_STEREO_COUNT>  (1) 
0

>  <PUBCHEM_ATOM_UDEF_STEREO_COUNT>  (1) 
2

>  <PUBCHEM_BOND_DEF_STEREO_COUNT>  (1) 
0

>  <PUBCHEM_BOND_UDEF_STEREO_COUNT>  (1) 
0

>  <PUBCHEM_ISOTOPIC_ATOM_COUNT>  (1) 
0

>  <PUBCHEM_COMPONENT_COUNT>  (1) 
1

>  <PUBCHEM_CACTVS_TAUTO_COUNT>  (1) 
3

>  <PUBCHEM_CONFORMER_ID>  (1) 
0000BEA300000001

>  <PUBCHEM_MMFF94_ENERGY>  (1) 
44.1852

>  <PUBCHEM_FEATURE_SELFOVERLAP>  (1) 
45.68

>  <PUBCHEM_SHAPE_FINGERPRINT>  (1) 
11086676 242 14345786188609684148
12423570 1 10730323650360355742
12616999 72 16056878005847802029
12633257 1 17241311573235202912
14142880 1 17539677419518222692
14617773 55 17615387591473428326
14817 1 13521470244087116662
15061688 2 17845364612861158344
15852999 172 18335150803522972179
15906896 17 17902516226603772314
16945 1 17895176818920890986
17980427 23 17823417282971003565
18186145 218 17605009035236638681
19078846 21 11169901763526444327
20231682 184 18272374187150795517
23402539 116 15697703892102375088
23419403 2 17754434782316834542
23557571 272 18115328764229065467
23590187 302 11527946755575203617
3060560 45 18342464715909998022
474 4 18408325488706044289
4990 188 13973964311928600633
7364860 26 18200879452724301999
9999458 23 17631718397046695882

>  <PUBCHEM_SHAPE_MULTIPOLES>  (1) 
342.86
6.83
2.22
1.8
12.97
1.04
-0.07
-4.64
1.05
-2.07
-0.54
-0.96
0.07
-0.21

>  <PUBCHEM_SHAPE_SELFOVERLAP>  (1) 
692.335

>  <PUBCHEM_SHAPE_VOLUME>  (1) 
199.3

>  <PUBCHEM_COORDINATE_TYPE>  (1) 
2
5
10

$$$$
