48806
     RDKit          3D

 17 17  0  0  1  0  0  0  0  0999 V2000
   -0.3139   -1.2870   -1.6733 O   0  0  0  0  0  0  0  0  0  0  0  0
    0.1793    1.2362    2.1787 O   0  0  0  0  0  0  0  0  0  0  0  0
   -3.5560    1.7905   -0.4070 O   0  0  0  0  0  0  0  0  0  0  0  0
   -2.0619    0.1013   -1.0124 N   0  0  0  0  0  0  0  0  0  0  0  0
   -1.7150    1.4453    0.9017 N   0  0  0  0  0  0  0  0  0  0  0  0
   -0.3381   -0.5500    0.6253 C   0  0  0  0  0  0  0  0  0  0  0  0
    1.1613   -0.8869    0.6386 C   0  0  0  0  0  0  0  0  0  0  0  0
   -1.0980   -1.6093    1.4441 C   0  0  0  0  0  0  0  0  0  0  0  0
    1.9517    0.1952   -0.0674 C   0  0  0  0  0  0  0  0  0  0  0  0
   -0.8704   -0.6124   -0.8051 C   0  0  0  0  0  0  0  0  0  0  0  0
   -0.5603    0.7930    1.3011 C   0  0  0  0  0  0  0  0  0  0  0  0
    3.4439   -0.1334   -0.0235 C   0  0  0  0  0  0  0  0  0  0  0  0
   -0.9031   -2.9889    0.8568 C   0  0  0  0  0  0  0  0  0  0  0  0
    4.2697    0.9207   -0.7613 C   0  0  0  0  0  0  0  0  0  0  0  0
   -2.5306    1.1407   -0.1859 C   0  0  0  0  0  0  0  0  0  0  0  0
   -2.7877   -0.1412   -2.2536 C   0  0  0  0  0  0  0  0  0  0  0  0
    5.7292    0.5862   -0.7569 C   0  0  0  0  0  0  0  0  0  0  0  0
  1 10  2  0
  2 11  2  0
  3 15  2  0
  4 10  1  0
  4 15  1  0
  4 16  1  0
  5 11  1  0
  5 15  1  0
  6  7  1  0
  6  8  1  0
  6 10  1  0
  6 11  1  0
  7  9  1  0
  8 13  1  0
  9 12  1  0
 12 14  1  0
 14 17  1  0
M  END
>  <PUBCHEM_COMPOUND_CID>  (1) 
48806

>  <PUBCHEM_CONFORMER_RMSD>  (1) 
0.8

>  <PUBCHEM_CONFORMER_DIVERSEORDER>  (1) 
1
29
19
30
23
9
31
22
14
21
13
17
27
6
5
20
16
10
24
12
18
11
32
2
26
25
8
28
7
4
3
15

>  <PUBCHEM_MMFF94_PARTIAL_CHARGES>  (1) 
11
1 -0.57
10 0.57
11 0.57
15 0.69
16 0.3
2 -0.57
29 0.37
3 -0.57
4 -0.42
5 -0.49
6 0.12

>  <PUBCHEM_EFFECTIVE_ROTOR_COUNT>  (1) 
5.6

>  <PUBCHEM_PHARMACOPHORE_FEATURES>  (1) 
8
1 1 acceptor
1 13 hydrophobe
1 17 hydrophobe
1 2 acceptor
1 3 acceptor
1 5 donor
4 7 9 12 14 hydrophobe
6 4 5 6 10 11 15 rings

>  <PUBCHEM_HEAVY_ATOM_COUNT>  (1) 
17

>  <PUBCHEM_ATOM_DEF_STEREO_COUNT>  (1) 
0

>  <PUBCHEM_ATOM_UDEF_STEREO_COUNT>  (1) 
1

>  <PUBCHEM_BOND_DEF_STEREO_COUNT>  (1) 
0

>  <PUBCHEM_BOND_UDEF_STEREO_COUNT>  (1) 
0

>  <PUBCHEM_ISOTOPIC_ATOM_COUNT>  (1) 
0

>  <PUBCHEM_COMPONENT_COUNT>  (1) 
1

>  <PUBCHEM_CACTVS_TAUTO_COUNT>  (1) 
3

>  <PUBCHEM_CONFORMER_ID>  (1) 
0000BEA600000001

>  <PUBCHEM_MMFF94_ENERGY>  (1) 
34.5296

>  <PUBCHEM_FEATURE_SELFOVERLAP>  (1) 
40.597

>  <PUBCHEM_SHAPE_FINGERPRINT>  (1) 
12119455 92 17168135694166804875
12173636 292 18261397727994477004
12251169 10 13551200987052093252
12423570 1 16517112622252581339
13024252 1 13623808383758230819
13214271 11 14634866457374695918
14817 1 11119360752771123755
15061688 2 15792556488171597895
16945 1 17773571919721326123
19765921 60 18268707212708304673
20645476 183 18410853256947199614
20645477 56 17822297902929972060
20671657 53 15841263856844568936
20871999 31 17489580177710712973
21524375 3 17340149761827552400
23382010 3 18337936969986979992
23402539 116 16917074321994258792
23419403 2 17909552001614912403
23559900 14 18410856573748616072
27216 239 16515691086703636748
2748010 2 17199626893225310033
394222 165 17551528643084379953
4175511 318 18342468049194950996
633830 44 18192148192148836439

>  <PUBCHEM_SHAPE_MULTIPOLES>  (1) 
322.28
6.97
2.04
1.77
13.01
1.65
-0.01
-4.44
2.17
-1.59
-0.07
-1.23
-0.34
-0.12

>  <PUBCHEM_SHAPE_SELFOVERLAP>  (1) 
649.4

>  <PUBCHEM_SHAPE_VOLUME>  (1) 
187.8

>  <PUBCHEM_COORDINATE_TYPE>  (1) 
2
5
10

$$$$
