48802
     RDKit          3D

 17 17  0  0  1  0  0  0  0  0999 V2000
   -0.4618    0.2572    1.9967 O   0  0  0  0  0  0  0  0  0  0  0  0
    2.4728    1.5631   -1.3395 O   0  0  0  0  0  0  0  0  0  0  0  0
    1.9182   -2.8925   -0.4530 O   0  0  0  0  0  0  0  0  0  0  0  0
    0.5565   -1.3830    0.6957 N   0  0  0  0  0  0  0  0  0  0  0  0
    2.1251   -0.6656   -0.9215 N   0  0  0  0  0  0  0  0  0  0  0  0
    0.4726    0.9414   -0.1213 C   0  0  0  0  0  0  0  0  0  0  0  0
    0.4838    2.3629    0.4627 C   0  0  0  0  0  0  0  0  0  0  0  0
   -0.6448    0.8407   -1.1755 C   0  0  0  0  0  0  0  0  0  0  0  0
    0.1524   -0.0683    0.9791 C   0  0  0  0  0  0  0  0  0  0  0  0
    1.7910    0.6754   -0.8290 C   0  0  0  0  0  0  0  0  0  0  0  0
    1.6310    2.5425    1.4327 C   0  0  0  0  0  0  0  0  0  0  0  0
   -1.9885    0.9752   -0.5350 C   0  0  0  0  0  0  0  0  0  0  0  0
    1.5401   -1.7358   -0.2483 C   0  0  0  0  0  0  0  0  0  0  0  0
   -2.9779    0.0623   -0.5015 C   0  0  0  0  0  0  0  0  0  0  0  0
    0.0368   -2.4479    1.5456 C   0  0  0  0  0  0  0  0  0  0  0  0
   -4.3122    0.2571    0.1610 C   0  0  0  0  0  0  0  0  0  0  0  0
   -2.7951   -1.2847   -1.1489 C   0  0  0  0  0  0  0  0  0  0  0  0
  1  9  2  0
  2 10  2  0
  3 13  2  0
  4  9  1  0
  4 13  1  0
  4 15  1  0
  5 10  1  0
  5 13  1  0
  6  7  1  0
  6  8  1  0
  6  9  1  0
  6 10  1  0
  7 11  1  0
  8 12  1  0
 12 14  2  3
 14 16  1  0
 14 17  1  0
M  END
>  <PUBCHEM_COMPOUND_CID>  (1) 
48802

>  <PUBCHEM_CONFORMER_RMSD>  (1) 
0.6

>  <PUBCHEM_CONFORMER_DIVERSEORDER>  (1) 
4
22
20
12
31
30
28
27
15
33
8
25
29
14
32
24
16
18
21
9
6
13
19
26
11
23
2
7
17
10
3
1
5

>  <PUBCHEM_MMFF94_PARTIAL_CHARGES>  (1) 
17
1 -0.57
10 0.57
12 -0.29
13 0.69
14 -0.28
15 0.3
16 0.14
17 0.14
2 -0.57
25 0.15
26 0.37
3 -0.57
4 -0.42
5 -0.49
6 0.12
8 0.14
9 0.57

>  <PUBCHEM_EFFECTIVE_ROTOR_COUNT>  (1) 
3.6

>  <PUBCHEM_PHARMACOPHORE_FEATURES>  (1) 
7
1 1 acceptor
1 11 hydrophobe
1 2 acceptor
1 3 acceptor
1 5 donor
3 14 16 17 hydrophobe
6 4 5 6 9 10 13 rings

>  <PUBCHEM_HEAVY_ATOM_COUNT>  (1) 
17

>  <PUBCHEM_ATOM_DEF_STEREO_COUNT>  (1) 
0

>  <PUBCHEM_ATOM_UDEF_STEREO_COUNT>  (1) 
1

>  <PUBCHEM_BOND_DEF_STEREO_COUNT>  (1) 
0

>  <PUBCHEM_BOND_UDEF_STEREO_COUNT>  (1) 
0

>  <PUBCHEM_ISOTOPIC_ATOM_COUNT>  (1) 
0

>  <PUBCHEM_COMPONENT_COUNT>  (1) 
1

>  <PUBCHEM_CACTVS_TAUTO_COUNT>  (1) 
3

>  <PUBCHEM_CONFORMER_ID>  (1) 
0000BEA200000004

>  <PUBCHEM_MMFF94_ENERGY>  (1) 
40.2393

>  <PUBCHEM_FEATURE_SELFOVERLAP>  (1) 
35.522

>  <PUBCHEM_SHAPE_FINGERPRINT>  (1) 
12138202 97 17532945019505185052
12400797 292 18263367992591458183
12423570 1 11513673191791393280
12716301 132 17831017201815991696
14178342 30 18194105538180217653
14251745 187 18118409668201973695
14817 1 15909952302103991872
15001771 113 17979074881700169020
15852999 172 18189054368407775472
16945 1 18272929457539063805
19930374 2 17188409911505124408
20645477 70 18335130961317195351
22112679 90 17701276723417892704
22344851 341 17915731183584617773
23419403 2 17553512540002061320
23559900 14 18192722348680125436
25 1 18336273434764224605
2748010 2 17760384570341327102
3323516 105 17968957322273906027
5337951 7 18267309900685628020
5845 1 16245185138185554775
7364860 26 18271230686436162749
81228 2 17113795411545269713

>  <PUBCHEM_SHAPE_MULTIPOLES>  (1) 
322.28
4.36
2.84
1.54
5.32
1
0.42
-0.41
-1.13
-2.06
0.69
-0.37
-0.02
0.2

>  <PUBCHEM_SHAPE_SELFOVERLAP>  (1) 
658.379

>  <PUBCHEM_SHAPE_VOLUME>  (1) 
185.4

>  <PUBCHEM_COORDINATE_TYPE>  (1) 
2
5
10

$$$$
