48817
     RDKit          3D

 15 17  0  0  1  0  0  0  0  0999 V2000
   -0.3655   -2.8832   -0.3976 Br  0  0  0  0  0  0  0  0  0  0  0  0
   -2.6949    0.0761   -0.1754 N   0  0  0  0  0  0  0  0  0  0  0  0
   -0.3421   -0.0615    0.4530 C   0  0  0  0  0  0  0  0  0  0  0  0
    1.4986   -0.8178   -1.1289 C   0  0  0  0  0  0  0  0  0  0  0  0
    1.3420    1.6147   -0.4737 C   0  0  0  0  0  0  0  0  0  0  0  0
    2.0811   -0.0921    1.2197 C   0  0  0  0  0  0  0  0  0  0  0  0
    0.0182   -0.9913   -0.7345 C   0  0  0  0  0  0  0  0  0  0  0  0
   -0.1189    1.3986   -0.0399 C   0  0  0  0  0  0  0  0  0  0  0  0
    0.6177   -0.3051    1.6452 C   0  0  0  0  0  0  0  0  0  0  0  0
    1.6930    0.6349   -1.6072 C   0  0  0  0  0  0  0  0  0  0  0  0
    2.4306   -1.0570    0.0767 C   0  0  0  0  0  0  0  0  0  0  0  0
    2.2627    1.3527    0.7280 C   0  0  0  0  0  0  0  0  0  0  0  0
   -1.8027   -0.2042    0.9043 C   0  0  0  0  0  0  0  0  0  0  0  0
   -2.5163    1.4473   -0.6881 C   0  0  0  0  0  0  0  0  0  0  0  0
   -4.1035   -0.1122    0.2182 C   0  0  0  0  0  0  0  0  0  0  0  0
  1  7  1  0
  2 13  1  0
  2 14  1  0
  2 15  1  0
  3  7  1  0
  3  8  1  0
  3  9  1  0
  3 13  1  0
  4  7  1  0
  4 10  1  0
  4 11  1  0
  5  8  1  0
  5 10  1  0
  5 12  1  0
  6  9  1  0
  6 11  1  0
  6 12  1  0
M  END
>  <PUBCHEM_COMPOUND_CID>  (1) 
48817

>  <PUBCHEM_CONFORMER_RMSD>  (1) 
0.6

>  <PUBCHEM_CONFORMER_DIVERSEORDER>  (1) 
3
7
6
1
4
2
5

>  <PUBCHEM_MMFF94_PARTIAL_CHARGES>  (1) 
6
1 -0.23
13 0.27
14 0.27
15 0.27
2 -0.81
7 0.23

>  <PUBCHEM_EFFECTIVE_ROTOR_COUNT>  (1) 
3.2

>  <PUBCHEM_PHARMACOPHORE_FEATURES>  (1) 
6
1 1 hydrophobe
1 2 cation
6 3 4 5 7 8 10 rings
6 3 4 6 7 9 11 rings
6 3 5 6 8 9 12 rings
6 4 5 6 10 11 12 rings

>  <PUBCHEM_HEAVY_ATOM_COUNT>  (1) 
15

>  <PUBCHEM_ATOM_DEF_STEREO_COUNT>  (1) 
0

>  <PUBCHEM_ATOM_UDEF_STEREO_COUNT>  (1) 
3

>  <PUBCHEM_BOND_DEF_STEREO_COUNT>  (1) 
0

>  <PUBCHEM_BOND_UDEF_STEREO_COUNT>  (1) 
0

>  <PUBCHEM_ISOTOPIC_ATOM_COUNT>  (1) 
0

>  <PUBCHEM_COMPONENT_COUNT>  (1) 
1

>  <PUBCHEM_CACTVS_TAUTO_COUNT>  (1) 
1

>  <PUBCHEM_CONFORMER_ID>  (1) 
0000BEB100000003

>  <PUBCHEM_MMFF94_ENERGY>  (1) 
80.1398

>  <PUBCHEM_FEATURE_SELFOVERLAP>  (1) 
42.913

>  <PUBCHEM_SHAPE_FINGERPRINT>  (1) 
1 1 18341328894866350935
10219947 1 18413101745409573969
10863032 1 18128250293344730256
10948715 1 18128530660077811120
11680611 10 18046604948985577258
12423570 1 12026790821663099808
13024252 1 15437859401771038186
13172582 1 18411417332266428867
13380536 243 18410018710594881374
13380536 305 18341623628222085255
13538477 17 18043245945178417943
144361 1 18042144092867123924
14993402 34 18411427189395805950
15219459 52 18410577300998377902
15775835 57 18263083369551236905
15852999 172 17989199390927530718
16945 1 18266158678062766072
18186145 218 18060148626190011769
20511035 2 18113336414129688664
22344851 12 17749117651348166126
22344851 262 18263073482810678824
230 275 17676206892111102813
23419403 2 16180957630347854507
2748010 2 18408884005878630621
3060560 45 18411418410588115703
5084963 1 18131356280143126731
528886 8 18341344356505568701
68250623 7 18048590714514382202
81228 2 17837209651235326979

>  <PUBCHEM_SHAPE_MULTIPOLES>  (1) 
309.65
4.27
2.12
1.36
4.32
1.27
0.07
-0.87
0.21
-0.11
-0.46
-0.61
-0.04
0.18

>  <PUBCHEM_SHAPE_SELFOVERLAP>  (1) 
644.558

>  <PUBCHEM_SHAPE_VOLUME>  (1) 
182.6

>  <PUBCHEM_COORDINATE_TYPE>  (1) 
2
5
10

$$$$
