48837
     RDKit          3D

 16 17  0  0  1  0  0  0  0  0999 V2000
    0.2899   -0.7164   -0.4385 O   0  0  0  0  0  0  0  0  0  0  0  0
    1.3388    1.9221    0.0539 O   0  0  0  0  0  0  0  0  0  0  0  0
   -2.3341   -0.1544    0.4578 N   0  0  0  0  0  0  0  0  0  0  0  0
   -1.8742    0.1866   -0.8889 C   0  0  0  0  0  0  0  0  0  0  0  0
   -0.3812    0.4793   -0.8591 C   0  0  0  0  0  0  0  0  0  0  0  0
   -0.0582    1.6152    0.1026 C   0  0  0  0  0  0  0  0  0  0  0  0
   -3.7621   -0.4293    0.4590 C   0  0  0  0  0  0  0  0  0  0  0  0
   -2.1946   -0.9500   -1.8576 C   0  0  0  0  0  0  0  0  0  0  0  0
    1.6025   -0.4865   -0.1206 C   0  0  0  0  0  0  0  0  0  0  0  0
    2.1132    0.7932    0.1072 C   0  0  0  0  0  0  0  0  0  0  0  0
   -4.5369    0.7950   -0.0205 C   0  0  0  0  0  0  0  0  0  0  0  0
   -4.1991   -0.8395    1.8617 C   0  0  0  0  0  0  0  0  0  0  0  0
    2.4363   -1.6003   -0.0180 C   0  0  0  0  0  0  0  0  0  0  0  0
    3.4677    0.9640    0.3947 C   0  0  0  0  0  0  0  0  0  0  0  0
    3.7878   -1.4298    0.2829 C   0  0  0  0  0  0  0  0  0  0  0  0
    4.3039   -0.1492    0.4835 C   0  0  0  0  0  0  0  0  0  0  0  0
  1  5  1  0
  1  9  1  0
  2  6  1  0
  2 10  1  0
  3  4  1  0
  3  7  1  0
  4  5  1  0
  4  8  1  0
  5  6  1  0
  7 11  1  0
  7 12  1  0
  9 10  2  0
  9 13  1  0
 10 14  1  0
 13 15  2  0
 14 16  2  0
 15 16  1  0
M  END
>  <PUBCHEM_COMPOUND_CID>  (1) 
48837

>  <PUBCHEM_CONFORMER_RMSD>  (1) 
0.6

>  <PUBCHEM_CONFORMER_DIVERSEORDER>  (1) 
1
17
8
5
14
3
18
7
11
19
15
10
20
16
9
23
4
13
24
2
22
12
6
21

>  <PUBCHEM_MMFF94_PARTIAL_CHARGES>  (1) 
18
1 -0.36
10 0.08
13 -0.15
14 -0.15
15 -0.15
16 -0.15
19 0.36
2 -0.36
3 -0.9
32 0.15
33 0.15
34 0.15
35 0.15
4 0.27
5 0.28
6 0.28
7 0.27
9 0.08

>  <PUBCHEM_EFFECTIVE_ROTOR_COUNT>  (1) 
3.8

>  <PUBCHEM_PHARMACOPHORE_FEATURES>  (1) 
7
1 1 acceptor
1 2 acceptor
1 3 cation
1 3 donor
3 7 11 12 hydrophobe
6 1 2 5 6 9 10 rings
6 9 10 13 14 15 16 rings

>  <PUBCHEM_HEAVY_ATOM_COUNT>  (1) 
16

>  <PUBCHEM_ATOM_DEF_STEREO_COUNT>  (1) 
0

>  <PUBCHEM_ATOM_UDEF_STEREO_COUNT>  (1) 
2

>  <PUBCHEM_BOND_DEF_STEREO_COUNT>  (1) 
0

>  <PUBCHEM_BOND_UDEF_STEREO_COUNT>  (1) 
0

>  <PUBCHEM_ISOTOPIC_ATOM_COUNT>  (1) 
0

>  <PUBCHEM_COMPONENT_COUNT>  (1) 
1

>  <PUBCHEM_CACTVS_TAUTO_COUNT>  (1) 
1

>  <PUBCHEM_CONFORMER_ID>  (1) 
0000BEC500000001

>  <PUBCHEM_MMFF94_ENERGY>  (1) 
38.4917

>  <PUBCHEM_FEATURE_SELFOVERLAP>  (1) 
35.562

>  <PUBCHEM_SHAPE_FINGERPRINT>  (1) 
10498660 4 13470419807798926963
11046707 91 16298389093452966691
11132069 177 17917419926334371998
11471102 20 18411411813280978364
11796584 16 16661469711392184514
12032990 46 18334575703280779534
12236239 1 17632572764799464839
12251169 10 18131631183803959453
124424 183 18408038494891445965
12500047 106 14117795834188178652
12596602 18 17560805471801492035
128620 24 11963392946613643191
13296908 3 18114175324253234231
13675066 3 18411134740498156905
13705890 14 16878218689227960146
13760787 5 18410002256844124380
14252887 29 18271531914088994862
14386348 63 17894631448215949371
14445660 50 17632572773109941446
15309172 13 18201715150164863654
15375462 189 18342451547830281994
15653759 3 17530961380285488405
16945 1 18338221765501022268
17844478 74 18114175324364140668
18785283 64 17825111660491808668
200 152 18201708575265856511
20261772 1 18131633387085343431
20645477 56 12607414282514370587
20645477 70 18340474578420801903
20871998 22 18199474264258566998
22094290 60 15430029946598901127
22485316 2 17676487237579811195
23184049 59 18273215278874919974
23557571 272 16443337667918315500
23559900 14 17531239501193674570
26918003 58 18187361008620756880
2748010 2 18125425429072242108
53428517 58 8934995971349557645
5352402 22 18260842504829919195
602551 16 16660365912880423899
77492 1 17632289120442244125
83771 10 18334856099872526308

>  <PUBCHEM_SHAPE_MULTIPOLES>  (1) 
312.55
8.78
1.57
1.22
2.87
0.21
0.08
-1.61
-3.03
-0.87
-0.07
1.52
-0.39
0.34

>  <PUBCHEM_SHAPE_SELFOVERLAP>  (1) 
649.778

>  <PUBCHEM_SHAPE_VOLUME>  (1) 
178.8

>  <PUBCHEM_COORDINATE_TYPE>  (1) 
2
5
10

$$$$
