48838
     RDKit          3D

 14 15  0  0  1  0  0  0  0  0999 V2000
   -0.3627   -0.7574   -0.1447 O   0  0  0  0  0  0  0  0  0  0  0  0
    0.7361    1.9059   -0.2043 O   0  0  0  0  0  0  0  0  0  0  0  0
   -2.8939    0.0215    0.9160 N   0  0  0  0  0  0  0  0  0  0  0  0
   -1.0774    0.3681   -0.6735 C   0  0  0  0  0  0  0  0  0  0  0  0
   -2.5640    0.1021   -0.4870 C   0  0  0  0  0  0  0  0  0  0  0  0
   -0.6462    1.6368    0.0505 C   0  0  0  0  0  0  0  0  0  0  0  0
   -2.9929   -1.1723   -1.2039 C   0  0  0  0  0  0  0  0  0  0  0  0
    0.9777   -0.5040   -0.0183 C   0  0  0  0  0  0  0  0  0  0  0  0
    1.5112    0.7859   -0.0581 C   0  0  0  0  0  0  0  0  0  0  0  0
   -4.3206   -0.2235    1.1160 C   0  0  0  0  0  0  0  0  0  0  0  0
    1.8176   -1.6025    0.1672 C   0  0  0  0  0  0  0  0  0  0  0  0
    2.8898    0.9752    0.0432 C   0  0  0  0  0  0  0  0  0  0  0  0
    3.1947   -1.4112    0.2820 C   0  0  0  0  0  0  0  0  0  0  0  0
    3.7305   -0.1247    0.2148 C   0  0  0  0  0  0  0  0  0  0  0  0
  1  4  1  0
  1  8  1  0
  2  6  1  0
  2  9  1  0
  3  5  1  0
  3 10  1  0
  4  5  1  0
  4  6  1  0
  5  7  1  0
  8  9  2  0
  8 11  1  0
  9 12  1  0
 11 13  2  0
 12 14  2  0
 13 14  1  0
M  END
>  <PUBCHEM_COMPOUND_CID>  (1) 
48838

>  <PUBCHEM_CONFORMER_RMSD>  (1) 
0.6

>  <PUBCHEM_CONFORMER_DIVERSEORDER>  (1) 
2
10
3
12
5
7
4
9
13
11
14
1
6
8

>  <PUBCHEM_MMFF94_PARTIAL_CHARGES>  (1) 
18
1 -0.36
10 0.27
11 -0.15
12 -0.15
13 -0.15
14 -0.15
2 -0.36
22 0.36
26 0.15
27 0.15
28 0.15
29 0.15
3 -0.9
4 0.28
5 0.27
6 0.28
8 0.08
9 0.08

>  <PUBCHEM_EFFECTIVE_ROTOR_COUNT>  (1) 
2.8

>  <PUBCHEM_PHARMACOPHORE_FEATURES>  (1) 
6
1 1 acceptor
1 2 acceptor
1 3 cation
1 3 donor
6 1 2 4 6 8 9 rings
6 8 9 11 12 13 14 rings

>  <PUBCHEM_HEAVY_ATOM_COUNT>  (1) 
14

>  <PUBCHEM_ATOM_DEF_STEREO_COUNT>  (1) 
0

>  <PUBCHEM_ATOM_UDEF_STEREO_COUNT>  (1) 
2

>  <PUBCHEM_BOND_DEF_STEREO_COUNT>  (1) 
0

>  <PUBCHEM_BOND_UDEF_STEREO_COUNT>  (1) 
0

>  <PUBCHEM_ISOTOPIC_ATOM_COUNT>  (1) 
0

>  <PUBCHEM_COMPONENT_COUNT>  (1) 
1

>  <PUBCHEM_CACTVS_TAUTO_COUNT>  (1) 
1

>  <PUBCHEM_CONFORMER_ID>  (1) 
0000BEC600000002

>  <PUBCHEM_MMFF94_ENERGY>  (1) 
39.2416

>  <PUBCHEM_FEATURE_SELFOVERLAP>  (1) 
30.488

>  <PUBCHEM_SHAPE_FINGERPRINT>  (1) 
10219947 1 18411979161175350750
10980938 120 18411412947257742070
11132069 177 18271794718631658874
11471102 20 18408599270863285404
11471102 22 18335710437486911960
11543360 7 15068633681568330454
11769659 78 18337941308173019814
12032990 46 18334580096874171706
12251169 10 18201723946616269899
12500047 106 14764346037456729549
12932764 1 18272646852827724652
13296908 3 18114177506265406071
13705890 14 16370724812155756898
13760787 5 18335419088570350332
14144814 61 18343014506120599215
14251717 144 18338506538522122798
14252887 29 18341903960822248474
14445660 50 17917712409254337443
15309172 13 18343018878481910487
15375462 189 18412825793628982699
15501101 241 18409442609467586204
15775835 57 18060140959188072385
16945 1 18335978761479691764
17844478 74 17967533458599271469
18186145 218 18131348631038539652
19026448 4 16225757532458994476
19422 9 17988640830425203574
200 152 18272075124620397175
20201158 50 18186799175374845090
20279233 1 17603579733980842059
20645477 70 18337094679856457431
20871998 22 18269563732277131910
22445834 79 18342741793066881641
23402539 116 18338784651003586310
23463225 33 18411416194131666140
25610 137 18333454231248017692
26918003 58 18040715857416929003
2748010 2 18194390100943028292
581208 293 18338226159141685628
77492 1 17917710236006030527
83771 10 18335702723794284801
8809292 202 17967821573437497778

>  <PUBCHEM_SHAPE_MULTIPOLES>  (1) 
271.39
6.79
1.63
0.92
2.61
0.2
-0.01
-1.7
-1.47
-0.74
0.1
0.94
-0.14
-0.36

>  <PUBCHEM_SHAPE_SELFOVERLAP>  (1) 
570.549

>  <PUBCHEM_SHAPE_VOLUME>  (1) 
153.1

>  <PUBCHEM_COORDINATE_TYPE>  (1) 
2
5
10

$$$$
