48841
     RDKit          3D

 18 20  0  0  1  0  0  0  0  0999 V2000
    1.1340   -1.1013   -0.4649 O   0  0  0  0  0  0  0  0  0  0  0  0
    1.4121    1.3780    0.9775 O   0  0  0  0  0  0  0  0  0  0  0  0
   -2.3915   -0.2299    0.1141 N   0  0  0  0  0  0  0  0  0  0  0  0
   -1.2274   -1.0864   -0.1110 C   0  0  0  0  0  0  0  0  0  0  0  0
   -2.5240    0.7528   -0.9707 C   0  0  0  0  0  0  0  0  0  0  0  0
   -3.6093   -1.0420    0.2468 C   0  0  0  0  0  0  0  0  0  0  0  0
    0.0275   -0.2298   -0.1939 C   0  0  0  0  0  0  0  0  0  0  0  0
   -3.7087    1.6886   -0.7257 C   0  0  0  0  0  0  0  0  0  0  0  0
   -4.8293   -0.1647    0.5319 C   0  0  0  0  0  0  0  0  0  0  0  0
   -5.0039    0.9067   -0.5384 C   0  0  0  0  0  0  0  0  0  0  0  0
   -1.1146   -2.1242    1.0041 C   0  0  0  0  0  0  0  0  0  0  0  0
    0.2725    0.5220    1.1078 C   0  0  0  0  0  0  0  0  0  0  0  0
    2.3393   -0.4732   -0.2933 C   0  0  0  0  0  0  0  0  0  0  0  0
    2.4724    0.7339    0.3963 C   0  0  0  0  0  0  0  0  0  0  0  0
    3.4639   -1.0970   -0.8339 C   0  0  0  0  0  0  0  0  0  0  0  0
    3.7238    1.3404    0.5080 C   0  0  0  0  0  0  0  0  0  0  0  0
    4.7171   -0.4967   -0.7100 C   0  0  0  0  0  0  0  0  0  0  0  0
    4.8460    0.7230   -0.0448 C   0  0  0  0  0  0  0  0  0  0  0  0
  1  7  1  0
  1 13  1  0
  2 12  1  0
  2 14  1  0
  3  4  1  0
  3  5  1  0
  3  6  1  0
  4  7  1  0
  4 11  1  0
  5  8  1  0
  6  9  1  0
  7 12  1  0
  8 10  1  0
  9 10  1  0
 13 14  2  0
 13 15  1  0
 14 16  1  0
 15 17  2  0
 16 18  2  0
 17 18  1  0
M  END
>  <PUBCHEM_COMPOUND_CID>  (1) 
48841

>  <PUBCHEM_CONFORMER_RMSD>  (1) 
0.6

>  <PUBCHEM_CONFORMER_DIVERSEORDER>  (1) 
2
23
11
21
24
1
26
20
10
22
4
6
7
14
8
25
12
17
9
18
15
19
16
13
5
3

>  <PUBCHEM_MMFF94_PARTIAL_CHARGES>  (1) 
18
1 -0.36
12 0.28
13 0.08
14 0.08
15 -0.15
16 -0.15
17 -0.15
18 -0.15
2 -0.36
3 -0.81
36 0.15
37 0.15
38 0.15
39 0.15
4 0.27
5 0.27
6 0.27
7 0.28

>  <PUBCHEM_EFFECTIVE_ROTOR_COUNT>  (1) 
4

>  <PUBCHEM_PHARMACOPHORE_FEATURES>  (1) 
6
1 1 acceptor
1 2 acceptor
1 3 cation
6 1 2 7 12 13 14 rings
6 13 14 15 16 17 18 rings
6 3 5 6 8 9 10 rings

>  <PUBCHEM_HEAVY_ATOM_COUNT>  (1) 
18

>  <PUBCHEM_ATOM_DEF_STEREO_COUNT>  (1) 
0

>  <PUBCHEM_ATOM_UDEF_STEREO_COUNT>  (1) 
2

>  <PUBCHEM_BOND_DEF_STEREO_COUNT>  (1) 
0

>  <PUBCHEM_BOND_UDEF_STEREO_COUNT>  (1) 
0

>  <PUBCHEM_ISOTOPIC_ATOM_COUNT>  (1) 
0

>  <PUBCHEM_COMPONENT_COUNT>  (1) 
1

>  <PUBCHEM_CACTVS_TAUTO_COUNT>  (1) 
1

>  <PUBCHEM_CONFORMER_ID>  (1) 
0000BEC900000002

>  <PUBCHEM_MMFF94_ENERGY>  (1) 
44.3112

>  <PUBCHEM_FEATURE_SELFOVERLAP>  (1) 
30.488

>  <PUBCHEM_SHAPE_FINGERPRINT>  (1) 
10498660 4 17968928696248560181
10608611 8 18339357573396295656
10922049 32 18335138683193678323
11401426 45 17561359600044619330
11471102 20 18060420222726078388
11595378 159 16805592638577218133
12403259 415 18411701001955798505
12500047 106 18334575771805486738
12596602 18 15719400554932004837
12730499 353 18411704257926228051
12916748 109 18114185228690567697
13081056 2 18411136939647974069
13134695 92 17132111355640815120
13544592 145 18409455752231107318
13675066 3 18339926012359976402
13760787 5 17203331113011813940
14341114 328 15213305192616076965
14573314 32 18409731742064764348
15219456 202 18413387648312963383
15375358 24 18343301487688449450
17349148 13 15339125645065897654
17834072 8 18272374157096385612
18186145 218 18341612603146609443
200 152 16702023066977503090
20645477 56 18333731346584873165
20645477 70 17846506911338181078
21033648 29 18410564094269608377
21279426 13 18197219148497903748
221357 26 18131062711029621161
23175994 123 18060426823795764289
23402539 116 18260823826085538647
23402655 69 18060418006085279253
23536379 177 17748827389379817378
23557571 272 18334583455322261165
23559900 14 18411983542680523406
25 1 18341045233656094127
2916195 48 18409160038994731097
29717793 49 16200159768141176268
3004659 81 18261114020489795374
34934 24 17988635342216595806
3545911 37 18413110571382731342
4028521 119 18411133611164429157
4047638 21 18335421262013634378
4072396 5 18201707432947337738
495365 180 17632283619237997594
4990 188 18342177752002070966
5104073 3 18334294236450912155
5281201 14 18411422804086679196
542803 24 16443067196568519997
633830 44 18411410692410415935
69090 78 18343299297070830647
7471813 234 15770057233351218240

>  <PUBCHEM_SHAPE_MULTIPOLES>  (1) 
353.71
10.74
1.66
1
1.08
0.22
0.06
-2.54
-1.56
0.53
0.16
-0.08
-0.04
1.29

>  <PUBCHEM_SHAPE_SELFOVERLAP>  (1) 
749.462

>  <PUBCHEM_SHAPE_VOLUME>  (1) 
197.7

>  <PUBCHEM_COORDINATE_TYPE>  (1) 
2
5
10

$$$$
