48847
     RDKit          3D

 13 13  0  0  0  0  0  0  0  0999 V2000
   -4.0312    0.1792    0.0007 O   0  0  0  0  0  0  0  0  0  0  0  0
    3.5837    0.8710    0.0016 O   0  0  0  0  0  0  0  0  0  0  0  0
   -3.1271   -1.9063    0.0002 O   0  0  0  0  0  0  0  0  0  0  0  0
    1.9079   -0.7874    0.0004 N   0  0  0  0  0  0  0  0  0  0  0  0
    0.7192   -0.0567    0.0010 C   0  0  0  0  0  0  0  0  0  0  0  0
   -0.5077   -0.7200    0.0005 C   0  0  0  0  0  0  0  0  0  0  0  0
   -1.6958    0.0108   -0.0006 C   0  0  0  0  0  0  0  0  0  0  0  0
    0.7582    1.3376    0.0003 C   0  0  0  0  0  0  0  0  0  0  0  0
   -1.6568    1.4052   -0.0012 C   0  0  0  0  0  0  0  0  0  0  0  0
   -0.4298    2.0686   -0.0006 C   0  0  0  0  0  0  0  0  0  0  0  0
    3.2221   -0.3013   -0.0008 C   0  0  0  0  0  0  0  0  0  0  0  0
   -2.9752   -0.6801   -0.0003 C   0  0  0  0  0  0  0  0  0  0  0  0
    4.2325   -1.4209   -0.0012 C   0  0  0  0  0  0  0  0  0  0  0  0
  1 12  1  0
  2 11  2  0
  3 12  2  0
  4  5  1  0
  4 11  1  0
  5  6  2  0
  5  8  1  0
  6  7  1  0
  7  9  2  0
  7 12  1  0
  8 10  2  0
  9 10  1  0
 11 13  1  0
M  END
>  <PUBCHEM_COMPOUND_CID>  (1) 
48847

>  <PUBCHEM_CONFORMER_RMSD>  (1) 
0.6

>  <PUBCHEM_CONFORMER_DIVERSEORDER>  (1) 
1
4
5
8
2
3
7
6

>  <PUBCHEM_MMFF94_PARTIAL_CHARGES>  (1) 
19
1 -0.65
10 -0.15
11 0.57
12 0.63
13 0.06
14 0.15
15 0.15
16 0.15
17 0.37
18 0.15
2 -0.57
22 0.5
3 -0.57
4 -0.55
5 0.12
6 -0.15
7 0.09
8 -0.15
9 -0.15

>  <PUBCHEM_EFFECTIVE_ROTOR_COUNT>  (1) 
3

>  <PUBCHEM_PHARMACOPHORE_FEATURES>  (1) 
6
1 1 acceptor
1 2 acceptor
1 3 acceptor
1 4 donor
3 1 3 12 anion
6 5 6 7 8 9 10 rings

>  <PUBCHEM_HEAVY_ATOM_COUNT>  (1) 
13

>  <PUBCHEM_ATOM_DEF_STEREO_COUNT>  (1) 
0

>  <PUBCHEM_ATOM_UDEF_STEREO_COUNT>  (1) 
0

>  <PUBCHEM_BOND_DEF_STEREO_COUNT>  (1) 
0

>  <PUBCHEM_BOND_UDEF_STEREO_COUNT>  (1) 
0

>  <PUBCHEM_ISOTOPIC_ATOM_COUNT>  (1) 
0

>  <PUBCHEM_COMPONENT_COUNT>  (1) 
1

>  <PUBCHEM_CACTVS_TAUTO_COUNT>  (1) 
2

>  <PUBCHEM_CONFORMER_ID>  (1) 
0000BECF00000001

>  <PUBCHEM_MMFF94_ENERGY>  (1) 
38.5069

>  <PUBCHEM_FEATURE_SELFOVERLAP>  (1) 
30.504

>  <PUBCHEM_SHAPE_FINGERPRINT>  (1) 
10219947 1 18202567297414311270
11132069 177 18411695482832866616
11543360 7 15575005012744518202
11769659 78 18410571807666420070
11806522 49 18266174118211706311
12032990 46 18410578400414923626
12932764 1 17531807922961661744
14325111 11 18410573955535202880
14911166 2 18336254674953665837
16945 1 18266458711245113441
18186145 218 17095520712300567750
20281407 28 18412547625787593946
20281475 54 18411422833908447491
20871998 184 18202281364229795189
20871998 22 18271538536675247551
21267235 1 18410020913654842451
22213442 358 18339641256117876845
22485316 2 18410853278358758378
23402539 116 18341321223838294278
23463225 33 18410858771737922684
23557571 272 18129952165540866436
23559900 14 18411412883186634488
25610 137 18409732889132463316
2748010 2 18338784723765024053
3312278 4 18335421261887228875
5493415 88 18339079405807991227
7364860 26 18053663856480154897
8809292 202 18333454261212757059

>  <PUBCHEM_SHAPE_MULTIPOLES>  (1) 
244.94
6.88
1.82
0.59
3.14
0.34
0
-3.04
0
-0.41
0
0.01
0.01
0

>  <PUBCHEM_SHAPE_SELFOVERLAP>  (1) 
510.988

>  <PUBCHEM_SHAPE_VOLUME>  (1) 
138.7

>  <PUBCHEM_COORDINATE_TYPE>  (1) 
2
5
10

$$$$
