48842
     RDKit          3D

 16 17  0  0  1  0  0  0  0  0999 V2000
    0.3830   -0.5610   -0.6068 O   0  0  0  0  0  0  0  0  0  0  0  0
    1.5654    1.8878    0.3470 O   0  0  0  0  0  0  0  0  0  0  0  0
   -2.2813    0.1130    0.1585 N   0  0  0  0  0  0  0  0  0  0  0  0
   -1.6708    0.5661   -1.0685 C   0  0  0  0  0  0  0  0  0  0  0  0
   -0.1688    0.7323   -0.8903 C   0  0  0  0  0  0  0  0  0  0  0  0
    0.1515    1.6888    0.2508 C   0  0  0  0  0  0  0  0  0  0  0  0
   -1.9905   -0.3983   -2.2044 C   0  0  0  0  0  0  0  0  0  0  0  0
   -3.7267   -0.0428    0.0101 C   0  0  0  0  0  0  0  0  0  0  0  0
    1.6780   -0.4839   -0.1665 C   0  0  0  0  0  0  0  0  0  0  0  0
    2.2543    0.7051    0.2855 C   0  0  0  0  0  0  0  0  0  0  0  0
   -4.3978   -0.4926    1.3023 C   0  0  0  0  0  0  0  0  0  0  0  0
    2.4231   -1.6634   -0.1730 C   0  0  0  0  0  0  0  0  0  0  0  0
    3.5894    0.7250    0.6898 C   0  0  0  0  0  0  0  0  0  0  0  0
   -5.9009   -0.6784    1.1508 C   0  0  0  0  0  0  0  0  0  0  0  0
    3.7541   -1.6457    0.2444 C   0  0  0  0  0  0  0  0  0  0  0  0
    4.3380   -0.4521    0.6701 C   0  0  0  0  0  0  0  0  0  0  0  0
  1  5  1  0
  1  9  1  0
  2  6  1  0
  2 10  1  0
  3  4  1  0
  3  8  1  0
  4  5  1  0
  4  7  1  0
  5  6  1  0
  8 11  1  0
  9 10  2  0
  9 12  1  0
 10 13  1  0
 11 14  1  0
 12 15  2  0
 13 16  2  0
 15 16  1  0
M  END
>  <PUBCHEM_COMPOUND_CID>  (1) 
48842

>  <PUBCHEM_CONFORMER_RMSD>  (1) 
0.6

>  <PUBCHEM_CONFORMER_DIVERSEORDER>  (1) 
1
46
24
31
2
26
5
45
37
55
51
29
54
11
20
44
30
50
43
22
21
34
53
35
10
40
9
52
14
32
36
39
28
8
13
16
27
33
6
23
15
49
38
48
3
17
42
7
12
19
18
25
47
4
41

>  <PUBCHEM_MMFF94_PARTIAL_CHARGES>  (1) 
18
1 -0.36
10 0.08
12 -0.15
13 -0.15
15 -0.15
16 -0.15
2 -0.36
21 0.36
29 0.15
3 -0.9
30 0.15
34 0.15
35 0.15
4 0.27
5 0.28
6 0.28
8 0.27
9 0.08

>  <PUBCHEM_EFFECTIVE_ROTOR_COUNT>  (1) 
4.8

>  <PUBCHEM_PHARMACOPHORE_FEATURES>  (1) 
7
1 1 acceptor
1 14 hydrophobe
1 2 acceptor
1 3 cation
1 3 donor
6 1 2 5 6 9 10 rings
6 9 10 12 13 15 16 rings

>  <PUBCHEM_HEAVY_ATOM_COUNT>  (1) 
16

>  <PUBCHEM_ATOM_DEF_STEREO_COUNT>  (1) 
0

>  <PUBCHEM_ATOM_UDEF_STEREO_COUNT>  (1) 
2

>  <PUBCHEM_BOND_DEF_STEREO_COUNT>  (1) 
0

>  <PUBCHEM_BOND_UDEF_STEREO_COUNT>  (1) 
0

>  <PUBCHEM_ISOTOPIC_ATOM_COUNT>  (1) 
0

>  <PUBCHEM_COMPONENT_COUNT>  (1) 
1

>  <PUBCHEM_CACTVS_TAUTO_COUNT>  (1) 
1

>  <PUBCHEM_CONFORMER_ID>  (1) 
0000BECA00000001

>  <PUBCHEM_MMFF94_ENERGY>  (1) 
35.3187

>  <PUBCHEM_FEATURE_SELFOVERLAP>  (1) 
35.562

>  <PUBCHEM_SHAPE_FINGERPRINT>  (1) 
10354089 29 17917998290804112539
11543360 7 16081371795919481678
11796584 16 16807834457329967482
12032990 46 18336542712439898926
12251169 10 18202565090101671519
12596602 18 17489870474909166811
12670546 177 11169916108574606577
12892183 10 18272377447247049769
13464513 79 17821451282844426986
13675066 3 18342451521855042161
14252887 29 18271529710659982742
14386348 63 17894349986361517491
14445660 50 17131824387215965406
15061688 2 11311764060355062726
15375462 189 18273205392139649392
15527383 91 18412266146732356201
15885798 251 18260835886564929585
16945 1 18268973397997249220
17844478 74 18261384516817687972
18785283 64 18116151271588229140
19141452 34 18187651349265048131
193927 3 16950579800209843675
20261772 1 17847061077603154289
20374829 77 16588025732239486051
20388580 30 16298678264757818991
20645477 56 12751237017471359293
20645477 70 18197756852528285446
20724930 31 17967817145383802210
20871999 31 15574710279588594647
21041028 32 18341332210412610176
212847 35 13614529527843155666
212916 134 15195283106130842423
231179 274 11384110851894901358
23557571 272 16732696164380243708
23622692 88 17847063285517031573
26918003 58 18261384512269337441
2748010 2 17912064072515855748
2838139 119 11743835807707078603
31174 14 18334011739288185309
3286 77 18260835912281751985
4047638 21 12031791357237803971
42 15 18409174311814218281
4325135 7 16805329937376850844
5104073 3 18267574716132674592
5352402 22 18335708230106116075
83771 10 18187085040003135525

>  <PUBCHEM_SHAPE_MULTIPOLES>  (1) 
312.55
9.83
1.54
1.35
9.8
0.1
0.58
-4.27
-4.83
-1.2
-0.16
1.35
-0.06
0.81

>  <PUBCHEM_SHAPE_SELFOVERLAP>  (1) 
645.819

>  <PUBCHEM_SHAPE_VOLUME>  (1) 
179.2

>  <PUBCHEM_COORDINATE_TYPE>  (1) 
2
5
10

$$$$
