48857
     RDKit          3D

 19 19  0  0  0  0  0  0  0  0999 V2000
    0.5056   -1.6996    2.2695 O   0  0  0  0  0  0  0  0  0  0  0  0
    3.1016    0.2868   -0.5384 N   0  0  0  0  0  0  0  0  0  0  0  0
   -0.4059   -0.5140    0.4162 N   0  0  0  0  0  0  0  0  0  0  0  0
    1.9047    0.2698    0.3017 C   0  0  0  0  0  0  0  0  0  0  0  0
    0.7728   -0.4615   -0.4051 C   0  0  0  0  0  0  0  0  0  0  0  0
   -1.6501    0.0196   -0.1420 C   0  0  0  0  0  0  0  0  0  0  0  0
    3.5184   -1.0772   -0.8619 C   0  0  0  0  0  0  0  0  0  0  0  0
    4.1848    1.0074    0.1294 C   0  0  0  0  0  0  0  0  0  0  0  0
   -1.9649    1.3160    0.1401 C   0  0  0  0  0  0  0  0  0  0  0  0
   -2.4102   -0.8161   -0.9055 C   0  0  0  0  0  0  0  0  0  0  0  0
   -0.4331   -1.1381    1.6992 C   0  0  0  0  0  0  0  0  0  0  0  0
    4.7252   -1.0782   -1.7849 C   0  0  0  0  0  0  0  0  0  0  0  0
    3.7691    2.4277    0.4732 C   0  0  0  0  0  0  0  0  0  0  0  0
   -3.1506    1.8240   -0.3906 C   0  0  0  0  0  0  0  0  0  0  0  0
   -3.5959   -0.3078   -1.4363 C   0  0  0  0  0  0  0  0  0  0  0  0
   -1.1128    2.2103    0.9815 C   0  0  0  0  0  0  0  0  0  0  0  0
   -2.0408   -2.2341   -1.1992 C   0  0  0  0  0  0  0  0  0  0  0  0
   -3.9659    1.0122   -1.1788 C   0  0  0  0  0  0  0  0  0  0  0  0
   -1.7521   -1.0472    2.4318 C   0  0  0  0  0  0  0  0  0  0  0  0
  1 11  2  0
  2  4  1  0
  2  7  1  0
  2  8  1  0
  3  5  1  0
  3  6  1  0
  3 11  1  0
  4  5  1  0
  6  9  2  0
  6 10  1  0
  7 12  1  0
  8 13  1  0
  9 14  1  0
  9 16  1  0
 10 15  2  0
 10 17  1  0
 11 19  1  0
 14 18  2  0
 15 18  1  0
M  END
>  <PUBCHEM_COMPOUND_CID>  (1) 
48857

>  <PUBCHEM_CONFORMER_RMSD>  (1) 
0.8

>  <PUBCHEM_CONFORMER_DIVERSEORDER>  (1) 
2
29
27
39
37
25
38
31
22
21
41
34
17
20
23
26
32
42
40
10
16
28
30
13
35
19
12
36
18
9
33
8
14
11
5
4
15
1
3
24
6
7

>  <PUBCHEM_MMFF94_PARTIAL_CHARGES>  (1) 
20
1 -0.57
10 -0.14
11 0.57
14 -0.15
15 -0.15
16 0.14
17 0.14
18 -0.15
19 0.06
2 -0.81
3 -0.48
34 0.15
35 0.15
4 0.27
42 0.15
5 0.3
6 0.12
7 0.27
8 0.27
9 -0.14

>  <PUBCHEM_EFFECTIVE_ROTOR_COUNT>  (1) 
7

>  <PUBCHEM_PHARMACOPHORE_FEATURES>  (1) 
3
1 1 acceptor
1 2 cation
6 6 9 10 14 15 18 rings

>  <PUBCHEM_HEAVY_ATOM_COUNT>  (1) 
19

>  <PUBCHEM_ATOM_DEF_STEREO_COUNT>  (1) 
0

>  <PUBCHEM_ATOM_UDEF_STEREO_COUNT>  (1) 
0

>  <PUBCHEM_BOND_DEF_STEREO_COUNT>  (1) 
0

>  <PUBCHEM_BOND_UDEF_STEREO_COUNT>  (1) 
0

>  <PUBCHEM_ISOTOPIC_ATOM_COUNT>  (1) 
0

>  <PUBCHEM_COMPONENT_COUNT>  (1) 
1

>  <PUBCHEM_CACTVS_TAUTO_COUNT>  (1) 
1

>  <PUBCHEM_CONFORMER_ID>  (1) 
0000BED900000002

>  <PUBCHEM_MMFF94_ENERGY>  (1) 
70.3664

>  <PUBCHEM_FEATURE_SELFOVERLAP>  (1) 
15.223

>  <PUBCHEM_SHAPE_FINGERPRINT>  (1) 
11543360 7 18059567031419620412
11578080 2 16343407402824656712
12119455 92 15357966850918882943
12363563 72 14405178448362574230
12892183 10 10881688978975338013
12916754 54 17846226574321867454
14790565 3 18058734577281741673
15342168 16 16588024555043894295
15534591 1 18188494571187059801
16945 1 18266718299701265545
1813 80 12463565205510053552
18186145 218 18186518791493881492
18222031 100 12247671703681875189
19765921 60 17968361378286537609
19930381 70 17699556245608923864
200 152 16056878001067473294
20361792 2 13398620667280056985
204376 136 16660648423144751371
20671657 53 16774075185085395472
20871999 31 18130208463608919559
21339142 149 18114459071526198187
22079108 93 17967257481755901009
22907989 373 17315097659623709062
2306618 200 17060066882389963163
23352939 185 17559955592489545761
23419403 2 17174060125417019723
23557571 272 18044380658679730114
23559900 14 17988636381493011164
312423 11 16415214385747481484
4028521 119 18335978692565276853
4340502 62 17313383380147834521
474 4 17894344479923326156
6049 1 18118428308892781840
633830 44 18333447625424844844
81228 2 16880495931921726298
84936 182 17679846138070657545
9709674 26 18341613763125370108
9981440 41 18120642798346971600

>  <PUBCHEM_SHAPE_MULTIPOLES>  (1) 
375.18
8.16
2.31
1.91
7.76
0.74
1.47
1.06
-4.74
0.32
-0.16
-0.77
-0.95
0.77

>  <PUBCHEM_SHAPE_SELFOVERLAP>  (1) 
754.881

>  <PUBCHEM_SHAPE_VOLUME>  (1) 
221.9

>  <PUBCHEM_COORDINATE_TYPE>  (1) 
2
5
10

$$$$
