48858
     RDKit          3D

 23 26  0  0  0  0  0  0  0  0999 V2000
    3.4464   -1.3785   -0.3940 O   0  0  0  0  0  0  0  0  0  0  0  0
    2.5417   -0.0841    1.3984 O   0  0  0  0  0  0  0  0  0  0  0  0
    0.9929    0.7302   -3.1029 O   0  0  0  0  0  0  0  0  0  0  0  0
   -3.8140   -1.8519    0.3004 N   0  0  0  0  0  0  0  0  0  0  0  0
   -2.3864    2.5946    0.7833 N   0  0  0  0  0  0  0  0  0  0  0  0
    0.6094   -0.6755   -0.7416 N   0  0  0  0  0  0  0  0  0  0  0  0
   -3.1268    0.3811    0.5523 N   0  0  0  0  0  0  0  0  0  0  0  0
   -0.8653    0.9809    0.0197 N   0  0  0  0  0  0  0  0  0  0  0  0
   -1.5937   -1.2919   -0.2279 N   0  0  0  0  0  0  0  0  0  0  0  0
    1.7082    0.2709   -0.8705 C   0  0  0  0  0  0  0  0  0  0  0  0
    2.9461   -0.4766   -1.3795 C   0  0  0  0  0  0  0  0  0  0  0  0
    1.9951    0.8845    0.5049 C   0  0  0  0  0  0  0  0  0  0  0  0
    3.6882   -0.7659    0.8775 C   0  0  0  0  0  0  0  0  0  0  0  0
    1.2831    1.3521   -1.8662 C   0  0  0  0  0  0  0  0  0  0  0  0
   -3.4855   -3.2533    0.5916 C   0  0  0  0  0  0  0  0  0  0  0  0
   -3.9872   -2.8629   -0.7507 C   0  0  0  0  0  0  0  0  0  0  0  0
   -1.3386    3.4539    1.3169 C   0  0  0  0  0  0  0  0  0  0  0  0
   -1.9396    3.7091   -0.0392 C   0  0  0  0  0  0  0  0  0  0  0  0
   -2.7941   -0.8722    0.2036 C   0  0  0  0  0  0  0  0  0  0  0  0
   -2.1129    1.2535    0.4351 C   0  0  0  0  0  0  0  0  0  0  0  0
   -0.6496   -0.3195   -0.3049 C   0  0  0  0  0  0  0  0  0  0  0  0
    4.9240    0.1412    0.8463 C   0  0  0  0  0  0  0  0  0  0  0  0
    3.9586   -1.9199    1.8473 C   0  0  0  0  0  0  0  0  0  0  0  0
  1 11  1  0
  1 13  1  0
  2 12  1  0
  2 13  1  0
  3 14  1  0
  4 15  1  0
  4 16  1  0
  4 19  1  0
  5 17  1  0
  5 18  1  0
  5 20  1  0
  6 10  1  0
  6 21  1  0
  7 19  2  0
  7 20  1  0
  8 20  2  0
  8 21  1  0
  9 19  1  0
  9 21  2  0
 10 11  1  0
 10 12  1  0
 10 14  1  0
 13 22  1  0
 13 23  1  0
 15 16  1  0
 17 18  1  0
M  END
>  <PUBCHEM_COMPOUND_CID>  (1) 
48858

>  <PUBCHEM_CONFORMER_RMSD>  (1) 
0.8

>  <PUBCHEM_CONFORMER_DIVERSEORDER>  (1) 
1
46
19
62
36
4
58
30
26
39
55
68
10
23
27
13
49
33
53
6
60
2
67
38
17
45
63
31
56
57
72
9
7
21
14
42
48
66
43
71
64
41
16
28
20
25
70
61
5
47
59
44
69
3
51
8
32
29
52
50
12
65
54
40
24
18
34
35
11
15
22
37

>  <PUBCHEM_MMFF94_PARTIAL_CHARGES>  (1) 
31
1 -0.56
10 0.37
11 0.28
12 0.28
13 0.56
14 0.28
15 -0.03
16 -0.03
17 -0.03
18 -0.03
19 0.72
2 -0.56
20 0.72
21 0.72
3 -0.68
30 0.4
31 0.1
32 0.1
33 0.1
34 0.1
35 0.1
36 0.1
37 0.1
38 0.1
4 -0.44
45 0.4
5 -0.44
6 -0.87
7 -0.62
8 -0.62
9 -0.62

>  <PUBCHEM_EFFECTIVE_ROTOR_COUNT>  (1) 
7.4

>  <PUBCHEM_PHARMACOPHORE_FEATURES>  (1) 
11
1 1 acceptor
1 2 acceptor
1 3 acceptor
1 3 donor
1 6 donor
3 13 22 23 hydrophobe
4 4 7 9 19 cation
4 5 7 8 20 cation
4 6 8 9 21 cation
6 1 2 10 11 12 13 rings
6 7 8 9 19 20 21 rings

>  <PUBCHEM_HEAVY_ATOM_COUNT>  (1) 
23

>  <PUBCHEM_ATOM_DEF_STEREO_COUNT>  (1) 
0

>  <PUBCHEM_ATOM_UDEF_STEREO_COUNT>  (1) 
0

>  <PUBCHEM_BOND_DEF_STEREO_COUNT>  (1) 
0

>  <PUBCHEM_BOND_UDEF_STEREO_COUNT>  (1) 
0

>  <PUBCHEM_ISOTOPIC_ATOM_COUNT>  (1) 
0

>  <PUBCHEM_COMPONENT_COUNT>  (1) 
1

>  <PUBCHEM_CACTVS_TAUTO_COUNT>  (1) 
3

>  <PUBCHEM_CONFORMER_ID>  (1) 
0000BEDA00000001

>  <PUBCHEM_MMFF94_ENERGY>  (1) 
108.5075

>  <PUBCHEM_FEATURE_SELFOVERLAP>  (1) 
55.985

>  <PUBCHEM_SHAPE_FINGERPRINT>  (1) 
10319926 262 18199734866185096314
11552529 35 18337660919970669874
11578080 2 17896578721921950468
11582403 64 16765311867043259328
11725454 13 16840474520672907392
12077114 3 17916011378988258360
12160290 23 18195834915394195153
12363563 72 18270122460546888807
12549972 3 16914555250265006830
12553582 1 18125742298837944391
12633257 1 18131357379771118177
12788726 201 18336562593543059291
12892183 10 18341316843668036674
13009979 54 18260841396696474054
13140716 1 18342181106883290785
13583140 156 17559370527765478178
13965767 371 17179693554208752272
14022347 108 17981075160098534623
14178342 30 18337674096725092614
14787075 74 18047188837083648160
15042514 8 18411428285013380107
15420108 30 17470434141677049033
15475509 35 17393060838832935723
15842332 3 17969243199259682084
17980427 26 16901008008459211077
18186145 218 13118268318017450703
19049666 15 17557716767397300796
20600515 1 17915468400738349491
20645477 70 15574437622185277194
21033648 29 16988270976957829994
21065201 7 18200319814549440086
21069387 34 17386002922662951275
21304303 282 17906703953283254597
21452121 199 18267021846087798361
21650355 55 18412824707466415555
22112679 90 17895771590429628524
23184049 29 18412266163759380937
23366157 5 17687750854339525609
23419403 2 17831259008184736333
23503958 8 18336818702559159618
23557571 272 17917163710113421037
23559900 14 17914342265051281070
23598288 3 18337963371731496327
23598291 2 18041014916232550670
23845131 108 17550972299418920673
3091708 16 8556820076879572433
463206 1 18118961640431055227
621550 5 16267197021771694461
6992083 37 17969227728618735068
7097593 13 18117557327963659002
7615 1 18113912549696252820
81228 2 18128841701983751897
90316 7 18341339954744404153
9841814 1 17910128133134487059

>  <PUBCHEM_SHAPE_MULTIPOLES>  (1) 
425.84
8.14
3.77
1.73
3.38
1.9
-1.03
-6.12
2.59
-5.52
1.13
1.56
0.31
-1.34

>  <PUBCHEM_SHAPE_SELFOVERLAP>  (1) 
895.747

>  <PUBCHEM_SHAPE_VOLUME>  (1) 
235.5

>  <PUBCHEM_COORDINATE_TYPE>  (1) 
2
5
10

$$$$
