48856
     RDKit          3D

 18 18  0  0  0  0  0  0  0  0999 V2000
   -4.1418   -0.1521    0.7489 O   0  0  0  0  0  0  0  0  0  0  0  0
    5.6926    0.8713   -0.1763 N   0  0  0  0  0  0  0  0  0  0  0  0
    2.0773   -0.0247   -0.0893 N   0  0  0  0  0  0  0  0  0  0  0  0
    1.6292   -2.2108   -0.9478 N   0  0  0  0  0  0  0  0  0  0  0  0
    4.2598    1.0338    0.0684 C   0  0  0  0  0  0  0  0  0  0  0  0
    3.5018   -0.2093   -0.3750 C   0  0  0  0  0  0  0  0  0  0  0  0
   -0.1703   -0.7727   -0.0820 C   0  0  0  0  0  0  0  0  0  0  0  0
    1.2815   -0.9998   -0.3848 C   0  0  0  0  0  0  0  0  0  0  0  0
    6.2029   -0.2997    0.5356 C   0  0  0  0  0  0  0  0  0  0  0  0
    6.4199    2.0734    0.2292 C   0  0  0  0  0  0  0  0  0  0  0  0
   -2.8254   -0.3582    0.4726 C   0  0  0  0  0  0  0  0  0  0  0  0
   -4.7775    0.9476    0.0989 C   0  0  0  0  0  0  0  0  0  0  0  0
   -6.2535    0.6267   -0.0798 C   0  0  0  0  0  0  0  0  0  0  0  0
   -0.6541    0.5103   -0.1347 C   0  0  0  0  0  0  0  0  0  0  0  0
   -0.9472   -1.8592    0.2342 C   0  0  0  0  0  0  0  0  0  0  0  0
   -2.0037    0.7212    0.1472 C   0  0  0  0  0  0  0  0  0  0  0  0
   -2.2970   -1.6485    0.5161 C   0  0  0  0  0  0  0  0  0  0  0  0
   -6.9948    1.7506   -0.7813 C   0  0  0  0  0  0  0  0  0  0  0  0
  1 11  1  0
  1 12  1  0
  2  5  1  0
  2  9  1  0
  2 10  1  0
  3  6  1  0
  3  8  2  0
  4  8  1  0
  5  6  1  0
  7  8  1  0
  7 14  2  0
  7 15  1  0
 11 16  2  0
 11 17  1  0
 12 13  1  0
 13 18  1  0
 14 16  1  0
 15 17  2  0
M  END
>  <PUBCHEM_COMPOUND_CID>  (1) 
48856

>  <PUBCHEM_CONFORMER_RMSD>  (1) 
0.8

>  <PUBCHEM_CONFORMER_DIVERSEORDER>  (1) 
1
32
3
53
15
49
63
22
68
25
26
16
9
52
61
58
2
35
24
39
47
60
30
57
40
34
11
54
41
66
67
23
51
31
36
55
71
46
64
59
65
56
33
43
14
7
27
50
62
42
70
48
28
10
29
18
17
4
19
20
38
6
37
45
13
69
12
21
44
8
5

>  <PUBCHEM_MMFF94_PARTIAL_CHARGES>  (1) 
22
1 -0.36
10 0.27
11 0.08
12 0.28
14 -0.15
15 -0.15
16 -0.15
17 -0.15
2 -0.81
3 -0.7
33 0.15
34 0.15
35 0.15
36 0.15
4 -0.85
40 0.4
41 0.4
5 0.27
6 0.25
7 0.09
8 0.41
9 0.27

>  <PUBCHEM_EFFECTIVE_ROTOR_COUNT>  (1) 
7

>  <PUBCHEM_PHARMACOPHORE_FEATURES>  (1) 
6
1 1 acceptor
1 18 hydrophobe
1 2 cation
1 4 donor
3 3 4 8 cation
6 7 11 14 15 16 17 rings

>  <PUBCHEM_HEAVY_ATOM_COUNT>  (1) 
18

>  <PUBCHEM_ATOM_DEF_STEREO_COUNT>  (1) 
0

>  <PUBCHEM_ATOM_UDEF_STEREO_COUNT>  (1) 
0

>  <PUBCHEM_BOND_DEF_STEREO_COUNT>  (1) 
0

>  <PUBCHEM_BOND_UDEF_STEREO_COUNT>  (1) 
0

>  <PUBCHEM_ISOTOPIC_ATOM_COUNT>  (1) 
0

>  <PUBCHEM_COMPONENT_COUNT>  (1) 
1

>  <PUBCHEM_CACTVS_TAUTO_COUNT>  (1) 
2

>  <PUBCHEM_CONFORMER_ID>  (1) 
0000BED800000001

>  <PUBCHEM_MMFF94_ENERGY>  (1) 
54.0543

>  <PUBCHEM_FEATURE_SELFOVERLAP>  (1) 
30.446

>  <PUBCHEM_SHAPE_FINGERPRINT>  (1) 
10014705 185 18341335577640083211
117890 112 18334013895324552244
12236239 1 17748827444845140282
13214271 11 18340209690713334967
14123256 34 9295288356676270549
14251718 22 12175623971046913040
14350574 20 10087637096185928283
14729087 3 18333728014107379109
15048467 5 18410575089042747593
17980427 23 18187648071376469511
20157964 124 18342459201282999782
20281389 69 18187081754279723332
20554085 129 17988626498652503042
20621476 21 11815601022294841181
21150785 3 15985099721812012917
21859007 373 17315063372941535439
22288116 15 17774992545074691807
23035841 295 11672061943756639061
23402539 116 18409444816843315127
23402655 69 18200592502449967191
23559900 14 18342459239921751282
246663 6 11671778291490180125
2767999 5 18130786763401104888
2838139 119 18410849967287464357
2916195 48 18334295358075692009
300161 21 18409728465052345890
312425 54 16732980959867613432
34934 24 18409728456800248715
351380 3 8070031043050974824
465052 167 8214137473482682016
5104073 3 18262232348331905042
5207 217 17704068508590784599
5283384 27 18261384547120069869
59682541 35 18336838597480469819
59682541 52 17131564829837201060
59755656 215 18339932515642362230
59755656 520 18260259763783566879
6327066 14 18343018943359938372
8863177 126 10087335847523094437

>  <PUBCHEM_SHAPE_MULTIPOLES>  (1) 
349.62
17.27
1.94
0.77
2.2
0.24
0.03
-12.91
-0.02
0.3
0.18
-0.16
0.09
0.97

>  <PUBCHEM_SHAPE_SELFOVERLAP>  (1) 
698.88

>  <PUBCHEM_SHAPE_VOLUME>  (1) 
208.6

>  <PUBCHEM_COORDINATE_TYPE>  (1) 
2
5
10

$$$$
