48851
     RDKit          3D

 23 23  0  0  0  0  0  0  0  0999 V2000
    0.3368   -2.7605   -1.1409 I   0  0  0  0  0  0  0  0  0  0  0  0
    0.8847    3.2488   -0.2090 I   0  0  0  0  0  0  0  0  0  0  0  0
   -4.6036    0.5893    0.1449 I   0  0  0  0  0  0  0  0  0  0  0  0
    2.4757   -0.2132    1.3237 O   0  0  0  0  0  0  0  0  0  0  0  0
   -2.3479    3.1350    1.5336 O   0  0  0  0  0  0  0  0  0  0  0  0
   -2.7536    3.6817   -0.6352 O   0  0  0  0  0  0  0  0  0  0  0  0
   -2.7138   -2.7578    1.6546 O   0  0  0  0  0  0  0  0  0  0  0  0
    1.6297    0.1757   -0.8316 N   0  0  0  0  0  0  0  0  0  0  0  0
   -2.7227   -1.9331   -0.5522 N   0  0  0  0  0  0  0  0  0  0  0  0
    5.1456   -0.3405    0.4304 C   0  0  0  0  0  0  0  0  0  0  0  0
    3.9960   -0.0849   -0.5434 C   0  0  0  0  0  0  0  0  0  0  0  0
    6.5072   -0.3629   -0.2684 C   0  0  0  0  0  0  0  0  0  0  0  0
    0.2345    0.2695   -0.6142 C   0  0  0  0  0  0  0  0  0  0  0  0
    2.6221   -0.0613    0.1155 C   0  0  0  0  0  0  0  0  0  0  0  0
   -1.9233   -0.7831   -0.4765 C   0  0  0  0  0  0  0  0  0  0  0  0
   -0.5482   -0.8747   -0.6919 C   0  0  0  0  0  0  0  0  0  0  0  0
   -0.3325    1.5035   -0.3250 C   0  0  0  0  0  0  0  0  0  0  0  0
    7.6340   -0.6191    0.7202 C   0  0  0  0  0  0  0  0  0  0  0  0
   -1.7077    1.5950   -0.1097 C   0  0  0  0  0  0  0  0  0  0  0  0
   -2.5031    0.4518   -0.1856 C   0  0  0  0  0  0  0  0  0  0  0  0
   -2.3154    2.8905    0.1985 C   0  0  0  0  0  0  0  0  0  0  0  0
   -3.0546   -2.8163    0.4776 C   0  0  0  0  0  0  0  0  0  0  0  0
   -3.9398   -3.9335   -0.0154 C   0  0  0  0  0  0  0  0  0  0  0  0
  1 16  1  0
  2 17  1  0
  3 20  1  0
  4 14  2  0
  5 21  1  0
  6 21  2  0
  7 22  2  0
  8 13  1  0
  8 14  1  0
  9 15  1  0
  9 22  1  0
 10 11  1  0
 10 12  1  0
 11 14  1  0
 12 18  1  0
 13 16  2  0
 13 17  1  0
 15 16  1  0
 15 20  2  0
 17 19  2  0
 19 20  1  0
 19 21  1  0
 22 23  1  0
M  END
>  <PUBCHEM_COMPOUND_CID>  (1) 
48851

>  <PUBCHEM_CONFORMER_RMSD>  (1) 
0.8

>  <PUBCHEM_CONFORMER_DIVERSEORDER>  (1) 
1
10
8
15
5
11
4
9
3
12
6
7
16
2
13
14

>  <PUBCHEM_MMFF94_PARTIAL_CHARGES>  (1) 
23
1 -0.08
11 0.06
13 0.12
14 0.57
15 0.12
16 0.08
17 0.08
19 0.09
2 -0.08
20 0.08
21 0.63
22 0.57
23 0.06
3 -0.08
30 0.37
34 0.37
38 0.5
4 -0.57
5 -0.65
6 -0.57
7 -0.57
8 -0.55
9 -0.55

>  <PUBCHEM_EFFECTIVE_ROTOR_COUNT>  (1) 
8

>  <PUBCHEM_PHARMACOPHORE_FEATURES>  (1) 
12
1 1 hydrophobe
1 18 hydrophobe
1 2 hydrophobe
1 3 hydrophobe
1 4 acceptor
1 5 acceptor
1 6 acceptor
1 7 acceptor
1 8 donor
1 9 donor
3 5 6 21 anion
6 13 15 16 17 19 20 rings

>  <PUBCHEM_HEAVY_ATOM_COUNT>  (1) 
23

>  <PUBCHEM_ATOM_DEF_STEREO_COUNT>  (1) 
0

>  <PUBCHEM_ATOM_UDEF_STEREO_COUNT>  (1) 
0

>  <PUBCHEM_BOND_DEF_STEREO_COUNT>  (1) 
0

>  <PUBCHEM_BOND_UDEF_STEREO_COUNT>  (1) 
0

>  <PUBCHEM_ISOTOPIC_ATOM_COUNT>  (1) 
0

>  <PUBCHEM_COMPONENT_COUNT>  (1) 
1

>  <PUBCHEM_CACTVS_TAUTO_COUNT>  (1) 
4

>  <PUBCHEM_CONFORMER_ID>  (1) 
0000BED300000001

>  <PUBCHEM_MMFF94_ENERGY>  (1) 
107.918

>  <PUBCHEM_FEATURE_SELFOVERLAP>  (1) 
60.954

>  <PUBCHEM_SHAPE_FINGERPRINT>  (1) 
10366900 7 18131056117858689299
10411042 1 18194400219902250031
10906281 52 18341630182912359069
1100329 8 18410296938882472497
11315181 36 18259982678906296452
12236239 1 17894633630581529756
12788726 201 18335129882942917275
13140716 1 18269561696826578321
13631057 29 18335415807590265698
14178342 30 18337964406312212534
14713325 29 18341334418188986426
14844126 61 18411135865706151419
15042514 8 18339924921654950991
16945 1 18340218418593107429
17844677 252 18341614850279655480
20101258 96 18337116760341205256
20600515 1 18270975552784756924
20739085 24 17979099376563302747
21033648 29 17560503050585354680
22182313 1 17845389781717536590
2334 1 18053107517098249485
23402539 116 18343293786891242014
23557571 272 18272655602346188700
23559900 14 18338506560081595424
2748010 2 18125725832017428949
335352 9 18410290316095565653
352729 6 18340778108634709157
4073 2 18410858721153590774
4409770 3 18334851702522360773
5104073 3 18341896354841258736
5265222 85 18200878483296219510
59755656 215 18340208475580488518
77188 2 18121781905146237221
7970288 3 18193274324301547622
81228 2 18341062834985954653
9981440 41 18270116803610840314

>  <PUBCHEM_SHAPE_MULTIPOLES>  (1) 
475.7
11.67
4.67
1.1
26.72
0.45
0.2
-4.53
3.04
-6.69
0.15
-0.08
-0.26
0.2

>  <PUBCHEM_SHAPE_SELFOVERLAP>  (1) 
912.917

>  <PUBCHEM_SHAPE_VOLUME>  (1) 
298.4

>  <PUBCHEM_COORDINATE_TYPE>  (1) 
2
5
10

$$$$
