48850
     RDKit          3D

 26 26  0  0  0  0  0  0  0  0999 V2000
   -0.3635   -2.3920    1.1770 I   0  0  0  0  0  0  0  0  0  0  0  0
   -0.9145    3.5859    0.0646 I   0  0  0  0  0  0  0  0  0  0  0  0
   -5.8260   -0.0364   -0.1973 I   0  0  0  0  0  0  0  0  0  0  0  0
    1.3577   -0.6590   -0.8534 O   0  0  0  0  0  0  0  0  0  0  0  0
   -4.0661    2.8364   -1.6671 O   0  0  0  0  0  0  0  0  0  0  0  0
   -4.5711    3.3627    0.4857 O   0  0  0  0  0  0  0  0  0  0  0  0
   -3.3489   -3.0323   -1.6062 O   0  0  0  0  0  0  0  0  0  0  0  0
    0.3868    0.7222    0.7818 N   0  0  0  0  0  0  0  0  0  0  0  0
   -3.5207   -2.1522    0.5723 N   0  0  0  0  0  0  0  0  0  0  0  0
    5.3136    0.3699    0.3969 C   0  0  0  0  0  0  0  0  0  0  0  0
    6.4547   -0.2634   -0.4032 C   0  0  0  0  0  0  0  0  0  0  0  0
    3.9494   -0.0817   -0.1349 C   0  0  0  0  0  0  0  0  0  0  0  0
    7.8451    0.1442    0.0931 C   0  0  0  0  0  0  0  0  0  0  0  0
    2.7867    0.5616    0.6199 C   0  0  0  0  0  0  0  0  0  0  0  0
    8.9852   -0.5070   -0.6906 C   0  0  0  0  0  0  0  0  0  0  0  0
    1.4319    0.1288    0.0854 C   0  0  0  0  0  0  0  0  0  0  0  0
   10.3422   -0.0804   -0.1518 C   0  0  0  0  0  0  0  0  0  0  0  0
   -1.0008    0.5535    0.5627 C   0  0  0  0  0  0  0  0  0  0  0  0
   -1.5754   -0.7125    0.6749 C   0  0  0  0  0  0  0  0  0  0  0  0
   -1.7941    1.6529    0.2347 C   0  0  0  0  0  0  0  0  0  0  0  0
   -2.9433   -0.8792    0.4591 C   0  0  0  0  0  0  0  0  0  0  0  0
   -3.1620    1.4863    0.0189 C   0  0  0  0  0  0  0  0  0  0  0  0
   -3.7366    0.2203    0.1310 C   0  0  0  0  0  0  0  0  0  0  0  0
   -3.9946    2.6400   -0.3256 C   0  0  0  0  0  0  0  0  0  0  0  0
   -3.6832   -3.1127   -0.4287 C   0  0  0  0  0  0  0  0  0  0  0  0
   -4.3525   -4.3561    0.1008 C   0  0  0  0  0  0  0  0  0  0  0  0
  1 19  1  0
  2 20  1  0
  3 23  1  0
  4 16  2  0
  5 24  1  0
  6 24  2  0
  7 25  2  0
  8 16  1  0
  8 18  1  0
  9 21  1  0
  9 25  1  0
 10 11  1  0
 10 12  1  0
 11 13  1  0
 12 14  1  0
 13 15  1  0
 14 16  1  0
 15 17  1  0
 18 19  2  0
 18 20  1  0
 19 21  1  0
 20 22  2  0
 21 23  2  0
 22 23  1  0
 22 24  1  0
 25 26  1  0
M  END
>  <PUBCHEM_COMPOUND_CID>  (1) 
48850

>  <PUBCHEM_CONFORMER_RMSD>  (1) 
1

>  <PUBCHEM_CONFORMER_DIVERSEORDER>  (1) 
1
88
52
68
74
61
36
85
76
81
40
57
11
83
25
77
70
39
18
78
49
17
71
73
10
67
28
72
62
5
63
6
65
15
87
66
7
29
75
53
35
4
21
20
58
46
38
34
60
55
19
44
37
14
24
26
33
16
59
79
54
2
23
41
13
9
42
69
82
64
80
8
43
48
22
27
12
51
45
50
86
30
3
84
31
32
56
47

>  <PUBCHEM_MMFF94_PARTIAL_CHARGES>  (1) 
23
1 -0.08
14 0.06
16 0.57
18 0.12
19 0.08
2 -0.08
20 0.08
21 0.12
22 0.09
23 0.08
24 0.63
25 0.57
26 0.06
3 -0.08
4 -0.57
42 0.37
43 0.37
47 0.5
5 -0.65
6 -0.57
7 -0.57
8 -0.55
9 -0.55

>  <PUBCHEM_EFFECTIVE_ROTOR_COUNT>  (1) 
11

>  <PUBCHEM_PHARMACOPHORE_FEATURES>  (1) 
14
1 1 hydrophobe
1 17 hydrophobe
1 2 hydrophobe
1 3 hydrophobe
1 4 acceptor
1 5 acceptor
1 6 acceptor
1 7 acceptor
1 8 donor
1 9 donor
3 10 12 14 hydrophobe
3 11 13 15 hydrophobe
3 5 6 24 anion
6 18 19 20 21 22 23 rings

>  <PUBCHEM_HEAVY_ATOM_COUNT>  (1) 
26

>  <PUBCHEM_ATOM_DEF_STEREO_COUNT>  (1) 
0

>  <PUBCHEM_ATOM_UDEF_STEREO_COUNT>  (1) 
0

>  <PUBCHEM_BOND_DEF_STEREO_COUNT>  (1) 
0

>  <PUBCHEM_BOND_UDEF_STEREO_COUNT>  (1) 
0

>  <PUBCHEM_ISOTOPIC_ATOM_COUNT>  (1) 
0

>  <PUBCHEM_COMPONENT_COUNT>  (1) 
1

>  <PUBCHEM_CACTVS_TAUTO_COUNT>  (1) 
4

>  <PUBCHEM_CONFORMER_ID>  (1) 
0000BED200000001

>  <PUBCHEM_MMFF94_ENERGY>  (1) 
104.5065

>  <PUBCHEM_FEATURE_SELFOVERLAP>  (1) 
71.119

>  <PUBCHEM_SHAPE_FINGERPRINT>  (1) 
10165383 225 18338800005870905089
10411042 1 18122064466945294299
11315181 36 17749395879714618984
11756154 67 18336828701870544183
12089408 11 18113337515229023162
12091667 2 18040722467846357736
13140716 1 18192992849998888393
13782708 43 18059855121432236218
13885169 127 18409450276690714378
14790565 3 17620479009021099993
15183329 4 17312816105246982586
15461852 350 18411145753959803590
15510794 2 18202005409842553470
1577012 14 17967248677552706634
15876981 60 18261398879114700652
16087824 20 18409445883524694055
16989713 51 17988076815985019038
18927931 339 18410859892640361071
20505436 4 17895753968242077961
21267235 1 18335987536208835889
21756936 100 17168151104562776257
23081809 10 17531242860464385120
2334 1 17759515961331378081
23402539 116 18336825389506623842
23557571 272 18272654532530170489
23559900 14 18268985552280229384
335352 9 18409442593015522381
44280117 145 18339645646228542358
44389302 135 18190167999213533826
44802255 64 17749661888672177567
531348 171 18411139104475398450

>  <PUBCHEM_SHAPE_MULTIPOLES>  (1) 
537.43
21.05
4.35
1.02
77.81
0.7
0.14
3.04
4.66
-10.44
0.4
-0.5
0.22
0.12

>  <PUBCHEM_SHAPE_SELFOVERLAP>  (1) 
1027.534

>  <PUBCHEM_SHAPE_VOLUME>  (1) 
336

>  <PUBCHEM_COORDINATE_TYPE>  (1) 
2
5
10

$$$$
