48860
     RDKit          3D

 22 25  0  0  0  0  0  0  0  0999 V2000
   -3.3778   -0.6624   -0.8183 O   0  0  0  0  0  0  0  0  0  0  0  0
   -3.9189    0.7077    1.0715 O   0  0  0  0  0  0  0  0  0  0  0  0
    1.9569   -2.9720    0.0918 N   0  0  0  0  0  0  0  0  0  0  0  0
    4.3281    1.0718   -0.1671 N   0  0  0  0  0  0  0  0  0  0  0  0
   -0.3440    1.1097    0.2898 N   0  0  0  0  0  0  0  0  0  0  0  0
    3.1670   -0.9674   -0.0408 N   0  0  0  0  0  0  0  0  0  0  0  0
    1.9896    1.1210    0.0601 N   0  0  0  0  0  0  0  0  0  0  0  0
    0.7789   -0.9463    0.1928 N   0  0  0  0  0  0  0  0  0  0  0  0
   -1.6075    0.4254    0.4191 C   0  0  0  0  0  0  0  0  0  0  0  0
    0.9887   -3.7395   -0.6776 C   0  0  0  0  0  0  0  0  0  0  0  0
    0.9329   -3.7026    0.8261 C   0  0  0  0  0  0  0  0  0  0  0  0
    4.5041    2.3972    0.4407 C   0  0  0  0  0  0  0  0  0  0  0  0
    4.4378    2.2508   -1.0358 C   0  0  0  0  0  0  0  0  0  0  0  0
   -2.0856   -0.0732   -0.9386 C   0  0  0  0  0  0  0  0  0  0  0  0
   -2.6489    1.3535    1.0302 C   0  0  0  0  0  0  0  0  0  0  0  0
   -4.3439    0.1991   -0.2005 C   0  0  0  0  0  0  0  0  0  0  0  0
    1.9681   -1.5598    0.0806 C   0  0  0  0  0  0  0  0  0  0  0  0
    3.1005    0.3737   -0.0433 C   0  0  0  0  0  0  0  0  0  0  0  0
    0.8557    0.4001    0.1761 C   0  0  0  0  0  0  0  0  0  0  0  0
   -0.3429    2.5704    0.2941 C   0  0  0  0  0  0  0  0  0  0  0  0
   -4.7791    1.3276   -1.1430 C   0  0  0  0  0  0  0  0  0  0  0  0
   -5.5595   -0.6848    0.0924 C   0  0  0  0  0  0  0  0  0  0  0  0
  1 14  1  0
  1 16  1  0
  2 15  1  0
  2 16  1  0
  3 10  1  0
  3 11  1  0
  3 17  1  0
  4 12  1  0
  4 13  1  0
  4 18  1  0
  5  9  1  0
  5 19  1  0
  5 20  1  0
  6 17  2  0
  6 18  1  0
  7 18  2  0
  7 19  1  0
  8 17  1  0
  8 19  2  0
  9 14  1  0
  9 15  1  0
 10 11  1  0
 12 13  1  0
 16 21  1  0
 16 22  1  0
M  END
>  <PUBCHEM_COMPOUND_CID>  (1) 
48860

>  <PUBCHEM_CONFORMER_RMSD>  (1) 
0.8

>  <PUBCHEM_CONFORMER_DIVERSEORDER>  (1) 
1
25
23
27
5
19
2
22
33
31
26
36
6
15
13
39
10
14
3
11
32
18
20
37
21
9
29
7
16
35
34
30
4
8
17
38
24
12
28

>  <PUBCHEM_MMFF94_PARTIAL_CHARGES>  (1) 
28
1 -0.56
10 -0.03
11 -0.03
12 -0.03
13 -0.03
14 0.28
15 0.28
16 0.56
17 0.72
18 0.72
19 0.72
2 -0.56
20 0.37
24 0.1
25 0.1
26 0.1
27 0.1
28 0.1
29 0.1
3 -0.44
30 0.1
31 0.1
4 -0.44
5 -0.84
6 -0.62
7 -0.62
8 -0.62
9 0.37

>  <PUBCHEM_EFFECTIVE_ROTOR_COUNT>  (1) 
6.4

>  <PUBCHEM_PHARMACOPHORE_FEATURES>  (1) 
8
1 1 acceptor
1 2 acceptor
3 16 21 22 hydrophobe
4 3 6 8 17 cation
4 4 6 7 18 cation
4 5 7 8 19 cation
6 1 2 9 14 15 16 rings
6 6 7 8 17 18 19 rings

>  <PUBCHEM_HEAVY_ATOM_COUNT>  (1) 
22

>  <PUBCHEM_ATOM_DEF_STEREO_COUNT>  (1) 
0

>  <PUBCHEM_ATOM_UDEF_STEREO_COUNT>  (1) 
0

>  <PUBCHEM_BOND_DEF_STEREO_COUNT>  (1) 
0

>  <PUBCHEM_BOND_UDEF_STEREO_COUNT>  (1) 
0

>  <PUBCHEM_ISOTOPIC_ATOM_COUNT>  (1) 
0

>  <PUBCHEM_COMPONENT_COUNT>  (1) 
1

>  <PUBCHEM_CACTVS_TAUTO_COUNT>  (1) 
1

>  <PUBCHEM_CONFORMER_ID>  (1) 
0000BEDC00000001

>  <PUBCHEM_MMFF94_ENERGY>  (1) 
108.2258

>  <PUBCHEM_FEATURE_SELFOVERLAP>  (1) 
40.756

>  <PUBCHEM_SHAPE_FINGERPRINT>  (1) 
10090160 65 18408038528718323828
12107183 9 17478057060256199537
12236239 1 17988929985347005049
12553582 1 17834965169966805867
12730499 353 18335427871826125227
12788726 201 17418098664032365937
13052359 8 18120655988054309114
13083527 12 18117260476935651938
13140716 1 18409166623654525250
13533116 47 18272364223438332067
13631057 29 18127124398023616087
138480 1 17978510836783970186
13911987 19 18263092169860683812
14787075 74 18130508642546192424
14790565 3 18339647848714205089
15375358 24 18040155119340237393
15537594 2 18060136570449070247
15842332 3 17772482191860278505
17138139 8 17770756195086847703
19784866 34 18411414050864045996
20028762 73 18272647918629084478
204376 136 18335704991726895116
20645477 70 18335134237744219355
20775438 99 17468151649605600725
21054139 6 18270391806061013895
21285901 2 17749661901393834997
21344244 181 17845395365075216950
21421861 104 18192432965597049211
22182313 1 18120963791175529250
2255824 54 18339926991961127630
23559900 14 18122615063828317673
23566358 27 18197510531858969870
239999 70 18272374118378831366
2871803 45 18341050726950849428
3060560 45 18408046204378542772
33824 294 18409166593178050410
350125 39 18409726228192055652
474 4 18408325509985578236
474229 33 18336548325556025034
5104073 3 18336266752111877201
5486654 2 18339647866410694788
59682541 52 18122596416114567021
59755656 520 18264483052892032052
6025842 7 18410288073742763711
621550 34 18186796955050716261
633830 44 18272662237759301316
7097593 13 17765159371309770480
81539 233 18407759231390239686
8272917 22 18338518538755511447
9709674 26 18192438476272607523

>  <PUBCHEM_SHAPE_MULTIPOLES>  (1) 
411.13
10.1
3.77
0.96
6.28
4.16
-0.06
-5.55
-1.44
-4.03
0.11
0.46
-0.12
-0.34

>  <PUBCHEM_SHAPE_SELFOVERLAP>  (1) 
861.324

>  <PUBCHEM_SHAPE_VOLUME>  (1) 
229.9

>  <PUBCHEM_COORDINATE_TYPE>  (1) 
2
5
10

$$$$
