48867
     RDKit          3D

 18 18  0  0  1  0  0  0  0  0999 V2000
    0.7730    0.2048   -0.5833 N   0  0  0  0  0  0  0  0  0  0  0  0
   -1.1658   -1.0776    0.0003 N   0  0  0  0  0  0  0  0  0  0  0  0
    0.8825   -2.1440   -0.5829 N   0  0  0  0  0  0  0  0  0  0  0  0
   -4.2766    1.7480    0.1500 N   0  0  0  0  0  0  0  0  0  0  0  0
    0.4103   -4.0454    0.9749 N   0  0  0  0  0  0  0  0  0  0  0  0
    3.0199    1.5543    0.9547 C   0  0  0  0  0  0  0  0  0  0  0  0
    2.9204    1.3836   -0.5757 C   0  0  0  0  0  0  0  0  0  0  0  0
    2.1657    0.1303   -1.0374 C   0  0  0  0  0  0  0  0  0  0  0  0
    3.7001    0.3647    1.6335 C   0  0  0  0  0  0  0  0  0  0  0  0
    3.7848    2.8401    1.2815 C   0  0  0  0  0  0  0  0  0  0  0  0
    2.1573    0.0263   -2.5583 C   0  0  0  0  0  0  0  0  0  0  0  0
    0.1613   -0.9126   -0.3661 C   0  0  0  0  0  0  0  0  0  0  0  0
   -2.2107   -0.1279    0.0513 C   0  0  0  0  0  0  0  0  0  0  0  0
   -3.3322   -0.3700    0.8341 C   0  0  0  0  0  0  0  0  0  0  0  0
   -2.1174    1.0477   -0.6824 C   0  0  0  0  0  0  0  0  0  0  0  0
   -4.3295    0.5920    0.8491 C   0  0  0  0  0  0  0  0  0  0  0  0
   -3.1690    1.9463   -0.5994 C   0  0  0  0  0  0  0  0  0  0  0  0
    0.6261   -3.1606    0.2559 C   0  0  0  0  0  0  0  0  0  0  0  0
  1  8  1  0
  1 12  2  0
  2 12  1  0
  2 13  1  0
  3 12  1  0
  3 18  1  0
  4 16  2  0
  4 17  1  0
  5 18  3  0
  6  7  1  0
  6  9  1  0
  6 10  1  0
  7  8  1  0
  8 11  1  0
 13 14  2  0
 13 15  1  0
 14 16  1  0
 15 17  2  0
M  END
>  <PUBCHEM_COMPOUND_CID>  (1) 
48867

>  <PUBCHEM_CONFORMER_RMSD>  (1) 
0.8

>  <PUBCHEM_CONFORMER_DIVERSEORDER>  (1) 
1
28
33
23
29
19
18
31
8
20
9
17
7
15
10
26
24
13
32
34
12
21
30
22
4
27
11
5
16
25
14
3
6
2

>  <PUBCHEM_MMFF94_PARTIAL_CHARGES>  (1) 
19
1 -0.7
12 0.55
13 0.1
14 -0.15
15 -0.15
16 0.16
17 0.16
18 0.62
2 -0.55
3 -0.51
32 0.4
33 0.4
34 0.15
35 0.15
36 0.15
37 0.15
4 -0.62
5 -0.56
8 0.25

>  <PUBCHEM_EFFECTIVE_ROTOR_COUNT>  (1) 
6

>  <PUBCHEM_PHARMACOPHORE_FEATURES>  (1) 
7
1 2 donor
1 3 donor
1 4 acceptor
1 5 acceptor
3 6 9 10 hydrophobe
4 1 2 3 12 cation
6 4 13 14 15 16 17 rings

>  <PUBCHEM_HEAVY_ATOM_COUNT>  (1) 
18

>  <PUBCHEM_ATOM_DEF_STEREO_COUNT>  (1) 
0

>  <PUBCHEM_ATOM_UDEF_STEREO_COUNT>  (1) 
1

>  <PUBCHEM_BOND_DEF_STEREO_COUNT>  (1) 
0

>  <PUBCHEM_BOND_UDEF_STEREO_COUNT>  (1) 
0

>  <PUBCHEM_ISOTOPIC_ATOM_COUNT>  (1) 
0

>  <PUBCHEM_COMPONENT_COUNT>  (1) 
1

>  <PUBCHEM_CACTVS_TAUTO_COUNT>  (1) 
5

>  <PUBCHEM_CONFORMER_ID>  (1) 
0000BEE300000001

>  <PUBCHEM_MMFF94_ENERGY>  (1) 
63.2313

>  <PUBCHEM_FEATURE_SELFOVERLAP>  (1) 
35.555

>  <PUBCHEM_SHAPE_FINGERPRINT>  (1) 
11725454 13 17703214230784057970
12363563 72 8574439733049848120
12633257 1 18266999791947653160
12788726 201 17321559614272663074
12839892 36 18261107513097436267
12892183 10 17821999947874064368
13134695 92 17763167047634734991
13294875 104 18340492153854231822
14178342 30 18334018302493695911
14787075 74 17844526824019196497
18186145 218 17988658383935430221
19765921 60 18131625707815609235
20671657 1 18267869376405944423
21401589 2 17843958376106944192
21524375 3 18343298205843026431
21731228 192 18337664312773391482
23382010 3 14333118710887929012
23419403 2 17394140163528246862
23559900 14 17896612682718203191
266924 78 15623730983041804774
3187 122 16900716101096355928
474 4 17846780732234893968
495365 180 18265609884458559717
5104073 3 18192161395886120361
58807428 26 18408877451684482722
633830 44 18131351912061582380
7364860 26 18193559960815952047
7808743 9 18047764985730643844
81228 2 17762352695965798191
84936 182 18268999682680129625

>  <PUBCHEM_SHAPE_MULTIPOLES>  (1) 
345.53
7.79
3.44
1.6
3.43
3.54
-0.6
-7.07
2.68
-1.23
1.29
-1.66
-0.15
1.13

>  <PUBCHEM_SHAPE_SELFOVERLAP>  (1) 
691.152

>  <PUBCHEM_SHAPE_VOLUME>  (1) 
196.1

>  <PUBCHEM_COORDINATE_TYPE>  (1) 
2
5
10

$$$$
