4886
     RDKit          3D

 21 22  0  0  0  0  0  0  0  0999 V2000
   -7.7204    0.8426    0.1371 O   0  0  0  0  0  0  0  0  0  0  0  0
   -0.5406   -1.5780   -0.0626 O   0  0  0  0  0  0  0  0  0  0  0  0
    4.9238   -0.8010    0.0867 O   0  0  0  0  0  0  0  0  0  0  0  0
   -4.8889    0.5531    0.1372 N   0  0  0  0  0  0  0  0  0  0  0  0
   -5.7649   -0.4592   -0.4691 C   0  0  0  0  0  0  0  0  0  0  0  0
   -5.5263    1.8754    0.0704 C   0  0  0  0  0  0  0  0  0  0  0  0
   -3.5844    0.5719   -0.5214 C   0  0  0  0  0  0  0  0  0  0  0  0
   -7.1236   -0.4518    0.2256 C   0  0  0  0  0  0  0  0  0  0  0  0
   -6.8901    1.8276    0.7534 C   0  0  0  0  0  0  0  0  0  0  0  0
   -2.6976   -0.5407    0.0282 C   0  0  0  0  0  0  0  0  0  0  0  0
   -1.3218   -0.5325   -0.6243 C   0  0  0  0  0  0  0  0  0  0  0  0
    0.8160   -1.3850   -0.0253 C   0  0  0  0  0  0  0  0  0  0  0  0
    6.7059    0.7928    0.2862 C   0  0  0  0  0  0  0  0  0  0  0  0
    5.4197    0.4281   -0.4416 C   0  0  0  0  0  0  0  0  0  0  0  0
    7.2853    2.1108   -0.2196 C   0  0  0  0  0  0  0  0  0  0  0  0
    1.4363   -0.6045   -1.0009 C   0  0  0  0  0  0  0  0  0  0  0  0
    1.5761   -1.9692    0.9879 C   0  0  0  0  0  0  0  0  0  0  0  0
    3.5768   -0.9923    0.0502 C   0  0  0  0  0  0  0  0  0  0  0  0
    2.8167   -0.4082   -0.9631 C   0  0  0  0  0  0  0  0  0  0  0  0
    2.9564   -1.7728    1.0257 C   0  0  0  0  0  0  0  0  0  0  0  0
    8.5459    2.4930    0.5393 C   0  0  0  0  0  0  0  0  0  0  0  0
  1  8  1  0
  1  9  1  0
  2 11  1  0
  2 12  1  0
  3 14  1  0
  3 18  1  0
  4  5  1  0
  4  6  1  0
  4  7  1  0
  5  8  1  0
  6  9  1  0
  7 10  1  0
 10 11  1  0
 12 16  2  0
 12 17  1  0
 13 14  1  0
 13 15  1  0
 15 21  1  0
 16 19  1  0
 17 20  2  0
 18 19  2  0
 18 20  1  0
M  END
>  <PUBCHEM_COMPOUND_CID>  (1) 
4886

>  <PUBCHEM_CONFORMER_RMSD>  (1) 
1

>  <PUBCHEM_CONFORMER_DIVERSEORDER>  (1) 
1
57
85
3
51
101
55
90
10
56
21
33
24
77
25
63
13
62
74
12
99
34
94
97
61
30
73
39
31
67
75
98
53
29
49
47
92
100
54
37
102
36
22
18
81
40
84
48
68
32
19
43
64
83
14
65
72
8
82
87
6
46
16
50
79
69
7
88
26
20
89
15
95
78
4
76
23
17
70
58
71
2
60
66
27
59
96
38
86
42
93
11
91
35
41
52
80
45
28
44
5
9

>  <PUBCHEM_MMFF94_PARTIAL_CHARGES>  (1) 
21
1 -0.56
11 0.28
12 0.08
14 0.28
16 -0.15
17 -0.15
18 0.08
19 -0.15
2 -0.36
20 -0.15
3 -0.36
4 -0.81
42 0.15
43 0.15
44 0.15
45 0.15
5 0.27
6 0.27
7 0.27
8 0.28
9 0.28

>  <PUBCHEM_EFFECTIVE_ROTOR_COUNT>  (1) 
10.2

>  <PUBCHEM_PHARMACOPHORE_FEATURES>  (1) 
7
1 1 acceptor
1 2 acceptor
1 21 hydrophobe
1 3 acceptor
1 4 cation
6 1 4 5 6 8 9 rings
6 12 16 17 18 19 20 rings

>  <PUBCHEM_HEAVY_ATOM_COUNT>  (1) 
21

>  <PUBCHEM_ATOM_DEF_STEREO_COUNT>  (1) 
0

>  <PUBCHEM_ATOM_UDEF_STEREO_COUNT>  (1) 
0

>  <PUBCHEM_BOND_DEF_STEREO_COUNT>  (1) 
0

>  <PUBCHEM_BOND_UDEF_STEREO_COUNT>  (1) 
0

>  <PUBCHEM_ISOTOPIC_ATOM_COUNT>  (1) 
0

>  <PUBCHEM_COMPONENT_COUNT>  (1) 
1

>  <PUBCHEM_CACTVS_TAUTO_COUNT>  (1) 
1

>  <PUBCHEM_CONFORMER_ID>  (1) 
0000131600000001

>  <PUBCHEM_MMFF94_ENERGY>  (1) 
49.1473

>  <PUBCHEM_FEATURE_SELFOVERLAP>  (1) 
35.522

>  <PUBCHEM_SHAPE_FINGERPRINT>  (1) 
10 15 17458344156746964084
106641 1 18260551143402722403
10693767 8 11455902330276810156
11315181 36 18413388723405253753
11408170 132 12607408806262842162
11724838 91 18186240645401902231
12236239 1 18411136896951729559
12539745 222 12757410753971323022
12592606 108 9367343734606129753
12596602 18 18337111168546759747
13533116 47 17459471048216869955
13540713 4 14403752506731539878
13540713 5 16011018638732503398
13668630 136 11023817367199589637
13685833 64 8646773292232842982
14216079 64 9151181947993641584
14251757 52 18343301470619415128
14251764 18 18113900476537610029
14428016 86 18411700998467731736
14565420 104 18040432192550599986
14849402 71 18410012177718190833
14933364 13 18271808991034836903
15183329 4 12319455476585583407
15188451 53 11314303945516930222
15475509 35 15285908093419858410
15690457 1 11025795414382617544
15706992 2 18335148630855004484
15840311 113 18334860515779551492
16126227 98 18409730698482767046
16989713 51 16987144136680627359
1768 124 11530474533124550336
1768 4 18342464763592741657
18643901 69 10951778485896229832
19489759 90 12540702501389655327
2026 5 8934735387421861840
20281389 69 18260828176924196228
20526848 3 18412546518055491404
21095123 293 17632307727127463713
21130935 74 18113620037039181347
21304304 249 8646772205511782640
21307412 95 12535347943527876868
21585482 111 18262516983762051836
21637258 2 8286204942272798518
221357 26 13470403340498798267
22224240 67 17676204688893158986
24771293 8 18334295387639667644
3014063 24 8935005871734711840
33532 11 8502660298796059216
4073 2 18408325501290863363
4340502 62 16805606949529574402
445580 126 18334570257647591144
445580 37 16845298207301634937
465052 167 11169913879808417450
5104073 3 16009890487850613104
5470011 282 14404906947007176816
559249 180 8070022264828697305
5718773 13 8862947178090269136
5758199 1 18259985981019027514
5937810 71 17346610642645349609
59682541 35 17967537895711964473
59682541 52 15769780178497429600
59755656 215 12967133795732259525
6438161 24 9583520902329649452
9689198 14 18202568388700066476

>  <PUBCHEM_SHAPE_MULTIPOLES>  (1) 
409.58
25.57
2.26
0.91
1.23
0.78
-0.01
21.93
-3.45
-2.61
-0.59
-0.29
-0.15
-0.5

>  <PUBCHEM_SHAPE_SELFOVERLAP>  (1) 
821.291

>  <PUBCHEM_SHAPE_VOLUME>  (1) 
242.3

>  <PUBCHEM_COORDINATE_TYPE>  (1) 
2
5
10

$$$$
