48861
     RDKit          3D

 23 26  0  0  0  0  0  0  0  0999 V2000
   -3.5168    0.4967    1.1063 O   0  0  0  0  0  0  0  0  0  0  0  0
   -3.5126    0.3639   -1.2860 O   0  0  0  0  0  0  0  0  0  0  0  0
    0.5465   -2.8826    0.1018 N   0  0  0  0  0  0  0  0  0  0  0  0
    4.1348    0.1403   -0.0708 N   0  0  0  0  0  0  0  0  0  0  0  0
   -0.2829    1.7258   -0.1602 N   0  0  0  0  0  0  0  0  0  0  0  0
    2.3582   -1.3956    0.0161 N   0  0  0  0  0  0  0  0  0  0  0  0
    1.9338    0.9623   -0.1183 N   0  0  0  0  0  0  0  0  0  0  0  0
    0.1008   -0.5837   -0.0297 N   0  0  0  0  0  0  0  0  0  0  0  0
   -1.7079    1.5005   -0.1461 C   0  0  0  0  0  0  0  0  0  0  0  0
    1.3140   -3.9845   -0.4621 C   0  0  0  0  0  0  0  0  0  0  0  0
    1.1161   -3.8537    1.0242 C   0  0  0  0  0  0  0  0  0  0  0  0
    4.6813    1.3825    0.4902 C   0  0  0  0  0  0  0  0  0  0  0  0
    4.7091    1.1445   -0.9755 C   0  0  0  0  0  0  0  0  0  0  0  0
   -2.1249    0.8020    1.1417 C   0  0  0  0  0  0  0  0  0  0  0  0
   -2.1208    0.6643   -1.3502 C   0  0  0  0  0  0  0  0  0  0  0  0
   -3.9088   -0.2518   -0.0527 C   0  0  0  0  0  0  0  0  0  0  0  0
    1.0251   -1.5560    0.0256 C   0  0  0  0  0  0  0  0  0  0  0  0
    2.7395   -0.1102   -0.0572 C   0  0  0  0  0  0  0  0  0  0  0  0
    0.6196    0.6593   -0.1005 C   0  0  0  0  0  0  0  0  0  0  0  0
    0.2007    3.1025   -0.2245 C   0  0  0  0  0  0  0  0  0  0  0  0
   -3.4362   -1.7082    0.0288 C   0  0  0  0  0  0  0  0  0  0  0  0
   -5.4399   -0.2376   -0.0562 C   0  0  0  0  0  0  0  0  0  0  0  0
    0.5713    3.6193    1.1553 C   0  0  0  0  0  0  0  0  0  0  0  0
  1 14  1  0
  1 16  1  0
  2 15  1  0
  2 16  1  0
  3 10  1  0
  3 11  1  0
  3 17  1  0
  4 12  1  0
  4 13  1  0
  4 18  1  0
  5  9  1  0
  5 19  1  0
  5 20  1  0
  6 17  2  0
  6 18  1  0
  7 18  2  0
  7 19  1  0
  8 17  1  0
  8 19  2  0
  9 14  1  0
  9 15  1  0
 10 11  1  0
 12 13  1  0
 16 21  1  0
 16 22  1  0
 20 23  1  0
M  END
>  <PUBCHEM_COMPOUND_CID>  (1) 
48861

>  <PUBCHEM_CONFORMER_RMSD>  (1) 
0.8

>  <PUBCHEM_CONFORMER_DIVERSEORDER>  (1) 
1
3
45
33
29
57
49
22
28
62
18
12
56
23
60
10
50
6
2
21
46
26
4
58
19
53
30
37
35
61
63
17
38
32
14
7
42
40
15
55
51
36
20
44
5
16
43
34
41
39
54
8
11
31
13
25
47
9
52
59
24
27
48

>  <PUBCHEM_MMFF94_PARTIAL_CHARGES>  (1) 
28
1 -0.56
10 -0.03
11 -0.03
12 -0.03
13 -0.03
14 0.28
15 0.28
16 0.56
17 0.72
18 0.72
19 0.72
2 -0.56
20 0.37
25 0.1
26 0.1
27 0.1
28 0.1
29 0.1
3 -0.44
30 0.1
31 0.1
32 0.1
4 -0.44
5 -0.84
6 -0.62
7 -0.62
8 -0.62
9 0.37

>  <PUBCHEM_EFFECTIVE_ROTOR_COUNT>  (1) 
7.4

>  <PUBCHEM_PHARMACOPHORE_FEATURES>  (1) 
8
1 1 acceptor
1 2 acceptor
3 16 21 22 hydrophobe
4 3 6 8 17 cation
4 4 6 7 18 cation
4 5 7 8 19 cation
6 1 2 9 14 15 16 rings
6 6 7 8 17 18 19 rings

>  <PUBCHEM_HEAVY_ATOM_COUNT>  (1) 
23

>  <PUBCHEM_ATOM_DEF_STEREO_COUNT>  (1) 
0

>  <PUBCHEM_ATOM_UDEF_STEREO_COUNT>  (1) 
0

>  <PUBCHEM_BOND_DEF_STEREO_COUNT>  (1) 
0

>  <PUBCHEM_BOND_UDEF_STEREO_COUNT>  (1) 
0

>  <PUBCHEM_ISOTOPIC_ATOM_COUNT>  (1) 
0

>  <PUBCHEM_COMPONENT_COUNT>  (1) 
1

>  <PUBCHEM_CACTVS_TAUTO_COUNT>  (1) 
1

>  <PUBCHEM_CONFORMER_ID>  (1) 
0000BEDD00000001

>  <PUBCHEM_MMFF94_ENERGY>  (1) 
107.1428

>  <PUBCHEM_FEATURE_SELFOVERLAP>  (1) 
40.757

>  <PUBCHEM_SHAPE_FINGERPRINT>  (1) 
10074138 170 17905578319843635346
10090160 65 18333168366825046270
10906281 52 18042143027989813833
10967382 1 18410292497363996950
1100329 8 18196089069619679784
11578080 2 17098900426477088862
11680986 33 17835802276240750656
12035758 1 18194959862704168432
12236239 1 17775569753934822221
12553582 1 18340758270016984991
12788726 201 17559958719457969641
12839892 36 18264751213132839962
13032168 30 18272373130488652987
13052359 8 18190742127605276842
13083527 12 18044922494453021042
13140716 1 18195813092559693873
13402501 40 18187932836857615803
13583140 156 16444447139965822396
13911987 19 18334300906794033788
14223421 5 18120936105483471182
14787075 74 18341614866721267252
14790565 3 18338243768218280484
14863182 85 18335434455852903502
15209289 33 18271246135248864689
19591789 44 18192712477810628342
20028762 73 17984988351904623127
204376 136 18335704970331290446
21285901 2 17677321720082640253
21421861 104 18046351824939872632
23184049 29 17833547894898415362
23402539 116 18271239529979501918
23558518 356 17901956240325049712
23559900 14 17976806597976289306
23566358 27 18051709745313099014
283562 15 18341057320132525808
2871803 45 18410855421515693415
33824 294 18408323259269968275
34934 24 18412260597908727909
350125 39 18048885383641331491
352729 6 18408329878442182418
43471831 8 18337108960875488514
474229 33 18335702775576706286
5486654 2 18337960090355409108
59755656 215 18337115575141501126
70251023 43 17983869886274582439
7097593 13 17546732556226076256
9709674 26 17904474108745832447

>  <PUBCHEM_SHAPE_MULTIPOLES>  (1) 
431.7
8.35
4.26
1.02
1.97
3.07
0
-1.41
-0.84
-2.52
0.98
0.29
-0.22
-0.07

>  <PUBCHEM_SHAPE_SELFOVERLAP>  (1) 
901.08

>  <PUBCHEM_SHAPE_VOLUME>  (1) 
241.8

>  <PUBCHEM_COORDINATE_TYPE>  (1) 
2
5
10

$$$$
