48874
     RDKit          3D

 18 18  0  0  0  0  0  0  0  0999 V2000
   -0.8296    0.5607    0.4046 N   0  0  0  0  0  0  0  0  0  0  0  0
    0.9806   -1.0045    0.2718 N   0  0  0  0  0  0  0  0  0  0  0  0
   -1.2837   -1.7176    0.0776 N   0  0  0  0  0  0  0  0  0  0  0  0
    4.4399    1.3263   -0.2601 N   0  0  0  0  0  0  0  0  0  0  0  0
   -0.3344   -3.9695   -0.4638 N   0  0  0  0  0  0  0  0  0  0  0  0
   -2.2962    0.6978    0.4068 C   0  0  0  0  0  0  0  0  0  0  0  0
   -2.6464    2.1809    0.6776 C   0  0  0  0  0  0  0  0  0  0  0  0
   -2.8287    0.2275   -0.9645 C   0  0  0  0  0  0  0  0  0  0  0  0
   -2.8403   -0.1576    1.5598 C   0  0  0  0  0  0  0  0  0  0  0  0
   -2.1711    3.1659   -0.3848 C   0  0  0  0  0  0  0  0  0  0  0  0
   -4.3457    0.2703   -1.1192 C   0  0  0  0  0  0  0  0  0  0  0  0
   -0.3533   -0.6265    0.2425 C   0  0  0  0  0  0  0  0  0  0  0  0
    2.1427   -0.2210    0.0935 C   0  0  0  0  0  0  0  0  0  0  0  0
    3.3939   -0.7661    0.3509 C   0  0  0  0  0  0  0  0  0  0  0  0
    2.0347    1.0941   -0.3399 C   0  0  0  0  0  0  0  0  0  0  0  0
   -0.7695   -2.9233   -0.2134 C   0  0  0  0  0  0  0  0  0  0  0  0
    4.5027    0.0428    0.1602 C   0  0  0  0  0  0  0  0  0  0  0  0
    3.2042    1.8198   -0.4997 C   0  0  0  0  0  0  0  0  0  0  0  0
  1  6  1  0
  1 12  2  0
  2 12  1  0
  2 13  1  0
  3 12  1  0
  3 16  1  0
  4 17  2  0
  4 18  1  0
  5 16  3  0
  6  7  1  0
  6  8  1  0
  6  9  1  0
  7 10  1  0
  8 11  1  0
 13 14  2  0
 13 15  1  0
 14 17  1  0
 15 18  2  0
M  END
>  <PUBCHEM_COMPOUND_CID>  (1) 
48874

>  <PUBCHEM_CONFORMER_RMSD>  (1) 
0.8

>  <PUBCHEM_CONFORMER_DIVERSEORDER>  (1) 
1
8
10
6
4
12
7
3
9
2
11
5

>  <PUBCHEM_MMFF94_PARTIAL_CHARGES>  (1) 
19
1 -0.7
12 0.55
13 0.1
14 -0.15
15 -0.15
16 0.62
17 0.16
18 0.16
2 -0.55
3 -0.51
32 0.4
33 0.4
34 0.15
35 0.15
36 0.15
37 0.15
4 -0.62
5 -0.56
6 0.25

>  <PUBCHEM_EFFECTIVE_ROTOR_COUNT>  (1) 
6

>  <PUBCHEM_PHARMACOPHORE_FEATURES>  (1) 
8
1 10 hydrophobe
1 11 hydrophobe
1 2 donor
1 3 donor
1 4 acceptor
1 5 acceptor
4 1 2 3 12 cation
6 4 13 14 15 17 18 rings

>  <PUBCHEM_HEAVY_ATOM_COUNT>  (1) 
18

>  <PUBCHEM_ATOM_DEF_STEREO_COUNT>  (1) 
0

>  <PUBCHEM_ATOM_UDEF_STEREO_COUNT>  (1) 
0

>  <PUBCHEM_BOND_DEF_STEREO_COUNT>  (1) 
0

>  <PUBCHEM_BOND_UDEF_STEREO_COUNT>  (1) 
0

>  <PUBCHEM_ISOTOPIC_ATOM_COUNT>  (1) 
0

>  <PUBCHEM_COMPONENT_COUNT>  (1) 
1

>  <PUBCHEM_CACTVS_TAUTO_COUNT>  (1) 
5

>  <PUBCHEM_CONFORMER_ID>  (1) 
0000BEEA00000001

>  <PUBCHEM_MMFF94_ENERGY>  (1) 
91.3011

>  <PUBCHEM_FEATURE_SELFOVERLAP>  (1) 
40.629

>  <PUBCHEM_SHAPE_FINGERPRINT>  (1) 
121448 382 18129930252364501363
12173636 292 18412261744121761612
12403260 363 18337659811457644034
12500047 106 18341890801569565082
13583140 156 17458062672710820850
15042514 8 18265904733615978563
15309172 13 18410300194040116219
15442244 35 18335981974589755490
17802600 8 18411694383427357400
18186145 218 18129392505363322170
200 152 18411974772040761549
20344682 6 18339066121890992917
20510252 161 18271815613600185545
20645477 56 18342462573248740336
20671657 1 17620764877453409261
21524375 3 18334293141255408466
23366157 5 17902232213375385427
23402539 116 18271235106036482655
23419403 2 15658882640122383899
23557571 272 18054234494809605990
23559900 14 18202004374364869480
305870 269 18194966244656148483
3071541 12 17764032363317390859
352729 6 18411704313201802667
4028521 119 18260542337986744045
474 4 18266179427033987785
532947 4 18053951645576028406
58051976 378 18341326721581192383
633830 44 18058460806684055717
69090 78 18409445903512134850
7164475 11 18195525029056159078
7364860 26 17836086667431456051
74978 22 18339360876700795944
81228 2 17982160429303598779

>  <PUBCHEM_SHAPE_MULTIPOLES>  (1) 
345.53
7.8
3.33
0.97
5.21
2.14
-0.11
-3.83
0.77
-1.3
0.6
-0.91
-0.06
-0.39

>  <PUBCHEM_SHAPE_SELFOVERLAP>  (1) 
699.26

>  <PUBCHEM_SHAPE_VOLUME>  (1) 
194.3

>  <PUBCHEM_COORDINATE_TYPE>  (1) 
2
5
10

$$$$
