48879
     RDKit          3D

 16 16  0  0  0  0  0  0  0  0999 V2000
   -1.1010    3.0892    0.4630 O   0  0  0  0  0  0  0  0  0  0  0  0
   -1.0317   -0.4085   -0.3725 N   0  0  0  0  0  0  0  0  0  0  0  0
    0.6199    1.1859    0.1521 N   0  0  0  0  0  0  0  0  0  0  0  0
   -1.6005    1.8387    0.1609 N   0  0  0  0  0  0  0  0  0  0  0  0
    2.9078   -1.7054    0.3090 N   0  0  0  0  0  0  0  0  0  0  0  0
   -2.4634   -0.7000   -0.5460 C   0  0  0  0  0  0  0  0  0  0  0  0
   -3.1905   -0.4755    0.7951 C   0  0  0  0  0  0  0  0  0  0  0  0
   -2.9928    0.2030   -1.6619 C   0  0  0  0  0  0  0  0  0  0  0  0
   -2.5907   -2.1692   -0.9652 C   0  0  0  0  0  0  0  0  0  0  0  0
   -2.7035   -1.3498    1.9451 C   0  0  0  0  0  0  0  0  0  0  0  0
   -0.7018    0.8014   -0.0485 C   0  0  0  0  0  0  0  0  0  0  0  0
    1.8086    0.4292    0.0780 C   0  0  0  0  0  0  0  0  0  0  0  0
    3.0087    1.0252   -0.2809 C   0  0  0  0  0  0  0  0  0  0  0  0
    1.8059   -0.9237    0.3610 C   0  0  0  0  0  0  0  0  0  0  0  0
    4.1639    0.2540   -0.3453 C   0  0  0  0  0  0  0  0  0  0  0  0
    4.0611   -1.0945   -0.0438 C   0  0  0  0  0  0  0  0  0  0  0  0
  1  4  1  0
  2  6  1  0
  2 11  2  0
  3 11  1  0
  3 12  1  0
  4 11  1  0
  5 14  2  0
  5 16  1  0
  6  7  1  0
  6  8  1  0
  6  9  1  0
  7 10  1  0
 12 13  2  0
 12 14  1  0
 13 15  1  0
 15 16  2  0
M  END
>  <PUBCHEM_COMPOUND_CID>  (1) 
48879

>  <PUBCHEM_CONFORMER_RMSD>  (1) 
0.6

>  <PUBCHEM_CONFORMER_DIVERSEORDER>  (1) 
1
73
62
14
33
77
70
36
76
21
64
69
16
66
57
71
72
13
74
79
32
56
49
68
20
48
63
31
35
81
55
44
5
51
67
82
75
65
17
34
24
52
27
50
7
78
60
58
41
43
10
45
25
8
47
40
37
61
6
15
18
59
80
28
11
19
46
3
26
42
4
23
38
29
9
22
39
54
30
53
12
2

>  <PUBCHEM_MMFF94_PARTIAL_CHARGES>  (1) 
19
1 -0.38
11 0.55
12 0.1
13 -0.15
14 0.16
15 -0.15
16 0.16
2 -0.7
28 0.4
29 0.4
3 -0.55
30 0.15
31 0.15
32 0.15
33 0.15
34 0.4
4 -0.47
5 -0.62
6 0.25

>  <PUBCHEM_EFFECTIVE_ROTOR_COUNT>  (1) 
5

>  <PUBCHEM_PHARMACOPHORE_FEATURES>  (1) 
7
1 10 hydrophobe
1 3 donor
1 4 donor
1 5 acceptor
3 6 8 9 hydrophobe
4 2 3 4 11 cation
6 5 12 13 14 15 16 rings

>  <PUBCHEM_HEAVY_ATOM_COUNT>  (1) 
16

>  <PUBCHEM_ATOM_DEF_STEREO_COUNT>  (1) 
0

>  <PUBCHEM_ATOM_UDEF_STEREO_COUNT>  (1) 
0

>  <PUBCHEM_BOND_DEF_STEREO_COUNT>  (1) 
0

>  <PUBCHEM_BOND_UDEF_STEREO_COUNT>  (1) 
0

>  <PUBCHEM_ISOTOPIC_ATOM_COUNT>  (1) 
0

>  <PUBCHEM_COMPONENT_COUNT>  (1) 
1

>  <PUBCHEM_CACTVS_TAUTO_COUNT>  (1) 
4

>  <PUBCHEM_CONFORMER_ID>  (1) 
0000BEEF00000001

>  <PUBCHEM_MMFF94_ENERGY>  (1) 
69.052

>  <PUBCHEM_FEATURE_SELFOVERLAP>  (1) 
35.569

>  <PUBCHEM_SHAPE_FINGERPRINT>  (1) 
10618630 7 18408889554960266830
11543360 7 16226056625655485838
11578080 2 17416662791750991401
12553582 1 18342175600365854366
12932764 1 17989485221380647440
13296908 3 18334292089020095310
15375462 189 18341620372658090954
16752209 62 18198042708545528781
18186145 218 17095237025515854974
18522851 12 18271538601010268038
19422 9 17988085611623911542
200 152 18410845573197933662
20281407 28 18271802453820169336
20281475 54 18273214231182500510
20361792 2 18129935792819449037
20442098 301 18342457006828862038
20645477 70 18411129221686994390
20871999 31 17676474060936645615
21061003 4 18265061404128717225
21524375 3 17691685589274497729
221490 88 18334020497412037722
23402539 116 18334849546253618566
23402655 69 18334290946980677620
23526113 38 18115571790341861921
23557571 272 16371005273319654455
23559900 14 18270384054251868208
25610 137 18262526991019104312
26918003 58 18040997362353006554
3312278 4 18334573555364549895
4921388 177 16226052201633501323
559249 180 17974560300311232786
81228 2 18336531725603151081
9709674 26 18269836419893218846

>  <PUBCHEM_SHAPE_MULTIPOLES>  (1) 
303.48
7.34
2.21
1.21
5.07
1.01
0.12
-2.59
-0.51
-0.73
0.28
-1.56
-0.37
-0.04

>  <PUBCHEM_SHAPE_SELFOVERLAP>  (1) 
613.422

>  <PUBCHEM_SHAPE_VOLUME>  (1) 
176.1

>  <PUBCHEM_COORDINATE_TYPE>  (1) 
2
5
10

$$$$
