48872
     RDKit          3D

 19 21  0  0  0  0  0  0  0  0999 V2000
   -1.5077    0.6845    0.2025 N   0  0  0  0  0  0  0  0  0  0  0  0
    0.5839   -0.0968   -0.6682 N   0  0  0  0  0  0  0  0  0  0  0  0
    0.2763    2.1979   -0.1093 N   0  0  0  0  0  0  0  0  0  0  0  0
    4.6805   -0.6908    0.0713 N   0  0  0  0  0  0  0  0  0  0  0  0
   -1.2841    4.0704    0.4599 N   0  0  0  0  0  0  0  0  0  0  0  0
   -2.4371   -1.1226    1.4955 C   0  0  0  0  0  0  0  0  0  0  0  0
   -3.1902   -0.6820   -0.8471 C   0  0  0  0  0  0  0  0  0  0  0  0
   -2.0444   -0.6672    0.1212 C   0  0  0  0  0  0  0  0  0  0  0  0
   -1.3992   -1.1410    2.5677 C   0  0  0  0  0  0  0  0  0  0  0  0
   -1.9142   -2.4285    1.9941 C   0  0  0  0  0  0  0  0  0  0  0  0
   -2.9480   -0.2349   -2.2503 C   0  0  0  0  0  0  0  0  0  0  0  0
   -3.1824   -1.6866   -1.9509 C   0  0  0  0  0  0  0  0  0  0  0  0
   -0.2756    0.8652   -0.1598 C   0  0  0  0  0  0  0  0  0  0  0  0
    1.9604   -0.2967   -0.4195 C   0  0  0  0  0  0  0  0  0  0  0  0
   -0.5649    3.1989    0.1958 C   0  0  0  0  0  0  0  0  0  0  0  0
    2.7320   -1.0168   -1.3223 C   0  0  0  0  0  0  0  0  0  0  0  0
    2.5424    0.2273    0.7275 C   0  0  0  0  0  0  0  0  0  0  0  0
    4.0766   -1.1843   -1.0330 C   0  0  0  0  0  0  0  0  0  0  0  0
    3.8955    0.0040    0.9250 C   0  0  0  0  0  0  0  0  0  0  0  0
  1  8  1  0
  1 13  2  0
  2 13  1  0
  2 14  1  0
  3 13  1  0
  3 15  1  0
  4 18  2  0
  4 19  1  0
  5 15  3  0
  6  8  1  0
  6  9  1  0
  6 10  1  0
  7  8  1  0
  7 11  1  0
  7 12  1  0
  9 10  1  0
 11 12  1  0
 14 16  2  0
 14 17  1  0
 16 18  1  0
 17 19  2  0
M  END
>  <PUBCHEM_COMPOUND_CID>  (1) 
48872

>  <PUBCHEM_CONFORMER_RMSD>  (1) 
0.8

>  <PUBCHEM_CONFORMER_DIVERSEORDER>  (1) 
1
4
21
25
17
11
5
24
7
15
12
9
8
18
28
14
10
23
20
3
26
6
27
19
22
13
16
2

>  <PUBCHEM_MMFF94_PARTIAL_CHARGES>  (1) 
35
1 -0.7
10 -0.2
11 -0.2
12 -0.2
13 0.55
14 0.1
15 0.62
16 -0.15
17 -0.15
18 0.16
19 0.16
2 -0.55
20 0.1
21 0.1
23 0.1
24 0.1
25 0.1
26 0.1
27 0.1
28 0.1
29 0.1
3 -0.51
30 0.1
31 0.4
32 0.4
33 0.15
34 0.15
35 0.15
36 0.15
4 -0.62
5 -0.56
6 -0.19
7 -0.19
8 0.44
9 -0.2

>  <PUBCHEM_EFFECTIVE_ROTOR_COUNT>  (1) 
7.2

>  <PUBCHEM_PHARMACOPHORE_FEATURES>  (1) 
6
1 2 donor
1 3 donor
1 4 acceptor
1 5 acceptor
4 1 2 3 13 cation
6 4 14 16 17 18 19 rings

>  <PUBCHEM_HEAVY_ATOM_COUNT>  (1) 
19

>  <PUBCHEM_ATOM_DEF_STEREO_COUNT>  (1) 
0

>  <PUBCHEM_ATOM_UDEF_STEREO_COUNT>  (1) 
0

>  <PUBCHEM_BOND_DEF_STEREO_COUNT>  (1) 
0

>  <PUBCHEM_BOND_UDEF_STEREO_COUNT>  (1) 
0

>  <PUBCHEM_ISOTOPIC_ATOM_COUNT>  (1) 
0

>  <PUBCHEM_COMPONENT_COUNT>  (1) 
1

>  <PUBCHEM_CACTVS_TAUTO_COUNT>  (1) 
5

>  <PUBCHEM_CONFORMER_ID>  (1) 
0000BEE800000001

>  <PUBCHEM_MMFF94_ENERGY>  (1) 
73.887

>  <PUBCHEM_FEATURE_SELFOVERLAP>  (1) 
30.48

>  <PUBCHEM_SHAPE_FINGERPRINT>  (1) 
10366900 7 18410285909553980786
10610426 29 16844425285152620141
107951 10 17253753414834088863
11578080 2 17314521524326307301
11582403 64 15958289445313726117
12363563 72 18410856598431892374
12553582 1 18269571566313180830
12596599 1 16845305912246480886
12707595 3 18189623902477626098
12714826 92 17313396680933777579
12788726 201 18337666395611328369
13149001 5 17897150528434707511
13681431 1 18265616678548825700
14863182 85 15522122102847761483
18915476 22 17688871260587421345
18927931 339 18339372877071945774
20600515 1 17823673408787683936
20671657 53 18058436772331969223
21524375 3 17473550144291882380
2306618 200 17346313739570506642
23419403 2 17899414478610613945
23526113 38 18117544352719725625
23558518 356 18046910381347614186
23559900 14 17749380491210586656
31174 14 17758981589420522483
5845 1 8283330809855568453
7097593 13 15840451197540284326
81228 2 18336830771111507012

>  <PUBCHEM_SHAPE_MULTIPOLES>  (1) 
366.11
7.04
2.99
2.13
7.15
4.38
0.24
-4.11
-2.03
-1.76
1.05
-2.06
-1.48
0.69

>  <PUBCHEM_SHAPE_SELFOVERLAP>  (1) 
761.576

>  <PUBCHEM_SHAPE_VOLUME>  (1) 
201.7

>  <PUBCHEM_COORDINATE_TYPE>  (1) 
2
5
10

$$$$
