48870
     RDKit          3D

 19 19  0  0  0  0  0  0  0  0999 V2000
   -1.4174    0.5849   -0.0082 N   0  0  0  0  0  0  0  0  0  0  0  0
    0.7236   -0.2844   -0.6442 N   0  0  0  0  0  0  0  0  0  0  0  0
    0.3494    2.0602   -0.4561 N   0  0  0  0  0  0  0  0  0  0  0  0
    4.7844   -0.6615    0.3799 N   0  0  0  0  0  0  0  0  0  0  0  0
   -1.2693    3.9588   -0.2551 N   0  0  0  0  0  0  0  0  0  0  0  0
   -1.9330   -0.7927    0.0912 C   0  0  0  0  0  0  0  0  0  0  0  0
   -2.3730   -1.0532    1.5543 C   0  0  0  0  0  0  0  0  0  0  0  0
   -3.0382   -0.9719   -0.9805 C   0  0  0  0  0  0  0  0  0  0  0  0
   -1.2146   -0.8128    2.5311 C   0  0  0  0  0  0  0  0  0  0  0  0
   -3.5894   -0.2272    1.9834 C   0  0  0  0  0  0  0  0  0  0  0  0
   -2.4943   -0.6568   -2.3820 C   0  0  0  0  0  0  0  0  0  0  0  0
   -3.6257   -2.3863   -0.9869 C   0  0  0  0  0  0  0  0  0  0  0  0
   -0.1772    0.7222   -0.3309 C   0  0  0  0  0  0  0  0  0  0  0  0
    2.0879   -0.4114   -0.2996 C   0  0  0  0  0  0  0  0  0  0  0  0
    2.9178   -1.2404   -1.0433 C   0  0  0  0  0  0  0  0  0  0  0  0
    2.6000    0.2931    0.7822 C   0  0  0  0  0  0  0  0  0  0  0  0
   -0.5231    3.0751   -0.3482 C   0  0  0  0  0  0  0  0  0  0  0  0
    4.2478   -1.3302   -0.6654 C   0  0  0  0  0  0  0  0  0  0  0  0
    3.9443    0.1347    1.0783 C   0  0  0  0  0  0  0  0  0  0  0  0
  1  6  1  0
  1 13  2  0
  2 13  1  0
  2 14  1  0
  3 13  1  0
  3 17  1  0
  4 18  2  0
  4 19  1  0
  5 17  3  0
  6  7  1  0
  6  8  1  0
  7  9  1  0
  7 10  1  0
  8 11  1  0
  8 12  1  0
 14 15  2  0
 14 16  1  0
 15 18  1  0
 16 19  2  0
M  END
>  <PUBCHEM_COMPOUND_CID>  (1) 
48870

>  <PUBCHEM_CONFORMER_RMSD>  (1) 
0.8

>  <PUBCHEM_CONFORMER_DIVERSEORDER>  (1) 
1
6
9
3
15
13
17
18
19
14
16
8
7
12
10
11
5
2
4

>  <PUBCHEM_MMFF94_PARTIAL_CHARGES>  (1) 
19
1 -0.7
13 0.55
14 0.1
15 -0.15
16 -0.15
17 0.62
18 0.16
19 0.16
2 -0.55
3 -0.51
35 0.4
36 0.4
37 0.15
38 0.15
39 0.15
4 -0.62
40 0.15
5 -0.56
6 0.25

>  <PUBCHEM_EFFECTIVE_ROTOR_COUNT>  (1) 
6

>  <PUBCHEM_PHARMACOPHORE_FEATURES>  (1) 
8
1 2 donor
1 3 donor
1 4 acceptor
1 5 acceptor
3 7 9 10 hydrophobe
3 8 11 12 hydrophobe
4 1 2 3 13 cation
6 4 14 15 16 18 19 rings

>  <PUBCHEM_HEAVY_ATOM_COUNT>  (1) 
19

>  <PUBCHEM_ATOM_DEF_STEREO_COUNT>  (1) 
0

>  <PUBCHEM_ATOM_UDEF_STEREO_COUNT>  (1) 
0

>  <PUBCHEM_BOND_DEF_STEREO_COUNT>  (1) 
0

>  <PUBCHEM_BOND_UDEF_STEREO_COUNT>  (1) 
0

>  <PUBCHEM_ISOTOPIC_ATOM_COUNT>  (1) 
0

>  <PUBCHEM_COMPONENT_COUNT>  (1) 
1

>  <PUBCHEM_CACTVS_TAUTO_COUNT>  (1) 
5

>  <PUBCHEM_CONFORMER_ID>  (1) 
0000BEE600000001

>  <PUBCHEM_MMFF94_ENERGY>  (1) 
65.5527

>  <PUBCHEM_FEATURE_SELFOVERLAP>  (1) 
40.629

>  <PUBCHEM_SHAPE_FINGERPRINT>  (1) 
10366900 7 18334852827740631762
11578080 2 17345163732392540545
12363563 72 18334857255240068358
12553582 1 18337408117947908806
12633257 1 17274271526164341682
12707595 3 18040720324082897666
12788726 201 18189325775881359457
13296909 8 16845578625405212491
13681431 1 18190181380495363797
14863182 85 15303142250294459107
17357779 13 18269815610576216364
1813 80 18270414870061520334
18927931 339 18336268938503554694
20361792 2 18337962271681505863
20671657 53 18269548506670782815
21339142 126 18340209583317605279
21524375 3 17398669000146331292
2306618 200 17703219616367117970
23175994 123 18187089472641474085
23402539 116 18336537257842164366
23526113 38 17824811472131085897
23598288 3 18191045424978340556
25 1 10665213840096371162
3286 77 17131542942631268434
6992083 37 18130520694682873421
81228 2 18189053105566538956

>  <PUBCHEM_SHAPE_MULTIPOLES>  (1) 
366.11
7.7
2.77
1.98
6.67
3.9
0.71
-5
0.54
-1.52
-1.05
-2.01
-0.71
0.07

>  <PUBCHEM_SHAPE_SELFOVERLAP>  (1) 
732.813

>  <PUBCHEM_SHAPE_VOLUME>  (1) 
209.9

>  <PUBCHEM_COORDINATE_TYPE>  (1) 
2
5
10

$$$$
