48885
     RDKit          3D

 17 17  0  0  0  0  0  0  0  0999 V2000
    2.4225    0.4105   -0.0065 N   0  0  0  0  0  0  0  0  0  0  0  0
    0.1522   -0.1905    0.0407 N   0  0  0  0  0  0  0  0  0  0  0  0
    1.8130   -1.9192    0.0228 N   0  0  0  0  0  0  0  0  0  0  0  0
   -2.7926   -0.4419   -1.1888 N   0  0  0  0  0  0  0  0  0  0  0  0
    4.2506   -2.4851   -0.0166 N   0  0  0  0  0  0  0  0  0  0  0  0
    2.2053    1.8393   -0.0129 C   0  0  0  0  0  0  0  0  0  0  0  0
    3.5638    2.5451   -0.0434 C   0  0  0  0  0  0  0  0  0  0  0  0
    1.3910    2.2011   -1.2573 C   0  0  0  0  0  0  0  0  0  0  0  0
    1.4394    2.2277    1.2549 C   0  0  0  0  0  0  0  0  0  0  0  0
    1.4048   -0.5305    0.0198 C   0  0  0  0  0  0  0  0  0  0  0  0
   -0.8749   -1.2195    0.0680 C   0  0  0  0  0  0  0  0  0  0  0  0
   -2.2576   -0.6309    0.0331 C   0  0  0  0  0  0  0  0  0  0  0  0
   -2.8842   -0.3253    1.2243 C   0  0  0  0  0  0  0  0  0  0  0  0
   -4.1625    0.2178    1.1569 C   0  0  0  0  0  0  0  0  0  0  0  0
   -4.0362    0.0877   -1.2146 C   0  0  0  0  0  0  0  0  0  0  0  0
   -4.7565    0.4314   -0.0821 C   0  0  0  0  0  0  0  0  0  0  0  0
    3.1216   -2.2177    0.0017 C   0  0  0  0  0  0  0  0  0  0  0  0
  1  6  1  0
  1 10  1  0
  2 10  2  0
  2 11  1  0
  3 10  1  0
  3 17  1  0
  4 12  2  0
  4 15  1  0
  5 17  3  0
  6  7  1  0
  6  8  1  0
  6  9  1  0
 11 12  1  0
 12 13  1  0
 13 14  2  0
 14 16  1  0
 15 16  2  0
M  END
>  <PUBCHEM_COMPOUND_CID>  (1) 
48885

>  <PUBCHEM_CONFORMER_RMSD>  (1) 
0.6

>  <PUBCHEM_CONFORMER_DIVERSEORDER>  (1) 
1
142
133
34
46
119
70
75
140
76
108
66
65
48
39
69
33
31
136
139
109
74
135
138
9
143
148
47
124
27
147
100
37
71
98
125
101
35
51
91
146
128
137
52
43
64
144
145
41
58
45
120
114
61
105
50
84
28
121
80
7
117
118
87
60
92
106
19
134
89
113
88
68
23
73
40
141
81
94
30
72
10
129
18
97
32
38
55
42
57
22
110
127
29
59
21
25
63
24
6
107
44
16
79
99
123
85
53
86
122
62
130
111
103
36
54
67
77
26
49
20
104
90
5
4
93
82
116
83
126
102
2
12
78
11
132
3
8
96
131
56
13
95
115
14
17
112
15

>  <PUBCHEM_MMFF94_PARTIAL_CHARGES>  (1) 
20
1 -0.82
10 0.55
11 0.39
12 0.17
13 -0.15
14 -0.15
15 0.16
16 -0.15
17 0.62
2 -0.7
27 0.4
3 -0.51
30 0.4
31 0.15
32 0.15
33 0.15
34 0.15
4 -0.62
5 -0.56
6 0.37

>  <PUBCHEM_EFFECTIVE_ROTOR_COUNT>  (1) 
5

>  <PUBCHEM_PHARMACOPHORE_FEATURES>  (1) 
7
1 1 donor
1 3 donor
1 4 acceptor
1 5 acceptor
4 1 2 3 10 cation
4 6 7 8 9 hydrophobe
6 4 12 13 14 15 16 rings

>  <PUBCHEM_HEAVY_ATOM_COUNT>  (1) 
17

>  <PUBCHEM_ATOM_DEF_STEREO_COUNT>  (1) 
0

>  <PUBCHEM_ATOM_UDEF_STEREO_COUNT>  (1) 
0

>  <PUBCHEM_BOND_DEF_STEREO_COUNT>  (1) 
0

>  <PUBCHEM_BOND_UDEF_STEREO_COUNT>  (1) 
0

>  <PUBCHEM_ISOTOPIC_ATOM_COUNT>  (1) 
0

>  <PUBCHEM_COMPONENT_COUNT>  (1) 
1

>  <PUBCHEM_CACTVS_TAUTO_COUNT>  (1) 
3

>  <PUBCHEM_CONFORMER_ID>  (1) 
0000BEF500000001

>  <PUBCHEM_MMFF94_ENERGY>  (1) 
53.9373

>  <PUBCHEM_FEATURE_SELFOVERLAP>  (1) 
35.551

>  <PUBCHEM_SHAPE_FINGERPRINT>  (1) 
10465860 228 18410579525870467472
11265709 11 18267585694169666402
12916754 54 18411133645983278943
13134695 92 18343015571467732316
13294875 104 17916577799575994056
13533116 47 18342453781704191591
1813 80 18057053406416321054
18186145 218 18040712550619320963
18785283 64 18187369891235682020
192875 21 17988640757832584011
19433438 15 17846778473677688313
19784866 34 18126568048844098080
20645476 183 17703505618672083767
20645477 70 18335693953418507271
20671657 1 18272365416516178187
21041028 32 18268997492199524216
21478907 32 17689716364149591322
21486144 27 18186517730921886879
21639500 275 18341885333759744421
2255824 54 18413108351106763534
22943178 12 18040441018412993827
23175994 123 18190748531037479287
23419403 2 17770183139175202624
23559900 14 17167867443895863959
23598291 2 18202271520428893327
25 1 18338802341731187936
312423 11 18130507522081980559
474 4 18265614466898897189
5895379 119 16414376471402630768
6049 1 17822014198722842583
7364860 26 18412825798277416634
7471813 234 17987787527787147136
7615 1 17846776313003287427
81228 2 17763474919918354986
84936 182 18058727056181485704
9971528 1 18201712904303214554
9981440 41 17695326458556565464

>  <PUBCHEM_SHAPE_MULTIPOLES>  (1) 
324.95
8.84
2.79
1.13
6.14
0.02
0
-0.26
0.1
-5.34
0
0.88
0.42
-0.01

>  <PUBCHEM_SHAPE_SELFOVERLAP>  (1) 
656.306

>  <PUBCHEM_SHAPE_VOLUME>  (1) 
184.6

>  <PUBCHEM_COORDINATE_TYPE>  (1) 
2
5
10

$$$$
