4888
     RDKit          3D

 19 21  0  0  1  0  0  0  0  0999 V2000
    1.8431   -1.4625   -0.2337 O   0  0  0  0  0  0  0  0  0  0  0  0
   -5.5132    0.9453   -0.5065 O   0  0  0  0  0  0  0  0  0  0  0  0
   -3.5034    1.2004   -1.5223 O   0  0  0  0  0  0  0  0  0  0  0  0
    4.0741   -0.9462   -0.3082 N   0  0  0  0  0  0  0  0  0  0  0  0
    0.1065    0.1936    0.2145 C   0  0  0  0  0  0  0  0  0  0  0  0
    1.1037    1.3050    0.3500 C   0  0  0  0  0  0  0  0  0  0  0  0
   -2.1952   -0.5747    0.2438 C   0  0  0  0  0  0  0  0  0  0  0  0
   -3.6492   -0.2863    0.4102 C   0  0  0  0  0  0  0  0  0  0  0  0
    0.5251   -1.1098   -0.0657 C   0  0  0  0  0  0  0  0  0  0  0  0
   -1.2615    0.4545    0.3685 C   0  0  0  0  0  0  0  0  0  0  0  0
    2.5128    0.8403    0.1529 C   0  0  0  0  0  0  0  0  0  0  0  0
   -1.7696   -1.8716   -0.0358 C   0  0  0  0  0  0  0  0  0  0  0  0
   -0.4105   -2.1404   -0.1907 C   0  0  0  0  0  0  0  0  0  0  0  0
    2.8123   -0.4897   -0.1236 C   0  0  0  0  0  0  0  0  0  0  0  0
   -4.0233    0.2576    1.8039 C   0  0  0  0  0  0  0  0  0  0  0  0
    3.5775    1.7408    0.2424 C   0  0  0  0  0  0  0  0  0  0  0  0
   -4.1855    0.6884   -0.6441 C   0  0  0  0  0  0  0  0  0  0  0  0
    4.8817    1.2988    0.0577 C   0  0  0  0  0  0  0  0  0  0  0  0
    5.0747   -0.0432   -0.2133 C   0  0  0  0  0  0  0  0  0  0  0  0
  1  9  1  0
  1 14  1  0
  2 17  1  0
  3 17  2  0
  4 14  2  0
  4 19  1  0
  5  6  1  0
  5  9  2  0
  5 10  1  0
  6 11  1  0
  7  8  1  0
  7 10  2  0
  7 12  1  0
  8 15  1  0
  8 17  1  0
  9 13  1  0
 11 14  1  0
 11 16  2  0
 12 13  2  0
 16 18  1  0
 18 19  2  0
M  END
>  <PUBCHEM_COMPOUND_CID>  (1) 
4888

>  <PUBCHEM_CONFORMER_RMSD>  (1) 
0.6

>  <PUBCHEM_CONFORMER_DIVERSEORDER>  (1) 
2
4
3
5
1

>  <PUBCHEM_MMFF94_PARTIAL_CHARGES>  (1) 
25
1 -0.17
10 -0.15
11 -0.14
12 -0.15
13 -0.15
14 0.39
16 -0.15
17 0.66
18 -0.15
19 0.16
2 -0.65
23 0.15
24 0.15
25 0.15
29 0.15
3 -0.57
30 0.15
31 0.15
32 0.5
4 -0.62
5 -0.14
6 0.29
7 -0.14
8 0.2
9 0.08

>  <PUBCHEM_EFFECTIVE_ROTOR_COUNT>  (1) 
2.4

>  <PUBCHEM_PHARMACOPHORE_FEATURES>  (1) 
9
1 1 acceptor
1 15 hydrophobe
1 2 acceptor
1 3 acceptor
1 4 acceptor
3 2 3 17 anion
6 1 5 6 9 11 14 rings
6 4 11 14 16 18 19 rings
6 5 7 9 10 12 13 rings

>  <PUBCHEM_HEAVY_ATOM_COUNT>  (1) 
19

>  <PUBCHEM_ATOM_DEF_STEREO_COUNT>  (1) 
0

>  <PUBCHEM_ATOM_UDEF_STEREO_COUNT>  (1) 
1

>  <PUBCHEM_BOND_DEF_STEREO_COUNT>  (1) 
0

>  <PUBCHEM_BOND_UDEF_STEREO_COUNT>  (1) 
0

>  <PUBCHEM_ISOTOPIC_ATOM_COUNT>  (1) 
0

>  <PUBCHEM_COMPONENT_COUNT>  (1) 
1

>  <PUBCHEM_CACTVS_TAUTO_COUNT>  (1) 
1

>  <PUBCHEM_CONFORMER_ID>  (1) 
0000131800000002

>  <PUBCHEM_MMFF94_ENERGY>  (1) 
52.6259

>  <PUBCHEM_FEATURE_SELFOVERLAP>  (1) 
45.844

>  <PUBCHEM_SHAPE_FINGERPRINT>  (1) 
10014705 185 18409445929308202007
10411042 1 17547010723789078775
11089746 13 17131830993492903792
11471102 20 18343021090769466660
11543360 7 15123505947281253640
11595378 159 16081635699895100436
12236239 1 17346318176799224561
12403259 415 18341610473017086049
12500047 106 18340764965718167938
12969540 114 18336249189884770695
13583140 156 17675925408660359801
13675066 3 18041003963775749658
14251752 14 18113339683522934710
15099037 51 18412262839491318294
15196674 1 18341051921231455818
15375358 24 18273217512685194686
15788980 27 18113618997429462232
17834072 8 18341899589004074542
18186145 218 18342464741737771598
200 152 17131834269777379849
204376 136 18411984667450291035
20645477 56 18333729156162231676
20645477 70 18273218573574057918
21033648 29 18334846230175505849
21267235 1 18270412701293439714
231179 274 18260263040510687186
23227448 37 18337389464735942551
23402539 116 17346884433334300984
23402655 69 18202562877855981964
23493267 7 17822007601621505657
23557571 272 17241048691414165389
23559900 14 18131071589127643616
25 1 18411975837013224855
300161 21 18341890840293089288
335352 9 18412545401722697502
34934 24 18411693322970861706
350125 39 18196940083367357971
3545911 37 18412267267813603482
4028521 119 18410571790449588669
4072396 5 18339910542563230570
4214541 1 18411419561164609923
495365 180 17417235646146286480
5104073 3 18340487884820192570
542803 24 17203897361378838481
633830 44 17845670165424218255
69090 78 18272088318301169606
90127 26 17894917346956357216

>  <PUBCHEM_SHAPE_MULTIPOLES>  (1) 
368.42
10.68
1.81
0.95
0.44
0.53
-0.11
-4.1
0.71
0.36
0.14
-1.25
-0.25
0.6

>  <PUBCHEM_SHAPE_SELFOVERLAP>  (1) 
811.278

>  <PUBCHEM_SHAPE_VOLUME>  (1) 
196.5

>  <PUBCHEM_COORDINATE_TYPE>  (1) 
2
5
10

$$$$
