48880
     RDKit          3D

 20 20  0  0  0  0  0  0  0  0999 V2000
    3.4670    1.0855    0.0042 O   0  0  0  0  0  0  0  0  0  0  0  0
    1.5882    2.3809   -0.2372 O   0  0  0  0  0  0  0  0  0  0  0  0
   -0.3518   -1.4090    0.3401 N   0  0  0  0  0  0  0  0  0  0  0  0
   -0.7712    0.8903   -0.0158 N   0  0  0  0  0  0  0  0  0  0  0  0
    1.4577    0.0733    0.1323 N   0  0  0  0  0  0  0  0  0  0  0  0
   -4.2865   -0.1210   -0.5006 N   0  0  0  0  0  0  0  0  0  0  0  0
    0.5740   -2.5149    0.5168 C   0  0  0  0  0  0  0  0  0  0  0  0
    1.4165   -2.6776   -0.7644 C   0  0  0  0  0  0  0  0  0  0  0  0
    1.4287   -2.2171    1.7504 C   0  0  0  0  0  0  0  0  0  0  0  0
   -0.2559   -3.7815    0.7559 C   0  0  0  0  0  0  0  0  0  0  0  0
    0.6160   -2.9761   -2.0271 C   0  0  0  0  0  0  0  0  0  0  0  0
    0.0709   -0.1985    0.1524 C   0  0  0  0  0  0  0  0  0  0  0  0
   -2.1818    0.9556   -0.0286 C   0  0  0  0  0  0  0  0  0  0  0  0
    2.1166    1.2901   -0.0525 C   0  0  0  0  0  0  0  0  0  0  0  0
   -2.8423    2.0985    0.3947 C   0  0  0  0  0  0  0  0  0  0  0  0
   -2.9352   -0.1178   -0.4631 C   0  0  0  0  0  0  0  0  0  0  0  0
   -4.2321    2.1334    0.3708 C   0  0  0  0  0  0  0  0  0  0  0  0
    4.2828    2.2497   -0.1685 C   0  0  0  0  0  0  0  0  0  0  0  0
   -4.9015    1.0078   -0.0816 C   0  0  0  0  0  0  0  0  0  0  0  0
    5.7397    1.8487   -0.0784 C   0  0  0  0  0  0  0  0  0  0  0  0
  1 14  1  0
  1 18  1  0
  2 14  2  0
  3  7  1  0
  3 12  2  0
  4 12  1  0
  4 13  1  0
  5 12  1  0
  5 14  1  0
  6 16  2  0
  6 19  1  0
  7  8  1  0
  7  9  1  0
  7 10  1  0
  8 11  1  0
 13 15  2  0
 13 16  1  0
 15 17  1  0
 17 19  2  0
 18 20  1  0
M  END
>  <PUBCHEM_COMPOUND_CID>  (1) 
48880

>  <PUBCHEM_CONFORMER_RMSD>  (1) 
0.8

>  <PUBCHEM_CONFORMER_DIVERSEORDER>  (1) 
1
31
38
67
12
61
59
66
41
52
42
65
37
49
56
54
36
23
68
35
47
28
43
60
70
20
58
27
11
63
32
62
34
69
46
10
15
64
53
17
14
73
44
45
13
22
40
4
57
39
50
26
25
71
33
3
72
55
18
24
51
30
6
5
29
9
48
16
21
7
19
8
2

>  <PUBCHEM_MMFF94_PARTIAL_CHARGES>  (1) 
21
1 -0.43
12 0.56
13 0.1
14 0.78
15 -0.15
16 0.16
17 -0.15
18 0.28
19 0.16
2 -0.57
3 -0.7
32 0.4
33 0.37
34 0.15
35 0.15
36 0.15
39 0.15
4 -0.55
5 -0.49
6 -0.62
7 0.25

>  <PUBCHEM_EFFECTIVE_ROTOR_COUNT>  (1) 
8

>  <PUBCHEM_PHARMACOPHORE_FEATURES>  (1) 
7
1 11 hydrophobe
1 2 acceptor
1 4 donor
1 5 donor
1 6 acceptor
3 7 9 10 hydrophobe
6 6 13 15 16 17 19 rings

>  <PUBCHEM_HEAVY_ATOM_COUNT>  (1) 
20

>  <PUBCHEM_ATOM_DEF_STEREO_COUNT>  (1) 
0

>  <PUBCHEM_ATOM_UDEF_STEREO_COUNT>  (1) 
0

>  <PUBCHEM_BOND_DEF_STEREO_COUNT>  (1) 
0

>  <PUBCHEM_BOND_UDEF_STEREO_COUNT>  (1) 
0

>  <PUBCHEM_ISOTOPIC_ATOM_COUNT>  (1) 
0

>  <PUBCHEM_COMPONENT_COUNT>  (1) 
1

>  <PUBCHEM_CACTVS_TAUTO_COUNT>  (1) 
5

>  <PUBCHEM_CONFORMER_ID>  (1) 
0000BEF000000001

>  <PUBCHEM_MMFF94_ENERGY>  (1) 
70.594

>  <PUBCHEM_FEATURE_SELFOVERLAP>  (1) 
35.556

>  <PUBCHEM_SHAPE_FINGERPRINT>  (1) 
10382601 240 18188774937751316160
12553582 1 17617096911206055123
12788726 201 17394748601580474542
14790565 3 18407762534347346836
15042514 8 17903361746544758547
15664445 248 17623581843080996543
20554085 129 18130206221309417816
20567600 347 18410580590832505134
20600515 1 17042588830927823080
20645477 70 18268987588737818541
212916 134 18269820047662724056
21524375 3 18337389439161564012
22182313 1 18126031436030919630
2255824 54 18193838146085006395
23402539 116 18270958063271498668
23419403 2 17761544336034170138
23558518 356 17611184149978212776
23559900 14 17557135108925001767
23598288 3 17755595085169764900
23598291 2 17984707710414642457
298252 57 18338236067662951424
3091708 16 9263621279208186843
352729 6 18193286410032537089
3759504 43 18261956370301513096
38695281 34 18201439155650689014
474 4 18336262353822434545
474229 33 18265054802753349211
5104073 3 18117286861568890457
58051976 378 18409729590861168255
59755656 520 18336261336215937292
6138700 20 18267873783591101062
633830 44 18341895164681727948
7364860 26 18270400460593967493
81228 2 17472964577024446977
81539 233 18334856091145513309
9841814 1 17901951833551493051
9981440 41 18334576858458294857

>  <PUBCHEM_SHAPE_MULTIPOLES>  (1) 
379.93
8.74
4.36
1.1
0.05
3.48
0.14
-10.58
0.48
2.78
-0.02
0.34
1.22
-0.4

>  <PUBCHEM_SHAPE_SELFOVERLAP>  (1) 
764.035

>  <PUBCHEM_SHAPE_VOLUME>  (1) 
221.3

>  <PUBCHEM_COORDINATE_TYPE>  (1) 
2
5
10

$$$$
