48893
     RDKit          3D

 12 12  0  0  1  0  0  0  0  0999 V2000
   -1.4241   -0.2503   -1.8762 O   0  0  0  0  0  0  0  0  0  0  0  0
    0.7415    2.3097   -0.1308 O   0  0  0  0  0  0  0  0  0  0  0  0
   -3.5466   -0.1317    0.0288 N   0  0  0  0  0  0  0  0  0  0  0  0
   -1.1825    0.2406   -0.5548 C   0  0  0  0  0  0  0  0  0  0  0  0
   -2.1660   -0.4147    0.4409 C   0  0  0  0  0  0  0  0  0  0  0  0
    0.2728   -0.0379   -0.2446 C   0  0  0  0  0  0  0  0  0  0  0  0
   -1.9850    0.1001    1.8702 C   0  0  0  0  0  0  0  0  0  0  0  0
    1.1524    1.0132   -0.0501 C   0  0  0  0  0  0  0  0  0  0  0  0
    0.6908   -1.3556   -0.1624 C   0  0  0  0  0  0  0  0  0  0  0  0
    2.4900    0.7389    0.2351 C   0  0  0  0  0  0  0  0  0  0  0  0
    2.0285   -1.6298    0.1226 C   0  0  0  0  0  0  0  0  0  0  0  0
    2.9281   -0.5826    0.3214 C   0  0  0  0  0  0  0  0  0  0  0  0
  1  4  1  0
  2  8  1  0
  3  5  1  0
  4  5  1  0
  4  6  1  0
  5  7  1  0
  6  8  2  0
  6  9  1  0
  8 10  1  0
  9 11  2  0
 10 12  2  0
 11 12  1  0
M  END
>  <PUBCHEM_COMPOUND_CID>  (1) 
48893

>  <PUBCHEM_CONFORMER_RMSD>  (1) 
0.6

>  <PUBCHEM_CONFORMER_DIVERSEORDER>  (1) 
1
13
16
4
18
20
17
7
10
14
12
11
2
5
9
6
8
15
19
3

>  <PUBCHEM_MMFF94_PARTIAL_CHARGES>  (1) 
19
1 -0.68
10 -0.15
11 -0.15
12 -0.15
18 0.15
19 0.36
2 -0.53
20 0.36
21 0.4
22 0.15
23 0.15
24 0.15
25 0.45
3 -0.99
4 0.42
5 0.27
6 -0.14
8 0.08
9 -0.15

>  <PUBCHEM_EFFECTIVE_ROTOR_COUNT>  (1) 
2

>  <PUBCHEM_PHARMACOPHORE_FEATURES>  (1) 
6
1 1 acceptor
1 1 donor
1 2 donor
1 3 cation
1 3 donor
6 6 8 9 10 11 12 rings

>  <PUBCHEM_HEAVY_ATOM_COUNT>  (1) 
12

>  <PUBCHEM_ATOM_DEF_STEREO_COUNT>  (1) 
0

>  <PUBCHEM_ATOM_UDEF_STEREO_COUNT>  (1) 
2

>  <PUBCHEM_BOND_DEF_STEREO_COUNT>  (1) 
0

>  <PUBCHEM_BOND_UDEF_STEREO_COUNT>  (1) 
0

>  <PUBCHEM_ISOTOPIC_ATOM_COUNT>  (1) 
0

>  <PUBCHEM_COMPONENT_COUNT>  (1) 
1

>  <PUBCHEM_CACTVS_TAUTO_COUNT>  (1) 
3

>  <PUBCHEM_CONFORMER_ID>  (1) 
0000BEFD00000001

>  <PUBCHEM_MMFF94_ENERGY>  (1) 
25.5335

>  <PUBCHEM_FEATURE_SELFOVERLAP>  (1) 
30.449

>  <PUBCHEM_SHAPE_FINGERPRINT>  (1) 
10219947 1 18411140233903584426
11471102 22 18335708230047866618
12423570 1 12687027612530252684
12716758 59 16154537663038744782
13538477 17 17346029073749677807
15775835 57 17418105307760943977
16945 1 18336559290581112354
17844478 74 17894633638543593348
20201158 50 17968096399836307131
20871998 22 18126852590696405326
21061003 4 18334020454008495834
2748010 2 18123456195146294124
29004967 10 18334295340500125586
5084963 1 18201715197340587553
63268167 104 18343579659502935272
77492 1 17775280582054665015

>  <PUBCHEM_SHAPE_MULTIPOLES>  (1) 
230.23
4.36
1.53
1.2
1.38
0.44
-0.05
-0.64
-0.81
-1.02
0.03
0.95
-0.04
-0.05

>  <PUBCHEM_SHAPE_SELFOVERLAP>  (1) 
472.155

>  <PUBCHEM_SHAPE_VOLUME>  (1) 
133.4

>  <PUBCHEM_COORDINATE_TYPE>  (1) 
2
5
10

$$$$
