48898
     RDKit          3D

 15 15  0  0  1  0  0  0  0  0999 V2000
    2.4728    0.5186   -1.9067 O   0  0  0  0  0  0  0  0  0  0  0  0
   -2.0606    1.7262   -0.2855 O   0  0  0  0  0  0  0  0  0  0  0  0
   -3.1562   -0.6822    0.5645 O   0  0  0  0  0  0  0  0  0  0  0  0
    3.2738    0.0204    0.3325 C   0  0  0  0  0  0  0  0  0  0  0  0
    2.3090   -0.3845   -0.8096 C   0  0  0  0  0  0  0  0  0  0  0  0
    0.8420   -0.4611   -0.4417 C   0  0  0  0  0  0  0  0  0  0  0  0
    3.3181   -0.9815    1.4902 C   0  0  0  0  0  0  0  0  0  0  0  0
    2.9975    1.4290    0.8616 C   0  0  0  0  0  0  0  0  0  0  0  0
    0.0631    0.6785   -0.5347 C   0  0  0  0  0  0  0  0  0  0  0  0
    0.3145   -1.6688   -0.0203 C   0  0  0  0  0  0  0  0  0  0  0  0
   -1.2881    0.6081   -0.1952 C   0  0  0  0  0  0  0  0  0  0  0  0
   -1.0365   -1.7392    0.3190 C   0  0  0  0  0  0  0  0  0  0  0  0
   -1.8378   -0.6009    0.2316 C   0  0  0  0  0  0  0  0  0  0  0  0
   -2.1426    2.5529    0.8739 C   0  0  0  0  0  0  0  0  0  0  0  0
   -4.0690   -1.0155   -0.4795 C   0  0  0  0  0  0  0  0  0  0  0  0
  1  5  1  0
  2 11  1  0
  2 14  1  0
  3 13  1  0
  3 15  1  0
  4  5  1  0
  4  7  1  0
  4  8  1  0
  5  6  1  0
  6  9  2  0
  6 10  1  0
  9 11  1  0
 10 12  2  0
 11 13  2  0
 12 13  1  0
M  END
>  <PUBCHEM_COMPOUND_CID>  (1) 
48898

>  <PUBCHEM_CONFORMER_RMSD>  (1) 
0.6

>  <PUBCHEM_CONFORMER_DIVERSEORDER>  (1) 
1
29
24
10
31
32
27
38
18
23
37
30
34
28
4
22
25
33
36
26
2
20
13
17
14
6
21
15
11
9
35
7
19
3
16
8
5
12

>  <PUBCHEM_MMFF94_PARTIAL_CHARGES>  (1) 
16
1 -0.68
10 -0.15
11 0.08
12 -0.15
13 0.08
14 0.28
15 0.28
2 -0.36
24 0.15
25 0.15
26 0.4
27 0.15
3 -0.36
5 0.42
6 -0.14
9 -0.15

>  <PUBCHEM_EFFECTIVE_ROTOR_COUNT>  (1) 
4

>  <PUBCHEM_PHARMACOPHORE_FEATURES>  (1) 
6
1 1 acceptor
1 1 donor
1 2 acceptor
1 3 acceptor
3 4 7 8 hydrophobe
6 6 9 10 11 12 13 rings

>  <PUBCHEM_HEAVY_ATOM_COUNT>  (1) 
15

>  <PUBCHEM_ATOM_DEF_STEREO_COUNT>  (1) 
0

>  <PUBCHEM_ATOM_UDEF_STEREO_COUNT>  (1) 
1

>  <PUBCHEM_BOND_DEF_STEREO_COUNT>  (1) 
0

>  <PUBCHEM_BOND_UDEF_STEREO_COUNT>  (1) 
0

>  <PUBCHEM_ISOTOPIC_ATOM_COUNT>  (1) 
0

>  <PUBCHEM_COMPONENT_COUNT>  (1) 
1

>  <PUBCHEM_CACTVS_TAUTO_COUNT>  (1) 
1

>  <PUBCHEM_CONFORMER_ID>  (1) 
0000BF0200000001

>  <PUBCHEM_MMFF94_ENERGY>  (1) 
58.1752

>  <PUBCHEM_FEATURE_SELFOVERLAP>  (1) 
30.45

>  <PUBCHEM_SHAPE_FINGERPRINT>  (1) 
11031198 65 15482397546699773042
11132069 177 18131353029185323019
12251169 10 18336252531670020018
12592029 89 15357963548125917211
12932764 1 17703517609772452462
13140716 1 18121508109302124035
13538477 17 17896326989851746070
13581323 91 18409161121674421906
13764800 53 18199760149966419129
14289901 80 16702030819657677523
14614273 12 18188204283074757557
15775835 57 18261395490648994248
16945 1 18339092569756406199
17804303 29 18263358097698990506
17846911 113 18411695521635421131
18186145 218 17417824893530488958
19026448 4 16343714226745858991
19786989 88 16702302377638875780
20510252 161 18343022194117353601
20525323 117 18411418380386155151
20528008 55 18340199807845568954
20559304 39 18040719199138855462
20645476 183 17242186848862862454
20645477 70 15357694197673337530
21501502 16 18265056829630045487
21524375 3 17906460930937663377
22445834 79 17895182286746802498
22802520 49 17415858893904929684
2334 1 18264216820126702039
23402539 116 18341879823253634335
23419403 2 17980445109897584109
23463225 33 17967812726005126182
23526113 38 17701571491967393846
23557571 272 17775290456247827485
23559900 14 18341619217670513190
23598291 2 17677063338970941564
2748010 2 18192442861518463359
3286 77 18411692171713826578
474 4 14260769776782181658
5374978 207 18410288133787734475
6049 1 17417263034651858780
7364860 26 17981605961778704951
81228 2 18338250314021986129

>  <PUBCHEM_SHAPE_MULTIPOLES>  (1) 
291.09
6.16
2.05
1.18
0.32
0.99
0.18
-0.22
-0.92
1.26
-0.53
-0.99
0.08
-0.33

>  <PUBCHEM_SHAPE_SELFOVERLAP>  (1) 
590.07

>  <PUBCHEM_SHAPE_VOLUME>  (1) 
172.2

>  <PUBCHEM_COORDINATE_TYPE>  (1) 
2
5
10

$$$$
