48918
     RDKit          3D

 20 21  0  0  1  0  0  0  0  0999 V2000
    1.8423   -0.0530   -0.0331 O   0  0  0  0  0  0  0  0  0  0  0  0
    2.7331   -1.9643   -0.9347 O   0  0  0  0  0  0  0  0  0  0  0  0
   -1.8426   -0.0253    0.0443 N   0  0  0  0  0  0  0  0  0  0  0  0
   -2.8105    1.0018    0.4277 C   0  0  0  0  0  0  0  0  0  0  0  0
   -0.4773    0.4552    0.2541 C   0  0  0  0  0  0  0  0  0  0  0  0
   -4.2240    0.5662    0.1694 C   0  0  0  0  0  0  0  0  0  0  0  0
    0.5334   -0.5674   -0.2404 C   0  0  0  0  0  0  0  0  0  0  0  0
   -2.0741   -1.2543    0.8025 C   0  0  0  0  0  0  0  0  0  0  0  0
   -4.8127    0.8361   -1.0604 C   0  0  0  0  0  0  0  0  0  0  0  0
   -4.9296   -0.1030    1.1625 C   0  0  0  0  0  0  0  0  0  0  0  0
   -6.1258    0.4313   -1.3006 C   0  0  0  0  0  0  0  0  0  0  0  0
   -6.2427   -0.5079    0.9222 C   0  0  0  0  0  0  0  0  0  0  0  0
   -6.8407   -0.2407   -0.3094 C   0  0  0  0  0  0  0  0  0  0  0  0
    2.8823   -0.8573   -0.4277 C   0  0  0  0  0  0  0  0  0  0  0  0
    4.1740   -0.2217   -0.1631 C   0  0  0  0  0  0  0  0  0  0  0  0
    5.2847   -1.0103    0.1143 C   0  0  0  0  0  0  0  0  0  0  0  0
    4.2776    1.1643   -0.1922 C   0  0  0  0  0  0  0  0  0  0  0  0
    6.5158   -0.4048    0.3662 C   0  0  0  0  0  0  0  0  0  0  0  0
    5.5088    1.7698    0.0597 C   0  0  0  0  0  0  0  0  0  0  0  0
    6.6279    0.9851    0.3388 C   0  0  0  0  0  0  0  0  0  0  0  0
  1  7  1  0
  1 14  1  0
  2 14  2  0
  3  4  1  0
  3  5  1  0
  3  8  1  0
  4  6  1  0
  5  7  1  0
  6  9  2  0
  6 10  1  0
  9 11  1  0
 10 12  2  0
 11 13  2  0
 12 13  1  0
 14 15  1  0
 15 16  2  0
 15 17  1  0
 16 18  1  0
 17 19  2  0
 18 20  2  0
 19 20  1  0
M  END
>  <PUBCHEM_COMPOUND_CID>  (1) 
48918

>  <PUBCHEM_CONFORMER_RMSD>  (1) 
0.8

>  <PUBCHEM_CONFORMER_DIVERSEORDER>  (1) 
1
117
9
101
190
3
12
211
124
5
177
78
85
226
59
70
184
180
195
90
55
95
100
11
104
229
149
82
186
25
152
127
108
51
164
86
136
198
17
106
73
208
67
27
26
200
71
31
80
151
40
92
165
181
207
113
22
187
110
179
29
42
223
52
64
204
8
109
215
192
138
193
38
171
189
14
102
116
23
170
213
194
79
169
182
228
89
48
216
175
114
166
154
39
53
66
183
173
130
74
148
121
143
230
111
219
15
158
35
191
196
125
174
47
94
167
65
115
145
13
224
201
37
172
221
93
197
227
19
112
76
30
146
209
60
32
205
210
160
188
96
129
126
135
202
155
105
75
6
118
139
72
45
132
34
122
28
162
18
157
159
98
134
7
20
16
99
222
107
123
150
41
83
43
46
133
69
21
4
88
131
61
120
81
97
44
77
140
91
63
203
103
33
218
68
57
58
50
147
2
220
54
142
206
56
185
168
36
212
141
161
49
178
156
137
214
176
119
24
232
144
225
217
87
10
163
199
153
231
128
62
84

>  <PUBCHEM_MMFF94_PARTIAL_CHARGES>  (1) 
30
1 -0.43
10 -0.15
11 -0.15
12 -0.15
13 -0.15
14 0.63
15 0.09
16 -0.15
17 -0.15
18 -0.15
19 -0.15
2 -0.57
20 -0.15
3 -0.81
30 0.15
31 0.15
32 0.15
33 0.15
34 0.15
35 0.15
36 0.15
37 0.15
38 0.15
39 0.15
4 0.41
5 0.27
6 -0.14
7 0.28
8 0.27
9 -0.15

>  <PUBCHEM_EFFECTIVE_ROTOR_COUNT>  (1) 
7

>  <PUBCHEM_PHARMACOPHORE_FEATURES>  (1) 
4
1 2 acceptor
1 3 cation
6 15 16 17 18 19 20 rings
6 6 9 10 11 12 13 rings

>  <PUBCHEM_HEAVY_ATOM_COUNT>  (1) 
20

>  <PUBCHEM_ATOM_DEF_STEREO_COUNT>  (1) 
0

>  <PUBCHEM_ATOM_UDEF_STEREO_COUNT>  (1) 
0

>  <PUBCHEM_BOND_DEF_STEREO_COUNT>  (1) 
0

>  <PUBCHEM_BOND_UDEF_STEREO_COUNT>  (1) 
0

>  <PUBCHEM_ISOTOPIC_ATOM_COUNT>  (1) 
0

>  <PUBCHEM_COMPONENT_COUNT>  (1) 
1

>  <PUBCHEM_CACTVS_TAUTO_COUNT>  (1) 
1

>  <PUBCHEM_CONFORMER_ID>  (1) 
0000BF1600000001

>  <PUBCHEM_MMFF94_ENERGY>  (1) 
58.2438

>  <PUBCHEM_FEATURE_SELFOVERLAP>  (1) 
20.297

>  <PUBCHEM_SHAPE_FINGERPRINT>  (1) 
10 15 17967812786583106744
10299344 5 16845574218884674999
10595046 47 17989208105748132985
10638233 991 17275103963508415977
10835480 77 18336260133841632101
10968037 39 18131912668066872015
11089746 13 15285360626242977709
11315181 36 17022626377704409157
11524674 6 13334741236815024729
11719270 70 18413103940586917562
11724838 91 18342454872425054612
12091667 2 16370446649010242665
12236239 1 16702305628586233723
125118 31 17967816037356794956
12516196 113 17131833165976254793
13073987 5 18335423405255062923
13167372 99 18200880574006315096
13533116 47 17560521707950213862
14123256 10 17775002397181158581
1420 363 18409736148996608827
14251732 16 18409731798126257315
14251764 18 18060420226557017065
14251764 46 18410855460133436592
14429380 56 18341038705264035388
14617045 38 10231757803585332092
14848160 23 18040156205966716225
15183329 4 17704070706986474393
15419008 47 17748820821858748093
15716309 27 17775004570677274943
16079462 125 18114173146794693869
19377110 9 17632581508989110259
19489759 90 16515405158098982445
20157964 124 18413389835300733958
20281389 69 18113898273309395524
21150785 3 17203324541827915253
220451 1 16128658531313421503
22224240 67 18343860035580077706
23035841 295 14189576329857766149
23081809 10 17346601837513505267
23402539 116 15719393940945918231
23522609 53 16916246453920486793
23559900 14 18269549593498124841
28498 318 10809332343612744657
300161 21 18260544532904890842
335352 9 18343868815099684726
34797466 226 14620794938107458720
3545911 37 18411140242530357734
4073 2 17822297941701106122
4325135 7 17989486320834337541
4340502 62 18187085044483258546
5104073 3 18188779314549584873
542803 24 16559032679434005481
59755656 215 16732981977690687114
59755656 520 17022899081888786859

>  <PUBCHEM_SHAPE_MULTIPOLES>  (1) 
394.87
21.47
1.38
0.98
0.29
0.01
-0.06
-2.82
0.27
-1.52
-0.09
1.23
0.05
1.04

>  <PUBCHEM_SHAPE_SELFOVERLAP>  (1) 
828.453

>  <PUBCHEM_SHAPE_VOLUME>  (1) 
222.8

>  <PUBCHEM_COORDINATE_TYPE>  (1) 
2
5
10

$$$$
