48916
     RDKit          3D

 27 29  0  0  1  0  0  0  0  0999 V2000
    1.0773   -1.6241    0.9725 O   0  0  0  0  0  0  0  0  0  0  0  0
    1.4487   -2.5231   -1.1140 O   0  0  0  0  0  0  0  0  0  0  0  0
    2.0001    0.7962   -2.3354 O   0  0  0  0  0  0  0  0  0  0  0  0
   -3.5623   -0.8390   -0.1838 N   0  0  0  0  0  0  0  0  0  0  0  0
   -4.8967   -1.4139   -0.4409 C   0  0  0  0  0  0  0  0  0  0  0  0
   -5.7742   -0.3788   -1.1706 C   0  0  0  0  0  0  0  0  0  0  0  0
   -3.6037    0.4080    0.5880 C   0  0  0  0  0  0  0  0  0  0  0  0
   -5.8548    0.9493   -0.4239 C   0  0  0  0  0  0  0  0  0  0  0  0
   -4.4565    1.4669   -0.1111 C   0  0  0  0  0  0  0  0  0  0  0  0
   -2.6312   -1.7938    0.4109 C   0  0  0  0  0  0  0  0  0  0  0  0
   -5.6183   -1.9729    0.7952 C   0  0  0  0  0  0  0  0  0  0  0  0
   -1.2171   -1.2222    0.4147 C   0  0  0  0  0  0  0  0  0  0  0  0
   -0.2185   -2.2056    1.0101 C   0  0  0  0  0  0  0  0  0  0  0  0
    1.8082   -1.8624   -0.1519 C   0  0  0  0  0  0  0  0  0  0  0  0
    3.1364   -1.2044   -0.0664 C   0  0  0  0  0  0  0  0  0  0  0  0
    3.3068    0.0848   -0.5306 C   0  0  0  0  0  0  0  0  0  0  0  0
    4.1764   -1.9261    0.4878 C   0  0  0  0  0  0  0  0  0  0  0  0
    2.2151    0.8515   -1.1169 C   0  0  0  0  0  0  0  0  0  0  0  0
    4.5665    0.6767   -0.4373 C   0  0  0  0  0  0  0  0  0  0  0  0
    5.4359   -1.3342    0.5813 C   0  0  0  0  0  0  0  0  0  0  0  0
    5.6310   -0.0329    0.1187 C   0  0  0  0  0  0  0  0  0  0  0  0
    1.3210    1.7218   -0.2975 C   0  0  0  0  0  0  0  0  0  0  0  0
    1.5403    1.8002    1.0587 C   0  0  0  0  0  0  0  0  0  0  0  0
    0.3129    2.4122   -0.9304 C   0  0  0  0  0  0  0  0  0  0  0  0
    0.7050    2.6136    1.8244 C   0  0  0  0  0  0  0  0  0  0  0  0
   -0.5223    3.2258   -0.1645 C   0  0  0  0  0  0  0  0  0  0  0  0
   -0.3261    3.3264    1.2129 C   0  0  0  0  0  0  0  0  0  0  0  0
  1 13  1  0
  1 14  1  0
  2 14  2  0
  3 18  2  0
  4  5  1  0
  4  7  1  0
  4 10  1  0
  5  6  1  0
  5 11  1  0
  6  8  1  0
  7  9  1  0
  8  9  1  0
 10 12  1  0
 12 13  1  0
 14 15  1  0
 15 16  1  0
 15 17  2  0
 16 18  1  0
 16 19  2  0
 17 20  1  0
 18 22  1  0
 19 21  1  0
 20 21  2  0
 22 23  2  0
 22 24  1  0
 23 25  1  0
 24 26  2  0
 25 27  2  0
 26 27  1  0
M  END
>  <PUBCHEM_COMPOUND_CID>  (1) 
48916

>  <PUBCHEM_CONFORMER_RMSD>  (1) 
1

>  <PUBCHEM_CONFORMER_DIVERSEORDER>  (1) 
1
4
362
163
241
236
412
305
381
103
214
328
44
312
283
223
187
367
76
144
5
286
322
269
55
297
405
333
244
372
153
243
331
12
49
404
166
91
408
11
167
276
380
240
190
355
356
65
350
301
88
332
407
252
334
86
373
245
159
184
363
157
51
347
239
294
282
262
54
270
349
116
207
371
287
406
140
83
216
105
146
353
24
409
175
127
296
308
343
302
391
360
90
399
174
307
82
154
401
192
101
25
246
234
79
359
387
124
348
324
336
414
205
61
67
196
158
15
119
132
388
137
292
281
62
227
21
162
193
235
139
284
410
351
115
145
107
327
143
397
20
26
84
304
316
309
46
148
194
141
73
335
36
9
172
272
403
199
178
58
120
384
358
6
237
136
189
109
206
164
40
155
177
200
337
3
197
291
37
75
30
298
31
114
201
2
345
361
413
56
230
138
311
60
142
254
188
288
278
94
74
238
128
64
342
68
69
106
165
340
394
152
382
202
89
133
268
181
151
17
273
226
50
179
219
338
104
260
135
198
23
293
339
171
400
125
117
33
27
18
303
92
169
330
186
173
318
247
257
53
81
59
13
329
77
255
211
344
168
170
8
271
87
111
232
182
377
150
228
113
70
108
191
66
224
354
280
110
63
43
275
176
357
10
16
258
96
129
376
34
209
365
57
98
319
392
80
7
130
217
266
195
326
14
147
22
290
220
48
385
215
374
411
242
352
156
289
99
123
102
52
267
95
35
310
122
218
379
29
231
180
279
183
19
383
402
85
185
45
28
121
42
112
263
320
256
251
41
250
346
321
222
313
277
131
265
229
39
161
221
204
149
78
393
249
213
253
386
47
370
93
274
160
261
369
396
314
210
71
118
212
306
299
378
389
395
97
295
366
225
259
398
264
317
100
203
32
233
72
248
126
38
325
285
315
364
300
134
368
390
341
375
323
208

>  <PUBCHEM_MMFF94_PARTIAL_CHARGES>  (1) 
31
1 -0.43
10 0.27
13 0.28
14 0.63
15 0.09
16 0.09
17 -0.15
18 0.4
19 -0.15
2 -0.57
20 -0.15
21 -0.15
22 0.09
23 -0.15
24 -0.15
25 -0.15
26 -0.15
27 -0.15
3 -0.57
4 -0.81
46 0.15
47 0.15
48 0.15
49 0.15
5 0.27
50 0.15
51 0.15
52 0.15
53 0.15
54 0.15
7 0.27

>  <PUBCHEM_EFFECTIVE_ROTOR_COUNT>  (1) 
9.2

>  <PUBCHEM_PHARMACOPHORE_FEATURES>  (1) 
6
1 2 acceptor
1 3 acceptor
1 4 cation
6 15 16 17 19 20 21 rings
6 22 23 24 25 26 27 rings
6 4 5 6 7 8 9 rings

>  <PUBCHEM_HEAVY_ATOM_COUNT>  (1) 
27

>  <PUBCHEM_ATOM_DEF_STEREO_COUNT>  (1) 
0

>  <PUBCHEM_ATOM_UDEF_STEREO_COUNT>  (1) 
1

>  <PUBCHEM_BOND_DEF_STEREO_COUNT>  (1) 
0

>  <PUBCHEM_BOND_UDEF_STEREO_COUNT>  (1) 
0

>  <PUBCHEM_ISOTOPIC_ATOM_COUNT>  (1) 
0

>  <PUBCHEM_COMPONENT_COUNT>  (1) 
1

>  <PUBCHEM_CACTVS_TAUTO_COUNT>  (1) 
1

>  <PUBCHEM_CONFORMER_ID>  (1) 
0000BF1400000001

>  <PUBCHEM_MMFF94_ENERGY>  (1) 
69.5472

>  <PUBCHEM_FEATURE_SELFOVERLAP>  (1) 
30.446

>  <PUBCHEM_SHAPE_FINGERPRINT>  (1) 
10006869 2 18342167908981663224
10688039 33 18113618980017673116
11479125 193 15551587610096253712
11513181 2 17841715106362215263
11646440 116 18341059583157609459
12107698 1 18272367624989347911
12166972 35 18114467832990528263
12788726 201 18341626888609139188
13402501 40 18335417972026526719
14464042 87 18341052921647567273
14787075 74 18340485578290884984
14931854 50 18409166576414744213
15183329 4 18187363220681966399
1601671 61 18342457027923955410
17093844 170 18335979856686205464
18336668 15 18187366523411707341
18608769 82 17972607859966206819
20028762 73 18340764819990674974
20715895 44 18115306657578731389
221357 26 18410571816899939331
23559900 14 18337664339192314325
24893992 56 17967811640349032907
3004659 81 18186239524552243486
339767 52 18343016662573911909
439807 62 18187370969620827987
463206 1 18409736157945486641
508706 21 17895738648642157781
57124632 79 17839174465365283513
58260988 647 13769036123752714016
653340 110 18195804059853561016
8509985 295 18261388983589015250

>  <PUBCHEM_SHAPE_MULTIPOLES>  (1) 
533.06
12.68
3.62
1.33
9.95
1.84
0.13
-5.52
1.39
0.14
-0.94
-0.23
0.5
0.03

>  <PUBCHEM_SHAPE_SELFOVERLAP>  (1) 
1129.889

>  <PUBCHEM_SHAPE_VOLUME>  (1) 
297.7

>  <PUBCHEM_COORDINATE_TYPE>  (1) 
2
5
10

$$$$
