48926
     RDKit          3D

 21 22  0  0  1  0  0  0  0  0999 V2000
    1.6556   -1.0847    0.3638 O   0  0  0  0  0  0  0  0  0  0  0  0
    1.4571    1.1366    0.8982 O   0  0  0  0  0  0  0  0  0  0  0  0
   -2.5588   -0.7559   -0.0380 N   0  0  0  0  0  0  0  0  0  0  0  0
   -4.4149    1.5188   -0.1359 C   0  0  0  0  0  0  0  0  0  0  0  0
   -2.3812    0.2940   -1.0650 C   0  0  0  0  0  0  0  0  0  0  0  0
   -3.9664   -0.9412    0.3741 C   0  0  0  0  0  0  0  0  0  0  0  0
   -2.9503    1.6332   -0.5639 C   0  0  0  0  0  0  0  0  0  0  0  0
   -4.5569    0.3884    0.8858 C   0  0  0  0  0  0  0  0  0  0  0  0
   -1.8990   -2.0042   -0.4223 C   0  0  0  0  0  0  0  0  0  0  0  0
   -4.9196    2.8409    0.4385 C   0  0  0  0  0  0  0  0  0  0  0  0
   -2.9322   -0.0556   -2.4570 C   0  0  0  0  0  0  0  0  0  0  0  0
   -4.1282   -1.9891    1.4868 C   0  0  0  0  0  0  0  0  0  0  0  0
   -0.4079   -1.7691   -0.6416 C   0  0  0  0  0  0  0  0  0  0  0  0
    0.2715   -1.2701    0.6266 C   0  0  0  0  0  0  0  0  0  0  0  0
    2.1441    0.1866    0.5375 C   0  0  0  0  0  0  0  0  0  0  0  0
    3.5751    0.2509    0.2366 C   0  0  0  0  0  0  0  0  0  0  0  0
    4.2492    1.4609    0.3552 C   0  0  0  0  0  0  0  0  0  0  0  0
    4.2463   -0.8988   -0.1640 C   0  0  0  0  0  0  0  0  0  0  0  0
    5.6129    1.5223    0.0687 C   0  0  0  0  0  0  0  0  0  0  0  0
    5.6101   -0.8372   -0.4502 C   0  0  0  0  0  0  0  0  0  0  0  0
    6.2934    0.3733   -0.3339 C   0  0  0  0  0  0  0  0  0  0  0  0
  1 14  1  0
  1 15  1  0
  2 15  2  0
  3  5  1  0
  3  6  1  0
  3  9  1  0
  4  7  1  0
  4  8  1  0
  4 10  1  0
  5  7  1  0
  5 11  1  0
  6  8  1  0
  6 12  1  0
  9 13  1  0
 13 14  1  0
 15 16  1  0
 16 17  2  0
 16 18  1  0
 17 19  1  0
 18 20  2  0
 19 21  2  0
 20 21  1  0
M  END
>  <PUBCHEM_COMPOUND_CID>  (1) 
48926

>  <PUBCHEM_CONFORMER_RMSD>  (1) 
0.8

>  <PUBCHEM_CONFORMER_DIVERSEORDER>  (1) 
1
66
176
229
277
5
151
30
233
178
102
126
59
95
245
148
297
181
217
93
46
113
81
251
226
278
285
146
87
114
271
55
25
125
266
179
268
192
283
258
250
44
303
201
51
119
155
273
77
39
228
26
34
231
275
166
185
241
73
130
171
105
304
98
235
49
254
220
234
287
118
72
306
43
242
224
223
295
135
274
168
230
4
157
184
194
82
182
121
212
236
132
122
115
279
138
260
249
71
28
112
139
143
16
175
29
299
136
255
200
291
261
104
15
91
259
207
62
152
158
169
74
48
161
137
214
65
196
129
222
75
243
186
23
198
301
195
142
232
163
17
154
107
127
294
269
189
244
253
292
42
133
116
187
293
63
11
164
92
286
13
165
47
124
188
38
225
180
177
248
40
208
76
128
215
281
191
106
256
64
174
36
70
20
216
7
262
227
84
240
239
206
94
280
141
96
267
109
159
193
37
68
238
90
237
199
211
156
101
305
205
45
170
85
50
2
209
167
149
140
144
218
298
120
272
111
18
183
265
10
6
210
103
53
31
12
97
162
108
288
145
246
88
79
197
99
22
100
300
86
58
204
247
264
153
252
147
296
307
289
8
89
33
131
41
21
290
61
117
270
67
52
69
56
78
3
110
83
219
134
202
57
172
160
32
190
19
35
284
263
203
27
213
302
9
14
80
60
123
24
282
54
276
173
257
221
150

>  <PUBCHEM_MMFF94_PARTIAL_CHARGES>  (1) 
19
1 -0.43
14 0.28
15 0.63
16 0.09
17 -0.15
18 -0.15
19 -0.15
2 -0.57
20 -0.15
21 -0.15
3 -0.81
44 0.15
45 0.15
46 0.15
47 0.15
48 0.15
5 0.27
6 0.27
9 0.27

>  <PUBCHEM_EFFECTIVE_ROTOR_COUNT>  (1) 
7.2

>  <PUBCHEM_PHARMACOPHORE_FEATURES>  (1) 
4
1 2 acceptor
1 3 cation
6 16 17 18 19 20 21 rings
6 3 4 5 6 7 8 rings

>  <PUBCHEM_HEAVY_ATOM_COUNT>  (1) 
21

>  <PUBCHEM_ATOM_DEF_STEREO_COUNT>  (1) 
0

>  <PUBCHEM_ATOM_UDEF_STEREO_COUNT>  (1) 
2

>  <PUBCHEM_BOND_DEF_STEREO_COUNT>  (1) 
0

>  <PUBCHEM_BOND_UDEF_STEREO_COUNT>  (1) 
0

>  <PUBCHEM_ISOTOPIC_ATOM_COUNT>  (1) 
0

>  <PUBCHEM_COMPONENT_COUNT>  (1) 
1

>  <PUBCHEM_CACTVS_TAUTO_COUNT>  (1) 
1

>  <PUBCHEM_CONFORMER_ID>  (1) 
0000BF1E00000001

>  <PUBCHEM_MMFF94_ENERGY>  (1) 
42.5897

>  <PUBCHEM_FEATURE_SELFOVERLAP>  (1) 
20.297

>  <PUBCHEM_SHAPE_FINGERPRINT>  (1) 
10366900 7 18040989696169102187
11370993 144 18335702693613748671
12390115 104 18339934735760294977
12788726 201 17488464070587775048
12916748 109 18114181982006586906
13073987 5 18334856134686257546
13544653 18 9511458957041548582
14251752 14 18412546484122988530
14341114 328 16805330993406107349
14848160 23 9151173138814828644
15163728 17 16413802471416371057
15183329 4 16845577504645465204
15196674 1 18411418410350686512
15415430 10 8430308048093869761
15788980 27 17561362894284580942
17844677 252 18337680809890403440
17857418 61 11887690446424765124
200 152 11602814722455375867
20028762 73 7853568011722733192
20621476 66 18341898472065164208
20645477 70 18202009833105259582
21033648 29 18271516580939561384
21279426 13 18270405988596841590
21756936 100 18412820296018239063
221357 26 18200867478197049701
23198884 109 15626222412203205337
23402539 116 17775282772693629766
23402655 69 18342172280930920150
23403322 49 9295285045583123625
23559900 14 17131546241572126202
469060 322 16443345399059849335
5104073 3 18187076248526977722
59755656 520 17530967973461435898
633830 44 18411693275488974726
90127 26 18336271214572165858
9996256 80 18343020029617704199

>  <PUBCHEM_SHAPE_MULTIPOLES>  (1) 
415.45
14.9
2.35
1.26
15.41
0.52
-0.57
5.46
0.8
-2.69
0.37
-1.55
-0.19
0.66

>  <PUBCHEM_SHAPE_SELFOVERLAP>  (1) 
847.19

>  <PUBCHEM_SHAPE_VOLUME>  (1) 
241.3

>  <PUBCHEM_COORDINATE_TYPE>  (1) 
2
5
10

$$$$
