48938
     RDKit          3D

 20 20  0  0  0  0  0  0  0  0999 V2000
   -1.7951   -1.5339    1.3330 S   0  0  0  0  0  0  0  0  0  0  0  0
   -0.0333    1.5190   -0.7327 O   0  0  0  0  0  0  0  0  0  0  0  0
   -0.2420    1.2979    1.5491 O   0  0  0  0  0  0  0  0  0  0  0  0
    3.5770    0.8061   -0.5270 N   0  0  0  0  0  0  0  0  0  0  0  0
    2.1452    0.5349   -0.6502 C   0  0  0  0  0  0  0  0  0  0  0  0
    3.9358    1.0334    0.8724 C   0  0  0  0  0  0  0  0  0  0  0  0
    4.3563   -0.3005   -1.0811 C   0  0  0  0  0  0  0  0  0  0  0  0
    1.3472    1.8277   -0.5924 C   0  0  0  0  0  0  0  0  0  0  0  0
    5.4090    1.3770    1.0127 C   0  0  0  0  0  0  0  0  0  0  0  0
    4.1040   -1.5877   -0.3143 C   0  0  0  0  0  0  0  0  0  0  0  0
   -2.1365    0.9649    0.1403 C   0  0  0  0  0  0  0  0  0  0  0  0
   -0.7121    1.2745    0.4222 C   0  0  0  0  0  0  0  0  0  0  0  0
   -2.7212   -0.2494    0.5001 C   0  0  0  0  0  0  0  0  0  0  0  0
   -1.1472   -2.4816   -0.0711 C   0  0  0  0  0  0  0  0  0  0  0  0
   -0.3060   -3.6550    0.4189 C   0  0  0  0  0  0  0  0  0  0  0  0
   -2.8953    1.9392   -0.5082 C   0  0  0  0  0  0  0  0  0  0  0  0
   -4.0648   -0.4891    0.2115 C   0  0  0  0  0  0  0  0  0  0  0  0
   -4.2388    1.6994   -0.7969 C   0  0  0  0  0  0  0  0  0  0  0  0
   -4.8235    0.4853   -0.4371 C   0  0  0  0  0  0  0  0  0  0  0  0
    0.2413   -4.4622   -0.7493 C   0  0  0  0  0  0  0  0  0  0  0  0
  1 13  1  0
  1 14  1  0
  2  8  1  0
  2 12  1  0
  3 12  2  0
  4  5  1  0
  4  6  1  0
  4  7  1  0
  5  8  1  0
  6  9  1  0
  7 10  1  0
 11 12  1  0
 11 13  2  0
 11 16  1  0
 13 17  1  0
 14 15  1  0
 15 20  1  0
 16 18  2  0
 17 19  2  0
 18 19  1  0
M  END
>  <PUBCHEM_COMPOUND_CID>  (1) 
48938

>  <PUBCHEM_CONFORMER_RMSD>  (1) 
1

>  <PUBCHEM_CONFORMER_DIVERSEORDER>  (1) 
4
21
19
25
45
12
97
78
93
23
83
58
114
63
72
126
61
89
18
65
94
116
39
98
70
51
6
3
62
44
95
134
74
71
35
76
87
109
2
79
90
7
104
38
119
15
31
108
46
14
54
33
8
127
53
28
121
43
110
91
102
77
27
47
80
52
92
30
37
84
64
115
107
42
136
68
125
132
57
40
75
133
88
9
99
66
5
96
55
129
48
113
105
69
135
41
100
29
49
36
17
81
82
32
101
59
26
122
118
1
60
50
130
11
24
112
128
67
86
120
131
16
123
56
106
13
10
73
111
117
85
103
20
124
22
34

>  <PUBCHEM_MMFF94_PARTIAL_CHARGES>  (1) 
20
1 -0.33
11 0.09
12 0.63
13 0.1
14 0.23
16 -0.15
17 -0.15
18 -0.15
19 -0.15
2 -0.43
3 -0.57
39 0.15
4 -0.81
40 0.15
41 0.15
42 0.15
5 0.27
6 0.27
7 0.27
8 0.28

>  <PUBCHEM_EFFECTIVE_ROTOR_COUNT>  (1) 
10

>  <PUBCHEM_PHARMACOPHORE_FEATURES>  (1) 
4
1 20 hydrophobe
1 3 acceptor
1 4 cation
6 11 13 16 17 18 19 rings

>  <PUBCHEM_HEAVY_ATOM_COUNT>  (1) 
20

>  <PUBCHEM_ATOM_DEF_STEREO_COUNT>  (1) 
0

>  <PUBCHEM_ATOM_UDEF_STEREO_COUNT>  (1) 
0

>  <PUBCHEM_BOND_DEF_STEREO_COUNT>  (1) 
0

>  <PUBCHEM_BOND_UDEF_STEREO_COUNT>  (1) 
0

>  <PUBCHEM_ISOTOPIC_ATOM_COUNT>  (1) 
0

>  <PUBCHEM_COMPONENT_COUNT>  (1) 
1

>  <PUBCHEM_CACTVS_TAUTO_COUNT>  (1) 
1

>  <PUBCHEM_CONFORMER_ID>  (1) 
0000BF2A00000004

>  <PUBCHEM_MMFF94_ENERGY>  (1) 
41.8073

>  <PUBCHEM_FEATURE_SELFOVERLAP>  (1) 
20.297

>  <PUBCHEM_SHAPE_FINGERPRINT>  (1) 
10366900 7 17561089133296279824
107951 10 17530692008738076323
11045977 3 18130502059099923056
11112241 14 17273680147705987288
11370993 70 18410571782054865382
12500047 106 18339357573744455376
12553582 1 17039240276771424251
12592029 89 17967536740260241089
12596602 18 13470127307989288302
13402501 40 18265621987735039406
13931106 250 18267020750681233843
14251751 93 18261107508886520155
14251757 5 18120959418877457086
15006816 218 18265902358366967615
15163728 17 16227150515592980767
15375358 24 18342458162096040884
20197701 30 18409722946056430327
20511986 3 17531512296215878080
20645477 70 17846500292909589988
23402539 116 18335129913087147317
23559900 14 18413672418194715528
23728640 28 18264487458827208507
3298306 158 18335980857460694631
532947 4 18266743467724830431
59755656 215 18186800267267066575
6138700 20 18191589649080319606
9709674 26 18337114578254998204

>  <PUBCHEM_SHAPE_MULTIPOLES>  (1) 
398.72
9.93
3.93
1.15
6.67
6.19
-0.22
-4.79
0.41
-0.26
0.56
0.38
-0.05
1.33

>  <PUBCHEM_SHAPE_SELFOVERLAP>  (1) 
778.172

>  <PUBCHEM_SHAPE_VOLUME>  (1) 
242.4

>  <PUBCHEM_COORDINATE_TYPE>  (1) 
2
5
10

$$$$
