48930
     RDKit          3D

 18 19  0  0  0  0  0  0  0  0999 V2000
   -1.1584    0.4362    0.0247 O   0  0  0  0  0  0  0  0  0  0  0  0
   -2.4167    2.2575    0.6240 O   0  0  0  0  0  0  0  0  0  0  0  0
    3.6723    0.2342   -0.3231 N   0  0  0  0  0  0  0  0  0  0  0  0
    3.7355   -0.9114    0.5955 C   0  0  0  0  0  0  0  0  0  0  0  0
    4.9249    1.0027   -0.3007 C   0  0  0  0  0  0  0  0  0  0  0  0
    4.8877   -1.8487    0.2304 C   0  0  0  0  0  0  0  0  0  0  0  0
    6.1159    0.1280   -0.6950 C   0  0  0  0  0  0  0  0  0  0  0  0
    6.2178   -1.1049    0.1960 C   0  0  0  0  0  0  0  0  0  0  0  0
    2.5379    1.0953    0.0102 C   0  0  0  0  0  0  0  0  0  0  0  0
    1.2290    0.3250   -0.1315 C   0  0  0  0  0  0  0  0  0  0  0  0
    0.0266    1.2029    0.1882 C   0  0  0  0  0  0  0  0  0  0  0  0
   -2.3429    1.0836    0.2759 C   0  0  0  0  0  0  0  0  0  0  0  0
   -3.4872    0.1934    0.0750 C   0  0  0  0  0  0  0  0  0  0  0  0
   -4.7056    0.7214   -0.3363 C   0  0  0  0  0  0  0  0  0  0  0  0
   -3.3445   -1.1716    0.2971 C   0  0  0  0  0  0  0  0  0  0  0  0
   -5.7962   -0.1267   -0.5281 C   0  0  0  0  0  0  0  0  0  0  0  0
   -4.4352   -2.0197    0.1052 C   0  0  0  0  0  0  0  0  0  0  0  0
   -5.6609   -1.4973   -0.3073 C   0  0  0  0  0  0  0  0  0  0  0  0
  1 11  1  0
  1 12  1  0
  2 12  2  0
  3  4  1  0
  3  5  1  0
  3  9  1  0
  4  6  1  0
  5  7  1  0
  6  8  1  0
  7  8  1  0
  9 10  1  0
 10 11  1  0
 12 13  1  0
 13 14  2  0
 13 15  1  0
 14 16  1  0
 15 17  2  0
 16 18  2  0
 17 18  1  0
M  END
>  <PUBCHEM_COMPOUND_CID>  (1) 
48930

>  <PUBCHEM_CONFORMER_RMSD>  (1) 
0.8

>  <PUBCHEM_CONFORMER_DIVERSEORDER>  (1) 
1
76
133
93
132
127
59
47
80
73
82
110
108
98
26
64
112
48
21
109
20
62
120
131
14
72
28
37
41
12
30
18
10
117
118
90
31
79
116
115
50
102
100
71
75
27
128
84
69
104
36
54
70
126
88
78
6
105
97
51
61
56
46
15
38
121
52
5
42
96
94
92
8
44
99
67
95
35
55
68
53
32
19
81
106
39
66
89
122
57
129
25
85
60
4
49
16
2
114
103
86
91
43
65
58
124
34
45
9
3
83
130
11
101
63
107
13
87
29
40
113
17
33
7
22
125
123
77
111
24
119
23
74

>  <PUBCHEM_MMFF94_PARTIAL_CHARGES>  (1) 
19
1 -0.43
11 0.28
12 0.63
13 0.09
14 -0.15
15 -0.15
16 -0.15
17 -0.15
18 -0.15
2 -0.57
3 -0.81
35 0.15
36 0.15
37 0.15
38 0.15
39 0.15
4 0.27
5 0.27
9 0.27

>  <PUBCHEM_EFFECTIVE_ROTOR_COUNT>  (1) 
7.2

>  <PUBCHEM_PHARMACOPHORE_FEATURES>  (1) 
4
1 2 acceptor
1 3 cation
6 13 14 15 16 17 18 rings
6 3 4 5 6 7 8 rings

>  <PUBCHEM_HEAVY_ATOM_COUNT>  (1) 
18

>  <PUBCHEM_ATOM_DEF_STEREO_COUNT>  (1) 
0

>  <PUBCHEM_ATOM_UDEF_STEREO_COUNT>  (1) 
0

>  <PUBCHEM_BOND_DEF_STEREO_COUNT>  (1) 
0

>  <PUBCHEM_BOND_UDEF_STEREO_COUNT>  (1) 
0

>  <PUBCHEM_ISOTOPIC_ATOM_COUNT>  (1) 
0

>  <PUBCHEM_COMPONENT_COUNT>  (1) 
1

>  <PUBCHEM_CACTVS_TAUTO_COUNT>  (1) 
1

>  <PUBCHEM_CONFORMER_ID>  (1) 
0000BF2200000001

>  <PUBCHEM_MMFF94_ENERGY>  (1) 
29.7319

>  <PUBCHEM_FEATURE_SELFOVERLAP>  (1) 
20.297

>  <PUBCHEM_SHAPE_FINGERPRINT>  (1) 
10 15 10952047879383027391
10595046 47 18408608058957476380
10912923 1 18336834108886385928
10968037 39 18408042931254753775
11315181 36 18272654562742504969
11524674 6 16845573132511514783
117890 112 8358258138153231164
12107183 9 17616814336474792952
12236239 1 18334859411424342828
12516196 113 18272649060762798216
12555020 224 18337099151624222647
12760667 363 18272088305911899595
13167823 11 18410292497733028210
13288520 33 18413108377340329733
13533116 47 18410009923387231762
13668630 136 18342742905727499974
13862211 1 18201997763824729519
1420 363 17917714612572495404
14251718 22 18334576858574306108
14251732 16 18341893030694865656
14251752 14 17967805016876355813
14251764 18 18343305869019165699
14461889 52 18340198709320216592
15048467 5 8718827587282317358
15183329 4 18113330899560654515
15348495 7 13829839253585336782
17834072 33 18334577945295964524
17844677 252 18341618122327875528
17857418 61 18409446973159451738
18222031 100 18113334224129384492
18927931 339 18202286909697219117
200 152 18411980278183449705
20028762 73 18264482902653612242
20374829 77 18413387657514795129
20645477 56 8070028861392061761
20645477 70 18334294220041435234
21150785 3 16153430579478688371
21267235 1 18336269041883144747
220451 1 18336273374692750040
23035841 295 18409449185178249115
23198884 109 15863786193177646605
23402539 116 18410572886030441069
23403322 49 18411699920151268219
23522609 53 18124346936435138289
23559900 14 18338790234445610761
25122255 55 18272379637374909342
2767999 5 12035445051609585446
29717793 49 18114184129479562180
3004659 81 18186799180223544362
335352 9 18411415117044622741
351380 3 18342454854702119742
4073 2 17895199951873295082
4214541 1 18410012100403114993
4325135 7 18333170579297667358
465052 167 18202567280877890654
5104073 3 17988925565382631192
531348 171 17678167209732163661
542803 24 10231754483416902028
559249 180 18410290290483724535
5718773 13 18057597862715592343
57483677 66 18409166614826628766
59682541 52 15069165810783494042
67856867 119 18335706108313573044
7062679 117 18409452491896923985
7062679 6 9367345950703499674
7495541 125 17917708028704388896
960060 61 17530689809872543174
999808 66 17822304526265831163

>  <PUBCHEM_SHAPE_MULTIPOLES>  (1) 
353.71
17.93
1.91
0.72
7.73
0.3
0.01
6.85
2.38
-0.71
-0.24
0.08
-0.02
-0.6

>  <PUBCHEM_SHAPE_SELFOVERLAP>  (1) 
723.275

>  <PUBCHEM_SHAPE_VOLUME>  (1) 
204.2

>  <PUBCHEM_COORDINATE_TYPE>  (1) 
2
5
10

$$$$
