48936
     RDKit          3D

 24 24  0  0  0  0  0  0  0  0999 V2000
    2.6052    0.9035    1.6888 S   0  0  0  0  0  0  0  0  0  0  0  0
    0.9513   -0.7407   -1.0861 O   0  0  0  0  0  0  0  0  0  0  0  0
    1.1967   -2.2848    0.6035 O   0  0  0  0  0  0  0  0  0  0  0  0
   -2.6053   -0.2842   -0.2270 N   0  0  0  0  0  0  0  0  0  0  0  0
   -2.9593   -1.4626    0.5662 C   0  0  0  0  0  0  0  0  0  0  0  0
   -3.3190    0.8925    0.2548 C   0  0  0  0  0  0  0  0  0  0  0  0
   -1.1589   -0.0616   -0.1877 C   0  0  0  0  0  0  0  0  0  0  0  0
   -4.3004   -2.0299    0.1042 C   0  0  0  0  0  0  0  0  0  0  0  0
   -3.3512    1.9727   -0.8249 C   0  0  0  0  0  0  0  0  0  0  0  0
   -4.6793   -3.2754    0.9063 C   0  0  0  0  0  0  0  0  0  0  0  0
   -4.1144    3.2088   -0.3474 C   0  0  0  0  0  0  0  0  0  0  0  0
   -0.4446   -1.0029   -1.1443 C   0  0  0  0  0  0  0  0  0  0  0  0
   -6.0299   -3.8257    0.4765 C   0  0  0  0  0  0  0  0  0  0  0  0
   -4.1206    4.3025   -1.4036 C   0  0  0  0  0  0  0  0  0  0  0  0
    1.6559   -1.4534   -0.1643 C   0  0  0  0  0  0  0  0  0  0  0  0
    3.0944   -1.0877   -0.2032 C   0  0  0  0  0  0  0  0  0  0  0  0
    3.6238   -0.0591    0.5765 C   0  0  0  0  0  0  0  0  0  0  0  0
    3.9245   -1.8132   -1.0576 C   0  0  0  0  0  0  0  0  0  0  0  0
    2.0691    2.2579    0.6082 C   0  0  0  0  0  0  0  0  0  0  0  0
    4.9835    0.2435    0.5017 C   0  0  0  0  0  0  0  0  0  0  0  0
    1.1676    3.2236    1.3692 C   0  0  0  0  0  0  0  0  0  0  0  0
    5.2842   -1.5103   -1.1323 C   0  0  0  0  0  0  0  0  0  0  0  0
    5.8136   -0.4819   -0.3529 C   0  0  0  0  0  0  0  0  0  0  0  0
    0.7130    4.3682    0.4754 C   0  0  0  0  0  0  0  0  0  0  0  0
  1 17  1  0
  1 19  1  0
  2 12  1  0
  2 15  1  0
  3 15  2  0
  4  5  1  0
  4  6  1  0
  4  7  1  0
  5  8  1  0
  6  9  1  0
  7 12  1  0
  8 10  1  0
  9 11  1  0
 10 13  1  0
 11 14  1  0
 15 16  1  0
 16 17  2  0
 16 18  1  0
 17 20  1  0
 18 22  2  0
 19 21  1  0
 20 23  2  0
 21 24  1  0
 22 23  1  0
M  END
>  <PUBCHEM_COMPOUND_CID>  (1) 
48936

>  <PUBCHEM_CONFORMER_RMSD>  (1) 
1.2

>  <PUBCHEM_CONFORMER_DIVERSEORDER>  (1) 
1
10
82
98
40
59
19
100
61
60
96
12
17
91
57
21
52
34
36
86
2
28
78
70
43
25
94
77
6
93
101
89
67
66
24
95
50
30
90
102
105
74
106
39
79
35
8
84
76
53
54
49
68
44
69
83
104
47
75
42
97
26
45
51
92
14
38
16
7
73
20
23
80
29
71
11
27
81
5
9
22
18
85
62
13
55
56
63
103
33
88
41
87
4
99
15
32
65
46
3
64
31
58
48
37
72

>  <PUBCHEM_MMFF94_PARTIAL_CHARGES>  (1) 
20
1 -0.33
12 0.28
15 0.63
16 0.09
17 0.1
18 -0.15
19 0.23
2 -0.43
20 -0.15
22 -0.15
23 -0.15
3 -0.57
4 -0.81
47 0.15
5 0.27
50 0.15
53 0.15
54 0.15
6 0.27
7 0.27

>  <PUBCHEM_EFFECTIVE_ROTOR_COUNT>  (1) 
14

>  <PUBCHEM_PHARMACOPHORE_FEATURES>  (1) 
6
1 13 hydrophobe
1 14 hydrophobe
1 24 hydrophobe
1 3 acceptor
1 4 cation
6 16 17 18 20 22 23 rings

>  <PUBCHEM_HEAVY_ATOM_COUNT>  (1) 
24

>  <PUBCHEM_ATOM_DEF_STEREO_COUNT>  (1) 
0

>  <PUBCHEM_ATOM_UDEF_STEREO_COUNT>  (1) 
0

>  <PUBCHEM_BOND_DEF_STEREO_COUNT>  (1) 
0

>  <PUBCHEM_BOND_UDEF_STEREO_COUNT>  (1) 
0

>  <PUBCHEM_ISOTOPIC_ATOM_COUNT>  (1) 
0

>  <PUBCHEM_COMPONENT_COUNT>  (1) 
1

>  <PUBCHEM_CACTVS_TAUTO_COUNT>  (1) 
1

>  <PUBCHEM_CONFORMER_ID>  (1) 
0000BF2800000001

>  <PUBCHEM_MMFF94_ENERGY>  (1) 
38.1595

>  <PUBCHEM_FEATURE_SELFOVERLAP>  (1) 
30.446

>  <PUBCHEM_SHAPE_FINGERPRINT>  (1) 
10366900 7 18041281070644678971
11014199 57 18341621429268084025
11056379 131 18334863814040693015
12403259 226 18339361971738101913
13402501 40 18198898102580236773
13583140 156 18272367555705732847
14251757 5 18265333902276314532
14341114 176 17988651847148725682
14363568 33 18128256890383693232
15081414 286 17988926704345477680
15210252 30 18261674758408744876
15238133 3 18047175376787894624
17357779 13 17916578718646487728
18785283 64 18051975015684170176
21033648 29 17703494532865704986
2132832 1 17822864190189125151
23559900 14 18410287051920303243
46194498 28 18267866266802000240
508706 21 18337659841997636813
5104073 3 18343300336579725234
7495541 125 18341337798513091874

>  <PUBCHEM_SHAPE_MULTIPOLES>  (1) 
481.04
13.09
5.53
1.28
1.48
4.86
-0.05
-8.3
0.93
9.33
-0.19
-0.38
0.41
4.11

>  <PUBCHEM_SHAPE_SELFOVERLAP>  (1) 
927.364

>  <PUBCHEM_SHAPE_VOLUME>  (1) 
294.7

>  <PUBCHEM_COORDINATE_TYPE>  (1) 
2
5
10

$$$$
