48947
     RDKit          3D

 21 22  0  0  1  0  0  0  0  0999 V2000
    2.3564    0.3116    0.0871 O   0  0  0  0  0  0  0  0  0  0  0  0
    3.7115    2.0757    0.6797 O   0  0  0  0  0  0  0  0  0  0  0  0
   -1.2514    1.0606    0.1795 N   0  0  0  0  0  0  0  0  0  0  0  0
   -2.4347    0.2243   -0.0178 C   0  0  0  0  0  0  0  0  0  0  0  0
   -3.7133    1.0010    0.2984 C   0  0  0  0  0  0  0  0  0  0  0  0
   -0.0327    0.2782   -0.0245 C   0  0  0  0  0  0  0  0  0  0  0  0
   -4.9405    0.1427    0.1205 C   0  0  0  0  0  0  0  0  0  0  0  0
    1.1996    1.1145    0.2815 C   0  0  0  0  0  0  0  0  0  0  0  0
   -1.2796    2.2081   -0.7267 C   0  0  0  0  0  0  0  0  0  0  0  0
   -5.5693    0.1016   -1.1149 C   0  0  0  0  0  0  0  0  0  0  0  0
   -5.4198   -0.5914    1.1949 C   0  0  0  0  0  0  0  0  0  0  0  0
   -6.7042   -0.6923   -1.2796 C   0  0  0  0  0  0  0  0  0  0  0  0
   -6.5547   -1.3854    1.0299 C   0  0  0  0  0  0  0  0  0  0  0  0
   -7.1970   -1.4359   -0.2074 C   0  0  0  0  0  0  0  0  0  0  0  0
    3.5523    0.9189    0.3221 C   0  0  0  0  0  0  0  0  0  0  0  0
    4.6762   -0.0215    0.0830 C   0  0  0  0  0  0  0  0  0  0  0  0
    5.8872    0.4820   -0.3460 C   0  0  0  0  0  0  0  0  0  0  0  0
    4.4749   -1.3696    0.2978 C   0  0  0  0  0  0  0  0  0  0  0  0
    6.9432   -0.4014   -0.5704 C   0  0  0  0  0  0  0  0  0  0  0  0
    5.5311   -2.2529    0.0735 C   0  0  0  0  0  0  0  0  0  0  0  0
    6.7651   -1.7687   -0.3606 C   0  0  0  0  0  0  0  0  0  0  0  0
  1  8  1  0
  1 15  1  0
  2 15  2  0
  3  4  1  0
  3  6  1  0
  3  9  1  0
  4  5  1  0
  5  7  1  0
  6  8  1  0
  7 10  2  0
  7 11  1  0
 10 12  1  0
 11 13  2  0
 12 14  2  0
 13 14  1  0
 15 16  1  0
 16 17  2  0
 16 18  1  0
 17 19  1  0
 18 20  2  0
 19 21  2  0
 20 21  1  0
M  END
>  <PUBCHEM_COMPOUND_CID>  (1) 
48947

>  <PUBCHEM_CONFORMER_RMSD>  (1) 
0.8

>  <PUBCHEM_CONFORMER_DIVERSEORDER>  (1) 
1
317
151
89
405
377
408
257
102
287
349
84
157
192
76
350
227
42
215
254
229
191
399
187
127
283
284
189
39
307
219
49
123
294
184
248
20
380
83
161
134
410
344
188
198
375
318
220
285
183
130
238
218
412
271
260
132
140
193
33
308
304
299
335
216
316
105
17
169
367
52
25
217
352
171
186
37
396
223
279
12
381
139
329
202
166
236
120
96
190
126
211
303
208
241
249
201
144
233
155
156
270
88
391
345
125
339
179
336
141
263
324
302
79
240
180
119
46
124
64
296
163
371
346
361
392
370
122
403
289
415
55
137
205
15
292
91
320
200
214
337
295
343
86
297
22
372
394
309
203
8
118
81
298
213
165
400
204
261
48
226
276
27
36
56
112
274
354
143
26
235
173
142
347
71
293
251
135
54
290
93
368
177
106
195
239
104
334
85
30
66
342
321
291
269
407
264
80
256
128
9
255
300
21
32
58
111
69
341
78
63
18
332
147
29
131
185
358
38
333
108
305
6
82
44
149
75
65
253
164
389
262
322
373
348
364
369
258
277
286
74
327
225
199
267
246
409
150
100
252
212
145
319
278
378
136
77
288
98
312
209
243
72
250
355
311
390
206
176
365
417
231
62
116
90
340
67
362
101
99
210
328
314
114
388
221
237
366
363
224
182
103
11
7
110
51
162
13
28
194
121
245
158
197
315
359
34
133
175
384
35
87
374
247
228
59
360
70
230
152
41
207
387
268
395
306
356
129
397
418
172
95
24
242
404
398
31
2
338
326
138
45
323
379
244
170
4
281
47
40
265
168
325
174
310
92
14
16
146
266
107
376
351
382
159
178
393
234
50
301
115
97
282
414
73
5
154
330
23
196
61
19
222
3
385
57
109
60
353
153
406
383
259
148
117
181
272
402
232
113
357
53
273
94
160
413
313
416
411
331
401
68
43
275
167
280
10
386

>  <PUBCHEM_MMFF94_PARTIAL_CHARGES>  (1) 
31
1 -0.43
10 -0.15
11 -0.15
12 -0.15
13 -0.15
14 -0.15
15 0.63
16 0.09
17 -0.15
18 -0.15
19 -0.15
2 -0.57
20 -0.15
21 -0.15
3 -0.81
33 0.15
34 0.15
35 0.15
36 0.15
37 0.15
38 0.15
39 0.15
4 0.27
40 0.15
41 0.15
42 0.15
5 0.14
6 0.27
7 -0.14
8 0.28
9 0.27

>  <PUBCHEM_EFFECTIVE_ROTOR_COUNT>  (1) 
8

>  <PUBCHEM_PHARMACOPHORE_FEATURES>  (1) 
4
1 2 acceptor
1 3 cation
6 16 17 18 19 20 21 rings
6 7 10 11 12 13 14 rings

>  <PUBCHEM_HEAVY_ATOM_COUNT>  (1) 
21

>  <PUBCHEM_ATOM_DEF_STEREO_COUNT>  (1) 
0

>  <PUBCHEM_ATOM_UDEF_STEREO_COUNT>  (1) 
0

>  <PUBCHEM_BOND_DEF_STEREO_COUNT>  (1) 
0

>  <PUBCHEM_BOND_UDEF_STEREO_COUNT>  (1) 
0

>  <PUBCHEM_ISOTOPIC_ATOM_COUNT>  (1) 
0

>  <PUBCHEM_COMPONENT_COUNT>  (1) 
1

>  <PUBCHEM_CACTVS_TAUTO_COUNT>  (1) 
1

>  <PUBCHEM_CONFORMER_ID>  (1) 
0000BF3300000001

>  <PUBCHEM_MMFF94_ENERGY>  (1) 
55.5947

>  <PUBCHEM_FEATURE_SELFOVERLAP>  (1) 
20.297

>  <PUBCHEM_SHAPE_FINGERPRINT>  (1) 
10066227 112 8358259233227765671
10299344 5 18131635586066439863
11315181 36 18260551139271434705
11524674 6 16702300165963100567
11646440 116 14117799119959609162
117890 112 9007054669210034792
12166972 35 18343585161219599808
125118 31 10807940374788009874
12616971 3 15626213641527072513
12760667 363 18342458132215697897
13073987 5 18201436927259241400
13533116 47 18272651285635199904
13668630 136 18186801400753434291
13673619 4 18343582936542396400
13685833 64 18342177760924145968
13782708 43 18341330019968109508
13862211 1 18272369771876721469
13885169 127 18410292472459518841
14123256 34 18408326588037934067
14178184 131 18129381682595610247
14251764 18 17632858650565221928
14251764 30 18342454854976433041
14598715 104 11239722920785947059
14729087 3 9007059050113619439
14849402 71 16128082485693563776
15048467 5 7997970176099936325
15183329 4 18343017800413678423
15348495 7 13542167433556361679
15352257 5 18410576201497656795
15419008 145 11167678529735949830
15690457 1 17989200473881723463
15716309 27 17988925587437267185
17134984 74 17967250893281539090
18222031 100 17240481411891512444
20281389 69 10807938163127154843
21049683 271 18411705405215869640
21150785 3 16877664573531663038
21267235 1 18272656723495890692
21315759 40 17561364011034054671
21623969 137 18201722829592853750
21682296 61 18410295805042469005
221357 26 18335419046116848096
22288116 15 13623822673979367785
22956985 138 17056982671572254486
23081809 10 18272096010804212489
23522609 53 18055384459123900480
23559900 14 17968097563909854089
246663 6 18131637781285234878
300161 21 8142084256058827952
3004659 81 17530683233771502932
328310 630 10953745473960638887
33532 11 18413388734945451223
4340502 62 13758357769586749380
46194498 28 17822009826910788284
465052 167 18201721730787613892
504843 32 11530772517918948865
5104073 3 13829309203097148975
54039377 194 18272092635703788214
543368 44 10809337837730458439
5718773 13 18263359192979175546
59682541 35 11599724017820317639
59755656 215 17967530159996232274
6328613 192 11025797591830751639
9953998 17 11383830511818257701
999808 66 18261682540878559019

>  <PUBCHEM_SHAPE_MULTIPOLES>  (1) 
415.45
24.18
1.96
0.96
3.55
0.05
-0.06
13.84
-2.61
-1.5
0.05
1.36
0.08
0.71

>  <PUBCHEM_SHAPE_SELFOVERLAP>  (1) 
866.648

>  <PUBCHEM_SHAPE_VOLUME>  (1) 
235.7

>  <PUBCHEM_COORDINATE_TYPE>  (1) 
2
5
10

$$$$
