48940
     RDKit          3D

 21 21  0  0  0  0  0  0  0  0999 V2000
    1.3970    1.5944   -1.3230 S   0  0  0  0  0  0  0  0  0  0  0  0
    0.5351   -2.2068   -0.0918 O   0  0  0  0  0  0  0  0  0  0  0  0
    1.3688   -1.5398   -2.1312 O   0  0  0  0  0  0  0  0  0  0  0  0
   -3.4822   -0.8757    0.1031 N   0  0  0  0  0  0  0  0  0  0  0  0
   -2.2785   -1.6599    0.3509 C   0  0  0  0  0  0  0  0  0  0  0  0
   -1.6948   -2.1641   -0.9651 C   0  0  0  0  0  0  0  0  0  0  0  0
   -4.3286   -0.8387    1.2970 C   0  0  0  0  0  0  0  0  0  0  0  0
   -3.1350    0.4838   -0.3150 C   0  0  0  0  0  0  0  0  0  0  0  0
   -0.4469   -3.0061   -0.7365 C   0  0  0  0  0  0  0  0  0  0  0  0
   -3.6184   -0.1540    2.4524 C   0  0  0  0  0  0  0  0  0  0  0  0
   -4.3792    1.2925   -0.6407 C   0  0  0  0  0  0  0  0  0  0  0  0
    2.3566   -0.7315   -0.1174 C   0  0  0  0  0  0  0  0  0  0  0  0
    1.3824   -1.5233   -0.9102 C   0  0  0  0  0  0  0  0  0  0  0  0
    2.4495    0.6566   -0.2210 C   0  0  0  0  0  0  0  0  0  0  0  0
    0.5387    2.6893   -0.1594 C   0  0  0  0  0  0  0  0  0  0  0  0
   -0.4336    3.5999   -0.9007 C   0  0  0  0  0  0  0  0  0  0  0  0
    3.1971   -1.4235    0.7546 C   0  0  0  0  0  0  0  0  0  0  0  0
    3.3829    1.3523    0.5476 C   0  0  0  0  0  0  0  0  0  0  0  0
    4.1304   -0.7276    1.5230 C   0  0  0  0  0  0  0  0  0  0  0  0
    4.2233    0.6601    1.4194 C   0  0  0  0  0  0  0  0  0  0  0  0
   -1.1644    4.5221    0.0642 C   0  0  0  0  0  0  0  0  0  0  0  0
  1 14  1  0
  1 15  1  0
  2  9  1  0
  2 13  1  0
  3 13  2  0
  4  5  1  0
  4  7  1  0
  4  8  1  0
  5  6  1  0
  6  9  1  0
  7 10  1  0
  8 11  1  0
 12 13  1  0
 12 14  2  0
 12 17  1  0
 14 18  1  0
 15 16  1  0
 16 21  1  0
 17 19  2  0
 18 20  2  0
 19 20  1  0
M  END
>  <PUBCHEM_COMPOUND_CID>  (1) 
48940

>  <PUBCHEM_CONFORMER_RMSD>  (1) 
1.2

>  <PUBCHEM_CONFORMER_DIVERSEORDER>  (1) 
1
17
25
51
28
41
46
21
65
10
39
48
7
63
64
47
3
14
58
15
13
37
40
68
11
29
12
44
38
59
27
61
50
45
19
23
53
43
67
16
4
2
62
42
22
60
56
54
30
5
55
9
32
20
24
66
8
69
31
33
52
36
57
34
49
6
26
35
18

>  <PUBCHEM_MMFF94_PARTIAL_CHARGES>  (1) 
20
1 -0.33
12 0.09
13 0.63
14 0.1
15 0.23
17 -0.15
18 -0.15
19 -0.15
2 -0.43
20 -0.15
3 -0.57
4 -0.81
42 0.15
43 0.15
44 0.15
45 0.15
5 0.27
7 0.27
8 0.27
9 0.28

>  <PUBCHEM_EFFECTIVE_ROTOR_COUNT>  (1) 
11

>  <PUBCHEM_PHARMACOPHORE_FEATURES>  (1) 
4
1 21 hydrophobe
1 3 acceptor
1 4 cation
6 12 14 17 18 19 20 rings

>  <PUBCHEM_HEAVY_ATOM_COUNT>  (1) 
21

>  <PUBCHEM_ATOM_DEF_STEREO_COUNT>  (1) 
0

>  <PUBCHEM_ATOM_UDEF_STEREO_COUNT>  (1) 
0

>  <PUBCHEM_BOND_DEF_STEREO_COUNT>  (1) 
0

>  <PUBCHEM_BOND_UDEF_STEREO_COUNT>  (1) 
0

>  <PUBCHEM_ISOTOPIC_ATOM_COUNT>  (1) 
0

>  <PUBCHEM_COMPONENT_COUNT>  (1) 
1

>  <PUBCHEM_CACTVS_TAUTO_COUNT>  (1) 
1

>  <PUBCHEM_CONFORMER_ID>  (1) 
0000BF2C00000001

>  <PUBCHEM_MMFF94_ENERGY>  (1) 
41.3439

>  <PUBCHEM_FEATURE_SELFOVERLAP>  (1) 
20.297

>  <PUBCHEM_SHAPE_FINGERPRINT>  (1) 
10708813 3 17981602989840651976
10759866 29 17895201021404651740
114674 6 16680063315826644276
12553582 1 18339375148666591965
12633257 1 18262246637208193163
13402501 40 18265039263694112933
13965767 371 18272377429619021746
14790565 3 17685771724778279844
15003188 8 18341890762762183905
17093844 170 18193267486491442885
17859628 37 18411696608278017030
20261772 1 18410852192016817266
20775438 99 11317165016470187641
21665062 11 18335988678590800698
22113638 7 18340197596417654653
22749437 52 18202286922260549267
23503958 8 15719397256650004667
235170 7 13326859920133814771
3052486 1 18117010879316605134
3472631 163 15769786715152480403
5939293 188 18195536010770206596
7064713 232 18131637798143266521
7097593 13 18116706516327987026
8509985 295 18040991843525733415

>  <PUBCHEM_SHAPE_MULTIPOLES>  (1) 
419.3
8.17
4.36
1.69
2.55
4.66
-0.47
-0.95
-4.59
1.37
1.29
0.24
-0.45
0.32

>  <PUBCHEM_SHAPE_SELFOVERLAP>  (1) 
817.087

>  <PUBCHEM_SHAPE_VOLUME>  (1) 
254.9

>  <PUBCHEM_COORDINATE_TYPE>  (1) 
2
5
10

$$$$
