48955
     RDKit          3D

 23 24  0  0  1  0  0  0  0  0999 V2000
   -1.9375   -1.8504   -0.0598 O   0  0  0  0  0  0  0  0  0  0  0  0
   -1.0317   -1.4933   -2.1459 O   0  0  0  0  0  0  0  0  0  0  0  0
   -3.3986    1.3011    0.0299 N   0  0  0  0  0  0  0  0  0  0  0  0
   -2.4039    2.3237    0.3584 C   0  0  0  0  0  0  0  0  0  0  0  0
   -0.9951    1.8028    0.0791 C   0  0  0  0  0  0  0  0  0  0  0  0
   -3.4790    0.3035    1.0901 C   0  0  0  0  0  0  0  0  0  0  0  0
    0.0589    2.8667    0.3966 C   0  0  0  0  0  0  0  0  0  0  0  0
   -4.0863   -0.9895    0.5553 C   0  0  0  0  0  0  0  0  0  0  0  0
   -4.7063    1.9194   -0.1965 C   0  0  0  0  0  0  0  0  0  0  0  0
    1.4569    2.3545    0.1611 C   0  0  0  0  0  0  0  0  0  0  0  0
   -3.2397   -1.5842   -0.5621 C   0  0  0  0  0  0  0  0  0  0  0  0
    2.1530    1.7272    1.1943 C   0  0  0  0  0  0  0  0  0  0  0  0
    2.0543    2.5074   -1.0902 C   0  0  0  0  0  0  0  0  0  0  0  0
    3.4466    1.2531    0.9766 C   0  0  0  0  0  0  0  0  0  0  0  0
    3.3480    2.0330   -1.3078 C   0  0  0  0  0  0  0  0  0  0  0  0
    4.0440    1.4058   -0.2744 C   0  0  0  0  0  0  0  0  0  0  0  0
   -0.9199   -1.7703   -0.9617 C   0  0  0  0  0  0  0  0  0  0  0  0
    0.3823   -2.0703   -0.3148 C   0  0  0  0  0  0  0  0  0  0  0  0
    1.5571   -2.0437   -1.0667 C   0  0  0  0  0  0  0  0  0  0  0  0
    0.4315   -2.3783    1.0448 C   0  0  0  0  0  0  0  0  0  0  0  0
    2.7807   -2.3252   -0.4590 C   0  0  0  0  0  0  0  0  0  0  0  0
    1.6551   -2.6597    1.6524 C   0  0  0  0  0  0  0  0  0  0  0  0
    2.8297   -2.6331    0.9003 C   0  0  0  0  0  0  0  0  0  0  0  0
  1 11  1  0
  1 17  1  0
  2 17  2  0
  3  4  1  0
  3  6  1  0
  3  9  1  0
  4  5  1  0
  5  7  1  0
  6  8  1  0
  7 10  1  0
  8 11  1  0
 10 12  2  0
 10 13  1  0
 12 14  1  0
 13 15  2  0
 14 16  2  0
 15 16  1  0
 17 18  1  0
 18 19  2  0
 18 20  1  0
 19 21  1  0
 20 22  2  0
 21 23  2  0
 22 23  1  0
M  END
>  <PUBCHEM_COMPOUND_CID>  (1) 
48955

>  <PUBCHEM_CONFORMER_RMSD>  (1) 
1

>  <PUBCHEM_CONFORMER_DIVERSEORDER>  (1) 
1
267
170
110
332
272
259
162
326
254
325
381
319
329
375
10
79
89
223
57
142
204
141
25
196
247
263
183
282
122
352
134
348
158
244
240
129
213
340
335
280
131
52
181
219
218
317
309
230
328
133
3
355
382
126
209
84
347
265
186
91
249
9
157
146
118
206
124
38
168
14
346
27
361
2
156
231
276
345
330
256
377
130
229
116
245
311
120
187
148
264
137
271
373
58
220
227
278
151
13
376
22
115
289
101
288
214
257
334
221
189
43
73
369
64
300
70
366
105
286
233
47
150
343
106
174
90
323
96
135
383
185
30
308
37
306
315
192
316
149
40
163
349
266
161
234
333
67
34
143
107
324
26
318
370
367
236
360
275
198
283
117
179
248
364
258
303
242
362
344
292
88
42
197
6
336
351
85
86
212
350
20
138
59
100
121
294
66
4
304
200
46
190
102
203
92
327
145
255
103
365
299
175
195
279
39
302
202
378
61
62
119
184
253
250
35
31
60
76
277
232
7
104
63
314
216
337
269
16
45
359
12
49
98
293
371
201
307
339
205
11
50
94
338
224
260
75
19
80
182
15
125
178
154
167
215
140
356
261
99
379
81
239
312
159
21
226
262
173
54
368
252
18
127
69
208
165
193
5
74
305
313
23
128
341
243
41
113
44
296
372
111
180
147
211
301
235
380
238
273
33
8
363
274
225
77
241
160
228
17
295
24
83
53
56
28
144
139
93
108
320
169
284
36
285
191
290
68
353
287
199
155
166
172
310
237
87
136
291
95
48
97
298
171
281
207
164
210
123
297
222
32
71
322
29
354
177
251
268
112
78
51
82
153
132
331
176
270
114
72
321
152
357
342
65
358
374
217
55
109
188
246
194

>  <PUBCHEM_MMFF94_PARTIAL_CHARGES>  (1) 
31
1 -0.43
10 -0.14
11 0.28
12 -0.15
13 -0.15
14 -0.15
15 -0.15
16 -0.15
17 0.63
18 0.09
19 -0.15
2 -0.57
20 -0.15
21 -0.15
22 -0.15
23 -0.15
3 -0.81
39 0.15
4 0.27
40 0.15
41 0.15
42 0.15
43 0.15
44 0.15
45 0.15
46 0.15
47 0.15
48 0.15
6 0.27
7 0.14
9 0.27

>  <PUBCHEM_EFFECTIVE_ROTOR_COUNT>  (1) 
10

>  <PUBCHEM_PHARMACOPHORE_FEATURES>  (1) 
4
1 2 acceptor
1 3 cation
6 10 12 13 14 15 16 rings
6 18 19 20 21 22 23 rings

>  <PUBCHEM_HEAVY_ATOM_COUNT>  (1) 
23

>  <PUBCHEM_ATOM_DEF_STEREO_COUNT>  (1) 
0

>  <PUBCHEM_ATOM_UDEF_STEREO_COUNT>  (1) 
0

>  <PUBCHEM_BOND_DEF_STEREO_COUNT>  (1) 
0

>  <PUBCHEM_BOND_UDEF_STEREO_COUNT>  (1) 
0

>  <PUBCHEM_ISOTOPIC_ATOM_COUNT>  (1) 
0

>  <PUBCHEM_COMPONENT_COUNT>  (1) 
1

>  <PUBCHEM_CACTVS_TAUTO_COUNT>  (1) 
1

>  <PUBCHEM_CONFORMER_ID>  (1) 
0000BF3B00000001

>  <PUBCHEM_MMFF94_ENERGY>  (1) 
49.9553

>  <PUBCHEM_FEATURE_SELFOVERLAP>  (1) 
20.297

>  <PUBCHEM_SHAPE_FINGERPRINT>  (1) 
10616163 171 18410295843391596481
1100329 8 18265896852255537955
11578080 2 17604134953325466863
12156800 1 16528701706283685684
12422481 6 18195498464862353498
12592029 89 18337964505576235569
12633257 1 18051135796291239873
12788726 201 17908147929213614988
13122387 1 17618504281161391657
13140716 1 18340208467005884185
14117953 113 17041196836264485357
14251751 93 18340488983962580237
14251757 17 17345217621220264756
14251757 5 17543369592628746068
16752209 62 18195523916147796329
17492 54 17975719211494643588
19930381 70 16324276308238845078
20691752 17 17894352159372207023
20905425 154 18342465819700801021
3052486 1 18409172138582216452
3298306 158 18410571808146948717
338550 245 18335706048421089188
35225 105 18052271879069851149
392239 28 18116447023067829043
474 4 18189894390949384942
57091435 65 18411418397502695058

>  <PUBCHEM_SHAPE_MULTIPOLES>  (1) 
456.61
7.49
4.6
1.41
5.19
0.28
-0.16
-2.65
0.36
-2.15
0.18
-0.55
0.5
-0.93

>  <PUBCHEM_SHAPE_SELFOVERLAP>  (1) 
942.052

>  <PUBCHEM_SHAPE_VOLUME>  (1) 
261.7

>  <PUBCHEM_COORDINATE_TYPE>  (1) 
2
5
10

$$$$
