48965
     RDKit          3D

 19 19  0  0  0  0  0  0  0  0999 V2000
   -3.1639    2.6798    0.7244 S   0  0  0  0  0  0  0  0  0  0  0  0
    0.2799   -1.2563    0.5927 O   0  0  0  0  0  0  0  0  0  0  0  0
   -0.4410   -2.7086   -1.0414 O   0  0  0  0  0  0  0  0  0  0  0  0
    3.2190    0.4693   -0.0405 N   0  0  0  0  0  0  0  0  0  0  0  0
    2.6181    0.3164    1.2789 C   0  0  0  0  0  0  0  0  0  0  0  0
    2.4446   -1.1616    1.6136 C   0  0  0  0  0  0  0  0  0  0  0  0
    4.5335   -0.1738   -0.0861 C   0  0  0  0  0  0  0  0  0  0  0  0
    3.3344    1.8853   -0.3938 C   0  0  0  0  0  0  0  0  0  0  0  0
    1.5633   -1.8663    0.5913 C   0  0  0  0  0  0  0  0  0  0  0  0
    5.1429   -0.0797   -1.4746 C   0  0  0  0  0  0  0  0  0  0  0  0
    1.9804    2.5734   -0.3529 C   0  0  0  0  0  0  0  0  0  0  0  0
   -0.6316   -1.7770   -0.2751 C   0  0  0  0  0  0  0  0  0  0  0  0
   -1.9249   -1.0544   -0.1774 C   0  0  0  0  0  0  0  0  0  0  0  0
   -1.9199    0.2786    0.1789 C   0  0  0  0  0  0  0  0  0  0  0  0
   -3.0921   -1.7386   -0.4484 C   0  0  0  0  0  0  0  0  0  0  0  0
   -3.1352    0.9572    0.2681 C   0  0  0  0  0  0  0  0  0  0  0  0
   -4.3075   -1.0601   -0.3591 C   0  0  0  0  0  0  0  0  0  0  0  0
   -4.3290    0.2879   -0.0008 C   0  0  0  0  0  0  0  0  0  0  0  0
   -2.1710    3.4284   -0.5978 C   0  0  0  0  0  0  0  0  0  0  0  0
  1 16  1  0
  1 19  1  0
  2  9  1  0
  2 12  1  0
  3 12  2  0
  4  5  1  0
  4  7  1  0
  4  8  1  0
  5  6  1  0
  6  9  1  0
  7 10  1  0
  8 11  1  0
 12 13  1  0
 13 14  2  0
 13 15  1  0
 14 16  1  0
 15 17  2  0
 16 18  2  0
 17 18  1  0
M  END
>  <PUBCHEM_COMPOUND_CID>  (1) 
48965

>  <PUBCHEM_CONFORMER_RMSD>  (1) 
1

>  <PUBCHEM_CONFORMER_DIVERSEORDER>  (1) 
1
655
80
402
242
186
350
82
150
188
3
279
496
44
624
260
537
12
157
226
317
455
111
230
621
245
125
181
233
56
141
129
46
696
481
134
198
143
29
9
248
659
459
38
73
408
19
54
133
668
673
255
398
658
683
182
638
110
200
196
10
319
47
164
288
677
560
121
30
462
5
59
269
469
114
167
358
20
2
680
151
212
240
4
524
184
16
273
51
147
663
642
290
92
104
7
70
622
178
27
119
6
187
48
231
361
489
610
372
367
486
418
96
667
383
568
62
26
442
107
555
17
175
296
201
11
55
23
241
511
234
370
291
83
57
36
431
18
32
583
69
280
173
329
63
102
313
192
259
39
136
43
89

>  <PUBCHEM_MMFF94_PARTIAL_CHARGES>  (1) 
20
1 -0.33
12 0.63
13 0.09
14 -0.15
15 -0.15
16 0.1
17 -0.15
18 -0.15
19 0.23
2 -0.43
3 -0.57
36 0.15
37 0.15
38 0.15
39 0.15
4 -0.81
5 0.27
7 0.27
8 0.27
9 0.28

>  <PUBCHEM_EFFECTIVE_ROTOR_COUNT>  (1) 
9

>  <PUBCHEM_PHARMACOPHORE_FEATURES>  (1) 
4
1 19 hydrophobe
1 3 acceptor
1 4 cation
6 13 14 15 16 17 18 rings

>  <PUBCHEM_HEAVY_ATOM_COUNT>  (1) 
19

>  <PUBCHEM_ATOM_DEF_STEREO_COUNT>  (1) 
0

>  <PUBCHEM_ATOM_UDEF_STEREO_COUNT>  (1) 
0

>  <PUBCHEM_BOND_DEF_STEREO_COUNT>  (1) 
0

>  <PUBCHEM_BOND_UDEF_STEREO_COUNT>  (1) 
0

>  <PUBCHEM_ISOTOPIC_ATOM_COUNT>  (1) 
0

>  <PUBCHEM_COMPONENT_COUNT>  (1) 
1

>  <PUBCHEM_CACTVS_TAUTO_COUNT>  (1) 
1

>  <PUBCHEM_CONFORMER_ID>  (1) 
0000BF4500000001

>  <PUBCHEM_MMFF94_ENERGY>  (1) 
39.7631

>  <PUBCHEM_FEATURE_SELFOVERLAP>  (1) 
20.297

>  <PUBCHEM_SHAPE_FINGERPRINT>  (1) 
10366900 7 17675925421244457616
10498660 4 18410004451213820045
10616163 171 18410012104961833017
10670039 82 18410858733236262956
12100795 323 17609773102275682093
12173636 292 18272075111413982007
13583140 156 17171240604036420513
14251751 93 18341896259914199436
14251757 17 17700997465045045564
14787075 74 17825383248649015507
14957384 54 17463396219176577041
15183329 4 18339370678238496822
17834072 32 18194682562615185729
20621476 13 16823328594621151125
21652331 79 18409164437341604281
21864079 5 18409725188050217496
221357 26 18343304790270386812
23366157 5 18048597019474625539
23598291 2 18115858625279769042
2637199 183 18335146401381797554
4409770 3 16387600906772084730
474 4 17749950106309646900
7097593 13 17609759917058132915
7832392 63 18337950211972546706

>  <PUBCHEM_SHAPE_MULTIPOLES>  (1) 
378.14
9.66
3.4
1.13
4.63
2.07
0.15
1.74
-1.7
-2.03
-0.48
1
-0.16
-1.03

>  <PUBCHEM_SHAPE_SELFOVERLAP>  (1) 
741.988

>  <PUBCHEM_SHAPE_VOLUME>  (1) 
229.5

>  <PUBCHEM_COORDINATE_TYPE>  (1) 
2
5
10

$$$$
