48975
     RDKit          3D

 18 18  0  0  0  0  0  0  0  0999 V2000
   -0.3869    0.0886    0.0523 O   0  0  0  0  0  0  0  0  0  0  0  0
    3.1098   -1.7857   -0.9282 O   0  0  0  0  0  0  0  0  0  0  0  0
    0.5754   -1.9929    0.0839 O   0  0  0  0  0  0  0  0  0  0  0  0
   -4.0615    0.0213   -0.2287 N   0  0  0  0  0  0  0  0  0  0  0  0
   -2.7202    0.5911   -0.1052 C   0  0  0  0  0  0  0  0  0  0  0  0
   -5.0615    1.0842   -0.3235 C   0  0  0  0  0  0  0  0  0  0  0  0
   -4.3517   -0.8537    0.9065 C   0  0  0  0  0  0  0  0  0  0  0  0
   -1.6726   -0.5094   -0.0501 C   0  0  0  0  0  0  0  0  0  0  0  0
   -4.7755    2.0039   -1.4985 C   0  0  0  0  0  0  0  0  0  0  0  0
   -5.7180   -1.5028    0.7642 C   0  0  0  0  0  0  0  0  0  0  0  0
    1.9451   -0.0398    0.2173 C   0  0  0  0  0  0  0  0  0  0  0  0
    0.6814   -0.7711    0.1133 C   0  0  0  0  0  0  0  0  0  0  0  0
    3.1190   -0.5710   -0.3073 C   0  0  0  0  0  0  0  0  0  0  0  0
    4.3119    0.1437   -0.1966 C   0  0  0  0  0  0  0  0  0  0  0  0
    1.9513    1.1987    0.8513 C   0  0  0  0  0  0  0  0  0  0  0  0
    4.3243    1.3858    0.4381 C   0  0  0  0  0  0  0  0  0  0  0  0
    3.1440    1.9132    0.9620 C   0  0  0  0  0  0  0  0  0  0  0  0
    5.5857   -0.4041   -0.7506 C   0  0  0  0  0  0  0  0  0  0  0  0
  1  8  1  0
  1 12  1  0
  2 13  1  0
  3 12  2  0
  4  5  1  0
  4  6  1  0
  4  7  1  0
  5  8  1  0
  6  9  1  0
  7 10  1  0
 11 12  1  0
 11 13  2  0
 11 15  1  0
 13 14  1  0
 14 16  2  0
 14 18  1  0
 15 17  2  0
 16 17  1  0
M  END
>  <PUBCHEM_COMPOUND_CID>  (1) 
48975

>  <PUBCHEM_CONFORMER_RMSD>  (1) 
0.8

>  <PUBCHEM_CONFORMER_DIVERSEORDER>  (1) 
1
112
49
139
107
90
80
105
88
6
64
126
60
71
70
106
95
15
46
5
89
128
99
29
113
116
114
44
4
117
48
145
11
108
61
47
100
51
84
83
3
85
121
26
43
36
62
91
133
125
120
129
93
94
58
138
66
69
23
81
55
53
101
32
12
137
136
98
73
39
75
19
35
27
76
13
78
92
132
140
9
77
57
143
25
63
119
16
68
130
86
59
118
79
8
28
123
14
134
144
50
20
122
142
109
102
82
150
40
131
41
65
7
10
74
54
115
96
127
31
2
111
56
38
24
18
97
30
72
141
104
45
149
52
110
17
87
148
42
124
147
103
22
67
135
34
37
21
146
33

>  <PUBCHEM_MMFF94_PARTIAL_CHARGES>  (1) 
20
1 -0.43
11 0.09
12 0.63
13 0.08
14 -0.14
15 -0.15
16 -0.15
17 -0.15
18 0.14
2 -0.53
3 -0.57
33 0.15
34 0.15
35 0.15
39 0.45
4 -0.81
5 0.27
6 0.27
7 0.27
8 0.28

>  <PUBCHEM_EFFECTIVE_ROTOR_COUNT>  (1) 
7

>  <PUBCHEM_PHARMACOPHORE_FEATURES>  (1) 
4
1 2 donor
1 3 acceptor
1 4 cation
6 11 13 14 15 16 17 rings

>  <PUBCHEM_HEAVY_ATOM_COUNT>  (1) 
18

>  <PUBCHEM_ATOM_DEF_STEREO_COUNT>  (1) 
0

>  <PUBCHEM_ATOM_UDEF_STEREO_COUNT>  (1) 
0

>  <PUBCHEM_BOND_DEF_STEREO_COUNT>  (1) 
0

>  <PUBCHEM_BOND_UDEF_STEREO_COUNT>  (1) 
0

>  <PUBCHEM_ISOTOPIC_ATOM_COUNT>  (1) 
0

>  <PUBCHEM_COMPONENT_COUNT>  (1) 
1

>  <PUBCHEM_CACTVS_TAUTO_COUNT>  (1) 
4

>  <PUBCHEM_CONFORMER_ID>  (1) 
0000BF4F00000001

>  <PUBCHEM_MMFF94_ENERGY>  (1) 
42.0049

>  <PUBCHEM_FEATURE_SELFOVERLAP>  (1) 
20.297

>  <PUBCHEM_SHAPE_FINGERPRINT>  (1) 
10366900 7 15936690445191538625
10912923 1 15864068784439925705
11287383 113 18411140263852330563
11471102 20 18130788971404587520
11595378 159 15719948013065107525
12403259 415 18410009957435818105
12596602 18 14634876323031229989
12616971 3 16558754537605293257
12730499 353 18341620342904841906
13081056 2 18412544344443350161
13675066 3 18409448111383774965
13760787 5 17132114654143750673
1420 363 18334862753193859275
15081414 286 18201721812034264488
17834072 33 17989201581708764719
17844677 252 18334863835309489165
18186145 218 18202559605175304906
19433438 28 18335701667580535241
19489759 90 17603301566529629241
200 152 17203895149681547786
20645477 70 17989495104005729534
21033648 29 18339911693292894457
21065201 7 17894910707332296763
21267235 1 18060150825456035910
21709351 56 18408880754809771613
221357 26 18130220463157408301
22289505 5 18342734070948220812
23402539 116 17385721396288765639
23402655 69 18131347501203723460
23557571 272 18114186328545002685
23559900 14 18114181865478266182
2916195 48 18336259145529609984
29717793 49 16630529509794418732
3060560 45 17775286050149498054
3545911 37 18343023323683098699
4072396 5 18271794702348686258
495365 180 17560227137665138656
5104073 3 18334293128834607515
5281201 14 18411704287553019509
542803 24 16588024610604162053
6442390 28 18187363250836772034
90127 26 18187368756942517873

>  <PUBCHEM_SHAPE_MULTIPOLES>  (1) 
347.84
13.98
1.9
1.01
8.95
0.22
0.08
1.21
1.22
0.71
0.1
0.29
0.25
2.5

>  <PUBCHEM_SHAPE_SELFOVERLAP>  (1) 
704.303

>  <PUBCHEM_SHAPE_VOLUME>  (1) 
205

>  <PUBCHEM_COORDINATE_TYPE>  (1) 
2
5
10

$$$$
