48993
     RDKit          3D

 20 21  0  0  1  0  0  0  0  0999 V2000
    1.4062   -2.0043   -1.1520 S   0  0  0  0  0  0  0  0  0  0  0  0
    0.7649    1.2876    0.2143 O   0  0  0  0  0  0  0  0  0  0  0  0
    1.6334    1.5638   -1.8902 O   0  0  0  0  0  0  0  0  0  0  0  0
   -2.5215    0.1941    0.3874 N   0  0  0  0  0  0  0  0  0  0  0  0
   -2.8406   -1.2228    0.6476 C   0  0  0  0  0  0  0  0  0  0  0  0
   -3.4935   -1.8442   -0.6020 C   0  0  0  0  0  0  0  0  0  0  0  0
   -3.6876    0.9906   -0.0106 C   0  0  0  0  0  0  0  0  0  0  0  0
   -4.7122   -1.0584   -1.0765 C   0  0  0  0  0  0  0  0  0  0  0  0
   -4.3571    0.4120   -1.2573 C   0  0  0  0  0  0  0  0  0  0  0  0
   -1.8012    0.8309    1.4864 C   0  0  0  0  0  0  0  0  0  0  0  0
   -3.6920   -1.4832    1.9000 C   0  0  0  0  0  0  0  0  0  0  0  0
   -1.2832    2.1998    1.0569 C   0  0  0  0  0  0  0  0  0  0  0  0
   -0.3500    2.0933   -0.1416 C   0  0  0  0  0  0  0  0  0  0  0  0
    1.7101    1.0893   -0.7616 C   0  0  0  0  0  0  0  0  0  0  0  0
    2.8042    0.2463   -0.2773 C   0  0  0  0  0  0  0  0  0  0  0  0
    2.7793   -1.1406   -0.3966 C   0  0  0  0  0  0  0  0  0  0  0  0
    3.8911    0.8820    0.3173 C   0  0  0  0  0  0  0  0  0  0  0  0
    3.8491   -1.8973    0.0819 C   0  0  0  0  0  0  0  0  0  0  0  0
    4.9607    0.1253    0.7958 C   0  0  0  0  0  0  0  0  0  0  0  0
    4.9397   -1.2643    0.6782 C   0  0  0  0  0  0  0  0  0  0  0  0
  1 16  1  0
  2 13  1  0
  2 14  1  0
  3 14  2  0
  4  5  1  0
  4  7  1  0
  4 10  1  0
  5  6  1  0
  5 11  1  0
  6  8  1  0
  7  9  1  0
  8  9  1  0
 10 12  1  0
 12 13  1  0
 14 15  1  0
 15 16  2  0
 15 17  1  0
 16 18  1  0
 17 19  2  0
 18 20  2  0
 19 20  1  0
M  END
>  <PUBCHEM_COMPOUND_CID>  (1) 
48993

>  <PUBCHEM_CONFORMER_RMSD>  (1) 
1

>  <PUBCHEM_CONFORMER_DIVERSEORDER>  (1) 
1
158
217
233
621
13
777
33
447
539
420
787
765
118
18
722
197
163
421
616
480
416
287
689
83
448
510
29
193
161
601
250
40
805
506
561
63
483
477
707
14
515
794
157
493
86
12
588
195
790
497
263
128
9
71
99
76
570
682
181
784
314
762
10
170
144
175
53
312
487
4
459
306
773
363
454
768
66
271
756
240
403
65
27
726
25
49
494
609
103
438
79
412
746
209
694
252
362
657
529
404
5
417
327
801
434
156
738
61
470
571
455
36
196
714
24
388
344
109
6
20
2
75
332
383
445
116
100
598
21
42
22
167
549
338
479
173
817
19
111
321
585
311
138
105
147
45
159
73
200
218
80
670
562
723
328
640
69
3
7
31
121
11
44
526
15
246
90
408
370
58
796
30
780
503
35
545
473
655
155
8
178
525
519
123
248
169
575
702
16
352
398
50
614
277
46
267
43
782
298
814

>  <PUBCHEM_MMFF94_PARTIAL_CHARGES>  (1) 
20
1 -0.28
10 0.27
13 0.28
14 0.63
15 0.09
16 0.1
17 -0.15
18 -0.15
19 -0.15
2 -0.43
20 -0.15
3 -0.57
39 0.15
4 -0.81
40 0.15
41 0.15
42 0.15
43 0.18
5 0.27
7 0.27

>  <PUBCHEM_EFFECTIVE_ROTOR_COUNT>  (1) 
7.2

>  <PUBCHEM_PHARMACOPHORE_FEATURES>  (1) 
4
1 3 acceptor
1 4 cation
6 15 16 17 18 19 20 rings
6 4 5 6 7 8 9 rings

>  <PUBCHEM_HEAVY_ATOM_COUNT>  (1) 
20

>  <PUBCHEM_ATOM_DEF_STEREO_COUNT>  (1) 
0

>  <PUBCHEM_ATOM_UDEF_STEREO_COUNT>  (1) 
1

>  <PUBCHEM_BOND_DEF_STEREO_COUNT>  (1) 
0

>  <PUBCHEM_BOND_UDEF_STEREO_COUNT>  (1) 
0

>  <PUBCHEM_ISOTOPIC_ATOM_COUNT>  (1) 
0

>  <PUBCHEM_COMPONENT_COUNT>  (1) 
1

>  <PUBCHEM_CACTVS_TAUTO_COUNT>  (1) 
4

>  <PUBCHEM_CONFORMER_ID>  (1) 
0000BF6100000001

>  <PUBCHEM_MMFF94_ENERGY>  (1) 
39.5831

>  <PUBCHEM_FEATURE_SELFOVERLAP>  (1) 
20.297

>  <PUBCHEM_SHAPE_FINGERPRINT>  (1) 
10366900 7 17775564247617677746
10447042 23 18272358798029513204
12363563 72 18040729060114858680
12553582 1 18128839566984052997
12596602 18 16271919454198667539
12633257 1 16917351445731138738
13224815 77 18059863856467112878
13544653 18 18412826893151289832
13583140 156 17559943343190271520
14178342 30 18127708049186446344
14251751 18 17676775382804711491
14251764 30 16517960547923984579
14289901 80 14405194975396638261
14341114 328 16630531743161264026
14787075 74 17346311669902906416
15163728 17 13192633838754851014
15342168 16 11026058176518940459
15352361 1 18412822499468233239
15880784 105 17060337405363833150
17349148 13 18409450275714859266
17834072 14 18408602552297349208
18186145 218 15647333086859299885
192875 21 18334859424071705404
200 152 18343295972707711917
20261772 1 17989200465144095806
20511986 3 18268972263519052557
20626108 58 18188764058556827432
21069387 34 17603594053233034536
21250096 35 18343016709618066121
21315759 227 17895201055305883107
21673915 165 18272366447751590270
23559900 14 18340476850638200208
24859131 72 18343018848585574198
339767 52 18340474621380919898
392239 28 17774994726633286850
439807 62 18196639921489713815
463206 1 18199743829465539439
469060 322 15122637268940469709
4921388 177 16805609209130472667
5161694 15 16370447769289896493
5283173 99 18263067830486713053
5924683 9 18130221558458166345
6442390 28 12895064159023142076
9709674 26 18199474259604753982
9882013 296 16271926012697955532

>  <PUBCHEM_SHAPE_MULTIPOLES>  (1) 
398.72
10.97
2.44
1.47
1.91
0.02
0.1
-4.19
0.82
-0.2
-0.08
-1.02
-0.06
-0.16

>  <PUBCHEM_SHAPE_SELFOVERLAP>  (1) 
806.91

>  <PUBCHEM_SHAPE_VOLUME>  (1) 
234.3

>  <PUBCHEM_COORDINATE_TYPE>  (1) 
2
5
10

$$$$
