48991
     RDKit          3D

 21 22  0  0  0  0  0  0  0  0999 V2000
   -2.3434   -0.5261    0.0281 O   0  0  0  0  0  0  0  0  0  0  0  0
   -3.8026   -2.2419   -0.4475 O   0  0  0  0  0  0  0  0  0  0  0  0
    2.4867   -0.7695    0.3611 N   0  0  0  0  0  0  0  0  0  0  0  0
    5.1542    0.2816   -0.2511 C   0  0  0  0  0  0  0  0  0  0  0  0
    4.9308   -0.8748    0.7293 C   0  0  0  0  0  0  0  0  0  0  0  0
    3.8918    1.1470   -0.3271 C   0  0  0  0  0  0  0  0  0  0  0  0
    6.3675    1.1154    0.1511 C   0  0  0  0  0  0  0  0  0  0  0  0
    3.6589   -1.6545    0.3894 C   0  0  0  0  0  0  0  0  0  0  0  0
    2.6540    0.3005   -0.6315 C   0  0  0  0  0  0  0  0  0  0  0  0
    1.2722   -1.5371    0.0862 C   0  0  0  0  0  0  0  0  0  0  0  0
    6.5954    2.2493   -0.8465 C   0  0  0  0  0  0  0  0  0  0  0  0
    7.6122    0.2368    0.2579 C   0  0  0  0  0  0  0  0  0  0  0  0
    0.0447   -0.6362    0.1763 C   0  0  0  0  0  0  0  0  0  0  0  0
   -1.2388   -1.4130   -0.0839 C   0  0  0  0  0  0  0  0  0  0  0  0
   -3.5736   -1.0729   -0.1785 C   0  0  0  0  0  0  0  0  0  0  0  0
   -4.6372   -0.0468   -0.0349 C   0  0  0  0  0  0  0  0  0  0  0  0
   -5.7979   -0.1824   -0.7686 C   0  0  0  0  0  0  0  0  0  0  0  0
   -4.4320    1.0101    0.8281 C   0  0  0  0  0  0  0  0  0  0  0  0
   -6.7973    0.7813   -0.6336 C   0  0  0  0  0  0  0  0  0  0  0  0
   -5.4315    1.9738    0.9632 C   0  0  0  0  0  0  0  0  0  0  0  0
   -6.6141    1.8593    0.2322 C   0  0  0  0  0  0  0  0  0  0  0  0
  1 14  1  0
  1 15  1  0
  2 15  2  0
  3  8  1  0
  3  9  1  0
  3 10  1  0
  4  5  1  0
  4  6  1  0
  4  7  1  0
  5  8  1  0
  6  9  1  0
  7 11  1  0
  7 12  1  0
 10 13  1  0
 13 14  1  0
 15 16  1  0
 16 17  2  0
 16 18  1  0
 17 19  1  0
 18 20  2  0
 19 21  2  0
 20 21  1  0
M  END
>  <PUBCHEM_COMPOUND_CID>  (1) 
48991

>  <PUBCHEM_CONFORMER_RMSD>  (1) 
1

>  <PUBCHEM_CONFORMER_DIVERSEORDER>  (1) 
1
93
85
29
91
41
55
74
62
28
71
38
89
86
31
58
6
64
60
11
88
49
78
61
40
48
19
99
42
52
46
47
83
25
18
45
96
63
68
82
67
92
39
26
43
77
15
5
90
14
10
30
54
17
84
33
3
100
101
73
87
20
72
32
53
2
69
16
8
13
44
22
97
35
50
23
9
59
98
95
57
34
79
51
27
7
12
65
37
94
81
4
75
70
80
21
36
56
76
24
66

>  <PUBCHEM_MMFF94_PARTIAL_CHARGES>  (1) 
19
1 -0.43
10 0.27
14 0.28
15 0.63
16 0.09
17 -0.15
18 -0.15
19 -0.15
2 -0.57
20 -0.15
21 -0.15
3 -0.81
44 0.15
45 0.15
46 0.15
47 0.15
48 0.15
8 0.27
9 0.27

>  <PUBCHEM_EFFECTIVE_ROTOR_COUNT>  (1) 
8.2

>  <PUBCHEM_PHARMACOPHORE_FEATURES>  (1) 
5
1 2 acceptor
1 3 cation
3 7 11 12 hydrophobe
6 16 17 18 19 20 21 rings
6 3 4 5 6 8 9 rings

>  <PUBCHEM_HEAVY_ATOM_COUNT>  (1) 
21

>  <PUBCHEM_ATOM_DEF_STEREO_COUNT>  (1) 
0

>  <PUBCHEM_ATOM_UDEF_STEREO_COUNT>  (1) 
0

>  <PUBCHEM_BOND_DEF_STEREO_COUNT>  (1) 
0

>  <PUBCHEM_BOND_UDEF_STEREO_COUNT>  (1) 
0

>  <PUBCHEM_ISOTOPIC_ATOM_COUNT>  (1) 
0

>  <PUBCHEM_COMPONENT_COUNT>  (1) 
1

>  <PUBCHEM_CACTVS_TAUTO_COUNT>  (1) 
1

>  <PUBCHEM_CONFORMER_ID>  (1) 
0000BF5F00000001

>  <PUBCHEM_MMFF94_ENERGY>  (1) 
41.7131

>  <PUBCHEM_FEATURE_SELFOVERLAP>  (1) 
25.371

>  <PUBCHEM_SHAPE_FINGERPRINT>  (1) 
10 15 16153712033122825212
10411042 1 17837486720414888511
10554248 39 18269824329233473871
10595046 47 18411978074855151551
10730089 173 18202002118821353681
10906281 52 17895489115215992118
11089746 13 18272086123488472332
11315181 36 18335420188815239791
11646440 116 15647052668649889508
117890 112 18411138034875183978
12236239 1 18410290306883326723
12596602 18 17967253092051145395
12616971 3 14634876382960259818
13167372 99 18409729543579591768
13288520 33 9223230746165166707
13668630 136 13254790248885142573
13685833 64 8790887384828307254
13785724 45 17905604403138689266
14123256 34 8790887397528670768
14251764 18 18333448763696536719
14556957 393 15123240977826926505
14729087 3 18341890796805326632
14933364 13 18410013238611393106
15048467 5 18410292505879779691
15183329 4 18344145886511375793
15348495 7 15719687536088359433
15461852 350 17846494868260198895
15716309 27 8935002572756437615
1577012 14 18413105031444729115
15778101 99 18411421721881533763
17780758 139 12612749108637457191
19427546 20 18342172324076441431
20281389 69 18114179705457531781
20526848 3 18409451392559538428
20621476 66 18411141328861704027
21150785 3 16415757539811604581
21298829 104 18411704253494448561
21774942 28 17917437475898343512
22224240 67 16660362588976799811
22288116 15 17703216425897644383
23081809 10 18411972572769923766
300161 21 18409165510793602611
328310 630 18260551159807255421
397830 11 14418711331982469756
4073 2 18113623425594239450
4340502 62 15646767895433688322
445580 37 18131077038549572513
465052 167 8142080979161986834
5104073 3 17894912944588707154
543368 44 18411699877359896201
59682541 52 17560816398857384006
6328613 192 18410857676463558216
7062679 6 18413392020906279217

>  <PUBCHEM_SHAPE_MULTIPOLES>  (1) 
415.45
23.27
2.11
0.85
3
0.23
0.02
12.91
-0.64
-0.29
0
-0.26
0.17
-1.84

>  <PUBCHEM_SHAPE_SELFOVERLAP>  (1) 
846.152

>  <PUBCHEM_SHAPE_VOLUME>  (1) 
241

>  <PUBCHEM_COORDINATE_TYPE>  (1) 
2
5
10

$$$$
