490
     RDKit          3D

  7  6  0  0  0  0  0  0  0  0999 V2000
   -0.8286    0.1117   -0.0668 P   0  0  0  0  0  0  0  0  0  0  0  0
   -0.7010    0.5061    1.4903 O   0  0  0  0  0  0  0  0  0  0  0  0
   -2.1685   -0.7811   -0.1304 O   0  0  0  0  0  0  0  0  0  0  0  0
   -0.7519    1.2432   -1.0351 O   0  0  0  0  0  0  0  0  0  0  0  0
    2.1144    0.6059    0.1213 O   0  0  0  0  0  0  0  0  0  0  0  0
    0.4734   -1.1137   -0.2724 C   0  0  0  0  0  0  0  0  0  0  0  0
    1.8622   -0.5723   -0.1070 C   0  0  0  0  0  0  0  0  0  0  0  0
  1  2  1  0
  1  3  1  0
  1  4  2  0
  1  6  1  0
  5  7  2  0
  6  7  1  0
M  END
>  <PUBCHEM_COMPOUND_CID>  (1) 
490

>  <PUBCHEM_CONFORMER_RMSD>  (1) 
0.4

>  <PUBCHEM_CONFORMER_DIVERSEORDER>  (1) 
1
2
3

>  <PUBCHEM_MMFF94_PARTIAL_CHARGES>  (1) 
10
1 1.24
10 0.06
11 0.5
12 0.5
2 -0.77
3 -0.77
4 -0.7
5 -0.57
6 0.06
7 0.45

>  <PUBCHEM_EFFECTIVE_ROTOR_COUNT>  (1) 
2

>  <PUBCHEM_PHARMACOPHORE_FEATURES>  (1) 
5
1 2 acceptor
1 3 acceptor
1 4 acceptor
1 5 acceptor
4 1 2 3 4 anion

>  <PUBCHEM_HEAVY_ATOM_COUNT>  (1) 
7

>  <PUBCHEM_ATOM_DEF_STEREO_COUNT>  (1) 
0

>  <PUBCHEM_ATOM_UDEF_STEREO_COUNT>  (1) 
0

>  <PUBCHEM_BOND_DEF_STEREO_COUNT>  (1) 
0

>  <PUBCHEM_BOND_UDEF_STEREO_COUNT>  (1) 
0

>  <PUBCHEM_ISOTOPIC_ATOM_COUNT>  (1) 
0

>  <PUBCHEM_COMPONENT_COUNT>  (1) 
1

>  <PUBCHEM_CACTVS_TAUTO_COUNT>  (1) 
2

>  <PUBCHEM_CONFORMER_ID>  (1) 
000001EA00000001

>  <PUBCHEM_MMFF94_ENERGY>  (1) 
-27.2471

>  <PUBCHEM_FEATURE_SELFOVERLAP>  (1) 
25.409

>  <PUBCHEM_SHAPE_FINGERPRINT>  (1) 
16714656 1 18337668719235815798
20096714 4 17773890696357081850
21040471 1 17609769799534722292
24536 1 17630602319460916606
29004967 10 18113907103751444259
5084963 1 18411420596642131342
5943 1 14403182967907252745

>  <PUBCHEM_SHAPE_MULTIPOLES>  (1) 
124.43
2.53
1.15
0.98
0.6
0.05
-0.18
0.2
0.02
-0.06
0.14
-0.31
-0.31
0.07

>  <PUBCHEM_SHAPE_SELFOVERLAP>  (1) 
214.037

>  <PUBCHEM_SHAPE_VOLUME>  (1) 
82.6

>  <PUBCHEM_COORDINATE_TYPE>  (1) 
2
5
10

$$$$
