49009
     RDKit          3D

 18 19  0  0  1  0  0  0  0  0999 V2000
   -0.8789    0.3720   -0.0805 O   0  0  0  0  0  0  0  0  0  0  0  0
   -2.0419    2.3470   -0.0010 O   0  0  0  0  0  0  0  0  0  0  0  0
    2.7671    0.8725   -0.2310 N   0  0  0  0  0  0  0  0  0  0  0  0
    3.9128   -0.0185   -0.2710 C   0  0  0  0  0  0  0  0  0  0  0  0
    5.2408    0.7291   -0.2781 C   0  0  0  0  0  0  0  0  0  0  0  0
    4.0317   -0.8823    0.9787 C   0  0  0  0  0  0  0  0  0  0  0  0
    6.2555   -0.3360    0.1291 C   0  0  0  0  0  0  0  0  0  0  0  0
    5.4760   -1.3745    0.9404 C   0  0  0  0  0  0  0  0  0  0  0  0
    1.5181    0.1207   -0.2146 C   0  0  0  0  0  0  0  0  0  0  0  0
    0.3432    1.0968   -0.1422 C   0  0  0  0  0  0  0  0  0  0  0  0
    1.4322   -0.7815   -1.4460 C   0  0  0  0  0  0  0  0  0  0  0  0
   -2.0271    1.1205   -0.0113 C   0  0  0  0  0  0  0  0  0  0  0  0
   -3.2137    0.2656    0.0483 C   0  0  0  0  0  0  0  0  0  0  0  0
   -4.3473    0.7082    0.7201 C   0  0  0  0  0  0  0  0  0  0  0  0
   -3.1956   -0.9805   -0.5678 C   0  0  0  0  0  0  0  0  0  0  0  0
   -5.4783   -0.1063    0.7768 C   0  0  0  0  0  0  0  0  0  0  0  0
   -4.3266   -1.7950   -0.5112 C   0  0  0  0  0  0  0  0  0  0  0  0
   -5.4679   -1.3578    0.1612 C   0  0  0  0  0  0  0  0  0  0  0  0
  1 10  1  0
  1 12  1  0
  2 12  2  0
  3  4  1  0
  3  9  1  0
  4  5  1  0
  4  6  1  0
  5  7  1  0
  6  8  1  0
  7  8  1  0
  9 10  1  0
  9 11  1  0
 12 13  1  0
 13 14  2  0
 13 15  1  0
 14 16  1  0
 15 17  2  0
 16 18  2  0
 17 18  1  0
M  END
>  <PUBCHEM_COMPOUND_CID>  (1) 
49009

>  <PUBCHEM_CONFORMER_RMSD>  (1) 
0.8

>  <PUBCHEM_CONFORMER_DIVERSEORDER>  (1) 
1
70
61
18
19
76
84
57
54
47
46
82
89
40
28
66
58
59
64
90
20
44
50
17
24
62
7
67
78
39
74
56
52
43
31
72
71
45
11
6
34
88
86
80
8
3
60
12
55
51
79
37
41
68
27
2
32
9
69
14
36
83
73
15
77
33
25
35
26
4
49
81
38
65
53
85
21
42
16
29
10
63
13
22
30
23
48
87
75
5

>  <PUBCHEM_MMFF94_PARTIAL_CHARGES>  (1) 
19
1 -0.43
10 0.28
12 0.63
13 0.09
14 -0.15
15 -0.15
16 -0.15
17 -0.15
18 -0.15
2 -0.57
28 0.36
3 -0.9
35 0.15
36 0.15
37 0.15
38 0.15
39 0.15
4 0.27
9 0.27

>  <PUBCHEM_EFFECTIVE_ROTOR_COUNT>  (1) 
7

>  <PUBCHEM_PHARMACOPHORE_FEATURES>  (1) 
5
1 2 acceptor
1 3 cation
1 3 donor
5 4 5 6 7 8 rings
6 13 14 15 16 17 18 rings

>  <PUBCHEM_HEAVY_ATOM_COUNT>  (1) 
18

>  <PUBCHEM_ATOM_DEF_STEREO_COUNT>  (1) 
0

>  <PUBCHEM_ATOM_UDEF_STEREO_COUNT>  (1) 
1

>  <PUBCHEM_BOND_DEF_STEREO_COUNT>  (1) 
0

>  <PUBCHEM_BOND_UDEF_STEREO_COUNT>  (1) 
0

>  <PUBCHEM_ISOTOPIC_ATOM_COUNT>  (1) 
0

>  <PUBCHEM_COMPONENT_COUNT>  (1) 
1

>  <PUBCHEM_CACTVS_TAUTO_COUNT>  (1) 
1

>  <PUBCHEM_CONFORMER_ID>  (1) 
0000BF7100000001

>  <PUBCHEM_MMFF94_ENERGY>  (1) 
33.9712

>  <PUBCHEM_FEATURE_SELFOVERLAP>  (1) 
25.371

>  <PUBCHEM_SHAPE_FINGERPRINT>  (1) 
100836 57 10303815392895165391
10354089 29 14189576347259278618
10912923 1 18334017168675389264
11089746 13 9007055751773921370
11315181 36 18272654571453667921
11524674 6 16702020885419343967
12107183 9 17614557039203228104
12236239 1 18113901554463774204
12596602 18 18131068242946921042
12670543 26 11819267837511538840
12839892 36 18272081669750220726
13167823 11 18334010567104641106
13288520 33 18408604773296588165
13533116 47 18113617876891469058
13551218 46 18410293566863977971
13668630 136 16515689939530663538
13862211 1 18411135870417518631
1420 363 18410859862796811286
14251732 16 18341893047737578424
14251752 14 17749098964462276797
14251764 75 15551037962120856168
14341114 176 18412829079680001024
14573314 32 12757143559117201834
14848160 23 16950563289791204498
15183329 4 9007063474140839994
15348495 7 16558459889832244282
15716309 27 18409449189146246698
15788980 27 17822009800333440069
17349148 13 17821733818746540378
17834072 33 18259984877565723932
17834072 8 12612754618547728142
17844677 252 18408326579359069172
17857418 61 18334855017551460234
17870717 6 13767927901656830851
1813 80 18041009431290269189
18222031 100 17312818286652369636
18785283 64 17273400880553794688
18927931 339 18410298003965549991
19489759 90 12107785207261460239
200 152 17676205771166752165
20374829 77 18411418436537104687
20645477 70 14779817227470400184
21150785 3 15140970569066636846
220451 1 18335426763803508486
22061861 79 15213294206063262850
22079108 93 15554441920416907590
221357 26 12829488168798200319
22224240 67 16558747932008941287
22646028 1 18260546723237744508
2297311 6 18131361795103018860
23035841 295 18413673500267731890
23402539 116 18334010588421339053
23466295 7 16808154677544597355
23522609 53 18120686653599375044
23557571 272 17774738458229454724
23559900 14 18042122222915089505
26918003 58 17918275350781341609
2767999 5 10231756677929068450
29717793 49 16660364770714554518
32948 21 8070027766259628510
351380 3 18333447651141868514
4214541 1 18409448050916992909
465052 167 18411421709360453526
474229 33 18343301478834978958
49783359 22 18410572881350286795
5104073 3 18201162160614973233
559249 180 18408319978610883499
57483677 66 18260828185498273984
59682541 52 13479671145383445083
633830 44 12823003228022224644
67856867 119 18336832012452098860
7062679 6 9871753511236763554
7495541 125 18201997759461288016

>  <PUBCHEM_SHAPE_MULTIPOLES>  (1) 
353.71
15.97
1.62
0.95
7.03
0.15
-0.04
-5.24
3.4
-1.16
-0.02
0.29
-0.24
-1

>  <PUBCHEM_SHAPE_SELFOVERLAP>  (1) 
729.117

>  <PUBCHEM_SHAPE_VOLUME>  (1) 
204.1

>  <PUBCHEM_COORDINATE_TYPE>  (1) 
2
5
10

$$$$
