49016
     RDKit          3D

 17 17  0  0  1  0  0  0  0  0999 V2000
    2.1653   -0.8452    0.2736 O   0  0  0  0  0  0  0  0  0  0  0  0
    4.9767   -0.7676    0.5184 O   0  0  0  0  0  0  0  0  0  0  0  0
    6.3634    1.2759   -0.7422 O   0  0  0  0  0  0  0  0  0  0  0  0
   -3.8388    0.7950   -0.0693 O   0  0  0  0  0  0  0  0  0  0  0  0
   -4.1887   -1.4707   -0.1330 O   0  0  0  0  0  0  0  0  0  0  0  0
    4.2717    0.2087   -0.2517 C   0  0  0  0  0  0  0  0  0  0  0  0
    2.8780    0.3856    0.3401 C   0  0  0  0  0  0  0  0  0  0  0  0
    5.0658    1.5076   -0.2041 C   0  0  0  0  0  0  0  0  0  0  0  0
    0.8009   -0.7628    0.1893 C   0  0  0  0  0  0  0  0  0  0  0  0
   -1.9703   -0.5973    0.0201 C   0  0  0  0  0  0  0  0  0  0  0  0
    0.0907   -1.7550   -0.4781 C   0  0  0  0  0  0  0  0  0  0  0  0
    0.1381    0.3114    0.7731 C   0  0  0  0  0  0  0  0  0  0  0  0
   -1.2990   -1.6718   -0.5630 C   0  0  0  0  0  0  0  0  0  0  0  0
   -1.2518    0.3944    0.6882 C   0  0  0  0  0  0  0  0  0  0  0  0
   -3.4194   -0.5106   -0.0680 C   0  0  0  0  0  0  0  0  0  0  0  0
   -5.2529    1.0071   -0.1521 C   0  0  0  0  0  0  0  0  0  0  0  0
   -5.5296    2.4954   -0.1413 C   0  0  0  0  0  0  0  0  0  0  0  0
  1  7  1  0
  1  9  1  0
  2  6  1  0
  3  8  1  0
  4 15  1  0
  4 16  1  0
  5 15  2  0
  6  7  1  0
  6  8  1  0
  9 11  2  0
  9 12  1  0
 10 13  2  0
 10 14  1  0
 10 15  1  0
 11 13  1  0
 12 14  2  0
 16 17  1  0
M  END
>  <PUBCHEM_COMPOUND_CID>  (1) 
49016

>  <PUBCHEM_CONFORMER_RMSD>  (1) 
0.8

>  <PUBCHEM_CONFORMER_DIVERSEORDER>  (1) 
1
128
87
116
21
121
19
105
31
56
30
44
109
2
58
114
39
85
80
14
67
120
101
88
129
113
12
104
96
18
71
89
86
22
10
43
70
7
112
77
115
75
66
4
107
5
65
110
60
125
118
3
62
51
83
106
15
97
47
29
95
124
33
17
130
122
49
26
64
103
53
25
61
55
36
24
48
81
20
117
108
119
91
100
123
92
32
90
34
23
76
11
78
13
6
73
45
57
84
42
16
28
99
111
40
72
132
127
98
59
46
38
8
94
102
54
52
63
131
74
50
35
82
9
79
93
41
69
27
126
68
37

>  <PUBCHEM_MMFF94_PARTIAL_CHARGES>  (1) 
22
1 -0.36
10 0.09
11 -0.15
12 -0.15
13 -0.15
14 -0.15
15 0.63
16 0.28
2 -0.68
23 0.15
24 0.15
25 0.15
26 0.15
27 0.4
28 0.4
3 -0.68
4 -0.43
5 -0.57
6 0.28
7 0.28
8 0.28
9 0.08

>  <PUBCHEM_EFFECTIVE_ROTOR_COUNT>  (1) 
7

>  <PUBCHEM_PHARMACOPHORE_FEATURES>  (1) 
7
1 1 acceptor
1 2 acceptor
1 2 donor
1 3 acceptor
1 3 donor
1 5 acceptor
6 9 10 11 12 13 14 rings

>  <PUBCHEM_HEAVY_ATOM_COUNT>  (1) 
17

>  <PUBCHEM_ATOM_DEF_STEREO_COUNT>  (1) 
0

>  <PUBCHEM_ATOM_UDEF_STEREO_COUNT>  (1) 
1

>  <PUBCHEM_BOND_DEF_STEREO_COUNT>  (1) 
0

>  <PUBCHEM_BOND_UDEF_STEREO_COUNT>  (1) 
0

>  <PUBCHEM_ISOTOPIC_ATOM_COUNT>  (1) 
0

>  <PUBCHEM_COMPONENT_COUNT>  (1) 
1

>  <PUBCHEM_CACTVS_TAUTO_COUNT>  (1) 
1

>  <PUBCHEM_CONFORMER_ID>  (1) 
0000BF7800000001

>  <PUBCHEM_MMFF94_ENERGY>  (1) 
47.1994

>  <PUBCHEM_FEATURE_SELFOVERLAP>  (1) 
35.534

>  <PUBCHEM_SHAPE_FINGERPRINT>  (1) 
10014705 185 18410575080774313073
100836 57 18409169900292162765
10912923 1 17895182329221643858
117890 112 18335420162396823388
12236239 1 18334292085305396306
12403259 415 18059850714162534769
12670543 26 17846783970660976844
13167372 99 18334011658095263264
13760787 19 18335977606297350907
14251752 14 18341613698816963412
14911166 2 17632573859762950195
15048467 5 18335420153828026861
15196674 1 18411698794289672354
15501527 16 18410577279897964361
15778101 99 18410296900143130349
17834072 8 17704072906083641408
17959699 21 18338516447433888568
187816 3 17132117948098843211
18785283 64 14274320162287917070
200 152 14261363465816273322
20281389 69 18113898226238971557
20526848 3 18260272962397350884
20621476 21 14044869669732061517
20621476 66 18410578349350459561
20871999 31 18200304541229004183
212847 35 18411415107932331712
21304253 335 18261117369709744596
21637258 2 11815894522594099388
22224240 67 15430038760367911825
23402539 116 18131062744819062942
23402655 69 18273211988919324190
23559900 14 18059012774897458582
270888 7 18336826378035177069
2838139 119 18335410223832230741
293599 30 18341895182035442601
3004659 81 18412827959258091094
3759504 43 18336546105053294659
49783359 22 9367345937924125205
5104073 3 18040991865058495490
542803 24 18113897182614198402
5718773 13 8934412118556204585
633830 44 18260543424835230186
7062679 6 18335143072413170485
76465 3 9006762195275798629
8272917 22 18187925015611484490

>  <PUBCHEM_SHAPE_MULTIPOLES>  (1) 
320.51
13.61
1.94
0.75
6.98
0.4
0.02
9.37
-2.15
-1.68
-0.34
0.21
0.01
-0.42

>  <PUBCHEM_SHAPE_SELFOVERLAP>  (1) 
650.309

>  <PUBCHEM_SHAPE_VOLUME>  (1) 
187

>  <PUBCHEM_COORDINATE_TYPE>  (1) 
2
5
10

$$$$
