49017
     RDKit          3D

 16 16  0  0  1  0  0  0  0  0999 V2000
   -1.4617    0.1940    0.6370 O   0  0  0  0  0  0  0  0  0  0  0  0
   -4.1023    1.0927    1.0726 O   0  0  0  0  0  0  0  0  0  0  0  0
   -5.9761    0.7330   -0.9392 O   0  0  0  0  0  0  0  0  0  0  0  0
    4.4393    0.0594   -0.3257 O   0  0  0  0  0  0  0  0  0  0  0  0
    3.2786    2.0144    0.0339 O   0  0  0  0  0  0  0  0  0  0  0  0
   -3.7209    0.4804   -0.1616 C   0  0  0  0  0  0  0  0  0  0  0  0
   -2.5865   -0.5013    0.1091 C   0  0  0  0  0  0  0  0  0  0  0  0
   -4.9434   -0.2253   -0.7336 C   0  0  0  0  0  0  0  0  0  0  0  0
   -0.2298   -0.3514    0.3910 C   0  0  0  0  0  0  0  0  0  0  0  0
    0.8821    0.4772    0.2849 C   0  0  0  0  0  0  0  0  0  0  0  0
    2.1364   -0.0785    0.0332 C   0  0  0  0  0  0  0  0  0  0  0  0
   -0.1024   -1.7289    0.2482 C   0  0  0  0  0  0  0  0  0  0  0  0
    2.2714   -1.4594   -0.1109 C   0  0  0  0  0  0  0  0  0  0  0  0
    1.1520   -2.2845   -0.0034 C   0  0  0  0  0  0  0  0  0  0  0  0
    3.3038    0.7817   -0.0793 C   0  0  0  0  0  0  0  0  0  0  0  0
    5.6595    0.7966   -0.4562 C   0  0  0  0  0  0  0  0  0  0  0  0
  1  7  1  0
  1  9  1  0
  2  6  1  0
  3  8  1  0
  4 15  1  0
  4 16  1  0
  5 15  2  0
  6  7  1  0
  6  8  1  0
  9 10  2  0
  9 12  1  0
 10 11  1  0
 11 13  2  0
 11 15  1  0
 12 14  2  0
 13 14  1  0
M  END
>  <PUBCHEM_COMPOUND_CID>  (1) 
49017

>  <PUBCHEM_CONFORMER_RMSD>  (1) 
0.8

>  <PUBCHEM_CONFORMER_DIVERSEORDER>  (1) 
3
28
32
82
100
67
8
75
24
17
93
91
45
98
37
64
10
79
89
50
35
62
97
22
90
29
87
84
99
4
96
46
31
21
61
52
65
51
86
39
77
80
49
36
18
9
47
92
72
54
76
83
63
1
68
59
40
69
81
73
19
33
11
43
85
70
60
41
30
57
34
44
20
74
58
13
94
26
2
66
56
53
14
27
7
71
78
38
55
12
95
16
23
42
15
25
48
6
88
5

>  <PUBCHEM_MMFF94_PARTIAL_CHARGES>  (1) 
22
1 -0.36
10 -0.15
11 0.09
12 -0.15
13 -0.15
14 -0.15
15 0.63
16 0.28
2 -0.68
22 0.15
23 0.15
24 0.15
25 0.15
26 0.4
27 0.4
3 -0.68
4 -0.43
5 -0.57
6 0.28
7 0.28
8 0.28
9 0.08

>  <PUBCHEM_EFFECTIVE_ROTOR_COUNT>  (1) 
6

>  <PUBCHEM_PHARMACOPHORE_FEATURES>  (1) 
7
1 1 acceptor
1 2 acceptor
1 2 donor
1 3 acceptor
1 3 donor
1 5 acceptor
6 9 10 11 12 13 14 rings

>  <PUBCHEM_HEAVY_ATOM_COUNT>  (1) 
16

>  <PUBCHEM_ATOM_DEF_STEREO_COUNT>  (1) 
0

>  <PUBCHEM_ATOM_UDEF_STEREO_COUNT>  (1) 
1

>  <PUBCHEM_BOND_DEF_STEREO_COUNT>  (1) 
0

>  <PUBCHEM_BOND_UDEF_STEREO_COUNT>  (1) 
0

>  <PUBCHEM_ISOTOPIC_ATOM_COUNT>  (1) 
0

>  <PUBCHEM_COMPONENT_COUNT>  (1) 
1

>  <PUBCHEM_CACTVS_TAUTO_COUNT>  (1) 
1

>  <PUBCHEM_CONFORMER_ID>  (1) 
0000BF7900000003

>  <PUBCHEM_MMFF94_ENERGY>  (1) 
49.4622

>  <PUBCHEM_FEATURE_SELFOVERLAP>  (1) 
35.534

>  <PUBCHEM_SHAPE_FINGERPRINT>  (1) 
10693767 8 17988362547158548350
11471102 20 18410575059167783114
11796584 16 14261084120716145756
12236239 1 17775004566002434505
12251169 10 11025798703783890131
12596602 18 13984671368607143660
12730499 353 18334581230919903739
13380535 76 18411423929637298226
14528608 73 18413385458185721149
14897335 6 18411700997544916538
14911166 2 18343588464634148404
15501527 24 18130783486451613389
17834072 33 18343858927351798071
17834072 8 18412834586265807846
18186145 218 18412269414901651535
187816 3 17846503651193869274
200 152 17703793617197551945
20279233 1 17385729067411657699
20612939 158 18338517434859563766
20621476 21 14691996059958415357
20645477 56 17894911828545484159
20645477 70 18340486651753478487
21054139 6 18201145650534301575
21521239 73 17846500314163030054
21524375 3 18409731785389178314
21637258 2 14261351323648231356
231179 274 17894908520787741446
23402539 116 18272367603129201228
23402655 69 18342452613288139559
23532345 1 18335139765609690107
23557571 272 17385735711725986595
23559900 14 18130793417133653816
25 1 18410856564251482426
26918003 58 9655573024589532061
29717793 49 17703224006314279263
3060560 45 18413392029728420246
3071541 37 18335144163783191358
33382 64 14405198256661897892
335352 9 18410295818428544174
3545911 37 18335422383216480411
366044 4 18409450310449449458
4072396 5 18335406955836436906
42 15 8790879696921334319
4325135 7 18335419110815722879
4463277 17 9079117761122801074
474 4 18334860536494725729
4990 188 17632584850679154318
57096353 35 18060133233106357261
58051976 378 18342178855776881079
81539 233 18186522090113466066
8863177 126 12031203183501091021

>  <PUBCHEM_SHAPE_MULTIPOLES>  (1) 
299.93
11.6
1.72
0.79
6.79
0.66
0.01
-5.73
-3.21
-1.14
0.05
0.58
-0.09
-0.14

>  <PUBCHEM_SHAPE_SELFOVERLAP>  (1) 
612.617

>  <PUBCHEM_SHAPE_VOLUME>  (1) 
174.5

>  <PUBCHEM_COORDINATE_TYPE>  (1) 
2
5
10

$$$$
