49019
     RDKit          3D

 24 25  0  0  1  0  0  0  0  0999 V2000
    1.1776    0.7668    0.1097 O   0  0  0  0  0  0  0  0  0  0  0  0
   -3.2690   -0.9072   -1.9398 O   0  0  0  0  0  0  0  0  0  0  0  0
   -4.6460   -1.4521    0.4117 O   0  0  0  0  0  0  0  0  0  0  0  0
    0.7763   -0.7061    1.8325 O   0  0  0  0  0  0  0  0  0  0  0  0
    1.2326    3.6225   -0.2837 N   0  0  0  0  0  0  0  0  0  0  0  0
    0.1020    1.5946    0.5503 C   0  0  0  0  0  0  0  0  0  0  0  0
   -0.0042    2.8435   -0.3334 C   0  0  0  0  0  0  0  0  0  0  0  0
   -1.1707    0.7774    0.5099 C   0  0  0  0  0  0  0  0  0  0  0  0
   -1.6347    0.3095   -0.7074 C   0  0  0  0  0  0  0  0  0  0  0  0
   -1.8437    0.5159    1.6908 C   0  0  0  0  0  0  0  0  0  0  0  0
   -2.8084   -0.4434   -0.7448 C   0  0  0  0  0  0  0  0  0  0  0  0
    1.1553    4.7631   -1.1958 C   0  0  0  0  0  0  0  0  0  0  0  0
    1.4961    4.0764    1.0813 C   0  0  0  0  0  0  0  0  0  0  0  0
   -3.0172   -0.2370    1.6534 C   0  0  0  0  0  0  0  0  0  0  0  0
   -3.4995   -0.7167    0.4356 C   0  0  0  0  0  0  0  0  0  0  0  0
    1.4031   -0.3536    0.8455 C   0  0  0  0  0  0  0  0  0  0  0  0
    2.5432   -1.1236    0.2870 C   0  0  0  0  0  0  0  0  0  0  0  0
    3.3211   -1.8775    1.1417 C   0  0  0  0  0  0  0  0  0  0  0  0
    2.7891   -1.0618   -1.0694 C   0  0  0  0  0  0  0  0  0  0  0  0
   -2.5038   -0.5837   -3.0993 C   0  0  0  0  0  0  0  0  0  0  0  0
    4.3920   -2.6011    0.6171 C   0  0  0  0  0  0  0  0  0  0  0  0
    3.8600   -1.7855   -1.5939 C   0  0  0  0  0  0  0  0  0  0  0  0
   -4.5127   -2.8652    0.5517 C   0  0  0  0  0  0  0  0  0  0  0  0
    4.6614   -2.5552   -0.7506 C   0  0  0  0  0  0  0  0  0  0  0  0
  1  6  1  0
  1 16  1  0
  2 11  1  0
  2 20  1  0
  3 15  1  0
  3 23  1  0
  4 16  2  0
  5  7  1  0
  5 12  1  0
  5 13  1  0
  6  7  1  0
  6  8  1  0
  8  9  2  0
  8 10  1  0
  9 11  1  0
 10 14  2  0
 11 15  2  0
 14 15  1  0
 16 17  1  0
 17 18  2  0
 17 19  1  0
 18 21  1  0
 19 22  2  0
 21 24  2  0
 22 24  1  0
M  END
>  <PUBCHEM_COMPOUND_CID>  (1) 
49019

>  <PUBCHEM_CONFORMER_RMSD>  (1) 
0.8

>  <PUBCHEM_CONFORMER_DIVERSEORDER>  (1) 
1
14
125
86
41
130
140
49
116
157
126
136
77
142
139
150
70
143
95
114
50
156
162
177
158
112
170
106
175
147
155
25
104
149
65
117
29
178
121
75
124
109
59
81
13
58
17
113
84
61
54
102
66
33
93
141
118
152
44
98
80
115
144
154
60
166
43
82
123
76
148
169
174
107
100
52
173
137
31
153
10
128
159
90
9
51
67
38
101
40
83
105
131
164
7
138
122
127
146
26
91
171
96
23
39
85
94
87
133
30
165
172
32
134
176
88
11
56
48
103
36
145
99
34
63
120
108
21
168
64
151
53
27
35
6
97
71
42
4
5
28
92
47
22
167
129
62
45
55
24
8
73
20
72
111
18
68
37
89
15
74
12
132
19
16
163
79
3
160
119
69
78
135
2
110
46
161
57

>  <PUBCHEM_MMFF94_PARTIAL_CHARGES>  (1) 
32
1 -0.43
10 -0.15
11 0.08
12 0.27
13 0.27
14 -0.15
15 0.08
16 0.63
17 0.09
18 -0.15
19 -0.15
2 -0.36
20 0.28
21 -0.15
22 -0.15
23 0.28
24 -0.15
28 0.15
29 0.15
3 -0.36
36 0.15
37 0.15
38 0.15
4 -0.57
42 0.15
43 0.15
47 0.15
5 -0.81
6 0.42
7 0.27
8 -0.14
9 -0.15

>  <PUBCHEM_EFFECTIVE_ROTOR_COUNT>  (1) 
8

>  <PUBCHEM_PHARMACOPHORE_FEATURES>  (1) 
6
1 2 acceptor
1 3 acceptor
1 4 acceptor
1 5 cation
6 17 18 19 21 22 24 rings
6 8 9 10 11 14 15 rings

>  <PUBCHEM_HEAVY_ATOM_COUNT>  (1) 
24

>  <PUBCHEM_ATOM_DEF_STEREO_COUNT>  (1) 
0

>  <PUBCHEM_ATOM_UDEF_STEREO_COUNT>  (1) 
1

>  <PUBCHEM_BOND_DEF_STEREO_COUNT>  (1) 
0

>  <PUBCHEM_BOND_UDEF_STEREO_COUNT>  (1) 
0

>  <PUBCHEM_ISOTOPIC_ATOM_COUNT>  (1) 
0

>  <PUBCHEM_COMPONENT_COUNT>  (1) 
1

>  <PUBCHEM_CACTVS_TAUTO_COUNT>  (1) 
1

>  <PUBCHEM_CONFORMER_ID>  (1) 
0000BF7B00000001

>  <PUBCHEM_MMFF94_ENERGY>  (1) 
93.4658

>  <PUBCHEM_FEATURE_SELFOVERLAP>  (1) 
30.451

>  <PUBCHEM_SHAPE_FINGERPRINT>  (1) 
11045515 52 18187371982489408764
11101153 10 18335714793818269524
11477941 20 18195545709903568628
11552529 35 14188701139982545534
11578080 2 17822282509482847549
12160290 23 17693922008635774680
12363563 72 18409728422234723690
12553582 1 18337677399470443554
12714826 92 17913489039369110538
12788726 201 17686603667804799729
13009979 54 17916885559288124827
133893 2 18268143334873473381
13583140 156 17411024290477080234
13681431 1 18337658802267508288
13911987 19 17825700956180396796
14863182 85 16459152231550488507
17980427 26 17473598870759276521
1813 80 18343589516379039542
18915476 22 18046331196612999605
20361792 2 18412540981409876875
20671657 53 18409165502261326899
20693207 138 17895470440445319187
21304303 282 17106186838600338156
21344244 246 18122360218429746188
23557571 272 18053932966926164768
23559900 14 18340766035565880371
23566358 27 18195252345687274359
23598288 3 17829638091880124016
463206 1 18186804651670015339
59755656 520 17331680657276826492
6669772 16 17835252512348858796
6786 2 17398684879035797516
7970288 3 18411706452191137163
81228 2 18051400769524149008

>  <PUBCHEM_SHAPE_MULTIPOLES>  (1) 
465.45
8.37
4.81
2.01
1.17
7.87
-1.14
-11.36
-0.66
2.9
-0.46
-1.09
-0.41
0.13

>  <PUBCHEM_SHAPE_SELFOVERLAP>  (1) 
980.646

>  <PUBCHEM_SHAPE_VOLUME>  (1) 
263

>  <PUBCHEM_COORDINATE_TYPE>  (1) 
2
5
10

$$$$
