49023
     RDKit          3D

 26 27  0  0  0  0  0  0  0  0999 V2000
    1.0280    1.7083    0.0427 O   0  0  0  0  0  0  0  0  0  0  0  0
    0.5377    2.8899   -1.8711 O   0  0  0  0  0  0  0  0  0  0  0  0
   -4.6775   -0.6646   -0.8888 O   0  0  0  0  0  0  0  0  0  0  0  0
    3.6975   -0.5579    0.7930 N   0  0  0  0  0  0  0  0  0  0  0  0
    4.2827   -2.9672   -0.7715 C   0  0  0  0  0  0  0  0  0  0  0  0
    4.0084   -1.6087   -1.4252 C   0  0  0  0  0  0  0  0  0  0  0  0
    4.8168   -2.7596    0.6497 C   0  0  0  0  0  0  0  0  0  0  0  0
    2.8557    0.3186    1.6070 C   0  0  0  0  0  0  0  0  0  0  0  0
    3.1126   -0.7370   -0.5426 C   0  0  0  0  0  0  0  0  0  0  0  0
    3.8938   -1.8502    1.4635 C   0  0  0  0  0  0  0  0  0  0  0  0
    3.0910    1.8323    1.3519 C   0  0  0  0  0  0  0  0  0  0  0  0
    5.2564   -3.7921   -1.6085 C   0  0  0  0  0  0  0  0  0  0  0  0
    2.3017    2.3355    0.1222 C   0  0  0  0  0  0  0  0  0  0  0  0
    2.6237    2.5988    2.6072 C   0  0  0  0  0  0  0  0  0  0  0  0
    4.5870    2.1280    1.1342 C   0  0  0  0  0  0  0  0  0  0  0  0
    0.2439    2.0784   -1.0070 C   0  0  0  0  0  0  0  0  0  0  0  0
   -1.0531    1.3564   -0.9751 C   0  0  0  0  0  0  0  0  0  0  0  0
   -2.0068    1.5921   -1.9654 C   0  0  0  0  0  0  0  0  0  0  0  0
   -1.3177    0.4420    0.0445 C   0  0  0  0  0  0  0  0  0  0  0  0
   -3.2251    0.9135   -1.9361 C   0  0  0  0  0  0  0  0  0  0  0  0
   -2.5360   -0.2365    0.0739 C   0  0  0  0  0  0  0  0  0  0  0  0
   -3.4896   -0.0008   -0.9164 C   0  0  0  0  0  0  0  0  0  0  0  0
   -6.7030   -1.0758    0.3296 C   0  0  0  0  0  0  0  0  0  0  0  0
   -5.1825   -1.0390    0.3920 C   0  0  0  0  0  0  0  0  0  0  0  0
   -7.3132   -1.4554    1.6757 C   0  0  0  0  0  0  0  0  0  0  0  0
   -8.8324   -1.4489    1.6204 C   0  0  0  0  0  0  0  0  0  0  0  0
  1 13  1  0
  1 16  1  0
  2 16  2  0
  3 22  1  0
  3 24  1  0
  4  8  1  0
  4  9  1  0
  4 10  1  0
  5  6  1  0
  5  7  1  0
  5 12  1  0
  6  9  1  0
  7 10  1  0
  8 11  1  0
 11 13  1  0
 11 14  1  0
 11 15  1  0
 16 17  1  0
 17 18  2  0
 17 19  1  0
 18 20  1  0
 19 21  2  0
 20 22  2  0
 21 22  1  0
 23 24  1  0
 23 25  1  0
 25 26  1  0
M  END
>  <PUBCHEM_COMPOUND_CID>  (1) 
49023

>  <PUBCHEM_CONFORMER_RMSD>  (1) 
1

>  <PUBCHEM_CONFORMER_DIVERSEORDER>  (1) 
1
76
98
97
64
19
27
50
105
53
67
6
79
60
37
31
107
87
92
34
36
101
58
52
61
93
74
12
80
86
59
47
66
108
26
106
90
82
32
81
57
83
75
33
29
13
104
96
5
10
94
78
21
89
18
45
7
68
56
72
84
71
77
22
70
69
95
9
49
88
48
35
25
39
24
54
55
100
85
46
102
99
4
65
40
30
91
14
44
11
51
38
17
15
8
73
23
103
42
16
43
2
63
20
28
41
3
62

>  <PUBCHEM_MMFF94_PARTIAL_CHARGES>  (1) 
20
1 -0.43
10 0.27
13 0.28
16 0.63
17 0.09
18 -0.15
19 -0.15
2 -0.57
20 -0.15
21 -0.15
22 0.08
24 0.28
3 -0.36
4 -0.81
49 0.15
50 0.15
51 0.15
52 0.15
8 0.27
9 0.27

>  <PUBCHEM_EFFECTIVE_ROTOR_COUNT>  (1) 
11.2

>  <PUBCHEM_PHARMACOPHORE_FEATURES>  (1) 
7
1 2 acceptor
1 26 hydrophobe
1 3 acceptor
1 4 cation
3 11 14 15 hydrophobe
6 17 18 19 20 21 22 rings
6 4 5 6 7 9 10 rings

>  <PUBCHEM_HEAVY_ATOM_COUNT>  (1) 
26

>  <PUBCHEM_ATOM_DEF_STEREO_COUNT>  (1) 
0

>  <PUBCHEM_ATOM_UDEF_STEREO_COUNT>  (1) 
0

>  <PUBCHEM_BOND_DEF_STEREO_COUNT>  (1) 
0

>  <PUBCHEM_BOND_UDEF_STEREO_COUNT>  (1) 
0

>  <PUBCHEM_ISOTOPIC_ATOM_COUNT>  (1) 
0

>  <PUBCHEM_COMPONENT_COUNT>  (1) 
1

>  <PUBCHEM_CACTVS_TAUTO_COUNT>  (1) 
1

>  <PUBCHEM_CONFORMER_ID>  (1) 
0000BF7F00000001

>  <PUBCHEM_MMFF94_ENERGY>  (1) 
63.9358

>  <PUBCHEM_FEATURE_SELFOVERLAP>  (1) 
35.52

>  <PUBCHEM_SHAPE_FINGERPRINT>  (1) 
10316853 100 17604149328554977179
10692045 39 18202010906820592795
10883706 89 18129676188707493689
10928967 22 18260822653407122715
10981352 41 18335416915892437491
12047536 79 18060144224044381681
12342043 65 18336543833083478485
12363563 72 17984972710123301806
12422481 6 18342458166976811527
12623949 98 18412543223630946470
12661589 4 17169002251844674707
12778500 126 17203619206411951760
13533116 47 18273216426037318203
13673619 4 18338242569779454023
13782708 43 18186801414129083055
14251740 57 18408886252130585239
14347424 109 18060422413264940425
1768 124 18191305077970206899
1813 80 17167857582661593429
1979834 28 18337945817915457312
20397935 70 18339365261920473027
20578428 11 15937545942737095509
20715895 44 11743840257351251395
21365058 27 18055065721896646028
21421861 104 17418374709769532656
21521721 280 18058156419139009576
21796203 349 17916850345653364714
21814621 53 18412823578407404249
22182313 1 18189593034684950357
2260408 40 18409731798295653433
22864921 267 18340498811575747851
23559900 14 18115853119416740196
24893989 43 16953953252166337315
25222932 49 17459730696359140730
312425 54 18271811289385990715
46194498 28 18260545624253748276
5104073 3 18342173345903994625
5486654 36 17985545546674992736
6823239 73 18187070729325235744
7918774 8 17676496059948974611
86090 222 18040434412637411115
9980921 177 17630068000714435779

>  <PUBCHEM_SHAPE_MULTIPOLES>  (1) 
512.48
17.76
3.91
2.22
39.62
1.14
0.16
17.51
8.63
-7.64
-0.39
0.1
-0.76
4.61

>  <PUBCHEM_SHAPE_SELFOVERLAP>  (1) 
1034.847

>  <PUBCHEM_SHAPE_VOLUME>  (1) 
300.9

>  <PUBCHEM_COORDINATE_TYPE>  (1) 
2
5
10

$$$$
