49027
     RDKit          3D

 25 26  0  0  1  0  0  0  0  0999 V2000
   -1.3639   -1.4110    0.9548 O   0  0  0  0  0  0  0  0  0  0  0  0
    4.6821   -0.4688   -0.2596 O   0  0  0  0  0  0  0  0  0  0  0  0
   -1.1335   -3.1125   -0.5785 O   0  0  0  0  0  0  0  0  0  0  0  0
    0.8714   -2.4480   -2.3240 O   0  0  0  0  0  0  0  0  0  0  0  0
   -3.9535    0.8570    0.4482 N   0  0  0  0  0  0  0  0  0  0  0  0
   -3.4732    2.0358   -0.3092 C   0  0  0  0  0  0  0  0  0  0  0  0
   -4.2631    2.1846   -1.6252 C   0  0  0  0  0  0  0  0  0  0  0  0
   -5.3956    0.9596    0.7343 C   0  0  0  0  0  0  0  0  0  0  0  0
   -5.7648    2.2607   -1.3819 C   0  0  0  0  0  0  0  0  0  0  0  0
   -6.2209    1.0757   -0.5451 C   0  0  0  0  0  0  0  0  0  0  0  0
   -3.2269    0.6633    1.7063 C   0  0  0  0  0  0  0  0  0  0  0  0
   -1.9799    1.9485   -0.6555 C   0  0  0  0  0  0  0  0  0  0  0  0
   -3.3361   -0.7880    2.1628 C   0  0  0  0  0  0  0  0  0  0  0  0
   -2.7331   -1.7422    1.1407 C   0  0  0  0  0  0  0  0  0  0  0  0
   -0.6777   -2.1789    0.0634 C   0  0  0  0  0  0  0  0  0  0  0  0
    0.7351   -1.7337   -0.0378 C   0  0  0  0  0  0  0  0  0  0  0  0
    6.1618    1.4156   -0.1356 C   0  0  0  0  0  0  0  0  0  0  0  0
    1.4505   -1.8862   -1.2255 C   0  0  0  0  0  0  0  0  0  0  0  0
    5.0573    0.6352    0.5627 C   0  0  0  0  0  0  0  0  0  0  0  0
    1.3458   -1.1560    1.0752 C   0  0  0  0  0  0  0  0  0  0  0  0
    6.6245    2.6067    0.6987 C   0  0  0  0  0  0  0  0  0  0  0  0
    3.3877   -0.8834   -0.1871 C   0  0  0  0  0  0  0  0  0  0  0  0
    2.7768   -1.4610   -1.3001 C   0  0  0  0  0  0  0  0  0  0  0  0
    2.6722   -0.7309    1.0004 C   0  0  0  0  0  0  0  0  0  0  0  0
    7.7571    3.3578    0.0175 C   0  0  0  0  0  0  0  0  0  0  0  0
  1 14  1  0
  1 15  1  0
  2 19  1  0
  2 22  1  0
  3 15  2  0
  4 18  1  0
  5  6  1  0
  5  8  1  0
  5 11  1  0
  6  7  1  0
  6 12  1  0
  7  9  1  0
  8 10  1  0
  9 10  1  0
 11 13  1  0
 13 14  1  0
 15 16  1  0
 16 18  2  0
 16 20  1  0
 17 19  1  0
 17 21  1  0
 18 23  1  0
 20 24  2  0
 21 25  1  0
 22 23  2  0
 22 24  1  0
M  END
>  <PUBCHEM_COMPOUND_CID>  (1) 
49027

>  <PUBCHEM_CONFORMER_RMSD>  (1) 
1.2

>  <PUBCHEM_CONFORMER_DIVERSEORDER>  (1) 
8
61
102
47
54
143
58
108
39
27
11
81
128
120
119
20
76
88
150
125
118
85
94
141
48
43
14
149
17
50
30
144
133
49
96
126
121
73
135
37
132
123
69
19
129
100
28
34
74
113
92
4
89
78
111
10
142
67
84
5
83
35
139
146
114
62
70
32
45
26
109
124
44
97
2
112
103
7
46
79
52
29
131
15
138
53
151
148
41
38
3
1
134
24
115
25
147
51
145
127
21
60
86
116
90
12
117
18
63
59
64
31
99
137
101
77
80
140
95
65
87
93
130
91
105
104
71
23
75
16
42
9
98
82
66
122
107
68
106
136
22
55
56
57
110
33
40
72
6
36
13

>  <PUBCHEM_MMFF94_PARTIAL_CHARGES>  (1) 
21
1 -0.43
11 0.27
14 0.28
15 0.63
16 0.09
18 0.08
19 0.28
2 -0.36
20 -0.15
22 0.08
23 -0.15
24 -0.15
3 -0.57
4 -0.53
5 -0.81
50 0.15
51 0.15
52 0.15
56 0.45
6 0.27
8 0.27

>  <PUBCHEM_EFFECTIVE_ROTOR_COUNT>  (1) 
11.2

>  <PUBCHEM_PHARMACOPHORE_FEATURES>  (1) 
7
1 2 acceptor
1 25 hydrophobe
1 3 acceptor
1 4 donor
1 5 cation
6 16 18 20 22 23 24 rings
6 5 6 7 8 9 10 rings

>  <PUBCHEM_HEAVY_ATOM_COUNT>  (1) 
25

>  <PUBCHEM_ATOM_DEF_STEREO_COUNT>  (1) 
0

>  <PUBCHEM_ATOM_UDEF_STEREO_COUNT>  (1) 
1

>  <PUBCHEM_BOND_DEF_STEREO_COUNT>  (1) 
0

>  <PUBCHEM_BOND_UDEF_STEREO_COUNT>  (1) 
0

>  <PUBCHEM_ISOTOPIC_ATOM_COUNT>  (1) 
0

>  <PUBCHEM_COMPONENT_COUNT>  (1) 
1

>  <PUBCHEM_CACTVS_TAUTO_COUNT>  (1) 
4

>  <PUBCHEM_CONFORMER_ID>  (1) 
0000BF8300000008

>  <PUBCHEM_MMFF94_ENERGY>  (1) 
47.6037

>  <PUBCHEM_FEATURE_SELFOVERLAP>  (1) 
35.52

>  <PUBCHEM_SHAPE_FINGERPRINT>  (1) 
10498660 4 18263651667197890683
10554248 39 17632304445835291150
10928967 22 13253356417214251165
11112241 14 18339082571684724237
11374522 184 18341326795054552629
11796584 16 10591494849787592286
12422481 6 18041281062766751308
12633257 1 13768224769427260379
13103583 49 13840280177374248939
13257819 101 18412546522303005710
13402501 40 18334856078567053549
13911987 19 17917714608092840649
13941219 33 10809349931704294681
14251764 30 11167356445610989501
14647877 103 18041002877888054652
14739800 52 17895467034134996232
14904525 67 17898579928650118628
14951699 99 18041002860533845532
15350500 185 16951388972133118525
20501277 180 16740834522882497685
20511986 3 16950553330294814545
20715895 44 15866600784516579125
21033648 29 18041001721597040811
21095086 4 11311764120743912709
21302155 148 18262526995731206076
22956985 138 16602117352144600027
23379529 103 11455587920683407292
23559900 14 17099200606453545907
2838139 119 18410004404201074204
341906 21 17387149593458898727
4371632 12 16269650148272052968
445580 182 15140950742959255967
5104073 3 14707790513656369282
56633871 153 8934414347332761081
57307002 19 17822282453907112309
6327066 14 18411978078933451364
9981440 41 17168999876869646115
999808 66 8790893973466797992

>  <PUBCHEM_SHAPE_MULTIPOLES>  (1) 
486.03
17.25
3.72
1.69
17.8
0.78
-0.1
21.97
0.65
2.22
-1.08
-1.42
-0.55
2.88

>  <PUBCHEM_SHAPE_SELFOVERLAP>  (1) 
985.089

>  <PUBCHEM_SHAPE_VOLUME>  (1) 
283.4

>  <PUBCHEM_COORDINATE_TYPE>  (1) 
2
5
10

$$$$
