49031
     RDKit          3D

 24 25  0  0  1  0  0  0  0  0999 V2000
    0.9536    0.4688   -0.9442 O   0  0  0  0  0  0  0  0  0  0  0  0
    0.9899    2.1266    0.6526 O   0  0  0  0  0  0  0  0  0  0  0  0
   -5.2138    0.7609   -0.0157 O   0  0  0  0  0  0  0  0  0  0  0  0
    4.4400   -0.4531   -0.0558 N   0  0  0  0  0  0  0  0  0  0  0  0
    5.0237   -1.7001    0.4902 C   0  0  0  0  0  0  0  0  0  0  0  0
    6.5636   -1.6406    0.4318 C   0  0  0  0  0  0  0  0  0  0  0  0
    4.9273    0.7285    0.6778 C   0  0  0  0  0  0  0  0  0  0  0  0
    7.1132   -0.4148    1.1495 C   0  0  0  0  0  0  0  0  0  0  0  0
    6.4486    0.8456    0.6181 C   0  0  0  0  0  0  0  0  0  0  0  0
    2.9744   -0.4619   -0.0330 C   0  0  0  0  0  0  0  0  0  0  0  0
    4.5647   -2.9517   -0.2715 C   0  0  0  0  0  0  0  0  0  0  0  0
    2.3765    0.5182   -1.0452 C   0  0  0  0  0  0  0  0  0  0  0  0
    2.7477    0.1906   -2.4860 C   0  0  0  0  0  0  0  0  0  0  0  0
    0.3927    1.3297   -0.0544 C   0  0  0  0  0  0  0  0  0  0  0  0
   -1.0843    1.1789   -0.0436 C   0  0  0  0  0  0  0  0  0  0  0  0
   -1.8598    1.9705    0.8038 C   0  0  0  0  0  0  0  0  0  0  0  0
   -1.6966    0.2466   -0.8810 C   0  0  0  0  0  0  0  0  0  0  0  0
   -7.0670   -0.7053    0.3992 C   0  0  0  0  0  0  0  0  0  0  0  0
   -3.8597    0.8970   -0.0238 C   0  0  0  0  0  0  0  0  0  0  0  0
   -3.2474    1.8296    0.8137 C   0  0  0  0  0  0  0  0  0  0  0  0
   -3.0843    0.1056   -0.8712 C   0  0  0  0  0  0  0  0  0  0  0  0
   -5.7385   -0.5300   -0.3227 C   0  0  0  0  0  0  0  0  0  0  0  0
   -7.6796   -2.0761    0.1272 C   0  0  0  0  0  0  0  0  0  0  0  0
   -8.9848   -2.2634    0.8841 C   0  0  0  0  0  0  0  0  0  0  0  0
  1 12  1  0
  1 14  1  0
  2 14  2  0
  3 19  1  0
  3 22  1  0
  4  5  1  0
  4  7  1  0
  4 10  1  0
  5  6  1  0
  5 11  1  0
  6  8  1  0
  7  9  1  0
  8  9  1  0
 10 12  1  0
 12 13  1  0
 14 15  1  0
 15 16  2  0
 15 17  1  0
 16 20  1  0
 17 21  2  0
 18 22  1  0
 18 23  1  0
 19 20  2  0
 19 21  1  0
 23 24  1  0
M  END
>  <PUBCHEM_COMPOUND_CID>  (1) 
49031

>  <PUBCHEM_CONFORMER_RMSD>  (1) 
1

>  <PUBCHEM_CONFORMER_DIVERSEORDER>  (1) 
1
233
58
65
76
127
143
159
6
225
44
132
72
140
208
176
197
63
26
147
207
119
196
137
157
48
235
155
120
77
166
37
222
40
154
97
51
161
172
3
78
199
237
234
165
111
116
226
183
215
85
17
138
81
113
180
224
24
163
115
236
2
91
156
50
221
192
164
228
100
7
31
34
131
151
67
92
130
219
227
18
52
178
216
188
103
14
118
179
89
16
35
105
185
98
54
231
149
200
129
107
62
60
177
128
57
193
15
145
46
212
204
223
73
74
144
13
55
125
152
99
187
90
141
23
84
45
211
205
184
22
214
59
32
21
175
218
150
117
186
135
102
110
61
68
198
101
217
203
182
174
109
64
70
194
27
41
126
201
95
20
94
87
148
10
160
229
8
142
80
56
232
230
19
124
168
71
29
39
42
220
191
206
106
209
153
11
158
28
134
190
86
38
30
213
202
88
69
96
25
112
195
210
146
171
122
162
170
4
181
83
66
189
123
53
169
5
36
93
136
139
108
75
49
167
82
133
121
33
43
104
47
114
9
79
173
12

>  <PUBCHEM_MMFF94_PARTIAL_CHARGES>  (1) 
20
1 -0.43
10 0.27
12 0.28
14 0.63
15 0.09
16 -0.15
17 -0.15
19 0.08
2 -0.57
20 -0.15
21 -0.15
22 0.28
3 -0.36
4 -0.81
43 0.15
44 0.15
49 0.15
5 0.27
50 0.15
7 0.27

>  <PUBCHEM_EFFECTIVE_ROTOR_COUNT>  (1) 
10.2

>  <PUBCHEM_PHARMACOPHORE_FEATURES>  (1) 
6
1 2 acceptor
1 24 hydrophobe
1 3 acceptor
1 4 cation
6 15 16 17 19 20 21 rings
6 4 5 6 7 8 9 rings

>  <PUBCHEM_HEAVY_ATOM_COUNT>  (1) 
24

>  <PUBCHEM_ATOM_DEF_STEREO_COUNT>  (1) 
0

>  <PUBCHEM_ATOM_UDEF_STEREO_COUNT>  (1) 
2

>  <PUBCHEM_BOND_DEF_STEREO_COUNT>  (1) 
0

>  <PUBCHEM_BOND_UDEF_STEREO_COUNT>  (1) 
0

>  <PUBCHEM_ISOTOPIC_ATOM_COUNT>  (1) 
0

>  <PUBCHEM_COMPONENT_COUNT>  (1) 
1

>  <PUBCHEM_CACTVS_TAUTO_COUNT>  (1) 
1

>  <PUBCHEM_CONFORMER_ID>  (1) 
0000BF8700000001

>  <PUBCHEM_MMFF94_ENERGY>  (1) 
46.0248

>  <PUBCHEM_FEATURE_SELFOVERLAP>  (1) 
30.446

>  <PUBCHEM_SHAPE_FINGERPRINT>  (1) 
10 15 17489867145929424357
106641 1 18131067168719877768
10669705 176 8070025563347886753
10670039 82 12252173057484631135
10883706 17 17605001484558344483
11135609 127 11458722633526320230
11135609 99 18334859462737545294
11386260 185 14924230472959518143
11991303 11 12973895835831306105
12107183 9 17193199964472154744
12236239 1 18335421231580001068
12596602 18 18342455894168458848
12623949 98 18127695929469550846
13073987 5 18200876179806209185
13533116 47 18410012152169458952
13540713 4 13841420457206625757
13668630 136 17894909624900460503
13685833 64 18410009935860553457
13885169 127 18260544495015193253
14178184 131 18199186368855381839
14211702 104 18410303480007180327
14251764 18 17917991693950746837
14341114 176 17917145006084429372
15183329 4 11746934261665139212
15188451 53 18259703397676802642
15510800 12 18041290945534141411
15690457 1 18113614603440847091
15706992 2 12247406743682690147
15728490 51 18342171206878230158
17492 89 17983292626376107062
1768 124 18410011022419422110
18222031 100 16950570927002647252
18335252 98 18412545426933448858
190975 80 18342737437790825371
19841028 212 18042117665833905027
2026 5 17967811640001549387
20505436 4 11023828353726641349
21095123 293 13110963158119725114
21130935 74 18341614754772614394
21197605 99 18412545397191106478
21267235 1 18272655649026384740
21585482 111 10879454793762277907
21637258 2 18113617898292556245
22149856 69 17059795355042884721
2215653 11 14779268600684310140
22224240 67 16343693344408988556
23559900 14 13984961639882410268
23569943 247 17684366157965163306
3383291 50 18335140912625350491
3663271 9 18130790014474862584
4066623 53 13912323486620639310
437795 150 15213873761315306515
439807 62 18335142025163433827
465052 167 18131628963991844940
5104073 3 17130720378968387963
5385378 56 14692577593902945276
5718773 13 18408604790793293395
5758199 1 14189576343133129861
59682541 35 18272080635147860216
59682541 52 14634865353441402810
6438161 24 18260266378454812559
9689198 14 11384115263063795287

>  <PUBCHEM_SHAPE_MULTIPOLES>  (1) 
471.32
23.68
2.42
1.25
24.76
1.13
-0.62
18.77
7.91
0.92
0.57
-0.94
-0.14
0.39

>  <PUBCHEM_SHAPE_SELFOVERLAP>  (1) 
952.38

>  <PUBCHEM_SHAPE_VOLUME>  (1) 
276.4

>  <PUBCHEM_COORDINATE_TYPE>  (1) 
2
5
10

$$$$
