4904
     RDKit          3D

 22 24  0  0  0  0  0  0  0  0999 V2000
    0.6847   -0.1968   -1.9910 O   0  0  0  0  0  0  0  0  0  0  0  0
   -2.9789   -0.0301    0.1556 N   0  0  0  0  0  0  0  0  0  0  0  0
   -3.3241   -1.3769   -0.3210 C   0  0  0  0  0  0  0  0  0  0  0  0
   -4.0467    0.9319   -0.1513 C   0  0  0  0  0  0  0  0  0  0  0  0
   -1.7114    0.4095   -0.4271 C   0  0  0  0  0  0  0  0  0  0  0  0
   -4.6228   -1.8721    0.3174 C   0  0  0  0  0  0  0  0  0  0  0  0
   -5.3691    0.5122    0.4923 C   0  0  0  0  0  0  0  0  0  0  0  0
   -0.5769   -0.5344    0.0032 C   0  0  0  0  0  0  0  0  0  0  0  0
   -5.7687   -0.8974    0.0707 C   0  0  0  0  0  0  0  0  0  0  0  0
    0.8255   -0.1440   -0.5585 C   0  0  0  0  0  0  0  0  0  0  0  0
    1.9473   -1.1303   -0.1935 C   0  0  0  0  0  0  0  0  0  0  0  0
    1.2067    1.2767   -0.1172 C   0  0  0  0  0  0  0  0  0  0  0  0
    3.1936   -0.9268   -0.7311 C   0  0  0  0  0  0  0  0  0  0  0  0
    1.4432    1.5053    1.2161 C   0  0  0  0  0  0  0  0  0  0  0  0
    1.6516   -2.1688    0.6536 C   0  0  0  0  0  0  0  0  0  0  0  0
    1.2951    2.2567   -1.0753 C   0  0  0  0  0  0  0  0  0  0  0  0
    4.2114   -1.8213   -0.3999 C   0  0  0  0  0  0  0  0  0  0  0  0
    1.7897    2.7955    1.6169 C   0  0  0  0  0  0  0  0  0  0  0  0
    2.6696   -3.0631    0.9848 C   0  0  0  0  0  0  0  0  0  0  0  0
    1.6417    3.5471   -0.6744 C   0  0  0  0  0  0  0  0  0  0  0  0
    3.9495   -2.8893    0.4579 C   0  0  0  0  0  0  0  0  0  0  0  0
    1.8890    3.8163    0.6717 C   0  0  0  0  0  0  0  0  0  0  0  0
  1 10  1  0
  2  3  1  0
  2  4  1  0
  2  5  1  0
  3  6  1  0
  4  7  1  0
  5  8  1  0
  6  9  1  0
  7  9  1  0
  8 10  1  0
 10 11  1  0
 10 12  1  0
 11 13  2  0
 11 15  1  0
 12 14  2  0
 12 16  1  0
 13 17  1  0
 14 18  1  0
 15 19  2  0
 16 20  2  0
 17 21  2  0
 18 22  2  0
 19 21  1  0
 20 22  1  0
M  END
>  <PUBCHEM_COMPOUND_CID>  (1) 
4904

>  <PUBCHEM_CONFORMER_RMSD>  (1) 
0.8

>  <PUBCHEM_CONFORMER_DIVERSEORDER>  (1) 
1
18
16
8
9
17
14
12
5
6
3
15
7
19
4
2
11
10
13

>  <PUBCHEM_MMFF94_PARTIAL_CHARGES>  (1) 
29
1 -0.68
10 0.57
11 -0.14
12 -0.14
13 -0.15
14 -0.15
15 -0.15
16 -0.15
17 -0.15
18 -0.15
19 -0.15
2 -0.81
20 -0.15
21 -0.15
22 -0.15
3 0.27
37 0.4
38 0.15
39 0.15
4 0.27
40 0.15
41 0.15
42 0.15
43 0.15
44 0.15
45 0.15
46 0.15
47 0.15
5 0.27

>  <PUBCHEM_EFFECTIVE_ROTOR_COUNT>  (1) 
6.2

>  <PUBCHEM_PHARMACOPHORE_FEATURES>  (1) 
6
1 1 acceptor
1 1 donor
1 2 cation
6 11 13 15 17 19 21 rings
6 12 14 16 18 20 22 rings
6 2 3 4 6 7 9 rings

>  <PUBCHEM_HEAVY_ATOM_COUNT>  (1) 
22

>  <PUBCHEM_ATOM_DEF_STEREO_COUNT>  (1) 
0

>  <PUBCHEM_ATOM_UDEF_STEREO_COUNT>  (1) 
0

>  <PUBCHEM_BOND_DEF_STEREO_COUNT>  (1) 
0

>  <PUBCHEM_BOND_UDEF_STEREO_COUNT>  (1) 
0

>  <PUBCHEM_ISOTOPIC_ATOM_COUNT>  (1) 
0

>  <PUBCHEM_COMPONENT_COUNT>  (1) 
1

>  <PUBCHEM_CACTVS_TAUTO_COUNT>  (1) 
1

>  <PUBCHEM_CONFORMER_ID>  (1) 
0000132800000001

>  <PUBCHEM_MMFF94_ENERGY>  (1) 
58.7897

>  <PUBCHEM_FEATURE_SELFOVERLAP>  (1) 
30.446

>  <PUBCHEM_SHAPE_FINGERPRINT>  (1) 
11265709 11 18266744580173633202
11405975 8 18412268342067065771
11578080 2 17968361356537895404
11582403 64 16769569571429774680
12107183 9 18196943176102416745
12516196 113 18339922611010174226
12549972 3 18041294252405069833
12553582 1 18266166258332338719
12616971 3 17846499249622745079
12788726 201 17402023627339020006
13004483 165 18049152276935300514
13134695 92 18342449309947014980
13140716 1 18051403269516498168
13533116 47 18337392742708923771
13955234 65 18266745855805437169
14178342 30 17904196284787125103
14466204 15 17980202985690632361
14787075 74 18334581244068419694
14866123 147 16753810859553033771
14950920 106 18195277527745092363
14955137 171 18060145327565698494
15042514 8 17906734700373591486
15927050 60 17981043339123201174
17349148 13 17489585641547312711
17492 89 18337110172362805851
17868525 174 18338514136820591713
17980427 23 17202742878480413565
17980427 26 18126273380007267044
1813 80 18200602380131222606
18785283 64 18263075686166214720
19078846 21 18271254798445931033
20369508 70 18410292501833076655
20600515 1 18055924181777334652
20681677 274 18411699907218939107
20832881 197 18261394378284158771
21033648 29 16342567332928246907
21041028 32 18200308814684741552
21049683 271 18261684730963538516
21065198 57 18410575106945082451
21250096 35 18264769869959258723
21524375 3 17769098178411536188
221490 88 18261965145030761139
2255824 54 18410296955481943687
23366157 5 18262516008592452213
23419403 2 17913180136589401080
23558518 356 17765141066528634454
23559900 14 18408035226415792595
283562 15 18046913667493948850
312423 11 18200887257275607595
314173 41 18339085890929559495
314194 84 18334298626235276219
3411729 13 18201995586271185184
3421961 26 18409445890595448153
345986 75 17753882823005460458
4409770 3 17468470422199387869
474 4 18191866949480427453
5104073 3 18270974531093620003
57672749 33 18412538817131501128
5895379 119 16629147385092164601
59755656 215 18338799043085827204
6442390 28 17761497293072474553
6443956 14 18411138022106307288
67856867 119 18270959154672589779
7164475 11 17903641774771611446
7364860 26 18341049717564943428
7495541 125 18408608054388085551
77188 2 18338797797924904948
81228 2 17764604118217292192
9709674 26 18262238949464991067
9841814 1 18341901778841608030
9981440 41 17833264599087550617
9999458 23 18266178520769742268

>  <PUBCHEM_SHAPE_MULTIPOLES>  (1) 
441.9
9.63
4.32
1.18
16.9
2.69
0.03
-6.19
-0.9
-5.81
-1.09
-0.74
0.44
0.02

>  <PUBCHEM_SHAPE_SELFOVERLAP>  (1) 
939.846

>  <PUBCHEM_SHAPE_VOLUME>  (1) 
245.2

>  <PUBCHEM_COORDINATE_TYPE>  (1) 
2
5
10

$$$$
