49047
     RDKit          3D

 22 23  0  0  0  0  0  0  0  0999 V2000
   -5.6150   -0.4701    0.8870 S   0  0  0  0  0  0  0  0  0  0  0  0
    1.0049   -0.6833    0.1713 O   0  0  0  0  0  0  0  0  0  0  0  0
    0.5894   -2.7820   -0.6784 O   0  0  0  0  0  0  0  0  0  0  0  0
    4.5689    0.2543    0.2473 N   0  0  0  0  0  0  0  0  0  0  0  0
    5.2911    1.1235    1.1869 C   0  0  0  0  0  0  0  0  0  0  0  0
    4.9456    0.5458   -1.1430 C   0  0  0  0  0  0  0  0  0  0  0  0
    6.8044    0.9508    1.0468 C   0  0  0  0  0  0  0  0  0  0  0  0
    6.4476    0.3544   -1.3593 C   0  0  0  0  0  0  0  0  0  0  0  0
    7.2605    1.2007   -0.3861 C   0  0  0  0  0  0  0  0  0  0  0  0
    3.1242    0.3961    0.4262 C   0  0  0  0  0  0  0  0  0  0  0  0
    2.4003   -0.8583   -0.0362 C   0  0  0  0  0  0  0  0  0  0  0  0
    0.2102   -1.7267   -0.1949 C   0  0  0  0  0  0  0  0  0  0  0  0
   -1.2179   -1.4190    0.0704 C   0  0  0  0  0  0  0  0  0  0  0  0
   -5.3226    1.5574   -1.0112 C   0  0  0  0  0  0  0  0  0  0  0  0
   -5.4827    2.6793    0.0183 C   0  0  0  0  0  0  0  0  0  0  0  0
   -6.1226    0.2985   -0.6770 C   0  0  0  0  0  0  0  0  0  0  0  0
   -3.9009   -0.8405    0.5693 C   0  0  0  0  0  0  0  0  0  0  0  0
   -2.2128   -1.9783   -0.7314 C   0  0  0  0  0  0  0  0  0  0  0  0
   -1.5646   -0.5705    1.1218 C   0  0  0  0  0  0  0  0  0  0  0  0
   -3.5544   -1.6891   -0.4821 C   0  0  0  0  0  0  0  0  0  0  0  0
   -2.9061   -0.2811    1.3713 C   0  0  0  0  0  0  0  0  0  0  0  0
   -4.7476    3.9380   -0.4170 C   0  0  0  0  0  0  0  0  0  0  0  0
  1 16  1  0
  1 17  1  0
  2 11  1  0
  2 12  1  0
  3 12  2  0
  4  5  1  0
  4  6  1  0
  4 10  1  0
  5  7  1  0
  6  8  1  0
  7  9  1  0
  8  9  1  0
 10 11  1  0
 12 13  1  0
 13 18  2  0
 13 19  1  0
 14 15  1  0
 14 16  1  0
 15 22  1  0
 17 20  2  0
 17 21  1  0
 18 20  1  0
 19 21  2  0
M  END
>  <PUBCHEM_COMPOUND_CID>  (1) 
49047

>  <PUBCHEM_CONFORMER_RMSD>  (1) 
1

>  <PUBCHEM_CONFORMER_DIVERSEORDER>  (1) 
1
81
91
27
4
37
2
102
39
71
87
34
61
21
64
88
47
32
80
60
74
33
85
35
76
59
100
49
68
29
70
75
92
90
51
31
86
5
7
14
15
95
40
24
12
23
94
10
65
84
42
101
63
98
38
43
22
99
97
57
55
67
79
52
20
105
45
72
26
41
25
69
19
3
77
9
8
89
30
50
48
58
28
36
44
78
17
6
73
66
11
13
93
56
46
18
62
103
16
104
83
82
96
53
54

>  <PUBCHEM_MMFF94_PARTIAL_CHARGES>  (1) 
20
1 -0.33
10 0.27
11 0.28
12 0.63
13 0.09
16 0.23
17 0.1
18 -0.15
19 -0.15
2 -0.43
20 -0.15
21 -0.15
3 -0.57
4 -0.81
43 0.15
44 0.15
45 0.15
46 0.15
5 0.27
6 0.27

>  <PUBCHEM_EFFECTIVE_ROTOR_COUNT>  (1) 
10.2

>  <PUBCHEM_PHARMACOPHORE_FEATURES>  (1) 
6
1 22 hydrophobe
1 3 acceptor
1 4 cation
4 1 14 15 16 hydrophobe
6 13 17 18 19 20 21 rings
6 4 5 6 7 8 9 rings

>  <PUBCHEM_HEAVY_ATOM_COUNT>  (1) 
22

>  <PUBCHEM_ATOM_DEF_STEREO_COUNT>  (1) 
0

>  <PUBCHEM_ATOM_UDEF_STEREO_COUNT>  (1) 
0

>  <PUBCHEM_BOND_DEF_STEREO_COUNT>  (1) 
0

>  <PUBCHEM_BOND_UDEF_STEREO_COUNT>  (1) 
0

>  <PUBCHEM_ISOTOPIC_ATOM_COUNT>  (1) 
0

>  <PUBCHEM_COMPONENT_COUNT>  (1) 
1

>  <PUBCHEM_CACTVS_TAUTO_COUNT>  (1) 
1

>  <PUBCHEM_CONFORMER_ID>  (1) 
0000BF9700000001

>  <PUBCHEM_MMFF94_ENERGY>  (1) 
33.2796

>  <PUBCHEM_FEATURE_SELFOVERLAP>  (1) 
30.446

>  <PUBCHEM_SHAPE_FINGERPRINT>  (1) 
10087517 78 18186798063590550653
10763959 59 18411704296591548188
11761917 142 18338791200597689112
12596602 18 15936410061099559073
12760667 363 8214138547989221545
13167372 99 18187364333616709100
13668630 136 11671793675930944464
13685833 64 8142088658721877674
13740256 8 9295283950192649723
14251751 18 10231744600823819577
14251752 14 18410290302983569704
14251764 18 16298386898171037147
14251764 30 8935001473223840852
14341114 176 14562804487329758150
15183329 4 17346328098316434434
15510800 12 9078816469431166097
155225 5 18266176128584500853
15604295 49 18338796853613296980
17780758 139 11891332033177886615
190975 80 11170207479024019948
20281389 69 18410293618466311130
21054139 6 11887676173947889956
21859007 373 18342726430344079632
22122407 14 17677346007664373108
23198884 109 16056889039191705987
23559900 14 17131829932266924754
25122255 55 9151169870154994429
2838139 119 18412536617813008757
397830 11 8141787353838937974
44249763 50 17845356886351772164
445580 37 18408893927311282188
5104073 3 17749954350006686275
5718773 13 8574126351673952529
59682541 35 11169912832221370078
59682541 52 16558755564181494614
7062679 6 18334014982167582117
7970288 3 9727367817863090844
8863177 126 9222932777849284445
999808 66 10953455211079894576

>  <PUBCHEM_SHAPE_MULTIPOLES>  (1) 
439.88
20.54
2.91
1.23
23.42
2.21
0.08
14.42
-1.41
-5.51
-0.69
0.54
0.07
1.05

>  <PUBCHEM_SHAPE_SELFOVERLAP>  (1) 
873.127

>  <PUBCHEM_SHAPE_VOLUME>  (1) 
261.6

>  <PUBCHEM_COORDINATE_TYPE>  (1) 
2
5
10

$$$$
