49046
     RDKit          3D

 22 23  0  0  0  0  0  0  0  0999 V2000
    3.1615   -1.3141    1.5170 S   0  0  0  0  0  0  0  0  0  0  0  0
    0.0439    0.9028    0.0780 O   0  0  0  0  0  0  0  0  0  0  0  0
    0.9305    0.9288    2.2023 O   0  0  0  0  0  0  0  0  0  0  0  0
   -3.6290    0.6157   -0.0394 N   0  0  0  0  0  0  0  0  0  0  0  0
   -4.5923    1.0730   -1.0507 C   0  0  0  0  0  0  0  0  0  0  0  0
   -3.9008   -0.7711    0.3644 C   0  0  0  0  0  0  0  0  0  0  0  0
   -6.0258    0.9916   -0.5240 C   0  0  0  0  0  0  0  0  0  0  0  0
   -5.3118   -0.9126    0.9376 C   0  0  0  0  0  0  0  0  0  0  0  0
   -6.3631   -0.4171   -0.0488 C   0  0  0  0  0  0  0  0  0  0  0  0
   -2.2612    0.7439   -0.5410 C   0  0  0  0  0  0  0  0  0  0  0  0
   -1.2698    0.7958    0.6106 C   0  0  0  0  0  0  0  0  0  0  0  0
    1.0554    0.9606    0.9879 C   0  0  0  0  0  0  0  0  0  0  0  0
    2.3701    1.0720    0.3071 C   0  0  0  0  0  0  0  0  0  0  0  0
    2.3690   -2.6345   -0.8111 C   0  0  0  0  0  0  0  0  0  0  0  0
    3.3862   -2.6662    0.3293 C   0  0  0  0  0  0  0  0  0  0  0  0
    3.3773    0.1206    0.4698 C   0  0  0  0  0  0  0  0  0  0  0  0
    0.9185   -2.7911   -0.3463 C   0  0  0  0  0  0  0  0  0  0  0  0
    2.5805    2.1760   -0.5190 C   0  0  0  0  0  0  0  0  0  0  0  0
    4.5947    0.2735   -0.1937 C   0  0  0  0  0  0  0  0  0  0  0  0
   -0.0371   -2.8541   -1.5283 C   0  0  0  0  0  0  0  0  0  0  0  0
    3.7981    2.3288   -1.1824 C   0  0  0  0  0  0  0  0  0  0  0  0
    4.8051    1.3776   -1.0196 C   0  0  0  0  0  0  0  0  0  0  0  0
  1 15  1  0
  1 16  1  0
  2 11  1  0
  2 12  1  0
  3 12  2  0
  4  5  1  0
  4  6  1  0
  4 10  1  0
  5  7  1  0
  6  8  1  0
  7  9  1  0
  8  9  1  0
 10 11  1  0
 12 13  1  0
 13 16  2  0
 13 18  1  0
 14 15  1  0
 14 17  1  0
 16 19  1  0
 17 20  1  0
 18 21  2  0
 19 22  2  0
 21 22  1  0
M  END
>  <PUBCHEM_COMPOUND_CID>  (1) 
49046

>  <PUBCHEM_CONFORMER_RMSD>  (1) 
1

>  <PUBCHEM_CONFORMER_DIVERSEORDER>  (1) 
1
101
74
51
26
91
13
85
61
78
86
116
22
53
7
98
102
33
94
38
112
30
15
122
77
35
118
108
66
47
115
111
29
28
81
121
99
36
39
23
42
17
97
8
65
100
64
69
93
50
3
58
107
55
120
57
88
89
67
54
119
70
68
59
19
106
109
43
87
5
41
84
80
31
21
92
44
113
104
4
32
83
117
72
103
20
63
45
60
105
40
6
24
95
49
114
75
73
52
46
90
62
2
18
110
14
34
82
76
16
37
96
56
12
48
9
71
27
10
25
79
11

>  <PUBCHEM_MMFF94_PARTIAL_CHARGES>  (1) 
20
1 -0.33
10 0.27
11 0.28
12 0.63
13 0.09
15 0.23
16 0.1
18 -0.15
19 -0.15
2 -0.43
21 -0.15
22 -0.15
3 -0.57
4 -0.81
43 0.15
44 0.15
48 0.15
49 0.15
5 0.27
6 0.27

>  <PUBCHEM_EFFECTIVE_ROTOR_COUNT>  (1) 
10.2

>  <PUBCHEM_PHARMACOPHORE_FEATURES>  (1) 
6
1 20 hydrophobe
1 3 acceptor
1 4 cation
4 1 14 15 17 hydrophobe
6 13 16 18 19 21 22 rings
6 4 5 6 7 8 9 rings

>  <PUBCHEM_HEAVY_ATOM_COUNT>  (1) 
22

>  <PUBCHEM_ATOM_DEF_STEREO_COUNT>  (1) 
0

>  <PUBCHEM_ATOM_UDEF_STEREO_COUNT>  (1) 
0

>  <PUBCHEM_BOND_DEF_STEREO_COUNT>  (1) 
0

>  <PUBCHEM_BOND_UDEF_STEREO_COUNT>  (1) 
0

>  <PUBCHEM_ISOTOPIC_ATOM_COUNT>  (1) 
0

>  <PUBCHEM_COMPONENT_COUNT>  (1) 
1

>  <PUBCHEM_CACTVS_TAUTO_COUNT>  (1) 
1

>  <PUBCHEM_CONFORMER_ID>  (1) 
0000BF9600000001

>  <PUBCHEM_MMFF94_ENERGY>  (1) 
35.5337

>  <PUBCHEM_FEATURE_SELFOVERLAP>  (1) 
30.447

>  <PUBCHEM_SHAPE_FINGERPRINT>  (1) 
11595378 159 15697719208235314843
12592029 89 18409172121053856034
12596602 18 16271635780858052091
12730499 353 18041286559834227640
12788726 201 17775293724712847545
13533116 47 18272930493259009483
13836976 161 18410575098091325932
14617045 38 18342182193520604759
14863182 85 17845929637732267286
15537594 2 17989204858826808039
15799311 1 18339941363258842715
15961568 22 17168147866110066828
17492 54 18192457220295851774
17844677 252 17822291232957076845
20465049 17 18338811078158924630
20645477 70 18334294240793416440
21304303 94 18131084727084436518
21344244 181 17488764336394851406
21623969 137 18411705391697348171
21860390 5 16805898380414245676
23557571 272 17385720284098270037
23559900 14 18337665300974448541
239999 70 18260266317850627530
3004659 81 18261388910595339218
3060560 45 18335989735706806140
338550 245 18412820313208898510
34797466 226 17676206888401711157
4340502 62 18272644684613103688
46194498 28 18113337488125052012
8272917 22 18410013204341234820

>  <PUBCHEM_SHAPE_MULTIPOLES>  (1) 
439.88
13.32
3.07
1.38
21.19
2.15
0.28
-2.71
-1.33
-3.58
-1.15
-0.62
0.14
-0.27

>  <PUBCHEM_SHAPE_SELFOVERLAP>  (1) 
874.253

>  <PUBCHEM_SHAPE_VOLUME>  (1) 
261.6

>  <PUBCHEM_COORDINATE_TYPE>  (1) 
2
5
10

$$$$
