49049
     RDKit          3D

 20 21  0  0  1  0  0  0  0  0999 V2000
    1.2657    0.3933   -0.1086 O   0  0  0  0  0  0  0  0  0  0  0  0
    2.4952    2.2772   -0.5968 O   0  0  0  0  0  0  0  0  0  0  0  0
   -2.3605    1.0002   -0.0809 N   0  0  0  0  0  0  0  0  0  0  0  0
   -3.5385    0.1600    0.1260 C   0  0  0  0  0  0  0  0  0  0  0  0
   -3.5230   -1.0114   -0.8621 C   0  0  0  0  0  0  0  0  0  0  0  0
   -4.8111    0.9995   -0.0319 C   0  0  0  0  0  0  0  0  0  0  0  0
   -4.7793   -1.8702   -0.7267 C   0  0  0  0  0  0  0  0  0  0  0  0
   -6.0660    0.1385    0.1017 C   0  0  0  0  0  0  0  0  0  0  0  0
   -6.0491   -1.0363   -0.8721 C   0  0  0  0  0  0  0  0  0  0  0  0
   -1.1398    0.2240    0.0746 C   0  0  0  0  0  0  0  0  0  0  0  0
   -1.0542   -0.4031    1.4790 C   0  0  0  0  0  0  0  0  0  0  0  0
    0.0580    1.1395   -0.1991 C   0  0  0  0  0  0  0  0  0  0  0  0
   -1.0507    0.6214    2.6071 C   0  0  0  0  0  0  0  0  0  0  0  0
    2.4151    1.0880   -0.3309 C   0  0  0  0  0  0  0  0  0  0  0  0
    3.5982    0.1992   -0.2090 C   0  0  0  0  0  0  0  0  0  0  0  0
    4.7221    0.4786   -0.9594 C   0  0  0  0  0  0  0  0  0  0  0  0
    3.5375   -0.8780    0.6511 C   0  0  0  0  0  0  0  0  0  0  0  0
    5.8337   -0.3561   -0.8449 C   0  0  0  0  0  0  0  0  0  0  0  0
    4.6492   -1.7126    0.7656 C   0  0  0  0  0  0  0  0  0  0  0  0
    5.7973   -1.4516    0.0175 C   0  0  0  0  0  0  0  0  0  0  0  0
  1 12  1  0
  1 14  1  0
  2 14  2  0
  3  4  1  0
  3 10  1  0
  4  5  1  0
  4  6  1  0
  5  7  1  0
  6  8  1  0
  7  9  1  0
  8  9  1  0
 10 11  1  0
 10 12  1  0
 11 13  1  0
 14 15  1  0
 15 16  2  0
 15 17  1  0
 16 18  1  0
 17 19  2  0
 18 20  2  0
 19 20  1  0
M  END
>  <PUBCHEM_COMPOUND_CID>  (1) 
49049

>  <PUBCHEM_CONFORMER_RMSD>  (1) 
0.8

>  <PUBCHEM_CONFORMER_DIVERSEORDER>  (1) 
1
50
131
121
156
155
104
32
86
42
175
36
102
165
112
161
138
65
58
136
60
129
39
3
90
51
148
81
101
35
55
40
31
180
49
111
25
9
106
142
34
168
85
11
30
176
97
74
77
127
173
82
10
73
43
28
13
12
20
56
125
162
146
33
124
147
18
163
103
160
53
119
8
45
79
164
59
44
67
153
64
132
37
83
107
174
6
133
94
130
46
61
100
54
2
105
95
115
23
93
98
154
150
19
71
48
159
5
96
89
144
122
177
24
99
22
66
117
69
152
26
52
135
57
84
170
91
108
166
116
167
157
179
87
4
7
78
68
88
126
72
21
134
63
151
70
41
109
16
92
29
128
17
14
118
145
15
113
114
139
158
75
141
169
110
38
27
171
80
120
143
47
137
140
62
123
178
172
76
149

>  <PUBCHEM_MMFF94_PARTIAL_CHARGES>  (1) 
19
1 -0.43
10 0.27
12 0.28
14 0.63
15 0.09
16 -0.15
17 -0.15
18 -0.15
19 -0.15
2 -0.57
20 -0.15
3 -0.9
32 0.36
4 0.27
41 0.15
42 0.15
43 0.15
44 0.15
45 0.15

>  <PUBCHEM_EFFECTIVE_ROTOR_COUNT>  (1) 
8.2

>  <PUBCHEM_PHARMACOPHORE_FEATURES>  (1) 
6
1 13 hydrophobe
1 2 acceptor
1 3 cation
1 3 donor
6 15 16 17 18 19 20 rings
6 4 5 6 7 8 9 rings

>  <PUBCHEM_HEAVY_ATOM_COUNT>  (1) 
20

>  <PUBCHEM_ATOM_DEF_STEREO_COUNT>  (1) 
0

>  <PUBCHEM_ATOM_UDEF_STEREO_COUNT>  (1) 
1

>  <PUBCHEM_BOND_DEF_STEREO_COUNT>  (1) 
0

>  <PUBCHEM_BOND_UDEF_STEREO_COUNT>  (1) 
0

>  <PUBCHEM_ISOTOPIC_ATOM_COUNT>  (1) 
0

>  <PUBCHEM_COMPONENT_COUNT>  (1) 
1

>  <PUBCHEM_CACTVS_TAUTO_COUNT>  (1) 
1

>  <PUBCHEM_CONFORMER_ID>  (1) 
0000BF9900000001

>  <PUBCHEM_MMFF94_ENERGY>  (1) 
32.1905

>  <PUBCHEM_FEATURE_SELFOVERLAP>  (1) 
30.446

>  <PUBCHEM_SHAPE_FINGERPRINT>  (1) 
105312 117 14418130729745097643
10595046 47 18338799034680528517
10670039 82 14707197769683907070
11524674 6 16774076285251190719
11796584 16 18131633395897123207
12166972 35 18201721764572949976
12236239 1 18272934924874117428
12516196 113 18412261731854291320
12555020 224 17894349973181424507
12596602 18 17846778499452929746
12670543 26 17531240634948710541
12895836 83 13623822647692734954
12916748 109 14707205509008927351
13167823 11 18411697716332028527
13288520 33 18343865524484757725
13533116 47 18412826915043130568
13668630 136 18272656740127413518
1420 363 16200434667148208966
14251751 18 17988917907587654315
14251752 14 18409443653461026893
14848160 23 16774077366823104647
15183329 4 18261107465699489959
15188451 53 17703504424465517974
15342168 16 10159691417669663096
15348495 7 15625931088576692023
17349148 13 18059864969011296646
17834072 33 18408323285229286380
17834072 8 17095523997950581779
17857418 61 18411417310570143895
1813 80 15051740828032351425
18186145 218 16950557818145515009
18222031 100 18272377451789969140
19489759 90 17132116810470515001
19784866 240 18273220785218068188
200 152 18413390933952460376
20645477 70 18114182995872186634
21150785 3 15285644321807639299
21267235 1 18408889559999091151
21285901 2 17095801015073298302
21304303 282 17056687976454351001
21521239 73 18114174272535282235
21637258 2 17988633121454623575
220451 1 18410862057398414623
221357 26 17822005397971207268
2215653 11 17748547039014586370
23402539 116 18410009923271284677
23522609 53 18192462746901344844
23536379 177 18410855456234270577
23557571 272 16128107645527775352
23559900 14 17604154838644524220
25122255 55 17703802404801354070
26918003 58 17346598569127646013
2871803 45 17530967947965632770
29717793 49 18408609145620768678
3004659 81 18272653467219629476
3472631 163 12973899121476044038
351380 3 18412541007285481254
3759504 43 13695874744167477193
4073 2 18115591607183802640
465052 167 18341897394154727030
5104073 3 17988646354349031225
559249 180 18342736296046962495
59682541 52 18041271106288623855
59755656 215 17240475880390119495
59755656 520 17022907839827678545
633830 44 17313097584064895165
7495541 125 17775000245576818209
960060 61 17967820457383784500
9971528 1 18041558139021912548

>  <PUBCHEM_SHAPE_MULTIPOLES>  (1) 
394.87
16.26
1.67
1.34
1.35
0.14
0.92
6.64
-4.02
-0.2
-0.19
0.06
-0.14
-1.51

>  <PUBCHEM_SHAPE_SELFOVERLAP>  (1) 
806.654

>  <PUBCHEM_SHAPE_VOLUME>  (1) 
226.6

>  <PUBCHEM_COORDINATE_TYPE>  (1) 
2
5
10

$$$$
