49056
     RDKit          3D

 20 20  0  0  0  0  0  0  0  0999 V2000
    3.8806   -2.4578   -0.6614 S   0  0  0  0  0  0  0  0  0  0  0  0
   -0.1758    0.8198    0.0251 O   0  0  0  0  0  0  0  0  0  0  0  0
    0.6843    2.7479    0.9427 O   0  0  0  0  0  0  0  0  0  0  0  0
   -4.8140   -0.5705   -0.0934 N   0  0  0  0  0  0  0  0  0  0  0  0
   -3.9030    0.4859    0.3306 C   0  0  0  0  0  0  0  0  0  0  0  0
   -2.4694    0.1341   -0.0533 C   0  0  0  0  0  0  0  0  0  0  0  0
   -5.1186   -0.4468   -1.5200 C   0  0  0  0  0  0  0  0  0  0  0  0
   -6.0479   -0.5342    0.6938 C   0  0  0  0  0  0  0  0  0  0  0  0
   -1.4905    1.2102    0.3966 C   0  0  0  0  0  0  0  0  0  0  0  0
   -6.0146   -1.5800   -1.9904 C   0  0  0  0  0  0  0  0  0  0  0  0
   -5.7553   -0.6611    2.1792 C   0  0  0  0  0  0  0  0  0  0  0  0
    0.8226    1.6837    0.3597 C   0  0  0  0  0  0  0  0  0  0  0  0
    2.1406    1.1631   -0.0831 C   0  0  0  0  0  0  0  0  0  0  0  0
    2.3605   -0.2125   -0.1538 C   0  0  0  0  0  0  0  0  0  0  0  0
    3.1596    2.0508   -0.4285 C   0  0  0  0  0  0  0  0  0  0  0  0
    3.5991   -0.7003   -0.5700 C   0  0  0  0  0  0  0  0  0  0  0  0
    4.6181    0.1875   -0.9154 C   0  0  0  0  0  0  0  0  0  0  0  0
    4.3983    1.5632   -0.8446 C   0  0  0  0  0  0  0  0  0  0  0  0
    5.2608   -2.6712    0.4979 C   0  0  0  0  0  0  0  0  0  0  0  0
    4.8648   -2.2118    1.8882 C   0  0  0  0  0  0  0  0  0  0  0  0
  1 16  1  0
  1 19  1  0
  2  9  1  0
  2 12  1  0
  3 12  2  0
  4  5  1  0
  4  7  1  0
  4  8  1  0
  5  6  1  0
  6  9  1  0
  7 10  1  0
  8 11  1  0
 12 13  1  0
 13 14  2  0
 13 15  1  0
 14 16  1  0
 15 18  2  0
 16 17  2  0
 17 18  1  0
 19 20  1  0
M  END
>  <PUBCHEM_COMPOUND_CID>  (1) 
49056

>  <PUBCHEM_CONFORMER_RMSD>  (1) 
1

>  <PUBCHEM_CONFORMER_DIVERSEORDER>  (1) 
24
114
136
141
113
31
63
50
147
61
89
103
173
145
54
49
143
119
166
39
125
138
102
46
126
67
99
105
9
169
87
35
120
117
162
53
111
82
135
27
154
121
123
59
44
148
34
98
142
106
60
19
78
159
155
167
52
8
127
28
97
124
84
170
107
66
80
150
109
4
128
144
168
74
130
71
36
3
149
139
64
76
58
158
48
137
118
101
7
23
94
11
122
116
156
88
93
57
32
91
40
62
140
96
18
108
77
172
37
6
152
38
17
157
69
72
83
153
163
29
26
42
92
90
5
65
81
70
51
45
171
47
16
164
2
95
10
86
151
132
115
68
134
33
165
112
22
146
100
133
20
1
131
56
110
43
14
41
104
55
85
79
12
161
13
21
129
73
30
75
15
160
25

>  <PUBCHEM_MMFF94_PARTIAL_CHARGES>  (1) 
20
1 -0.33
12 0.63
13 0.09
14 -0.15
15 -0.15
16 0.1
17 -0.15
18 -0.15
19 0.23
2 -0.43
3 -0.57
37 0.15
38 0.15
39 0.15
4 -0.81
40 0.15
5 0.27
7 0.27
8 0.27
9 0.28

>  <PUBCHEM_EFFECTIVE_ROTOR_COUNT>  (1) 
10

>  <PUBCHEM_PHARMACOPHORE_FEATURES>  (1) 
4
1 20 hydrophobe
1 3 acceptor
1 4 cation
6 13 14 15 16 17 18 rings

>  <PUBCHEM_HEAVY_ATOM_COUNT>  (1) 
20

>  <PUBCHEM_ATOM_DEF_STEREO_COUNT>  (1) 
0

>  <PUBCHEM_ATOM_UDEF_STEREO_COUNT>  (1) 
0

>  <PUBCHEM_BOND_DEF_STEREO_COUNT>  (1) 
0

>  <PUBCHEM_BOND_UDEF_STEREO_COUNT>  (1) 
0

>  <PUBCHEM_ISOTOPIC_ATOM_COUNT>  (1) 
0

>  <PUBCHEM_COMPONENT_COUNT>  (1) 
1

>  <PUBCHEM_CACTVS_TAUTO_COUNT>  (1) 
1

>  <PUBCHEM_CONFORMER_ID>  (1) 
0000BFA000000018

>  <PUBCHEM_MMFF94_ENERGY>  (1) 
39.3752

>  <PUBCHEM_FEATURE_SELFOVERLAP>  (1) 
20.297

>  <PUBCHEM_SHAPE_FINGERPRINT>  (1) 
10447042 23 18409166606463515294
10912923 1 17703515484301678289
12523318 42 14979948212487047007
12596602 18 16343706559807203731
12616971 3 18272375261166867463
12730499 353 18188503483386909560
13073987 5 18410300202804650505
13167823 11 17488745704900268269
13533116 47 18410860970671546536
13540713 5 18193578679059186724
13955234 65 18339083821203943400
14123256 34 18337963272805096238
14251740 57 17988362560227741238
14347332 77 18341327821530734789
14576447 43 18272934942428767124
15183329 4 18272370897432674335
15188451 53 16487244500821994423
15250474 111 18059850684362079583
15537594 2 18272940444118011855
17134984 74 18339073916618845207
17492 89 18196658389479236014
17857418 61 18201716258624875207
20028762 73 18200870682749971294
20645477 70 18261117365693805946
21049683 118 17838034255761982768
21315763 178 18060142050315649773
21315764 119 16371001837594263359
220451 1 18059868298001458181
22061861 79 17894910728775608047
22224240 67 18058438980621022608
2303208 19 17313395538915289723
23522609 53 17842310144180361201
23596394 208 17676200256360035923
23622692 118 18265050241835846732
3004659 81 18335144150866322862
312425 54 16558753373616830583
314194 84 18342462560115892379
3411729 13 16199293460505756864
34797466 226 16443638990197318061
351380 3 17846503646867435573
397830 11 13110670701396298071
46194498 28 16879083012477999909
5104073 3 18342181020425133416
531348 171 18339354181437645181
59682541 35 18410002231849911034
59682541 52 16371276732390861522

>  <PUBCHEM_SHAPE_MULTIPOLES>  (1) 
398.72
16.97
2.76
1.59
20
0.36
0.22
10.91
-0.53
-4.82
0.36
2.02
0.85
-1.93

>  <PUBCHEM_SHAPE_SELFOVERLAP>  (1) 
776.426

>  <PUBCHEM_SHAPE_VOLUME>  (1) 
243

>  <PUBCHEM_COORDINATE_TYPE>  (1) 
2
5
10

$$$$
