4906
     RDKit          3D

 16 16  0  0  1  0  0  0  0  0999 V2000
   -0.7432    1.2197   -1.5006 O   0  0  0  0  0  0  0  0  0  0  0  0
   -3.0836    0.5844    0.0671 N   0  0  0  0  0  0  0  0  0  0  0  0
    0.2729    0.5688    0.5128 N   0  0  0  0  0  0  0  0  0  0  0  0
   -1.9849    1.4148    0.5546 C   0  0  0  0  0  0  0  0  0  0  0  0
   -2.7637   -0.8284    0.2037 C   0  0  0  0  0  0  0  0  0  0  0  0
   -3.9165   -1.6853   -0.3131 C   0  0  0  0  0  0  0  0  0  0  0  0
   -0.7594    1.0588   -0.2835 C   0  0  0  0  0  0  0  0  0  0  0  0
   -2.3569    2.8864    0.4163 C   0  0  0  0  0  0  0  0  0  0  0  0
    1.5550    0.1382    0.0961 C   0  0  0  0  0  0  0  0  0  0  0  0
    2.4719   -0.3248    1.0264 C   0  0  0  0  0  0  0  0  0  0  0  0
   -3.6156   -3.1684   -0.1615 C   0  0  0  0  0  0  0  0  0  0  0  0
    1.8644    0.1924   -1.2541 C   0  0  0  0  0  0  0  0  0  0  0  0
    3.7304   -0.7448    0.5957 C   0  0  0  0  0  0  0  0  0  0  0  0
    2.1507   -0.3882    2.4845 C   0  0  0  0  0  0  0  0  0  0  0  0
    3.1228   -0.2276   -1.6847 C   0  0  0  0  0  0  0  0  0  0  0  0
    4.0558   -0.6961   -0.7598 C   0  0  0  0  0  0  0  0  0  0  0  0
  1  7  2  0
  2  4  1  0
  2  5  1  0
  3  7  1  0
  3  9  1  0
  4  7  1  0
  4  8  1  0
  5  6  1  0
  6 11  1  0
  9 10  2  0
  9 12  1  0
 10 13  1  0
 10 14  1  0
 12 15  2  0
 13 16  2  0
 15 16  1  0
M  END
>  <PUBCHEM_COMPOUND_CID>  (1) 
4906

>  <PUBCHEM_CONFORMER_RMSD>  (1) 
0.8

>  <PUBCHEM_CONFORMER_DIVERSEORDER>  (1) 
1
27
11
12
3
4
17
22
13
26
5
33
28
2
15
38
29
25
37
20
30
35
16
10
24
9
32
36
8
18
6
14
34
7
21
19
39
31
23

>  <PUBCHEM_MMFF94_PARTIAL_CHARGES>  (1) 
19
1 -0.57
10 -0.14
12 -0.15
13 -0.15
14 0.14
15 -0.15
16 -0.15
2 -0.9
20 0.36
26 0.37
3 -0.55
30 0.15
31 0.15
35 0.15
36 0.15
4 0.33
5 0.27
7 0.57
9 0.12

>  <PUBCHEM_EFFECTIVE_ROTOR_COUNT>  (1) 
6

>  <PUBCHEM_PHARMACOPHORE_FEATURES>  (1) 
6
1 1 acceptor
1 11 hydrophobe
1 2 cation
1 2 donor
1 3 donor
6 9 10 12 13 15 16 rings

>  <PUBCHEM_HEAVY_ATOM_COUNT>  (1) 
16

>  <PUBCHEM_ATOM_DEF_STEREO_COUNT>  (1) 
0

>  <PUBCHEM_ATOM_UDEF_STEREO_COUNT>  (1) 
1

>  <PUBCHEM_BOND_DEF_STEREO_COUNT>  (1) 
0

>  <PUBCHEM_BOND_UDEF_STEREO_COUNT>  (1) 
0

>  <PUBCHEM_ISOTOPIC_ATOM_COUNT>  (1) 
0

>  <PUBCHEM_COMPONENT_COUNT>  (1) 
1

>  <PUBCHEM_CACTVS_TAUTO_COUNT>  (1) 
2

>  <PUBCHEM_CONFORMER_ID>  (1) 
0000132A00000001

>  <PUBCHEM_MMFF94_ENERGY>  (1) 
32.9567

>  <PUBCHEM_FEATURE_SELFOVERLAP>  (1) 
30.446

>  <PUBCHEM_SHAPE_FINGERPRINT>  (1) 
10366900 7 17632009754442253157
11471102 22 16343985801442890880
11578080 2 17751049548934000244
11796584 16 17984148059212752942
12363563 72 18269556216422214343
12500047 106 18125440817433875473
12553582 1 18336830896287817203
12633257 1 15840999982586198311
12932764 1 17749954349716743020
13296908 3 17274819104345115752
15653759 3 17632015260442718016
16752209 62 18335128783489239819
17844478 74 17203610358937609800
18186145 218 15575297410276444552
18219364 16 16200144353081486284
18915474 69 18114183068211579438
19049666 15 17201647636055475508
200 152 16950278494799427844
20291156 8 18263928911563437879
20715346 28 17346309363062453856
21452121 199 18194959884316076253
21634736 98 18043256936073484150
21639500 275 16153720842216826324
23402539 116 17240489074587448044
23402655 69 16805603608113252140
23503958 8 18340487768423629490
23557571 272 18130780140298108889
23559900 14 18343581849815261604
23598291 2 17532374162553940338
4028521 119 12180112194844799575
568465 68 17132120125795091726
57096353 35 17385736793788784942
5902787 121 18412258475889208057
602551 16 18342739611155332722
603831 33 17676205766723896892
6049 1 17632576037248312776
7615 1 17749383728809150344
77492 1 17822016358959627416

>  <PUBCHEM_SHAPE_MULTIPOLES>  (1) 
313.44
7.85
2.44
1.59
0.53
0.24
0.47
4.64
-0.52
4.66
0.02
-1.86
0.04
-0.33

>  <PUBCHEM_SHAPE_SELFOVERLAP>  (1) 
629.091

>  <PUBCHEM_SHAPE_VOLUME>  (1) 
185.5

>  <PUBCHEM_COORDINATE_TYPE>  (1) 
2
5
10

$$$$
