49071
     RDKit          3D

 21 22  0  0  1  0  0  0  0  0999 V2000
    1.1914   -0.3383   -0.6718 O   0  0  0  0  0  0  0  0  0  0  0  0
    1.7417    1.8540   -0.2846 O   0  0  0  0  0  0  0  0  0  0  0  0
    4.4639    2.1273   -0.5756 O   0  0  0  0  0  0  0  0  0  0  0  0
   -3.0225   -0.1170   -0.8716 N   0  0  0  0  0  0  0  0  0  0  0  0
   -3.0024   -0.8468    0.4099 C   0  0  0  0  0  0  0  0  0  0  0  0
   -5.0910    0.4483    1.1213 C   0  0  0  0  0  0  0  0  0  0  0  0
   -3.6725    0.0075    1.5042 C   0  0  0  0  0  0  0  0  0  0  0  0
   -5.0638    1.1345   -0.2476 C   0  0  0  0  0  0  0  0  0  0  0  0
   -4.3708    0.2688   -1.3009 C   0  0  0  0  0  0  0  0  0  0  0  0
   -2.3106   -0.8133   -1.9396 C   0  0  0  0  0  0  0  0  0  0  0  0
   -3.6023   -2.2610    0.3687 C   0  0  0  0  0  0  0  0  0  0  0  0
   -5.6800    1.3740    2.1836 C   0  0  0  0  0  0  0  0  0  0  0  0
   -0.8996   -1.1748   -1.4871 C   0  0  0  0  0  0  0  0  0  0  0  0
   -0.1038    0.0632   -1.0964 C   0  0  0  0  0  0  0  0  0  0  0  0
    2.0434    0.6651   -0.2815 C   0  0  0  0  0  0  0  0  0  0  0  0
    3.3412    0.1288    0.1312 C   0  0  0  0  0  0  0  0  0  0  0  0
    4.5018    0.8787   -0.0307 C   0  0  0  0  0  0  0  0  0  0  0  0
    3.3951   -1.1453    0.6876 C   0  0  0  0  0  0  0  0  0  0  0  0
    5.7291    0.3489    0.3681 C   0  0  0  0  0  0  0  0  0  0  0  0
    4.6224   -1.6750    1.0862 C   0  0  0  0  0  0  0  0  0  0  0  0
    5.7893   -0.9279    0.9264 C   0  0  0  0  0  0  0  0  0  0  0  0
  1 14  1  0
  1 15  1  0
  2 15  2  0
  3 17  1  0
  4  5  1  0
  4  9  1  0
  4 10  1  0
  5  7  1  0
  5 11  1  0
  6  7  1  0
  6  8  1  0
  6 12  1  0
  8  9  1  0
 10 13  1  0
 13 14  1  0
 15 16  1  0
 16 17  2  0
 16 18  1  0
 17 19  1  0
 18 20  2  0
 19 21  2  0
 20 21  1  0
M  END
>  <PUBCHEM_COMPOUND_CID>  (1) 
49071

>  <PUBCHEM_CONFORMER_RMSD>  (1) 
1

>  <PUBCHEM_CONFORMER_DIVERSEORDER>  (1) 
1
588
191
364
1028
147
127
845
544
296
92
915
372
365
696
249
878
237
241
739
47
835
18
8
114
608
434
858
631
29
378
269
35
747
497
390
12
130
864
552
456
112
507
576
656
907
115
431
219
40
233
855
427
587
438
1070
624
168
1036
347
161
598
548
849
436
524
2
155
912
132
459
66
415
247
382
1039
690
387
537
96
187
309
913
272
754
105
760
58
330
143
34
447
972
97
256
488
354
3
460
805
461
636
95
736
72
546
4
84
214
267
49
406
730
123
277
240
55
861
344
1080
728
246
1011
44
655
731
607
7
360
17
659
13
665
209
113
386
388
474
80
250
1012
14
144
935
303
204
738
198
362
616
312
594
251
872
286
385
401
683
107
56
21
479
106
508
5
836
54
564
846
287
981
108
23
111
203
271
647
956
310
146
171
848
1041
150
893
48
38
765
33
10
270
698
20
513
41
100
6
1075
889
841
71
358
322
9
45
526
660
31
416
50
992
25
51
178
612
284
79
128
919
542
57
93
333
275
706
81
197
142
340
397
575
24
43
974
457
208
211
36
78
15

>  <PUBCHEM_MMFF94_PARTIAL_CHARGES>  (1) 
20
1 -0.43
10 0.27
14 0.28
15 0.63
16 0.09
17 0.08
18 -0.15
19 -0.15
2 -0.57
20 -0.15
21 -0.15
3 -0.53
4 -0.81
42 0.15
43 0.15
44 0.15
45 0.15
46 0.45
5 0.27
9 0.27

>  <PUBCHEM_EFFECTIVE_ROTOR_COUNT>  (1) 
7.2

>  <PUBCHEM_PHARMACOPHORE_FEATURES>  (1) 
5
1 2 acceptor
1 3 donor
1 4 cation
6 16 17 18 19 20 21 rings
6 4 5 6 7 8 9 rings

>  <PUBCHEM_HEAVY_ATOM_COUNT>  (1) 
21

>  <PUBCHEM_ATOM_DEF_STEREO_COUNT>  (1) 
0

>  <PUBCHEM_ATOM_UDEF_STEREO_COUNT>  (1) 
2

>  <PUBCHEM_BOND_DEF_STEREO_COUNT>  (1) 
0

>  <PUBCHEM_BOND_UDEF_STEREO_COUNT>  (1) 
0

>  <PUBCHEM_ISOTOPIC_ATOM_COUNT>  (1) 
0

>  <PUBCHEM_COMPONENT_COUNT>  (1) 
1

>  <PUBCHEM_CACTVS_TAUTO_COUNT>  (1) 
4

>  <PUBCHEM_CONFORMER_ID>  (1) 
0000BFAF00000001

>  <PUBCHEM_MMFF94_ENERGY>  (1) 
42.1334

>  <PUBCHEM_FEATURE_SELFOVERLAP>  (1) 
25.372

>  <PUBCHEM_SHAPE_FINGERPRINT>  (1) 
10498660 4 15267346193426706155
10912923 1 18270955842799273710
11089746 13 17060046060821054760
11370993 144 17967531255407538527
11545043 162 16660362576171070861
11552529 35 18122063371185405675
12236239 1 18130783473667080990
12596602 18 18341333382980393266
12633257 1 18407763629542271651
13103583 49 18409452496323896539
13402501 40 16660365852730010371
14251758 9 18131356267559061622
14251764 18 18412262852745465847
14251764 30 15430039837665984288
14341114 176 18113057125370686876
14466204 15 17703506610524815697
14528608 73 10159698006207673178
15238133 3 17632577154430186232
15348495 7 17821732766326747720
15537594 2 17240480291042276586
17844677 252 17967531272556084620
193927 3 15140970568960933871
19489759 90 15841263818010359247
20621476 21 16226055457113191018
21065198 48 18338518654661774903
21315759 148 16588027900438607448
21623969 137 17749107764597266666
2303208 19 16805322154695857978
23198884 109 12031796847007926643
23402539 116 16200426966224517205
2767999 5 17275101700397903281
2838139 119 16917064421978376489
312425 54 17603877689068795689
341906 21 16415474965307532722
351380 180 14764622027797152066
3737641 26 16951118457285322898
4325135 7 8934999291132456641
441001 317 15339116836446701887
5104073 3 18338228375302651890
5385378 56 17346048753290140039
5924683 9 18261673796193541523
602551 16 15285357340619441504
6328613 192 17775000250141116448
7495541 125 15574712504634816276
7970288 3 13984669169873960961
9981440 41 17489594437809653415

>  <PUBCHEM_SHAPE_MULTIPOLES>  (1) 
409.58
15.86
1.78
1.67
5.04
0.01
0.13
3.94
6.06
-0.58
0.14
-1.49
-0.09
-2.24

>  <PUBCHEM_SHAPE_SELFOVERLAP>  (1) 
841.284

>  <PUBCHEM_SHAPE_VOLUME>  (1) 
235.5

>  <PUBCHEM_COORDINATE_TYPE>  (1) 
2
5
10

$$$$
