49072
     RDKit          3D

 23 25  0  0  1  0  0  0  0  0999 V2000
   -1.0341   -0.7401    0.0369 O   0  0  0  0  0  0  0  0  0  0  0  0
    3.4550    1.2793   -1.8681 O   0  0  0  0  0  0  0  0  0  0  0  0
    4.6369    1.7610    0.1761 O   0  0  0  0  0  0  0  0  0  0  0  0
   -0.6739    0.7002    1.7849 O   0  0  0  0  0  0  0  0  0  0  0  0
   -0.9508   -3.5836   -0.4177 N   0  0  0  0  0  0  0  0  0  0  0  0
    0.1034   -1.5094    0.4487 C   0  0  0  0  0  0  0  0  0  0  0  0
    0.2452   -2.7453   -0.4613 C   0  0  0  0  0  0  0  0  0  0  0  0
    1.3161   -0.6406    0.4126 C   0  0  0  0  0  0  0  0  0  0  0  0
    1.7560   -0.1139   -0.8041 C   0  0  0  0  0  0  0  0  0  0  0  0
    2.0058   -0.3595    1.6053 C   0  0  0  0  0  0  0  0  0  0  0  0
    2.8818    0.6837   -0.7869 C   0  0  0  0  0  0  0  0  0  0  0  0
    3.5568    0.9587    0.3802 C   0  0  0  0  0  0  0  0  0  0  0  0
    3.1433    0.4513    1.5948 C   0  0  0  0  0  0  0  0  0  0  0  0
   -1.1823   -4.0757    0.9404 C   0  0  0  0  0  0  0  0  0  0  0  0
   -0.8264   -4.7028   -1.3514 C   0  0  0  0  0  0  0  0  0  0  0  0
    4.5660    1.9606   -1.2505 C   0  0  0  0  0  0  0  0  0  0  0  0
   -1.3208    0.3572    0.8008 C   0  0  0  0  0  0  0  0  0  0  0  0
   -2.4979    1.0567    0.2836 C   0  0  0  0  0  0  0  0  0  0  0  0
   -2.6111    2.4317    0.4546 C   0  0  0  0  0  0  0  0  0  0  0  0
   -3.4908    0.3395   -0.3739 C   0  0  0  0  0  0  0  0  0  0  0  0
   -3.7327    3.0986   -0.0385 C   0  0  0  0  0  0  0  0  0  0  0  0
   -4.6123    1.0066   -0.8670 C   0  0  0  0  0  0  0  0  0  0  0  0
   -4.7332    2.3861   -0.6993 C   0  0  0  0  0  0  0  0  0  0  0  0
  1  6  1  0
  1 17  1  0
  2 11  1  0
  2 16  1  0
  3 12  1  0
  3 16  1  0
  4 17  2  0
  5  7  1  0
  5 14  1  0
  5 15  1  0
  6  7  1  0
  6  8  1  0
  8  9  1  0
  8 10  2  0
  9 11  2  0
 10 13  1  0
 11 12  1  0
 12 13  2  0
 17 18  1  0
 18 19  2  0
 18 20  1  0
 19 21  1  0
 20 22  2  0
 21 23  2  0
 22 23  1  0
M  END
>  <PUBCHEM_COMPOUND_CID>  (1) 
49072

>  <PUBCHEM_CONFORMER_RMSD>  (1) 
0.8

>  <PUBCHEM_CONFORMER_DIVERSEORDER>  (1) 
1
38
69
27
45
47
51
66
48
25
72
64
41
78
40
68
49
11
36
70
60
31
75
39
12
57
42
73
82
76
61
53
37
14
24
80
10
30
50
33
81
32
77
34
63
67
35
8
21
16
9
26
7
13
54
20
59
74
15
23
52
44
19
43
6
46
71
5
58
55
56
79
18
17
62
4
22
28
2
3
29
65

>  <PUBCHEM_MMFF94_PARTIAL_CHARGES>  (1) 
31
1 -0.43
10 -0.15
11 0.08
12 0.08
13 -0.15
14 0.27
15 0.27
16 0.56
17 0.63
18 0.09
19 -0.15
2 -0.36
20 -0.15
21 -0.15
22 -0.15
23 -0.15
27 0.15
28 0.15
29 0.15
3 -0.36
38 0.15
39 0.15
4 -0.57
40 0.15
41 0.15
42 0.15
5 -0.81
6 0.42
7 0.27
8 -0.14
9 -0.15

>  <PUBCHEM_EFFECTIVE_ROTOR_COUNT>  (1) 
6.6

>  <PUBCHEM_PHARMACOPHORE_FEATURES>  (1) 
7
1 2 acceptor
1 3 acceptor
1 4 acceptor
1 5 cation
5 2 3 11 12 16 rings
6 18 19 20 21 22 23 rings
6 8 9 10 11 12 13 rings

>  <PUBCHEM_HEAVY_ATOM_COUNT>  (1) 
23

>  <PUBCHEM_ATOM_DEF_STEREO_COUNT>  (1) 
0

>  <PUBCHEM_ATOM_UDEF_STEREO_COUNT>  (1) 
1

>  <PUBCHEM_BOND_DEF_STEREO_COUNT>  (1) 
0

>  <PUBCHEM_BOND_UDEF_STEREO_COUNT>  (1) 
0

>  <PUBCHEM_ISOTOPIC_ATOM_COUNT>  (1) 
0

>  <PUBCHEM_COMPONENT_COUNT>  (1) 
1

>  <PUBCHEM_CACTVS_TAUTO_COUNT>  (1) 
1

>  <PUBCHEM_CONFORMER_ID>  (1) 
0000BFB000000001

>  <PUBCHEM_MMFF94_ENERGY>  (1) 
69.2853

>  <PUBCHEM_FEATURE_SELFOVERLAP>  (1) 
35.676

>  <PUBCHEM_SHAPE_FINGERPRINT>  (1) 
10498660 4 18341613681131419761
10554248 39 17551774943197652493
10815517 723 17770508835594959799
11069576 57 17552881111617919151
11477941 20 17548999096626875068
11640471 11 18040997375459597288
11833330 49 17905608053147792083
12160290 23 18200034091470551747
12173636 292 18411412917134955437
12633257 1 14634871998173235992
12788726 201 18045774847734727187
13149001 5 17845082051094198177
13583140 156 17702940487397378882
13681431 1 17476086726228234331
15163728 17 18264787488052127397
15475509 35 11669771742931154501
16988056 13 17399511226000551604
17357779 13 17341808181533573111
17539 30 17982446293562741143
20567600 347 18200861882218945887
20715895 44 17319275529522656197
21285901 2 17770525297318220295
21304303 282 18125409081862458102
21524375 3 18261108552141372344
22149856 69 18270403760253036225
2255824 54 18051693235601575663
22907989 373 18053394467551380460
22950370 63 9799403459996186016
23227448 37 18196653127580153188
23366157 5 17904762177056758443
23557571 272 17913487115171020952
23559900 14 17909254794431446171
23598288 3 18261669401914451586
238 59 18124892161305870499
26353 1 17263559310544411455
266924 78 17766870258974395107
3057174 1 18342176605409619687
314173 41 9366762140189068601
394222 165 18188200988439352595
4409770 3 18268146646441296039
458136 41 18199200490216188483
474 4 18115026277945483065
59755656 520 18409161117479500028
6443956 14 17692247435299621354
7164475 11 18049446139024733302
7364860 26 17838888236128788027
7808743 9 18336829822414390472
7970288 3 10087640394753564756
81228 2 17982179120832582923
84936 182 18127690422466466881
9981440 41 18336262354065086617

>  <PUBCHEM_SHAPE_MULTIPOLES>  (1) 
444.87
8.6
4.84
1.46
1.43
7.8
0.08
-11.04
-2.36
2.45
-1.34
-1.06
0.04
-0.6

>  <PUBCHEM_SHAPE_SELFOVERLAP>  (1) 
962.76

>  <PUBCHEM_SHAPE_VOLUME>  (1) 
244.1

>  <PUBCHEM_COORDINATE_TYPE>  (1) 
2
5
10

$$$$
