49078
     RDKit          3D

 20 21  0  0  1  0  0  0  0  0999 V2000
   -1.1112   -1.2380    0.3350 O   0  0  0  0  0  0  0  0  0  0  0  0
   -1.8483   -1.6839   -1.7903 O   0  0  0  0  0  0  0  0  0  0  0  0
    2.1940   -0.2195    0.6289 N   0  0  0  0  0  0  0  0  0  0  0  0
    2.6341    1.1766    0.8516 C   0  0  0  0  0  0  0  0  0  0  0  0
    4.6745    0.7579   -0.6154 C   0  0  0  0  0  0  0  0  0  0  0  0
    3.4753    1.6706   -0.3439 C   0  0  0  0  0  0  0  0  0  0  0  0
    4.1909   -0.6832   -0.7761 C   0  0  0  0  0  0  0  0  0  0  0  0
    3.3463   -1.1135    0.4217 C   0  0  0  0  0  0  0  0  0  0  0  0
    1.3794   -0.7348    1.7333 C   0  0  0  0  0  0  0  0  0  0  0  0
    1.4573    2.1449    1.0398 C   0  0  0  0  0  0  0  0  0  0  0  0
    5.4467    1.2180   -1.8491 C   0  0  0  0  0  0  0  0  0  0  0  0
    0.8459   -2.1231    1.3948 C   0  0  0  0  0  0  0  0  0  0  0  0
   -0.0024   -2.1027    0.1305 C   0  0  0  0  0  0  0  0  0  0  0  0
   -1.9833   -1.1054   -0.7171 C   0  0  0  0  0  0  0  0  0  0  0  0
   -3.0785   -0.1922   -0.3869 C   0  0  0  0  0  0  0  0  0  0  0  0
   -4.0643    0.0695   -1.3314 C   0  0  0  0  0  0  0  0  0  0  0  0
   -3.1223    0.4040    0.8682 C   0  0  0  0  0  0  0  0  0  0  0  0
   -5.1082    0.9395   -1.0168 C   0  0  0  0  0  0  0  0  0  0  0  0
   -4.1665    1.2739    1.1828 C   0  0  0  0  0  0  0  0  0  0  0  0
   -5.1593    1.5416    0.2403 C   0  0  0  0  0  0  0  0  0  0  0  0
  1 13  1  0
  1 14  1  0
  2 14  2  0
  3  4  1  0
  3  8  1  0
  3  9  1  0
  4  6  1  0
  4 10  1  0
  5  6  1  0
  5  7  1  0
  5 11  1  0
  7  8  1  0
  9 12  1  0
 12 13  1  0
 14 15  1  0
 15 16  2  0
 15 17  1  0
 16 18  1  0
 17 19  2  0
 18 20  2  0
 19 20  1  0
M  END
>  <PUBCHEM_COMPOUND_CID>  (1) 
49078

>  <PUBCHEM_CONFORMER_RMSD>  (1) 
0.8

>  <PUBCHEM_CONFORMER_DIVERSEORDER>  (1) 
18
335
348
68
17
312
399
153
174
295
364
417
394
2
405
123
78
331
87
111
145
414
89
421
208
110
81
259
372
297
69
276
401
239
325
329
347
228
268
432
398
255
158
23
185
166
202
426
225
7
46
397
309
359
431
363
67
230
280
400
245
103
272
409
119
395
223
252
350
157
187
261
323
147
306
31
368
289
238
194
357
184
370
150
152
114
345
4
427
156
124
355
246
236
310
336
182
128
141
130
38
413
204
171
327
383
181
27
92
334
269
129
170
219
354
54
415
65
125
112
167
360
165
148
365
199
349
318
251
176
389
90
256
24
22
271
179
172
100
105
366
96
315
277
379
192
428
97
234
227
344
200
86
382
333
74
84
423
115
189
337
191
45
342
143
356
270
343
120
326
57
135
190
241
29
224
367
317
307
429
387
235
291
21
411
66
226
393
206
316
232
137
51
216
253
136
220
140
61
229
430
376
193
298
242
91
121
80
116
254
419
94
102
287
134
108
314
375
178
341
43
420
9
351
304
222
33
207
273
34
340
186
8
248
275
149
424
12
132
282
361
95
16
28
131
40
73
144
41
324
377
107
72
98
139
362
215
85
142
285
117
217
146
302
338
358
11
418
321
77
20
109
198
406
299
201
233
407
384
410
244
369
352
416
151
162
14
221
154
64
62
106
263
37
402
26
434
279
210
50
36
264
328
274
294
59
381
70
118
267
218
183
408
292
212
58
75
197
391
313
169
308
303
55
196
300
159
249
88
433
425
122
281
322
353
101
175
138
374
412
214
237
1
278
177
126
133
388
188
3
283
378
330
168
380
288
19
260
209
47
99
301
286
52
320
56
49
243
247
13
82
203
25
6
104
213
373
240
284
319
257
63
390
262
293
173
48
195
346
53
392
305
422
10
311
71
164
339
404
39
76
180
155
30
403
160
163
386
250
265
42
83
35
211
332
32
15
371
5
113
60
161
44
296
385
93
258
231
396
290
205
79
266
127

>  <PUBCHEM_MMFF94_PARTIAL_CHARGES>  (1) 
19
1 -0.43
13 0.28
14 0.63
15 0.09
16 -0.15
17 -0.15
18 -0.15
19 -0.15
2 -0.57
20 -0.15
3 -0.81
4 0.27
41 0.15
42 0.15
43 0.15
44 0.15
45 0.15
8 0.27
9 0.27

>  <PUBCHEM_EFFECTIVE_ROTOR_COUNT>  (1) 
7.2

>  <PUBCHEM_PHARMACOPHORE_FEATURES>  (1) 
4
1 2 acceptor
1 3 cation
6 15 16 17 18 19 20 rings
6 3 4 5 6 7 8 rings

>  <PUBCHEM_HEAVY_ATOM_COUNT>  (1) 
20

>  <PUBCHEM_ATOM_DEF_STEREO_COUNT>  (1) 
0

>  <PUBCHEM_ATOM_UDEF_STEREO_COUNT>  (1) 
2

>  <PUBCHEM_BOND_DEF_STEREO_COUNT>  (1) 
0

>  <PUBCHEM_BOND_UDEF_STEREO_COUNT>  (1) 
0

>  <PUBCHEM_ISOTOPIC_ATOM_COUNT>  (1) 
0

>  <PUBCHEM_COMPONENT_COUNT>  (1) 
1

>  <PUBCHEM_CACTVS_TAUTO_COUNT>  (1) 
1

>  <PUBCHEM_CONFORMER_ID>  (1) 
0000BFB600000012

>  <PUBCHEM_MMFF94_ENERGY>  (1) 
37.2088

>  <PUBCHEM_FEATURE_SELFOVERLAP>  (1) 
20.297

>  <PUBCHEM_SHAPE_FINGERPRINT>  (1) 
10447042 23 12319735856567283240
10498660 4 18187916313685534445
10670039 82 17917150494662789569
10681291 71 18260832609013947449
10730089 43 17095794426498215413
10730089 88 16271930406781652897
11796584 16 15123506986663281103
12363563 72 13038912161161657690
12788726 201 18129676201239532744
13544653 18 10879994653095094618
13828863 39 16154286038327367636
14081887 123 12901540239259869175
1420 369 9871750204074775325
14251751 18 13901894635926266525
14341114 328 13334744530780074862
14429115 67 9511471025688523800
14787075 74 12468941804648967790
14840074 17 18336551530245816805
14848178 5 12319460965527589332
15183329 4 17989213616291452772
15210252 30 18187367666522504372
15342168 16 18040148513749237823
15575132 122 18337674105779498053
17349148 13 10159695819641999620
17834072 14 11384118526685182298
1813 80 17763170350613181650
18222031 100 10592047968613439056
20626108 58 11312053236071342286
20671657 53 13038903356526394675
21069387 34 13830135009301978026
21315764 119 15913331252425381005
21857420 4 14612561902038607805
21864079 5 18267009729842508545
23253445 4 15140683570698478727
23402655 69 18413390960291898276
23557571 272 17057777862632849267
23559900 14 16415468376600743977
25 1 18334859433115645770
251288 83 8718831994293231554
2637199 183 18412545409526615875
339767 52 10737286870473874281
3459 83 18200041633960286510
3797600 57 13767927923142385806
392239 28 12613040538815623068
46194498 28 17558275590119246518
474 4 18336819806523957867
5161694 15 16128650868764652595
633830 44 18260544532957904630
6442390 28 16660655071822984130
7064713 232 12179839489958977577
76465 3 11887681654225724614
7808743 9 17604434119034845284

>  <PUBCHEM_SHAPE_MULTIPOLES>  (1) 
394.87
12.11
2.24
1.63
2.34
0.35
-0.17
-7
-4.43
-0.74
0.35
-0.15
0.02
-1.21

>  <PUBCHEM_SHAPE_SELFOVERLAP>  (1) 
806.513

>  <PUBCHEM_SHAPE_VOLUME>  (1) 
228.9

>  <PUBCHEM_COORDINATE_TYPE>  (1) 
2
5
10

$$$$
