49089
     RDKit          3D

 23 23  0  0  0  0  0  0  0  0999 V2000
    2.3295   -2.6250    0.2149 S   0  0  0  0  0  0  0  0  0  0  0  0
    0.2919    0.7185    1.3871 O   0  0  0  0  0  0  0  0  0  0  0  0
    1.6051   -0.6590    2.6822 O   0  0  0  0  0  0  0  0  0  0  0  0
   -2.4094    1.0190    0.5893 N   0  0  0  0  0  0  0  0  0  0  0  0
   -3.2622   -0.1527    0.7966 C   0  0  0  0  0  0  0  0  0  0  0  0
   -3.1375    2.0652   -0.1189 C   0  0  0  0  0  0  0  0  0  0  0  0
   -1.9101    1.5167    1.8724 C   0  0  0  0  0  0  0  0  0  0  0  0
   -3.3257   -0.9946   -0.4767 C   0  0  0  0  0  0  0  0  0  0  0  0
   -2.1614    3.0487   -0.7622 C   0  0  0  0  0  0  0  0  0  0  0  0
   -4.1951   -2.2363   -0.2753 C   0  0  0  0  0  0  0  0  0  0  0  0
   -1.2320    2.3398   -1.7480 C   0  0  0  0  0  0  0  0  0  0  0  0
   -0.7442    0.6710    2.3592 C   0  0  0  0  0  0  0  0  0  0  0  0
   -4.2923   -3.0613   -1.5487 C   0  0  0  0  0  0  0  0  0  0  0  0
   -0.2807    3.3177   -2.4191 C   0  0  0  0  0  0  0  0  0  0  0  0
    1.4159    0.0060    1.6755 C   0  0  0  0  0  0  0  0  0  0  0  0
    2.4171    0.1386    0.5870 C   0  0  0  0  0  0  0  0  0  0  0  0
    2.8922   -0.9613   -0.1273 C   0  0  0  0  0  0  0  0  0  0  0  0
    2.8829    1.4188    0.2875 C   0  0  0  0  0  0  0  0  0  0  0  0
    3.8331   -0.7807   -1.1412 C   0  0  0  0  0  0  0  0  0  0  0  0
    3.8238    1.5993   -0.7263 C   0  0  0  0  0  0  0  0  0  0  0  0
    4.2990    0.4995   -1.4405 C   0  0  0  0  0  0  0  0  0  0  0  0
    0.9037   -2.7610   -0.8976 C   0  0  0  0  0  0  0  0  0  0  0  0
    0.2564   -4.1269   -0.7698 C   0  0  0  0  0  0  0  0  0  0  0  0
  1 17  1  0
  1 22  1  0
  2 12  1  0
  2 15  1  0
  3 15  2  0
  4  5  1  0
  4  6  1  0
  4  7  1  0
  5  8  1  0
  6  9  1  0
  7 12  1  0
  8 10  1  0
  9 11  1  0
 10 13  1  0
 11 14  1  0
 15 16  1  0
 16 17  2  0
 16 18  1  0
 17 19  1  0
 18 20  2  0
 19 21  2  0
 20 21  1  0
 22 23  1  0
M  END
>  <PUBCHEM_COMPOUND_CID>  (1) 
49089

>  <PUBCHEM_CONFORMER_RMSD>  (1) 
1

>  <PUBCHEM_CONFORMER_DIVERSEORDER>  (1) 
1
130
194
2
144
175
155
39
124
97
101
93
158
199
25
176
89
143
64
181
85
178
151
65
16
149
109
30
141
9
120
21
22
156
166
132
153
12
162
49
24
193
87
42
69
41
122
40
184
192
36
164
134
191
18
128
43
6
94
60
45
165
35
170
168
116
88
19
84
135
202
104
28
179
82
204
119
113
55
108
118
20
125
195
198
83
105
182
103
29
167
187
121
169
4
47
201
111
96
57
150
11
112
136
140
133
14
78
186
15
8
86
200
160
54
17
190
157
174
145
46
51
91
117
32
115
50
76
172
23
138
37
61
26
13
53
123
131
38
75
80
142
161
63
203
59
33
70
180
81
177
159
205
56
90
72
79
98
95
7
163
185
77
188
27
127
146
3
68
44
10
197
58
183
171
126
129
189
154
196
73
52
152
66
114
5
139
99
92
48
67
31
100
62
148
34
173
74
110
147
107
71
106
137
102

>  <PUBCHEM_MMFF94_PARTIAL_CHARGES>  (1) 
20
1 -0.33
12 0.28
15 0.63
16 0.09
17 0.1
18 -0.15
19 -0.15
2 -0.43
20 -0.15
21 -0.15
22 0.23
3 -0.57
4 -0.81
46 0.15
47 0.15
48 0.15
49 0.15
5 0.27
6 0.27
7 0.27

>  <PUBCHEM_EFFECTIVE_ROTOR_COUNT>  (1) 
13

>  <PUBCHEM_PHARMACOPHORE_FEATURES>  (1) 
6
1 13 hydrophobe
1 14 hydrophobe
1 23 hydrophobe
1 3 acceptor
1 4 cation
6 16 17 18 19 20 21 rings

>  <PUBCHEM_HEAVY_ATOM_COUNT>  (1) 
23

>  <PUBCHEM_ATOM_DEF_STEREO_COUNT>  (1) 
0

>  <PUBCHEM_ATOM_UDEF_STEREO_COUNT>  (1) 
0

>  <PUBCHEM_BOND_DEF_STEREO_COUNT>  (1) 
0

>  <PUBCHEM_BOND_UDEF_STEREO_COUNT>  (1) 
0

>  <PUBCHEM_ISOTOPIC_ATOM_COUNT>  (1) 
0

>  <PUBCHEM_COMPONENT_COUNT>  (1) 
1

>  <PUBCHEM_CACTVS_TAUTO_COUNT>  (1) 
1

>  <PUBCHEM_CONFORMER_ID>  (1) 
0000BFC100000001

>  <PUBCHEM_MMFF94_ENERGY>  (1) 
38.3199

>  <PUBCHEM_FEATURE_SELFOVERLAP>  (1) 
30.446

>  <PUBCHEM_SHAPE_FINGERPRINT>  (1) 
10498660 4 18335131025140233439
107951 10 16698672726700350201
11552529 35 18343023268149620157
15210252 30 17903906009132307454
15664445 248 18118670248490297985
17492 54 17898290755914664925
17921350 177 17248073320669310486
17977149 70 18340220626058566030
21421566 26 18408322194529412229
21713013 43 18202289103755808304
22393880 68 18342466889696173526
23114952 82 17974864864826261960
23557571 272 16662652854164023984
35225 105 17989199369568570719
3797600 57 17846786225624224598
394222 165 15330034848683687480
46194498 28 17900556587613249052
6287921 2 18337971054985026708

>  <PUBCHEM_SHAPE_MULTIPOLES>  (1) 
460.46
7.94
4.58
2.27
0.79
2.2
0.73
2.17
-2.61
2.82
-3.12
0.12
-1.07
-0.98

>  <PUBCHEM_SHAPE_SELFOVERLAP>  (1) 
890.481

>  <PUBCHEM_SHAPE_VOLUME>  (1) 
281.1

>  <PUBCHEM_COORDINATE_TYPE>  (1) 
2
5
10

$$$$
