49085
     RDKit          3D

 20 20  0  0  0  0  0  0  0  0999 V2000
   -0.3739   -0.7401    0.8800 O   0  0  0  0  0  0  0  0  0  0  0  0
    5.5522    0.2077   -0.8660 O   0  0  0  0  0  0  0  0  0  0  0  0
   -0.2302    1.4603    1.5411 O   0  0  0  0  0  0  0  0  0  0  0  0
   -4.9617   -0.0994   -0.5351 N   0  0  0  0  0  0  0  0  0  0  0  0
   -4.1071   -0.4655    0.5879 C   0  0  0  0  0  0  0  0  0  0  0  0
   -2.6392   -0.4038    0.1782 C   0  0  0  0  0  0  0  0  0  0  0  0
   -5.0192    1.3557   -0.6864 C   0  0  0  0  0  0  0  0  0  0  0  0
   -6.3087   -0.6445   -0.3574 C   0  0  0  0  0  0  0  0  0  0  0  0
   -1.7216   -0.8028    1.3259 C   0  0  0  0  0  0  0  0  0  0  0  0
   -5.8532    1.7497   -1.8936 C   0  0  0  0  0  0  0  0  0  0  0  0
   -6.2731   -2.1550   -0.1982 C   0  0  0  0  0  0  0  0  0  0  0  0
    0.2573    0.4551    1.0477 C   0  0  0  0  0  0  0  0  0  0  0  0
    1.6519    0.3901    0.5425 C   0  0  0  0  0  0  0  0  0  0  0  0
    2.4745    1.5140    0.6193 C   0  0  0  0  0  0  0  0  0  0  0  0
    2.1399   -0.7949   -0.0083 C   0  0  0  0  0  0  0  0  0  0  0  0
    4.2728    0.2679   -0.4054 C   0  0  0  0  0  0  0  0  0  0  0  0
    3.7849    1.4530    0.1455 C   0  0  0  0  0  0  0  0  0  0  0  0
    3.4503   -0.8559   -0.4823 C   0  0  0  0  0  0  0  0  0  0  0  0
    6.2078   -1.0577   -0.7981 C   0  0  0  0  0  0  0  0  0  0  0  0
    7.6962   -0.8339   -0.6371 C   0  0  0  0  0  0  0  0  0  0  0  0
  1  9  1  0
  1 12  1  0
  2 16  1  0
  2 19  1  0
  3 12  2  0
  4  5  1  0
  4  7  1  0
  4  8  1  0
  5  6  1  0
  6  9  1  0
  7 10  1  0
  8 11  1  0
 12 13  1  0
 13 14  2  0
 13 15  1  0
 14 17  1  0
 15 18  2  0
 16 17  2  0
 16 18  1  0
 19 20  1  0
M  END
>  <PUBCHEM_COMPOUND_CID>  (1) 
49085

>  <PUBCHEM_CONFORMER_RMSD>  (1) 
1

>  <PUBCHEM_CONFORMER_DIVERSEORDER>  (1) 
5
22
17
38
39
10
20
24
8
27
37
11
21
4
2
6
1
29
34
9
3
23
15
16
40
28
30
14
26
19
25
32
35
18
7
31
12
36
33
13

>  <PUBCHEM_MMFF94_PARTIAL_CHARGES>  (1) 
20
1 -0.43
12 0.63
13 0.09
14 -0.15
15 -0.15
16 0.08
17 -0.15
18 -0.15
19 0.28
2 -0.36
3 -0.57
37 0.15
38 0.15
39 0.15
4 -0.81
40 0.15
5 0.27
7 0.27
8 0.27
9 0.28

>  <PUBCHEM_EFFECTIVE_ROTOR_COUNT>  (1) 
10

>  <PUBCHEM_PHARMACOPHORE_FEATURES>  (1) 
4
1 2 acceptor
1 3 acceptor
1 4 cation
6 13 14 15 16 17 18 rings

>  <PUBCHEM_HEAVY_ATOM_COUNT>  (1) 
20

>  <PUBCHEM_ATOM_DEF_STEREO_COUNT>  (1) 
0

>  <PUBCHEM_ATOM_UDEF_STEREO_COUNT>  (1) 
0

>  <PUBCHEM_BOND_DEF_STEREO_COUNT>  (1) 
0

>  <PUBCHEM_BOND_UDEF_STEREO_COUNT>  (1) 
0

>  <PUBCHEM_ISOTOPIC_ATOM_COUNT>  (1) 
0

>  <PUBCHEM_COMPONENT_COUNT>  (1) 
1

>  <PUBCHEM_CACTVS_TAUTO_COUNT>  (1) 
1

>  <PUBCHEM_CONFORMER_ID>  (1) 
0000BFBD00000005

>  <PUBCHEM_MMFF94_ENERGY>  (1) 
46.0603

>  <PUBCHEM_FEATURE_SELFOVERLAP>  (1) 
20.297

>  <PUBCHEM_SHAPE_FINGERPRINT>  (1) 
10354089 29 11530481142872866310
10447042 23 17632859720296973812
10498660 4 17895459351129885453
106641 1 12391505383038427958
10670039 82 17458339719866653141
10730089 173 17386006139551199901
12236239 1 16988851583047005842
12596602 18 9943812179100574332
12616971 3 15123511454057094233
12670543 26 18261395524955751050
12954195 1 18341613647061714905
13177829 20 12535339096116474166
13668630 136 17847067687473745511
13862211 1 17988651778993277002
13964095 4 18040157297173362990
14251752 14 18113899338635169850
14251764 18 8934995953953514633
14508225 48 18272936007512676232
15048467 5 12829207797712187950
15183329 4 18334857177793312177
15188451 53 12175608591370789709
15475509 35 13110425424805495820
15716309 27 13902191473879356806
17780758 139 11384114151078897567
17834072 8 18410294704903028755
200 152 17632865208969759848
20281389 69 15430029976457950436
20645477 70 18060144249149196015
21267235 1 17917721213874114154
21315763 178 14908186330730608831
21637258 2 15913324667707246328
22079108 93 13542456537360295502
221357 26 18341606041159657457
22224240 67 10015578381467478292
23198884 109 17748828522955836395
23559900 14 18130221674564611088
2838139 119 16950288398899320757
29717793 49 17418102009442532720
3004659 81 18412544323263893370
3009799 131 18411418406657053992
312425 54 11671792576260892797
351380 3 15913329113446784239
465052 167 17274830189476125116
59682541 35 17060331930330537994
5969126 39 17274822407164800848
59755656 215 18114184108137010018
59755656 520 16370724846304791675
7471813 234 16702304572177773952

>  <PUBCHEM_SHAPE_MULTIPOLES>  (1) 
389
19.75
1.71
1.26
1.1
0.2
0
-4.25
-10.1
-1.84
-0.23
-0.67
0.36
1.85

>  <PUBCHEM_SHAPE_SELFOVERLAP>  (1) 
774.279

>  <PUBCHEM_SHAPE_VOLUME>  (1) 
232.2

>  <PUBCHEM_COORDINATE_TYPE>  (1) 
2
5
10

$$$$
