49092
     RDKit          3D

 16 16  0  0  1  0  0  0  0  0999 V2000
    2.3874    1.6117   -1.0073 O   0  0  0  0  0  0  0  0  0  0  0  0
   -1.9563   -1.9628    0.6744 O   0  0  0  0  0  0  0  0  0  0  0  0
   -3.6264    0.2014    0.1745 O   0  0  0  0  0  0  0  0  0  0  0  0
    2.8511   -0.0641    0.6657 C   0  0  0  0  0  0  0  0  0  0  0  0
    3.7725   -0.9441   -0.1971 C   0  0  0  0  0  0  0  0  0  0  0  0
    1.9354    0.7917   -0.2095 C   0  0  0  0  0  0  0  0  0  0  0  0
    3.6849    0.8614    1.5508 C   0  0  0  0  0  0  0  0  0  0  0  0
    0.4584    0.6317   -0.1055 C   0  0  0  0  0  0  0  0  0  0  0  0
    2.9950   -1.9014   -1.0917 C   0  0  0  0  0  0  0  0  0  0  0  0
   -0.0519   -0.6008    0.2392 C   0  0  0  0  0  0  0  0  0  0  0  0
   -0.3455    1.7216   -0.3592 C   0  0  0  0  0  0  0  0  0  0  0  0
   -1.4355   -0.7509    0.3349 C   0  0  0  0  0  0  0  0  0  0  0  0
   -2.2738    0.3353    0.0837 C   0  0  0  0  0  0  0  0  0  0  0  0
   -1.7288    1.5715   -0.2634 C   0  0  0  0  0  0  0  0  0  0  0  0
   -2.2541   -2.8621   -0.3920 C   0  0  0  0  0  0  0  0  0  0  0  0
   -4.4122    1.3601   -0.0978 C   0  0  0  0  0  0  0  0  0  0  0  0
  1  6  2  0
  2 12  1  0
  2 15  1  0
  3 13  1  0
  3 16  1  0
  4  5  1  0
  4  6  1  0
  4  7  1  0
  5  9  1  0
  6  8  1  0
  8 10  2  0
  8 11  1  0
 10 12  1  0
 11 14  2  0
 12 13  2  0
 13 14  1  0
M  END
>  <PUBCHEM_COMPOUND_CID>  (1) 
49092

>  <PUBCHEM_CONFORMER_RMSD>  (1) 
0.6

>  <PUBCHEM_CONFORMER_DIVERSEORDER>  (1) 
151
87
113
125
48
71
139
93
124
30
143
27
17
61
134
26
156
119
44
153
73
46
140
157
32
99
114
97
133
131
154
142
132
77
62
128
37
67
137
110
56
75
60
95
144
121
141
68
149
16
150
79
115
33
130
83
111
42
94
152
59
22
76
51
90
112
145
34
135
57
72
64
43
136
49
36
127
86
14
50
63
109
148
98
31
78
55
58
45
38
24
103
155
13
104
29
47
53
5
100
96
1
74
146
92
35
129
15
28
12
105
21
84
102
101
147
41
91
52
88
25
39
126
8
106
81
138
108
20
54
4
117
6
18
118
19
122
65
23
40
123
3
82
85
80
89
69
10
66
7
70
116
107
2
9
120
11

>  <PUBCHEM_MMFF94_PARTIAL_CHARGES>  (1) 
16
1 -0.57
10 -0.15
11 -0.15
12 0.08
13 0.08
14 -0.15
15 0.28
16 0.28
2 -0.36
26 0.15
27 0.15
28 0.15
3 -0.36
4 0.06
6 0.42
8 0.09

>  <PUBCHEM_EFFECTIVE_ROTOR_COUNT>  (1) 
5

>  <PUBCHEM_PHARMACOPHORE_FEATURES>  (1) 
6
1 1 acceptor
1 2 acceptor
1 3 acceptor
1 7 hydrophobe
1 9 hydrophobe
6 8 10 11 12 13 14 rings

>  <PUBCHEM_HEAVY_ATOM_COUNT>  (1) 
16

>  <PUBCHEM_ATOM_DEF_STEREO_COUNT>  (1) 
0

>  <PUBCHEM_ATOM_UDEF_STEREO_COUNT>  (1) 
1

>  <PUBCHEM_BOND_DEF_STEREO_COUNT>  (1) 
0

>  <PUBCHEM_BOND_UDEF_STEREO_COUNT>  (1) 
0

>  <PUBCHEM_ISOTOPIC_ATOM_COUNT>  (1) 
0

>  <PUBCHEM_COMPONENT_COUNT>  (1) 
1

>  <PUBCHEM_CACTVS_TAUTO_COUNT>  (1) 
2

>  <PUBCHEM_CONFORMER_ID>  (1) 
0000BFC400000097

>  <PUBCHEM_MMFF94_ENERGY>  (1) 
59.2693

>  <PUBCHEM_FEATURE_SELFOVERLAP>  (1) 
30.45

>  <PUBCHEM_SHAPE_FINGERPRINT>  (1) 
10366900 7 17847056684205259616
10922523 26 18410294696487290982
11132069 177 18409161121484504953
12251169 10 18333444344265093800
12382932 28 18339918311710416280
12500047 106 18343578560022955978
12553582 1 17834402597817545239
13083527 12 17335034133343913747
13140716 1 18261391195259581816
13380535 76 18411981334740188263
13544592 145 18271248197012729318
13675066 3 18410855451886672897
14115302 16 18409453574265943684
14178342 30 18337378439866402842
15219456 202 18272650151710618178
15375358 24 18341887494059690096
15669948 3 18263367039240314269
16752209 62 18115304449781093693
16945 1 18187078416947391197
17804303 29 18268995285102960750
17980427 23 17970616609980085236
18186145 218 18265613191367385445
18522853 266 18409735100771374758
19049666 15 18056756538345094160
20279233 1 18272369767713616482
20510252 161 18270394975815930889
20645476 183 16805906033813948595
20645477 56 18410289220457009033
20645477 70 17274822428823610372
21501502 16 18189616231518348981
23048698 100 15769770252252664168
2334 1 18118127097876642691
23402539 116 18342164545473605533
23419403 2 17253382149244701204
23463225 33 18260548930734922584
23557571 272 18270398416279387514
23559900 14 18342175570839237888
2748010 2 18410865390103502535
495365 180 17632282454964341010
69090 78 18341044147224488639
7364860 26 18410580625899488852
74978 22 18335709355250287044
81228 2 18334575771673267337
9709674 26 18342737424990527422

>  <PUBCHEM_SHAPE_MULTIPOLES>  (1) 
311.66
7.2
2.41
0.97
0.2
1.56
0.1
-0.35
0.53
1.02
-0.42
-0.87
-0.05
0.74

>  <PUBCHEM_SHAPE_SELFOVERLAP>  (1) 
635.79

>  <PUBCHEM_SHAPE_VOLUME>  (1) 
182.5

>  <PUBCHEM_COORDINATE_TYPE>  (1) 
2
5
10

$$$$
