49096
     RDKit          3D

 14 14  0  0  0  0  0  0  0  0999 V2000
   -1.7460    2.5283   -0.0159 Cl  0  0  0  0  0  0  0  0  0  0  0  0
    3.0666   -0.1985    0.5252 O   0  0  0  0  0  0  0  0  0  0  0  0
    4.7820    0.1698   -0.9653 O   0  0  0  0  0  0  0  0  0  0  0  0
    5.2020   -0.2593    1.2543 N   0  0  0  0  0  0  0  0  0  0  0  0
   -0.3670   -0.0428   -1.0131 C   0  0  0  0  0  0  0  0  0  0  0  0
    0.7177   -0.1986    0.0580 C   0  0  0  0  0  0  0  0  0  0  0  0
   -1.7434   -0.1636   -0.4427 C   0  0  0  0  0  0  0  0  0  0  0  0
    2.1166   -0.0270   -0.5174 C   0  0  0  0  0  0  0  0  0  0  0  0
   -2.4395    0.9483    0.0314 C   0  0  0  0  0  0  0  0  0  0  0  0
   -2.3296   -1.4282   -0.3900 C   0  0  0  0  0  0  0  0  0  0  0  0
   -3.7219    0.7957    0.5585 C   0  0  0  0  0  0  0  0  0  0  0  0
   -3.6121   -1.5809    0.1370 C   0  0  0  0  0  0  0  0  0  0  0  0
   -4.3081   -0.4690    0.6114 C   0  0  0  0  0  0  0  0  0  0  0  0
    4.3826   -0.0740    0.1684 C   0  0  0  0  0  0  0  0  0  0  0  0
  1  9  1  0
  2  8  1  0
  2 14  1  0
  3 14  2  0
  4 14  1  0
  5  6  1  0
  5  7  1  0
  6  8  1  0
  7  9  2  0
  7 10  1  0
  9 11  1  0
 10 12  2  0
 11 13  2  0
 12 13  1  0
M  END
>  <PUBCHEM_COMPOUND_CID>  (1) 
49096

>  <PUBCHEM_CONFORMER_RMSD>  (1) 
0.6

>  <PUBCHEM_CONFORMER_DIVERSEORDER>  (1) 
1
94
69
95
63
45
84
4
72
71
87
38
83
43
55
90
66
88
9
64
79
42
51
73
82
65
53
21
39
3
54
61
62
10
50
48
74
60
98
70
2
58
40
18
89
44
17
46
57
86
77
76
20
85
78
33
97
52
49
26
6
16
37
5
15
27
35
25
28
24
91
7
23
41
99
47
12
30
93
8
14
34
75
96
68
22
80
67
31
100
19
92
29
11
36
13
81
32
56
59

>  <PUBCHEM_MMFF94_PARTIAL_CHARGES>  (1) 
19
1 -0.18
10 -0.15
11 -0.15
12 -0.15
13 -0.15
14 0.78
2 -0.43
21 0.15
22 0.15
23 0.15
24 0.15
25 0.37
26 0.37
3 -0.57
4 -0.8
5 0.14
7 -0.14
8 0.28
9 0.18

>  <PUBCHEM_EFFECTIVE_ROTOR_COUNT>  (1) 
5

>  <PUBCHEM_PHARMACOPHORE_FEATURES>  (1) 
3
1 3 acceptor
1 4 donor
6 7 9 10 11 12 13 rings

>  <PUBCHEM_HEAVY_ATOM_COUNT>  (1) 
14

>  <PUBCHEM_ATOM_DEF_STEREO_COUNT>  (1) 
0

>  <PUBCHEM_ATOM_UDEF_STEREO_COUNT>  (1) 
0

>  <PUBCHEM_BOND_DEF_STEREO_COUNT>  (1) 
0

>  <PUBCHEM_BOND_UDEF_STEREO_COUNT>  (1) 
0

>  <PUBCHEM_ISOTOPIC_ATOM_COUNT>  (1) 
0

>  <PUBCHEM_COMPONENT_COUNT>  (1) 
1

>  <PUBCHEM_CACTVS_TAUTO_COUNT>  (1) 
2

>  <PUBCHEM_CONFORMER_ID>  (1) 
0000BFC800000001

>  <PUBCHEM_MMFF94_ENERGY>  (1) 
26.344

>  <PUBCHEM_FEATURE_SELFOVERLAP>  (1) 
15.223

>  <PUBCHEM_SHAPE_FINGERPRINT>  (1) 
10680689 15 17775564247454114878
10726558 24 8790617996121805969
10912923 1 18040156227800333280
11132069 177 18272941509523082541
12251169 10 18413110571683418285
13167823 11 18187362095801741098
13214271 11 18202282498750066149
13675066 3 17775283872331890670
13897977 58 18410581694691951500
17834072 33 18041002873218040516
18186145 218 16343699937616317294
19050596 39 18334576854115717524
200 152 16153425060487716191
20432913 95 16370722604679587088
20645477 56 17489580182559346940
20645477 70 14779537968854835778
21637258 2 16443636813155197611
21650355 55 18410857702776291059
22646028 1 17676485055831363682
2297311 6 18271259269343271740
23380061 127 18334853900717473380
23402539 116 18343577461028351647
23403322 49 13262394453563776961
23557571 272 18130241362636835796
23559900 14 18128554677545337662
2838139 119 14404076665092628235
42 15 18408040697882504142
573450 72 18260540096198081162
633830 44 14189577451308674948
69474 34 18202004352399864569

>  <PUBCHEM_SHAPE_MULTIPOLES>  (1) 
273.26
10.4
1.61
0.93
14.01
0.86
0.01
-1.52
2.6
-2.16
-0.02
0.55
-0.04
-0.2

>  <PUBCHEM_SHAPE_SELFOVERLAP>  (1) 
546.477

>  <PUBCHEM_SHAPE_VOLUME>  (1) 
161.1

>  <PUBCHEM_COORDINATE_TYPE>  (1) 
2
5
10

$$$$
