49094
     RDKit          3D

 21 23  0  0  1  0  0  0  0  0999 V2000
    0.1049    1.1770    0.5626 O   0  0  0  0  0  0  0  0  0  0  0  0
   -0.3517    1.3158   -1.6978 O   0  0  0  0  0  0  0  0  0  0  0  0
    6.2415   -0.6496    0.3162 O   0  0  0  0  0  0  0  0  0  0  0  0
    3.5174   -0.0100   -0.2046 N   0  0  0  0  0  0  0  0  0  0  0  0
   -2.4656   -0.2853    0.6169 C   0  0  0  0  0  0  0  0  0  0  0  0
   -4.0190   -0.3696    0.4618 C   0  0  0  0  0  0  0  0  0  0  0  0
   -3.9119   -0.2490   -1.0809 C   0  0  0  0  0  0  0  0  0  0  0  0
   -2.1359    1.0616   -0.1003 C   0  0  0  0  0  0  0  0  0  0  0  0
   -1.9833   -1.4570   -0.2851 C   0  0  0  0  0  0  0  0  0  0  0  0
   -3.1161    1.0616   -1.2901 C   0  0  0  0  0  0  0  0  0  0  0  0
   -2.9645   -1.4059   -1.4681 C   0  0  0  0  0  0  0  0  0  0  0  0
   -1.9226   -0.3652    2.0321 C   0  0  0  0  0  0  0  0  0  0  0  0
   -4.6685   -1.6833    0.9445 C   0  0  0  0  0  0  0  0  0  0  0  0
   -4.8201    0.7674    1.1286 C   0  0  0  0  0  0  0  0  0  0  0  0
   -0.7070    1.2006   -0.5326 C   0  0  0  0  0  0  0  0  0  0  0  0
    1.5049    1.3008    0.2929 C   0  0  0  0  0  0  0  0  0  0  0  0
    2.0885   -0.0886    0.0916 C   0  0  0  0  0  0  0  0  0  0  0  0
    4.2495    0.5990    0.9145 C   0  0  0  0  0  0  0  0  0  0  0  0
    4.0635   -1.3425   -0.4979 C   0  0  0  0  0  0  0  0  0  0  0  0
    5.7388    0.6593    0.5870 C   0  0  0  0  0  0  0  0  0  0  0  0
    5.5573   -1.2371   -0.7912 C   0  0  0  0  0  0  0  0  0  0  0  0
  1 15  1  0
  1 16  1  0
  2 15  2  0
  3 20  1  0
  3 21  1  0
  4 17  1  0
  4 18  1  0
  4 19  1  0
  5  6  1  0
  5  8  1  0
  5  9  1  0
  5 12  1  0
  6  7  1  0
  6 13  1  0
  6 14  1  0
  7 10  1  0
  7 11  1  0
  8 10  1  0
  8 15  1  0
  9 11  1  0
 16 17  1  0
 18 20  1  0
 19 21  1  0
M  END
>  <PUBCHEM_COMPOUND_CID>  (1) 
49094

>  <PUBCHEM_CONFORMER_RMSD>  (1) 
0.8

>  <PUBCHEM_CONFORMER_DIVERSEORDER>  (1) 
7
199
104
181
41
131
71
226
54
163
222
169
120
266
175
134
138
275
179
223
33
184
29
249
157
198
69
182
150
18
135
140
174
13
93
80
11
64
45
283
264
246
42
61
25
99
265
158
10
142
245
1
188
177
82
88
218
14
183
154
231
6
227
119
268
202
30
162
168
220
126
16
21
230
95
111
270
38
248
22
148
109
51
83
121
101
189
20
127
225
217
40
276
67
272
107
146
116
161
130
85
269
284
279
149
254
52
211
76
237
124
103
185
228
219
137
261
43
105
78
122
201
259
72
37
102
63
36
91
159
5
214
128
224
79
89
255
196
114
250
244
281
70
112
68
274
125
98
206
203
145
19
90
139
46
205
108
44
155
282
191
171
73
260
129
256
26
235
234
200
39
34
233
35
242
204
31
262
17
3
12
173
190
55
240
273
252
133
236
81
278
213
96
195
62
277
15
86
75
176
110
257
241
212
32
156
60
23
74
263
253
144
192
141
280
229
170
247
49
77
238
251
151
106
172
117
143
47
53
57
59
197
48
66
210
92
87
285
115
209
2
239
167
258
147
100
207
194
153
221
243
132
58
232
50
56
152
118
165
113
97
164
24
166
136
84
178
271
9
160
215
267
180
216
187
123
208
27
94
4
193
65
28
186
8

>  <PUBCHEM_MMFF94_PARTIAL_CHARGES>  (1) 
12
1 -0.43
15 0.66
16 0.28
17 0.27
18 0.27
19 0.27
2 -0.57
20 0.28
21 0.28
3 -0.56
4 -0.81
8 0.06

>  <PUBCHEM_EFFECTIVE_ROTOR_COUNT>  (1) 
7.2

>  <PUBCHEM_PHARMACOPHORE_FEATURES>  (1) 
6
1 2 acceptor
1 3 acceptor
1 4 cation
3 6 13 14 hydrophobe
6 3 4 18 19 20 21 rings
7 5 6 7 8 9 10 11 rings

>  <PUBCHEM_HEAVY_ATOM_COUNT>  (1) 
21

>  <PUBCHEM_ATOM_DEF_STEREO_COUNT>  (1) 
0

>  <PUBCHEM_ATOM_UDEF_STEREO_COUNT>  (1) 
3

>  <PUBCHEM_BOND_DEF_STEREO_COUNT>  (1) 
0

>  <PUBCHEM_BOND_UDEF_STEREO_COUNT>  (1) 
0

>  <PUBCHEM_ISOTOPIC_ATOM_COUNT>  (1) 
0

>  <PUBCHEM_COMPONENT_COUNT>  (1) 
1

>  <PUBCHEM_CACTVS_TAUTO_COUNT>  (1) 
1

>  <PUBCHEM_CONFORMER_ID>  (1) 
0000BFC600000007

>  <PUBCHEM_MMFF94_ENERGY>  (1) 
70.1943

>  <PUBCHEM_FEATURE_SELFOVERLAP>  (1) 
30.446

>  <PUBCHEM_SHAPE_FINGERPRINT>  (1) 
11089746 13 11025797605211285108
11128504 68 16008755718941819100
11315181 36 17346592002122747912
11370993 144 17988929933400825828
11552529 35 16844151532332403430
12107183 9 16339230246571606802
12236239 1 16559030493617548256
12507557 5 11959724988518679275
12596602 18 16343696660524810178
12633257 1 17131839801774638207
12670546 177 14923948963670033946
128620 24 18113617876743671702
13288520 33 18186802469693895316
13544653 18 18412544318995442612
13685833 64 18409735092382082171
13914758 101 16845571972949510617
14251757 5 15286221603771522936
14251764 18 17489871548840498073
14341114 176 17489594463304526864
14341114 328 15984828146597704538
14386348 63 18408604756042904994
15463212 79 13623814989734664672
15537594 2 18260830380147980338
15788980 27 18113898260756595212
15880784 105 17989486342488515434
16945 1 17023729222453439149
17349148 13 17095522885933840720
17780758 139 17847062177014620595
17844677 252 18272934908449116048
17870717 6 17894912914671251575
1813 80 18113625585856859084
19141452 34 18272933838331872191
19489759 90 17385438813157679922
200 152 17917708006891688632
20300324 65 12396298162407493927
20325693 3 16443061695258739207
20374829 77 17967812760174752713
20871999 31 16515398573602764549
21403212 168 18341622452424608393
23402539 116 16877936114634256876
23557571 272 18041273275938335060
23559900 14 18270386295676352600
26918003 58 17203326714896666296
314173 85 18334293162867726332
351380 3 18334294262648171522
4028521 119 9151179739979251919
4325135 7 18408606989916659076
542803 24 16272208600456096936
5924683 9 17131541851651507879

>  <PUBCHEM_SHAPE_MULTIPOLES>  (1) 
409.58
13.45
1.61
1.44
19.29
0.31
-0.02
3.37
-2.07
-0.18
0.2
-1.48
-0.06
0.6

>  <PUBCHEM_SHAPE_SELFOVERLAP>  (1) 
855.505

>  <PUBCHEM_SHAPE_VOLUME>  (1) 
238.6

>  <PUBCHEM_COORDINATE_TYPE>  (1) 
2
5
10

$$$$
