49100
     RDKit          3D

 11 10  0  0  0  0  0  0  0  0999 V2000
   -4.5796   -0.5990   -0.3979 Cl  0  0  0  0  0  0  0  0  0  0  0  0
   -3.0625    1.8930   -0.3929 Cl  0  0  0  0  0  0  0  0  0  0  0  0
    1.4308    0.2552    0.3960 O   0  0  0  0  0  0  0  0  0  0  0  0
    0.2534   -1.5246   -0.4534 O   0  0  0  0  0  0  0  0  0  0  0  0
   -0.7722    0.1306    0.8078 N   0  0  0  0  0  0  0  0  0  0  0  0
    3.7823    0.6721    0.1336 C   0  0  0  0  0  0  0  0  0  0  0  0
    2.6283   -0.2631   -0.1938 C   0  0  0  0  0  0  0  0  0  0  0  0
   -2.1191   -0.3915    0.7813 C   0  0  0  0  0  0  0  0  0  0  0  0
    5.0880    0.1923   -0.4744 C   0  0  0  0  0  0  0  0  0  0  0  0
   -2.9472    0.1153   -0.3950 C   0  0  0  0  0  0  0  0  0  0  0  0
    0.2979   -0.4803    0.1886 C   0  0  0  0  0  0  0  0  0  0  0  0
  1 10  1  0
  2 10  1  0
  3  7  1  0
  3 11  1  0
  4 11  2  0
  5  8  1  0
  5 11  1  0
  6  7  1  0
  6  9  1  0
  8 10  1  0
M  END
>  <PUBCHEM_COMPOUND_CID>  (1) 
49100

>  <PUBCHEM_CONFORMER_RMSD>  (1) 
0.6

>  <PUBCHEM_CONFORMER_DIVERSEORDER>  (1) 
1
184
136
76
6
180
77
186
156
172
165
16
194
106
125
169
198
166
35
53
174
107
197
70
179
196
110
5
130
104
144
62
120
28
142
113
9
109
171
63
72
188
175
146
59
195
143
87
129
105
153
123
98
75
2
122
157
137
108
61
185
91
18
100
154
92
111
84
161
135
164
17
191
158
189
43
74
170
50
121
45
114
173
3
22
148
101
183
20
42
27
73
127
160
13
29
97
190
65
192
159
128
163
103
182
134
14
112
47
95
55
57
193
31
162
138
11
155
51
96
90
176
181
167
145
30
115
15
94
38
21
177
116
78
140
4
93
118
82
187
89
54
10
8
117
126
46
99
150
36
86
88
66
71
178
67
147
19
124
25
48
12
52
44
151
79
7
68
41
26
81
24
139
23
83
119
152
34
80
60
37
133
168
33
49
56
85
64
131
58
102
149
141
132
40
39
32
69

>  <PUBCHEM_MMFF94_PARTIAL_CHARGES>  (1) 
10
1 -0.29
10 0.58
11 0.78
2 -0.29
21 0.37
3 -0.43
4 -0.57
5 -0.73
7 0.28
8 0.3

>  <PUBCHEM_EFFECTIVE_ROTOR_COUNT>  (1) 
6

>  <PUBCHEM_PHARMACOPHORE_FEATURES>  (1) 
3
1 4 acceptor
1 5 donor
1 9 hydrophobe

>  <PUBCHEM_HEAVY_ATOM_COUNT>  (1) 
11

>  <PUBCHEM_ATOM_DEF_STEREO_COUNT>  (1) 
0

>  <PUBCHEM_ATOM_UDEF_STEREO_COUNT>  (1) 
0

>  <PUBCHEM_BOND_DEF_STEREO_COUNT>  (1) 
0

>  <PUBCHEM_BOND_UDEF_STEREO_COUNT>  (1) 
0

>  <PUBCHEM_ISOTOPIC_ATOM_COUNT>  (1) 
0

>  <PUBCHEM_COMPONENT_COUNT>  (1) 
1

>  <PUBCHEM_CACTVS_TAUTO_COUNT>  (1) 
2

>  <PUBCHEM_CONFORMER_ID>  (1) 
0000BFCC00000001

>  <PUBCHEM_MMFF94_ENERGY>  (1) 
4.3769

>  <PUBCHEM_FEATURE_SELFOVERLAP>  (1) 
15.223

>  <PUBCHEM_SHAPE_FINGERPRINT>  (1) 
11062470 55 15430033270713722922
114248 4 17917992801983588052
12162725 195 17967256403112389797
12932764 1 17631996590710375755
13690532 89 17917714599961997406
14252887 29 12324238335245301400
14325111 11 18411418384438457914
14993402 34 18413108385545038500
17834072 33 16515974777719908990
17834076 25 16660642968377977875
18186145 218 17346308315174446664
18342897 14 11241969278474491750
20281407 28 11095882665896968149
20300324 65 18408602565567587445
20645477 56 18261396620235916353
20645477 70 17845945030942555278
20767249 213 17095242552980594060
20828058 44 9727631708963850308
21293036 1 18059856181360431506
22169311 14 8142078767353952103
22485316 2 10519988153655594540
23402539 116 18113332042428163103
23402655 69 18341043017890864957
23557571 272 18343870995983299805
265663 24 18114175337301861426
366044 4 18343584066377127958
449060 50 15646774487654540706

>  <PUBCHEM_SHAPE_MULTIPOLES>  (1) 
213.39
9.79
1.27
0.81
5.81
0.45
0.04
1.49
-2.01
-1.1
-0.17
-0.17
-0.03
0.15

>  <PUBCHEM_SHAPE_SELFOVERLAP>  (1) 
375.977

>  <PUBCHEM_SHAPE_VOLUME>  (1) 
140.6

>  <PUBCHEM_COORDINATE_TYPE>  (1) 
2
5
10

$$$$
