49106
     RDKit          3D

 13 13  0  0  0  0  0  0  0  0999 V2000
    0.6097   -0.0234    0.7551 O   0  0  0  0  0  0  0  0  0  0  0  0
    1.1114   -0.4238   -1.4691 O   0  0  0  0  0  0  0  0  0  0  0  0
    2.8286   -0.0913    0.0640 N   0  0  0  0  0  0  0  0  0  0  0  0
   -0.8155    2.2711   -0.0340 N   0  0  0  0  0  0  0  0  0  0  0  0
   -0.7427   -0.1243    0.4127 C   0  0  0  0  0  0  0  0  0  0  0  0
   -1.4331    1.0029    0.0274 C   0  0  0  0  0  0  0  0  0  0  0  0
   -1.3311   -1.3684    0.4783 C   0  0  0  0  0  0  0  0  0  0  0  0
   -2.7811    0.8808   -0.3097 C   0  0  0  0  0  0  0  0  0  0  0  0
    1.4870   -0.1994   -0.3190 C   0  0  0  0  0  0  0  0  0  0  0  0
   -2.6791   -1.4906    0.1411 C   0  0  0  0  0  0  0  0  0  0  0  0
   -3.4041   -0.3660   -0.2529 C   0  0  0  0  0  0  0  0  0  0  0  0
    3.8864   -0.2464   -0.9243 C   0  0  0  0  0  0  0  0  0  0  0  0
    3.2634    0.1788    1.4305 C   0  0  0  0  0  0  0  0  0  0  0  0
  1  5  1  0
  1  9  1  0
  2  9  2  0
  3  9  1  0
  3 12  1  0
  3 13  1  0
  4  6  1  0
  5  6  2  0
  5  7  1  0
  6  8  1  0
  7 10  2  0
  8 11  2  0
 10 11  1  0
M  END
>  <PUBCHEM_COMPOUND_CID>  (1) 
49106

>  <PUBCHEM_CONFORMER_RMSD>  (1) 
0.6

>  <PUBCHEM_CONFORMER_DIVERSEORDER>  (1) 
1
17
7
11
9
12
15
10
14
6
4
13
16
8
2
3
5

>  <PUBCHEM_MMFF94_PARTIAL_CHARGES>  (1) 
19
1 -0.23
10 -0.15
11 -0.15
12 0.3
13 0.3
14 0.15
15 0.15
16 0.15
2 -0.57
23 0.15
24 0.4
25 0.4
3 -0.66
4 -0.9
5 0.08
6 0.1
7 -0.15
8 -0.15
9 0.78

>  <PUBCHEM_EFFECTIVE_ROTOR_COUNT>  (1) 
3

>  <PUBCHEM_PHARMACOPHORE_FEATURES>  (1) 
4
1 2 acceptor
1 4 cation
1 4 donor
6 5 6 7 8 10 11 rings

>  <PUBCHEM_HEAVY_ATOM_COUNT>  (1) 
13

>  <PUBCHEM_ATOM_DEF_STEREO_COUNT>  (1) 
0

>  <PUBCHEM_ATOM_UDEF_STEREO_COUNT>  (1) 
0

>  <PUBCHEM_BOND_DEF_STEREO_COUNT>  (1) 
0

>  <PUBCHEM_BOND_UDEF_STEREO_COUNT>  (1) 
0

>  <PUBCHEM_ISOTOPIC_ATOM_COUNT>  (1) 
0

>  <PUBCHEM_COMPONENT_COUNT>  (1) 
1

>  <PUBCHEM_CACTVS_TAUTO_COUNT>  (1) 
1

>  <PUBCHEM_CONFORMER_ID>  (1) 
0000BFD200000001

>  <PUBCHEM_MMFF94_ENERGY>  (1) 
46.9875

>  <PUBCHEM_FEATURE_SELFOVERLAP>  (1) 
20.297

>  <PUBCHEM_SHAPE_FINGERPRINT>  (1) 
12716758 59 18339362937810363995
12932764 1 17989203737777228270
13024252 1 17313110752434384403
13296908 3 18131070454480700218
14144814 61 17167581587772670146
14614273 12 18042678408669228333
14911166 2 18335691763802649711
14993402 34 17167864170798358110
15219456 202 17918270956808128280
15669948 3 18261109707466800546
15775835 57 17385727967272249965
16945 1 18408603643356238009
18175812 5 17917992797530391284
20201158 50 18060422399889642087
20279233 1 18060697299440253514
20645476 183 17385729131382915147
21061003 4 17203614799759480440
23402539 116 18340194228988876909
23532345 42 18341044232939166360
23557571 272 18343592827899071133
23559900 14 18411697656729974390
2748010 2 18120083133943070433
57812782 119 18130784547282278454
6333449 129 18342175544678836121
75552 356 18334859424150833223
77492 1 17385438812957252570
81228 2 18340220578618986809

>  <PUBCHEM_SHAPE_MULTIPOLES>  (1) 
245.83
6.15
1.44
1.05
3.66
0.47
0
-0.76
-0.39
-1.22
0.06
0.97
-0.08
0.29

>  <PUBCHEM_SHAPE_SELFOVERLAP>  (1) 
505.14

>  <PUBCHEM_SHAPE_VOLUME>  (1) 
142.1

>  <PUBCHEM_COORDINATE_TYPE>  (1) 
2
5
10

$$$$
