49117
     RDKit          3D

 12 11  0  0  1  0  0  0  0  0999 V2000
    0.9009    0.2949   -0.6304 S   0  0  0  0  0  0  0  0  0  0  0  0
   -0.2438   -0.2600    0.9908 S   0  0  0  0  0  0  0  0  0  0  0  0
   -1.9606   -2.3188   -0.2714 S   0  0  0  0  0  0  0  0  0  0  0  0
    0.7678    1.7859   -0.5359 O   0  0  0  0  0  0  0  0  0  0  0  0
   -2.7287    0.3138    0.0413 N   0  0  0  0  0  0  0  0  0  0  0  0
    2.5551   -0.1378   -0.0405 C   0  0  0  0  0  0  0  0  0  0  0  0
    2.5822   -1.6399    0.2580 C   0  0  0  0  0  0  0  0  0  0  0  0
    3.5632    0.2006   -1.1427 C   0  0  0  0  0  0  0  0  0  0  0  0
    2.8651    0.6624    1.2282 C   0  0  0  0  0  0  0  0  0  0  0  0
   -1.7733   -0.7087    0.2055 C   0  0  0  0  0  0  0  0  0  0  0  0
   -4.0425    0.1161   -0.5783 C   0  0  0  0  0  0  0  0  0  0  0  0
   -2.4853    1.6915    0.4755 C   0  0  0  0  0  0  0  0  0  0  0  0
  1  2  1  0
  1  4  2  0
  1  6  1  0
  2 10  1  0
  3 10  2  0
  5 10  1  0
  5 11  1  0
  5 12  1  0
  6  7  1  0
  6  8  1  0
  6  9  1  0
M  END
>  <PUBCHEM_COMPOUND_CID>  (1) 
49117

>  <PUBCHEM_CONFORMER_RMSD>  (1) 
0.6

>  <PUBCHEM_CONFORMER_DIVERSEORDER>  (1) 
1
65
28
39
23
33
61
55
42
53
50
56
43
16
62
48
13
52
32
63
47
49
41
64
51
8
38
24
58
6
15
36
29
25
40
60
26
18
11
19
27
17
30
3
44
22
57
7
31
46
2
54
12
35
45
20
4
21
10
5
59
37
34
9
14

>  <PUBCHEM_MMFF94_PARTIAL_CHARGES>  (1) 
9
1 0.35
10 0.58
11 0.3
12 0.3
2 -0.19
3 -0.38
4 -0.5
5 -0.66
6 0.19

>  <PUBCHEM_EFFECTIVE_ROTOR_COUNT>  (1) 
4

>  <PUBCHEM_PHARMACOPHORE_FEATURES>  (1) 
2
1 3 acceptor
4 6 7 8 9 hydrophobe

>  <PUBCHEM_HEAVY_ATOM_COUNT>  (1) 
12

>  <PUBCHEM_ATOM_DEF_STEREO_COUNT>  (1) 
0

>  <PUBCHEM_ATOM_UDEF_STEREO_COUNT>  (1) 
1

>  <PUBCHEM_BOND_DEF_STEREO_COUNT>  (1) 
0

>  <PUBCHEM_BOND_UDEF_STEREO_COUNT>  (1) 
0

>  <PUBCHEM_ISOTOPIC_ATOM_COUNT>  (1) 
0

>  <PUBCHEM_COMPONENT_COUNT>  (1) 
1

>  <PUBCHEM_CACTVS_TAUTO_COUNT>  (1) 
1

>  <PUBCHEM_CONFORMER_ID>  (1) 
0000BFDD00000001

>  <PUBCHEM_MMFF94_ENERGY>  (1) 
35.2339

>  <PUBCHEM_FEATURE_SELFOVERLAP>  (1) 
10.148

>  <PUBCHEM_SHAPE_FINGERPRINT>  (1) 
10922523 26 18187644661219875975
10980938 120 18114177480385053555
12500047 106 18342174445024841998
12716758 59 18343864415945514483
12932764 1 18271815643664975914
13296908 3 17846502585894539922
14144814 61 18408888416783403513
14993402 34 18408605838073911917
15775835 57 17676206879257635239
16945 1 18410857676384118657
18186145 218 17917993832728396537
18511873 20 18259703384934305989
20279233 1 18060136565705794274
20711985 365 18117838789960346604
20715346 28 17775006851014810742
207724 885 18260551091293305065
23402539 116 18273204292986867437
23552423 10 18118686749506255207
23557571 272 17985541388925039563
23559900 14 18202559592749287082
3248919 1 17821727273221851066
57812782 119 17704068490867583221
69090 78 18342168969210707935
74978 22 18409452526341084429
75552 356 18341898493196654493
93112 12 18411984692977150982
9939556 21 18335985371476441431

>  <PUBCHEM_SHAPE_MULTIPOLES>  (1) 
247.65
6.56
1.9
1.07
0.9
0.59
0.07
-0.3
-0.97
0.92
0
-0.62
-0.13
-0.2

>  <PUBCHEM_SHAPE_SELFOVERLAP>  (1) 
427.653

>  <PUBCHEM_SHAPE_VOLUME>  (1) 
169

>  <PUBCHEM_COORDINATE_TYPE>  (1) 
2
5
10

$$$$
