49114
     RDKit          3D

 16 16  0  0  0  0  0  0  0  0999 V2000
    0.9837    0.7737   -0.7487 O   0  0  0  0  0  0  0  0  0  0  0  0
    1.3409    0.2218    1.4710 O   0  0  0  0  0  0  0  0  0  0  0  0
   -1.6134   -2.2771   -0.0132 N   0  0  0  0  0  0  0  0  0  0  0  0
   -2.5943    0.3642   -0.1377 N   0  0  0  0  0  0  0  0  0  0  0  0
    3.0804    0.0402   -0.0622 N   0  0  0  0  0  0  0  0  0  0  0  0
   -0.9934   -1.2796   -0.8857 C   0  0  0  0  0  0  0  0  0  0  0  0
   -1.3048    0.1178   -0.4601 C   0  0  0  0  0  0  0  0  0  0  0  0
   -0.3374    1.0782   -0.4047 C   0  0  0  0  0  0  0  0  0  0  0  0
   -1.1383   -2.1191    1.3608 C   0  0  0  0  0  0  0  0  0  0  0  0
   -1.3319   -3.6267   -0.4999 C   0  0  0  0  0  0  0  0  0  0  0  0
   -0.6375    2.3564   -0.0124 C   0  0  0  0  0  0  0  0  0  0  0  0
   -1.9537    2.6485    0.3273 C   0  0  0  0  0  0  0  0  0  0  0  0
   -2.8860    1.6264    0.2488 C   0  0  0  0  0  0  0  0  0  0  0  0
    1.7674    0.3342    0.3223 C   0  0  0  0  0  0  0  0  0  0  0  0
    4.0428   -0.4323    0.9228 C   0  0  0  0  0  0  0  0  0  0  0  0
    3.5754    0.1734   -1.4285 C   0  0  0  0  0  0  0  0  0  0  0  0
  1  8  1  0
  1 14  1  0
  2 14  2  0
  3  6  1  0
  3  9  1  0
  3 10  1  0
  4  7  2  0
  4 13  1  0
  5 14  1  0
  5 15  1  0
  5 16  1  0
  6  7  1  0
  7  8  1  0
  8 11  2  0
 11 12  1  0
 12 13  2  0
M  END
>  <PUBCHEM_COMPOUND_CID>  (1) 
49114

>  <PUBCHEM_CONFORMER_RMSD>  (1) 
0.6

>  <PUBCHEM_CONFORMER_DIVERSEORDER>  (1) 
3
78
43
80
79
26
85
6
64
72
25
52
23
58
32
2
42
29
21
83
12
28
53
9
69
66
33
18
67
45
31
49
14
74
57
75
73
82
7
63
10
84
81
71
16
35
62
70
27
41
55
68
4
48
34
17
77
22
76
39
37
65
46
11
5
61
8
19
1
59
44
47
56
30
24
38
60
13
51
36
40
54
15
20
50

>  <PUBCHEM_MMFF94_PARTIAL_CHARGES>  (1) 
19
1 -0.23
10 0.27
11 -0.15
12 -0.15
13 0.16
14 0.78
15 0.3
16 0.3
2 -0.57
25 0.15
26 0.15
27 0.15
3 -0.81
4 -0.62
5 -0.66
6 0.41
7 0.17
8 0.08
9 0.27

>  <PUBCHEM_EFFECTIVE_ROTOR_COUNT>  (1) 
5

>  <PUBCHEM_PHARMACOPHORE_FEATURES>  (1) 
4
1 2 acceptor
1 3 cation
1 4 acceptor
6 4 7 8 11 12 13 rings

>  <PUBCHEM_HEAVY_ATOM_COUNT>  (1) 
16

>  <PUBCHEM_ATOM_DEF_STEREO_COUNT>  (1) 
0

>  <PUBCHEM_ATOM_UDEF_STEREO_COUNT>  (1) 
0

>  <PUBCHEM_BOND_DEF_STEREO_COUNT>  (1) 
0

>  <PUBCHEM_BOND_UDEF_STEREO_COUNT>  (1) 
0

>  <PUBCHEM_ISOTOPIC_ATOM_COUNT>  (1) 
0

>  <PUBCHEM_COMPONENT_COUNT>  (1) 
1

>  <PUBCHEM_CACTVS_TAUTO_COUNT>  (1) 
1

>  <PUBCHEM_CONFORMER_ID>  (1) 
0000BFDA00000003

>  <PUBCHEM_MMFF94_ENERGY>  (1) 
48.6704

>  <PUBCHEM_FEATURE_SELFOVERLAP>  (1) 
20.297

>  <PUBCHEM_SHAPE_FINGERPRINT>  (1) 
12553582 1 17977954801733202806
13538477 17 18259988192927126700
14817 1 14146193612483118435
15001771 113 18046062919796346349
15279307 12 18187644657262648818
15309172 13 18265900155164782737
15669948 3 18335708260323621148
15906896 17 18261403247169974811
16752209 62 18335123311647988439
16945 1 18413105052339459901
20028762 73 18059019518518424527
20510252 161 18201156551113806337
20645476 183 18189066334144555428
20871998 184 18412271657085648191
21524375 3 18194116322352474445
22344851 341 17767413378852716109
23402539 116 18272355482757911397
23419403 2 13395201276438626975
23526113 38 17489864904404882250
23557571 272 18270402831896164120
23559900 14 18272652308596454174
23598291 2 17822296756279355166
23728640 28 18410565163516037530
257057 1 17907848857971858639
2748010 2 18053655056097121949
305870 269 17978790108373489961
43471831 8 18194119608213419975
5706482 22 18267015072945380745
58807428 26 18196659484278931385
7364860 26 17476638677059989125
81228 2 18340755048527944137
81539 233 17974570191636856741
90525 40 18043806489992163128

>  <PUBCHEM_SHAPE_MULTIPOLES>  (1) 
302.59
5.14
3.34
1.16
6.13
2.57
-0.12
-1.07
-0.14
-3.5
0
0.66
0.29
-0.34

>  <PUBCHEM_SHAPE_SELFOVERLAP>  (1) 
613.252

>  <PUBCHEM_SHAPE_VOLUME>  (1) 
178

>  <PUBCHEM_COORDINATE_TYPE>  (1) 
2
5
10

$$$$
