49110
     RDKit          3D

 18 18  0  0  0  0  0  0  0  0999 V2000
    0.7185    1.3827   -0.6311 O   0  0  0  0  0  0  0  0  0  0  0  0
    1.0147    0.6710    1.5519 O   0  0  0  0  0  0  0  0  0  0  0  0
   -0.2770   -1.8779   -0.1002 N   0  0  0  0  0  0  0  0  0  0  0  0
   -2.7150    0.1530   -0.4250 N   0  0  0  0  0  0  0  0  0  0  0  0
    2.8656    1.0397    0.1925 N   0  0  0  0  0  0  0  0  0  0  0  0
   -0.7349   -1.0158   -1.1589 C   0  0  0  0  0  0  0  0  0  0  0  0
    0.3555   -3.0920   -0.6369 C   0  0  0  0  0  0  0  0  0  0  0  0
   -1.3799   -2.2526    0.7973 C   0  0  0  0  0  0  0  0  0  0  0  0
   -1.3818    0.2256   -0.6378 C   0  0  0  0  0  0  0  0  0  0  0  0
    1.5553   -2.7488   -1.5033 C   0  0  0  0  0  0  0  0  0  0  0  0
   -0.8946   -3.1622    1.9134 C   0  0  0  0  0  0  0  0  0  0  0  0
   -0.6600    1.3576   -0.3955 C   0  0  0  0  0  0  0  0  0  0  0  0
   -1.2666    2.4894    0.0825 C   0  0  0  0  0  0  0  0  0  0  0  0
   -3.3095    1.2718    0.0465 C   0  0  0  0  0  0  0  0  0  0  0  0
   -2.6373    2.4535    0.3140 C   0  0  0  0  0  0  0  0  0  0  0  0
    1.4941    1.0014    0.4678 C   0  0  0  0  0  0  0  0  0  0  0  0
    3.8289    0.6742    1.2211 C   0  0  0  0  0  0  0  0  0  0  0  0
    3.4239    1.4296   -1.0982 C   0  0  0  0  0  0  0  0  0  0  0  0
  1 12  1  0
  1 16  1  0
  2 16  2  0
  3  6  1  0
  3  7  1  0
  3  8  1  0
  4  9  2  0
  4 14  1  0
  5 16  1  0
  5 17  1  0
  5 18  1  0
  6  9  1  0
  7 10  1  0
  8 11  1  0
  9 12  1  0
 12 13  2  0
 13 15  1  0
 14 15  2  0
M  END
>  <PUBCHEM_COMPOUND_CID>  (1) 
49110

>  <PUBCHEM_CONFORMER_RMSD>  (1) 
0.8

>  <PUBCHEM_CONFORMER_DIVERSEORDER>  (1) 
1
27
31
29
40
16
36
48
38
5
46
25
34
59
44
26
12
32
49
45
4
20
53
9
41
54
56
35
33
28
15
57
8
52
24
6
58
23
18
11
21
2
63
7
37
64
39
62
13
61
55
30
60
47
17
14
42
51
10
3
22
19
50
43

>  <PUBCHEM_MMFF94_PARTIAL_CHARGES>  (1) 
19
1 -0.23
12 0.08
13 -0.15
14 0.16
15 -0.15
16 0.78
17 0.3
18 0.3
2 -0.57
3 -0.81
31 0.15
32 0.15
33 0.15
4 -0.62
5 -0.66
6 0.41
7 0.27
8 0.27
9 0.17

>  <PUBCHEM_EFFECTIVE_ROTOR_COUNT>  (1) 
7

>  <PUBCHEM_PHARMACOPHORE_FEATURES>  (1) 
4
1 2 acceptor
1 3 cation
1 4 acceptor
6 4 9 12 13 14 15 rings

>  <PUBCHEM_HEAVY_ATOM_COUNT>  (1) 
18

>  <PUBCHEM_ATOM_DEF_STEREO_COUNT>  (1) 
0

>  <PUBCHEM_ATOM_UDEF_STEREO_COUNT>  (1) 
0

>  <PUBCHEM_BOND_DEF_STEREO_COUNT>  (1) 
0

>  <PUBCHEM_BOND_UDEF_STEREO_COUNT>  (1) 
0

>  <PUBCHEM_ISOTOPIC_ATOM_COUNT>  (1) 
0

>  <PUBCHEM_COMPONENT_COUNT>  (1) 
1

>  <PUBCHEM_CACTVS_TAUTO_COUNT>  (1) 
1

>  <PUBCHEM_CONFORMER_ID>  (1) 
0000BFD600000001

>  <PUBCHEM_MMFF94_ENERGY>  (1) 
46.046

>  <PUBCHEM_FEATURE_SELFOVERLAP>  (1) 
20.297

>  <PUBCHEM_SHAPE_FINGERPRINT>  (1) 
12507560 14 17549831426812835047
12553582 1 17402333071485712158
14787075 74 17687777959329783975
15490181 8 18409454673819633213
16945 1 18131055044275374325
20645476 183 18261114101366083212
20691752 17 18116162064740187493
20871998 184 18195813087700211061
21330990 113 17691458260696610978
21524375 3 18339347591981860061
21731516 1 17472415933944789526
22344851 341 18123467172639597505
23419403 2 17690047437038929963
23526113 38 17489590086653847608
23557571 272 17979354484741759688
23598288 3 18046626982457410316
23598294 1 18121223335853742280
23728640 28 18198602501919858538
2748010 2 18193278486092267365
352729 6 18338523061345836477
43471831 8 18339917134836583967
5845 1 10863783440680274024
7364860 26 17912639103574055021
81228 2 18049981574895540345
81539 233 18263637364825108293
90525 40 18335983163757892636

>  <PUBCHEM_SHAPE_MULTIPOLES>  (1) 
343.75
4.74
4.03
1.43
1.73
3.36
-0.33
-3.93
-0.27
0.09
-0.44
0.69
0.9
0.74

>  <PUBCHEM_SHAPE_SELFOVERLAP>  (1) 
691.655

>  <PUBCHEM_SHAPE_VOLUME>  (1) 
203.7

>  <PUBCHEM_COORDINATE_TYPE>  (1) 
2
5
10

$$$$
