49122
     RDKit          3D

 19 20  0  0  1  0  0  0  0  0999 V2000
    1.5186    0.2124    0.7445 O   0  0  0  0  0  0  0  0  0  0  0  0
    2.1723   -0.1048   -1.4525 O   0  0  0  0  0  0  0  0  0  0  0  0
   -2.3653   -0.4642    0.8933 N   0  0  0  0  0  0  0  0  0  0  0  0
    3.0331   -1.5057    0.1926 N   0  0  0  0  0  0  0  0  0  0  0  0
   -1.1923   -0.3547   -0.0121 C   0  0  0  0  0  0  0  0  0  0  0  0
   -1.5575   -0.7627   -1.4578 C   0  0  0  0  0  0  0  0  0  0  0  0
   -2.1872   -2.1479   -1.5157 C   0  0  0  0  0  0  0  0  0  0  0  0
   -3.3701   -2.2193   -0.5631 C   0  0  0  0  0  0  0  0  0  0  0  0
   -2.9555   -1.8147    0.8491 C   0  0  0  0  0  0  0  0  0  0  0  0
   -0.5843    1.0442   -0.0504 C   0  0  0  0  0  0  0  0  0  0  0  0
   -2.0148   -0.1500    2.2851 C   0  0  0  0  0  0  0  0  0  0  0  0
    0.7380    1.2494    0.3302 C   0  0  0  0  0  0  0  0  0  0  0  0
   -1.3721    2.1109   -0.4714 C   0  0  0  0  0  0  0  0  0  0  0  0
    1.2782    2.5348    0.2892 C   0  0  0  0  0  0  0  0  0  0  0  0
   -0.8318    3.3962   -0.5123 C   0  0  0  0  0  0  0  0  0  0  0  0
    0.4931    3.6082   -0.1319 C   0  0  0  0  0  0  0  0  0  0  0  0
    2.2443   -0.4477   -0.2728 C   0  0  0  0  0  0  0  0  0  0  0  0
    3.8391   -2.2821   -0.7386 C   0  0  0  0  0  0  0  0  0  0  0  0
    3.1142   -1.9021    1.5947 C   0  0  0  0  0  0  0  0  0  0  0  0
  1 12  1  0
  1 17  1  0
  2 17  2  0
  3  5  1  0
  3  9  1  0
  3 11  1  0
  4 17  1  0
  4 18  1  0
  4 19  1  0
  5  6  1  0
  5 10  1  0
  6  7  1  0
  7  8  1  0
  8  9  1  0
 10 12  2  0
 10 13  1  0
 12 14  1  0
 13 15  2  0
 14 16  2  0
 15 16  1  0
M  END
>  <PUBCHEM_COMPOUND_CID>  (1) 
49122

>  <PUBCHEM_CONFORMER_RMSD>  (1) 
0.8

>  <PUBCHEM_CONFORMER_DIVERSEORDER>  (1) 
1
18
33
42
13
40
15
34
4
8
12
48
43
19
26
44
30
3
29
32
16
38
35
28
24
6
27
45
47
9
10
20
25
22
17
31
39
7
46
21
36
41
5
14
23
2
11
37

>  <PUBCHEM_MMFF94_PARTIAL_CHARGES>  (1) 
20
1 -0.23
10 -0.14
11 0.27
12 0.08
13 -0.15
14 -0.15
15 -0.15
16 -0.15
17 0.78
18 0.3
19 0.3
2 -0.57
3 -0.81
32 0.15
33 0.15
34 0.15
35 0.15
4 -0.66
5 0.41
9 0.27

>  <PUBCHEM_EFFECTIVE_ROTOR_COUNT>  (1) 
5.2

>  <PUBCHEM_PHARMACOPHORE_FEATURES>  (1) 
4
1 2 acceptor
1 3 cation
6 10 12 13 14 15 16 rings
6 3 5 6 7 8 9 rings

>  <PUBCHEM_HEAVY_ATOM_COUNT>  (1) 
19

>  <PUBCHEM_ATOM_DEF_STEREO_COUNT>  (1) 
0

>  <PUBCHEM_ATOM_UDEF_STEREO_COUNT>  (1) 
1

>  <PUBCHEM_BOND_DEF_STEREO_COUNT>  (1) 
0

>  <PUBCHEM_BOND_UDEF_STEREO_COUNT>  (1) 
0

>  <PUBCHEM_ISOTOPIC_ATOM_COUNT>  (1) 
0

>  <PUBCHEM_COMPONENT_COUNT>  (1) 
1

>  <PUBCHEM_CACTVS_TAUTO_COUNT>  (1) 
1

>  <PUBCHEM_CONFORMER_ID>  (1) 
0000BFE200000001

>  <PUBCHEM_MMFF94_ENERGY>  (1) 
46.2581

>  <PUBCHEM_FEATURE_SELFOVERLAP>  (1) 
20.297

>  <PUBCHEM_SHAPE_FINGERPRINT>  (1) 
107951 10 16962135400444748130
11578080 2 17558525119319679145
12553582 1 18410298025097923546
12788726 201 18117561725598693930
13083527 12 18052225648310739776
13583140 156 17903104423028717635
13931106 250 18124576618405630670
14844126 61 18048575063633139258
15279307 12 17409375417533662271
15906896 17 17901388896351091473
16945 1 17774182122830929153
20028762 73 18057881352168854805
20361792 2 18411698815622337447
20645476 183 17391929054171465412
20645477 70 17904463453380870799
21330990 113 16617358296548378905
21452121 199 18335127722531896128
21524375 3 17255109052631310316
21731516 1 18410860970692794742
2255824 54 17979357791280404540
23184049 29 18337378371167738984
23419403 2 13423291522179981417
23557571 272 18198324188228559744
23598288 3 18045522832038231204
23598291 2 18055941989022700857
23728640 28 17760913057361588906
257057 1 18338782481670496908
2748010 2 18340470219203069300
3060560 45 17544464718625245540
6138700 20 15818186872777806134
6992083 37 18129683923231521539
77492 1 17266674201685419517
81228 2 18267286652059251481
8272917 22 17905890632490293175
90316 7 18340774727872915606

>  <PUBCHEM_SHAPE_MULTIPOLES>  (1) 
369.31
5.27
4.08
1.55
1.83
3.39
0.47
-6.22
0.15
0.75
-0.69
-0.53
-0.77
-0.31

>  <PUBCHEM_SHAPE_SELFOVERLAP>  (1) 
760.989

>  <PUBCHEM_SHAPE_VOLUME>  (1) 
211.8

>  <PUBCHEM_COORDINATE_TYPE>  (1) 
2
5
10

$$$$
