4912
     RDKit          3D

 35 36  0  0  0  0  0  0  0  0999 V2000
    0.5067    1.3725   -0.0825 S   0  0  0  0  0  0  0  0  0  0  0  0
   -1.5113    1.9412   -2.2682 S   0  0  0  0  0  0  0  0  0  0  0  0
    5.8365   -1.1757    0.4987 O   0  0  0  0  0  0  0  0  0  0  0  0
   -5.4563   -0.6706    1.3169 O   0  0  0  0  0  0  0  0  0  0  0  0
    5.7439    1.5556   -0.2839 C   0  0  0  0  0  0  0  0  0  0  0  0
   -4.0739    1.6125    2.2955 C   0  0  0  0  0  0  0  0  0  0  0  0
    3.5369   -2.7633    1.0201 C   0  0  0  0  0  0  0  0  0  0  0  0
   -5.0678   -1.7814   -1.2708 C   0  0  0  0  0  0  0  0  0  0  0  0
    4.5165    0.7479   -0.0171 C   0  0  0  0  0  0  0  0  0  0  0  0
   -3.8404    1.0359    0.8893 C   0  0  0  0  0  0  0  0  0  0  0  0
    3.4548   -1.3296    0.6103 C   0  0  0  0  0  0  0  0  0  0  0  0
   -4.3252   -0.5800   -0.7858 C   0  0  0  0  0  0  0  0  0  0  0  0
    4.6118   -0.5901    0.3649 C   0  0  0  0  0  0  0  0  0  0  0  0
   -4.5496   -0.0705    0.4932 C   0  0  0  0  0  0  0  0  0  0  0  0
    3.2641    1.3466   -0.1538 C   0  0  0  0  0  0  0  0  0  0  0  0
   -2.9200    1.6662    0.0873 C   0  0  0  0  0  0  0  0  0  0  0  0
    2.2023   -0.7309    0.4735 C   0  0  0  0  0  0  0  0  0  0  0  0
   -3.3980    0.0336   -1.6281 C   0  0  0  0  0  0  0  0  0  0  0  0
    2.1084    0.6066    0.0917 C   0  0  0  0  0  0  0  0  0  0  0  0
   -2.6955    1.1567   -1.1915 C   0  0  0  0  0  0  0  0  0  0  0  0
    0.0853    1.0503   -1.8647 C   0  0  0  0  0  0  0  0  0  0  0  0
    5.3799    3.0157   -0.6931 C   0  0  0  0  0  0  0  0  0  0  0  0
    6.7301    1.6931    0.9222 C   0  0  0  0  0  0  0  0  0  0  0  0
    6.5856    0.9368   -1.4419 C   0  0  0  0  0  0  0  0  0  0  0  0
   -5.5293    2.0650    2.5518 C   0  0  0  0  0  0  0  0  0  0  0  0
   -3.7350    0.5444    3.3580 C   0  0  0  0  0  0  0  0  0  0  0  0
   -3.1690    2.8453    2.5083 C   0  0  0  0  0  0  0  0  0  0  0  0
    4.3254   -2.9237    2.3560 C   0  0  0  0  0  0  0  0  0  0  0  0
    2.1164   -3.3704    1.2348 C   0  0  0  0  0  0  0  0  0  0  0  0
    4.2469   -3.7118   -0.0006 C   0  0  0  0  0  0  0  0  0  0  0  0
   -5.4844   -2.8034   -0.1627 C   0  0  0  0  0  0  0  0  0  0  0  0
   -6.3945   -1.3750   -1.9827 C   0  0  0  0  0  0  0  0  0  0  0  0
   -4.2156   -2.5970   -2.2910 C   0  0  0  0  0  0  0  0  0  0  0  0
   -0.0339   -0.4435   -2.1834 C   0  0  0  0  0  0  0  0  0  0  0  0
    1.1479    1.6912   -2.7708 C   0  0  0  0  0  0  0  0  0  0  0  0
  1 19  1  0
  1 21  1  0
  2 20  1  0
  2 21  1  0
  3 13  1  0
  4 14  1  0
  5  9  1  0
  5 22  1  0
  5 23  1  0
  5 24  1  0
  6 10  1  0
  6 25  1  0
  6 26  1  0
  6 27  1  0
  7 11  1  0
  7 28  1  0
  7 29  1  0
  7 30  1  0
  8 12  1  0
  8 31  1  0
  8 32  1  0
  8 33  1  0
  9 13  2  0
  9 15  1  0
 10 14  2  0
 10 16  1  0
 11 13  1  0
 11 17  2  0
 12 14  1  0
 12 18  2  0
 15 19  2  0
 16 20  2  0
 17 19  1  0
 18 20  1  0
 21 34  1  0
 21 35  1  0
M  END
>  <PUBCHEM_COMPOUND_CID>  (1) 
4912

>  <PUBCHEM_CONFORMER_RMSD>  (1) 
1

>  <PUBCHEM_CONFORMER_DIVERSEORDER>  (1) 
1
9
16
14
2
3
13
15
10
12
17
5
8
11
7
4
6

>  <PUBCHEM_MMFF94_PARTIAL_CHARGES>  (1) 
27
1 -0.33
10 -0.14
11 -0.14
12 -0.14
13 0.08
14 0.08
15 -0.15
16 -0.15
17 -0.15
18 -0.15
19 0.1
2 -0.33
20 0.1
21 0.46
3 -0.53
36 0.15
37 0.15
38 0.15
39 0.15
4 -0.53
5 0.14
6 0.14
7 0.14
8 0.14
82 0.45
83 0.45
9 -0.14

>  <PUBCHEM_EFFECTIVE_ROTOR_COUNT>  (1) 
8

>  <PUBCHEM_PHARMACOPHORE_FEATURES>  (1) 
9
1 3 donor
1 4 donor
3 21 34 35 hydrophobe
4 5 22 23 24 hydrophobe
4 6 25 26 27 hydrophobe
4 7 28 29 30 hydrophobe
4 8 31 32 33 hydrophobe
6 10 12 14 16 18 20 rings
6 9 11 13 15 17 19 rings

>  <PUBCHEM_HEAVY_ATOM_COUNT>  (1) 
35

>  <PUBCHEM_ATOM_DEF_STEREO_COUNT>  (1) 
0

>  <PUBCHEM_ATOM_UDEF_STEREO_COUNT>  (1) 
0

>  <PUBCHEM_BOND_DEF_STEREO_COUNT>  (1) 
0

>  <PUBCHEM_BOND_UDEF_STEREO_COUNT>  (1) 
0

>  <PUBCHEM_ISOTOPIC_ATOM_COUNT>  (1) 
0

>  <PUBCHEM_COMPONENT_COUNT>  (1) 
1

>  <PUBCHEM_CACTVS_TAUTO_COUNT>  (1) 
3

>  <PUBCHEM_CONFORMER_ID>  (1) 
0000133000000001

>  <PUBCHEM_MMFF94_ENERGY>  (1) 
172.9022

>  <PUBCHEM_FEATURE_SELFOVERLAP>  (1) 
45.674

>  <PUBCHEM_SHAPE_FINGERPRINT>  (1) 
10319926 262 17131558232498447727
10674148 151 17703800202743634476
10928967 22 18043253435617719699
12106331 60 17346307263408769183
12107698 1 17489023885194120041
12422481 6 16413785982646025206
12596602 18 18202562895236460648
12633257 1 18199467662735492823
12788726 201 17917146199837794751
13103583 49 18201719492519010105
1361 2 17968653943190898020
13726171 33 17060070262719727912
13782708 43 17241605014866434722
14118638 360 18343298180099557470
14347329 18 15985110665367643088
14856354 85 17417252172874519421
14950920 106 18131059416377677081
15250474 111 18343576326603422075
15361156 5 17532374166822742564
15448158 91 16010184040001223497
15510800 12 16732706034214686977
15799311 1 18336837424384776158
16112460 7 18410013221574416914
16994733 274 16701725156437961328
17809404 112 16153705423104944275
17913733 40 18335415777841869664
19315092 285 18269534166012416427
19377110 9 18342170064422120112
19841028 212 18260257560935115579
21792961 116 13182755715255127016
21814621 53 16845579699748260764
2260408 40 17823440239271163140
23572383 38 16805601468945160203
25223398 141 15266798611156271600
3737641 26 18261676957130709380
45266715 3 16805868646007963531
497634 4 18342453747033217301
613672 6 16950282901357070909
6523845 18 14476963406355685181
6636798 310 17987213634801004583
6700243 42 14130205919136865411
86090 222 17095821935753262272
9981440 41 15840698549534227397

>  <PUBCHEM_SHAPE_MULTIPOLES>  (1) 
716.24
17.71
3.91
2.96
5.89
2.82
-0.77
1.49
-2.36
2.35
-0.91
-4.29
-0.9
-5.51

>  <PUBCHEM_SHAPE_SELFOVERLAP>  (1) 
1463.158

>  <PUBCHEM_SHAPE_VOLUME>  (1) 
426.6

>  <PUBCHEM_COORDINATE_TYPE>  (1) 
2
5
10

$$$$
