49128
     RDKit          3D

 24 26  0  0  0  0  0  0  0  0999 V2000
    6.9379    0.2935    0.3504 O   0  0  0  0  0  0  0  0  0  0  0  0
    0.5593    0.1017   -0.1200 O   0  0  0  0  0  0  0  0  0  0  0  0
   -0.3696    1.8758    0.9729 O   0  0  0  0  0  0  0  0  0  0  0  0
    4.2167    0.3703   -0.4807 N   0  0  0  0  0  0  0  0  0  0  0  0
   -1.7530    0.1560    0.1816 N   0  0  0  0  0  0  0  0  0  0  0  0
    5.2107   -0.4560   -1.1799 C   0  0  0  0  0  0  0  0  0  0  0  0
    4.5938    0.5246    0.9311 C   0  0  0  0  0  0  0  0  0  0  0  0
    2.8815   -0.2116   -0.6004 C   0  0  0  0  0  0  0  0  0  0  0  0
    6.5971    0.1638   -1.0304 C   0  0  0  0  0  0  0  0  0  0  0  0
    5.9945    1.1222    1.0304 C   0  0  0  0  0  0  0  0  0  0  0  0
    1.8409    0.6970    0.0345 C   0  0  0  0  0  0  0  0  0  0  0  0
   -0.5117    0.7953    0.4015 C   0  0  0  0  0  0  0  0  0  0  0  0
   -2.9371    0.9642    0.0199 C   0  0  0  0  0  0  0  0  0  0  0  0
   -1.8716   -1.2770    0.1140 C   0  0  0  0  0  0  0  0  0  0  0  0
   -4.1402    0.4421    0.4222 C   0  0  0  0  0  0  0  0  0  0  0  0
   -2.8598   -1.8141   -0.6743 C   0  0  0  0  0  0  0  0  0  0  0  0
   -2.8010    2.2149   -0.5272 C   0  0  0  0  0  0  0  0  0  0  0  0
   -0.9908   -2.0407    0.8400 C   0  0  0  0  0  0  0  0  0  0  0  0
   -5.2851    1.2234    0.2664 C   0  0  0  0  0  0  0  0  0  0  0  0
   -2.9748   -3.2026   -0.7403 C   0  0  0  0  0  0  0  0  0  0  0  0
   -3.9460    2.9962   -0.6828 C   0  0  0  0  0  0  0  0  0  0  0  0
   -1.1058   -3.4293    0.7737 C   0  0  0  0  0  0  0  0  0  0  0  0
   -5.1880    2.5004   -0.2860 C   0  0  0  0  0  0  0  0  0  0  0  0
   -2.0978   -4.0102   -0.0164 C   0  0  0  0  0  0  0  0  0  0  0  0
  1  9  1  0
  1 10  1  0
  2 11  1  0
  2 12  1  0
  3 12  2  0
  4  6  1  0
  4  7  1  0
  4  8  1  0
  5 12  1  0
  5 13  1  0
  5 14  1  0
  6  9  1  0
  7 10  1  0
  8 11  1  0
 13 15  2  0
 13 17  1  0
 14 16  2  0
 14 18  1  0
 15 19  1  0
 16 20  1  0
 17 21  2  0
 18 22  2  0
 19 23  2  0
 20 24  2  0
 21 23  1  0
 22 24  1  0
M  END
>  <PUBCHEM_COMPOUND_CID>  (1) 
49128

>  <PUBCHEM_CONFORMER_RMSD>  (1) 
0.8

>  <PUBCHEM_CONFORMER_DIVERSEORDER>  (1) 
1
5
89
68
146
49
97
26
90
40
133
57
147
62
55
101
105
117
145
7
106
80
85
99
144
20
148
74
123
22
76
107
139
86
39
113
112
29
118
53
54
58
93
131
128
63
9
124
103
10
126
88
143
52
141
87
83
11
59
115
4
38
31
51
81
67
6
61
116
94
36
56
45
84
121
42
109
136
23
111
50
64
127
27
100
14
18
108
25
47
98
122
19
102
2
34
120
24
3
32
30
137
96
95
138
12
65
79
21
82
91
16
149
46
17
114
43
60
69
66
110
72
119
15
8
37
134
33
44
129
77
142
70
28
41
71
104
73
140
13
135
92
78
35
48
125
132
130
75

>  <PUBCHEM_MMFF94_PARTIAL_CHARGES>  (1) 
34
1 -0.56
10 0.28
11 0.28
12 0.78
13 0.12
14 0.12
15 -0.15
16 -0.15
17 -0.15
18 -0.15
19 -0.15
2 -0.43
20 -0.15
21 -0.15
22 -0.15
23 -0.15
24 -0.15
3 -0.57
37 0.15
38 0.15
39 0.15
4 -0.81
40 0.15
41 0.15
42 0.15
43 0.15
44 0.15
45 0.15
46 0.15
5 -0.29
6 0.27
7 0.27
8 0.27
9 0.28

>  <PUBCHEM_EFFECTIVE_ROTOR_COUNT>  (1) 
8.2

>  <PUBCHEM_PHARMACOPHORE_FEATURES>  (1) 
6
1 1 acceptor
1 3 acceptor
1 4 cation
6 1 4 6 7 9 10 rings
6 13 15 17 19 21 23 rings
6 14 16 18 20 22 24 rings

>  <PUBCHEM_HEAVY_ATOM_COUNT>  (1) 
24

>  <PUBCHEM_ATOM_DEF_STEREO_COUNT>  (1) 
0

>  <PUBCHEM_ATOM_UDEF_STEREO_COUNT>  (1) 
0

>  <PUBCHEM_BOND_DEF_STEREO_COUNT>  (1) 
0

>  <PUBCHEM_BOND_UDEF_STEREO_COUNT>  (1) 
0

>  <PUBCHEM_ISOTOPIC_ATOM_COUNT>  (1) 
0

>  <PUBCHEM_COMPONENT_COUNT>  (1) 
1

>  <PUBCHEM_CACTVS_TAUTO_COUNT>  (1) 
1

>  <PUBCHEM_CONFORMER_ID>  (1) 
0000BFE800000001

>  <PUBCHEM_MMFF94_ENERGY>  (1) 
94.0401

>  <PUBCHEM_FEATURE_SELFOVERLAP>  (1) 
30.446

>  <PUBCHEM_SHAPE_FINGERPRINT>  (1) 
10165383 225 18340491063449763105
10411042 1 17905609157577632931
105312 117 18335979775123596661
107951 10 18411141307688217479
10835480 77 18130782395947392432
11045977 3 18131067160752656256
12107183 9 18117546346165222394
12236239 1 17603588513163143976
12293681 160 17916863491968236929
12597179 24 18272373027203878814
12616971 3 17385726924386429452
12788726 201 18263350538235179867
13257819 101 16734096839995510733
13533116 47 18200031708338344598
140371 6 18130801040041864448
14251757 5 18411140259488791552
14508225 48 18124020493825104135
14659021 117 17982997136293719550
14790565 3 18196089928666140137
14866123 147 18338518646647366691
15042514 8 18264214784850410475
15131766 46 15070622801150668638
15230672 131 18263643979555194722
15463212 79 18187920655849926563
15927050 60 18411979122869707671
16087824 20 18410008854905979503
167882 2 18047468916380753259
17539 30 18269267044922099271
19958102 18 18336541625486424902
20554085 129 18128233628539520929
20645477 56 18409730642643112365
20681677 155 18408603664984055506
21033648 29 18339632356820020320
21236236 1 18342174513770926431
21424621 283 18058458599451401745
21703447 108 17981030135813517352
22224240 67 18342184337279011177
23559900 14 18201998837677433720
255183 313 18341348755412163667
3178227 256 18337404785971334745
3610482 184 17823155547853902790
3759504 43 18187369813857692483
4015057 19 17274531113708137816
4073 2 18411702119480621874
44062 13 18339928211631106284
5265222 85 18336839692317126628
5283173 99 18413386553449990664
5364581 5 18125148592745328592
5385378 56 18193002504610771985
53917941 68 18410000031924464367
559249 180 18409166610711366802
59755656 215 18269843030343545358
59755656 520 18335697213277488814
6669772 16 18199755747852067167
7226269 152 18273215274617265985
7288768 16 17821733810167870435
81228 2 17979062014922441459
9981440 41 18189904123904181145

>  <PUBCHEM_SHAPE_MULTIPOLES>  (1) 
466.34
14.77
3.93
1.01
28.03
3.77
0.02
-8.23
1.38
-7.38
0.14
0.82
0.05
0.69

>  <PUBCHEM_SHAPE_SELFOVERLAP>  (1) 
991.866

>  <PUBCHEM_SHAPE_VOLUME>  (1) 
259.2

>  <PUBCHEM_COORDINATE_TYPE>  (1) 
2
5
10

$$$$
