49134
     RDKit          3D

 17 17  0  0  1  0  0  0  0  0999 V2000
   -0.1575   -0.5602    2.4797 O   0  0  0  0  0  0  0  0  0  0  0  0
   -0.4451    0.3610   -2.1158 O   0  0  0  0  0  0  0  0  0  0  0  0
    1.5090   -3.5101   -0.6148 O   0  0  0  0  0  0  0  0  0  0  0  0
    0.7621   -1.9859    0.9358 N   0  0  0  0  0  0  0  0  0  0  0  0
    0.6191   -1.5256   -1.3598 N   0  0  0  0  0  0  0  0  0  0  0  0
    0.1637    0.2865    0.2303 C   0  0  0  0  0  0  0  0  0  0  0  0
    1.4911    1.0623    0.3029 C   0  0  0  0  0  0  0  0  0  0  0  0
   -1.0022    1.2498    0.4963 C   0  0  0  0  0  0  0  0  0  0  0  0
    1.5299    2.1256   -0.8062 C   0  0  0  0  0  0  0  0  0  0  0  0
    0.2068   -0.7758    1.3241 C   0  0  0  0  0  0  0  0  0  0  0  0
    0.0501   -0.2730   -1.1843 C   0  0  0  0  0  0  0  0  0  0  0  0
    1.6569    1.6629    1.6976 C   0  0  0  0  0  0  0  0  0  0  0  0
    2.8369    2.9043   -0.8515 C   0  0  0  0  0  0  0  0  0  0  0  0
   -2.3035    0.5170    0.5008 C   0  0  0  0  0  0  0  0  0  0  0  0
    1.0142   -2.4100   -0.3634 C   0  0  0  0  0  0  0  0  0  0  0  0
   -3.3100    0.7923   -0.3412 C   0  0  0  0  0  0  0  0  0  0  0  0
   -4.6213    0.0791   -0.3306 C   0  0  0  0  0  0  0  0  0  0  0  0
  1 10  2  0
  2 11  2  0
  3 15  2  0
  4 10  1  0
  4 15  1  0
  5 11  1  0
  5 15  1  0
  6  7  1  0
  6  8  1  0
  6 10  1  0
  6 11  1  0
  7  9  1  0
  7 12  1  0
  8 14  1  0
  9 13  1  0
 14 16  2  0
 16 17  1  0
M  END
>  <PUBCHEM_COMPOUND_CID>  (1) 
49134

>  <PUBCHEM_CONFORMER_RMSD>  (1) 
0.6

>  <PUBCHEM_CONFORMER_DIVERSEORDER>  (1) 
1
10
8
16
7
19
12
13
15
5
17
14
21
3
9
4
18
11
6
20
2

>  <PUBCHEM_MMFF94_PARTIAL_CHARGES>  (1) 
17
1 -0.57
10 0.57
11 0.57
14 -0.29
15 0.69
16 -0.29
17 0.14
2 -0.57
29 0.15
3 -0.57
30 0.37
31 0.37
32 0.15
4 -0.49
5 -0.49
6 0.12
8 0.14

>  <PUBCHEM_EFFECTIVE_ROTOR_COUNT>  (1) 
4.6

>  <PUBCHEM_PHARMACOPHORE_FEATURES>  (1) 
9
1 1 acceptor
1 12 hydrophobe
1 13 hydrophobe
1 17 hydrophobe
1 2 acceptor
1 3 acceptor
1 4 donor
1 5 donor
6 4 5 6 10 11 15 rings

>  <PUBCHEM_HEAVY_ATOM_COUNT>  (1) 
17

>  <PUBCHEM_ATOM_DEF_STEREO_COUNT>  (1) 
0

>  <PUBCHEM_ATOM_UDEF_STEREO_COUNT>  (1) 
1

>  <PUBCHEM_BOND_DEF_STEREO_COUNT>  (1) 
0

>  <PUBCHEM_BOND_UDEF_STEREO_COUNT>  (1) 
1

>  <PUBCHEM_ISOTOPIC_ATOM_COUNT>  (1) 
0

>  <PUBCHEM_COMPONENT_COUNT>  (1) 
1

>  <PUBCHEM_CACTVS_TAUTO_COUNT>  (1) 
5

>  <PUBCHEM_CONFORMER_ID>  (1) 
0000BFEE00000001

>  <PUBCHEM_MMFF94_ENERGY>  (1) 
47.9163

>  <PUBCHEM_FEATURE_SELFOVERLAP>  (1) 
45.713

>  <PUBCHEM_SHAPE_FINGERPRINT>  (1) 
10922049 32 18263651834110914573
12138202 97 17978809117893558516
12423570 1 11181450358890442592
12532896 13 17771046487172233585
13024252 1 16594769255658235192
14142880 1 16595614784221435020
14617773 55 16960099560329114480
14817 1 9551851659897439316
15852999 172 17969522556796383985
15906896 17 17684367643453114850
16945 1 18265072261415612160
20473742 2 18334293149945524454
20600515 1 17265542339878809909
20602899 9 17914074228415127576
20645476 183 18121216751479304892
20645477 70 18336538340653789191
20711985 344 17329984111003050644
21452121 71 18053398607895059615
21524375 3 18116147959814912049
23419403 2 17683291024090898714
23526113 38 17897180030248741179
298252 57 18266740379469193272
4175511 376 18335717000165388950
430814 3 18191291870106787108
53812653 217 17616256218275358464
7364860 26 18271518702658523953
81228 2 17191499521756706001
81539 233 18336541702996276389

>  <PUBCHEM_SHAPE_MULTIPOLES>  (1) 
322.28
4.28
3.1
1.76
5.6
2.66
0.43
-3.66
-0.82
-2.63
-0.73
-0.45
0.09
-0.08

>  <PUBCHEM_SHAPE_SELFOVERLAP>  (1) 
657.769

>  <PUBCHEM_SHAPE_VOLUME>  (1) 
184.7

>  <PUBCHEM_COORDINATE_TYPE>  (1) 
2
5
10

$$$$
