4913
     RDKit          3D

 17 17  0  0  0  0  0  0  0  0999 V2000
    0.3228   -1.0400    1.5852 O   0  0  0  0  0  0  0  0  0  0  0  0
   -3.8653   -0.0599   -0.0228 N   0  0  0  0  0  0  0  0  0  0  0  0
   -0.2415    0.7861    0.2733 N   0  0  0  0  0  0  0  0  0  0  0  0
    6.0224    0.1982   -0.9225 N   0  0  0  0  0  0  0  0  0  0  0  0
   -2.4447   -0.0640   -0.3704 C   0  0  0  0  0  0  0  0  0  0  0  0
   -4.6173   -0.9197   -0.9361 C   0  0  0  0  0  0  0  0  0  0  0  0
   -4.3946    1.3030   -0.0514 C   0  0  0  0  0  0  0  0  0  0  0  0
   -1.6610    0.8043    0.6094 C   0  0  0  0  0  0  0  0  0  0  0  0
   -4.0805   -2.3409   -0.9193 C   0  0  0  0  0  0  0  0  0  0  0  0
   -5.8550    1.3336    0.3668 C   0  0  0  0  0  0  0  0  0  0  0  0
    0.6480   -0.1531    0.8002 C   0  0  0  0  0  0  0  0  0  0  0  0
    2.0594   -0.0597    0.3484 C   0  0  0  0  0  0  0  0  0  0  0  0
    3.0579   -0.5236    1.1801 C   0  0  0  0  0  0  0  0  0  0  0  0
    2.3287    0.4871   -0.8896 C   0  0  0  0  0  0  0  0  0  0  0  0
    4.3838   -0.4369    0.7552 C   0  0  0  0  0  0  0  0  0  0  0  0
    3.6545    0.5738   -1.3144 C   0  0  0  0  0  0  0  0  0  0  0  0
    4.6821    0.1118   -0.4921 C   0  0  0  0  0  0  0  0  0  0  0  0
  1 11  2  0
  2  5  1  0
  2  6  1  0
  2  7  1  0
  3  8  1  0
  3 11  1  0
  4 17  1  0
  5  8  1  0
  6  9  1  0
  7 10  1  0
 11 12  1  0
 12 13  2  0
 12 14  1  0
 13 15  1  0
 14 16  2  0
 15 17  2  0
 16 17  1  0
M  END
>  <PUBCHEM_COMPOUND_CID>  (1) 
4913

>  <PUBCHEM_CONFORMER_RMSD>  (1) 
0.8

>  <PUBCHEM_CONFORMER_DIVERSEORDER>  (1) 
2
11
14
9
10
22
4
23
24
7
1
5
20
25
6
13
26
8
21
3
17
19
18
12
16
15

>  <PUBCHEM_MMFF94_PARTIAL_CHARGES>  (1) 
22
1 -0.57
11 0.54
12 0.09
13 -0.15
14 -0.15
15 -0.15
16 -0.15
17 0.1
2 -0.81
3 -0.73
32 0.37
33 0.15
34 0.15
35 0.15
36 0.15
37 0.4
38 0.4
4 -0.9
5 0.27
6 0.27
7 0.27
8 0.3

>  <PUBCHEM_EFFECTIVE_ROTOR_COUNT>  (1) 
7

>  <PUBCHEM_PHARMACOPHORE_FEATURES>  (1) 
6
1 1 acceptor
1 2 cation
1 3 donor
1 4 cation
1 4 donor
6 12 13 14 15 16 17 rings

>  <PUBCHEM_HEAVY_ATOM_COUNT>  (1) 
17

>  <PUBCHEM_ATOM_DEF_STEREO_COUNT>  (1) 
0

>  <PUBCHEM_ATOM_UDEF_STEREO_COUNT>  (1) 
0

>  <PUBCHEM_BOND_DEF_STEREO_COUNT>  (1) 
0

>  <PUBCHEM_BOND_UDEF_STEREO_COUNT>  (1) 
0

>  <PUBCHEM_ISOTOPIC_ATOM_COUNT>  (1) 
0

>  <PUBCHEM_COMPONENT_COUNT>  (1) 
1

>  <PUBCHEM_CACTVS_TAUTO_COUNT>  (1) 
3

>  <PUBCHEM_CONFORMER_ID>  (1) 
0000133100000002

>  <PUBCHEM_MMFF94_ENERGY>  (1) 
43.4434

>  <PUBCHEM_FEATURE_SELFOVERLAP>  (1) 
30.446

>  <PUBCHEM_SHAPE_FINGERPRINT>  (1) 
10680689 15 18343585153267091505
10912923 1 18186794781755007771
11089746 13 18040717004801184668
11128504 68 18261393385851177628
11287383 113 17846776347315618072
11471102 20 16877661258497288384
11796584 16 17846501400684325686
12236239 1 18261111854886872145
12507557 5 13767929022527361391
12616971 3 17822284661160780691
13760787 19 18410290294467682859
13760787 5 17530959168314053563
14251731 8 17847062177383762061
14252887 29 13758085095024122284
14386348 63 16773798103970699519
14455015 7 16056886840173478302
14573314 32 16558753369369134865
15242439 84 17131830954484756969
17834072 33 18335701658558122828
17844677 252 17846780745251515553
17870717 6 17989489628296583751
200 152 18040434386529658400
20432913 95 14692573229904877047
20645477 56 14562535097863276889
20645477 70 16515682191863095570
20681677 155 18343018874803738571
20871999 31 18341047501673211031
21054139 6 18335414720816067446
220451 1 18410577266559381810
231179 274 14634864258514872968
23402539 116 18407759239885137860
23402655 69 17821731650046564218
23557571 272 17346323635307649448
23559900 14 17703784829779049024
26918003 58 15769775749462656310
2871803 45 15913332355872805588
29717793 49 18336835208635078750
300161 21 18261105266570667781
4325135 7 16370733660273657627
542803 24 18186520990459069137
59755656 520 16877949338532671675
602551 16 17988635354437236478
7495541 125 17418372532547862512

>  <PUBCHEM_SHAPE_MULTIPOLES>  (1) 
329.04
13.93
1.4
1.24
2.67
0.67
0.12
-0.46
-3.34
3.02
-0.16
-1.24
0.13
-0.87

>  <PUBCHEM_SHAPE_SELFOVERLAP>  (1) 
660.74

>  <PUBCHEM_SHAPE_VOLUME>  (1) 
195.3

>  <PUBCHEM_COORDINATE_TYPE>  (1) 
2
5
10

$$$$
