49140
     RDKit          3D

 17 17  0  0  0  0  0  0  0  0999 V2000
    0.4467    0.0685   -2.0885 O   0  0  0  0  0  0  0  0  0  0  0  0
   -1.2433   -0.9510    2.1439 O   0  0  0  0  0  0  0  0  0  0  0  0
   -3.1909    2.3361   -0.4135 O   0  0  0  0  0  0  0  0  0  0  0  0
   -1.2391    1.3356   -1.1981 N   0  0  0  0  0  0  0  0  0  0  0  0
   -2.1028    0.8145    0.9673 N   0  0  0  0  0  0  0  0  0  0  0  0
    0.1051   -0.0618    0.3201 C   0  0  0  0  0  0  0  0  0  0  0  0
    0.7421   -1.4603    0.2374 C   0  0  0  0  0  0  0  0  0  0  0  0
   -0.1974   -2.5116   -0.3618 C   0  0  0  0  0  0  0  0  0  0  0  0
    1.1192    0.9021    0.9567 C   0  0  0  0  0  0  0  0  0  0  0  0
   -0.2025    0.4275   -1.1063 C   0  0  0  0  0  0  0  0  0  0  0  0
   -1.1346   -0.1348    1.2291 C   0  0  0  0  0  0  0  0  0  0  0  0
   -1.9210    1.8349   -0.0323 C   0  0  0  0  0  0  0  0  0  0  0  0
   -1.5010   -2.6536    0.4251 C   0  0  0  0  0  0  0  0  0  0  0  0
   -0.5077   -2.1422   -1.8143 C   0  0  0  0  0  0  0  0  0  0  0  0
    2.3869    0.9372    0.1669 C   0  0  0  0  0  0  0  0  0  0  0  0
    3.5833    0.6044    0.6726 C   0  0  0  0  0  0  0  0  0  0  0  0
    4.8570    0.6546   -0.1043 C   0  0  0  0  0  0  0  0  0  0  0  0
  1 10  2  0
  2 11  2  0
  3 12  1  0
  4 10  1  0
  4 12  1  0
  5 11  1  0
  5 12  1  0
  6  7  1  0
  6  9  1  0
  6 10  1  0
  6 11  1  0
  7  8  1  0
  8 13  1  0
  8 14  1  0
  9 15  1  0
 15 16  2  0
 16 17  1  0
M  END
>  <PUBCHEM_COMPOUND_CID>  (1) 
49140

>  <PUBCHEM_CONFORMER_RMSD>  (1) 
0.6

>  <PUBCHEM_CONFORMER_DIVERSEORDER>  (1) 
1
3
2

>  <PUBCHEM_MMFF94_PARTIAL_CHARGES>  (1) 
18
1 -0.57
10 0.57
11 0.57
12 0.88
15 -0.29
16 -0.29
17 0.14
2 -0.57
24 0.37
25 0.37
3 -0.68
32 0.15
33 0.15
34 0.4
4 -0.73
5 -0.73
6 0.12
9 0.14

>  <PUBCHEM_EFFECTIVE_ROTOR_COUNT>  (1) 
4.8

>  <PUBCHEM_PHARMACOPHORE_FEATURES>  (1) 
9
1 1 acceptor
1 17 hydrophobe
1 2 acceptor
1 3 acceptor
1 3 donor
1 4 donor
1 5 donor
3 8 13 14 hydrophobe
6 4 5 6 10 11 12 rings

>  <PUBCHEM_HEAVY_ATOM_COUNT>  (1) 
17

>  <PUBCHEM_ATOM_DEF_STEREO_COUNT>  (1) 
0

>  <PUBCHEM_ATOM_UDEF_STEREO_COUNT>  (1) 
0

>  <PUBCHEM_BOND_DEF_STEREO_COUNT>  (1) 
1

>  <PUBCHEM_BOND_UDEF_STEREO_COUNT>  (1) 
0

>  <PUBCHEM_ISOTOPIC_ATOM_COUNT>  (1) 
0

>  <PUBCHEM_COMPONENT_COUNT>  (1) 
1

>  <PUBCHEM_CACTVS_TAUTO_COUNT>  (1) 
3

>  <PUBCHEM_CONFORMER_ID>  (1) 
0000BFF400000001

>  <PUBCHEM_MMFF94_ENERGY>  (1) 
73.2286

>  <PUBCHEM_FEATURE_SELFOVERLAP>  (1) 
45.794

>  <PUBCHEM_SHAPE_FINGERPRINT>  (1) 
10702982 57 18271792519518628646
10922049 32 18342453707898417892
10948715 1 18339636720569329621
12119455 92 18189605069067197124
12138202 97 18202565094412482700
12326174 3 17699010582792659141
12423570 1 12440115117818117480
12592029 89 18058444301262030014
13024252 1 17241313793764566058
13132413 78 17331964331486808307
13464514 151 17692823587929866992
14817 1 9457796974040811679
15852999 172 18043260054356800209
15906896 17 18339911710050412927
16945 1 18261407679354554691
20473742 2 17903907868810798814
21296965 67 17761764465913727546
21524375 3 18189602869986146808
22112679 90 17688057587185395791
23419403 2 17838093366167365798
2748010 2 17900570920167009579
298252 57 16916770847820537924
4175511 376 17839466583339219671
430814 3 18197192790046465020
4340502 62 17559140760089792603
81228 2 17978205464376603096
81539 233 18122895439446842677

>  <PUBCHEM_SHAPE_MULTIPOLES>  (1) 
322.28
4.71
2.65
1.62
7.71
1.01
0.2
-2.34
-0.42
-2.58
0.49
-0.64
0.33
0.37

>  <PUBCHEM_SHAPE_SELFOVERLAP>  (1) 
658.195

>  <PUBCHEM_SHAPE_VOLUME>  (1) 
182.6

>  <PUBCHEM_COORDINATE_TYPE>  (1) 
2
5
10

$$$$
