49145
     RDKit          3D

 16 16  0  0  0  0  0  0  0  0999 V2000
    0.6479    1.0905    2.1076 O   0  0  0  0  0  0  0  0  0  0  0  0
   -0.1054   -0.2570   -2.4428 O   0  0  0  0  0  0  0  0  0  0  0  0
    2.3489   -2.8278    0.4493 O   0  0  0  0  0  0  0  0  0  0  0  0
    1.4784   -0.8599    1.2481 N   0  0  0  0  0  0  0  0  0  0  0  0
    1.1133   -1.5161   -0.9723 N   0  0  0  0  0  0  0  0  0  0  0  0
    0.1138    0.5958   -0.1942 C   0  0  0  0  0  0  0  0  0  0  0  0
    0.5693    1.9774   -0.6830 C   0  0  0  0  0  0  0  0  0  0  0  0
    0.7622    0.3203    1.1518 C   0  0  0  0  0  0  0  0  0  0  0  0
    0.3558   -0.4082   -1.3096 C   0  0  0  0  0  0  0  0  0  0  0  0
   -1.3673    0.5792    0.0612 C   0  0  0  0  0  0  0  0  0  0  0  0
    0.1227    3.0586    0.2944 C   0  0  0  0  0  0  0  0  0  0  0  0
    2.0826    2.0021   -0.8659 C   0  0  0  0  0  0  0  0  0  0  0  0
   -2.0299   -0.4822    0.5431 C   0  0  0  0  0  0  0  0  0  0  0  0
    1.6902   -1.8045    0.2553 C   0  0  0  0  0  0  0  0  0  0  0  0
   -3.5090   -0.4992    0.7924 C   0  0  0  0  0  0  0  0  0  0  0  0
   -4.2735   -0.9691   -0.4353 C   0  0  0  0  0  0  0  0  0  0  0  0
  1  8  2  0
  2  9  2  0
  3 14  2  0
  4  8  1  0
  4 14  1  0
  5  9  1  0
  5 14  1  0
  6  7  1  0
  6  8  1  0
  6  9  1  0
  6 10  1  0
  7 11  1  0
  7 12  1  0
 10 13  2  0
 13 15  1  0
 15 16  1  0
M  END
>  <PUBCHEM_COMPOUND_CID>  (1) 
49145

>  <PUBCHEM_CONFORMER_RMSD>  (1) 
0.6

>  <PUBCHEM_CONFORMER_DIVERSEORDER>  (1) 
2
5
7
8
1
3
4
6

>  <PUBCHEM_MMFF94_PARTIAL_CHARGES>  (1) 
16
1 -0.57
10 -0.29
13 -0.29
14 0.69
15 0.14
18 0.15
2 -0.57
25 0.37
26 0.37
27 0.15
3 -0.57
4 -0.49
5 -0.49
6 0.26
8 0.57
9 0.57

>  <PUBCHEM_EFFECTIVE_ROTOR_COUNT>  (1) 
3.6

>  <PUBCHEM_PHARMACOPHORE_FEATURES>  (1) 
8
1 1 acceptor
1 16 hydrophobe
1 2 acceptor
1 3 acceptor
1 4 donor
1 5 donor
3 7 11 12 hydrophobe
6 4 5 6 8 9 14 rings

>  <PUBCHEM_HEAVY_ATOM_COUNT>  (1) 
16

>  <PUBCHEM_ATOM_DEF_STEREO_COUNT>  (1) 
0

>  <PUBCHEM_ATOM_UDEF_STEREO_COUNT>  (1) 
0

>  <PUBCHEM_BOND_DEF_STEREO_COUNT>  (1) 
0

>  <PUBCHEM_BOND_UDEF_STEREO_COUNT>  (1) 
1

>  <PUBCHEM_ISOTOPIC_ATOM_COUNT>  (1) 
0

>  <PUBCHEM_COMPONENT_COUNT>  (1) 
1

>  <PUBCHEM_CACTVS_TAUTO_COUNT>  (1) 
5

>  <PUBCHEM_CONFORMER_ID>  (1) 
0000BFF900000002

>  <PUBCHEM_MMFF94_ENERGY>  (1) 
38.3646

>  <PUBCHEM_FEATURE_SELFOVERLAP>  (1) 
40.638

>  <PUBCHEM_SHAPE_FINGERPRINT>  (1) 
10702982 57 17688873454999367396
12326174 3 18269575964333239925
12423570 1 14944110828605851516
12725867 57 18335978705676648473
13024252 1 15074856711412698232
14817 1 14586847417140074941
16945 1 17895207639590473788
20473742 2 17968939824402828588
20645477 70 18188203308449925699
21524375 3 17697042796582510877
22112679 90 17835840449656499480
22344851 12 10898472208245842380
23419403 2 17460285872611627438
3060560 45 18120654901242980037
430814 3 17909545404344919169
68250623 7 18191320272978840044
7364860 26 18335424616282859419
81228 2 17832990438429439089
81539 233 18043535121105226765

>  <PUBCHEM_SHAPE_MULTIPOLES>  (1) 
301.7
4.13
2.73
1.61
6.9
0.02
-0.23
1.09
0.01
-2.62
0.22
-0.37
0
-0.38

>  <PUBCHEM_SHAPE_SELFOVERLAP>  (1) 
619.828

>  <PUBCHEM_SHAPE_VOLUME>  (1) 
173.6

>  <PUBCHEM_COORDINATE_TYPE>  (1) 
2
5
10

$$$$
