49142
     RDKit          3D

 17 17  0  0  0  0  0  0  0  0999 V2000
    0.4808    3.5328    0.2525 S   0  0  0  0  0  0  0  0  0  0  0  0
   -2.0176    0.3145   -1.9287 O   0  0  0  0  0  0  0  0  0  0  0  0
    0.8015   -0.8505    1.6792 O   0  0  0  0  0  0  0  0  0  0  0  0
   -1.5395    1.8337   -0.2979 N   0  0  0  0  0  0  0  0  0  0  0  0
   -0.1010    1.2384    1.5447 N   0  0  0  0  0  0  0  0  0  0  0  0
   -0.1689   -0.2135   -0.4503 C   0  0  0  0  0  0  0  0  0  0  0  0
   -0.5461   -1.6961   -0.6345 C   0  0  0  0  0  0  0  0  0  0  0  0
   -1.7643   -2.1135    0.1967 C   0  0  0  0  0  0  0  0  0  0  0  0
    1.0640    0.0873   -1.3164 C   0  0  0  0  0  0  0  0  0  0  0  0
   -1.3328    0.6446   -0.9591 C   0  0  0  0  0  0  0  0  0  0  0  0
    0.2119    0.0060    1.0182 C   0  0  0  0  0  0  0  0  0  0  0  0
   -0.7285    2.3026    0.7994 C   0  0  0  0  0  0  0  0  0  0  0  0
   -1.5629   -1.8787    1.6944 C   0  0  0  0  0  0  0  0  0  0  0  0
   -2.9953   -1.3433   -0.2866 C   0  0  0  0  0  0  0  0  0  0  0  0
    2.2375   -0.7180   -0.8642 C   0  0  0  0  0  0  0  0  0  0  0  0
    3.3881   -0.1748   -0.4411 C   0  0  0  0  0  0  0  0  0  0  0  0
    4.5732   -0.9717   -0.0065 C   0  0  0  0  0  0  0  0  0  0  0  0
  1 12  1  0
  2 10  2  0
  3 11  2  0
  4 10  1  0
  4 12  1  0
  5 11  1  0
  5 12  1  0
  6  7  1  0
  6  9  1  0
  6 10  1  0
  6 11  1  0
  7  8  1  0
  8 13  1  0
  8 14  1  0
  9 15  1  0
 15 16  2  0
 16 17  1  0
M  END
>  <PUBCHEM_COMPOUND_CID>  (1) 
49142

>  <PUBCHEM_CONFORMER_RMSD>  (1) 
0.6

>  <PUBCHEM_CONFORMER_DIVERSEORDER>  (1) 
2
1

>  <PUBCHEM_MMFF94_PARTIAL_CHARGES>  (1) 
18
1 -0.41
10 0.57
11 0.57
12 0.83
15 -0.29
16 -0.29
17 0.14
2 -0.57
24 0.37
25 0.37
3 -0.57
32 0.15
33 0.15
34 0.18
4 -0.73
5 -0.73
6 0.12
9 0.14

>  <PUBCHEM_EFFECTIVE_ROTOR_COUNT>  (1) 
4.8

>  <PUBCHEM_PHARMACOPHORE_FEATURES>  (1) 
7
1 17 hydrophobe
1 2 acceptor
1 3 acceptor
1 4 donor
1 5 donor
3 8 13 14 hydrophobe
6 4 5 6 10 11 12 rings

>  <PUBCHEM_HEAVY_ATOM_COUNT>  (1) 
17

>  <PUBCHEM_ATOM_DEF_STEREO_COUNT>  (1) 
0

>  <PUBCHEM_ATOM_UDEF_STEREO_COUNT>  (1) 
0

>  <PUBCHEM_BOND_DEF_STEREO_COUNT>  (1) 
1

>  <PUBCHEM_BOND_UDEF_STEREO_COUNT>  (1) 
0

>  <PUBCHEM_ISOTOPIC_ATOM_COUNT>  (1) 
0

>  <PUBCHEM_COMPONENT_COUNT>  (1) 
1

>  <PUBCHEM_CACTVS_TAUTO_COUNT>  (1) 
3

>  <PUBCHEM_CONFORMER_ID>  (1) 
0000BFF600000002

>  <PUBCHEM_MMFF94_ENERGY>  (1) 
69.1993

>  <PUBCHEM_FEATURE_SELFOVERLAP>  (1) 
35.55

>  <PUBCHEM_SHAPE_FINGERPRINT>  (1) 
11315181 36 18334575712598954878
12138202 78 18052817236916264437
12423570 1 16232192802186007391
13024252 1 13984675749336271518
14713566 1 18187922833540679446
14817 1 10689563731715614857
16945 1 17385720335247428479
19837323 101 18126013671560412270
21339142 149 18200591367971971996
21339142 36 18412542132561612086
21524375 3 17407690510443001508
22344851 12 8834643721229128205
23402539 116 18271517589987778940
23419403 2 18119249703744230893
23526113 38 18045210793900422115
23559900 14 18410564077590418082
2748010 2 17984386802879093385
305870 269 17399808094487722956
3250762 1 18049713311485996221
430814 3 17619916054249834965
4340502 62 17902248715019460689
81228 2 18055663692079176690

>  <PUBCHEM_SHAPE_MULTIPOLES>  (1) 
332
4.4
3.02
1.56
5.18
3.04
0.18
-3.13
-0.59
-0.56
0.71
-0.51
-0.15
0.39

>  <PUBCHEM_SHAPE_SELFOVERLAP>  (1) 
665.722

>  <PUBCHEM_SHAPE_VOLUME>  (1) 
197.2

>  <PUBCHEM_COORDINATE_TYPE>  (1) 
2
5
10

$$$$
