49153
     RDKit          3D

 18 18  0  0  1  0  0  0  0  0999 V2000
    1.1129    0.6310    2.3896 O   0  0  0  0  0  0  0  0  0  0  0  0
    0.1045   -0.6516   -2.0136 O   0  0  0  0  0  0  0  0  0  0  0  0
    1.0826    3.7170   -1.0061 O   0  0  0  0  0  0  0  0  0  0  0  0
    1.0007    2.1880    0.7087 N   0  0  0  0  0  0  0  0  0  0  0  0
    0.4964    1.5475   -1.4908 N   0  0  0  0  0  0  0  0  0  0  0  0
    0.0191   -0.0282    0.3282 C   0  0  0  0  0  0  0  0  0  0  0  0
   -1.4800    0.1730    0.6132 C   0  0  0  0  0  0  0  0  0  0  0  0
   -2.3717   -0.7423   -0.2462 C   0  0  0  0  0  0  0  0  0  0  0  0
    0.4089   -1.4759    0.6607 C   0  0  0  0  0  0  0  0  0  0  0  0
    0.7796    0.9272    1.2425 C   0  0  0  0  0  0  0  0  0  0  0  0
    0.2290    0.2272   -1.1609 C   0  0  0  0  0  0  0  0  0  0  0  0
   -1.7619   -0.0784    2.0966 C   0  0  0  0  0  0  0  0  0  0  0  0
   -3.8694   -0.5140   -0.0281 C   0  0  0  0  0  0  0  0  0  0  0  0
    1.8735   -1.6886    0.4603 C   0  0  0  0  0  0  0  0  0  0  0  0
    0.8584    2.5685   -0.6203 C   0  0  0  0  0  0  0  0  0  0  0  0
   -4.7036   -1.3903   -0.9503 C   0  0  0  0  0  0  0  0  0  0  0  0
    2.3797   -2.5881   -0.3957 C   0  0  0  0  0  0  0  0  0  0  0  0
    3.8414   -2.8219   -0.5877 C   0  0  0  0  0  0  0  0  0  0  0  0
  1 10  2  0
  2 11  2  0
  3 15  2  0
  4 10  1  0
  4 15  1  0
  5 11  1  0
  5 15  1  0
  6  7  1  0
  6  9  1  0
  6 10  1  0
  6 11  1  0
  7  8  1  0
  7 12  1  0
  8 13  1  0
  9 14  1  0
 13 16  1  0
 14 17  2  0
 17 18  1  0
M  END
>  <PUBCHEM_COMPOUND_CID>  (1) 
49153

>  <PUBCHEM_CONFORMER_RMSD>  (1) 
0.8

>  <PUBCHEM_CONFORMER_DIVERSEORDER>  (1) 
1
4
11
6
17
7
15
19
16
18
13
10
14
8
9
3
12
5
2

>  <PUBCHEM_MMFF94_PARTIAL_CHARGES>  (1) 
17
1 -0.57
10 0.57
11 0.57
14 -0.29
15 0.69
17 -0.29
18 0.14
2 -0.57
29 0.15
3 -0.57
30 0.37
31 0.37
35 0.15
4 -0.49
5 -0.49
6 0.12
9 0.14

>  <PUBCHEM_EFFECTIVE_ROTOR_COUNT>  (1) 
5.6

>  <PUBCHEM_PHARMACOPHORE_FEATURES>  (1) 
9
1 1 acceptor
1 12 hydrophobe
1 16 hydrophobe
1 18 hydrophobe
1 2 acceptor
1 3 acceptor
1 4 donor
1 5 donor
6 4 5 6 10 11 15 rings

>  <PUBCHEM_HEAVY_ATOM_COUNT>  (1) 
18

>  <PUBCHEM_ATOM_DEF_STEREO_COUNT>  (1) 
0

>  <PUBCHEM_ATOM_UDEF_STEREO_COUNT>  (1) 
1

>  <PUBCHEM_BOND_DEF_STEREO_COUNT>  (1) 
0

>  <PUBCHEM_BOND_UDEF_STEREO_COUNT>  (1) 
1

>  <PUBCHEM_ISOTOPIC_ATOM_COUNT>  (1) 
0

>  <PUBCHEM_COMPONENT_COUNT>  (1) 
1

>  <PUBCHEM_CACTVS_TAUTO_COUNT>  (1) 
5

>  <PUBCHEM_CONFORMER_ID>  (1) 
0000C00100000001

>  <PUBCHEM_MMFF94_ENERGY>  (1) 
46.1687

>  <PUBCHEM_FEATURE_SELFOVERLAP>  (1) 
45.712

>  <PUBCHEM_SHAPE_FINGERPRINT>  (1) 
11315181 36 15286793213387418590
12423570 1 12035712232987941170
12725867 57 18336257981514058997
13024252 1 17246980444934902570
13132413 78 18194139433450331017
14142880 1 17173790341383558358
14181834 199 18202009840687086167
14817 1 10372721851116916640
15906896 17 8788586098185166256
16945 1 18192735503251705920
1813 80 18125744316945059495
20600515 1 17700707155067502565
20671657 53 18411418371828298007
21452121 71 18130792239321260163
21524375 3 17248074854141823181
22112679 90 17908740282491422054
23419403 2 17914588614925660088
23526113 38 18040156214462010715
5845 1 17906760019295544111
7364860 26 18337107981475284535
81228 2 17610068871140053122

>  <PUBCHEM_SHAPE_MULTIPOLES>  (1) 
342.86
5.17
3.32
1.79
4.18
2.36
-0.5
-6.19
1.34
-2.95
1.24
0.1
0.48
-0.2

>  <PUBCHEM_SHAPE_SELFOVERLAP>  (1) 
695.015

>  <PUBCHEM_SHAPE_VOLUME>  (1) 
197.5

>  <PUBCHEM_COORDINATE_TYPE>  (1) 
2
5
10

$$$$
