4915
     RDKit          3D

 16 16  0  0  0  0  0  0  0  0999 V2000
   -2.8043    1.7144   -0.5462 O   0  0  0  0  0  0  0  0  0  0  0  0
   -2.9616   -0.5438   -0.1107 N   0  0  0  0  0  0  0  0  0  0  0  0
    4.0426   -0.4853   -0.2273 N   0  0  0  0  0  0  0  0  0  0  0  0
    5.4537   -0.4935    0.0501 N   0  0  0  0  0  0  0  0  0  0  0  0
   -4.4090   -0.6322   -0.2979 C   0  0  0  0  0  0  0  0  0  0  0  0
    1.9249    0.4580    0.4715 C   0  0  0  0  0  0  0  0  0  0  0  0
   -0.8064    0.5863   -0.0025 C   0  0  0  0  0  0  0  0  0  0  0  0
   -2.2523    0.6543   -0.2530 C   0  0  0  0  0  0  0  0  0  0  0  0
    3.3931    0.3887    0.7253 C   0  0  0  0  0  0  0  0  0  0  0  0
   -5.1304   -0.3612    1.0194 C   0  0  0  0  0  0  0  0  0  0  0  0
   -4.7671   -2.0103   -0.8453 C   0  0  0  0  0  0  0  0  0  0  0  0
    1.4111    1.4279   -0.3895 C   0  0  0  0  0  0  0  0  0  0  0  0
    1.0657   -0.4475    1.0941 C   0  0  0  0  0  0  0  0  0  0  0  0
    0.0382    1.4924   -0.6276 C   0  0  0  0  0  0  0  0  0  0  0  0
   -0.3072   -0.3830    0.8558 C   0  0  0  0  0  0  0  0  0  0  0  0
    6.1091   -1.3652   -0.9161 C   0  0  0  0  0  0  0  0  0  0  0  0
  1  8  2  0
  2  5  1  0
  2  8  1  0
  3  4  1  0
  3  9  1  0
  4 16  1  0
  5 10  1  0
  5 11  1  0
  6  9  1  0
  6 12  2  0
  6 13  1  0
  7  8  1  0
  7 14  2  0
  7 15  1  0
 12 14  1  0
 13 15  2  0
M  END
>  <PUBCHEM_COMPOUND_CID>  (1) 
4915

>  <PUBCHEM_CONFORMER_RMSD>  (1) 
0.8

>  <PUBCHEM_CONFORMER_DIVERSEORDER>  (1) 
1
6
7
2
9
4
3
5
11
12
8
10

>  <PUBCHEM_MMFF94_PARTIAL_CHARGES>  (1) 
21
1 -0.57
12 -0.15
13 -0.15
14 -0.15
15 -0.15
16 0.27
18 0.37
2 -0.73
27 0.15
28 0.15
29 0.15
3 -0.63
30 0.15
31 0.36
32 0.36
4 -0.63
5 0.3
6 -0.14
7 0.09
8 0.54
9 0.41

>  <PUBCHEM_EFFECTIVE_ROTOR_COUNT>  (1) 
6

>  <PUBCHEM_PHARMACOPHORE_FEATURES>  (1) 
6
1 1 acceptor
1 2 donor
1 3 donor
1 4 donor
3 5 10 11 hydrophobe
6 6 7 12 13 14 15 rings

>  <PUBCHEM_HEAVY_ATOM_COUNT>  (1) 
16

>  <PUBCHEM_ATOM_DEF_STEREO_COUNT>  (1) 
0

>  <PUBCHEM_ATOM_UDEF_STEREO_COUNT>  (1) 
0

>  <PUBCHEM_BOND_DEF_STEREO_COUNT>  (1) 
0

>  <PUBCHEM_BOND_UDEF_STEREO_COUNT>  (1) 
0

>  <PUBCHEM_ISOTOPIC_ATOM_COUNT>  (1) 
0

>  <PUBCHEM_COMPONENT_COUNT>  (1) 
1

>  <PUBCHEM_CACTVS_TAUTO_COUNT>  (1) 
2

>  <PUBCHEM_CONFORMER_ID>  (1) 
0000133300000001

>  <PUBCHEM_MMFF94_ENERGY>  (1) 
31.6324

>  <PUBCHEM_FEATURE_SELFOVERLAP>  (1) 
31.729

>  <PUBCHEM_SHAPE_FINGERPRINT>  (1) 
11089746 13 8142086438123467962
11128504 68 17749115508496803606
117890 112 8142087563547467286
12032990 46 18409164419919278304
12596602 18 16415476073499292370
12670543 26 17531239522446828630
12715332 25 17489583489362847278
13288520 33 18413671296522059316
13675066 3 14261359071753428225
13760787 5 18114181999334090725
13862211 1 18187355537191442898
14178000 29 18411138056576926044
14251718 22 14129063629359955475
14350574 20 18113622304248389928
14455015 7 17846499214693261886
14576447 43 18114733910551810778
14911166 2 17530965795670085328
14993402 34 16660645159085598964
15501527 24 17530687610833580126
15880784 105 18059856229000938403
17834072 33 18408325510138650236
18186145 218 16443614809958825993
18222031 100 18187634834376900584
19026448 4 17988349421505882256
19784866 240 18201727257693274142
200 152 18114453548641360753
20871999 31 17312817152195460573
21150785 3 16153718643293972718
21267235 1 18260271876086674707
21637258 2 17917701405532463390
22713019 99 18334013904315459186
23379529 103 18120940765508130875
23402539 116 18409163303248705077
23402655 69 17604415311568514397
23557571 272 18411141290291660964
23559900 14 18340477975718892216
23590187 198 18202284718915952439
26918003 58 16917351432893631155
2767999 5 9799691480687490330
2838139 119 12251905918992943446
33382 64 17988928847159760966
42 15 17632579365879303545
441001 317 7781519222076825463
465052 167 17632863031943599766
4990 188 18408885101522273052
5104073 3 12966828183398372694
59755656 215 18411417268016324343
69474 34 12031780353832902714

>  <PUBCHEM_SHAPE_MULTIPOLES>  (1) 
308.46
12.41
1.59
1.01
6.49
0.07
-0.12
7.88
1.84
-0.57
0.56
-0.09
0.12
0.22

>  <PUBCHEM_SHAPE_SELFOVERLAP>  (1) 
618.344

>  <PUBCHEM_SHAPE_VOLUME>  (1) 
182.9

>  <PUBCHEM_COORDINATE_TYPE>  (1) 
2
5
10

$$$$
