49162
     RDKit          3D

 16 16  0  0  0  0  0  0  0  0999 V2000
    1.1904   -1.3782   -2.0086 O   0  0  0  0  0  0  0  0  0  0  0  0
   -0.3949    0.2981    2.0813 O   0  0  0  0  0  0  0  0  0  0  0  0
    3.5999    1.7393    0.3435 O   0  0  0  0  0  0  0  0  0  0  0  0
    2.3444    0.2523   -0.8805 N   0  0  0  0  0  0  0  0  0  0  0  0
    1.5527    1.0891    1.1629 N   0  0  0  0  0  0  0  0  0  0  0  0
    0.0103   -0.1809   -0.2610 C   0  0  0  0  0  0  0  0  0  0  0  0
   -0.8698   -1.4278   -0.0911 C   0  0  0  0  0  0  0  0  0  0  0  0
   -0.7831    0.9030   -1.0126 C   0  0  0  0  0  0  0  0  0  0  0  0
    1.2216   -0.5253   -1.1218 C   0  0  0  0  0  0  0  0  0  0  0  0
    0.3564    0.3894    1.1108 C   0  0  0  0  0  0  0  0  0  0  0  0
   -0.1085   -2.5390    0.6170 C   0  0  0  0  0  0  0  0  0  0  0  0
   -1.9983    1.3002   -0.2405 C   0  0  0  0  0  0  0  0  0  0  0  0
   -0.9720   -3.7816    0.7634 C   0  0  0  0  0  0  0  0  0  0  0  0
    2.5637    1.0861    0.2094 C   0  0  0  0  0  0  0  0  0  0  0  0
   -3.2469    1.1810   -0.7143 C   0  0  0  0  0  0  0  0  0  0  0  0
   -4.4659    1.5941    0.0421 C   0  0  0  0  0  0  0  0  0  0  0  0
  1  9  2  0
  2 10  2  0
  3 14  2  0
  4  9  1  0
  4 14  1  0
  5 10  1  0
  5 14  1  0
  6  7  1  0
  6  8  1  0
  6  9  1  0
  6 10  1  0
  7 11  1  0
  8 12  1  0
 11 13  1  0
 12 15  2  0
 15 16  1  0
M  END
>  <PUBCHEM_COMPOUND_CID>  (1) 
49162

>  <PUBCHEM_CONFORMER_RMSD>  (1) 
0.6

>  <PUBCHEM_CONFORMER_DIVERSEORDER>  (1) 
1
14
10
2
9
4
11
13
12
15
7
5
8
6
3

>  <PUBCHEM_MMFF94_PARTIAL_CHARGES>  (1) 
17
1 -0.57
10 0.57
12 -0.29
14 0.69
15 -0.29
16 0.14
2 -0.57
23 0.15
24 0.37
25 0.37
29 0.15
3 -0.57
4 -0.49
5 -0.49
6 0.12
8 0.14
9 0.57

>  <PUBCHEM_EFFECTIVE_ROTOR_COUNT>  (1) 
4.6

>  <PUBCHEM_PHARMACOPHORE_FEATURES>  (1) 
8
1 1 acceptor
1 13 hydrophobe
1 16 hydrophobe
1 2 acceptor
1 3 acceptor
1 4 donor
1 5 donor
6 4 5 6 9 10 14 rings

>  <PUBCHEM_HEAVY_ATOM_COUNT>  (1) 
16

>  <PUBCHEM_ATOM_DEF_STEREO_COUNT>  (1) 
0

>  <PUBCHEM_ATOM_UDEF_STEREO_COUNT>  (1) 
0

>  <PUBCHEM_BOND_DEF_STEREO_COUNT>  (1) 
0

>  <PUBCHEM_BOND_UDEF_STEREO_COUNT>  (1) 
1

>  <PUBCHEM_ISOTOPIC_ATOM_COUNT>  (1) 
0

>  <PUBCHEM_COMPONENT_COUNT>  (1) 
1

>  <PUBCHEM_CACTVS_TAUTO_COUNT>  (1) 
5

>  <PUBCHEM_CONFORMER_ID>  (1) 
0000C00A00000001

>  <PUBCHEM_MMFF94_ENERGY>  (1) 
34.9766

>  <PUBCHEM_FEATURE_SELFOVERLAP>  (1) 
40.636

>  <PUBCHEM_SHAPE_FINGERPRINT>  (1) 
10922049 32 18335136470926818256
12138202 97 18338801216259715868
12423570 1 15477080063316991954
12532896 13 18410007754143878111
12716301 132 18268132335583320859
13955234 65 18047189649333562313
14817 1 15398772711958565498
15852999 172 18343585148629265116
15906896 17 18195792188373842926
16945 1 18120089747765366858
18534176 82 18268144447380519556
19765921 60 18200865206407387017
201361 129 18125725578456343113
20645477 70 17985256388466072325
20711985 344 17977086178719662707
20820808 20 18272084950999434265
21524375 3 18271788125646168389
22344851 341 18341326700222478207
23419403 2 17770260203356851471
23493267 7 18340200916490495992
25 1 18060135427270669205
276578 36 18335696101091981377
6442390 28 18409740573240445171
7364860 26 17975124341070107775
81228 2 17974274723456001619

>  <PUBCHEM_SHAPE_MULTIPOLES>  (1) 
301.7
4.76
3
1.46
3.98
4.22
0.01
-4.73
-0.25
0.25
0.72
-0.49
0.11
0.65

>  <PUBCHEM_SHAPE_SELFOVERLAP>  (1) 
612.96

>  <PUBCHEM_SHAPE_VOLUME>  (1) 
172.9

>  <PUBCHEM_COORDINATE_TYPE>  (1) 
2
5
10

$$$$
