49166
     RDKit          3D

 21 21  0  0  0  0  0  0  0  0999 V2000
   -1.1778    0.9296    0.1236 O   0  0  0  0  0  0  0  0  0  0  0  0
    2.9218    2.0798   -0.7137 O   0  0  0  0  0  0  0  0  0  0  0  0
    2.8670   -2.6152   -0.7845 O   0  0  0  0  0  0  0  0  0  0  0  0
   -3.9632    0.7593   -0.0830 O   0  0  0  0  0  0  0  0  0  0  0  0
    4.5712   -0.3412    2.8183 O   0  0  0  0  0  0  0  0  0  0  0  0
    3.6544    0.8687    1.0916 N   0  0  0  0  0  0  0  0  0  0  0  0
    3.6277   -1.4765    1.0559 N   0  0  0  0  0  0  0  0  0  0  0  0
    2.3032   -0.2629   -0.6150 C   0  0  0  0  0  0  0  0  0  0  0  0
    0.8795   -0.2553   -0.0300 C   0  0  0  0  0  0  0  0  0  0  0  0
    2.2217   -0.2388   -2.1483 C   0  0  0  0  0  0  0  0  0  0  0  0
    2.9957    1.0034   -0.1213 C   0  0  0  0  0  0  0  0  0  0  0  0
    2.9660   -1.5593   -0.1600 C   0  0  0  0  0  0  0  0  0  0  0  0
    0.1145    0.9775   -0.4648 C   0  0  0  0  0  0  0  0  0  0  0  0
    3.6001   -0.3205   -2.7646 C   0  0  0  0  0  0  0  0  0  0  0  0
    3.9770   -0.3179    1.7392 C   0  0  0  0  0  0  0  0  0  0  0  0
   -1.9594    2.0596   -0.2403 C   0  0  0  0  0  0  0  0  0  0  0  0
   -3.3302    1.9392    0.3971 C   0  0  0  0  0  0  0  0  0  0  0  0
   -5.8676   -0.6916   -0.0534 C   0  0  0  0  0  0  0  0  0  0  0  0
   -5.2469    0.5832    0.4999 C   0  0  0  0  0  0  0  0  0  0  0  0
   -7.2605   -0.9353    0.5204 C   0  0  0  0  0  0  0  0  0  0  0  0
   -7.8942   -2.1861   -0.0673 C   0  0  0  0  0  0  0  0  0  0  0  0
  1 13  1  0
  1 16  1  0
  2 11  2  0
  3 12  2  0
  4 17  1  0
  4 19  1  0
  5 15  2  0
  6 11  1  0
  6 15  1  0
  7 12  1  0
  7 15  1  0
  8  9  1  0
  8 10  1  0
  8 11  1  0
  8 12  1  0
  9 13  1  0
 10 14  1  0
 16 17  1  0
 18 19  1  0
 18 20  1  0
 20 21  1  0
M  END
>  <PUBCHEM_COMPOUND_CID>  (1) 
49166

>  <PUBCHEM_CONFORMER_RMSD>  (1) 
1

>  <PUBCHEM_CONFORMER_DIVERSEORDER>  (1) 
1
47
36
11
87
71
97
18
63
65
32
79
5
57
30
19
12
99
75
14
16
50
27
90
98
70
53
9
61
80
2
59
44
52
3
58
85
25
62
100
74
68
46
38
84
40
51
49
64
31
28
15
20
88
35
45
60
67
23
42
21
13
43
26
69
33
89
92
73
7
41
94
91
82
72
55
56
93
29
24
37
78
8
17
48
4
77
39
76
66
83
34
54
22
10
6
102
95
86
81
96
101

>  <PUBCHEM_MMFF94_PARTIAL_CHARGES>  (1) 
17
1 -0.56
11 0.57
12 0.57
13 0.28
15 0.69
16 0.28
17 0.28
19 0.28
2 -0.57
3 -0.57
31 0.37
32 0.37
4 -0.56
5 -0.57
6 -0.49
7 -0.49
8 0.12

>  <PUBCHEM_EFFECTIVE_ROTOR_COUNT>  (1) 
10.6

>  <PUBCHEM_PHARMACOPHORE_FEATURES>  (1) 
10
1 1 acceptor
1 14 hydrophobe
1 2 acceptor
1 21 hydrophobe
1 3 acceptor
1 4 acceptor
1 5 acceptor
1 6 donor
1 7 donor
6 6 7 8 11 12 15 rings

>  <PUBCHEM_HEAVY_ATOM_COUNT>  (1) 
21

>  <PUBCHEM_ATOM_DEF_STEREO_COUNT>  (1) 
0

>  <PUBCHEM_ATOM_UDEF_STEREO_COUNT>  (1) 
0

>  <PUBCHEM_BOND_DEF_STEREO_COUNT>  (1) 
0

>  <PUBCHEM_BOND_UDEF_STEREO_COUNT>  (1) 
0

>  <PUBCHEM_ISOTOPIC_ATOM_COUNT>  (1) 
0

>  <PUBCHEM_COMPONENT_COUNT>  (1) 
1

>  <PUBCHEM_CACTVS_TAUTO_COUNT>  (1) 
5

>  <PUBCHEM_CONFORMER_ID>  (1) 
0000C00E00000001

>  <PUBCHEM_MMFF94_ENERGY>  (1) 
45.8719

>  <PUBCHEM_FEATURE_SELFOVERLAP>  (1) 
50.793

>  <PUBCHEM_SHAPE_FINGERPRINT>  (1) 
10378564 45 12685087073275664787
12596602 18 15769782356061789551
12616971 3 17313674737602031185
12730499 353 16845576422181818364
13533116 47 17530961388933647073
13955234 65 16128656315157763286
14251740 57 18341899549927752447
14251764 75 15337120234746474346
15183329 4 14562521874386784159
15188451 53 17968364676752842873
17349148 13 17603872152618606249
17492 89 18267868289663063615
17844677 252 15697725809589557521
20028762 73 18335135376122231979
21315763 87 18060137661444999771
21968339 14 15936705855391389686
22289505 5 12035739707893954430
23081809 10 17603311440902464541
239999 70 17988652886519625596
29717793 49 16008744706714354125
3004659 81 17967537861230978055
312425 54 17775015570595117715
4340502 62 17275099548292292127
5104073 3 17632018529535147665
59682541 52 14562517480477167211
60123966 16 13551479180310163359
8988823 20 18041277763778147997
960060 61 14057011494120036891

>  <PUBCHEM_SHAPE_MULTIPOLES>  (1) 
392.86
16.73
2.19
1.88
42.06
0.22
-0.04
9.02
3.85
1.14
-0.19
-4.54
0.39
0.01

>  <PUBCHEM_SHAPE_SELFOVERLAP>  (1) 
779.493

>  <PUBCHEM_SHAPE_VOLUME>  (1) 
231.1

>  <PUBCHEM_COORDINATE_TYPE>  (1) 
2
5
10

$$$$
