49160
     RDKit          3D

 16 16  0  0  0  0  0  0  0  0999 V2000
   -0.0997    0.5093    2.2705 O   0  0  0  0  0  0  0  0  0  0  0  0
    0.5851    0.1426   -2.4715 O   0  0  0  0  0  0  0  0  0  0  0  0
    1.1858   -3.4360    0.3266 O   0  0  0  0  0  0  0  0  0  0  0  0
    0.5380   -1.4446    1.2666 N   0  0  0  0  0  0  0  0  0  0  0  0
    0.8747   -1.6230   -1.0462 N   0  0  0  0  0  0  0  0  0  0  0  0
    0.1492    0.5448   -0.1306 C   0  0  0  0  0  0  0  0  0  0  0  0
    1.0427    1.7922   -0.1021 C   0  0  0  0  0  0  0  0  0  0  0  0
    2.4874    1.4219    0.2031 C   0  0  0  0  0  0  0  0  0  0  0  0
    0.1839   -0.1071    1.2412 C   0  0  0  0  0  0  0  0  0  0  0  0
    0.5555   -0.3054   -1.3234 C   0  0  0  0  0  0  0  0  0  0  0  0
   -1.2877    0.9201   -0.3620 C   0  0  0  0  0  0  0  0  0  0  0  0
    3.3678    2.6601    0.2555 C   0  0  0  0  0  0  0  0  0  0  0  0
   -2.2959    0.0364   -0.3838 C   0  0  0  0  0  0  0  0  0  0  0  0
    0.8851   -2.2486    0.1914 C   0  0  0  0  0  0  0  0  0  0  0  0
   -3.7289    0.4116   -0.6203 C   0  0  0  0  0  0  0  0  0  0  0  0
   -4.4430    0.7258    0.6851 C   0  0  0  0  0  0  0  0  0  0  0  0
  1  9  2  0
  2 10  2  0
  3 14  2  0
  4  9  1  0
  4 14  1  0
  5 10  1  0
  5 14  1  0
  6  7  1  0
  6  9  1  0
  6 10  1  0
  6 11  1  0
  7  8  1  0
  8 12  1  0
 11 13  2  0
 13 15  1  0
 15 16  1  0
M  END
>  <PUBCHEM_COMPOUND_CID>  (1) 
49160

>  <PUBCHEM_CONFORMER_RMSD>  (1) 
0.6

>  <PUBCHEM_CONFORMER_DIVERSEORDER>  (1) 
1
10
8
2
7
12
9
4
5
6
3
11

>  <PUBCHEM_MMFF94_PARTIAL_CHARGES>  (1) 
16
1 -0.57
10 0.57
11 -0.29
13 -0.29
14 0.69
15 0.14
2 -0.57
21 0.15
22 0.37
23 0.37
27 0.15
3 -0.57
4 -0.49
5 -0.49
6 0.26
9 0.57

>  <PUBCHEM_EFFECTIVE_ROTOR_COUNT>  (1) 
4.6

>  <PUBCHEM_PHARMACOPHORE_FEATURES>  (1) 
8
1 1 acceptor
1 12 hydrophobe
1 16 hydrophobe
1 2 acceptor
1 3 acceptor
1 4 donor
1 5 donor
6 4 5 6 9 10 14 rings

>  <PUBCHEM_HEAVY_ATOM_COUNT>  (1) 
16

>  <PUBCHEM_ATOM_DEF_STEREO_COUNT>  (1) 
0

>  <PUBCHEM_ATOM_UDEF_STEREO_COUNT>  (1) 
0

>  <PUBCHEM_BOND_DEF_STEREO_COUNT>  (1) 
0

>  <PUBCHEM_BOND_UDEF_STEREO_COUNT>  (1) 
1

>  <PUBCHEM_ISOTOPIC_ATOM_COUNT>  (1) 
0

>  <PUBCHEM_COMPONENT_COUNT>  (1) 
1

>  <PUBCHEM_CACTVS_TAUTO_COUNT>  (1) 
5

>  <PUBCHEM_CONFORMER_ID>  (1) 
0000C00800000001

>  <PUBCHEM_MMFF94_ENERGY>  (1) 
26.7538

>  <PUBCHEM_FEATURE_SELFOVERLAP>  (1) 
40.638

>  <PUBCHEM_SHAPE_FINGERPRINT>  (1) 
10702982 57 18048578598169007988
10922049 32 18337673138836401396
12423570 1 14255123964687377348
12592029 89 18410571777970830056
13024252 1 16447260901795433784
14817 1 10672346444739784142
15852999 172 17895208726042957697
15906896 17 17837486723785520414
16945 1 18337941290792697046
187816 3 15768944604846359748
19765921 60 18131355262362653793
201361 129 18343305842711740209
20473742 2 18261096453529781078
20645477 70 18262220129155254687
21524375 3 18129092501761111877
22344851 341 18342741857296641071
23419403 2 17898042116258461498
23557571 272 17023176077594110557
3250762 1 15001574355557754568
394222 165 18131354106852706673
430814 3 18197476610106915797
633830 44 18272090542878308892
7364860 26 18337668612114671917
81228 2 17181072852911592913
81539 233 18335976536581319477

>  <PUBCHEM_SHAPE_MULTIPOLES>  (1) 
301.7
4.85
2.72
1.59
5.25
2.21
-0.13
-4.09
0.43
-2.63
0.38
-0.11
0.13
0.01

>  <PUBCHEM_SHAPE_SELFOVERLAP>  (1) 
613.105

>  <PUBCHEM_SHAPE_VOLUME>  (1) 
174.2

>  <PUBCHEM_COORDINATE_TYPE>  (1) 
2
5
10

$$$$
