49177
     RDKit          3D

 18 18  0  0  1  0  0  0  0  0999 V2000
    2.0767    0.7688   -0.2114 O   0  0  0  0  0  0  0  0  0  0  0  0
   -0.7111    0.3053    2.2203 O   0  0  0  0  0  0  0  0  0  0  0  0
   -0.5959   -0.5502   -2.3955 O   0  0  0  0  0  0  0  0  0  0  0  0
    1.9333   -3.0356    0.5170 O   0  0  0  0  0  0  0  0  0  0  0  0
    0.6837   -1.2982    1.3569 N   0  0  0  0  0  0  0  0  0  0  0  0
    0.7419   -1.7252   -0.9489 N   0  0  0  0  0  0  0  0  0  0  0  0
   -0.2924    0.3579   -0.1676 C   0  0  0  0  0  0  0  0  0  0  0  0
   -1.6621    1.0337   -0.3270 C   0  0  0  0  0  0  0  0  0  0  0  0
    0.8171    1.4116   -0.3350 C   0  0  0  0  0  0  0  0  0  0  0  0
   -2.7876    0.0462   -0.0559 C   0  0  0  0  0  0  0  0  0  0  0  0
   -0.1634   -0.2060    1.2439 C   0  0  0  0  0  0  0  0  0  0  0  0
   -0.1003   -0.6728   -1.2756 C   0  0  0  0  0  0  0  0  0  0  0  0
    0.6977    2.5091    0.7036 C   0  0  0  0  0  0  0  0  0  0  0  0
   -4.1484    0.7298   -0.1872 C   0  0  0  0  0  0  0  0  0  0  0  0
    1.1859   -2.0759    0.3204 C   0  0  0  0  0  0  0  0  0  0  0  0
    3.1506    1.6892   -0.3564 C   0  0  0  0  0  0  0  0  0  0  0  0
   -5.2866   -0.2324    0.1133 C   0  0  0  0  0  0  0  0  0  0  0  0
    4.4609    0.9446   -0.2148 C   0  0  0  0  0  0  0  0  0  0  0  0
  1  9  1  0
  1 16  1  0
  2 11  2  0
  3 12  2  0
  4 15  2  0
  5 11  1  0
  5 15  1  0
  6 12  1  0
  6 15  1  0
  7  8  1  0
  7  9  1  0
  7 11  1  0
  7 12  1  0
  8 10  1  0
  9 13  1  0
 10 14  1  0
 14 17  1  0
 16 18  1  0
M  END
>  <PUBCHEM_COMPOUND_CID>  (1) 
49177

>  <PUBCHEM_CONFORMER_RMSD>  (1) 
0.8

>  <PUBCHEM_CONFORMER_DIVERSEORDER>  (1) 
2
11
17
15
18
14
8
4
13
1
7
12
16
10
5
9
6
3

>  <PUBCHEM_MMFF94_PARTIAL_CHARGES>  (1) 
14
1 -0.56
11 0.57
12 0.57
15 0.69
16 0.28
2 -0.57
29 0.37
3 -0.57
30 0.37
4 -0.57
5 -0.49
6 -0.49
7 0.12
9 0.28

>  <PUBCHEM_EFFECTIVE_ROTOR_COUNT>  (1) 
6.6

>  <PUBCHEM_PHARMACOPHORE_FEATURES>  (1) 
8
1 1 acceptor
1 17 hydrophobe
1 2 acceptor
1 3 acceptor
1 4 acceptor
1 5 donor
1 6 donor
6 5 6 7 11 12 15 rings

>  <PUBCHEM_HEAVY_ATOM_COUNT>  (1) 
18

>  <PUBCHEM_ATOM_DEF_STEREO_COUNT>  (1) 
0

>  <PUBCHEM_ATOM_UDEF_STEREO_COUNT>  (1) 
1

>  <PUBCHEM_BOND_DEF_STEREO_COUNT>  (1) 
0

>  <PUBCHEM_BOND_UDEF_STEREO_COUNT>  (1) 
0

>  <PUBCHEM_ISOTOPIC_ATOM_COUNT>  (1) 
0

>  <PUBCHEM_COMPONENT_COUNT>  (1) 
1

>  <PUBCHEM_CACTVS_TAUTO_COUNT>  (1) 
5

>  <PUBCHEM_CONFORMER_ID>  (1) 
0000C01900000002

>  <PUBCHEM_MMFF94_ENERGY>  (1) 
45.8895

>  <PUBCHEM_FEATURE_SELFOVERLAP>  (1) 
40.638

>  <PUBCHEM_SHAPE_FINGERPRINT>  (1) 
10922049 32 18335140946298532429
10948715 1 18335422412674791484
11315181 36 17273993509501656092
12423570 1 11922626968002124110
12592029 89 18410292510496507106
12644460 14 18341899567465973363
13380536 53 16732983132551157500
13464514 151 18335989666539150673
13533116 47 15913057482857045436
14713566 1 17418097675725501196
14817 1 17044069233414577582
15852999 172 17531827816743638627
16945 1 18340472443916857861
187816 3 16200162022677383140
20233049 118 16988843878318989801
20473742 2 18187920625690430702
20645477 70 18262226739157525735
21501502 16 18197219153072867881
21524375 3 18271249438158259021
22112679 90 17630013084286441398
23402539 116 16226321620889998525
23419403 2 17534376411914760970
298252 57 17774446095599741540
3286 77 17677890128570534090
347723 3 17632302284675534524
366044 4 18335702796977741696
54040823 5 18342461435150894067
68250623 7 18121783824437631040
7364860 26 18409165476771149619
81228 2 17108456711261617993
81539 233 18333449854496904317
9999458 23 18338234989373355301

>  <PUBCHEM_SHAPE_MULTIPOLES>  (1) 
336.99
6.41
2.37
1.45
5.5
1.1
-0.02
-2.08
-0.44
-2.13
0.37
0.14
0.32
-0.26

>  <PUBCHEM_SHAPE_SELFOVERLAP>  (1) 
681.413

>  <PUBCHEM_SHAPE_VOLUME>  (1) 
194.4

>  <PUBCHEM_COORDINATE_TYPE>  (1) 
2
5
10

$$$$
