49170
     RDKit          3D

 17 17  0  0  0  0  0  0  0  0999 V2000
   -0.9604   -0.5902   -0.0164 O   0  0  0  0  0  0  0  0  0  0  0  0
    1.8506   -0.3746    2.3361 O   0  0  0  0  0  0  0  0  0  0  0  0
    1.9247   -0.2584   -2.3577 O   0  0  0  0  0  0  0  0  0  0  0  0
    0.0154    3.1527    0.0457 O   0  0  0  0  0  0  0  0  0  0  0  0
    0.8473    1.3388    1.1872 N   0  0  0  0  0  0  0  0  0  0  0  0
    0.8837    1.3966   -1.1575 N   0  0  0  0  0  0  0  0  0  0  0  0
    1.4284   -0.7121   -0.0278 C   0  0  0  0  0  0  0  0  0  0  0  0
    2.6130   -1.6893   -0.0333 C   0  0  0  0  0  0  0  0  0  0  0  0
    0.1120   -1.5085   -0.0681 C   0  0  0  0  0  0  0  0  0  0  0  0
    1.4297    0.0831    1.2740 C   0  0  0  0  0  0  0  0  0  0  0  0
    1.4698    0.1464   -1.2880 C   0  0  0  0  0  0  0  0  0  0  0  0
    3.9243   -0.9507    0.1136 C   0  0  0  0  0  0  0  0  0  0  0  0
   -2.2235   -1.2476   -0.0493 C   0  0  0  0  0  0  0  0  0  0  0  0
   -3.3252   -0.1980   -0.0110 C   0  0  0  0  0  0  0  0  0  0  0  0
    0.5301    2.0333    0.0260 C   0  0  0  0  0  0  0  0  0  0  0  0
   -4.7116   -0.8355   -0.0276 C   0  0  0  0  0  0  0  0  0  0  0  0
   -5.8084    0.2141    0.0542 C   0  0  0  0  0  0  0  0  0  0  0  0
  1  9  1  0
  1 13  1  0
  2 10  2  0
  3 11  2  0
  4 15  2  0
  5 10  1  0
  5 15  1  0
  6 11  1  0
  6 15  1  0
  7  8  1  0
  7  9  1  0
  7 10  1  0
  7 11  1  0
  8 12  1  0
 13 14  1  0
 14 16  1  0
 16 17  1  0
M  END
>  <PUBCHEM_COMPOUND_CID>  (1) 
49170

>  <PUBCHEM_CONFORMER_RMSD>  (1) 
0.8

>  <PUBCHEM_CONFORMER_DIVERSEORDER>  (1) 
1
27
7
16
35
25
32
13
24
4
36
31
14
5
21
26
6
38
29
30
17
11
34
19
3
15
18
28
33
2
37
9
20
23
12
10
8
22

>  <PUBCHEM_MMFF94_PARTIAL_CHARGES>  (1) 
14
1 -0.56
10 0.57
11 0.57
13 0.28
15 0.69
2 -0.57
27 0.37
28 0.37
3 -0.57
4 -0.57
5 -0.49
6 -0.49
7 0.12
9 0.28

>  <PUBCHEM_EFFECTIVE_ROTOR_COUNT>  (1) 
6.6

>  <PUBCHEM_PHARMACOPHORE_FEATURES>  (1) 
9
1 1 acceptor
1 12 hydrophobe
1 17 hydrophobe
1 2 acceptor
1 3 acceptor
1 4 acceptor
1 5 donor
1 6 donor
6 5 6 7 10 11 15 rings

>  <PUBCHEM_HEAVY_ATOM_COUNT>  (1) 
17

>  <PUBCHEM_ATOM_DEF_STEREO_COUNT>  (1) 
0

>  <PUBCHEM_ATOM_UDEF_STEREO_COUNT>  (1) 
0

>  <PUBCHEM_BOND_DEF_STEREO_COUNT>  (1) 
0

>  <PUBCHEM_BOND_UDEF_STEREO_COUNT>  (1) 
0

>  <PUBCHEM_ISOTOPIC_ATOM_COUNT>  (1) 
0

>  <PUBCHEM_COMPONENT_COUNT>  (1) 
1

>  <PUBCHEM_CACTVS_TAUTO_COUNT>  (1) 
5

>  <PUBCHEM_CONFORMER_ID>  (1) 
0000C01200000001

>  <PUBCHEM_MMFF94_ENERGY>  (1) 
34.9707

>  <PUBCHEM_FEATURE_SELFOVERLAP>  (1) 
45.713

>  <PUBCHEM_SHAPE_FINGERPRINT>  (1) 
12725867 57 18343019995262688358
13134695 92 18412256242379353847
13464514 151 18120384403991791684
14344429 50 18335135435950203279
14817 1 12010207179749537616
16945 1 17896058649032485870
18186145 218 18060146453348334987
20233049 118 18260265231144409925
20511035 2 17557977630984642182
20559304 39 18334856121674533795
20671657 1 18268431420173805949
21054139 6 8646189417272972769
212847 35 18260553316645462383
21524375 3 17049085290996197953
22892500 29 16845279566526463210
23419403 2 17970597819513638732
3052486 1 18192714449623123705
3060560 45 17917993854414684663
427121 178 11602826842847576957
5939293 188 18268706276643323873
7364860 26 18266176317081818597
7495541 125 18188502379749249795
74978 22 18339083817008806159
9971528 1 18343292670067784875
9999458 23 15626216944683489698

>  <PUBCHEM_SHAPE_MULTIPOLES>  (1) 
316.41
7.58
2.1
1.45
14.68
1.75
0.02
-2.62
-0.13
-0.68
-0.01
-1.44
0.1
-0.06

>  <PUBCHEM_SHAPE_SELFOVERLAP>  (1) 
636.313

>  <PUBCHEM_SHAPE_VOLUME>  (1) 
183.3

>  <PUBCHEM_COORDINATE_TYPE>  (1) 
2
5
10

$$$$
