49178
     RDKit          3D

 16 16  0  0  1  0  0  0  0  0999 V2000
    0.7906    2.2433   -0.6246 O   0  0  0  0  0  0  0  0  0  0  0  0
   -0.9195   -1.0242    2.1738 O   0  0  0  0  0  0  0  0  0  0  0  0
    2.9602   -1.8328   -0.1149 O   0  0  0  0  0  0  0  0  0  0  0  0
    1.8361    0.1642   -0.5621 N   0  0  0  0  0  0  0  0  0  0  0  0
    0.9855   -1.4306    0.9623 N   0  0  0  0  0  0  0  0  0  0  0  0
   -0.4790    0.3878    0.2545 C   0  0  0  0  0  0  0  0  0  0  0  0
   -1.2620   -0.2365   -0.9148 C   0  0  0  0  0  0  0  0  0  0  0  0
   -1.3574    1.4492    0.9357 C   0  0  0  0  0  0  0  0  0  0  0  0
   -2.5435   -0.8969   -0.3831 C   0  0  0  0  0  0  0  0  0  0  0  0
    0.7680    1.0464   -0.3325 C   0  0  0  0  0  0  0  0  0  0  0  0
   -0.1727   -0.7251    1.2432 C   0  0  0  0  0  0  0  0  0  0  0  0
   -1.5451    0.8325   -1.9681 C   0  0  0  0  0  0  0  0  0  0  0  0
   -0.6416    2.0674    2.1154 C   0  0  0  0  0  0  0  0  0  0  0  0
   -3.3547   -1.5968   -1.4641 C   0  0  0  0  0  0  0  0  0  0  0  0
    1.9914   -1.0893    0.0608 C   0  0  0  0  0  0  0  0  0  0  0  0
    2.9436    0.6414   -1.3816 C   0  0  0  0  0  0  0  0  0  0  0  0
  1 10  2  0
  2 11  2  0
  3 15  2  0
  4 10  1  0
  4 15  1  0
  4 16  1  0
  5 11  1  0
  5 15  1  0
  6  7  1  0
  6  8  1  0
  6 10  1  0
  6 11  1  0
  7  9  1  0
  7 12  1  0
  8 13  1  0
  9 14  1  0
M  END
>  <PUBCHEM_COMPOUND_CID>  (1) 
49178

>  <PUBCHEM_CONFORMER_RMSD>  (1) 
0.6

>  <PUBCHEM_CONFORMER_DIVERSEORDER>  (1) 
2
16
12
4
6
13
11
5
14
9
7
15
3
1
10
8

>  <PUBCHEM_MMFF94_PARTIAL_CHARGES>  (1) 
11
1 -0.57
10 0.57
11 0.57
15 0.69
16 0.3
2 -0.57
28 0.37
3 -0.57
4 -0.42
5 -0.49
6 0.12

>  <PUBCHEM_EFFECTIVE_ROTOR_COUNT>  (1) 
3.6

>  <PUBCHEM_PHARMACOPHORE_FEATURES>  (1) 
8
1 1 acceptor
1 12 hydrophobe
1 13 hydrophobe
1 14 hydrophobe
1 2 acceptor
1 3 acceptor
1 5 donor
6 4 5 6 10 11 15 rings

>  <PUBCHEM_HEAVY_ATOM_COUNT>  (1) 
16

>  <PUBCHEM_ATOM_DEF_STEREO_COUNT>  (1) 
0

>  <PUBCHEM_ATOM_UDEF_STEREO_COUNT>  (1) 
2

>  <PUBCHEM_BOND_DEF_STEREO_COUNT>  (1) 
0

>  <PUBCHEM_BOND_UDEF_STEREO_COUNT>  (1) 
0

>  <PUBCHEM_ISOTOPIC_ATOM_COUNT>  (1) 
0

>  <PUBCHEM_COMPONENT_COUNT>  (1) 
1

>  <PUBCHEM_CACTVS_TAUTO_COUNT>  (1) 
3

>  <PUBCHEM_CONFORMER_ID>  (1) 
0000C01A00000002

>  <PUBCHEM_MMFF94_ENERGY>  (1) 
45.8735

>  <PUBCHEM_FEATURE_SELFOVERLAP>  (1) 
40.597

>  <PUBCHEM_SHAPE_FINGERPRINT>  (1) 
10702982 57 17909271278131014161
12138202 97 16516246386898316910
12326174 3 17126170836054902489
12423570 1 14514635547887749057
13024252 1 16590300483661912800
13299463 15 18187643651865514956
13538477 17 18129388119996218497
14617773 55 18339654342835813600
14713566 1 18125994962783292497
14817 1 12237482774324566809
15001771 113 18342448201813466039
15852999 172 17677889218168978898
15906896 17 18055942921035755793
16945 1 18262799712783699159
18534176 82 16806176595405263302
20361792 2 17274244158595289183
21524375 3 14852147534181932055
22112679 90 18341338773211718128
23419403 2 17401422435060228848
2748010 2 17248099034675434772
430814 3 17263570902576487385
53812653 217 17986137152301981944
59915604 170 16950274126786163015
81228 2 17131265740988696793

>  <PUBCHEM_SHAPE_MULTIPOLES>  (1) 
301.7
3.86
2.15
1.94
0.06
1.25
0.09
-2.99
-1.05
-0.69
0.39
0.13
0.1
-0.77

>  <PUBCHEM_SHAPE_SELFOVERLAP>  (1) 
617.179

>  <PUBCHEM_SHAPE_VOLUME>  (1) 
173.7

>  <PUBCHEM_COORDINATE_TYPE>  (1) 
2
5
10

$$$$
