49184
     RDKit          3D

 17 17  0  0  1  0  0  0  0  0999 V2000
   -2.4276   -0.6977   -0.1803 S   0  0  0  0  0  0  0  0  0  0  0  0
   -0.3253   -0.8060    2.2725 O   0  0  0  0  0  0  0  0  0  0  0  0
    0.0340    0.2390   -2.2914 O   0  0  0  0  0  0  0  0  0  0  0  0
    2.8939   -2.7725   -0.3399 O   0  0  0  0  0  0  0  0  0  0  0  0
    1.3445   -1.7129    0.9873 N   0  0  0  0  0  0  0  0  0  0  0  0
    1.5244   -1.1905   -1.2924 N   0  0  0  0  0  0  0  0  0  0  0  0
    0.1283    0.2386    0.1316 C   0  0  0  0  0  0  0  0  0  0  0  0
    1.0414    1.4288    0.4763 C   0  0  0  0  0  0  0  0  0  0  0  0
   -1.3342    0.7068    0.1237 C   0  0  0  0  0  0  0  0  0  0  0  0
    0.9238    2.5039   -0.6158 C   0  0  0  0  0  0  0  0  0  0  0  0
    0.3232   -0.8055    1.2265 C   0  0  0  0  0  0  0  0  0  0  0  0
    0.5196   -0.2350   -1.2646 C   0  0  0  0  0  0  0  0  0  0  0  0
    0.6870    1.9606    1.8637 C   0  0  0  0  0  0  0  0  0  0  0  0
    1.8418    3.6969   -0.3908 C   0  0  0  0  0  0  0  0  0  0  0  0
    1.9957   -1.9377   -0.2196 C   0  0  0  0  0  0  0  0  0  0  0  0
   -4.0117    0.1740   -0.1271 C   0  0  0  0  0  0  0  0  0  0  0  0
   -5.1588   -0.7908   -0.3596 C   0  0  0  0  0  0  0  0  0  0  0  0
  1  9  1  0
  1 16  1  0
  2 11  2  0
  3 12  2  0
  4 15  2  0
  5 11  1  0
  5 15  1  0
  6 12  1  0
  6 15  1  0
  7  8  1  0
  7  9  1  0
  7 11  1  0
  7 12  1  0
  8 10  1  0
  8 13  1  0
 10 14  1  0
 16 17  1  0
M  END
>  <PUBCHEM_COMPOUND_CID>  (1) 
49184

>  <PUBCHEM_CONFORMER_RMSD>  (1) 
0.8

>  <PUBCHEM_CONFORMER_DIVERSEORDER>  (1) 
1
13
10
14
6
12
5
7
8
4
11
9
3
2

>  <PUBCHEM_MMFF94_PARTIAL_CHARGES>  (1) 
14
1 -0.46
11 0.57
12 0.57
15 0.69
16 0.23
2 -0.57
29 0.37
3 -0.57
30 0.37
4 -0.57
5 -0.49
6 -0.49
7 0.12
9 0.23

>  <PUBCHEM_EFFECTIVE_ROTOR_COUNT>  (1) 
5.6

>  <PUBCHEM_PHARMACOPHORE_FEATURES>  (1) 
9
1 13 hydrophobe
1 14 hydrophobe
1 17 hydrophobe
1 2 acceptor
1 3 acceptor
1 4 acceptor
1 5 donor
1 6 donor
6 5 6 7 11 12 15 rings

>  <PUBCHEM_HEAVY_ATOM_COUNT>  (1) 
17

>  <PUBCHEM_ATOM_DEF_STEREO_COUNT>  (1) 
0

>  <PUBCHEM_ATOM_UDEF_STEREO_COUNT>  (1) 
1

>  <PUBCHEM_BOND_DEF_STEREO_COUNT>  (1) 
0

>  <PUBCHEM_BOND_UDEF_STEREO_COUNT>  (1) 
0

>  <PUBCHEM_ISOTOPIC_ATOM_COUNT>  (1) 
0

>  <PUBCHEM_COMPONENT_COUNT>  (1) 
1

>  <PUBCHEM_CACTVS_TAUTO_COUNT>  (1) 
5

>  <PUBCHEM_CONFORMER_ID>  (1) 
0000C02000000001

>  <PUBCHEM_MMFF94_ENERGY>  (1) 
51.6104

>  <PUBCHEM_FEATURE_SELFOVERLAP>  (1) 
45.713

>  <PUBCHEM_SHAPE_FINGERPRINT>  (1) 
10922049 32 17976825611685914285
11578080 2 17461416071485776284
12423570 1 13592275898065527256
12532896 13 17338985769507783185
13464514 151 18336278919559125013
14004458 79 17836381349253260772
14617773 55 17175187794502423530
14817 1 16751332641900321716
15163728 17 17755324570734121869
15906896 17 17109026267048729616
16945 1 18337403719859043524
20473742 2 18336822086755615462
20600515 1 17841438020610075797
20645477 70 18337099155956022239
20671657 53 18340772520629088159
21524375 3 17756974980526101773
22112679 90 17836116405663694224
2255824 54 18411983581023934423
23419403 2 17606087711513948900
23526113 38 18114471084417966939
298252 57 17485653972091174149
4175511 376 18338249261411996884
430814 3 17905307873520104525
5845 1 8787282193258838945
7364860 26 18411417349572885645
81228 2 17695365675918729699
81539 233 18193832863291004733

>  <PUBCHEM_SHAPE_MULTIPOLES>  (1) 
326.13
5.08
3.17
1.68
10.61
0.77
-0.27
-0.15
0.9
-4.43
0.22
-0.49
-0.01
0.08

>  <PUBCHEM_SHAPE_SELFOVERLAP>  (1) 
647.013

>  <PUBCHEM_SHAPE_VOLUME>  (1) 
196.3

>  <PUBCHEM_COORDINATE_TYPE>  (1) 
2
5
10

$$$$
