49180
     RDKit          3D

 21 22  0  0  1  0  0  0  0  0999 V2000
    0.2489   -1.5818    0.2066 O   0  0  0  0  0  0  0  0  0  0  0  0
    2.8446    2.0924   -0.3848 O   0  0  0  0  0  0  0  0  0  0  0  0
   -1.6792    2.5723   -0.7669 O   0  0  0  0  0  0  0  0  0  0  0  0
   -0.8797    0.4474   -0.1259 N   0  0  0  0  0  0  0  0  0  0  0  0
    0.5698    2.2467   -0.6649 N   0  0  0  0  0  0  0  0  0  0  0  0
    1.4426    0.4484    0.7151 C   0  0  0  0  0  0  0  0  0  0  0  0
    2.6853   -0.4560    0.7535 C   0  0  0  0  0  0  0  0  0  0  0  0
    1.1603    0.9630    2.1377 C   0  0  0  0  0  0  0  0  0  0  0  0
    3.0609   -0.9225   -0.6460 C   0  0  0  0  0  0  0  0  0  0  0  0
    0.2252   -0.3501    0.2486 C   0  0  0  0  0  0  0  0  0  0  0  0
    1.7185    1.6456   -0.1764 C   0  0  0  0  0  0  0  0  0  0  0  0
    4.3139   -1.7971   -0.6067 C   0  0  0  0  0  0  0  0  0  0  0  0
    0.9083   -0.1854    3.0891 C   0  0  0  0  0  0  0  0  0  0  0  0
   -0.7471    1.7951   -0.5440 C   0  0  0  0  0  0  0  0  0  0  0  0
   -2.1838   -0.1791   -0.1670 C   0  0  0  0  0  0  0  0  0  0  0  0
    4.7243   -2.2453   -2.0003 C   0  0  0  0  0  0  0  0  0  0  0  0
   -2.4652   -1.2360    0.6902 C   0  0  0  0  0  0  0  0  0  0  0  0
   -3.1402    0.2836   -1.0626 C   0  0  0  0  0  0  0  0  0  0  0  0
   -3.7221   -1.8396    0.6511 C   0  0  0  0  0  0  0  0  0  0  0  0
   -4.3971   -0.3200   -1.1016 C   0  0  0  0  0  0  0  0  0  0  0  0
   -4.6881   -1.3816   -0.2448 C   0  0  0  0  0  0  0  0  0  0  0  0
  1 10  2  0
  2 11  2  0
  3 14  2  0
  4 10  1  0
  4 14  1  0
  4 15  1  0
  5 11  1  0
  5 14  1  0
  6  7  1  0
  6  8  1  0
  6 10  1  0
  6 11  1  0
  7  9  1  0
  8 13  1  0
  9 12  1  0
 12 16  1  0
 15 17  2  0
 15 18  1  0
 17 19  1  0
 18 20  2  0
 19 21  2  0
 20 21  1  0
M  END
>  <PUBCHEM_COMPOUND_CID>  (1) 
49180

>  <PUBCHEM_CONFORMER_RMSD>  (1) 
0.8

>  <PUBCHEM_CONFORMER_DIVERSEORDER>  (1) 
1
11
10
13
14
12
3
15
8
2
9
16
7
6
4
5

>  <PUBCHEM_MMFF94_PARTIAL_CHARGES>  (1) 
21
1 -0.57
10 0.57
11 0.57
14 0.69
15 0.12
17 -0.15
18 -0.15
19 -0.15
2 -0.57
20 -0.15
21 -0.15
3 -0.57
33 0.37
37 0.15
38 0.15
39 0.15
4 -0.24
40 0.15
41 0.15
5 -0.49
6 0.12

>  <PUBCHEM_EFFECTIVE_ROTOR_COUNT>  (1) 
5.6

>  <PUBCHEM_PHARMACOPHORE_FEATURES>  (1) 
8
1 1 acceptor
1 13 hydrophobe
1 16 hydrophobe
1 2 acceptor
1 3 acceptor
1 5 donor
6 15 17 18 19 20 21 rings
6 4 5 6 10 11 14 rings

>  <PUBCHEM_HEAVY_ATOM_COUNT>  (1) 
21

>  <PUBCHEM_ATOM_DEF_STEREO_COUNT>  (1) 
0

>  <PUBCHEM_ATOM_UDEF_STEREO_COUNT>  (1) 
1

>  <PUBCHEM_BOND_DEF_STEREO_COUNT>  (1) 
0

>  <PUBCHEM_BOND_UDEF_STEREO_COUNT>  (1) 
0

>  <PUBCHEM_ISOTOPIC_ATOM_COUNT>  (1) 
0

>  <PUBCHEM_COMPONENT_COUNT>  (1) 
1

>  <PUBCHEM_CACTVS_TAUTO_COUNT>  (1) 
3

>  <PUBCHEM_CONFORMER_ID>  (1) 
0000C01C00000001

>  <PUBCHEM_MMFF94_ENERGY>  (1) 
70.2199

>  <PUBCHEM_FEATURE_SELFOVERLAP>  (1) 
40.596

>  <PUBCHEM_SHAPE_FINGERPRINT>  (1) 
11578080 2 17774706606989410601
116883 192 18409444769635695581
12553582 1 18260266304960236507
12892183 10 13326571817948960110
12969540 114 13984961609933767670
13103583 49 15769781225599278126
13134695 92 17632572772983315120
13296908 3 18187635964359390451
13533116 47 17703225239155171871
13544653 18 17846501383673040246
13583140 156 14907609030885581075
14022347 108 18186790379719575265
14252887 29 18264488558423050305
14790565 3 17186163068037154828
15061688 2 11819286567763871694
16752209 62 17897141573581006077
16945 1 18187360974324471488
17357779 13 18341041935052606983
1813 80 17703246030822157718
18186145 218 17676755548808709789
193927 3 18059586745641749766
19862831 5 17385439916790292631
20645477 70 18337949099196449559
20871999 31 18262529078631679862
22182313 1 18337936944565608900
22620623 9 18195533592846011340
23175994 123 17417809479087867264
23352939 185 18270978894326659312
23379529 103 18340217357283147902
23382010 3 16515699848558083682
23419403 2 17702644580866401504
23557571 272 18339629054564519928
23559900 14 18335973229572169213
2748010 2 18189042252400037469
3286 77 17418370315970347291
34934 24 17972022902199238785
484985 159 16984078418709626598
9709674 26 17970910188068978291

>  <PUBCHEM_SHAPE_MULTIPOLES>  (1) 
404.6
8.22
2.49
1.84
1.54
0.45
-1.43
-6.83
3.54
-1.41
0.94
-0.97
0.08
1.69

>  <PUBCHEM_SHAPE_SELFOVERLAP>  (1) 
853.203

>  <PUBCHEM_SHAPE_VOLUME>  (1) 
224.7

>  <PUBCHEM_COORDINATE_TYPE>  (1) 
2
5
10

$$$$
