49182
     RDKit          3D

 17 17  0  0  0  0  0  0  0  0999 V2000
    2.6071   -0.3542    0.2433 S   0  0  0  0  0  0  0  0  0  0  0  0
    1.0316    1.0590   -2.2224 O   0  0  0  0  0  0  0  0  0  0  0  0
   -0.2225   -0.4038    2.0599 O   0  0  0  0  0  0  0  0  0  0  0  0
   -1.2773    3.8237    0.6205 O   0  0  0  0  0  0  0  0  0  0  0  0
   -0.2081    2.4037   -0.8376 N   0  0  0  0  0  0  0  0  0  0  0  0
   -0.8339    1.6732    1.3018 N   0  0  0  0  0  0  0  0  0  0  0  0
   -0.0516    0.0099   -0.3234 C   0  0  0  0  0  0  0  0  0  0  0  0
   -1.3475   -0.5828   -0.9051 C   0  0  0  0  0  0  0  0  0  0  0  0
    1.0552   -1.0539   -0.3627 C   0  0  0  0  0  0  0  0  0  0  0  0
   -1.8394   -1.7460   -0.0565 C   0  0  0  0  0  0  0  0  0  0  0  0
    0.3400    1.1861   -1.2123 C   0  0  0  0  0  0  0  0  0  0  0  0
   -0.3442    0.3877    1.1253 C   0  0  0  0  0  0  0  0  0  0  0  0
   -3.1418   -2.3129   -0.6210 C   0  0  0  0  0  0  0  0  0  0  0  0
   -0.8207    2.7064    0.3724 C   0  0  0  0  0  0  0  0  0  0  0  0
   -3.6683   -3.4556    0.2327 C   0  0  0  0  0  0  0  0  0  0  0  0
    3.6522   -1.8197    0.0671 C   0  0  0  0  0  0  0  0  0  0  0  0
    5.0693   -1.5208    0.5179 C   0  0  0  0  0  0  0  0  0  0  0  0
  1  9  1  0
  1 16  1  0
  2 11  2  0
  3 12  2  0
  4 14  2  0
  5 11  1  0
  5 14  1  0
  6 12  1  0
  6 14  1  0
  7  8  1  0
  7  9  1  0
  7 11  1  0
  7 12  1  0
  8 10  1  0
 10 13  1  0
 13 15  1  0
 16 17  1  0
M  END
>  <PUBCHEM_COMPOUND_CID>  (1) 
49182

>  <PUBCHEM_CONFORMER_RMSD>  (1) 
0.8

>  <PUBCHEM_CONFORMER_DIVERSEORDER>  (1) 
1
9
15
7
6
10
11
8
14
12
2
4
13
5
3

>  <PUBCHEM_MMFF94_PARTIAL_CHARGES>  (1) 
14
1 -0.46
11 0.57
12 0.57
14 0.69
16 0.23
2 -0.57
26 0.37
27 0.37
3 -0.57
4 -0.57
5 -0.49
6 -0.49
7 0.12
9 0.23

>  <PUBCHEM_EFFECTIVE_ROTOR_COUNT>  (1) 
6.6

>  <PUBCHEM_PHARMACOPHORE_FEATURES>  (1) 
8
1 15 hydrophobe
1 17 hydrophobe
1 2 acceptor
1 3 acceptor
1 4 acceptor
1 5 donor
1 6 donor
6 5 6 7 11 12 14 rings

>  <PUBCHEM_HEAVY_ATOM_COUNT>  (1) 
17

>  <PUBCHEM_ATOM_DEF_STEREO_COUNT>  (1) 
0

>  <PUBCHEM_ATOM_UDEF_STEREO_COUNT>  (1) 
0

>  <PUBCHEM_BOND_DEF_STEREO_COUNT>  (1) 
0

>  <PUBCHEM_BOND_UDEF_STEREO_COUNT>  (1) 
0

>  <PUBCHEM_ISOTOPIC_ATOM_COUNT>  (1) 
0

>  <PUBCHEM_COMPONENT_COUNT>  (1) 
1

>  <PUBCHEM_CACTVS_TAUTO_COUNT>  (1) 
5

>  <PUBCHEM_CONFORMER_ID>  (1) 
0000C01E00000001

>  <PUBCHEM_MMFF94_ENERGY>  (1) 
39.9868

>  <PUBCHEM_FEATURE_SELFOVERLAP>  (1) 
40.636

>  <PUBCHEM_SHAPE_FINGERPRINT>  (1) 
11265709 11 18410016571495842106
12119455 92 17469039965059275620
12423570 1 14467587857599190565
13004483 165 18412254060663184842
13024252 1 15141821479096530044
13132413 78 18056760047053767409
13134695 92 18197484341391031367
13533116 47 17831303071077892683
13955234 65 17618224348674656595
14817 1 10075361001469514865
16945 1 18268994189300763852
20388580 30 18116149050726108038
20600515 1 17775014538938127555
20820808 20 16904982202365084129
21452121 71 18339367469196130894
22112679 90 18053697842561077623
23419403 2 17395524766400400324
25 1 16402559286053284585
7364860 26 17833826453829689407
77188 2 18268706280521105089
81228 2 18338240345012755359

>  <PUBCHEM_SHAPE_MULTIPOLES>  (1) 
326.13
5.66
4
1.44
4.86
2.36
-0.07
-8.6
0.57
-3.01
0.52
0.02
0.57
-0.63

>  <PUBCHEM_SHAPE_SELFOVERLAP>  (1) 
640.369

>  <PUBCHEM_SHAPE_VOLUME>  (1) 
197.1

>  <PUBCHEM_COORDINATE_TYPE>  (1) 
2
5
10

$$$$
