49187
     RDKit          3D

 17 17  0  0  0  0  0  0  0  0999 V2000
    1.9563   -2.4723   -0.6087 O   0  0  0  0  0  0  0  0  0  0  0  0
    1.8726    1.7599    1.3330 O   0  0  0  0  0  0  0  0  0  0  0  0
    0.0230   -1.2479   -0.4239 N   0  0  0  0  0  0  0  0  0  0  0  0
   -0.0340    0.9677    0.3694 N   0  0  0  0  0  0  0  0  0  0  0  0
   -2.0039   -0.1104   -0.2803 N   0  0  0  0  0  0  0  0  0  0  0  0
    2.1450   -0.0901   -0.1838 C   0  0  0  0  0  0  0  0  0  0  0  0
    3.4558   -0.3858    0.5608 C   0  0  0  0  0  0  0  0  0  0  0  0
    2.4619    0.5120   -1.5611 C   0  0  0  0  0  0  0  0  0  0  0  0
    1.3962   -1.3976   -0.4024 C   0  0  0  0  0  0  0  0  0  0  0  0
    1.3244    0.9427    0.5944 C   0  0  0  0  0  0  0  0  0  0  0  0
    3.1838   -0.9656    1.9318 C   0  0  0  0  0  0  0  0  0  0  0  0
    3.2824    1.7763   -1.4263 C   0  0  0  0  0  0  0  0  0  0  0  0
   -0.6465   -0.0817   -0.0952 C   0  0  0  0  0  0  0  0  0  0  0  0
   -2.8377    1.0164    0.0041 C   0  0  0  0  0  0  0  0  0  0  0  0
   -4.2987    0.7640   -0.3528 C   0  0  0  0  0  0  0  0  0  0  0  0
   -4.9043   -0.3990    0.4364 C   0  0  0  0  0  0  0  0  0  0  0  0
   -6.3762   -0.5886    0.1043 C   0  0  0  0  0  0  0  0  0  0  0  0
  1  9  2  0
  2 10  2  0
  3  9  1  0
  3 13  1  0
  4 10  1  0
  4 13  2  0
  5 13  1  0
  5 14  1  0
  6  7  1  0
  6  8  1  0
  6  9  1  0
  6 10  1  0
  7 11  1  0
  8 12  1  0
 14 15  1  0
 15 16  1  0
 16 17  1  0
M  END
>  <PUBCHEM_COMPOUND_CID>  (1) 
49187

>  <PUBCHEM_CONFORMER_RMSD>  (1) 
0.8

>  <PUBCHEM_CONFORMER_DIVERSEORDER>  (1) 
1
13
37
24
14
31
39
28
42
17
35
36
12
34
43
33
18
9
27
21
46
30
40
23
32
38
2
15
10
45
16
41
11
26
4
3
19
5
20
7
8
47
6
25
22
44
29

>  <PUBCHEM_MMFF94_PARTIAL_CHARGES>  (1) 
12
1 -0.57
10 0.72
13 0.56
14 0.37
2 -0.57
28 0.37
3 -0.49
31 0.4
4 -0.66
5 -0.82
6 0.12
9 0.57

>  <PUBCHEM_EFFECTIVE_ROTOR_COUNT>  (1) 
6.4

>  <PUBCHEM_PHARMACOPHORE_FEATURES>  (1) 
9
1 1 acceptor
1 11 hydrophobe
1 12 hydrophobe
1 17 hydrophobe
1 2 acceptor
1 3 donor
1 4 donor
1 5 donor
6 3 4 6 9 10 13 rings

>  <PUBCHEM_HEAVY_ATOM_COUNT>  (1) 
17

>  <PUBCHEM_ATOM_DEF_STEREO_COUNT>  (1) 
0

>  <PUBCHEM_ATOM_UDEF_STEREO_COUNT>  (1) 
0

>  <PUBCHEM_BOND_DEF_STEREO_COUNT>  (1) 
0

>  <PUBCHEM_BOND_UDEF_STEREO_COUNT>  (1) 
0

>  <PUBCHEM_ISOTOPIC_ATOM_COUNT>  (1) 
0

>  <PUBCHEM_COMPONENT_COUNT>  (1) 
1

>  <PUBCHEM_CACTVS_TAUTO_COUNT>  (1) 
5

>  <PUBCHEM_CONFORMER_ID>  (1) 
0000C02300000001

>  <PUBCHEM_MMFF94_ENERGY>  (1) 
33.0142

>  <PUBCHEM_FEATURE_SELFOVERLAP>  (1) 
45.798

>  <PUBCHEM_SHAPE_FINGERPRINT>  (1) 
10366900 7 18341342171068809313
11615757 297 17775575238823954033
12616999 72 18411709776399709743
13533116 47 16443340949768980923
14252887 29 16917351415682074445
14344429 50 18272646857565894512
14863182 85 18202283563744213430
16945 1 18131070424537073088
20559304 39 18271806783163151400
20645477 70 18186804660211664171
21637258 2 16371552684508946642
23402539 116 17604140446514641869
23559900 14 18190181196175623879
29717793 49 15068620462212959371
3060560 45 18201166528496596684
5104073 3 17986952951818444771
54040823 5 17821451248843241680
7495541 125 18336264630503280561

>  <PUBCHEM_SHAPE_MULTIPOLES>  (1) 
323.17
9.96
1.75
1.29
20.43
0.15
0.23
0.68
0.49
-1.67
-0.27
-1.58
-0.03
-0.53

>  <PUBCHEM_SHAPE_SELFOVERLAP>  (1) 
648.097

>  <PUBCHEM_SHAPE_VOLUME>  (1) 
188.4

>  <PUBCHEM_COORDINATE_TYPE>  (1) 
2
5
10

$$$$
