49196
     RDKit          3D

 17 17  0  0  1  0  0  0  0  0999 V2000
    1.0072    0.2662   -2.2178 O   0  0  0  0  0  0  0  0  0  0  0  0
   -0.2627    0.1768    2.3022 O   0  0  0  0  0  0  0  0  0  0  0  0
    1.1057   -3.6501    0.1716 O   0  0  0  0  0  0  0  0  0  0  0  0
    0.9616   -1.7071   -1.0489 N   0  0  0  0  0  0  0  0  0  0  0  0
    0.3266   -1.7520    1.2088 N   0  0  0  0  0  0  0  0  0  0  0  0
   -0.2113    0.2381   -0.1214 C   0  0  0  0  0  0  0  0  0  0  0  0
   -1.6776    0.0241   -0.5378 C   0  0  0  0  0  0  0  0  0  0  0  0
    0.0706    1.7437   -0.0124 C   0  0  0  0  0  0  0  0  0  0  0  0
   -2.6103    0.5741    0.5529 C   0  0  0  0  0  0  0  0  0  0  0  0
    0.6577   -0.3649   -1.2206 C   0  0  0  0  0  0  0  0  0  0  0  0
   -0.0357   -0.4138    1.2465 C   0  0  0  0  0  0  0  0  0  0  0  0
   -1.9222    0.6708   -1.8999 C   0  0  0  0  0  0  0  0  0  0  0  0
    1.5203    2.0309    0.2591 C   0  0  0  0  0  0  0  0  0  0  0  0
   -4.0861    0.3501    0.2555 C   0  0  0  0  0  0  0  0  0  0  0  0
    0.8025   -2.4574    0.1101 C   0  0  0  0  0  0  0  0  0  0  0  0
    1.9565    2.0735    1.6954 C   0  0  0  0  0  0  0  0  0  0  0  0
    2.3972    2.1971   -0.7432 C   0  0  0  0  0  0  0  0  0  0  0  0
  1 10  2  0
  2 11  2  0
  3 15  2  0
  4 10  1  0
  4 15  1  0
  5 11  1  0
  5 15  1  0
  6  7  1  0
  6  8  1  0
  6 10  1  0
  6 11  1  0
  7  9  1  0
  7 12  1  0
  8 13  1  0
  9 14  1  0
 13 16  1  0
 13 17  2  0
M  END
>  <PUBCHEM_COMPOUND_CID>  (1) 
49196

>  <PUBCHEM_CONFORMER_RMSD>  (1) 
0.6

>  <PUBCHEM_CONFORMER_DIVERSEORDER>  (1) 
1
7
12
14
9
8
5
6
2
15
10
3
11
13
4

>  <PUBCHEM_MMFF94_PARTIAL_CHARGES>  (1) 
17
1 -0.57
10 0.57
11 0.57
13 -0.28
15 0.69
16 0.14
17 -0.3
2 -0.57
29 0.37
3 -0.57
30 0.37
34 0.15
35 0.15
4 -0.49
5 -0.49
6 0.12
8 0.14

>  <PUBCHEM_EFFECTIVE_ROTOR_COUNT>  (1) 
4.6

>  <PUBCHEM_PHARMACOPHORE_FEATURES>  (1) 
8
1 1 acceptor
1 12 hydrophobe
1 14 hydrophobe
1 2 acceptor
1 3 acceptor
1 4 donor
1 5 donor
6 4 5 6 10 11 15 rings

>  <PUBCHEM_HEAVY_ATOM_COUNT>  (1) 
17

>  <PUBCHEM_ATOM_DEF_STEREO_COUNT>  (1) 
0

>  <PUBCHEM_ATOM_UDEF_STEREO_COUNT>  (1) 
1

>  <PUBCHEM_BOND_DEF_STEREO_COUNT>  (1) 
0

>  <PUBCHEM_BOND_UDEF_STEREO_COUNT>  (1) 
0

>  <PUBCHEM_ISOTOPIC_ATOM_COUNT>  (1) 
0

>  <PUBCHEM_COMPONENT_COUNT>  (1) 
1

>  <PUBCHEM_CACTVS_TAUTO_COUNT>  (1) 
5

>  <PUBCHEM_CONFORMER_ID>  (1) 
0000C02C00000001

>  <PUBCHEM_MMFF94_ENERGY>  (1) 
56.993

>  <PUBCHEM_FEATURE_SELFOVERLAP>  (1) 
40.638

>  <PUBCHEM_SHAPE_FINGERPRINT>  (1) 
10702982 57 17614517791422843900
10922049 32 18266184018090348009
12138202 97 17976557322227024076
12326174 3 18343584010320656453
12423570 1 15802501742437749269
12716301 132 17903095651914103648
13024252 1 15723577745571490812
141345 1 18127682940543480417
14617773 55 12101357561191380432
14817 1 15434491648609321908
15852999 172 17984159302814258044
15881359 60 16552010343512236596
15906896 17 17622715835923753854
16945 1 18055887966691871754
19765921 60 17845935259501384673
20711985 344 17327179256824659376
21524375 3 17987228018387736673
22344851 341 18200879585947402903
23419403 2 17537205498329966434
2748010 2 17392530740239841575
430814 3 18056171786842240177
5845 1 11398843006042066761
7364860 26 18338797819272881067
81228 2 17255105165527281753

>  <PUBCHEM_SHAPE_MULTIPOLES>  (1) 
322.28
3.51
2.96
1.87
2.43
3.47
-0.07
-3.29
0.25
-1.15
0.3
-0.3
-0.25
0.25

>  <PUBCHEM_SHAPE_SELFOVERLAP>  (1) 
663.126

>  <PUBCHEM_SHAPE_VOLUME>  (1) 
183

>  <PUBCHEM_COORDINATE_TYPE>  (1) 
2
5
10

$$$$
