49192
     RDKit          3D

 17 17  0  0  1  0  0  0  0  0999 V2000
   -0.5126    0.2286    2.2933 O   0  0  0  0  0  0  0  0  0  0  0  0
   -0.4690    0.5035   -2.3942 O   0  0  0  0  0  0  0  0  0  0  0  0
    3.0970    1.9955    0.0784 O   0  0  0  0  0  0  0  0  0  0  0  0
    1.3305    1.0197    1.1798 N   0  0  0  0  0  0  0  0  0  0  0  0
    1.3519    1.1577   -1.1618 N   0  0  0  0  0  0  0  0  0  0  0  0
   -0.3639   -0.2259   -0.0840 C   0  0  0  0  0  0  0  0  0  0  0  0
   -1.8981   -0.2880   -0.1019 C   0  0  0  0  0  0  0  0  0  0  0  0
    0.2039   -1.6543   -0.1627 C   0  0  0  0  0  0  0  0  0  0  0  0
   -2.4745    1.1322    0.0104 C   0  0  0  0  0  0  0  0  0  0  0  0
    0.1068    0.3696    1.2392 C   0  0  0  0  0  0  0  0  0  0  0  0
    0.1305    0.5199   -1.3194 C   0  0  0  0  0  0  0  0  0  0  0  0
   -2.3860   -1.2088    1.0151 C   0  0  0  0  0  0  0  0  0  0  0  0
   -0.2685   -2.3387   -1.4407 C   0  0  0  0  0  0  0  0  0  0  0  0
    1.7054   -1.6109   -0.1090 C   0  0  0  0  0  0  0  0  0  0  0  0
   -3.9953    1.1650    0.0632 C   0  0  0  0  0  0  0  0  0  0  0  0
    2.0106    1.4157    0.0344 C   0  0  0  0  0  0  0  0  0  0  0  0
    2.4314   -2.1809    0.8596 C   0  0  0  0  0  0  0  0  0  0  0  0
  1 10  2  0
  2 11  2  0
  3 16  2  0
  4 10  1  0
  4 16  1  0
  5 11  1  0
  5 16  1  0
  6  7  1  0
  6  8  1  0
  6 10  1  0
  6 11  1  0
  7  9  1  0
  7 12  1  0
  8 13  1  0
  8 14  1  0
  9 15  1  0
 14 17  2  0
M  END
>  <PUBCHEM_COMPOUND_CID>  (1) 
49192

>  <PUBCHEM_CONFORMER_RMSD>  (1) 
0.6

>  <PUBCHEM_CONFORMER_DIVERSEORDER>  (1) 
3
8
7
10
1
2
6
4
9
5

>  <PUBCHEM_MMFF94_PARTIAL_CHARGES>  (1) 
17
1 -0.57
10 0.57
11 0.57
14 -0.29
16 0.69
17 -0.3
2 -0.57
28 0.15
29 0.37
3 -0.57
30 0.37
34 0.15
35 0.15
4 -0.49
5 -0.49
6 0.12
8 0.14

>  <PUBCHEM_EFFECTIVE_ROTOR_COUNT>  (1) 
4.6

>  <PUBCHEM_PHARMACOPHORE_FEATURES>  (1) 
10
1 1 acceptor
1 12 hydrophobe
1 13 hydrophobe
1 15 hydrophobe
1 17 hydrophobe
1 2 acceptor
1 3 acceptor
1 4 donor
1 5 donor
6 4 5 6 10 11 16 rings

>  <PUBCHEM_HEAVY_ATOM_COUNT>  (1) 
17

>  <PUBCHEM_ATOM_DEF_STEREO_COUNT>  (1) 
0

>  <PUBCHEM_ATOM_UDEF_STEREO_COUNT>  (1) 
2

>  <PUBCHEM_BOND_DEF_STEREO_COUNT>  (1) 
0

>  <PUBCHEM_BOND_UDEF_STEREO_COUNT>  (1) 
0

>  <PUBCHEM_ISOTOPIC_ATOM_COUNT>  (1) 
0

>  <PUBCHEM_COMPONENT_COUNT>  (1) 
1

>  <PUBCHEM_CACTVS_TAUTO_COUNT>  (1) 
5

>  <PUBCHEM_CONFORMER_ID>  (1) 
0000C02800000003

>  <PUBCHEM_MMFF94_ENERGY>  (1) 
62.6969

>  <PUBCHEM_FEATURE_SELFOVERLAP>  (1) 
50.789

>  <PUBCHEM_SHAPE_FINGERPRINT>  (1) 
10702982 57 18199747118945569238
10863032 1 18411139147197672273
10948715 1 18339644545941792068
12138202 97 17630337564718017148
12173636 292 17834953449132872020
12423570 1 13229271339417532690
13024252 1 13914812871049857156
13132413 78 17551236164264475009
14181834 199 18339928112578099807
14817 1 12271699009044968750
15219456 202 18334301967719046579
15490181 7 17984695877236137371
15557651 10 17771640219361616851
15775835 57 18201163264231468603
16945 1 18193280684941377891
20473742 2 18263917756989615974
20511035 2 18335712641074549735
21501502 16 18413101767238085075
22344851 262 18188490314447299085
23419403 2 17752467777505014372
2748010 2 18262534649077701015
305870 269 18409450322991362404
5084963 1 17833031407916857750
81228 2 16975608236094709930

>  <PUBCHEM_SHAPE_MULTIPOLES>  (1) 
322.28
4.07
2.3
1.68
2.65
0.56
-0.18
-1.2
0.74
-1.56
-0.22
0.05
0.01
-0.07

>  <PUBCHEM_SHAPE_SELFOVERLAP>  (1) 
666.613

>  <PUBCHEM_SHAPE_VOLUME>  (1) 
182.1

>  <PUBCHEM_COORDINATE_TYPE>  (1) 
2
5
10

$$$$
