492
     RDKit          3D

  9  8  0  0  0  0  0  0  0  0999 V2000
    1.6789   -0.0010    0.0450 S   0  0  0  0  0  0  0  0  0  0  0  0
   -1.6789    0.0008    0.0452 S   0  0  0  0  0  0  0  0  0  0  0  0
    0.0000    0.0005   -1.2114 S   0  0  0  0  0  0  0  0  0  0  0  0
    2.9569   -0.0013   -0.9665 O   0  0  0  0  0  0  0  0  0  0  0  0
   -2.9568    0.0020   -0.9666 O   0  0  0  0  0  0  0  0  0  0  0  0
    1.6749    1.2631    0.7563 O   0  0  0  0  0  0  0  0  0  0  0  0
    1.6799   -1.2564    0.7708 O   0  0  0  0  0  0  0  0  0  0  0  0
   -1.6753   -1.2637    0.7555 O   0  0  0  0  0  0  0  0  0  0  0  0
   -1.6796    1.2559    0.7717 O   0  0  0  0  0  0  0  0  0  0  0  0
  1  3  1  0
  1  4  1  0
  1  6  2  0
  1  7  2  0
  2  3  1  0
  2  5  1  0
  2  8  2  0
  2  9  2  0
M  END
>  <PUBCHEM_COMPOUND_CID>  (1) 
492

>  <PUBCHEM_CONFORMER_RMSD>  (1) 
0.4

>  <PUBCHEM_CONFORMER_DIVERSEORDER>  (1) 
1
2
3
4

>  <PUBCHEM_MMFF94_PARTIAL_CHARGES>  (1) 
11
1 1.6
10 0.5
11 0.5
2 1.6
3 -0.24
4 -0.68
5 -0.68
6 -0.65
7 -0.65
8 -0.65
9 -0.65

>  <PUBCHEM_EFFECTIVE_ROTOR_COUNT>  (1) 
2

>  <PUBCHEM_PHARMACOPHORE_FEATURES>  (1) 
8
1 4 acceptor
1 5 acceptor
1 6 acceptor
1 7 acceptor
1 8 acceptor
1 9 acceptor
4 1 4 6 7 anion
4 2 5 8 9 anion

>  <PUBCHEM_HEAVY_ATOM_COUNT>  (1) 
9

>  <PUBCHEM_ATOM_DEF_STEREO_COUNT>  (1) 
0

>  <PUBCHEM_ATOM_UDEF_STEREO_COUNT>  (1) 
0

>  <PUBCHEM_BOND_DEF_STEREO_COUNT>  (1) 
0

>  <PUBCHEM_BOND_UDEF_STEREO_COUNT>  (1) 
0

>  <PUBCHEM_ISOTOPIC_ATOM_COUNT>  (1) 
0

>  <PUBCHEM_COMPONENT_COUNT>  (1) 
1

>  <PUBCHEM_CACTVS_TAUTO_COUNT>  (1) 
1

>  <PUBCHEM_CONFORMER_ID>  (1) 
000001EC00000001

>  <PUBCHEM_MMFF94_ENERGY>  (1) 
2.3092

>  <PUBCHEM_FEATURE_SELFOVERLAP>  (1) 
40.715

>  <PUBCHEM_SHAPE_FINGERPRINT>  (1) 
12932741 1 18338517542164758652
12932764 1 18410568492252250695
29004967 10 15864364531555888380

>  <PUBCHEM_SHAPE_MULTIPOLES>  (1) 
161.55
4.05
1.18
1.16
0
0.23
0
0.51
0
0
0
0
-0.45
0

>  <PUBCHEM_SHAPE_SELFOVERLAP>  (1) 
269.116

>  <PUBCHEM_SHAPE_VOLUME>  (1) 
111.1

>  <PUBCHEM_COORDINATE_TYPE>  (1) 
2
5
10

$$$$
