49204
     RDKit          3D

 18 18  0  0  1  0  0  0  0  0999 V2000
    0.2212    0.2934   -2.0304 O   0  0  0  0  0  0  0  0  0  0  0  0
   -0.8532   -0.9166    2.3777 O   0  0  0  0  0  0  0  0  0  0  0  0
    0.8725   -4.0006   -0.5492 O   0  0  0  0  0  0  0  0  0  0  0  0
    0.6381   -1.8265   -1.2590 N   0  0  0  0  0  0  0  0  0  0  0  0
    0.1008   -2.4310    0.9429 N   0  0  0  0  0  0  0  0  0  0  0  0
    0.1928   -0.0470    0.3703 C   0  0  0  0  0  0  0  0  0  0  0  0
   -0.7716    1.1445    0.4623 C   0  0  0  0  0  0  0  0  0  0  0  0
   -2.2152    0.8142    0.0286 C   0  0  0  0  0  0  0  0  0  0  0  0
    1.5927    0.3949    0.8330 C   0  0  0  0  0  0  0  0  0  0  0  0
    2.0888    1.5729    0.0074 C   0  0  0  0  0  0  0  0  0  0  0  0
    0.3216   -0.4875   -1.0844 C   0  0  0  0  0  0  0  0  0  0  0  0
   -0.2652   -1.1480    1.3216 C   0  0  0  0  0  0  0  0  0  0  0  0
   -3.0979    2.0648    0.2240 C   0  0  0  0  0  0  0  0  0  0  0  0
   -2.2671    0.3083   -1.4163 C   0  0  0  0  0  0  0  0  0  0  0  0
    3.4665    2.0271    0.4891 C   0  0  0  0  0  0  0  0  0  0  0  0
   -4.5652    1.8421   -0.1154 C   0  0  0  0  0  0  0  0  0  0  0  0
    0.5747   -2.8310   -0.3008 C   0  0  0  0  0  0  0  0  0  0  0  0
    3.9659    3.2259   -0.3015 C   0  0  0  0  0  0  0  0  0  0  0  0
  1 11  2  0
  2 12  2  0
  3 17  2  0
  4 11  1  0
  4 17  1  0
  5 12  1  0
  5 17  1  0
  6  7  1  0
  6  9  1  0
  6 11  1  0
  6 12  1  0
  7  8  1  0
  8 13  1  0
  8 14  1  0
  9 10  1  0
 10 15  1  0
 13 16  1  0
 15 18  1  0
M  END
>  <PUBCHEM_COMPOUND_CID>  (1) 
49204

>  <PUBCHEM_CONFORMER_RMSD>  (1) 
0.8

>  <PUBCHEM_CONFORMER_DIVERSEORDER>  (1) 
2
8
4
1
5
3
6
7

>  <PUBCHEM_MMFF94_PARTIAL_CHARGES>  (1) 
11
1 -0.57
11 0.57
12 0.57
17 0.69
2 -0.57
3 -0.57
33 0.37
34 0.37
4 -0.49
5 -0.49
6 0.12

>  <PUBCHEM_EFFECTIVE_ROTOR_COUNT>  (1) 
6.6

>  <PUBCHEM_PHARMACOPHORE_FEATURES>  (1) 
9
1 1 acceptor
1 14 hydrophobe
1 16 hydrophobe
1 18 hydrophobe
1 2 acceptor
1 3 acceptor
1 4 donor
1 5 donor
6 4 5 6 11 12 17 rings

>  <PUBCHEM_HEAVY_ATOM_COUNT>  (1) 
18

>  <PUBCHEM_ATOM_DEF_STEREO_COUNT>  (1) 
0

>  <PUBCHEM_ATOM_UDEF_STEREO_COUNT>  (1) 
1

>  <PUBCHEM_BOND_DEF_STEREO_COUNT>  (1) 
0

>  <PUBCHEM_BOND_UDEF_STEREO_COUNT>  (1) 
0

>  <PUBCHEM_ISOTOPIC_ATOM_COUNT>  (1) 
0

>  <PUBCHEM_COMPONENT_COUNT>  (1) 
1

>  <PUBCHEM_CACTVS_TAUTO_COUNT>  (1) 
5

>  <PUBCHEM_CONFORMER_ID>  (1) 
0000C03400000002

>  <PUBCHEM_MMFF94_ENERGY>  (1) 
51.7147

>  <PUBCHEM_FEATURE_SELFOVERLAP>  (1) 
45.713

>  <PUBCHEM_SHAPE_FINGERPRINT>  (1) 
10922049 32 18411703213695183280
10948715 1 18410572911483740033
12173636 292 18196361744314142972
12423570 1 8919858286010651727
12788726 201 17760350485628773666
13024252 1 16954764682697991162
13134695 92 17761779468397626757
14142880 1 17680975607380315812
14817 1 11035742751433458526
15534591 1 18339916138183131768
15906896 17 18118961644598330466
16945 1 18193826055377196879
18785283 64 18336266743437182048
19765921 60 18131348617995642241
21524375 3 18262785363229937192
2255824 54 18127127468534270959
23419403 2 17975733586238857026
23598288 3 17755591778008510924
298252 57 17845927519717317188
4175511 376 18197227952996282918
4175511 71 17548413709378728225
430814 3 18267562715340135332
474 4 18410854330684333481
6138700 20 18125162637530556846
6786 2 18338809995220341582
7364860 26 18196369213145959625
81228 2 17685761828465929792
81539 233 18411131403467141861
9999458 23 18338801109022937220

>  <PUBCHEM_SHAPE_MULTIPOLES>  (1) 
342.86
5.26
3.9
1.52
0.41
3
0.1
-8.27
-0.23
-1.79
-0.37
0.28
0.57
0.12

>  <PUBCHEM_SHAPE_SELFOVERLAP>  (1) 
689.559

>  <PUBCHEM_SHAPE_VOLUME>  (1) 
198.9

>  <PUBCHEM_COORDINATE_TYPE>  (1) 
2
5
10

$$$$
