49205
     RDKit          3D

 17 17  0  0  0  0  0  0  0  0999 V2000
   -0.2289    0.0113    2.3981 O   0  0  0  0  0  0  0  0  0  0  0  0
   -0.2881    0.0224   -2.4067 O   0  0  0  0  0  0  0  0  0  0  0  0
    0.2028   -3.8576   -0.0189 O   0  0  0  0  0  0  0  0  0  0  0  0
   -0.0200   -1.9009    1.1603 N   0  0  0  0  0  0  0  0  0  0  0  0
   -0.0462   -1.8954   -1.1835 N   0  0  0  0  0  0  0  0  0  0  0  0
   -0.3239    0.2477   -0.0027 C   0  0  0  0  0  0  0  0  0  0  0  0
    0.7294    1.3637   -0.0171 C   0  0  0  0  0  0  0  0  0  0  0  0
    2.1382    0.7859    0.0312 C   0  0  0  0  0  0  0  0  0  0  0  0
   -1.7128    0.8219    0.0208 C   0  0  0  0  0  0  0  0  0  0  0  0
   -0.1843   -0.5333    1.2930 C   0  0  0  0  0  0  0  0  0  0  0  0
   -0.2151   -0.5274   -1.3057 C   0  0  0  0  0  0  0  0  0  0  0  0
    3.1845    1.8991   -0.0139 C   0  0  0  0  0  0  0  0  0  0  0  0
   -2.8040   -0.2082    0.0977 C   0  0  0  0  0  0  0  0  0  0  0  0
   -1.8976    2.1547   -0.0259 C   0  0  0  0  0  0  0  0  0  0  0  0
    0.0542   -2.6342   -0.0142 C   0  0  0  0  0  0  0  0  0  0  0  0
    4.5970    1.3370   -0.0005 C   0  0  0  0  0  0  0  0  0  0  0  0
   -3.1851    2.9133   -0.0119 C   0  0  0  0  0  0  0  0  0  0  0  0
  1 10  2  0
  2 11  2  0
  3 15  2  0
  4 10  1  0
  4 15  1  0
  5 11  1  0
  5 15  1  0
  6  7  1  0
  6  9  1  0
  6 10  1  0
  6 11  1  0
  7  8  1  0
  8 12  1  0
  9 13  1  0
  9 14  2  0
 12 16  1  0
 14 17  1  0
M  END
>  <PUBCHEM_COMPOUND_CID>  (1) 
49205

>  <PUBCHEM_CONFORMER_RMSD>  (1) 
0.6

>  <PUBCHEM_CONFORMER_DIVERSEORDER>  (1) 
1
10
11
16
2
12
17
14
7
8
5
15
6
4
3
13
9

>  <PUBCHEM_MMFF94_PARTIAL_CHARGES>  (1) 
16
1 -0.57
10 0.57
11 0.57
13 0.14
14 -0.29
15 0.69
17 0.14
2 -0.57
27 0.37
28 0.37
29 0.15
3 -0.57
4 -0.49
5 -0.49
6 0.26
9 -0.28

>  <PUBCHEM_EFFECTIVE_ROTOR_COUNT>  (1) 
4.6

>  <PUBCHEM_PHARMACOPHORE_FEATURES>  (1) 
9
1 1 acceptor
1 13 hydrophobe
1 16 hydrophobe
1 17 hydrophobe
1 2 acceptor
1 3 acceptor
1 4 donor
1 5 donor
6 4 5 6 10 11 15 rings

>  <PUBCHEM_HEAVY_ATOM_COUNT>  (1) 
17

>  <PUBCHEM_ATOM_DEF_STEREO_COUNT>  (1) 
0

>  <PUBCHEM_ATOM_UDEF_STEREO_COUNT>  (1) 
0

>  <PUBCHEM_BOND_DEF_STEREO_COUNT>  (1) 
0

>  <PUBCHEM_BOND_UDEF_STEREO_COUNT>  (1) 
1

>  <PUBCHEM_ISOTOPIC_ATOM_COUNT>  (1) 
0

>  <PUBCHEM_COMPONENT_COUNT>  (1) 
1

>  <PUBCHEM_CACTVS_TAUTO_COUNT>  (1) 
5

>  <PUBCHEM_CONFORMER_ID>  (1) 
0000C03500000001

>  <PUBCHEM_MMFF94_ENERGY>  (1) 
35.667

>  <PUBCHEM_FEATURE_SELFOVERLAP>  (1) 
45.713

>  <PUBCHEM_SHAPE_FINGERPRINT>  (1) 
10922049 32 18411144623123089368
12173636 292 18338508759421180332
12423570 1 11260152052592082289
12592029 89 18269278967239148792
13024252 1 17387403760553292128
13464514 151 17906746807791921141
14648413 74 17977947886993715569
15906896 17 18189620608258653440
16945 1 18263931110122235889
20473742 2 17903631882839131565
20524608 308 18337675342502686584
21296965 67 17330554761822550570
21524375 3 18343017761669451501
22344851 12 10911278559292271897
22344851 341 18199478683574004061
23402539 116 18127130999166427055
23419403 2 17467961434182912082
23728640 28 18337666516529353968
298252 57 18201149984045487432
305870 269 18337671906143890220
4175511 376 17980493264579620527
4175511 71 17186159765101360881
430814 3 18335967693148750160
6138700 20 18051418358237989950
68419 9 17626057024201281621
7364860 26 18050567339862924433
81228 2 17767386247412581617
81539 233 18264204708208488981

>  <PUBCHEM_SHAPE_MULTIPOLES>  (1) 
322.28
4.5
3.47
1.47
4.79
2.38
0.02
-5.2
-0.04
-0.97
0.04
-0.19
0.42
0.01

>  <PUBCHEM_SHAPE_SELFOVERLAP>  (1) 
657.5

>  <PUBCHEM_SHAPE_VOLUME>  (1) 
185.9

>  <PUBCHEM_COORDINATE_TYPE>  (1) 
2
5
10

$$$$
