49202
     RDKit          3D

 18 18  0  0  0  0  0  0  0  0999 V2000
    0.2598   -0.7434    1.7608 O   0  0  0  0  0  0  0  0  0  0  0  0
   -1.6530    1.2300   -2.0467 O   0  0  0  0  0  0  0  0  0  0  0  0
    0.7398    3.7479    0.9516 O   0  0  0  0  0  0  0  0  0  0  0  0
    0.5819    1.4813    1.3028 N   0  0  0  0  0  0  0  0  0  0  0  0
   -0.3742    2.4671   -0.5988 N   0  0  0  0  0  0  0  0  0  0  0  0
   -0.2482    0.0195   -0.4842 C   0  0  0  0  0  0  0  0  0  0  0  0
   -1.2510   -1.1394   -0.5811 C   0  0  0  0  0  0  0  0  0  0  0  0
    1.0114   -0.3285   -1.2976 C   0  0  0  0  0  0  0  0  0  0  0  0
   -2.4993   -0.8499    0.2417 C   0  0  0  0  0  0  0  0  0  0  0  0
    0.1909    0.1940    0.9662 C   0  0  0  0  0  0  0  0  0  0  0  0
   -0.8535    1.2711   -1.1120 C   0  0  0  0  0  0  0  0  0  0  0  0
   -3.5073   -1.9922    0.1186 C   0  0  0  0  0  0  0  0  0  0  0  0
    1.6986   -1.5243   -0.7212 C   0  0  0  0  0  0  0  0  0  0  0  0
    0.3578    2.6404    0.5697 C   0  0  0  0  0  0  0  0  0  0  0  0
   -4.7748   -1.7042    0.9073 C   0  0  0  0  0  0  0  0  0  0  0  0
    2.9392   -1.5877   -0.2014 C   0  0  0  0  0  0  0  0  0  0  0  0
    3.5772   -2.8244    0.3652 C   0  0  0  0  0  0  0  0  0  0  0  0
    3.8048   -0.3574   -0.1409 C   0  0  0  0  0  0  0  0  0  0  0  0
  1 10  2  0
  2 11  2  0
  3 14  2  0
  4 10  1  0
  4 14  1  0
  5 11  1  0
  5 14  1  0
  6  7  1  0
  6  8  1  0
  6 10  1  0
  6 11  1  0
  7  9  1  0
  8 13  1  0
  9 12  1  0
 12 15  1  0
 13 16  2  3
 16 17  1  0
 16 18  1  0
M  END
>  <PUBCHEM_COMPOUND_CID>  (1) 
49202

>  <PUBCHEM_CONFORMER_RMSD>  (1) 
0.8

>  <PUBCHEM_CONFORMER_DIVERSEORDER>  (1) 
3
22
24
18
8
10
26
25
2
7
12
5
21
14
13
11
19
20
9
17
23
16
15
6
4
1

>  <PUBCHEM_MMFF94_PARTIAL_CHARGES>  (1) 
17
1 -0.57
10 0.57
11 0.57
13 -0.29
14 0.69
16 -0.28
17 0.14
18 0.14
2 -0.57
27 0.15
28 0.37
29 0.37
3 -0.57
4 -0.49
5 -0.49
6 0.12
8 0.14

>  <PUBCHEM_EFFECTIVE_ROTOR_COUNT>  (1) 
5.6

>  <PUBCHEM_PHARMACOPHORE_FEATURES>  (1) 
8
1 1 acceptor
1 15 hydrophobe
1 2 acceptor
1 3 acceptor
1 4 donor
1 5 donor
3 16 17 18 hydrophobe
6 4 5 6 10 11 14 rings

>  <PUBCHEM_HEAVY_ATOM_COUNT>  (1) 
18

>  <PUBCHEM_ATOM_DEF_STEREO_COUNT>  (1) 
0

>  <PUBCHEM_ATOM_UDEF_STEREO_COUNT>  (1) 
0

>  <PUBCHEM_BOND_DEF_STEREO_COUNT>  (1) 
0

>  <PUBCHEM_BOND_UDEF_STEREO_COUNT>  (1) 
0

>  <PUBCHEM_ISOTOPIC_ATOM_COUNT>  (1) 
0

>  <PUBCHEM_COMPONENT_COUNT>  (1) 
1

>  <PUBCHEM_CACTVS_TAUTO_COUNT>  (1) 
5

>  <PUBCHEM_CONFORMER_ID>  (1) 
0000C03200000003

>  <PUBCHEM_MMFF94_ENERGY>  (1) 
39.4159

>  <PUBCHEM_FEATURE_SELFOVERLAP>  (1) 
40.637

>  <PUBCHEM_SHAPE_FINGERPRINT>  (1) 
12532896 13 17119167625506386652
12592029 89 17981329202934262600
13134695 92 18412546552510058719
14713566 1 17899971630226297454
14787075 74 18188773976121792318
16945 1 18125991908850386052
18785283 64 17977103792401558136
20473742 2 18126005098716012003
20510252 161 18335138631643768054
20645476 183 17470712326334069692
21041028 32 18271533060924338993
21296965 67 18409172103589468559
23402539 116 17765694842141793844
23419403 2 18263909076971818941
23526113 38 18192120790299666615
23557571 272 18339649923610216126
23558518 356 17406551407579604294
23559900 14 18192418676969283806
2748010 2 18127380463467043844
298252 57 16302601090064470749
305870 269 17694225873519273805
576247 118 18341323435788623403
57672749 33 18270964681704701664
7364860 26 18124882510603630971
81228 2 18048624541302499331
9981440 41 16980081672589312282

>  <PUBCHEM_SHAPE_MULTIPOLES>  (1) 
342.86
5.78
3.48
1.42
2.57
2.67
0.13
-6.89
-1.02
-0.83
-0.85
0.28
0.46
0.76

>  <PUBCHEM_SHAPE_SELFOVERLAP>  (1) 
692.97

>  <PUBCHEM_SHAPE_VOLUME>  (1) 
198.1

>  <PUBCHEM_COORDINATE_TYPE>  (1) 
2
5
10

$$$$
