49203
     RDKit          3D

 18 18  0  0  1  0  0  0  0  0999 V2000
   -0.8201   -0.3899    2.0451 O   0  0  0  0  0  0  0  0  0  0  0  0
    0.6962    0.1030   -2.3718 O   0  0  0  0  0  0  0  0  0  0  0  0
    2.1025   -3.4170    0.2145 O   0  0  0  0  0  0  0  0  0  0  0  0
    0.7162   -1.8459    1.1608 N   0  0  0  0  0  0  0  0  0  0  0  0
    1.4742   -1.5994   -1.0454 N   0  0  0  0  0  0  0  0  0  0  0  0
    0.3230    0.2888    0.0171 C   0  0  0  0  0  0  0  0  0  0  0  0
    1.4663    1.1935    0.5107 C   0  0  0  0  0  0  0  0  0  0  0  0
   -0.9039    1.1532   -0.3077 C   0  0  0  0  0  0  0  0  0  0  0  0
    1.8845    2.1569   -0.6114 C   0  0  0  0  0  0  0  0  0  0  0  0
   -0.0142   -0.6669    1.1572 C   0  0  0  0  0  0  0  0  0  0  0  0
    0.8137   -0.3978   -1.2536 C   0  0  0  0  0  0  0  0  0  0  0  0
    1.0291    1.9243    1.7789 C   0  0  0  0  0  0  0  0  0  0  0  0
   -2.0209    0.3093   -0.8318 C   0  0  0  0  0  0  0  0  0  0  0  0
    3.0558    3.0524   -0.2339 C   0  0  0  0  0  0  0  0  0  0  0  0
    1.4881   -2.3529    0.1222 C   0  0  0  0  0  0  0  0  0  0  0  0
   -3.2660    0.1919   -0.3324 C   0  0  0  0  0  0  0  0  0  0  0  0
   -4.3494   -0.6766   -0.9062 C   0  0  0  0  0  0  0  0  0  0  0  0
   -3.6752    0.9731    0.8878 C   0  0  0  0  0  0  0  0  0  0  0  0
  1 10  2  0
  2 11  2  0
  3 15  2  0
  4 10  1  0
  4 15  1  0
  5 11  1  0
  5 15  1  0
  6  7  1  0
  6  8  1  0
  6 10  1  0
  6 11  1  0
  7  9  1  0
  7 12  1  0
  8 13  1  0
  9 14  1  0
 13 16  2  3
 16 17  1  0
 16 18  1  0
M  END
>  <PUBCHEM_COMPOUND_CID>  (1) 
49203

>  <PUBCHEM_CONFORMER_RMSD>  (1) 
0.6

>  <PUBCHEM_CONFORMER_DIVERSEORDER>  (1) 
1
32
33
29
12
19
10
20
23
15
34
30
18
8
22
24
17
6
25
26
31
13
9
16
21
27
11
5
7
3
2
28
4
14

>  <PUBCHEM_MMFF94_PARTIAL_CHARGES>  (1) 
17
1 -0.57
10 0.57
11 0.57
13 -0.29
15 0.69
16 -0.28
17 0.14
18 0.14
2 -0.57
27 0.15
3 -0.57
31 0.37
32 0.37
4 -0.49
5 -0.49
6 0.12
8 0.14

>  <PUBCHEM_EFFECTIVE_ROTOR_COUNT>  (1) 
4.6

>  <PUBCHEM_PHARMACOPHORE_FEATURES>  (1) 
9
1 1 acceptor
1 12 hydrophobe
1 14 hydrophobe
1 2 acceptor
1 3 acceptor
1 4 donor
1 5 donor
3 16 17 18 hydrophobe
6 4 5 6 10 11 15 rings

>  <PUBCHEM_HEAVY_ATOM_COUNT>  (1) 
18

>  <PUBCHEM_ATOM_DEF_STEREO_COUNT>  (1) 
0

>  <PUBCHEM_ATOM_UDEF_STEREO_COUNT>  (1) 
1

>  <PUBCHEM_BOND_DEF_STEREO_COUNT>  (1) 
0

>  <PUBCHEM_BOND_UDEF_STEREO_COUNT>  (1) 
0

>  <PUBCHEM_ISOTOPIC_ATOM_COUNT>  (1) 
0

>  <PUBCHEM_COMPONENT_COUNT>  (1) 
1

>  <PUBCHEM_CACTVS_TAUTO_COUNT>  (1) 
5

>  <PUBCHEM_CONFORMER_ID>  (1) 
0000C03300000001

>  <PUBCHEM_MMFF94_ENERGY>  (1) 
53.2728

>  <PUBCHEM_FEATURE_SELFOVERLAP>  (1) 
45.713

>  <PUBCHEM_SHAPE_FINGERPRINT>  (1) 
10922049 32 18193274311151985852
10948715 1 18193273211555987956
12423570 1 15403357864562050516
12592029 89 18412258471794479920
13464514 151 18339376192074560889
15852999 172 17895479253306299249
15906896 17 17393877788212825682
16945 1 18335414634620646908
19765921 60 18058180581506294689
19930374 2 17542812127110749434
20473742 2 18261379058072321662
20600515 1 17553762863375486093
20645477 70 18263346067685297495
21524375 3 18128250288596706028
22112679 90 17620499920757031392
2255824 54 18411983533599894183
23419403 2 17826834474799825690
2748010 2 17899444113647670330
4175511 376 18410865347369854086
458136 41 18337400442888804049
7364860 26 18410286991342205837
74978 22 18267578006188561333
81228 2 17119725081985659256
81539 233 18336534027673382213

>  <PUBCHEM_SHAPE_MULTIPOLES>  (1) 
342.86
4.99
3.03
1.68
6.17
1.79
0.07
-2.37
-0.86
-3.66
0.38
-0.09
-0.04
-0.32

>  <PUBCHEM_SHAPE_SELFOVERLAP>  (1) 
699.564

>  <PUBCHEM_SHAPE_VOLUME>  (1) 
197.3

>  <PUBCHEM_COORDINATE_TYPE>  (1) 
2
5
10

$$$$
