49219
     RDKit          3D

 18 18  0  0  0  0  0  0  0  0999 V2000
    2.6485    0.4325    0.6267 S   0  0  0  0  0  0  0  0  0  0  0  0
   -1.0353    1.1342   -1.9368 O   0  0  0  0  0  0  0  0  0  0  0  0
   -1.3352   -0.8219    2.3215 O   0  0  0  0  0  0  0  0  0  0  0  0
   -4.1736   -2.0944   -1.0520 O   0  0  0  0  0  0  0  0  0  0  0  0
   -2.6663   -0.4081   -1.4645 N   0  0  0  0  0  0  0  0  0  0  0  0
   -2.8166   -1.3848    0.6629 N   0  0  0  0  0  0  0  0  0  0  0  0
   -1.4709    0.6495    0.3989 C   0  0  0  0  0  0  0  0  0  0  0  0
   -0.0171    1.0521    0.6862 C   0  0  0  0  0  0  0  0  0  0  0  0
   -2.4109    1.7808    0.8522 C   0  0  0  0  0  0  0  0  0  0  0  0
   -1.6658    0.4823   -1.1049 C   0  0  0  0  0  0  0  0  0  0  0  0
   -1.8296   -0.5852    1.2196 C   0  0  0  0  0  0  0  0  0  0  0  0
    0.9360   -0.0598    0.2805 C   0  0  0  0  0  0  0  0  0  0  0  0
   -2.1520    3.0467    0.0667 C   0  0  0  0  0  0  0  0  0  0  0  0
   -3.2927   -1.3368   -0.6418 C   0  0  0  0  0  0  0  0  0  0  0  0
    3.4754   -1.0655    0.0445 C   0  0  0  0  0  0  0  0  0  0  0  0
    4.9957   -1.0035    0.1900 C   0  0  0  0  0  0  0  0  0  0  0  0
    5.6466    0.1163   -0.6265 C   0  0  0  0  0  0  0  0  0  0  0  0
    7.1636    0.0658   -0.5232 C   0  0  0  0  0  0  0  0  0  0  0  0
  1 12  1  0
  1 15  1  0
  2 10  2  0
  3 11  2  0
  4 14  2  0
  5 10  1  0
  5 14  1  0
  6 11  1  0
  6 14  1  0
  7  8  1  0
  7  9  1  0
  7 10  1  0
  7 11  1  0
  8 12  1  0
  9 13  1  0
 15 16  1  0
 16 17  1  0
 17 18  1  0
M  END
>  <PUBCHEM_COMPOUND_CID>  (1) 
49219

>  <PUBCHEM_CONFORMER_RMSD>  (1) 
0.8

>  <PUBCHEM_CONFORMER_DIVERSEORDER>  (1) 
1
89
23
55
51
76
38
78
48
75
64
11
66
79
18
54
68
3
26
60
85
34
56
16
22
35
52
31
90
67
8
86
87
39
77
47
80
61
50
5
37
74
81
59
65
40
69
10
33
58
46
49
88
63
19
2
45
72
44
83
84
71
13
82
24
57
42
6
62
73
7
53
20
15
4
21
14
43
70
9
27
41
12
30
28
25
29
32
17
36

>  <PUBCHEM_MMFF94_PARTIAL_CHARGES>  (1) 
14
1 -0.46
10 0.57
11 0.57
12 0.23
14 0.69
15 0.23
2 -0.57
28 0.37
29 0.37
3 -0.57
4 -0.57
5 -0.49
6 -0.49
7 0.12

>  <PUBCHEM_EFFECTIVE_ROTOR_COUNT>  (1) 
7.6

>  <PUBCHEM_PHARMACOPHORE_FEATURES>  (1) 
10
1 13 hydrophobe
1 18 hydrophobe
1 2 acceptor
1 3 acceptor
1 4 acceptor
1 5 donor
1 6 donor
3 1 8 12 hydrophobe
3 15 16 17 hydrophobe
6 5 6 7 10 11 14 rings

>  <PUBCHEM_HEAVY_ATOM_COUNT>  (1) 
18

>  <PUBCHEM_ATOM_DEF_STEREO_COUNT>  (1) 
0

>  <PUBCHEM_ATOM_UDEF_STEREO_COUNT>  (1) 
0

>  <PUBCHEM_BOND_DEF_STEREO_COUNT>  (1) 
0

>  <PUBCHEM_BOND_UDEF_STEREO_COUNT>  (1) 
0

>  <PUBCHEM_ISOTOPIC_ATOM_COUNT>  (1) 
0

>  <PUBCHEM_COMPONENT_COUNT>  (1) 
1

>  <PUBCHEM_CACTVS_TAUTO_COUNT>  (1) 
5

>  <PUBCHEM_CONFORMER_ID>  (1) 
0000C04300000001

>  <PUBCHEM_MMFF94_ENERGY>  (1) 
40.3246

>  <PUBCHEM_FEATURE_SELFOVERLAP>  (1) 
50.8

>  <PUBCHEM_SHAPE_FINGERPRINT>  (1) 
10291535 26 13117996695426607646
10366900 7 18187643631071102082
10680689 15 18060139817386239136
11315181 36 18259705610407847308
12633257 1 10735875084606271082
12916754 54 17846214505416364480
13024252 1 11314318239220942745
13288520 33 17989490731802569582
14251758 9 11458693981904275576
16945 1 17024562660619766793
17844677 252 18201725055303765080
19489759 90 16225764130214439790
200 152 18409164432920159754
20775530 9 17911782880280032542
20871999 31 17749383767558496220
23402539 116 17821447945623104828
23559900 14 18342163510012168248
58051976 100 18060133215541729992

>  <PUBCHEM_SHAPE_MULTIPOLES>  (1) 
346.71
11.53
2.06
1.48
27.65
0.92
0.07
-3.12
-2.9
-3.11
-0.14
-1.21
-0.15
-0.48

>  <PUBCHEM_SHAPE_SELFOVERLAP>  (1) 
678.564

>  <PUBCHEM_SHAPE_VOLUME>  (1) 
210.1

>  <PUBCHEM_COORDINATE_TYPE>  (1) 
2
5
10

$$$$
