49214
     RDKit          3D

 16 16  0  0  0  0  0  0  0  0999 V2000
   -0.2062    0.3981    2.3792 O   0  0  0  0  0  0  0  0  0  0  0  0
   -0.2173    0.3167   -2.4253 O   0  0  0  0  0  0  0  0  0  0  0  0
   -0.9670   -3.4700    0.0435 O   0  0  0  0  0  0  0  0  0  0  0  0
   -0.5861   -1.5133    1.1815 N   0  0  0  0  0  0  0  0  0  0  0  0
   -0.5890   -1.5538   -1.1620 N   0  0  0  0  0  0  0  0  0  0  0  0
   -0.2029    0.5971   -0.0268 C   0  0  0  0  0  0  0  0  0  0  0  0
    1.1432    1.3339   -0.0465 C   0  0  0  0  0  0  0  0  0  0  0  0
    2.3048    0.3515    0.0345 C   0  0  0  0  0  0  0  0  0  0  0  0
   -0.3220   -0.1590    1.2855 C   0  0  0  0  0  0  0  0  0  0  0  0
   -0.3270   -0.2035   -1.3130 C   0  0  0  0  0  0  0  0  0  0  0  0
   -1.3473    1.5715   -0.0356 C   0  0  0  0  0  0  0  0  0  0  0  0
    3.6437    1.0871   -0.0159 C   0  0  0  0  0  0  0  0  0  0  0  0
    4.8140    0.1178    0.0299 C   0  0  0  0  0  0  0  0  0  0  0  0
   -0.7314   -2.2606    0.0225 C   0  0  0  0  0  0  0  0  0  0  0  0
   -2.6364    1.2094    0.0282 C   0  0  0  0  0  0  0  0  0  0  0  0
   -3.7731    2.1771    0.0203 C   0  0  0  0  0  0  0  0  0  0  0  0
  1  9  2  0
  2 10  2  0
  3 14  2  0
  4  9  1  0
  4 14  1  0
  5 10  1  0
  5 14  1  0
  6  7  1  0
  6  9  1  0
  6 10  1  0
  6 11  1  0
  7  8  1  0
  8 12  1  0
 11 15  2  0
 12 13  1  0
 15 16  1  0
M  END
>  <PUBCHEM_COMPOUND_CID>  (1) 
49214

>  <PUBCHEM_CONFORMER_RMSD>  (1) 
0.6

>  <PUBCHEM_CONFORMER_DIVERSEORDER>  (1) 
1
5
7
8
3
4
9
6
2

>  <PUBCHEM_MMFF94_PARTIAL_CHARGES>  (1) 
16
1 -0.57
10 0.57
11 -0.29
14 0.69
15 -0.29
16 0.14
2 -0.57
21 0.15
24 0.37
25 0.37
29 0.15
3 -0.57
4 -0.49
5 -0.49
6 0.26
9 0.57

>  <PUBCHEM_EFFECTIVE_ROTOR_COUNT>  (1) 
4.6

>  <PUBCHEM_PHARMACOPHORE_FEATURES>  (1) 
8
1 1 acceptor
1 13 hydrophobe
1 16 hydrophobe
1 2 acceptor
1 3 acceptor
1 4 donor
1 5 donor
6 4 5 6 9 10 14 rings

>  <PUBCHEM_HEAVY_ATOM_COUNT>  (1) 
16

>  <PUBCHEM_ATOM_DEF_STEREO_COUNT>  (1) 
0

>  <PUBCHEM_ATOM_UDEF_STEREO_COUNT>  (1) 
0

>  <PUBCHEM_BOND_DEF_STEREO_COUNT>  (1) 
0

>  <PUBCHEM_BOND_UDEF_STEREO_COUNT>  (1) 
1

>  <PUBCHEM_ISOTOPIC_ATOM_COUNT>  (1) 
0

>  <PUBCHEM_COMPONENT_COUNT>  (1) 
1

>  <PUBCHEM_CACTVS_TAUTO_COUNT>  (1) 
5

>  <PUBCHEM_CONFORMER_ID>  (1) 
0000C03E00000001

>  <PUBCHEM_MMFF94_ENERGY>  (1) 
26.8466

>  <PUBCHEM_FEATURE_SELFOVERLAP>  (1) 
40.638

>  <PUBCHEM_SHAPE_FINGERPRINT>  (1) 
10702982 57 18409439289325757073
10922049 32 18410859815362474833
11322862 65 18335423452394643278
12119455 92 18041554737312569324
12423570 1 14659829511462700737
12592029 89 18194966240482474858
13024252 1 14346065443267501332
15852999 172 18130520647222046660
15906896 17 18270676579646337487
16945 1 18266461086440941551
187816 3 15697994115801087660
19930381 70 17617096906858879506
20473742 2 17973157322972998134
20524608 308 18409732897685247392
21524375 3 18129942269472375813
23402539 116 18343015588727041309
23419403 2 17555499129901577471
23559900 14 18272083908324707896
298252 57 18409163277458042905
3250762 1 17840574117834542809
366044 4 18409729521582821112
69090 78 18334855009046064568
7364860 26 17833832673174468497
81228 2 17972869547463939321
81539 233 18192147088537738421

>  <PUBCHEM_SHAPE_MULTIPOLES>  (1) 
301.7
5.24
2.6
1.52
5.65
2.59
0.04
-3.94
-0.08
-1.92
-0.03
-0.3
0.13
-0.01

>  <PUBCHEM_SHAPE_SELFOVERLAP>  (1) 
612.585

>  <PUBCHEM_SHAPE_VOLUME>  (1) 
174.4

>  <PUBCHEM_COORDINATE_TYPE>  (1) 
2
5
10

$$$$
