49231
     RDKit          3D

 17 17  0  0  1  0  0  0  0  0999 V2000
   -1.5392   -0.6282    1.0171 S   0  0  0  0  0  0  0  0  0  0  0  0
    0.7237   -2.4571   -0.4298 O   0  0  0  0  0  0  0  0  0  0  0  0
    0.2155    2.1521    0.3102 O   0  0  0  0  0  0  0  0  0  0  0  0
    4.1285    0.0168    1.3989 O   0  0  0  0  0  0  0  0  0  0  0  0
    2.4584   -1.2006    0.3918 N   0  0  0  0  0  0  0  0  0  0  0  0
    2.2042    1.1017    0.7621 N   0  0  0  0  0  0  0  0  0  0  0  0
    0.5598   -0.0478   -0.6501 C   0  0  0  0  0  0  0  0  0  0  0  0
   -0.9666   -0.2167   -0.6466 C   0  0  0  0  0  0  0  0  0  0  0  0
    1.0368    0.2355   -2.0858 C   0  0  0  0  0  0  0  0  0  0  0  0
    1.2179   -1.3516   -0.2098 C   0  0  0  0  0  0  0  0  0  0  0  0
    0.9404    1.1642    0.1943 C   0  0  0  0  0  0  0  0  0  0  0  0
   -3.3103   -0.7510    0.6714 C   0  0  0  0  0  0  0  0  0  0  0  0
    0.4593    1.5344   -2.6014 C   0  0  0  0  0  0  0  0  0  0  0  0
   -3.8946    0.5860    0.1920 C   0  0  0  0  0  0  0  0  0  0  0  0
    3.0154   -0.0214    0.8718 C   0  0  0  0  0  0  0  0  0  0  0  0
   -3.5297   -1.8442   -0.3719 C   0  0  0  0  0  0  0  0  0  0  0  0
   -3.7195    1.7280    1.1858 C   0  0  0  0  0  0  0  0  0  0  0  0
  1  8  1  0
  1 12  1  0
  2 10  2  0
  3 11  2  0
  4 15  2  0
  5 10  1  0
  5 15  1  0
  6 11  1  0
  6 15  1  0
  7  8  1  0
  7  9  1  0
  7 10  1  0
  7 11  1  0
  9 13  1  0
 12 14  1  0
 12 16  1  0
 14 17  1  0
M  END
>  <PUBCHEM_COMPOUND_CID>  (1) 
49231

>  <PUBCHEM_CONFORMER_RMSD>  (1) 
0.8

>  <PUBCHEM_CONFORMER_DIVERSEORDER>  (1) 
1
29
26
24
8
19
14
15
20
28
12
22
23
17
18
13
11
25
27
16
21
7
6
2
10
4
3
9
5

>  <PUBCHEM_MMFF94_PARTIAL_CHARGES>  (1) 
14
1 -0.46
10 0.57
11 0.57
12 0.23
15 0.69
2 -0.57
28 0.37
29 0.37
3 -0.57
4 -0.57
5 -0.49
6 -0.49
7 0.12
8 0.23

>  <PUBCHEM_EFFECTIVE_ROTOR_COUNT>  (1) 
5.6

>  <PUBCHEM_PHARMACOPHORE_FEATURES>  (1) 
10
1 13 hydrophobe
1 16 hydrophobe
1 17 hydrophobe
1 2 acceptor
1 3 acceptor
1 4 acceptor
1 5 donor
1 6 donor
4 1 8 12 14 hydrophobe
6 5 6 7 10 11 15 rings

>  <PUBCHEM_HEAVY_ATOM_COUNT>  (1) 
17

>  <PUBCHEM_ATOM_DEF_STEREO_COUNT>  (1) 
0

>  <PUBCHEM_ATOM_UDEF_STEREO_COUNT>  (1) 
1

>  <PUBCHEM_BOND_DEF_STEREO_COUNT>  (1) 
0

>  <PUBCHEM_BOND_UDEF_STEREO_COUNT>  (1) 
0

>  <PUBCHEM_ISOTOPIC_ATOM_COUNT>  (1) 
0

>  <PUBCHEM_COMPONENT_COUNT>  (1) 
1

>  <PUBCHEM_CACTVS_TAUTO_COUNT>  (1) 
5

>  <PUBCHEM_CONFORMER_ID>  (1) 
0000C04F00000001

>  <PUBCHEM_MMFF94_ENERGY>  (1) 
45.3872

>  <PUBCHEM_FEATURE_SELFOVERLAP>  (1) 
50.955

>  <PUBCHEM_SHAPE_FINGERPRINT>  (1) 
107287 299 14836135363758718039
12119455 92 16200146586854681848
12932764 1 18128280998287702827
13132413 78 18273492394544312185
13134695 92 16950560033989723412
13705890 14 12107792899685193570
14178342 30 18410300198762617867
15375462 478 17989200477685807393
15501101 241 18334571335035353926
16945 1 18337666395742781260
17041 49 17240773865073280085
1813 80 17531534178741506694
18186145 218 17487639450263319953
192875 21 17895750824663529383
20339313 130 17095533889270865973
20511035 2 17898579936221135418
20559304 39 18337689593293578999
20600515 1 17821736026523390882
21524375 3 17124520537668607177
23402539 116 18201988955210529245
23419403 2 17833823872506774846
23557571 272 17489597783461920315
2838139 119 13829554506387035482
3286 77 18263919020174315579
74978 22 16660933295778190507
7615 1 18042699454130129087
81228 2 17315919853760431725

>  <PUBCHEM_SHAPE_MULTIPOLES>  (1) 
326.13
6.25
2.05
1.73
3.45
0.04
-0.86
0.53
3.06
0.48
-0.39
-0.72
-0.8
-0.79

>  <PUBCHEM_SHAPE_SELFOVERLAP>  (1) 
644.6

>  <PUBCHEM_SHAPE_VOLUME>  (1) 
196.3

>  <PUBCHEM_COORDINATE_TYPE>  (1) 
2
5
10

$$$$
