49237
     RDKit          3D

 18 18  0  0  0  0  0  0  0  0999 V2000
    1.6696   -0.0075    0.2832 S   0  0  0  0  0  0  0  0  0  0  0  0
   -0.7936   -0.3391    2.3497 O   0  0  0  0  0  0  0  0  0  0  0  0
   -0.4874    0.2003   -2.3049 O   0  0  0  0  0  0  0  0  0  0  0  0
   -3.2698    2.8636    0.1895 O   0  0  0  0  0  0  0  0  0  0  0  0
   -2.1030    1.1943    1.2559 N   0  0  0  0  0  0  0  0  0  0  0  0
   -1.9506    1.4634   -1.0693 N   0  0  0  0  0  0  0  0  0  0  0  0
   -0.9932   -0.5561   -0.0572 C   0  0  0  0  0  0  0  0  0  0  0  0
   -2.0834   -1.6249   -0.2525 C   0  0  0  0  0  0  0  0  0  0  0  0
    0.3850   -1.2335   -0.0450 C   0  0  0  0  0  0  0  0  0  0  0  0
   -1.2497    0.1016    1.2951 C   0  0  0  0  0  0  0  0  0  0  0  0
   -1.0829    0.3959   -1.2457 C   0  0  0  0  0  0  0  0  0  0  0  0
   -1.9170   -2.3081   -1.6046 C   0  0  0  0  0  0  0  0  0  0  0  0
   -2.0348   -2.6424    0.8810 C   0  0  0  0  0  0  0  0  0  0  0  0
    3.1094   -1.1011    0.2299 C   0  0  0  0  0  0  0  0  0  0  0  0
   -2.5082    1.8970    0.1275 C   0  0  0  0  0  0  0  0  0  0  0  0
    4.4191   -0.3802    0.5485 C   0  0  0  0  0  0  0  0  0  0  0  0
    4.7660    0.7325   -0.4444 C   0  0  0  0  0  0  0  0  0  0  0  0
    6.1245    1.3442   -0.1367 C   0  0  0  0  0  0  0  0  0  0  0  0
  1  9  1  0
  1 14  1  0
  2 10  2  0
  3 11  2  0
  4 15  2  0
  5 10  1  0
  5 15  1  0
  6 11  1  0
  6 15  1  0
  7  8  1  0
  7  9  1  0
  7 10  1  0
  7 11  1  0
  8 12  1  0
  8 13  1  0
 14 16  1  0
 16 17  1  0
 17 18  1  0
M  END
>  <PUBCHEM_COMPOUND_CID>  (1) 
49237

>  <PUBCHEM_CONFORMER_RMSD>  (1) 
0.8

>  <PUBCHEM_CONFORMER_DIVERSEORDER>  (1) 
1
17
18
27
19
22
10
24
4
29
13
20
12
25
28
26
8
16
21
15
23
2
14
5
11
6
7
9
3

>  <PUBCHEM_MMFF94_PARTIAL_CHARGES>  (1) 
14
1 -0.46
10 0.57
11 0.57
14 0.23
15 0.69
2 -0.57
28 0.37
29 0.37
3 -0.57
4 -0.57
5 -0.49
6 -0.49
7 0.12
9 0.23

>  <PUBCHEM_EFFECTIVE_ROTOR_COUNT>  (1) 
6.6

>  <PUBCHEM_PHARMACOPHORE_FEATURES>  (1) 
9
1 18 hydrophobe
1 2 acceptor
1 3 acceptor
1 4 acceptor
1 5 donor
1 6 donor
3 8 12 13 hydrophobe
5 1 9 14 16 17 hydrophobe
6 5 6 7 10 11 15 rings

>  <PUBCHEM_HEAVY_ATOM_COUNT>  (1) 
18

>  <PUBCHEM_ATOM_DEF_STEREO_COUNT>  (1) 
0

>  <PUBCHEM_ATOM_UDEF_STEREO_COUNT>  (1) 
0

>  <PUBCHEM_BOND_DEF_STEREO_COUNT>  (1) 
0

>  <PUBCHEM_BOND_UDEF_STEREO_COUNT>  (1) 
0

>  <PUBCHEM_ISOTOPIC_ATOM_COUNT>  (1) 
0

>  <PUBCHEM_COMPONENT_COUNT>  (1) 
1

>  <PUBCHEM_CACTVS_TAUTO_COUNT>  (1) 
5

>  <PUBCHEM_CONFORMER_ID>  (1) 
0000C05500000001

>  <PUBCHEM_MMFF94_ENERGY>  (1) 
49.2427

>  <PUBCHEM_FEATURE_SELFOVERLAP>  (1) 
45.712

>  <PUBCHEM_SHAPE_FINGERPRINT>  (1) 
11315181 36 17895187866431403140
11405975 8 18335135342263101170
12173636 292 18341323418777468486
12423570 1 15889498315616915655
12788726 201 18338785797596590499
13024252 1 14129054799071043183
14142880 1 18261107478283484300
15163728 17 17841446829509125473
16945 1 17607257454605087357
21339142 149 17675925417181793874
23227448 37 18411985762582646380
23419403 2 15722230826969187579
23557571 272 18342747338323322092
27216 239 18259709999368766216
4175511 318 17775002375505855508
5104073 3 18260821606315278464

>  <PUBCHEM_SHAPE_MULTIPOLES>  (1) 
346.71
8.27
2.53
1.61
19.51
0.31
-0.08
3.26
-0.2
-3.24
-0.07
-1.11
-0.19
-0.5

>  <PUBCHEM_SHAPE_SELFOVERLAP>  (1) 
684.481

>  <PUBCHEM_SHAPE_VOLUME>  (1) 
209.4

>  <PUBCHEM_COORDINATE_TYPE>  (1) 
2
5
10

$$$$
