49239
     RDKit          3D

 16 16  0  0  0  0  0  0  0  0999 V2000
    1.4454    0.2441   -0.1581 S   0  0  0  0  0  0  0  0  0  0  0  0
   -0.5578   -0.9498    2.1048 O   0  0  0  0  0  0  0  0  0  0  0  0
   -1.1345    1.7810   -1.6715 O   0  0  0  0  0  0  0  0  0  0  0  0
   -3.7795   -1.9114   -1.0182 O   0  0  0  0  0  0  0  0  0  0  0  0
   -2.2319   -1.3718    0.5941 N   0  0  0  0  0  0  0  0  0  0  0  0
   -2.5195   -0.0081   -1.2925 N   0  0  0  0  0  0  0  0  0  0  0  0
   -1.1382    0.8240    0.5566 C   0  0  0  0  0  0  0  0  0  0  0  0
    0.3001    1.3396    0.7099 C   0  0  0  0  0  0  0  0  0  0  0  0
   -2.0912    1.7298    1.3569 C   0  0  0  0  0  0  0  0  0  0  0  0
   -1.2446   -0.5753    1.1546 C   0  0  0  0  0  0  0  0  0  0  0  0
   -1.5592    0.9152   -0.9068 C   0  0  0  0  0  0  0  0  0  0  0  0
    2.9870    1.1135    0.2144 C   0  0  0  0  0  0  0  0  0  0  0  0
    4.2074    0.4763   -0.4497 C   0  0  0  0  0  0  0  0  0  0  0  0
    4.4763   -0.9602    0.0069 C   0  0  0  0  0  0  0  0  0  0  0  0
   -2.9164   -1.1416   -0.5932 C   0  0  0  0  0  0  0  0  0  0  0  0
    5.7565   -1.5053   -0.6081 C   0  0  0  0  0  0  0  0  0  0  0  0
  1  8  1  0
  1 12  1  0
  2 10  2  0
  3 11  2  0
  4 15  2  0
  5 10  1  0
  5 15  1  0
  6 11  1  0
  6 15  1  0
  7  8  1  0
  7  9  1  0
  7 10  1  0
  7 11  1  0
 12 13  1  0
 13 14  1  0
 14 16  1  0
M  END
>  <PUBCHEM_COMPOUND_CID>  (1) 
49239

>  <PUBCHEM_CONFORMER_RMSD>  (1) 
0.6

>  <PUBCHEM_CONFORMER_DIVERSEORDER>  (1) 
1
41
30
19
20
38
23
29
28
40
11
12
35
18
8
5
39
31
22
34
36
32
17
9
24
25
14
10
33
16
26
42
4
37
15
13
3
6
7
2
27
21

>  <PUBCHEM_MMFF94_PARTIAL_CHARGES>  (1) 
14
1 -0.46
10 0.57
11 0.57
12 0.23
15 0.69
2 -0.57
26 0.37
27 0.37
3 -0.57
4 -0.57
5 -0.49
6 -0.49
7 0.12
8 0.23

>  <PUBCHEM_EFFECTIVE_ROTOR_COUNT>  (1) 
5.6

>  <PUBCHEM_PHARMACOPHORE_FEATURES>  (1) 
8
1 16 hydrophobe
1 2 acceptor
1 3 acceptor
1 4 acceptor
1 5 donor
1 6 donor
5 1 8 12 13 14 hydrophobe
6 5 6 7 10 11 15 rings

>  <PUBCHEM_HEAVY_ATOM_COUNT>  (1) 
16

>  <PUBCHEM_ATOM_DEF_STEREO_COUNT>  (1) 
0

>  <PUBCHEM_ATOM_UDEF_STEREO_COUNT>  (1) 
0

>  <PUBCHEM_BOND_DEF_STEREO_COUNT>  (1) 
0

>  <PUBCHEM_BOND_UDEF_STEREO_COUNT>  (1) 
0

>  <PUBCHEM_ISOTOPIC_ATOM_COUNT>  (1) 
0

>  <PUBCHEM_COMPONENT_COUNT>  (1) 
1

>  <PUBCHEM_CACTVS_TAUTO_COUNT>  (1) 
5

>  <PUBCHEM_CONFORMER_ID>  (1) 
0000C05700000001

>  <PUBCHEM_MMFF94_ENERGY>  (1) 
36.418

>  <PUBCHEM_FEATURE_SELFOVERLAP>  (1) 
40.636

>  <PUBCHEM_SHAPE_FINGERPRINT>  (1) 
11315181 36 18413107239474566152
12916754 54 18341894100009697732
13024252 1 15068627097557552145
14123260 362 13334737916804674070
15163728 17 14347175851259553959
16945 1 17388230572413270041
17870717 6 18187371987158864014
200 152 18272930544286972478
20671657 53 18201438142001632792
20871999 31 17676490536404825420
21637258 2 17560509724812032423
22646028 28 18201439164810211966
23402539 116 17749104482893956388
23403322 49 18413669098000093622
23559900 14 18041272270952793636
27216 239 8934992677130714732
3286 77 18130786802219399040
4175511 318 14707205530515438014
57262259 84 17241904266027072579
76465 3 18060134388067704414
90316 7 14117525358522440778

>  <PUBCHEM_SHAPE_MULTIPOLES>  (1) 
305.55
8.67
1.92
1.47
14.97
0.16
-0.15
5.14
1.78
-0.9
0.05
-1.18
-0.13
-0.26

>  <PUBCHEM_SHAPE_SELFOVERLAP>  (1) 
598.928

>  <PUBCHEM_SHAPE_VOLUME>  (1) 
185.1

>  <PUBCHEM_COORDINATE_TYPE>  (1) 
2
5
10

$$$$
