49241
     RDKit          3D

 19 19  0  0  1  0  0  0  0  0999 V2000
    1.9057    0.0080    0.3679 S   0  0  0  0  0  0  0  0  0  0  0  0
   -0.3735   -0.1582   -1.9617 O   0  0  0  0  0  0  0  0  0  0  0  0
   -0.3151    0.1439    2.6592 O   0  0  0  0  0  0  0  0  0  0  0  0
   -3.2246    2.7501    0.2742 O   0  0  0  0  0  0  0  0  0  0  0  0
   -1.9534    1.1879   -0.9073 N   0  0  0  0  0  0  0  0  0  0  0  0
   -1.8109    1.3886    1.4443 N   0  0  0  0  0  0  0  0  0  0  0  0
   -0.7790   -0.5522    0.3851 C   0  0  0  0  0  0  0  0  0  0  0  0
   -1.8758   -1.6272    0.4923 C   0  0  0  0  0  0  0  0  0  0  0  0
    0.5968   -1.2369    0.3997 C   0  0  0  0  0  0  0  0  0  0  0  0
   -0.9821    0.1744   -0.9430 C   0  0  0  0  0  0  0  0  0  0  0  0
   -0.9068    0.3510    1.6007 C   0  0  0  0  0  0  0  0  0  0  0  0
   -1.7937   -2.6011   -0.6724 C   0  0  0  0  0  0  0  0  0  0  0  0
   -2.4044    1.8282    0.2631 C   0  0  0  0  0  0  0  0  0  0  0  0
   -2.8913   -3.6488   -0.5789 C   0  0  0  0  0  0  0  0  0  0  0  0
    3.3350   -1.1002    0.3925 C   0  0  0  0  0  0  0  0  0  0  0  0
    4.6682   -0.3545    0.4455 C   0  0  0  0  0  0  0  0  0  0  0  0
   -2.4158    1.7261   -2.1811 C   0  0  0  0  0  0  0  0  0  0  0  0
    4.9198    0.5427   -0.7694 C   0  0  0  0  0  0  0  0  0  0  0  0
    6.3008    1.1782   -0.7107 C   0  0  0  0  0  0  0  0  0  0  0  0
  1  9  1  0
  1 15  1  0
  2 10  2  0
  3 11  2  0
  4 13  2  0
  5 10  1  0
  5 13  1  0
  5 17  1  0
  6 11  1  0
  6 13  1  0
  7  8  1  0
  7  9  1  0
  7 10  1  0
  7 11  1  0
  8 12  1  0
 12 14  1  0
 15 16  1  0
 16 18  1  0
 18 19  1  0
M  END
>  <PUBCHEM_COMPOUND_CID>  (1) 
49241

>  <PUBCHEM_CONFORMER_RMSD>  (1) 
0.8

>  <PUBCHEM_CONFORMER_DIVERSEORDER>  (1) 
3
73
65
39
50
35
58
60
27
56
68
30
75
55
52
64
15
54
46
48
17
13
29
74
67
14
51
33
76
41
36
7
22
66
61
40
62
53
57
24
28
59
44
8
26
72
63
34
47
71
32
16
4
43
20
37
49
70
2
38
31
45
6
12
21
25
69
9
42
10
1
18
19
5
11
23

>  <PUBCHEM_MMFF94_PARTIAL_CHARGES>  (1) 
14
1 -0.46
10 0.57
11 0.57
13 0.69
15 0.23
17 0.3
2 -0.57
26 0.37
3 -0.57
4 -0.57
5 -0.42
6 -0.49
7 0.12
9 0.23

>  <PUBCHEM_EFFECTIVE_ROTOR_COUNT>  (1) 
7.6

>  <PUBCHEM_PHARMACOPHORE_FEATURES>  (1) 
8
1 14 hydrophobe
1 19 hydrophobe
1 2 acceptor
1 3 acceptor
1 4 acceptor
1 6 donor
5 1 9 15 16 18 hydrophobe
6 5 6 7 10 11 13 rings

>  <PUBCHEM_HEAVY_ATOM_COUNT>  (1) 
19

>  <PUBCHEM_ATOM_DEF_STEREO_COUNT>  (1) 
0

>  <PUBCHEM_ATOM_UDEF_STEREO_COUNT>  (1) 
1

>  <PUBCHEM_BOND_DEF_STEREO_COUNT>  (1) 
0

>  <PUBCHEM_BOND_UDEF_STEREO_COUNT>  (1) 
0

>  <PUBCHEM_ISOTOPIC_ATOM_COUNT>  (1) 
0

>  <PUBCHEM_COMPONENT_COUNT>  (1) 
1

>  <PUBCHEM_CACTVS_TAUTO_COUNT>  (1) 
3

>  <PUBCHEM_CONFORMER_ID>  (1) 
0000C05900000003

>  <PUBCHEM_MMFF94_ENERGY>  (1) 
40.4999

>  <PUBCHEM_FEATURE_SELFOVERLAP>  (1) 
40.597

>  <PUBCHEM_SHAPE_FINGERPRINT>  (1) 
10764073 3 14687288938241219655
11101153 10 17827367880227606164
12173636 292 18198619943259489793
12714826 92 17987794236790112726
12788726 201 18263915691280022570
13024252 1 15647055954041394779
14142880 1 18186803582032201372
14817 1 13228953477973859963
15163728 17 17839476495987257672
15342168 16 18193842539483226204
16945 1 16054881215264126505
17093844 174 11458692964160589204
17980427 23 17822875086653497365
19765921 60 17556852530020428889
20600515 1 17697620014169642975
20645476 183 18129651994201991033
21426921 1 18340770433269661922
22907989 373 18343294890339114798
23227448 37 18413111666900474880
23419403 2 17557686239107455491
23557571 272 18272660077622768950
27216 239 17676212364157920256
283562 15 18335699511265074170
394222 165 16910322027930291377

>  <PUBCHEM_SHAPE_MULTIPOLES>  (1) 
367.29
8.63
2.94
1.79
20.45
1.3
-0.23
-1.9
2.43
-4.78
0.75
-1.01
-0.64
-0.78

>  <PUBCHEM_SHAPE_SELFOVERLAP>  (1) 
719.525

>  <PUBCHEM_SHAPE_VOLUME>  (1) 
223.2

>  <PUBCHEM_COORDINATE_TYPE>  (1) 
2
5
10

$$$$
