49246
     RDKit          3D

 15 15  0  0  0  0  0  0  0  0999 V2000
   -0.2639    0.6385    2.3862 O   0  0  0  0  0  0  0  0  0  0  0  0
   -0.3076    0.6033   -2.4186 O   0  0  0  0  0  0  0  0  0  0  0  0
   -2.1858   -2.7868    0.0260 O   0  0  0  0  0  0  0  0  0  0  0  0
   -1.2175   -1.0526    1.1765 N   0  0  0  0  0  0  0  0  0  0  0  0
   -1.2365   -1.0712   -1.1673 N   0  0  0  0  0  0  0  0  0  0  0  0
   -0.2033    0.8462   -0.0183 C   0  0  0  0  0  0  0  0  0  0  0  0
    1.3045    1.1315   -0.0381 C   0  0  0  0  0  0  0  0  0  0  0  0
    2.1061   -0.1621    0.0311 C   0  0  0  0  0  0  0  0  0  0  0  0
   -0.5479    0.1532    1.2891 C   0  0  0  0  0  0  0  0  0  0  0  0
   -0.5706    0.1334   -1.3096 C   0  0  0  0  0  0  0  0  0  0  0  0
    3.6066    0.1245   -0.0195 C   0  0  0  0  0  0  0  0  0  0  0  0
   -0.9909    2.1263   -0.0154 C   0  0  0  0  0  0  0  0  0  0  0  0
    4.4205   -1.1591    0.0146 C   0  0  0  0  0  0  0  0  0  0  0  0
   -1.5883   -1.7090    0.0127 C   0  0  0  0  0  0  0  0  0  0  0  0
   -2.3254    2.1839    0.0507 C   0  0  0  0  0  0  0  0  0  0  0  0
  1  9  2  0
  2 10  2  0
  3 14  2  0
  4  9  1  0
  4 14  1  0
  5 10  1  0
  5 14  1  0
  6  7  1  0
  6  9  1  0
  6 10  1  0
  6 12  1  0
  7  8  1  0
  8 11  1  0
 11 13  1  0
 12 15  2  0
M  END
>  <PUBCHEM_COMPOUND_CID>  (1) 
49246

>  <PUBCHEM_CONFORMER_RMSD>  (1) 
0.6

>  <PUBCHEM_CONFORMER_DIVERSEORDER>  (1) 
1
8
3
5
7
9
10
6
11
12
4
2

>  <PUBCHEM_MMFF94_PARTIAL_CHARGES>  (1) 
16
1 -0.57
10 0.57
12 -0.29
14 0.69
15 -0.3
2 -0.57
22 0.15
23 0.37
24 0.37
28 0.15
29 0.15
3 -0.57
4 -0.49
5 -0.49
6 0.26
9 0.57

>  <PUBCHEM_EFFECTIVE_ROTOR_COUNT>  (1) 
4.6

>  <PUBCHEM_PHARMACOPHORE_FEATURES>  (1) 
8
1 1 acceptor
1 13 hydrophobe
1 15 hydrophobe
1 2 acceptor
1 3 acceptor
1 4 donor
1 5 donor
6 4 5 6 9 10 14 rings

>  <PUBCHEM_HEAVY_ATOM_COUNT>  (1) 
15

>  <PUBCHEM_ATOM_DEF_STEREO_COUNT>  (1) 
0

>  <PUBCHEM_ATOM_UDEF_STEREO_COUNT>  (1) 
0

>  <PUBCHEM_BOND_DEF_STEREO_COUNT>  (1) 
0

>  <PUBCHEM_BOND_UDEF_STEREO_COUNT>  (1) 
0

>  <PUBCHEM_ISOTOPIC_ATOM_COUNT>  (1) 
0

>  <PUBCHEM_COMPONENT_COUNT>  (1) 
1

>  <PUBCHEM_CACTVS_TAUTO_COUNT>  (1) 
5

>  <PUBCHEM_CONFORMER_ID>  (1) 
0000C05E00000001

>  <PUBCHEM_MMFF94_ENERGY>  (1) 
27.989

>  <PUBCHEM_FEATURE_SELFOVERLAP>  (1) 
40.638

>  <PUBCHEM_SHAPE_FINGERPRINT>  (1) 
10702982 57 18263634066036906689
10922049 32 18123192307628539985
12423570 1 15076713880746192149
13024252 1 14418141677331729036
13380536 261 15938901545620489034
14817 1 11911525297922928209
16945 1 18410857655093917837
187816 3 15553301628254471508
19930381 70 16968861061611679242
20524608 308 18337393729881164176
21296965 67 18266457804975339563
2306618 200 12535055348938488386
23402539 116 18272367556164369557
23419403 2 17345456249793011345
23526113 38 17906417229386665479
27216 239 10735864098190820982
69090 78 18262800640407276144

>  <PUBCHEM_SHAPE_MULTIPOLES>  (1) 
281.12
4.55
2.28
1.59
7.76
0.89
0.04
0.91
-0.03
-2.26
-0.02
-0.58
-0.16
-0.02

>  <PUBCHEM_SHAPE_SELFOVERLAP>  (1) 
573.841

>  <PUBCHEM_SHAPE_VOLUME>  (1) 
161.5

>  <PUBCHEM_COORDINATE_TYPE>  (1) 
2
5
10

$$$$
