49243
     RDKit          3D

 19 19  0  0  0  0  0  0  0  0999 V2000
    3.2111    0.0558    0.4653 S   0  0  0  0  0  0  0  0  0  0  0  0
   -1.2965    0.8236   -2.2365 O   0  0  0  0  0  0  0  0  0  0  0  0
   -1.9647   -1.1818    1.9565 O   0  0  0  0  0  0  0  0  0  0  0  0
   -4.2106    2.6494    0.8017 O   0  0  0  0  0  0  0  0  0  0  0  0
   -2.8257    1.6784   -0.7555 N   0  0  0  0  0  0  0  0  0  0  0  0
   -3.1590    0.6771    1.3393 N   0  0  0  0  0  0  0  0  0  0  0  0
   -1.9851   -0.5985   -0.3970 C   0  0  0  0  0  0  0  0  0  0  0  0
   -0.6246   -1.3005   -0.5160 C   0  0  0  0  0  0  0  0  0  0  0  0
   -3.0769   -1.4993   -1.0016 C   0  0  0  0  0  0  0  0  0  0  0  0
    0.4910   -0.4177    0.0358 C   0  0  0  0  0  0  0  0  0  0  0  0
   -1.9669    0.6902   -1.2130 C   0  0  0  0  0  0  0  0  0  0  0  0
   -2.3314   -0.4043    1.0759 C   0  0  0  0  0  0  0  0  0  0  0  0
    1.8826   -1.0240   -0.1435 C   0  0  0  0  0  0  0  0  0  0  0  0
   -3.1940   -2.7968   -0.2341 C   0  0  0  0  0  0  0  0  0  0  0  0
   -3.4643    1.7239    0.4779 C   0  0  0  0  0  0  0  0  0  0  0  0
    4.6157   -1.0105    0.0705 C   0  0  0  0  0  0  0  0  0  0  0  0
    5.9600   -0.3967    0.4614 C   0  0  0  0  0  0  0  0  0  0  0  0
    6.2748    0.9111   -0.2698 C   0  0  0  0  0  0  0  0  0  0  0  0
    7.6644    1.4206    0.0822 C   0  0  0  0  0  0  0  0  0  0  0  0
  1 13  1  0
  1 16  1  0
  2 11  2  0
  3 12  2  0
  4 15  2  0
  5 11  1  0
  5 15  1  0
  6 12  1  0
  6 15  1  0
  7  8  1  0
  7  9  1  0
  7 11  1  0
  7 12  1  0
  8 10  1  0
  9 14  1  0
 10 13  1  0
 16 17  1  0
 17 18  1  0
 18 19  1  0
M  END
>  <PUBCHEM_COMPOUND_CID>  (1) 
49243

>  <PUBCHEM_CONFORMER_RMSD>  (1) 
0.8

>  <PUBCHEM_CONFORMER_DIVERSEORDER>  (1) 
2
111
113
94
117
60
80
121
17
78
83
163
134
51
123
131
105
74
16
77
168
5
119
55
68
43
167
128
112
172
97
136
157
58
114
180
106
187
66
53
177
85
95
45
19
87
174
122
120
179
11
96
125
13
124
143
108
93
73
89
153
169
76
107
137
35
141
104
129
8
139
183
173
12
160
52
57
115
86
182
130
22
98
138
30
75
171
63
140
135
71
56
9
154
126
100
99
48
36
90
118
110
92
132
166
59
28
149
145
151
14
25
1
170
15
91
64
152
102
39
158
72
150
144
103
88
127
4
109
54
148
21
159
161
133
33
20
164
70
176
69
146
162
49
175
181
32
6
81
156
34
37
142
178
79
185
18
184
82
7
165
65
44
84
46
116
186
38
67
31
29
27
62
101
47
23
41
24
26
40
61
50
147
155
42
188
3
10

>  <PUBCHEM_MMFF94_PARTIAL_CHARGES>  (1) 
14
1 -0.46
11 0.57
12 0.57
13 0.23
15 0.69
16 0.23
2 -0.57
3 -0.57
31 0.37
32 0.37
4 -0.57
5 -0.49
6 -0.49
7 0.12

>  <PUBCHEM_EFFECTIVE_ROTOR_COUNT>  (1) 
8.6

>  <PUBCHEM_PHARMACOPHORE_FEATURES>  (1) 
8
1 14 hydrophobe
1 19 hydrophobe
1 2 acceptor
1 3 acceptor
1 4 acceptor
1 5 donor
1 6 donor
6 5 6 7 11 12 15 rings

>  <PUBCHEM_HEAVY_ATOM_COUNT>  (1) 
19

>  <PUBCHEM_ATOM_DEF_STEREO_COUNT>  (1) 
0

>  <PUBCHEM_ATOM_UDEF_STEREO_COUNT>  (1) 
0

>  <PUBCHEM_BOND_DEF_STEREO_COUNT>  (1) 
0

>  <PUBCHEM_BOND_UDEF_STEREO_COUNT>  (1) 
0

>  <PUBCHEM_ISOTOPIC_ATOM_COUNT>  (1) 
0

>  <PUBCHEM_COMPONENT_COUNT>  (1) 
1

>  <PUBCHEM_CACTVS_TAUTO_COUNT>  (1) 
5

>  <PUBCHEM_CONFORMER_ID>  (1) 
0000C05B00000002

>  <PUBCHEM_MMFF94_ENERGY>  (1) 
40.572

>  <PUBCHEM_FEATURE_SELFOVERLAP>  (1) 
40.637

>  <PUBCHEM_SHAPE_FINGERPRINT>  (1) 
10014705 185 18271526412019377106
10680689 15 18260548918356728230
10912923 1 18259974986472559778
11101153 10 18193837278607192268
11315181 36 18260824943077566406
11370993 144 18262239911400203234
12616971 3 16081379557368386686
13073987 5 18412260654055000418
14142880 1 18334295340869442695
15183329 4 13758080684709985404
15778101 99 18342741797646802304
17093844 174 18059849559365088090
17844677 252 18342741870993659816
17870717 6 13110959825498967284
18927931 339 14189580766822739762
20645477 56 18271525308339311147
220451 1 11383846987059544836
23081809 10 18187362147953005146
27216 239 18408888412646626851
497634 4 18411131472180986942
5104073 3 18260823783679341010
90127 26 18334018272809018850

>  <PUBCHEM_SHAPE_MULTIPOLES>  (1) 
367.29
14.36
2.27
1.35
36.99
0.23
-0.08
5.63
1.13
-3.26
0.06
-1.46
0.15
-0.6

>  <PUBCHEM_SHAPE_SELFOVERLAP>  (1) 
715.875

>  <PUBCHEM_SHAPE_VOLUME>  (1) 
223.1

>  <PUBCHEM_COORDINATE_TYPE>  (1) 
2
5
10

$$$$
