49254
     RDKit          3D

 18 18  0  0  0  0  0  0  0  0999 V2000
    0.9878    0.3314    0.0969 S   0  0  0  0  0  0  0  0  0  0  0  0
   -1.3679   -1.2023    1.9428 O   0  0  0  0  0  0  0  0  0  0  0  0
   -1.1982    0.9539   -2.2253 O   0  0  0  0  0  0  0  0  0  0  0  0
   -4.4073    2.0612    0.8621 O   0  0  0  0  0  0  0  0  0  0  0  0
   -2.9452    0.3590    1.3623 N   0  0  0  0  0  0  0  0  0  0  0  0
   -2.8609    1.4356   -0.7199 N   0  0  0  0  0  0  0  0  0  0  0  0
   -1.5404   -0.6075   -0.4017 C   0  0  0  0  0  0  0  0  0  0  0  0
   -2.4160   -1.7170   -1.0111 C   0  0  0  0  0  0  0  0  0  0  0  0
   -0.0609   -0.9943   -0.5417 C   0  0  0  0  0  0  0  0  0  0  0  0
   -1.9048   -0.5124    1.0765 C   0  0  0  0  0  0  0  0  0  0  0  0
   -1.8124    0.6645   -1.1987 C   0  0  0  0  0  0  0  0  0  0  0  0
   -2.2390   -3.0186   -0.2621 C   0  0  0  0  0  0  0  0  0  0  0  0
    2.6008   -0.4268   -0.2107 C   0  0  0  0  0  0  0  0  0  0  0  0
    3.7275    0.5133    0.2087 C   0  0  0  0  0  0  0  0  0  0  0  0
    5.0958   -0.1207   -0.0556 C   0  0  0  0  0  0  0  0  0  0  0  0
   -3.4809    1.3250    0.5189 C   0  0  0  0  0  0  0  0  0  0  0  0
    6.2313    0.7982    0.3943 C   0  0  0  0  0  0  0  0  0  0  0  0
    7.5907    0.1574    0.1643 C   0  0  0  0  0  0  0  0  0  0  0  0
  1  9  1  0
  1 13  1  0
  2 10  2  0
  3 11  2  0
  4 16  2  0
  5 10  1  0
  5 16  1  0
  6 11  1  0
  6 16  1  0
  7  8  1  0
  7  9  1  0
  7 10  1  0
  7 11  1  0
  8 12  1  0
 13 14  1  0
 14 15  1  0
 15 17  1  0
 17 18  1  0
M  END
>  <PUBCHEM_COMPOUND_CID>  (1) 
49254

>  <PUBCHEM_CONFORMER_RMSD>  (1) 
0.8

>  <PUBCHEM_CONFORMER_DIVERSEORDER>  (1) 
1
33
72
12
65
47
16
77
86
40
78
15
71
61
42
50
6
73
66
52
38
60
85
54
20
19
87
49
31
26
59
80
57
63
74
9
46
67
11
14
48
58
76
45
84
2
53
83
56
36
4
21
79
69
81
62
64
39
3
51
32
70
28
8
75
43
34
35
10
55
37
22
41
17
44
13
82
27
25
23
68
5
7
30
29
24
18

>  <PUBCHEM_MMFF94_PARTIAL_CHARGES>  (1) 
14
1 -0.46
10 0.57
11 0.57
13 0.23
16 0.69
2 -0.57
3 -0.57
32 0.37
33 0.37
4 -0.57
5 -0.49
6 -0.49
7 0.12
9 0.23

>  <PUBCHEM_EFFECTIVE_ROTOR_COUNT>  (1) 
7.6

>  <PUBCHEM_PHARMACOPHORE_FEATURES>  (1) 
10
1 12 hydrophobe
1 18 hydrophobe
1 2 acceptor
1 3 acceptor
1 4 acceptor
1 5 donor
1 6 donor
3 1 9 13 hydrophobe
3 14 15 17 hydrophobe
6 5 6 7 10 11 16 rings

>  <PUBCHEM_HEAVY_ATOM_COUNT>  (1) 
18

>  <PUBCHEM_ATOM_DEF_STEREO_COUNT>  (1) 
0

>  <PUBCHEM_ATOM_UDEF_STEREO_COUNT>  (1) 
0

>  <PUBCHEM_BOND_DEF_STEREO_COUNT>  (1) 
0

>  <PUBCHEM_BOND_UDEF_STEREO_COUNT>  (1) 
0

>  <PUBCHEM_ISOTOPIC_ATOM_COUNT>  (1) 
0

>  <PUBCHEM_COMPONENT_COUNT>  (1) 
1

>  <PUBCHEM_CACTVS_TAUTO_COUNT>  (1) 
5

>  <PUBCHEM_CONFORMER_ID>  (1) 
0000C06600000001

>  <PUBCHEM_MMFF94_ENERGY>  (1) 
39.4043

>  <PUBCHEM_FEATURE_SELFOVERLAP>  (1) 
50.8

>  <PUBCHEM_SHAPE_FINGERPRINT>  (1) 
10014705 185 18060138743349009472
10291535 26 17632300059834996632
10680689 15 18187642531585932118
11315181 36 18334852870679579572
12091667 2 16056882460113821198
12507557 5 17703508891590104848
12616971 3 17749112214652714860
12916754 54 18194959867051609782
13024252 1 15719385145011216599
13214271 11 17846781827640984316
17093844 174 18059851784258127298
17844677 252 18271247244184071824
18927931 339 16660645150843856438
20645477 56 18412825763580126652
220451 1 18259702290730605874
23081809 10 10807942587808555096
23198884 109 18131628967743460836
23402539 116 17168137958300326830
300161 21 17346876733454678730
5104073 3 18411690011899314746

>  <PUBCHEM_SHAPE_MULTIPOLES>  (1) 
346.71
12.76
1.99
1.38
34.16
0.98
0.09
-4
-1.88
-3.42
0.01
-1.44
-0.11
-0.15

>  <PUBCHEM_SHAPE_SELFOVERLAP>  (1) 
678.106

>  <PUBCHEM_SHAPE_VOLUME>  (1) 
210.2

>  <PUBCHEM_COORDINATE_TYPE>  (1) 
2
5
10

$$$$
