49260
     RDKit          3D

 23 24  0  0  0  0  0  0  0  0999 V2000
   -2.9977   -1.2625    2.0569 O   0  0  0  0  0  0  0  0  0  0  0  0
   -3.2330    1.5496   -1.6963 O   0  0  0  0  0  0  0  0  0  0  0  0
   -6.0277   -2.0674   -1.2938 O   0  0  0  0  0  0  0  0  0  0  0  0
   -4.5774   -1.6052    0.4291 N   0  0  0  0  0  0  0  0  0  0  0  0
   -4.6945   -0.2007   -1.4460 N   0  0  0  0  0  0  0  0  0  0  0  0
   -3.4171    0.5551    0.5076 C   0  0  0  0  0  0  0  0  0  0  0  0
   -1.9774    1.0220    0.7673 C   0  0  0  0  0  0  0  0  0  0  0  0
   -0.9587    0.0739    0.1354 C   0  0  0  0  0  0  0  0  0  0  0  0
   -4.3941    1.4769    1.2593 C   0  0  0  0  0  0  0  0  0  0  0  0
    0.4742    0.5239    0.4245 C   0  0  0  0  0  0  0  0  0  0  0  0
   -3.6066   -0.8501    1.0700 C   0  0  0  0  0  0  0  0  0  0  0  0
   -3.7348    0.6848   -0.9787 C   0  0  0  0  0  0  0  0  0  0  0  0
    1.4934   -0.4064   -0.2368 C   0  0  0  0  0  0  0  0  0  0  0  0
    2.9271    0.0649    0.0259 C   0  0  0  0  0  0  0  0  0  0  0  0
   -4.3030    2.8960    0.7453 C   0  0  0  0  0  0  0  0  0  0  0  0
    3.9821   -0.8220   -0.6449 C   0  0  0  0  0  0  0  0  0  0  0  0
   -5.1723   -1.3328   -0.7970 C   0  0  0  0  0  0  0  0  0  0  0  0
    5.4023   -0.4192   -0.3368 C   0  0  0  0  0  0  0  0  0  0  0  0
    6.0452    0.4929   -1.1601 C   0  0  0  0  0  0  0  0  0  0  0  0
    6.0420   -0.9673    0.7648 C   0  0  0  0  0  0  0  0  0  0  0  0
    7.3587    0.8658   -0.8752 C   0  0  0  0  0  0  0  0  0  0  0  0
    7.3556   -0.5943    1.0496 C   0  0  0  0  0  0  0  0  0  0  0  0
    8.0139    0.3222    0.2296 C   0  0  0  0  0  0  0  0  0  0  0  0
  1 11  2  0
  2 12  2  0
  3 17  2  0
  4 11  1  0
  4 17  1  0
  5 12  1  0
  5 17  1  0
  6  7  1  0
  6  9  1  0
  6 11  1  0
  6 12  1  0
  7  8  1  0
  8 10  1  0
  9 15  1  0
 10 13  1  0
 13 14  1  0
 14 16  1  0
 16 18  1  0
 18 19  2  0
 18 20  1  0
 19 21  1  0
 20 22  2  0
 21 23  2  0
 22 23  1  0
M  END
>  <PUBCHEM_COMPOUND_CID>  (1) 
49260

>  <PUBCHEM_CONFORMER_RMSD>  (1) 
0.8

>  <PUBCHEM_CONFORMER_DIVERSEORDER>  (1) 
1
61
32
136
158
112
60
105
166
11
155
108
149
172
165
17
121
59
40
143
94
6
169
193
175
91
81
113
114
107
183
7
133
4
90
138
35
9
44
176
3
117
20
98
170
10
132
189
73
178
38
77
181
25
99
144
102
126
88
142
12
87
153
137
190
78
2
110
21
141
148
163
43
86
45
157
179
151
64
147
156
122
93
83
19
168
106
95
31
125
18
131
182
191
101
146
8
76
69
54
152
67
161
173
24
103
160
134
71
128
140
82
177
30
118
192
80
145
188
115
127
14
97
37
62
85
26
5
92
120
75
57
116
130
184
180
167
124
159
15
22
187
154
74
123
52
47
51
139
104
16
174
111
129
119
171
34
36
164
46
42
135
70
162
29
58
63
48
150
55
13
50
109
28
53
23
49
79
89
27
96
65
100
33
84
68
185
39
41
72
186
56
66

>  <PUBCHEM_MMFF94_PARTIAL_CHARGES>  (1) 
23
1 -0.57
11 0.57
12 0.57
16 0.14
17 0.69
18 -0.14
19 -0.15
2 -0.57
20 -0.15
21 -0.15
22 -0.15
23 -0.15
3 -0.57
39 0.37
4 -0.49
40 0.37
43 0.15
44 0.15
45 0.15
46 0.15
47 0.15
5 -0.49
6 0.12

>  <PUBCHEM_EFFECTIVE_ROTOR_COUNT>  (1) 
8.6

>  <PUBCHEM_PHARMACOPHORE_FEATURES>  (1) 
10
1 1 acceptor
1 15 hydrophobe
1 2 acceptor
1 3 acceptor
1 4 donor
1 5 donor
3 13 14 16 hydrophobe
3 7 8 10 hydrophobe
6 18 19 20 21 22 23 rings
6 4 5 6 11 12 17 rings

>  <PUBCHEM_HEAVY_ATOM_COUNT>  (1) 
23

>  <PUBCHEM_ATOM_DEF_STEREO_COUNT>  (1) 
0

>  <PUBCHEM_ATOM_UDEF_STEREO_COUNT>  (1) 
0

>  <PUBCHEM_BOND_DEF_STEREO_COUNT>  (1) 
0

>  <PUBCHEM_BOND_UDEF_STEREO_COUNT>  (1) 
0

>  <PUBCHEM_ISOTOPIC_ATOM_COUNT>  (1) 
0

>  <PUBCHEM_COMPONENT_COUNT>  (1) 
1

>  <PUBCHEM_CACTVS_TAUTO_COUNT>  (1) 
5

>  <PUBCHEM_CONFORMER_ID>  (1) 
0000C06C00000001

>  <PUBCHEM_MMFF94_ENERGY>  (1) 
53.4908

>  <PUBCHEM_FEATURE_SELFOVERLAP>  (1) 
50.787

>  <PUBCHEM_SHAPE_FINGERPRINT>  (1) 
10076449 9 17275100623173683561
10816530 145 18041010500869936089
11101153 10 18340488979494150300
11315181 36 18409166623485291053
11724838 91 18411135866908190636
12091667 2 18060139825680781024
12166972 35 18271806869437674144
12516196 113 17346882252260970056
12616971 3 16733284381868678300
12730499 353 15769781243823106910
13631057 29 18335982073163786459
14849402 71 14548159035439861722
14933364 13 13039189217292208426
15183329 4 17530683200171147082
15716309 27 16200434671765072574
1577012 14 18408610232506158376
17093844 174 17846495907151842713
17844677 252 18131353029143476184
18927931 339 17775003501124897325
19489759 90 17168144537646963692
21150785 3 18336262427148095398
220451 1 10519989253678925292
2303208 19 16558758893013250900
23081809 10 18408324363629951104
23198884 109 17022896852784591183
23559900 14 17604430833137405157
328310 630 17749686150710811156
4938544 92 16845305899656549769
59755656 520 12895069630579089428

>  <PUBCHEM_SHAPE_MULTIPOLES>  (1) 
445.76
22.79
1.82
1.44
38.14
0.56
0
-1.83
-1.55
-4.17
0.07
-1.05
-0.1
-1.27

>  <PUBCHEM_SHAPE_SELFOVERLAP>  (1) 
922.708

>  <PUBCHEM_SHAPE_VOLUME>  (1) 
251.6

>  <PUBCHEM_COORDINATE_TYPE>  (1) 
2
5
10

$$$$
