49262
     RDKit          3D

 17 17  0  0  0  0  0  0  0  0999 V2000
   -0.0910   -0.0636    2.3195 O   0  0  0  0  0  0  0  0  0  0  0  0
    0.1711    0.5625   -2.4375 O   0  0  0  0  0  0  0  0  0  0  0  0
    3.3019   -1.8892   -0.1608 O   0  0  0  0  0  0  0  0  0  0  0  0
    1.5859   -0.9633    1.0503 N   0  0  0  0  0  0  0  0  0  0  0  0
    1.7154   -0.6558   -1.2698 N   0  0  0  0  0  0  0  0  0  0  0  0
   -0.1786    0.3482   -0.0577 C   0  0  0  0  0  0  0  0  0  0  0  0
   -0.3575    1.8611    0.1275 C   0  0  0  0  0  0  0  0  0  0  0  0
   -1.5089   -0.3333   -0.2156 C   0  0  0  0  0  0  0  0  0  0  0  0
    0.4254   -0.2271    1.2120 C   0  0  0  0  0  0  0  0  0  0  0  0
    0.5680    0.1124   -1.3606 C   0  0  0  0  0  0  0  0  0  0  0  0
    0.9829    2.5448    0.3590 C   0  0  0  0  0  0  0  0  0  0  0  0
   -1.4495   -1.8348   -0.3728 C   0  0  0  0  0  0  0  0  0  0  0  0
   -2.6450    0.3900   -0.2356 C   0  0  0  0  0  0  0  0  0  0  0  0
    0.8030    4.0399    0.5670 C   0  0  0  0  0  0  0  0  0  0  0  0
    2.2701   -1.2162   -0.1290 C   0  0  0  0  0  0  0  0  0  0  0  0
   -1.5474   -2.5579    0.9625 C   0  0  0  0  0  0  0  0  0  0  0  0
   -4.0456   -0.1175   -0.3583 C   0  0  0  0  0  0  0  0  0  0  0  0
  1  9  2  0
  2 10  2  0
  3 15  2  0
  4  9  1  0
  4 15  1  0
  5 10  1  0
  5 15  1  0
  6  7  1  0
  6  8  1  0
  6  9  1  0
  6 10  1  0
  7 11  1  0
  8 12  1  0
  8 13  2  0
 11 14  1  0
 12 16  1  0
 13 17  1  0
M  END
>  <PUBCHEM_COMPOUND_CID>  (1) 
49262

>  <PUBCHEM_CONFORMER_RMSD>  (1) 
0.6

>  <PUBCHEM_CONFORMER_DIVERSEORDER>  (1) 
1
6
10
9
4
8
5
2
3
7

>  <PUBCHEM_MMFF94_PARTIAL_CHARGES>  (1) 
16
1 -0.57
10 0.57
12 0.14
13 -0.29
15 0.69
17 0.14
2 -0.57
24 0.15
25 0.37
26 0.37
3 -0.57
4 -0.49
5 -0.49
6 0.26
8 -0.28
9 0.57

>  <PUBCHEM_EFFECTIVE_ROTOR_COUNT>  (1) 
4.6

>  <PUBCHEM_PHARMACOPHORE_FEATURES>  (1) 
9
1 1 acceptor
1 14 hydrophobe
1 16 hydrophobe
1 17 hydrophobe
1 2 acceptor
1 3 acceptor
1 4 donor
1 5 donor
6 4 5 6 9 10 15 rings

>  <PUBCHEM_HEAVY_ATOM_COUNT>  (1) 
17

>  <PUBCHEM_ATOM_DEF_STEREO_COUNT>  (1) 
0

>  <PUBCHEM_ATOM_UDEF_STEREO_COUNT>  (1) 
0

>  <PUBCHEM_BOND_DEF_STEREO_COUNT>  (1) 
0

>  <PUBCHEM_BOND_UDEF_STEREO_COUNT>  (1) 
1

>  <PUBCHEM_ISOTOPIC_ATOM_COUNT>  (1) 
0

>  <PUBCHEM_COMPONENT_COUNT>  (1) 
1

>  <PUBCHEM_CACTVS_TAUTO_COUNT>  (1) 
5

>  <PUBCHEM_CONFORMER_ID>  (1) 
0000C06E00000001

>  <PUBCHEM_MMFF94_ENERGY>  (1) 
37.0044

>  <PUBCHEM_FEATURE_SELFOVERLAP>  (1) 
45.713

>  <PUBCHEM_SHAPE_FINGERPRINT>  (1) 
12423570 1 14325326429216810869
13024252 1 13769080138092408694
13464514 151 18339367495061263541
14648413 74 18267862963961482905
14993402 34 17822009757748173311
16945 1 18339639069879621201
20233049 118 18116707409907830245
20511035 2 17559378348573570847
20600515 1 17988652860612736295
21501502 16 17984978447957211031
22344851 12 13334744526426955125
22344851 341 17766298830444164641
23402539 116 18127401263703449862
23419403 2 17393565454080962822
23559900 14 18339355263516663586
2748010 2 17970625414546704723
3250762 1 18120938562326343683
54276843 12 17750809748161261043
7364860 26 18268425922409984101
81228 2 17985003495736878928

>  <PUBCHEM_SHAPE_MULTIPOLES>  (1) 
322.28
3.79
3.22
1.56
3.08
1.55
0.14
0.13
0.17
-2.65
-0.61
-0.26
-0.19
0.74

>  <PUBCHEM_SHAPE_SELFOVERLAP>  (1) 
659.636

>  <PUBCHEM_SHAPE_VOLUME>  (1) 
185.6

>  <PUBCHEM_COORDINATE_TYPE>  (1) 
2
5
10

$$$$
