49268
     RDKit          3D

 18 18  0  0  0  0  0  0  0  0999 V2000
   -0.0268   -2.0460   -1.5944 O   0  0  0  0  0  0  0  0  0  0  0  0
    0.2871    1.0659    1.9082 O   0  0  0  0  0  0  0  0  0  0  0  0
    4.0367   -0.3180   -0.3459 O   0  0  0  0  0  0  0  0  0  0  0  0
    1.9898   -1.1066   -1.0344 N   0  0  0  0  0  0  0  0  0  0  0  0
    2.1467    0.4473    0.7158 N   0  0  0  0  0  0  0  0  0  0  0  0
   -0.0682   -0.0530   -0.2136 C   0  0  0  0  0  0  0  0  0  0  0  0
   -1.4100   -0.5476    0.3460 C   0  0  0  0  0  0  0  0  0  0  0  0
   -0.3237    1.0931   -1.2087 C   0  0  0  0  0  0  0  0  0  0  0  0
   -1.2179   -1.7323    1.3162 C   0  0  0  0  0  0  0  0  0  0  0  0
   -2.3730   -0.9723   -0.7823 C   0  0  0  0  0  0  0  0  0  0  0  0
    0.6055   -1.1786   -0.9921 C   0  0  0  0  0  0  0  0  0  0  0  0
    0.7768    0.5197    0.9199 C   0  0  0  0  0  0  0  0  0  0  0  0
   -0.9333    2.2954   -0.5445 C   0  0  0  0  0  0  0  0  0  0  0  0
   -0.3446   -1.4070    2.5200 C   0  0  0  0  0  0  0  0  0  0  0  0
   -3.6957   -1.5374   -0.2832 C   0  0  0  0  0  0  0  0  0  0  0  0
    2.8091   -0.3129   -0.2406 C   0  0  0  0  0  0  0  0  0  0  0  0
    0.0061    3.3481   -0.0305 C   0  0  0  0  0  0  0  0  0  0  0  0
   -2.2644    2.4422   -0.4557 C   0  0  0  0  0  0  0  0  0  0  0  0
  1 11  2  0
  2 12  2  0
  3 16  2  0
  4 11  1  0
  4 16  1  0
  5 12  1  0
  5 16  1  0
  6  7  1  0
  6  8  1  0
  6 11  1  0
  6 12  1  0
  7  9  1  0
  7 10  1  0
  8 13  1  0
  9 14  1  0
 10 15  1  0
 13 17  1  0
 13 18  2  0
M  END
>  <PUBCHEM_COMPOUND_CID>  (1) 
49268

>  <PUBCHEM_CONFORMER_RMSD>  (1) 
0.8

>  <PUBCHEM_CONFORMER_DIVERSEORDER>  (1) 
1
2
3
4

>  <PUBCHEM_MMFF94_PARTIAL_CHARGES>  (1) 
17
1 -0.57
11 0.57
12 0.57
13 -0.28
16 0.69
17 0.14
18 -0.3
2 -0.57
3 -0.57
32 0.37
33 0.37
37 0.15
38 0.15
4 -0.49
5 -0.49
6 0.12
8 0.14

>  <PUBCHEM_EFFECTIVE_ROTOR_COUNT>  (1) 
5.6

>  <PUBCHEM_PHARMACOPHORE_FEATURES>  (1) 
8
1 1 acceptor
1 14 hydrophobe
1 15 hydrophobe
1 2 acceptor
1 3 acceptor
1 4 donor
1 5 donor
6 4 5 6 11 12 16 rings

>  <PUBCHEM_HEAVY_ATOM_COUNT>  (1) 
18

>  <PUBCHEM_ATOM_DEF_STEREO_COUNT>  (1) 
0

>  <PUBCHEM_ATOM_UDEF_STEREO_COUNT>  (1) 
0

>  <PUBCHEM_BOND_DEF_STEREO_COUNT>  (1) 
0

>  <PUBCHEM_BOND_UDEF_STEREO_COUNT>  (1) 
0

>  <PUBCHEM_ISOTOPIC_ATOM_COUNT>  (1) 
0

>  <PUBCHEM_COMPONENT_COUNT>  (1) 
1

>  <PUBCHEM_CACTVS_TAUTO_COUNT>  (1) 
5

>  <PUBCHEM_CONFORMER_ID>  (1) 
0000C07400000001

>  <PUBCHEM_MMFF94_ENERGY>  (1) 
70.1984

>  <PUBCHEM_FEATURE_SELFOVERLAP>  (1) 
40.636

>  <PUBCHEM_SHAPE_FINGERPRINT>  (1) 
10863032 1 18199745834655532070
10948715 1 17827925026983546404
11315181 36 17167871889919920230
12138202 97 18194118512643448949
12423570 1 14654019533287162013
12716301 132 18125974132139016683
13024252 1 17676212364004809522
141345 1 10976417596618717016
14251745 187 18270388404726379621
14817 1 7883608189209894944
15490181 7 17539412029051305421
15881359 60 17902553365153968577
16945 1 18408316709259933211
17357779 13 18271224098257102701
20511035 2 17340404130875449375
21501502 16 18194394494330698558
21524375 3 17467926172580766732
22344851 262 18129961034669314619
22344851 341 17903640683396016771
22802520 49 18200020742548275277
23402539 116 18260263040463318559
23419403 2 16915913267284090299
23559900 14 17604147147085545064
2748010 2 18127384882777706836
430814 3 17608083170288808936
68250623 7 18119237364145154682
68419 9 17607786323602670243
7364860 26 17761776569405478053
81228 2 18189352206993735948

>  <PUBCHEM_SHAPE_MULTIPOLES>  (1) 
342.86
3.94
2.94
1.69
1.16
2.71
0.78
-1.57
-1
-1.45
0.07
0.04
-0.88
0.43

>  <PUBCHEM_SHAPE_SELFOVERLAP>  (1) 
704.608

>  <PUBCHEM_SHAPE_VOLUME>  (1) 
193.8

>  <PUBCHEM_COORDINATE_TYPE>  (1) 
2
5
10

$$$$
