49284
     RDKit          3D

 17 17  0  0  0  0  0  0  0  0999 V2000
   -2.3347   -0.8480    0.3652 S   0  0  0  0  0  0  0  0  0  0  0  0
   -0.3714   -1.4957   -2.1417 O   0  0  0  0  0  0  0  0  0  0  0  0
    0.1543    0.7855    1.9289 O   0  0  0  0  0  0  0  0  0  0  0  0
    3.1466   -2.4482    0.6463 O   0  0  0  0  0  0  0  0  0  0  0  0
    1.4401   -1.9001   -0.7935 N   0  0  0  0  0  0  0  0  0  0  0  0
    1.7023   -0.7610    1.2402 N   0  0  0  0  0  0  0  0  0  0  0  0
    0.1113    0.1252   -0.4039 C   0  0  0  0  0  0  0  0  0  0  0  0
    0.8985    1.2332   -1.1263 C   0  0  0  0  0  0  0  0  0  0  0  0
   -1.3830    0.4787   -0.4090 C   0  0  0  0  0  0  0  0  0  0  0  0
    0.3330   -1.1641   -1.1884 C   0  0  0  0  0  0  0  0  0  0  0  0
    0.6197    0.0809    1.0336 C   0  0  0  0  0  0  0  0  0  0  0  0
    0.8096    2.5511   -0.4098 C   0  0  0  0  0  0  0  0  0  0  0  0
    2.1749   -1.7408    0.3752 C   0  0  0  0  0  0  0  0  0  0  0  0
    1.8786    2.8599    0.5987 C   0  0  0  0  0  0  0  0  0  0  0  0
   -3.9865   -0.1310    0.1960 C   0  0  0  0  0  0  0  0  0  0  0  0
   -0.1603    3.4343   -0.6934 C   0  0  0  0  0  0  0  0  0  0  0  0
   -5.0330   -1.0596    0.7818 C   0  0  0  0  0  0  0  0  0  0  0  0
  1  9  1  0
  1 15  1  0
  2 10  2  0
  3 11  2  0
  4 13  2  0
  5 10  1  0
  5 13  1  0
  6 11  1  0
  6 13  1  0
  7  8  1  0
  7  9  1  0
  7 10  1  0
  7 11  1  0
  8 12  1  0
 12 14  1  0
 12 16  2  0
 15 17  1  0
M  END
>  <PUBCHEM_COMPOUND_CID>  (1) 
49284

>  <PUBCHEM_CONFORMER_RMSD>  (1) 
0.8

>  <PUBCHEM_CONFORMER_DIVERSEORDER>  (1) 
1
9
6
7
12
11
13
8
4
10
5
3
2

>  <PUBCHEM_MMFF94_PARTIAL_CHARGES>  (1) 
20
1 -0.46
10 0.57
11 0.57
12 -0.28
13 0.69
14 0.14
15 0.23
16 -0.3
2 -0.57
22 0.37
23 0.37
29 0.15
3 -0.57
30 0.15
4 -0.57
5 -0.49
6 -0.49
7 0.12
8 0.14
9 0.23

>  <PUBCHEM_EFFECTIVE_ROTOR_COUNT>  (1) 
5.6

>  <PUBCHEM_PHARMACOPHORE_FEATURES>  (1) 
7
1 17 hydrophobe
1 2 acceptor
1 3 acceptor
1 4 acceptor
1 5 donor
1 6 donor
6 5 6 7 10 11 13 rings

>  <PUBCHEM_HEAVY_ATOM_COUNT>  (1) 
17

>  <PUBCHEM_ATOM_DEF_STEREO_COUNT>  (1) 
0

>  <PUBCHEM_ATOM_UDEF_STEREO_COUNT>  (1) 
0

>  <PUBCHEM_BOND_DEF_STEREO_COUNT>  (1) 
0

>  <PUBCHEM_BOND_UDEF_STEREO_COUNT>  (1) 
0

>  <PUBCHEM_ISOTOPIC_ATOM_COUNT>  (1) 
0

>  <PUBCHEM_COMPONENT_COUNT>  (1) 
1

>  <PUBCHEM_CACTVS_TAUTO_COUNT>  (1) 
5

>  <PUBCHEM_CONFORMER_ID>  (1) 
0000C08400000001

>  <PUBCHEM_MMFF94_ENERGY>  (1) 
48.2882

>  <PUBCHEM_FEATURE_SELFOVERLAP>  (1) 
35.563

>  <PUBCHEM_SHAPE_FINGERPRINT>  (1) 
10610426 29 17241323564641545759
10702982 57 17618500325649551148
11578080 2 16516783902113440836
12423570 1 14612711242003096605
12532896 13 17547579630824469397
12592029 89 18265340684176854944
13134695 92 18409157801706861549
14787075 74 17967537874195059698
14817 1 14437938268151774888
16945 1 18337381751080141068
18534176 82 17547559388975438476
20511035 2 18058442274127520311
20600515 1 17974854960457838509
21524375 3 17766570423012662421
22344851 341 17981895447058852526
23419403 2 17969480685107403340
23557571 272 17836643029232060622
2748010 2 17697851719402099256
305870 269 18122343750850075053
3060560 45 18199483232076525741
394222 165 18056212490226062905
430814 3 17980478193718921829
5845 1 9430589752037718984
68419 9 17553744549587197143
7364860 26 18336832004051431473
81228 2 17620492215696608589
81539 233 18044942513374435925
9999458 23 18119541082910349261

>  <PUBCHEM_SHAPE_MULTIPOLES>  (1) 
326.13
5.08
3.35
1.47
9.79
1.67
0.14
-1.55
-1.81
-3.58
0.33
-0.27
-0.3
-0.14

>  <PUBCHEM_SHAPE_SELFOVERLAP>  (1) 
650.65

>  <PUBCHEM_SHAPE_VOLUME>  (1) 
194.6

>  <PUBCHEM_COORDINATE_TYPE>  (1) 
2
5
10

$$$$
