4928
     RDKit          3D

 16 16  0  0  0  0  0  0  0  0999 V2000
   -2.8504    2.2637   -0.0117 O   0  0  0  0  0  0  0  0  0  0  0  0
    1.7717    1.6919   -0.0817 N   0  0  0  0  0  0  0  0  0  0  0  0
   -1.0664   -2.0381    0.0783 N   0  0  0  0  0  0  0  0  0  0  0  0
    0.3778   -0.1923   -0.0013 N   0  0  0  0  0  0  0  0  0  0  0  0
   -2.0021    0.1117    0.0344 N   0  0  0  0  0  0  0  0  0  0  0  0
   -0.5501    2.0202   -0.0472 N   0  0  0  0  0  0  0  0  0  0  0  0
    2.9812    0.8704   -0.0793 C   0  0  0  0  0  0  0  0  0  0  0  0
    0.0267   -2.9589    0.0828 C   0  0  0  0  0  0  0  0  0  0  0  0
    3.2932    0.3920    1.3359 C   0  0  0  0  0  0  0  0  0  0  0  0
    4.1427    1.6748   -0.6543 C   0  0  0  0  0  0  0  0  0  0  0  0
    0.5771   -3.1336   -1.3299 C   0  0  0  0  0  0  0  0  0  0  0  0
   -0.4356   -4.2933    0.6595 C   0  0  0  0  0  0  0  0  0  0  0  0
    0.5034    1.1608   -0.0424 C   0  0  0  0  0  0  0  0  0  0  0  0
   -0.8882   -0.6382    0.0349 C   0  0  0  0  0  0  0  0  0  0  0  0
   -1.7560    1.4310   -0.0080 C   0  0  0  0  0  0  0  0  0  0  0  0
   -4.1249    1.6379    0.0299 C   0  0  0  0  0  0  0  0  0  0  0  0
  1 15  1  0
  1 16  1  0
  2  7  1  0
  2 13  1  0
  3  8  1  0
  3 14  1  0
  4 13  2  0
  4 14  1  0
  5 14  2  0
  5 15  1  0
  6 13  1  0
  6 15  2  0
  7  9  1  0
  7 10  1  0
  8 11  1  0
  8 12  1  0
M  END
>  <PUBCHEM_COMPOUND_CID>  (1) 
4928

>  <PUBCHEM_CONFORMER_RMSD>  (1) 
0.6

>  <PUBCHEM_CONFORMER_DIVERSEORDER>  (1) 
1
68
27
69
43
67
74
47
3
51
40
64
56
31
49
44
10
54
33
62
65
55
52
15
42
70
28
53
24
60
23
59
71
72
50
11
8
57
73
26
61
13
20
6
66
46
18
5
21
35
34
45
63
38
7
19
41
29
48
30
37
32
14
58
16
9
17
22
36
2
25
39
12
4

>  <PUBCHEM_MMFF94_PARTIAL_CHARGES>  (1) 
14
1 -0.36
13 0.72
14 0.72
15 0.7
16 0.28
19 0.4
2 -0.87
20 0.4
3 -0.87
4 -0.62
5 -0.62
6 -0.62
7 0.37
8 0.37

>  <PUBCHEM_EFFECTIVE_ROTOR_COUNT>  (1) 
5

>  <PUBCHEM_PHARMACOPHORE_FEATURES>  (1) 
7
1 2 donor
1 3 donor
3 7 9 10 hydrophobe
3 8 11 12 hydrophobe
4 2 4 6 13 cation
4 3 4 5 14 cation
6 4 5 6 13 14 15 rings

>  <PUBCHEM_HEAVY_ATOM_COUNT>  (1) 
16

>  <PUBCHEM_ATOM_DEF_STEREO_COUNT>  (1) 
0

>  <PUBCHEM_ATOM_UDEF_STEREO_COUNT>  (1) 
0

>  <PUBCHEM_BOND_DEF_STEREO_COUNT>  (1) 
0

>  <PUBCHEM_BOND_UDEF_STEREO_COUNT>  (1) 
0

>  <PUBCHEM_ISOTOPIC_ATOM_COUNT>  (1) 
0

>  <PUBCHEM_COMPONENT_COUNT>  (1) 
1

>  <PUBCHEM_CACTVS_TAUTO_COUNT>  (1) 
5

>  <PUBCHEM_CONFORMER_ID>  (1) 
0000134000000001

>  <PUBCHEM_MMFF94_ENERGY>  (1) 
43.5037

>  <PUBCHEM_FEATURE_SELFOVERLAP>  (1) 
35.563

>  <PUBCHEM_SHAPE_FINGERPRINT>  (1) 
12500047 106 18341327890223850712
12553582 1 17258779751116142342
12592029 89 18338238137663140801
12788726 201 18046904063519560330
12839892 36 18337093593514223915
13140716 1 18339356353620244234
13380535 76 18409164377259619297
15042514 8 18120661489353689731
15279307 12 18187361060767149376
15669948 3 18264485268752446912
15906896 17 18269829989968467654
16752209 62 18267575982541410006
16945 1 18194398016293480472
20510252 161 18272375320785057881
20524608 308 18268432506652838676
20645476 183 18187937217455037476
20645477 70 18051967031746441237
20871998 184 18267031737133503096
20871998 22 17186445084131375410
21524375 3 18271518711085129493
21665056 4 18409164437278294262
23366157 5 17828774932365788025
23419403 2 17397599304181011587
23557571 272 18056209205077903556
23598294 1 18263922301265683528
23728640 28 18338220670189611498
257057 1 17404012020976730286
2748010 2 18338251383231543951
3071541 12 17907303147996239781
3071541 250 17548989857755717637
3071541 37 18265336097326011965
3091708 16 9194095882124258499
34934 24 17331113309149286566
352729 6 18410017671307994297
43471831 8 18338513024154750785
458136 41 18267600004520655417
474229 33 18336830883439546105
54173680 148 17977104883328187983
58807428 26 18339633443398318632
6338986 31 17333350798480458526
7364860 26 17982447096895191741
81228 2 17979618358382717993
81539 233 18263640671817881981

>  <PUBCHEM_SHAPE_MULTIPOLES>  (1) 
298.5
5.48
4.66
0.89
3.08
6.25
0
-5.77
-0.17
-2.85
0.13
0.55
0.47
0

>  <PUBCHEM_SHAPE_SELFOVERLAP>  (1) 
590.061

>  <PUBCHEM_SHAPE_VOLUME>  (1) 
175.4

>  <PUBCHEM_COORDINATE_TYPE>  (1) 
2
5
10

$$$$
