49286
     RDKit          3D

 18 18  0  0  1  0  0  0  0  0999 V2000
   -2.6488    0.5183   -0.2772 S   0  0  0  0  0  0  0  0  0  0  0  0
   -1.1077   -0.9021    2.1836 O   0  0  0  0  0  0  0  0  0  0  0  0
    0.0975    0.2128   -2.2158 O   0  0  0  0  0  0  0  0  0  0  0  0
    0.8147   -4.0160   -0.5847 O   0  0  0  0  0  0  0  0  0  0  0  0
   -0.0573   -2.4279    0.8305 N   0  0  0  0  0  0  0  0  0  0  0  0
    0.5454   -1.8709   -1.3669 N   0  0  0  0  0  0  0  0  0  0  0  0
   -0.0118   -0.0596    0.1913 C   0  0  0  0  0  0  0  0  0  0  0  0
    1.3564    0.4366    0.6921 C   0  0  0  0  0  0  0  0  0  0  0  0
    1.9417    1.5495   -0.1969 C   0  0  0  0  0  0  0  0  0  0  0  0
   -1.0126    1.1050    0.2122 C   0  0  0  0  0  0  0  0  0  0  0  0
    1.2273    0.9413    2.1314 C   0  0  0  0  0  0  0  0  0  0  0  0
   -0.4738   -1.1460    1.1573 C   0  0  0  0  0  0  0  0  0  0  0  0
    0.1843   -0.5375   -1.2440 C   0  0  0  0  0  0  0  0  0  0  0  0
    3.3322    2.0137    0.2433 C   0  0  0  0  0  0  0  0  0  0  0  0
    0.4744   -2.8491   -0.3824 C   0  0  0  0  0  0  0  0  0  0  0  0
    3.8938    3.0602   -0.7074 C   0  0  0  0  0  0  0  0  0  0  0  0
   -3.5482    2.0824   -0.1497 C   0  0  0  0  0  0  0  0  0  0  0  0
   -5.0073    1.8895   -0.5166 C   0  0  0  0  0  0  0  0  0  0  0  0
  1 10  1  0
  1 17  1  0
  2 12  2  0
  3 13  2  0
  4 15  2  0
  5 12  1  0
  5 15  1  0
  6 13  1  0
  6 15  1  0
  7  8  1  0
  7 10  1  0
  7 12  1  0
  7 13  1  0
  8  9  1  0
  8 11  1  0
  9 14  1  0
 14 16  1  0
 17 18  1  0
M  END
>  <PUBCHEM_COMPOUND_CID>  (1) 
49286

>  <PUBCHEM_CONFORMER_RMSD>  (1) 
0.8

>  <PUBCHEM_CONFORMER_DIVERSEORDER>  (1) 
1
16
10
13
6
15
5
14
9
17
4
7
11
2
12
8
3

>  <PUBCHEM_MMFF94_PARTIAL_CHARGES>  (1) 
14
1 -0.46
10 0.23
12 0.57
13 0.57
15 0.69
17 0.23
2 -0.57
29 0.37
3 -0.57
30 0.37
4 -0.57
5 -0.49
6 -0.49
7 0.12

>  <PUBCHEM_EFFECTIVE_ROTOR_COUNT>  (1) 
6.6

>  <PUBCHEM_PHARMACOPHORE_FEATURES>  (1) 
9
1 11 hydrophobe
1 16 hydrophobe
1 18 hydrophobe
1 2 acceptor
1 3 acceptor
1 4 acceptor
1 5 donor
1 6 donor
6 5 6 7 12 13 15 rings

>  <PUBCHEM_HEAVY_ATOM_COUNT>  (1) 
18

>  <PUBCHEM_ATOM_DEF_STEREO_COUNT>  (1) 
0

>  <PUBCHEM_ATOM_UDEF_STEREO_COUNT>  (1) 
1

>  <PUBCHEM_BOND_DEF_STEREO_COUNT>  (1) 
0

>  <PUBCHEM_BOND_UDEF_STEREO_COUNT>  (1) 
0

>  <PUBCHEM_ISOTOPIC_ATOM_COUNT>  (1) 
0

>  <PUBCHEM_COMPONENT_COUNT>  (1) 
1

>  <PUBCHEM_CACTVS_TAUTO_COUNT>  (1) 
5

>  <PUBCHEM_CONFORMER_ID>  (1) 
0000C08600000001

>  <PUBCHEM_MMFF94_ENERGY>  (1) 
49.9124

>  <PUBCHEM_FEATURE_SELFOVERLAP>  (1) 
45.712

>  <PUBCHEM_SHAPE_FINGERPRINT>  (1) 
10922049 32 18410857689295628037
10948715 1 18336263526164026153
12173636 292 18122334946425646260
12423570 1 9494056286276068274
12788726 201 17759225685001450266
13024252 1 16882148549643375130
13134695 92 17832712266467234431
13464514 151 18194977239925673393
14142880 1 17461990274438317516
14251757 17 15840981312183923653
14817 1 10763800944273128331
15163728 17 18264793045650527421
15906896 17 18046338897135868498
16945 1 18196380212309148418
20473742 2 18265608784477602406
20645476 183 18339073921172158072
20671657 53 17622162365448600967
20711985 344 17692511721901135170
21524375 3 18262504983353868385
2255824 54 18125720089524535901
23419403 2 17975454305879638874
23598288 3 17972599063677797744
298252 57 18272079539193097720
4175511 376 18196663903547071183
5845 1 14274000174033403354
6786 2 18410018761886484542
7364860 26 18196085543572797069
81228 2 17336726277560177347
81539 233 18339071610479720549
9999458 23 18115020797176621700

>  <PUBCHEM_SHAPE_MULTIPOLES>  (1) 
346.71
5.49
3.86
1.68
4.11
3.12
0.37
-8.56
-1.08
-1.58
-0.93
-0.3
0.33
0.25

>  <PUBCHEM_SHAPE_SELFOVERLAP>  (1) 
684.243

>  <PUBCHEM_SHAPE_VOLUME>  (1) 
209.2

>  <PUBCHEM_COORDINATE_TYPE>  (1) 
2
5
10

$$$$
