49289
     RDKit          3D

 13 13  0  0  0  0  0  0  0  0999 V2000
   -0.6663    2.3839   -0.0173 O   0  0  0  0  0  0  0  0  0  0  0  0
   -0.6016   -2.4209   -0.0220 O   0  0  0  0  0  0  0  0  0  0  0  0
    3.2673    0.0341   -0.0626 O   0  0  0  0  0  0  0  0  0  0  0  0
    1.2782    1.1792   -0.0358 N   0  0  0  0  0  0  0  0  0  0  0  0
    1.3099   -1.1645   -0.0408 N   0  0  0  0  0  0  0  0  0  0  0  0
   -0.8704   -0.0214    0.0206 C   0  0  0  0  0  0  0  0  0  0  0  0
   -1.8668   -0.0377   -1.1465 C   0  0  0  0  0  0  0  0  0  0  0  0
   -0.1012    1.2882   -0.0176 C   0  0  0  0  0  0  0  0  0  0  0  0
   -0.0660   -1.3105   -0.0213 C   0  0  0  0  0  0  0  0  0  0  0  0
   -1.5904   -0.0273    1.3400 C   0  0  0  0  0  0  0  0  0  0  0  0
   -1.1501    0.0453   -2.4774 C   0  0  0  0  0  0  0  0  0  0  0  0
    2.0352    0.0175   -0.0461 C   0  0  0  0  0  0  0  0  0  0  0  0
   -0.9778    0.0342    2.5271 C   0  0  0  0  0  0  0  0  0  0  0  0
  1  8  2  0
  2  9  2  0
  3 12  2  0
  4  8  1  0
  4 12  1  0
  5  9  1  0
  5 12  1  0
  6  7  1  0
  6  8  1  0
  6  9  1  0
  6 10  1  0
  7 11  1  0
 10 13  2  0
M  END
>  <PUBCHEM_COMPOUND_CID>  (1) 
49289

>  <PUBCHEM_CONFORMER_RMSD>  (1) 
0.6

>  <PUBCHEM_CONFORMER_DIVERSEORDER>  (1) 
1
3
4
2

>  <PUBCHEM_MMFF94_PARTIAL_CHARGES>  (1) 
16
1 -0.57
10 -0.29
12 0.69
13 -0.3
16 0.15
2 -0.57
20 0.37
21 0.37
22 0.15
23 0.15
3 -0.57
4 -0.49
5 -0.49
6 0.26
8 0.57
9 0.57

>  <PUBCHEM_EFFECTIVE_ROTOR_COUNT>  (1) 
2.6

>  <PUBCHEM_PHARMACOPHORE_FEATURES>  (1) 
8
1 1 acceptor
1 11 hydrophobe
1 13 hydrophobe
1 2 acceptor
1 3 acceptor
1 4 donor
1 5 donor
6 4 5 6 8 9 12 rings

>  <PUBCHEM_HEAVY_ATOM_COUNT>  (1) 
13

>  <PUBCHEM_ATOM_DEF_STEREO_COUNT>  (1) 
0

>  <PUBCHEM_ATOM_UDEF_STEREO_COUNT>  (1) 
0

>  <PUBCHEM_BOND_DEF_STEREO_COUNT>  (1) 
0

>  <PUBCHEM_BOND_UDEF_STEREO_COUNT>  (1) 
0

>  <PUBCHEM_ISOTOPIC_ATOM_COUNT>  (1) 
0

>  <PUBCHEM_COMPONENT_COUNT>  (1) 
1

>  <PUBCHEM_CACTVS_TAUTO_COUNT>  (1) 
5

>  <PUBCHEM_CONFORMER_ID>  (1) 
0000C08900000001

>  <PUBCHEM_MMFF94_ENERGY>  (1) 
28.4772

>  <PUBCHEM_FEATURE_SELFOVERLAP>  (1) 
40.638

>  <PUBCHEM_SHAPE_FINGERPRINT>  (1) 
10702982 57 15408940076348007565
12423570 1 16314402659582308885
13024252 1 15936687137923971042
137420 1 14069763612814931457
15557651 10 15801320450437865191
16945 1 17773570815598103269
21922407 69 16342862212444893704
22344851 262 17043984128284569258
241688 4 18194683893759142000
2748010 2 18049453551948135174
430814 3 16484460373322479554
5084963 1 17916586419116316786
528886 8 18267563780839905141
68250623 7 17619348710856177573

>  <PUBCHEM_SHAPE_MULTIPOLES>  (1) 
239.96
2.62
1.92
1.76
2.46
0.19
0.04
-0.25
-0.02
-1.49
-0.04
-0.16
-0.03
0

>  <PUBCHEM_SHAPE_SELFOVERLAP>  (1) 
497.949

>  <PUBCHEM_SHAPE_VOLUME>  (1) 
136.1

>  <PUBCHEM_COORDINATE_TYPE>  (1) 
2
5
10

$$$$
