49299
     RDKit          3D

 17 17  0  0  0  0  0  0  0  0999 V2000
   -0.6460    0.2735    2.4316 O   0  0  0  0  0  0  0  0  0  0  0  0
   -0.3287    0.5406   -2.3557 O   0  0  0  0  0  0  0  0  0  0  0  0
   -2.4363   -2.9583   -0.2790 O   0  0  0  0  0  0  0  0  0  0  0  0
   -1.5313   -1.3191    1.0487 N   0  0  0  0  0  0  0  0  0  0  0  0
   -1.3743   -1.1904   -1.2864 N   0  0  0  0  0  0  0  0  0  0  0  0
   -0.4016    0.6303    0.0564 C   0  0  0  0  0  0  0  0  0  0  0  0
    1.1075    0.8864    0.1666 C   0  0  0  0  0  0  0  0  0  0  0  0
    1.8880   -0.4246    0.2890 C   0  0  0  0  0  0  0  0  0  0  0  0
    3.4148   -0.2280    0.3309 C   0  0  0  0  0  0  0  0  0  0  0  0
   -1.1678    1.9231    0.0828 C   0  0  0  0  0  0  0  0  0  0  0  0
   -0.8540   -0.1363    1.2876 C   0  0  0  0  0  0  0  0  0  0  0  0
   -0.6815    0.0074   -1.3016 C   0  0  0  0  0  0  0  0  0  0  0  0
    3.8760    0.5217   -0.9215 C   0  0  0  0  0  0  0  0  0  0  0  0
    4.1715   -1.5519    0.4469 C   0  0  0  0  0  0  0  0  0  0  0  0
   -2.6628    1.8070    0.0435 C   0  0  0  0  0  0  0  0  0  0  0  0
   -1.8233   -1.8939   -0.1789 C   0  0  0  0  0  0  0  0  0  0  0  0
   -0.5502    3.1124    0.1390 C   0  0  0  0  0  0  0  0  0  0  0  0
  1 11  2  0
  2 12  2  0
  3 16  2  0
  4 11  1  0
  4 16  1  0
  5 12  1  0
  5 16  1  0
  6  7  1  0
  6 10  1  0
  6 11  1  0
  6 12  1  0
  7  8  1  0
  8  9  1  0
  9 13  1  0
  9 14  1  0
 10 15  1  0
 10 17  2  0
M  END
>  <PUBCHEM_COMPOUND_CID>  (1) 
49299

>  <PUBCHEM_CONFORMER_RMSD>  (1) 
0.6

>  <PUBCHEM_CONFORMER_DIVERSEORDER>  (1) 
1
3
2

>  <PUBCHEM_MMFF94_PARTIAL_CHARGES>  (1) 
16
1 -0.57
10 -0.28
11 0.57
12 0.57
15 0.14
16 0.69
17 -0.3
2 -0.57
29 0.37
3 -0.57
30 0.37
34 0.15
35 0.15
4 -0.49
5 -0.49
6 0.26

>  <PUBCHEM_EFFECTIVE_ROTOR_COUNT>  (1) 
4.6

>  <PUBCHEM_PHARMACOPHORE_FEATURES>  (1) 
7
1 1 acceptor
1 2 acceptor
1 3 acceptor
1 4 donor
1 5 donor
3 9 13 14 hydrophobe
6 4 5 6 11 12 16 rings

>  <PUBCHEM_HEAVY_ATOM_COUNT>  (1) 
17

>  <PUBCHEM_ATOM_DEF_STEREO_COUNT>  (1) 
0

>  <PUBCHEM_ATOM_UDEF_STEREO_COUNT>  (1) 
0

>  <PUBCHEM_BOND_DEF_STEREO_COUNT>  (1) 
0

>  <PUBCHEM_BOND_UDEF_STEREO_COUNT>  (1) 
0

>  <PUBCHEM_ISOTOPIC_ATOM_COUNT>  (1) 
0

>  <PUBCHEM_COMPONENT_COUNT>  (1) 
1

>  <PUBCHEM_CACTVS_TAUTO_COUNT>  (1) 
5

>  <PUBCHEM_CONFORMER_ID>  (1) 
0000C09300000001

>  <PUBCHEM_MMFF94_ENERGY>  (1) 
38.8365

>  <PUBCHEM_FEATURE_SELFOVERLAP>  (1) 
35.562

>  <PUBCHEM_SHAPE_FINGERPRINT>  (1) 
10922049 32 18051696542536385705
11578080 2 17487606649139664753
12173636 292 18266452114465438852
12423570 1 15368319714824721341
12592029 89 17765435340091051867
13024252 1 17531252720659822137
14817 1 15969255660202221211
15906896 17 18261963933549030585
16945 1 18271797978522587457
19930381 70 17041760885745962338
21296965 67 18268145551118705127
21452121 71 17905621242913288822
21524375 3 17828203194877987992
23402539 116 18272362028457174045
23419403 2 17034670590624688500
23526113 38 17834635599908885143
23559900 14 18342447107504108632
23728640 28 18122335788313018058
430814 3 17756693144534527664
69090 78 18263642857671360080
81228 2 18269535239326979265
81539 233 17689151210677331437

>  <PUBCHEM_SHAPE_MULTIPOLES>  (1) 
322.28
5.07
2.69
1.55
7.74
0.19
0.05
1.13
0.05
-2.43
0.08
-0.4
0.05
-0.5

>  <PUBCHEM_SHAPE_SELFOVERLAP>  (1) 
659.078

>  <PUBCHEM_SHAPE_VOLUME>  (1) 
185.9

>  <PUBCHEM_COORDINATE_TYPE>  (1) 
2
5
10

$$$$
