49292
     RDKit          3D

 21 22  0  0  0  0  0  0  0  0999 V2000
    0.3859   -0.3359   -2.4162 O   0  0  0  0  0  0  0  0  0  0  0  0
    0.2588   -0.2403    2.3749 O   0  0  0  0  0  0  0  0  0  0  0  0
    0.8775   -4.1515    0.0712 O   0  0  0  0  0  0  0  0  0  0  0  0
    0.6649   -2.2172   -1.1451 N   0  0  0  0  0  0  0  0  0  0  0  0
    0.6056   -2.1701    1.1967 N   0  0  0  0  0  0  0  0  0  0  0  0
    0.5480   -0.0169   -0.0199 C   0  0  0  0  0  0  0  0  0  0  0  0
   -0.6343    0.9376   -0.0700 C   0  0  0  0  0  0  0  0  0  0  0  0
   -1.9638    0.1837   -0.0509 C   0  0  0  0  0  0  0  0  0  0  0  0
   -3.1514    1.1490   -0.0677 C   0  0  0  0  0  0  0  0  0  0  0  0
    1.8178    0.7870   -0.0029 C   0  0  0  0  0  0  0  0  0  0  0  0
    0.5114   -0.8515   -1.3033 C   0  0  0  0  0  0  0  0  0  0  0  0
    0.4434   -0.7997    1.2919 C   0  0  0  0  0  0  0  0  0  0  0  0
   -4.4806    0.3928   -0.0101 C   0  0  0  0  0  0  0  0  0  0  0  0
   -5.7024    1.3140   -0.0002 C   0  0  0  0  0  0  0  0  0  0  0  0
    3.0436    0.1339   -0.0327 C   0  0  0  0  0  0  0  0  0  0  0  0
    1.7513    2.1740    0.0420 C   0  0  0  0  0  0  0  0  0  0  0  0
    0.7334   -2.9279    0.0430 C   0  0  0  0  0  0  0  0  0  0  0  0
    4.2222    0.8798   -0.0171 C   0  0  0  0  0  0  0  0  0  0  0  0
    2.9300    2.9197    0.0574 C   0  0  0  0  0  0  0  0  0  0  0  0
   -7.0266    0.5668    0.0312 C   0  0  0  0  0  0  0  0  0  0  0  0
    4.1654    2.2726    0.0278 C   0  0  0  0  0  0  0  0  0  0  0  0
  1 11  2  0
  2 12  2  0
  3 17  2  0
  4 11  1  0
  4 17  1  0
  5 12  1  0
  5 17  1  0
  6  7  1  0
  6 10  1  0
  6 11  1  0
  6 12  1  0
  7  8  1  0
  8  9  1  0
  9 13  1  0
 10 15  2  0
 10 16  1  0
 13 14  1  0
 14 20  1  0
 15 18  1  0
 16 19  2  0
 18 21  2  0
 19 21  1  0
M  END
>  <PUBCHEM_COMPOUND_CID>  (1) 
49292

>  <PUBCHEM_CONFORMER_RMSD>  (1) 
0.8

>  <PUBCHEM_CONFORMER_DIVERSEORDER>  (1) 
1
9
13
17
12
7
15
16
10
5
14
3
6
11
8
4
2

>  <PUBCHEM_MMFF94_PARTIAL_CHARGES>  (1) 
22
1 -0.57
10 -0.14
11 0.57
12 0.57
15 -0.15
16 -0.15
17 0.69
18 -0.15
19 -0.15
2 -0.57
21 -0.15
3 -0.57
32 0.37
33 0.37
34 0.15
35 0.15
36 0.15
37 0.15
4 -0.49
41 0.15
5 -0.49
6 0.27

>  <PUBCHEM_EFFECTIVE_ROTOR_COUNT>  (1) 
6.6

>  <PUBCHEM_PHARMACOPHORE_FEATURES>  (1) 
9
1 1 acceptor
1 2 acceptor
1 20 hydrophobe
1 3 acceptor
1 4 donor
1 5 donor
5 7 8 9 13 14 hydrophobe
6 10 15 16 18 19 21 rings
6 4 5 6 11 12 17 rings

>  <PUBCHEM_HEAVY_ATOM_COUNT>  (1) 
21

>  <PUBCHEM_ATOM_DEF_STEREO_COUNT>  (1) 
0

>  <PUBCHEM_ATOM_UDEF_STEREO_COUNT>  (1) 
0

>  <PUBCHEM_BOND_DEF_STEREO_COUNT>  (1) 
0

>  <PUBCHEM_BOND_UDEF_STEREO_COUNT>  (1) 
0

>  <PUBCHEM_ISOTOPIC_ATOM_COUNT>  (1) 
0

>  <PUBCHEM_COMPONENT_COUNT>  (1) 
1

>  <PUBCHEM_CACTVS_TAUTO_COUNT>  (1) 
5

>  <PUBCHEM_CONFORMER_ID>  (1) 
0000C08C00000001

>  <PUBCHEM_MMFF94_ENERGY>  (1) 
53.5778

>  <PUBCHEM_FEATURE_SELFOVERLAP>  (1) 
45.712

>  <PUBCHEM_SHAPE_FINGERPRINT>  (1) 
10090160 65 18411695509040968573
10411042 1 17762336912008717899
10922049 32 18410014376856802336
10948715 1 18338797930694136854
11421498 54 17274553044306750505
12592029 89 18412825755058647106
12616999 72 16988563468668144373
12730499 353 18409176506553017161
12788726 201 17543621389238542306
13009979 54 17342941430297692795
13955234 65 18338518534888000723
15906896 17 17982728872725627710
16945 1 18338514128066691372
17980427 23 17024034950509019213
20567600 347 18259989266652957619
20600515 1 16977583508649346833
20645477 70 18270681953341462703
21054139 6 18199737198167422719
21524375 3 18272933851227596300
23419403 2 17553535492196956982
23558518 356 17468750144898143288
239999 70 18202009785401209575
298252 57 17560801077949383324
3060560 45 18411136926731391292
427121 178 17530685407225317721
4340502 62 18260835904071450115
474 4 18411423929415810601
59755656 215 18335144150544615101
6025842 7 18339357475292490959
6138700 20 18267872688374349542
621550 34 18261387824375321605
633830 44 18343016730882082061
7364860 26 18265332815764977043
77188 2 17761772866922616414
81228 2 17393873394471941624
81539 233 18409728447956840501
8272917 22 18411418367416850765
9999458 23 18410012126314967332

>  <PUBCHEM_SHAPE_MULTIPOLES>  (1) 
404.6
9.66
3.32
1.29
21.41
3.08
-0.02
-8.31
0.05
-3.04
0.09
-0.29
0.54
0.05

>  <PUBCHEM_SHAPE_SELFOVERLAP>  (1) 
848.949

>  <PUBCHEM_SHAPE_VOLUME>  (1) 
226.8

>  <PUBCHEM_COORDINATE_TYPE>  (1) 
2
5
10

$$$$
