49306
     RDKit          3D

 17 17  0  0  0  0  0  0  0  0999 V2000
   -0.6222    0.3873    2.3951 O   0  0  0  0  0  0  0  0  0  0  0  0
   -0.7035    0.4258   -2.4092 O   0  0  0  0  0  0  0  0  0  0  0  0
   -2.1079   -3.2178   -0.0116 O   0  0  0  0  0  0  0  0  0  0  0  0
   -1.3608   -1.3924    1.1624 N   0  0  0  0  0  0  0  0  0  0  0  0
   -1.3980   -1.3748   -1.1811 N   0  0  0  0  0  0  0  0  0  0  0  0
   -0.6101    0.6406   -0.0057 C   0  0  0  0  0  0  0  0  0  0  0  0
    0.8481    1.1181   -0.0306 C   0  0  0  0  0  0  0  0  0  0  0  0
    1.8235   -0.0580    0.0108 C   0  0  0  0  0  0  0  0  0  0  0  0
   -1.5560    1.8083    0.0247 C   0  0  0  0  0  0  0  0  0  0  0  0
    3.2750    0.4207   -0.0482 C   0  0  0  0  0  0  0  0  0  0  0  0
   -0.8511   -0.1125    1.2916 C   0  0  0  0  0  0  0  0  0  0  0  0
   -0.8941   -0.0922   -1.3069 C   0  0  0  0  0  0  0  0  0  0  0  0
    4.2512   -0.7530    0.0271 C   0  0  0  0  0  0  0  0  0  0  0  0
   -3.0158    1.4751    0.1127 C   0  0  0  0  0  0  0  0  0  0  0  0
   -1.6543   -2.0720   -0.0101 C   0  0  0  0  0  0  0  0  0  0  0  0
   -1.1196    3.0757   -0.0234 C   0  0  0  0  0  0  0  0  0  0  0  0
    5.6955   -0.2788    0.0024 C   0  0  0  0  0  0  0  0  0  0  0  0
  1 11  2  0
  2 12  2  0
  3 15  2  0
  4 11  1  0
  4 15  1  0
  5 12  1  0
  5 15  1  0
  6  7  1  0
  6  9  1  0
  6 11  1  0
  6 12  1  0
  7  8  1  0
  8 10  1  0
  9 14  1  0
  9 16  2  0
 10 13  1  0
 13 17  1  0
M  END
>  <PUBCHEM_COMPOUND_CID>  (1) 
49306

>  <PUBCHEM_CONFORMER_RMSD>  (1) 
0.8

>  <PUBCHEM_CONFORMER_DIVERSEORDER>  (1) 
1
9
10
7
4
6
5
11
8
2
3

>  <PUBCHEM_MMFF94_PARTIAL_CHARGES>  (1) 
16
1 -0.57
11 0.57
12 0.57
14 0.14
15 0.69
16 -0.3
2 -0.57
26 0.37
27 0.37
3 -0.57
31 0.15
32 0.15
4 -0.49
5 -0.49
6 0.26
9 -0.28

>  <PUBCHEM_EFFECTIVE_ROTOR_COUNT>  (1) 
5.6

>  <PUBCHEM_PHARMACOPHORE_FEATURES>  (1) 
8
1 1 acceptor
1 17 hydrophobe
1 2 acceptor
1 3 acceptor
1 4 donor
1 5 donor
4 7 8 10 13 hydrophobe
6 4 5 6 11 12 15 rings

>  <PUBCHEM_HEAVY_ATOM_COUNT>  (1) 
17

>  <PUBCHEM_ATOM_DEF_STEREO_COUNT>  (1) 
0

>  <PUBCHEM_ATOM_UDEF_STEREO_COUNT>  (1) 
0

>  <PUBCHEM_BOND_DEF_STEREO_COUNT>  (1) 
0

>  <PUBCHEM_BOND_UDEF_STEREO_COUNT>  (1) 
0

>  <PUBCHEM_ISOTOPIC_ATOM_COUNT>  (1) 
0

>  <PUBCHEM_COMPONENT_COUNT>  (1) 
1

>  <PUBCHEM_CACTVS_TAUTO_COUNT>  (1) 
5

>  <PUBCHEM_CONFORMER_ID>  (1) 
0000C09A00000001

>  <PUBCHEM_MMFF94_ENERGY>  (1) 
31.9711

>  <PUBCHEM_FEATURE_SELFOVERLAP>  (1) 
40.638

>  <PUBCHEM_SHAPE_FINGERPRINT>  (1) 
10680689 15 18410583868868166360
10922049 32 18195532489102927313
11315181 36 18186513320660146392
12173636 292 18265608789057373716
12423570 1 12764109059910751043
12592029 89 17908425749267628355
13024252 1 15791735187081675365
14817 1 14572607960008346039
16945 1 18410577266860140005
19930381 70 17256808893350373178
20524608 308 18337675217753313288
21296965 67 18122904493232452259
2306618 200 18060421300736619712
23402539 116 18343016675648958413
23419403 2 17344895524706378913
23559900 14 18341886390939176824
23728640 28 18337107852689575866
69090 78 18336546006221126008

>  <PUBCHEM_SHAPE_MULTIPOLES>  (1) 
322.28
6.29
2.63
1.47
14.64
0.72
0.02
0.38
-0.06
-3.08
0.01
-0.78
0.08
-0.04

>  <PUBCHEM_SHAPE_SELFOVERLAP>  (1) 
655.784

>  <PUBCHEM_SHAPE_VOLUME>  (1) 
186.3

>  <PUBCHEM_COORDINATE_TYPE>  (1) 
2
5
10

$$$$
