49301
     RDKit          3D

 18 18  0  0  0  0  0  0  0  0999 V2000
    0.0549   -1.5652   -2.1880 O   0  0  0  0  0  0  0  0  0  0  0  0
    0.1464    0.7957    1.8701 O   0  0  0  0  0  0  0  0  0  0  0  0
    3.4432   -2.2237    0.8357 O   0  0  0  0  0  0  0  0  0  0  0  0
    1.7992   -1.8195   -0.7197 N   0  0  0  0  0  0  0  0  0  0  0  0
    1.8444   -0.6406    1.3078 N   0  0  0  0  0  0  0  0  0  0  0  0
    0.3041    0.1070   -0.4496 C   0  0  0  0  0  0  0  0  0  0  0  0
   -1.2085    0.3494   -0.5565 C   0  0  0  0  0  0  0  0  0  0  0  0
   -2.0035   -0.8271    0.0149 C   0  0  0  0  0  0  0  0  0  0  0  0
    1.0541    1.2614   -1.1379 C   0  0  0  0  0  0  0  0  0  0  0  0
   -3.5271   -0.6041   -0.0026 C   0  0  0  0  0  0  0  0  0  0  0  0
    0.6696   -1.1716   -1.1969 C   0  0  0  0  0  0  0  0  0  0  0  0
    0.7193    0.1169    1.0182 C   0  0  0  0  0  0  0  0  0  0  0  0
    0.8231    2.5775   -0.4503 C   0  0  0  0  0  0  0  0  0  0  0  0
   -3.8743    0.6679    0.7751 C   0  0  0  0  0  0  0  0  0  0  0  0
   -4.2980   -1.7902    0.5788 C   0  0  0  0  0  0  0  0  0  0  0  0
    2.4424   -1.5929    0.4912 C   0  0  0  0  0  0  0  0  0  0  0  0
    1.7986    2.9757    0.6196 C   0  0  0  0  0  0  0  0  0  0  0  0
   -0.1879    3.3835   -0.8101 C   0  0  0  0  0  0  0  0  0  0  0  0
  1 11  2  0
  2 12  2  0
  3 16  2  0
  4 11  1  0
  4 16  1  0
  5 12  1  0
  5 16  1  0
  6  7  1  0
  6  9  1  0
  6 11  1  0
  6 12  1  0
  7  8  1  0
  8 10  1  0
  9 13  1  0
 10 14  1  0
 10 15  1  0
 13 17  1  0
 13 18  2  0
M  END
>  <PUBCHEM_COMPOUND_CID>  (1) 
49301

>  <PUBCHEM_CONFORMER_RMSD>  (1) 
0.8

>  <PUBCHEM_CONFORMER_DIVERSEORDER>  (1) 
1
6
12
11
8
9
7
2
5
10
4
3

>  <PUBCHEM_MMFF94_PARTIAL_CHARGES>  (1) 
17
1 -0.57
11 0.57
12 0.57
13 -0.28
16 0.69
17 0.14
18 -0.3
2 -0.57
3 -0.57
32 0.37
33 0.37
37 0.15
38 0.15
4 -0.49
5 -0.49
6 0.12
9 0.14

>  <PUBCHEM_EFFECTIVE_ROTOR_COUNT>  (1) 
5.6

>  <PUBCHEM_PHARMACOPHORE_FEATURES>  (1) 
7
1 1 acceptor
1 2 acceptor
1 3 acceptor
1 4 donor
1 5 donor
3 10 14 15 hydrophobe
6 4 5 6 11 12 16 rings

>  <PUBCHEM_HEAVY_ATOM_COUNT>  (1) 
18

>  <PUBCHEM_ATOM_DEF_STEREO_COUNT>  (1) 
0

>  <PUBCHEM_ATOM_UDEF_STEREO_COUNT>  (1) 
0

>  <PUBCHEM_BOND_DEF_STEREO_COUNT>  (1) 
0

>  <PUBCHEM_BOND_UDEF_STEREO_COUNT>  (1) 
0

>  <PUBCHEM_ISOTOPIC_ATOM_COUNT>  (1) 
0

>  <PUBCHEM_COMPONENT_COUNT>  (1) 
1

>  <PUBCHEM_CACTVS_TAUTO_COUNT>  (1) 
5

>  <PUBCHEM_CONFORMER_ID>  (1) 
0000C09500000001

>  <PUBCHEM_MMFF94_ENERGY>  (1) 
48.3109

>  <PUBCHEM_FEATURE_SELFOVERLAP>  (1) 
35.563

>  <PUBCHEM_SHAPE_FINGERPRINT>  (1) 
10382601 240 18267043793429132169
10610426 29 17241037704719503702
10922049 32 17832156291140073836
11578080 2 16661744623342297428
12423570 1 12237815290887762644
12532896 13 17402617844565003852
12592029 89 18193283120198384360
12716301 132 17616508693416654433
13134695 92 18336253596431727413
14787075 74 17894915148465760690
14817 1 12290896761407590612
16945 1 18264477550305663596
17041 49 18337119964692392833
20511035 2 18058160803292776639
20559304 39 18340773749121434689
20600515 1 18268436719910176669
21524375 3 17765727101773210893
22344851 341 17909272721297937478
23419403 2 18042380505147315676
23557571 272 18052537665069027934
2748010 2 17841120309368419336
298252 57 17623871405449320909
305870 269 18195245756954474965
394222 165 18055648453503503849
430814 3 17835233824328500717
5845 1 12565735708587327600
6786 2 16670830115619368669
68419 9 17481404389656101198
7364860 26 18337111297084515953
81228 2 17693396450825523741
81539 233 17972318692264939669

>  <PUBCHEM_SHAPE_MULTIPOLES>  (1) 
342.86
5.22
3.31
1.48
7.44
2.07
0.15
-2.42
-1.8
-2.83
0.28
-0.44
-0.27
-0.28

>  <PUBCHEM_SHAPE_SELFOVERLAP>  (1) 
696.413

>  <PUBCHEM_SHAPE_VOLUME>  (1) 
197.2

>  <PUBCHEM_COORDINATE_TYPE>  (1) 
2
5
10

$$$$
