4931
     RDKit          3D

 14 14  0  0  0  0  0  0  0  0999 V2000
   -2.9495   -2.7530   -0.0198 Cl  0  0  0  0  0  0  0  0  0  0  0  0
   -3.0128    0.0827   -0.0075 O   0  0  0  0  0  0  0  0  0  0  0  0
   -0.7046    0.5999   -0.0023 N   0  0  0  0  0  0  0  0  0  0  0  0
   -0.8265    2.0417    0.0020 C   0  0  0  0  0  0  0  0  0  0  0  0
    0.6328    0.0135   -0.0020 C   0  0  0  0  0  0  0  0  0  0  0  0
   -0.1741    2.6043   -1.2538 C   0  0  0  0  0  0  0  0  0  0  0  0
   -0.1804    2.6030    1.2621 C   0  0  0  0  0  0  0  0  0  0  0  0
   -1.8328   -0.2756   -0.0069 C   0  0  0  0  0  0  0  0  0  0  0  0
    1.2138   -0.2367   -1.2100 C   0  0  0  0  0  0  0  0  0  0  0  0
    1.2100   -0.2444    1.2060 C   0  0  0  0  0  0  0  0  0  0  0  0
   -1.4827   -1.7531    0.0373 C   0  0  0  0  0  0  0  0  0  0  0  0
    2.4913   -0.7969   -1.2097 C   0  0  0  0  0  0  0  0  0  0  0  0
    2.4874   -0.8046    1.2063 C   0  0  0  0  0  0  0  0  0  0  0  0
    3.1280   -1.0809   -0.0016 C   0  0  0  0  0  0  0  0  0  0  0  0
  1 11  1  0
  2  8  2  0
  3  4  1  0
  3  5  1  0
  3  8  1  0
  4  6  1  0
  4  7  1  0
  5  9  2  0
  5 10  1  0
  8 11  1  0
  9 12  1  0
 10 13  2  0
 12 14  2  0
 13 14  1  0
M  END
>  <PUBCHEM_COMPOUND_CID>  (1) 
4931

>  <PUBCHEM_CONFORMER_RMSD>  (1) 
0.6

>  <PUBCHEM_CONFORMER_DIVERSEORDER>  (1) 
1
7
9
12
15
8
19
13
2
20
17
14
11
4
10
18
3
16
5
6

>  <PUBCHEM_MMFF94_PARTIAL_CHARGES>  (1) 
17
1 -0.29
10 -0.15
11 0.35
12 -0.15
13 -0.15
14 -0.15
2 -0.57
22 0.15
23 0.15
26 0.15
27 0.15
28 0.15
3 -0.48
4 0.3
5 0.12
8 0.57
9 -0.15

>  <PUBCHEM_EFFECTIVE_ROTOR_COUNT>  (1) 
4

>  <PUBCHEM_PHARMACOPHORE_FEATURES>  (1) 
3
1 2 acceptor
3 4 6 7 hydrophobe
6 5 9 10 12 13 14 rings

>  <PUBCHEM_HEAVY_ATOM_COUNT>  (1) 
14

>  <PUBCHEM_ATOM_DEF_STEREO_COUNT>  (1) 
0

>  <PUBCHEM_ATOM_UDEF_STEREO_COUNT>  (1) 
0

>  <PUBCHEM_BOND_DEF_STEREO_COUNT>  (1) 
0

>  <PUBCHEM_BOND_UDEF_STEREO_COUNT>  (1) 
0

>  <PUBCHEM_ISOTOPIC_ATOM_COUNT>  (1) 
0

>  <PUBCHEM_COMPONENT_COUNT>  (1) 
1

>  <PUBCHEM_CACTVS_TAUTO_COUNT>  (1) 
1

>  <PUBCHEM_CONFORMER_ID>  (1) 
0000134300000001

>  <PUBCHEM_MMFF94_ENERGY>  (1) 
60.5117

>  <PUBCHEM_FEATURE_SELFOVERLAP>  (1) 
15.223

>  <PUBCHEM_SHAPE_FINGERPRINT>  (1) 
1 1 17403734944173352157
11578080 2 17316161918302123836
12423570 1 11229333325607266001
12716758 59 17910959037169733642
13083527 12 17478579748790788795
13380537 58 17977096860582642684
13898156 1 17823988835617259390
14817 1 12876947346722574350
15375462 175 18267594493871691187
15775835 57 17681565731639090100
15852999 172 17691384335898659302
16945 1 18338516322452140194
17990270 104 18125442157600769943
18186145 218 11963661175769106438
18534176 82 18057035809913761588
20600515 1 18411976936335143397
20645477 70 17761769972700708767
20711985 344 18269277867674844643
21930827 45 17841154342357002528
228727 97 17896623759180221372
23402539 116 18268978804933566847
23419403 2 17760604373687793748
23552423 10 17901953264023528559
23557571 272 18272933774503435548
23559900 14 18341325579779352274
23598294 1 18119536440034741320
25 1 11314848147400280894
2748010 2 18267854150556865511
5902787 121 18337104687056293355
7364860 26 17838901782349754675
77492 1 17604439470374217838
81228 2 18340772524733911073
81539 233 17398381417941812509

>  <PUBCHEM_SHAPE_MULTIPOLES>  (1) 
279.13
4.16
2.96
1.27
0.64
1.51
0
-3.79
0.02
1.69
0
-0.75
0.35
-0.01

>  <PUBCHEM_SHAPE_SELFOVERLAP>  (1) 
560.075

>  <PUBCHEM_SHAPE_VOLUME>  (1) 
165.6

>  <PUBCHEM_COORDINATE_TYPE>  (1) 
2
5
10

$$$$
