49313
     RDKit          3D

 18 18  0  0  1  0  0  0  0  0999 V2000
    0.1349   -0.5989    1.9671 O   0  0  0  0  0  0  0  0  0  0  0  0
   -0.0492    1.2240   -2.3565 O   0  0  0  0  0  0  0  0  0  0  0  0
    3.3955    2.2714    0.4882 O   0  0  0  0  0  0  0  0  0  0  0  0
    1.8146    0.7572    1.1911 N   0  0  0  0  0  0  0  0  0  0  0  0
    1.7222    1.6683   -0.9685 N   0  0  0  0  0  0  0  0  0  0  0  0
    0.2427   -0.2118   -0.4243 C   0  0  0  0  0  0  0  0  0  0  0  0
   -1.2705   -0.4695   -0.4685 C   0  0  0  0  0  0  0  0  0  0  0  0
   -2.1198    0.7077    0.0550 C   0  0  0  0  0  0  0  0  0  0  0  0
    0.9845   -1.4428   -0.9751 C   0  0  0  0  0  0  0  0  0  0  0  0
   -3.6147    0.3568   -0.0978 C   0  0  0  0  0  0  0  0  0  0  0  0
    0.6875   -0.0334    1.0239 C   0  0  0  0  0  0  0  0  0  0  0  0
    0.5868    0.9618   -1.3360 C   0  0  0  0  0  0  0  0  0  0  0  0
   -1.7681    1.0546    1.5049 C   0  0  0  0  0  0  0  0  0  0  0  0
    0.6210   -2.7008   -0.2378 C   0  0  0  0  0  0  0  0  0  0  0  0
   -4.5565    1.4731    0.3320 C   0  0  0  0  0  0  0  0  0  0  0  0
    2.3911    1.5993    0.2478 C   0  0  0  0  0  0  0  0  0  0  0  0
   -0.5185   -3.5132   -0.7825 C   0  0  0  0  0  0  0  0  0  0  0  0
    1.3163   -3.1039    0.8370 C   0  0  0  0  0  0  0  0  0  0  0  0
  1 11  2  0
  2 12  2  0
  3 16  2  0
  4 11  1  0
  4 16  1  0
  5 12  1  0
  5 16  1  0
  6  7  1  0
  6  9  1  0
  6 11  1  0
  6 12  1  0
  7  8  1  0
  8 10  1  0
  8 13  1  0
  9 14  1  0
 10 15  1  0
 14 17  1  0
 14 18  2  0
M  END
>  <PUBCHEM_COMPOUND_CID>  (1) 
49313

>  <PUBCHEM_CONFORMER_RMSD>  (1) 
0.8

>  <PUBCHEM_CONFORMER_DIVERSEORDER>  (1) 
2
6
8
7
3
4
9
1
5

>  <PUBCHEM_MMFF94_PARTIAL_CHARGES>  (1) 
17
1 -0.57
11 0.57
12 0.57
14 -0.28
16 0.69
17 0.14
18 -0.3
2 -0.57
29 0.37
3 -0.57
30 0.37
37 0.15
38 0.15
4 -0.49
5 -0.49
6 0.12
9 0.14

>  <PUBCHEM_EFFECTIVE_ROTOR_COUNT>  (1) 
5.6

>  <PUBCHEM_PHARMACOPHORE_FEATURES>  (1) 
8
1 1 acceptor
1 13 hydrophobe
1 15 hydrophobe
1 2 acceptor
1 3 acceptor
1 4 donor
1 5 donor
6 4 5 6 11 12 16 rings

>  <PUBCHEM_HEAVY_ATOM_COUNT>  (1) 
18

>  <PUBCHEM_ATOM_DEF_STEREO_COUNT>  (1) 
0

>  <PUBCHEM_ATOM_UDEF_STEREO_COUNT>  (1) 
1

>  <PUBCHEM_BOND_DEF_STEREO_COUNT>  (1) 
0

>  <PUBCHEM_BOND_UDEF_STEREO_COUNT>  (1) 
0

>  <PUBCHEM_ISOTOPIC_ATOM_COUNT>  (1) 
0

>  <PUBCHEM_COMPONENT_COUNT>  (1) 
1

>  <PUBCHEM_CACTVS_TAUTO_COUNT>  (1) 
5

>  <PUBCHEM_CONFORMER_ID>  (1) 
0000C0A100000002

>  <PUBCHEM_MMFF94_ENERGY>  (1) 
59.9633

>  <PUBCHEM_FEATURE_SELFOVERLAP>  (1) 
40.638

>  <PUBCHEM_SHAPE_FINGERPRINT>  (1) 
10948715 1 18341330101514641328
12326174 3 17968381143441080089
12423570 1 12348853243257422006
12725867 57 17532101483628041021
12788726 201 17543635687184585894
13132413 78 17481720658205204360
13681431 1 17832168042207402063
14004458 79 17476374162740507615
14617773 55 17249768119207063276
14817 1 17480835933533558930
15852999 172 18188503448789560953
15906896 17 17827648272070373330
16945 1 18194419795993393706
19765921 60 18060416945581882497
20473742 2 18338794503373661634
20645476 183 18128245882091973320
21524375 3 18202281445845119160
2255824 54 18198910210472215559
23419403 2 17607789622201032878
305870 269 18411420609189429581
427121 178 18129677412119324243
430814 3 18338501049675023376
576247 118 17617648861204828071
5845 1 8045013279268561843
7364860 26 18267869389221995153
81228 2 17476379651534690282
9999458 23 18341615888691232340

>  <PUBCHEM_SHAPE_MULTIPOLES>  (1) 
342.86
4.58
3.35
1.59
6.84
2.52
-0.14
-2.41
0.88
-3.26
-0.24
-0.23
-0.34
-0.2

>  <PUBCHEM_SHAPE_SELFOVERLAP>  (1) 
699.735

>  <PUBCHEM_SHAPE_VOLUME>  (1) 
196

>  <PUBCHEM_COORDINATE_TYPE>  (1) 
2
5
10

$$$$
