49336
     RDKit          3D

 21 22  0  0  0  0  0  0  0  0999 V2000
    0.4644    1.8753    0.3291 S   0  0  0  0  0  0  0  0  0  0  0  0
    0.6752    2.9054   -0.6778 O   0  0  0  0  0  0  0  0  0  0  0  0
    0.5449    2.2185    1.7422 O   0  0  0  0  0  0  0  0  0  0  0  0
   -5.4276   -1.5276    1.3664 O   0  0  0  0  0  0  0  0  0  0  0  0
   -4.7863   -0.6701   -0.7341 N   0  0  0  0  0  0  0  0  0  0  0  0
    5.9750   -2.0843   -0.2775 N   0  0  0  0  0  0  0  0  0  0  0  0
    1.6490    0.5799    0.0423 C   0  0  0  0  0  0  0  0  0  0  0  0
    3.0861    1.0354    0.2652 C   0  0  0  0  0  0  0  0  0  0  0  0
   -1.0815    1.1258    0.0162 C   0  0  0  0  0  0  0  0  0  0  0  0
    4.1027   -0.0629    0.0742 C   0  0  0  0  0  0  0  0  0  0  0  0
   -1.7755    0.4997    1.0515 C   0  0  0  0  0  0  0  0  0  0  0  0
   -1.6222    1.1534   -1.2692 C   0  0  0  0  0  0  0  0  0  0  0  0
   -3.5513   -0.0711   -0.4840 C   0  0  0  0  0  0  0  0  0  0  0  0
   -3.0104   -0.0988    0.8013 C   0  0  0  0  0  0  0  0  0  0  0  0
   -2.8571    0.5550   -1.5193 C   0  0  0  0  0  0  0  0  0  0  0  0
    4.4716   -0.8437    1.1527 C   0  0  0  0  0  0  0  0  0  0  0  0
    4.6512   -0.2722   -1.1766 C   0  0  0  0  0  0  0  0  0  0  0  0
    5.4087   -1.8387    0.9253 C   0  0  0  0  0  0  0  0  0  0  0  0
    5.5803   -1.2926   -1.2998 C   0  0  0  0  0  0  0  0  0  0  0  0
   -5.6217   -1.3401    0.1697 C   0  0  0  0  0  0  0  0  0  0  0  0
   -6.8757   -1.8464   -0.4978 C   0  0  0  0  0  0  0  0  0  0  0  0
  1  2  2  0
  1  3  2  0
  1  7  1  0
  1  9  1  0
  4 20  2  0
  5 13  1  0
  5 20  1  0
  6 18  2  0
  6 19  1  0
  7  8  1  0
  8 10  1  0
  9 11  2  0
  9 12  1  0
 10 16  2  0
 10 17  1  0
 11 14  1  0
 12 15  2  0
 13 14  2  0
 13 15  1  0
 16 18  1  0
 17 19  2  0
 20 21  1  0
M  END
>  <PUBCHEM_COMPOUND_CID>  (1) 
49336

>  <PUBCHEM_CONFORMER_RMSD>  (1) 
0.8

>  <PUBCHEM_CONFORMER_DIVERSEORDER>  (1) 
2
11
19
10
17
3
6
13
8
12
1
18
9
4
20
15
7
14
5
16

>  <PUBCHEM_MMFF94_PARTIAL_CHARGES>  (1) 
30
1 1.2
10 -0.14
11 -0.15
12 -0.15
13 0.12
14 -0.15
15 -0.15
16 -0.15
17 -0.15
18 0.16
19 0.16
2 -0.65
20 0.57
21 0.06
26 0.15
27 0.15
28 0.15
29 0.15
3 -0.65
30 0.15
31 0.15
32 0.37
33 0.15
34 0.15
4 -0.57
5 -0.55
6 -0.62
7 0.11
8 0.14
9 -0.01

>  <PUBCHEM_EFFECTIVE_ROTOR_COUNT>  (1) 
6

>  <PUBCHEM_PHARMACOPHORE_FEATURES>  (1) 
7
1 2 acceptor
1 3 acceptor
1 4 acceptor
1 5 donor
1 6 acceptor
6 6 10 16 17 18 19 rings
6 9 11 12 13 14 15 rings

>  <PUBCHEM_HEAVY_ATOM_COUNT>  (1) 
21

>  <PUBCHEM_ATOM_DEF_STEREO_COUNT>  (1) 
0

>  <PUBCHEM_ATOM_UDEF_STEREO_COUNT>  (1) 
0

>  <PUBCHEM_BOND_DEF_STEREO_COUNT>  (1) 
0

>  <PUBCHEM_BOND_UDEF_STEREO_COUNT>  (1) 
0

>  <PUBCHEM_ISOTOPIC_ATOM_COUNT>  (1) 
0

>  <PUBCHEM_COMPONENT_COUNT>  (1) 
1

>  <PUBCHEM_CACTVS_TAUTO_COUNT>  (1) 
2

>  <PUBCHEM_CONFORMER_ID>  (1) 
0000C0B800000002

>  <PUBCHEM_MMFF94_ENERGY>  (1) 
46.7502

>  <PUBCHEM_FEATURE_SELFOVERLAP>  (1) 
35.54

>  <PUBCHEM_SHAPE_FINGERPRINT>  (1) 
10 15 13038903365332489847
10319926 262 15625958524864338281
10498660 4 12396309140634111468
10692045 39 12750976389807345060
10753850 27 18410853256883922170
12166972 35 18113343007215789814
12403259 118 11383531417835970488
12596602 18 16917352545364430211
12633257 1 14548731828714097088
12760667 363 18410013234748942795
12892183 10 15267069103527176008
12954195 1 17968647230304811421
13533116 47 18200593730088323889
13668630 136 18410577254249843854
13673619 4 18334294284223273757
13685833 64 18343020003715557362
13782708 43 18337667620431251583
13862211 1 18413106169252691199
13914758 101 17775282747667877809
13955234 65 18052256485928888737
14123256 34 18342182150375811598
1420 369 18273494546744725590
14216079 64 18410853283418954703
14251764 30 18409729564616779807
14341114 328 14764337271797574240
14528608 73 13045940218006108523
14774955 27 8358266938224924017
15183329 4 16226042275837407911
15238133 3 11167927079651202346
15475509 8 17458339737505497285
15575132 122 12901812901486538879
16994733 274 8069763888292100551
17980427 23 12823003253681454009
1813 80 18271816713418216580
18222031 100 18411140242604418656
193927 3 18343022168727325164
19784866 240 18411142450360014189
1979834 28 16200442368198690180
20028762 73 18060700619186963975
20388580 30 18260551160034517812
20403669 9 18413109454976441390
20567600 234 12463569608342090459
21033648 29 12750978636887584483
21637258 2 18272364296046652527
21682296 61 18411702106337510375
22765269 38 8790887367358430655
22849339 104 16153717582463412515
23522609 53 18119844410723574237
23559900 14 17458908270673595557
270888 7 8790877484992311782
2748736 6 9223234031114021975
2767999 5 8646771075433976559
2838139 119 7925643167459323695
3004659 81 17822008692838577978
3014063 24 18202278130621048903
312425 54 15339116840509827758
3472631 163 11674886597486299674
351380 3 18342458136231252630
46194498 28 17531245131690234516
465052 167 18342179998264653286
5104073 3 17918273142968068904
543368 44 11241962690796740359
56616090 284 17603302652713490401
56633871 153 17489586748963385542
5718773 13 18335414613721525186
57724786 102 11383824970809376466
59682541 52 14635140193105273722
77188 2 18413387665504558009
7970288 3 18341049627719465510
8863177 126 18337674247133337659
960060 61 17240485797537930918

>  <PUBCHEM_SHAPE_MULTIPOLES>  (1) 
408.45
16.37
2.35
1.4
3.18
0.54
0
-16.4
1.41
-0.5
-0.19
-0.17
0.08
0.43

>  <PUBCHEM_SHAPE_SELFOVERLAP>  (1) 
847.434

>  <PUBCHEM_SHAPE_VOLUME>  (1) 
232.4

>  <PUBCHEM_COORDINATE_TYPE>  (1) 
2
5
10

$$$$
