49333
     RDKit          3D

 20 21  0  0  0  0  0  0  0  0999 V2000
    0.5850    1.2672   -2.2628 O   0  0  0  0  0  0  0  0  0  0  0  0
   -0.1486   -0.5119    2.1276 O   0  0  0  0  0  0  0  0  0  0  0  0
   -2.4803    3.1207    0.5930 O   0  0  0  0  0  0  0  0  0  0  0  0
   -0.9637    2.1467   -0.8273 N   0  0  0  0  0  0  0  0  0  0  0  0
   -1.3243    1.2753    1.3177 N   0  0  0  0  0  0  0  0  0  0  0  0
    0.1965    0.0525   -0.2029 C   0  0  0  0  0  0  0  0  0  0  0  0
   -0.4352   -1.1892   -0.8120 C   0  0  0  0  0  0  0  0  0  0  0  0
    1.6732   -0.1814   -0.0508 C   0  0  0  0  0  0  0  0  0  0  0  0
   -0.0204    1.2024   -1.1908 C   0  0  0  0  0  0  0  0  0  0  0  0
   -0.4183    0.2382    1.1872 C   0  0  0  0  0  0  0  0  0  0  0  0
   -1.9297   -1.0641   -0.8826 C   0  0  0  0  0  0  0  0  0  0  0  0
    2.4857    0.8431    0.4188 C   0  0  0  0  0  0  0  0  0  0  0  0
    2.2091   -1.4197   -0.3816 C   0  0  0  0  0  0  0  0  0  0  0  0
   -1.6510    2.2360    0.3732 C   0  0  0  0  0  0  0  0  0  0  0  0
   -2.8515   -1.8170   -0.2525 C   0  0  0  0  0  0  0  0  0  0  0  0
    3.8564    0.6256    0.5600 C   0  0  0  0  0  0  0  0  0  0  0  0
    3.5798   -1.6370   -0.2406 C   0  0  0  0  0  0  0  0  0  0  0  0
    4.4036   -0.6145    0.2307 C   0  0  0  0  0  0  0  0  0  0  0  0
   -4.3389   -1.6382   -0.3668 C   0  0  0  0  0  0  0  0  0  0  0  0
   -2.4274   -2.9347    0.6626 C   0  0  0  0  0  0  0  0  0  0  0  0
  1  9  2  0
  2 10  2  0
  3 14  2  0
  4  9  1  0
  4 14  1  0
  5 10  1  0
  5 14  1  0
  6  7  1  0
  6  8  1  0
  6  9  1  0
  6 10  1  0
  7 11  1  0
  8 12  2  0
  8 13  1  0
 11 15  2  3
 12 16  1  0
 13 17  2  0
 15 19  1  0
 15 20  1  0
 16 18  2  0
 17 18  1  0
M  END
>  <PUBCHEM_COMPOUND_CID>  (1) 
49333

>  <PUBCHEM_CONFORMER_RMSD>  (1) 
0.6

>  <PUBCHEM_CONFORMER_DIVERSEORDER>  (1) 
2
7
5
8
4
6
3
10
9
1

>  <PUBCHEM_MMFF94_PARTIAL_CHARGES>  (1) 
28
1 -0.57
10 0.57
11 -0.29
12 -0.15
13 -0.15
14 0.69
15 -0.28
16 -0.15
17 -0.15
18 -0.15
19 0.14
2 -0.57
20 0.14
23 0.15
24 0.37
25 0.37
26 0.15
27 0.15
28 0.15
29 0.15
3 -0.57
30 0.15
4 -0.49
5 -0.49
6 0.27
7 0.14
8 -0.14
9 0.57

>  <PUBCHEM_EFFECTIVE_ROTOR_COUNT>  (1) 
3.6

>  <PUBCHEM_PHARMACOPHORE_FEATURES>  (1) 
8
1 1 acceptor
1 2 acceptor
1 3 acceptor
1 4 donor
1 5 donor
3 15 19 20 hydrophobe
6 4 5 6 9 10 14 rings
6 8 12 13 16 17 18 rings

>  <PUBCHEM_HEAVY_ATOM_COUNT>  (1) 
20

>  <PUBCHEM_ATOM_DEF_STEREO_COUNT>  (1) 
0

>  <PUBCHEM_ATOM_UDEF_STEREO_COUNT>  (1) 
0

>  <PUBCHEM_BOND_DEF_STEREO_COUNT>  (1) 
0

>  <PUBCHEM_BOND_UDEF_STEREO_COUNT>  (1) 
0

>  <PUBCHEM_ISOTOPIC_ATOM_COUNT>  (1) 
0

>  <PUBCHEM_COMPONENT_COUNT>  (1) 
1

>  <PUBCHEM_CACTVS_TAUTO_COUNT>  (1) 
5

>  <PUBCHEM_CONFORMER_ID>  (1) 
0000C0B500000002

>  <PUBCHEM_MMFF94_ENERGY>  (1) 
61.7801

>  <PUBCHEM_FEATURE_SELFOVERLAP>  (1) 
40.638

>  <PUBCHEM_SHAPE_FINGERPRINT>  (1) 
104564 63 18342453712631313031
10863032 1 18201153235498838560
11578080 2 16843859027863371849
12788726 201 18410006637220337987
13004483 165 18340194267506906375
13132413 78 17697596954489437869
13134695 92 18054500576813405903
13140716 1 17835786866404436378
13544653 18 18269550696819494391
13583140 156 17560785607872672658
14178342 30 18267569235849460402
14223421 5 18273495680552944082
14790565 3 17403174197655062449
16945 1 18410859871085974540
17357779 13 18199164322354487887
21501502 16 18408886205397426964
22112679 90 18124625164684675817
23175994 123 18339640165634423543
23402539 116 17968361442721869114
23419403 2 17975380788908888445
23557571 272 18411135852979011406
23559900 14 18342730819657548952
2748010 2 17845939520351541814
350125 39 18271805761599264488
394222 165 16738889928476380860
4340502 62 17699861622664069409
5104073 3 18269256999452432938
69090 78 18194120715972357473
7364860 26 17617654801476862303
81228 2 18187087238889299554

>  <PUBCHEM_SHAPE_MULTIPOLES>  (1) 
384.02
6.35
2.87
1.39
2.58
1.01
-0.03
-3.58
0.42
-2.72
0.17
-0.19
0.36
-0.09

>  <PUBCHEM_SHAPE_SELFOVERLAP>  (1) 
821.632

>  <PUBCHEM_SHAPE_VOLUME>  (1) 
211.2

>  <PUBCHEM_COORDINATE_TYPE>  (1) 
2
5
10

$$$$
