49338
     RDKit          3D

 15 15  0  0  0  0  0  0  0  0999 V2000
    1.2196    0.9737   -0.3418 S   0  0  0  0  0  0  0  0  0  0  0  0
    1.3829    1.1786   -1.7706 O   0  0  0  0  0  0  0  0  0  0  0  0
    1.5382    2.0405    0.5914 O   0  0  0  0  0  0  0  0  0  0  0  0
   -4.3982   -0.5884    0.5403 O   0  0  0  0  0  0  0  0  0  0  0  0
    4.3921   -1.3994    0.3868 N   0  0  0  0  0  0  0  0  0  0  0  0
    2.1419   -0.4538    0.1357 C   0  0  0  0  0  0  0  0  0  0  0  0
    3.6353   -0.2251   -0.0295 C   0  0  0  0  0  0  0  0  0  0  0  0
   -0.4641    0.5037   -0.0773 C   0  0  0  0  0  0  0  0  0  0  0  0
   -1.1692   -0.0939   -1.1075 C   0  0  0  0  0  0  0  0  0  0  0  0
   -1.0467    0.7441    1.1552 C   0  0  0  0  0  0  0  0  0  0  0  0
   -2.4982   -0.4628   -0.8988 C   0  0  0  0  0  0  0  0  0  0  0  0
   -2.3755    0.3750    1.3640 C   0  0  0  0  0  0  0  0  0  0  0  0
   -3.1013   -0.2284    0.3370 C   0  0  0  0  0  0  0  0  0  0  0  0
    5.8242   -1.1636    0.2678 C   0  0  0  0  0  0  0  0  0  0  0  0
   -5.0811   -1.2004   -0.5527 C   0  0  0  0  0  0  0  0  0  0  0  0
  1  2  2  0
  1  3  2  0
  1  6  1  0
  1  8  1  0
  4 13  1  0
  4 15  1  0
  5  7  1  0
  5 14  1  0
  6  7  1  0
  8  9  2  0
  8 10  1  0
  9 11  1  0
 10 12  2  0
 11 13  2  0
 12 13  1  0
M  END
>  <PUBCHEM_COMPOUND_CID>  (1) 
49338

>  <PUBCHEM_CONFORMER_RMSD>  (1) 
0.6

>  <PUBCHEM_CONFORMER_DIVERSEORDER>  (1) 
1
11
18
6
4
13
19
8
5
7
15
10
16
12
2
14
17
9
3

>  <PUBCHEM_MMFF94_PARTIAL_CHARGES>  (1) 
20
1 1.2
10 -0.15
11 -0.15
12 -0.15
13 0.08
14 0.27
15 0.28
2 -0.65
20 0.15
21 0.15
22 0.36
23 0.15
24 0.15
3 -0.65
4 -0.36
5 -0.9
6 0.11
7 0.27
8 -0.01
9 -0.15

>  <PUBCHEM_EFFECTIVE_ROTOR_COUNT>  (1) 
5

>  <PUBCHEM_PHARMACOPHORE_FEATURES>  (1) 
6
1 2 acceptor
1 3 acceptor
1 4 acceptor
1 5 cation
1 5 donor
6 8 9 10 11 12 13 rings

>  <PUBCHEM_HEAVY_ATOM_COUNT>  (1) 
15

>  <PUBCHEM_ATOM_DEF_STEREO_COUNT>  (1) 
0

>  <PUBCHEM_ATOM_UDEF_STEREO_COUNT>  (1) 
0

>  <PUBCHEM_BOND_DEF_STEREO_COUNT>  (1) 
0

>  <PUBCHEM_BOND_UDEF_STEREO_COUNT>  (1) 
0

>  <PUBCHEM_ISOTOPIC_ATOM_COUNT>  (1) 
0

>  <PUBCHEM_COMPONENT_COUNT>  (1) 
1

>  <PUBCHEM_CACTVS_TAUTO_COUNT>  (1) 
1

>  <PUBCHEM_CONFORMER_ID>  (1) 
0000C0BA00000001

>  <PUBCHEM_MMFF94_ENERGY>  (1) 
27.5933

>  <PUBCHEM_FEATURE_SELFOVERLAP>  (1) 
30.463

>  <PUBCHEM_SHAPE_FINGERPRINT>  (1) 
100836 57 10447923992939881146
11132069 177 16056609767933826341
12236239 1 18273498983171674776
12251169 10 16702297953822534704
12892183 10 16773516551990798802
13214271 11 11095874982416766497
13288520 33 18412826867323418166
13581323 91 17060342919959253881
13690532 89 18410011039498499315
14178342 30 17273717376429676337
14911166 2 15574713603592562103
14993402 34 13117997812307891127
15048467 5 9439410129570032843
15342168 16 11023815210872819338
16945 1 15625951984077669201
17041 50 16153709859632113645
17862501 102 18131351916625340979
17870717 6 16009038232910699562
1813 80 18337685118159261836
18186145 218 15864062230841915845
19784866 240 18408045112908573911
200 152 18259984864079435411
20112054 13 12247671678339189914
20325693 3 14273460271206808195
20374829 77 16950279615548723186
20645477 70 17676770967161241898
20671657 53 17603875472812903548
20871999 31 16008742472772145990
21119208 17 13334741223745018410
21501925 9 17418098732329634437
21637258 2 18409718556837302146
22713019 99 17603584136148247531
22854114 59 13901908907822638906
22926399 37 8646768897911931303
23402539 116 16558741309258982837
23402655 69 11891328751216405474
23403322 49 17385722440119000882
23532345 42 16487265391047276765
23557571 272 15625679265974876809
23559900 14 15647060399659516012
26918003 58 18273494580988672747
2748010 2 14564236154379428329
3286 77 18410575119234086813
42 15 18131634486707766947
4990 188 16298384695095134523
5104073 3 17488469749046425043
633830 44 16298941078460460847
76465 3 18342453785703551935

>  <PUBCHEM_SHAPE_MULTIPOLES>  (1) 
289.95
10.18
1.39
1.21
6.05
0.29
-0.25
-6.69
1.88
0.57
0.07
-0.27
0.23
-0.88

>  <PUBCHEM_SHAPE_SELFOVERLAP>  (1) 
573.034

>  <PUBCHEM_SHAPE_VOLUME>  (1) 
174.2

>  <PUBCHEM_COORDINATE_TYPE>  (1) 
2
5
10

$$$$
