49332
     RDKit          3D

 25 27  0  0  1  0  0  0  0  0999 V2000
   -0.0432   -2.4235   -1.8354 O   0  0  0  0  0  0  0  0  0  0  0  0
   -0.9612    0.2100    1.9425 O   0  0  0  0  0  0  0  0  0  0  0  0
   -3.4082   -3.5716    1.0653 O   0  0  0  0  0  0  0  0  0  0  0  0
   -1.7876   -2.9407   -0.4383 N   0  0  0  0  0  0  0  0  0  0  0  0
   -2.2466   -1.6249    1.4486 N   0  0  0  0  0  0  0  0  0  0  0  0
   -0.7893   -0.7039   -0.2970 C   0  0  0  0  0  0  0  0  0  0  0  0
   -1.7275    0.1782   -1.1401 C   0  0  0  0  0  0  0  0  0  0  0  0
    0.6335   -0.1287   -0.3523 C   0  0  0  0  0  0  0  0  0  0  0  0
   -0.8014   -2.0947   -0.9234 C   0  0  0  0  0  0  0  0  0  0  0  0
   -1.3027   -0.6572    1.1386 C   0  0  0  0  0  0  0  0  0  0  0  0
    1.6131   -1.0419    0.3717 C   0  0  0  0  0  0  0  0  0  0  0  0
   -1.7912    1.5937   -0.6024 C   0  0  0  0  0  0  0  0  0  0  0  0
   -1.3083    0.1459   -2.6101 C   0  0  0  0  0  0  0  0  0  0  0  0
    3.0128   -0.4856    0.3177 C   0  0  0  0  0  0  0  0  0  0  0  0
   -2.5528   -2.7600    0.7077 C   0  0  0  0  0  0  0  0  0  0  0  0
   -2.7476    1.9117    0.3448 C   0  0  0  0  0  0  0  0  0  0  0  0
   -0.8914    2.5335   -1.0713 C   0  0  0  0  0  0  0  0  0  0  0  0
    3.8451   -0.8351   -0.7355 C   0  0  0  0  0  0  0  0  0  0  0  0
    3.4467    0.3673    1.3218 C   0  0  0  0  0  0  0  0  0  0  0  0
   -2.8062    3.2144    0.8400 C   0  0  0  0  0  0  0  0  0  0  0  0
   -0.9500    3.8362   -0.5759 C   0  0  0  0  0  0  0  0  0  0  0  0
   -1.9075    4.1766    0.3797 C   0  0  0  0  0  0  0  0  0  0  0  0
    5.1405   -0.3202   -0.7857 C   0  0  0  0  0  0  0  0  0  0  0  0
    4.7421    0.8823    1.2715 C   0  0  0  0  0  0  0  0  0  0  0  0
    5.5889    0.5385    0.2176 C   0  0  0  0  0  0  0  0  0  0  0  0
  1  9  2  0
  2 10  2  0
  3 15  2  0
  4  9  1  0
  4 15  1  0
  5 10  1  0
  5 15  1  0
  6  7  1  0
  6  8  1  0
  6  9  1  0
  6 10  1  0
  7 12  1  0
  7 13  1  0
  8 11  1  0
 11 14  1  0
 12 16  2  0
 12 17  1  0
 14 18  2  0
 14 19  1  0
 16 20  1  0
 17 21  2  0
 18 23  1  0
 19 24  2  0
 20 22  2  0
 21 22  1  0
 23 25  2  0
 24 25  1  0
M  END
>  <PUBCHEM_COMPOUND_CID>  (1) 
49332

>  <PUBCHEM_CONFORMER_RMSD>  (1) 
0.8

>  <PUBCHEM_CONFORMER_DIVERSEORDER>  (1) 
1
5
10
4
8
6
2
7
9
3

>  <PUBCHEM_MMFF94_PARTIAL_CHARGES>  (1) 
35
1 -0.57
10 0.57
11 0.14
12 -0.14
14 -0.14
15 0.69
16 -0.15
17 -0.15
18 -0.15
19 -0.15
2 -0.57
20 -0.15
21 -0.15
22 -0.15
23 -0.15
24 -0.15
25 -0.15
3 -0.57
34 0.37
35 0.37
36 0.15
37 0.15
38 0.15
39 0.15
4 -0.49
40 0.15
41 0.15
42 0.15
43 0.15
44 0.15
45 0.15
5 -0.49
6 0.12
7 0.14
9 0.57

>  <PUBCHEM_EFFECTIVE_ROTOR_COUNT>  (1) 
5.6

>  <PUBCHEM_PHARMACOPHORE_FEATURES>  (1) 
9
1 1 acceptor
1 13 hydrophobe
1 2 acceptor
1 3 acceptor
1 4 donor
1 5 donor
6 12 16 17 20 21 22 rings
6 14 18 19 23 24 25 rings
6 4 5 6 9 10 15 rings

>  <PUBCHEM_HEAVY_ATOM_COUNT>  (1) 
25

>  <PUBCHEM_ATOM_DEF_STEREO_COUNT>  (1) 
0

>  <PUBCHEM_ATOM_UDEF_STEREO_COUNT>  (1) 
1

>  <PUBCHEM_BOND_DEF_STEREO_COUNT>  (1) 
0

>  <PUBCHEM_BOND_UDEF_STEREO_COUNT>  (1) 
0

>  <PUBCHEM_ISOTOPIC_ATOM_COUNT>  (1) 
0

>  <PUBCHEM_COMPONENT_COUNT>  (1) 
1

>  <PUBCHEM_CACTVS_TAUTO_COUNT>  (1) 
5

>  <PUBCHEM_CONFORMER_ID>  (1) 
0000C0B400000001

>  <PUBCHEM_MMFF94_ENERGY>  (1) 
86.3658

>  <PUBCHEM_FEATURE_SELFOVERLAP>  (1) 
45.712

>  <PUBCHEM_SHAPE_FINGERPRINT>  (1) 
10006869 2 18263916658206508435
10291535 26 18268409339810572208
10764073 3 17486526769860074219
1100329 8 18335144236939943313
11405975 8 18335416808686819986
12173636 292 18338792300002516148
12788726 201 18262220188673302291
13140716 1 18336263564824182041
13149001 5 17686012414443770183
133893 2 17038628420257038263
14142880 1 18335978696854735229
14178342 30 18334288752432023066
14468879 13 18272083843076869252
14713325 29 18410578366392931850
15230672 131 18048329843261818894
15534591 1 18197207057948856428
17980427 23 17844266210004851211
17980427 26 17545034901756722005
1813 80 18051697934116514502
19930381 70 17546156863073818624
20600515 1 17984442968467304951
21041028 32 18192434296999948125
21524375 3 17907845224302711413
21756936 100 18266736883866759640
21860390 5 10339137169736110456
22182937 141 18341331098327083152
22907989 373 18410290337206197452
22956985 138 16382541585969159122
23227448 37 18410014321191552256
23419403 2 17983277507758428913
23557571 272 18337387236069980134
23845131 108 18048601413494681817
3187 122 18337951306724886108
394222 165 16520994924700927165
469060 322 18261962963107974842
6004065 56 17905040709670453483
6442390 28 18049736122168230961
6786 2 17978235958929169907
7399639 24 18128246982246880586
7808743 9 18336271154886105356
9981440 41 17985520326664103578

>  <PUBCHEM_SHAPE_MULTIPOLES>  (1) 
486.92
7.89
4.51
1.71
15.66
1.14
-0.42
2.11
1.58
-6.88
0.51
-0.49
-0.36
0.94

>  <PUBCHEM_SHAPE_SELFOVERLAP>  (1) 
1060.961

>  <PUBCHEM_SHAPE_VOLUME>  (1) 
261

>  <PUBCHEM_COORDINATE_TYPE>  (1) 
2
5
10

$$$$
