49344
     RDKit          3D

 14 14  0  0  1  0  0  0  0  0999 V2000
    2.2014    2.0028   -1.0971 O   0  0  0  0  0  0  0  0  0  0  0  0
    1.4019    2.6057    0.9390 O   0  0  0  0  0  0  0  0  0  0  0  0
    3.0336   -2.5250   -0.0161 N   0  0  0  0  0  0  0  0  0  0  0  0
    1.3181   -0.7171   -0.3024 C   0  0  0  0  0  0  0  0  0  0  0  0
   -0.1821   -0.4664   -0.1849 C   0  0  0  0  0  0  0  0  0  0  0  0
    2.1005    0.3000    0.5595 C   0  0  0  0  0  0  0  0  0  0  0  0
    1.6161   -2.1906    0.0610 C   0  0  0  0  0  0  0  0  0  0  0  0
   -0.8893   -0.1273   -1.3182 C   0  0  0  0  0  0  0  0  0  0  0  0
   -0.7798   -0.5878    1.0510 C   0  0  0  0  0  0  0  0  0  0  0  0
   -2.8920   -0.0139    0.0281 C   0  0  0  0  0  0  0  0  0  0  0  0
   -2.2609    0.1019   -1.2104 C   0  0  0  0  0  0  0  0  0  0  0  0
   -2.1516   -0.3588    1.1588 C   0  0  0  0  0  0  0  0  0  0  0  0
    1.8428    1.7464    0.1885 C   0  0  0  0  0  0  0  0  0  0  0  0
   -4.3587    0.2302    0.1431 C   0  0  0  0  0  0  0  0  0  0  0  0
  1 13  1  0
  2 13  2  0
  3  7  1  0
  4  5  1  0
  4  6  1  0
  4  7  1  0
  5  8  2  0
  5  9  1  0
  6 13  1  0
  8 11  1  0
  9 12  2  0
 10 11  2  0
 10 12  1  0
 10 14  1  0
M  END
>  <PUBCHEM_COMPOUND_CID>  (1) 
49344

>  <PUBCHEM_CONFORMER_RMSD>  (1) 
0.6

>  <PUBCHEM_CONFORMER_DIVERSEORDER>  (1) 
2
14
27
26
24
15
18
10
13
25
11
19
22
23
20
8
16
3
17
7
1
21
12
6
4
9
5

>  <PUBCHEM_MMFF94_PARTIAL_CHARGES>  (1) 
21
1 -0.65
10 -0.14
11 -0.15
12 -0.15
13 0.66
14 0.14
2 -0.57
20 0.15
21 0.15
22 0.15
23 0.15
24 0.36
25 0.36
29 0.5
3 -0.99
4 0.14
5 -0.14
6 0.06
7 0.27
8 -0.15
9 -0.15

>  <PUBCHEM_EFFECTIVE_ROTOR_COUNT>  (1) 
4

>  <PUBCHEM_PHARMACOPHORE_FEATURES>  (1) 
6
1 1 acceptor
1 2 acceptor
1 3 cation
1 3 donor
3 1 2 13 anion
6 5 8 9 10 11 12 rings

>  <PUBCHEM_HEAVY_ATOM_COUNT>  (1) 
14

>  <PUBCHEM_ATOM_DEF_STEREO_COUNT>  (1) 
0

>  <PUBCHEM_ATOM_UDEF_STEREO_COUNT>  (1) 
1

>  <PUBCHEM_BOND_DEF_STEREO_COUNT>  (1) 
0

>  <PUBCHEM_BOND_UDEF_STEREO_COUNT>  (1) 
0

>  <PUBCHEM_ISOTOPIC_ATOM_COUNT>  (1) 
0

>  <PUBCHEM_COMPONENT_COUNT>  (1) 
1

>  <PUBCHEM_CACTVS_TAUTO_COUNT>  (1) 
1

>  <PUBCHEM_CONFORMER_ID>  (1) 
0000C0C000000002

>  <PUBCHEM_MMFF94_ENERGY>  (1) 
29.3544

>  <PUBCHEM_FEATURE_SELFOVERLAP>  (1) 
30.504

>  <PUBCHEM_SHAPE_FINGERPRINT>  (1) 
1 1 18339075016462158460
10465860 250 17751628867587690666
10857977 72 16660361506797722727
11031198 65 18338240465261147261
12326174 3 18271537437364060470
13538477 17 17274811480831017127
14115302 16 17346304982633623063
14289901 80 18341334491730827963
14817 1 16970563689900290668
15219456 202 18114186358087644523
15775835 57 18058167404604769565
16945 1 18340476833251855255
17357990 137 17346054302202841265
17841504 4 18337955584475539123
1813 80 17772202916271229470
18186145 218 17968088678196946893
19765921 60 17486200412063417041
19786989 88 18188765171016472125
20339313 130 18271808952158747526
20559304 39 18130787841179309865
20645464 45 17676198104718505763
20645476 183 17703787072094771599
20671657 1 18342739649735769534
20708731 107 18408608054303540310
21041028 32 18197496229644208952
21296965 67 18194398879708708786
21501502 16 18263920106511261467
21524375 3 18046899665562303928
21639500 275 18340474664525589901
21947302 44 18333449858839279313
22096605 113 18341045337093934009
23175994 123 18118129073894363014
23419403 2 17411578486722201984
23526113 38 17750526078451501002
23598291 2 18060409192976042087
25 1 18338800125454339992
2748010 2 17458063772591895455
305870 269 18270389633102948056
3286 77 18334576794155279391
6049 1 17968370152894141581
7364860 26 18412262835233462530
77492 1 17489301984210283351
81228 2 17545602249825466058

>  <PUBCHEM_SHAPE_MULTIPOLES>  (1) 
271.39
5.32
2.25
1.18
4.06
0.37
0.11
-0.23
-0.15
-3.28
-0.17
0.36
0.18
0.13

>  <PUBCHEM_SHAPE_SELFOVERLAP>  (1) 
554.098

>  <PUBCHEM_SHAPE_VOLUME>  (1) 
156.7

>  <PUBCHEM_COORDINATE_TYPE>  (1) 
2
5
10

$$$$
