49342
     RDKit          3D

 16 16  0  0  0  0  0  0  0  0999 V2000
   -0.8957    1.1589   -0.4316 S   0  0  0  0  0  0  0  0  0  0  0  0
   -1.0978    2.3549    0.3675 O   0  0  0  0  0  0  0  0  0  0  0  0
   -1.0962    1.1975   -1.8700 O   0  0  0  0  0  0  0  0  0  0  0  0
    4.6135   -0.6817    0.5879 O   0  0  0  0  0  0  0  0  0  0  0  0
   -4.2111   -0.9111    0.5613 N   0  0  0  0  0  0  0  0  0  0  0  0
   -1.9044   -0.1355    0.2190 C   0  0  0  0  0  0  0  0  0  0  0  0
   -3.3814    0.1746    0.0401 C   0  0  0  0  0  0  0  0  0  0  0  0
    0.7566    0.6082   -0.1271 C   0  0  0  0  0  0  0  0  0  0  0  0
    1.4028   -0.1536   -1.0851 C   0  0  0  0  0  0  0  0  0  0  0  0
    1.3726    0.9479    1.0650 C   0  0  0  0  0  0  0  0  0  0  0  0
   -3.8884   -2.1689   -0.1111 C   0  0  0  0  0  0  0  0  0  0  0  0
   -5.6294   -0.5938    0.3986 C   0  0  0  0  0  0  0  0  0  0  0  0
    2.7058   -0.5894   -0.8434 C   0  0  0  0  0  0  0  0  0  0  0  0
    2.6756    0.5124    1.3066 C   0  0  0  0  0  0  0  0  0  0  0  0
    3.3422   -0.2563    0.3524 C   0  0  0  0  0  0  0  0  0  0  0  0
    5.2355   -1.4640   -0.4302 C   0  0  0  0  0  0  0  0  0  0  0  0
  1  2  2  0
  1  3  2  0
  1  6  1  0
  1  8  1  0
  4 15  1  0
  4 16  1  0
  5  7  1  0
  5 11  1  0
  5 12  1  0
  6  7  1  0
  8  9  2  0
  8 10  1  0
  9 13  1  0
 10 14  2  0
 13 15  2  0
 14 15  1  0
M  END
>  <PUBCHEM_COMPOUND_CID>  (1) 
49342

>  <PUBCHEM_CONFORMER_RMSD>  (1) 
0.6

>  <PUBCHEM_CONFORMER_DIVERSEORDER>  (1) 
2
13
6
11
18
14
8
4
10
17
16
7
9
12
3
15
1
5

>  <PUBCHEM_MMFF94_PARTIAL_CHARGES>  (1) 
20
1 1.2
10 -0.15
11 0.27
12 0.27
13 -0.15
14 -0.15
15 0.08
16 0.28
2 -0.65
21 0.15
22 0.15
29 0.15
3 -0.65
30 0.15
4 -0.36
5 -0.81
6 0.11
7 0.27
8 -0.01
9 -0.15

>  <PUBCHEM_EFFECTIVE_ROTOR_COUNT>  (1) 
5

>  <PUBCHEM_PHARMACOPHORE_FEATURES>  (1) 
5
1 2 acceptor
1 3 acceptor
1 4 acceptor
1 5 cation
6 8 9 10 13 14 15 rings

>  <PUBCHEM_HEAVY_ATOM_COUNT>  (1) 
16

>  <PUBCHEM_ATOM_DEF_STEREO_COUNT>  (1) 
0

>  <PUBCHEM_ATOM_UDEF_STEREO_COUNT>  (1) 
0

>  <PUBCHEM_BOND_DEF_STEREO_COUNT>  (1) 
0

>  <PUBCHEM_BOND_UDEF_STEREO_COUNT>  (1) 
0

>  <PUBCHEM_ISOTOPIC_ATOM_COUNT>  (1) 
0

>  <PUBCHEM_COMPONENT_COUNT>  (1) 
1

>  <PUBCHEM_CACTVS_TAUTO_COUNT>  (1) 
1

>  <PUBCHEM_CONFORMER_ID>  (1) 
0000C0BE00000002

>  <PUBCHEM_MMFF94_ENERGY>  (1) 
37.4303

>  <PUBCHEM_FEATURE_SELFOVERLAP>  (1) 
25.389

>  <PUBCHEM_SHAPE_FINGERPRINT>  (1) 
10354089 29 15123792889819988186
11046707 91 18260828198293589435
114248 4 12757149086898334715
122479 349 11239993481711927977
12251169 10 16989126469702152717
12507557 5 13830129508050245931
12596602 18 14979949293975214927
12633257 1 17275106158437014055
12730499 353 11314308326230877057
12916748 109 9583523135485718431
13288520 33 18408606933116589802
13675066 3 17060051519793085864
14123255 352 10303815367231168603
14252887 29 16917075425790103206
14576447 43 16515683342756094338
14943859 89 10519984872174038333
14993402 34 16081091467799057706
15527383 91 17775284979916637889
15885798 251 18410858780797583065
17834072 8 17968087621888186895
17844478 74 17988921145919278968
18186145 218 13190336885728325389
18785283 64 18057028319886976184
19141452 34 18272933860513817695
193927 3 18114192955521473291
200 152 16298105367359537292
20281475 54 18337955700766606389
20374829 77 18334857225402131107
20645477 56 9007049175719879917
20645477 70 13695858191426685552
20671657 53 17167860880800584261
20871999 31 17313098614297747397
21041028 32 17632577128507960768
21256008 61 16588025714753479788
212847 35 9583528589756535446
21524375 3 11455899057126192237
21637258 2 18114172009177175050
231179 274 7925907102184801140
23402539 116 16950280672216017236
23402655 69 13190333569681165883
23557571 272 18334858268709912597
23559900 14 18409443708715586736
23622692 88 15626222420492621916
26918003 58 17775568645822580699
276578 36 12967141509530517805
2916195 48 9655572998329624271
31174 14 18201710808185185488
328317 168 8718826483496788947
3286 77 18202283627725136832
351380 3 17822009817782711555
4028521 119 10953451934183325895
4047638 21 10015867591543002568
42 15 18060140955283508211
4325135 7 18261396684998114132
465052 167 18272939352980365374
5104073 3 17916578718920483386
57096353 35 15791735161702125406
83771 10 18409730672797359317

>  <PUBCHEM_SHAPE_MULTIPOLES>  (1) 
310.53
10.59
1.71
1.17
3.54
0.01
0.24
-6.95
-1.89
0.74
0.04
-0.4
0.27
0.7

>  <PUBCHEM_SHAPE_SELFOVERLAP>  (1) 
614.632

>  <PUBCHEM_SHAPE_VOLUME>  (1) 
187.4

>  <PUBCHEM_COORDINATE_TYPE>  (1) 
2
5
10

$$$$
