49357
     RDKit          3D

 24 27  0  0  0  0  0  0  0  0999 V2000
    5.5962   -2.7296    0.2965 Cl  0  0  0  0  0  0  0  0  0  0  0  0
   -3.3189    3.3344    0.6590 O   0  0  0  0  0  0  0  0  0  0  0  0
   -1.3703   -1.2342   -0.2267 N   0  0  0  0  0  0  0  0  0  0  0  0
   -3.9425   -2.4349    0.0273 N   0  0  0  0  0  0  0  0  0  0  0  0
    0.8921   -0.9774   -0.5513 N   0  0  0  0  0  0  0  0  0  0  0  0
    1.8885    1.8539   -0.2251 N   0  0  0  0  0  0  0  0  0  0  0  0
   -2.1553   -1.5355   -1.4231 C   0  0  0  0  0  0  0  0  0  0  0  0
   -1.6751   -2.0652    0.9373 C   0  0  0  0  0  0  0  0  0  0  0  0
   -3.6484   -1.5250   -1.0892 C   0  0  0  0  0  0  0  0  0  0  0  0
   -3.1784   -2.0432    1.2204 C   0  0  0  0  0  0  0  0  0  0  0  0
   -0.3130   -0.3718   -0.2483 C   0  0  0  0  0  0  0  0  0  0  0  0
   -0.5018    0.9546   -0.0099 C   0  0  0  0  0  0  0  0  0  0  0  0
   -5.3759   -2.4471    0.3161 C   0  0  0  0  0  0  0  0  0  0  0  0
    0.6037    1.9725   -0.2028 C   0  0  0  0  0  0  0  0  0  0  0  0
    2.2120   -0.6078   -0.2742 C   0  0  0  0  0  0  0  0  0  0  0  0
   -1.8145    1.4932    0.3738 C   0  0  0  0  0  0  0  0  0  0  0  0
    2.6433    0.6986   -0.0497 C   0  0  0  0  0  0  0  0  0  0  0  0
    0.1342    3.3893   -0.3899 C   0  0  0  0  0  0  0  0  0  0  0  0
   -2.0992    2.8014    0.3133 C   0  0  0  0  0  0  0  0  0  0  0  0
    3.1569   -1.6559   -0.1651 C   0  0  0  0  0  0  0  0  0  0  0  0
   -1.1281    3.7512   -0.1449 C   0  0  0  0  0  0  0  0  0  0  0  0
    3.9955    0.9216    0.2864 C   0  0  0  0  0  0  0  0  0  0  0  0
    4.4890   -1.4202    0.1689 C   0  0  0  0  0  0  0  0  0  0  0  0
    4.9100   -0.1228    0.4013 C   0  0  0  0  0  0  0  0  0  0  0  0
  1 23  1  0
  2 19  1  0
  3  7  1  0
  3  8  1  0
  3 11  1  0
  4  9  1  0
  4 10  1  0
  4 13  1  0
  5 11  1  0
  5 15  1  0
  6 14  2  0
  6 17  1  0
  7  9  1  0
  8 10  1  0
 11 12  2  0
 12 14  1  0
 12 16  1  0
 14 18  1  0
 15 17  2  0
 15 20  1  0
 16 19  2  0
 17 22  1  0
 18 21  2  0
 19 21  1  0
 20 23  2  0
 22 24  2  0
 23 24  1  0
M  END
>  <PUBCHEM_COMPOUND_CID>  (1) 
49357

>  <PUBCHEM_CONFORMER_RMSD>  (1) 
0.6

>  <PUBCHEM_CONFORMER_DIVERSEORDER>  (1) 
3
2
1
4

>  <PUBCHEM_MMFF94_PARTIAL_CHARGES>  (1) 
32
1 -0.18
10 0.27
11 0.2
12 0.01
13 0.27
14 0.42
15 0.1
16 -0.15
17 0.18
18 -0.14
19 0.08
2 -0.53
20 -0.15
21 -0.15
22 -0.15
23 0.18
24 -0.15
3 -0.84
36 0.4
37 0.15
38 0.15
39 0.15
4 -0.81
40 0.15
41 0.15
42 0.15
43 0.45
5 -0.6
6 -0.63
7 0.37
8 0.37
9 0.27

>  <PUBCHEM_EFFECTIVE_ROTOR_COUNT>  (1) 
2.4

>  <PUBCHEM_PHARMACOPHORE_FEATURES>  (1) 
10
1 2 donor
1 3 cation
1 4 cation
1 5 cation
1 5 donor
1 6 acceptor
6 12 14 16 18 19 21 rings
6 15 17 20 22 23 24 rings
6 3 4 7 8 9 10 rings
7 5 6 11 12 14 15 17 rings

>  <PUBCHEM_HEAVY_ATOM_COUNT>  (1) 
24

>  <PUBCHEM_ATOM_DEF_STEREO_COUNT>  (1) 
0

>  <PUBCHEM_ATOM_UDEF_STEREO_COUNT>  (1) 
0

>  <PUBCHEM_BOND_DEF_STEREO_COUNT>  (1) 
0

>  <PUBCHEM_BOND_UDEF_STEREO_COUNT>  (1) 
0

>  <PUBCHEM_ISOTOPIC_ATOM_COUNT>  (1) 
0

>  <PUBCHEM_COMPONENT_COUNT>  (1) 
1

>  <PUBCHEM_CACTVS_TAUTO_COUNT>  (1) 
6

>  <PUBCHEM_CONFORMER_ID>  (1) 
0000C0CD00000003

>  <PUBCHEM_MMFF94_ENERGY>  (1) 
98.8959

>  <PUBCHEM_FEATURE_SELFOVERLAP>  (1) 
50.816

>  <PUBCHEM_SHAPE_FINGERPRINT>  (1) 
10319926 262 18196914601885749090
10411042 1 18410294739326596839
10670039 82 18335713784448798964
10688039 33 18260546775062305933
1100329 8 18337956679740211617
11045515 52 18261947552770454749
11265709 11 18338800125243031583
11578080 2 17274236440291314233
12107183 9 18341062912659772595
12422481 6 18058752216453164499
12553582 1 18268152148441549726
12788726 201 18338248148957444800
13004483 165 18340477945654114354
13052359 8 18192991517694168397
13134695 92 18195244649137236381
13140716 1 18340205185714394280
13583140 156 14332859136139611390
13690498 29 18270694069534246350
138480 1 15672385025269108709
13911987 19 17467927697547800076
140371 6 18190183579940294040
14178342 30 18264193743773784106
14790565 3 17256254163932863885
14840074 17 17916025848732916638
14866123 147 18192991513299091395
15042514 8 18338519625324448729
15927050 60 17833269718488723779
16087824 20 18338517435936113453
17492 89 18410571756781518354
1813 80 18199764676592884807
18785283 64 17540254671912848821
19591789 44 17401490342693044174
20642791 13 18411699880773882472
20832881 197 18261110824722923555
21041028 32 18339081605058061133
21236236 1 18341047420142555438
21267235 1 18411423938501500470
21279426 13 18261382352512912447
21478907 32 18410291423848727457
21641784 216 18114758121857764444
21703447 108 18338783577573200538
23175994 123 18263081170923854207
23419403 2 17273956060446952369
23536364 44 18262780896943595095
23558518 356 18334021566347100610
23559900 14 18336255838188163210
3091708 16 9062627285191534905
312423 11 18334300855697264598
3421961 26 18194682798294593993
38695281 34 17833831565178907985
44062 13 18124881162390582190
5104073 3 18341320099511619370
5309563 4 18266463294060140618
6443956 14 18191305085705040351
7164475 11 18409731768283019420
79837 15 17982740670895652217
81228 2 18408314488762140057
9709674 26 18127128581136723926

>  <PUBCHEM_SHAPE_MULTIPOLES>  (1) 
469.99
9.79
4.59
0.92
6.25
3.42
-0.06
-9.53
1.34
-3.71
0.37
-0.65
-0.37
-0.3

>  <PUBCHEM_SHAPE_SELFOVERLAP>  (1) 
1013.678

>  <PUBCHEM_SHAPE_VOLUME>  (1) 
257.4

>  <PUBCHEM_COORDINATE_TYPE>  (1) 
2
5
10

$$$$
