49356
     RDKit          3D

 25 28  0  0  0  0  0  0  0  0999 V2000
    5.9451   -2.3941    0.4293 Cl  0  0  0  0  0  0  0  0  0  0  0  0
   -3.3861    3.0197    0.4769 O   0  0  0  0  0  0  0  0  0  0  0  0
   -1.0983   -1.4160   -0.2606 N   0  0  0  0  0  0  0  0  0  0  0  0
   -3.5828   -2.7924   -0.0258 N   0  0  0  0  0  0  0  0  0  0  0  0
    1.1462   -1.0047   -0.5490 N   0  0  0  0  0  0  0  0  0  0  0  0
    1.9308    1.8977   -0.2732 N   0  0  0  0  0  0  0  0  0  0  0  0
   -1.8352   -1.8003   -1.4639 C   0  0  0  0  0  0  0  0  0  0  0  0
   -1.3667   -2.2399    0.9173 C   0  0  0  0  0  0  0  0  0  0  0  0
   -3.3316   -1.8897   -1.1584 C   0  0  0  0  0  0  0  0  0  0  0  0
   -2.8732   -2.3195    1.1715 C   0  0  0  0  0  0  0  0  0  0  0  0
   -0.1051   -0.4805   -0.2835 C   0  0  0  0  0  0  0  0  0  0  0  0
   -0.3931    0.8340   -0.0810 C   0  0  0  0  0  0  0  0  0  0  0  0
   -5.0173   -2.9011    0.2363 C   0  0  0  0  0  0  0  0  0  0  0  0
    0.6406    1.9241   -0.2779 C   0  0  0  0  0  0  0  0  0  0  0  0
    2.4303   -0.5348   -0.2562 C   0  0  0  0  0  0  0  0  0  0  0  0
   -1.7485    1.2854    0.2648 C   0  0  0  0  0  0  0  0  0  0  0  0
    2.7624    0.8040   -0.0556 C   0  0  0  0  0  0  0  0  0  0  0  0
    0.0750    3.2988   -0.5082 C   0  0  0  0  0  0  0  0  0  0  0  0
   -2.1246    2.5680    0.1672 C   0  0  0  0  0  0  0  0  0  0  0  0
    3.4452   -1.5095   -0.1040 C   0  0  0  0  0  0  0  0  0  0  0  0
   -1.2147    3.5744   -0.2957 C   0  0  0  0  0  0  0  0  0  0  0  0
    4.0881    1.1314    0.3002 C   0  0  0  0  0  0  0  0  0  0  0  0
    4.7500   -1.1710    0.2491 C   0  0  0  0  0  0  0  0  0  0  0  0
    5.0724    0.1583    0.4577 C   0  0  0  0  0  0  0  0  0  0  0  0
   -4.2091    1.9575    0.9229 C   0  0  0  0  0  0  0  0  0  0  0  0
  1 23  1  0
  2 19  1  0
  2 25  1  0
  3  7  1  0
  3  8  1  0
  3 11  1  0
  4  9  1  0
  4 10  1  0
  4 13  1  0
  5 11  1  0
  5 15  1  0
  6 14  2  0
  6 17  1  0
  7  9  1  0
  8 10  1  0
 11 12  2  0
 12 14  1  0
 12 16  1  0
 14 18  1  0
 15 17  2  0
 15 20  1  0
 16 19  2  0
 17 22  1  0
 18 21  2  0
 19 21  1  0
 20 23  2  0
 22 24  2  0
 23 24  1  0
M  END
>  <PUBCHEM_COMPOUND_CID>  (1) 
49356

>  <PUBCHEM_CONFORMER_RMSD>  (1) 
0.6

>  <PUBCHEM_CONFORMER_DIVERSEORDER>  (1) 
1
4
3
2
6
5

>  <PUBCHEM_MMFF94_PARTIAL_CHARGES>  (1) 
32
1 -0.18
10 0.27
11 0.2
12 0.01
13 0.27
14 0.42
15 0.1
16 -0.15
17 0.18
18 -0.14
19 0.08
2 -0.36
20 -0.15
21 -0.15
22 -0.15
23 0.18
24 -0.15
25 0.28
3 -0.84
37 0.4
38 0.15
39 0.15
4 -0.81
40 0.15
41 0.15
42 0.15
43 0.15
5 -0.6
6 -0.63
7 0.37
8 0.37
9 0.27

>  <PUBCHEM_EFFECTIVE_ROTOR_COUNT>  (1) 
3.4

>  <PUBCHEM_PHARMACOPHORE_FEATURES>  (1) 
10
1 2 acceptor
1 3 cation
1 4 cation
1 5 cation
1 5 donor
1 6 acceptor
6 12 14 16 18 19 21 rings
6 15 17 20 22 23 24 rings
6 3 4 7 8 9 10 rings
7 5 6 11 12 14 15 17 rings

>  <PUBCHEM_HEAVY_ATOM_COUNT>  (1) 
25

>  <PUBCHEM_ATOM_DEF_STEREO_COUNT>  (1) 
0

>  <PUBCHEM_ATOM_UDEF_STEREO_COUNT>  (1) 
0

>  <PUBCHEM_BOND_DEF_STEREO_COUNT>  (1) 
0

>  <PUBCHEM_BOND_UDEF_STEREO_COUNT>  (1) 
0

>  <PUBCHEM_ISOTOPIC_ATOM_COUNT>  (1) 
0

>  <PUBCHEM_COMPONENT_COUNT>  (1) 
1

>  <PUBCHEM_CACTVS_TAUTO_COUNT>  (1) 
3

>  <PUBCHEM_CONFORMER_ID>  (1) 
0000C0CC00000001

>  <PUBCHEM_MMFF94_ENERGY>  (1) 
109.1898

>  <PUBCHEM_FEATURE_SELFOVERLAP>  (1) 
50.816

>  <PUBCHEM_SHAPE_FINGERPRINT>  (1) 
10319926 262 18269254796171146282
10411042 1 18337953492710850135
10688039 33 18188206627979084661
1100329 8 18409732824565834433
11265709 11 18338517572356188750
11578080 2 17489005159178680864
12422481 6 18057912219703003483
12553582 1 18195250151038042558
12788726 201 18338248179027490612
13004483 165 18340477967218660582
13052359 8 18264766563039844525
13134695 92 18122623027009031503
13140716 1 18411981339082615360
13583140 156 17023744477423485284
138480 1 15960614319067891437
140371 6 18046066218595103672
14178342 30 18336531739088718738
14790565 3 17111577147027162141
14866123 147 18264767670967626035
15042514 8 18410576145604643929
15295992 7 17488725814785466448
15927050 60 17977383828622779322
16087824 20 18410573951937094293
17492 89 18410289208126254762
1813 80 18199201743972384958
19591789 44 17689438178753092078
20261772 1 18338805519827905344
20642791 13 18411979191081807686
20775438 99 16329011798120929871
21041028 32 18266742566139939599
21236236 1 18341891874652181286
21304304 249 18337115545102843669
21478907 32 18410009974652357071
21641784 216 18042416875331604084
21703447 108 18338782499573287042
22182313 1 17774456983373784694
23175994 123 18190458444978446279
23419403 2 17274525637761634849
23536364 44 18262778719368938711
23558518 356 18334864925887855752
25147074 1 18260838111600556332
3091708 16 9133562277878537528
312423 11 18333735728221778494
38695281 34 17977946783403833561
5104073 3 18341320129549932202
5309563 4 18121785190490828586
6004065 56 17979342389765915231
6438718 38 18131626764351307509
7164475 11 18409730694546424708
7471813 234 18055343897778726311
79837 15 18126575509365841289
81228 2 18336534001719143753
9709674 26 18270962315747609414

>  <PUBCHEM_SHAPE_MULTIPOLES>  (1) 
490.56
10.19
4.61
0.95
9.34
1.7
-0.07
-7.08
2.15
-5
0.12
-0.64
-0.37
-0.65

>  <PUBCHEM_SHAPE_SELFOVERLAP>  (1) 
1053.79

>  <PUBCHEM_SHAPE_VOLUME>  (1) 
270.7

>  <PUBCHEM_COORDINATE_TYPE>  (1) 
2
5
10

$$$$
