49354
     RDKit          3D

 29 33  0  0  1  0  0  0  0  0999 V2000
    1.3744    0.0761    0.8727 O   0  0  0  0  0  0  0  0  0  0  0  0
   -1.3765    0.0776    0.8735 O   0  0  0  0  0  0  0  0  0  0  0  0
    0.0017    1.6127   -2.1869 O   0  0  0  0  0  0  0  0  0  0  0  0
    1.9841   -2.5506    0.8679 O   0  0  0  0  0  0  0  0  0  0  0  0
   -1.9882   -2.5479    0.8707 O   0  0  0  0  0  0  0  0  0  0  0  0
   -0.0001    1.7896    1.9329 C   0  0  0  0  0  0  0  0  0  0  0  0
    1.2836    1.4986    1.0848 C   0  0  0  0  0  0  0  0  0  0  0  0
   -1.2837    1.5001    1.0841 C   0  0  0  0  0  0  0  0  0  0  0  0
    1.2920    2.2715   -0.2438 C   0  0  0  0  0  0  0  0  0  0  0  0
   -1.2903    2.2721   -0.2453 C   0  0  0  0  0  0  0  0  0  0  0  0
    0.0012    1.9840   -1.0148 C   0  0  0  0  0  0  0  0  0  0  0  0
    2.5586    1.9482   -1.0362 C   0  0  0  0  0  0  0  0  0  0  0  0
   -2.5560    1.9489   -1.0391 C   0  0  0  0  0  0  0  0  0  0  0  0
    0.0008    3.2708    2.3859 C   0  0  0  0  0  0  0  0  0  0  0  0
   -0.0014    0.9331    3.2191 C   0  0  0  0  0  0  0  0  0  0  0  0
    2.8772    0.4834   -0.9977 C   0  0  0  0  0  0  0  0  0  0  0  0
   -2.8753    0.4843   -1.0005 C   0  0  0  0  0  0  0  0  0  0  0  0
    2.2844   -0.3538   -0.0505 C   0  0  0  0  0  0  0  0  0  0  0  0
   -2.2850   -0.3524   -0.0512 C   0  0  0  0  0  0  0  0  0  0  0  0
    3.7990   -0.0560   -1.9050 C   0  0  0  0  0  0  0  0  0  0  0  0
   -3.7950   -0.0555   -1.9095 C   0  0  0  0  0  0  0  0  0  0  0  0
    2.5769   -1.7201   -0.0363 C   0  0  0  0  0  0  0  0  0  0  0  0
   -2.5784   -1.7185   -0.0362 C   0  0  0  0  0  0  0  0  0  0  0  0
    4.1009   -1.4177   -1.8815 C   0  0  0  0  0  0  0  0  0  0  0  0
   -4.0977   -1.4171   -1.8856 C   0  0  0  0  0  0  0  0  0  0  0  0
    3.4862   -2.2506   -0.9498 C   0  0  0  0  0  0  0  0  0  0  0  0
   -3.4860   -2.2494   -0.9513 C   0  0  0  0  0  0  0  0  0  0  0  0
    2.6523   -2.7330    2.1141 C   0  0  0  0  0  0  0  0  0  0  0  0
   -2.6596   -2.7281    2.1155 C   0  0  0  0  0  0  0  0  0  0  0  0
  1  7  1  0
  1 18  1  0
  2  8  1  0
  2 19  1  0
  3 11  2  0
  4 22  1  0
  4 28  1  0
  5 23  1  0
  5 29  1  0
  6  7  1  0
  6  8  1  0
  6 14  1  0
  6 15  1  0
  7  9  1  0
  8 10  1  0
  9 11  1  0
  9 12  1  0
 10 11  1  0
 10 13  1  0
 12 16  1  0
 13 17  1  0
 16 18  2  0
 16 20  1  0
 17 19  2  0
 17 21  1  0
 18 22  1  0
 19 23  1  0
 20 24  2  0
 21 25  2  0
 22 26  2  0
 23 27  2  0
 24 26  1  0
 25 27  1  0
M  END
>  <PUBCHEM_COMPOUND_CID>  (1) 
49354

>  <PUBCHEM_CONFORMER_RMSD>  (1) 
0.8

>  <PUBCHEM_CONFORMER_DIVERSEORDER>  (1) 
1

>  <PUBCHEM_MMFF94_PARTIAL_CHARGES>  (1) 
32
1 -0.36
10 0.06
11 0.45
12 0.14
13 0.14
16 -0.14
17 -0.14
18 0.08
19 0.08
2 -0.36
20 -0.15
21 -0.15
22 0.08
23 0.08
24 -0.15
25 -0.15
26 -0.15
27 -0.15
28 0.28
29 0.28
3 -0.57
4 -0.36
44 0.15
45 0.15
46 0.15
47 0.15
48 0.15
49 0.15
5 -0.36
7 0.28
8 0.28
9 0.06

>  <PUBCHEM_EFFECTIVE_ROTOR_COUNT>  (1) 
3

>  <PUBCHEM_PHARMACOPHORE_FEATURES>  (1) 
11
1 1 acceptor
1 2 acceptor
1 3 acceptor
1 4 acceptor
1 5 acceptor
3 6 14 15 hydrophobe
6 1 7 9 12 16 18 rings
6 16 18 20 22 24 26 rings
6 17 19 21 23 25 27 rings
6 2 8 10 13 17 19 rings
6 6 7 8 9 10 11 rings

>  <PUBCHEM_HEAVY_ATOM_COUNT>  (1) 
29

>  <PUBCHEM_ATOM_DEF_STEREO_COUNT>  (1) 
4

>  <PUBCHEM_ATOM_UDEF_STEREO_COUNT>  (1) 
0

>  <PUBCHEM_BOND_DEF_STEREO_COUNT>  (1) 
0

>  <PUBCHEM_BOND_UDEF_STEREO_COUNT>  (1) 
0

>  <PUBCHEM_ISOTOPIC_ATOM_COUNT>  (1) 
0

>  <PUBCHEM_COMPONENT_COUNT>  (1) 
1

>  <PUBCHEM_CACTVS_TAUTO_COUNT>  (1) 
2

>  <PUBCHEM_CONFORMER_ID>  (1) 
0000C0CA00000001

>  <PUBCHEM_MMFF94_ENERGY>  (1) 
116.0573

>  <PUBCHEM_FEATURE_SELFOVERLAP>  (1) 
56.06

>  <PUBCHEM_SHAPE_FINGERPRINT>  (1) 
11578080 2 18200577134150699368
12156800 1 15151025396401502130
12363563 72 17703784803898345471
12553582 1 18336551516653623618
12788726 201 17986403191229950249
13583140 156 15215297654336974748
14251757 17 17968098684985794279
14787075 74 17843969371772159076
15664445 248 17971739219820685989
16945 1 18333731316510072304
17980427 26 16981275041994425009
20600515 1 17908674290730590440
20775438 99 17409052109708352039
20775530 9 18343864424340725247
21315764 21 16662594464210806823
21731516 1 17632587075271876721
23419403 2 15033489239611783405
23559900 14 18194661860672541181
238 59 18051680346156839791
24893992 56 17703227292978182633
25222932 49 15763278989301076791
3493558 16 12150273137521449040
35225 105 16984926163242647121
394222 165 15406919492289324665
4280585 95 18261665988021586350
463206 1 18042125362873572106
469060 322 16881077509227587146
474 4 12324778251067243357
484985 159 17344644629475193191
57527585 103 17903109688047523415
70251023 43 18129946792410516471

>  <PUBCHEM_SHAPE_MULTIPOLES>  (1) 
567.46
6.74
3.8
2.7
0.01
0.14
-1.32
5.51
4.33
0
-1.64
-0.01
-0.16
0

>  <PUBCHEM_SHAPE_SELFOVERLAP>  (1) 
1256.259

>  <PUBCHEM_SHAPE_VOLUME>  (1) 
301.7

>  <PUBCHEM_COORDINATE_TYPE>  (1) 
2
5
10

$$$$
