49388
     RDKit          3D

 17 19  0  0  0  0  0  0  0  0999 V2000
    5.6108   -0.0493    0.0003 O   0  0  0  0  0  0  0  0  0  0  0  0
    4.0293   -1.6571   -0.0009 O   0  0  0  0  0  0  0  0  0  0  0  0
    3.4575    0.6260    0.0016 N   0  0  0  0  0  0  0  0  0  0  0  0
   -0.9906   -1.6908   -0.0002 C   0  0  0  0  0  0  0  0  0  0  0  0
   -0.0176   -0.5302   -0.0007 C   0  0  0  0  0  0  0  0  0  0  0  0
   -0.7143    0.6992   -0.0009 C   0  0  0  0  0  0  0  0  0  0  0  0
   -2.3251   -0.9749   -0.0003 C   0  0  0  0  0  0  0  0  0  0  0  0
   -2.1353    0.4252   -0.0007 C   0  0  0  0  0  0  0  0  0  0  0  0
    1.3654   -0.5775   -0.0005 C   0  0  0  0  0  0  0  0  0  0  0  0
   -0.0233    1.8993   -0.0006 C   0  0  0  0  0  0  0  0  0  0  0  0
   -3.5915   -1.5329    0.0006 C   0  0  0  0  0  0  0  0  0  0  0  0
   -3.2229    1.2827   -0.0002 C   0  0  0  0  0  0  0  0  0  0  0  0
    2.0616    0.6324   -0.0001 C   0  0  0  0  0  0  0  0  0  0  0  0
    1.3744    1.8585    0.0001 C   0  0  0  0  0  0  0  0  0  0  0  0
   -4.6876   -0.6684    0.0011 C   0  0  0  0  0  0  0  0  0  0  0  0
   -4.5052    0.7253    0.0006 C   0  0  0  0  0  0  0  0  0  0  0  0
    4.3144   -0.4675    0.0007 C   0  0  0  0  0  0  0  0  0  0  0  0
  1 17  1  0
  2 17  2  0
  3 13  1  0
  3 17  1  0
  4  5  1  0
  4  7  1  0
  5  6  2  0
  5  9  1  0
  6  8  1  0
  6 10  1  0
  7  8  2  0
  7 11  1  0
  8 12  1  0
  9 13  2  0
 10 14  2  0
 11 15  2  0
 12 16  2  0
 13 14  1  0
 15 16  1  0
M  END
>  <PUBCHEM_COMPOUND_CID>  (1) 
49388

>  <PUBCHEM_CONFORMER_RMSD>  (1) 
0.6

>  <PUBCHEM_CONFORMER_DIVERSEORDER>  (1) 
1
3
2
4

>  <PUBCHEM_MMFF94_PARTIAL_CHARGES>  (1) 
24
1 -0.65
10 -0.15
11 -0.15
12 -0.15
13 0.12
14 -0.15
15 -0.15
16 -0.15
17 0.78
2 -0.57
20 0.15
21 0.15
22 0.15
23 0.15
24 0.15
25 0.15
26 0.15
27 0.37
28 0.5
3 -0.55
4 0.29
5 -0.14
7 -0.14
9 -0.15

>  <PUBCHEM_EFFECTIVE_ROTOR_COUNT>  (1) 
2.2

>  <PUBCHEM_PHARMACOPHORE_FEATURES>  (1) 
6
1 2 acceptor
1 3 donor
3 1 2 17 anion
5 4 5 6 7 8 rings
6 5 6 9 10 13 14 rings
6 7 8 11 12 15 16 rings

>  <PUBCHEM_HEAVY_ATOM_COUNT>  (1) 
17

>  <PUBCHEM_ATOM_DEF_STEREO_COUNT>  (1) 
0

>  <PUBCHEM_ATOM_UDEF_STEREO_COUNT>  (1) 
0

>  <PUBCHEM_BOND_DEF_STEREO_COUNT>  (1) 
0

>  <PUBCHEM_BOND_UDEF_STEREO_COUNT>  (1) 
0

>  <PUBCHEM_ISOTOPIC_ATOM_COUNT>  (1) 
0

>  <PUBCHEM_COMPONENT_COUNT>  (1) 
1

>  <PUBCHEM_CACTVS_TAUTO_COUNT>  (1) 
2

>  <PUBCHEM_CONFORMER_ID>  (1) 
0000C0EC00000001

>  <PUBCHEM_MMFF94_ENERGY>  (1) 
56.3182

>  <PUBCHEM_FEATURE_SELFOVERLAP>  (1) 
30.61

>  <PUBCHEM_SHAPE_FINGERPRINT>  (1) 
10062212 137 18342452660295636855
10968037 39 18408889551187506660
11401426 45 18413105060923911741
12032990 46 18410294726388440729
12236239 1 17821729425337751432
12403259 226 18340481296409126273
124424 183 18335421283351327321
12715332 25 18059575845019923191
13140716 1 18339932622873996321
13288520 33 18411983559121576630
13675066 3 18271522086781529833
13690532 89 18410575093263582513
13862211 1 18410569582831468006
14115302 16 17822583784210929550
15042514 8 18266462203808386363
15099037 51 18409446986017856495
15196674 1 18410855498872785089
15442244 35 18411420639338752609
15536298 74 18342174522297570552
16945 1 18050568748907369221
17804303 29 18412265060016017829
1813 80 17458064846296536670
18186145 218 17531237404932843629
18522853 276 18342739623897562953
19141452 34 18201719578365868559
200 152 17989484134896242327
21029758 11 18342736321131223785
21267235 1 18410301323490128747
21279426 13 18194119607844090375
221490 88 18191030203656116483
2297311 6 18272663320507687284
23175994 123 17418379098904193801
23366157 5 17898003783739121860
23402539 116 18272081695324209055
23463225 33 18409730672670661420
23559900 14 18342734161227001624
296302 2 9511468822807994893
3004659 81 18187930535177047070
335352 9 18410855456571920061
4214541 1 18410856551181996609
4463277 17 18410294727005872548
5104073 3 18411701027561910409
559249 180 18334851667445496218
69090 78 18273210928358028671
7364860 26 18196934589998951112
77779 3 18409450305742713537
8809292 202 18261115231148060875
9709674 26 18192150623295628043
9981440 41 17255118372547365080

>  <PUBCHEM_SHAPE_MULTIPOLES>  (1) 
333.13
9.62
1.83
0.6
5.76
0.15
0
-2.03
0
-0.26
0
-0.07
0.01
0

>  <PUBCHEM_SHAPE_SELFOVERLAP>  (1) 
743.792

>  <PUBCHEM_SHAPE_VOLUME>  (1) 
178.4

>  <PUBCHEM_COORDINATE_TYPE>  (1) 
2
5
10

$$$$
