49399
     RDKit          3D

 23 25  0  0  1  0  0  0  0  0999 V2000
   -4.0357    3.3625   -1.5236 Cl  0  0  0  0  0  0  0  0  0  0  0  0
    4.2447    1.7718    0.2237 N   0  0  0  0  0  0  0  0  0  0  0  0
    2.0191    0.8694    0.8608 C   0  0  0  0  0  0  0  0  0  0  0  0
    2.8025    1.9175    0.0510 C   0  0  0  0  0  0  0  0  0  0  0  0
   -0.2844    0.1743    0.1272 C   0  0  0  0  0  0  0  0  0  0  0  0
    0.5427    1.0888    0.6674 C   0  0  0  0  0  0  0  0  0  0  0  0
   -1.7320    0.4780    0.0640 C   0  0  0  0  0  0  0  0  0  0  0  0
    0.2798   -1.1245   -0.3043 C   0  0  0  0  0  0  0  0  0  0  0  0
    2.3492    0.9303    2.3555 C   0  0  0  0  0  0  0  0  0  0  0  0
   -2.6829   -0.3864    0.6395 C   0  0  0  0  0  0  0  0  0  0  0  0
   -0.2301   -2.3402    0.1904 C   0  0  0  0  0  0  0  0  0  0  0  0
   -2.1681    1.6333   -0.6118 C   0  0  0  0  0  0  0  0  0  0  0  0
    1.3211   -1.1463   -1.2510 C   0  0  0  0  0  0  0  0  0  0  0  0
   -2.3349   -1.6031    1.3937 C   0  0  0  0  0  0  0  0  0  0  0  0
   -1.2959   -2.4309    1.2035 C   0  0  0  0  0  0  0  0  0  0  0  0
    4.9586    2.8134   -0.5156 C   0  0  0  0  0  0  0  0  0  0  0  0
    4.6832    0.4459   -0.2137 C   0  0  0  0  0  0  0  0  0  0  0  0
   -4.0458   -0.0489    0.5574 C   0  0  0  0  0  0  0  0  0  0  0  0
    0.3453   -3.5466   -0.2470 C   0  0  0  0  0  0  0  0  0  0  0  0
   -3.5248    1.9434   -0.6954 C   0  0  0  0  0  0  0  0  0  0  0  0
    1.8684   -2.3530   -1.6842 C   0  0  0  0  0  0  0  0  0  0  0  0
   -4.4634    1.1041   -0.1078 C   0  0  0  0  0  0  0  0  0  0  0  0
    1.3831   -3.5530   -1.1794 C   0  0  0  0  0  0  0  0  0  0  0  0
  1 20  1  0
  2  4  1  0
  2 16  1  0
  2 17  1  0
  3  4  1  0
  3  6  1  0
  3  9  1  0
  5  6  2  0
  5  7  1  0
  5  8  1  0
  7 10  2  0
  7 12  1  0
  8 11  2  0
  8 13  1  0
 10 14  1  0
 10 18  1  0
 11 15  1  0
 11 19  1  0
 12 20  2  0
 13 21  2  0
 14 15  2  0
 18 22  2  0
 19 23  2  0
 20 22  1  0
 21 23  1  0
M  END
>  <PUBCHEM_COMPOUND_CID>  (1) 
49399

>  <PUBCHEM_CONFORMER_RMSD>  (1) 
0.6

>  <PUBCHEM_CONFORMER_DIVERSEORDER>  (1) 
4
8
7
10
12
5
2
6
9
3
1
11

>  <PUBCHEM_MMFF94_PARTIAL_CHARGES>  (1) 
32
1 -0.18
10 0.03
11 0.03
12 -0.15
13 -0.15
14 -0.18
15 -0.18
16 0.27
17 0.27
18 -0.15
19 -0.15
2 -0.81
20 0.18
21 -0.15
22 -0.15
23 -0.15
27 0.15
3 0.14
31 0.15
32 0.15
33 0.15
34 0.15
4 0.27
41 0.15
42 0.15
43 0.15
44 0.15
45 0.15
5 -0.06
6 -0.29
7 0.03
8 0.03

>  <PUBCHEM_EFFECTIVE_ROTOR_COUNT>  (1) 
3

>  <PUBCHEM_PHARMACOPHORE_FEATURES>  (1) 
5
1 2 cation
1 9 hydrophobe
6 7 10 12 18 20 22 rings
6 8 11 13 19 21 23 rings
7 5 7 8 10 11 14 15 rings

>  <PUBCHEM_HEAVY_ATOM_COUNT>  (1) 
23

>  <PUBCHEM_ATOM_DEF_STEREO_COUNT>  (1) 
0

>  <PUBCHEM_ATOM_UDEF_STEREO_COUNT>  (1) 
1

>  <PUBCHEM_BOND_DEF_STEREO_COUNT>  (1) 
0

>  <PUBCHEM_BOND_UDEF_STEREO_COUNT>  (1) 
1

>  <PUBCHEM_ISOTOPIC_ATOM_COUNT>  (1) 
0

>  <PUBCHEM_COMPONENT_COUNT>  (1) 
1

>  <PUBCHEM_CACTVS_TAUTO_COUNT>  (1) 
1

>  <PUBCHEM_CONFORMER_ID>  (1) 
0000C0F700000004

>  <PUBCHEM_MMFF94_ENERGY>  (1) 
83.8239

>  <PUBCHEM_FEATURE_SELFOVERLAP>  (1) 
25.386

>  <PUBCHEM_SHAPE_FINGERPRINT>  (1) 
10165383 225 17985287375947873891
105312 117 18338234972504638116
107951 10 18113907108447715434
10906281 52 18188215390166328081
11370993 70 18410859871418407692
11578080 2 18267039271139721289
12293681 160 17324943459843588331
12788726 201 17830999588102350442
13004483 165 17046237543053560738
133893 2 18056774130151213842
13681431 1 17699292062138443422
15163728 17 18261405398817299660
15230672 131 18408891759523422662
16752209 62 18053931025179018618
17980427 26 17900802882882291959
1813 80 16412677631453724023
18915476 22 18201166459782361639
21033648 29 18200865300965960960
21859007 373 18336531743558571052
22182313 1 18261407607010017075
22907989 373 17976245056582146676
23114952 82 18268710502690429877
23419403 2 17412232850395612934
23493267 7 18333446573284471128
23559900 14 18121780530287275462
23598288 3 18117823611851903936
238 59 17988915661060970943
2748010 2 18193582118937490491
3298306 158 18413671296986283126
469060 322 12397132807560346568
495365 180 18126549142772132909
5265222 85 18195261133881400436
59755656 215 18272088318775754527
6138700 20 18198347261072929358
81228 2 17264667596848304082
9862522 239 18269271442551612354

>  <PUBCHEM_SHAPE_MULTIPOLES>  (1) 
470.22
8.23
4.32
1.52
1.13
1.81
-0.27
-9.15
1.11
1.24
1.6
0.27
0.18
2.47

>  <PUBCHEM_SHAPE_SELFOVERLAP>  (1) 
1002.378

>  <PUBCHEM_SHAPE_VOLUME>  (1) 
262.5

>  <PUBCHEM_COORDINATE_TYPE>  (1) 
2
5
10

$$$$
