49396
     RDKit          3D

 24 27  0  0  0  0  0  0  0  0999 V2000
    3.6834    0.6304    0.4256 N   0  0  0  0  0  0  0  0  0  0  0  0
    4.1674    0.5995   -0.9617 C   0  0  0  0  0  0  0  0  0  0  0  0
    4.6262    1.3404    1.3013 C   0  0  0  0  0  0  0  0  0  0  0  0
    5.5304   -0.0879   -1.0553 C   0  0  0  0  0  0  0  0  0  0  0  0
    6.0042    0.6770    1.2819 C   0  0  0  0  0  0  0  0  0  0  0  0
    6.5507    0.5760   -0.1375 C   0  0  0  0  0  0  0  0  0  0  0  0
    2.3592    1.2481    0.4917 C   0  0  0  0  0  0  0  0  0  0  0  0
    1.3537    0.4335   -0.3212 C   0  0  0  0  0  0  0  0  0  0  0  0
   -1.1515    0.3261   -0.3144 C   0  0  0  0  0  0  0  0  0  0  0  0
   -0.0109    1.0404   -0.2477 C   0  0  0  0  0  0  0  0  0  0  0  0
   -2.4598    1.0279   -0.2313 C   0  0  0  0  0  0  0  0  0  0  0  0
   -1.0076   -1.1441   -0.3626 C   0  0  0  0  0  0  0  0  0  0  0  0
   -3.5077   -0.6351    1.4910 C   0  0  0  0  0  0  0  0  0  0  0  0
   -2.1653   -1.2579    1.8774 C   0  0  0  0  0  0  0  0  0  0  0  0
   -3.5215    0.5867    0.5892 C   0  0  0  0  0  0  0  0  0  0  0  0
   -1.4950   -1.9209    0.7015 C   0  0  0  0  0  0  0  0  0  0  0  0
   -2.6633    2.1581   -1.0539 C   0  0  0  0  0  0  0  0  0  0  0  0
   -0.3976   -1.7722   -1.4594 C   0  0  0  0  0  0  0  0  0  0  0  0
   -4.7396    1.3022    0.5612 C   0  0  0  0  0  0  0  0  0  0  0  0
   -1.3576   -3.3155    0.6552 C   0  0  0  0  0  0  0  0  0  0  0  0
   -3.8726    2.8528   -1.0557 C   0  0  0  0  0  0  0  0  0  0  0  0
   -0.2673   -3.1603   -1.4934 C   0  0  0  0  0  0  0  0  0  0  0  0
   -4.9123    2.4254   -0.2450 C   0  0  0  0  0  0  0  0  0  0  0  0
   -0.7458   -3.9308   -0.4369 C   0  0  0  0  0  0  0  0  0  0  0  0
  1  2  1  0
  1  3  1  0
  1  7  1  0
  2  4  1  0
  3  5  1  0
  4  6  1  0
  5  6  1  0
  7  8  1  0
  8 10  1  0
  9 10  2  3
  9 11  1  0
  9 12  1  0
 11 15  2  0
 11 17  1  0
 12 16  2  0
 12 18  1  0
 13 14  1  0
 13 15  1  0
 14 16  1  0
 15 19  1  0
 16 20  1  0
 17 21  2  0
 18 22  2  0
 19 23  2  0
 20 24  2  0
 21 23  1  0
 22 24  1  0
M  END
>  <PUBCHEM_COMPOUND_CID>  (1) 
49396

>  <PUBCHEM_CONFORMER_RMSD>  (1) 
0.8

>  <PUBCHEM_CONFORMER_DIVERSEORDER>  (1) 
1
5
30
17
19
27
11
6
29
15
12
21
32
13
18
25
22
23
31
3
26
4
24
10
14
28
16
20
8
9
2
7

>  <PUBCHEM_MMFF94_PARTIAL_CHARGES>  (1) 
30
1 -0.81
10 -0.29
11 0.03
12 0.03
13 0.14
14 0.14
15 -0.14
16 -0.14
17 -0.15
18 -0.15
19 -0.15
2 0.27
20 -0.15
21 -0.15
22 -0.15
23 -0.15
24 -0.15
3 0.27
39 0.15
44 0.15
45 0.15
46 0.15
47 0.15
48 0.15
49 0.15
50 0.15
51 0.15
7 0.27
8 0.14
9 -0.06

>  <PUBCHEM_EFFECTIVE_ROTOR_COUNT>  (1) 
4.6

>  <PUBCHEM_PHARMACOPHORE_FEATURES>  (1) 
5
1 1 cation
6 1 2 3 4 5 6 rings
6 11 15 17 19 21 23 rings
6 12 16 18 20 22 24 rings
7 9 11 12 13 14 15 16 rings

>  <PUBCHEM_HEAVY_ATOM_COUNT>  (1) 
24

>  <PUBCHEM_ATOM_DEF_STEREO_COUNT>  (1) 
0

>  <PUBCHEM_ATOM_UDEF_STEREO_COUNT>  (1) 
0

>  <PUBCHEM_BOND_DEF_STEREO_COUNT>  (1) 
0

>  <PUBCHEM_BOND_UDEF_STEREO_COUNT>  (1) 
0

>  <PUBCHEM_ISOTOPIC_ATOM_COUNT>  (1) 
0

>  <PUBCHEM_COMPONENT_COUNT>  (1) 
1

>  <PUBCHEM_CACTVS_TAUTO_COUNT>  (1) 
1

>  <PUBCHEM_CONFORMER_ID>  (1) 
0000C0F400000001

>  <PUBCHEM_MMFF94_ENERGY>  (1) 
67.1622

>  <PUBCHEM_FEATURE_SELFOVERLAP>  (1) 
25.386

>  <PUBCHEM_SHAPE_FINGERPRINT>  (1) 
105312 117 18410853248272856188
10764073 3 16738310069093861483
107951 10 18041005015985157034
11370993 144 17632027441819191642
11405975 8 18339917234217379208
11524674 6 18343861100193812790
11578080 2 18125451817757763905
11720765 8 16763077020119795367
12166972 35 12175615188303088282
12597179 24 18335703785046956171
12643181 29 18341896269622504926
13004483 165 17765145468691095775
13540713 4 17754466656065768229
14840074 17 13479144488262435762
15042514 8 18192156121133679635
15230672 131 18335143034792686446
15927050 60 18412259506418368630
16994733 274 16056887888541086291
17980427 23 17458072555953016629
17980427 26 17610886904197654597
20554085 129 18127107728822933073
20567600 254 18336259042777507645
21033648 29 18271795822502285624
22182313 1 18267889231791964239
22224240 67 18413392025765950521
23559900 14 17972336026552804854
23598288 3 18189341340974195916
23728640 28 18337666528850110539
3298306 158 18340209587771140158
3411729 13 18045778988520640897
3729539 64 17983872090173002462
4015057 19 16988552559229887896
4371632 12 16773500166690714258
484985 159 17969769964077432274
508706 21 18340495555421072142
5265222 85 18264223563984655134
532947 4 18198349459236400374
5364581 5 17981590878740129872
5385378 56 18196381320853985185
59755656 520 18411691076191211365
6669772 16 18271527481319126022
9862522 239 18409165519662923659
9981440 41 18336549309583642497

>  <PUBCHEM_SHAPE_MULTIPOLES>  (1) 
488.93
12.29
3.75
1.47
20.92
3.67
-0.19
-9.89
-1.92
-4.34
1.01
0.03
0.38
1.66

>  <PUBCHEM_SHAPE_SELFOVERLAP>  (1) 
1051.297

>  <PUBCHEM_SHAPE_VOLUME>  (1) 
266.6

>  <PUBCHEM_COORDINATE_TYPE>  (1) 
2
5
10

$$$$
