49395
     RDKit          3D

 23 26  0  0  1  0  0  0  0  0999 V2000
    4.0057    0.6012   -1.0152 N   0  0  0  0  0  0  0  0  0  0  0  0
    1.8719    0.7119    0.2351 C   0  0  0  0  0  0  0  0  0  0  0  0
    2.5652    1.4327    1.3897 C   0  0  0  0  0  0  0  0  0  0  0  0
    2.5871    0.9781   -1.0943 C   0  0  0  0  0  0  0  0  0  0  0  0
    4.0526    1.0979    1.4074 C   0  0  0  0  0  0  0  0  0  0  0  0
    4.6960    1.3511    0.0434 C   0  0  0  0  0  0  0  0  0  0  0  0
    0.4482    1.1665    0.1316 C   0  0  0  0  0  0  0  0  0  0  0  0
   -0.6108    0.3451    0.2689 C   0  0  0  0  0  0  0  0  0  0  0  0
   -1.9858    0.8984    0.1478 C   0  0  0  0  0  0  0  0  0  0  0  0
   -0.3136   -1.0939    0.4300 C   0  0  0  0  0  0  0  0  0  0  0  0
    4.6642    0.8120   -2.3043 C   0  0  0  0  0  0  0  0  0  0  0  0
   -2.9994    0.2853   -0.6216 C   0  0  0  0  0  0  0  0  0  0  0  0
   -0.7220   -1.9988   -0.5637 C   0  0  0  0  0  0  0  0  0  0  0  0
   -2.8621   -0.9965   -1.4244 C   0  0  0  0  0  0  0  0  0  0  0  0
   -1.4638   -1.5043   -1.7789 C   0  0  0  0  0  0  0  0  0  0  0  0
   -2.3024    2.0638    0.8806 C   0  0  0  0  0  0  0  0  0  0  0  0
    0.3640   -1.5663    1.5645 C   0  0  0  0  0  0  0  0  0  0  0  0
   -4.2853    0.8706   -0.6347 C   0  0  0  0  0  0  0  0  0  0  0  0
   -0.4392   -3.3635   -0.4103 C   0  0  0  0  0  0  0  0  0  0  0  0
   -3.5774    2.6275    0.8426 C   0  0  0  0  0  0  0  0  0  0  0  0
    0.6388   -2.9263    1.7053 C   0  0  0  0  0  0  0  0  0  0  0  0
   -4.5705    2.0310    0.0818 C   0  0  0  0  0  0  0  0  0  0  0  0
    0.2386   -3.8235    0.7187 C   0  0  0  0  0  0  0  0  0  0  0  0
  1  4  1  0
  1  6  1  0
  1 11  1  0
  2  3  1  0
  2  4  1  0
  2  7  1  0
  3  5  1  0
  5  6  1  0
  7  8  2  3
  8  9  1  0
  8 10  1  0
  9 12  2  0
  9 16  1  0
 10 13  2  0
 10 17  1  0
 12 14  1  0
 12 18  1  0
 13 15  1  0
 13 19  1  0
 14 15  1  0
 16 20  2  0
 17 21  2  0
 18 22  2  0
 19 23  2  0
 20 22  1  0
 21 23  1  0
M  END
>  <PUBCHEM_COMPOUND_CID>  (1) 
49395

>  <PUBCHEM_CONFORMER_RMSD>  (1) 
0.6

>  <PUBCHEM_CONFORMER_DIVERSEORDER>  (1) 
2
14
1
6
11
12
13
7
10
8
9
4
5
3

>  <PUBCHEM_MMFF94_PARTIAL_CHARGES>  (1) 
30
1 -0.81
10 0.03
11 0.27
12 -0.14
13 -0.14
14 0.14
15 0.14
16 -0.15
17 -0.15
18 -0.15
19 -0.15
2 0.14
20 -0.15
21 -0.15
22 -0.15
23 -0.15
33 0.15
4 0.27
41 0.15
42 0.15
43 0.15
44 0.15
45 0.15
46 0.15
47 0.15
48 0.15
6 0.27
7 -0.29
8 -0.06
9 0.03

>  <PUBCHEM_EFFECTIVE_ROTOR_COUNT>  (1) 
2.6

>  <PUBCHEM_PHARMACOPHORE_FEATURES>  (1) 
5
1 1 cation
6 1 2 3 4 5 6 rings
6 10 13 17 19 21 23 rings
6 9 12 16 18 20 22 rings
7 8 9 10 12 13 14 15 rings

>  <PUBCHEM_HEAVY_ATOM_COUNT>  (1) 
23

>  <PUBCHEM_ATOM_DEF_STEREO_COUNT>  (1) 
0

>  <PUBCHEM_ATOM_UDEF_STEREO_COUNT>  (1) 
1

>  <PUBCHEM_BOND_DEF_STEREO_COUNT>  (1) 
0

>  <PUBCHEM_BOND_UDEF_STEREO_COUNT>  (1) 
0

>  <PUBCHEM_ISOTOPIC_ATOM_COUNT>  (1) 
0

>  <PUBCHEM_COMPONENT_COUNT>  (1) 
1

>  <PUBCHEM_CACTVS_TAUTO_COUNT>  (1) 
1

>  <PUBCHEM_CONFORMER_ID>  (1) 
0000C0F300000002

>  <PUBCHEM_MMFF94_ENERGY>  (1) 
72.3262

>  <PUBCHEM_FEATURE_SELFOVERLAP>  (1) 
25.386

>  <PUBCHEM_SHAPE_FINGERPRINT>  (1) 
10190108 129 18265347256326397467
10291535 26 18124871524130256488
10382601 240 18117563929127991137
10764073 3 17336527055270856226
107951 10 18338252525698418870
11578080 2 17176077406936549025
12160290 23 17898843818874788114
12422481 6 17539655073034997194
12644460 14 18124888850307695609
12788726 201 17829616406542767306
13135754 10 17242761893676103586
13140716 1 18337945680217820387
133893 2 17899414190678948257
14251751 93 18272087227632515383
14251757 17 17203615869301451660
14468879 13 17917149523999589550
14955137 171 17980477858780564674
15534591 1 18412260644900257951
16752209 62 18190173683987569114
16945 1 18197494232426192539
200 152 14117807916084312108
20567600 347 18410014303921622511
20600515 1 17184134915633445313
20645476 183 18114470066468376780
21524375 3 18411419479628939521
22907989 373 17903091258299775390
23366157 5 17900543376388934963
23419403 2 17259406111550081291
23557571 272 17907012138513755624
23558518 356 18051401061576585288
23559900 14 17412460235260910367
25147074 1 18057028122434121709
25265897 201 17469661472596896468
266924 78 17899670424412994087
3759504 43 18187938308059920392
394222 165 18268711602265166787
4015057 19 17346612884897683344
404807 14 15690993302446016286
4340502 62 17967819302375393385
469060 322 14275711151660095740
474 4 18187647955491277929
59755656 215 18343301513627409687
6138700 20 18122634842939381518
633830 44 18272646852912627381
7364860 26 18125151628832752763
81228 2 18053380186869692489
81539 233 18188209784632373265
9709674 26 17915738884946497132

>  <PUBCHEM_SHAPE_MULTIPOLES>  (1) 
468.35
8.16
3.75
1.73
3.68
3.89
0.38
-8.23
2.29
-1.35
-1.24
1.34
0.31
-1.19

>  <PUBCHEM_SHAPE_SELFOVERLAP>  (1) 
1016.457

>  <PUBCHEM_SHAPE_VOLUME>  (1) 
251.2

>  <PUBCHEM_COORDINATE_TYPE>  (1) 
2
5
10

$$$$
