49393
     RDKit          3D

 22 24  0  0  1  0  0  0  0  0999 V2000
   -2.1457    1.2419   -0.2826 O   0  0  0  0  0  0  0  0  0  0  0  0
   -0.7227    0.4543    1.3929 O   0  0  0  0  0  0  0  0  0  0  0  0
   -4.9073   -1.6786    0.5767 O   0  0  0  0  0  0  0  0  0  0  0  0
   -2.1629   -2.0087    1.4111 O   0  0  0  0  0  0  0  0  0  0  0  0
   -5.0343   -0.2069   -1.9753 O   0  0  0  0  0  0  0  0  0  0  0  0
    4.9319   -2.2004   -0.8231 O   0  0  0  0  0  0  0  0  0  0  0  0
    3.0883   -3.0126    0.0593 O   0  0  0  0  0  0  0  0  0  0  0  0
    0.3128    1.2471    0.8669 N   0  0  0  0  0  0  0  0  0  0  0  0
    3.7860   -2.0495   -0.3377 N   0  0  0  0  0  0  0  0  0  0  0  0
   -3.7882   -1.1123   -0.1063 C   0  0  0  0  0  0  0  0  0  0  0  0
   -2.7152   -0.7831    0.9312 C   0  0  0  0  0  0  0  0  0  0  0  0
   -4.2302    0.1445   -0.8550 C   0  0  0  0  0  0  0  0  0  0  0  0
   -1.6004    0.0766    0.3332 C   0  0  0  0  0  0  0  0  0  0  0  0
   -3.0218    0.9218   -1.3576 C   0  0  0  0  0  0  0  0  0  0  0  0
    1.4988    0.7608    0.3945 C   0  0  0  0  0  0  0  0  0  0  0  0
    2.2381    1.8658   -0.0331 C   0  0  0  0  0  0  0  0  0  0  0  0
    0.2546    2.6006    0.7640 C   0  0  0  0  0  0  0  0  0  0  0  0
    1.4404    3.0196    0.2062 C   0  0  0  0  0  0  0  0  0  0  0  0
    1.9813   -0.5500    0.3079 C   0  0  0  0  0  0  0  0  0  0  0  0
    3.5218    1.6548   -0.5740 C   0  0  0  0  0  0  0  0  0  0  0  0
    3.2573   -0.7349   -0.2322 C   0  0  0  0  0  0  0  0  0  0  0  0
    4.0174    0.3491   -0.6670 C   0  0  0  0  0  0  0  0  0  0  0  0
  1 13  1  0
  1 14  1  0
  2  8  1  0
  2 13  1  0
  3 10  1  0
  4 11  1  0
  5 12  1  0
  6  9  1  0
  7  9  2  0
  8 15  1  0
  8 17  1  0
  9 21  1  0
 10 11  1  0
 10 12  1  0
 11 13  1  0
 12 14  1  0
 15 16  2  0
 15 19  1  0
 16 18  1  0
 16 20  1  0
 17 18  2  0
 19 21  2  0
 20 22  2  0
 21 22  1  0
M  CHG  2   6  -1   9   1
M  END
>  <PUBCHEM_COMPOUND_CID>  (1) 
49393

>  <PUBCHEM_CONFORMER_RMSD>  (1) 
0.6

>  <PUBCHEM_CONFORMER_DIVERSEORDER>  (1) 
1
17
41
3
18
39
37
32
21
27
26
24
19
33
38
30
40
23
36
15
29
13
28
34
9
14
7
6
2
22
20
25
31
16
11
10
35
12
4
8
5

>  <PUBCHEM_MMFF94_PARTIAL_CHARGES>  (1) 
29
1 -0.56
10 0.28
11 0.28
12 0.28
13 0.56
14 0.28
15 -0.15
17 -0.3
18 -0.15
19 -0.15
2 -0.42
20 -0.15
21 0.13
22 -0.15
29 0.4
3 -0.68
30 0.4
31 0.4
32 0.15
33 0.15
34 0.15
35 0.15
36 0.15
4 -0.68
5 -0.68
6 -0.52
7 -0.52
8 0.44
9 0.91

>  <PUBCHEM_EFFECTIVE_ROTOR_COUNT>  (1) 
4.2

>  <PUBCHEM_PHARMACOPHORE_FEATURES>  (1) 
13
1 1 acceptor
1 3 acceptor
1 3 donor
1 4 acceptor
1 4 donor
1 5 acceptor
1 5 donor
1 6 acceptor
1 6 anion
1 7 acceptor
5 8 15 16 17 18 rings
6 1 10 11 12 13 14 rings
6 15 16 19 20 21 22 rings

>  <PUBCHEM_HEAVY_ATOM_COUNT>  (1) 
22

>  <PUBCHEM_ATOM_DEF_STEREO_COUNT>  (1) 
2

>  <PUBCHEM_ATOM_UDEF_STEREO_COUNT>  (1) 
2

>  <PUBCHEM_BOND_DEF_STEREO_COUNT>  (1) 
0

>  <PUBCHEM_BOND_UDEF_STEREO_COUNT>  (1) 
0

>  <PUBCHEM_ISOTOPIC_ATOM_COUNT>  (1) 
0

>  <PUBCHEM_COMPONENT_COUNT>  (1) 
1

>  <PUBCHEM_CACTVS_TAUTO_COUNT>  (1) 
1

>  <PUBCHEM_CONFORMER_ID>  (1) 
0000C0F100000001

>  <PUBCHEM_MMFF94_ENERGY>  (1) 
53.8723

>  <PUBCHEM_FEATURE_SELFOVERLAP>  (1) 
66.153

>  <PUBCHEM_SHAPE_FINGERPRINT>  (1) 
10498660 4 16878488116821685469
10730089 88 18114461176213154469
11640471 11 13118274914749542153
12363563 72 18272376325975735782
12390115 104 8573555747782328298
12553582 1 18266192634185127818
12623949 98 17906479932037135051
12670546 177 17822295742255909132
12892183 10 12823297875230855700
13533116 47 18199755902755232379
13544592 145 18260544528857511967
13544653 18 18060415790135427184
13911987 19 17976279137839594092
14251757 17 18259984872701012307
14576447 43 18272089413844890900
14848160 33 18342742909658424870
14866123 147 17836933291405923457
15537594 2 18130513044871638983
15635459 17 18336269058071165803
17349148 13 16988565731809908999
18186145 218 17894631435310032857
193927 3 17988371368851886558
200 152 18059860605472398993
20626108 58 17845923070072708573
20645477 70 18336829787637303834
20671657 53 18341901787500172952
21033650 10 16878226355423246228
221357 26 18408318883046044149
221490 88 18336554918515551138
23114952 82 18187650270468763884
23526113 38 18260554449899819416
23557571 272 17532090673522592777
23559900 14 18334290993914256560
23596394 208 18260263074828285991
2838139 119 15793722147123716652
3004659 81 18260547788674691378
3323516 105 18335137647985065361
4280585 95 18189895315084642018
46194498 28 17678183891300804205
463206 1 18343016722282032799
5161694 15 18186796985210393549
5281201 14 18041281053633172725
59682541 52 18269813429470977453
6669772 16 17911531097435320196
960060 61 18412539924869242405
9709674 26 18261956365985576939

>  <PUBCHEM_SHAPE_MULTIPOLES>  (1) 
401.7
9.87
2.96
1.21
4.79
0.24
-0.17
5.5
-3.85
-3.17
0.33
1.23
0.01
1.08

>  <PUBCHEM_SHAPE_SELFOVERLAP>  (1) 
870.872

>  <PUBCHEM_SHAPE_VOLUME>  (1) 
218.8

>  <PUBCHEM_COORDINATE_TYPE>  (1) 
2
5
10

$$$$
