49390
     RDKit          3D

 21 23  0  0  0  0  0  0  0  0999 V2000
    4.7434    0.4310   -1.1130 F   0  0  0  0  0  0  0  0  0  0  0  0
    4.6643   -1.7149   -0.7644 F   0  0  0  0  0  0  0  0  0  0  0  0
    5.5522   -0.3917    0.7315 F   0  0  0  0  0  0  0  0  0  0  0  0
    3.1441    1.8244   -0.4436 O   0  0  0  0  0  0  0  0  0  0  0  0
    2.8595   -1.1312    1.3914 O   0  0  0  0  0  0  0  0  0  0  0  0
    2.3922    0.7158    0.0335 N   0  0  0  0  0  0  0  0  0  0  0  0
   -1.9943   -1.7026   -0.2169 C   0  0  0  0  0  0  0  0  0  0  0  0
   -1.0518   -0.5240   -0.0900 C   0  0  0  0  0  0  0  0  0  0  0  0
   -1.7801    0.6790    0.0486 C   0  0  0  0  0  0  0  0  0  0  0  0
   -3.3468   -1.0267   -0.1341 C   0  0  0  0  0  0  0  0  0  0  0  0
   -3.1934    0.3694    0.0215 C   0  0  0  0  0  0  0  0  0  0  0  0
    0.3321   -0.5346   -0.0981 C   0  0  0  0  0  0  0  0  0  0  0  0
   -1.1204    1.8893    0.1813 C   0  0  0  0  0  0  0  0  0  0  0  0
    0.9967    0.6857    0.0357 C   0  0  0  0  0  0  0  0  0  0  0  0
   -4.5982   -1.6144   -0.1926 C   0  0  0  0  0  0  0  0  0  0  0  0
   -4.3029    1.1924    0.1202 C   0  0  0  0  0  0  0  0  0  0  0  0
    0.2779    1.8856    0.1743 C   0  0  0  0  0  0  0  0  0  0  0  0
   -5.7164   -0.7845   -0.0932 C   0  0  0  0  0  0  0  0  0  0  0  0
   -5.5703    0.6048    0.0617 C   0  0  0  0  0  0  0  0  0  0  0  0
    3.1814   -0.3439    0.5013 C   0  0  0  0  0  0  0  0  0  0  0  0
    4.5310   -0.5091   -0.1551 C   0  0  0  0  0  0  0  0  0  0  0  0
  1 21  1  0
  2 21  1  0
  3 21  1  0
  4  6  1  0
  5 20  2  0
  6 14  1  0
  6 20  1  0
  7  8  1  0
  7 10  1  0
  8  9  2  0
  8 12  1  0
  9 11  1  0
  9 13  1  0
 10 11  2  0
 10 15  1  0
 11 16  1  0
 12 14  2  0
 13 17  2  0
 14 17  1  0
 15 18  2  0
 16 19  2  0
 18 19  1  0
 20 21  1  0
M  END
>  <PUBCHEM_COMPOUND_CID>  (1) 
49390

>  <PUBCHEM_CONFORMER_RMSD>  (1) 
0.6

>  <PUBCHEM_CONFORMER_DIVERSEORDER>  (1) 
1
11
20
6
15
22
7
14
2
19
10
4
13
16
21
3
8
9
12
5
17
18

>  <PUBCHEM_MMFF94_PARTIAL_CHARGES>  (1) 
27
1 -0.34
10 -0.14
12 -0.15
13 -0.15
14 0.12
15 -0.15
16 -0.15
17 -0.15
18 -0.15
19 -0.15
2 -0.34
20 0.57
21 1.08
24 0.15
25 0.15
26 0.15
27 0.15
28 0.15
29 0.15
3 -0.34
30 0.15
31 0.4
4 -0.44
5 -0.57
6 -0.14
7 0.29
8 -0.14

>  <PUBCHEM_EFFECTIVE_ROTOR_COUNT>  (1) 
3.2

>  <PUBCHEM_PHARMACOPHORE_FEATURES>  (1) 
4
1 5 acceptor
5 7 8 9 10 11 rings
6 10 11 15 16 18 19 rings
6 8 9 12 13 14 17 rings

>  <PUBCHEM_HEAVY_ATOM_COUNT>  (1) 
21

>  <PUBCHEM_ATOM_DEF_STEREO_COUNT>  (1) 
0

>  <PUBCHEM_ATOM_UDEF_STEREO_COUNT>  (1) 
0

>  <PUBCHEM_BOND_DEF_STEREO_COUNT>  (1) 
0

>  <PUBCHEM_BOND_UDEF_STEREO_COUNT>  (1) 
0

>  <PUBCHEM_ISOTOPIC_ATOM_COUNT>  (1) 
0

>  <PUBCHEM_COMPONENT_COUNT>  (1) 
1

>  <PUBCHEM_CACTVS_TAUTO_COUNT>  (1) 
1

>  <PUBCHEM_CONFORMER_ID>  (1) 
0000C0EE00000001

>  <PUBCHEM_MMFF94_ENERGY>  (1) 
78.8815

>  <PUBCHEM_FEATURE_SELFOVERLAP>  (1) 
20.462

>  <PUBCHEM_SHAPE_FINGERPRINT>  (1) 
10062212 137 18341888628332106383
10968037 39 18408887351694824076
11315181 36 18131635594656413825
12107183 9 17686332071389812657
12236239 1 18186520998906468469
12516196 113 18060416932290824833
12553582 1 18336813247691905555
12596602 18 13686294686232288647
12788726 201 18336543794360571889
13167823 11 18408884061892403983
13288520 33 18412826889293944981
13533116 47 12535359960809265996
13583140 156 14620785029232570479
13675066 3 17988917890238694361
13862211 1 18412822499800724567
14251731 8 18408038494701353509
15099037 51 18411418414830322127
15196674 1 18411699928445992001
15536298 74 18341609373268185208
15788980 27 18409732876358064849
17349148 13 17988645207461017277
17492 89 18051971721545019871
17804303 29 18343581867411654433
17834072 33 18334858341697774781
17834072 8 18335695036367243181
17844677 252 18272093811527684497
1813 80 17894635829129882606
18186145 218 17749100127723128485
18222031 100 18272641377171488693
19141452 34 17917426557827538159
19489759 90 16702304534092188627
200 152 18060418019323446553
20374829 77 18410290311193715505
20645477 70 18409167731618365646
21033648 29 16343407419909430595
21150785 3 13551192230231117923
21267235 1 18410581695082192043
21279426 13 18197218049075914415
2215653 11 18131068203917714143
22950370 63 18409168809523255547
2297311 6 18201728331588150524
23175994 123 17060621109708022329
23402539 116 18201714059780883333
23522609 53 18191898715074964229
23559900 14 18272085045499439880
239999 70 18413389848080069334
3004659 81 18334298665226799492
335352 9 18412261745145265037
3411729 13 17986379213007987400
34797466 226 17560248028460445308
351380 3 18408882945158832539
4214541 1 18410573981373727853
4325135 7 18335422387959977308
4463277 17 18410855473050272816
465052 167 18343026622249858135
5104073 3 18341051921273563777
542803 24 17603307050617401207
559249 180 18409443653276410355
59755656 215 18340771438239560991
6138700 20 18339364067392537759
67856867 119 18264767834730426836
9709674 26 18193275428144052723
9981440 41 17255680223157976697

>  <PUBCHEM_SHAPE_MULTIPOLES>  (1) 
393.63
12.56
1.84
0.77
3.26
0.24
0.06
-3.19
-0.51
-0.35
-0.07
0.61
-0.1
-0.37

>  <PUBCHEM_SHAPE_SELFOVERLAP>  (1) 
876.651

>  <PUBCHEM_SHAPE_VOLUME>  (1) 
211.2

>  <PUBCHEM_COORDINATE_TYPE>  (1) 
2
5
10

$$$$
