494
     RDKit          3D

 11 11  0  0  1  0  0  0  0  0999 V2000
    3.0332   -0.6606   -0.4008 S   0  0  0  0  0  0  0  0  0  0  0  0
    0.0143   -1.1390    0.0582 O   0  0  0  0  0  0  0  0  0  0  0  0
   -0.7069    2.2963   -0.6467 O   0  0  0  0  0  0  0  0  0  0  0  0
   -2.9643    0.6853    0.7438 O   0  0  0  0  0  0  0  0  0  0  0  0
   -2.0849   -2.1032   -0.4542 O   0  0  0  0  0  0  0  0  0  0  0  0
   -0.6717    1.1131    0.1271 C   0  0  0  0  0  0  0  0  0  0  0  0
    0.4216    0.1757   -0.3529 C   0  0  0  0  0  0  0  0  0  0  0  0
   -1.8990    0.2591   -0.0868 C   0  0  0  0  0  0  0  0  0  0  0  0
   -1.4006   -1.1219    0.3110 C   0  0  0  0  0  0  0  0  0  0  0  0
    1.7865    0.4954    0.2292 C   0  0  0  0  0  0  0  0  0  0  0  0
    4.4719   -0.0003    0.4721 C   0  0  0  0  0  0  0  0  0  0  0  0
  1 10  1  0
  1 11  1  0
  2  7  1  0
  2  9  1  0
  3  6  1  0
  4  8  1  0
  5  9  1  0
  6  7  1  0
  6  8  1  0
  7 10  1  0
  8  9  1  0
M  END
>  <PUBCHEM_COMPOUND_CID>  (1) 
494

>  <PUBCHEM_CONFORMER_RMSD>  (1) 
0.6

>  <PUBCHEM_CONFORMER_DIVERSEORDER>  (1) 
6
72
67
75
56
42
76
41
20
51
53
44
4
85
78
28
46
68
22
84
25
81
66
62
43
52
17
71
14
69
60
82
35
21
77
63
11
12
79
3
80
10
19
18
70
55
59
61
5
39
16
2
37
38
65
23
83
31
27
74
24
30
49
34
13
64
58
26
50
57
47
32
1
40
9
8
54
7
48
36
73
45
33
29
15

>  <PUBCHEM_MMFF94_PARTIAL_CHARGES>  (1) 
14
1 -0.46
10 0.23
11 0.23
18 0.4
19 0.4
2 -0.56
20 0.4
3 -0.68
4 -0.68
5 -0.68
6 0.28
7 0.28
8 0.28
9 0.56

>  <PUBCHEM_EFFECTIVE_ROTOR_COUNT>  (1) 
3

>  <PUBCHEM_PHARMACOPHORE_FEATURES>  (1) 
9
1 11 hydrophobe
1 2 acceptor
1 3 acceptor
1 3 donor
1 4 acceptor
1 4 donor
1 5 acceptor
1 5 donor
5 2 6 7 8 9 rings

>  <PUBCHEM_HEAVY_ATOM_COUNT>  (1) 
11

>  <PUBCHEM_ATOM_DEF_STEREO_COUNT>  (1) 
0

>  <PUBCHEM_ATOM_UDEF_STEREO_COUNT>  (1) 
4

>  <PUBCHEM_BOND_DEF_STEREO_COUNT>  (1) 
0

>  <PUBCHEM_BOND_UDEF_STEREO_COUNT>  (1) 
0

>  <PUBCHEM_ISOTOPIC_ATOM_COUNT>  (1) 
0

>  <PUBCHEM_COMPONENT_COUNT>  (1) 
1

>  <PUBCHEM_CACTVS_TAUTO_COUNT>  (1) 
1

>  <PUBCHEM_CONFORMER_ID>  (1) 
000001EE00000006

>  <PUBCHEM_MMFF94_ENERGY>  (1) 
24.7374

>  <PUBCHEM_FEATURE_SELFOVERLAP>  (1) 
45.71

>  <PUBCHEM_SHAPE_FINGERPRINT>  (1) 
11132069 177 18413389830520301152
12932764 1 18187361009195750160
13024252 1 16805605854259743641
14325111 11 18339361864553732584
16945 1 18337669724231607260
20201158 50 18202002105989147254
20645464 45 18131070411673276642
20871998 184 18272936045892509854
21040471 1 18339934722922930697
21501502 16 18268432511011336840
23402539 116 18272923921742755949
23552423 10 18188493604640089670
2748010 2 18266456688273046317
369184 2 18272931600827795706
6333449 129 18342734122123584510

>  <PUBCHEM_SHAPE_MULTIPOLES>  (1) 
206.75
5.52
1.74
0.74
6.28
0.04
0
-0.59
0.91
-1.28
-0.32
0.04
0.05
0.01

>  <PUBCHEM_SHAPE_SELFOVERLAP>  (1) 
392.809

>  <PUBCHEM_SHAPE_VOLUME>  (1) 
130.5

>  <PUBCHEM_COORDINATE_TYPE>  (1) 
2
5
10

$$$$
