49402
     RDKit          3D

 23 25  0  0  0  0  0  0  0  0999 V2000
    4.1218   -0.8916   -0.3783 N   0  0  0  0  0  0  0  0  0  0  0  0
    1.8989   -0.8042    0.8322 C   0  0  0  0  0  0  0  0  0  0  0  0
    2.6966   -1.2082   -0.4389 C   0  0  0  0  0  0  0  0  0  0  0  0
    0.4431   -1.1604    0.5736 C   0  0  0  0  0  0  0  0  0  0  0  0
   -0.5139   -0.3768    0.0390 C   0  0  0  0  0  0  0  0  0  0  0  0
    2.3573   -1.6251    2.0547 C   0  0  0  0  0  0  0  0  0  0  0  0
    2.1198    0.6913    1.1436 C   0  0  0  0  0  0  0  0  0  0  0  0
   -1.8891   -0.9160   -0.1325 C   0  0  0  0  0  0  0  0  0  0  0  0
   -0.1371    1.0239   -0.2457 C   0  0  0  0  0  0  0  0  0  0  0  0
   -3.0887    1.1870    0.8516 C   0  0  0  0  0  0  0  0  0  0  0  0
   -1.8192    1.7523    1.4897 C   0  0  0  0  0  0  0  0  0  0  0  0
   -3.0500   -0.2017    0.2382 C   0  0  0  0  0  0  0  0  0  0  0  0
   -0.7647    2.0646    0.4591 C   0  0  0  0  0  0  0  0  0  0  0  0
   -2.0377   -2.1809   -0.7438 C   0  0  0  0  0  0  0  0  0  0  0  0
    0.8329    1.3259   -1.2134 C   0  0  0  0  0  0  0  0  0  0  0  0
   -4.3118   -0.7879   -0.0086 C   0  0  0  0  0  0  0  0  0  0  0  0
   -0.4059    3.3929    0.1892 C   0  0  0  0  0  0  0  0  0  0  0  0
    4.7777   -1.2384   -1.6391 C   0  0  0  0  0  0  0  0  0  0  0  0
    4.7560   -1.5947    0.7368 C   0  0  0  0  0  0  0  0  0  0  0  0
   -3.2948   -2.7421   -0.9664 C   0  0  0  0  0  0  0  0  0  0  0  0
    1.1806    2.6514   -1.4728 C   0  0  0  0  0  0  0  0  0  0  0  0
   -4.4343   -2.0450   -0.5964 C   0  0  0  0  0  0  0  0  0  0  0  0
    0.5626    3.6835   -0.7715 C   0  0  0  0  0  0  0  0  0  0  0  0
  1  3  1  0
  1 18  1  0
  1 19  1  0
  2  3  1  0
  2  4  1  0
  2  6  1  0
  2  7  1  0
  4  5  2  3
  5  8  1  0
  5  9  1  0
  8 12  2  0
  8 14  1  0
  9 13  2  0
  9 15  1  0
 10 11  1  0
 10 12  1  0
 11 13  1  0
 12 16  1  0
 13 17  1  0
 14 20  2  0
 15 21  2  0
 16 22  2  0
 17 23  2  0
 20 22  1  0
 21 23  1  0
M  END
>  <PUBCHEM_COMPOUND_CID>  (1) 
49402

>  <PUBCHEM_CONFORMER_RMSD>  (1) 
0.6

>  <PUBCHEM_CONFORMER_DIVERSEORDER>  (1) 
1
4
3
2

>  <PUBCHEM_MMFF94_PARTIAL_CHARGES>  (1) 
30
1 -0.81
10 0.14
11 0.14
12 -0.14
13 -0.14
14 -0.15
15 -0.15
16 -0.15
17 -0.15
18 0.27
19 0.27
2 0.14
20 -0.15
21 -0.15
22 -0.15
23 -0.15
26 0.15
3 0.27
37 0.15
38 0.15
39 0.15
4 -0.29
40 0.15
47 0.15
48 0.15
49 0.15
5 -0.06
50 0.15
8 0.03
9 0.03

>  <PUBCHEM_EFFECTIVE_ROTOR_COUNT>  (1) 
3.4

>  <PUBCHEM_PHARMACOPHORE_FEATURES>  (1) 
5
1 1 cation
3 2 6 7 hydrophobe
6 8 12 14 16 20 22 rings
6 9 13 15 17 21 23 rings
7 5 8 9 10 11 12 13 rings

>  <PUBCHEM_HEAVY_ATOM_COUNT>  (1) 
23

>  <PUBCHEM_ATOM_DEF_STEREO_COUNT>  (1) 
0

>  <PUBCHEM_ATOM_UDEF_STEREO_COUNT>  (1) 
0

>  <PUBCHEM_BOND_DEF_STEREO_COUNT>  (1) 
0

>  <PUBCHEM_BOND_UDEF_STEREO_COUNT>  (1) 
0

>  <PUBCHEM_ISOTOPIC_ATOM_COUNT>  (1) 
0

>  <PUBCHEM_COMPONENT_COUNT>  (1) 
1

>  <PUBCHEM_CACTVS_TAUTO_COUNT>  (1) 
1

>  <PUBCHEM_CONFORMER_ID>  (1) 
0000C0FA00000001

>  <PUBCHEM_MMFF94_ENERGY>  (1) 
120.9524

>  <PUBCHEM_FEATURE_SELFOVERLAP>  (1) 
25.386

>  <PUBCHEM_SHAPE_FINGERPRINT>  (1) 
10165383 225 17552936026594913968
10369192 42 17344322679770995376
10871710 139 18115886095938099276
1100329 8 18410581690961103385
11045515 52 18113893840723635933
11135609 187 17901111033869983228
11265709 11 18410577296618832734
11578080 2 18043223856077686916
12173636 292 17619625787834083892
12553582 1 18335413556616017451
12788726 201 18116993286645367976
13004483 165 18117821223517726003
13009979 54 18129959956500472963
13140716 1 18411978048694386441
13149001 5 17750522968921506882
13911987 19 16154862118407762990
14181834 199 17898556837723474125
14347332 77 18191024496415518854
14790565 3 17835810694292871777
14910302 57 17985554347379805734
14955137 171 18193865724022216747
15230672 131 17186172964211952870
16945 1 18125709106771037633
17357779 13 18199166456489107653
17492 89 18124029289702543191
17804303 29 18131352985845338019
1813 80 18335412491400466994
18222031 100 18339631317616840663
200 152 17313102995549654050
20559304 39 18124871519856043625
20567600 347 17328010487425470899
20600515 1 18059303075662521833
20691752 17 17894910733170867336
21452121 71 18412828009937836425
21634736 98 18337676437307903351
22112679 90 18338816540655886485
2255824 54 18044083777434009867
22907989 373 17972874765849366732
23402539 116 18335698309006202582
23419403 2 17403677597854535793
23557571 272 17846229816631824719
23559900 14 18060132163068663603
23598288 3 17608084269768522080
312423 11 18196379341222506799
34934 24 17897734162671356985
352729 6 17181641880365278024
3737641 26 17397561173889723051
394222 165 17032450749641827153
6992083 37 18341061713630173449
70251023 43 18265614475858545339
7364860 26 18123185972482888341
7471813 234 18199738314531813383
81228 2 18338229354302052603
9981440 41 17185028908802389033

>  <PUBCHEM_SHAPE_MULTIPOLES>  (1) 
468.35
7.72
3.82
1.47
2.35
3.1
0.16
-7.49
-1.07
-0.71
-0.89
1
-0.04
-1.52

>  <PUBCHEM_SHAPE_SELFOVERLAP>  (1) 
1006.739

>  <PUBCHEM_SHAPE_VOLUME>  (1) 
256

>  <PUBCHEM_COORDINATE_TYPE>  (1) 
2
5
10

$$$$
