49403
     RDKit          3D

 22 24  0  0  1  0  0  0  0  0999 V2000
    4.2878   -1.3232   -0.1298 N   0  0  0  0  0  0  0  0  0  0  0  0
   -0.4225   -0.3868   -0.0418 C   0  0  0  0  0  0  0  0  0  0  0  0
    1.9555   -0.7586   -0.7732 C   0  0  0  0  0  0  0  0  0  0  0  0
   -2.9649    1.2211   -0.8703 C   0  0  0  0  0  0  0  0  0  0  0  0
   -1.6807    1.7694   -1.4940 C   0  0  0  0  0  0  0  0  0  0  0  0
   -1.8076   -0.9045    0.1158 C   0  0  0  0  0  0  0  0  0  0  0  0
   -0.0260    1.0063    0.2527 C   0  0  0  0  0  0  0  0  0  0  0  0
   -2.9538   -0.1704   -0.2622 C   0  0  0  0  0  0  0  0  0  0  0  0
   -0.6309    2.0601   -0.4523 C   0  0  0  0  0  0  0  0  0  0  0  0
    0.5265   -1.1836   -0.5707 C   0  0  0  0  0  0  0  0  0  0  0  0
    2.8816   -1.6706    0.0505 C   0  0  0  0  0  0  0  0  0  0  0  0
    2.2883   -0.7967   -2.2679 C   0  0  0  0  0  0  0  0  0  0  0  0
   -1.9818   -2.1688    0.7214 C   0  0  0  0  0  0  0  0  0  0  0  0
    0.9400    1.2885    1.2306 C   0  0  0  0  0  0  0  0  0  0  0  0
   -4.2268   -0.7370   -0.0284 C   0  0  0  0  0  0  0  0  0  0  0  0
   -0.2540    3.3812   -0.1727 C   0  0  0  0  0  0  0  0  0  0  0  0
   -3.2497   -2.7102    0.9318 C   0  0  0  0  0  0  0  0  0  0  0  0
    1.3058    2.6070    1.4996 C   0  0  0  0  0  0  0  0  0  0  0  0
   -4.3746   -1.9938    0.5545 C   0  0  0  0  0  0  0  0  0  0  0  0
    0.7103    3.6520    0.7981 C   0  0  0  0  0  0  0  0  0  0  0  0
    5.1443   -2.2400    0.6234 C   0  0  0  0  0  0  0  0  0  0  0  0
    4.5330    0.0586    0.2848 C   0  0  0  0  0  0  0  0  0  0  0  0
  1 11  1  0
  1 21  1  0
  1 22  1  0
  2  6  1  0
  2  7  1  0
  2 10  2  3
  3 10  1  0
  3 11  1  0
  3 12  1  0
  4  5  1  0
  4  8  1  0
  5  9  1  0
  6  8  2  0
  6 13  1  0
  7  9  2  0
  7 14  1  0
  8 15  1  0
  9 16  1  0
 13 17  2  0
 14 18  2  0
 15 19  2  0
 16 20  2  0
 17 19  1  0
 18 20  1  0
M  END
>  <PUBCHEM_COMPOUND_CID>  (1) 
49403

>  <PUBCHEM_CONFORMER_RMSD>  (1) 
0.6

>  <PUBCHEM_CONFORMER_DIVERSEORDER>  (1) 
5
11
3
1
7
9
8
2
10
4
6

>  <PUBCHEM_MMFF94_PARTIAL_CHARGES>  (1) 
30
1 -0.81
10 -0.29
11 0.27
13 -0.15
14 -0.15
15 -0.15
16 -0.15
17 -0.15
18 -0.15
19 -0.15
2 -0.06
20 -0.15
21 0.27
22 0.27
28 0.15
3 0.14
34 0.15
35 0.15
36 0.15
37 0.15
38 0.15
39 0.15
4 0.14
40 0.15
41 0.15
5 0.14
6 0.03
7 0.03
8 -0.14
9 -0.14

>  <PUBCHEM_EFFECTIVE_ROTOR_COUNT>  (1) 
3.4

>  <PUBCHEM_PHARMACOPHORE_FEATURES>  (1) 
5
1 1 cation
1 12 hydrophobe
6 6 8 13 15 17 19 rings
6 7 9 14 16 18 20 rings
7 2 4 5 6 7 8 9 rings

>  <PUBCHEM_HEAVY_ATOM_COUNT>  (1) 
22

>  <PUBCHEM_ATOM_DEF_STEREO_COUNT>  (1) 
0

>  <PUBCHEM_ATOM_UDEF_STEREO_COUNT>  (1) 
1

>  <PUBCHEM_BOND_DEF_STEREO_COUNT>  (1) 
0

>  <PUBCHEM_BOND_UDEF_STEREO_COUNT>  (1) 
0

>  <PUBCHEM_ISOTOPIC_ATOM_COUNT>  (1) 
0

>  <PUBCHEM_COMPONENT_COUNT>  (1) 
1

>  <PUBCHEM_CACTVS_TAUTO_COUNT>  (1) 
1

>  <PUBCHEM_CONFORMER_ID>  (1) 
0000C0FB00000005

>  <PUBCHEM_MMFF94_ENERGY>  (1) 
78.3377

>  <PUBCHEM_FEATURE_SELFOVERLAP>  (1) 
25.386

>  <PUBCHEM_SHAPE_FINGERPRINT>  (1) 
10906281 52 18057893450163332133
1100329 8 18268155266725599865
11036077 51 17546161905259520026
11578080 2 16663137777546961500
11680986 33 18266450083135772737
12035758 1 18411978049074266177
12293681 160 17692225466579208869
12403259 226 18335978770170008919
12553582 1 18267330701465489127
12592029 89 17978798140157727024
12596602 18 17968924303208906938
12788726 201 18262521364728394434
12839892 36 17186713360658183939
13140716 1 18412831252506263040
133893 2 17907610216598405401
14787075 74 18188773980511666290
14790565 3 17834959668145731521
16945 1 18192166896731404045
17980427 23 17489319568312711577
1813 80 18130241413954663230
18785283 64 18050846912195743856
20510252 161 18194119607844232818
20600515 1 18337963289694360804
21041028 32 18201727266684402065
21304303 282 17542481865611313756
21339142 51 18337386041662779607
22182313 1 18265872809013108909
2297311 6 18341907242762974798
23175994 123 18342740693497419991
23419403 2 18264751302789102588
23557571 272 18198912418153867430
23558518 356 17622168962339045670
23559900 14 18187921823980771791
2748010 2 18263634221125020237
4409770 3 18117551830347322373
633830 44 13840271406993417687
7364860 26 18053672648631169865
81228 2 17840612325905240376
84936 31 17559687324231159373
9709674 26 18192988455989082659
9981440 41 17411315643493364974

>  <PUBCHEM_SHAPE_MULTIPOLES>  (1) 
447.77
7.85
3.94
1.35
3.91
2.85
-0.42
-7.82
0.89
0.12
1.15
0.43
0.25
1.48

>  <PUBCHEM_SHAPE_SELFOVERLAP>  (1) 
956.616

>  <PUBCHEM_SHAPE_VOLUME>  (1) 
246.5

>  <PUBCHEM_COORDINATE_TYPE>  (1) 
2
5
10

$$$$
