49406
     RDKit          3D

 25 27  0  0  0  0  0  0  0  0999 V2000
   -4.4874    1.5394   -0.6827 S   0  0  0  0  0  0  0  0  0  0  0  0
   -5.6357    1.6512    0.2056 O   0  0  0  0  0  0  0  0  0  0  0  0
   -3.8141    2.7444   -1.1480 O   0  0  0  0  0  0  0  0  0  0  0  0
    4.4362    2.6519    0.5027 N   0  0  0  0  0  0  0  0  0  0  0  0
    0.4185   -0.0989   -0.0190 C   0  0  0  0  0  0  0  0  0  0  0  0
   -1.0064   -0.2313    0.3602 C   0  0  0  0  0  0  0  0  0  0  0  0
    1.2334   -1.2458   -0.4794 C   0  0  0  0  0  0  0  0  0  0  0  0
   -1.4240   -1.1980    1.2950 C   0  0  0  0  0  0  0  0  0  0  0  0
    2.4672    1.3415   -0.1407 C   0  0  0  0  0  0  0  0  0  0  0  0
    1.0165    1.0978    0.1311 C   0  0  0  0  0  0  0  0  0  0  0  0
   -1.9651    0.6005   -0.2486 C   0  0  0  0  0  0  0  0  0  0  0  0
    1.3068   -2.4347    0.2713 C   0  0  0  0  0  0  0  0  0  0  0  0
   -3.3155    0.4955    0.0814 C   0  0  0  0  0  0  0  0  0  0  0  0
    3.0171    2.4411    0.7669 C   0  0  0  0  0  0  0  0  0  0  0  0
   -0.5032   -2.0969    2.0123 C   0  0  0  0  0  0  0  0  0  0  0  0
   -2.7887   -1.2786    1.6257 C   0  0  0  0  0  0  0  0  0  0  0  0
    0.6536   -2.6209    1.5786 C   0  0  0  0  0  0  0  0  0  0  0  0
   -3.7269   -0.4417    1.0212 C   0  0  0  0  0  0  0  0  0  0  0  0
    1.9197   -1.1592   -1.7052 C   0  0  0  0  0  0  0  0  0  0  0  0
    2.1001   -3.4927   -0.2074 C   0  0  0  0  0  0  0  0  0  0  0  0
    2.6889   -2.2245   -2.1708 C   0  0  0  0  0  0  0  0  0  0  0  0
    2.7821   -3.3899   -1.4201 C   0  0  0  0  0  0  0  0  0  0  0  0
   -5.0016    0.6421   -2.1299 C   0  0  0  0  0  0  0  0  0  0  0  0
    4.9791    3.6776    1.3949 C   0  0  0  0  0  0  0  0  0  0  0  0
    4.6492    3.0303   -0.8952 C   0  0  0  0  0  0  0  0  0  0  0  0
  1  2  2  0
  1  3  2  0
  1 13  1  0
  1 23  1  0
  4 14  1  0
  4 24  1  0
  4 25  1  0
  5  6  1  0
  5  7  1  0
  5 10  2  0
  6  8  2  0
  6 11  1  0
  7 12  2  0
  7 19  1  0
  8 15  1  0
  8 16  1  0
  9 10  1  0
  9 14  1  0
 11 13  2  0
 12 17  1  0
 12 20  1  0
 13 18  1  0
 15 17  2  0
 16 18  2  0
 19 21  2  0
 20 22  2  0
 21 22  1  0
M  END
>  <PUBCHEM_COMPOUND_CID>  (1) 
49406

>  <PUBCHEM_CONFORMER_RMSD>  (1) 
0.8

>  <PUBCHEM_CONFORMER_DIVERSEORDER>  (1) 
1
12
4
3
11
10
9
2
8
6
5
13
7

>  <PUBCHEM_MMFF94_PARTIAL_CHARGES>  (1) 
35
1 1.2
10 -0.29
11 -0.15
12 0.03
13 -0.01
14 0.27
15 -0.18
16 -0.15
17 -0.18
18 -0.15
19 -0.15
2 -0.65
20 -0.15
21 -0.15
22 -0.15
23 0.11
24 0.27
25 0.27
28 0.15
29 0.15
3 -0.65
32 0.15
33 0.15
34 0.15
35 0.15
36 0.15
37 0.15
38 0.15
39 0.15
4 -0.81
5 -0.06
6 0.03
7 0.03
8 0.03
9 0.14

>  <PUBCHEM_EFFECTIVE_ROTOR_COUNT>  (1) 
4

>  <PUBCHEM_PHARMACOPHORE_FEATURES>  (1) 
6
1 2 acceptor
1 3 acceptor
1 4 cation
6 6 8 11 13 16 18 rings
6 7 12 19 20 21 22 rings
7 5 6 7 8 12 15 17 rings

>  <PUBCHEM_HEAVY_ATOM_COUNT>  (1) 
25

>  <PUBCHEM_ATOM_DEF_STEREO_COUNT>  (1) 
0

>  <PUBCHEM_ATOM_UDEF_STEREO_COUNT>  (1) 
0

>  <PUBCHEM_BOND_DEF_STEREO_COUNT>  (1) 
0

>  <PUBCHEM_BOND_UDEF_STEREO_COUNT>  (1) 
1

>  <PUBCHEM_ISOTOPIC_ATOM_COUNT>  (1) 
0

>  <PUBCHEM_COMPONENT_COUNT>  (1) 
1

>  <PUBCHEM_CACTVS_TAUTO_COUNT>  (1) 
1

>  <PUBCHEM_CONFORMER_ID>  (1) 
0000C0FE00000001

>  <PUBCHEM_MMFF94_ENERGY>  (1) 
80.8013

>  <PUBCHEM_FEATURE_SELFOVERLAP>  (1) 
30.478

>  <PUBCHEM_SHAPE_FINGERPRINT>  (1) 
105312 117 18195247947873112396
10764073 3 15002696931212547336
11578080 2 18338536195782849009
11763715 3 16127818435589420610
12293681 160 17756449070671490706
12403259 415 18262815054259252416
12549972 3 17969242061029889683
12597179 24 18336262439742859772
12788726 201 16968023238140564186
13134695 92 18124040031178094534
13540713 4 18260844691337570531
13590594 115 17693392048278895816
15163728 17 18260839236291410348
15230672 131 18265063612818366492
15664445 248 17912087144484577574
17980427 26 18189600688232385991
1813 80 17343793573147314878
18915476 22 18272381874809718431
21033648 29 18056471988135695352
22182313 1 18187662313952220059
23559900 14 18187379696350665574
23598288 3 17684363241750374892
238918 7 18335975445902641636
2748010 2 18115045068353576219
3298306 158 18340493360971942484
376196 1 18339070601130608312
44802255 64 17977962494779162260
46194498 28 18271239405636434301
495365 180 18411702071302285426
59444896 2 17689666065708343330
59554788 281 16878223190174651075
633830 44 18265327314624189925
7399639 24 18265912417681554387
9862522 239 17980770655617640698
9981440 41 18338512074755930352

>  <PUBCHEM_SHAPE_MULTIPOLES>  (1) 
501.62
9.89
4.72
1.91
5.6
0.12
0.29
11.71
2.09
-7.33
-0.04
0.21
-0.89
3.47

>  <PUBCHEM_SHAPE_SELFOVERLAP>  (1) 
1063.351

>  <PUBCHEM_SHAPE_VOLUME>  (1) 
281.6

>  <PUBCHEM_COORDINATE_TYPE>  (1) 
2
5
10

$$$$
