49408
     RDKit          3D

 25 28  0  0  1  0  0  0  0  0999 V2000
   -0.8751    0.3197   -2.2747 O   0  0  0  0  0  0  0  0  0  0  0  0
    3.2100   -0.1075    0.9532 N   0  0  0  0  0  0  0  0  0  0  0  0
    3.0494   -0.0945   -0.5193 C   0  0  0  0  0  0  0  0  0  0  0  0
    1.6255   -0.4600   -0.9627 C   0  0  0  0  0  0  0  0  0  0  0  0
   -0.8089    0.1575   -0.8373 C   0  0  0  0  0  0  0  0  0  0  0  0
    3.3835    1.3019   -1.0818 C   0  0  0  0  0  0  0  0  0  0  0  0
    0.6255    0.5332   -0.4029 C   0  0  0  0  0  0  0  0  0  0  0  0
    4.7783    1.7599   -0.6757 C   0  0  0  0  0  0  0  0  0  0  0  0
    4.5776    0.2792    1.3428 C   0  0  0  0  0  0  0  0  0  0  0  0
    4.9401    1.6724    0.8338 C   0  0  0  0  0  0  0  0  0  0  0  0
   -1.8071    1.1993   -0.2922 C   0  0  0  0  0  0  0  0  0  0  0  0
   -1.0470   -1.3362   -0.5649 C   0  0  0  0  0  0  0  0  0  0  0  0
   -2.6735    1.0565    0.8115 C   0  0  0  0  0  0  0  0  0  0  0  0
   -1.3013   -1.8506    0.7197 C   0  0  0  0  0  0  0  0  0  0  0  0
    2.8937   -1.4124    1.5413 C   0  0  0  0  0  0  0  0  0  0  0  0
   -2.7888   -0.1527    1.7071 C   0  0  0  0  0  0  0  0  0  0  0  0
   -1.5129   -0.9507    1.9019 C   0  0  0  0  0  0  0  0  0  0  0  0
   -1.8218    2.4600   -0.9554 C   0  0  0  0  0  0  0  0  0  0  0  0
   -0.9029   -2.2767   -1.6137 C   0  0  0  0  0  0  0  0  0  0  0  0
   -3.5586    2.1150    1.1412 C   0  0  0  0  0  0  0  0  0  0  0  0
   -1.4214   -3.2418    0.9205 C   0  0  0  0  0  0  0  0  0  0  0  0
   -2.6835    3.4980   -0.5998 C   0  0  0  0  0  0  0  0  0  0  0  0
   -1.0278   -3.6525   -1.4054 C   0  0  0  0  0  0  0  0  0  0  0  0
   -3.5660    3.3199    0.4471 C   0  0  0  0  0  0  0  0  0  0  0  0
   -1.2870   -4.1369   -0.1345 C   0  0  0  0  0  0  0  0  0  0  0  0
  1  5  1  0
  2  3  1  0
  2  9  1  0
  2 15  1  0
  3  4  1  0
  3  6  1  0
  4  7  1  0
  5  7  1  0
  5 11  1  0
  5 12  1  0
  6  8  1  0
  8 10  1  0
  9 10  1  0
 11 13  2  0
 11 18  1  0
 12 14  2  0
 12 19  1  0
 13 16  1  0
 13 20  1  0
 14 17  1  0
 14 21  1  0
 16 17  1  0
 18 22  2  0
 19 23  2  0
 20 24  2  0
 21 25  2  0
 22 24  1  0
 23 25  1  0
M  END
>  <PUBCHEM_COMPOUND_CID>  (1) 
49408

>  <PUBCHEM_CONFORMER_RMSD>  (1) 
0.8

>  <PUBCHEM_CONFORMER_DIVERSEORDER>  (1) 
3
19
15
18
4
8
17
5
2
7
10
20
24
16
12
14
22
1
21
11
6
23
13
9

>  <PUBCHEM_MMFF94_PARTIAL_CHARGES>  (1) 
29
1 -0.68
11 -0.14
12 -0.14
13 -0.14
14 -0.14
15 0.27
16 0.14
17 0.14
18 -0.15
19 -0.15
2 -0.81
20 -0.15
21 -0.15
22 -0.15
23 -0.15
24 -0.15
25 -0.15
3 0.27
46 0.4
47 0.15
48 0.15
49 0.15
5 0.57
50 0.15
51 0.15
52 0.15
53 0.15
54 0.15
9 0.27

>  <PUBCHEM_EFFECTIVE_ROTOR_COUNT>  (1) 
4.8

>  <PUBCHEM_PHARMACOPHORE_FEATURES>  (1) 
7
1 1 acceptor
1 1 donor
1 2 cation
6 11 13 18 20 22 24 rings
6 12 14 19 21 23 25 rings
6 2 3 6 8 9 10 rings
7 5 11 12 13 14 16 17 rings

>  <PUBCHEM_HEAVY_ATOM_COUNT>  (1) 
25

>  <PUBCHEM_ATOM_DEF_STEREO_COUNT>  (1) 
0

>  <PUBCHEM_ATOM_UDEF_STEREO_COUNT>  (1) 
1

>  <PUBCHEM_BOND_DEF_STEREO_COUNT>  (1) 
0

>  <PUBCHEM_BOND_UDEF_STEREO_COUNT>  (1) 
0

>  <PUBCHEM_ISOTOPIC_ATOM_COUNT>  (1) 
0

>  <PUBCHEM_COMPONENT_COUNT>  (1) 
1

>  <PUBCHEM_CACTVS_TAUTO_COUNT>  (1) 
1

>  <PUBCHEM_CONFORMER_ID>  (1) 
0000C10000000003

>  <PUBCHEM_MMFF94_ENERGY>  (1) 
80.9498

>  <PUBCHEM_FEATURE_SELFOVERLAP>  (1) 
35.535

>  <PUBCHEM_SHAPE_FINGERPRINT>  (1) 
10165383 225 17625588640927493278
10930396 42 17910649262358066154
11101153 10 17761212520421483876
11265709 11 17907019830547293291
12173636 292 18411413999171295156
12788726 201 18268972345303318695
12892183 10 17822589230182072977
13004483 165 18051972816402737307
13140716 1 17978229683718134653
133893 2 17471822854837998327
13583140 156 17385716972478154412
13681431 1 17190083355254751279
14178342 30 18336261345011476510
14466204 15 17618785752470804464
14856354 85 17023201396531561680
15163728 17 18056493767703258977
15230672 131 18264789670998444358
20600515 1 17625565727620211255
20775438 99 9361930727247070345
21033648 29 18271530797456007592
21120745 212 17979084004195310229
21731228 192 18264769865705976229
21860390 5 17257924897662108503
22182313 1 17246137124508172001
23559900 14 17757291283518872437
23598288 3 18116450316927326068
23728640 28 18408879646354865522
25222932 49 15223512105275878617
3380486 77 16445349847950048315
3493558 16 16042498300094400296
35225 105 18272649073384125283
394222 165 17485077497638684773
474 4 18053380998666269681
633830 44 17844250609966434565
6786 2 18270407070643848003
7097593 13 18040433274718756104
7808743 9 18339368564909170356
81228 2 18270115858902515375
84936 31 17479721724965890215
9981440 41 18266740182296408353

>  <PUBCHEM_SHAPE_MULTIPOLES>  (1) 
503.64
7.72
4.65
1.81
11.42
2.35
-0.06
-7.11
-2.67
-5.13
0.84
-0.12
0.49
-0.47

>  <PUBCHEM_SHAPE_SELFOVERLAP>  (1) 
1082.922

>  <PUBCHEM_SHAPE_VOLUME>  (1) 
275.5

>  <PUBCHEM_COORDINATE_TYPE>  (1) 
2
5
10

$$$$
