49407
     RDKit          3D

 25 28  0  0  0  0  0  0  0  0999 V2000
   -1.0187   -0.2516   -2.2148 O   0  0  0  0  0  0  0  0  0  0  0  0
    2.6887   -0.6743   -0.5254 N   0  0  0  0  0  0  0  0  0  0  0  0
    5.3114   -0.5723    0.6866 N   0  0  0  0  0  0  0  0  0  0  0  0
   -1.0628   -0.1461   -0.7709 C   0  0  0  0  0  0  0  0  0  0  0  0
    0.2723   -0.7601   -0.2999 C   0  0  0  0  0  0  0  0  0  0  0  0
    1.4383   -0.0674   -0.9774 C   0  0  0  0  0  0  0  0  0  0  0  0
   -1.0525    1.3560   -0.4427 C   0  0  0  0  0  0  0  0  0  0  0  0
   -2.2376   -1.0330   -0.3076 C   0  0  0  0  0  0  0  0  0  0  0  0
    2.8526   -0.5124    0.9244 C   0  0  0  0  0  0  0  0  0  0  0  0
    3.8354   -0.0979   -1.2379 C   0  0  0  0  0  0  0  0  0  0  0  0
    4.1640   -1.1478    1.3989 C   0  0  0  0  0  0  0  0  0  0  0  0
    5.1475   -0.7320   -0.7634 C   0  0  0  0  0  0  0  0  0  0  0  0
   -1.2894    1.8608    0.8491 C   0  0  0  0  0  0  0  0  0  0  0  0
   -3.1299   -0.7810    0.7547 C   0  0  0  0  0  0  0  0  0  0  0  0
   -1.7212    0.9702    1.9773 C   0  0  0  0  0  0  0  0  0  0  0  0
   -3.1002    0.4104    1.6799 C   0  0  0  0  0  0  0  0  0  0  0  0
   -0.6869    2.2933   -1.4393 C   0  0  0  0  0  0  0  0  0  0  0  0
   -2.4117   -2.2593   -1.0106 C   0  0  0  0  0  0  0  0  0  0  0  0
   -1.1778    3.2434    1.1062 C   0  0  0  0  0  0  0  0  0  0  0  0
   -4.1855   -1.6941    1.0061 C   0  0  0  0  0  0  0  0  0  0  0  0
    6.5611   -1.1810    1.1380 C   0  0  0  0  0  0  0  0  0  0  0  0
   -0.5837    3.6614   -1.1755 C   0  0  0  0  0  0  0  0  0  0  0  0
   -3.4424   -3.1570   -0.7316 C   0  0  0  0  0  0  0  0  0  0  0  0
   -0.8290    4.1381    0.1011 C   0  0  0  0  0  0  0  0  0  0  0  0
   -4.3424   -2.8664    0.2746 C   0  0  0  0  0  0  0  0  0  0  0  0
  1  4  1  0
  2  6  1  0
  2  9  1  0
  2 10  1  0
  3 11  1  0
  3 12  1  0
  3 21  1  0
  4  5  1  0
  4  7  1  0
  4  8  1  0
  5  6  1  0
  7 13  2  0
  7 17  1  0
  8 14  2  0
  8 18  1  0
  9 11  1  0
 10 12  1  0
 13 15  1  0
 13 19  1  0
 14 16  1  0
 14 20  1  0
 15 16  1  0
 17 22  2  0
 18 23  2  0
 19 24  2  0
 20 25  2  0
 22 24  1  0
 23 25  1  0
M  END
>  <PUBCHEM_COMPOUND_CID>  (1) 
49407

>  <PUBCHEM_CONFORMER_RMSD>  (1) 
0.8

>  <PUBCHEM_CONFORMER_DIVERSEORDER>  (1) 
2
4
15
6
11
3
12
7
13
10
1
5
8
9
14

>  <PUBCHEM_MMFF94_PARTIAL_CHARGES>  (1) 
33
1 -0.68
10 0.27
11 0.27
12 0.27
13 -0.14
14 -0.14
15 0.14
16 0.14
17 -0.15
18 -0.15
19 -0.15
2 -0.81
20 -0.15
21 0.27
22 -0.15
23 -0.15
24 -0.15
25 -0.15
3 -0.81
4 0.57
42 0.15
43 0.15
44 0.4
45 0.15
46 0.15
50 0.15
51 0.15
52 0.15
53 0.15
6 0.27
7 -0.14
8 -0.14
9 0.27

>  <PUBCHEM_EFFECTIVE_ROTOR_COUNT>  (1) 
4.8

>  <PUBCHEM_PHARMACOPHORE_FEATURES>  (1) 
8
1 1 acceptor
1 1 donor
1 2 cation
1 3 cation
6 2 3 9 10 11 12 rings
6 7 13 17 19 22 24 rings
6 8 14 18 20 23 25 rings
7 4 7 8 13 14 15 16 rings

>  <PUBCHEM_HEAVY_ATOM_COUNT>  (1) 
25

>  <PUBCHEM_ATOM_DEF_STEREO_COUNT>  (1) 
0

>  <PUBCHEM_ATOM_UDEF_STEREO_COUNT>  (1) 
0

>  <PUBCHEM_BOND_DEF_STEREO_COUNT>  (1) 
0

>  <PUBCHEM_BOND_UDEF_STEREO_COUNT>  (1) 
0

>  <PUBCHEM_ISOTOPIC_ATOM_COUNT>  (1) 
0

>  <PUBCHEM_COMPONENT_COUNT>  (1) 
1

>  <PUBCHEM_CACTVS_TAUTO_COUNT>  (1) 
1

>  <PUBCHEM_CONFORMER_ID>  (1) 
0000C0FF00000002

>  <PUBCHEM_MMFF94_ENERGY>  (1) 
87.9699

>  <PUBCHEM_FEATURE_SELFOVERLAP>  (1) 
40.611

>  <PUBCHEM_SHAPE_FINGERPRINT>  (1) 
10165383 225 16903891009577809821
10930396 42 18198598034736763288
11045515 52 18186798123260897133
11101153 10 18261959648090008676
11135609 187 17543364099107573180
11265709 11 18337678610861898995
11370993 144 16558205808051543182
11552529 35 18264765463897254584
11578080 2 18043518616052687765
11595378 159 18411138005132393890
11963148 33 16757468458208914479
12035758 1 18270416996951703033
12553582 1 18410014380993982110
12788726 201 18261967275017606432
13004483 165 18409171013005210169
13140716 1 18412544331595579237
133893 2 17904768030975714253
13540713 5 17626681741055787179
13583140 156 17986935389913533042
13911987 19 15723091718867093942
14178342 30 18265897965190371942
14251757 17 14418126348651595683
14674994 50 17559654274842848319
14910302 57 18058465213774604630
15230672 131 17473286279483654230
15475509 35 17320168693841578579
17349148 13 17458346334406555866
17980427 23 17632024139010426865
1813 80 18339082721369873375
18222031 100 18270681003563281999
19377110 9 18334016116856378712
200 152 17458064876129555850
20600515 1 18129962134223231269
21033648 29 16916524600492824899
21304303 282 17758644807928655285
22956985 138 17545021059061841450
23366157 5 17760089914447679757
23419403 2 17986368179099469721
23559900 14 18050277365731789811
3027735 51 17313374578979415899
312423 11 17968392169270923798
394222 165 17335922547772319953
4409770 3 18262227803977261925
469060 322 18410301310810877802
484985 159 18115578241071913326
56638632 33 18055909046428472787
633830 44 13542453316134693562
6786 2 17620474610752601081
7288768 16 17414721960122031528
90316 7 18411709759520618105
9981440 41 17761211012043704017

>  <PUBCHEM_SHAPE_MULTIPOLES>  (1) 
498.66
10
4.13
1.74
18.35
4.04
0.08
-10.19
3.43
-4.73
-0.49
-0.05
0.29
-1.06

>  <PUBCHEM_SHAPE_SELFOVERLAP>  (1) 
1071.877

>  <PUBCHEM_SHAPE_VOLUME>  (1) 
273

>  <PUBCHEM_COORDINATE_TYPE>  (1) 
2
5
10

$$$$
