49427
     RDKit          3D

 22 23  0  0  0  0  0  0  0  0999 V2000
    1.8856    4.8941   -0.2752 Cl  0  0  0  0  0  0  0  0  0  0  0  0
   -5.3440   -1.9948   -0.6019 O   0  0  0  0  0  0  0  0  0  0  0  0
    5.4337   -1.8220   -0.6515 O   0  0  0  0  0  0  0  0  0  0  0  0
   -0.0043    1.3513    0.0409 N   0  0  0  0  0  0  0  0  0  0  0  0
   -1.3287    1.8307    0.4344 C   0  0  0  0  0  0  0  0  0  0  0  0
    0.3388    0.1354    0.7775 C   0  0  0  0  0  0  0  0  0  0  0  0
    1.0025    2.3875    0.2676 C   0  0  0  0  0  0  0  0  0  0  0  0
   -2.3999    0.8096    0.1580 C   0  0  0  0  0  0  0  0  0  0  0  0
    1.6986   -0.3866    0.3962 C   0  0  0  0  0  0  0  0  0  0  0  0
    0.6543    3.6344   -0.5304 C   0  0  0  0  0  0  0  0  0  0  0  0
   -3.3633    0.5523    1.1233 C   0  0  0  0  0  0  0  0  0  0  0  0
    2.5756   -0.7972    1.3902 C   0  0  0  0  0  0  0  0  0  0  0  0
   -2.4092    0.1412   -1.0579 C   0  0  0  0  0  0  0  0  0  0  0  0
    2.0548   -0.4505   -0.9434 C   0  0  0  0  0  0  0  0  0  0  0  0
   -4.3563   -0.3932    0.8672 C   0  0  0  0  0  0  0  0  0  0  0  0
    3.8352   -1.2815    1.0372 C   0  0  0  0  0  0  0  0  0  0  0  0
   -3.4024   -0.8042   -1.3141 C   0  0  0  0  0  0  0  0  0  0  0  0
    3.3144   -0.9349   -1.2964 C   0  0  0  0  0  0  0  0  0  0  0  0
   -4.3759   -1.0715   -0.3515 C   0  0  0  0  0  0  0  0  0  0  0  0
    4.2046   -1.3505   -0.3061 C   0  0  0  0  0  0  0  0  0  0  0  0
   -6.3085   -2.2193    0.4252 C   0  0  0  0  0  0  0  0  0  0  0  0
    6.2945   -2.2301    0.4107 C   0  0  0  0  0  0  0  0  0  0  0  0
  1 10  1  0
  2 19  1  0
  2 21  1  0
  3 20  1  0
  3 22  1  0
  4  5  1  0
  4  6  1  0
  4  7  1  0
  5  8  1  0
  6  9  1  0
  7 10  1  0
  8 11  2  0
  8 13  1  0
  9 12  2  0
  9 14  1  0
 11 15  1  0
 12 16  1  0
 13 17  2  0
 14 18  2  0
 15 19  2  0
 16 20  2  0
 17 19  1  0
 18 20  1  0
M  END
>  <PUBCHEM_COMPOUND_CID>  (1) 
49427

>  <PUBCHEM_CONFORMER_RMSD>  (1) 
0.8

>  <PUBCHEM_CONFORMER_DIVERSEORDER>  (1) 
1
16
7
15
9
17
14
10
13
18
8
19
2
12
11
5
4
3
6

>  <PUBCHEM_MMFF94_PARTIAL_CHARGES>  (1) 
30
1 -0.29
10 0.29
11 -0.15
12 -0.15
13 -0.15
14 -0.15
15 -0.15
16 -0.15
17 -0.15
18 -0.15
19 0.08
2 -0.36
20 0.08
21 0.28
22 0.28
3 -0.36
31 0.15
32 0.15
33 0.15
34 0.15
35 0.15
36 0.15
37 0.15
38 0.15
4 -0.81
5 0.41
6 0.41
7 0.27
8 -0.14
9 -0.14

>  <PUBCHEM_EFFECTIVE_ROTOR_COUNT>  (1) 
8

>  <PUBCHEM_PHARMACOPHORE_FEATURES>  (1) 
5
1 2 acceptor
1 3 acceptor
1 4 cation
6 8 11 13 15 17 19 rings
6 9 12 14 16 18 20 rings

>  <PUBCHEM_HEAVY_ATOM_COUNT>  (1) 
22

>  <PUBCHEM_ATOM_DEF_STEREO_COUNT>  (1) 
0

>  <PUBCHEM_ATOM_UDEF_STEREO_COUNT>  (1) 
0

>  <PUBCHEM_BOND_DEF_STEREO_COUNT>  (1) 
0

>  <PUBCHEM_BOND_UDEF_STEREO_COUNT>  (1) 
0

>  <PUBCHEM_ISOTOPIC_ATOM_COUNT>  (1) 
0

>  <PUBCHEM_COMPONENT_COUNT>  (1) 
1

>  <PUBCHEM_CACTVS_TAUTO_COUNT>  (1) 
1

>  <PUBCHEM_CONFORMER_ID>  (1) 
0000C11300000001

>  <PUBCHEM_MMFF94_ENERGY>  (1) 
80.8333

>  <PUBCHEM_FEATURE_SELFOVERLAP>  (1) 
25.371

>  <PUBCHEM_SHAPE_FINGERPRINT>  (1) 
11045515 52 18114747023435502068
11370993 144 16199593446258521810
12107183 9 18269849636140702209
12166972 35 17822015302592916862
12363563 72 18409168792227328897
12553582 1 18335979775097144683
12633257 1 14979949298607467371
12707595 3 18333729117676175169
12788726 201 17827352177004329872
13009979 54 18131641079678096513
13533116 47 18197217169282910259
13540713 5 18200328722665377929
13583140 156 17481673418741079002
13955234 65 18124033696175160049
14178342 30 17845386461707510611
14347424 109 18270411615531436091
14767858 380 18187943793614061102
15188451 53 17417802968550975559
17349148 13 17677622964862619466
17492 89 18339642369152820451
17780758 139 17632576007457874419
1813 80 18342463620793674460
18222031 100 18410568479135363658
193927 3 18343587356453848011
19784866 240 18411138052556232535
200 152 17676777453020671474
20388580 30 18411982498444320769
20645477 70 18264765640054320901
20693207 138 17749666411209578963
20775438 99 17830161764511189227
21344244 246 18263650739654065540
22950370 63 18411986819160165658
23402539 116 18263927644553048450
23557571 272 17983571910624208076
23559900 14 18337664321859198249
23566358 27 18195246839523272773
23598288 3 17682398048623924313
312423 11 18341060717641132249
351380 3 18410293601439942307
5104073 3 17988924465849443115
5486654 36 18336277786193732971
59124914 9 8214142954061548262
59755656 520 12036022213794886325
621550 5 17916863513764651240
6669772 16 17977672236314996724
6700243 42 17627259792055901404
7471813 234 18188217511716694484
7970288 3 18410855443091743795
8863177 126 17971201554698614339

>  <PUBCHEM_SHAPE_MULTIPOLES>  (1) 
437.9
12.72
4.04
1.22
3.39
6.91
0.05
-15.51
-0.12
-3.21
0.42
-0.03
-0.3
-0.5

>  <PUBCHEM_SHAPE_SELFOVERLAP>  (1) 
904.554

>  <PUBCHEM_SHAPE_VOLUME>  (1) 
254.2

>  <PUBCHEM_COORDINATE_TYPE>  (1) 
2
5
10

$$$$
