49433
     RDKit          3D

 20 21  0  0  1  0  0  0  0  0999 V2000
    0.3882    4.8533   -0.0120 Cl  0  0  0  0  0  0  0  0  0  0  0  0
    5.1393   -1.0235    0.7970 O   0  0  0  0  0  0  0  0  0  0  0  0
   -0.7945    1.0041   -0.1091 N   0  0  0  0  0  0  0  0  0  0  0  0
   -0.2148   -0.1685   -0.7629 C   0  0  0  0  0  0  0  0  0  0  0  0
   -2.1801    1.1948   -0.5363 C   0  0  0  0  0  0  0  0  0  0  0  0
   -0.0008    2.1972   -0.4016 C   0  0  0  0  0  0  0  0  0  0  0  0
    1.2101   -0.3962   -0.3479 C   0  0  0  0  0  0  0  0  0  0  0  0
   -3.0403    0.0119   -0.1972 C   0  0  0  0  0  0  0  0  0  0  0  0
   -0.5607    3.3925    0.3537 C   0  0  0  0  0  0  0  0  0  0  0  0
    1.5574   -0.3060    0.9945 C   0  0  0  0  0  0  0  0  0  0  0  0
    2.1668   -0.6949   -1.3107 C   0  0  0  0  0  0  0  0  0  0  0  0
   -3.1725   -1.0267   -1.1116 C   0  0  0  0  0  0  0  0  0  0  0  0
   -3.6957   -0.0332    1.0277 C   0  0  0  0  0  0  0  0  0  0  0  0
    2.8811   -0.5173    1.3801 C   0  0  0  0  0  0  0  0  0  0  0  0
    3.4907   -0.9063   -0.9252 C   0  0  0  0  0  0  0  0  0  0  0  0
    3.8479   -0.8176    0.4203 C   0  0  0  0  0  0  0  0  0  0  0  0
   -3.9714   -2.1259   -0.7967 C   0  0  0  0  0  0  0  0  0  0  0  0
   -4.4947   -1.1324    1.3426 C   0  0  0  0  0  0  0  0  0  0  0  0
   -4.6324   -2.1787    0.4303 C   0  0  0  0  0  0  0  0  0  0  0  0
    6.0765   -1.3267   -0.2353 C   0  0  0  0  0  0  0  0  0  0  0  0
  1  9  1  0
  2 16  1  0
  2 20  1  0
  3  4  1  0
  3  5  1  0
  3  6  1  0
  4  7  1  0
  5  8  1  0
  6  9  1  0
  7 10  2  0
  7 11  1  0
  8 12  2  0
  8 13  1  0
 10 14  1  0
 11 15  2  0
 12 17  1  0
 13 18  2  0
 14 16  2  0
 15 16  1  0
 17 19  2  0
 18 19  1  0
M  END
>  <PUBCHEM_COMPOUND_CID>  (1) 
49433

>  <PUBCHEM_CONFORMER_RMSD>  (1) 
0.8

>  <PUBCHEM_CONFORMER_DIVERSEORDER>  (1) 
3
24
9
19
25
11
18
6
10
28
17
20
22
13
4
26
1
16
27
15
5
23
7
21
8
2
12
14

>  <PUBCHEM_MMFF94_PARTIAL_CHARGES>  (1) 
29
1 -0.29
10 -0.15
11 -0.15
12 -0.15
13 -0.15
14 -0.15
15 -0.15
16 0.08
17 -0.15
18 -0.15
19 -0.15
2 -0.36
20 0.28
29 0.15
3 -0.81
30 0.15
31 0.15
32 0.15
33 0.15
34 0.15
35 0.15
36 0.15
37 0.15
4 0.41
5 0.41
6 0.27
7 -0.14
8 -0.14
9 0.29

>  <PUBCHEM_EFFECTIVE_ROTOR_COUNT>  (1) 
7

>  <PUBCHEM_PHARMACOPHORE_FEATURES>  (1) 
4
1 2 acceptor
1 3 cation
6 7 10 11 14 15 16 rings
6 8 12 13 17 18 19 rings

>  <PUBCHEM_HEAVY_ATOM_COUNT>  (1) 
20

>  <PUBCHEM_ATOM_DEF_STEREO_COUNT>  (1) 
0

>  <PUBCHEM_ATOM_UDEF_STEREO_COUNT>  (1) 
0

>  <PUBCHEM_BOND_DEF_STEREO_COUNT>  (1) 
0

>  <PUBCHEM_BOND_UDEF_STEREO_COUNT>  (1) 
0

>  <PUBCHEM_ISOTOPIC_ATOM_COUNT>  (1) 
0

>  <PUBCHEM_COMPONENT_COUNT>  (1) 
1

>  <PUBCHEM_CACTVS_TAUTO_COUNT>  (1) 
1

>  <PUBCHEM_CONFORMER_ID>  (1) 
0000C11900000003

>  <PUBCHEM_MMFF94_ENERGY>  (1) 
67.0393

>  <PUBCHEM_FEATURE_SELFOVERLAP>  (1) 
20.297

>  <PUBCHEM_SHAPE_FINGERPRINT>  (1) 
11045515 52 18114180817728091356
11046707 91 18334010592742809871
11056379 131 18266466395410818900
11370993 144 16916516830617196975
12236239 1 17603587400661145302
12363563 72 18408324410521397227
12553582 1 18411708694506028447
12633257 1 16702297983655710319
12707595 3 18334573585883105591
12714826 92 18113615660535370085
13140716 1 18411419479750772041
13533116 47 18048321334793727555
13540713 5 17914341431991019239
13583140 156 17698411401181230250
14347424 109 18051150356890328483
14787075 74 18114464577906555656
17349148 13 17458631081974162418
1813 80 18343028808419652357
18186145 218 11674881082674347703
18222031 100 18341882035035236591
18927931 339 18339643339224956342
200 152 16877663439776536158
20101258 96 18411420579188468960
20600515 1 18272660085722216470
20739085 24 18200595916205493688
21033648 29 17489299734264398217
21304303 172 18272370820371689297
21304303 282 17396103899548234116
21796203 349 17976577023236788547
22950370 63 18411705400023376046
2297311 6 18340494378810659030
23366157 5 18046349905559457061
23402539 116 18261110738527905478
23557571 272 18268705017990923204
23559900 14 17531803701230206847
314173 85 18342742896873587255
4409770 3 18118116970982803141
458136 41 17687754152590033677
5486654 36 18261405472500974771
602551 16 18341893013125106406
621550 5 17559695974564442140
633830 44 11530752670394297483
6442390 28 17406002755636400721
7495541 125 18272083907970994098
7970288 3 18336547204755281347
81228 2 18125722284116401461

>  <PUBCHEM_SHAPE_MULTIPOLES>  (1) 
402.61
10.62
3.72
1.24
5.76
7.48
0.12
-10.87
1.77
-0.81
-0.06
-0.12
-0.41
0.01

>  <PUBCHEM_SHAPE_SELFOVERLAP>  (1) 
831.768

>  <PUBCHEM_SHAPE_VOLUME>  (1) 
232.5

>  <PUBCHEM_COORDINATE_TYPE>  (1) 
2
5
10

$$$$
