49439
     RDKit          3D

 23 25  0  0  0  0  0  0  0  0999 V2000
   -0.3290   -1.2487    0.2113 N   0  0  0  0  0  0  0  0  0  0  0  0
   -1.3804   -2.0093   -0.4582 C   0  0  0  0  0  0  0  0  0  0  0  0
    0.5899   -2.0263    1.0383 C   0  0  0  0  0  0  0  0  0  0  0  0
   -2.7374   -1.3895   -0.2543 C   0  0  0  0  0  0  0  0  0  0  0  0
    1.9597   -2.1184    0.4202 C   0  0  0  0  0  0  0  0  0  0  0  0
   -0.0832    0.0515   -0.0984 C   0  0  0  0  0  0  0  0  0  0  0  0
   -3.5068   -1.7727    0.8354 C   0  0  0  0  0  0  0  0  0  0  0  0
    2.2515   -3.1669   -0.4411 C   0  0  0  0  0  0  0  0  0  0  0  0
   -3.1995   -0.4435   -1.1585 C   0  0  0  0  0  0  0  0  0  0  0  0
    2.9112   -1.1535    0.7201 C   0  0  0  0  0  0  0  0  0  0  0  0
    0.3960    1.0186    0.7136 C   0  0  0  0  0  0  0  0  0  0  0  0
    0.6534    2.4003    0.3391 C   0  0  0  0  0  0  0  0  0  0  0  0
   -4.7638   -1.1986    1.0246 C   0  0  0  0  0  0  0  0  0  0  0  0
    3.5204   -3.2523   -1.0140 C   0  0  0  0  0  0  0  0  0  0  0  0
   -4.4566    0.1307   -0.9693 C   0  0  0  0  0  0  0  0  0  0  0  0
    4.1800   -1.2389    0.1471 C   0  0  0  0  0  0  0  0  0  0  0  0
   -5.2387   -0.2469    0.1223 C   0  0  0  0  0  0  0  0  0  0  0  0
    4.4846   -2.2883   -0.7199 C   0  0  0  0  0  0  0  0  0  0  0  0
    1.6811    3.1111    0.9592 C   0  0  0  0  0  0  0  0  0  0  0  0
   -0.1272    3.0148   -0.6402 C   0  0  0  0  0  0  0  0  0  0  0  0
    1.9280    4.4362    0.6004 C   0  0  0  0  0  0  0  0  0  0  0  0
    0.1197    4.3399   -0.9990 C   0  0  0  0  0  0  0  0  0  0  0  0
    1.1473    5.0506   -0.3786 C   0  0  0  0  0  0  0  0  0  0  0  0
  1  2  1  0
  1  3  1  0
  1  6  1  0
  2  4  1  0
  3  5  1  0
  4  7  2  0
  4  9  1  0
  5  8  2  0
  5 10  1  0
  6 11  2  0
  7 13  1  0
  8 14  1  0
  9 15  2  0
 10 16  2  0
 11 12  1  0
 12 19  2  0
 12 20  1  0
 13 17  2  0
 14 18  2  0
 15 17  1  0
 16 18  1  0
 19 21  1  0
 20 22  2  0
 21 23  2  0
 22 23  1  0
M  END
>  <PUBCHEM_COMPOUND_CID>  (1) 
49439

>  <PUBCHEM_CONFORMER_RMSD>  (1) 
0.8

>  <PUBCHEM_CONFORMER_DIVERSEORDER>  (1) 
1
14
13
5
10
7
8
11
3
12
9
2
6
4

>  <PUBCHEM_MMFF94_PARTIAL_CHARGES>  (1) 
40
1 -0.84
10 -0.15
11 -0.18
12 0.03
13 -0.15
14 -0.15
15 -0.15
16 -0.15
17 -0.15
18 -0.15
19 -0.15
2 0.51
20 -0.15
21 -0.15
22 -0.15
23 -0.15
28 0.15
29 0.15
3 0.51
30 0.15
31 0.15
32 0.15
33 0.15
34 0.15
35 0.15
36 0.15
37 0.15
38 0.15
39 0.15
4 -0.14
40 0.15
41 0.15
42 0.15
43 0.15
44 0.15
5 -0.14
6 -0.05
7 -0.15
8 -0.15
9 -0.15

>  <PUBCHEM_EFFECTIVE_ROTOR_COUNT>  (1) 
6

>  <PUBCHEM_PHARMACOPHORE_FEATURES>  (1) 
4
1 1 cation
6 12 19 20 21 22 23 rings
6 4 7 9 13 15 17 rings
6 5 8 10 14 16 18 rings

>  <PUBCHEM_HEAVY_ATOM_COUNT>  (1) 
23

>  <PUBCHEM_ATOM_DEF_STEREO_COUNT>  (1) 
0

>  <PUBCHEM_ATOM_UDEF_STEREO_COUNT>  (1) 
0

>  <PUBCHEM_BOND_DEF_STEREO_COUNT>  (1) 
0

>  <PUBCHEM_BOND_UDEF_STEREO_COUNT>  (1) 
1

>  <PUBCHEM_ISOTOPIC_ATOM_COUNT>  (1) 
0

>  <PUBCHEM_COMPONENT_COUNT>  (1) 
1

>  <PUBCHEM_CACTVS_TAUTO_COUNT>  (1) 
1

>  <PUBCHEM_CONFORMER_ID>  (1) 
0000C11F00000001

>  <PUBCHEM_MMFF94_ENERGY>  (1) 
71.9628

>  <PUBCHEM_FEATURE_SELFOVERLAP>  (1) 
20.297

>  <PUBCHEM_SHAPE_FINGERPRINT>  (1) 
11045515 52 18338800000705057643
11582403 64 14832158619026678864
12160290 23 17551489069028639889
12422481 6 17979878844250282792
12788726 201 18046062657851321034
13590594 115 18266190443841633737
13690498 29 17698178253113835286
138480 1 18410855481703458920
14251757 5 17975693888093477997
14363568 33 18337965583270141525
14955137 171 18338813246790887027
15081414 286 18412266155316827744
15230672 131 17686342380283053044
15664445 248 18200614552469472830
16087824 20 18050853213451168393
16988056 13 18337094718785690629
17138139 8 16899567704399139853
1813 80 18130238055380181487
18785283 64 18192152813597021827
21033648 29 17702647866606619259
21049683 271 18261969534070275301
21285901 2 17843964736869503135
21641784 216 18193860175362242582
23175994 123 18410296870189492919
23558518 356 17182769975222292923
23559900 14 18335696174845300043
23566358 27 18195527219658447591
23929065 36 17906148678499876690
24771750 20 17974301107313566140
283562 15 18118410536086619594
3091708 16 9212916239768243184
38695281 34 17980196714785029488
4017518 198 17768526442010315380
532947 4 18196376042513179996
6287921 2 17899982922011823343
6443956 14 18410293631551770252
7164475 11 17978226063520406486
79837 15 17257365778914597480
9981440 41 17618499230596298305

>  <PUBCHEM_SHAPE_MULTIPOLES>  (1) 
468.35
8.44
6.72
1.11
7.71
10.86
0.03
-8.13
0.47
-7.09
0.88
0.21
-0.02
1.42

>  <PUBCHEM_SHAPE_SELFOVERLAP>  (1) 
1006.595

>  <PUBCHEM_SHAPE_VOLUME>  (1) 
256.8

>  <PUBCHEM_COORDINATE_TYPE>  (1) 
2
5
10

$$$$
