49441
     RDKit          3D

 10  9  0  0  1  0  0  0  0  0999 V2000
   -3.0240   -2.6370   -0.1493 Cl  0  0  0  0  0  0  0  0  0  0  0  0
    4.2259   -1.2713    0.2569 Cl  0  0  0  0  0  0  0  0  0  0  0  0
   -0.6069    0.5649    0.2100 N   0  0  0  0  0  0  0  0  0  0  0  0
    0.7417    0.8192   -0.2954 C   0  0  0  0  0  0  0  0  0  0  0  0
   -1.0711   -0.7556   -0.2139 C   0  0  0  0  0  0  0  0  0  0  0  0
   -1.5291    1.6027   -0.2497 C   0  0  0  0  0  0  0  0  0  0  0  0
    1.7031   -0.2664    0.1864 C   0  0  0  0  0  0  0  0  0  0  0  0
   -2.4595   -1.0234    0.3461 C   0  0  0  0  0  0  0  0  0  0  0  0
   -1.0953    2.9761    0.2337 C   0  0  0  0  0  0  0  0  0  0  0  0
    3.1152   -0.0093   -0.3247 C   0  0  0  0  0  0  0  0  0  0  0  0
  1  8  1  0
  2 10  1  0
  3  4  1  0
  3  5  1  0
  3  6  1  0
  4  7  1  0
  5  8  1  0
  6  9  1  0
  7 10  1  0
M  END
>  <PUBCHEM_COMPOUND_CID>  (1) 
49441

>  <PUBCHEM_CONFORMER_RMSD>  (1) 
0.6

>  <PUBCHEM_CONFORMER_DIVERSEORDER>  (1) 
1
31
42
124
37
5
80
39
128
97
33
123
91
96
94
30
56
111
88
2
106
131
74
126
79
17
4
28
59
66
122
69
62
51
34
85
89
45
40
18
93
113
24
11
32
73
105
104
75
63
15
29
103
130
115
136
13
102
114
43
101
53
10
57
12
68
16
78
54
65
22
90
8
77
67
27
71
21
98
50
61
7
133
23
70
127
14
60
20
83
55
19
92
58
25
26
121
95
119
81
6
108
100
38
132
117
87
137
49
44
52
109
35
76
3
116
84
47
9
72
120
134
86
99
138
82
48
64
46
36
41
107
112
125
141
129
139
110
118
135
140

>  <PUBCHEM_MMFF94_PARTIAL_CHARGES>  (1) 
8
1 -0.29
10 0.29
2 -0.29
3 -0.81
4 0.27
5 0.27
6 0.27
8 0.29

>  <PUBCHEM_EFFECTIVE_ROTOR_COUNT>  (1) 
6

>  <PUBCHEM_PHARMACOPHORE_FEATURES>  (1) 
1
1 3 cation

>  <PUBCHEM_HEAVY_ATOM_COUNT>  (1) 
10

>  <PUBCHEM_ATOM_DEF_STEREO_COUNT>  (1) 
0

>  <PUBCHEM_ATOM_UDEF_STEREO_COUNT>  (1) 
0

>  <PUBCHEM_BOND_DEF_STEREO_COUNT>  (1) 
0

>  <PUBCHEM_BOND_UDEF_STEREO_COUNT>  (1) 
0

>  <PUBCHEM_ISOTOPIC_ATOM_COUNT>  (1) 
0

>  <PUBCHEM_COMPONENT_COUNT>  (1) 
1

>  <PUBCHEM_CACTVS_TAUTO_COUNT>  (1) 
1

>  <PUBCHEM_CONFORMER_ID>  (1) 
0000C12100000001

>  <PUBCHEM_MMFF94_ENERGY>  (1) 
10.7347

>  <PUBCHEM_FEATURE_SELFOVERLAP>  (1) 
5.074

>  <PUBCHEM_SHAPE_FINGERPRINT>  (1) 
11357001 24 18337113362889913017
13380535 76 18053659174975786748
18342897 69 18409165502456700322
19021347 4 17979640026587931585
20281407 28 18341334482560650842
20524608 308 18267868272356450830
20645477 70 17544745086249908519
20671657 53 18196371644372015719
20711985 344 18337378371109684385
20711985 365 18409167705595419237
20871998 184 18273496758209901686
20871998 22 18195242441313062425
23402539 116 18197766726964281109
3086196 2 18410847755368393538

>  <PUBCHEM_SHAPE_MULTIPOLES>  (1) 
204.55
6.01
2.97
0.68
6.15
1.14
0
-5.03
0.22
-3.13
0.11
0.02
-0.01
-0.25

>  <PUBCHEM_SHAPE_SELFOVERLAP>  (1) 
350.595

>  <PUBCHEM_SHAPE_VOLUME>  (1) 
137.9

>  <PUBCHEM_COORDINATE_TYPE>  (1) 
2
5
10

$$$$
