49475
     RDKit          3D

 18 19  0  0  0  0  0  0  0  0999 V2000
   -0.7591   -1.2851    0.2785 O   0  0  0  0  0  0  0  0  0  0  0  0
    3.2715    1.2346    0.4661 O   0  0  0  0  0  0  0  0  0  0  0  0
   -2.9666    2.0730   -0.3382 O   0  0  0  0  0  0  0  0  0  0  0  0
    2.4379   -1.9154   -0.6538 N   0  0  0  0  0  0  0  0  0  0  0  0
    1.2384   -0.0333    0.3704 C   0  0  0  0  0  0  0  0  0  0  0  0
   -0.1480   -0.0629    0.2130 C   0  0  0  0  0  0  0  0  0  0  0  0
   -0.8494    1.1183    0.0022 C   0  0  0  0  0  0  0  0  0  0  0  0
    2.0010   -1.2996    0.5984 C   0  0  0  0  0  0  0  0  0  0  0  0
    1.9181    1.1836    0.3150 C   0  0  0  0  0  0  0  0  0  0  0  0
   -2.9357   -0.2958   -0.0944 C   0  0  0  0  0  0  0  0  0  0  0  0
   -2.3082    1.0559   -0.1602 C   0  0  0  0  0  0  0  0  0  0  0  0
   -2.1361   -1.3603    0.1216 C   0  0  0  0  0  0  0  0  0  0  0  0
   -0.1731    2.3401   -0.0538 C   0  0  0  0  0  0  0  0  0  0  0  0
    1.2132    2.3685    0.1030 C   0  0  0  0  0  0  0  0  0  0  0  0
   -4.4213   -0.3311   -0.3042 C   0  0  0  0  0  0  0  0  0  0  0  0
   -2.6265   -2.7741    0.2477 C   0  0  0  0  0  0  0  0  0  0  0  0
    3.1840   -3.1369   -0.3945 C   0  0  0  0  0  0  0  0  0  0  0  0
    4.0600    1.1206   -0.7166 C   0  0  0  0  0  0  0  0  0  0  0  0
  1  6  1  0
  1 12  1  0
  2  9  1  0
  2 18  1  0
  3 11  2  0
  4  8  1  0
  4 17  1  0
  5  6  2  0
  5  8  1  0
  5  9  1  0
  6  7  1  0
  7 11  1  0
  7 13  2  0
  9 14  2  0
 10 11  1  0
 10 12  2  0
 10 15  1  0
 12 16  1  0
 13 14  1  0
M  END
>  <PUBCHEM_COMPOUND_CID>  (1) 
49475

>  <PUBCHEM_CONFORMER_RMSD>  (1) 
0.6

>  <PUBCHEM_CONFORMER_DIVERSEORDER>  (1) 
2
4
6
1
3
5

>  <PUBCHEM_MMFF94_PARTIAL_CHARGES>  (1) 
21
1 -0.16
10 -0.12
11 0.47
12 -0.06
13 -0.15
14 -0.15
15 0.14
16 0.14
17 0.27
18 0.28
2 -0.36
21 0.15
22 0.15
23 0.36
3 -0.57
4 -0.9
5 -0.14
6 0.08
7 0.09
8 0.41
9 0.08

>  <PUBCHEM_EFFECTIVE_ROTOR_COUNT>  (1) 
3

>  <PUBCHEM_PHARMACOPHORE_FEATURES>  (1) 
7
1 1 acceptor
1 2 acceptor
1 3 acceptor
1 4 cation
1 4 donor
6 1 6 7 10 11 12 rings
6 5 6 7 9 13 14 rings

>  <PUBCHEM_HEAVY_ATOM_COUNT>  (1) 
18

>  <PUBCHEM_ATOM_DEF_STEREO_COUNT>  (1) 
0

>  <PUBCHEM_ATOM_UDEF_STEREO_COUNT>  (1) 
0

>  <PUBCHEM_BOND_DEF_STEREO_COUNT>  (1) 
0

>  <PUBCHEM_BOND_UDEF_STEREO_COUNT>  (1) 
0

>  <PUBCHEM_ISOTOPIC_ATOM_COUNT>  (1) 
0

>  <PUBCHEM_COMPONENT_COUNT>  (1) 
1

>  <PUBCHEM_CACTVS_TAUTO_COUNT>  (1) 
3

>  <PUBCHEM_CONFORMER_ID>  (1) 
0000C14300000002

>  <PUBCHEM_MMFF94_ENERGY>  (1) 
55.5622

>  <PUBCHEM_FEATURE_SELFOVERLAP>  (1) 
35.548

>  <PUBCHEM_SHAPE_FINGERPRINT>  (1) 
10616163 171 18338236097268968047
10756046 5 18336551504021637260
10967382 1 18410290328489668235
1100329 8 17766280868849449656
11132069 177 18265043820100357089
11578080 2 16880172431386194070
11680986 33 18411419501061467619
116883 192 18268708307893329358
12553582 1 18337946921779535323
12839892 36 18267564940956173474
13140716 1 18194964037359593313
13221675 6 18337952410526362361
13380535 21 18410580578068831320
13380535 76 18336259149729358906
14178342 30 18339631343249332480
14790565 3 17547584682012425776
15196674 1 18410291372646859917
15442244 35 18340768118050005625
15536298 74 18341328911855958704
16945 1 18337950211603509033
18186145 218 18043243548813331917
19591789 44 17978233751385019025
20588541 1 18336545018304794817
20600515 1 17617630200104437184
20645477 70 18410283701693052535
20905425 154 18412549803673701230
21267235 1 18409172108031960114
21501502 16 18341334387965693296
23184049 29 18265326201736971906
2334 1 18409724037109836369
23366157 5 18113622249168253986
23557571 272 17697880268546257182
23559900 14 18340760435097324616
23566358 2 18409443652859581933
2748010 2 18336537214623498497
335352 9 18337105769604186989
34934 24 18411130376700360971
4280585 95 18122913028108384662
7364860 26 18341891905064982162
81228 2 17408254568687869962
8809292 202 18043810003428242995
9709674 26 18410290332974909791

>  <PUBCHEM_SHAPE_MULTIPOLES>  (1) 
347.84
6.63
3.29
0.72
0.67
1.49
-0.01
1.37
-1.08
-1.29
-0.22
-0.23
0.05
0.47

>  <PUBCHEM_SHAPE_SELFOVERLAP>  (1) 
738.7

>  <PUBCHEM_SHAPE_VOLUME>  (1) 
196.1

>  <PUBCHEM_COORDINATE_TYPE>  (1) 
2
5
10

$$$$
