49497
     RDKit          3D

 23 25  0  0  0  0  0  0  0  0999 V2000
    3.8633    2.1644   -1.2861 O   0  0  0  0  0  0  0  0  0  0  0  0
   -0.4970    0.8127    0.4682 O   0  0  0  0  0  0  0  0  0  0  0  0
    1.4935   -3.5008    0.2210 O   0  0  0  0  0  0  0  0  0  0  0  0
   -4.0222   -0.6029   -0.9807 O   0  0  0  0  0  0  0  0  0  0  0  0
    2.1134    0.5082    0.2293 N   0  0  0  0  0  0  0  0  0  0  0  0
    1.7614   -0.7530    0.8783 C   0  0  0  0  0  0  0  0  0  0  0  0
    2.2892    0.3193   -1.2175 C   0  0  0  0  0  0  0  0  0  0  0  0
    3.3367    1.0730    0.8156 C   0  0  0  0  0  0  0  0  0  0  0  0
    0.4875   -1.3276    0.3453 C   0  0  0  0  0  0  0  0  0  0  0  0
    2.6683    1.6453   -1.8708 C   0  0  0  0  0  0  0  0  0  0  0  0
    3.6900    2.3817    0.1146 C   0  0  0  0  0  0  0  0  0  0  0  0
   -0.6283   -0.5119    0.1523 C   0  0  0  0  0  0  0  0  0  0  0  0
   -1.8081   -1.0532   -0.3442 C   0  0  0  0  0  0  0  0  0  0  0  0
    0.4157   -2.6868    0.0398 C   0  0  0  0  0  0  0  0  0  0  0  0
   -1.5841    1.6583    0.2964 C   0  0  0  0  0  0  0  0  0  0  0  0
   -2.7871    1.2647   -0.1696 C   0  0  0  0  0  0  0  0  0  0  0  0
   -2.9662   -0.1699   -0.5367 C   0  0  0  0  0  0  0  0  0  0  0  0
   -1.8852   -2.4143   -0.6521 C   0  0  0  0  0  0  0  0  0  0  0  0
   -0.7692   -3.2292   -0.4581 C   0  0  0  0  0  0  0  0  0  0  0  0
   -1.2444    3.0721    0.6718 C   0  0  0  0  0  0  0  0  0  0  0  0
   -3.9992    2.1329   -0.3393 C   0  0  0  0  0  0  0  0  0  0  0  0
   -1.5484    3.3509    2.1299 C   0  0  0  0  0  0  0  0  0  0  0  0
    1.6205   -4.1338    1.4925 C   0  0  0  0  0  0  0  0  0  0  0  0
  1 10  1  0
  1 11  1  0
  2 12  1  0
  2 15  1  0
  3 14  1  0
  3 23  1  0
  4 17  2  0
  5  6  1  0
  5  7  1  0
  5  8  1  0
  6  9  1  0
  7 10  1  0
  8 11  1  0
  9 12  2  0
  9 14  1  0
 12 13  1  0
 13 17  1  0
 13 18  2  0
 14 19  2  0
 15 16  2  0
 15 20  1  0
 16 17  1  0
 16 21  1  0
 18 19  1  0
 20 22  1  0
M  END
>  <PUBCHEM_COMPOUND_CID>  (1) 
49497

>  <PUBCHEM_CONFORMER_RMSD>  (1) 
0.8

>  <PUBCHEM_CONFORMER_DIVERSEORDER>  (1) 
1
10
3
2
4
9
7
5
6
8

>  <PUBCHEM_MMFF94_PARTIAL_CHARGES>  (1) 
24
1 -0.56
10 0.28
11 0.28
12 0.08
13 0.09
14 0.08
15 -0.06
16 -0.12
17 0.47
18 -0.15
19 -0.15
2 -0.16
20 0.14
21 0.14
23 0.28
3 -0.36
34 0.15
35 0.15
4 -0.57
5 -0.81
6 0.41
7 0.27
8 0.27
9 -0.14

>  <PUBCHEM_EFFECTIVE_ROTOR_COUNT>  (1) 
5.2

>  <PUBCHEM_PHARMACOPHORE_FEATURES>  (1) 
9
1 1 acceptor
1 2 acceptor
1 22 hydrophobe
1 3 acceptor
1 4 acceptor
1 5 cation
6 1 5 7 8 10 11 rings
6 2 12 13 15 16 17 rings
6 9 12 13 14 18 19 rings

>  <PUBCHEM_HEAVY_ATOM_COUNT>  (1) 
23

>  <PUBCHEM_ATOM_DEF_STEREO_COUNT>  (1) 
0

>  <PUBCHEM_ATOM_UDEF_STEREO_COUNT>  (1) 
0

>  <PUBCHEM_BOND_DEF_STEREO_COUNT>  (1) 
0

>  <PUBCHEM_BOND_UDEF_STEREO_COUNT>  (1) 
0

>  <PUBCHEM_ISOTOPIC_ATOM_COUNT>  (1) 
0

>  <PUBCHEM_COMPONENT_COUNT>  (1) 
1

>  <PUBCHEM_CACTVS_TAUTO_COUNT>  (1) 
3

>  <PUBCHEM_CONFORMER_ID>  (1) 
0000C15900000001

>  <PUBCHEM_MMFF94_ENERGY>  (1) 
65.9819

>  <PUBCHEM_FEATURE_SELFOVERLAP>  (1) 
45.7

>  <PUBCHEM_SHAPE_FINGERPRINT>  (1) 
10498660 4 18268146633371232261
10764073 3 16252594361100155922
10967382 1 18340755018674208723
11582403 64 16195877221879794122
11640471 11 17750518558264296524
11725454 13 16771514491745651474
12173636 292 18265046010559675302
12293681 160 18269837682291960801
12553582 1 17545040863029514010
12788726 201 18048884292645830798
13140716 1 18410008870677594026
13149001 5 17620746619320295031
133893 2 17898303701019856852
13583140 156 17172368677317949481
13965767 371 18042388176027834844
14790565 3 18340496672492558737
16945 1 18339915030550840447
17818456 19 18339063987423940704
17980427 23 17409627879779408757
19591789 44 17760646267468847987
20465049 17 17408847265199882261
20510252 161 18194971961326119818
20600515 1 17982989422432151712
20642791 105 18118101791945126405
20715895 44 17828740878013782045
20775438 99 16473713068036967430
21141583 151 18055358195440342416
22149856 69 18127968613107200385
23366157 5 18115302250731639779
23419403 2 15746787035831948368
23557571 272 17838063959275434748
23558518 356 18341062808641014506
23559900 14 18125987287544878819
350125 39 18124597474967182673
352729 6 18409445925187782466
394222 165 18040986328650562873
469060 322 17973463258357932059
474 4 18187365393792915381
6992083 37 17331960521666246241
7364860 26 18195804059758270954
81228 2 17909853233383077866
9981440 41 18335132133167845722

>  <PUBCHEM_SHAPE_MULTIPOLES>  (1) 
444.87
6.04
5.06
1.39
0.69
2.68
0.12
-4.41
-1.38
-1.66
1.52
-0.54
-0.68
-2.24

>  <PUBCHEM_SHAPE_SELFOVERLAP>  (1) 
948.464

>  <PUBCHEM_SHAPE_VOLUME>  (1) 
247.6

>  <PUBCHEM_COORDINATE_TYPE>  (1) 
2
5
10

$$$$
