49493
     RDKit          3D

 21 23  0  0  0  0  0  0  0  0999 V2000
   -4.2737   -0.3687   -1.2449 O   0  0  0  0  0  0  0  0  0  0  0  0
    0.2950   -0.9551    0.4007 O   0  0  0  0  0  0  0  0  0  0  0  0
    0.0433    3.7825    0.7807 O   0  0  0  0  0  0  0  0  0  0  0  0
    4.0912   -0.7715   -1.0692 O   0  0  0  0  0  0  0  0  0  0  0  0
   -2.0184    0.3161    0.3507 N   0  0  0  0  0  0  0  0  0  0  0  0
   -1.2168    1.2634    1.1226 C   0  0  0  0  0  0  0  0  0  0  0  0
   -2.1269    0.7449   -1.0507 C   0  0  0  0  0  0  0  0  0  0  0  0
   -3.3577    0.1669    0.9367 C   0  0  0  0  0  0  0  0  0  0  0  0
    0.1734    1.3961    0.5880 C   0  0  0  0  0  0  0  0  0  0  0  0
   -2.9776   -0.2515   -1.8330 C   0  0  0  0  0  0  0  0  0  0  0  0
   -4.1787   -0.8166    0.1077 C   0  0  0  0  0  0  0  0  0  0  0  0
    0.9058    0.2624    0.2346 C   0  0  0  0  0  0  0  0  0  0  0  0
    2.2012    0.3975   -0.2631 C   0  0  0  0  0  0  0  0  0  0  0  0
    0.7412    2.6621    0.4418 C   0  0  0  0  0  0  0  0  0  0  0  0
    2.7732    1.6632   -0.4110 C   0  0  0  0  0  0  0  0  0  0  0  0
    2.0381    2.7951   -0.0567 C   0  0  0  0  0  0  0  0  0  0  0  0
    1.0000   -2.0978    0.0585 C   0  0  0  0  0  0  0  0  0  0  0  0
    2.9512   -0.8145   -0.6277 C   0  0  0  0  0  0  0  0  0  0  0  0
    2.2493   -2.0972   -0.4289 C   0  0  0  0  0  0  0  0  0  0  0  0
    0.2324   -3.3621    0.2840 C   0  0  0  0  0  0  0  0  0  0  0  0
    0.4545   -3.9152    1.6794 C   0  0  0  0  0  0  0  0  0  0  0  0
  1 10  1  0
  1 11  1  0
  2 12  1  0
  2 17  1  0
  3 14  1  0
  4 18  2  0
  5  6  1  0
  5  7  1  0
  5  8  1  0
  6  9  1  0
  7 10  1  0
  8 11  1  0
  9 12  2  0
  9 14  1  0
 12 13  1  0
 13 15  2  0
 13 18  1  0
 14 16  2  0
 15 16  1  0
 17 19  2  0
 17 20  1  0
 18 19  1  0
 20 21  1  0
M  END
>  <PUBCHEM_COMPOUND_CID>  (1) 
49493

>  <PUBCHEM_CONFORMER_RMSD>  (1) 
0.6

>  <PUBCHEM_CONFORMER_DIVERSEORDER>  (1) 
1
14
3
17
15
13
18
12
16
2
4
11
7
8
5
6
9
10

>  <PUBCHEM_MMFF94_PARTIAL_CHARGES>  (1) 
24
1 -0.56
10 0.28
11 0.28
12 0.08
13 0.09
14 0.08
15 -0.15
16 -0.15
17 -0.06
18 0.47
19 -0.14
2 -0.16
20 0.14
3 -0.53
32 0.15
33 0.15
34 0.15
37 0.45
4 -0.57
5 -0.81
6 0.41
7 0.27
8 0.27
9 -0.14

>  <PUBCHEM_EFFECTIVE_ROTOR_COUNT>  (1) 
4.2

>  <PUBCHEM_PHARMACOPHORE_FEATURES>  (1) 
9
1 1 acceptor
1 2 acceptor
1 21 hydrophobe
1 3 donor
1 4 acceptor
1 5 cation
6 1 5 7 8 10 11 rings
6 2 12 13 17 18 19 rings
6 9 12 13 14 15 16 rings

>  <PUBCHEM_HEAVY_ATOM_COUNT>  (1) 
21

>  <PUBCHEM_ATOM_DEF_STEREO_COUNT>  (1) 
0

>  <PUBCHEM_ATOM_UDEF_STEREO_COUNT>  (1) 
0

>  <PUBCHEM_BOND_DEF_STEREO_COUNT>  (1) 
0

>  <PUBCHEM_BOND_UDEF_STEREO_COUNT>  (1) 
0

>  <PUBCHEM_ISOTOPIC_ATOM_COUNT>  (1) 
0

>  <PUBCHEM_COMPONENT_COUNT>  (1) 
1

>  <PUBCHEM_CACTVS_TAUTO_COUNT>  (1) 
14

>  <PUBCHEM_CONFORMER_ID>  (1) 
0000C15500000001

>  <PUBCHEM_MMFF94_ENERGY>  (1) 
50.1283

>  <PUBCHEM_FEATURE_SELFOVERLAP>  (1) 
45.699

>  <PUBCHEM_SHAPE_FINGERPRINT>  (1) 
10967382 1 18340497771581621616
1100329 8 18337673113541436050
11321824 6 17188409370022811684
11680986 33 18125732420465482336
12553582 1 18195811773688443723
12730499 353 18260543446969118375
12788726 201 17410199617405268325
13004483 165 17182462150684414523
13140716 1 18267309905803093138
13149001 5 18194418885829585910
13583140 156 17023187197111523704
13911987 19 18188790400060720190
14178342 30 17979632343292288168
16945 1 18339085874144828912
20645477 70 18342444976910121261
21421861 104 17829624858890291290
21452121 199 17902209144815739355
21634736 98 18201154446542615838
21731516 1 18057594370152111215
221490 88 18267030624911417043
22182313 1 17623874704823013196
2255824 54 18270960253688631309
2334 1 18195537102087343562
23402539 116 18269841917751966606
23419403 2 17536634946005032009
23566358 2 18053115196199100926
23598291 2 18060146418619403017
23728640 28 16391543742626384699
238 59 18191560095541887343
257057 1 17759787157396463858
2748010 2 17405714065340933760
3060560 45 18262506087249556295
3323516 105 18337674221479182079
34934 24 18052264985626326257
350125 39 17113548567085779504
352729 6 17693095575281610008
4409770 3 16325100920437296256
6338986 31 17832971759426933498
81228 2 17185572643113715171
8272917 22 18341620326141346745
9981440 41 16765326594343647896

>  <PUBCHEM_SHAPE_MULTIPOLES>  (1) 
403.71
5.94
4.18
1.28
4.53
1.47
-0.15
0.41
-2.44
-2.52
1.91
0.77
0.33
0.05

>  <PUBCHEM_SHAPE_SELFOVERLAP>  (1) 
867.633

>  <PUBCHEM_SHAPE_VOLUME>  (1) 
221.8

>  <PUBCHEM_COORDINATE_TYPE>  (1) 
2
5
10

$$$$
