49495
     RDKit          3D

 21 23  0  0  0  0  0  0  0  0999 V2000
    0.2723    0.9507   -0.4026 O   0  0  0  0  0  0  0  0  0  0  0  0
    0.1201   -3.7920   -0.7730 O   0  0  0  0  0  0  0  0  0  0  0  0
    4.0737    0.8500    1.0619 O   0  0  0  0  0  0  0  0  0  0  0  0
   -2.0143   -0.3681   -0.3459 N   0  0  0  0  0  0  0  0  0  0  0  0
   -2.1069   -0.8030    1.0549 C   0  0  0  0  0  0  0  0  0  0  0  0
   -3.3474   -0.2353   -0.9502 C   0  0  0  0  0  0  0  0  0  0  0  0
   -2.9217    0.1881    1.8877 C   0  0  0  0  0  0  0  0  0  0  0  0
   -4.2028    0.7741   -0.1829 C   0  0  0  0  0  0  0  0  0  0  0  0
   -4.3082    0.4041    1.2922 C   0  0  0  0  0  0  0  0  0  0  0  0
   -1.1934   -1.3006   -1.1180 C   0  0  0  0  0  0  0  0  0  0  0  0
    0.2001   -1.4028   -0.5851 C   0  0  0  0  0  0  0  0  0  0  0  0
    0.9089   -0.2534   -0.2350 C   0  0  0  0  0  0  0  0  0  0  0  0
    0.7947   -2.6564   -0.4374 C   0  0  0  0  0  0  0  0  0  0  0  0
    2.2076   -0.3601    0.2610 C   0  0  0  0  0  0  0  0  0  0  0  0
    2.0948   -2.7610    0.0594 C   0  0  0  0  0  0  0  0  0  0  0  0
    2.8064   -1.6132    0.4104 C   0  0  0  0  0  0  0  0  0  0  0  0
    0.9535    2.1086   -0.0637 C   0  0  0  0  0  0  0  0  0  0  0  0
    2.9324    0.8681    0.6221 C   0  0  0  0  0  0  0  0  0  0  0  0
    2.2034    2.1353    0.4219 C   0  0  0  0  0  0  0  0  0  0  0  0
    0.1591    3.3561   -0.2904 C   0  0  0  0  0  0  0  0  0  0  0  0
    0.3676    3.9110   -1.6873 C   0  0  0  0  0  0  0  0  0  0  0  0
  1 12  1  0
  1 17  1  0
  2 13  1  0
  3 18  2  0
  4  5  1  0
  4  6  1  0
  4 10  1  0
  5  7  1  0
  6  8  1  0
  7  9  1  0
  8  9  1  0
 10 11  1  0
 11 12  2  0
 11 13  1  0
 12 14  1  0
 13 15  2  0
 14 16  2  0
 14 18  1  0
 15 16  1  0
 17 19  2  0
 17 20  1  0
 18 19  1  0
 20 21  1  0
M  END
>  <PUBCHEM_COMPOUND_CID>  (1) 
49495

>  <PUBCHEM_CONFORMER_RMSD>  (1) 
0.6

>  <PUBCHEM_CONFORMER_DIVERSEORDER>  (1) 
1
12
3
15
4
14
8
19
17
16
18
21
20
2
11
13
7
22
10
9
6
5

>  <PUBCHEM_MMFF94_PARTIAL_CHARGES>  (1) 
21
1 -0.16
10 0.41
11 -0.14
12 0.08
13 0.08
14 0.09
15 -0.15
16 -0.15
17 -0.06
18 0.47
19 -0.14
2 -0.53
20 0.14
3 -0.57
34 0.15
35 0.15
36 0.15
39 0.45
4 -0.81
5 0.27
6 0.27

>  <PUBCHEM_EFFECTIVE_ROTOR_COUNT>  (1) 
4.2

>  <PUBCHEM_PHARMACOPHORE_FEATURES>  (1) 
8
1 1 acceptor
1 2 donor
1 21 hydrophobe
1 3 acceptor
1 4 cation
6 1 12 14 17 18 19 rings
6 11 12 13 14 15 16 rings
6 4 5 6 7 8 9 rings

>  <PUBCHEM_HEAVY_ATOM_COUNT>  (1) 
21

>  <PUBCHEM_ATOM_DEF_STEREO_COUNT>  (1) 
0

>  <PUBCHEM_ATOM_UDEF_STEREO_COUNT>  (1) 
0

>  <PUBCHEM_BOND_DEF_STEREO_COUNT>  (1) 
0

>  <PUBCHEM_BOND_UDEF_STEREO_COUNT>  (1) 
0

>  <PUBCHEM_ISOTOPIC_ATOM_COUNT>  (1) 
0

>  <PUBCHEM_COMPONENT_COUNT>  (1) 
1

>  <PUBCHEM_CACTVS_TAUTO_COUNT>  (1) 
14

>  <PUBCHEM_CONFORMER_ID>  (1) 
0000C15700000001

>  <PUBCHEM_MMFF94_ENERGY>  (1) 
41.3939

>  <PUBCHEM_FEATURE_SELFOVERLAP>  (1) 
40.623

>  <PUBCHEM_SHAPE_FINGERPRINT>  (1) 
10119406 146 14740714908789974471
10382601 240 18340772559278454402
104564 63 18050859818513958764
108634 29 17399790506580828581
10967382 1 18339630205335939878
11244481 83 16516829119703335821
11640471 11 17703801322848929073
11725454 13 17098858817240132903
12403259 327 17168135776145886481
12633257 1 17968673725514585249
12954195 1 16823638154562999628
13140716 1 18194385913692676248
13583140 156 17532636018363110539
13965767 371 18270658918956984216
14178342 30 17764006353396243336
14713325 29 16391028720324153244
14790565 3 18337678632569734140
14955137 171 18191606322264285720
15420108 30 18130496462092702831
1601671 61 18335991938613689044
16945 1 18339073916971668622
17357779 13 18122340173210603789
18219364 16 18335692884319654453
19591789 44 18197779908571924246
20157964 124 18341892945143510329
20600515 1 17095244687511060821
20715895 44 17339572493070760513
20739085 24 18338249171291770496
21197605 99 17982174410298347129
21524375 3 17985272017308457183
21665062 11 18410017632357655817
22149856 69 15767551318636511737
22182313 1 18053647094029458774
23184049 59 18413388734929113755
23419403 2 17536286182008076150
23558518 356 17756695339574143300
2748010 2 18052521189674473268
3472631 163 16056886819094593273
350125 39 17760933235048860074
352729 6 17692242354226787846
4409770 3 15320577614493557615
474 4 18341894121289316443
5312544 6 17905892827276629567
6992083 37 18121486119116963008
81228 2 17828211986544070045

>  <PUBCHEM_SHAPE_MULTIPOLES>  (1) 
409.58
6.13
4.14
1.32
4.82
1.53
-0.16
0.28
-2.55
-2.65
1.9
0.82
0.32
0.13

>  <PUBCHEM_SHAPE_SELFOVERLAP>  (1) 
877.199

>  <PUBCHEM_SHAPE_VOLUME>  (1) 
226.3

>  <PUBCHEM_COORDINATE_TYPE>  (1) 
2
5
10

$$$$
