49501
     RDKit          3D

 23 25  0  0  0  0  0  0  0  0999 V2000
   -0.4424   -0.6707    0.7817 O   0  0  0  0  0  0  0  0  0  0  0  0
    2.1291    3.2037   -0.2213 O   0  0  0  0  0  0  0  0  0  0  0  0
   -3.8488    1.1017   -0.5542 O   0  0  0  0  0  0  0  0  0  0  0  0
    2.1487   -0.8207    0.2970 N   0  0  0  0  0  0  0  0  0  0  0  0
    3.3154   -1.4960    0.8825 C   0  0  0  0  0  0  0  0  0  0  0  0
    2.2068   -0.8371   -1.1713 C   0  0  0  0  0  0  0  0  0  0  0  0
    3.4034   -2.9498    0.4156 C   0  0  0  0  0  0  0  0  0  0  0  0
    2.2587   -2.2693   -1.7054 C   0  0  0  0  0  0  0  0  0  0  0  0
    3.4273   -3.0431   -1.1057 C   0  0  0  0  0  0  0  0  0  0  0  0
    2.0521    0.5531    0.7898 C   0  0  0  0  0  0  0  0  0  0  0  0
    0.8307    1.2517    0.2827 C   0  0  0  0  0  0  0  0  0  0  0  0
   -0.4067    0.6063    0.2926 C   0  0  0  0  0  0  0  0  0  0  0  0
    0.9305    2.5557   -0.2027 C   0  0  0  0  0  0  0  0  0  0  0  0
   -1.5371    1.2626   -0.1796 C   0  0  0  0  0  0  0  0  0  0  0  0
   -0.2047    3.2133   -0.6768 C   0  0  0  0  0  0  0  0  0  0  0  0
   -2.8216   -0.8367    0.3725 C   0  0  0  0  0  0  0  0  0  0  0  0
   -2.8260    0.5579   -0.1568 C   0  0  0  0  0  0  0  0  0  0  0  0
   -1.4426    2.5693   -0.6667 C   0  0  0  0  0  0  0  0  0  0  0  0
   -1.6519   -1.3509    0.8047 C   0  0  0  0  0  0  0  0  0  0  0  0
   -4.1448   -1.5441    0.3454 C   0  0  0  0  0  0  0  0  0  0  0  0
   -1.4988   -2.7234    1.3947 C   0  0  0  0  0  0  0  0  0  0  0  0
   -4.3501   -2.2963   -0.9546 C   0  0  0  0  0  0  0  0  0  0  0  0
    2.4729    3.9630    0.9357 C   0  0  0  0  0  0  0  0  0  0  0  0
  1 12  1  0
  1 19  1  0
  2 13  1  0
  2 23  1  0
  3 17  2  0
  4  5  1  0
  4  6  1  0
  4 10  1  0
  5  7  1  0
  6  8  1  0
  7  9  1  0
  8  9  1  0
 10 11  1  0
 11 12  2  0
 11 13  1  0
 12 14  1  0
 13 15  2  0
 14 17  1  0
 14 18  2  0
 15 18  1  0
 16 17  1  0
 16 19  2  0
 16 20  1  0
 19 21  1  0
 20 22  1  0
M  END
>  <PUBCHEM_COMPOUND_CID>  (1) 
49501

>  <PUBCHEM_CONFORMER_RMSD>  (1) 
0.8

>  <PUBCHEM_CONFORMER_DIVERSEORDER>  (1) 
2
3
9
7
1
4
10
5
6
8

>  <PUBCHEM_MMFF94_PARTIAL_CHARGES>  (1) 
21
1 -0.16
10 0.41
11 -0.14
12 0.08
13 0.08
14 0.09
15 -0.15
16 -0.12
17 0.47
18 -0.15
19 -0.06
2 -0.36
20 0.14
21 0.14
23 0.28
3 -0.57
36 0.15
37 0.15
4 -0.81
5 0.27
6 0.27

>  <PUBCHEM_EFFECTIVE_ROTOR_COUNT>  (1) 
5.2

>  <PUBCHEM_PHARMACOPHORE_FEATURES>  (1) 
8
1 1 acceptor
1 2 acceptor
1 22 hydrophobe
1 3 acceptor
1 4 cation
6 1 12 14 16 17 19 rings
6 11 12 13 14 15 18 rings
6 4 5 6 7 8 9 rings

>  <PUBCHEM_HEAVY_ATOM_COUNT>  (1) 
23

>  <PUBCHEM_ATOM_DEF_STEREO_COUNT>  (1) 
0

>  <PUBCHEM_ATOM_UDEF_STEREO_COUNT>  (1) 
0

>  <PUBCHEM_BOND_DEF_STEREO_COUNT>  (1) 
0

>  <PUBCHEM_BOND_UDEF_STEREO_COUNT>  (1) 
0

>  <PUBCHEM_ISOTOPIC_ATOM_COUNT>  (1) 
0

>  <PUBCHEM_COMPONENT_COUNT>  (1) 
1

>  <PUBCHEM_CACTVS_TAUTO_COUNT>  (1) 
3

>  <PUBCHEM_CONFORMER_ID>  (1) 
0000C15D00000002

>  <PUBCHEM_MMFF94_ENERGY>  (1) 
57.8137

>  <PUBCHEM_FEATURE_SELFOVERLAP>  (1) 
40.624

>  <PUBCHEM_SHAPE_FINGERPRINT>  (1) 
10906281 52 18115877479996502081
10967382 1 18117837935209419113
1100329 8 18123190108885359745
11582403 64 15603905410241342328
116883 192 18411136905388404005
12363563 72 18339648832330034454
12553582 1 18336000691356261170
12788726 201 17975994063420975230
12839892 36 17906997818776228072
13083527 12 18267849739678161194
13140716 1 18122627425113727288
13149001 5 18118663449235380661
14790565 3 17114382533517481033
14863182 85 17903363941394275245
16752209 62 17755302271015292650
16945 1 17827925353765220209
19141452 34 18200876150363748323
19591789 44 17039236982478377506
20028762 73 17044871971345545247
20600515 1 18047731734003920608
20645477 70 18194399111932322455
21285901 2 17751901752750563775
21452121 199 18409167697258588310
22182313 1 18041273374822432493
23184049 29 18335701598549744034
2334 1 18261954162947019801
23419403 2 17772157887490804232
23557571 272 18052815854537960898
23559900 14 18411689981117189888
23566358 2 18189599709512306693
2748010 2 18260263088262047945
3060560 45 17906737251732111988
3084891 72 17402325975777973213
352729 6 16676955005471805905
59755656 215 18189894408144987613
7364860 26 18267870660374442616
81228 2 17909561562228022008
9709674 26 18337110163282124491

>  <PUBCHEM_SHAPE_MULTIPOLES>  (1) 
450.74
6.78
4.98
1.22
3.37
2.8
0.15
-5.68
0.72
-3.42
0.23
-0.44
-0.65
1.26

>  <PUBCHEM_SHAPE_SELFOVERLAP>  (1) 
958.271

>  <PUBCHEM_SHAPE_VOLUME>  (1) 
252

>  <PUBCHEM_COORDINATE_TYPE>  (1) 
2
5
10

$$$$
