49514
     RDKit          3D

 19 20  0  0  0  0  0  0  0  0999 V2000
    0.4657   -0.0489    0.1681 O   0  0  0  0  0  0  0  0  0  0  0  0
    1.9054    1.6544   -0.3377 O   0  0  0  0  0  0  0  0  0  0  0  0
   -3.0763    0.9422    0.1009 N   0  0  0  0  0  0  0  0  0  0  0  0
    2.6652   -0.4986    0.1795 N   0  0  0  0  0  0  0  0  0  0  0  0
   -4.3134    0.2190    0.3891 C   0  0  0  0  0  0  0  0  0  0  0  0
   -4.4265   -1.0053   -0.5258 C   0  0  0  0  0  0  0  0  0  0  0  0
   -5.5158    1.1531    0.2137 C   0  0  0  0  0  0  0  0  0  0  0  0
   -5.7452   -1.7446   -0.3057 C   0  0  0  0  0  0  0  0  0  0  0  0
   -6.8334    0.4114    0.4322 C   0  0  0  0  0  0  0  0  0  0  0  0
   -6.9449   -0.8155   -0.4684 C   0  0  0  0  0  0  0  0  0  0  0  0
   -1.9218    0.0699    0.2516 C   0  0  0  0  0  0  0  0  0  0  0  0
   -0.6337    0.8353   -0.0063 C   0  0  0  0  0  0  0  0  0  0  0  0
    1.7170    0.4843   -0.0283 C   0  0  0  0  0  0  0  0  0  0  0  0
    4.0710   -0.3860    0.0839 C   0  0  0  0  0  0  0  0  0  0  0  0
    4.8600   -1.4977    0.3326 C   0  0  0  0  0  0  0  0  0  0  0  0
    4.6327    0.8339   -0.2577 C   0  0  0  0  0  0  0  0  0  0  0  0
    6.2473   -1.3868    0.2372 C   0  0  0  0  0  0  0  0  0  0  0  0
    6.0199    0.9450   -0.3532 C   0  0  0  0  0  0  0  0  0  0  0  0
    6.8271   -0.1653   -0.1057 C   0  0  0  0  0  0  0  0  0  0  0  0
  1 12  1  0
  1 13  1  0
  2 13  2  0
  3  5  1  0
  3 11  1  0
  4 13  1  0
  4 14  1  0
  5  6  1  0
  5  7  1  0
  6  8  1  0
  7  9  1  0
  8 10  1  0
  9 10  1  0
 11 12  1  0
 14 15  2  0
 14 16  1  0
 15 17  1  0
 16 18  2  0
 17 19  2  0
 18 19  1  0
M  END
>  <PUBCHEM_COMPOUND_CID>  (1) 
49514

>  <PUBCHEM_CONFORMER_RMSD>  (1) 
0.8

>  <PUBCHEM_CONFORMER_DIVERSEORDER>  (1) 
1
122
83
110
53
116
61
108
23
156
109
85
90
155
25
79
45
143
41
19
2
39
159
151
137
21
46
158
111
104
93
24
105
125
16
123
99
74
150
136
56
4
101
96
72
52
149
55
128
94
131
60
14
124
15
98
71
134
8
121
57
62
51
86
140
11
35
100
141
17
38
112
69
58
126
152
89
22
117
146
20
40
160
73
64
103
133
68
65
118
28
12
119
47
142
30
37
113
147
92
9
7
5
129
59
82
26
154
44
67
70
115
66
132
31
102
50
27
97
130
42
138
144
120
43
18
49
127
91
135
48
29
139
80
153
76
36
81
13
78
77
75
84
63
87
3
95
88
34
114
6
54
32
107
10
148
106
33
145
157

>  <PUBCHEM_MMFF94_PARTIAL_CHARGES>  (1) 
21
1 -0.43
11 0.27
12 0.28
13 0.78
14 0.12
15 -0.15
16 -0.15
17 -0.15
18 -0.15
19 -0.15
2 -0.57
3 -0.9
31 0.36
36 0.37
37 0.15
38 0.15
39 0.15
4 -0.55
40 0.15
41 0.15
5 0.27

>  <PUBCHEM_EFFECTIVE_ROTOR_COUNT>  (1) 
8.2

>  <PUBCHEM_PHARMACOPHORE_FEATURES>  (1) 
6
1 2 acceptor
1 3 cation
1 3 donor
1 4 donor
6 14 15 16 17 18 19 rings
6 5 6 7 8 9 10 rings

>  <PUBCHEM_HEAVY_ATOM_COUNT>  (1) 
19

>  <PUBCHEM_ATOM_DEF_STEREO_COUNT>  (1) 
0

>  <PUBCHEM_ATOM_UDEF_STEREO_COUNT>  (1) 
0

>  <PUBCHEM_BOND_DEF_STEREO_COUNT>  (1) 
0

>  <PUBCHEM_BOND_UDEF_STEREO_COUNT>  (1) 
0

>  <PUBCHEM_ISOTOPIC_ATOM_COUNT>  (1) 
0

>  <PUBCHEM_COMPONENT_COUNT>  (1) 
1

>  <PUBCHEM_CACTVS_TAUTO_COUNT>  (1) 
2

>  <PUBCHEM_CONFORMER_ID>  (1) 
0000C16A00000001

>  <PUBCHEM_MMFF94_ENERGY>  (1) 
28.578

>  <PUBCHEM_FEATURE_SELFOVERLAP>  (1) 
30.446

>  <PUBCHEM_SHAPE_FINGERPRINT>  (1) 
10299344 5 18411702084245229039
10595046 47 18410013213226750328
10968037 39 18407759244760295171
11315181 36 18131634496110104649
11524674 6 16487253288114391223
11719270 70 17917711275441500870
12091667 2 17967254187626644193
12166972 35 18411983584828973544
12236239 1 18412545409521301937
125118 31 12031793569167704147
12516196 113 18413387639960795512
12616971 3 16128365012858464289
13288520 33 18341894104679035797
13533116 47 17168134595372693738
13668630 136 18410294704977336694
13685833 64 18260832600587510745
13885169 127 18411417277065175085
14170010 4 18186802508828960836
14178184 131 18057043734709971111
1420 363 17385446509575602584
14251732 16 18342455980199829072
14251752 14 18409444761467656461
14251764 18 18413671322613655471
14251764 46 18410855460133436560
14933364 13 18411982459583860817
15183329 4 18113333102868445067
15348495 7 15123214589616794055
15716309 27 18342738516138846431
17093844 174 15195566793674918107
17834072 33 18411699894028153440
18006028 8 17917991681171502641
21150785 3 17167863084218955622
21315763 28 18410292497664586392
220451 1 18411985753839419243
22224240 67 13901903406054059076
22956985 138 17342676461508796062
23035841 295 18413670206048772059
23081809 10 18335989709187928756
23402539 116 18411980256750843805
23522609 53 18194431985122181573
23536379 177 18410856546844701609
23559900 14 18337386171102967209
29717793 49 18260271845647201476
3004659 81 18334573555348875256
34797466 226 16845578643197316600
397830 11 15697135495808883155
4073 2 18041284386617575922
4325135 7 18408604768848659870
4463277 17 18408604751310341076
465052 167 18060139830434548070
5283156 175 18410857664100525405
559249 180 18413669107070004639
59755656 520 17822007636298281219
8209 1 18335422361472625056
999808 66 18041289859128864043

>  <PUBCHEM_SHAPE_MULTIPOLES>  (1) 
369.31
23.02
1.49
0.68
4.65
0.25
-0.01
4.84
-0.6
0.05
-0.07
0.17
0.03
-1.1

>  <PUBCHEM_SHAPE_SELFOVERLAP>  (1) 
752.761

>  <PUBCHEM_SHAPE_VOLUME>  (1) 
211.9

>  <PUBCHEM_COORDINATE_TYPE>  (1) 
2
5
10

$$$$
