49512
     RDKit          3D

 21 22  0  0  0  0  0  0  0  0999 V2000
    0.6662   -1.8428    0.6187 O   0  0  0  0  0  0  0  0  0  0  0  0
    0.9939   -0.2942   -1.0318 O   0  0  0  0  0  0  0  0  0  0  0  0
   -2.7816   -0.9297   -0.3946 N   0  0  0  0  0  0  0  0  0  0  0  0
    2.6020   -0.7268    0.6135 N   0  0  0  0  0  0  0  0  0  0  0  0
   -3.4542    0.3678   -0.3700 C   0  0  0  0  0  0  0  0  0  0  0  0
   -3.4481    0.9306    1.0555 C   0  0  0  0  0  0  0  0  0  0  0  0
   -4.8845    0.2231   -0.9013 C   0  0  0  0  0  0  0  0  0  0  0  0
   -4.2101    2.2523    1.1349 C   0  0  0  0  0  0  0  0  0  0  0  0
   -5.6451    1.5455   -0.8190 C   0  0  0  0  0  0  0  0  0  0  0  0
   -5.6315    2.1157    0.5965 C   0  0  0  0  0  0  0  0  0  0  0  0
   -1.4240   -0.8169    0.1160 C   0  0  0  0  0  0  0  0  0  0  0  0
   -0.6266   -2.1337    0.0720 C   0  0  0  0  0  0  0  0  0  0  0  0
   -1.2689   -3.2188    0.9411 C   0  0  0  0  0  0  0  0  0  0  0  0
   -0.4241   -2.6411   -1.3587 C   0  0  0  0  0  0  0  0  0  0  0  0
    1.3934   -0.8856   -0.0363 C   0  0  0  0  0  0  0  0  0  0  0  0
    3.6588    0.1520    0.2835 C   0  0  0  0  0  0  0  0  0  0  0  0
    4.8022    0.1638    1.0663 C   0  0  0  0  0  0  0  0  0  0  0  0
    3.5312    0.9841   -0.8174 C   0  0  0  0  0  0  0  0  0  0  0  0
    5.8454    1.0304    0.7400 C   0  0  0  0  0  0  0  0  0  0  0  0
    4.5743    1.8505   -1.1439 C   0  0  0  0  0  0  0  0  0  0  0  0
    5.7314    1.8738   -0.3652 C   0  0  0  0  0  0  0  0  0  0  0  0
  1 12  1  0
  1 15  1  0
  2 15  2  0
  3  5  1  0
  3 11  1  0
  4 15  1  0
  4 16  1  0
  5  6  1  0
  5  7  1  0
  6  8  1  0
  7  9  1  0
  8 10  1  0
  9 10  1  0
 11 12  1  0
 12 13  1  0
 12 14  1  0
 16 17  2  0
 16 18  1  0
 17 19  1  0
 18 20  2  0
 19 21  2  0
 20 21  1  0
M  END
>  <PUBCHEM_COMPOUND_CID>  (1) 
49512

>  <PUBCHEM_CONFORMER_RMSD>  (1) 
0.8

>  <PUBCHEM_CONFORMER_DIVERSEORDER>  (1) 
1
88
99
43
78
105
50
15
47
17
74
109
108
26
95
87
27
59
107
101
24
45
9
71
80
14
111
54
75
61
93
48
113
100
70
77
91
35
60
104
73
16
23
33
86
65
53
67
19
79
7
57
69
92
68
36
96
41
46
112
82
90
29
84
12
76
102
81
40
58
85
22
51
30
32
21
42
18
97
10
38
103
94
49
34
55
44
11
31
83
37
56
98
89
2
110
72
5
39
64
3
4
52
106
6
25
13
66
28
8
20
62
63

>  <PUBCHEM_MMFF94_PARTIAL_CHARGES>  (1) 
21
1 -0.43
11 0.27
12 0.28
15 0.78
16 0.12
17 -0.15
18 -0.15
19 -0.15
2 -0.57
20 -0.15
21 -0.15
3 -0.9
33 0.36
4 -0.55
42 0.37
43 0.15
44 0.15
45 0.15
46 0.15
47 0.15
5 0.27

>  <PUBCHEM_EFFECTIVE_ROTOR_COUNT>  (1) 
8.2

>  <PUBCHEM_PHARMACOPHORE_FEATURES>  (1) 
7
1 2 acceptor
1 3 cation
1 3 donor
1 4 donor
3 12 13 14 hydrophobe
6 16 17 18 19 20 21 rings
6 5 6 7 8 9 10 rings

>  <PUBCHEM_HEAVY_ATOM_COUNT>  (1) 
21

>  <PUBCHEM_ATOM_DEF_STEREO_COUNT>  (1) 
0

>  <PUBCHEM_ATOM_UDEF_STEREO_COUNT>  (1) 
0

>  <PUBCHEM_BOND_DEF_STEREO_COUNT>  (1) 
0

>  <PUBCHEM_BOND_UDEF_STEREO_COUNT>  (1) 
0

>  <PUBCHEM_ISOTOPIC_ATOM_COUNT>  (1) 
0

>  <PUBCHEM_COMPONENT_COUNT>  (1) 
1

>  <PUBCHEM_CACTVS_TAUTO_COUNT>  (1) 
2

>  <PUBCHEM_CONFORMER_ID>  (1) 
0000C16800000001

>  <PUBCHEM_MMFF94_ENERGY>  (1) 
49.0541

>  <PUBCHEM_FEATURE_SELFOVERLAP>  (1) 
35.52

>  <PUBCHEM_SHAPE_FINGERPRINT>  (1) 
105312 117 17988645232919819070
10670039 82 18271817778559536684
12107183 9 18189042132642445058
12390115 104 18336276716103654627
12596602 18 17530965799733360393
12760667 363 9727637206664478997
12892183 10 15936682662678818315
13103583 49 12324242720332746015
13631057 29 18340759451866799311
13785724 45 17830724358335824690
14123256 34 8790881921219008808
1420 369 8934999265420869900
14251764 30 11383819494536559637
14257110 125 18411700972012197225
14576447 43 11167946866312028588
14767858 380 18271227401477148567
15163728 17 18130236981743716151
15188451 53 14273751680891553649
15238133 3 18411415142487547648
15342168 16 18336265661216238879
15348495 7 15647061490038558940
15878777 1 17261812019233767399
167882 2 17988650640621807182
17134984 74 13973672932330337244
17780758 139 12468351349972422381
17834072 32 18408608084162654428
1813 80 9367341574253274667
18222031 100 8790877467516712165
19784866 140 12031789158378066023
200 152 11815906677704987790
204376 136 18334295345006381707
21298829 104 18339642218898556845
21315759 148 13407060497804002828
21401589 2 18410303510182228099
22950370 63 9367341552730581625
235170 7 15482675649789987977
23559900 14 18342185449480582742
245318 6 17969241073056283333
270888 7 18411700954896001881
2748736 6 18410567366834461361
2767999 5 18411414007803895441
2838139 119 18131343111768349984
312425 54 15213299707763855993
3472631 163 18340207483369092572
34797466 226 15769481115054602977
4259306 186 11600005448708092733
465052 167 8502368962289503240
474 4 18336828585537110155
5104073 3 17604981702149429872
543368 44 18201717320057251817
59682541 35 18336557096992190827
59682541 52 16629969811015060156
6299153 45 18337947879905714282
6327066 14 18410571790608175821
633830 44 18340486651885308591
76465 3 9367347024466312098
77188 2 17255393822001600147
7808743 9 18412543219404349417
9981440 41 18411704296333365187

>  <PUBCHEM_SHAPE_MULTIPOLES>  (1) 
410.47
14.84
3.05
1.22
3.51
1.7
0.06
-14.87
-0.3
-1.82
-0.21
-0.08
-0.04
-1.12

>  <PUBCHEM_SHAPE_SELFOVERLAP>  (1) 
841.767

>  <PUBCHEM_SHAPE_VOLUME>  (1) 
234.6

>  <PUBCHEM_COORDINATE_TYPE>  (1) 
2
5
10

$$$$
