49526
     RDKit          3D

 21 21  0  0  1  0  0  0  0  0999 V2000
   -1.5147   -0.7608   -0.1418 O   0  0  0  0  0  0  0  0  0  0  0  0
   -2.4017    1.0920    0.8633 O   0  0  0  0  0  0  0  0  0  0  0  0
    2.1250   -1.0743    0.2878 N   0  0  0  0  0  0  0  0  0  0  0  0
   -3.7270   -0.4271   -0.3268 N   0  0  0  0  0  0  0  0  0  0  0  0
    4.5243   -1.6686    0.2331 C   0  0  0  0  0  0  0  0  0  0  0  0
    3.0949   -2.0710   -0.1669 C   0  0  0  0  0  0  0  0  0  0  0  0
    4.9338   -0.2916   -0.3050 C   0  0  0  0  0  0  0  0  0  0  0  0
    6.3525    0.0748    0.1392 C   0  0  0  0  0  0  0  0  0  0  0  0
    6.8059    1.4537   -0.3487 C   0  0  0  0  0  0  0  0  0  0  0  0
    2.7376   -3.4372    0.4175 C   0  0  0  0  0  0  0  0  0  0  0  0
    8.2134    1.8308    0.1151 C   0  0  0  0  0  0  0  0  0  0  0  0
    0.7832   -1.4250   -0.1499 C   0  0  0  0  0  0  0  0  0  0  0  0
   -0.2235   -0.3880    0.3218 C   0  0  0  0  0  0  0  0  0  0  0  0
    8.6429    3.1741   -0.4550 C   0  0  0  0  0  0  0  0  0  0  0  0
   -2.5517    0.0744    0.1980 C   0  0  0  0  0  0  0  0  0  0  0  0
   -5.0286    0.1134   -0.2194 C   0  0  0  0  0  0  0  0  0  0  0  0
   -6.0892   -0.5443   -0.8219 C   0  0  0  0  0  0  0  0  0  0  0  0
   -5.2189    1.2902    0.4873 C   0  0  0  0  0  0  0  0  0  0  0  0
   -7.3739   -0.0113   -0.7150 C   0  0  0  0  0  0  0  0  0  0  0  0
   -6.5035    1.8232    0.5943 C   0  0  0  0  0  0  0  0  0  0  0  0
   -7.5810    1.1724   -0.0069 C   0  0  0  0  0  0  0  0  0  0  0  0
  1 13  1  0
  1 15  1  0
  2 15  2  0
  3  6  1  0
  3 12  1  0
  4 15  1  0
  4 16  1  0
  5  6  1  0
  5  7  1  0
  6 10  1  0
  7  8  1  0
  8  9  1  0
  9 11  1  0
 11 14  1  0
 12 13  1  0
 16 17  2  0
 16 18  1  0
 17 19  1  0
 18 20  2  0
 19 21  2  0
 20 21  1  0
M  END
>  <PUBCHEM_COMPOUND_CID>  (1) 
49526

>  <PUBCHEM_CONFORMER_RMSD>  (1) 
1.2

>  <PUBCHEM_CONFORMER_DIVERSEORDER>  (1) 
1
194
266
25
265
103
472
2
183
116
76
152
229
437
96
323
419
305
230
126
221
66
340
314
107
247
22
220
339
5
223
228
54
200
77
321
393
88
102
271
185
251
281
21
499
7
160
473
216
9
354
390
287
325
273
69
233
227
11
60
246
237
487
214
46
276
80
308
436
218
57
337
330
196
410
191
195
320
6
262
37
258
17
338
368
341
318
41
43
400
38
199
263
95
30
333
18
149
14
193
394
3
303
115
238
245
12
270
268
85
376
225
62
378
240
27
120
452
255
502
63
99
23
190
28
94

>  <PUBCHEM_MMFF94_PARTIAL_CHARGES>  (1) 
21
1 -0.43
12 0.27
13 0.28
15 0.78
16 0.12
17 -0.15
18 -0.15
19 -0.15
2 -0.57
20 -0.15
21 -0.15
3 -0.9
31 0.36
4 -0.55
44 0.37
45 0.15
46 0.15
47 0.15
48 0.15
49 0.15
6 0.27

>  <PUBCHEM_EFFECTIVE_ROTOR_COUNT>  (1) 
12

>  <PUBCHEM_PHARMACOPHORE_FEATURES>  (1) 
7
1 14 hydrophobe
1 2 acceptor
1 3 cation
1 3 donor
1 4 donor
5 5 7 8 9 11 hydrophobe
6 16 17 18 19 20 21 rings

>  <PUBCHEM_HEAVY_ATOM_COUNT>  (1) 
21

>  <PUBCHEM_ATOM_DEF_STEREO_COUNT>  (1) 
0

>  <PUBCHEM_ATOM_UDEF_STEREO_COUNT>  (1) 
1

>  <PUBCHEM_BOND_DEF_STEREO_COUNT>  (1) 
0

>  <PUBCHEM_BOND_UDEF_STEREO_COUNT>  (1) 
0

>  <PUBCHEM_ISOTOPIC_ATOM_COUNT>  (1) 
0

>  <PUBCHEM_COMPONENT_COUNT>  (1) 
1

>  <PUBCHEM_CACTVS_TAUTO_COUNT>  (1) 
2

>  <PUBCHEM_CONFORMER_ID>  (1) 
0000C17600000001

>  <PUBCHEM_MMFF94_ENERGY>  (1) 
27.0811

>  <PUBCHEM_FEATURE_SELFOVERLAP>  (1) 
35.52

>  <PUBCHEM_SHAPE_FINGERPRINT>  (1) 
10595046 47 18342456985390936035
10835480 77 18334295374696684483
11315181 36 18341612599996250225
12236239 1 18341048498475018667
12592606 108 9079114458023912044
13248334 5 18265896857538014234
13533116 47 17241606109360759962
13668630 136 12031778159241250885
14216079 64 9223238447036299184
14251757 52 18408039620215114776
14428016 204 17968103057879661052
14428016 86 18410576193882914696
14565420 104 18259701195292821962
14849402 71 18411983580924246865
14931854 50 17846226570623246120
15685185 35 18265897037593577876
17093844 174 17313105221202276781
1754911 235 18272652350850172076
20526848 3 18411421735230425460
21049683 271 18201717379706902569
21150785 3 17989204845899727215
21298829 104 18410579487506418948
21365058 113 13973959926308446522
220451 1 17131825431531770159
22224240 67 17968094235710963858
23522609 53 17702681946812780433
23524908 199 17917160438645846796
23559900 14 18272359881189492395
28498 318 10231757777641026411
306946 40 17095790071776047637
335352 9 17917702471987456813
34797466 226 18130510738780214510
4073 2 18334860523942906659
445580 126 18409160018574500976
445580 37 16988848237816115169
5047190 47 18058445590365292520
5758199 1 18408040719325718174
59682541 35 17821733852990344697
6327066 14 18339364184453368046
6438161 24 9871749079616257196

>  <PUBCHEM_SHAPE_MULTIPOLES>  (1) 
410.47
28.74
2.89
0.77
12.18
0.44
0.01
-24.74
3.23
7.1
-0.17
-0.46
-0.06
-1.64

>  <PUBCHEM_SHAPE_SELFOVERLAP>  (1) 
803.847

>  <PUBCHEM_SHAPE_VOLUME>  (1) 
246.4

>  <PUBCHEM_COORDINATE_TYPE>  (1) 
2
5
10

$$$$
