49529
     RDKit          3D

 18 19  0  0  1  0  0  0  0  0999 V2000
   -0.0253   -0.6332    0.0572 O   0  0  0  0  0  0  0  0  0  0  0  0
    1.1260    1.2943    0.4930 O   0  0  0  0  0  0  0  0  0  0  0  0
   -3.9165    0.8252   -0.5820 N   0  0  0  0  0  0  0  0  0  0  0  0
    2.2227   -0.6874   -0.1008 N   0  0  0  0  0  0  0  0  0  0  0  0
   -3.7454   -0.2811    0.3681 C   0  0  0  0  0  0  0  0  0  0  0  0
   -4.8784   -1.3059    0.2201 C   0  0  0  0  0  0  0  0  0  0  0  0
   -6.2454   -0.6459    0.3784 C   0  0  0  0  0  0  0  0  0  0  0  0
   -6.3724    0.5534   -0.5548 C   0  0  0  0  0  0  0  0  0  0  0  0
   -5.1945    1.5105   -0.3886 C   0  0  0  0  0  0  0  0  0  0  0  0
   -2.3900   -0.9425    0.1260 C   0  0  0  0  0  0  0  0  0  0  0  0
   -1.2495    0.0410    0.3131 C   0  0  0  0  0  0  0  0  0  0  0  0
    1.1304    0.1101    0.1800 C   0  0  0  0  0  0  0  0  0  0  0  0
    3.5892   -0.3259   -0.0924 C   0  0  0  0  0  0  0  0  0  0  0  0
    4.5457   -1.2785   -0.4063 C   0  0  0  0  0  0  0  0  0  0  0  0
    3.9461    0.9742    0.2286 C   0  0  0  0  0  0  0  0  0  0  0  0
    5.8941   -0.9218   -0.3985 C   0  0  0  0  0  0  0  0  0  0  0  0
    5.2947    1.3309    0.2363 C   0  0  0  0  0  0  0  0  0  0  0  0
    6.2685    0.3827   -0.0773 C   0  0  0  0  0  0  0  0  0  0  0  0
  1 11  1  0
  1 12  1  0
  2 12  2  0
  3  5  1  0
  3  9  1  0
  4 12  1  0
  4 13  1  0
  5  6  1  0
  5 10  1  0
  6  7  1  0
  7  8  1  0
  8  9  1  0
 10 11  1  0
 13 14  2  0
 13 15  1  0
 14 16  1  0
 15 17  2  0
 16 18  2  0
 17 18  1  0
M  END
>  <PUBCHEM_COMPOUND_CID>  (1) 
49529

>  <PUBCHEM_CONFORMER_RMSD>  (1) 
0.8

>  <PUBCHEM_CONFORMER_DIVERSEORDER>  (1) 
1
129
58
118
3
149
73
150
69
97
123
61
48
16
22
80
128
46
130
87
4
113
49
151
56
53
28
135
125
94
51
52
91
132
133
115
98
108
86
143
15
102
42
33
74
136
17
32
112
75
95
142
146
104
47
93
90
29
116
126
5
14
107
117
38
21
34
8
9
111
139
127
72
109
31
71
103
84
64
120
24
140
63
147
119
27
43
148
68
26
100
55
41
54
78
131
122
77
137
92
145
70
20
19
110
18
152
62
96
11
45
40
124
89
23
36
76
65
30
105
13
101
6
79
50
7
82
2
59
67
144
114
153
106
44
25
141
57
35
134
83
138
85
154
37
12
10
121
66
60
99
81
88
39

>  <PUBCHEM_MMFF94_PARTIAL_CHARGES>  (1) 
21
1 -0.43
11 0.28
12 0.78
13 0.12
14 -0.15
15 -0.15
16 -0.15
17 -0.15
18 -0.15
2 -0.57
28 0.36
3 -0.9
33 0.37
34 0.15
35 0.15
36 0.15
37 0.15
38 0.15
4 -0.55
5 0.27
9 0.27

>  <PUBCHEM_EFFECTIVE_ROTOR_COUNT>  (1) 
7.2

>  <PUBCHEM_PHARMACOPHORE_FEATURES>  (1) 
6
1 2 acceptor
1 3 cation
1 3 donor
1 4 donor
6 13 14 15 16 17 18 rings
6 3 5 6 7 8 9 rings

>  <PUBCHEM_HEAVY_ATOM_COUNT>  (1) 
18

>  <PUBCHEM_ATOM_DEF_STEREO_COUNT>  (1) 
0

>  <PUBCHEM_ATOM_UDEF_STEREO_COUNT>  (1) 
1

>  <PUBCHEM_BOND_DEF_STEREO_COUNT>  (1) 
0

>  <PUBCHEM_BOND_UDEF_STEREO_COUNT>  (1) 
0

>  <PUBCHEM_ISOTOPIC_ATOM_COUNT>  (1) 
0

>  <PUBCHEM_COMPONENT_COUNT>  (1) 
1

>  <PUBCHEM_CACTVS_TAUTO_COUNT>  (1) 
2

>  <PUBCHEM_CONFORMER_ID>  (1) 
0000C17900000001

>  <PUBCHEM_MMFF94_ENERGY>  (1) 
26.7802

>  <PUBCHEM_FEATURE_SELFOVERLAP>  (1) 
30.446

>  <PUBCHEM_SHAPE_FINGERPRINT>  (1) 
10638233 991 16343703278584072048
11287383 113 18409731780861907546
11315181 36 18272654558969556257
11719270 70 18272366443831728078
12091667 2 18260550039480154251
12236239 1 17346883351060395579
12516196 113 17846778515973513272
13073987 5 18186800240996187651
13533116 47 15195294080094252006
13668630 136 16917352545195085943
1420 363 18413111662346765395
14251718 22 18407760343797221379
14251732 16 18337110167587264355
14251752 14 18409727335465254699
14251764 46 17917711305331691282
14933364 13 18409168813728694949
15183329 4 18410292475920562449
15778101 99 18336829689792390377
17834072 33 18201999953862339830
17834072 8 18411419501003282812
17834076 25 18410011039508840882
17844677 252 18410300211114847473
18222031 100 14333410060337299282
19489759 90 17822010913241588121
20281389 69 17895189987243394773
20645477 70 18201162066337052542
21150785 3 16917343766271603773
21236236 1 17988085487339385889
21315763 28 18408884040095742666
220451 1 13973970895590953541
23402539 116 18335416881031006655
23536379 177 18334575732860273571
23559900 14 18341606070891872617
29717793 49 17346323674515606188
300161 21 18060132167907176902
3004659 81 18408042888658762034
3014965 18 18339641140433867462
3545911 37 18409448090067109579
4073 2 17968100875651399626
4214541 1 18409167718844213921
42788 4 18409449189056569315
4463277 17 18410293613992002016
5283173 99 18337389340187795481
542803 24 16225767419531777454
59755656 215 18335422335444761326
59755656 520 17385720318426587299
8209 1 18410856568229743662

>  <PUBCHEM_SHAPE_MULTIPOLES>  (1) 
348.73
19.51
1.39
0.7
3.86
0.15
0.01
0.9
1.74
0.03
0.03
0.17
0.02
1.05

>  <PUBCHEM_SHAPE_SELFOVERLAP>  (1) 
713.694

>  <PUBCHEM_SHAPE_VOLUME>  (1) 
199.7

>  <PUBCHEM_COORDINATE_TYPE>  (1) 
2
5
10

$$$$
