4952
     RDKit          3D

 24 24  0  0  1  0  0  0  0  0999 V2000
   -0.8404   -4.2631   -0.2194 O   0  0  0  0  0  0  0  0  0  0  0  0
   -5.5568    2.0773   -0.8940 O   0  0  0  0  0  0  0  0  0  0  0  0
    8.1109   -0.2773    0.0356 O   0  0  0  0  0  0  0  0  0  0  0  0
    6.6891    1.0314   -1.1570 O   0  0  0  0  0  0  0  0  0  0  0  0
   -1.6939   -2.1779    0.7032 C   0  0  0  0  0  0  0  0  0  0  0  0
   -3.1493   -1.6633    0.6087 C   0  0  0  0  0  0  0  0  0  0  0  0
   -0.6144   -1.3210    0.0606 C   0  0  0  0  0  0  0  0  0  0  0  0
    0.7790   -1.7123    0.5544 C   0  0  0  0  0  0  0  0  0  0  0  0
   -1.7874   -3.5420    0.0581 C   0  0  0  0  0  0  0  0  0  0  0  0
   -3.9190   -2.8780    0.1658 C   0  0  0  0  0  0  0  0  0  0  0  0
    1.8567   -0.8219   -0.0674 C   0  0  0  0  0  0  0  0  0  0  0  0
   -3.3814   -0.5074   -0.3067 C   0  0  0  0  0  0  0  0  0  0  0  0
   -3.1826   -3.9385   -0.1692 C   0  0  0  0  0  0  0  0  0  0  0  0
    3.2764   -1.1748    0.3870 C   0  0  0  0  0  0  0  0  0  0  0  0
   -3.9194    0.6574    0.0833 C   0  0  0  0  0  0  0  0  0  0  0  0
   -4.1525    1.8183   -0.8426 C   0  0  0  0  0  0  0  0  0  0  0  0
    4.3999   -0.3303   -0.2209 C   0  0  0  0  0  0  0  0  0  0  0  0
   -3.4642    3.1061   -0.3704 C   0  0  0  0  0  0  0  0  0  0  0  0
   -1.9534    2.9471   -0.1759 C   0  0  0  0  0  0  0  0  0  0  0  0
   -1.2754    4.2076    0.3708 C   0  0  0  0  0  0  0  0  0  0  0  0
    5.7959   -0.7632    0.2255 C   0  0  0  0  0  0  0  0  0  0  0  0
    0.2427    4.0759    0.4997 C   0  0  0  0  0  0  0  0  0  0  0  0
    0.8641    5.3484    1.0557 C   0  0  0  0  0  0  0  0  0  0  0  0
    6.8755    0.1012   -0.3851 C   0  0  0  0  0  0  0  0  0  0  0  0
  1  9  2  0
  2 16  1  0
  3 24  1  0
  4 24  2  0
  5  6  1  0
  5  7  1  0
  5  9  1  0
  6 10  1  0
  6 12  1  0
  7  8  1  0
  8 11  1  0
  9 13  1  0
 10 13  2  0
 11 14  1  0
 12 15  2  0
 14 17  1  0
 15 16  1  0
 16 18  1  0
 17 21  1  0
 18 19  1  0
 19 20  1  0
 20 22  1  0
 21 24  1  0
 22 23  1  0
M  END
>  <PUBCHEM_COMPOUND_CID>  (1) 
4952

>  <PUBCHEM_CONFORMER_RMSD>  (1) 
1.6

>  <PUBCHEM_CONFORMER_DIVERSEORDER>  (1) 
1
7
42
21
2
63
41
66
53
40
56
35
38
18
46
36
30
49
54
29
28
24
19
57
13
60
22
15
62
55
58
16
25
51
47
12
67
32
50
14
27
59
64
65
45
17
10
8
43
39
61
5
23
4
26
44
9
37
34
20
31
33
6
3
11
48
52

>  <PUBCHEM_MMFF94_PARTIAL_CHARGES>  (1) 
20
1 -0.57
10 -0.29
12 -0.29
13 -0.14
15 -0.29
16 0.42
2 -0.68
21 0.06
24 0.66
3 -0.65
31 0.15
34 0.15
35 0.15
38 0.15
4 -0.57
5 0.06
52 0.4
56 0.5
6 0.28
9 0.49

>  <PUBCHEM_EFFECTIVE_ROTOR_COUNT>  (1) 
13.4

>  <PUBCHEM_PHARMACOPHORE_FEATURES>  (1) 
11
1 1 acceptor
1 2 acceptor
1 2 donor
1 23 hydrophobe
1 3 acceptor
1 4 acceptor
3 14 17 21 hydrophobe
3 3 4 24 anion
3 7 8 11 hydrophobe
4 18 19 20 22 hydrophobe
5 5 6 9 10 13 rings

>  <PUBCHEM_HEAVY_ATOM_COUNT>  (1) 
24

>  <PUBCHEM_ATOM_DEF_STEREO_COUNT>  (1) 
0

>  <PUBCHEM_ATOM_UDEF_STEREO_COUNT>  (1) 
3

>  <PUBCHEM_BOND_DEF_STEREO_COUNT>  (1) 
0

>  <PUBCHEM_BOND_UDEF_STEREO_COUNT>  (1) 
1

>  <PUBCHEM_ISOTOPIC_ATOM_COUNT>  (1) 
0

>  <PUBCHEM_COMPONENT_COUNT>  (1) 
1

>  <PUBCHEM_CACTVS_TAUTO_COUNT>  (1) 
7

>  <PUBCHEM_CONFORMER_ID>  (1) 
0000135800000001

>  <PUBCHEM_MMFF94_ENERGY>  (1) 
19.5131

>  <PUBCHEM_FEATURE_SELFOVERLAP>  (1) 
55.88

>  <PUBCHEM_SHAPE_FINGERPRINT>  (1) 
100830 39 18410012097041473528
10411042 1 18048318044564669507
10429389 16 17843135710040114550
10454371 7 18336839632636406524
12107183 9 17972587798253478482
13911987 19 18191854649000164221
14251757 5 18410011026972274288
14508225 48 18125147489017932455
14647877 51 18196648708243630032
14765038 42 17985559853264388577
15326923 133 17913204540915447600
155225 5 18266740178165269624
15876981 60 18262241126406560918
17818456 19 18118951504360451682
19930381 70 17256802829135125779
20101258 96 18118694442051704491
20771845 165 18200604575007788854
23559900 14 18052250996891833298
5047190 69 18412255152344436312
5171179 24 18197211670786151313
5372103 7 16952512604413254405
550186 7 18271529702180805766
6327066 14 18188765034083947311
7808743 9 18335980878671884330

>  <PUBCHEM_SHAPE_MULTIPOLES>  (1) 
470.43
14.62
7.31
0.85
37.69
6.57
-0.01
-0.71
-3.83
-7.73
1.45
0.02
0.37
0.85

>  <PUBCHEM_SHAPE_SELFOVERLAP>  (1) 
918.95

>  <PUBCHEM_SHAPE_VOLUME>  (1) 
282.7

>  <PUBCHEM_COORDINATE_TYPE>  (1) 
2
5
10

$$$$
