49534
     RDKit          3D

 22 25  0  0  0  0  0  0  0  0999 V2000
   -4.2347   -0.1874   -0.1007 N   0  0  0  0  0  0  0  0  0  0  0  0
    0.9061   -0.2388    0.7891 N   0  0  0  0  0  0  0  0  0  0  0  0
   -1.4790   -0.8677    0.6332 C   0  0  0  0  0  0  0  0  0  0  0  0
   -1.8379    0.4263   -0.1054 C   0  0  0  0  0  0  0  0  0  0  0  0
   -2.6889   -1.3585    1.4353 C   0  0  0  0  0  0  0  0  0  0  0  0
   -0.2666   -0.6649    1.5377 C   0  0  0  0  0  0  0  0  0  0  0  0
   -3.1115    0.2579   -0.9365 C   0  0  0  0  0  0  0  0  0  0  0  0
   -3.9341   -1.4681    0.5529 C   0  0  0  0  0  0  0  0  0  0  0  0
   -5.4557   -0.2940   -0.8989 C   0  0  0  0  0  0  0  0  0  0  0  0
    1.2349    1.0704    0.5438 C   0  0  0  0  0  0  0  0  0  0  0  0
    1.8269   -1.0932    0.2376 C   0  0  0  0  0  0  0  0  0  0  0  0
    2.4170    1.0629   -0.1972 C   0  0  0  0  0  0  0  0  0  0  0  0
    2.7912   -0.3048   -0.3907 C   0  0  0  0  0  0  0  0  0  0  0  0
   -5.8548    1.0449   -1.4843 C   0  0  0  0  0  0  0  0  0  0  0  0
    0.5831    2.2512    0.9174 C   0  0  0  0  0  0  0  0  0  0  0  0
    1.8808   -2.4917    0.2463 C   0  0  0  0  0  0  0  0  0  0  0  0
    2.9773    2.2980   -0.5855 C   0  0  0  0  0  0  0  0  0  0  0  0
    3.8647   -0.9454   -1.0444 C   0  0  0  0  0  0  0  0  0  0  0  0
    1.1576    3.4618    0.5211 C   0  0  0  0  0  0  0  0  0  0  0  0
    2.9541   -3.1030   -0.4075 C   0  0  0  0  0  0  0  0  0  0  0  0
    2.3370    3.4872   -0.2193 C   0  0  0  0  0  0  0  0  0  0  0  0
    3.9325   -2.3432   -1.0441 C   0  0  0  0  0  0  0  0  0  0  0  0
  1  7  1  0
  1  8  1  0
  1  9  1  0
  2  6  1  0
  2 10  1  0
  2 11  1  0
  3  4  1  0
  3  5  1  0
  3  6  1  0
  4  7  1  0
  5  8  1  0
  9 14  1  0
 10 12  1  0
 10 15  2  0
 11 13  2  0
 11 16  1  0
 12 13  1  0
 12 17  2  0
 13 18  1  0
 15 19  1  0
 16 20  2  0
 17 21  1  0
 18 22  2  0
 19 21  2  0
 20 22  1  0
M  END
>  <PUBCHEM_COMPOUND_CID>  (1) 
49534

>  <PUBCHEM_CONFORMER_RMSD>  (1) 
0.6

>  <PUBCHEM_CONFORMER_DIVERSEORDER>  (1) 
1
17
6
15
8
14
11
3
10
9
13
5
4
2
16
12
7
18

>  <PUBCHEM_MMFF94_PARTIAL_CHARGES>  (1) 
24
1 -0.81
10 -0.15
11 -0.15
15 -0.15
16 -0.15
17 -0.15
18 -0.15
19 -0.15
2 0.05
20 -0.15
21 -0.15
22 -0.15
39 0.15
40 0.15
41 0.15
42 0.15
43 0.15
44 0.15
45 0.15
46 0.15
6 0.26
7 0.27
8 0.27
9 0.27

>  <PUBCHEM_EFFECTIVE_ROTOR_COUNT>  (1) 
4.2

>  <PUBCHEM_PHARMACOPHORE_FEATURES>  (1) 
6
1 1 cation
1 2 cation
5 2 10 11 12 13 rings
6 1 3 4 5 7 8 rings
6 10 12 15 17 19 21 rings
6 11 13 16 18 20 22 rings

>  <PUBCHEM_HEAVY_ATOM_COUNT>  (1) 
22

>  <PUBCHEM_ATOM_DEF_STEREO_COUNT>  (1) 
0

>  <PUBCHEM_ATOM_UDEF_STEREO_COUNT>  (1) 
0

>  <PUBCHEM_BOND_DEF_STEREO_COUNT>  (1) 
0

>  <PUBCHEM_BOND_UDEF_STEREO_COUNT>  (1) 
0

>  <PUBCHEM_ISOTOPIC_ATOM_COUNT>  (1) 
0

>  <PUBCHEM_COMPONENT_COUNT>  (1) 
1

>  <PUBCHEM_CACTVS_TAUTO_COUNT>  (1) 
1

>  <PUBCHEM_CONFORMER_ID>  (1) 
0000C17E00000001

>  <PUBCHEM_MMFF94_ENERGY>  (1) 
40.9218

>  <PUBCHEM_FEATURE_SELFOVERLAP>  (1) 
30.628

>  <PUBCHEM_SHAPE_FINGERPRINT>  (1) 
10165383 225 17473575884088883984
10378564 45 18337379449531727765
10498660 4 17313094264165607711
10693767 8 18060149738866468150
10764073 3 17546674415206981192
116883 192 18053671265525022046
11720765 8 18267572533814793484
12553582 1 18194986066342085802
12623949 98 17835837396531942619
12730499 353 18193001628231533283
12769317 202 18267866266533332000
13004483 165 18124020244532929810
13009979 54 17631468781752122499
13134695 92 18341896277257378004
13533116 47 18343020034666447797
13944108 23 16961800041673668493
14178000 15 18341331098274069168
14508225 48 18267314123334403246
14790565 3 17258509838155125424
15210252 30 17385447596060411276
15502722 9 18340210815967938018
15806764 133 18114759199899186657
16708801 149 13916499281870138079
16988056 13 18334006194517568685
17539 30 17763750893015241294
17818456 19 17272868515125622713
1813 80 17845667932257743014
20388580 30 18272651212308993078
20645477 70 18412544344649091399
20775438 99 17981854696884591007
21304303 282 16549142813087630520
221357 26 18336821988525463549
221490 88 18337402645996374690
22182313 1 17969231208059092851
22289505 5 18335978684011914725
23114952 82 18334860557911754373
23536364 44 17902508186245276263
23559900 14 18410288121013686731
238 59 18268148832357453903
266924 87 18339095843038976548
2748010 2 17690875632036307386
3009799 131 18333732391063948174
3060560 45 18341050813108690742
46194498 28 18408600375107607423
495365 180 18197767998084599105
5281201 14 18409171034611804943
59682541 52 18270101471516000087
5969126 39 18126004859100541054
633830 44 18261657230730884847
7164475 11 17833835971830956982
7364860 26 18339647840466298000
7399639 24 17688033428405897451
7471813 234 18131349678836525656
81228 2 17978795610574509568
9709674 26 18335139847282913307

>  <PUBCHEM_SHAPE_MULTIPOLES>  (1) 
442.79
9.6
3.72
1.26
15.08
2.02
-0.05
-2.21
5.06
-5.03
-0.03
0.75
-0.15
1.45

>  <PUBCHEM_SHAPE_SELFOVERLAP>  (1) 
965.113

>  <PUBCHEM_SHAPE_VOLUME>  (1) 
238.5

>  <PUBCHEM_COORDINATE_TYPE>  (1) 
2
5
10

$$$$
