49533
     RDKit          3D

 22 25  0  0  1  0  0  0  0  0999 V2000
   -4.0864    0.3907   -0.0814 N   0  0  0  0  0  0  0  0  0  0  0  0
    0.7974    0.1466    0.7046 N   0  0  0  0  0  0  0  0  0  0  0  0
   -1.6324    0.2286    0.2597 C   0  0  0  0  0  0  0  0  0  0  0  0
   -1.6010   -1.0790   -0.5391 C   0  0  0  0  0  0  0  0  0  0  0  0
   -3.0083    0.4272    0.9180 C   0  0  0  0  0  0  0  0  0  0  0  0
   -0.5221    0.2466    1.3085 C   0  0  0  0  0  0  0  0  0  0  0  0
   -2.7730   -1.1381   -1.5130 C   0  0  0  0  0  0  0  0  0  0  0  0
   -4.1021   -0.8911   -0.7992 C   0  0  0  0  0  0  0  0  0  0  0  0
   -5.3814    0.6372    0.5530 C   0  0  0  0  0  0  0  0  0  0  0  0
    1.5526    1.2218    0.3085 C   0  0  0  0  0  0  0  0  0  0  0  0
    1.4497   -1.0350    0.4573 C   0  0  0  0  0  0  0  0  0  0  0  0
    2.7413    0.7152   -0.2173 C   0  0  0  0  0  0  0  0  0  0  0  0
    2.6764   -0.7114   -0.1230 C   0  0  0  0  0  0  0  0  0  0  0  0
   -6.4932    0.7272   -0.4718 C   0  0  0  0  0  0  0  0  0  0  0  0
    1.2773    2.5924    0.3742 C   0  0  0  0  0  0  0  0  0  0  0  0
    1.0521   -2.3546    0.7007 C   0  0  0  0  0  0  0  0  0  0  0  0
    3.7052    1.6237   -0.7029 C   0  0  0  0  0  0  0  0  0  0  0  0
    3.5515   -1.7591   -0.4788 C   0  0  0  0  0  0  0  0  0  0  0  0
    2.2475    3.4723   -0.1131 C   0  0  0  0  0  0  0  0  0  0  0  0
    1.9363   -3.3749    0.3402 C   0  0  0  0  0  0  0  0  0  0  0  0
    3.4441    2.9974   -0.6442 C   0  0  0  0  0  0  0  0  0  0  0  0
    3.1681   -3.0839   -0.2411 C   0  0  0  0  0  0  0  0  0  0  0  0
  1  5  1  0
  1  8  1  0
  1  9  1  0
  2  6  1  0
  2 10  1  0
  2 11  1  0
  3  4  1  0
  3  5  1  0
  3  6  1  0
  4  7  1  0
  7  8  1  0
  9 14  1  0
 10 12  1  0
 10 15  2  0
 11 13  2  0
 11 16  1  0
 12 13  1  0
 12 17  2  0
 13 18  1  0
 15 19  1  0
 16 20  2  0
 17 21  1  0
 18 22  2  0
 19 21  2  0
 20 22  1  0
M  END
>  <PUBCHEM_COMPOUND_CID>  (1) 
49533

>  <PUBCHEM_CONFORMER_RMSD>  (1) 
0.6

>  <PUBCHEM_CONFORMER_DIVERSEORDER>  (1) 
1
8
11
6
15
7
14
10
5
2
9
12
3
13
4

>  <PUBCHEM_MMFF94_PARTIAL_CHARGES>  (1) 
24
1 -0.81
10 -0.15
11 -0.15
15 -0.15
16 -0.15
17 -0.15
18 -0.15
19 -0.15
2 0.05
20 -0.15
21 -0.15
22 -0.15
39 0.15
40 0.15
41 0.15
42 0.15
43 0.15
44 0.15
45 0.15
46 0.15
5 0.27
6 0.26
8 0.27
9 0.27

>  <PUBCHEM_EFFECTIVE_ROTOR_COUNT>  (1) 
4.2

>  <PUBCHEM_PHARMACOPHORE_FEATURES>  (1) 
6
1 1 cation
1 2 cation
5 2 10 11 12 13 rings
6 1 3 4 5 7 8 rings
6 10 12 15 17 19 21 rings
6 11 13 16 18 20 22 rings

>  <PUBCHEM_HEAVY_ATOM_COUNT>  (1) 
22

>  <PUBCHEM_ATOM_DEF_STEREO_COUNT>  (1) 
0

>  <PUBCHEM_ATOM_UDEF_STEREO_COUNT>  (1) 
1

>  <PUBCHEM_BOND_DEF_STEREO_COUNT>  (1) 
0

>  <PUBCHEM_BOND_UDEF_STEREO_COUNT>  (1) 
0

>  <PUBCHEM_ISOTOPIC_ATOM_COUNT>  (1) 
0

>  <PUBCHEM_COMPONENT_COUNT>  (1) 
1

>  <PUBCHEM_CACTVS_TAUTO_COUNT>  (1) 
1

>  <PUBCHEM_CONFORMER_ID>  (1) 
0000C17D00000001

>  <PUBCHEM_MMFF94_ENERGY>  (1) 
40.9705

>  <PUBCHEM_FEATURE_SELFOVERLAP>  (1) 
30.628

>  <PUBCHEM_SHAPE_FINGERPRINT>  (1) 
10411042 1 17976821987045201146
105312 117 17828215616450851372
10693767 8 18129954381981654494
10759866 29 18271526489587335879
11265709 11 18193834839245161554
12107183 9 17909837540052990289
12236239 1 17988642948113242187
12293681 160 17844822583878474856
12553582 1 18195238923719776150
12730499 353 18262529198711221225
12788726 201 17417542332613004849
13004483 165 17905877081594531514
13009979 54 17701831989759308826
13533116 47 18413106161353411321
13583140 156 18337401525816492763
13785724 45 17695359075156064623
138480 1 18338237046904866994
13878862 14 18190999276309262333
13955234 65 18409731763697837211
15664445 248 18127988416251603030
16087824 20 17400927397072650085
16752209 62 16773804667097439835
17818456 19 17558275323884463769
17844677 252 18337680720281776065
17980427 23 18055041450661455530
1813 80 18056205657033919158
19784866 34 18267020742075650432
20612939 158 18410295791835768209
20645477 70 18334858307570197179
21120745 212 16308484521013786762
22033318 11 17625007957808780937
221357 26 18262515871660141477
22289505 5 18262795164550892149
22393880 68 18129384971790517692
2255824 54 18411417315181817010
22907989 373 16893714428578466868
23522609 53 17845111683318661721
23558518 356 17754457077381421626
23559900 14 18412821378587556691
23598291 2 18129957675493186344
238 59 18337677528451155778
25 1 18263927799029485312
266924 1 18131082501705957400
2748010 2 17905634412163635610
3004659 81 18131350765542522247
3060560 45 18409732906539114556
46194498 28 18114463379357278197
474 4 18337109072075289353
5281201 14 18261954042571761245
543358 83 18413392020790130729
6025842 7 18410293622829791543
6287921 2 18042129911048708333
633830 44 18269273641453594556
6443956 14 18336830767158794652
7364860 26 18410575080716251832
7471813 234 18270678649963057216
8272917 22 18410858763026584397
84936 182 18200030784472191384
9981440 41 17908131432491839912

>  <PUBCHEM_SHAPE_MULTIPOLES>  (1) 
442.79
10.01
3.78
1.03
18.2
0.11
0.04
2.2
2.1
-6.23
0.19
0.47
-0.09
-0.87

>  <PUBCHEM_SHAPE_SELFOVERLAP>  (1) 
964.989

>  <PUBCHEM_SHAPE_VOLUME>  (1) 
238.8

>  <PUBCHEM_COORDINATE_TYPE>  (1) 
2
5
10

$$$$
