49537
     RDKit          3D

 23 26  0  0  1  0  0  0  0  0999 V2000
   -1.2382   -4.2417   -0.1874 O   0  0  0  0  0  0  0  0  0  0  0  0
    4.4525    0.8272    0.1935 N   0  0  0  0  0  0  0  0  0  0  0  0
   -0.4188    0.5527   -0.6571 N   0  0  0  0  0  0  0  0  0  0  0  0
    2.0037    0.6539   -0.1775 C   0  0  0  0  0  0  0  0  0  0  0  0
    1.9508   -0.5940    0.7107 C   0  0  0  0  0  0  0  0  0  0  0  0
    3.3915    0.7987   -0.8244 C   0  0  0  0  0  0  0  0  0  0  0  0
    0.9112    0.6035   -1.2438 C   0  0  0  0  0  0  0  0  0  0  0  0
    3.1060   -0.5903    1.7062 C   0  0  0  0  0  0  0  0  0  0  0  0
    4.4483   -0.4008    0.9997 C   0  0  0  0  0  0  0  0  0  0  0  0
   -1.0821   -0.6054   -0.3386 C   0  0  0  0  0  0  0  0  0  0  0  0
   -1.1739    1.6567   -0.3506 C   0  0  0  0  0  0  0  0  0  0  0  0
   -2.3163   -0.2359    0.1965 C   0  0  0  0  0  0  0  0  0  0  0  0
   -2.3742    1.1942    0.1891 C   0  0  0  0  0  0  0  0  0  0  0  0
    5.7595    1.0222   -0.4344 C   0  0  0  0  0  0  0  0  0  0  0  0
   -0.6884   -1.9407   -0.4818 C   0  0  0  0  0  0  0  0  0  0  0  0
   -0.8894    3.0180   -0.5078 C   0  0  0  0  0  0  0  0  0  0  0  0
   -3.2035   -1.2517    0.6101 C   0  0  0  0  0  0  0  0  0  0  0  0
   -3.3406    2.1392    0.5933 C   0  0  0  0  0  0  0  0  0  0  0  0
   -1.5845   -2.9289   -0.0656 C   0  0  0  0  0  0  0  0  0  0  0  0
   -1.8623    3.9348   -0.1001 C   0  0  0  0  0  0  0  0  0  0  0  0
   -2.8241   -2.5917    0.4728 C   0  0  0  0  0  0  0  0  0  0  0  0
   -3.0705    3.5041    0.4425 C   0  0  0  0  0  0  0  0  0  0  0  0
    0.0431   -4.5241   -0.7454 C   0  0  0  0  0  0  0  0  0  0  0  0
  1 19  1  0
  1 23  1  0
  2  6  1  0
  2  9  1  0
  2 14  1  0
  3  7  1  0
  3 10  1  0
  3 11  1  0
  4  5  1  0
  4  6  1  0
  4  7  1  0
  5  8  1  0
  8  9  1  0
 10 12  1  0
 10 15  2  0
 11 13  2  0
 11 16  1  0
 12 13  1  0
 12 17  2  0
 13 18  1  0
 15 19  1  0
 16 20  2  0
 17 21  1  0
 18 22  2  0
 19 21  2  0
 20 22  1  0
M  END
>  <PUBCHEM_COMPOUND_CID>  (1) 
49537

>  <PUBCHEM_CONFORMER_RMSD>  (1) 
0.8

>  <PUBCHEM_CONFORMER_DIVERSEORDER>  (1) 
1
3
14
10
18
9
7
17
13
8
15
16
6
11
12
5
2
4

>  <PUBCHEM_MMFF94_PARTIAL_CHARGES>  (1) 
25
1 -0.36
10 -0.15
11 -0.15
14 0.27
15 -0.15
16 -0.15
17 -0.15
18 -0.15
19 0.08
2 -0.81
20 -0.15
21 -0.15
22 -0.15
23 0.28
3 0.05
38 0.15
39 0.15
40 0.15
41 0.15
42 0.15
43 0.15
44 0.15
6 0.27
7 0.26
9 0.27

>  <PUBCHEM_EFFECTIVE_ROTOR_COUNT>  (1) 
4.2

>  <PUBCHEM_PHARMACOPHORE_FEATURES>  (1) 
7
1 1 acceptor
1 2 cation
1 3 cation
5 3 10 11 12 13 rings
6 10 12 15 17 19 21 rings
6 11 13 16 18 20 22 rings
6 2 4 5 6 8 9 rings

>  <PUBCHEM_HEAVY_ATOM_COUNT>  (1) 
23

>  <PUBCHEM_ATOM_DEF_STEREO_COUNT>  (1) 
0

>  <PUBCHEM_ATOM_UDEF_STEREO_COUNT>  (1) 
1

>  <PUBCHEM_BOND_DEF_STEREO_COUNT>  (1) 
0

>  <PUBCHEM_BOND_UDEF_STEREO_COUNT>  (1) 
0

>  <PUBCHEM_ISOTOPIC_ATOM_COUNT>  (1) 
0

>  <PUBCHEM_COMPONENT_COUNT>  (1) 
1

>  <PUBCHEM_CACTVS_TAUTO_COUNT>  (1) 
1

>  <PUBCHEM_CONFORMER_ID>  (1) 
0000C18100000001

>  <PUBCHEM_MMFF94_ENERGY>  (1) 
57.0124

>  <PUBCHEM_FEATURE_SELFOVERLAP>  (1) 
35.702

>  <PUBCHEM_SHAPE_FINGERPRINT>  (1) 
10319926 262 18341879802649210288
10366900 7 18060127782539650960
10411042 1 17907018735214653406
10616163 171 18408324402031747978
1100329 8 18049166871613960771
11049842 53 18048628969977979734
11056379 131 18339372958559961580
11265709 11 18193839473303591339
12107183 9 18046620106615644592
12173636 292 18339633447888711156
12553582 1 18121492720286881978
12788726 201 18262233434167703594
13004483 165 18264757942982407267
13140716 1 18050294970269609403
138480 1 16897646784200879959
14081887 123 18195792188769300232
14178342 30 18336247008489686152
14420673 8 17976257942344598370
14787075 74 17396137306394445884
14844126 61 18336262452590858426
14849402 71 16900755116600936753
14955137 171 17903092349158898947
15042514 8 18337117864221464731
15230672 131 18193283984526814318
17980427 26 17693088570306014877
18785283 64 17689718562744910291
20028762 73 18201442523817853967
20510252 161 18343308041560772921
20600515 1 17912667961717636775
21421861 104 16968297605157825787
21650355 55 18267585895457726663
21731228 192 18193272984012307785
21796203 349 17323838867343231586
23419403 2 17055519504910108603
23557571 272 18201449107601791884
23558518 356 18120082893388498379
23559900 14 18196366146681988464
23728640 28 18409446977322479003
266924 87 18340476769524003319
2748010 2 17324090230757676189
3091708 16 9344677302399046745
352729 6 18336271158848354085
392239 28 17975972391222222176
5265222 85 18267322954077795358
532947 4 17329418450614048879
58807428 26 18266187123668064985
7097593 13 18042676205382524160
7364860 26 17330836821157432573
7808743 9 18410576172002630552
90316 7 18267307706247087435
9981440 41 18266176124257054097

>  <PUBCHEM_SHAPE_MULTIPOLES>  (1) 
457.5
7.74
5.28
1.04
12.15
3.48
-0.16
-4.18
-1.68
-5.64
0.79
0.68
0.08
-0.5

>  <PUBCHEM_SHAPE_SELFOVERLAP>  (1) 
998.691

>  <PUBCHEM_SHAPE_VOLUME>  (1) 
250.6

>  <PUBCHEM_COORDINATE_TYPE>  (1) 
2
5
10

$$$$
