49538
     RDKit          3D

 23 26  0  0  0  0  0  0  0  0999 V2000
    0.4660    4.3180    0.1673 O   0  0  0  0  0  0  0  0  0  0  0  0
   -4.4776   -0.3888   -0.5191 N   0  0  0  0  0  0  0  0  0  0  0  0
    0.5854   -0.5342    0.7328 N   0  0  0  0  0  0  0  0  0  0  0  0
   -1.8125   -1.0808    0.4876 C   0  0  0  0  0  0  0  0  0  0  0  0
   -2.0583    0.1217   -0.4301 C   0  0  0  0  0  0  0  0  0  0  0  0
   -3.0949   -1.4157    1.2568 C   0  0  0  0  0  0  0  0  0  0  0  0
   -0.6533   -0.8133    1.4434 C   0  0  0  0  0  0  0  0  0  0  0  0
   -3.2818   -0.0997   -1.3220 C   0  0  0  0  0  0  0  0  0  0  0  0
   -4.2837   -1.5867    0.3087 C   0  0  0  0  0  0  0  0  0  0  0  0
    0.9926    0.7179    0.3477 C   0  0  0  0  0  0  0  0  0  0  0  0
    1.4962   -1.4892    0.3585 C   0  0  0  0  0  0  0  0  0  0  0  0
    2.2178    0.5673   -0.3021 C   0  0  0  0  0  0  0  0  0  0  0  0
    2.5362   -0.8279   -0.2953 C   0  0  0  0  0  0  0  0  0  0  0  0
   -5.6477   -0.5470   -1.3825 C   0  0  0  0  0  0  0  0  0  0  0  0
    0.3764    1.9624    0.5228 C   0  0  0  0  0  0  0  0  0  0  0  0
    1.4807   -2.8760    0.5463 C   0  0  0  0  0  0  0  0  0  0  0  0
    2.8615    1.7182   -0.8031 C   0  0  0  0  0  0  0  0  0  0  0  0
    3.6165   -1.5904   -0.7870 C   0  0  0  0  0  0  0  0  0  0  0  0
    1.0333    3.0875    0.0174 C   0  0  0  0  0  0  0  0  0  0  0  0
    2.5618   -3.6094    0.0502 C   0  0  0  0  0  0  0  0  0  0  0  0
    2.2576    2.9697   -0.6359 C   0  0  0  0  0  0  0  0  0  0  0  0
    3.6151   -2.9782   -0.6069 C   0  0  0  0  0  0  0  0  0  0  0  0
   -0.7874    4.3746    0.8446 C   0  0  0  0  0  0  0  0  0  0  0  0
  1 19  1  0
  1 23  1  0
  2  8  1  0
  2  9  1  0
  2 14  1  0
  3  7  1  0
  3 10  1  0
  3 11  1  0
  4  5  1  0
  4  6  1  0
  4  7  1  0
  5  8  1  0
  6  9  1  0
 10 12  1  0
 10 15  2  0
 11 13  2  0
 11 16  1  0
 12 13  1  0
 12 17  2  0
 13 18  1  0
 15 19  1  0
 16 20  2  0
 17 21  1  0
 18 22  2  0
 19 21  2  0
 20 22  1  0
M  END
>  <PUBCHEM_COMPOUND_CID>  (1) 
49538

>  <PUBCHEM_CONFORMER_RMSD>  (1) 
0.8

>  <PUBCHEM_CONFORMER_DIVERSEORDER>  (1) 
1
9
7
6
2
4
5
8
10
3

>  <PUBCHEM_MMFF94_PARTIAL_CHARGES>  (1) 
25
1 -0.36
10 -0.15
11 -0.15
14 0.27
15 -0.15
16 -0.15
17 -0.15
18 -0.15
19 0.08
2 -0.81
20 -0.15
21 -0.15
22 -0.15
23 0.28
3 0.05
38 0.15
39 0.15
40 0.15
41 0.15
42 0.15
43 0.15
44 0.15
7 0.26
8 0.27
9 0.27

>  <PUBCHEM_EFFECTIVE_ROTOR_COUNT>  (1) 
4.2

>  <PUBCHEM_PHARMACOPHORE_FEATURES>  (1) 
7
1 1 acceptor
1 2 cation
1 3 cation
5 3 10 11 12 13 rings
6 10 12 15 17 19 21 rings
6 11 13 16 18 20 22 rings
6 2 4 5 6 8 9 rings

>  <PUBCHEM_HEAVY_ATOM_COUNT>  (1) 
23

>  <PUBCHEM_ATOM_DEF_STEREO_COUNT>  (1) 
0

>  <PUBCHEM_ATOM_UDEF_STEREO_COUNT>  (1) 
0

>  <PUBCHEM_BOND_DEF_STEREO_COUNT>  (1) 
0

>  <PUBCHEM_BOND_UDEF_STEREO_COUNT>  (1) 
0

>  <PUBCHEM_ISOTOPIC_ATOM_COUNT>  (1) 
0

>  <PUBCHEM_COMPONENT_COUNT>  (1) 
1

>  <PUBCHEM_CACTVS_TAUTO_COUNT>  (1) 
1

>  <PUBCHEM_CONFORMER_ID>  (1) 
0000C18200000001

>  <PUBCHEM_MMFF94_ENERGY>  (1) 
57.0035

>  <PUBCHEM_FEATURE_SELFOVERLAP>  (1) 
35.702

>  <PUBCHEM_SHAPE_FINGERPRINT>  (1) 
10165383 225 17398140590420046681
10693767 8 18202292415835380286
10764073 3 17399174938798941808
11578080 2 17559093394736784936
116883 192 18052539867843983694
12553582 1 18193574288995806202
12730499 353 18191030216952702371
12769317 202 18264766752002652541
12788726 201 17833267519554561187
13009979 54 17846230899274949915
13134695 92 18411978065837351759
13533116 47 18339921619595025783
138480 1 18410578391893495888
13911987 19 18190764083783536486
14178000 15 18411696560817059612
14866123 147 17185029467200956139
15131766 46 15077707887072665974
17138139 8 17043966575096674877
17539 30 17907296551010563958
1813 80 17987528025990107062
19930381 70 18194405726171064633
20642791 13 18194397789166648578
20645477 70 18336262431359088703
21304303 282 16546608468507350180
21478907 32 18122907529737114923
21524375 3 17612875215719491080
22033318 11 17842030765748084793
221357 26 18334849473360442279
22289505 5 18335410254023089197
22620623 9 17623868829012340374
23114952 82 18260547857087966501
23419403 2 17536830548170373744
23558518 356 18045517326438732080
23559900 14 18336820974596865251
238 59 18049420824170849871
266924 87 18337402569372668124
2748010 2 17474136644267847224
3060560 45 18267584804599415076
350125 39 17113555164249900736
46194498 28 18040714779522881319
495365 180 18123739018579582113
5281201 14 18335421283668195927
59025328 239 17698966714213236247
5969126 39 18196931072716212974
6287921 2 17755873253000727887
6438718 38 17625533484767548012
6443956 14 18408888442663983652
7164475 11 17977948986532022358
7364860 26 18337110167318329902
7399639 24 17614285893765503291
7471813 234 18342451508948898494
81228 2 17975968774542663056
9709674 26 18261392303936715499

>  <PUBCHEM_SHAPE_MULTIPOLES>  (1) 
457.5
7.75
5.15
1.16
10.55
5.09
0.02
-5.79
3.44
-4.19
-0.75
0.83
-0.13
-0.02

>  <PUBCHEM_SHAPE_SELFOVERLAP>  (1) 
998.805

>  <PUBCHEM_SHAPE_VOLUME>  (1) 
250.9

>  <PUBCHEM_COORDINATE_TYPE>  (1) 
2
5
10

$$$$
