49540
     RDKit          3D

 20 23  0  0  0  0  0  0  0  0999 V2000
   -0.1247   -0.2358    0.0014 N   0  0  0  0  0  0  0  0  0  0  0  0
    4.1608   -0.0712   -0.0009 N   0  0  0  0  0  0  0  0  0  0  0  0
    1.2887   -0.6276    0.0013 C   0  0  0  0  0  0  0  0  0  0  0  0
    2.0333   -0.1633    1.2616 C   0  0  0  0  0  0  0  0  0  0  0  0
    2.0317   -0.1653   -1.2609 C   0  0  0  0  0  0  0  0  0  0  0  0
    3.5057   -0.5788    1.2129 C   0  0  0  0  0  0  0  0  0  0  0  0
    3.5043   -0.5804   -1.2132 C   0  0  0  0  0  0  0  0  0  0  0  0
   -0.5743    1.0635    0.0006 C   0  0  0  0  0  0  0  0  0  0  0  0
   -1.1791   -1.1182    0.0009 C   0  0  0  0  0  0  0  0  0  0  0  0
   -1.9687    1.0179   -0.0001 C   0  0  0  0  0  0  0  0  0  0  0  0
   -2.3510   -0.3612    0.0002 C   0  0  0  0  0  0  0  0  0  0  0  0
    5.5799   -0.4262   -0.0014 C   0  0  0  0  0  0  0  0  0  0  0  0
    0.1438    2.2648    0.0004 C   0  0  0  0  0  0  0  0  0  0  0  0
   -1.1819   -2.5178    0.0008 C   0  0  0  0  0  0  0  0  0  0  0  0
   -2.6832    2.2343   -0.0007 C   0  0  0  0  0  0  0  0  0  0  0  0
   -3.5898   -1.0361   -0.0003 C   0  0  0  0  0  0  0  0  0  0  0  0
   -0.5864    3.4564   -0.0005 C   0  0  0  0  0  0  0  0  0  0  0  0
   -2.4213   -3.1633   -0.0004 C   0  0  0  0  0  0  0  0  0  0  0  0
   -1.9791    3.4437   -0.0009 C   0  0  0  0  0  0  0  0  0  0  0  0
   -3.6088   -2.4355   -0.0009 C   0  0  0  0  0  0  0  0  0  0  0  0
  1  3  1  0
  1  8  1  0
  1  9  1  0
  2  6  1  0
  2  7  1  0
  2 12  1  0
  3  4  1  0
  3  5  1  0
  4  6  1  0
  5  7  1  0
  8 10  1  0
  8 13  2  0
  9 11  2  0
  9 14  1  0
 10 11  1  0
 10 15  2  0
 11 16  1  0
 13 17  1  0
 14 18  2  0
 15 19  1  0
 16 20  2  0
 17 19  2  0
 18 20  1  0
M  END
>  <PUBCHEM_COMPOUND_CID>  (1) 
49540

>  <PUBCHEM_CONFORMER_RMSD>  (1) 
0.6

>  <PUBCHEM_CONFORMER_DIVERSEORDER>  (1) 
1

>  <PUBCHEM_MMFF94_PARTIAL_CHARGES>  (1) 
24
1 0.05
12 0.27
13 -0.15
14 -0.15
15 -0.15
16 -0.15
17 -0.15
18 -0.15
19 -0.15
2 -0.81
20 -0.15
3 0.26
33 0.15
34 0.15
35 0.15
36 0.15
37 0.15
38 0.15
39 0.15
40 0.15
6 0.27
7 0.27
8 -0.15
9 -0.15

>  <PUBCHEM_EFFECTIVE_ROTOR_COUNT>  (1) 
2.2

>  <PUBCHEM_PHARMACOPHORE_FEATURES>  (1) 
6
1 1 cation
1 2 cation
5 1 8 9 10 11 rings
6 2 3 4 5 6 7 rings
6 8 10 13 15 17 19 rings
6 9 11 14 16 18 20 rings

>  <PUBCHEM_HEAVY_ATOM_COUNT>  (1) 
20

>  <PUBCHEM_ATOM_DEF_STEREO_COUNT>  (1) 
0

>  <PUBCHEM_ATOM_UDEF_STEREO_COUNT>  (1) 
0

>  <PUBCHEM_BOND_DEF_STEREO_COUNT>  (1) 
0

>  <PUBCHEM_BOND_UDEF_STEREO_COUNT>  (1) 
0

>  <PUBCHEM_ISOTOPIC_ATOM_COUNT>  (1) 
0

>  <PUBCHEM_COMPONENT_COUNT>  (1) 
1

>  <PUBCHEM_CACTVS_TAUTO_COUNT>  (1) 
1

>  <PUBCHEM_CONFORMER_ID>  (1) 
0000C18400000001

>  <PUBCHEM_MMFF94_ENERGY>  (1) 
42.704

>  <PUBCHEM_FEATURE_SELFOVERLAP>  (1) 
30.628

>  <PUBCHEM_SHAPE_FINGERPRINT>  (1) 
10319926 262 18269253713844506602
10369192 42 16912828219011120256
10411042 1 18194402414540925731
10493431 412 18126295147038952169
10616163 171 18410573959867574202
10967382 1 17617940674542080613
1100329 8 18410296926113758161
11265709 11 18337954609781784939
11582403 64 16547709762936950976
11833330 49 18408604785680576989
12107183 9 17758107108815791930
12173636 292 18122063104691374076
12236239 1 17748544836092236162
12553582 1 18337109076729323059
12788726 201 18262533575198739758
13140716 1 18267028434963159259
13538477 17 18188485774962253216
13583140 156 17844783959764758010
138480 1 16032674116598076485
14178342 30 18335691694877795322
14420673 8 17761202221126935682
14508225 48 18340193206892383085
14787075 74 17826789541168602584
14790565 3 18267600000579784913
15042514 8 18409173186242837707
15099037 37 18342455945950698222
16752209 62 18335409150174419043
16945 1 18410855447744367843
17357779 13 18129645496159189101
1813 80 18198074761754901775
19591789 44 17835812889352410545
200 152 16877656881498703094
20510252 161 18270402685218371337
20600515 1 18128831904630580115
20693207 138 17630072389654002254
20905425 154 18196098973677549860
21029758 27 18262806275757529987
21065201 7 18341613664673756206
21452121 199 18122618624519872645
21650355 55 18410853282621960241
2297311 6 18340216262387746910
23184049 29 18337951319620519405
2334 1 17978227489554407187
23366157 5 17611464525174049533
23402539 116 18342170081280307231
23419403 2 17630583799978850065
23526113 38 17488178184795623630
23557571 272 18272375256840134788
23558518 356 18189341160443813578
23559900 14 18127976300639289206
23598294 1 18335973177774125163
23845131 108 17692831289434191377
2748010 2 18267853051435764317
3091708 16 9204496162759175649
3178227 256 18335998506446541801
335352 9 18410574029013961951
350125 39 17690289209538052105
352729 6 17905598913789533315
458136 41 17476655178303813297
5902787 121 18192710265923985651
6442390 28 17838916844990472881
7097593 13 17682658642002359794
7364860 26 17691972982804929445
77492 1 17676210139311873030
7808743 9 18337956663077320080
81228 2 18341343235862093379
84936 182 17190654577046503760
8863177 126 17391646849673522099
9709674 26 18199754652682677846
9981440 41 17832139425030622649

>  <PUBCHEM_SHAPE_MULTIPOLES>  (1) 
401.63
7.5
3.79
0.92
9.92
2.12
0
-3.45
0
-5
0
0.86
-0.11
0

>  <PUBCHEM_SHAPE_SELFOVERLAP>  (1) 
885.955

>  <PUBCHEM_SHAPE_VOLUME>  (1) 
214.7

>  <PUBCHEM_COORDINATE_TYPE>  (1) 
2
5
10

$$$$
