49551
     RDKit          3D

 26 28  0  0  0  0  0  0  0  0999 V2000
   -1.1575   -0.5900   -2.3339 O   0  0  0  0  0  0  0  0  0  0  0  0
    0.9750   -1.2673   -0.6558 O   0  0  0  0  0  0  0  0  0  0  0  0
   -0.8594   -2.5499   -0.0841 O   0  0  0  0  0  0  0  0  0  0  0  0
    3.5974   -0.7242    0.2675 N   0  0  0  0  0  0  0  0  0  0  0  0
   -1.1447   -0.3062   -0.9188 C   0  0  0  0  0  0  0  0  0  0  0  0
   -0.3794    0.9935   -0.6920 C   0  0  0  0  0  0  0  0  0  0  0  0
   -2.5462   -0.2989   -0.3029 C   0  0  0  0  0  0  0  0  0  0  0  0
   -0.3027    0.5107    1.7952 C   0  0  0  0  0  0  0  0  0  0  0  0
   -1.7992    0.5028    2.0874 C   0  0  0  0  0  0  0  0  0  0  0  0
    0.0388    1.3640    0.6033 C   0  0  0  0  0  0  0  0  0  0  0  0
   -2.8014    0.0241    1.0526 C   0  0  0  0  0  0  0  0  0  0  0  0
   -0.3568   -1.5146   -0.4995 C   0  0  0  0  0  0  0  0  0  0  0  0
   -0.0913    1.8673   -1.7581 C   0  0  0  0  0  0  0  0  0  0  0  0
   -3.6545   -0.6470   -1.1129 C   0  0  0  0  0  0  0  0  0  0  0  0
    0.7504    2.5603    0.7971 C   0  0  0  0  0  0  0  0  0  0  0  0
   -4.1337   -0.0327    1.5311 C   0  0  0  0  0  0  0  0  0  0  0  0
    3.2844   -1.9050   -0.5235 C   0  0  0  0  0  0  0  0  0  0  0  0
    1.8468   -2.3417   -0.2905 C   0  0  0  0  0  0  0  0  0  0  0  0
    0.6144    3.0544   -1.5526 C   0  0  0  0  0  0  0  0  0  0  0  0
   -4.9579   -0.6956   -0.6154 C   0  0  0  0  0  0  0  0  0  0  0  0
    1.0398    3.3984   -0.2761 C   0  0  0  0  0  0  0  0  0  0  0  0
   -5.1986   -0.3922    0.7121 C   0  0  0  0  0  0  0  0  0  0  0  0
    4.9691   -0.2780    0.0119 C   0  0  0  0  0  0  0  0  0  0  0  0
    3.4111   -0.9926    1.6956 C   0  0  0  0  0  0  0  0  0  0  0  0
    5.1877    0.0073   -1.4642 C   0  0  0  0  0  0  0  0  0  0  0  0
    3.6684    0.2530    2.5264 C   0  0  0  0  0  0  0  0  0  0  0  0
  1  5  1  0
  2 12  1  0
  2 18  1  0
  3 12  2  0
  4 17  1  0
  4 23  1  0
  4 24  1  0
  5  6  1  0
  5  7  1  0
  5 12  1  0
  6 10  2  0
  6 13  1  0
  7 11  2  0
  7 14  1  0
  8  9  1  0
  8 10  1  0
  9 11  1  0
 10 15  1  0
 11 16  1  0
 13 19  2  0
 14 20  2  0
 15 21  2  0
 16 22  2  0
 17 18  1  0
 19 21  1  0
 20 22  1  0
 23 25  1  0
 24 26  1  0
M  END
>  <PUBCHEM_COMPOUND_CID>  (1) 
49551

>  <PUBCHEM_CONFORMER_RMSD>  (1) 
0.8

>  <PUBCHEM_CONFORMER_DIVERSEORDER>  (1) 
1
129
254
79
247
90
70
3
55
165
217
245
59
151
185
47
109
206
186
137
100
238
52
69
188
201
234
191
74
110
196
58
51
174
157
200
232
78
120
92
125
130
212
134
177
127
30
46
42
244
249
248
26
253
152
116
93
28
97
142
65
23
209
108
95
205
68
148
236
8
48
210
128
194
226
114
104
91
243
204
107
41
173
88
72
158
60
193
105
136
86
156
54
143
213
131
214
9
126
27
49
233
227
96
211
112
181
220
197
12
32
153
155
106
190
123
2
183
75
21
44
180
250
99
67
102
64
25
31
170
198
37
179
87
215
230
218
225
40
219
237
24
241
192
171
246
229
7
71
147
222
132
221
62
251
139
182
16
63
4
29
117
19
203
76
231
154
118
103
39
202
175
235
35
43
141
115
162
113
5
172
195
216
11
56
242
81
36
168
85
82
122
38
119
169
224
20
121
13
84
178
149
53
159
228
184
208
144
161
17
101
57
45
176
73
18
163
80
33
240
22
15
34
164
167
98
61
135
10
223
187
83
14
145
252
140
146
199
207
166
138
89
239
189
66
111
77
6
150
133
124
94
50
160

>  <PUBCHEM_MMFF94_PARTIAL_CHARGES>  (1) 
33
1 -0.68
10 -0.14
11 -0.14
12 0.66
13 -0.15
14 -0.15
15 -0.15
16 -0.15
17 0.27
18 0.28
19 -0.15
2 -0.43
20 -0.15
21 -0.15
22 -0.15
23 0.27
24 0.27
3 -0.57
31 0.15
32 0.15
33 0.15
34 0.15
35 0.4
4 -0.81
40 0.15
41 0.15
42 0.15
43 0.15
5 0.63
6 -0.14
7 -0.14
8 0.14
9 0.14

>  <PUBCHEM_EFFECTIVE_ROTOR_COUNT>  (1) 
7.6

>  <PUBCHEM_PHARMACOPHORE_FEATURES>  (1) 
7
1 1 acceptor
1 1 donor
1 3 acceptor
1 4 cation
6 6 10 13 15 19 21 rings
6 7 11 14 16 20 22 rings
7 5 6 7 8 9 10 11 rings

>  <PUBCHEM_HEAVY_ATOM_COUNT>  (1) 
26

>  <PUBCHEM_ATOM_DEF_STEREO_COUNT>  (1) 
0

>  <PUBCHEM_ATOM_UDEF_STEREO_COUNT>  (1) 
0

>  <PUBCHEM_BOND_DEF_STEREO_COUNT>  (1) 
0

>  <PUBCHEM_BOND_UDEF_STEREO_COUNT>  (1) 
0

>  <PUBCHEM_ISOTOPIC_ATOM_COUNT>  (1) 
0

>  <PUBCHEM_COMPONENT_COUNT>  (1) 
1

>  <PUBCHEM_CACTVS_TAUTO_COUNT>  (1) 
1

>  <PUBCHEM_CONFORMER_ID>  (1) 
0000C18F00000001

>  <PUBCHEM_MMFF94_ENERGY>  (1) 
74.3901

>  <PUBCHEM_FEATURE_SELFOVERLAP>  (1) 
35.538

>  <PUBCHEM_SHAPE_FINGERPRINT>  (1) 
10764073 3 16412402762115627913
10863032 1 15502374495733502355
11244481 83 17168710876145173256
11578080 2 17910688570094378725
12467345 10 16917343757750182834
12553582 1 18409721877020737980
12788726 201 17894908473865218392
13004483 165 17977666412233380219
13132413 78 18129388111801838313
133893 2 17754718743899865382
13899415 154 18338531805967478636
13911987 19 18041576796691941406
14170010 4 18342170064870239725
14251757 17 15863791707430585660
14347332 77 18124041126938301662
14787075 74 18260555527841950342
14840074 17 18191010404516960256
14955137 171 18201454596021278895
15840311 113 17561365089239787897
16945 1 18342177786736128263
17349148 13 17988933313814368335
17492 54 18188507877412760444
17980427 23 17845945022442180489
1813 80 18409161108488885240
18785283 64 18117561940579271117
20600515 1 17678485015584192639
20691752 17 18268125678742902594
21304253 335 17773610321345933441
21304303 282 16595299894293276884
21330990 113 18269547247986980129
23419403 2 17677034828677584413
23559900 14 15554185691453362588
350125 39 18121231032688714631
394222 165 17984722253020906305
469060 322 18267841983141401762
70251023 43 17977388235269911171

>  <PUBCHEM_SHAPE_MULTIPOLES>  (1) 
512.48
8.88
2.79
2.1
0.58
2.04
0.63
-3.88
0.97
1.69
-0.9
0.45
0.36
-0.3

>  <PUBCHEM_SHAPE_SELFOVERLAP>  (1) 
1090.978

>  <PUBCHEM_SHAPE_VOLUME>  (1) 
283.3

>  <PUBCHEM_COORDINATE_TYPE>  (1) 
2
5
10

$$$$
