49552
     RDKit          3D

 27 30  0  0  0  0  0  0  0  0999 V2000
   -3.0296   -0.8695    0.6535 N   0  0  0  0  0  0  0  0  0  0  0  0
   -5.6898    0.0716    0.0237 N   0  0  0  0  0  0  0  0  0  0  0  0
    0.2778    0.1294   -3.0456 N   0  0  0  0  0  0  0  0  0  0  0  0
    1.0359    0.0848   -0.4952 C   0  0  0  0  0  0  0  0  0  0  0  0
   -0.2193   -0.2497    0.3588 C   0  0  0  0  0  0  0  0  0  0  0  0
   -0.7961   -1.5802   -0.0728 C   0  0  0  0  0  0  0  0  0  0  0  0
   -2.0146   -1.9127    0.7865 C   0  0  0  0  0  0  0  0  0  0  0  0
    1.4746    1.5428   -0.1621 C   0  0  0  0  0  0  0  0  0  0  0  0
    2.0027   -1.1160   -0.2934 C   0  0  0  0  0  0  0  0  0  0  0  0
   -3.4923   -0.7664   -0.7358 C   0  0  0  0  0  0  0  0  0  0  0  0
   -4.1615   -1.1255    1.5525 C   0  0  0  0  0  0  0  0  0  0  0  0
   -4.5582    0.3258   -0.8764 C   0  0  0  0  0  0  0  0  0  0  0  0
   -5.2267   -0.0325    1.4130 C   0  0  0  0  0  0  0  0  0  0  0  0
    2.6519    1.9614    0.4896 C   0  0  0  0  0  0  0  0  0  0  0  0
    2.8821   -1.2472    0.7977 C   0  0  0  0  0  0  0  0  0  0  0  0
    3.6922    1.0483    1.0796 C   0  0  0  0  0  0  0  0  0  0  0  0
    3.0880   -0.1456    1.7935 C   0  0  0  0  0  0  0  0  0  0  0  0
    0.5762    2.5786   -0.5596 C   0  0  0  0  0  0  0  0  0  0  0  0
    1.9157   -2.2344   -1.1660 C   0  0  0  0  0  0  0  0  0  0  0  0
    0.6084    0.1101   -1.9336 C   0  0  0  0  0  0  0  0  0  0  0  0
    2.9220    3.3463    0.6348 C   0  0  0  0  0  0  0  0  0  0  0  0
    3.6490   -2.4220    0.9660 C   0  0  0  0  0  0  0  0  0  0  0  0
   -6.7033    1.1162   -0.1087 C   0  0  0  0  0  0  0  0  0  0  0  0
    0.8457    3.9370   -0.3851 C   0  0  0  0  0  0  0  0  0  0  0  0
    2.6826   -3.3902   -0.9939 C   0  0  0  0  0  0  0  0  0  0  0  0
    2.0326    4.3234    0.2034 C   0  0  0  0  0  0  0  0  0  0  0  0
    3.5541   -3.4838    0.0753 C   0  0  0  0  0  0  0  0  0  0  0  0
  1  7  1  0
  1 10  1  0
  1 11  1  0
  2 12  1  0
  2 13  1  0
  2 23  1  0
  3 20  3  0
  4  5  1  0
  4  8  1  0
  4  9  1  0
  4 20  1  0
  5  6  1  0
  6  7  1  0
  8 14  2  0
  8 18  1  0
  9 15  2  0
  9 19  1  0
 10 12  1  0
 11 13  1  0
 14 16  1  0
 14 21  1  0
 15 17  1  0
 15 22  1  0
 16 17  1  0
 18 24  2  0
 19 25  2  0
 21 26  2  0
 22 27  2  0
 24 26  1  0
 25 27  1  0
M  END
>  <PUBCHEM_COMPOUND_CID>  (1) 
49552

>  <PUBCHEM_CONFORMER_RMSD>  (1) 
0.8

>  <PUBCHEM_CONFORMER_DIVERSEORDER>  (1) 
4
12
2
31
16
24
23
28
5
20
18
17
13
9
30
8
19
22
27
25
6
26
21
15
14
29
10
3
7
1
11

>  <PUBCHEM_MMFF94_PARTIAL_CHARGES>  (1) 
33
1 -0.81
10 0.27
11 0.27
12 0.27
13 0.27
14 -0.14
15 -0.14
16 0.14
17 0.14
18 -0.15
19 -0.15
2 -0.81
20 0.36
21 -0.15
22 -0.15
23 0.27
24 -0.15
25 -0.15
26 -0.15
27 -0.15
3 -0.56
4 0.49
46 0.15
47 0.15
48 0.15
49 0.15
53 0.15
54 0.15
55 0.15
56 0.15
7 0.27
8 -0.14
9 -0.14

>  <PUBCHEM_EFFECTIVE_ROTOR_COUNT>  (1) 
5.8

>  <PUBCHEM_PHARMACOPHORE_FEATURES>  (1) 
7
1 1 cation
1 2 cation
1 3 acceptor
6 1 2 10 11 12 13 rings
6 8 14 18 21 24 26 rings
6 9 15 19 22 25 27 rings
7 4 8 9 14 15 16 17 rings

>  <PUBCHEM_HEAVY_ATOM_COUNT>  (1) 
27

>  <PUBCHEM_ATOM_DEF_STEREO_COUNT>  (1) 
0

>  <PUBCHEM_ATOM_UDEF_STEREO_COUNT>  (1) 
0

>  <PUBCHEM_BOND_DEF_STEREO_COUNT>  (1) 
0

>  <PUBCHEM_BOND_UDEF_STEREO_COUNT>  (1) 
0

>  <PUBCHEM_ISOTOPIC_ATOM_COUNT>  (1) 
0

>  <PUBCHEM_COMPONENT_COUNT>  (1) 
1

>  <PUBCHEM_CACTVS_TAUTO_COUNT>  (1) 
1

>  <PUBCHEM_CONFORMER_ID>  (1) 
0000C19000000004

>  <PUBCHEM_MMFF94_ENERGY>  (1) 
95.2539

>  <PUBCHEM_FEATURE_SELFOVERLAP>  (1) 
35.536

>  <PUBCHEM_SHAPE_FINGERPRINT>  (1) 
10764073 3 17823119272576016256
10928967 22 12540975261588001385
12166972 35 18272369737976029907
12293681 4 17763165952607971932
12422481 6 18046596114602087240
12549972 3 17822872956111868307
12633257 1 18043227214920680856
12788726 201 17974017150220882290
12930653 34 17905050605053089619
13134695 92 18410014295226290815
13140716 1 18050288364541368984
13583140 156 18263369238680684627
13726171 33 15141245343688950695
13757389 114 17108210416658097876
13782708 43 18041013847498344611
14178342 30 17536883534623190291
14251764 38 18412546496924079393
14790565 3 17830737917336496644
14866123 147 17039225411958503243
15081414 286 18410292493058337456
15420108 30 18124862715262738192
1601671 61 18336827606305737136
17980427 23 17703231715290231641
20157964 124 18340764931917533771
20715895 44 18340767053742590049
20739085 24 18271799121279365334
21033648 144 17900520565949741821
21033648 29 17241585339457682725
21756936 100 17479173511182723440
21859007 373 17459730581202151829
21860390 5 18343867727106661460
23419403 2 17969758866176396886
23516275 137 13119703000382739729
23559900 14 18412547617198114171
474 4 18270680990735999347
5104073 3 18335149717645073115
513532 50 18131639992924302422
5283268 108 18338231549272842978
57527452 28 16153981345206101610
57724786 102 18341342149578421553
5895379 119 17558571131140712721
6443956 14 18335703806242380362
7399639 24 17686920709849021603
8272917 22 18342173392773737218
8509985 295 18334858299312552305
9841814 1 18336272262354489666
9971528 1 18341049623234204355
9981440 41 17979069719450140675

>  <PUBCHEM_SHAPE_MULTIPOLES>  (1) 
540.7
10.33
4.67
1.65
22.47
3.32
0.67
-1.29
-3.24
-6.93
0.16
-0.05
-0.33
0.96

>  <PUBCHEM_SHAPE_SELFOVERLAP>  (1) 
1159.265

>  <PUBCHEM_SHAPE_VOLUME>  (1) 
290.4

>  <PUBCHEM_COORDINATE_TYPE>  (1) 
2
5
10

$$$$
