49554
     RDKit          3D

 24 27  0  0  1  0  0  0  0  0999 V2000
   -4.0169   -0.9949    0.0424 N   0  0  0  0  0  0  0  0  0  0  0  0
   -0.7065   -1.4782   -2.3247 N   0  0  0  0  0  0  0  0  0  0  0  0
   -1.9465   -0.3945    0.8780 C   0  0  0  0  0  0  0  0  0  0  0  0
   -0.4803   -0.7531    1.0527 C   0  0  0  0  0  0  0  0  0  0  0  0
    0.3334   -0.2834   -0.1862 C   0  0  0  0  0  0  0  0  0  0  0  0
   -2.8192   -0.7931    2.0706 C   0  0  0  0  0  0  0  0  0  0  0  0
   -2.5994   -1.0989   -0.3056 C   0  0  0  0  0  0  0  0  0  0  0  0
   -4.0960   -1.3642    1.4572 C   0  0  0  0  0  0  0  0  0  0  0  0
    0.0642    1.2435   -0.2998 C   0  0  0  0  0  0  0  0  0  0  0  0
    1.7819   -0.8436   -0.0555 C   0  0  0  0  0  0  0  0  0  0  0  0
    0.7638    2.2251    0.4270 C   0  0  0  0  0  0  0  0  0  0  0  0
    2.9727   -0.1166    0.1434 C   0  0  0  0  0  0  0  0  0  0  0  0
    1.9611    1.8944    1.2662 C   0  0  0  0  0  0  0  0  0  0  0  0
    3.0591    1.3696    0.3611 C   0  0  0  0  0  0  0  0  0  0  0  0
   -4.8606   -1.8296   -0.7997 C   0  0  0  0  0  0  0  0  0  0  0  0
   -0.2531   -0.9573   -1.3923 C   0  0  0  0  0  0  0  0  0  0  0  0
   -1.0437    1.7004   -1.0638 C   0  0  0  0  0  0  0  0  0  0  0  0
    1.9207   -2.2618   -0.1437 C   0  0  0  0  0  0  0  0  0  0  0  0
    0.3838    3.5840    0.3503 C   0  0  0  0  0  0  0  0  0  0  0  0
    4.2180   -0.7955    0.1566 C   0  0  0  0  0  0  0  0  0  0  0  0
   -1.4081    3.0477   -1.1376 C   0  0  0  0  0  0  0  0  0  0  0  0
    3.1527   -2.9165   -0.1023 C   0  0  0  0  0  0  0  0  0  0  0  0
   -0.6907    3.9936   -0.4290 C   0  0  0  0  0  0  0  0  0  0  0  0
    4.3099   -2.1770    0.0347 C   0  0  0  0  0  0  0  0  0  0  0  0
  1  7  1  0
  1  8  1  0
  1 15  1  0
  2 16  3  0
  3  4  1  0
  3  6  1  0
  3  7  1  0
  4  5  1  0
  5  9  1  0
  5 10  1  0
  5 16  1  0
  6  8  1  0
  9 11  2  0
  9 17  1  0
 10 12  2  0
 10 18  1  0
 11 13  1  0
 11 19  1  0
 12 14  1  0
 12 20  1  0
 13 14  1  0
 17 21  2  0
 18 22  2  0
 19 23  2  0
 20 24  2  0
 21 23  1  0
 22 24  1  0
M  END
>  <PUBCHEM_COMPOUND_CID>  (1) 
49554

>  <PUBCHEM_CONFORMER_RMSD>  (1) 
0.6

>  <PUBCHEM_CONFORMER_DIVERSEORDER>  (1) 
3
5
12
9
7
4
13
10
6
11
2
1
8

>  <PUBCHEM_MMFF94_PARTIAL_CHARGES>  (1) 
29
1 -0.81
10 -0.14
11 -0.14
12 -0.14
13 0.14
14 0.14
15 0.27
16 0.36
17 -0.15
18 -0.15
19 -0.15
2 -0.56
20 -0.15
21 -0.15
22 -0.15
23 -0.15
24 -0.15
41 0.15
42 0.15
43 0.15
44 0.15
45 0.15
46 0.15
47 0.15
48 0.15
5 0.49
7 0.27
8 0.27
9 -0.14

>  <PUBCHEM_EFFECTIVE_ROTOR_COUNT>  (1) 
3.6

>  <PUBCHEM_PHARMACOPHORE_FEATURES>  (1) 
6
1 1 cation
1 2 acceptor
5 1 3 6 7 8 rings
6 10 12 18 20 22 24 rings
6 9 11 17 19 21 23 rings
7 5 9 10 11 12 13 14 rings

>  <PUBCHEM_HEAVY_ATOM_COUNT>  (1) 
24

>  <PUBCHEM_ATOM_DEF_STEREO_COUNT>  (1) 
0

>  <PUBCHEM_ATOM_UDEF_STEREO_COUNT>  (1) 
1

>  <PUBCHEM_BOND_DEF_STEREO_COUNT>  (1) 
0

>  <PUBCHEM_BOND_UDEF_STEREO_COUNT>  (1) 
0

>  <PUBCHEM_ISOTOPIC_ATOM_COUNT>  (1) 
0

>  <PUBCHEM_COMPONENT_COUNT>  (1) 
1

>  <PUBCHEM_CACTVS_TAUTO_COUNT>  (1) 
1

>  <PUBCHEM_CONFORMER_ID>  (1) 
0000C19200000003

>  <PUBCHEM_MMFF94_ENERGY>  (1) 
110.8476

>  <PUBCHEM_FEATURE_SELFOVERLAP>  (1) 
30.459

>  <PUBCHEM_SHAPE_FINGERPRINT>  (1) 
10366900 7 18261119564844207834
1100329 8 16820234573058082131
11578080 2 17344029001637025753
11640471 11 17412758572068390513
12553582 1 18340761620213191494
12633257 1 18056497048999997665
12788726 201 18044932377151332299
13009979 54 17559952306766042847
13134695 92 18337115669588148197
13140716 1 18269834216527640136
13544653 18 18261399939860800155
13583140 156 18120659290910890571
13965767 371 17629510521578580747
14223421 5 18337671906570846346
14251739 40 18270397342680143935
14787075 74 18334303076095285546
14790565 3 17832993019795520020
16945 1 18195257825843894185
17349148 13 17489029365894253623
17357779 13 18333444344201452477
17980427 23 17775294859106095411
1813 80 18271541835099536711
20600515 1 16878501361925598444
21641784 216 18042428884102088748
22182313 1 18340749491283647776
22907989 373 18124613993722906396
229495 10 18059275643732542296
23184049 59 18201725101619659083
23419403 2 18115289185488319413
23558518 356 18044378227712338160
23559900 14 17822013137671001366
23598288 3 18052528877450324606
266924 78 17688854754753816575
2748010 2 18268691884250099960
3383291 50 16827273637957168123
352729 6 17694781822871155566
4409770 3 17977384936908087685
474 4 17981321510468240449
57527295 17 17897976124397597487
6443956 14 18336264634476526653
70251023 43 18337952290130751890
81228 2 17969231044386306449
9709674 26 17837767829764561982
9981440 41 17408219392800330954

>  <PUBCHEM_SHAPE_MULTIPOLES>  (1) 
483.95
7.05
4.17
1.46
1.48
4.16
0.04
-6.95
-1.05
-0.42
0.57
1.21
-0.3
0.89

>  <PUBCHEM_SHAPE_SELFOVERLAP>  (1) 
1059.035

>  <PUBCHEM_SHAPE_VOLUME>  (1) 
258.3

>  <PUBCHEM_COORDINATE_TYPE>  (1) 
2
5
10

$$$$
