49572
     RDKit          3D

 22 23  0  0  1  0  0  0  0  0999 V2000
    0.9076    0.7980    0.0543 O   0  0  0  0  0  0  0  0  0  0  0  0
    0.3247   -0.8420   -1.4649 O   0  0  0  0  0  0  0  0  0  0  0  0
    2.7414    3.0182    0.1977 N   0  0  0  0  0  0  0  0  0  0  0  0
    2.2850    0.6422   -0.2846 C   0  0  0  0  0  0  0  0  0  0  0  0
    3.1419    1.6442    0.4988 C   0  0  0  0  0  0  0  0  0  0  0  0
    2.6874   -0.7849    0.0160 C   0  0  0  0  0  0  0  0  0  0  0  0
    3.6617   -1.3901   -0.7591 C   0  0  0  0  0  0  0  0  0  0  0  0
    2.0732   -1.4550    1.0602 C   0  0  0  0  0  0  0  0  0  0  0  0
    3.5031    3.9631    1.0137 C   0  0  0  0  0  0  0  0  0  0  0  0
    2.9277    3.3048   -1.2242 C   0  0  0  0  0  0  0  0  0  0  0  0
    4.0329   -2.7058   -0.4819 C   0  0  0  0  0  0  0  0  0  0  0  0
    2.4445   -2.7707    1.3373 C   0  0  0  0  0  0  0  0  0  0  0  0
    3.4244   -3.3961    0.5662 C   0  0  0  0  0  0  0  0  0  0  0  0
    0.0409   -0.0113   -0.6167 C   0  0  0  0  0  0  0  0  0  0  0  0
   -1.3260    0.2936   -0.1362 C   0  0  0  0  0  0  0  0  0  0  0  0
   -2.3688   -0.3830   -0.6381 C   0  0  0  0  0  0  0  0  0  0  0  0
   -3.7712   -0.1787   -0.2344 C   0  0  0  0  0  0  0  0  0  0  0  0
   -4.1327    1.0056    0.3872 C   0  0  0  0  0  0  0  0  0  0  0  0
   -4.7011   -1.1750   -0.4841 C   0  0  0  0  0  0  0  0  0  0  0  0
   -5.4600    1.1989    0.7695 C   0  0  0  0  0  0  0  0  0  0  0  0
   -6.0286   -0.9816   -0.1018 C   0  0  0  0  0  0  0  0  0  0  0  0
   -6.4080    0.2055    0.5251 C   0  0  0  0  0  0  0  0  0  0  0  0
  1  4  1  0
  1 14  1  0
  2 14  2  0
  3  5  1  0
  3  9  1  0
  3 10  1  0
  4  5  1  0
  4  6  1  0
  6  7  2  0
  6  8  1  0
  7 11  1  0
  8 12  2  0
 11 13  2  0
 12 13  1  0
 14 15  1  0
 15 16  2  0
 16 17  1  0
 17 18  2  0
 17 19  1  0
 18 20  1  0
 19 21  2  0
 20 22  2  0
 21 22  1  0
M  END
>  <PUBCHEM_COMPOUND_CID>  (1) 
49572

>  <PUBCHEM_CONFORMER_RMSD>  (1) 
0.8

>  <PUBCHEM_CONFORMER_DIVERSEORDER>  (1) 
1
32
31
23
16
11
15
8
34
39
26
35
25
38
20
18
17
19
21
28
24
40
36
33
41
12
13
6
30
7
9
29
5
3
37
42
10
4
27
14
22
2

>  <PUBCHEM_MMFF94_PARTIAL_CHARGES>  (1) 
34
1 -0.43
10 0.27
11 -0.15
12 -0.15
13 -0.15
14 0.71
15 -0.14
16 -0.18
17 0.03
18 -0.15
19 -0.15
2 -0.57
20 -0.15
21 -0.15
22 -0.15
26 0.15
27 0.15
3 -0.81
34 0.15
35 0.15
36 0.15
37 0.15
38 0.15
39 0.15
4 0.42
40 0.15
41 0.15
42 0.15
43 0.15
5 0.27
6 -0.14
7 -0.15
8 -0.15
9 0.27

>  <PUBCHEM_EFFECTIVE_ROTOR_COUNT>  (1) 
7

>  <PUBCHEM_PHARMACOPHORE_FEATURES>  (1) 
4
1 2 acceptor
1 3 cation
6 17 18 19 20 21 22 rings
6 6 7 8 11 12 13 rings

>  <PUBCHEM_HEAVY_ATOM_COUNT>  (1) 
22

>  <PUBCHEM_ATOM_DEF_STEREO_COUNT>  (1) 
0

>  <PUBCHEM_ATOM_UDEF_STEREO_COUNT>  (1) 
0

>  <PUBCHEM_BOND_DEF_STEREO_COUNT>  (1) 
0

>  <PUBCHEM_BOND_UDEF_STEREO_COUNT>  (1) 
1

>  <PUBCHEM_ISOTOPIC_ATOM_COUNT>  (1) 
0

>  <PUBCHEM_COMPONENT_COUNT>  (1) 
1

>  <PUBCHEM_CACTVS_TAUTO_COUNT>  (1) 
1

>  <PUBCHEM_CONFORMER_ID>  (1) 
0000C1A400000001

>  <PUBCHEM_MMFF94_ENERGY>  (1) 
67.134

>  <PUBCHEM_FEATURE_SELFOVERLAP>  (1) 
20.297

>  <PUBCHEM_SHAPE_FINGERPRINT>  (1) 
10554248 39 18130500852472439669
10595046 47 18271242837457688941
10912923 1 18060138765367151763
11405975 8 18412547583439255731
11475781 23 16662020635938304847
12107183 9 18053106121281442337
12553582 1 18194107535060955278
12616971 3 18060416898743216519
12730499 353 18262809582555216000
13009979 54 17773886298352762728
13167823 11 18412544310722064543
13533116 47 18407763638427559963
13785724 45 17840316518607560191
13878862 14 18265874935639327029
13955234 65 18410572915968352000
14341114 176 18342460292452443851
14739800 52 17774713276989166721
14849402 71 18337107973334314592
15042514 8 17691123730421325006
15142526 21 17908696576904958912
15250474 111 18200863089316155879
15664445 248 18200888258029939934
15842332 3 17773009038176217495
17349148 13 17774719771443447551
17818456 19 17916308242996464105
17844677 252 18411143502848645209
17868525 174 18266453200865746689
1813 80 18198067971670043998
18681886 176 17917994975384895518
20369508 70 18335417924713684878
20645477 70 18411419505356610399
20832881 197 18044093458295459739
21033648 29 17313373527323929421
21049683 271 18261398819781249468
21065198 48 18342459244976068293
21065198 57 18410012122457784503
21315764 268 18409445848516875957
21344244 78 18200296745900168984
2255824 54 18410011044305130654
23081809 10 17917711319318918989
23559900 14 18341610399870792483
239999 70 18341617022752716966
25147074 1 17916850443651499463
268830 7 18343015602033566109
3004659 81 18131074801145722899
31174 14 18335130969405800902
312423 11 18343029865277214065
3411729 13 18343018943243958436
3421961 26 18408881802697349874
376196 1 15693754618250602272
4073 2 18261400009039076739
465052 167 18340772533287630647
474 4 18189616227244838012
5104073 3 18342184367153624987
67856867 119 18342737429580744273
77188 2 18267302020248373156
8272917 22 18409730694414614220
9841814 1 18260820458952563010
9999458 23 18336548313188146652

>  <PUBCHEM_SHAPE_MULTIPOLES>  (1) 
436.03
13.31
4.09
1.1
24.8
2.37
-0.01
-1.09
-1.56
-9.16
-0.85
-0.58
0.01
-0.64

>  <PUBCHEM_SHAPE_SELFOVERLAP>  (1) 
917.422

>  <PUBCHEM_SHAPE_VOLUME>  (1) 
245.2

>  <PUBCHEM_COORDINATE_TYPE>  (1) 
2
5
10

$$$$
