49598
     RDKit          3D

 20 22  0  0  0  0  0  0  0  0999 V2000
   -4.2604   -0.5918   -1.1118 O   0  0  0  0  0  0  0  0  0  0  0  0
    0.2779   -1.0795    0.6464 O   0  0  0  0  0  0  0  0  0  0  0  0
    0.1764    3.6695    0.3471 O   0  0  0  0  0  0  0  0  0  0  0  0
    4.0862   -1.2247   -0.7963 O   0  0  0  0  0  0  0  0  0  0  0  0
   -1.9932    0.2428    0.3930 N   0  0  0  0  0  0  0  0  0  0  0  0
   -1.1659    1.2650    1.0306 C   0  0  0  0  0  0  0  0  0  0  0  0
   -3.3398    0.2201    0.9807 C   0  0  0  0  0  0  0  0  0  0  0  0
   -2.0800    0.4710   -1.0561 C   0  0  0  0  0  0  0  0  0  0  0  0
   -4.1873   -0.8455    0.2916 C   0  0  0  0  0  0  0  0  0  0  0  0
   -2.9579   -0.5997   -1.6975 C   0  0  0  0  0  0  0  0  0  0  0  0
    0.2309    1.2771    0.4966 C   0  0  0  0  0  0  0  0  0  0  0  0
    0.9284    0.0825    0.3152 C   0  0  0  0  0  0  0  0  0  0  0  0
    0.8399    2.4912    0.1778 C   0  0  0  0  0  0  0  0  0  0  0  0
    2.2302    0.1051   -0.1836 C   0  0  0  0  0  0  0  0  0  0  0  0
    2.1430    2.5116   -0.3214 C   0  0  0  0  0  0  0  0  0  0  0  0
    2.8434    1.3185   -0.5040 C   0  0  0  0  0  0  0  0  0  0  0  0
    2.9429   -1.1690   -0.3648 C   0  0  0  0  0  0  0  0  0  0  0  0
    0.9477   -2.2805    0.4771 C   0  0  0  0  0  0  0  0  0  0  0  0
    2.1990   -2.3881    0.0071 C   0  0  0  0  0  0  0  0  0  0  0  0
    0.1386   -3.4755    0.8722 C   0  0  0  0  0  0  0  0  0  0  0  0
  1  9  1  0
  1 10  1  0
  2 12  1  0
  2 18  1  0
  3 13  1  0
  4 17  2  0
  5  6  1  0
  5  7  1  0
  5  8  1  0
  6 11  1  0
  7  9  1  0
  8 10  1  0
 11 12  2  0
 11 13  1  0
 12 14  1  0
 13 15  2  0
 14 16  2  0
 14 17  1  0
 15 16  1  0
 17 19  1  0
 18 19  2  0
 18 20  1  0
M  END
>  <PUBCHEM_COMPOUND_CID>  (1) 
49598

>  <PUBCHEM_CONFORMER_RMSD>  (1) 
0.6

>  <PUBCHEM_CONFORMER_DIVERSEORDER>  (1) 
1
6
4
8
7
5
9
3
10
2

>  <PUBCHEM_MMFF94_PARTIAL_CHARGES>  (1) 
24
1 -0.56
10 0.28
11 -0.14
12 0.08
13 0.08
14 0.09
15 -0.15
16 -0.15
17 0.47
18 -0.06
19 -0.14
2 -0.16
20 0.14
3 -0.53
31 0.15
32 0.15
33 0.15
34 0.45
4 -0.57
5 -0.81
6 0.41
7 0.27
8 0.27
9 0.28

>  <PUBCHEM_EFFECTIVE_ROTOR_COUNT>  (1) 
3.2

>  <PUBCHEM_PHARMACOPHORE_FEATURES>  (1) 
8
1 1 acceptor
1 2 acceptor
1 3 donor
1 4 acceptor
1 5 cation
6 1 5 7 8 9 10 rings
6 11 12 13 14 15 16 rings
6 2 12 14 17 18 19 rings

>  <PUBCHEM_HEAVY_ATOM_COUNT>  (1) 
20

>  <PUBCHEM_ATOM_DEF_STEREO_COUNT>  (1) 
0

>  <PUBCHEM_ATOM_UDEF_STEREO_COUNT>  (1) 
0

>  <PUBCHEM_BOND_DEF_STEREO_COUNT>  (1) 
0

>  <PUBCHEM_BOND_UDEF_STEREO_COUNT>  (1) 
0

>  <PUBCHEM_ISOTOPIC_ATOM_COUNT>  (1) 
0

>  <PUBCHEM_COMPONENT_COUNT>  (1) 
1

>  <PUBCHEM_CACTVS_TAUTO_COUNT>  (1) 
14

>  <PUBCHEM_CONFORMER_ID>  (1) 
0000C1BE00000001

>  <PUBCHEM_MMFF94_ENERGY>  (1) 
51.3611

>  <PUBCHEM_FEATURE_SELFOVERLAP>  (1) 
40.625

>  <PUBCHEM_SHAPE_FINGERPRINT>  (1) 
10967382 1 18338245963183127184
11321824 6 17259335575206713740
11680986 33 18267876162675526058
12400797 292 18271236231028081975
12553582 1 18266741285912878147
12596599 1 17988658384273248335
12730499 353 18187078490906184747
13140716 1 18050849120288982040
13911987 19 18187663405016409790
14178342 30 17977940190586251952
14787075 74 17988350564315135080
16945 1 18409448111162222432
18186145 218 18335422391241971151
19422 9 18059862783194611845
20291156 8 18272089336092205439
20600515 1 15626226780258715035
20645477 70 18337379535415112727
21452121 199 18191285101391134490
21634736 98 18343299305513046366
21731516 1 18200583679801235567
22112679 90 17775291538616723913
221490 88 18264779916024816867
22182313 1 17837796765143812388
2255824 54 18270118049182848765
2334 1 18410866442723814136
23388829 49 18266463096844423256
23402539 116 18267869385296715334
23419403 2 17462607009950208344
23566358 2 18051148161386287254
23598291 2 18202291281810714065
23728640 28 16246298252275944563
238 59 18117810361672405447
25 1 18264771132695136740
2748010 2 17978527643354431232
3060560 45 18191011494826255829
3323516 105 18335423516850625603
34934 24 18050292457413093576
350125 39 17255694508334883392
352729 6 17763183944020506424
77492 1 17846506954103107441
81228 2 17327996803728238065
8272917 22 18411707586741699139
9981440 41 16764485480759578056

>  <PUBCHEM_SHAPE_MULTIPOLES>  (1) 
383.13
6.22
3.55
1.12
4.55
0.02
0.25
-1.61
1.88
-2.46
-0.82
0.87
-0.12
-0.23

>  <PUBCHEM_SHAPE_SELFOVERLAP>  (1) 
828.601

>  <PUBCHEM_SHAPE_VOLUME>  (1) 
209.2

>  <PUBCHEM_COORDINATE_TYPE>  (1) 
2
5
10

$$$$
