49599
     RDKit          3D

 24 27  0  0  1  0  0  0  0  0999 V2000
   -2.8264    1.5660   -0.8709 N   0  0  0  0  0  0  0  0  0  0  0  0
   -2.7256    1.5565    0.6020 C   0  0  0  0  0  0  0  0  0  0  0  0
   -1.5687    0.6500    1.0459 C   0  0  0  0  0  0  0  0  0  0  0  0
   -4.0423    1.1724    1.3018 C   0  0  0  0  0  0  0  0  0  0  0  0
   -0.2664    1.0641    0.3767 C   0  0  0  0  0  0  0  0  0  0  0  0
    0.8960    0.1720    0.8394 C   0  0  0  0  0  0  0  0  0  0  0  0
   -4.6513   -0.1123    0.7483 C   0  0  0  0  0  0  0  0  0  0  0  0
   -3.4256    0.3364   -1.4103 C   0  0  0  0  0  0  0  0  0  0  0  0
   -4.7608   -0.0465   -0.7699 C   0  0  0  0  0  0  0  0  0  0  0  0
    0.6449   -1.2966    0.5414 C   0  0  0  0  0  0  0  0  0  0  0  0
    2.2474    0.7585    0.4422 C   0  0  0  0  0  0  0  0  0  0  0  0
   -3.5162    2.7599   -1.3610 C   0  0  0  0  0  0  0  0  0  0  0  0
    0.7449   -1.8452   -0.7468 C   0  0  0  0  0  0  0  0  0  0  0  0
    3.0029    0.4357   -0.7025 C   0  0  0  0  0  0  0  0  0  0  0  0
    1.2067   -1.0169   -1.9114 C   0  0  0  0  0  0  0  0  0  0  0  0
    2.6615   -0.6030   -1.7478 C   0  0  0  0  0  0  0  0  0  0  0  0
    0.2409   -2.1365    1.5991 C   0  0  0  0  0  0  0  0  0  0  0  0
    2.7546    1.7543    1.3154 C   0  0  0  0  0  0  0  0  0  0  0  0
    0.4456   -3.2045   -0.9506 C   0  0  0  0  0  0  0  0  0  0  0  0
    4.2438    1.0881   -0.9024 C   0  0  0  0  0  0  0  0  0  0  0  0
   -0.0508   -3.4838    1.3860 C   0  0  0  0  0  0  0  0  0  0  0  0
    3.9722    2.3935    1.0895 C   0  0  0  0  0  0  0  0  0  0  0  0
    0.0502   -4.0181    0.1087 C   0  0  0  0  0  0  0  0  0  0  0  0
    4.7224    2.0559   -0.0227 C   0  0  0  0  0  0  0  0  0  0  0  0
  1  2  1  0
  1  8  1  0
  1 12  1  0
  2  3  1  0
  2  4  1  0
  3  5  1  0
  4  7  1  0
  5  6  1  0
  6 10  1  0
  6 11  1  0
  7  9  1  0
  8  9  1  0
 10 13  2  0
 10 17  1  0
 11 14  2  0
 11 18  1  0
 13 15  1  0
 13 19  1  0
 14 16  1  0
 14 20  1  0
 15 16  1  0
 17 21  2  0
 18 22  2  0
 19 23  2  0
 20 24  2  0
 21 23  1  0
 22 24  1  0
M  END
>  <PUBCHEM_COMPOUND_CID>  (1) 
49599

>  <PUBCHEM_CONFORMER_RMSD>  (1) 
0.8

>  <PUBCHEM_CONFORMER_DIVERSEORDER>  (1) 
1
12
27
7
22
24
16
25
28
20
15
11
6
26
18
14
19
30
13
5
4
29
9
10
3
21
8
23
17
2

>  <PUBCHEM_MMFF94_PARTIAL_CHARGES>  (1) 
27
1 -0.81
10 -0.14
11 -0.14
12 0.27
13 -0.14
14 -0.14
15 0.14
16 0.14
17 -0.15
18 -0.15
19 -0.15
2 0.27
20 -0.15
21 -0.15
22 -0.15
23 -0.15
24 -0.15
46 0.15
47 0.15
48 0.15
49 0.15
50 0.15
51 0.15
52 0.15
53 0.15
6 0.29
8 0.27

>  <PUBCHEM_EFFECTIVE_ROTOR_COUNT>  (1) 
4.8

>  <PUBCHEM_PHARMACOPHORE_FEATURES>  (1) 
5
1 1 cation
6 1 2 4 7 8 9 rings
6 10 13 17 19 21 23 rings
6 11 14 18 20 22 24 rings
7 6 10 11 13 14 15 16 rings

>  <PUBCHEM_HEAVY_ATOM_COUNT>  (1) 
24

>  <PUBCHEM_ATOM_DEF_STEREO_COUNT>  (1) 
0

>  <PUBCHEM_ATOM_UDEF_STEREO_COUNT>  (1) 
1

>  <PUBCHEM_BOND_DEF_STEREO_COUNT>  (1) 
0

>  <PUBCHEM_BOND_UDEF_STEREO_COUNT>  (1) 
0

>  <PUBCHEM_ISOTOPIC_ATOM_COUNT>  (1) 
0

>  <PUBCHEM_COMPONENT_COUNT>  (1) 
1

>  <PUBCHEM_CACTVS_TAUTO_COUNT>  (1) 
1

>  <PUBCHEM_CONFORMER_ID>  (1) 
0000C1BF00000001

>  <PUBCHEM_MMFF94_ENERGY>  (1) 
65.6927

>  <PUBCHEM_FEATURE_SELFOVERLAP>  (1) 
25.388

>  <PUBCHEM_SHAPE_FINGERPRINT>  (1) 
10764073 3 16231357160785905408
11578080 2 16124707101166051914
121448 382 18339631364850463679
12166972 35 11314317178595830113
12553582 1 17333094122766318771
12730499 353 18338814316426979241
12760667 363 9222693067425424788
12788726 201 17466514820689482858
13134695 92 17614830821413813823
13224815 77 18341048528159968673
13533116 47 10230879298501267141
13583140 156 17095800048363051112
13681431 1 17689429391339824730
14251739 40 12757440487449709369
14251757 17 17275112759637932550
14251764 3 18335425689713739305
17349148 13 14418142820252102329
173720 79 18188193420886071130
17980427 23 17758362246335586211
20197701 30 18335130995138830490
20567600 347 18334856112858051371
20602899 9 15984551130055263652
21033648 29 18336538391635214856
21524375 3 18410009944577108218
22182313 1 17557444355524608988
22393880 68 18339358548585928981
22907989 373 17909000042467380100
23227448 37 17974007550847526524
23419403 2 17626713484346545998
23559900 14 17976524028046461139
238 59 18200605708783448882
3052486 1 18116155665139014107
404807 78 17535163852121747303
4409770 3 18125725844617688694
469060 322 17823410677654648615
59755656 520 18337106864999980966
621550 34 18334864870771082681
633830 44 18059582360089795665
6442390 28 18410581716103308879
6669772 16 18412823595223347226
7399639 24 18334297544161687937
81228 2 17832704947563465330
9971528 1 8214139634051464497

>  <PUBCHEM_SHAPE_MULTIPOLES>  (1) 
488.93
8.57
3.96
1.75
3.5
4.04
-0.26
-8.27
-0.95
-0.74
0.53
0.06
0.19
1.17

>  <PUBCHEM_SHAPE_SELFOVERLAP>  (1) 
1045.054

>  <PUBCHEM_SHAPE_VOLUME>  (1) 
267.1

>  <PUBCHEM_COORDINATE_TYPE>  (1) 
2
5
10

$$$$
