49605
     RDKit          3D

 27 29  0  0  0  0  0  0  0  0999 V2000
   -2.3824   -0.8836   -0.0625 O   0  0  0  0  0  0  0  0  0  0  0  0
    0.2228   -0.2946    0.8595 N   0  0  0  0  0  0  0  0  0  0  0  0
    2.2103    1.0050    0.6374 N   0  0  0  0  0  0  0  0  0  0  0  0
    2.3386   -1.3098    0.9120 N   0  0  0  0  0  0  0  0  0  0  0  0
   -3.7356   -0.7314   -0.1403 C   0  0  0  0  0  0  0  0  0  0  0  0
   -4.5182   -1.7333   -0.7144 C   0  0  0  0  0  0  0  0  0  0  0  0
   -4.3371    0.4258    0.3546 C   0  0  0  0  0  0  0  0  0  0  0  0
   -1.8685   -1.5083    1.1113 C   0  0  0  0  0  0  0  0  0  0  0  0
   -0.3604   -1.6321    0.9958 C   0  0  0  0  0  0  0  0  0  0  0  0
   -5.9022   -1.5780   -0.7933 C   0  0  0  0  0  0  0  0  0  0  0  0
   -5.7211    0.5811    0.2757 C   0  0  0  0  0  0  0  0  0  0  0  0
   -6.5035   -0.4207   -0.2983 C   0  0  0  0  0  0  0  0  0  0  0  0
   -3.8932   -2.9797   -1.2487 C   0  0  0  0  0  0  0  0  0  0  0  0
   -3.5166    1.5093    0.9733 C   0  0  0  0  0  0  0  0  0  0  0  0
    1.5161   -0.1972    0.7706 C   0  0  0  0  0  0  0  0  0  0  0  0
    1.7539    2.2677    0.1933 C   0  0  0  0  0  0  0  0  0  0  0  0
    3.5621   -1.5998    0.2709 C   0  0  0  0  0  0  0  0  0  0  0  0
    2.5740    3.3864    0.3217 C   0  0  0  0  0  0  0  0  0  0  0  0
    4.4919   -2.4349    0.8895 C   0  0  0  0  0  0  0  0  0  0  0  0
    0.4858    2.3878   -0.3706 C   0  0  0  0  0  0  0  0  0  0  0  0
    3.8399   -1.0506   -0.9803 C   0  0  0  0  0  0  0  0  0  0  0  0
    2.1235    4.6319   -0.1157 C   0  0  0  0  0  0  0  0  0  0  0  0
    5.7012   -2.7209    0.2561 C   0  0  0  0  0  0  0  0  0  0  0  0
    0.0354    3.6333   -0.8081 C   0  0  0  0  0  0  0  0  0  0  0  0
    5.0493   -1.3368   -1.6136 C   0  0  0  0  0  0  0  0  0  0  0  0
    0.8542    4.7554   -0.6807 C   0  0  0  0  0  0  0  0  0  0  0  0
    5.9799   -2.1720   -0.9954 C   0  0  0  0  0  0  0  0  0  0  0  0
  1  5  1  0
  1  8  1  0
  2  9  1  0
  2 15  2  3
  3 15  1  0
  3 16  1  0
  4 15  1  0
  4 17  1  0
  5  6  2  0
  5  7  1  0
  6 10  1  0
  6 13  1  0
  7 11  2  0
  7 14  1  0
  8  9  1  0
 10 12  2  0
 11 12  1  0
 16 18  2  0
 16 20  1  0
 17 19  2  0
 17 21  1  0
 18 22  1  0
 19 23  1  0
 20 24  2  0
 21 25  2  0
 22 26  2  0
 23 27  2  0
 24 26  1  0
 25 27  1  0
M  END
>  <PUBCHEM_COMPOUND_CID>  (1) 
49605

>  <PUBCHEM_CONFORMER_RMSD>  (1) 
1

>  <PUBCHEM_CONFORMER_DIVERSEORDER>  (1) 
1
87
5
48
67
82
20
72
54
85
66
98
25
11
35
79
55
83
22
56
40
52
50
88
94
31
9
75
81
39
18
29
38
65
73
24
68
44
12
2
51
53
91
70
89
42
74
99
16
49
61
19
64
26
90
34
7
71
21
47
97
69
27
63
59
17
14
23
13
30
41
3
86
37
96
46
95
84
58
100
60
32
62
93
33
77
57
76
92
80
78
6
15
43
8
36
4
10
45
28

>  <PUBCHEM_MMFF94_PARTIAL_CHARGES>  (1) 
42
1 -0.36
10 -0.15
11 -0.15
12 -0.15
13 0.14
14 0.14
15 0.55
16 0.1
17 0.1
18 -0.15
19 -0.15
2 -0.7
20 -0.15
21 -0.15
22 -0.15
23 -0.15
24 -0.15
25 -0.15
26 -0.15
27 -0.15
3 -0.55
32 0.15
33 0.15
34 0.15
4 -0.55
41 0.4
42 0.4
43 0.15
44 0.15
45 0.15
46 0.15
47 0.15
48 0.15
49 0.15
5 0.08
50 0.15
51 0.15
52 0.15
6 -0.14
7 -0.14
8 0.28
9 0.25

>  <PUBCHEM_EFFECTIVE_ROTOR_COUNT>  (1) 
8

>  <PUBCHEM_PHARMACOPHORE_FEATURES>  (1) 
7
1 1 acceptor
1 3 donor
1 4 donor
4 2 3 4 15 cation
6 16 18 20 22 24 26 rings
6 17 19 21 23 25 27 rings
6 5 6 7 10 11 12 rings

>  <PUBCHEM_HEAVY_ATOM_COUNT>  (1) 
27

>  <PUBCHEM_ATOM_DEF_STEREO_COUNT>  (1) 
0

>  <PUBCHEM_ATOM_UDEF_STEREO_COUNT>  (1) 
0

>  <PUBCHEM_BOND_DEF_STEREO_COUNT>  (1) 
0

>  <PUBCHEM_BOND_UDEF_STEREO_COUNT>  (1) 
0

>  <PUBCHEM_ISOTOPIC_ATOM_COUNT>  (1) 
0

>  <PUBCHEM_COMPONENT_COUNT>  (1) 
1

>  <PUBCHEM_CACTVS_TAUTO_COUNT>  (1) 
2

>  <PUBCHEM_CONFORMER_ID>  (1) 
0000C1C500000001

>  <PUBCHEM_MMFF94_ENERGY>  (1) 
106.4942

>  <PUBCHEM_FEATURE_SELFOVERLAP>  (1) 
35.564

>  <PUBCHEM_SHAPE_FINGERPRINT>  (1) 
10622 236 17914879054211781599
10815517 723 18126861403848042969
11513181 2 18198061589211167647
12107183 9 18269843030322939993
12107698 1 18342175557922369383
12166972 35 18343865519968251305
12516196 113 18409448055692027634
12788726 201 18044377115537615018
13009979 54 18131075922185175777
13590594 115 18336552607649469129
14068700 675 18201720613352669457
14114211 68 17756447189607677269
14117953 113 18269551638440816229
14347329 18 16154255123411298911
14556957 393 18044967626675697654
14681490 219 18191587450073076754
15021287 119 18340220613437206883
15183329 4 18341333301402927019
15347590 135 8357965724200760767
15439362 3 18264771145591003788
15775530 1 17535482731113395034
16988056 13 18334573594225685932
17492 89 18267583705505135647
1813 80 18343305834142664182
21285901 2 17986120612810557270
21641784 216 17751378183262693278
21781055 127 16916249705938469667
21860390 5 18337670948471594220
221357 26 18261388927727891327
23559900 14 18271517702168793883
23929065 36 18047733929227490168
24771293 8 18270388499732670888
249057 3 18341891858426964243
3004659 81 18131349721902658835
3103668 31 18045780079131591901
340366 18 18272929453397441367
4017518 198 17768538536817777172
4280585 95 18410852123328930626
4409770 3 17830164710610399213
474 4 18044364162053322081
5081480 168 18409441505513233781
5171179 24 18409721850856159205
5969126 39 18338795595002333998
9981440 41 17615683376959611577

>  <PUBCHEM_SHAPE_MULTIPOLES>  (1) 
534.83
14.65
5.55
1.19
8.32
8.46
0.13
-14.09
3.4
-5.71
1.17
-0.42
-0.5
-0.87

>  <PUBCHEM_SHAPE_SELFOVERLAP>  (1) 
1137.976

>  <PUBCHEM_SHAPE_VOLUME>  (1) 
296.7

>  <PUBCHEM_COORDINATE_TYPE>  (1) 
2
5
10

$$$$
