49604
     RDKit          3D

 27 29  0  0  0  0  0  0  0  0999 V2000
   -0.1689    1.7357    0.0390 O   0  0  0  0  0  0  0  0  0  0  0  0
   -1.0385   -5.4975    1.6042 O   0  0  0  0  0  0  0  0  0  0  0  0
   -0.9522   -5.3135   -0.6581 O   0  0  0  0  0  0  0  0  0  0  0  0
    4.5712    1.1740    0.0803 N   0  0  0  0  0  0  0  0  0  0  0  0
   -4.8493    2.5249    0.0422 N   0  0  0  0  0  0  0  0  0  0  0  0
   -0.6823   -1.0421   -0.3966 C   0  0  0  0  0  0  0  0  0  0  0  0
    0.6995   -0.5064   -0.2783 C   0  0  0  0  0  0  0  0  0  0  0  0
   -1.7185   -0.1715   -0.2902 C   0  0  0  0  0  0  0  0  0  0  0  0
    0.8800    0.8623   -0.0659 C   0  0  0  0  0  0  0  0  0  0  0  0
   -0.7991   -2.5314   -0.6274 C   0  0  0  0  0  0  0  0  0  0  0  0
   -1.4676    1.2613   -0.0654 C   0  0  0  0  0  0  0  0  0  0  0  0
    3.2835    0.6141   -0.0393 C   0  0  0  0  0  0  0  0  0  0  0  0
    2.1568    1.4233    0.0531 C   0  0  0  0  0  0  0  0  0  0  0  0
    1.8523   -1.3060   -0.3682 C   0  0  0  0  0  0  0  0  0  0  0  0
    3.1311   -0.7514   -0.2499 C   0  0  0  0  0  0  0  0  0  0  0  0
   -3.1157   -0.6044   -0.3917 C   0  0  0  0  0  0  0  0  0  0  0  0
   -0.8793   -3.3011    0.6762 C   0  0  0  0  0  0  0  0  0  0  0  0
   -2.4743    2.1416    0.0434 C   0  0  0  0  0  0  0  0  0  0  0  0
   -3.8804    1.6890   -0.0610 C   0  0  0  0  0  0  0  0  0  0  0  0
    5.7495    0.3345   -0.0145 C   0  0  0  0  0  0  0  0  0  0  0  0
    4.7364    2.5998    0.2862 C   0  0  0  0  0  0  0  0  0  0  0  0
   -4.1418    0.2507   -0.2870 C   0  0  0  0  0  0  0  0  0  0  0  0
    6.1993    0.2270   -1.4590 C   0  0  0  0  0  0  0  0  0  0  0  0
    4.7290    2.9177    1.7691 C   0  0  0  0  0  0  0  0  0  0  0  0
   -0.9497   -4.7921    0.4498 C   0  0  0  0  0  0  0  0  0  0  0  0
   -4.6053    3.9727    0.2692 C   0  0  0  0  0  0  0  0  0  0  0  0
   -6.2658    2.0886   -0.0602 C   0  0  0  0  0  0  0  0  0  0  0  0
  1  9  1  0
  1 11  1  0
  2 25  1  0
  3 25  2  0
  4 12  1  0
  4 20  1  0
  4 21  1  0
  5 19  2  3
  5 26  1  0
  5 27  1  0
  6  7  1  0
  6  8  2  0
  6 10  1  0
  7  9  2  0
  7 14  1  0
  8 11  1  0
  8 16  1  0
  9 13  1  0
 10 17  1  0
 11 18  2  0
 12 13  2  0
 12 15  1  0
 14 15  2  0
 16 22  2  0
 17 25  1  0
 18 19  1  0
 19 22  1  0
 20 23  1  0
 21 24  1  0
M  CHG  1   5   1
M  END
>  <PUBCHEM_COMPOUND_CID>  (1) 
49604

>  <PUBCHEM_CONFORMER_RMSD>  (1) 
0.8

>  <PUBCHEM_CONFORMER_DIVERSEORDER>  (1) 
2
4
11
9
6
7
3
10
8
1
5

>  <PUBCHEM_MMFF94_PARTIAL_CHARGES>  (1) 
31
1 -0.16
10 0.14
11 0.08
12 0.1
13 -0.15
14 -0.15
15 -0.15
16 -0.15
17 0.06
18 -0.14
19 0.37
2 -0.65
20 0.37
21 0.37
22 -0.14
25 0.66
26 0.35
27 0.35
3 -0.57
30 0.15
31 0.15
32 0.15
33 0.15
36 0.15
4 -0.84
41 0.15
5 -0.09
54 0.5
6 -0.17
7 0.03
9 0.08

>  <PUBCHEM_EFFECTIVE_ROTOR_COUNT>  (1) 
6

>  <PUBCHEM_PHARMACOPHORE_FEATURES>  (1) 
8
1 1 acceptor
1 2 acceptor
1 3 acceptor
1 4 cation
3 2 3 25 anion
6 1 6 7 8 9 11 rings
6 7 9 12 13 14 15 rings
6 8 11 16 18 19 22 rings

>  <PUBCHEM_HEAVY_ATOM_COUNT>  (1) 
27

>  <PUBCHEM_ATOM_DEF_STEREO_COUNT>  (1) 
0

>  <PUBCHEM_ATOM_UDEF_STEREO_COUNT>  (1) 
0

>  <PUBCHEM_BOND_DEF_STEREO_COUNT>  (1) 
0

>  <PUBCHEM_BOND_UDEF_STEREO_COUNT>  (1) 
0

>  <PUBCHEM_ISOTOPIC_ATOM_COUNT>  (1) 
0

>  <PUBCHEM_COMPONENT_COUNT>  (1) 
1

>  <PUBCHEM_CACTVS_TAUTO_COUNT>  (1) 
1

>  <PUBCHEM_CONFORMER_ID>  (1) 
0000C1C400000002

>  <PUBCHEM_MMFF94_ENERGY>  (1) 
95.5762

>  <PUBCHEM_FEATURE_SELFOVERLAP>  (1) 
40.709

>  <PUBCHEM_SHAPE_FINGERPRINT>  (1) 
10319926 262 18197479922671394448
10411042 1 17402047193893820510
11578080 2 16484428779627836250
12107183 9 18335688405169814658
12293681 160 17917993832575702105
12788726 201 18121764278432305467
13140716 1 18338795594353357665
13540713 4 18058172911733803940
13757389 114 18262535778485302052
138480 1 17545882624958447263
13955234 65 18049445838440111979
14790565 3 18339080393508460109
15042514 8 18120378919608873731
15196674 1 18341330015747255253
15664445 248 17695070989602414335
15927050 60 18411138017469455583
16087824 20 18195806491865789087
17980427 26 18195233430503818399
19427546 62 18410293609686842573
21033648 29 18412821395614815504
21049683 118 18265028345417281144
23366157 5 17758125804428408399
23558518 356 17972316489110363784
23559900 14 18130787807521094070
23845131 108 18335138661966956747
283562 15 18411974802627687495
3091708 16 9266715322435996323
335352 9 18341613681890516708
350125 39 18267021665973887892
3759504 43 18408605868022761855
376196 1 18130781231192953852
4058900 60 18265065629959720409
4073 2 18338514274834291760
5104073 3 18409445864810191097
5385378 56 18123196706165687681
550186 72 17617658103975105148
56616090 46 18411986849483296094
59755656 520 18407755928412767830
633830 44 18199743661602534405
77188 2 17329150685548064991
79837 15 18337111262830552243
9658208 31 18412265069017409240
9709674 26 18270964677947811254
9777508 108 18268143339379236224
9981440 41 18335703819607051353

>  <PUBCHEM_SHAPE_MULTIPOLES>  (1) 
528.08
12.2
6.13
0.97
5.69
10.47
-0.21
-14.89
0.77
-5.19
-2.33
0.93
0.26
1.18

>  <PUBCHEM_SHAPE_SELFOVERLAP>  (1) 
1122.867

>  <PUBCHEM_SHAPE_VOLUME>  (1) 
293.7

>  <PUBCHEM_COORDINATE_TYPE>  (1) 
2
5
10

$$$$
