49616
     RDKit          3D

 23 24  0  0  1  0  0  0  0  0999 V2000
   -0.8565    0.5545   -2.3300 O   0  0  0  0  0  0  0  0  0  0  0  0
   -3.9277   -0.3371    1.0162 N   0  0  0  0  0  0  0  0  0  0  0  0
    0.3254   -0.0640   -0.2444 C   0  0  0  0  0  0  0  0  0  0  0  0
   -1.0300   -0.0546    0.5725 C   0  0  0  0  0  0  0  0  0  0  0  0
    0.0161   -0.4284   -1.7608 C   0  0  0  0  0  0  0  0  0  0  0  0
    0.9317    1.3634   -0.0527 C   0  0  0  0  0  0  0  0  0  0  0  0
    1.3278   -1.1288    0.3102 C   0  0  0  0  0  0  0  0  0  0  0  0
   -2.0636    1.0119    0.1638 C   0  0  0  0  0  0  0  0  0  0  0  0
   -0.6170   -1.8178   -1.9888 C   0  0  0  0  0  0  0  0  0  0  0  0
   -3.2830    0.9689    1.0881 C   0  0  0  0  0  0  0  0  0  0  0  0
    1.2149    1.7579    1.2185 C   0  0  0  0  0  0  0  0  0  0  0  0
    2.5633   -1.1786   -0.2563 C   0  0  0  0  0  0  0  0  0  0  0  0
    1.1350    2.1130   -1.1700 C   0  0  0  0  0  0  0  0  0  0  0  0
    0.8935   -1.9294    1.3203 C   0  0  0  0  0  0  0  0  0  0  0  0
   -0.9403   -2.0868   -3.4556 C   0  0  0  0  0  0  0  0  0  0  0  0
    1.7563    3.0320    1.3898 C   0  0  0  0  0  0  0  0  0  0  0  0
    3.4574   -2.1281    0.2385 C   0  0  0  0  0  0  0  0  0  0  0  0
    1.6765    3.3870   -0.9986 C   0  0  0  0  0  0  0  0  0  0  0  0
    1.7877   -2.8787    1.8152 C   0  0  0  0  0  0  0  0  0  0  0  0
    1.9872    3.8465    0.2814 C   0  0  0  0  0  0  0  0  0  0  0  0
    3.0697   -2.9780    1.2742 C   0  0  0  0  0  0  0  0  0  0  0  0
   -5.0749   -0.3963    1.9236 C   0  0  0  0  0  0  0  0  0  0  0  0
   -4.3495   -0.6287   -0.3550 C   0  0  0  0  0  0  0  0  0  0  0  0
  1  5  1  0
  2 10  1  0
  2 22  1  0
  2 23  1  0
  3  4  1  0
  3  5  1  0
  3  6  1  0
  3  7  1  0
  4  8  1  0
  5  9  1  0
  6 11  2  0
  6 13  1  0
  7 12  2  0
  7 14  1  0
  8 10  1  0
  9 15  1  0
 11 16  1  0
 12 17  1  0
 13 18  2  0
 14 19  2  0
 16 20  2  0
 17 21  2  0
 18 20  1  0
 19 21  1  0
M  END
>  <PUBCHEM_COMPOUND_CID>  (1) 
49616

>  <PUBCHEM_CONFORMER_RMSD>  (1) 
0.8

>  <PUBCHEM_CONFORMER_DIVERSEORDER>  (1) 
7
31
27
4
3
22
37
18
25
21
35
30
36
29
39
11
32
34
5
38
28
20
33
17
23
16
9
14
8
12
2
19
10
26
24
13
15
1
6

>  <PUBCHEM_MMFF94_PARTIAL_CHARGES>  (1) 
30
1 -0.68
10 0.27
11 -0.15
12 -0.15
13 -0.15
14 -0.15
16 -0.15
17 -0.15
18 -0.15
19 -0.15
2 -0.81
20 -0.15
21 -0.15
22 0.27
23 0.27
3 0.29
33 0.15
34 0.15
35 0.15
36 0.15
37 0.4
41 0.15
42 0.15
43 0.15
44 0.15
45 0.15
46 0.15
5 0.28
6 -0.14
7 -0.14

>  <PUBCHEM_EFFECTIVE_ROTOR_COUNT>  (1) 
8

>  <PUBCHEM_PHARMACOPHORE_FEATURES>  (1) 
6
1 1 acceptor
1 1 donor
1 15 hydrophobe
1 2 cation
6 6 11 13 16 18 20 rings
6 7 12 14 17 19 21 rings

>  <PUBCHEM_HEAVY_ATOM_COUNT>  (1) 
23

>  <PUBCHEM_ATOM_DEF_STEREO_COUNT>  (1) 
0

>  <PUBCHEM_ATOM_UDEF_STEREO_COUNT>  (1) 
1

>  <PUBCHEM_BOND_DEF_STEREO_COUNT>  (1) 
0

>  <PUBCHEM_BOND_UDEF_STEREO_COUNT>  (1) 
0

>  <PUBCHEM_ISOTOPIC_ATOM_COUNT>  (1) 
0

>  <PUBCHEM_COMPONENT_COUNT>  (1) 
1

>  <PUBCHEM_CACTVS_TAUTO_COUNT>  (1) 
1

>  <PUBCHEM_CONFORMER_ID>  (1) 
0000C1D000000007

>  <PUBCHEM_MMFF94_ENERGY>  (1) 
90.8206

>  <PUBCHEM_FEATURE_SELFOVERLAP>  (1) 
30.446

>  <PUBCHEM_SHAPE_FINGERPRINT>  (1) 
107951 10 17759834793285147076
10906281 52 17694782917751050405
11578080 2 17603860053458519485
11582403 64 17482018995133945770
12788726 201 17110128566046938027
12969540 37 18040437719651686243
13004483 165 17611746700072057553
13134695 92 18337103458785310981
133893 2 17976502256736054510
13533116 47 18261686943441265603
13583140 156 18334571348310503223
14022347 108 17259384014380966273
14787075 74 18261686904317177666
14863182 85 17317068027895400179
14943834 7 17914030226285438686
14955137 171 18130802135141694134
16945 1 18115045038114419712
17980427 23 17987508218049226601
17980427 26 18264490757256174644
20600515 1 17758407274809750837
20602899 9 17181897448436635756
20723712 36 17703795764744477481
21524375 3 18055650644048198289
2255824 54 18336557087363129507
229495 10 18186798050356982830
23419403 2 17459165461351274526
23558518 356 17621317270461593540
23559900 14 17676777539199566385
23598288 3 17473522678508897970
25222932 49 17907868654278693699
266924 1 17698701920588705550
266924 78 18118659227197762511
3380486 145 17909225223555434528
394222 165 18128833004152855625
427121 178 17978256033743623953
497634 4 17101443558772024106
6442390 28 17687202180097819369
6992083 37 17844218788463743006
81228 2 17118059321996562577
9981440 41 16549450719520363424
9999458 23 18191038978095317860

>  <PUBCHEM_SHAPE_MULTIPOLES>  (1) 
462.48
6.01
4.33
2.47
9.08
2.69
1.89
-2.14
-3.8
-5.42
-0.52
1.07
-1.57
-1.35

>  <PUBCHEM_SHAPE_SELFOVERLAP>  (1) 
963.149

>  <PUBCHEM_SHAPE_VOLUME>  (1) 
262.5

>  <PUBCHEM_COORDINATE_TYPE>  (1) 
2
5
10

$$$$
