49613
     RDKit          3D

 20 20  0  0  1  0  0  0  0  0999 V2000
   -0.2507   -0.3949   -0.4213 O   0  0  0  0  0  0  0  0  0  0  0  0
   -0.1200   -1.6153    1.5317 O   0  0  0  0  0  0  0  0  0  0  0  0
    0.5173    2.3810   -0.2595 N   0  0  0  0  0  0  0  0  0  0  0  0
    3.2024   -1.2839    0.1336 C   0  0  0  0  0  0  0  0  0  0  0  0
   -1.0805    0.5690    0.2350 C   0  0  0  0  0  0  0  0  0  0  0  0
    2.2846   -1.7424   -1.0039 C   0  0  0  0  0  0  0  0  0  0  0  0
    4.4970   -0.6757   -0.4095 C   0  0  0  0  0  0  0  0  0  0  0  0
   -0.8754    1.9568   -0.3844 C   0  0  0  0  0  0  0  0  0  0  0  0
    0.9938   -2.3807   -0.4910 C   0  0  0  0  0  0  0  0  0  0  0  0
   -2.5188    0.1153    0.1137 C   0  0  0  0  0  0  0  0  0  0  0  0
    5.4266   -0.2435    0.7243 C   0  0  0  0  0  0  0  0  0  0  0  0
    0.1597   -1.4427    0.3533 C   0  0  0  0  0  0  0  0  0  0  0  0
    6.7002    0.3914    0.1890 C   0  0  0  0  0  0  0  0  0  0  0  0
   -3.4333    0.4190    1.1224 C   0  0  0  0  0  0  0  0  0  0  0  0
   -2.9307   -0.6062   -1.0068 C   0  0  0  0  0  0  0  0  0  0  0  0
    0.7697    2.9243    1.0751 C   0  0  0  0  0  0  0  0  0  0  0  0
    0.8452    3.3722   -1.2841 C   0  0  0  0  0  0  0  0  0  0  0  0
   -4.7593    0.0010    1.0106 C   0  0  0  0  0  0  0  0  0  0  0  0
   -4.2568   -1.0241   -1.1185 C   0  0  0  0  0  0  0  0  0  0  0  0
   -5.1711   -0.7205   -0.1097 C   0  0  0  0  0  0  0  0  0  0  0  0
  1  5  1  0
  1 12  1  0
  2 12  2  0
  3  8  1  0
  3 16  1  0
  3 17  1  0
  4  6  1  0
  4  7  1  0
  5  8  1  0
  5 10  1  0
  6  9  1  0
  7 11  1  0
  9 12  1  0
 10 14  2  0
 10 15  1  0
 11 13  1  0
 14 18  1  0
 15 19  2  0
 18 20  2  0
 19 20  1  0
M  END
>  <PUBCHEM_COMPOUND_CID>  (1) 
49613

>  <PUBCHEM_CONFORMER_RMSD>  (1) 
1

>  <PUBCHEM_CONFORMER_DIVERSEORDER>  (1) 
1
138
78
121
144
42
97
159
98
48
155
23
8
91
132
157
139
35
87
153
123
14
165
31
100
117
6
137
131
86
160
88
4
150
24
99
89
9
120
62
16
20
128
57
74
152
67
81
133
79
2
12
145
125
30
58
163
96
5
52
164
127
66
37
90
21
104
45
118
71
135
19
36
41
141
46
114
68
158
129
29
82
18
149
93
77
70
112
65
130
113
61
34
28
143
38
59
156
60
101
84
22
102
154
136
69
119
3
75
7
53
108
44
76
142
103
11
47
15
124
17
33
43
151
122
83
40
64
134
116
109
26
107
92
72
162
126
111
80
50
55
94
106
10
140
73
51
54
13
115
161
63
56
25
95
110
49
85
39
27
105
148
146
32
147

>  <PUBCHEM_MMFF94_PARTIAL_CHARGES>  (1) 
20
1 -0.43
10 -0.14
12 0.66
14 -0.15
15 -0.15
16 0.27
17 0.27
18 -0.15
19 -0.15
2 -0.57
20 -0.15
3 -0.81
37 0.15
38 0.15
45 0.15
46 0.15
47 0.15
5 0.42
8 0.27
9 0.06

>  <PUBCHEM_EFFECTIVE_ROTOR_COUNT>  (1) 
10

>  <PUBCHEM_PHARMACOPHORE_FEATURES>  (1) 
5
1 13 hydrophobe
1 2 acceptor
1 3 cation
5 4 6 7 9 11 hydrophobe
6 10 14 15 18 19 20 rings

>  <PUBCHEM_HEAVY_ATOM_COUNT>  (1) 
20

>  <PUBCHEM_ATOM_DEF_STEREO_COUNT>  (1) 
0

>  <PUBCHEM_ATOM_UDEF_STEREO_COUNT>  (1) 
1

>  <PUBCHEM_BOND_DEF_STEREO_COUNT>  (1) 
0

>  <PUBCHEM_BOND_UDEF_STEREO_COUNT>  (1) 
0

>  <PUBCHEM_ISOTOPIC_ATOM_COUNT>  (1) 
0

>  <PUBCHEM_COMPONENT_COUNT>  (1) 
1

>  <PUBCHEM_CACTVS_TAUTO_COUNT>  (1) 
1

>  <PUBCHEM_CONFORMER_ID>  (1) 
0000C1CD00000001

>  <PUBCHEM_MMFF94_ENERGY>  (1) 
33.291

>  <PUBCHEM_FEATURE_SELFOVERLAP>  (1) 
25.371

>  <PUBCHEM_SHAPE_FINGERPRINT>  (1) 
10090160 65 18186803565243235366
10670039 82 18189352186705518222
12035758 1 18262810664750117458
12166972 35 17530971263538246862
12467345 10 16845290557516364344
13402501 40 18343295986283924920
14347332 77 18124037824060945478
14787075 74 18335423469458233842
14840074 17 18341330080609536972
15048467 5 17346600742428830699
167882 2 18117843432683545428
1813 80 18339654355773515205
18785283 64 18044393835586795957
19489759 90 14995999930325770783
20600515 1 17750254554866145950
20642791 178 18337404819587261085
23402539 116 18410007698298922590
23419403 2 17462041869932750545
23557571 272 18199478662194295494
23559900 14 18342448284251444011
34934 24 18192713337363360609
4325135 7 17918272052178178838
7364860 26 18271806869547761449
7495541 125 17749967668483953763

>  <PUBCHEM_SHAPE_MULTIPOLES>  (1) 
394.87
11.48
2.98
1.2
10.04
2.7
0.05
-3
1.35
1.39
-0.63
-0.47
0.16
-0.26

>  <PUBCHEM_SHAPE_SELFOVERLAP>  (1) 
779.122

>  <PUBCHEM_SHAPE_VOLUME>  (1) 
236.4

>  <PUBCHEM_COORDINATE_TYPE>  (1) 
2
5
10

$$$$
