49610
     RDKit          3D

 15 15  0  0  0  0  0  0  0  0999 V2000
   -0.0185   -0.2000   -0.6788 N   0  0  0  0  0  0  0  0  0  0  0  0
    2.6455   -0.0122    0.3599 N   0  0  0  0  0  0  0  0  0  0  0  0
    4.3795    1.3415    1.0857 N   0  0  0  0  0  0  0  0  0  0  0  0
    4.8870   -0.2430   -0.4722 N   0  0  0  0  0  0  0  0  0  0  0  0
   -1.3573    0.0067   -0.2726 C   0  0  0  0  0  0  0  0  0  0  0  0
   -1.8992    1.2920   -0.2843 C   0  0  0  0  0  0  0  0  0  0  0  0
   -2.1352   -1.0745    0.1415 C   0  0  0  0  0  0  0  0  0  0  0  0
    0.7287   -1.3617   -0.3159 C   0  0  0  0  0  0  0  0  0  0  0  0
   -3.2194    1.4961    0.1178 C   0  0  0  0  0  0  0  0  0  0  0  0
   -3.4553   -0.8704    0.5437 C   0  0  0  0  0  0  0  0  0  0  0  0
    2.2163   -1.1142   -0.5051 C   0  0  0  0  0  0  0  0  0  0  0  0
   -1.0905    2.4696   -0.7227 C   0  0  0  0  0  0  0  0  0  0  0  0
   -1.5817   -2.4621    0.1665 C   0  0  0  0  0  0  0  0  0  0  0  0
   -3.9976    0.4149    0.5316 C   0  0  0  0  0  0  0  0  0  0  0  0
    3.8977    0.3174    0.3049 C   0  0  0  0  0  0  0  0  0  0  0  0
  1  5  1  0
  1  8  1  0
  2 11  1  0
  2 15  2  3
  3 15  1  0
  4 15  1  0
  5  6  2  0
  5  7  1  0
  6  9  1  0
  6 12  1  0
  7 10  2  0
  7 13  1  0
  8 11  1  0
  9 14  2  0
 10 14  1  0
M  END
>  <PUBCHEM_COMPOUND_CID>  (1) 
49610

>  <PUBCHEM_CONFORMER_RMSD>  (1) 
0.6

>  <PUBCHEM_CONFORMER_DIVERSEORDER>  (1) 
1
9
7
10
3
8
2
5
6
4

>  <PUBCHEM_MMFF94_PARTIAL_CHARGES>  (1) 
23
1 -0.87
10 -0.15
11 0.25
12 0.14
13 0.14
14 -0.15
15 0.55
18 0.4
2 -0.7
21 0.15
22 0.15
29 0.15
3 -0.85
30 0.4
31 0.4
32 0.4
33 0.4
4 -0.85
5 0.1
6 -0.14
7 -0.14
8 0.37
9 -0.15

>  <PUBCHEM_EFFECTIVE_ROTOR_COUNT>  (1) 
4

>  <PUBCHEM_PHARMACOPHORE_FEATURES>  (1) 
6
1 1 cation
1 1 donor
1 3 donor
1 4 donor
4 2 3 4 15 cation
6 5 6 7 9 10 14 rings

>  <PUBCHEM_HEAVY_ATOM_COUNT>  (1) 
15

>  <PUBCHEM_ATOM_DEF_STEREO_COUNT>  (1) 
0

>  <PUBCHEM_ATOM_UDEF_STEREO_COUNT>  (1) 
0

>  <PUBCHEM_BOND_DEF_STEREO_COUNT>  (1) 
0

>  <PUBCHEM_BOND_UDEF_STEREO_COUNT>  (1) 
0

>  <PUBCHEM_ISOTOPIC_ATOM_COUNT>  (1) 
0

>  <PUBCHEM_COMPONENT_COUNT>  (1) 
1

>  <PUBCHEM_CACTVS_TAUTO_COUNT>  (1) 
2

>  <PUBCHEM_CONFORMER_ID>  (1) 
0000C1CA00000001

>  <PUBCHEM_MMFF94_ENERGY>  (1) 
67.4531

>  <PUBCHEM_FEATURE_SELFOVERLAP>  (1) 
30.502

>  <PUBCHEM_SHAPE_FINGERPRINT>  (1) 
10608611 8 18340768122402943158
11132069 177 18409731772145391885
11265709 11 17980197805833927407
12251169 10 18261114088311979766
13081056 2 18272370875899568272
13214271 11 18411699889812268695
13897977 58 18334020514127650916
15163728 17 14475580101012359601
15219456 202 18272376317196182974
19784866 170 18336554841063688835
20510252 161 18340772524955613145
20528008 55 18411980239370391063
20645477 56 18411705361189289910
20645477 70 16916797245317235062
21637258 2 15141535769920317777
21650355 55 18260830449025264171
21652331 79 18410009953293863968
2297311 6 18337406979997664934
23402539 116 18411694418230025799
23557571 272 18342189885353345086
23559900 14 18265341616380047734
27216 239 18343298197405819347
2748010 2 18119827824023301767
3009799 131 18261381283525030591
5104073 3 18337957779267313651
7364860 26 18123751950499679230
90316 7 17822289046296484077

>  <PUBCHEM_SHAPE_MULTIPOLES>  (1) 
288.77
8.43
2.22
0.83
9.76
0.14
0.04
1.76
1.96
-1.28
-0.18
0.24
0.14
0.78

>  <PUBCHEM_SHAPE_SELFOVERLAP>  (1) 
587.765

>  <PUBCHEM_SHAPE_VOLUME>  (1) 
165.9

>  <PUBCHEM_COORDINATE_TYPE>  (1) 
2
5
10

$$$$
