49618
     RDKit          3D

 22 22  0  0  1  0  0  0  0  0999 V2000
    0.7009    0.1643   -0.8899 O   0  0  0  0  0  0  0  0  0  0  0  0
   -0.1406   -1.6865    0.1990 O   0  0  0  0  0  0  0  0  0  0  0  0
    4.7839   -0.0011    0.2143 N   0  0  0  0  0  0  0  0  0  0  0  0
   -1.6443    0.0375   -0.6478 C   0  0  0  0  0  0  0  0  0  0  0  0
   -1.7265    1.4583   -0.0520 C   0  0  0  0  0  0  0  0  0  0  0  0
   -3.0374    2.1674   -0.4146 C   0  0  0  0  0  0  0  0  0  0  0  0
    4.4523    0.1595   -1.1962 C   0  0  0  0  0  0  0  0  0  0  0  0
    3.0118    0.6366   -1.3505 C   0  0  0  0  0  0  0  0  0  0  0  0
   -2.7680   -0.8463   -0.1377 C   0  0  0  0  0  0  0  0  0  0  0  0
   -3.0818    3.5805    0.1674 C   0  0  0  0  0  0  0  0  0  0  0  0
   -0.2958   -0.6164   -0.3747 C   0  0  0  0  0  0  0  0  0  0  0  0
    2.0284   -0.3443   -0.7266 C   0  0  0  0  0  0  0  0  0  0  0  0
    6.1458   -0.5155    0.3688 C   0  0  0  0  0  0  0  0  0  0  0  0
    4.6378    1.2698    0.9263 C   0  0  0  0  0  0  0  0  0  0  0  0
   -3.3157   -1.7910   -0.9846 C   0  0  0  0  0  0  0  0  0  0  0  0
   -3.2135   -0.6835    1.1602 C   0  0  0  0  0  0  0  0  0  0  0  0
   -4.3668    4.2992   -0.2120 C   0  0  0  0  0  0  0  0  0  0  0  0
    6.3204   -1.8355   -0.3630 C   0  0  0  0  0  0  0  0  0  0  0  0
    4.9160    1.1027    2.4105 C   0  0  0  0  0  0  0  0  0  0  0  0
   -4.3480   -2.6035   -0.5160 C   0  0  0  0  0  0  0  0  0  0  0  0
   -4.2459   -1.4961    1.6288 C   0  0  0  0  0  0  0  0  0  0  0  0
   -4.8131   -2.4561    0.7906 C   0  0  0  0  0  0  0  0  0  0  0  0
  1 11  1  0
  1 12  1  0
  2 11  2  0
  3  7  1  0
  3 13  1  0
  3 14  1  0
  4  5  1  0
  4  9  1  0
  4 11  1  0
  5  6  1  0
  6 10  1  0
  7  8  1  0
  8 12  1  0
  9 15  2  0
  9 16  1  0
 10 17  1  0
 13 18  1  0
 14 19  1  0
 15 20  1  0
 16 21  2  0
 20 22  2  0
 21 22  1  0
M  END
>  <PUBCHEM_COMPOUND_CID>  (1) 
49618

>  <PUBCHEM_CONFORMER_RMSD>  (1) 
1.2

>  <PUBCHEM_CONFORMER_DIVERSEORDER>  (1) 
2
127
63
18
95
36
7
38
53
128
56
78
66
75
65
37
62
30
80
88
60
15
33
17
89
90
20
23
42
57
19
11
116
31
118
74
83
34
84
108
122
102
97
46
121
92
94
8
58
117
67
100
115
73
50
125
126
3
69
87
76
4
79
16
35
51
107
39
41
40
111
61
82
105
29
120
27
64
9
26
101
48
99
93
91
109
43
1
14
77
21
106
98
13
112
32
124
81
70
25
114
86
24
96
119
10
12
123
85
68
54
110
49
104
72
103
113
22
28
6
5
52
71
59
55
45
47
44

>  <PUBCHEM_MMFF94_PARTIAL_CHARGES>  (1) 
20
1 -0.43
11 0.66
12 0.28
13 0.27
14 0.27
15 -0.15
16 -0.15
2 -0.57
20 -0.15
21 -0.15
22 -0.15
3 -0.81
4 0.2
40 0.15
41 0.15
51 0.15
52 0.15
53 0.15
7 0.27
9 -0.14

>  <PUBCHEM_EFFECTIVE_ROTOR_COUNT>  (1) 
12

>  <PUBCHEM_PHARMACOPHORE_FEATURES>  (1) 
5
1 17 hydrophobe
1 2 acceptor
1 3 cation
4 4 5 6 10 hydrophobe
6 9 15 16 20 21 22 rings

>  <PUBCHEM_HEAVY_ATOM_COUNT>  (1) 
22

>  <PUBCHEM_ATOM_DEF_STEREO_COUNT>  (1) 
0

>  <PUBCHEM_ATOM_UDEF_STEREO_COUNT>  (1) 
1

>  <PUBCHEM_BOND_DEF_STEREO_COUNT>  (1) 
0

>  <PUBCHEM_BOND_UDEF_STEREO_COUNT>  (1) 
0

>  <PUBCHEM_ISOTOPIC_ATOM_COUNT>  (1) 
0

>  <PUBCHEM_COMPONENT_COUNT>  (1) 
1

>  <PUBCHEM_CACTVS_TAUTO_COUNT>  (1) 
1

>  <PUBCHEM_CONFORMER_ID>  (1) 
0000C1D200000002

>  <PUBCHEM_MMFF94_ENERGY>  (1) 
36.331

>  <PUBCHEM_FEATURE_SELFOVERLAP>  (1) 
25.372

>  <PUBCHEM_SHAPE_FINGERPRINT>  (1) 
10319926 262 18340198605945595434
11545043 162 18341611491309144984
12107183 9 17901661571446286562
12403259 415 18059858376837961956
12596602 18 17749383823831291440
12788726 201 18190195639976261813
13073987 5 18335421279668374356
13533116 47 18261395615482633502
13583140 156 17917424294506113934
14178342 30 18261681376177134581
15183329 4 15141225663821705991
15188451 53 18187353368412254202
17349148 13 17749393706155413502
17844677 252 18411421726461220860
18222031 100 17458620160014662670
18927931 339 18410300219852501631
19433438 28 18272088318696587666
20645477 70 14563077161918219490
21033648 29 18129929127615911152
23402539 116 18335140933719774375
23559900 14 14779827251428281118
23929065 36 18339065048075796689
312423 11 17749683968772245468
5104073 3 18334570218966395032
5969126 39 18272359906927550461
59755656 520 18191863427533554605
960060 61 13479122511294791074
9981440 41 18340205164334327863

>  <PUBCHEM_SHAPE_MULTIPOLES>  (1) 
436.03
15.08
3.77
1.46
21.47
4.06
0.68
-2.97
3.31
-8.44
0.03
1.12
0
1.62

>  <PUBCHEM_SHAPE_SELFOVERLAP>  (1) 
860.619

>  <PUBCHEM_SHAPE_VOLUME>  (1) 
260.9

>  <PUBCHEM_COORDINATE_TYPE>  (1) 
2
5
10

$$$$
