4961
     RDKit          3D

 24 24  0  0  1  0  0  0  0  0999 V2000
   -2.7105   -3.5219    1.4357 O   0  0  0  0  0  0  0  0  0  0  0  0
   -3.3890    1.1428    3.2501 O   0  0  0  0  0  0  0  0  0  0  0  0
    7.0302   -0.7599    1.0041 O   0  0  0  0  0  0  0  0  0  0  0  0
    6.8666    1.0141   -0.4012 O   0  0  0  0  0  0  0  0  0  0  0  0
   -1.1700   -1.8855   -1.3463 C   0  0  0  0  0  0  0  0  0  0  0  0
   -1.4985   -1.8403    0.1560 C   0  0  0  0  0  0  0  0  0  0  0  0
    0.3247   -1.7283   -1.6087 C   0  0  0  0  0  0  0  0  0  0  0  0
   -1.6622   -3.2354   -1.7851 C   0  0  0  0  0  0  0  0  0  0  0  0
   -2.2167   -3.1510    0.3804 C   0  0  0  0  0  0  0  0  0  0  0  0
   -2.3876   -0.7047    0.5404 C   0  0  0  0  0  0  0  0  0  0  0  0
   -2.2533   -3.9673   -0.8403 C   0  0  0  0  0  0  0  0  0  0  0  0
   -2.9928    1.3216    1.8889 C   0  0  0  0  0  0  0  0  0  0  0  0
   -2.3006    2.6877    1.7869 C   0  0  0  0  0  0  0  0  0  0  0  0
   -2.0937    0.1803    1.5042 C   0  0  0  0  0  0  0  0  0  0  0  0
   -1.7342    2.9751    0.3934 C   0  0  0  0  0  0  0  0  0  0  0  0
    0.9575   -0.4404   -1.1627 C   0  0  0  0  0  0  0  0  0  0  0  0
   -2.8098    3.0544   -0.6949 C   0  0  0  0  0  0  0  0  0  0  0  0
   -2.2423    3.2711   -2.0982 C   0  0  0  0  0  0  0  0  0  0  0  0
    1.9235   -0.2849   -0.2447 C   0  0  0  0  0  0  0  0  0  0  0  0
    2.5066    1.0461    0.1314 C   0  0  0  0  0  0  0  0  0  0  0  0
    4.0158    1.1532   -0.1271 C   0  0  0  0  0  0  0  0  0  0  0  0
   -3.3501    3.3530   -3.1376 C   0  0  0  0  0  0  0  0  0  0  0  0
    4.8510    0.1144    0.6275 C   0  0  0  0  0  0  0  0  0  0  0  0
    6.3354    0.2060    0.3480 C   0  0  0  0  0  0  0  0  0  0  0  0
  1  9  2  0
  2 12  1  0
  3 24  1  0
  4 24  2  0
  5  6  1  0
  5  7  1  0
  5  8  1  0
  6  9  1  0
  6 10  1  0
  7 16  1  0
  8 11  2  0
  9 11  1  0
 10 14  2  0
 12 13  1  0
 12 14  1  0
 13 15  1  0
 15 17  1  0
 16 19  2  0
 17 18  1  0
 18 22  1  0
 19 20  1  0
 20 21  1  0
 21 23  1  0
 23 24  1  0
M  END
>  <PUBCHEM_COMPOUND_CID>  (1) 
4961

>  <PUBCHEM_CONFORMER_RMSD>  (1) 
1.6

>  <PUBCHEM_CONFORMER_DIVERSEORDER>  (1) 
2
14
4
71
5
39
9
53
61
73
27
26
6
56
40
21
62
15
64
80
59
22
76
67
16
7
65
41
47
63
46
19
20
72
82
13
36
54
32
29
35
33
45
50
38
68
44
8
52
58
81
55
43
78
24
34
31
10
57
11
66
49
48
3
69
77
17
37
70
42
1
75
60
25
83
30
74
12
28
79
23
51
18

>  <PUBCHEM_MMFF94_PARTIAL_CHARGES>  (1) 
26
1 -0.57
10 -0.29
11 -0.14
12 0.42
14 -0.29
16 -0.29
19 -0.29
2 -0.68
20 0.14
23 0.06
24 0.66
29 0.15
3 -0.65
30 0.15
31 0.15
35 0.15
38 0.15
4 -0.57
43 0.15
46 0.4
5 0.14
54 0.5
6 0.2
7 0.14
8 -0.29
9 0.49

>  <PUBCHEM_EFFECTIVE_ROTOR_COUNT>  (1) 
12.4

>  <PUBCHEM_PHARMACOPHORE_FEATURES>  (1) 
10
1 1 acceptor
1 2 acceptor
1 2 donor
1 22 hydrophobe
1 3 acceptor
1 4 acceptor
3 3 4 24 anion
4 13 15 17 18 hydrophobe
4 19 20 21 23 hydrophobe
5 5 6 8 9 11 rings

>  <PUBCHEM_HEAVY_ATOM_COUNT>  (1) 
24

>  <PUBCHEM_ATOM_DEF_STEREO_COUNT>  (1) 
0

>  <PUBCHEM_ATOM_UDEF_STEREO_COUNT>  (1) 
3

>  <PUBCHEM_BOND_DEF_STEREO_COUNT>  (1) 
0

>  <PUBCHEM_BOND_UDEF_STEREO_COUNT>  (1) 
2

>  <PUBCHEM_ISOTOPIC_ATOM_COUNT>  (1) 
0

>  <PUBCHEM_COMPONENT_COUNT>  (1) 
1

>  <PUBCHEM_CACTVS_TAUTO_COUNT>  (1) 
15

>  <PUBCHEM_CONFORMER_ID>  (1) 
0000136100000002

>  <PUBCHEM_MMFF94_ENERGY>  (1) 
17.2605

>  <PUBCHEM_FEATURE_SELFOVERLAP>  (1) 
50.805

>  <PUBCHEM_SHAPE_FINGERPRINT>  (1) 
11045515 52 17978215381577525919
11273773 118 18334864892630866092
11595378 159 18196103359382003852
12156800 1 17689944190768363785
12788726 201 18190434182607925479
14202776 33 18189914157090482548
17980427 26 17341266869883306109
238 59 17762894364967866637
4409770 3 18341886394284467804
484985 159 15430031050210622880
7288768 16 17773615831261310809
9981440 41 18046337540158895941

>  <PUBCHEM_SHAPE_MULTIPOLES>  (1) 
470.43
11.14
5.38
2.54
34.63
1.91
0.06
-4.57
-2.56
-9.05
2.36
-4.16
-1.85
0.82

>  <PUBCHEM_SHAPE_SELFOVERLAP>  (1) 
925.2

>  <PUBCHEM_SHAPE_VOLUME>  (1) 
280.6

>  <PUBCHEM_COORDINATE_TYPE>  (1) 
2
5
10

$$$$
