49621
     RDKit          3D

 22 23  0  0  1  0  0  0  0  0999 V2000
   -1.8490   -1.2507    2.2428 O   0  0  0  0  0  0  0  0  0  0  0  0
    2.4270    2.6584    0.1948 N   0  0  0  0  0  0  0  0  0  0  0  0
   -0.2243   -0.2304    0.6892 C   0  0  0  0  0  0  0  0  0  0  0  0
    0.8049    0.9297    0.9803 C   0  0  0  0  0  0  0  0  0  0  0  0
    1.4162    1.6873   -0.2281 C   0  0  0  0  0  0  0  0  0  0  0  0
   -1.5346    0.2282   -0.0076 C   0  0  0  0  0  0  0  0  0  0  0  0
    0.5333   -1.3412   -0.0907 C   0  0  0  0  0  0  0  0  0  0  0  0
   -0.7121   -0.7981    2.0789 C   0  0  0  0  0  0  0  0  0  0  0  0
    0.3211    2.4356   -0.9938 C   0  0  0  0  0  0  0  0  0  0  0  0
   -1.8702   -0.3703   -1.1876 C   0  0  0  0  0  0  0  0  0  0  0  0
    0.9492   -1.0552   -1.3586 C   0  0  0  0  0  0  0  0  0  0  0  0
   -2.2719    1.2018    0.6024 C   0  0  0  0  0  0  0  0  0  0  0  0
    0.7367   -2.5339    0.5403 C   0  0  0  0  0  0  0  0  0  0  0  0
    0.2183   -0.7036    3.2679 C   0  0  0  0  0  0  0  0  0  0  0  0
    3.0101    3.3258   -0.9679 C   0  0  0  0  0  0  0  0  0  0  0  0
    3.4674    2.0004    0.9832 C   0  0  0  0  0  0  0  0  0  0  0  0
   -3.0469    0.0413   -1.8134 C   0  0  0  0  0  0  0  0  0  0  0  0
    1.6293   -2.0518   -2.0586 C   0  0  0  0  0  0  0  0  0  0  0  0
   -3.4487    1.6133   -0.0233 C   0  0  0  0  0  0  0  0  0  0  0  0
    1.4170   -3.5303   -0.1597 C   0  0  0  0  0  0  0  0  0  0  0  0
   -3.8361    1.0330   -1.2312 C   0  0  0  0  0  0  0  0  0  0  0  0
    1.8633   -3.2892   -1.4591 C   0  0  0  0  0  0  0  0  0  0  0  0
  1  8  2  0
  2  5  1  0
  2 15  1  0
  2 16  1  0
  3  4  1  0
  3  6  1  0
  3  7  1  0
  3  8  1  0
  4  5  1  0
  5  9  1  0
  6 10  2  0
  6 12  1  0
  7 11  2  0
  7 13  1  0
  8 14  1  0
 10 17  1  0
 11 18  1  0
 12 19  2  0
 13 20  2  0
 17 21  2  0
 18 22  2  0
 19 21  1  0
 20 22  1  0
M  END
>  <PUBCHEM_COMPOUND_CID>  (1) 
49621

>  <PUBCHEM_CONFORMER_RMSD>  (1) 
0.8

>  <PUBCHEM_CONFORMER_DIVERSEORDER>  (1) 
1
17
16
13
5
28
10
3
24
19
7
4
8
25
12
14
15
32
31
21
29
18
6
23
30
33
9
26
2
27
20
11
22

>  <PUBCHEM_MMFF94_PARTIAL_CHARGES>  (1) 
30
1 -0.57
10 -0.15
11 -0.15
12 -0.15
13 -0.15
14 0.06
15 0.27
16 0.27
17 -0.15
18 -0.15
19 -0.15
2 -0.81
20 -0.15
21 -0.15
22 -0.15
29 0.15
3 0.35
30 0.15
31 0.15
32 0.15
42 0.15
43 0.15
44 0.15
45 0.15
46 0.15
47 0.15
5 0.27
6 -0.14
7 -0.14
8 0.45

>  <PUBCHEM_EFFECTIVE_ROTOR_COUNT>  (1) 
6

>  <PUBCHEM_PHARMACOPHORE_FEATURES>  (1) 
4
1 1 acceptor
1 2 cation
6 6 10 12 17 19 21 rings
6 7 11 13 18 20 22 rings

>  <PUBCHEM_HEAVY_ATOM_COUNT>  (1) 
22

>  <PUBCHEM_ATOM_DEF_STEREO_COUNT>  (1) 
0

>  <PUBCHEM_ATOM_UDEF_STEREO_COUNT>  (1) 
1

>  <PUBCHEM_BOND_DEF_STEREO_COUNT>  (1) 
0

>  <PUBCHEM_BOND_UDEF_STEREO_COUNT>  (1) 
0

>  <PUBCHEM_ISOTOPIC_ATOM_COUNT>  (1) 
0

>  <PUBCHEM_COMPONENT_COUNT>  (1) 
1

>  <PUBCHEM_CACTVS_TAUTO_COUNT>  (1) 
2

>  <PUBCHEM_CONFORMER_ID>  (1) 
0000C1D500000001

>  <PUBCHEM_MMFF94_ENERGY>  (1) 
104.4837

>  <PUBCHEM_FEATURE_SELFOVERLAP>  (1) 
20.297

>  <PUBCHEM_SHAPE_FINGERPRINT>  (1) 
10165383 225 17184816531306755700
10764073 3 14279864797315777941
107951 10 17531253919535972472
11578080 2 17540026858088930761
11833330 49 17403452971117364486
121448 382 17700966905930922556
12423570 1 11537781104958565370
12592029 89 18342172310225596846
12617007 42 17982153531891706229
12654903 92 17768523894345116141
12716301 132 17023772093930894921
13149001 5 18043267759512493379
133893 2 18200606803815441016
13681431 1 18198064672923754582
13931106 250 17550096404703733900
14004458 79 17189254894606931798
14181834 199 17702087089246778643
14817 1 14258541908066956450
14863182 85 17339510082410098879
15238133 3 16741697600390545533
16945 1 18337951173549394325
17876694 64 16769593382416766681
1813 80 17769377115257533119
18915476 22 18269295550297899411
20600515 1 17401724603463821009
20602899 9 17772198771389982820
21285901 2 16546637597376518093
21304303 282 16973585022972748420
21524375 3 17970606696704922805
22907989 373 17547017784862292588
229495 10 17986137217311891963
23352939 185 17700413572799589206
23419403 2 17973480712656772603
23559900 14 15406937810040564182
23598288 3 17609773467827553312
23728640 28 17979056499799538776
238 59 18341345447654083124
2748010 2 18190482603900058132
298252 57 18122322830027388112
404807 78 16963736706725545711
4175511 376 18335133150906503519
474 4 18335976528086525117
497634 4 15288722018421783532
5845 1 16749898302985347893
81228 2 17188147695124962514
9981440 41 18340480187616662792

>  <PUBCHEM_SHAPE_MULTIPOLES>  (1) 
441.9
4.73
4.06
2.38
3.91
1.32
-1.56
1.67
1.89
-5.48
1.23
0.06
-1.07
0.74

>  <PUBCHEM_SHAPE_SELFOVERLAP>  (1) 
935.068

>  <PUBCHEM_SHAPE_VOLUME>  (1) 
246.9

>  <PUBCHEM_COORDINATE_TYPE>  (1) 
2
5
10

$$$$
