49624
     RDKit          3D

 26 28  0  0  1  0  0  0  0  0999 V2000
    5.6362   -0.1022   -0.2189 O   0  0  0  0  0  0  0  0  0  0  0  0
   -2.9564   -0.4947    1.7931 O   0  0  0  0  0  0  0  0  0  0  0  0
    2.8990    0.6447    0.0080 N   0  0  0  0  0  0  0  0  0  0  0  0
   -0.9380   -0.0889    0.4290 C   0  0  0  0  0  0  0  0  0  0  0  0
    0.5789    0.2051    0.8419 C   0  0  0  0  0  0  0  0  0  0  0  0
    1.4919    0.5421   -0.3734 C   0  0  0  0  0  0  0  0  0  0  0  0
   -1.5436    1.2515   -0.1012 C   0  0  0  0  0  0  0  0  0  0  0  0
   -1.1229   -1.2495   -0.6035 C   0  0  0  0  0  0  0  0  0  0  0  0
    0.7366    1.3217    1.9008 C   0  0  0  0  0  0  0  0  0  0  0  0
   -1.7357   -0.6407    1.6831 C   0  0  0  0  0  0  0  0  0  0  0  0
    3.7195    1.0705   -1.1343 C   0  0  0  0  0  0  0  0  0  0  0  0
    3.3922   -0.6364    0.5324 C   0  0  0  0  0  0  0  0  0  0  0  0
   -0.9702   -1.4787    2.7109 C   0  0  0  0  0  0  0  0  0  0  0  0
    5.1844    1.1581   -0.7160 C   0  0  0  0  0  0  0  0  0  0  0  0
    4.8645   -0.5077    0.9122 C   0  0  0  0  0  0  0  0  0  0  0  0
   -1.5476    1.4466   -1.4474 C   0  0  0  0  0  0  0  0  0  0  0  0
   -2.2117   -1.1944   -1.4165 C   0  0  0  0  0  0  0  0  0  0  0  0
   -2.0245    2.1287    0.8207 C   0  0  0  0  0  0  0  0  0  0  0  0
   -0.1817   -2.2310   -0.6152 C   0  0  0  0  0  0  0  0  0  0  0  0
   -1.8541   -1.9334    3.8615 C   0  0  0  0  0  0  0  0  0  0  0  0
   -2.0880    2.6424   -1.9207 C   0  0  0  0  0  0  0  0  0  0  0  0
   -2.3766   -2.2290   -2.3374 C   0  0  0  0  0  0  0  0  0  0  0  0
   -2.5649    3.3243    0.3475 C   0  0  0  0  0  0  0  0  0  0  0  0
   -0.3467   -3.2656   -1.5362 C   0  0  0  0  0  0  0  0  0  0  0  0
   -2.5967    3.5811   -1.0232 C   0  0  0  0  0  0  0  0  0  0  0  0
   -1.4441   -3.2645   -2.3972 C   0  0  0  0  0  0  0  0  0  0  0  0
  1 14  1  0
  1 15  1  0
  2 10  2  0
  3  6  1  0
  3 11  1  0
  3 12  1  0
  4  5  1  0
  4  7  1  0
  4  8  1  0
  4 10  1  0
  5  6  1  0
  5  9  1  0
  7 16  2  0
  7 18  1  0
  8 17  2  0
  8 19  1  0
 10 13  1  0
 11 14  1  0
 12 15  1  0
 13 20  1  0
 16 21  1  0
 17 22  1  0
 18 23  2  0
 19 24  2  0
 21 25  2  0
 22 26  2  0
 23 25  1  0
 24 26  1  0
M  END
>  <PUBCHEM_COMPOUND_CID>  (1) 
49624

>  <PUBCHEM_CONFORMER_RMSD>  (1) 
0.8

>  <PUBCHEM_CONFORMER_DIVERSEORDER>  (1) 
1
9
24
18
12
28
21
5
30
11
22
4
33
29
27
23
10
20
19
32
37
26
14
17
16
8
7
13
34
36
15
3
2
35
25
6
31

>  <PUBCHEM_MMFF94_PARTIAL_CHARGES>  (1) 
33
1 -0.56
10 0.45
11 0.27
12 0.27
13 0.06
14 0.28
15 0.28
16 -0.15
17 -0.15
18 -0.15
19 -0.15
2 -0.57
21 -0.15
22 -0.15
23 -0.15
24 -0.15
25 -0.15
26 -0.15
3 -0.81
4 0.35
43 0.15
44 0.15
45 0.15
46 0.15
50 0.15
51 0.15
52 0.15
53 0.15
54 0.15
55 0.15
6 0.27
7 -0.14
8 -0.14

>  <PUBCHEM_EFFECTIVE_ROTOR_COUNT>  (1) 
8.2

>  <PUBCHEM_PHARMACOPHORE_FEATURES>  (1) 
8
1 1 acceptor
1 2 acceptor
1 20 hydrophobe
1 3 cation
1 9 hydrophobe
6 1 3 11 12 14 15 rings
6 7 16 18 21 23 25 rings
6 8 17 19 22 24 26 rings

>  <PUBCHEM_HEAVY_ATOM_COUNT>  (1) 
26

>  <PUBCHEM_ATOM_DEF_STEREO_COUNT>  (1) 
0

>  <PUBCHEM_ATOM_UDEF_STEREO_COUNT>  (1) 
1

>  <PUBCHEM_BOND_DEF_STEREO_COUNT>  (1) 
0

>  <PUBCHEM_BOND_UDEF_STEREO_COUNT>  (1) 
0

>  <PUBCHEM_ISOTOPIC_ATOM_COUNT>  (1) 
0

>  <PUBCHEM_COMPONENT_COUNT>  (1) 
1

>  <PUBCHEM_CACTVS_TAUTO_COUNT>  (1) 
2

>  <PUBCHEM_CONFORMER_ID>  (1) 
0000C1D800000001

>  <PUBCHEM_MMFF94_ENERGY>  (1) 
99.5269

>  <PUBCHEM_FEATURE_SELFOVERLAP>  (1) 
40.596

>  <PUBCHEM_SHAPE_FINGERPRINT>  (1) 
10721379 63 16830087889649863847
10764073 3 17977140931125893417
107951 10 17824551772459094618
11443803 9 18050538817096167425
11578080 2 16756137615146284593
11582403 64 17827905240105922741
12082328 90 17823157717577330390
12173636 292 17603867775930815592
12403814 3 18338527429237574296
12422481 6 18194992689370988777
12788726 201 18266718316222245766
13004483 165 18055619870538515982
133893 2 17197434230178110910
14713325 29 18410853231409562951
14863182 85 16545453569719687053
15463212 79 18336814334756507196
16752209 62 18198318767547614238
17980427 23 17979954732327791129
17980427 26 17100293494798178435
1813 80 17836627996625225407
20600515 1 17556585670432707887
20602899 9 17703783695997217135
20681651 13 17846494859834047698
21330990 113 18201721756504741373
21524375 3 18118111481544963749
22907989 373 18200299039555214180
23419403 2 17475272040046662219
23598288 3 18333741225384239292
266924 78 16679230517710410867
298252 57 18196358239367368521
3027735 51 18060126652705387902
3493558 16 15109978260993988562
394222 165 17613704926039393897
46194498 28 17113520529819093917
469060 322 18267876162159327791
484985 159 16487265378193887990
497634 4 17273426186675103664
57527573 199 13790401510806019597
59755656 520 17203060581469368330
70251023 43 18195236943802519562
9862522 239 18339081488698480580
9981440 41 18056479439644724312

>  <PUBCHEM_SHAPE_MULTIPOLES>  (1) 
518.35
7.08
4
2.94
15.87
0.38
2.26
2.69
-1.02
-4.65
-2.26
-2.69
-2.35
-0.14

>  <PUBCHEM_SHAPE_SELFOVERLAP>  (1) 
1099.048

>  <PUBCHEM_SHAPE_VOLUME>  (1) 
286.3

>  <PUBCHEM_COORDINATE_TYPE>  (1) 
2
5
10

$$$$
