4963
     RDKit          3D

 23 23  0  0  0  0  0  0  0  0999 V2000
   -2.5824   -1.2863    1.0179 S   0  0  0  0  0  0  0  0  0  0  0  0
   -3.8471   -1.7260   -0.5343 S   0  0  0  0  0  0  0  0  0  0  0  0
    0.7542   -3.1223   -1.5734 O   0  0  0  0  0  0  0  0  0  0  0  0
    0.5033    2.3521   -2.4485 O   0  0  0  0  0  0  0  0  0  0  0  0
   -0.0881    1.5432   -0.3282 N   0  0  0  0  0  0  0  0  0  0  0  0
    3.4744   -0.7344    1.2736 N   0  0  0  0  0  0  0  0  0  0  0  0
    4.2102    0.3047   -0.7724 N   0  0  0  0  0  0  0  0  0  0  0  0
    1.5234    0.0436    2.3745 N   0  0  0  0  0  0  0  0  0  0  0  0
   -1.0205    0.8435    0.3988 C   0  0  0  0  0  0  0  0  0  0  0  0
    1.0775    2.0640    0.3708 C   0  0  0  0  0  0  0  0  0  0  0  0
   -1.3274   -0.4445    0.1132 C   0  0  0  0  0  0  0  0  0  0  0  0
   -0.6711   -1.2361   -1.0064 C   0  0  0  0  0  0  0  0  0  0  0  0
    2.2288    1.1008    0.3386 C   0  0  0  0  0  0  0  0  0  0  0  0
   -1.6490    1.6568    1.4980 C   0  0  0  0  0  0  0  0  0  0  0  0
    0.1177   -2.4426   -0.4999 C   0  0  0  0  0  0  0  0  0  0  0  0
    2.4414    0.1331    1.2991 C   0  0  0  0  0  0  0  0  0  0  0  0
    3.1546    1.1404   -0.6841 C   0  0  0  0  0  0  0  0  0  0  0  0
   -0.2502    1.7493   -1.6914 C   0  0  0  0  0  0  0  0  0  0  0  0
   -4.9223   -0.2710   -0.5612 C   0  0  0  0  0  0  0  0  0  0  0  0
   -5.9939   -0.3786    0.5180 C   0  0  0  0  0  0  0  0  0  0  0  0
    4.3080   -0.5946    0.2251 C   0  0  0  0  0  0  0  0  0  0  0  0
   -6.9038    0.8410    0.5100 C   0  0  0  0  0  0  0  0  0  0  0  0
    5.4625   -1.5361    0.1622 C   0  0  0  0  0  0  0  0  0  0  0  0
  1  2  1  0
  1 11  1  0
  2 19  1  0
  3 15  1  0
  4 18  2  0
  5  9  1  0
  5 10  1  0
  5 18  1  0
  6 16  2  0
  6 21  1  0
  7 17  1  0
  7 21  2  0
  8 16  1  0
  9 11  2  0
  9 14  1  0
 10 13  1  0
 11 12  1  0
 12 15  1  0
 13 16  1  0
 13 17  2  0
 19 20  1  0
 20 22  1  0
 21 23  1  0
M  END
>  <PUBCHEM_COMPOUND_CID>  (1) 
4963

>  <PUBCHEM_CONFORMER_RMSD>  (1) 
1

>  <PUBCHEM_CONFORMER_DIVERSEORDER>  (1) 
3
48
247
214
233
14
129
146
80
111
241
109
240
222
77
220
249
171
34
71
102
203
150
50
162
98
52
201
40
205
192
213
181
94
210
23
99
112
61
197
114
107
170
75
119
140
42
96
246
175
136
187
245
157
228
19
36
30
173
31
186
45
225
153
65
2
185
86
177
216
243
81
51
242
37
188
105
151
202
18
204
25
164
191
69
219
43
6
84
126
158
53
1
217
9
76
174
154
5
118
238
160
58
199
149
7
237
230
212
139
63
229
156
47
100
91
179
79
165
27
231
159
190
211
176
101
168
72
21
178
223
85
224
183
163
41
4
200
60
133
155
134
89
234
161
113
122
120
121
194
92
17
28
8
138
218
93
90
117
49
57
95
22
232
239
184
104
73
11
103
12
209
15
141
193
125
110
147
39
124
97
26
144
221
142
67
226
180
135
207
33
55
167
244
35
29
145
236
59
20
206
82
152
248
169
235
132
16
54
46
166
189
123
195
128
196
38
44
172
74
116
66
64
88
115
130
13
215
62
227
83
137
143
208
198
87
70
127
56
108
148
10
131
182
78
32
24
106
68

>  <PUBCHEM_MMFF94_PARTIAL_CHARGES>  (1) 
26
1 -0.1
10 0.44
11 -0.04
12 0.14
13 -0.14
14 0.14
15 0.28
16 0.41
17 0.16
18 0.57
19 0.23
2 -0.23
21 0.48
23 0.14
3 -0.68
33 0.15
34 0.06
39 0.4
4 -0.57
40 0.4
47 0.4
5 -0.47
6 -0.62
7 -0.62
8 -0.9
9 -0.03

>  <PUBCHEM_EFFECTIVE_ROTOR_COUNT>  (1) 
10

>  <PUBCHEM_PHARMACOPHORE_FEATURES>  (1) 
10
1 22 hydrophobe
1 3 acceptor
1 3 donor
1 4 acceptor
1 8 donor
3 1 11 12 hydrophobe
3 2 19 20 hydrophobe
3 6 7 21 cation
3 6 8 16 cation
6 6 7 13 16 17 21 rings

>  <PUBCHEM_HEAVY_ATOM_COUNT>  (1) 
23

>  <PUBCHEM_ATOM_DEF_STEREO_COUNT>  (1) 
0

>  <PUBCHEM_ATOM_UDEF_STEREO_COUNT>  (1) 
0

>  <PUBCHEM_BOND_DEF_STEREO_COUNT>  (1) 
0

>  <PUBCHEM_BOND_UDEF_STEREO_COUNT>  (1) 
1

>  <PUBCHEM_ISOTOPIC_ATOM_COUNT>  (1) 
0

>  <PUBCHEM_COMPONENT_COUNT>  (1) 
1

>  <PUBCHEM_CACTVS_TAUTO_COUNT>  (1) 
3

>  <PUBCHEM_CONFORMER_ID>  (1) 
0000136300000003

>  <PUBCHEM_MMFF94_ENERGY>  (1) 
63.5635

>  <PUBCHEM_FEATURE_SELFOVERLAP>  (1) 
50.889

>  <PUBCHEM_SHAPE_FINGERPRINT>  (1) 
10062212 137 18270394027255632799
11140007 195 18272086114766435088
12011746 2 18343871008551651462
12166972 35 18338800134766870321
12422481 6 18338230467231156599
12633257 1 16630255812839944530
12788726 201 17917163778590441424
1601671 61 18409726270698422159
16752209 62 18342452651531466633
17349148 13 18340774818837167449
17818456 19 18411985788906312161
19784866 9 18343303687059851675
20691752 17 17971214546146034914
23559900 14 17702949274009409920
23622692 88 14476960112432325056
34934 24 18117556451737784156
465052 167 18260271858321347075
59755656 215 18060143089824498471
6913067 236 14045747010942824385

>  <PUBCHEM_SHAPE_MULTIPOLES>  (1) 
449.37
11.32
2.59
1.68
11.56
0.73
-0.17
2.05
1.94
-0.45
-1.08
-0.53
-0.53
-0.59

>  <PUBCHEM_SHAPE_SELFOVERLAP>  (1) 
874.747

>  <PUBCHEM_SHAPE_VOLUME>  (1) 
274.6

>  <PUBCHEM_COORDINATE_TYPE>  (1) 
2
5
10

$$$$
