49635
     RDKit          3D

 25 28  0  0  1  0  0  0  0  0999 V2000
    0.9317    0.3534    0.7200 O   0  0  0  0  0  0  0  0  0  0  0  0
   -0.6580   -0.6560    2.0583 O   0  0  0  0  0  0  0  0  0  0  0  0
    5.0476    0.8172   -0.3045 N   0  0  0  0  0  0  0  0  0  0  0  0
    3.7779    0.2167    0.1658 C   0  0  0  0  0  0  0  0  0  0  0  0
    4.0067   -1.2436    0.6056 C   0  0  0  0  0  0  0  0  0  0  0  0
    4.6349   -2.0795   -0.5018 C   0  0  0  0  0  0  0  0  0  0  0  0
    5.6243    0.0400   -1.4158 C   0  0  0  0  0  0  0  0  0  0  0  0
    5.8991   -1.4071   -1.0136 C   0  0  0  0  0  0  0  0  0  0  0  0
    3.1636    0.9808    1.3474 C   0  0  0  0  0  0  0  0  0  0  0  0
    1.8583    0.3524    1.8107 C   0  0  0  0  0  0  0  0  0  0  0  0
    4.8872    2.2119   -0.7259 C   0  0  0  0  0  0  0  0  0  0  0  0
   -1.1490   -0.1152   -0.2319 C   0  0  0  0  0  0  0  0  0  0  0  0
   -2.0005    1.1419   -0.2711 C   0  0  0  0  0  0  0  0  0  0  0  0
   -2.2061   -1.2051   -0.2592 C   0  0  0  0  0  0  0  0  0  0  0  0
   -3.3729    0.8058   -0.3104 C   0  0  0  0  0  0  0  0  0  0  0  0
   -3.4992   -0.6360   -0.3033 C   0  0  0  0  0  0  0  0  0  0  0  0
   -0.2918   -0.1841    0.9904 C   0  0  0  0  0  0  0  0  0  0  0  0
   -1.5824    2.4625   -0.2576 C   0  0  0  0  0  0  0  0  0  0  0  0
   -2.0239   -2.5780   -0.2321 C   0  0  0  0  0  0  0  0  0  0  0  0
   -4.3402    1.7967   -0.3451 C   0  0  0  0  0  0  0  0  0  0  0  0
   -4.6239   -1.4441   -0.3297 C   0  0  0  0  0  0  0  0  0  0  0  0
   -2.5578    3.4607   -0.2925 C   0  0  0  0  0  0  0  0  0  0  0  0
   -3.1578   -3.3916   -0.2589 C   0  0  0  0  0  0  0  0  0  0  0  0
   -3.9230    3.1310   -0.3366 C   0  0  0  0  0  0  0  0  0  0  0  0
   -4.4449   -2.8304   -0.3082 C   0  0  0  0  0  0  0  0  0  0  0  0
  1 10  1  0
  1 17  1  0
  2 17  2  0
  3  4  1  0
  3  7  1  0
  3 11  1  0
  4  5  1  0
  4  9  1  0
  5  6  1  0
  6  8  1  0
  7  8  1  0
  9 10  1  0
 12 13  1  0
 12 14  1  0
 12 17  1  0
 13 15  1  0
 13 18  2  0
 14 16  2  0
 14 19  1  0
 15 16  1  0
 15 20  2  0
 16 21  1  0
 18 22  1  0
 19 23  2  0
 20 24  1  0
 21 25  2  0
 22 24  2  0
 23 25  1  0
M  END
>  <PUBCHEM_COMPOUND_CID>  (1) 
49635

>  <PUBCHEM_CONFORMER_RMSD>  (1) 
0.8

>  <PUBCHEM_CONFORMER_DIVERSEORDER>  (1) 
12
376
66
21
19
358
102
184
226
359
344
324
167
100
308
377
153
96
190
42
362
60
336
319
2
49
132
257
138
243
223
215
110
222
291
111
92
272
191
217
270
240
343
1
348
22
186
256
212
179
287
80
279
152
371
274
192
54
227
195
44
216
253
278
332
254
146
228
312
370
387
255
288
65
157
10
233
211
352
237
199
122
334
374
310
381
69
162
315
188
3
135
168
171
116
303
144
124
210
156
392
225
125
220
33
38
17
350
145
178
155
347
311
264
134
141
187
27
320
342
53
149
89
263
260
355
345
105
6
173
57
34
5
29
386
316
309
103
91
196
236
375
18
214
364
193
158
58
201
25
74
338
13
8
26
170
35
14
372
346
337
142
251
55
4
356
382
120
267
118
94
23
314
271
172
298
70
20
64
24
218
361
45
43
330
16
296
46
140
128
307
154
197
285
180
165
11
384
203
273
98
41
84
67
106
252
73
169
333
90
87
246
393
31
75
293
302
52
81
242
148
126
244
164
62
277
213
160
369
93
68
363
295
208
200
109
108
7
368
159
265
294
351
113
72
32
385
56
394
259
231
107
219
327
36
306
59
139
117
115
301
299
136
268
286
40
321
99
247
229
198
71
250
202
95
282
79
317
166
207
28
63
104
9
230
331
281
249
283
353
276
373
47
101
232
328
177
15
339
380
357
183
85
289
61
389
367
269
51
48
209
77
131
275
266
174
354
391
239
39
329
366
121
378
390
137
76
290
133
235
326
221
97
349
323
224
37
86
205
313
176
325
206
262
261
127
181
280
161
88
123
204
234
129
322
379
365
119
300
335
182
30
360
78
258
151
292
143
147
50
388
150
305
248
163
304
130
175
189
112
383
241
341
340
83
297
245
114
194
284
318
185
238
82

>  <PUBCHEM_MMFF94_PARTIAL_CHARGES>  (1) 
27
1 -0.43
10 0.28
11 0.27
12 0.35
13 -0.14
14 -0.14
17 0.66
18 -0.15
19 -0.15
2 -0.57
20 -0.15
21 -0.15
22 -0.15
23 -0.15
24 -0.15
25 -0.15
3 -0.81
4 0.27
43 0.15
44 0.15
45 0.15
46 0.15
47 0.15
48 0.15
49 0.15
50 0.15
7 0.27

>  <PUBCHEM_EFFECTIVE_ROTOR_COUNT>  (1) 
6.4

>  <PUBCHEM_PHARMACOPHORE_FEATURES>  (1) 
6
1 2 acceptor
1 3 cation
5 12 13 14 15 16 rings
6 13 15 18 20 22 24 rings
6 14 16 19 21 23 25 rings
6 3 4 5 6 7 8 rings

>  <PUBCHEM_HEAVY_ATOM_COUNT>  (1) 
25

>  <PUBCHEM_ATOM_DEF_STEREO_COUNT>  (1) 
0

>  <PUBCHEM_ATOM_UDEF_STEREO_COUNT>  (1) 
1

>  <PUBCHEM_BOND_DEF_STEREO_COUNT>  (1) 
0

>  <PUBCHEM_BOND_UDEF_STEREO_COUNT>  (1) 
0

>  <PUBCHEM_ISOTOPIC_ATOM_COUNT>  (1) 
0

>  <PUBCHEM_COMPONENT_COUNT>  (1) 
1

>  <PUBCHEM_CACTVS_TAUTO_COUNT>  (1) 
1

>  <PUBCHEM_CONFORMER_ID>  (1) 
0000C1E30000000C

>  <PUBCHEM_MMFF94_ENERGY>  (1) 
62.3535

>  <PUBCHEM_FEATURE_SELFOVERLAP>  (1) 
30.61

>  <PUBCHEM_SHAPE_FINGERPRINT>  (1) 
10165383 225 18127979607722097641
10595046 47 18334576876028326126
107951 10 18268709420596269303
11056379 131 18410011044283823709
11796584 16 18271246007133419766
12107183 9 17902503797210796610
12390115 104 18200031717092251553
12788726 201 18261102036787092291
13583140 156 17845922018264780268
13617811 41 18263914613532894319
13690498 29 18342741857507852270
13761468 95 17534621508734980116
13782708 43 17417521532018006623
13944108 23 16749018096784004444
14251757 5 18412827966845641113
14347332 77 18410851079293519198
14790565 3 17979637836471641497
14910302 57 18272079530808592626
14955137 171 18190749833309375635
15042514 8 18409730690747251331
15183329 4 18338518526329480372
15230672 131 18121783820807938814
15250474 111 18261943064562064826
15575132 122 17678455269131844189
15842332 3 17678434425169435122
16994733 274 14563348711447419703
17844677 252 18410017649938432156
17909252 39 18196374951275365784
20693207 138 18060133280118902338
21033650 10 18261398823760043504
21065201 7 18341601621031220026
22393880 68 18412826868114845382
2297311 6 18338237175849091311
23175994 123 16988559134782366521
23557571 272 18342742939686214069
23559900 14 18271518724402483216
255183 451 17763462121211822855
3004659 81 18412262814481539994
312425 83 18336553742105884268
3298306 158 17988074479032231670
3610482 184 17895779321613179228
3729539 64 17695633952414110294
4058900 60 17764874594184613873
4098825 35 18410578388342398504
44062 13 18343581807182048022
46194498 28 18199468934494607996
497634 4 18059589025799664633
508706 21 18342457002164831703
59755656 520 18129670682253932801
633830 44 17313387786319868448
7399639 24 17840568612102999384

>  <PUBCHEM_SHAPE_MULTIPOLES>  (1) 
497.77
13.35
3.83
1.22
17.01
0.33
0.49
-1.9
-4.69
-5.22
-0.85
1.24
0.02
0.35

>  <PUBCHEM_SHAPE_SELFOVERLAP>  (1) 
1078.57

>  <PUBCHEM_SHAPE_VOLUME>  (1) 
274

>  <PUBCHEM_COORDINATE_TYPE>  (1) 
2
5
10

$$$$
