49647
     RDKit          3D

 13 13  0  0  0  0  0  0  0  0999 V2000
    4.3026    2.0336   -0.0294 Cl  0  0  0  0  0  0  0  0  0  0  0  0
    0.9529   -4.0033   -0.0702 Cl  0  0  0  0  0  0  0  0  0  0  0  0
   -1.8384    0.7555    0.9907 O   0  0  0  0  0  0  0  0  0  0  0  0
    0.8173    0.0188    0.0991 N   0  0  0  0  0  0  0  0  0  0  0  0
   -0.0391    0.9867   -0.5851 C   0  0  0  0  0  0  0  0  0  0  0  0
    2.2259    0.2951   -0.1805 C   0  0  0  0  0  0  0  0  0  0  0  0
    0.4736   -1.3438   -0.3058 C   0  0  0  0  0  0  0  0  0  0  0  0
   -1.4924    0.7153   -0.3070 C   0  0  0  0  0  0  0  0  0  0  0  0
    2.5942    1.6817    0.3245 C   0  0  0  0  0  0  0  0  0  0  0  0
    1.3519   -2.3428    0.4315 C   0  0  0  0  0  0  0  0  0  0  0  0
   -2.5332    0.4343   -1.1225 C   0  0  0  0  0  0  0  0  0  0  0  0
   -3.6449    0.2818   -0.2599 C   0  0  0  0  0  0  0  0  0  0  0  0
   -3.1703    0.4869    1.0147 C   0  0  0  0  0  0  0  0  0  0  0  0
  1  9  1  0
  2 10  1  0
  3  8  1  0
  3 13  1  0
  4  5  1  0
  4  6  1  0
  4  7  1  0
  5  8  1  0
  6  9  1  0
  7 10  1  0
  8 11  2  0
 11 12  1  0
 12 13  2  0
M  END
>  <PUBCHEM_COMPOUND_CID>  (1) 
49647

>  <PUBCHEM_CONFORMER_RMSD>  (1) 
0.6

>  <PUBCHEM_CONFORMER_DIVERSEORDER>  (1) 
1
27
25
37
61
28
24
12
32
8
59
31
15
47
29
18
36
33
14
38
41
6
35
19
57
26
42
21
56
7
40
5
34
30
20
49
2
54
17
45
44
51
52
22
16
43
9
48
50
10
39
46
23
60
11
55
13
3
4
53
58

>  <PUBCHEM_MMFF94_PARTIAL_CHARGES>  (1) 
16
1 -0.29
10 0.29
11 -0.15
12 -0.15
13 -0.01
2 -0.29
24 0.15
25 0.15
26 0.15
3 -0.28
4 -0.81
5 0.45
6 0.27
7 0.27
8 -0.04
9 0.29

>  <PUBCHEM_EFFECTIVE_ROTOR_COUNT>  (1) 
6

>  <PUBCHEM_PHARMACOPHORE_FEATURES>  (1) 
3
1 3 acceptor
1 4 cation
5 3 8 11 12 13 rings

>  <PUBCHEM_HEAVY_ATOM_COUNT>  (1) 
13

>  <PUBCHEM_ATOM_DEF_STEREO_COUNT>  (1) 
0

>  <PUBCHEM_ATOM_UDEF_STEREO_COUNT>  (1) 
0

>  <PUBCHEM_BOND_DEF_STEREO_COUNT>  (1) 
0

>  <PUBCHEM_BOND_UDEF_STEREO_COUNT>  (1) 
0

>  <PUBCHEM_ISOTOPIC_ATOM_COUNT>  (1) 
0

>  <PUBCHEM_COMPONENT_COUNT>  (1) 
1

>  <PUBCHEM_CACTVS_TAUTO_COUNT>  (1) 
1

>  <PUBCHEM_CONFORMER_ID>  (1) 
0000C1EF00000001

>  <PUBCHEM_MMFF94_ENERGY>  (1) 
17.2036

>  <PUBCHEM_FEATURE_SELFOVERLAP>  (1) 
15.223

>  <PUBCHEM_SHAPE_FINGERPRINT>  (1) 
107287 299 18187376397541364758
12119455 92 18114732828541928708
12532896 13 18340487897578389310
136203 1 17762053642077939026
14648413 74 17975122145993952316
15207287 21 17604146038435395817
15279307 12 18201712964295574423
15309172 13 18335984267612161748
15502708 68 18408881828451231920
15775835 57 18271806856035469476
17841504 4 18049443638889582139
18186145 218 18343306985257449868
18380122 1 17967533450046429093
201361 129 18200043836598118496
204376 136 18336547230518965772
20645477 56 18191583258733544060
20645477 70 18262789650192523343
21061003 4 17831588569783980627
21499 59 18410288155236404956
21524375 3 18272929470693016964
2255824 54 18269557152429581814
23530152 11 18410012182276512590
23557571 272 16950850193880955941
23598291 2 17988641827036964333
2748010 2 18262819465380913606
3250762 1 17828754050235126684
458136 41 18337968830254783346
474229 33 18192150610342271219
633830 44 18201731647361243812
7364860 26 18339078160199156798
81228 2 17543060634129362570
81539 233 18333446538992998828

>  <PUBCHEM_SHAPE_MULTIPOLES>  (1) 
260.42
6.13
3.34
0.92
0.58
5.53
-0.03
-5.07
-0.35
3.34
-0.08
-0.59
-0.14
-0.05

>  <PUBCHEM_SHAPE_SELFOVERLAP>  (1) 
499.261

>  <PUBCHEM_SHAPE_VOLUME>  (1) 
163.5

>  <PUBCHEM_COORDINATE_TYPE>  (1) 
2
5
10

$$$$
