49645
     RDKit          3D

 25 28  0  0  0  0  0  0  0  0999 V2000
   -0.4458   -0.4093    0.0137 O   0  0  0  0  0  0  0  0  0  0  0  0
    1.0580   -1.1636   -1.5694 O   0  0  0  0  0  0  0  0  0  0  0  0
   -7.7310    0.4012    0.8521 N   0  0  0  0  0  0  0  0  0  0  0  0
    1.8283   -0.2849    0.5315 C   0  0  0  0  0  0  0  0  0  0  0  0
    3.1057   -1.0957    0.3989 C   0  0  0  0  0  0  0  0  0  0  0  0
    2.3370    1.1299    0.3176 C   0  0  0  0  0  0  0  0  0  0  0  0
    4.2053   -0.2443    0.1460 C   0  0  0  0  0  0  0  0  0  0  0  0
    3.7330    1.1230    0.0959 C   0  0  0  0  0  0  0  0  0  0  0  0
    0.7977   -0.6777   -0.4770 C   0  0  0  0  0  0  0  0  0  0  0  0
    3.2672   -2.4671    0.5098 C   0  0  0  0  0  0  0  0  0  0  0  0
    1.6163    2.3126    0.3353 C   0  0  0  0  0  0  0  0  0  0  0  0
    5.4795   -0.7655   -0.0065 C   0  0  0  0  0  0  0  0  0  0  0  0
    4.4180    2.3075   -0.1197 C   0  0  0  0  0  0  0  0  0  0  0  0
    4.5518   -2.9917    0.3558 C   0  0  0  0  0  0  0  0  0  0  0  0
    2.3072    3.5059    0.1177 C   0  0  0  0  0  0  0  0  0  0  0  0
    5.6468   -2.1494    0.0996 C   0  0  0  0  0  0  0  0  0  0  0  0
    3.6939    3.5033   -0.1084 C   0  0  0  0  0  0  0  0  0  0  0  0
   -1.5341   -0.7384   -0.8554 C   0  0  0  0  0  0  0  0  0  0  0  0
   -2.8421   -0.3801   -0.1640 C   0  0  0  0  0  0  0  0  0  0  0  0
   -4.0499   -0.7215   -1.0349 C   0  0  0  0  0  0  0  0  0  0  0  0
   -5.3446   -0.3268   -0.3720 C   0  0  0  0  0  0  0  0  0  0  0  0
   -5.9957   -1.2320    0.4453 C   0  0  0  0  0  0  0  0  0  0  0  0
   -5.8645    0.9357   -0.5885 C   0  0  0  0  0  0  0  0  0  0  0  0
   -7.1816   -0.8209    1.0321 C   0  0  0  0  0  0  0  0  0  0  0  0
   -7.0565    1.2498    0.0444 C   0  0  0  0  0  0  0  0  0  0  0  0
  1  9  1  0
  1 18  1  0
  2  9  2  0
  3 24  2  0
  3 25  1  0
  4  5  1  0
  4  6  1  0
  4  9  1  0
  5  7  1  0
  5 10  2  0
  6  8  2  0
  6 11  1  0
  7  8  1  0
  7 12  2  0
  8 13  1  0
 10 14  1  0
 11 15  2  0
 12 16  1  0
 13 17  2  0
 14 16  2  0
 15 17  1  0
 18 19  1  0
 19 20  1  0
 20 21  1  0
 21 22  2  0
 21 23  1  0
 22 24  1  0
 23 25  2  0
M  END
>  <PUBCHEM_COMPOUND_CID>  (1) 
49645

>  <PUBCHEM_CONFORMER_RMSD>  (1) 
0.8

>  <PUBCHEM_CONFORMER_DIVERSEORDER>  (1) 
1
116
186
21
177
131
138
73
149
95
53
2
60
5
66
121
20
39
88
62
99
118
8
183
178
135
160
108
14
139
58
158
105
31
19
29
161
67
32
91
193
122
46
80
51
117
146
75
16
85
50
93
36
136
10
55
192
27
11
23
187
107
100
130
13
71
78
63
52
104
111
148
164
65
28
3
43
48
97
173
115
145
132
129
190
6
17
90
143
81
189
163
162
34
84
188
68
113
172
165
12
141
98
174
18
77
157
74
152
185
144
169
37
56
41
24
25
72
59
127
170
184
4
101
7
30
142
94
140
194
54
89
38
110
64
87
175
61
119
45
147
109
124
33
76
70
86
9
49
57
179
44
42
120
167
26
150
181
79
125
180
166
126
134
112
171
176
191
40
123
69
159
83
133
96
128
106
153
82
15
47
151
22
35
182
137
168
102
154
156
92
103
155
114

>  <PUBCHEM_MMFF94_PARTIAL_CHARGES>  (1) 
34
1 -0.43
10 -0.15
11 -0.15
12 -0.15
13 -0.15
14 -0.15
15 -0.15
16 -0.15
17 -0.15
18 0.28
2 -0.57
20 0.14
21 -0.14
22 -0.15
23 -0.15
24 0.16
25 0.16
27 0.15
28 0.15
29 0.15
3 -0.62
30 0.15
31 0.15
32 0.15
35 0.15
36 0.15
4 0.35
41 0.15
42 0.15
43 0.15
44 0.15
5 -0.14
6 -0.14
9 0.66

>  <PUBCHEM_EFFECTIVE_ROTOR_COUNT>  (1) 
6.2

>  <PUBCHEM_PHARMACOPHORE_FEATURES>  (1) 
6
1 2 acceptor
1 3 acceptor
5 4 5 6 7 8 rings
6 3 21 22 23 24 25 rings
6 5 7 10 12 14 16 rings
6 6 8 11 13 15 17 rings

>  <PUBCHEM_HEAVY_ATOM_COUNT>  (1) 
25

>  <PUBCHEM_ATOM_DEF_STEREO_COUNT>  (1) 
0

>  <PUBCHEM_ATOM_UDEF_STEREO_COUNT>  (1) 
0

>  <PUBCHEM_BOND_DEF_STEREO_COUNT>  (1) 
0

>  <PUBCHEM_BOND_UDEF_STEREO_COUNT>  (1) 
0

>  <PUBCHEM_ISOTOPIC_ATOM_COUNT>  (1) 
0

>  <PUBCHEM_COMPONENT_COUNT>  (1) 
1

>  <PUBCHEM_CACTVS_TAUTO_COUNT>  (1) 
1

>  <PUBCHEM_CONFORMER_ID>  (1) 
0000C1ED00000001

>  <PUBCHEM_MMFF94_ENERGY>  (1) 
72.1072

>  <PUBCHEM_FEATURE_SELFOVERLAP>  (1) 
30.611

>  <PUBCHEM_SHAPE_FINGERPRINT>  (1) 
10162869 55 18271228505046658991
10165383 225 17968664938576025940
10411042 1 18194118513667283250
10554248 39 17989199327151530965
10595046 47 18198053880177718983
10675989 125 18197216056618368632
12107183 9 18343297033670642319
12166972 35 18259990361986156373
12403259 415 17821999905272122343
12596602 18 18335422387854352643
12616971 3 18130781279002103279
12730499 353 18260831548489412778
12778500 126 18411140216549811005
13167372 99 18272654524309384337
13533116 47 18408887347246830457
13782708 43 17531236219485466755
13785724 45 18055640516689595918
13878862 14 18266152042407268949
13955234 65 18336819879606714034
14170010 4 18411133645808763896
14341114 176 18408322198681714277
14849402 71 18335987548735216884
14918310 93 17273987831232989414
14933364 13 18334577941211876873
15081414 286 18187639258135882501
15183329 4 17846784022723115973
15348495 7 18334016125177710515
15419008 47 17894625916678264285
15439362 3 18122345950892059604
15475509 35 16733808823493380138
15483637 11 18120937466794127178
1577012 14 17988359364713582829
17844677 252 18410014325844611581
19301679 30 18050561838717486274
19302320 297 18270132193507732873
21033648 29 17386268966154276021
21049683 271 18187651293514460316
21267235 1 18340487760551236566
21315759 148 17895198848425370243
21315763 28 18412543211531917271
22033318 11 17985284992647453937
22122407 14 18271255984268576441
221357 26 18334289829946457948
22956985 138 14058934475443085265
2303208 19 17531242847141925327
23081809 10 17917423259772462335
23522609 53 17916043402797583473
23559900 14 18410004446866319883
24771293 8 18057019481054562736
3178227 256 18335699429998026314
397830 11 18042131011166899827
4073 2 18114466785483024379
4093350 32 17560804351273632060
4144715 1 18260274066509290377
46194498 28 17676486151338214348
465052 167 18341049627782665302
5104073 3 18189325939200730931
70251023 43 18194685861625134810
8272917 22 18411416250303987550
9658208 31 17240770617825154931

>  <PUBCHEM_SHAPE_MULTIPOLES>  (1) 
497.77
19.56
3.37
0.9
42.4
2.23
0.11
-2.55
-3.36
-7.04
-0.27
0.7
-0.19
-0.09

>  <PUBCHEM_SHAPE_SELFOVERLAP>  (1) 
1097.416

>  <PUBCHEM_SHAPE_VOLUME>  (1) 
267.7

>  <PUBCHEM_COORDINATE_TYPE>  (1) 
2
5
10

$$$$
