49643
     RDKit          3D

 25 28  0  0  0  0  0  0  0  0999 V2000
   -0.4603    0.3667    0.0033 O   0  0  0  0  0  0  0  0  0  0  0  0
    1.0364    1.1416   -1.5766 O   0  0  0  0  0  0  0  0  0  0  0  0
   -5.9178    1.2604    0.3424 N   0  0  0  0  0  0  0  0  0  0  0  0
    1.8139    0.2773    0.5276 C   0  0  0  0  0  0  0  0  0  0  0  0
    2.3440   -1.1305    0.3178 C   0  0  0  0  0  0  0  0  0  0  0  0
    3.0795    1.1064    0.3967 C   0  0  0  0  0  0  0  0  0  0  0  0
    3.7403   -1.1034    0.1001 C   0  0  0  0  0  0  0  0  0  0  0  0
    4.1921    0.2707    0.1484 C   0  0  0  0  0  0  0  0  0  0  0  0
    0.7803    0.6529   -0.4844 C   0  0  0  0  0  0  0  0  0  0  0  0
    1.6408   -2.3239    0.3360 C   0  0  0  0  0  0  0  0  0  0  0  0
    3.2204    2.4801    0.5054 C   0  0  0  0  0  0  0  0  0  0  0  0
    4.4435   -2.2782   -0.1105 C   0  0  0  0  0  0  0  0  0  0  0  0
    5.4588    0.8105   -0.0025 C   0  0  0  0  0  0  0  0  0  0  0  0
    2.3500   -3.5074    0.1236 C   0  0  0  0  0  0  0  0  0  0  0  0
    4.4972    3.0233    0.3529 C   0  0  0  0  0  0  0  0  0  0  0  0
    3.7373   -3.4847   -0.0982 C   0  0  0  0  0  0  0  0  0  0  0  0
    5.6051    2.1971    0.1005 C   0  0  0  0  0  0  0  0  0  0  0  0
   -1.5511    0.6790   -0.8690 C   0  0  0  0  0  0  0  0  0  0  0  0
   -2.8555    0.3020   -0.1807 C   0  0  0  0  0  0  0  0  0  0  0  0
   -4.0641    0.5964   -1.0674 C   0  0  0  0  0  0  0  0  0  0  0  0
   -5.3597    0.2661   -0.3716 C   0  0  0  0  0  0  0  0  0  0  0  0
   -5.8806   -1.0033   -0.5058 C   0  0  0  0  0  0  0  0  0  0  0  0
   -7.0768   -1.2758    0.1484 C   0  0  0  0  0  0  0  0  0  0  0  0
   -7.0796    0.9583    0.9642 C   0  0  0  0  0  0  0  0  0  0  0  0
   -7.6941   -0.2817    0.8995 C   0  0  0  0  0  0  0  0  0  0  0  0
  1  9  1  0
  1 18  1  0
  2  9  2  0
  3 21  2  0
  3 24  1  0
  4  5  1  0
  4  6  1  0
  4  9  1  0
  5  7  1  0
  5 10  2  0
  6  8  2  0
  6 11  1  0
  7  8  1  0
  7 12  2  0
  8 13  1  0
 10 14  1  0
 11 15  2  0
 12 16  1  0
 13 17  2  0
 14 16  2  0
 15 17  1  0
 18 19  1  0
 19 20  1  0
 20 21  1  0
 21 22  1  0
 22 23  2  0
 23 25  1  0
 24 25  2  0
M  END
>  <PUBCHEM_COMPOUND_CID>  (1) 
49643

>  <PUBCHEM_CONFORMER_RMSD>  (1) 
0.8

>  <PUBCHEM_CONFORMER_DIVERSEORDER>  (1) 
2
330
244
279
140
108
381
378
371
1
390
180
340
370
15
172
233
253
322
399
120
391
79
23
290
42
302
307
77
224
62
48
153
16
247
69
255
109
432
220
17
41
261
168
177
111
122
179
358
64
11
366
195
431
404
363
345
395
194
355
78
169
403
130
241
63
55
317
76
94
141
160
121
82
106
87
243
286
309
89
212
10
98
3
234
112
155
143
218
157
73
314
149
26
350
252
53
425
188
161
25
259
236
6
49
131
101
90
217
37
419
137
387
113
54
273
319
56
264
197
35
206
39
154
321
351
299
376
65
52
267
95
14
281
392
68
280
291
199
396
66
331
22
165
103
422
38
284
268
30
393
205
398
146
416
417
352
12
105
428
107
228
338
300
295
186
159
214
4
104
315
164
423
5
298
365
373
320
296
33
374
176
175
91
368
274
346
19
287
328
410
266
258
406
51
249
156
34
388
360
126
357
135
147
318
407
86
269
324
129
60
383
278
221
289
434
292
187
31
57
110
414
43
144
170
162
232
18
409
171
132
133
372
389
102
150
235
238
382
127
415
245
136
257
359
191
356
151
400
248
265
71
327
61
379
421
185
260
85
58
124
29
283
364
21
310
222
408
118
116
166
343
297
246
8
367
27
80
148
385
339
329
83
184
231
240
139
142
123
178
348
325
369
50
13
152
190
114
174
336
117
167
225
59
312
420
334
45
198
96
342
213
203
412
311
196
426
7
282
242
347
173
433
333
270
229
380
201
88
97
183
323
402
208
394
361
138
305
326
341
145
70
20
119
375
230
158
288
81
72
306
219
401
189
429
254
215
405
337
216
362
200
263
40
223
277
237
192
134
46
316
293
353
99
301
335
100
210
386
294
227
44
47
349
303
226
84
285
211
67
182
424
344
207
125
313
9
332
93
430
202
24
181
193
413
418
239
209
36
204
411
28
74
256
275
128
304
377
92
397
75
354
163
427
32
115
276
384
262
251
271
308
272
250

>  <PUBCHEM_MMFF94_PARTIAL_CHARGES>  (1) 
34
1 -0.43
10 -0.15
11 -0.15
12 -0.15
13 -0.15
14 -0.15
15 -0.15
16 -0.15
17 -0.15
18 0.28
2 -0.57
20 0.14
21 0.17
22 -0.15
23 -0.15
24 0.16
25 -0.15
27 0.15
28 0.15
29 0.15
3 -0.62
30 0.15
31 0.15
32 0.15
33 0.15
34 0.15
4 0.35
41 0.15
42 0.15
43 0.15
44 0.15
5 -0.14
6 -0.14
9 0.66

>  <PUBCHEM_EFFECTIVE_ROTOR_COUNT>  (1) 
6.2

>  <PUBCHEM_PHARMACOPHORE_FEATURES>  (1) 
6
1 2 acceptor
1 3 acceptor
5 4 5 6 7 8 rings
6 3 21 22 23 24 25 rings
6 5 7 10 12 14 16 rings
6 6 8 11 13 15 17 rings

>  <PUBCHEM_HEAVY_ATOM_COUNT>  (1) 
25

>  <PUBCHEM_ATOM_DEF_STEREO_COUNT>  (1) 
0

>  <PUBCHEM_ATOM_UDEF_STEREO_COUNT>  (1) 
0

>  <PUBCHEM_BOND_DEF_STEREO_COUNT>  (1) 
0

>  <PUBCHEM_BOND_UDEF_STEREO_COUNT>  (1) 
0

>  <PUBCHEM_ISOTOPIC_ATOM_COUNT>  (1) 
0

>  <PUBCHEM_COMPONENT_COUNT>  (1) 
1

>  <PUBCHEM_CACTVS_TAUTO_COUNT>  (1) 
2

>  <PUBCHEM_CONFORMER_ID>  (1) 
0000C1EB00000002

>  <PUBCHEM_MMFF94_ENERGY>  (1) 
71.0485

>  <PUBCHEM_FEATURE_SELFOVERLAP>  (1) 
30.611

>  <PUBCHEM_SHAPE_FINGERPRINT>  (1) 
10165383 225 18335142046913083964
10411042 1 18051412860827959554
10595046 47 18343018900631739921
10693767 8 18059298652795773662
10835480 77 18335411345325110157
12107183 9 17766846022479452345
12236239 1 18131632283795758429
12596602 18 18272373075244525649
12616971 3 17774710996635163245
12623949 98 18340210678603267046
12730499 353 18408321099249097256
12788726 201 17131840841662866993
13073987 5 18412548700379010297
13533116 47 18341613698479223611
13782708 43 17604705539161449867
13785724 45 17626112944728859982
13955234 65 18411972551600477666
14341114 176 18410294679808581765
14461889 52 18262234537942403571
146900 427 18272085023997924193
14849402 71 18265899253449211877
14933364 13 18413390951771035681
15183329 4 17275385404948177601
15250474 111 18058993078124666263
15475509 35 16806152260532125714
15799311 1 18339092553098886831
16990366 60 18046623409272805418
16992610 120 18118133683391765868
16994733 274 15480958337988101904
17492 89 18267581304032231080
17844677 252 18339645534354112325
19427546 62 18264770038042829248
1979834 28 18187644738840946204
21049683 271 18261960635979381718
21130935 74 18410298004445974747
21197605 99 18336547234772345771
21521721 280 18340767164905298416
21623969 137 18260548931146411875
21792964 463 18266767755908165425
22033318 11 17630066874958302945
220451 1 18060416941513463399
22149856 69 18261689107988874329
22224240 67 18334852874668864560
2303208 19 17967814904043863607
23081809 10 17704064097870472221
23516275 137 17773903972276230463
23522609 53 17846234279910441457
239999 70 18271808991093236302
255183 451 18057894537459984510
3178227 256 18409725167382457208
335352 9 18410576211226340452
3663271 9 18272092699932417091
4073 2 18262522606158390235
4093350 32 17418095408410186550
4340502 62 18410569617697225436
465052 167 18272088232423260974
5104073 3 18261947432633170377
54076057 127 18272377485617178350
5758199 1 18341048631181297912
8272917 22 18342173358830646028

>  <PUBCHEM_SHAPE_MULTIPOLES>  (1) 
497.77
19.68
3.37
0.91
43.31
2.17
-0.12
-2.65
3.58
-7.14
0.3
0.7
-0.19
0.14

>  <PUBCHEM_SHAPE_SELFOVERLAP>  (1) 
1096.853

>  <PUBCHEM_SHAPE_VOLUME>  (1) 
268.4

>  <PUBCHEM_COORDINATE_TYPE>  (1) 
2
5
10

$$$$
