49641
     RDKit          3D

 24 27  0  0  0  0  0  0  0  0999 V2000
    0.9995    1.5023   -0.0584 O   0  0  0  0  0  0  0  0  0  0  0  0
   -0.6864    1.7992    1.4929 O   0  0  0  0  0  0  0  0  0  0  0  0
    5.0895   -1.4737   -0.4157 N   0  0  0  0  0  0  0  0  0  0  0  0
   -1.0727    0.5224   -0.5070 C   0  0  0  0  0  0  0  0  0  0  0  0
   -1.0370   -0.9567   -0.1635 C   0  0  0  0  0  0  0  0  0  0  0  0
   -2.5574    0.8261   -0.4102 C   0  0  0  0  0  0  0  0  0  0  0  0
   -2.3427   -1.4344    0.0917 C   0  0  0  0  0  0  0  0  0  0  0  0
   -3.2766   -0.3392   -0.0597 C   0  0  0  0  0  0  0  0  0  0  0  0
   -0.2603    1.3461    0.4391 C   0  0  0  0  0  0  0  0  0  0  0  0
    0.0625   -1.7969   -0.1008 C   0  0  0  0  0  0  0  0  0  0  0  0
   -3.2027    2.0318   -0.6306 C   0  0  0  0  0  0  0  0  0  0  0  0
   -2.5548   -2.7629    0.4214 C   0  0  0  0  0  0  0  0  0  0  0  0
   -4.6541   -0.3010    0.0817 C   0  0  0  0  0  0  0  0  0  0  0  0
   -0.1520   -3.1357    0.2316 C   0  0  0  0  0  0  0  0  0  0  0  0
   -4.5908    2.0695   -0.4877 C   0  0  0  0  0  0  0  0  0  0  0  0
   -1.4476   -3.6137    0.4909 C   0  0  0  0  0  0  0  0  0  0  0  0
   -5.3091    0.9150   -0.1341 C   0  0  0  0  0  0  0  0  0  0  0  0
    1.8892    2.2764    0.7523 C   0  0  0  0  0  0  0  0  0  0  0  0
    3.2535    2.3680    0.0776 C   0  0  0  0  0  0  0  0  0  0  0  0
    3.8998    1.0150   -0.0959 C   0  0  0  0  0  0  0  0  0  0  0  0
    4.7160    0.5186    0.9019 C   0  0  0  0  0  0  0  0  0  0  0  0
    3.6662    0.2934   -1.2503 C   0  0  0  0  0  0  0  0  0  0  0  0
    5.2856   -0.7273    0.6944 C   0  0  0  0  0  0  0  0  0  0  0  0
    4.2827   -0.9424   -1.3616 C   0  0  0  0  0  0  0  0  0  0  0  0
  1  9  1  0
  1 18  1  0
  2  9  2  0
  3 23  2  0
  3 24  1  0
  4  5  1  0
  4  6  1  0
  4  9  1  0
  5  7  1  0
  5 10  2  0
  6  8  2  0
  6 11  1  0
  7  8  1  0
  7 12  2  0
  8 13  1  0
 10 14  1  0
 11 15  2  0
 12 16  1  0
 13 17  2  0
 14 16  2  0
 15 17  1  0
 18 19  1  0
 19 20  1  0
 20 21  2  0
 20 22  1  0
 21 23  1  0
 22 24  2  0
M  END
>  <PUBCHEM_COMPOUND_CID>  (1) 
49641

>  <PUBCHEM_CONFORMER_RMSD>  (1) 
0.8

>  <PUBCHEM_CONFORMER_DIVERSEORDER>  (1) 
1
40
69
75
28
5
59
4
19
46
12
51
52
31
20
53
65
47
26
62
44
9
7
41
74
2
25
73
55
18
27
30
50
54
64
15
66
29
60
61
37
24
33
22
17
70
32
56
48
14
63
3
71
39
6
13
21
8
68
49
16
45
10
23
11
76
36
38
72
57
77
58
42
34
43
67
35

>  <PUBCHEM_MMFF94_PARTIAL_CHARGES>  (1) 
34
1 -0.43
10 -0.15
11 -0.15
12 -0.15
13 -0.15
14 -0.15
15 -0.15
16 -0.15
17 -0.15
18 0.28
19 0.14
2 -0.57
20 -0.14
21 -0.15
22 -0.15
23 0.16
24 0.16
26 0.15
27 0.15
28 0.15
29 0.15
3 -0.62
30 0.15
31 0.15
32 0.15
33 0.15
38 0.15
39 0.15
4 0.35
40 0.15
41 0.15
5 -0.14
6 -0.14
9 0.66

>  <PUBCHEM_EFFECTIVE_ROTOR_COUNT>  (1) 
5.2

>  <PUBCHEM_PHARMACOPHORE_FEATURES>  (1) 
6
1 2 acceptor
1 3 acceptor
5 4 5 6 7 8 rings
6 3 20 21 22 23 24 rings
6 5 7 10 12 14 16 rings
6 6 8 11 13 15 17 rings

>  <PUBCHEM_HEAVY_ATOM_COUNT>  (1) 
24

>  <PUBCHEM_ATOM_DEF_STEREO_COUNT>  (1) 
0

>  <PUBCHEM_ATOM_UDEF_STEREO_COUNT>  (1) 
0

>  <PUBCHEM_BOND_DEF_STEREO_COUNT>  (1) 
0

>  <PUBCHEM_BOND_UDEF_STEREO_COUNT>  (1) 
0

>  <PUBCHEM_ISOTOPIC_ATOM_COUNT>  (1) 
0

>  <PUBCHEM_COMPONENT_COUNT>  (1) 
1

>  <PUBCHEM_CACTVS_TAUTO_COUNT>  (1) 
1

>  <PUBCHEM_CONFORMER_ID>  (1) 
0000C1E900000001

>  <PUBCHEM_MMFF94_ENERGY>  (1) 
71.2204

>  <PUBCHEM_FEATURE_SELFOVERLAP>  (1) 
30.611

>  <PUBCHEM_SHAPE_FINGERPRINT>  (1) 
10616163 171 17978231883253093196
10693767 8 17626644340280523887
11112241 14 16987130920664622408
12592029 89 18261675878661187169
12788726 201 17917439704881018328
13135754 10 16517112798240655547
13402501 40 18341895160856024974
13544592 145 18412829083859027884
13583140 156 17700412765040172224
13642711 20 18123743150090240999
14251751 93 18334570261325068057
14251757 17 18341896315912057834
14790565 3 18338238142116590641
15042514 8 18117843424731654259
15196674 1 18338797918020270518
15664445 248 17337036988970421375
17349148 13 17988932153851925764
17859628 97 18334571313423679498
19591789 44 18409729586407899867
21279426 13 18269838614289132837
21330990 113 18187363186417433869
21478907 32 17906168813148525039
21521239 73 18059276756719617519
21781051 124 17968674808221065179
21859007 373 17897418658722183676
23227448 37 18412823611849341807
23559900 14 18343022220573121668
27425 322 17240765158784616357
3004659 81 18334297548767631956
3298306 158 18338511933138099319
335352 9 18410572868829291166
338550 245 18260268559934065734
340366 18 18113620105410309988
350125 39 18409168831641806715
3680242 22 18336547093196102818
3729539 64 18120942706801323742
38695281 34 18059572443537655015
404807 14 14829693092881520870
44062 13 18409732893285148742
508706 21 18410008879161890447
5104073 3 18340205314178395928
5265222 85 18262812881659896252
5309563 4 16968020523843137186
532947 4 18267867172998258855
5385378 56 18193562160429752657
59755656 215 18335978667539200085
6138700 20 18267585711080412878
7226269 152 18202279186840157936
7399639 24 17262709388140556096
9709674 26 18269273637379978036

>  <PUBCHEM_SHAPE_MULTIPOLES>  (1) 
477.19
11.25
3.54
0.98
6.75
2.3
0.04
-2.39
0.96
-1.56
-0.56
0.76
-0.14
1.02

>  <PUBCHEM_SHAPE_SELFOVERLAP>  (1) 
1060.418

>  <PUBCHEM_SHAPE_VOLUME>  (1) 
254.3

>  <PUBCHEM_COORDINATE_TYPE>  (1) 
2
5
10

$$$$
