4964
     RDKit          3D

 11 11  0  0  0  0  0  0  0  0999 V2000
   -4.4373    0.4990    0.0522 Br  0  0  0  0  0  0  0  0  0  0  0  0
    3.9006    0.2763    0.0152 O   0  0  0  0  0  0  0  0  0  0  0  0
   -2.1900   -1.4276   -0.0225 O   0  0  0  0  0  0  0  0  0  0  0  0
   -0.2286   -0.1447   -0.0076 C   0  0  0  0  0  0  0  0  0  0  0  0
    0.3426    1.1278   -0.0130 C   0  0  0  0  0  0  0  0  0  0  0  0
    0.5878   -1.2757    0.0049 C   0  0  0  0  0  0  0  0  0  0  0  0
   -1.6757   -0.2916   -0.0142 C   0  0  0  0  0  0  0  0  0  0  0  0
    1.7302    1.2693   -0.0061 C   0  0  0  0  0  0  0  0  0  0  0  0
    1.9755   -1.1340    0.0120 C   0  0  0  0  0  0  0  0  0  0  0  0
    2.5466    0.1384    0.0065 C   0  0  0  0  0  0  0  0  0  0  0  0
   -2.5516    0.9628   -0.0272 C   0  0  0  0  0  0  0  0  0  0  0  0
  1 11  1  0
  2 10  1  0
  3  7  2  0
  4  5  2  0
  4  6  1  0
  4  7  1  0
  5  8  1  0
  6  9  2  0
  7 11  1  0
  8 10  2  0
  9 10  1  0
M  END
>  <PUBCHEM_COMPOUND_CID>  (1) 
4964

>  <PUBCHEM_CONFORMER_RMSD>  (1) 
0.4

>  <PUBCHEM_CONFORMER_DIVERSEORDER>  (1) 
1
12
13
2
11
4
10
3
7
8
6
5
9

>  <PUBCHEM_MMFF94_PARTIAL_CHARGES>  (1) 
16
1 -0.23
10 0.08
11 0.29
12 0.15
13 0.15
14 0.15
15 0.15
18 0.45
2 -0.53
3 -0.57
4 0.09
5 -0.15
6 -0.15
7 0.42
8 -0.15
9 -0.15

>  <PUBCHEM_EFFECTIVE_ROTOR_COUNT>  (1) 
2

>  <PUBCHEM_PHARMACOPHORE_FEATURES>  (1) 
4
1 1 hydrophobe
1 2 donor
1 3 acceptor
6 4 5 6 8 9 10 rings

>  <PUBCHEM_HEAVY_ATOM_COUNT>  (1) 
11

>  <PUBCHEM_ATOM_DEF_STEREO_COUNT>  (1) 
0

>  <PUBCHEM_ATOM_UDEF_STEREO_COUNT>  (1) 
0

>  <PUBCHEM_BOND_DEF_STEREO_COUNT>  (1) 
0

>  <PUBCHEM_BOND_UDEF_STEREO_COUNT>  (1) 
0

>  <PUBCHEM_ISOTOPIC_ATOM_COUNT>  (1) 
0

>  <PUBCHEM_COMPONENT_COUNT>  (1) 
1

>  <PUBCHEM_CACTVS_TAUTO_COUNT>  (1) 
7

>  <PUBCHEM_CONFORMER_ID>  (1) 
0000136400000001

>  <PUBCHEM_MMFF94_ENERGY>  (1) 
27.9844

>  <PUBCHEM_FEATURE_SELFOVERLAP>  (1) 
20.297

>  <PUBCHEM_SHAPE_FINGERPRINT>  (1) 
10219947 1 18411140207901645993
11062470 55 17346597465315854129
11471102 20 18410571752011173901
12932764 1 17167848790435815127
13380535 76 18411138030722836343
14144814 61 18411702041548724865
14325111 11 18338516447032669484
14897335 6 18412541011865057551
15775835 57 18410014342454768597
16945 1 18410290285460919388
17844478 74 17894635807987666805
20201158 50 18410293592633223083
20645477 70 18267017267990531095
20871998 22 17982170011560317158
21040471 1 18266458896271280238
23235685 24 18410568483319560929
23402539 116 18060129921760769533
23402655 69 18270390599855802629
23552423 10 18261392299044993062
2748010 2 18267021854487802956
528886 8 18411414012087858674
53812653 166 18341608230912139232

>  <PUBCHEM_SHAPE_MULTIPOLES>  (1) 
220.58
6.46
1.42
0.61
3.91
0.15
0
-1.08
0.1
-0.14
-0.01
0.08
-0.01
-0.01

>  <PUBCHEM_SHAPE_SELFOVERLAP>  (1) 
443.7

>  <PUBCHEM_SHAPE_VOLUME>  (1) 
133.5

>  <PUBCHEM_COORDINATE_TYPE>  (1) 
2
5
10

$$$$
