49658
     RDKit          3D

 11 11  0  0  0  0  0  0  0  0999 V2000
    0.4697   -0.0074   -1.3280 S   0  0  0  0  0  0  0  0  0  0  0  0
    3.9248   -0.0053    0.8033 N   0  0  0  0  0  0  0  0  0  0  0  0
    5.2715    0.0156    0.3331 N   0  0  0  0  0  0  0  0  0  0  0  0
    1.5851   -0.0040    0.1039 C   0  0  0  0  0  0  0  0  0  0  0  0
    3.0375   -0.0077   -0.3561 C   0  0  0  0  0  0  0  0  0  0  0  0
   -1.1296   -0.0024   -0.5416 C   0  0  0  0  0  0  0  0  0  0  0  0
   -1.7539    1.2076   -0.2380 C   0  0  0  0  0  0  0  0  0  0  0  0
   -1.7570   -1.2085   -0.2295 C   0  0  0  0  0  0  0  0  0  0  0  0
   -3.0058    1.2114    0.3774 C   0  0  0  0  0  0  0  0  0  0  0  0
   -3.0088   -1.2046    0.3861 C   0  0  0  0  0  0  0  0  0  0  0  0
   -3.6335    0.0053    0.6893 C   0  0  0  0  0  0  0  0  0  0  0  0
  1  4  1  0
  1  6  1  0
  2  3  1  0
  2  5  1  0
  4  5  1  0
  6  7  2  0
  6  8  1  0
  7  9  1  0
  8 10  2  0
  9 11  2  0
 10 11  1  0
M  END
>  <PUBCHEM_COMPOUND_CID>  (1) 
49658

>  <PUBCHEM_CONFORMER_RMSD>  (1) 
0.6

>  <PUBCHEM_CONFORMER_DIVERSEORDER>  (1) 
1
7
17
16
23
24
20
6
18
30
19
22
29
8
15
2
25
9
3
5
27
13
4
11
14
26
28
10
12
21

>  <PUBCHEM_MMFF94_PARTIAL_CHARGES>  (1) 
19
1 -0.33
10 -0.15
11 -0.15
16 0.15
17 0.15
18 0.36
19 0.15
2 -0.63
20 0.15
21 0.15
22 0.36
23 0.36
3 -0.72
4 0.23
5 0.27
6 0.1
7 -0.15
8 -0.15
9 -0.15

>  <PUBCHEM_EFFECTIVE_ROTOR_COUNT>  (1) 
4

>  <PUBCHEM_PHARMACOPHORE_FEATURES>  (1) 
3
1 2 donor
1 3 donor
6 6 7 8 9 10 11 rings

>  <PUBCHEM_HEAVY_ATOM_COUNT>  (1) 
11

>  <PUBCHEM_ATOM_DEF_STEREO_COUNT>  (1) 
0

>  <PUBCHEM_ATOM_UDEF_STEREO_COUNT>  (1) 
0

>  <PUBCHEM_BOND_DEF_STEREO_COUNT>  (1) 
0

>  <PUBCHEM_BOND_UDEF_STEREO_COUNT>  (1) 
0

>  <PUBCHEM_ISOTOPIC_ATOM_COUNT>  (1) 
0

>  <PUBCHEM_COMPONENT_COUNT>  (1) 
1

>  <PUBCHEM_CACTVS_TAUTO_COUNT>  (1) 
1

>  <PUBCHEM_CONFORMER_ID>  (1) 
0000C1FA00000001

>  <PUBCHEM_MMFF94_ENERGY>  (1) 
19.7812

>  <PUBCHEM_FEATURE_SELFOVERLAP>  (1) 
16.548

>  <PUBCHEM_SHAPE_FINGERPRINT>  (1) 
11127187 94 11314312758636756257
114248 4 8214138556188733334
12251169 10 18410013247148476420
13024252 1 14418132911962705069
13214271 11 17632577149977028189
15219456 202 17845946125457296774
18186145 218 15195572312159358244
200 152 15430033275003337443
20279233 1 17847066570866313246
20645464 45 17917717898412341975
20645476 183 12031785834332354773
20671657 53 12973886992340506078
20711985 327 17095246925410243614
20828058 44 18334575737598300402
20871999 31 9439403493697477923
21061003 4 14779273007447200805
21119208 17 10159697993042995010
21650355 55 18337112362531726489
22485316 2 16226042288859271384
22926399 37 14620794881898077467
23402539 116 18272926142478270391
23403322 49 12973878200331395976

>  <PUBCHEM_SHAPE_MULTIPOLES>  (1) 
220.26
8.37
1.16
0.98
11.25
0
-0.2
0.03
3.02
-1.26
0.02
0.16
0
0.01

>  <PUBCHEM_SHAPE_SELFOVERLAP>  (1) 
423.642

>  <PUBCHEM_SHAPE_VOLUME>  (1) 
135

>  <PUBCHEM_COORDINATE_TYPE>  (1) 
2
5
10

$$$$
