49653
     RDKit          3D

 25 25  0  0  0  0  0  0  0  0999 V2000
   -0.4683    2.8156    1.3967 I   0  0  0  0  0  0  0  0  0  0  0  0
    3.9773   -1.0832   -0.1171 I   0  0  0  0  0  0  0  0  0  0  0  0
   -1.7576   -3.0855    0.5026 I   0  0  0  0  0  0  0  0  0  0  0  0
   -2.5887   -0.0223    2.3303 O   0  0  0  0  0  0  0  0  0  0  0  0
    1.8026   -3.8748    0.8357 O   0  0  0  0  0  0  0  0  0  0  0  0
    2.4159    2.4649   -1.5369 O   0  0  0  0  0  0  0  0  0  0  0  0
   -4.1805    1.0556   -2.1433 O   0  0  0  0  0  0  0  0  0  0  0  0
   -6.2100    1.4114   -1.1933 O   0  0  0  0  0  0  0  0  0  0  0  0
    2.4404    1.6384    0.6649 N   0  0  0  0  0  0  0  0  0  0  0  0
   -2.9775    0.4265    0.0888 N   0  0  0  0  0  0  0  0  0  0  0  0
    1.3920   -3.4579   -1.4081 N   0  0  0  0  0  0  0  0  0  0  0  0
    1.5089    0.5906    0.6282 C   0  0  0  0  0  0  0  0  0  0  0  0
   -0.7607   -0.2009    0.8728 C   0  0  0  0  0  0  0  0  0  0  0  0
    0.9992   -1.7445    0.2748 C   0  0  0  0  0  0  0  0  0  0  0  0
    0.1658    0.8413    0.9090 C   0  0  0  0  0  0  0  0  0  0  0  0
    1.9256   -0.7023    0.3111 C   0  0  0  0  0  0  0  0  0  0  0  0
   -0.3440   -1.4938    0.5557 C   0  0  0  0  0  0  0  0  0  0  0  0
   -2.1702    0.0625    1.1672 C   0  0  0  0  0  0  0  0  0  0  0  0
    1.4367   -3.1006   -0.0599 C   0  0  0  0  0  0  0  0  0  0  0  0
    2.8265    2.4844   -0.3813 C   0  0  0  0  0  0  0  0  0  0  0  0
    3.8677    3.4895    0.0881 C   0  0  0  0  0  0  0  0  0  0  0  0
   -4.3818    0.7408    0.2219 C   0  0  0  0  0  0  0  0  0  0  0  0
    4.3413    4.4071   -1.0248 C   0  0  0  0  0  0  0  0  0  0  0  0
    1.7682   -4.7664   -1.8932 C   0  0  0  0  0  0  0  0  0  0  0  0
   -5.0288    1.1037   -1.0899 C   0  0  0  0  0  0  0  0  0  0  0  0
  1 15  1  0
  2 16  1  0
  3 17  1  0
  4 18  2  0
  5 19  2  0
  6 20  2  0
  7 25  1  0
  8 25  2  0
  9 12  1  0
  9 20  1  0
 10 18  1  0
 10 22  1  0
 11 19  1  0
 11 24  1  0
 12 15  2  0
 12 16  1  0
 13 15  1  0
 13 17  2  0
 13 18  1  0
 14 16  2  0
 14 17  1  0
 14 19  1  0
 20 21  1  0
 21 23  1  0
 22 25  1  0
M  END
>  <PUBCHEM_COMPOUND_CID>  (1) 
49653

>  <PUBCHEM_CONFORMER_RMSD>  (1) 
1

>  <PUBCHEM_CONFORMER_DIVERSEORDER>  (1) 
1
11
12
13
10
3
6
7
9
5
14
8
2
4

>  <PUBCHEM_MMFF94_PARTIAL_CHARGES>  (1) 
28
1 -0.08
10 -0.73
11 -0.73
12 0.12
13 0.09
14 0.09
15 0.08
16 0.08
17 0.08
18 0.54
19 0.54
2 -0.08
20 0.57
21 0.06
22 0.36
24 0.3
25 0.66
26 0.37
29 0.37
3 -0.08
32 0.37
39 0.5
4 -0.57
5 -0.57
6 -0.57
7 -0.65
8 -0.57
9 -0.55

>  <PUBCHEM_EFFECTIVE_ROTOR_COUNT>  (1) 
9

>  <PUBCHEM_PHARMACOPHORE_FEATURES>  (1) 
14
1 1 hydrophobe
1 10 donor
1 11 donor
1 2 hydrophobe
1 23 hydrophobe
1 3 hydrophobe
1 4 acceptor
1 5 acceptor
1 6 acceptor
1 7 acceptor
1 8 acceptor
1 9 donor
3 7 8 25 anion
6 12 13 14 15 16 17 rings

>  <PUBCHEM_HEAVY_ATOM_COUNT>  (1) 
25

>  <PUBCHEM_ATOM_DEF_STEREO_COUNT>  (1) 
0

>  <PUBCHEM_ATOM_UDEF_STEREO_COUNT>  (1) 
0

>  <PUBCHEM_BOND_DEF_STEREO_COUNT>  (1) 
0

>  <PUBCHEM_BOND_UDEF_STEREO_COUNT>  (1) 
0

>  <PUBCHEM_ISOTOPIC_ATOM_COUNT>  (1) 
0

>  <PUBCHEM_COMPONENT_COUNT>  (1) 
1

>  <PUBCHEM_CACTVS_TAUTO_COUNT>  (1) 
8

>  <PUBCHEM_CONFORMER_ID>  (1) 
0000C1F500000001

>  <PUBCHEM_MMFF94_ENERGY>  (1) 
93.4327

>  <PUBCHEM_FEATURE_SELFOVERLAP>  (1) 
71.107

>  <PUBCHEM_SHAPE_FINGERPRINT>  (1) 
10794284 68 12885417138068257474
10930396 42 17975377324025224898
12160290 23 17693944398484859898
13140716 1 18267887114678990786
13583140 156 17676493838723168730
13911987 19 18268156542199056857
140371 6 18340492145074276410
14114206 34 17252616493957041042
14508225 48 17835806296287941694
14790565 3 17548443830132036545
15842332 3 17560252301773200113
16945 1 18268729237364220602
17980427 26 17241586477423198992
20715895 44 18334565850178137304
21304303 282 17766817787380045062
2334 1 18125733524013816290
23557571 272 17266695053915730640
23559900 14 18413388726835272666
238 59 18337668612225617171
2748010 2 18197792187451154162
3057174 1 18341901843545550006
350125 39 17906462378367834633
352729 6 18341342170710425170
376196 1 18187921828323530417
394222 165 18114735036155191408
46194498 28 18263352613078339221
59554788 191 18412542145853202330
633830 44 17843434905355919568

>  <PUBCHEM_SHAPE_MULTIPOLES>  (1) 
506.01
8.69
6.18
1.66
8.16
4.15
-0.37
-9.45
-4.59
-6.36
-2.22
1.15
-0.2
0.59

>  <PUBCHEM_SHAPE_SELFOVERLAP>  (1) 
983.089

>  <PUBCHEM_SHAPE_VOLUME>  (1) 
314.8

>  <PUBCHEM_COORDINATE_TYPE>  (1) 
2
5
10

$$$$
