49652
     RDKit          3D

 26 26  0  0  0  0  0  0  0  0999 V2000
    0.5423   -2.5399   -1.3468 I   0  0  0  0  0  0  0  0  0  0  0  0
   -3.0509    2.3278   -0.5224 I   0  0  0  0  0  0  0  0  0  0  0  0
    2.9877    2.8246    0.2334 I   0  0  0  0  0  0  0  0  0  0  0  0
   -2.5261   -0.8052   -2.3454 O   0  0  0  0  0  0  0  0  0  0  0  0
   -0.1110    4.4951   -0.7852 O   0  0  0  0  0  0  0  0  0  0  0  0
    5.0161   -2.7618    0.7285 O   0  0  0  0  0  0  0  0  0  0  0  0
    2.5491   -1.9864    1.0587 O   0  0  0  0  0  0  0  0  0  0  0  0
   -3.6428   -2.4460    2.1008 O   0  0  0  0  0  0  0  0  0  0  0  0
   -5.3314   -3.5930    1.1104 O   0  0  0  0  0  0  0  0  0  0  0  0
    2.7056   -0.2849   -0.5616 N   0  0  0  0  0  0  0  0  0  0  0  0
   -2.7492   -1.3779   -0.1096 N   0  0  0  0  0  0  0  0  0  0  0  0
   -0.3671    3.9426    1.4523 N   0  0  0  0  0  0  0  0  0  0  0  0
   -0.9609    0.0970   -0.8507 C   0  0  0  0  0  0  0  0  0  0  0  0
    1.4284    0.2945   -0.5523 C   0  0  0  0  0  0  0  0  0  0  0  0
    0.0071    2.2209   -0.2264 C   0  0  0  0  0  0  0  0  0  0  0  0
    0.3093   -0.4792   -0.8598 C   0  0  0  0  0  0  0  0  0  0  0  0
   -1.1121    1.4470   -0.5340 C   0  0  0  0  0  0  0  0  0  0  0  0
    1.2773    1.6446   -0.2356 C   0  0  0  0  0  0  0  0  0  0  0  0
   -2.1352   -0.7152   -1.1732 C   0  0  0  0  0  0  0  0  0  0  0  0
   -0.1512    3.6371    0.1079 C   0  0  0  0  0  0  0  0  0  0  0  0
    3.1701   -1.3508    0.2122 C   0  0  0  0  0  0  0  0  0  0  0  0
   -3.9017   -2.2350   -0.2703 C   0  0  0  0  0  0  0  0  0  0  0  0
    4.6147   -1.6839   -0.0914 C   0  0  0  0  0  0  0  0  0  0  0  0
   -0.5653    5.2901    1.9359 C   0  0  0  0  0  0  0  0  0  0  0  0
   -4.3748   -2.8321    1.0300 C   0  0  0  0  0  0  0  0  0  0  0  0
    6.3720   -3.1300    0.4945 C   0  0  0  0  0  0  0  0  0  0  0  0
  1 16  1  0
  2 17  1  0
  3 18  1  0
  4 19  2  0
  5 20  2  0
  6 23  1  0
  6 26  1  0
  7 21  2  0
  8 25  1  0
  9 25  2  0
 10 14  1  0
 10 21  1  0
 11 19  1  0
 11 22  1  0
 12 20  1  0
 12 24  1  0
 13 16  2  0
 13 17  1  0
 13 19  1  0
 14 16  1  0
 14 18  2  0
 15 17  2  0
 15 18  1  0
 15 20  1  0
 21 23  1  0
 22 25  1  0
M  END
>  <PUBCHEM_COMPOUND_CID>  (1) 
49652

>  <PUBCHEM_CONFORMER_RMSD>  (1) 
1

>  <PUBCHEM_CONFORMER_DIVERSEORDER>  (1) 
1
3
19
18
2
4
12
13
7
10
5
14
9
15
17
8
16
11
6

>  <PUBCHEM_MMFF94_PARTIAL_CHARGES>  (1) 
30
1 -0.08
10 -0.55
11 -0.73
12 -0.73
13 0.09
14 0.12
15 0.09
16 0.08
17 0.08
18 0.08
19 0.54
2 -0.08
20 0.54
21 0.57
22 0.36
23 0.34
24 0.3
25 0.66
26 0.28
27 0.37
28 0.37
3 -0.08
31 0.37
4 -0.57
40 0.5
5 -0.57
6 -0.56
7 -0.57
8 -0.65
9 -0.57

>  <PUBCHEM_EFFECTIVE_ROTOR_COUNT>  (1) 
10

>  <PUBCHEM_PHARMACOPHORE_FEATURES>  (1) 
14
1 1 hydrophobe
1 10 donor
1 11 donor
1 12 donor
1 2 hydrophobe
1 3 hydrophobe
1 4 acceptor
1 5 acceptor
1 6 acceptor
1 7 acceptor
1 8 acceptor
1 9 acceptor
3 8 9 25 anion
6 13 14 15 16 17 18 rings

>  <PUBCHEM_HEAVY_ATOM_COUNT>  (1) 
26

>  <PUBCHEM_ATOM_DEF_STEREO_COUNT>  (1) 
0

>  <PUBCHEM_ATOM_UDEF_STEREO_COUNT>  (1) 
0

>  <PUBCHEM_BOND_DEF_STEREO_COUNT>  (1) 
0

>  <PUBCHEM_BOND_UDEF_STEREO_COUNT>  (1) 
0

>  <PUBCHEM_ISOTOPIC_ATOM_COUNT>  (1) 
0

>  <PUBCHEM_COMPONENT_COUNT>  (1) 
1

>  <PUBCHEM_CACTVS_TAUTO_COUNT>  (1) 
8

>  <PUBCHEM_CONFORMER_ID>  (1) 
0000C1F400000001

>  <PUBCHEM_MMFF94_ENERGY>  (1) 
97.276

>  <PUBCHEM_FEATURE_SELFOVERLAP>  (1) 
71.119

>  <PUBCHEM_SHAPE_FINGERPRINT>  (1) 
10074138 170 17906433443178247928
10411042 1 18340757200159178790
10794284 68 17620530896188420288
1100329 8 18267298742397639797
12107183 9 18339940268227234267
12293681 160 17834363776030020565
12293681 4 18266459806751755415
12390115 104 17268907979890463176
12633257 1 18339381694708083891
12788726 201 17979613668442032415
13140716 1 18342454816031830172
13533116 47 17975142243106442227
13955234 65 17907865359404872363
140371 6 18196373610965656940
14363568 33 18196371648424162492
14713325 29 18197496212817955914
14790565 3 17762065728148377109
14844126 61 18268977701059133670
14955137 171 17912385387034132820
15042514 8 18338235942802860079
15475509 84 18269855219445277601
16945 1 18055631716111384076
19591789 44 17257084299664038084
20101258 96 18340483383467612090
20739085 24 18128273343933112999
21033648 29 16701758050922580563
21120745 212 18339380577732029548
21796203 349 18122090803046670938
2334 1 18270389602769522220
23559900 14 17677043659352274271
23845131 108 16898208136801182707
2748010 2 18342726442659204508
31174 14 18120657087444624199
3380486 145 17843372259236999788
352729 6 18270398265686799413
458136 41 17615693268348304725
5104073 3 18339914932061992394
5486654 36 18334576806713224507
58807428 26 17043447536708804920
79837 15 17835807399972762794
81228 2 18053937355697185973

>  <PUBCHEM_SHAPE_MULTIPOLES>  (1) 
520.72
9.12
6.96
1.55
8.71
6.43
0.24
-14.13
3.58
-3.17
3.36
-1.32
-0.33
0.83

>  <PUBCHEM_SHAPE_SELFOVERLAP>  (1) 
1014.07

>  <PUBCHEM_SHAPE_VOLUME>  (1) 
322.8

>  <PUBCHEM_COORDINATE_TYPE>  (1) 
2
5
10

$$$$
