49661
     RDKit          3D

 12 12  0  0  1  0  0  0  0  0999 V2000
   -1.4183   -0.0203   -0.2106 N   0  0  0  0  0  0  0  0  0  0  0  0
    1.5334    0.0951   -0.3942 C   0  0  0  0  0  0  0  0  0  0  0  0
    0.7208   -1.1912   -0.4046 C   0  0  0  0  0  0  0  0  0  0  0  0
    1.9831    0.4894    1.0205 C   0  0  0  0  0  0  0  0  0  0  0  0
   -0.5990   -1.0653    0.3672 C   0  0  0  0  0  0  0  0  0  0  0  0
    3.3787    1.0942    0.8655 C   0  0  0  0  0  0  0  0  0  0  0  0
    2.8373   -0.0253   -1.1213 C   0  0  0  0  0  0  0  0  0  0  0  0
    3.8420    0.5248   -0.4327 C   0  0  0  0  0  0  0  0  0  0  0  0
   -1.3813   -2.3741    0.3306 C   0  0  0  0  0  0  0  0  0  0  0  0
   -2.6583    0.1555    0.5393 C   0  0  0  0  0  0  0  0  0  0  0  0
   -3.5019    1.2500   -0.0385 C   0  0  0  0  0  0  0  0  0  0  0  0
   -4.7364    1.0672   -0.5212 C   0  0  0  0  0  0  0  0  0  0  0  0
  1  5  1  0
  1 10  1  0
  2  3  1  0
  2  4  1  0
  2  7  1  0
  3  5  1  0
  4  6  1  0
  5  9  1  0
  6  8  1  0
  7  8  2  0
 10 11  1  0
 11 12  2  0
M  END
>  <PUBCHEM_COMPOUND_CID>  (1) 
49661

>  <PUBCHEM_CONFORMER_RMSD>  (1) 
0.6

>  <PUBCHEM_CONFORMER_DIVERSEORDER>  (1) 
3
70
11
10
32
37
19
24
69
17
27
5
55
52
47
4
42
31
18
29
71
33
61
7
6
40
39
28
58
21
13
36
41
56
66
12
67
53
62
30
65
8
48
64
63
38
26
25
57
59
50
54
44
45
35
43
51
34
9
1
14
68
46
23
16
20
22
60
2
15
49

>  <PUBCHEM_MMFF94_PARTIAL_CHARGES>  (1) 
15
1 -0.9
10 0.41
11 -0.29
12 -0.3
2 0.14
21 0.15
22 0.15
26 0.36
29 0.15
30 0.15
31 0.15
5 0.27
6 0.14
7 -0.29
8 -0.29

>  <PUBCHEM_EFFECTIVE_ROTOR_COUNT>  (1) 
5.6

>  <PUBCHEM_PHARMACOPHORE_FEATURES>  (1) 
4
1 1 cation
1 1 donor
1 12 hydrophobe
5 2 4 6 7 8 rings

>  <PUBCHEM_HEAVY_ATOM_COUNT>  (1) 
12

>  <PUBCHEM_ATOM_DEF_STEREO_COUNT>  (1) 
0

>  <PUBCHEM_ATOM_UDEF_STEREO_COUNT>  (1) 
2

>  <PUBCHEM_BOND_DEF_STEREO_COUNT>  (1) 
0

>  <PUBCHEM_BOND_UDEF_STEREO_COUNT>  (1) 
0

>  <PUBCHEM_ISOTOPIC_ATOM_COUNT>  (1) 
0

>  <PUBCHEM_COMPONENT_COUNT>  (1) 
1

>  <PUBCHEM_CACTVS_TAUTO_COUNT>  (1) 
1

>  <PUBCHEM_CONFORMER_ID>  (1) 
0000C1FD00000003

>  <PUBCHEM_MMFF94_ENERGY>  (1) 
12.8597

>  <PUBCHEM_FEATURE_SELFOVERLAP>  (1) 
20.297

>  <PUBCHEM_SHAPE_FINGERPRINT>  (1) 
10608611 8 18200594829641902608
11543360 7 16487246682201397037
122479 349 18410293648420266661
12251169 10 13840273588978695561
124424 183 18060425711852661638
12500047 106 18411139173205197126
12932764 1 17773609402038354350
13764800 53 18336555992209792131
14123255 52 18408037403510680325
14252887 29 8070018982592780285
14897335 6 18410290298462151655
15775835 57 18186800279207697033
17834072 32 18335145331508043325
17846911 113 18335698330190758805
18186145 218 18059864939051923265
19782 4 18334285440764363469
200 152 15123515800152410854
20233049 118 18407760326691679328
20281475 54 8358255964525375953
20645477 56 18410579525659288976
20645477 70 17060071332493183510
20671657 53 13039184797037605659
20711983 171 18187087303730540550
20715346 28 17916313912368904258
20724930 31 9583512122772833620
20767249 442 18335417954646333785
21119208 17 16200430256370043069
212847 35 18336546027901697192
21499 59 18337104580209384815
21524375 3 18338796715361109215
22096605 113 16558744654790482728
22218785 32 18201441350426488871
23402539 116 18342166774070878796
23402655 69 17418094295422916689
23500284 214 18412550920227976705
25 1 18130515136562766747
276578 36 17968095291882333914
31174 14 12324248294968460382
328317 168 18411130342899993349
4028521 119 18273494550918769817
42 15 13045946776869757445
548570 60 18409446968891144005
88987 49 18263371446045701606
94968 8 10591751095641168165

>  <PUBCHEM_SHAPE_MULTIPOLES>  (1) 
241.97
7.97
1.68
0.98
4.28
0.98
0.02
-4.84
-0.93
1.11
0.18
-0.58
-0.1
0.65

>  <PUBCHEM_SHAPE_SELFOVERLAP>  (1) 
469.558

>  <PUBCHEM_SHAPE_VOLUME>  (1) 
147.5

>  <PUBCHEM_COORDINATE_TYPE>  (1) 
2
5
10

$$$$
