49674
     RDKit          3D

 26 28  0  0  0  0  0  0  0  0999 V2000
    0.6266    0.0447   -0.3068 O   0  0  0  0  0  0  0  0  0  0  0  0
    2.2454    3.6998    0.4606 O   0  0  0  0  0  0  0  0  0  0  0  0
   -5.6429   -0.1023   -0.4025 O   0  0  0  0  0  0  0  0  0  0  0  0
    1.0310   -2.5332    0.1449 N   0  0  0  0  0  0  0  0  0  0  0  0
    2.1359   -2.2597   -0.7755 C   0  0  0  0  0  0  0  0  0  0  0  0
    2.7651   -0.9340   -0.4963 C   0  0  0  0  0  0  0  0  0  0  0  0
    1.9860    0.2003   -0.2658 C   0  0  0  0  0  0  0  0  0  0  0  0
    2.5952    1.4242   -0.0087 C   0  0  0  0  0  0  0  0  0  0  0  0
    1.5090   -2.5432    1.5264 C   0  0  0  0  0  0  0  0  0  0  0  0
    0.3952   -3.8073   -0.1865 C   0  0  0  0  0  0  0  0  0  0  0  0
    4.1564   -0.8381   -0.4681 C   0  0  0  0  0  0  0  0  0  0  0  0
   -0.1736    1.1521   -0.0859 C   0  0  0  0  0  0  0  0  0  0  0  0
    0.2736    2.3957    0.1814 C   0  0  0  0  0  0  0  0  0  0  0  0
    1.7498    2.6035    0.2320 C   0  0  0  0  0  0  0  0  0  0  0  0
    3.9888    1.5248    0.0198 C   0  0  0  0  0  0  0  0  0  0  0  0
    4.7670    0.3896   -0.2104 C   0  0  0  0  0  0  0  0  0  0  0  0
    0.3599   -2.8270    2.4746 C   0  0  0  0  0  0  0  0  0  0  0  0
   -0.1504   -3.7664   -1.6010 C   0  0  0  0  0  0  0  0  0  0  0  0
   -1.6033    0.8237   -0.1690 C   0  0  0  0  0  0  0  0  0  0  0  0
   -0.5650    3.6122    0.4483 C   0  0  0  0  0  0  0  0  0  0  0  0
   -2.2712    0.9175   -1.3900 C   0  0  0  0  0  0  0  0  0  0  0  0
   -2.2935    0.4185    0.9737 C   0  0  0  0  0  0  0  0  0  0  0  0
   -3.6287    0.6063   -1.4684 C   0  0  0  0  0  0  0  0  0  0  0  0
   -3.6509    0.1071    0.8952 C   0  0  0  0  0  0  0  0  0  0  0  0
   -4.3186    0.2011   -0.3258 C   0  0  0  0  0  0  0  0  0  0  0  0
   -6.2869   -0.5098    0.8038 C   0  0  0  0  0  0  0  0  0  0  0  0
  1  7  1  0
  1 12  1  0
  2 14  2  0
  3 25  1  0
  3 26  1  0
  4  5  1  0
  4  9  1  0
  4 10  1  0
  5  6  1  0
  6  7  2  0
  6 11  1  0
  7  8  1  0
  8 14  1  0
  8 15  2  0
  9 17  1  0
 10 18  1  0
 11 16  2  0
 12 13  2  0
 12 19  1  0
 13 14  1  0
 13 20  1  0
 15 16  1  0
 19 21  2  0
 19 22  1  0
 21 23  1  0
 22 24  2  0
 23 25  2  0
 24 25  1  0
M  END
>  <PUBCHEM_COMPOUND_CID>  (1) 
49674

>  <PUBCHEM_CONFORMER_RMSD>  (1) 
0.8

>  <PUBCHEM_CONFORMER_DIVERSEORDER>  (1) 
2
10
3
11
6
7
12
1
4
5
9
8

>  <PUBCHEM_MMFF94_PARTIAL_CHARGES>  (1) 
31
1 -0.16
10 0.27
11 -0.15
12 0.05
13 -0.12
14 0.47
15 -0.15
16 -0.15
19 0.03
2 -0.57
20 0.14
21 -0.15
22 -0.15
23 -0.15
24 -0.15
25 0.08
26 0.28
3 -0.36
33 0.15
34 0.15
35 0.15
4 -0.81
45 0.15
46 0.15
47 0.15
48 0.15
5 0.41
6 -0.14
7 0.08
8 0.09
9 0.27

>  <PUBCHEM_EFFECTIVE_ROTOR_COUNT>  (1) 
6

>  <PUBCHEM_PHARMACOPHORE_FEATURES>  (1) 
7
1 1 acceptor
1 2 acceptor
1 3 acceptor
1 4 cation
6 1 7 8 12 13 14 rings
6 19 21 22 23 24 25 rings
6 6 7 8 11 15 16 rings

>  <PUBCHEM_HEAVY_ATOM_COUNT>  (1) 
26

>  <PUBCHEM_ATOM_DEF_STEREO_COUNT>  (1) 
0

>  <PUBCHEM_ATOM_UDEF_STEREO_COUNT>  (1) 
0

>  <PUBCHEM_BOND_DEF_STEREO_COUNT>  (1) 
0

>  <PUBCHEM_BOND_UDEF_STEREO_COUNT>  (1) 
0

>  <PUBCHEM_ISOTOPIC_ATOM_COUNT>  (1) 
0

>  <PUBCHEM_COMPONENT_COUNT>  (1) 
1

>  <PUBCHEM_CACTVS_TAUTO_COUNT>  (1) 
1

>  <PUBCHEM_CONFORMER_ID>  (1) 
0000C20A00000002

>  <PUBCHEM_MMFF94_ENERGY>  (1) 
83.2361

>  <PUBCHEM_FEATURE_SELFOVERLAP>  (1) 
35.55

>  <PUBCHEM_SHAPE_FINGERPRINT>  (1) 
1100329 8 18268986652139613556
11421498 54 17346329150266911459
11578080 2 16914803998224087786
12156800 1 17479977193636017298
12236239 1 17418097645919524213
12422481 6 17903385906284698451
12553582 1 18196652882850945623
13140716 1 18053656156352892560
13402501 40 18187373163779378211
13911987 19 18262815054618345300
14178342 30 17907568139394669568
14659021 117 16030972077126277551
14787075 74 18335144206410747422
14790565 3 18341061769613383028
14863182 85 18410866438291690606
16728300 4 17608061232218464602
17138139 8 17269442690444295007
19591789 44 18339077219379721143
19930381 70 18268151968063686967
20028762 73 18131348617980162798
20511986 3 17632568349853237529
20567600 347 17385722474004076995
20645477 70 18410008797952656991
21197605 99 18050016781370830475
21267235 1 18271534121918424228
21344244 181 17988099832540834470
21421861 104 18048040670610872001
23558518 356 17687172506453458024
23559900 14 17836354952521175446
238 59 18410015437571325970
2748010 2 17836934765186756828
2871803 45 18337111168330585612
3178227 256 18409175427856972881
3298306 158 18260539031072649643
33824 294 18409166610273185610
3383291 50 18337951170331509722
338550 245 18120375616710049015
4409770 3 15460954080350420293
463206 1 18339078297922888647
5309563 4 18410576180523519061
5486654 2 18339650026942573820
70251023 43 18054236422854789566
7399639 24 18187632640034163453
81228 2 17324910946993235944

>  <PUBCHEM_SHAPE_MULTIPOLES>  (1) 
512.48
9.04
4.55
1.39
11.18
1.63
0.38
-0.86
-0.39
-2.95
0.49
0.54
1.2
0.32

>  <PUBCHEM_SHAPE_SELFOVERLAP>  (1) 
1102.635

>  <PUBCHEM_SHAPE_VOLUME>  (1) 
284.6

>  <PUBCHEM_COORDINATE_TYPE>  (1) 
2
5
10

$$$$
