49686
     RDKit          3D

 25 27  0  0  0  0  0  0  0  0999 V2000
   -0.1944    0.1936    0.3475 O   0  0  0  0  0  0  0  0  0  0  0  0
    4.5419   -0.1206    0.6682 O   0  0  0  0  0  0  0  0  0  0  0  0
   -0.5275   -3.8020   -0.3542 O   0  0  0  0  0  0  0  0  0  0  0  0
    2.3490    2.2595   -0.4894 N   0  0  0  0  0  0  0  0  0  0  0  0
    0.9252   -0.5927    0.3025 C   0  0  0  0  0  0  0  0  0  0  0  0
    2.1544    0.0353    0.5059 C   0  0  0  0  0  0  0  0  0  0  0  0
    0.8727   -1.9628    0.0671 C   0  0  0  0  0  0  0  0  0  0  0  0
   -1.6335   -1.7107   -0.0912 C   0  0  0  0  0  0  0  0  0  0  0  0
   -1.4291   -0.4005    0.1533 C   0  0  0  0  0  0  0  0  0  0  0  0
   -0.4364   -2.5988   -0.1453 C   0  0  0  0  0  0  0  0  0  0  0  0
    2.2195    1.5080    0.7592 C   0  0  0  0  0  0  0  0  0  0  0  0
    3.3307   -0.7137    0.4724 C   0  0  0  0  0  0  0  0  0  0  0  0
   -2.9548   -2.3831   -0.3290 C   0  0  0  0  0  0  0  0  0  0  0  0
    2.0488   -2.7170    0.0333 C   0  0  0  0  0  0  0  0  0  0  0  0
    3.2776   -2.0877    0.2364 C   0  0  0  0  0  0  0  0  0  0  0  0
   -2.5273    0.5719    0.2372 C   0  0  0  0  0  0  0  0  0  0  0  0
   -3.3186   -2.3953   -1.8003 C   0  0  0  0  0  0  0  0  0  0  0  0
    2.4213    3.6877   -0.2250 C   0  0  0  0  0  0  0  0  0  0  0  0
   -3.1415    0.8269    1.4636 C   0  0  0  0  0  0  0  0  0  0  0  0
   -2.9562    1.2412   -0.9093 C   0  0  0  0  0  0  0  0  0  0  0  0
    2.5565    4.4538   -1.5269 C   0  0  0  0  0  0  0  0  0  0  0  0
   -4.1838    1.7505    1.5436 C   0  0  0  0  0  0  0  0  0  0  0  0
   -3.9984    2.1649   -0.8293 C   0  0  0  0  0  0  0  0  0  0  0  0
   -4.6121    2.4194    0.3971 C   0  0  0  0  0  0  0  0  0  0  0  0
    5.2162    0.3721   -0.4876 C   0  0  0  0  0  0  0  0  0  0  0  0
  1  5  1  0
  1  9  1  0
  2 12  1  0
  2 25  1  0
  3 10  2  0
  4 11  1  0
  4 18  1  0
  5  6  2  0
  5  7  1  0
  6 11  1  0
  6 12  1  0
  7 10  1  0
  7 14  2  0
  8  9  2  0
  8 10  1  0
  8 13  1  0
  9 16  1  0
 12 15  2  0
 13 17  1  0
 14 15  1  0
 16 19  2  0
 16 20  1  0
 18 21  1  0
 19 22  1  0
 20 23  2  0
 22 24  2  0
 23 24  1  0
M  END
>  <PUBCHEM_COMPOUND_CID>  (1) 
49686

>  <PUBCHEM_CONFORMER_RMSD>  (1) 
0.8

>  <PUBCHEM_CONFORMER_DIVERSEORDER>  (1) 
2
7
5
6
4
1
3

>  <PUBCHEM_MMFF94_PARTIAL_CHARGES>  (1) 
31
1 -0.16
10 0.47
11 0.41
12 0.08
13 0.14
14 -0.15
15 -0.15
16 0.03
18 0.27
19 -0.15
2 -0.36
20 -0.15
22 -0.15
23 -0.15
24 -0.15
25 0.28
3 -0.57
30 0.15
31 0.15
32 0.36
38 0.15
39 0.15
4 -0.9
43 0.15
44 0.15
45 0.15
5 0.08
6 -0.14
7 0.09
8 -0.12
9 0.05

>  <PUBCHEM_EFFECTIVE_ROTOR_COUNT>  (1) 
6

>  <PUBCHEM_PHARMACOPHORE_FEATURES>  (1) 
9
1 1 acceptor
1 17 hydrophobe
1 2 acceptor
1 3 acceptor
1 4 cation
1 4 donor
6 1 5 7 8 9 10 rings
6 16 19 20 22 23 24 rings
6 5 6 7 12 14 15 rings

>  <PUBCHEM_HEAVY_ATOM_COUNT>  (1) 
25

>  <PUBCHEM_ATOM_DEF_STEREO_COUNT>  (1) 
0

>  <PUBCHEM_ATOM_UDEF_STEREO_COUNT>  (1) 
0

>  <PUBCHEM_BOND_DEF_STEREO_COUNT>  (1) 
0

>  <PUBCHEM_BOND_UDEF_STEREO_COUNT>  (1) 
0

>  <PUBCHEM_ISOTOPIC_ATOM_COUNT>  (1) 
0

>  <PUBCHEM_COMPONENT_COUNT>  (1) 
1

>  <PUBCHEM_CACTVS_TAUTO_COUNT>  (1) 
1

>  <PUBCHEM_CONFORMER_ID>  (1) 
0000C21600000002

>  <PUBCHEM_MMFF94_ENERGY>  (1) 
71.8635

>  <PUBCHEM_FEATURE_SELFOVERLAP>  (1) 
45.698

>  <PUBCHEM_SHAPE_FINGERPRINT>  (1) 
10871710 139 17760660552266363085
10967382 1 18124593081026033626
11582403 64 16591923385080101517
11725454 13 16953071156145856565
12236239 1 17129286564799170473
12390115 104 18271537432715847026
12403260 363 18266726060311842354
12633257 1 18335972082926768312
12788726 201 17985551302099688807
13140716 1 18268424642299467842
13583140 156 17749105544225411617
14790565 3 18125449609432663616
14955137 171 18190765075583371186
15081414 286 18266748982763408112
151778 21 18336281101329048193
1601671 61 18408887304988442392
18785283 64 18263662709374458985
20739085 24 17979376169593456320
21756936 100 17060070194363792987
22113638 7 18339075969576120189
22907989 373 18057883744032712877
23227448 37 18411697660761340767
23558518 356 18336259162472297419
23559900 14 18125144185807662794
335352 9 18197214755179532606
350125 39 18412266168370762059
474 4 18198339563995162491
5104073 3 18410847746932018754
6371009 1 17833254699510465548
7832392 63 18340764845338056746

>  <PUBCHEM_SHAPE_MULTIPOLES>  (1) 
491.9
8.98
4.95
1.19
0.37
2.17
-0.14
4.73
0.32
1.17
-1.97
-0.91
0.46
-2.04

>  <PUBCHEM_SHAPE_SELFOVERLAP>  (1) 
1058.171

>  <PUBCHEM_SHAPE_VOLUME>  (1) 
272.1

>  <PUBCHEM_COORDINATE_TYPE>  (1) 
2
5
10

$$$$
