4968
     RDKit          3D

 26 28  0  0  1  0  0  0  0  0999 V2000
   -0.8897    0.8998   -1.4666 O   0  0  0  0  0  0  0  0  0  0  0  0
   -4.4285    2.4029   -1.5859 O   0  0  0  0  0  0  0  0  0  0  0  0
   -4.4132    0.1589   -1.1858 O   0  0  0  0  0  0  0  0  0  0  0  0
    1.5711    0.9210    1.4743 O   0  0  0  0  0  0  0  0  0  0  0  0
    4.3815    3.8853    0.8892 O   0  0  0  0  0  0  0  0  0  0  0  0
   -2.2143    0.5084    0.3905 N   0  0  0  0  0  0  0  0  0  0  0  0
    1.0927   -0.3873   -0.3926 N   0  0  0  0  0  0  0  0  0  0  0  0
    3.9171    1.6027    0.6525 N   0  0  0  0  0  0  0  0  0  0  0  0
    1.0124   -4.0179   -1.1659 N   0  0  0  0  0  0  0  0  0  0  0  0
    1.5078   -4.8699    0.8242 N   0  0  0  0  0  0  0  0  0  0  0  0
   -3.1058    1.6454    0.2020 C   0  0  0  0  0  0  0  0  0  0  0  0
   -3.8362    1.7895    1.5319 C   0  0  0  0  0  0  0  0  0  0  0  0
   -2.5301   -0.2100    1.6225 C   0  0  0  0  0  0  0  0  0  0  0  0
   -3.8628    0.3642    2.0786 C   0  0  0  0  0  0  0  0  0  0  0  0
   -0.2080   -0.8420    0.0066 C   0  0  0  0  0  0  0  0  0  0  0  0
   -1.1243    0.2721   -0.4326 C   0  0  0  0  0  0  0  0  0  0  0  0
    3.1988    0.7584   -0.2595 C   0  0  0  0  0  0  0  0  0  0  0  0
   -0.6126   -2.1517   -0.6583 C   0  0  0  0  0  0  0  0  0  0  0  0
    3.0692    1.6057   -1.5110 C   0  0  0  0  0  0  0  0  0  0  0  0
   -4.0434    1.2912   -0.9128 C   0  0  0  0  0  0  0  0  0  0  0  0
    1.8794    0.4611    0.3779 C   0  0  0  0  0  0  0  0  0  0  0  0
    3.1039    3.0451   -0.9979 C   0  0  0  0  0  0  0  0  0  0  0  0
    3.8939    2.9435    0.2839 C   0  0  0  0  0  0  0  0  0  0  0  0
    0.2981   -3.2880   -0.2581 C   0  0  0  0  0  0  0  0  0  0  0  0
    0.6199   -3.8327    0.9628 C   0  0  0  0  0  0  0  0  0  0  0  0
    1.7232   -4.9556   -0.4698 C   0  0  0  0  0  0  0  0  0  0  0  0
  1 16  2  0
  2 20  1  0
  3 20  2  0
  4 21  2  0
  5 23  2  0
  6 11  1  0
  6 13  1  0
  6 16  1  0
  7 15  1  0
  7 21  1  0
  8 17  1  0
  8 23  1  0
  9 24  1  0
  9 26  1  0
 10 25  1  0
 10 26  2  0
 11 12  1  0
 11 20  1  0
 12 14  1  0
 13 14  1  0
 15 16  1  0
 15 18  1  0
 17 19  1  0
 17 21  1  0
 18 24  1  0
 19 22  1  0
 22 23  1  0
 24 25  2  0
M  END
>  <PUBCHEM_COMPOUND_CID>  (1) 
4968

>  <PUBCHEM_CONFORMER_RMSD>  (1) 
1.2

>  <PUBCHEM_CONFORMER_DIVERSEORDER>  (1) 
1
398
194
532
63
356
17
224
685
274
121
659
271
490
313
10
669
145
172
197
423
129
198
350
523
182
215
37
114
36
574
97
91
658
406
175
40
518
578
289
174
62
18
297
60
380
185
557
464
667
357
562
646
699
211
131
95
42
644
569
572
52
19
28
265
328
8
126
257
20
192
71
270
430
75
64
468
21
191
545
693
30
621
604
93
446
103
649
437
243
472
263
351
22
495
323
461
176
98
6
35
78
169
632
48
481
82
337
130
3
584
598
372
38
443
720
163
317
96
688
186
623
85
642
221
255
152
47
631
122
33
511
287
106
691
353
120
369
125
12
43
157
442
570
49
282
55
27
124
170
149
111
14
9
654
309
210
244
284
23
140
181
448
260
46
417
99
218
499
57
2
90
311
327
453
83
32
92
550
150
365
520
53
167
373
227
709
4
325
7
154
418
101
76
664
332
115
94
564
387
607
361
482
116
148
413
31
208
16
26
202

>  <PUBCHEM_MMFF94_PARTIAL_CHARGES>  (1) 
29
1 -0.57
10 -0.57
11 0.36
13 0.3
15 0.36
16 0.57
17 0.36
18 0.18
2 -0.65
20 0.66
21 0.57
22 0.06
23 0.57
24 -0.33
25 0.08
26 0.04
3 -0.57
4 -0.57
40 0.37
43 0.37
44 0.5
45 0.27
46 0.15
47 0.15
5 -0.57
6 -0.66
7 -0.73
8 -0.73
9 0.03

>  <PUBCHEM_EFFECTIVE_ROTOR_COUNT>  (1) 
9.8

>  <PUBCHEM_PHARMACOPHORE_FEATURES>  (1) 
13
1 1 acceptor
1 2 acceptor
1 3 acceptor
1 4 acceptor
1 5 acceptor
1 7 donor
1 8 donor
1 9 donor
3 2 3 20 anion
3 9 10 26 cation
5 6 11 12 13 14 rings
5 8 17 19 22 23 rings
5 9 10 24 25 26 rings

>  <PUBCHEM_HEAVY_ATOM_COUNT>  (1) 
26

>  <PUBCHEM_ATOM_DEF_STEREO_COUNT>  (1) 
0

>  <PUBCHEM_ATOM_UDEF_STEREO_COUNT>  (1) 
3

>  <PUBCHEM_BOND_DEF_STEREO_COUNT>  (1) 
0

>  <PUBCHEM_BOND_UDEF_STEREO_COUNT>  (1) 
0

>  <PUBCHEM_ISOTOPIC_ATOM_COUNT>  (1) 
0

>  <PUBCHEM_COMPONENT_COUNT>  (1) 
1

>  <PUBCHEM_CACTVS_TAUTO_COUNT>  (1) 
12

>  <PUBCHEM_CONFORMER_ID>  (1) 
0000136800000001

>  <PUBCHEM_MMFF94_ENERGY>  (1) 
50.9207

>  <PUBCHEM_FEATURE_SELFOVERLAP>  (1) 
66.028

>  <PUBCHEM_SHAPE_FINGERPRINT>  (1) 
121448 382 18198901607541757317
12160290 23 17912083064233698798
12173636 292 18268999854420857580
12549972 3 17462588117075031201
12553582 1 17548145428853229175
12788726 201 17836910571119072254
13004483 165 17471860675935157850
13134695 92 17832711171071583111
13140716 1 18411427215070833018
133893 2 18197775505829642743
13590594 115 17258217363640250857
13681431 1 17908707228423592826
13955234 65 18265902367320379515
14251757 5 17616811471389111102
14856354 85 16371291155619210552
14955137 171 18265338296718766810
15463212 79 18194108840551028816
15842332 3 17702100266939607433
1813 80 17408247967038559471
18785283 64 18264503814131269402
20600515 1 16970790150266412114
21033648 29 18338795723060906656
21120745 212 17041784542330253149
21304303 282 17908389766279464390
2132832 1 17553469298524955201
23366157 5 18264772056366462351
23557571 272 17622162786482236876
23559900 14 18048306757257577393
283562 15 18125718135330941943
3729539 64 17977985352384018022
458136 41 18339380585999677859
59755656 520 18269569397592222224
633830 44 17845392010441857737
6442390 28 18196111025234021315
81228 2 17766559431758939107
9981440 41 18335975445991890401

>  <PUBCHEM_SHAPE_MULTIPOLES>  (1) 
480.82
8.2
6.28
1.6
3.61
9.49
0.16
-10.74
0.39
-7.55
-0.05
1.26
-0.52
0.69

>  <PUBCHEM_SHAPE_SELFOVERLAP>  (1) 
1022.825

>  <PUBCHEM_SHAPE_VOLUME>  (1) 
269.3

>  <PUBCHEM_COORDINATE_TYPE>  (1) 
2
5
10

$$$$
