49698
     RDKit          3D

 27 30  0  0  0  0  0  0  0  0999 V2000
   -4.7684    3.3171   -0.0290 O   0  0  0  0  0  0  0  0  0  0  0  0
    2.2357   -0.8477   -0.6282 O   0  0  0  0  0  0  0  0  0  0  0  0
   -3.5888   -2.8955    0.4813 O   0  0  0  0  0  0  0  0  0  0  0  0
    3.6005    1.9571    1.9865 O   0  0  0  0  0  0  0  0  0  0  0  0
   -3.3970    0.9565   -0.8340 N   0  0  0  0  0  0  0  0  0  0  0  0
   -3.6074    1.2769    0.5847 C   0  0  0  0  0  0  0  0  0  0  0  0
   -4.4783    1.5320   -1.6458 C   0  0  0  0  0  0  0  0  0  0  0  0
   -3.3122   -0.4890   -1.0324 C   0  0  0  0  0  0  0  0  0  0  0  0
   -3.7055    2.7891    0.7653 C   0  0  0  0  0  0  0  0  0  0  0  0
   -4.5547    3.0382   -1.4132 C   0  0  0  0  0  0  0  0  0  0  0  0
   -2.1862   -1.1015   -0.2668 C   0  0  0  0  0  0  0  0  0  0  0  0
   -0.9355   -0.4839   -0.2812 C   0  0  0  0  0  0  0  0  0  0  0  0
   -2.3741   -2.2793    0.4566 C   0  0  0  0  0  0  0  0  0  0  0  0
    0.1274   -1.0437    0.4281 C   0  0  0  0  0  0  0  0  0  0  0  0
    1.4454   -0.3932    0.4135 C   0  0  0  0  0  0  0  0  0  0  0  0
   -1.3113   -2.8392    1.1657 C   0  0  0  0  0  0  0  0  0  0  0  0
   -0.0608   -2.2215    1.1515 C   0  0  0  0  0  0  0  0  0  0  0  0
    1.8106    0.5368    1.3189 C   0  0  0  0  0  0  0  0  0  0  0  0
    4.0176    0.6233    0.0979 C   0  0  0  0  0  0  0  0  0  0  0  0
    3.1809    1.1146    1.2031 C   0  0  0  0  0  0  0  0  0  0  0  0
    3.4978   -0.3360   -0.7649 C   0  0  0  0  0  0  0  0  0  0  0  0
    0.9712    1.0732    2.4426 C   0  0  0  0  0  0  0  0  0  0  0  0
    5.3145    1.1093   -0.0885 C   0  0  0  0  0  0  0  0  0  0  0  0
    4.2702   -0.8174   -1.8224 C   0  0  0  0  0  0  0  0  0  0  0  0
   -3.8423   -3.8689   -0.5299 C   0  0  0  0  0  0  0  0  0  0  0  0
    6.0861    0.6272   -1.1467 C   0  0  0  0  0  0  0  0  0  0  0  0
    5.5648   -0.3345   -2.0126 C   0  0  0  0  0  0  0  0  0  0  0  0
  1  9  1  0
  1 10  1  0
  2 15  1  0
  2 21  1  0
  3 13  1  0
  3 25  1  0
  4 20  2  0
  5  6  1  0
  5  7  1  0
  5  8  1  0
  6  9  1  0
  7 10  1  0
  8 11  1  0
 11 12  2  0
 11 13  1  0
 12 14  1  0
 13 16  2  0
 14 15  1  0
 14 17  2  0
 15 18  2  0
 16 17  1  0
 18 20  1  0
 18 22  1  0
 19 20  1  0
 19 21  2  0
 19 23  1  0
 21 24  1  0
 23 26  2  0
 24 27  2  0
 26 27  1  0
M  END
>  <PUBCHEM_COMPOUND_CID>  (1) 
49698

>  <PUBCHEM_CONFORMER_RMSD>  (1) 
0.8

>  <PUBCHEM_CONFORMER_DIVERSEORDER>  (1) 
1
28
22
27
4
12
10
18
9
25
19
26
20
15
23
16
13
17
7
24
14
5
11
8
6
3
21
2

>  <PUBCHEM_MMFF94_PARTIAL_CHARGES>  (1) 
34
1 -0.56
10 0.28
11 -0.14
12 -0.15
13 0.08
14 0.03
15 0.05
16 -0.15
17 -0.15
18 -0.12
19 0.09
2 -0.16
20 0.47
21 0.08
22 0.14
23 -0.15
24 -0.15
25 0.28
26 -0.15
27 -0.15
3 -0.36
38 0.15
39 0.15
4 -0.57
40 0.15
44 0.15
45 0.15
49 0.15
5 -0.81
50 0.15
6 0.27
7 0.27
8 0.41
9 0.28

>  <PUBCHEM_EFFECTIVE_ROTOR_COUNT>  (1) 
5.2

>  <PUBCHEM_PHARMACOPHORE_FEATURES>  (1) 
9
1 1 acceptor
1 2 acceptor
1 3 acceptor
1 4 acceptor
1 5 cation
6 1 5 6 7 9 10 rings
6 11 12 13 14 16 17 rings
6 19 21 23 24 26 27 rings
6 2 15 18 19 20 21 rings

>  <PUBCHEM_HEAVY_ATOM_COUNT>  (1) 
27

>  <PUBCHEM_ATOM_DEF_STEREO_COUNT>  (1) 
0

>  <PUBCHEM_ATOM_UDEF_STEREO_COUNT>  (1) 
0

>  <PUBCHEM_BOND_DEF_STEREO_COUNT>  (1) 
0

>  <PUBCHEM_BOND_UDEF_STEREO_COUNT>  (1) 
0

>  <PUBCHEM_ISOTOPIC_ATOM_COUNT>  (1) 
0

>  <PUBCHEM_COMPONENT_COUNT>  (1) 
1

>  <PUBCHEM_CACTVS_TAUTO_COUNT>  (1) 
1

>  <PUBCHEM_CONFORMER_ID>  (1) 
0000C22200000001

>  <PUBCHEM_MMFF94_ENERGY>  (1) 
88.1576

>  <PUBCHEM_FEATURE_SELFOVERLAP>  (1) 
45.701

>  <PUBCHEM_SHAPE_FINGERPRINT>  (1) 
10165383 225 18337687304176477681
10498660 4 18338220575737526505
105312 117 18335424530209511829
10670039 82 18259702281054163732
11049842 53 18116693154753425242
11331351 85 17769664423628753427
11796584 16 18409451354765202070
1200032 147 17972044630608140521
12236239 1 16009577127095343090
12390115 104 18334020458519773311
12788726 201 18042956748494458171
12954195 1 18410857685417632663
13540713 5 17968638450769594859
13617811 41 18043249252688838815
13690498 29 18200038485222134598
13944108 23 17258216264113104077
14251757 17 18202566185133748466
14294032 229 18186801362578692541
14341114 328 15719688571033261053
14347329 18 18334294245294508288
14713325 29 18335153015542172027
14840074 17 17313392179803127917
14848178 5 12967122783721319516
14931854 50 17987224548408005213
15183329 4 17632015234910473204
15575132 122 17896320208236134085
15961568 22 17615118219282528288
17844677 252 18263932197265842084
18608769 82 18410017663155766891
20645477 70 17559685117240623530
21033648 29 18130220562378791586
21033650 10 18187652457060363114
21133410 62 18053681187480700201
21279426 13 18270691874742504558
21756936 100 16588037826672199508
221357 26 17847056692679142833
22182313 1 17916579976886848016
22393880 68 18272088322876049726
23557571 272 18265614466914507070
23569914 152 17052758270504213204
283562 15 18188205520205427379
38570 142 17986681359720100985
4058900 60 17977391534479690121
4258327 124 17458349654363132637
46194498 28 18056481892371574204
469060 322 17895204341772814427
508706 21 18411414046722026889
5252454 2 18189047612624730909
5281201 14 18200600331711117492
5283173 99 18411987974896582956
57527295 17 18202276974916202006
5895379 119 18187652465676801564
59755656 520 18201171953409238339
7399639 24 17698994407961854730
7808743 9 18187364307293082653
9849439 229 18117821228124734901

>  <PUBCHEM_SHAPE_MULTIPOLES>  (1) 
527.19
12.8
3.74
1.87
8.78
0.97
-0.2
-6.59
6.58
-8.15
-0.3
1.36
-0.59
1.81

>  <PUBCHEM_SHAPE_SELFOVERLAP>  (1) 
1149.169

>  <PUBCHEM_SHAPE_VOLUME>  (1) 
286.9

>  <PUBCHEM_COORDINATE_TYPE>  (1) 
2
5
10

$$$$
