497
     RDKit          3D

 16 17  0  0  1  0  0  0  0  0999 V2000
   -1.2183   -1.0693   -1.2924 S   0  0  0  0  0  0  0  0  0  0  0  0
   -5.4764    0.9358   -0.5315 O   0  0  0  0  0  0  0  0  0  0  0  0
    5.5265    0.0656    1.3162 O   0  0  0  0  0  0  0  0  0  0  0  0
   -3.2378    1.2788    0.0690 N   0  0  0  0  0  0  0  0  0  0  0  0
   -4.1338   -0.7663    0.3572 N   0  0  0  0  0  0  0  0  0  0  0  0
    6.4972    0.0022   -0.7660 N   0  0  0  0  0  0  0  0  0  0  0  0
   -2.1552    0.4954    0.6365 C   0  0  0  0  0  0  0  0  0  0  0  0
   -2.7741   -0.9030    0.8420 C   0  0  0  0  0  0  0  0  0  0  0  0
   -0.9496    0.4322   -0.3068 C   0  0  0  0  0  0  0  0  0  0  0  0
   -1.9981   -1.9614    0.0705 C   0  0  0  0  0  0  0  0  0  0  0  0
    0.3667    0.3264    0.4572 C   0  0  0  0  0  0  0  0  0  0  0  0
    1.5652    0.3023   -0.4917 C   0  0  0  0  0  0  0  0  0  0  0  0
   -4.4095    0.5305   -0.0904 C   0  0  0  0  0  0  0  0  0  0  0  0
    2.8810    0.1674    0.2809 C   0  0  0  0  0  0  0  0  0  0  0  0
    4.0959    0.1124   -0.6441 C   0  0  0  0  0  0  0  0  0  0  0  0
    5.4205    0.0509    0.0935 C   0  0  0  0  0  0  0  0  0  0  0  0
  1  9  1  0
  1 10  1  0
  2 13  2  0
  3 16  2  0
  4  7  1  0
  4 13  1  0
  5  8  1  0
  5 13  1  0
  6 16  1  0
  7  8  1  0
  7  9  1  0
  8 10  1  0
  9 11  1  0
 11 12  1  0
 12 14  1  0
 14 15  1  0
 15 16  1  0
M  END
>  <PUBCHEM_COMPOUND_CID>  (1) 
497

>  <PUBCHEM_CONFORMER_RMSD>  (1) 
0.8

>  <PUBCHEM_CONFORMER_DIVERSEORDER>  (1) 
1
164
112
138
150
133
10
81
24
130
65
8
153
84
154
2
134
7
79
29
51
15
92
64
54
155
19
96
146
28
83
56
107
62
170
157
105
152
94
143
158
147
13
20
70
48
27
82
5
173
100
148
125
159
104
3
113
102
9
18
110
156
162
76
16
17
45
52
34
95
23
97
35
116
101
77
151
46
114
47
124
106
120
49
75
163
59
161
90
117
99
58
72
67
103
21
160
33
141
40
111
38
165
132
63
168
136
4
71
139
80
74
118
31
109
144
53
41
86
119
14
66
12
91
43
142
145
25
149
22
37
55
167
44
172
6
128
11
39
78
171
140
42
88
85
68
36
26
108
169
30
135
69
73
89
93
57
122
61
60
32
87
123
98
166
50
129
121
115
126
127
131
137

>  <PUBCHEM_MMFF94_PARTIAL_CHARGES>  (1) 
17
1 -0.46
10 0.23
13 0.69
15 0.06
16 0.57
2 -0.57
24 0.37
25 0.37
3 -0.57
32 0.37
33 0.37
4 -0.73
5 -0.73
6 -0.8
7 0.3
8 0.3
9 0.23

>  <PUBCHEM_EFFECTIVE_ROTOR_COUNT>  (1) 
6

>  <PUBCHEM_PHARMACOPHORE_FEATURES>  (1) 
8
1 2 acceptor
1 3 acceptor
1 4 donor
1 5 donor
1 6 donor
4 11 12 14 15 hydrophobe
5 1 7 8 9 10 rings
5 4 5 7 8 13 rings

>  <PUBCHEM_HEAVY_ATOM_COUNT>  (1) 
16

>  <PUBCHEM_ATOM_DEF_STEREO_COUNT>  (1) 
0

>  <PUBCHEM_ATOM_UDEF_STEREO_COUNT>  (1) 
3

>  <PUBCHEM_BOND_DEF_STEREO_COUNT>  (1) 
0

>  <PUBCHEM_BOND_UDEF_STEREO_COUNT>  (1) 
0

>  <PUBCHEM_ISOTOPIC_ATOM_COUNT>  (1) 
0

>  <PUBCHEM_COMPONENT_COUNT>  (1) 
1

>  <PUBCHEM_CACTVS_TAUTO_COUNT>  (1) 
6

>  <PUBCHEM_CONFORMER_ID>  (1) 
000001F100000001

>  <PUBCHEM_MMFF94_ENERGY>  (1) 
31.9687

>  <PUBCHEM_FEATURE_SELFOVERLAP>  (1) 
41.17

>  <PUBCHEM_SHAPE_FINGERPRINT>  (1) 
10014705 185 17703783756179499940
11315181 36 18130794473083659576
12236239 1 17676206879373621240
124424 183 17775568658301105696
13533116 47 17346039953297815470
14123238 8 13686299075889142680
14251718 22 10807933769549651852
14251731 8 18410856568245561420
14251764 18 18040715857907461313
15048467 5 16732700528441419565
15242439 84 18201720656650326192
15375358 24 17632582651835344302
17834072 33 18041283252840933940
17834072 8 18342740715172651548
17834076 25 16588025710179080345
187816 3 16989124245193832593
19489759 90 18273496758236392105
200 152 16153423965350183508
20279233 1 17203336619449901702
20645477 70 16056328220090449900
220451 1 17022624178464681034
23402539 116 18343577447911406085
23557571 272 18200603497334766692
23559900 14 18272083941729670808
300161 21 18186799201893520576
42788 4 18186804686282011892
542803 24 16805323305957972868
559249 180 18260544532636034427

>  <PUBCHEM_SHAPE_MULTIPOLES>  (1) 
306.44
13.47
1.22
1
17.56
0.45
0
-1.9
0.07
-1.47
0.04
0.27
0.13
0.43

>  <PUBCHEM_SHAPE_SELFOVERLAP>  (1) 
609.711

>  <PUBCHEM_SHAPE_VOLUME>  (1) 
183.7

>  <PUBCHEM_COORDINATE_TYPE>  (1) 
2
5
10

$$$$
