49712
     RDKit          3D

 19 20  0  0  0  0  0  0  0  0999 V2000
    0.4130    1.2837    0.5604 O   0  0  0  0  0  0  0  0  0  0  0  0
   -0.0854    1.2709   -1.6980 O   0  0  0  0  0  0  0  0  0  0  0  0
    3.6676   -0.3039   -0.1280 N   0  0  0  0  0  0  0  0  0  0  0  0
   -1.8480    1.3375   -0.1195 C   0  0  0  0  0  0  0  0  0  0  0  0
   -2.6732    2.4597   -0.6711 C   0  0  0  0  0  0  0  0  0  0  0  0
   -2.2666    2.4655    0.7733 C   0  0  0  0  0  0  0  0  0  0  0  0
   -2.4913    0.0122    0.0672 C   0  0  0  0  0  0  0  0  0  0  0  0
   -0.4190    1.2939   -0.5220 C   0  0  0  0  0  0  0  0  0  0  0  0
   -3.1214   -0.6206   -1.0078 C   0  0  0  0  0  0  0  0  0  0  0  0
   -2.4682   -0.6101    1.3182 C   0  0  0  0  0  0  0  0  0  0  0  0
    1.8040    1.2419    0.2701 C   0  0  0  0  0  0  0  0  0  0  0  0
   -3.7236   -1.8666   -0.8329 C   0  0  0  0  0  0  0  0  0  0  0  0
   -3.0703   -1.8561    1.4931 C   0  0  0  0  0  0  0  0  0  0  0  0
    2.2424   -0.2116    0.1872 C   0  0  0  0  0  0  0  0  0  0  0  0
   -3.6980   -2.4843    0.4175 C   0  0  0  0  0  0  0  0  0  0  0  0
    4.0748   -1.7033   -0.2479 C   0  0  0  0  0  0  0  0  0  0  0  0
    4.4624    0.3739    0.8955 C   0  0  0  0  0  0  0  0  0  0  0  0
    3.2588   -2.4237   -1.3078 C   0  0  0  0  0  0  0  0  0  0  0  0
    5.9421    0.3410    0.5527 C   0  0  0  0  0  0  0  0  0  0  0  0
  1  8  1  0
  1 11  1  0
  2  8  2  0
  3 14  1  0
  3 16  1  0
  3 17  1  0
  4  5  1  0
  4  6  1  0
  4  7  1  0
  4  8  1  0
  5  6  1  0
  7  9  2  0
  7 10  1  0
  9 12  1  0
 10 13  2  0
 11 14  1  0
 12 15  2  0
 13 15  1  0
 16 18  1  0
 17 19  1  0
M  END
>  <PUBCHEM_COMPOUND_CID>  (1) 
49712

>  <PUBCHEM_CONFORMER_RMSD>  (1) 
0.8

>  <PUBCHEM_CONFORMER_DIVERSEORDER>  (1) 
2
165
186
272
231
299
213
140
145
136
170
201
108
276
264
177
221
284
79
226
239
304
78
194
290
199
28
160
49
14
275
110
210
129
44
120
256
10
33
124
150
217
162
176
250
157
182
139
109
36
191
168
260
214
52
55
135
240
89
306
98
116
298
146
106
281
198
244
179
71
248
97
175
309
287
296
258
254
24
206
27
307
257
293
86
263
81
190
225
205
207
286
196
208
58
266
233
161
83
133
92
311
166
51
6
212
21
277
142
143
105
101
76
65
234
7
95
317
5
159
126
295
259
178
61
123
262
25
322
72
313
195
62
68
103
292
16
171
90
243
40
131
200
147
151
85
241
232
63
12
300
8
122
183
267
197
252
173
42
310
223
235
67
209
152
87
80
20
94
219
303
53
320
77
215
54
167
181
32
50
271
127
22
236
29
279
305
17
163
128
69
318
224
117
148
19
111
222
104
192
34
130
153
216
48
184
75
100
45
30
246
185
321
102
229
253
172
64
46
38
26
88
316
312
132
37
189
273
91
319
291
280
193
251
57
211
144
73
66
283
155
113
43
180
107
3
59
60
285
169
202
11
154
289
121
302
247
41
23
282
35
141
82
270
308
301
265
70
31
149
93
288
13
158
137
119
278
99
164
1
274
156
18
203
114
315
138
4
218
112
9
115
220
187
294
269
125
261
15
237
56
118
174
255
204
297
230
39
96
238
242
245
227
84
249
134
268
74
228
314
47
188

>  <PUBCHEM_MMFF94_PARTIAL_CHARGES>  (1) 
26
1 -0.43
10 -0.15
11 0.28
12 -0.15
13 -0.15
14 0.27
15 -0.15
16 0.27
17 0.27
2 -0.57
20 0.1
21 0.1
22 0.1
23 0.1
24 0.15
25 0.15
28 0.15
29 0.15
3 -0.81
32 0.15
4 0.03
5 -0.2
6 -0.2
7 -0.03
8 0.72
9 -0.15

>  <PUBCHEM_EFFECTIVE_ROTOR_COUNT>  (1) 
8.6

>  <PUBCHEM_PHARMACOPHORE_FEATURES>  (1) 
3
1 2 acceptor
1 3 cation
6 7 9 10 12 13 15 rings

>  <PUBCHEM_HEAVY_ATOM_COUNT>  (1) 
19

>  <PUBCHEM_ATOM_DEF_STEREO_COUNT>  (1) 
0

>  <PUBCHEM_ATOM_UDEF_STEREO_COUNT>  (1) 
0

>  <PUBCHEM_BOND_DEF_STEREO_COUNT>  (1) 
0

>  <PUBCHEM_BOND_UDEF_STEREO_COUNT>  (1) 
0

>  <PUBCHEM_ISOTOPIC_ATOM_COUNT>  (1) 
0

>  <PUBCHEM_COMPONENT_COUNT>  (1) 
1

>  <PUBCHEM_CACTVS_TAUTO_COUNT>  (1) 
1

>  <PUBCHEM_CONFORMER_ID>  (1) 
0000C23000000002

>  <PUBCHEM_MMFF94_ENERGY>  (1) 
38.0653

>  <PUBCHEM_FEATURE_SELFOVERLAP>  (1) 
15.223

>  <PUBCHEM_SHAPE_FINGERPRINT>  (1) 
11370993 144 17845103873922924298
11405975 8 18197216949891360138
11552529 35 17775565346791896547
121448 382 17095520699442040314
12346177 29 18261952951333589309
12363563 72 18261397809667602867
12553582 1 18266757945995950311
12596599 1 17749118776645181918
12633257 1 16414646002439280907
13135754 10 17608410936749779209
13544653 18 18413109493419818998
13583140 156 17704060794566166632
13911882 115 18272377490482007334
14289901 80 18201997733670365488
17357779 13 18335693987936618215
1813 80 17895486894105834125
193927 3 18261119620203743115
20403669 9 18335422399790240563
20671657 53 17241324810482320069
20681651 13 16558448838765126414
20693207 138 18124043338766746686
21673915 165 18343017813673042398
221490 88 18199754657325797918
23402539 116 16588020183052211452
23557571 272 18261948562272937636
23559900 14 18337658832253333545
463206 1 18049159174922335555
4921388 177 18187088303967258090
5104073 3 18270675373451559266
5281201 14 10737582587609370786
5924683 9 18413102857806097107
90127 26 17203608139014706176
9709674 26 18340205194035173558

>  <PUBCHEM_SHAPE_MULTIPOLES>  (1) 
374.29
10.27
2.94
1.29
13.94
0.26
0.04
4.42
-1.28
-2.41
0.3
-0.5
0.28
1.29

>  <PUBCHEM_SHAPE_SELFOVERLAP>  (1) 
765.536

>  <PUBCHEM_SHAPE_VOLUME>  (1) 
218.7

>  <PUBCHEM_COORDINATE_TYPE>  (1) 
2
5
10

$$$$
