49715
     RDKit          3D

 26 29  0  0  1  0  0  0  0  0999 V2000
    1.1179    4.4759   -1.0594 Cl  0  0  0  0  0  0  0  0  0  0  0  0
   -1.8442   -2.9212   -0.0124 O   0  0  0  0  0  0  0  0  0  0  0  0
   -4.1139   -0.2969    0.0440 O   0  0  0  0  0  0  0  0  0  0  0  0
   -5.5885   -0.3821    1.8205 O   0  0  0  0  0  0  0  0  0  0  0  0
    1.0060   -1.6792   -0.9236 N   0  0  0  0  0  0  0  0  0  0  0  0
   -1.7886   -0.5928    0.1526 N   0  0  0  0  0  0  0  0  0  0  0  0
    1.1359   -0.6502    0.1343 C   0  0  0  0  0  0  0  0  0  0  0  0
    1.9761   -1.4638   -2.0054 C   0  0  0  0  0  0  0  0  0  0  0  0
    2.5801   -0.4452    0.5891 C   0  0  0  0  0  0  0  0  0  0  0  0
    3.4026   -1.6331   -1.4840 C   0  0  0  0  0  0  0  0  0  0  0  0
    0.3512    0.6330   -0.1705 C   0  0  0  0  0  0  0  0  0  0  0  0
    3.6542   -0.8807   -0.2060 C   0  0  0  0  0  0  0  0  0  0  0  0
   -0.3459   -1.7829   -1.4764 C   0  0  0  0  0  0  0  0  0  0  0  0
   -1.0643    0.6299   -0.0675 C   0  0  0  0  0  0  0  0  0  0  0  0
   -1.3755   -1.8347   -0.3604 C   0  0  0  0  0  0  0  0  0  0  0  0
    2.8481    0.1893    1.8146 C   0  0  0  0  0  0  0  0  0  0  0  0
    1.0048    1.8320   -0.5097 C   0  0  0  0  0  0  0  0  0  0  0  0
    4.9703   -0.6760    0.2312 C   0  0  0  0  0  0  0  0  0  0  0  0
   -1.7606    1.8452   -0.1864 C   0  0  0  0  0  0  0  0  0  0  0  0
   -3.0206   -0.5300    0.9350 C   0  0  0  0  0  0  0  0  0  0  0  0
    4.1613    0.3963    2.2355 C   0  0  0  0  0  0  0  0  0  0  0  0
    5.2216   -0.0345    1.4433 C   0  0  0  0  0  0  0  0  0  0  0  0
    0.2907    3.0191   -0.6644 C   0  0  0  0  0  0  0  0  0  0  0  0
   -1.0867    3.0292   -0.4848 C   0  0  0  0  0  0  0  0  0  0  0  0
   -5.3446   -0.2475    0.6290 C   0  0  0  0  0  0  0  0  0  0  0  0
   -6.3874    0.0009   -0.4184 C   0  0  0  0  0  0  0  0  0  0  0  0
  1 23  1  0
  2 15  2  0
  3 20  1  0
  3 25  1  0
  4 25  2  0
  5  7  1  0
  5  8  1  0
  5 13  1  0
  6 14  1  0
  6 15  1  0
  6 20  1  0
  7  9  1  0
  7 11  1  0
  8 10  1  0
  9 12  2  0
  9 16  1  0
 10 12  1  0
 11 14  2  0
 11 17  1  0
 12 18  1  0
 13 15  1  0
 14 19  1  0
 16 21  2  0
 17 23  2  0
 18 22  2  0
 19 24  2  0
 21 22  1  0
 23 24  1  0
 25 26  1  0
M  END
>  <PUBCHEM_COMPOUND_CID>  (1) 
49715

>  <PUBCHEM_CONFORMER_RMSD>  (1) 
0.8

>  <PUBCHEM_CONFORMER_DIVERSEORDER>  (1) 
1
17
15
6
9
19
20
22
4
18
16
5
14
7
13
2
12
11
3
21
8
10

>  <PUBCHEM_MMFF94_PARTIAL_CHARGES>  (1) 
33
1 -0.18
10 0.14
11 -0.14
12 -0.14
13 0.33
14 0.12
15 0.57
16 -0.15
17 -0.15
18 -0.15
19 -0.15
2 -0.57
20 0.58
21 -0.15
22 -0.15
23 0.18
24 -0.15
25 0.66
26 0.06
3 -0.43
34 0.15
35 0.15
36 0.15
37 0.15
4 -0.57
40 0.15
41 0.15
42 0.15
5 -0.81
6 -0.48
7 0.56
8 0.27
9 -0.14

>  <PUBCHEM_EFFECTIVE_ROTOR_COUNT>  (1) 
3.8

>  <PUBCHEM_PHARMACOPHORE_FEATURES>  (1) 
7
1 2 acceptor
1 4 acceptor
1 5 cation
6 11 14 17 19 23 24 rings
6 5 7 8 9 10 12 rings
6 9 12 16 18 21 22 rings
7 5 6 7 11 13 14 15 rings

>  <PUBCHEM_HEAVY_ATOM_COUNT>  (1) 
26

>  <PUBCHEM_ATOM_DEF_STEREO_COUNT>  (1) 
0

>  <PUBCHEM_ATOM_UDEF_STEREO_COUNT>  (1) 
1

>  <PUBCHEM_BOND_DEF_STEREO_COUNT>  (1) 
0

>  <PUBCHEM_BOND_UDEF_STEREO_COUNT>  (1) 
0

>  <PUBCHEM_ISOTOPIC_ATOM_COUNT>  (1) 
0

>  <PUBCHEM_COMPONENT_COUNT>  (1) 
1

>  <PUBCHEM_CACTVS_TAUTO_COUNT>  (1) 
1

>  <PUBCHEM_CONFORMER_ID>  (1) 
0000C23300000001

>  <PUBCHEM_MMFF94_ENERGY>  (1) 
86.2812

>  <PUBCHEM_FEATURE_SELFOVERLAP>  (1) 
35.566

>  <PUBCHEM_SHAPE_FINGERPRINT>  (1) 
10006869 2 18121765154752768043
10165383 225 17703505580375944024
10906281 52 18337972137474676693
1100329 8 18262236745571501907
11646440 116 18341901796859929619
11796584 16 16805329885821867563
12035758 1 18410295822201304459
12236239 1 16877665643020983994
12403259 226 17839752469332168350
12422481 6 18272082811968245985
12553582 1 18334852835697582678
12633257 1 18262233430099517623
12788726 201 18041007202191900264
12895837 130 13468682734235690186
13140716 1 18267581501679880587
133893 2 17610046129135253292
13540713 5 18051977223365977519
13782708 43 17986676969978694654
14022347 108 18334307443628684610
14170010 4 18273217496006316507
14790565 3 17471017350580580580
15238133 3 17894635829393762415
15420108 30 17840017778073140356
15840311 113 17202782393186936665
17357779 13 18341608162472348029
17980427 23 18057874934564139253
1813 80 18408611348443443737
18222031 100 18410578379272234083
18785283 64 18190752023251910709
200 152 15140678068624021234
20600515 1 18411141354652626281
21033648 29 18059277795679930953
21285901 2 18270973327489894702
21756936 100 15194700438298966162
22149856 69 17558857163985560067
22182313 1 18269551641891342517
23366157 5 17680430253585828149
23557571 272 18339084779002080036
23559900 14 18129115552660107484
23845131 108 17332810448476930337
24771293 8 18272930540045161993
25147074 1 18053098712251671447
2748010 2 18197498415629361228
3187 122 18262791874606177132
3411729 13 18044383952688161180
34934 24 18192156107926881492
3524813 1 18060133207252306954
4340502 62 16917066680762161991
5104073 3 18117859891883726587
5283268 108 18409455768988963672
57527293 21 18196627766467566874
621550 34 18131065987941520430
69474 34 18409442617936162489
7495541 125 17676497189425178851
81228 2 18266471926922663448
90316 7 18336531773158196048
9658208 31 17691696580053662101
9841814 1 18114187466226448761

>  <PUBCHEM_SHAPE_MULTIPOLES>  (1) 
509.37
10.39
3.43
1.65
10.07
4.48
-0.31
-3.68
-5.15
-0.15
1.95
-1.39
-0.35
0.8

>  <PUBCHEM_SHAPE_SELFOVERLAP>  (1) 
1099.882

>  <PUBCHEM_SHAPE_VOLUME>  (1) 
276.5

>  <PUBCHEM_COORDINATE_TYPE>  (1) 
2
5
10

$$$$
