49714
     RDKit          3D

 21 23  0  0  0  0  0  0  0  0999 V2000
    0.5194    0.9270    0.1433 O   0  0  0  0  0  0  0  0  0  0  0  0
    1.8260    2.0971   -1.3642 O   0  0  0  0  0  0  0  0  0  0  0  0
   -6.5600   -1.4095    0.1231 O   0  0  0  0  0  0  0  0  0  0  0  0
   -4.2842    0.2966    0.0150 N   0  0  0  0  0  0  0  0  0  0  0  0
    2.8500    1.0644    0.5033 C   0  0  0  0  0  0  0  0  0  0  0  0
    3.6917    2.1919    1.0184 C   0  0  0  0  0  0  0  0  0  0  0  0
    2.7754    1.4524    1.9485 C   0  0  0  0  0  0  0  0  0  0  0  0
    3.5199   -0.2124    0.1476 C   0  0  0  0  0  0  0  0  0  0  0  0
    1.6901    1.4273   -0.3504 C   0  0  0  0  0  0  0  0  0  0  0  0
    4.5743   -0.2210   -0.7695 C   0  0  0  0  0  0  0  0  0  0  0  0
    3.0978   -1.4123    0.7266 C   0  0  0  0  0  0  0  0  0  0  0  0
   -0.6473    1.2256   -0.6108 C   0  0  0  0  0  0  0  0  0  0  0  0
   -1.8519    0.5966    0.0761 C   0  0  0  0  0  0  0  0  0  0  0  0
   -3.1443    0.8939   -0.6775 C   0  0  0  0  0  0  0  0  0  0  0  0
   -5.5446    0.6533   -0.6509 C   0  0  0  0  0  0  0  0  0  0  0  0
   -4.1464   -1.1650    0.0821 C   0  0  0  0  0  0  0  0  0  0  0  0
    5.2018   -1.4205   -1.1054 C   0  0  0  0  0  0  0  0  0  0  0  0
    3.7254   -2.6118    0.3906 C   0  0  0  0  0  0  0  0  0  0  0  0
   -6.7177    0.0092    0.0823 C   0  0  0  0  0  0  0  0  0  0  0  0
   -5.3528   -1.7668    0.7972 C   0  0  0  0  0  0  0  0  0  0  0  0
    4.7774   -2.6159   -0.5254 C   0  0  0  0  0  0  0  0  0  0  0  0
  1  9  1  0
  1 12  1  0
  2  9  2  0
  3 19  1  0
  3 20  1  0
  4 14  1  0
  4 15  1  0
  4 16  1  0
  5  6  1  0
  5  7  1  0
  5  8  1  0
  5  9  1  0
  6  7  1  0
  8 10  2  0
  8 11  1  0
 10 17  1  0
 11 18  2  0
 12 13  1  0
 13 14  1  0
 15 19  1  0
 16 20  1  0
 17 21  2  0
 18 21  1  0
M  END
>  <PUBCHEM_COMPOUND_CID>  (1) 
49714

>  <PUBCHEM_CONFORMER_RMSD>  (1) 
1

>  <PUBCHEM_CONFORMER_DIVERSEORDER>  (1) 
1
175
275
404
205
93
41
325
232
61
73
36
226
143
32
485
180
177
75
262
4
91
221
397
300
460
422
72
107
431
441
10
63
60
66
13
341
410
366
2
253
28
8
79
203
339
7
340
89
9
274
299
197
123
324
439
23
186
154
287
497
19
67
6
51
27
336
471
321
423
49
328
33
5
105
502
217
90
15
25
248
18
419
3
258

>  <PUBCHEM_MMFF94_PARTIAL_CHARGES>  (1) 
29
1 -0.43
10 -0.15
11 -0.15
12 0.28
14 0.27
15 0.27
16 0.27
17 -0.15
18 -0.15
19 0.28
2 -0.57
20 0.28
21 -0.15
22 0.1
23 0.1
24 0.1
25 0.1
26 0.15
27 0.15
3 -0.56
38 0.15
39 0.15
4 -0.81
44 0.15
5 0.03
6 -0.2
7 -0.2
8 -0.03
9 0.72

>  <PUBCHEM_EFFECTIVE_ROTOR_COUNT>  (1) 
8.8

>  <PUBCHEM_PHARMACOPHORE_FEATURES>  (1) 
5
1 2 acceptor
1 3 acceptor
1 4 cation
6 3 4 15 16 19 20 rings
6 8 10 11 17 18 21 rings

>  <PUBCHEM_HEAVY_ATOM_COUNT>  (1) 
21

>  <PUBCHEM_ATOM_DEF_STEREO_COUNT>  (1) 
0

>  <PUBCHEM_ATOM_UDEF_STEREO_COUNT>  (1) 
0

>  <PUBCHEM_BOND_DEF_STEREO_COUNT>  (1) 
0

>  <PUBCHEM_BOND_UDEF_STEREO_COUNT>  (1) 
0

>  <PUBCHEM_ISOTOPIC_ATOM_COUNT>  (1) 
0

>  <PUBCHEM_COMPONENT_COUNT>  (1) 
1

>  <PUBCHEM_CACTVS_TAUTO_COUNT>  (1) 
1

>  <PUBCHEM_CONFORMER_ID>  (1) 
0000C23200000001

>  <PUBCHEM_MMFF94_ENERGY>  (1) 
41.9663

>  <PUBCHEM_FEATURE_SELFOVERLAP>  (1) 
25.371

>  <PUBCHEM_SHAPE_FINGERPRINT>  (1) 
10316853 100 18334015007721764322
117089 54 17841726101479253190
11858739 19 18409726266683127269
12596602 18 17703792582791130315
12616971 3 16773789303846843933
12633257 1 16128368298613713397
12730499 353 18341894151739430368
13073987 5 18202283619752816161
13402501 40 18335424543047635703
13533116 47 18201719569786223649
13551218 46 18411419540539398375
13685833 64 18412825759569865986
13955234 65 18129935793326299792
14211702 104 18264492961450928347
14251740 57 18411980282056514771
14251764 30 18057614157583974102
14341114 176 18411983576813376001
14528608 73 9799695909194333505
15110567 62 18335138648481064474
15183329 4 18261110734628252257
17844677 252 18412548712863355825
1813 80 16950277421316249189
18222031 100 17748543745033594661
20645477 70 18333730230183591400
21130935 74 18271528689196485211
220451 1 18059578048533071517
22061861 79 18409724054716811359
2215653 11 18335133168640098463
22224240 67 18197484324749511712
22849339 104 16226627272338099579
23016692 55 18334584511815624951
2303208 19 18334859420420257881
23559900 14 18334293184553422765
239999 70 18113614625274431640
25122255 55 18409456886281782279
270888 7 8645894778248269590
3004659 81 17821729463940028157
3089732 80 18335704931692876707
312425 54 18201722877507251163
338550 245 18262238940416146623
3421961 26 18341608201200808912
4073 2 18262802985591022515
4340502 62 18201146755021073168
439807 62 18041280958917421922
46194498 28 17530687636339790092
465052 167 18202285771288442054
5104073 3 17988641861344300049
59682541 35 18271791395477381714
8863177 126 18412262852297540607
960060 61 17385447600555318070

>  <PUBCHEM_SHAPE_MULTIPOLES>  (1) 
409.58
16.75
2.64
1.16
26.27
0.85
0.19
8.71
-0.46
-3.37
0.26
-1.02
-0.37
1.7

>  <PUBCHEM_SHAPE_SELFOVERLAP>  (1) 
851.951

>  <PUBCHEM_SHAPE_VOLUME>  (1) 
233.3

>  <PUBCHEM_COORDINATE_TYPE>  (1) 
2
5
10

$$$$
