49719
     RDKit          3D

 12 13  0  0  1  0  0  0  0  0999 V2000
   -1.8475    0.2582   -0.1675 N   0  0  0  0  0  0  0  0  0  0  0  0
   -1.4259    1.5468    0.3954 C   0  0  0  0  0  0  0  0  0  0  0  0
   -0.9683   -0.8209    0.3162 C   0  0  0  0  0  0  0  0  0  0  0  0
   -0.0430    1.9237   -0.1458 C   0  0  0  0  0  0  0  0  0  0  0  0
    0.5016   -0.5279    0.1203 C   0  0  0  0  0  0  0  0  0  0  0  0
    0.9485    0.7930   -0.0563 C   0  0  0  0  0  0  0  0  0  0  0  0
   -3.2402   -0.0275    0.1759 C   0  0  0  0  0  0  0  0  0  0  0  0
    1.4358   -1.5710    0.1782 C   0  0  0  0  0  0  0  0  0  0  0  0
    2.3176    1.0468   -0.2098 C   0  0  0  0  0  0  0  0  0  0  0  0
   -3.7142   -1.3140   -0.4785 C   0  0  0  0  0  0  0  0  0  0  0  0
    2.7977   -1.3071    0.0340 C   0  0  0  0  0  0  0  0  0  0  0  0
    3.2379    0.0000   -0.1620 C   0  0  0  0  0  0  0  0  0  0  0  0
  1  2  1  0
  1  3  1  0
  1  7  1  0
  2  4  1  0
  3  5  1  0
  4  6  1  0
  5  6  2  0
  5  8  1  0
  6  9  1  0
  7 10  1  0
  8 11  2  0
  9 12  2  0
 11 12  1  0
M  END
>  <PUBCHEM_COMPOUND_CID>  (1) 
49719

>  <PUBCHEM_CONFORMER_RMSD>  (1) 
0.4

>  <PUBCHEM_CONFORMER_DIVERSEORDER>  (1) 
1
4
7
5
9
8
3
6
2

>  <PUBCHEM_MMFF94_PARTIAL_CHARGES>  (1) 
15
1 -0.81
11 -0.15
12 -0.15
2 0.27
21 0.15
22 0.15
26 0.15
27 0.15
3 0.41
4 0.14
5 -0.14
6 -0.14
7 0.27
8 -0.15
9 -0.15

>  <PUBCHEM_EFFECTIVE_ROTOR_COUNT>  (1) 
1.8

>  <PUBCHEM_PHARMACOPHORE_FEATURES>  (1) 
3
1 1 cation
6 1 2 3 4 5 6 rings
6 5 6 8 9 11 12 rings

>  <PUBCHEM_HEAVY_ATOM_COUNT>  (1) 
12

>  <PUBCHEM_ATOM_DEF_STEREO_COUNT>  (1) 
0

>  <PUBCHEM_ATOM_UDEF_STEREO_COUNT>  (1) 
0

>  <PUBCHEM_BOND_DEF_STEREO_COUNT>  (1) 
0

>  <PUBCHEM_BOND_UDEF_STEREO_COUNT>  (1) 
0

>  <PUBCHEM_ISOTOPIC_ATOM_COUNT>  (1) 
0

>  <PUBCHEM_COMPONENT_COUNT>  (1) 
1

>  <PUBCHEM_CACTVS_TAUTO_COUNT>  (1) 
1

>  <PUBCHEM_CONFORMER_ID>  (1) 
0000C23700000001

>  <PUBCHEM_MMFF94_ENERGY>  (1) 
24.2347

>  <PUBCHEM_FEATURE_SELFOVERLAP>  (1) 
15.245

>  <PUBCHEM_SHAPE_FINGERPRINT>  (1) 
11206711 2 18261398784540685844
11471102 20 18408600379281267909
11769659 78 18410851027727349515
11806522 49 18339920527655142831
12032990 46 18410017636636896163
12897270 3 18409449171892452932
14128692 85 18412546487573846025
14251717 144 18338230578468016943
14325111 11 18410013225663168209
14576447 43 18198896105731355983
15477762 27 18338795736124312175
15757776 16 18334570252566562130
16945 1 18335993042156221672
17844478 74 17822301166952272485
18186145 218 17603583015377989231
200 152 18342729720098558895
20201158 50 18261111893636679379
20645477 70 18410851054088315591
20871998 184 18059572430219833365
21501502 16 18265338317744651320
21501925 9 18335972100159443690
221490 88 17975416029637797611
23402539 116 18411691080533846078
23402655 69 18409445869442495213
23463225 33 18410013208462050654
23552423 10 18188778236380807040
2748010 2 18265331711884574532
5084963 1 18342456989506405888
528886 8 18410009974652441698
53812654 25 18201146745565922982
57096353 35 18409453621510240124
581208 293 18338513144318817952
7364860 26 18199185281257282960
8809292 202 18186809114019189875

>  <PUBCHEM_SHAPE_MULTIPOLES>  (1) 
241.97
5.43
1.86
0.67
2.36
0.3
0
-1.89
0.55
-0.05
0
0.08
-0.01
-0.34

>  <PUBCHEM_SHAPE_SELFOVERLAP>  (1) 
504.215

>  <PUBCHEM_SHAPE_VOLUME>  (1) 
138.6

>  <PUBCHEM_COORDINATE_TYPE>  (1) 
2
5
10

$$$$
