49724
     RDKit          3D

 20 23  0  0  0  0  0  0  0  0999 V2000
   -1.8726    0.2974    0.0299 C   0  0  0  0  0  0  0  0  0  0  0  0
   -2.4139    1.7165    0.0187 C   0  0  0  0  0  0  0  0  0  0  0  0
   -2.7707   -0.7923    0.0011 C   0  0  0  0  0  0  0  0  0  0  0  0
   -0.4626    0.0605    0.0148 C   0  0  0  0  0  0  0  0  0  0  0  0
   -3.9017    1.8337    0.3450 C   0  0  0  0  0  0  0  0  0  0  0  0
   -4.2683   -0.6036    0.0061 C   0  0  0  0  0  0  0  0  0  0  0  0
   -4.6994    0.7937   -0.4227 C   0  0  0  0  0  0  0  0  0  0  0  0
    0.0091   -1.2741    0.0216 C   0  0  0  0  0  0  0  0  0  0  0  0
    0.5094    1.0900   -0.0119 C   0  0  0  0  0  0  0  0  0  0  0  0
    1.3894   -1.5397    0.0172 C   0  0  0  0  0  0  0  0  0  0  0  0
   -2.2733   -2.0991    0.0177 C   0  0  0  0  0  0  0  0  0  0  0  0
    1.8919    0.8280   -0.0190 C   0  0  0  0  0  0  0  0  0  0  0  0
   -0.9027   -2.3357    0.0295 C   0  0  0  0  0  0  0  0  0  0  0  0
    2.3376   -0.5070   -0.0021 C   0  0  0  0  0  0  0  0  0  0  0  0
    0.1515    2.5507    0.0457 C   0  0  0  0  0  0  0  0  0  0  0  0
    1.8712   -2.9670    0.0359 C   0  0  0  0  0  0  0  0  0  0  0  0
    2.8384    1.8668   -0.0425 C   0  0  0  0  0  0  0  0  0  0  0  0
    3.7172   -0.7740   -0.0076 C   0  0  0  0  0  0  0  0  0  0  0  0
    4.2052    1.5874   -0.0476 C   0  0  0  0  0  0  0  0  0  0  0  0
    4.6444    0.2678   -0.0299 C   0  0  0  0  0  0  0  0  0  0  0  0
  1  2  1  0
  1  3  2  0
  1  4  1  0
  2  5  1  0
  3  6  1  0
  3 11  1  0
  4  8  2  0
  4  9  1  0
  5  7  1  0
  6  7  1  0
  8 10  1  0
  8 13  1  0
  9 12  2  0
  9 15  1  0
 10 14  2  0
 10 16  1  0
 11 13  2  0
 12 14  1  0
 12 17  1  0
 14 18  1  0
 17 19  2  0
 18 20  2  0
 19 20  1  0
M  END
>  <PUBCHEM_COMPOUND_CID>  (1) 
49724

>  <PUBCHEM_CONFORMER_RMSD>  (1) 
0.6

>  <PUBCHEM_CONFORMER_DIVERSEORDER>  (1) 
1

>  <PUBCHEM_MMFF94_PARTIAL_CHARGES>  (1) 
20
1 -0.14
10 -0.14
11 -0.15
13 -0.15
15 0.14
16 0.14
17 -0.15
18 -0.15
19 -0.15
2 0.14
20 -0.15
29 0.15
3 -0.14
30 0.15
37 0.15
38 0.15
39 0.15
40 0.15
6 0.14
9 -0.14

>  <PUBCHEM_EFFECTIVE_ROTOR_COUNT>  (1) 
0.8

>  <PUBCHEM_PHARMACOPHORE_FEATURES>  (1) 
4
6 1 2 3 5 6 7 rings
6 1 3 4 8 11 13 rings
6 12 14 17 18 19 20 rings
6 4 8 9 10 12 14 rings

>  <PUBCHEM_HEAVY_ATOM_COUNT>  (1) 
20

>  <PUBCHEM_ATOM_DEF_STEREO_COUNT>  (1) 
0

>  <PUBCHEM_ATOM_UDEF_STEREO_COUNT>  (1) 
0

>  <PUBCHEM_BOND_DEF_STEREO_COUNT>  (1) 
0

>  <PUBCHEM_BOND_UDEF_STEREO_COUNT>  (1) 
0

>  <PUBCHEM_ISOTOPIC_ATOM_COUNT>  (1) 
0

>  <PUBCHEM_COMPONENT_COUNT>  (1) 
1

>  <PUBCHEM_CACTVS_TAUTO_COUNT>  (1) 
1

>  <PUBCHEM_CONFORMER_ID>  (1) 
0000C23C00000001

>  <PUBCHEM_MMFF94_ENERGY>  (1) 
94.468

>  <PUBCHEM_FEATURE_SELFOVERLAP>  (1) 
20.368

>  <PUBCHEM_SHAPE_FINGERPRINT>  (1) 
10062212 137 18409719690608376458
10411042 1 16681193146440965450
10608611 8 18411136960879970488
10616163 171 18338800116679841063
10646746 165 18411139164562222724
10967382 1 18410856525285325954
11132069 177 18410006671748796464
11370993 70 18411133649465453539
11471102 20 18410853244167721244
11578080 2 13697314021904789348
11680986 33 18336839592953039211
12011746 2 18410291406595109549
12403814 3 17676201373130790965
12644460 14 18188210883964822514
12838862 33 18338496599962843149
13132413 78 18412265059873599773
13140716 1 18410004464473034792
138480 1 17834113039628071850
14790565 3 18337680809943839524
15196674 1 18410575097547987310
15442244 35 18123470483927643763
15536298 74 18342739576811184694
1601671 61 18410293592723036736
16945 1 18338800138370838387
19591789 44 18410856568409273622
200 152 18060415833253788117
20510252 161 18198628928431176634
20645477 70 18272089361772579079
20739085 24 17904511535386976481
21267235 1 18410865368628581474
21279426 13 18268151959547294022
21421861 104 17898003543215101090
22182313 1 18269578128781038079
23227448 37 18340486763422232143
2334 1 18266177421046708218
23366157 5 18041564620486134386
23402539 116 18343293790648008996
23558518 356 17755860071302991048
23559900 14 18343021078248568206
238 59 17540211434424398429
25 1 18408317791596999054
2748010 2 18411144627402115518
335352 9 18338517426744110326
34934 24 18410849958296407991
350125 39 18193282020887131985
3545911 37 18409168805397184245
3680242 22 18263360304995390746
4214541 1 18410575101975083245
4409770 3 16096843840225559286
474 4 17822578299569315036
495365 180 17346024675987983984
5104073 3 18409449193351492075
59755656 215 18340492167176957758
6138700 20 18338521820965581038
69090 78 18411697694793784399
7364860 26 18340769226463213486
7832392 63 18411979182534246534
9709674 26 18412550911427591071

>  <PUBCHEM_SHAPE_MULTIPOLES>  (1) 
411.59
8.35
2.92
0.63
0.89
0.72
0
-2.6
-0.27
-0.24
0.08
0.06
-0.02
-0.08

>  <PUBCHEM_SHAPE_SELFOVERLAP>  (1) 
926.752

>  <PUBCHEM_SHAPE_VOLUME>  (1) 
203.8

>  <PUBCHEM_COORDINATE_TYPE>  (1) 
2
5
10

$$$$
