49722
     RDKit          3D

 15 16  0  0  0  0  0  0  0  0999 V2000
   -1.4969    1.9112   -0.6680 O   0  0  0  0  0  0  0  0  0  0  0  0
    2.9110   -2.0095   -0.7542 O   0  0  0  0  0  0  0  0  0  0  0  0
    4.3861   -0.0726    0.5870 O   0  0  0  0  0  0  0  0  0  0  0  0
   -1.9842   -0.3937   -0.5693 C   0  0  0  0  0  0  0  0  0  0  0  0
   -3.4173    0.0616   -0.8539 C   0  0  0  0  0  0  0  0  0  0  0  0
   -2.0337   -1.1470    0.7659 C   0  0  0  0  0  0  0  0  0  0  0  0
   -4.1049    0.0345    0.5031 C   0  0  0  0  0  0  0  0  0  0  0  0
   -3.5048   -1.1928    1.1644 C   0  0  0  0  0  0  0  0  0  0  0  0
   -1.0491    0.7767   -0.4931 C   0  0  0  0  0  0  0  0  0  0  0  0
    0.3769    0.5506   -0.2115 C   0  0  0  0  0  0  0  0  0  0  0  0
    0.9726   -0.6329   -0.6204 C   0  0  0  0  0  0  0  0  0  0  0  0
    1.1012    1.5250    0.4582 C   0  0  0  0  0  0  0  0  0  0  0  0
    2.3247   -0.8471   -0.3532 C   0  0  0  0  0  0  0  0  0  0  0  0
    2.4533    1.3111    0.7254 C   0  0  0  0  0  0  0  0  0  0  0  0
    3.0651    0.1249    0.3196 C   0  0  0  0  0  0  0  0  0  0  0  0
  1  9  2  0
  2 13  1  0
  3 15  1  0
  4  5  1  0
  4  6  1  0
  4  9  1  0
  5  7  1  0
  6  8  1  0
  7  8  1  0
  9 10  1  0
 10 11  2  0
 10 12  1  0
 11 13  1  0
 12 14  2  0
 13 15  2  0
 14 15  1  0
M  END
>  <PUBCHEM_COMPOUND_CID>  (1) 
49722

>  <PUBCHEM_CONFORMER_RMSD>  (1) 
0.6

>  <PUBCHEM_CONFORMER_DIVERSEORDER>  (1) 
6
17
4
18
1
15
2
10
8
16
5
3
7
9
14
12
11
13

>  <PUBCHEM_MMFF94_PARTIAL_CHARGES>  (1) 
16
1 -0.57
10 0.09
11 -0.15
12 -0.15
13 0.08
14 -0.15
15 0.08
2 -0.53
25 0.15
26 0.15
27 0.15
28 0.45
29 0.45
3 -0.53
4 0.06
9 0.42

>  <PUBCHEM_EFFECTIVE_ROTOR_COUNT>  (1) 
3

>  <PUBCHEM_PHARMACOPHORE_FEATURES>  (1) 
5
1 1 acceptor
1 2 donor
1 3 donor
5 4 5 6 7 8 rings
6 10 11 12 13 14 15 rings

>  <PUBCHEM_HEAVY_ATOM_COUNT>  (1) 
15

>  <PUBCHEM_ATOM_DEF_STEREO_COUNT>  (1) 
0

>  <PUBCHEM_ATOM_UDEF_STEREO_COUNT>  (1) 
0

>  <PUBCHEM_BOND_DEF_STEREO_COUNT>  (1) 
0

>  <PUBCHEM_BOND_UDEF_STEREO_COUNT>  (1) 
0

>  <PUBCHEM_ISOTOPIC_ATOM_COUNT>  (1) 
0

>  <PUBCHEM_COMPONENT_COUNT>  (1) 
1

>  <PUBCHEM_CACTVS_TAUTO_COUNT>  (1) 
22

>  <PUBCHEM_CONFORMER_ID>  (1) 
0000C23A00000006

>  <PUBCHEM_MMFF94_ENERGY>  (1) 
36.5925

>  <PUBCHEM_FEATURE_SELFOVERLAP>  (1) 
25.376

>  <PUBCHEM_SHAPE_FINGERPRINT>  (1) 
10618630 7 18259707800187072999
10751810 167 16008750204108897759
1100329 8 14229840909687161851
11132069 177 18200865283795789570
11471102 20 18201433696905471868
11471102 22 18272652354886370672
11578080 2 14925324521182678087
12236239 1 16343701045190274367
12251169 10 18059578022356988159
13296908 3 18114180877988780803
14115302 16 17313109665459654767
14252887 29 18272092686514998778
14386348 63 18333733524376067227
15219456 202 18341327808012550893
15309172 13 17917992797440889591
15375358 24 18335692854033226661
15501101 241 18341330080103192868
15653759 3 18187081767179994777
16945 1 18271241724349191324
17844478 74 18409448089582033789
18175812 5 18336824294310867621
19049666 15 18265046934083106047
19107657 162 18333453166090847099
19422 9 13984660352321535891
200 152 17703496758165042765
20201158 50 18411134740418957658
20279233 1 18407757049515211247
20281407 28 18335428966926611023
20281475 54 18410301314973936903
20361792 2 16009026241583230319
20645477 70 18129653102230006399
20871998 22 18411427184741992998
22721475 48 18335423486469187549
23048698 100 16917069975049213059
231179 274 10735879461024633238
23402539 116 18040985259013808095
23557571 272 17968650524112171828
23559900 14 18187642445502190758
26918003 58 18410572898820124723
2748010 2 18199742540779645628
474 4 16126943404864164904
581208 293 18272645787870812678
5902787 121 17459189749581205041
69090 78 18341889732144242551
7364860 26 17971764512339792565
77492 1 16415477172899487533
81228 2 18188208689458625581
8809292 202 18186802512553891235
9709674 26 18409727344155637023

>  <PUBCHEM_SHAPE_MULTIPOLES>  (1) 
291.09
7.27
1.62
1.01
0.46
0.05
-0.06
-1.58
-1.44
-0.52
0.07
0.4
-0.1
1.03

>  <PUBCHEM_SHAPE_SELFOVERLAP>  (1) 
622.898

>  <PUBCHEM_SHAPE_VOLUME>  (1) 
162.6

>  <PUBCHEM_COORDINATE_TYPE>  (1) 
2
5
10

$$$$
