49720
     RDKit          3D

 14 14  0  0  0  0  0  0  0  0999 V2000
   -1.6319   -1.6041   -1.0479 O   0  0  0  0  0  0  0  0  0  0  0  0
    2.7861    2.1774   -0.1900 O   0  0  0  0  0  0  0  0  0  0  0  0
    4.2506   -0.0600    0.5686 O   0  0  0  0  0  0  0  0  0  0  0  0
   -3.5524    0.2495    0.0564 C   0  0  0  0  0  0  0  0  0  0  0  0
   -2.1227    0.6534   -0.3447 C   0  0  0  0  0  0  0  0  0  0  0  0
   -3.5164   -0.6322    1.3066 C   0  0  0  0  0  0  0  0  0  0  0  0
   -4.4282    1.4780    0.3165 C   0  0  0  0  0  0  0  0  0  0  0  0
   -1.2099   -0.5375   -0.6076 C   0  0  0  0  0  0  0  0  0  0  0  0
    0.2417   -0.4067   -0.2954 C   0  0  0  0  0  0  0  0  0  0  0  0
    0.8299    0.8347   -0.3918 C   0  0  0  0  0  0  0  0  0  0  0  0
    0.9415   -1.5325    0.0778 C   0  0  0  0  0  0  0  0  0  0  0  0
    2.1884    0.9567   -0.0997 C   0  0  0  0  0  0  0  0  0  0  0  0
    2.2999   -1.4107    0.3700 C   0  0  0  0  0  0  0  0  0  0  0  0
    2.9233   -0.1660    0.2812 C   0  0  0  0  0  0  0  0  0  0  0  0
  1  8  2  0
  2 12  1  0
  3 14  1  0
  4  5  1  0
  4  6  1  0
  4  7  1  0
  5  8  1  0
  8  9  1  0
  9 10  2  0
  9 11  1  0
 10 12  1  0
 11 13  2  0
 12 14  2  0
 13 14  1  0
M  END
>  <PUBCHEM_COMPOUND_CID>  (1) 
49720

>  <PUBCHEM_CONFORMER_RMSD>  (1) 
0.6

>  <PUBCHEM_CONFORMER_DIVERSEORDER>  (1) 
2
4
9
7
15
13
3
16
5
12
8
10
1
14
11
6

>  <PUBCHEM_MMFF94_PARTIAL_CHARGES>  (1) 
16
1 -0.57
10 -0.15
11 -0.15
12 0.08
13 -0.15
14 0.08
2 -0.53
24 0.15
25 0.15
26 0.15
27 0.45
28 0.45
3 -0.53
5 0.06
8 0.42
9 0.09

>  <PUBCHEM_EFFECTIVE_ROTOR_COUNT>  (1) 
3

>  <PUBCHEM_PHARMACOPHORE_FEATURES>  (1) 
5
1 1 acceptor
1 2 donor
1 3 donor
3 4 6 7 hydrophobe
6 9 10 11 12 13 14 rings

>  <PUBCHEM_HEAVY_ATOM_COUNT>  (1) 
14

>  <PUBCHEM_ATOM_DEF_STEREO_COUNT>  (1) 
0

>  <PUBCHEM_ATOM_UDEF_STEREO_COUNT>  (1) 
0

>  <PUBCHEM_BOND_DEF_STEREO_COUNT>  (1) 
0

>  <PUBCHEM_BOND_UDEF_STEREO_COUNT>  (1) 
0

>  <PUBCHEM_ISOTOPIC_ATOM_COUNT>  (1) 
0

>  <PUBCHEM_COMPONENT_COUNT>  (1) 
1

>  <PUBCHEM_CACTVS_TAUTO_COUNT>  (1) 
22

>  <PUBCHEM_CONFORMER_ID>  (1) 
0000C23800000002

>  <PUBCHEM_MMFF94_ENERGY>  (1) 
31.4689

>  <PUBCHEM_FEATURE_SELFOVERLAP>  (1) 
25.376

>  <PUBCHEM_SHAPE_FINGERPRINT>  (1) 
10465860 228 18341899549795513088
10498660 4 14619959184731803875
10608611 8 18261391122619924253
10980938 120 18411982450967266639
11471102 20 18337384950756936694
11471102 22 18187654595415921715
12251169 10 18410008831943214511
12346645 6 18272650095712773078
12932764 1 17676472952402670054
13675066 3 18341892995907573650
13705890 14 10159696880461874924
13922767 16 18411416185336236969
14144814 61 18342173349860916087
14897335 6 18201432580198150871
15653759 3 17531247227670866117
15775835 57 18343022228524564357
16945 1 18336532859684864182
17844478 74 17676202442398202149
200 152 18341319068561251279
20233049 118 17632572721512377040
20279233 1 17458343018549092511
20361792 2 13479141228540733891
20645477 70 18268422439276338767
20871998 22 18051691041084420486
20871999 31 11167938023111497049
21501502 16 18266171914956871542
22169311 14 17967818223779276769
22854114 111 18408322211218612340
23402539 116 17131540670298182517
23557571 272 15410034318298928799
2748010 2 17835225758627754526

>  <PUBCHEM_SHAPE_MULTIPOLES>  (1) 
270.51
7.53
1.71
0.88
3.3
0.27
-0.06
2.09
-2.13
-0.49
0.09
0.47
-0.21
-0.17

>  <PUBCHEM_SHAPE_SELFOVERLAP>  (1) 
557.657

>  <PUBCHEM_SHAPE_VOLUME>  (1) 
156.2

>  <PUBCHEM_COORDINATE_TYPE>  (1) 
2
5
10

$$$$
