49731
     RDKit          3D

 19 19  0  0  0  0  0  0  0  0999 V2000
    7.8168    0.5465    0.0123 O   0  0  0  0  0  0  0  0  0  0  0  0
   -0.6754   -1.7275   -0.1721 O   0  0  0  0  0  0  0  0  0  0  0  0
    4.2473   -0.3482   -0.0040 N   0  0  0  0  0  0  0  0  0  0  0  0
   -1.8858    0.2583    0.1567 N   0  0  0  0  0  0  0  0  0  0  0  0
    1.7996   -0.4629    0.0303 C   0  0  0  0  0  0  0  0  0  0  0  0
    3.0278    0.4388    0.1355 C   0  0  0  0  0  0  0  0  0  0  0  0
    0.5089    0.3434    0.1656 C   0  0  0  0  0  0  0  0  0  0  0  0
    5.4271    0.4981    0.1049 C   0  0  0  0  0  0  0  0  0  0  0  0
   -0.7383   -0.5189    0.0264 C   0  0  0  0  0  0  0  0  0  0  0  0
   -3.2320   -0.1728    0.0885 C   0  0  0  0  0  0  0  0  0  0  0  0
   -4.2820    0.7330    0.2399 C   0  0  0  0  0  0  0  0  0  0  0  0
   -4.0222    2.1852    0.4781 C   0  0  0  0  0  0  0  0  0  0  0  0
    6.6942   -0.3203   -0.0847 C   0  0  0  0  0  0  0  0  0  0  0  0
   -3.5025   -1.5232   -0.1330 C   0  0  0  0  0  0  0  0  0  0  0  0
   -5.6022    0.2884    0.1696 C   0  0  0  0  0  0  0  0  0  0  0  0
   -3.9247    2.9757   -0.8228 C   0  0  0  0  0  0  0  0  0  0  0  0
   -4.8228   -1.9678   -0.2034 C   0  0  0  0  0  0  0  0  0  0  0  0
   -5.8725   -1.0620   -0.0521 C   0  0  0  0  0  0  0  0  0  0  0  0
    9.0386   -0.1640   -0.1358 C   0  0  0  0  0  0  0  0  0  0  0  0
  1 13  1  0
  1 19  1  0
  2  9  2  0
  3  6  1  0
  3  8  1  0
  4  9  1  0
  4 10  1  0
  5  6  1  0
  5  7  1  0
  7  9  1  0
  8 13  1  0
 10 11  2  0
 10 14  1  0
 11 12  1  0
 11 15  1  0
 12 16  1  0
 14 17  2  0
 15 18  2  0
 17 18  1  0
M  END
>  <PUBCHEM_COMPOUND_CID>  (1) 
49731

>  <PUBCHEM_CONFORMER_RMSD>  (1) 
1

>  <PUBCHEM_CONFORMER_DIVERSEORDER>  (1) 
1
4
49
27
20
46
18
8
24
54
26
43
53
35
22
16
33
45
5
30
51
48
28
19
14
44
42
29
15
7
25
10
31
55
56
13
34
12
37
40
17
47
9
3
32
11
36
23
21
6
52
41
50
39
38
2

>  <PUBCHEM_MMFF94_PARTIAL_CHARGES>  (1) 
23
1 -0.56
10 0.12
11 -0.14
12 0.14
13 0.28
14 -0.15
15 -0.15
17 -0.15
18 -0.15
19 0.28
2 -0.57
26 0.36
29 0.37
3 -0.9
34 0.15
35 0.15
39 0.15
4 -0.55
40 0.15
6 0.27
7 0.06
8 0.27
9 0.57

>  <PUBCHEM_EFFECTIVE_ROTOR_COUNT>  (1) 
10

>  <PUBCHEM_PHARMACOPHORE_FEATURES>  (1) 
7
1 1 acceptor
1 16 hydrophobe
1 2 acceptor
1 3 cation
1 3 donor
1 4 donor
6 10 11 14 15 17 18 rings

>  <PUBCHEM_HEAVY_ATOM_COUNT>  (1) 
19

>  <PUBCHEM_ATOM_DEF_STEREO_COUNT>  (1) 
0

>  <PUBCHEM_ATOM_UDEF_STEREO_COUNT>  (1) 
0

>  <PUBCHEM_BOND_DEF_STEREO_COUNT>  (1) 
0

>  <PUBCHEM_BOND_UDEF_STEREO_COUNT>  (1) 
0

>  <PUBCHEM_ISOTOPIC_ATOM_COUNT>  (1) 
0

>  <PUBCHEM_COMPONENT_COUNT>  (1) 
1

>  <PUBCHEM_CACTVS_TAUTO_COUNT>  (1) 
2

>  <PUBCHEM_CONFORMER_ID>  (1) 
0000C24300000001

>  <PUBCHEM_MMFF94_ENERGY>  (1) 
35.8863

>  <PUBCHEM_FEATURE_SELFOVERLAP>  (1) 
35.52

>  <PUBCHEM_SHAPE_FINGERPRINT>  (1) 
100830 39 18410855421980553416
10299344 5 18259703398652846162
10411042 1 18122625231145600499
10638233 991 17676498276126148260
10670039 82 18408879633623022289
10730089 173 18411982455251937849
11315181 36 18186522128904847505
11524674 6 16487255499458325574
12091667 2 18261114075479864442
12107183 9 17685202877290416395
13288520 33 18341894121500306307
13885169 127 18411419493288957042
14251752 14 18413106139709698536
14251764 18 18186799180545453762
14251764 46 18343584048875232566
14933364 13 18342458149611896784
15183329 4 18408038503412562154
15419008 47 17489582360208598168
15778101 99 18341897342594280001
17093844 174 18410853261352975832
17844677 252 18341055193812140056
18336668 15 17967819340244849869
19489759 90 18409167718643760545
20281389 69 18410291420049970304
21267235 1 18338237176313347523
21315763 28 18409729586793002204
23081809 10 17894348865786288826
23198884 109 18186521012055088858
23402539 116 18413105073808794349
23521765 1 18342176679025033906
23536379 177 18410293601745384330
23559900 14 18201151143670307385
335352 9 18412258438115489965
33684 2 18410855469324933298
4073 2 18114748256681751946
4214541 1 18412545401443128817
444735 82 18339922749467674720
54446538 1 18333452062316095492
59755656 520 17967809487811334138
6327066 14 18044649794796480037
67123 10 18412263965875263852
8209 1 18412263948331449778

>  <PUBCHEM_SHAPE_MULTIPOLES>  (1) 
369.31
22.38
2
0.66
56.97
1.08
-0.02
0.26
-0.68
-4.67
-0.35
-0.26
0.14
0.1

>  <PUBCHEM_SHAPE_SELFOVERLAP>  (1) 
729.258

>  <PUBCHEM_SHAPE_VOLUME>  (1) 
220.6

>  <PUBCHEM_COORDINATE_TYPE>  (1) 
2
5
10

$$$$
