49734
     RDKit          3D

 18 18  0  0  1  0  0  0  0  0999 V2000
    4.9049   -0.9055   -0.5509 O   0  0  0  0  0  0  0  0  0  0  0  0
    0.0687   -0.1512   -1.1964 O   0  0  0  0  0  0  0  0  0  0  0  0
    2.4062    0.2597    0.0660 N   0  0  0  0  0  0  0  0  0  0  0  0
   -1.1890    0.2317    0.7487 N   0  0  0  0  0  0  0  0  0  0  0  0
    4.8322    0.4190   -0.0265 C   0  0  0  0  0  0  0  0  0  0  0  0
    3.5888    0.5279    0.8526 C   0  0  0  0  0  0  0  0  0  0  0  0
    1.1930    0.3858    0.8696 C   0  0  0  0  0  0  0  0  0  0  0  0
   -2.5218    0.0596    0.3048 C   0  0  0  0  0  0  0  0  0  0  0  0
    6.0979    0.6960    0.7735 C   0  0  0  0  0  0  0  0  0  0  0  0
   -3.2260    1.1527   -0.1778 C   0  0  0  0  0  0  0  0  0  0  0  0
   -3.1014   -1.1992    0.3607 C   0  0  0  0  0  0  0  0  0  0  0  0
   -0.0214    0.1218   -0.0037 C   0  0  0  0  0  0  0  0  0  0  0  0
   -4.5398    0.9833   -0.6144 C   0  0  0  0  0  0  0  0  0  0  0  0
   -4.4153   -1.3687   -0.0760 C   0  0  0  0  0  0  0  0  0  0  0  0
   -2.6167    2.5159   -0.2441 C   0  0  0  0  0  0  0  0  0  0  0  0
   -2.3568   -2.3876    0.8776 C   0  0  0  0  0  0  0  0  0  0  0  0
   -5.1345   -0.2774   -0.5635 C   0  0  0  0  0  0  0  0  0  0  0  0
    6.0310   -1.0638   -1.4002 C   0  0  0  0  0  0  0  0  0  0  0  0
  1  5  1  0
  1 18  1  0
  2 12  2  0
  3  6  1  0
  3  7  1  0
  4  8  1  0
  4 12  1  0
  5  6  1  0
  5  9  1  0
  7 12  1  0
  8 10  2  0
  8 11  1  0
 10 13  1  0
 10 15  1  0
 11 14  2  0
 11 16  1  0
 13 17  2  0
 14 17  1  0
M  END
>  <PUBCHEM_COMPOUND_CID>  (1) 
49734

>  <PUBCHEM_CONFORMER_RMSD>  (1) 
0.8

>  <PUBCHEM_CONFORMER_DIVERSEORDER>  (1) 
1
27
21
10
5
26
15
16
22
25
23
18
14
11
19
13
20
4
8
24
12
6
17
2
28
7
9
3

>  <PUBCHEM_MMFF94_PARTIAL_CHARGES>  (1) 
22
1 -0.56
10 -0.14
11 -0.14
12 0.57
13 -0.15
14 -0.15
15 0.14
16 0.14
17 -0.15
18 0.28
2 -0.57
22 0.36
28 0.37
29 0.15
3 -0.9
30 0.15
37 0.15
4 -0.55
5 0.28
6 0.27
7 0.33
8 0.12

>  <PUBCHEM_EFFECTIVE_ROTOR_COUNT>  (1) 
7

>  <PUBCHEM_PHARMACOPHORE_FEATURES>  (1) 
6
1 1 acceptor
1 2 acceptor
1 3 cation
1 3 donor
1 4 donor
6 8 10 11 13 14 17 rings

>  <PUBCHEM_HEAVY_ATOM_COUNT>  (1) 
18

>  <PUBCHEM_ATOM_DEF_STEREO_COUNT>  (1) 
0

>  <PUBCHEM_ATOM_UDEF_STEREO_COUNT>  (1) 
1

>  <PUBCHEM_BOND_DEF_STEREO_COUNT>  (1) 
0

>  <PUBCHEM_BOND_UDEF_STEREO_COUNT>  (1) 
0

>  <PUBCHEM_ISOTOPIC_ATOM_COUNT>  (1) 
0

>  <PUBCHEM_COMPONENT_COUNT>  (1) 
1

>  <PUBCHEM_CACTVS_TAUTO_COUNT>  (1) 
2

>  <PUBCHEM_CONFORMER_ID>  (1) 
0000C24600000001

>  <PUBCHEM_MMFF94_ENERGY>  (1) 
65.2048

>  <PUBCHEM_FEATURE_SELFOVERLAP>  (1) 
30.446

>  <PUBCHEM_SHAPE_FINGERPRINT>  (1) 
10 15 18129647717459303784
10680689 15 18261118473447319408
11315181 36 17894347808507221024
12107183 9 17539956287444322112
12236239 1 17094956654071478424
12390115 104 18266742368788442801
12616971 3 15285352942900016930
13288520 33 18408884066567023499
13668630 136 16988848272091490062
13675066 3 18202560705283103088
14251718 22 18410571808014612288
14528608 73 17530969115991015572
14573314 32 18410575067857821278
15242439 84 18413669110626376800
17834072 33 17968096451755651164
17844677 252 18411423912589291336
17870717 6 18410300202693555591
18927931 339 18335706061564297935
19489759 90 18408601457028077672
200 152 16917348138753786193
20567600 75 18202285779946734030
20645477 56 18334294228409895233
20645477 70 17417816106887166886
21033648 29 17560784529435468352
21267235 1 18261397788878393219
21682296 61 17273992259080234462
22061861 79 17917996053590336124
2297311 6 18409453591825374053
23175994 123 17703790340438575665
23402539 116 18409439307064808741
23557571 272 18342181037615479949
23559900 14 18339071691793890513
300161 21 17676477354954924328
3004659 81 18114178580851827490
34797466 226 18339085981561456276
4214541 1 18408321081631683552
542803 24 16587743135780276272
543368 44 16443358610421398364
59755656 215 18410292480142046951
90127 26 18408891741594785400

>  <PUBCHEM_SHAPE_MULTIPOLES>  (1) 
348.73
14.7
1.81
1.04
20.35
0.04
0.13
1.31
2.75
-2.14
-0.09
0.89
0.18
1.49

>  <PUBCHEM_SHAPE_SELFOVERLAP>  (1) 
700.026

>  <PUBCHEM_SHAPE_VOLUME>  (1) 
206.7

>  <PUBCHEM_COORDINATE_TYPE>  (1) 
2
5
10

$$$$
