49747
     RDKit          3D

 17 19  0  0  0  0  0  0  0  0999 V2000
   -0.8326   -0.8558   -0.1580 N   0  0  0  0  0  0  0  0  0  0  0  0
   -1.2156    1.3147    0.1287 N   0  0  0  0  0  0  0  0  0  0  0  0
    1.8710   -0.5041   -0.2213 N   0  0  0  0  0  0  0  0  0  0  0  0
   -0.2917    0.3925   -0.0236 C   0  0  0  0  0  0  0  0  0  0  0  0
   -2.1964   -0.7310   -0.0879 C   0  0  0  0  0  0  0  0  0  0  0  0
   -2.4103    0.6330    0.0913 C   0  0  0  0  0  0  0  0  0  0  0  0
    1.1337    0.6148   -0.0540 C   0  0  0  0  0  0  0  0  0  0  0  0
    3.2120   -0.3364   -0.2533 C   0  0  0  0  0  0  0  0  0  0  0  0
    4.0355   -1.5676   -0.4364 C   0  0  0  0  0  0  0  0  0  0  0  0
   -3.2298   -1.6654   -0.1635 C   0  0  0  0  0  0  0  0  0  0  0  0
    1.6639    1.8854    0.0824 C   0  0  0  0  0  0  0  0  0  0  0  0
   -3.7269    1.1108    0.2038 C   0  0  0  0  0  0  0  0  0  0  0  0
    3.8436    0.8903   -0.1263 C   0  0  0  0  0  0  0  0  0  0  0  0
    3.0476    2.0176    0.0445 C   0  0  0  0  0  0  0  0  0  0  0  0
   -4.5339   -1.1723   -0.0499 C   0  0  0  0  0  0  0  0  0  0  0  0
   -4.7801    0.1907    0.1306 C   0  0  0  0  0  0  0  0  0  0  0  0
    4.4101   -2.2172    0.8928 C   0  0  0  0  0  0  0  0  0  0  0  0
  1  4  1  0
  1  5  1  0
  2  4  2  0
  2  6  1  0
  3  7  2  0
  3  8  1  0
  4  7  1  0
  5  6  2  0
  5 10  1  0
  6 12  1  0
  7 11  1  0
  8  9  1  0
  8 13  2  0
  9 17  1  0
 10 15  2  0
 11 14  2  0
 12 16  2  0
 13 14  1  0
 15 16  1  0
M  END
>  <PUBCHEM_COMPOUND_CID>  (1) 
49747

>  <PUBCHEM_CONFORMER_RMSD>  (1) 
0.6

>  <PUBCHEM_CONFORMER_DIVERSEORDER>  (1) 
1
3
2

>  <PUBCHEM_MMFF94_PARTIAL_CHARGES>  (1) 
24
1 0.03
10 -0.15
11 -0.15
12 -0.15
13 -0.15
14 -0.15
15 -0.15
16 -0.15
18 0.27
2 -0.57
21 0.15
22 0.15
23 0.15
24 0.15
25 0.15
26 0.15
27 0.15
3 -0.62
4 0.13
5 -0.15
6 0.23
7 0.36
8 0.17
9 0.14

>  <PUBCHEM_EFFECTIVE_ROTOR_COUNT>  (1) 
2

>  <PUBCHEM_PHARMACOPHORE_FEATURES>  (1) 
7
1 1 donor
1 17 hydrophobe
1 3 acceptor
3 1 2 4 cation
5 1 2 4 5 6 rings
6 3 7 8 11 13 14 rings
6 5 6 10 12 15 16 rings

>  <PUBCHEM_HEAVY_ATOM_COUNT>  (1) 
17

>  <PUBCHEM_ATOM_DEF_STEREO_COUNT>  (1) 
0

>  <PUBCHEM_ATOM_UDEF_STEREO_COUNT>  (1) 
0

>  <PUBCHEM_BOND_DEF_STEREO_COUNT>  (1) 
0

>  <PUBCHEM_BOND_UDEF_STEREO_COUNT>  (1) 
0

>  <PUBCHEM_ISOTOPIC_ATOM_COUNT>  (1) 
0

>  <PUBCHEM_COMPONENT_COUNT>  (1) 
1

>  <PUBCHEM_CACTVS_TAUTO_COUNT>  (1) 
3

>  <PUBCHEM_CONFORMER_ID>  (1) 
0000C25300000001

>  <PUBCHEM_MMFF94_ENERGY>  (1) 
32.1156

>  <PUBCHEM_FEATURE_SELFOVERLAP>  (1) 
35.627

>  <PUBCHEM_SHAPE_FINGERPRINT>  (1) 
10062212 137 18272927220077529815
10616163 171 18198345258621345246
11405975 8 18412266120999462953
11471102 20 18411981381731614484
12107183 9 18051980212141073929
12403259 226 18410287021597576029
13167823 11 18411418423161975647
13533116 47 18410855499157745315
13675066 3 17489584524275398022
13690532 89 18410856533986088815
14866123 147 17191236227598254898
15196674 1 18411983572249110511
15442244 35 18340208496770338464
15536298 74 18413389860363591048
17492 89 18340488957961285223
17804303 29 18411423877680504613
1813 80 17313104159237813348
18186145 218 17822004328676973567
19422 9 18412267245995947081
200 152 17989204867532702349
20281475 54 18410854382091377029
20645477 70 18412265034399266590
21065198 57 18410856590037090913
21267235 1 18340497719662231846
21501925 9 18341325639613034162
221490 88 18336554922731449082
22485316 2 18411136960879950989
2255824 54 18260553350878632550
23402539 116 18060133220532977733
23463225 33 18413110575698927684
23559900 14 18413105069830467944
3004659 81 18334580101506859774
335352 9 18339361838662817829
33824 294 18338234972672948994
3421961 26 18411696552976289410
3545911 37 18340208591059217324
42 15 18410294704955782823
4214541 1 18411983542253209997
474 4 17678460994112083868
4921388 177 16371019549996915411
5104073 3 18341897398301761275
5281201 14 17894629257724658540
5374978 207 17989486324970886968
559249 180 18191581960903983611
573450 72 18201718436162731787
633830 44 17095244726376697789
67856867 119 18339918324880570376
69090 78 18342455980352673527
7364860 26 18342738563657988144
76465 3 18261668169664655354
77779 3 18411421738976799037
9709674 26 18336551636939231163
9981440 41 17615968150566579688

>  <PUBCHEM_SHAPE_MULTIPOLES>  (1) 
334.91
10.24
2.13
0.68
2.17
0.19
0.04
3.43
0.5
-1.86
0.21
-0.26
0.13
-0.49

>  <PUBCHEM_SHAPE_SELFOVERLAP>  (1) 
740.344

>  <PUBCHEM_SHAPE_VOLUME>  (1) 
180.2

>  <PUBCHEM_COORDINATE_TYPE>  (1) 
2
5
10

$$$$
