49745
     RDKit          3D

 23 24  0  0  1  0  0  0  0  0999 V2000
   -1.1985   -1.5365    2.3488 Cl  0  0  0  0  0  0  0  0  0  0  0  0
    1.2298   -1.6719   -2.2694 Cl  0  0  0  0  0  0  0  0  0  0  0  0
    0.0019   -1.5185    0.0281 O   0  0  0  0  0  0  0  0  0  0  0  0
   -3.4206    2.5432    1.4274 O   0  0  0  0  0  0  0  0  0  0  0  0
    3.4334    2.4557   -1.5609 O   0  0  0  0  0  0  0  0  0  0  0  0
   -1.5716    1.4384    1.8519 O   0  0  0  0  0  0  0  0  0  0  0  0
    1.5895    1.3282   -1.9457 O   0  0  0  0  0  0  0  0  0  0  0  0
   -2.6584    1.5656    1.2399 N   0  0  0  0  0  0  0  0  0  0  0  0
    2.6684    1.4901   -1.3279 N   0  0  0  0  0  0  0  0  0  0  0  0
   -2.2254   -0.5397    0.0606 C   0  0  0  0  0  0  0  0  0  0  0  0
    2.2312   -0.5427   -0.0299 C   0  0  0  0  0  0  0  0  0  0  0  0
   -0.9247   -0.7183    0.7754 C   0  0  0  0  0  0  0  0  0  0  0  0
    0.9279   -0.7641   -0.7568 C   0  0  0  0  0  0  0  0  0  0  0  0
   -3.0396    0.5670    0.3017 C   0  0  0  0  0  0  0  0  0  0  0  0
    3.0371    0.5466   -0.3298 C   0  0  0  0  0  0  0  0  0  0  0  0
   -2.6200   -1.5080   -0.8627 C   0  0  0  0  0  0  0  0  0  0  0  0
    2.6016   -1.4589    0.9452 C   0  0  0  0  0  0  0  0  0  0  0  0
   -4.2484    0.7052   -0.3806 C   0  0  0  0  0  0  0  0  0  0  0  0
    4.2372    0.7237    0.3590 C   0  0  0  0  0  0  0  0  0  0  0  0
   -3.8288   -1.3696   -1.5448 C   0  0  0  0  0  0  0  0  0  0  0  0
    3.8017   -1.2817    1.6338 C   0  0  0  0  0  0  0  0  0  0  0  0
   -4.6431   -0.2632   -1.3038 C   0  0  0  0  0  0  0  0  0  0  0  0
    4.6194   -0.1905    1.3406 C   0  0  0  0  0  0  0  0  0  0  0  0
  1 12  1  0
  2 13  1  0
  3 12  1  0
  3 13  1  0
  4  8  1  0
  5  9  1  0
  6  8  2  0
  7  9  2  0
  8 14  1  0
  9 15  1  0
 10 12  1  0
 10 14  2  0
 10 16  1  0
 11 13  1  0
 11 15  2  0
 11 17  1  0
 14 18  1  0
 15 19  1  0
 16 20  2  0
 17 21  2  0
 18 22  2  0
 19 23  2  0
 20 22  1  0
 21 23  1  0
M  CHG  4   4  -1   5  -1   8   1   9   1
M  END
>  <PUBCHEM_COMPOUND_CID>  (1) 
49745

>  <PUBCHEM_CONFORMER_RMSD>  (1) 
0.8

>  <PUBCHEM_CONFORMER_DIVERSEORDER>  (1) 
1
62
6
46
14
24
25
42
34
61
20
8
26
39
12
58
5
60
35
50
38
33
2
13
36
51
19
54
55
22
18
56
59
23
7
52
64
16
45
15
10
17
63
40
11
32
57
43
49
37
3
29
53
31
30
48
9
41
28
44
47
4
27
21

>  <PUBCHEM_MMFF94_PARTIAL_CHARGES>  (1) 
31
1 -0.29
10 -0.14
11 -0.14
12 0.71
13 0.71
14 0.13
15 0.13
16 -0.15
17 -0.15
18 -0.15
19 -0.15
2 -0.29
20 -0.15
21 -0.15
22 -0.15
23 -0.15
26 0.15
27 0.15
28 0.15
29 0.15
3 -0.56
30 0.15
31 0.15
32 0.15
33 0.15
4 -0.52
5 -0.52
6 -0.52
7 -0.52
8 0.91
9 0.91

>  <PUBCHEM_EFFECTIVE_ROTOR_COUNT>  (1) 
6

>  <PUBCHEM_PHARMACOPHORE_FEATURES>  (1) 
9
1 3 acceptor
1 4 acceptor
1 4 anion
1 5 acceptor
1 5 anion
1 6 acceptor
1 7 acceptor
6 10 14 16 18 20 22 rings
6 11 15 17 19 21 23 rings

>  <PUBCHEM_HEAVY_ATOM_COUNT>  (1) 
23

>  <PUBCHEM_ATOM_DEF_STEREO_COUNT>  (1) 
0

>  <PUBCHEM_ATOM_UDEF_STEREO_COUNT>  (1) 
2

>  <PUBCHEM_BOND_DEF_STEREO_COUNT>  (1) 
0

>  <PUBCHEM_BOND_UDEF_STEREO_COUNT>  (1) 
0

>  <PUBCHEM_ISOTOPIC_ATOM_COUNT>  (1) 
0

>  <PUBCHEM_COMPONENT_COUNT>  (1) 
1

>  <PUBCHEM_CACTVS_TAUTO_COUNT>  (1) 
1

>  <PUBCHEM_CONFORMER_ID>  (1) 
0000C25100000001

>  <PUBCHEM_MMFF94_ENERGY>  (1) 
95.5315

>  <PUBCHEM_FEATURE_SELFOVERLAP>  (1) 
45.837

>  <PUBCHEM_SHAPE_FINGERPRINT>  (1) 
10498660 4 17346601850298213168
10646746 165 17632294549671218352
11640471 11 18410018736085083978
12166972 35 18335690659220750184
12173636 292 17559116472055118005
12236239 1 18410281515058820035
12507557 5 17822006527515593443
12633257 1 17240750818521285240
12670546 177 15769198570182363021
12760667 363 16808115932607638202
12788726 201 18270688683434227347
128620 24 15769771377091152834
13134695 92 17312818247870862198
13224815 77 18201446890823465723
13583140 156 17385733537923934859
13675066 3 15574714698598342915
13965767 371 17834961867004768385
14022347 108 13623798389749329614
14251739 40 18187634782869266334
14251764 38 18059284469890810504
14466204 15 17170370945661675796
14739800 52 17985810757138412816
14790565 3 16841647691512310113
15295992 7 16732986397195963357
16988056 13 15318586368876451081
17349148 13 18410291414963575627
17980427 23 18413102853833305504
18219364 16 16877946031365512395
18981168 100 17977990926423112754
192875 21 18335976527912211313
20511986 3 18266155336166947925
20715895 44 18122051019386808085
21033648 29 16370989824243267197
21033650 10 17845110526922341368
21864079 5 18338255806863502261
22393880 68 17131561531043789654
23402539 116 18129925845849433647
235170 7 15770059423378700709
23557571 272 16702021984862067977
23559900 14 16771825429608013150
351380 180 17603854594660210615
4340502 62 17677061127643091515
445580 2 15285904836895429354
469060 322 15911605070176864509
474 4 18187363216350212395
5161694 15 15574711382888917141
57724786 102 16805332075711752860
5895379 119 18130799910317505916
7615 1 18410013238516259169
9971528 1 18262228937933004138
9981440 41 18272365360951382547

>  <PUBCHEM_SHAPE_MULTIPOLES>  (1) 
437.76
9.35
2.2
2.16
0.13
0.05
-0.88
-0.17
-1.83
0.37
0.14
-0.41
-0.11
2.17

>  <PUBCHEM_SHAPE_SELFOVERLAP>  (1) 
922.191

>  <PUBCHEM_SHAPE_VOLUME>  (1) 
246

>  <PUBCHEM_COORDINATE_TYPE>  (1) 
2
5
10

$$$$
