49746
     RDKit          3D

 17 19  0  0  0  0  0  0  0  0999 V2000
   -1.1687   -1.0393    0.0557 N   0  0  0  0  0  0  0  0  0  0  0  0
   -1.2200    1.1822    0.0063 N   0  0  0  0  0  0  0  0  0  0  0  0
    1.5551   -1.1043    0.1755 N   0  0  0  0  0  0  0  0  0  0  0  0
   -0.4463    0.1213    0.0628 C   0  0  0  0  0  0  0  0  0  0  0  0
   -2.4971   -0.7053   -0.0101 C   0  0  0  0  0  0  0  0  0  0  0  0
   -2.5028    0.6866   -0.0398 C   0  0  0  0  0  0  0  0  0  0  0  0
    0.9953    0.1234    0.1252 C   0  0  0  0  0  0  0  0  0  0  0  0
    3.7137   -0.0176    0.2444 C   0  0  0  0  0  0  0  0  0  0  0  0
    5.1947   -0.1371    0.3102 C   0  0  0  0  0  0  0  0  0  0  0  0
    1.7100    1.3080    0.1305 C   0  0  0  0  0  0  0  0  0  0  0  0
    3.0968    1.2274    0.1915 C   0  0  0  0  0  0  0  0  0  0  0  0
   -3.6587   -1.4775   -0.0451 C   0  0  0  0  0  0  0  0  0  0  0  0
   -3.7314    1.3651   -0.1084 C   0  0  0  0  0  0  0  0  0  0  0  0
    2.9053   -1.1429    0.2339 C   0  0  0  0  0  0  0  0  0  0  0  0
   -4.8726   -0.7857   -0.1136 C   0  0  0  0  0  0  0  0  0  0  0  0
   -4.9104    0.6102   -0.1447 C   0  0  0  0  0  0  0  0  0  0  0  0
    5.8372   -0.2142   -1.0742 C   0  0  0  0  0  0  0  0  0  0  0  0
  1  4  1  0
  1  5  1  0
  2  4  2  0
  2  6  1  0
  3  7  2  0
  3 14  1  0
  4  7  1  0
  5  6  2  0
  5 12  1  0
  6 13  1  0
  7 10  1  0
  8  9  1  0
  8 11  1  0
  8 14  2  0
  9 17  1  0
 10 11  2  0
 12 15  2  0
 13 16  2  0
 15 16  1  0
M  END
>  <PUBCHEM_COMPOUND_CID>  (1) 
49746

>  <PUBCHEM_CONFORMER_RMSD>  (1) 
0.6

>  <PUBCHEM_CONFORMER_DIVERSEORDER>  (1) 
1
3
2

>  <PUBCHEM_MMFF94_PARTIAL_CHARGES>  (1) 
24
1 0.03
10 -0.15
11 -0.15
12 -0.15
13 -0.15
14 0.16
15 -0.15
16 -0.15
18 0.27
2 -0.57
21 0.15
22 0.15
23 0.15
24 0.15
25 0.15
26 0.15
27 0.15
3 -0.62
4 0.13
5 -0.15
6 0.23
7 0.36
8 -0.14
9 0.14

>  <PUBCHEM_EFFECTIVE_ROTOR_COUNT>  (1) 
2

>  <PUBCHEM_PHARMACOPHORE_FEATURES>  (1) 
7
1 1 donor
1 17 hydrophobe
1 3 acceptor
3 1 2 4 cation
5 1 2 4 5 6 rings
6 3 7 8 10 11 14 rings
6 5 6 12 13 15 16 rings

>  <PUBCHEM_HEAVY_ATOM_COUNT>  (1) 
17

>  <PUBCHEM_ATOM_DEF_STEREO_COUNT>  (1) 
0

>  <PUBCHEM_ATOM_UDEF_STEREO_COUNT>  (1) 
0

>  <PUBCHEM_BOND_DEF_STEREO_COUNT>  (1) 
0

>  <PUBCHEM_BOND_UDEF_STEREO_COUNT>  (1) 
0

>  <PUBCHEM_ISOTOPIC_ATOM_COUNT>  (1) 
0

>  <PUBCHEM_COMPONENT_COUNT>  (1) 
1

>  <PUBCHEM_CACTVS_TAUTO_COUNT>  (1) 
2

>  <PUBCHEM_CONFORMER_ID>  (1) 
0000C25200000001

>  <PUBCHEM_MMFF94_ENERGY>  (1) 
33.22

>  <PUBCHEM_FEATURE_SELFOVERLAP>  (1) 
35.627

>  <PUBCHEM_SHAPE_FINGERPRINT>  (1) 
10366900 7 17749107802819306248
10616163 171 18340204189039940591
11315181 36 18131354115553573408
12107183 9 17688586061420437137
12236239 1 17676205762460584582
12403259 415 18410283722783072265
13167823 11 18410289224598897931
13288520 33 18341896289904792501
13760787 19 18333166158943136091
14123238 8 17967813842590848764
14251731 8 18410291402252643165
14528608 73 18260271888792274244
15042514 8 18195809789936279479
15196674 1 18410854403656137672
15242439 84 18343018891255769640
15536298 74 18341328989186741928
15788980 27 17060617802287830828
17834072 33 18335422391537415812
17834072 8 18410570674201281629
18186145 218 17749097924605333249
18681886 176 18342453785940811984
200 152 18060135448971845939
20645477 56 18261671476995279565
20645477 70 18270399378526570278
21267235 1 18410581712214549467
21709351 56 18335977635955622092
221490 88 18264212589356860954
2297311 6 18272378563384846933
23175994 123 17275105037239404401
23402539 116 18272926129129261581
23402655 69 18336261254131536445
23557571 272 18341618079072020276
23559900 14 18341606061758833272
26918003 58 18341890801094824401
29717793 49 17918275354733612604
300161 21 18186793669216020594
3004659 81 18188493472314268074
3545911 37 18411136926894804473
42 15 18408602565198101361
4214541 1 18410854352438315945
42788 4 18410573989762936064
4463277 17 18410856573252886572
474 4 17241332520028166468
4990 188 18273221885130583894
5104073 3 18411133670929864920
542803 24 17168144537662722996
58051976 100 18411416245602942375
69090 78 18412538830058802295
77779 3 18410291419474645417
9709674 26 18410859871276515211
9981440 41 17179968943459650976

>  <PUBCHEM_SHAPE_MULTIPOLES>  (1) 
334.91
12.19
1.43
0.69
4.76
0.05
-0.07
-0.91
-1.72
-0.69
0.03
0.47
-0.01
0.1

>  <PUBCHEM_SHAPE_SELFOVERLAP>  (1) 
740.754

>  <PUBCHEM_SHAPE_VOLUME>  (1) 
179.4

>  <PUBCHEM_COORDINATE_TYPE>  (1) 
2
5
10

$$$$
