49744
     RDKit          3D

 24 26  0  0  0  0  0  0  0  0999 V2000
    0.6558   -0.0793    0.2001 O   0  0  0  0  0  0  0  0  0  0  0  0
   -4.0368   -0.7021    0.6914 O   0  0  0  0  0  0  0  0  0  0  0  0
    1.2511   -4.0553   -0.4606 O   0  0  0  0  0  0  0  0  0  0  0  0
   -2.9448    1.6449   -0.0694 N   0  0  0  0  0  0  0  0  0  0  0  0
   -1.8256    1.0768    0.6810 C   0  0  0  0  0  0  0  0  0  0  0  0
   -1.6720   -0.3917    0.4434 C   0  0  0  0  0  0  0  0  0  0  0  0
   -0.4120   -0.9406    0.2041 C   0  0  0  0  0  0  0  0  0  0  0  0
   -2.7491    1.4491   -1.5054 C   0  0  0  0  0  0  0  0  0  0  0  0
   -3.0960    3.0671    0.2366 C   0  0  0  0  0  0  0  0  0  0  0  0
   -0.2795   -2.3106   -0.0164 C   0  0  0  0  0  0  0  0  0  0  0  0
   -2.7963   -1.2174    0.4604 C   0  0  0  0  0  0  0  0  0  0  0  0
   -1.4027   -3.1408    0.0001 C   0  0  0  0  0  0  0  0  0  0  0  0
   -2.6617   -2.5888    0.2393 C   0  0  0  0  0  0  0  0  0  0  0  0
   -3.9134    2.0407   -2.2765 C   0  0  0  0  0  0  0  0  0  0  0  0
   -3.3596    3.2573    1.7180 C   0  0  0  0  0  0  0  0  0  0  0  0
    1.0610   -2.8630   -0.2642 C   0  0  0  0  0  0  0  0  0  0  0  0
    1.9197   -0.5954   -0.0423 C   0  0  0  0  0  0  0  0  0  0  0  0
    2.1762   -1.8948   -0.2617 C   0  0  0  0  0  0  0  0  0  0  0  0
    2.9953    0.4160   -0.0188 C   0  0  0  0  0  0  0  0  0  0  0  0
    4.2821    0.0628    0.3955 C   0  0  0  0  0  0  0  0  0  0  0  0
    2.7314    1.7309   -0.4106 C   0  0  0  0  0  0  0  0  0  0  0  0
    5.2982    1.0181    0.4180 C   0  0  0  0  0  0  0  0  0  0  0  0
    3.7476    2.6862   -0.3881 C   0  0  0  0  0  0  0  0  0  0  0  0
    5.0310    2.3297    0.0262 C   0  0  0  0  0  0  0  0  0  0  0  0
  1  7  1  0
  1 17  1  0
  2 11  1  0
  3 16  2  0
  4  5  1  0
  4  8  1  0
  4  9  1  0
  5  6  1  0
  6  7  2  0
  6 11  1  0
  7 10  1  0
  8 14  1  0
  9 15  1  0
 10 12  2  0
 10 16  1  0
 11 13  2  0
 12 13  1  0
 16 18  1  0
 17 18  2  0
 17 19  1  0
 19 20  2  0
 19 21  1  0
 20 22  1  0
 21 23  2  0
 22 24  2  0
 23 24  1  0
M  END
>  <PUBCHEM_COMPOUND_CID>  (1) 
49744

>  <PUBCHEM_CONFORMER_RMSD>  (1) 
0.8

>  <PUBCHEM_CONFORMER_DIVERSEORDER>  (1) 
3
1
6
8
7
4
2
5

>  <PUBCHEM_MMFF94_PARTIAL_CHARGES>  (1) 
31
1 -0.16
10 0.09
11 0.08
12 -0.15
13 -0.15
16 0.47
17 0.05
18 -0.14
19 0.03
2 -0.53
20 -0.15
21 -0.15
22 -0.15
23 -0.15
24 -0.15
3 -0.57
31 0.15
32 0.15
39 0.15
4 -0.81
40 0.45
41 0.15
42 0.15
43 0.15
44 0.15
45 0.15
5 0.41
6 -0.14
7 0.08
8 0.27
9 0.27

>  <PUBCHEM_EFFECTIVE_ROTOR_COUNT>  (1) 
5

>  <PUBCHEM_PHARMACOPHORE_FEATURES>  (1) 
7
1 1 acceptor
1 2 donor
1 3 acceptor
1 4 cation
6 1 7 10 16 17 18 rings
6 19 20 21 22 23 24 rings
6 6 7 10 11 12 13 rings

>  <PUBCHEM_HEAVY_ATOM_COUNT>  (1) 
24

>  <PUBCHEM_ATOM_DEF_STEREO_COUNT>  (1) 
0

>  <PUBCHEM_ATOM_UDEF_STEREO_COUNT>  (1) 
0

>  <PUBCHEM_BOND_DEF_STEREO_COUNT>  (1) 
0

>  <PUBCHEM_BOND_UDEF_STEREO_COUNT>  (1) 
0

>  <PUBCHEM_ISOTOPIC_ATOM_COUNT>  (1) 
0

>  <PUBCHEM_COMPONENT_COUNT>  (1) 
1

>  <PUBCHEM_CACTVS_TAUTO_COUNT>  (1) 
5

>  <PUBCHEM_CONFORMER_ID>  (1) 
0000C25000000003

>  <PUBCHEM_MMFF94_ENERGY>  (1) 
71.4784

>  <PUBCHEM_FEATURE_SELFOVERLAP>  (1) 
35.548

>  <PUBCHEM_SHAPE_FINGERPRINT>  (1) 
10411042 1 17115228625454242390
10670039 82 18046080499751916172
11045515 52 17687173605833795535
11135609 187 18338221692766932637
11370993 70 18409724058605804364
11582403 64 16807549701077337525
11595378 159 17827334873113493760
11725454 13 16807274805969347725
12107183 9 18263917745048934474
12173636 292 18340769363838434870
12390115 104 18270419233859523912
12403260 363 18411128143623750962
12403814 3 18263368156158677771
12788726 201 18265037214636016787
12978246 48 18336829796512568744
13140716 1 18120380856470079227
13583140 156 17313385578306226001
138480 1 17474674949181927000
13965767 371 18042409023767343620
14251751 93 18337106864894511992
14508225 48 17263271234266634150
15042514 8 17905050596753565258
15840311 113 17977386033075574717
17974551 9 15144880217144722689
17980427 23 17697013865408518074
18785283 64 18050581642198732203
20510252 161 18198913684963517354
21033648 144 18261103037493541988
22182313 1 18189063014446195207
22182937 141 18411706477907401089
22907989 373 18194953261033225613
23402539 116 17983576596032751134
23419403 2 16401925408989040250
23558518 356 18334304153646968835
23559900 14 18271526386956844738
283562 15 18338796844173484427
350125 39 18338240465614354226
474 4 18124027928039109105
5939293 188 17834397813123646802
633830 44 17985549957384820957
9862522 239 18336816585124243566
9981440 41 18410570695354527554

>  <PUBCHEM_SHAPE_MULTIPOLES>  (1) 
471.32
9.26
4.75
1.16
7.97
1.44
0.37
-8.31
-0.06
-2.02
0.04
-1.6
-1.03
0.29

>  <PUBCHEM_SHAPE_SELFOVERLAP>  (1) 
1021.385

>  <PUBCHEM_SHAPE_VOLUME>  (1) 
258.1

>  <PUBCHEM_COORDINATE_TYPE>  (1) 
2
5
10

$$$$
