49757
     RDKit          3D

 14 15  0  0  0  0  0  0  0  0999 V2000
    2.4168    1.6317    0.4428 O   0  0  0  0  0  0  0  0  0  0  0  0
    3.5146   -0.3958   -0.2592 O   0  0  0  0  0  0  0  0  0  0  0  0
   -2.6347   -1.4936    0.5847 O   0  0  0  0  0  0  0  0  0  0  0  0
   -2.8279    0.8451    0.0404 C   0  0  0  0  0  0  0  0  0  0  0  0
   -0.5718   -0.4728    0.1234 C   0  0  0  0  0  0  0  0  0  0  0  0
   -2.0184   -0.4523    0.2736 C   0  0  0  0  0  0  0  0  0  0  0  0
    1.5378    0.6142    0.2320 C   0  0  0  0  0  0  0  0  0  0  0  0
    0.1685    0.6819    0.3876 C   0  0  0  0  0  0  0  0  0  0  0  0
    2.1646   -0.5435   -0.1688 C   0  0  0  0  0  0  0  0  0  0  0  0
   -2.6288    1.3279   -1.3930 C   0  0  0  0  0  0  0  0  0  0  0  0
   -4.3137    0.6255    0.3292 C   0  0  0  0  0  0  0  0  0  0  0  0
    0.0687   -1.6557   -0.2862 C   0  0  0  0  0  0  0  0  0  0  0  0
    1.4568   -1.6973   -0.4361 C   0  0  0  0  0  0  0  0  0  0  0  0
    3.6673    0.9847    0.1295 C   0  0  0  0  0  0  0  0  0  0  0  0
  1  7  1  0
  1 14  1  0
  2  9  1  0
  2 14  1  0
  3  6  2  0
  4  6  1  0
  4 10  1  0
  4 11  1  0
  5  6  1  0
  5  8  1  0
  5 12  2  0
  7  8  2  0
  7  9  1  0
  9 13  2  0
 12 13  1  0
M  END
>  <PUBCHEM_COMPOUND_CID>  (1) 
49757

>  <PUBCHEM_CONFORMER_RMSD>  (1) 
0.6

>  <PUBCHEM_CONFORMER_DIVERSEORDER>  (1) 
1
8
10
6
3
7
9
2
5
4

>  <PUBCHEM_MMFF94_PARTIAL_CHARGES>  (1) 
15
1 -0.36
12 -0.15
13 -0.15
14 0.56
16 0.15
2 -0.36
23 0.15
24 0.15
3 -0.57
4 0.06
5 0.09
6 0.42
7 0.08
8 -0.15
9 0.08

>  <PUBCHEM_EFFECTIVE_ROTOR_COUNT>  (1) 
2.6

>  <PUBCHEM_PHARMACOPHORE_FEATURES>  (1) 
6
1 1 acceptor
1 2 acceptor
1 3 acceptor
3 4 10 11 hydrophobe
5 1 2 7 9 14 rings
6 5 7 8 9 12 13 rings

>  <PUBCHEM_HEAVY_ATOM_COUNT>  (1) 
14

>  <PUBCHEM_ATOM_DEF_STEREO_COUNT>  (1) 
0

>  <PUBCHEM_ATOM_UDEF_STEREO_COUNT>  (1) 
0

>  <PUBCHEM_BOND_DEF_STEREO_COUNT>  (1) 
0

>  <PUBCHEM_BOND_UDEF_STEREO_COUNT>  (1) 
0

>  <PUBCHEM_ISOTOPIC_ATOM_COUNT>  (1) 
0

>  <PUBCHEM_COMPONENT_COUNT>  (1) 
1

>  <PUBCHEM_CACTVS_TAUTO_COUNT>  (1) 
2

>  <PUBCHEM_CONFORMER_ID>  (1) 
0000C25D00000001

>  <PUBCHEM_MMFF94_ENERGY>  (1) 
35.8515

>  <PUBCHEM_FEATURE_SELFOVERLAP>  (1) 
30.601

>  <PUBCHEM_SHAPE_FINGERPRINT>  (1) 
10608611 8 18409165489550744813
11031198 65 18272371949367040429
11132069 177 18260546757803399605
11471102 20 18343019960686730629
11543360 7 14404899249808233920
124424 183 18260259712153781914
12654215 9 18341047424368879516
12932764 1 18040151790650814651
13380535 76 18411418401771613211
13581323 91 17022625264764320091
13897977 150 18412542106796913865
14325111 11 18340770428715952578
14911166 2 18272662225143249326
15219456 202 18410015420628800875
15775835 57 18201719569828337101
16945 1 18269275668683322050
17844478 74 18261964049650258539
18175812 5 18335704957071770823
18186145 218 18343021081905381492
200 152 17846492660694461487
20201158 50 18340770351427763587
20645477 70 18131073679811515262
21501502 16 18410848863428082523
21639500 275 18201142300301190861
23402539 116 17967806189571316927
23402655 69 18201149950292137869
23557571 272 17894918391134329957
23559900 14 18060140986176720560
25 1 18341611486302047116
2748010 2 18341898545015940862
305870 269 17458897133332864651
4047638 21 18409451353973281201
528886 8 18343016687953351762
53812653 166 18412825785155073130
6333449 129 18408038528987271295
69090 78 18411133637176877983
7364860 26 18267867177267040546
77492 1 16845289398038756711
81228 2 17620738922644429162
8809292 202 18334020483836202003

>  <PUBCHEM_SHAPE_MULTIPOLES>  (1) 
270.51
6.57
1.71
0.83
1.66
0.33
-0.19
-2.18
0.13
-0.28
-0.11
0.42
-0.14
0.71

>  <PUBCHEM_SHAPE_SELFOVERLAP>  (1) 
579.554

>  <PUBCHEM_SHAPE_VOLUME>  (1) 
151.2

>  <PUBCHEM_COORDINATE_TYPE>  (1) 
2
5
10

$$$$
