49754
     RDKit          3D

 13 14  0  0  0  0  0  0  0  0999 V2000
   -1.8053    0.8242    0.0003 O   0  0  0  0  0  0  0  0  0  0  0  0
   -1.8027   -1.4129    0.0001 N   0  0  0  0  0  0  0  0  0  0  0  0
    4.5246    0.3266    0.0003 N   0  0  0  0  0  0  0  0  0  0  0  0
   -3.1180   -0.9874   -0.0002 N   0  0  0  0  0  0  0  0  0  0  0  0
   -4.0752    1.2280   -0.0004 N   0  0  0  0  0  0  0  0  0  0  0  0
    0.3524   -0.1573    0.0000 C   0  0  0  0  0  0  0  0  0  0  0  0
    0.9061    1.1230    0.0000 C   0  0  0  0  0  0  0  0  0  0  0  0
    1.1845   -1.2769   -0.0001 C   0  0  0  0  0  0  0  0  0  0  0  0
   -1.0803   -0.3234    0.0001 C   0  0  0  0  0  0  0  0  0  0  0  0
    3.1237    0.1641   -0.0003 C   0  0  0  0  0  0  0  0  0  0  0  0
    2.2917    1.2837   -0.0001 C   0  0  0  0  0  0  0  0  0  0  0  0
    2.5701   -1.1162   -0.0002 C   0  0  0  0  0  0  0  0  0  0  0  0
   -3.0714    0.3244    0.0003 C   0  0  0  0  0  0  0  0  0  0  0  0
  1  9  1  0
  1 13  1  0
  2  4  1  0
  2  9  2  0
  3 10  1  0
  4 13  2  0
  5 13  1  0
  6  7  2  0
  6  8  1  0
  6  9  1  0
  7 11  1  0
  8 12  2  0
 10 11  2  0
 10 12  1  0
M  END
>  <PUBCHEM_COMPOUND_CID>  (1) 
49754

>  <PUBCHEM_CONFORMER_RMSD>  (1) 
0.4

>  <PUBCHEM_CONFORMER_DIVERSEORDER>  (1) 
1

>  <PUBCHEM_MMFF94_PARTIAL_CHARGES>  (1) 
21
1 -0.28
10 0.1
11 -0.15
12 -0.15
13 0.56
14 0.15
15 0.15
16 0.15
17 0.15
18 0.4
19 0.4
2 -0.34
20 0.4
21 0.4
3 -0.9
4 -0.34
5 -0.88
6 0.05
7 -0.15
8 -0.15
9 0.43

>  <PUBCHEM_EFFECTIVE_ROTOR_COUNT>  (1) 
1

>  <PUBCHEM_PHARMACOPHORE_FEATURES>  (1) 
6
1 3 cation
1 3 donor
1 5 donor
3 4 5 13 cation
5 1 2 4 9 13 rings
6 6 7 8 10 11 12 rings

>  <PUBCHEM_HEAVY_ATOM_COUNT>  (1) 
13

>  <PUBCHEM_ATOM_DEF_STEREO_COUNT>  (1) 
0

>  <PUBCHEM_ATOM_UDEF_STEREO_COUNT>  (1) 
0

>  <PUBCHEM_BOND_DEF_STEREO_COUNT>  (1) 
0

>  <PUBCHEM_BOND_UDEF_STEREO_COUNT>  (1) 
0

>  <PUBCHEM_ISOTOPIC_ATOM_COUNT>  (1) 
0

>  <PUBCHEM_COMPONENT_COUNT>  (1) 
1

>  <PUBCHEM_CACTVS_TAUTO_COUNT>  (1) 
4

>  <PUBCHEM_CONFORMER_ID>  (1) 
0000C25A00000001

>  <PUBCHEM_MMFF94_ENERGY>  (1) 
33.8479

>  <PUBCHEM_FEATURE_SELFOVERLAP>  (1) 
30.446

>  <PUBCHEM_SHAPE_FINGERPRINT>  (1) 
10608611 8 18410570716808316225
11062470 55 18343864407212985888
11401426 45 18342452656248348936
11471102 20 18410852122991365956
12932764 1 17632573911313146035
13380535 76 18410855460260485351
13571099 22 18130791118429293102
13922767 16 18272365391157993600
14144814 61 18411138017536903467
14325111 11 18410574023806202273
14897335 6 18412259523871563239
15442244 35 18124034520533976394
15775835 57 18335423456330511471
16945 1 18410575080605501446
18186145 218 18113616755171956870
200 152 18060410344391066127
20201158 50 18410856551181925202
20645477 70 18199749158902658455
21267235 1 18410582815715377791
23402539 116 18130780153736645165
23402655 69 18270673178443897045
23463225 33 18407758131962845406
23559900 14 18272651251855196704
3312278 4 18413674620863656835
5104073 3 18410011039524711594
528886 8 18411414016641340786
53812653 166 18412541020423337328
69090 78 18412820283724122503
7364860 26 18268710511433702354

>  <PUBCHEM_SHAPE_MULTIPOLES>  (1) 
241.74
6.93
1.43
0.58
0.84
0.08
0
-1.25
0
0.11
0
-0.05
0
0

>  <PUBCHEM_SHAPE_SELFOVERLAP>  (1) 
526.953

>  <PUBCHEM_SHAPE_VOLUME>  (1) 
132.4

>  <PUBCHEM_COORDINATE_TYPE>  (1) 
2
5
10

$$$$
