49785
     RDKit          3D

 26 26  0  0  0  0  0  0  0  0999 V2000
   -0.9260   -1.8288    1.4632 I   0  0  0  0  0  0  0  0  0  0  0  0
   -1.5366    4.0024   -0.2418 I   0  0  0  0  0  0  0  0  0  0  0  0
    3.9820    1.3894   -0.2130 I   0  0  0  0  0  0  0  0  0  0  0  0
   -2.7855    1.3001    1.8905 O   0  0  0  0  0  0  0  0  0  0  0  0
    3.0798   -1.4642   -1.3147 O   0  0  0  0  0  0  0  0  0  0  0  0
    1.7094    3.7039   -1.9373 O   0  0  0  0  0  0  0  0  0  0  0  0
    2.0895    4.5319    0.1451 O   0  0  0  0  0  0  0  0  0  0  0  0
   -3.1055    0.6450   -0.3116 N   0  0  0  0  0  0  0  0  0  0  0  0
    2.1263   -1.0451    0.7928 N   0  0  0  0  0  0  0  0  0  0  0  0
   -4.9813   -0.8586    0.1572 C   0  0  0  0  0  0  0  0  0  0  0  0
   -4.4922   -1.9115   -0.8374 C   0  0  0  0  0  0  0  0  0  0  0  0
   -4.5379    0.5404   -0.2531 C   0  0  0  0  0  0  0  0  0  0  0  0
   -4.9692   -3.3099   -0.4466 C   0  0  0  0  0  0  0  0  0  0  0  0
   -0.8701    1.1083    0.5517 C   0  0  0  0  0  0  0  0  0  0  0  0
   -4.4568   -4.3641   -1.4149 C   0  0  0  0  0  0  0  0  0  0  0  0
   -2.3351    1.0221    0.7822 C   0  0  0  0  0  0  0  0  0  0  0  0
    1.3137    0.0746    0.5626 C   0  0  0  0  0  0  0  0  0  0  0  0
   -0.0617   -0.0053    0.7806 C   0  0  0  0  0  0  0  0  0  0  0  0
   -0.3028    2.3018    0.1051 C   0  0  0  0  0  0  0  0  0  0  0  0
    1.0726    2.3816   -0.1130 C   0  0  0  0  0  0  0  0  0  0  0  0
    3.6586   -2.8887    0.5428 C   0  0  0  0  0  0  0  0  0  0  0  0
    1.8808    1.2680    0.1157 C   0  0  0  0  0  0  0  0  0  0  0  0
    4.5689   -3.6742   -0.3986 C   0  0  0  0  0  0  0  0  0  0  0  0
    2.9419   -1.7203   -0.1232 C   0  0  0  0  0  0  0  0  0  0  0  0
    5.2692   -4.8325    0.2979 C   0  0  0  0  0  0  0  0  0  0  0  0
    1.6680    3.6339   -0.5821 C   0  0  0  0  0  0  0  0  0  0  0  0
  1 18  1  0
  2 19  1  0
  3 22  1  0
  4 16  2  0
  5 24  2  0
  6 26  1  0
  7 26  2  0
  8 12  1  0
  8 16  1  0
  9 17  1  0
  9 24  1  0
 10 11  1  0
 10 12  1  0
 11 13  1  0
 13 15  1  0
 14 16  1  0
 14 18  2  0
 14 19  1  0
 17 18  1  0
 17 22  2  0
 19 20  2  0
 20 22  1  0
 20 26  1  0
 21 23  1  0
 21 24  1  0
 23 25  1  0
M  END
>  <PUBCHEM_COMPOUND_CID>  (1) 
49785

>  <PUBCHEM_CONFORMER_RMSD>  (1) 
1

>  <PUBCHEM_CONFORMER_DIVERSEORDER>  (1) 
1
46
7
42
30
27
41
39
2
26
35
37
40
4
3
43
5
24
44
22
14
38
34
31
18
36
6
25
12
32
20
33
28
17
19
8
13
21
45
16
15
10
11
23
9
29

>  <PUBCHEM_MMFF94_PARTIAL_CHARGES>  (1) 
23
1 -0.08
12 0.3
14 0.09
16 0.54
17 0.12
18 0.08
19 0.08
2 -0.08
20 0.09
21 0.06
22 0.08
24 0.57
26 0.63
3 -0.08
35 0.37
4 -0.57
41 0.37
47 0.5
5 -0.57
6 -0.65
7 -0.57
8 -0.73
9 -0.55

>  <PUBCHEM_EFFECTIVE_ROTOR_COUNT>  (1) 
11

>  <PUBCHEM_PHARMACOPHORE_FEATURES>  (1) 
13
1 1 hydrophobe
1 15 hydrophobe
1 2 hydrophobe
1 25 hydrophobe
1 3 hydrophobe
1 4 acceptor
1 5 acceptor
1 6 acceptor
1 7 acceptor
1 8 donor
1 9 donor
3 6 7 26 anion
6 14 17 18 19 20 22 rings

>  <PUBCHEM_HEAVY_ATOM_COUNT>  (1) 
26

>  <PUBCHEM_ATOM_DEF_STEREO_COUNT>  (1) 
0

>  <PUBCHEM_ATOM_UDEF_STEREO_COUNT>  (1) 
0

>  <PUBCHEM_BOND_DEF_STEREO_COUNT>  (1) 
0

>  <PUBCHEM_BOND_UDEF_STEREO_COUNT>  (1) 
0

>  <PUBCHEM_ISOTOPIC_ATOM_COUNT>  (1) 
0

>  <PUBCHEM_COMPONENT_COUNT>  (1) 
1

>  <PUBCHEM_CACTVS_TAUTO_COUNT>  (1) 
4

>  <PUBCHEM_CONFORMER_ID>  (1) 
0000C27900000001

>  <PUBCHEM_MMFF94_ENERGY>  (1) 
82.9201

>  <PUBCHEM_FEATURE_SELFOVERLAP>  (1) 
66.031

>  <PUBCHEM_SHAPE_FINGERPRINT>  (1) 
10319688 45 18123746461731655634
10411042 1 18264774250793674248
10622 236 18200579385309596647
11069576 57 18124579036841867295
11227688 84 18191897649917598610
11315621 136 18267306623762614647
11963148 33 18410282619673160266
12107183 9 18270691874942581651
12293681 25 18041577921730702250
12788726 201 17610903383349158378
13009979 54 18130515115182954417
13140716 1 18121236525825532952
14117953 113 18053098424705056239
16945 1 18262534666163228896
17492 89 18411979200284334619
17909252 39 18127408080307627075
19319366 153 17694210475850827135
20028762 73 18126001809356690884
20775438 99 18121203531934282811
21054139 6 18125159595759826860
2334 1 17686637035696321064
23379529 103 18343021069126611439
23559900 14 18411691085203210425
2748010 2 17830192546573272672
4280585 95 18265604395026748730
4409770 3 17541938689544800716
463206 1 18263367992881972307
70251023 43 18335143068561061769
7970288 3 18267300937089439935
9709674 26 18335142050516668947

>  <PUBCHEM_SHAPE_MULTIPOLES>  (1) 
537.43
10.39
7.26
1.26
3.83
1.33
0.03
14.95
-2.39
-3.96
-2.19
0.48
0.17
-2.05

>  <PUBCHEM_SHAPE_SELFOVERLAP>  (1) 
1031.917

>  <PUBCHEM_SHAPE_VOLUME>  (1) 
336.4

>  <PUBCHEM_COORDINATE_TYPE>  (1) 
2
5
10

$$$$
