49787
     RDKit          3D

  9  9  0  0  0  0  0  0  0  0999 V2000
   -1.9326   -1.1376   -0.2375 F   0  0  0  0  0  0  0  0  0  0  0  0
   -1.1597    0.1336    1.3603 F   0  0  0  0  0  0  0  0  0  0  0  0
   -1.9475    1.0334   -0.4662 F   0  0  0  0  0  0  0  0  0  0  0  0
    0.9099   -1.1979   -0.0746 N   0  0  0  0  0  0  0  0  0  0  0  0
    0.8940    1.1678   -0.3575 N   0  0  0  0  0  0  0  0  0  0  0  0
    0.1318   -0.0637   -0.5989 C   0  0  0  0  0  0  0  0  0  0  0  0
    2.2801   -0.6823   -0.0411 C   0  0  0  0  0  0  0  0  0  0  0  0
    2.0815    0.7541    0.3873 C   0  0  0  0  0  0  0  0  0  0  0  0
   -1.2575   -0.0074    0.0283 C   0  0  0  0  0  0  0  0  0  0  0  0
  1  9  1  0
  2  9  1  0
  3  9  1  0
  4  6  1  0
  4  7  1  0
  5  6  1  0
  5  8  1  0
  6  9  1  0
  7  8  1  0
M  END
>  <PUBCHEM_COMPOUND_CID>  (1) 
49787

>  <PUBCHEM_CONFORMER_RMSD>  (1) 
0.4

>  <PUBCHEM_CONFORMER_DIVERSEORDER>  (1) 
1

>  <PUBCHEM_MMFF94_PARTIAL_CHARGES>  (1) 
11
1 -0.34
15 0.36
16 0.36
2 -0.34
3 -0.34
4 -0.9
5 -0.9
6 0.54
7 0.27
8 0.27
9 1.02

>  <PUBCHEM_EFFECTIVE_ROTOR_COUNT>  (1) 
2

>  <PUBCHEM_PHARMACOPHORE_FEATURES>  (1) 
5
1 4 cation
1 4 donor
1 5 cation
1 5 donor
5 4 5 6 7 8 rings

>  <PUBCHEM_HEAVY_ATOM_COUNT>  (1) 
9

>  <PUBCHEM_ATOM_DEF_STEREO_COUNT>  (1) 
0

>  <PUBCHEM_ATOM_UDEF_STEREO_COUNT>  (1) 
0

>  <PUBCHEM_BOND_DEF_STEREO_COUNT>  (1) 
0

>  <PUBCHEM_BOND_UDEF_STEREO_COUNT>  (1) 
0

>  <PUBCHEM_ISOTOPIC_ATOM_COUNT>  (1) 
0

>  <PUBCHEM_COMPONENT_COUNT>  (1) 
1

>  <PUBCHEM_CACTVS_TAUTO_COUNT>  (1) 
1

>  <PUBCHEM_CONFORMER_ID>  (1) 
0000C27B00000001

>  <PUBCHEM_MMFF94_ENERGY>  (1) 
6.8624

>  <PUBCHEM_FEATURE_SELFOVERLAP>  (1) 
25.441

>  <PUBCHEM_SHAPE_FINGERPRINT>  (1) 
18185500 45 18272368693650019518
20096714 4 18272089426481625884
21040471 1 18338796835714801364
23552423 10 18259705588389834894
24536 1 17274833419196566479
29004967 10 18187089433902359496
369184 2 18413102870495826643
5084963 1 18271248325803407462

>  <PUBCHEM_SHAPE_MULTIPOLES>  (1) 
153.43
2.95
1.19
0.82
0.16
0.04
-0.18
0.05
-0.12
0.11
0.09
-0.16
-0.07
0.07

>  <PUBCHEM_SHAPE_SELFOVERLAP>  (1) 
306.766

>  <PUBCHEM_SHAPE_VOLUME>  (1) 
91.8

>  <PUBCHEM_COORDINATE_TYPE>  (1) 
2
5
10

$$$$
