49792
     RDKit          3D

 23 24  0  0  1  0  0  0  0  0999 V2000
   -1.6659   -1.0163    2.0503 O   0  0  0  0  0  0  0  0  0  0  0  0
   -2.0551    2.8213    0.6320 N   0  0  0  0  0  0  0  0  0  0  0  0
   -1.7130   -2.9910    0.9117 N   0  0  0  0  0  0  0  0  0  0  0  0
   -1.4556   -0.8985   -0.3914 C   0  0  0  0  0  0  0  0  0  0  0  0
   -2.6608   -1.2574   -1.3565 C   0  0  0  0  0  0  0  0  0  0  0  0
   -1.2619    0.6380   -0.1521 C   0  0  0  0  0  0  0  0  0  0  0  0
   -0.1316   -1.4538   -1.0571 C   0  0  0  0  0  0  0  0  0  0  0  0
   -1.6281   -1.6164    0.9762 C   0  0  0  0  0  0  0  0  0  0  0  0
   -2.4011    1.4046    0.5255 C   0  0  0  0  0  0  0  0  0  0  0  0
   -4.0673   -0.9442   -0.8185 C   0  0  0  0  0  0  0  0  0  0  0  0
   -2.5297   -0.6664   -2.7692 C   0  0  0  0  0  0  0  0  0  0  0  0
    1.1679   -1.2580   -0.3016 C   0  0  0  0  0  0  0  0  0  0  0  0
    1.9527   -0.1202   -0.4890 C   0  0  0  0  0  0  0  0  0  0  0  0
    1.5323   -2.2649    0.5800 C   0  0  0  0  0  0  0  0  0  0  0  0
    3.1552    0.0031    0.2469 C   0  0  0  0  0  0  0  0  0  0  0  0
   -0.8305    2.9912    1.4133 C   0  0  0  0  0  0  0  0  0  0  0  0
   -3.1551    3.5723    1.2362 C   0  0  0  0  0  0  0  0  0  0  0  0
    2.7148   -2.1435    1.3038 C   0  0  0  0  0  0  0  0  0  0  0  0
    1.5858    0.9006   -1.3811 C   0  0  0  0  0  0  0  0  0  0  0  0
    3.5221   -1.0175    1.1394 C   0  0  0  0  0  0  0  0  0  0  0  0
    3.9556    1.1432    0.0689 C   0  0  0  0  0  0  0  0  0  0  0  0
    2.3932    2.0264   -1.5456 C   0  0  0  0  0  0  0  0  0  0  0  0
    3.5759    2.1475   -0.8220 C   0  0  0  0  0  0  0  0  0  0  0  0
  1  8  2  0
  2  9  1  0
  2 16  1  0
  2 17  1  0
  3  8  1  0
  4  5  1  0
  4  6  1  0
  4  7  1  0
  4  8  1  0
  5 10  1  0
  5 11  1  0
  6  9  1  0
  7 12  1  0
 12 13  2  0
 12 14  1  0
 13 15  1  0
 13 19  1  0
 14 18  2  0
 15 20  2  0
 15 21  1  0
 18 20  1  0
 19 22  2  0
 21 23  2  0
 22 23  1  0
M  END
>  <PUBCHEM_COMPOUND_CID>  (1) 
49792

>  <PUBCHEM_CONFORMER_RMSD>  (1) 
0.8

>  <PUBCHEM_CONFORMER_DIVERSEORDER>  (1) 
1
39
18
23
11
21
5
36
27
22
25
16
33
24
7
31
35
14
13
38
29
32
15
19
9
37
3
12
8
30
34
26
17
4
20
6
10
2
28

>  <PUBCHEM_MMFF94_PARTIAL_CHARGES>  (1) 
26
1 -0.57
12 -0.14
14 -0.15
16 0.27
17 0.27
18 -0.15
19 -0.15
2 -0.81
20 -0.15
21 -0.15
22 -0.15
23 -0.15
3 -0.8
37 0.15
38 0.37
39 0.37
4 0.06
46 0.15
47 0.15
48 0.15
49 0.15
50 0.15
51 0.15
7 0.14
8 0.57
9 0.27

>  <PUBCHEM_EFFECTIVE_ROTOR_COUNT>  (1) 
7

>  <PUBCHEM_PHARMACOPHORE_FEATURES>  (1) 
7
1 1 acceptor
1 2 cation
1 3 donor
3 5 10 11 hydrophobe
4 4 5 6 7 hydrophobe
6 12 13 14 15 18 20 rings
6 13 15 19 21 22 23 rings

>  <PUBCHEM_HEAVY_ATOM_COUNT>  (1) 
23

>  <PUBCHEM_ATOM_DEF_STEREO_COUNT>  (1) 
0

>  <PUBCHEM_ATOM_UDEF_STEREO_COUNT>  (1) 
1

>  <PUBCHEM_BOND_DEF_STEREO_COUNT>  (1) 
0

>  <PUBCHEM_BOND_UDEF_STEREO_COUNT>  (1) 
0

>  <PUBCHEM_ISOTOPIC_ATOM_COUNT>  (1) 
0

>  <PUBCHEM_COMPONENT_COUNT>  (1) 
1

>  <PUBCHEM_CACTVS_TAUTO_COUNT>  (1) 
2

>  <PUBCHEM_CONFORMER_ID>  (1) 
0000C28000000001

>  <PUBCHEM_MMFF94_ENERGY>  (1) 
88.3103

>  <PUBCHEM_FEATURE_SELFOVERLAP>  (1) 
35.776

>  <PUBCHEM_SHAPE_FINGERPRINT>  (1) 
10871710 139 18199759187820144709
11370993 70 17460015486998115630
11640471 11 18341618062076728080
12156800 1 16385287718816822912
12403259 327 16955663756745090441
12633257 1 17749665182748550138
12788726 201 18272091608567930177
13009979 54 18268697338784544290
13140716 1 17977391855826133976
13965767 371 16685689521231393409
14223421 5 17532374351733448618
14787075 74 17397839350056457550
15420108 30 16758016508529369193
16945 1 18040992930152719294
17349148 13 18263064617813816854
17980427 23 18197196102040925498
18981168 100 16773250486929257514
192875 21 18337936961607964062
20510252 161 17828493805455293942
20715895 44 17977371747549630773
21524375 3 17910961240472398801
23419403 2 17330207024137694652
23557571 272 17489299759274610838
23558518 356 18268149760498158007
23559900 14 18041825299252270954
23598288 3 18201428135197078599
392239 28 17979076312404807616
474 4 17978237049872423425
6438718 38 17989496207886066949
7097593 13 18120088373444651066
7164475 11 18200302222226076991
7226269 152 17906735057663700212
7471813 234 18127664176131999342
7832392 63 18125159329740853734

>  <PUBCHEM_SHAPE_MULTIPOLES>  (1) 
457.5
6.64
3.72
1.9
1.68
2.48
-0.54
1.45
-0.34
-1.79
1.66
-0.9
-0.08
-2.49

>  <PUBCHEM_SHAPE_SELFOVERLAP>  (1) 
954.404

>  <PUBCHEM_SHAPE_VOLUME>  (1) 
261

>  <PUBCHEM_COORDINATE_TYPE>  (1) 
2
5
10

$$$$
