49798
     RDKit          3D

 23 25  0  0  0  0  0  0  0  0999 V2000
   -3.9135    1.9296    0.0123 O   0  0  0  0  0  0  0  0  0  0  0  0
    2.2671    2.7975   -0.2979 O   0  0  0  0  0  0  0  0  0  0  0  0
    0.5147    1.9964    0.9983 N   0  0  0  0  0  0  0  0  0  0  0  0
   -1.1439   -2.9481   -0.1966 C   0  0  0  0  0  0  0  0  0  0  0  0
   -2.1646   -3.7130    0.6594 C   0  0  0  0  0  0  0  0  0  0  0  0
   -3.5120   -2.9954    0.4882 C   0  0  0  0  0  0  0  0  0  0  0  0
   -1.7172   -1.5666   -0.1654 C   0  0  0  0  0  0  0  0  0  0  0  0
   -3.0617   -1.5935    0.2233 C   0  0  0  0  0  0  0  0  0  0  0  0
   -1.0952   -0.3769   -0.5040 C   0  0  0  0  0  0  0  0  0  0  0  0
   -1.8406    0.8021   -0.4361 C   0  0  0  0  0  0  0  0  0  0  0  0
   -3.8118   -0.4312    0.2815 C   0  0  0  0  0  0  0  0  0  0  0  0
   -3.1891    0.7751   -0.0460 C   0  0  0  0  0  0  0  0  0  0  0  0
   -1.1829    2.0958   -0.7916 C   0  0  0  0  0  0  0  0  0  0  0  0
   -0.5239    2.7939    0.4029 C   0  0  0  0  0  0  0  0  0  0  0  0
    1.8433    2.0653    0.5927 C   0  0  0  0  0  0  0  0  0  0  0  0
    2.7232    1.1227    1.3912 C   0  0  0  0  0  0  0  0  0  0  0  0
   -4.6042    2.3197   -1.1721 C   0  0  0  0  0  0  0  0  0  0  0  0
    3.4244    0.0969    0.5407 C   0  0  0  0  0  0  0  0  0  0  0  0
    2.8090   -1.1225    0.2944 C   0  0  0  0  0  0  0  0  0  0  0  0
    4.6763    0.3851    0.0157 C   0  0  0  0  0  0  0  0  0  0  0  0
    3.4589   -2.0730   -0.4930 C   0  0  0  0  0  0  0  0  0  0  0  0
    5.3261   -0.5654   -0.7718 C   0  0  0  0  0  0  0  0  0  0  0  0
    4.7174   -1.7944   -1.0262 C   0  0  0  0  0  0  0  0  0  0  0  0
  1 12  1  0
  1 17  1  0
  2 15  2  0
  3 14  1  0
  3 15  1  0
  4  5  1  0
  4  7  1  0
  5  6  1  0
  6  8  1  0
  7  8  2  0
  7  9  1  0
  8 11  1  0
  9 10  2  0
 10 12  1  0
 10 13  1  0
 11 12  2  0
 13 14  1  0
 15 16  1  0
 16 18  1  0
 18 19  2  0
 18 20  1  0
 19 21  1  0
 20 22  2  0
 21 23  2  0
 22 23  1  0
M  END
>  <PUBCHEM_COMPOUND_CID>  (1) 
49798

>  <PUBCHEM_CONFORMER_RMSD>  (1) 
0.8

>  <PUBCHEM_CONFORMER_DIVERSEORDER>  (1) 
1
4
68
13
21
98
87
121
120
106
124
130
43
123
62
147
148
14
75
104
83
108
81
46
85
2
139
60
151
101
50
70
146
19
103
114
102
65
152
41
6
105
125
39
20
58
142
137
74
93
153
134
44
115
154
5
71
7
144
31
54
55
91
145
140
9
73
99
131
135
128
59
100
22
82
23
129
29
53
51
143
38
76
84
24
48
25
77
69
113
111
138
33
136
12
141
3
11
57
35
49
56
94
32
52
156
40
34
45
122
47
66
10
78
109
95
17
30
79
127
92
28
107
16
117
18
132
80
67
72
110
97
86
64
133
88
126
155
15
37
36
61
112
89
27
42
150
96
119
90
26
149
118
116
8
63

>  <PUBCHEM_MMFF94_PARTIAL_CHARGES>  (1) 
30
1 -0.36
10 -0.14
11 -0.15
12 0.08
13 0.14
14 0.3
15 0.57
16 0.2
17 0.28
18 -0.14
19 -0.15
2 -0.57
20 -0.15
21 -0.15
22 -0.15
23 -0.15
3 -0.73
30 0.15
31 0.15
36 0.37
4 0.14
42 0.15
43 0.15
44 0.15
45 0.15
46 0.15
6 0.14
7 -0.14
8 -0.14
9 -0.15

>  <PUBCHEM_EFFECTIVE_ROTOR_COUNT>  (1) 
7.6

>  <PUBCHEM_PHARMACOPHORE_FEATURES>  (1) 
6
1 1 acceptor
1 2 acceptor
1 3 donor
5 4 5 6 7 8 rings
6 18 19 20 21 22 23 rings
6 7 8 9 10 11 12 rings

>  <PUBCHEM_HEAVY_ATOM_COUNT>  (1) 
23

>  <PUBCHEM_ATOM_DEF_STEREO_COUNT>  (1) 
0

>  <PUBCHEM_ATOM_UDEF_STEREO_COUNT>  (1) 
0

>  <PUBCHEM_BOND_DEF_STEREO_COUNT>  (1) 
0

>  <PUBCHEM_BOND_UDEF_STEREO_COUNT>  (1) 
0

>  <PUBCHEM_ISOTOPIC_ATOM_COUNT>  (1) 
0

>  <PUBCHEM_COMPONENT_COUNT>  (1) 
1

>  <PUBCHEM_CACTVS_TAUTO_COUNT>  (1) 
2

>  <PUBCHEM_CONFORMER_ID>  (1) 
0000C28600000001

>  <PUBCHEM_MMFF94_ENERGY>  (1) 
63.8142

>  <PUBCHEM_FEATURE_SELFOVERLAP>  (1) 
30.53

>  <PUBCHEM_SHAPE_FINGERPRINT>  (1) 
10616163 171 18049440636659891560
11112241 14 16986561365183660992
12553582 1 18411127039880063242
12633257 1 18200049420340316459
12788726 201 17914894236504096912
13402501 40 18343022147078571454
13533116 47 17985265429166572939
13785724 45 17830753293630594411
14251757 5 18337119990309462702
14790565 3 18051136882586422673
14866123 147 17912092646231656241
14931854 50 18052258393331542838
15352361 1 18412546548067547450
15927050 60 14518069073899171415
17093844 170 18269828740808016298
17349148 13 12823004361302779489
1813 80 17241599709932607359
19319366 153 17531805723611658434
19591789 44 18337386055154375353
20775530 9 18267866257990844298
21521239 73 17986644070998439741
221490 88 18339928233448918712
2215653 11 18271797974264764677
23559900 14 18266734856288820045
3117164 225 18195267709313060539
3298306 158 17976804412101777541
340366 18 18113901550375166005
350125 39 18409172112964990377
508706 21 18409160026268058935
5309563 4 17255121671250851891
56633871 153 18051425255845055011
6287921 2 18048318044210358268
6823239 73 18341613767589110090
9709674 26 18340761653997539944

>  <PUBCHEM_SHAPE_MULTIPOLES>  (1) 
456.61
10.18
4.28
1
7.25
1.26
-0.02
1.67
1.92
-3.23
-0.25
0.31
-0.19
2.02

>  <PUBCHEM_SHAPE_SELFOVERLAP>  (1) 
974.698

>  <PUBCHEM_SHAPE_VOLUME>  (1) 
255.5

>  <PUBCHEM_COORDINATE_TYPE>  (1) 
2
5
10

$$$$
