49802
     RDKit          3D

 21 21  0  0  0  0  0  0  0  0999 V2000
    0.6434   -3.0008   -0.7944 I   0  0  0  0  0  0  0  0  0  0  0  0
    1.9490    2.9417   -0.3100 I   0  0  0  0  0  0  0  0  0  0  0  0
   -3.8218    1.0288    0.2584 I   0  0  0  0  0  0  0  0  0  0  0  0
    3.1291   -0.5997    1.4562 O   0  0  0  0  0  0  0  0  0  0  0  0
   -2.8851   -2.1468   -1.3045 O   0  0  0  0  0  0  0  0  0  0  0  0
   -1.2499    3.3632    1.4495 O   0  0  0  0  0  0  0  0  0  0  0  0
   -1.6093    3.7970   -0.7526 O   0  0  0  0  0  0  0  0  0  0  0  0
    2.2955   -0.2359   -0.7126 N   0  0  0  0  0  0  0  0  0  0  0  0
   -2.5542   -2.4190    0.9744 N   0  0  0  0  0  0  0  0  0  0  0  0
    0.9385    0.0445   -0.4956 C   0  0  0  0  0  0  0  0  0  0  0  0
   -1.3446   -0.7131   -0.2703 C   0  0  0  0  0  0  0  0  0  0  0  0
    0.0051   -0.9921   -0.4849 C   0  0  0  0  0  0  0  0  0  0  0  0
   -0.8277    1.6390   -0.0773 C   0  0  0  0  0  0  0  0  0  0  0  0
    0.5220    1.3600   -0.2918 C   0  0  0  0  0  0  0  0  0  0  0  0
   -1.7610    0.6024   -0.0664 C   0  0  0  0  0  0  0  0  0  0  0  0
    3.2771   -0.5309    0.2406 C   0  0  0  0  0  0  0  0  0  0  0  0
   -2.3232   -1.8016   -0.2556 C   0  0  0  0  0  0  0  0  0  0  0  0
    4.6247   -0.7721   -0.4232 C   0  0  0  0  0  0  0  0  0  0  0  0
   -1.2643    3.0199    0.1360 C   0  0  0  0  0  0  0  0  0  0  0  0
    5.7285   -1.0623    0.5779 C   0  0  0  0  0  0  0  0  0  0  0  0
   -3.4718   -3.5223    1.1464 C   0  0  0  0  0  0  0  0  0  0  0  0
  1 12  1  0
  2 14  1  0
  3 15  1  0
  4 16  2  0
  5 17  2  0
  6 19  1  0
  7 19  2  0
  8 10  1  0
  8 16  1  0
  9 17  1  0
  9 21  1  0
 10 12  2  0
 10 14  1  0
 11 12  1  0
 11 15  2  0
 11 17  1  0
 13 14  2  0
 13 15  1  0
 13 19  1  0
 16 18  1  0
 18 20  1  0
M  END
>  <PUBCHEM_COMPOUND_CID>  (1) 
49802

>  <PUBCHEM_CONFORMER_RMSD>  (1) 
0.8

>  <PUBCHEM_CONFORMER_DIVERSEORDER>  (1) 
1
2
4
3

>  <PUBCHEM_MMFF94_PARTIAL_CHARGES>  (1) 
23
1 -0.08
10 0.12
11 0.09
12 0.08
13 0.09
14 0.08
15 0.08
16 0.57
17 0.54
18 0.06
19 0.63
2 -0.08
21 0.3
22 0.37
28 0.37
3 -0.08
32 0.5
4 -0.57
5 -0.57
6 -0.65
7 -0.57
8 -0.55
9 -0.73

>  <PUBCHEM_EFFECTIVE_ROTOR_COUNT>  (1) 
6

>  <PUBCHEM_PHARMACOPHORE_FEATURES>  (1) 
12
1 1 hydrophobe
1 2 hydrophobe
1 20 hydrophobe
1 3 hydrophobe
1 4 acceptor
1 5 acceptor
1 6 acceptor
1 7 acceptor
1 8 donor
1 9 donor
3 6 7 19 anion
6 10 11 12 13 14 15 rings

>  <PUBCHEM_HEAVY_ATOM_COUNT>  (1) 
21

>  <PUBCHEM_ATOM_DEF_STEREO_COUNT>  (1) 
0

>  <PUBCHEM_ATOM_UDEF_STEREO_COUNT>  (1) 
0

>  <PUBCHEM_BOND_DEF_STEREO_COUNT>  (1) 
0

>  <PUBCHEM_BOND_UDEF_STEREO_COUNT>  (1) 
0

>  <PUBCHEM_ISOTOPIC_ATOM_COUNT>  (1) 
0

>  <PUBCHEM_COMPONENT_COUNT>  (1) 
1

>  <PUBCHEM_CACTVS_TAUTO_COUNT>  (1) 
4

>  <PUBCHEM_CONFORMER_ID>  (1) 
0000C28A00000001

>  <PUBCHEM_MMFF94_ENERGY>  (1) 
89.5188

>  <PUBCHEM_FEATURE_SELFOVERLAP>  (1) 
60.954

>  <PUBCHEM_SHAPE_FINGERPRINT>  (1) 
10366900 7 18130493137840458050
10411042 1 18266179607032717799
10616163 171 18410575042194012590
10906281 52 18269569268595627469
10967382 1 18268153058800588637
1100329 8 18410296904190444289
12553582 1 18335693931885564131
12788726 201 18265317444230187611
13140716 1 18340212980758296153
14178342 30 18340215085297753670
14844126 61 18410003338865309354
15042514 8 18409737252819320499
16945 1 18339932506498435565
19591789 44 18195257843002508452
20510252 161 18127410038337765112
20600515 1 18271540714181936172
20739085 24 18122650476197644115
21041028 32 18267595774135864443
23184049 29 18411138073630337436
2334 1 18196657517162914605
23402539 116 18270108016350216317
23419403 2 17474051869565523493
23557571 272 18342740693581868054
23559900 14 18412820296709348468
23598288 3 18339365270320783263
2748010 2 18269274732586258085
3091708 16 9060661358490436777
31174 14 17758966213495962427
352729 6 18412832369398181197
5104073 3 18411697721117489888
5265222 85 18272933831156370534
58807428 26 17617657657229044992
81228 2 18340495456525553765
9709674 26 18199189482146794422

>  <PUBCHEM_SHAPE_MULTIPOLES>  (1) 
434.54
7.53
4.86
1.09
8.21
1.51
0.16
-3.92
1.94
-3.39
0.21
-0.12
-0.3
0.12

>  <PUBCHEM_SHAPE_SELFOVERLAP>  (1) 
840.358

>  <PUBCHEM_SHAPE_VOLUME>  (1) 
272.8

>  <PUBCHEM_COORDINATE_TYPE>  (1) 
2
5
10

$$$$
