49800
     RDKit          3D

 24 24  0  0  0  0  0  0  0  0999 V2000
   -0.0247   -2.8238   -0.8554 I   0  0  0  0  0  0  0  0  0  0  0  0
   -0.4367    3.2451   -0.3507 I   0  0  0  0  0  0  0  0  0  0  0  0
    4.9667    0.4854    0.3360 I   0  0  0  0  0  0  0  0  0  0  0  0
   -2.1622   -0.0847    1.3646 O   0  0  0  0  0  0  0  0  0  0  0  0
    3.6018   -2.5051   -1.2773 O   0  0  0  0  0  0  0  0  0  0  0  0
    2.7426    3.1737    1.4881 O   0  0  0  0  0  0  0  0  0  0  0  0
    3.2189    3.5594   -0.7007 O   0  0  0  0  0  0  0  0  0  0  0  0
   -1.2463    0.1569   -0.7847 N   0  0  0  0  0  0  0  0  0  0  0  0
    3.2208   -2.7115    1.0006 N   0  0  0  0  0  0  0  0  0  0  0  0
   -4.7843   -0.1856    0.4300 C   0  0  0  0  0  0  0  0  0  0  0  0
   -6.1306   -0.1776   -0.2951 C   0  0  0  0  0  0  0  0  0  0  0  0
   -3.6239   -0.0246   -0.5496 C   0  0  0  0  0  0  0  0  0  0  0  0
   -7.2895   -0.3726    0.6820 C   0  0  0  0  0  0  0  0  0  0  0  0
   -2.2704    0.0091    0.1464 C   0  0  0  0  0  0  0  0  0  0  0  0
    0.1444    0.2303   -0.5331 C   0  0  0  0  0  0  0  0  0  0  0  0
   -8.6277   -0.3989   -0.0390 C   0  0  0  0  0  0  0  0  0  0  0  0
    0.8991   -0.9351   -0.5120 C   0  0  0  0  0  0  0  0  0  0  0  0
    2.2698   -0.8626   -0.2642 C   0  0  0  0  0  0  0  0  0  0  0  0
    0.7356    1.4670   -0.3109 C   0  0  0  0  0  0  0  0  0  0  0  0
    2.1064    1.5394   -0.0631 C   0  0  0  0  0  0  0  0  0  0  0  0
    2.8735    0.3747   -0.0398 C   0  0  0  0  0  0  0  0  0  0  0  0
    3.0740   -2.0854   -0.2378 C   0  0  0  0  0  0  0  0  0  0  0  0
    2.7396    2.8380    0.1726 C   0  0  0  0  0  0  0  0  0  0  0  0
    4.0028   -3.9117    1.1932 C   0  0  0  0  0  0  0  0  0  0  0  0
  1 17  1  0
  2 19  1  0
  3 21  1  0
  4 14  2  0
  5 22  2  0
  6 23  1  0
  7 23  2  0
  8 14  1  0
  8 15  1  0
  9 22  1  0
  9 24  1  0
 10 11  1  0
 10 12  1  0
 11 13  1  0
 12 14  1  0
 13 16  1  0
 15 17  2  0
 15 19  1  0
 17 18  1  0
 18 21  2  0
 18 22  1  0
 19 20  2  0
 20 21  1  0
 20 23  1  0
M  END
>  <PUBCHEM_COMPOUND_CID>  (1) 
49800

>  <PUBCHEM_CONFORMER_RMSD>  (1) 
1

>  <PUBCHEM_CONFORMER_DIVERSEORDER>  (1) 
1
12
13
8
9
5
10
7
4
14
3
6
2
11

>  <PUBCHEM_MMFF94_PARTIAL_CHARGES>  (1) 
23
1 -0.08
12 0.06
14 0.57
15 0.12
17 0.08
18 0.09
19 0.08
2 -0.08
20 0.09
21 0.08
22 0.54
23 0.63
24 0.3
3 -0.08
33 0.37
37 0.37
4 -0.57
41 0.5
5 -0.57
6 -0.65
7 -0.57
8 -0.55
9 -0.73

>  <PUBCHEM_EFFECTIVE_ROTOR_COUNT>  (1) 
9

>  <PUBCHEM_PHARMACOPHORE_FEATURES>  (1) 
13
1 1 hydrophobe
1 16 hydrophobe
1 2 hydrophobe
1 3 hydrophobe
1 4 acceptor
1 5 acceptor
1 6 acceptor
1 7 acceptor
1 8 donor
1 9 donor
3 6 7 23 anion
4 10 11 12 13 hydrophobe
6 15 17 18 19 20 21 rings

>  <PUBCHEM_HEAVY_ATOM_COUNT>  (1) 
24

>  <PUBCHEM_ATOM_DEF_STEREO_COUNT>  (1) 
0

>  <PUBCHEM_ATOM_UDEF_STEREO_COUNT>  (1) 
0

>  <PUBCHEM_BOND_DEF_STEREO_COUNT>  (1) 
0

>  <PUBCHEM_BOND_UDEF_STEREO_COUNT>  (1) 
0

>  <PUBCHEM_ISOTOPIC_ATOM_COUNT>  (1) 
0

>  <PUBCHEM_COMPONENT_COUNT>  (1) 
1

>  <PUBCHEM_CACTVS_TAUTO_COUNT>  (1) 
4

>  <PUBCHEM_CONFORMER_ID>  (1) 
0000C28800000001

>  <PUBCHEM_MMFF94_ENERGY>  (1) 
88.8461

>  <PUBCHEM_FEATURE_SELFOVERLAP>  (1) 
66.031

>  <PUBCHEM_SHAPE_FINGERPRINT>  (1) 
10165383 225 18337676446378457892
10411042 1 18194683666474645342
1100329 8 18340482395957196530
12236239 1 17561083626947447309
12553582 1 18269828723444063774
12616971 3 17917423221260110263
12730499 353 18337117872948400089
13140716 1 18195235849129282128
13533116 47 18410013234864870355
13878862 14 18339905075091163461
13955234 65 18411133670972088368
14170010 4 18413108368180676388
14178342 30 17838038657237686312
14790565 3 18339651139434802356
15420108 30 17843384427222208134
15475509 35 17023449872499311826
15475509 84 18130508518388182937
16945 1 18339632413408163468
17844677 252 18411989027596405509
20028762 73 18130505245808005511
20157964 124 18411703218691510673
20369508 70 18335701602723827278
20645477 70 18410294705325139007
20739085 24 18198353857804598384
20771845 171 17821737130989518574
20832881 197 18115871793870921099
21049683 271 18261398819649374252
21197605 99 18195252350341691207
21344244 78 17988070098001501098
23081809 10 17775568655182375461
2334 1 17835231625985714292
23559900 14 17676217883090675471
255183 451 18128265497566427758
2748010 2 17979065309035919276
3178227 256 18408882971313732296
335352 9 18341618152793034468
3421961 26 18408602548097314499
350125 39 18412263934882916108
4073 2 18116718602930142363
4340502 62 18271245027574602775
465052 167 18337112263579479311
5104073 3 18269833117021151033
58807428 26 18124292047606878016
59755656 215 18335422382847416900
70251023 43 18336267821384361243
81228 2 17260745154173608292
8272917 22 18340209686402394197
9999458 23 18335985371861667572

>  <PUBCHEM_SHAPE_MULTIPOLES>  (1) 
496.28
14.42
4.38
1.07
40.81
0.35
-0.13
-4.13
-3.02
-7.5
-0.27
-0.42
-0.29
-0.24

>  <PUBCHEM_SHAPE_SELFOVERLAP>  (1) 
954.56

>  <PUBCHEM_SHAPE_VOLUME>  (1) 
311

>  <PUBCHEM_COORDINATE_TYPE>  (1) 
2
5
10

$$$$
