49817
     RDKit          3D

 26 29  0  0  1  0  0  0  0  0999 V2000
   -0.7876    1.6615   -2.3311 O   0  0  0  0  0  0  0  0  0  0  0  0
    1.7014    1.2161   -0.3922 N   0  0  0  0  0  0  0  0  0  0  0  0
   -2.2339   -0.8221   -0.8397 C   0  0  0  0  0  0  0  0  0  0  0  0
   -1.7832    0.9367    0.6676 C   0  0  0  0  0  0  0  0  0  0  0  0
   -3.1937   -1.3406    0.0524 C   0  0  0  0  0  0  0  0  0  0  0  0
   -2.7429    0.4181    1.5598 C   0  0  0  0  0  0  0  0  0  0  0  0
   -1.5040    0.3185   -0.5416 C   0  0  0  0  0  0  0  0  0  0  0  0
   -2.1100   -1.6964   -2.0488 C   0  0  0  0  0  0  0  0  0  0  0  0
   -1.1246    2.1500    1.2473 C   0  0  0  0  0  0  0  0  0  0  0  0
   -3.7884   -2.6041   -0.4879 C   0  0  0  0  0  0  0  0  0  0  0  0
   -2.8029    1.2422    2.8083 C   0  0  0  0  0  0  0  0  0  0  0  0
   -3.4176   -2.4981   -1.9743 C   0  0  0  0  0  0  0  0  0  0  0  0
   -2.1271    2.5405    2.3432 C   0  0  0  0  0  0  0  0  0  0  0  0
   -3.4558   -0.7358    1.2722 C   0  0  0  0  0  0  0  0  0  0  0  0
   -0.4886    0.8331   -1.4456 C   0  0  0  0  0  0  0  0  0  0  0  0
    0.9654    0.3534   -1.3100 C   0  0  0  0  0  0  0  0  0  0  0  0
    1.6626    2.6061   -0.8494 C   0  0  0  0  0  0  0  0  0  0  0  0
    3.0870    0.7635   -0.2595 C   0  0  0  0  0  0  0  0  0  0  0  0
    2.3484    2.7375   -2.2030 C   0  0  0  0  0  0  0  0  0  0  0  0
    2.2996    3.5269    0.1840 C   0  0  0  0  0  0  0  0  0  0  0  0
    3.1716   -0.6391    0.2694 C   0  0  0  0  0  0  0  0  0  0  0  0
    3.2414   -0.8536    1.6410 C   0  0  0  0  0  0  0  0  0  0  0  0
    3.1788   -1.7093   -0.6177 C   0  0  0  0  0  0  0  0  0  0  0  0
    3.3198   -2.1567    2.1325 C   0  0  0  0  0  0  0  0  0  0  0  0
    3.2571   -3.0123   -0.1260 C   0  0  0  0  0  0  0  0  0  0  0  0
    3.3276   -3.2359    1.2491 C   0  0  0  0  0  0  0  0  0  0  0  0
  1 15  2  0
  2 16  1  0
  2 17  1  0
  2 18  1  0
  3  5  2  0
  3  7  1  0
  3  8  1  0
  4  6  1  0
  4  7  2  0
  4  9  1  0
  5 10  1  0
  5 14  1  0
  6 11  1  0
  6 14  2  0
  7 15  1  0
  8 12  1  0
  9 13  1  0
 10 12  1  0
 11 13  1  0
 15 16  1  0
 17 19  1  0
 17 20  1  0
 18 21  1  0
 21 22  2  0
 21 23  1  0
 22 24  1  0
 23 25  2  0
 24 26  2  0
 25 26  1  0
M  END
>  <PUBCHEM_COMPOUND_CID>  (1) 
49817

>  <PUBCHEM_CONFORMER_RMSD>  (1) 
0.8

>  <PUBCHEM_CONFORMER_DIVERSEORDER>  (1) 
1
101
110
76
51
43
85
100
34
52
62
80
44
79
54
96
41
32
74
45
103
71
89
53
42
86
107
26
58
66
104
24
113
50
106
29
36
98
109
81
95
118
48
92
23
20
73
84
27
67
16
105
60
25
49
69
116
83
120
56
9
97
47
78
111
3
30
11
28
7
19
64
61
82
72
108
119
65
12
22
93
87
102
57
37
117
13
94
63
75
4
5
77
55
21
2
112
33
91
59
10
31
18
88
35
68
6
90
38
8
17
121
46
99
70
40
15
14
114
39
115

>  <PUBCHEM_MMFF94_PARTIAL_CHARGES>  (1) 
28
1 -0.57
10 0.14
11 0.14
14 -0.15
15 0.42
16 0.33
17 0.27
18 0.41
2 -0.81
21 -0.14
22 -0.15
23 -0.15
24 -0.15
25 -0.15
26 -0.15
3 -0.14
39 0.15
4 -0.14
5 -0.14
51 0.15
52 0.15
53 0.15
54 0.15
55 0.15
6 -0.14
7 0.09
8 0.14
9 0.14

>  <PUBCHEM_EFFECTIVE_ROTOR_COUNT>  (1) 
7.2

>  <PUBCHEM_PHARMACOPHORE_FEATURES>  (1) 
7
1 1 acceptor
1 2 cation
3 17 19 20 hydrophobe
5 3 5 8 10 12 rings
5 4 6 9 11 13 rings
6 21 22 23 24 25 26 rings
6 3 4 5 6 7 14 rings

>  <PUBCHEM_HEAVY_ATOM_COUNT>  (1) 
26

>  <PUBCHEM_ATOM_DEF_STEREO_COUNT>  (1) 
0

>  <PUBCHEM_ATOM_UDEF_STEREO_COUNT>  (1) 
0

>  <PUBCHEM_BOND_DEF_STEREO_COUNT>  (1) 
0

>  <PUBCHEM_BOND_UDEF_STEREO_COUNT>  (1) 
0

>  <PUBCHEM_ISOTOPIC_ATOM_COUNT>  (1) 
0

>  <PUBCHEM_COMPONENT_COUNT>  (1) 
1

>  <PUBCHEM_CACTVS_TAUTO_COUNT>  (1) 
2

>  <PUBCHEM_CONFORMER_ID>  (1) 
0000C29900000001

>  <PUBCHEM_MMFF94_ENERGY>  (1) 
84.6141

>  <PUBCHEM_FEATURE_SELFOVERLAP>  (1) 
35.695

>  <PUBCHEM_SHAPE_FINGERPRINT>  (1) 
10165383 225 13469011539351048768
10764073 3 16597045841918524961
10928967 22 18044659689826383290
11552529 35 18059278869374573610
11578080 2 18124570197952405781
11725454 13 15553036598854671713
12160290 23 17131847438875486569
12363563 72 17604130542183154018
12539773 59 18269538490928978387
12553582 1 18115311064421210538
12596599 1 18339636720722726434
12633257 1 17414145816408676810
12788726 201 17844266205504025515
133893 2 17967820491421873324
13533116 47 18189356678756019491
13583140 156 18118146833879635417
13726171 33 16628867134165511008
13911987 19 16882744493304015468
14114206 34 16880478069617166714
14178342 30 18059288756347039166
14251757 17 17242147219574129551
14787075 74 16977869918723439629
14844126 61 17178246636188669370
150020 26 16556809398161579446
15403338 16 17607553253160782345
15475509 35 17690280835001815043
17138139 8 17045692211140592102
17974551 9 16556491566539921082
18981168 100 13183020734998206196
19315092 285 18122604292050793914
21033648 29 17271168601081236768
21421861 104 18270134520672345539
23559900 14 17345500152764159877
23598288 3 18199770144776952603
23728640 28 17179376920929728642
238 59 17531518901606053802
238918 7 16969992458907544264
3380486 77 16340847864082632733
345986 75 18272363218020865611
35225 105 17060341786167327523
3797600 57 17772470337877031012
392239 28 17554044733641792586
4058900 60 17046809298375780097
4169191 19 11382669406034030098
6287921 2 18273497866791875418
7097593 13 18341065016312441328

>  <PUBCHEM_SHAPE_MULTIPOLES>  (1) 
524.22
7.46
4.23
2.63
0.86
0.24
0.41
-5.3
1.93
2.3
-0.08
-1.01
0.66
-4.04

>  <PUBCHEM_SHAPE_SELFOVERLAP>  (1) 
1137.366

>  <PUBCHEM_SHAPE_VOLUME>  (1) 
291.8

>  <PUBCHEM_COORDINATE_TYPE>  (1) 
2
5
10

$$$$
