49815
     RDKit          3D

 24 27  0  0  1  0  0  0  0  0999 V2000
   -0.1576    0.7885    2.1716 O   0  0  0  0  0  0  0  0  0  0  0  0
    1.7993    1.7824    0.5109 N   0  0  0  0  0  0  0  0  0  0  0  0
   -2.4871    0.8886   -0.0750 C   0  0  0  0  0  0  0  0  0  0  0  0
   -1.8049   -1.3295    0.3526 C   0  0  0  0  0  0  0  0  0  0  0  0
   -3.6904    0.4111   -0.6320 C   0  0  0  0  0  0  0  0  0  0  0  0
   -3.0082   -1.8070   -0.2044 C   0  0  0  0  0  0  0  0  0  0  0  0
   -1.5191    0.0257    0.4155 C   0  0  0  0  0  0  0  0  0  0  0  0
   -2.4215    2.3819   -0.1605 C   0  0  0  0  0  0  0  0  0  0  0  0
   -0.9300   -2.4687    0.7750 C   0  0  0  0  0  0  0  0  0  0  0  0
   -4.5263    1.5468   -1.1356 C   0  0  0  0  0  0  0  0  0  0  0  0
   -3.0345   -3.3040   -0.2002 C   0  0  0  0  0  0  0  0  0  0  0  0
   -3.8985    2.7340   -0.3910 C   0  0  0  0  0  0  0  0  0  0  0  0
   -1.9447   -3.6199    0.8347 C   0  0  0  0  0  0  0  0  0  0  0  0
   -3.9659   -0.9451   -0.7166 C   0  0  0  0  0  0  0  0  0  0  0  0
   -0.2625    0.5166    0.9571 C   0  0  0  0  0  0  0  0  0  0  0  0
    0.9471    0.7019    0.0268 C   0  0  0  0  0  0  0  0  0  0  0  0
    2.9832    1.9240   -0.3380 C   0  0  0  0  0  0  0  0  0  0  0  0
    1.0554    3.0421    0.5598 C   0  0  0  0  0  0  0  0  0  0  0  0
    3.7614    0.6381   -0.4006 C   0  0  0  0  0  0  0  0  0  0  0  0
    4.7630    0.3979    0.5305 C   0  0  0  0  0  0  0  0  0  0  0  0
    3.4685   -0.2919   -1.3891 C   0  0  0  0  0  0  0  0  0  0  0  0
    5.4849   -0.7942    0.4723 C   0  0  0  0  0  0  0  0  0  0  0  0
    4.1903   -1.4841   -1.4473 C   0  0  0  0  0  0  0  0  0  0  0  0
    5.1985   -1.7353   -0.5167 C   0  0  0  0  0  0  0  0  0  0  0  0
  1 15  2  0
  2 16  1  0
  2 17  1  0
  2 18  1  0
  3  5  2  0
  3  7  1  0
  3  8  1  0
  4  6  1  0
  4  7  2  0
  4  9  1  0
  5 10  1  0
  5 14  1  0
  6 11  1  0
  6 14  2  0
  7 15  1  0
  8 12  1  0
  9 13  1  0
 10 12  1  0
 11 13  1  0
 15 16  1  0
 17 19  1  0
 19 20  2  0
 19 21  1  0
 20 22  1  0
 21 23  2  0
 22 24  2  0
 23 24  1  0
M  END
>  <PUBCHEM_COMPOUND_CID>  (1) 
49815

>  <PUBCHEM_CONFORMER_RMSD>  (1) 
0.8

>  <PUBCHEM_CONFORMER_DIVERSEORDER>  (1) 
1
48
38
2
29
49
24
34
14
59
54
22
3
53
23
51
57
17
52
33
39
43
30
58
13
45
16
25
55
31
5
35
42
6
56
15
21
12
20
9
28
50
44
32
11
36
26
46
18
41
8
27
10
37
40
19
47
4
7

>  <PUBCHEM_MMFF94_PARTIAL_CHARGES>  (1) 
28
1 -0.57
10 0.14
11 0.14
14 -0.15
15 0.42
16 0.33
17 0.41
18 0.27
19 -0.14
2 -0.81
20 -0.15
21 -0.15
22 -0.15
23 -0.15
24 -0.15
3 -0.14
37 0.15
4 -0.14
45 0.15
46 0.15
47 0.15
48 0.15
49 0.15
5 -0.14
6 -0.14
7 0.09
8 0.14
9 0.14

>  <PUBCHEM_EFFECTIVE_ROTOR_COUNT>  (1) 
6.2

>  <PUBCHEM_PHARMACOPHORE_FEATURES>  (1) 
6
1 1 acceptor
1 2 cation
5 3 5 8 10 12 rings
5 4 6 9 11 13 rings
6 19 20 21 22 23 24 rings
6 3 4 5 6 7 14 rings

>  <PUBCHEM_HEAVY_ATOM_COUNT>  (1) 
24

>  <PUBCHEM_ATOM_DEF_STEREO_COUNT>  (1) 
0

>  <PUBCHEM_ATOM_UDEF_STEREO_COUNT>  (1) 
0

>  <PUBCHEM_BOND_DEF_STEREO_COUNT>  (1) 
0

>  <PUBCHEM_BOND_UDEF_STEREO_COUNT>  (1) 
0

>  <PUBCHEM_ISOTOPIC_ATOM_COUNT>  (1) 
0

>  <PUBCHEM_COMPONENT_COUNT>  (1) 
1

>  <PUBCHEM_CACTVS_TAUTO_COUNT>  (1) 
2

>  <PUBCHEM_CONFORMER_ID>  (1) 
0000C29700000001

>  <PUBCHEM_MMFF94_ENERGY>  (1) 
78.5991

>  <PUBCHEM_FEATURE_SELFOVERLAP>  (1) 
30.622

>  <PUBCHEM_SHAPE_FINGERPRINT>  (1) 
10254770 206 17758384181288539722
10693767 8 17769351049766347711
10764073 3 17612361477707200051
107951 10 18336827503247861823
10835480 77 18343574162441337744
11370993 70 18410572860060281358
12422481 6 18126316175214605891
12553582 1 18198370406387436412
12555020 224 18338514140577060151
13583140 156 17844801671793167864
13690498 29 18193859234422039534
13941206 138 18040996202965642083
14251740 79 18341897355346851881
14251751 93 18408318891388227639
14251757 17 18413951693636318474
14341114 328 11887955449864259318
14347332 77 18339636858409541215
14790565 3 17908144274534140897
14910302 57 18335410288219524524
14950920 106 12247405536369729756
14955137 171 17899427656346004723
15183329 4 18335698287156540564
15927050 60 16612803986954333740
17349148 13 17917436389076087736
17492 89 18264771150149481390
17809404 112 17918277541394407294
19784866 170 9007056885349959909
19958102 18 18262509291231881862
20775438 99 17407634826703284093
21781051 124 18041011652489902827
221490 88 18267589202846327600
22393880 68 18266474259791733612
22440779 20 16883056655821653122
23559900 14 18342733044604082912
23572383 38 18201435853380260646
3004659 81 18333733490680726956
3027735 51 17909835336249353252
312425 83 18040441031229421804
3298306 158 18339078185842659263
340366 18 18186527596124429012
350125 39 18336543833795615443
3729539 64 17976828588093261783
4015057 19 17774990302195025049
44062 13 18410015442024815014
463206 1 18114177481050088578
508706 21 18409446981501720214
5283173 99 18340201899938162960
5309563 4 17400651913511487702
559249 180 18334851672046451170
621550 34 17478323592556624273
633830 44 16732986452951630972
7399639 24 17549255282318960624
9709674 26 18340205318357045126

>  <PUBCHEM_SHAPE_MULTIPOLES>  (1) 
483.06
10.94
3.83
1.2
11.09
1.42
-0.1
1.31
3.32
-3.43
-0.42
0.35
0.05
1.24

>  <PUBCHEM_SHAPE_SELFOVERLAP>  (1) 
1055.063

>  <PUBCHEM_SHAPE_VOLUME>  (1) 
267.1

>  <PUBCHEM_COORDINATE_TYPE>  (1) 
2
5
10

$$$$
