4981
     RDKit          3D

 23 25  0  0  1  0  0  0  0  0999 V2000
    2.8086    1.4299   -0.9509 O   0  0  0  0  0  0  0  0  0  0  0  0
    4.8590   -0.4073   -1.3474 O   0  0  0  0  0  0  0  0  0  0  0  0
   -1.9398    3.0122   -0.1900 O   0  0  0  0  0  0  0  0  0  0  0  0
   -2.6386   -1.7749   -0.2536 O   0  0  0  0  0  0  0  0  0  0  0  0
   -3.7250    0.7440   -0.5924 O   0  0  0  0  0  0  0  0  0  0  0  0
   -2.8666   -4.0539   -0.2575 O   0  0  0  0  0  0  0  0  0  0  0  0
    2.7064    0.1117   -0.3972 C   0  0  0  0  0  0  0  0  0  0  0  0
    4.1319   -0.4241   -0.1093 C   0  0  0  0  0  0  0  0  0  0  0  0
    1.7817    0.1990    0.8342 C   0  0  0  0  0  0  0  0  0  0  0  0
    0.3376    0.3352    0.4602 C   0  0  0  0  0  0  0  0  0  0  0  0
   -0.2304    1.6124    0.2834 C   0  0  0  0  0  0  0  0  0  0  0  0
   -0.4726   -0.7967    0.2793 C   0  0  0  0  0  0  0  0  0  0  0  0
    4.9176    0.4556    0.8667 C   0  0  0  0  0  0  0  0  0  0  0  0
    4.1207   -1.8743    0.3840 C   0  0  0  0  0  0  0  0  0  0  0  0
   -1.5750    1.7050   -0.0642 C   0  0  0  0  0  0  0  0  0  0  0  0
   -1.8142   -0.6405   -0.0690 C   0  0  0  0  0  0  0  0  0  0  0  0
   -2.4131    0.6089   -0.2529 C   0  0  0  0  0  0  0  0  0  0  0  0
    0.2381    2.9501    0.3708 C   0  0  0  0  0  0  0  0  0  0  0  0
    0.0550   -2.1419    0.4463 C   0  0  0  0  0  0  0  0  0  0  0  0
   -0.8356    3.7577    0.0752 C   0  0  0  0  0  0  0  0  0  0  0  0
   -0.7334   -3.2047    0.2692 C   0  0  0  0  0  0  0  0  0  0  0  0
   -2.1541   -3.0690   -0.0980 C   0  0  0  0  0  0  0  0  0  0  0  0
   -4.5583    1.4656    0.3130 C   0  0  0  0  0  0  0  0  0  0  0  0
  1  7  1  0
  2  8  1  0
  3 15  1  0
  3 20  1  0
  4 16  1  0
  4 22  1  0
  5 17  1  0
  5 23  1  0
  6 22  2  0
  7  8  1  0
  7  9  1  0
  8 13  1  0
  8 14  1  0
  9 10  1  0
 10 11  1  0
 10 12  2  0
 11 15  2  0
 11 18  1  0
 12 16  1  0
 12 19  1  0
 15 17  1  0
 16 17  2  0
 18 20  2  0
 19 21  2  0
 21 22  1  0
M  END
>  <PUBCHEM_COMPOUND_CID>  (1) 
4981

>  <PUBCHEM_CONFORMER_RMSD>  (1) 
0.6

>  <PUBCHEM_CONFORMER_DIVERSEORDER>  (1) 
1
14
13
2
9
17
15
7
8
10
16
5
11
3
12
6
4

>  <PUBCHEM_MMFF94_PARTIAL_CHARGES>  (1) 
26
1 -0.68
10 -0.14
12 0.03
15 0.14
16 0.08
17 0.08
18 -0.15
19 -0.18
2 -0.68
20 -0.01
21 -0.14
22 0.71
23 0.28
3 -0.28
33 0.15
34 0.4
35 0.4
36 0.15
37 0.15
38 0.15
4 -0.23
5 -0.36
6 -0.57
7 0.28
8 0.28
9 0.14

>  <PUBCHEM_EFFECTIVE_ROTOR_COUNT>  (1) 
4

>  <PUBCHEM_PHARMACOPHORE_FEATURES>  (1) 
11
1 1 acceptor
1 1 donor
1 2 acceptor
1 2 donor
1 3 acceptor
1 5 acceptor
1 6 acceptor
3 8 13 14 hydrophobe
5 3 11 15 18 20 rings
6 10 11 12 15 16 17 rings
6 4 12 16 19 21 22 rings

>  <PUBCHEM_HEAVY_ATOM_COUNT>  (1) 
23

>  <PUBCHEM_ATOM_DEF_STEREO_COUNT>  (1) 
0

>  <PUBCHEM_ATOM_UDEF_STEREO_COUNT>  (1) 
1

>  <PUBCHEM_BOND_DEF_STEREO_COUNT>  (1) 
0

>  <PUBCHEM_BOND_UDEF_STEREO_COUNT>  (1) 
0

>  <PUBCHEM_ISOTOPIC_ATOM_COUNT>  (1) 
0

>  <PUBCHEM_COMPONENT_COUNT>  (1) 
1

>  <PUBCHEM_CACTVS_TAUTO_COUNT>  (1) 
1

>  <PUBCHEM_CONFORMER_ID>  (1) 
0000137500000001

>  <PUBCHEM_MMFF94_ENERGY>  (1) 
74.2172

>  <PUBCHEM_FEATURE_SELFOVERLAP>  (1) 
55.963

>  <PUBCHEM_SHAPE_FINGERPRINT>  (1) 
10319926 262 18197473235491529018
10411042 1 18122340443646564650
10616163 171 18411703205680534606
10693767 8 17986363669589629303
10967382 1 18338513032781439715
1100329 8 18411419548839130721
11578080 2 17559105690911564224
11680986 33 18125710442822702481
116883 192 17979913032015760999
12035758 1 18412550937671557897
12173636 292 18122055412779584068
12553582 1 18121511403652978562
12788726 201 18338525136199934944
13140716 1 18339921636084039009
138480 1 16321465264917264298
14081887 123 18340190973867981336
14790565 3 18339651023111924337
14955137 171 18336844043214209553
15042514 8 18409168818108350827
16752209 62 18265607698040832488
16945 1 18338500968387493601
19591789 44 18410293593081746017
20028762 73 18129662028185299863
20510252 161 18199182893482436928
20600515 1 18342466945088364341
20739085 24 17905633024620719713
20871999 31 18337111284210345606
21478907 32 18194680608484395131
22182313 1 17978207676775273225
2334 1 18121489426421239505
23402539 116 18342166739684903157
23419403 2 17488169598828861091
23557571 272 18270679895899036672
23558518 356 18046343308452182353
23559900 14 18342735213904951920
23566358 2 17976811309613474549
266924 87 17977936887767502805
2748010 2 18122327232785610849
283562 15 18198055881342789721
3084891 72 18340483366150378487
3091708 16 9131033396907906602
350125 39 17906171754609506193
352729 6 18409737226790988874
43471831 8 18048032978234487961
5486654 2 18338519642757532109
70251023 43 17976538643857976355
7364860 26 17185874991563081280
81228 2 18338520853906349720
9709674 26 18271808974166412126

>  <PUBCHEM_SHAPE_MULTIPOLES>  (1) 
438.11
7.8
4.47
0.83
7.59
1.47
0.05
0.38
0.73
-4.25
-0.07
0.59
-0.06
-0.2

>  <PUBCHEM_SHAPE_SELFOVERLAP>  (1) 
953.998

>  <PUBCHEM_SHAPE_VOLUME>  (1) 
241.1

>  <PUBCHEM_COORDINATE_TYPE>  (1) 
2
5
10

$$$$
