49811
     RDKit          3D

 20 22  0  0  0  0  0  0  0  0999 V2000
    1.1470   -0.4421    1.8535 O   0  0  0  0  0  0  0  0  0  0  0  0
    3.1668   -0.3772   -0.0149 N   0  0  0  0  0  0  0  0  0  0  0  0
   -0.9634    1.1899    0.0186 C   0  0  0  0  0  0  0  0  0  0  0  0
   -1.5401   -1.0938    0.1614 C   0  0  0  0  0  0  0  0  0  0  0  0
   -2.2809    1.4979   -0.3757 C   0  0  0  0  0  0  0  0  0  0  0  0
   -2.8575   -0.7858   -0.2330 C   0  0  0  0  0  0  0  0  0  0  0  0
   -0.5679   -0.1126    0.2820 C   0  0  0  0  0  0  0  0  0  0  0  0
   -0.1159    2.4240    0.0387 C   0  0  0  0  0  0  0  0  0  0  0  0
   -1.3773   -2.5700    0.3512 C   0  0  0  0  0  0  0  0  0  0  0  0
   -2.4204    2.9630   -0.6519 C   0  0  0  0  0  0  0  0  0  0  0  0
   -3.6816   -2.0312   -0.3397 C   0  0  0  0  0  0  0  0  0  0  0  0
   -1.1879    3.5231    0.0728 C   0  0  0  0  0  0  0  0  0  0  0  0
   -2.8401   -3.0186    0.4823 C   0  0  0  0  0  0  0  0  0  0  0  0
   -3.2468    0.5138   -0.5194 C   0  0  0  0  0  0  0  0  0  0  0  0
    0.8000   -0.4348    0.6538 C   0  0  0  0  0  0  0  0  0  0  0  0
    1.8274   -0.7698   -0.4393 C   0  0  0  0  0  0  0  0  0  0  0  0
    3.2225    1.0616    0.2478 C   0  0  0  0  0  0  0  0  0  0  0  0
    4.1568   -0.7477   -1.0273 C   0  0  0  0  0  0  0  0  0  0  0  0
    4.6185    1.4584    0.6881 C   0  0  0  0  0  0  0  0  0  0  0  0
    4.1408   -2.2480   -1.2489 C   0  0  0  0  0  0  0  0  0  0  0  0
  1 15  2  0
  2 16  1  0
  2 17  1  0
  2 18  1  0
  3  5  1  0
  3  7  2  0
  3  8  1  0
  4  6  2  0
  4  7  1  0
  4  9  1  0
  5 10  1  0
  5 14  2  0
  6 11  1  0
  6 14  1  0
  7 15  1  0
  8 12  1  0
  9 13  1  0
 10 12  1  0
 11 13  1  0
 15 16  1  0
 17 19  1  0
 18 20  1  0
M  END
>  <PUBCHEM_COMPOUND_CID>  (1) 
49811

>  <PUBCHEM_CONFORMER_RMSD>  (1) 
0.8

>  <PUBCHEM_CONFORMER_DIVERSEORDER>  (1) 
2
9
10
16
13
3
11
14
7
4
12
15
8
1
5
6

>  <PUBCHEM_MMFF94_PARTIAL_CHARGES>  (1) 
17
1 -0.57
10 0.14
11 0.14
14 -0.15
15 0.42
16 0.33
17 0.27
18 0.27
2 -0.81
3 -0.14
33 0.15
4 -0.14
5 -0.14
6 -0.14
7 0.09
8 0.14
9 0.14

>  <PUBCHEM_EFFECTIVE_ROTOR_COUNT>  (1) 
6.2

>  <PUBCHEM_PHARMACOPHORE_FEATURES>  (1) 
5
1 1 acceptor
1 2 cation
5 3 5 8 10 12 rings
5 4 6 9 11 13 rings
6 3 4 5 6 7 14 rings

>  <PUBCHEM_HEAVY_ATOM_COUNT>  (1) 
20

>  <PUBCHEM_ATOM_DEF_STEREO_COUNT>  (1) 
0

>  <PUBCHEM_ATOM_UDEF_STEREO_COUNT>  (1) 
0

>  <PUBCHEM_BOND_DEF_STEREO_COUNT>  (1) 
0

>  <PUBCHEM_BOND_UDEF_STEREO_COUNT>  (1) 
0

>  <PUBCHEM_ISOTOPIC_ATOM_COUNT>  (1) 
0

>  <PUBCHEM_COMPONENT_COUNT>  (1) 
1

>  <PUBCHEM_CACTVS_TAUTO_COUNT>  (1) 
2

>  <PUBCHEM_CONFORMER_ID>  (1) 
0000C29300000002

>  <PUBCHEM_MMFF94_ENERGY>  (1) 
54.5556

>  <PUBCHEM_FEATURE_SELFOVERLAP>  (1) 
25.546

>  <PUBCHEM_SHAPE_FINGERPRINT>  (1) 
10319926 262 18267560487349030818
10498660 4 18335411357529029549
10764073 3 16754720284307201691
10967382 1 17471852984075647337
12173636 292 18192424182558149549
12553582 1 18120952842871076271
12788726 201 18261115209567833386
13140716 1 18192149519642117937
138480 1 16248559939193924437
14787075 74 17753891919925157408
14790565 3 18266743481153577149
15375462 6 18341897428604070942
15475509 8 18342178865353473887
15961568 22 18117557547440352460
16752209 62 18263349309894819623
16945 1 18265034878648041345
17134986 127 17687178686732399949
17357779 13 18269821177064562087
17492 89 18409165507095111170
18785283 64 16680639456167911857
19591789 44 18122909724966836033
20510252 161 18412259511029112937
20645477 70 17400063662639000815
20693207 138 18130523950389631070
20871999 31 18409441493029043711
20905425 154 18048599514649645069
21029758 11 18338789147960705359
21524375 3 17682402442396313584
22213442 358 18194680595161052251
22802520 49 18272371936513923262
2334 1 18119515786169919785
23352939 185 18126294261979789953
23402539 116 18263069067721383626
23557571 272 18411416245877151416
23558518 356 18261399918738956368
23559900 14 18341890745845896222
2748010 2 18120916551009094773
350125 39 17905046950404536201
458136 41 17475519378755816153
621550 34 18057600065727112680
6913067 236 17914876859314180778
7364860 26 17618221045786003873
7399639 24 18129093593220316512
81228 2 18334867129258975857
9709674 26 18341892970348708030

>  <PUBCHEM_SHAPE_MULTIPOLES>  (1) 
400.74
7.64
3.82
1
8.36
1.31
0.11
-2.47
-1.5
-2.84
-0.23
0.64
-0.23
1.51

>  <PUBCHEM_SHAPE_SELFOVERLAP>  (1) 
853.183

>  <PUBCHEM_SHAPE_VOLUME>  (1) 
229.1

>  <PUBCHEM_COORDINATE_TYPE>  (1) 
2
5
10

$$$$
