49823
     RDKit          3D

 21 24  0  0  0  0  0  0  0  0999 V2000
    0.7520    0.7589   -1.7877 O   0  0  0  0  0  0  0  0  0  0  0  0
    2.7676    0.7817    0.0889 N   0  0  0  0  0  0  0  0  0  0  0  0
   -1.1964   -1.1690   -0.0640 C   0  0  0  0  0  0  0  0  0  0  0  0
   -1.9896    1.0533   -0.0830 C   0  0  0  0  0  0  0  0  0  0  0  0
   -0.9273    0.1782   -0.2508 C   0  0  0  0  0  0  0  0  0  0  0  0
   -2.4791   -1.6237    0.3019 C   0  0  0  0  0  0  0  0  0  0  0  0
   -3.2724    0.5986    0.2829 C   0  0  0  0  0  0  0  0  0  0  0  0
   -0.2341   -2.3131   -0.1465 C   0  0  0  0  0  0  0  0  0  0  0  0
   -1.9689    2.5467   -0.1886 C   0  0  0  0  0  0  0  0  0  0  0  0
   -2.4778   -3.1086    0.4946 C   0  0  0  0  0  0  0  0  0  0  0  0
   -4.2125    1.7513    0.4526 C   0  0  0  0  0  0  0  0  0  0  0  0
   -1.1954   -3.5062   -0.2506 C   0  0  0  0  0  0  0  0  0  0  0  0
   -3.4678    2.8597   -0.3060 C   0  0  0  0  0  0  0  0  0  0  0  0
   -3.5356   -0.7464    0.4930 C   0  0  0  0  0  0  0  0  0  0  0  0
    1.3919    1.0201    0.5252 C   0  0  0  0  0  0  0  0  0  0  0  0
    2.9600   -0.6344   -0.2541 C   0  0  0  0  0  0  0  0  0  0  0  0
    3.7171    1.2109    1.1253 C   0  0  0  0  0  0  0  0  0  0  0  0
    0.4042    0.6506   -0.5931 C   0  0  0  0  0  0  0  0  0  0  0  0
    4.3805   -0.8916   -0.7595 C   0  0  0  0  0  0  0  0  0  0  0  0
    5.1622    1.0139    0.6652 C   0  0  0  0  0  0  0  0  0  0  0  0
    5.4215   -0.4312    0.2543 C   0  0  0  0  0  0  0  0  0  0  0  0
  1 18  2  0
  2 15  1  0
  2 16  1  0
  2 17  1  0
  3  5  2  0
  3  6  1  0
  3  8  1  0
  4  5  1  0
  4  7  2  0
  4  9  1  0
  5 18  1  0
  6 10  1  0
  6 14  2  0
  7 11  1  0
  7 14  1  0
  8 12  1  0
  9 13  1  0
 10 12  1  0
 11 13  1  0
 15 18  1  0
 16 19  1  0
 17 20  1  0
 19 21  1  0
 20 21  1  0
M  END
>  <PUBCHEM_COMPOUND_CID>  (1) 
49823

>  <PUBCHEM_CONFORMER_RMSD>  (1) 
0.8

>  <PUBCHEM_CONFORMER_DIVERSEORDER>  (1) 
1
6
10
12
11
5
9
7
8
4
2
3

>  <PUBCHEM_MMFF94_PARTIAL_CHARGES>  (1) 
17
1 -0.57
10 0.14
11 0.14
14 -0.15
15 0.33
16 0.27
17 0.27
18 0.42
2 -0.81
3 -0.14
34 0.15
4 -0.14
5 0.09
6 -0.14
7 -0.14
8 0.14
9 0.14

>  <PUBCHEM_EFFECTIVE_ROTOR_COUNT>  (1) 
5.4

>  <PUBCHEM_PHARMACOPHORE_FEATURES>  (1) 
6
1 1 acceptor
1 2 cation
5 3 6 8 10 12 rings
5 4 7 9 11 13 rings
6 2 16 17 19 20 21 rings
6 3 4 5 6 7 14 rings

>  <PUBCHEM_HEAVY_ATOM_COUNT>  (1) 
21

>  <PUBCHEM_ATOM_DEF_STEREO_COUNT>  (1) 
0

>  <PUBCHEM_ATOM_UDEF_STEREO_COUNT>  (1) 
0

>  <PUBCHEM_BOND_DEF_STEREO_COUNT>  (1) 
0

>  <PUBCHEM_BOND_UDEF_STEREO_COUNT>  (1) 
0

>  <PUBCHEM_ISOTOPIC_ATOM_COUNT>  (1) 
0

>  <PUBCHEM_COMPONENT_COUNT>  (1) 
1

>  <PUBCHEM_CACTVS_TAUTO_COUNT>  (1) 
2

>  <PUBCHEM_CONFORMER_ID>  (1) 
0000C29F00000001

>  <PUBCHEM_MMFF94_ENERGY>  (1) 
49.6256

>  <PUBCHEM_FEATURE_SELFOVERLAP>  (1) 
30.622

>  <PUBCHEM_SHAPE_FINGERPRINT>  (1) 
10319926 262 18340751712192742442
10411042 1 17905890627890111171
105312 117 17823402813231783349
10616163 171 18409730707479260362
11045977 3 18273215288166350940
11370993 70 18340202986137055776
11405975 8 18410567393183910176
11720765 8 16550275314908100703
12173636 292 18410288073537067917
12236239 1 17458349640824452964
12500047 106 18411978048937096024
12507560 40 18272650177638846296
12553582 1 17689728875061984823
12633257 1 17987251082161156617
12643181 29 18338799993249773086
12788726 201 17972051493522306298
13004483 165 17767952487327302231
13140716 1 18120381118679257995
13544592 145 18270690740681150046
13583140 156 17774153638834844416
13675066 3 18130784586174523488
138480 1 17113818492794996507
14178342 30 18334851762293440346
14251751 93 18335137591929035586
14420673 8 18264770965972640858
15042514 8 18263932201693061675
15230672 131 18191589649882419750
15256400 18 18410578370503029470
15295992 7 17775559866545606544
15375358 24 18202563960778558286
16110190 28 17973421245352697338
16945 1 18265912422213424047
17804303 29 18411142458606914444
17913733 40 18053967073467425113
1813 80 17095524006957189756
19591789 44 18120938300080124422
20510252 161 18343303669458100121
20554085 129 17983266293451717505
20600515 1 18342189872669461789
20645477 70 17060343981544079460
21033648 29 18339910516118966704
21065198 57 18412542133115356984
21065199 12 18270960267000554472
21279426 13 18054514608329228118
21650355 55 18266456701574738009
22182313 1 18191888742497713935
22224240 67 18341621370082618641
23402539 116 18271237339836480751
23419403 2 14259348159686795823
23558518 356 18117279366011837312
23559900 14 18271529711234619092
23598291 2 17749679600653192860
23728640 28 18408324414763844731
2748010 2 18191889850673122783
3091708 16 9126817852611523667
3298306 158 18199753544449311702
350125 39 18410300203067835657
4214541 1 18411418414872695584
495365 180 17488730199957533610
5104073 3 18412256268850817192
5265222 85 18337690684690448814
532947 4 18053666867199573062
5364581 5 18054208102689961504
5385378 56 18050576144946795273
559249 180 18262513694222518266
58807428 26 18336273332091276099
5924683 9 18201150078450300647
59755656 215 18409449151177583815
602551 16 18408603673842911240
633830 44 17986947449359059893
7364860 26 17835242238723042157
81228 2 18193546998989241995
84936 182 17766275371539100505
9709674 26 18343866636644124990
9862522 239 17896591804666042717
9981440 41 18264209102466279449

>  <PUBCHEM_SHAPE_MULTIPOLES>  (1) 
421.32
9.55
3.41
0.92
12.38
1.94
0.13
-3.05
-1.76
-4.13
-0.02
0.42
-0.15
0.86

>  <PUBCHEM_SHAPE_SELFOVERLAP>  (1) 
911.494

>  <PUBCHEM_SHAPE_VOLUME>  (1) 
235.6

>  <PUBCHEM_COORDINATE_TYPE>  (1) 
2
5
10

$$$$
