49821
     RDKit          3D

 20 23  0  0  0  0  0  0  0  0999 V2000
   -1.0107   -0.7953   -1.7890 O   0  0  0  0  0  0  0  0  0  0  0  0
   -3.0269   -0.7900    0.0818 N   0  0  0  0  0  0  0  0  0  0  0  0
    0.9259    1.1687   -0.0929 C   0  0  0  0  0  0  0  0  0  0  0  0
    1.7246   -1.0516   -0.0683 C   0  0  0  0  0  0  0  0  0  0  0  0
    0.6609   -0.1824   -0.2563 C   0  0  0  0  0  0  0  0  0  0  0  0
    2.2060    1.6332    0.2697 C   0  0  0  0  0  0  0  0  0  0  0  0
    3.0047   -0.5871    0.2945 C   0  0  0  0  0  0  0  0  0  0  0  0
   -0.0388    2.3086   -0.2002 C   0  0  0  0  0  0  0  0  0  0  0  0
    1.7080   -2.5467   -0.1465 C   0  0  0  0  0  0  0  0  0  0  0  0
    2.2003    3.1214    0.4352 C   0  0  0  0  0  0  0  0  0  0  0  0
    3.9471   -1.7341    0.4890 C   0  0  0  0  0  0  0  0  0  0  0  0
    0.9200    3.5021   -0.3223 C   0  0  0  0  0  0  0  0  0  0  0  0
    3.2082   -2.8580   -0.2522 C   0  0  0  0  0  0  0  0  0  0  0  0
    3.2639    0.7621    0.4811 C   0  0  0  0  0  0  0  0  0  0  0  0
   -4.0100   -1.1111    1.1162 C   0  0  0  0  0  0  0  0  0  0  0  0
   -3.2791    0.6095   -0.2603 C   0  0  0  0  0  0  0  0  0  0  0  0
   -1.6594   -1.0158    0.5257 C   0  0  0  0  0  0  0  0  0  0  0  0
   -5.2785   -0.4488    0.5989 C   0  0  0  0  0  0  0  0  0  0  0  0
   -4.7982    0.6797   -0.3086 C   0  0  0  0  0  0  0  0  0  0  0  0
   -0.6681   -0.6643   -0.5952 C   0  0  0  0  0  0  0  0  0  0  0  0
  1 20  2  0
  2 15  1  0
  2 16  1  0
  2 17  1  0
  3  5  2  0
  3  6  1  0
  3  8  1  0
  4  5  1  0
  4  7  2  0
  4  9  1  0
  5 20  1  0
  6 10  1  0
  6 14  2  0
  7 11  1  0
  7 14  1  0
  8 12  1  0
  9 13  1  0
 10 12  1  0
 11 13  1  0
 15 18  1  0
 16 19  1  0
 17 20  1  0
 18 19  1  0
M  END
>  <PUBCHEM_COMPOUND_CID>  (1) 
49821

>  <PUBCHEM_CONFORMER_RMSD>  (1) 
0.8

>  <PUBCHEM_CONFORMER_DIVERSEORDER>  (1) 
1
4
8
6
5
7
2
3

>  <PUBCHEM_MMFF94_PARTIAL_CHARGES>  (1) 
17
1 -0.57
10 0.14
11 0.14
14 -0.15
15 0.27
16 0.27
17 0.33
2 -0.81
20 0.42
3 -0.14
33 0.15
4 -0.14
5 0.09
6 -0.14
7 -0.14
8 0.14
9 0.14

>  <PUBCHEM_EFFECTIVE_ROTOR_COUNT>  (1) 
5.2

>  <PUBCHEM_PHARMACOPHORE_FEATURES>  (1) 
6
1 1 acceptor
1 2 cation
5 2 15 16 18 19 rings
5 3 6 8 10 12 rings
5 4 7 9 11 13 rings
6 3 4 5 6 7 14 rings

>  <PUBCHEM_HEAVY_ATOM_COUNT>  (1) 
20

>  <PUBCHEM_ATOM_DEF_STEREO_COUNT>  (1) 
0

>  <PUBCHEM_ATOM_UDEF_STEREO_COUNT>  (1) 
0

>  <PUBCHEM_BOND_DEF_STEREO_COUNT>  (1) 
0

>  <PUBCHEM_BOND_UDEF_STEREO_COUNT>  (1) 
0

>  <PUBCHEM_ISOTOPIC_ATOM_COUNT>  (1) 
0

>  <PUBCHEM_COMPONENT_COUNT>  (1) 
1

>  <PUBCHEM_CACTVS_TAUTO_COUNT>  (1) 
2

>  <PUBCHEM_CONFORMER_ID>  (1) 
0000C29D00000001

>  <PUBCHEM_MMFF94_ENERGY>  (1) 
53.3536

>  <PUBCHEM_FEATURE_SELFOVERLAP>  (1) 
30.622

>  <PUBCHEM_SHAPE_FINGERPRINT>  (1) 
10411042 1 18194966245110322810
10493431 412 17980194507214271296
10688039 33 18114744819800488620
108634 29 17834386818123160853
10967382 1 18411133658519631252
11640471 11 17559961093999617369
116883 192 18194683670442097148
12173636 292 17330273286624352556
12403259 226 18334011679764927909
12553582 1 18340475687060564102
12633257 1 17969769951022861739
12788726 201 17973729078116045250
13134695 92 18411696560943751453
13140716 1 18122615326528217672
13583140 156 18336831991530818671
138480 1 18410293601292171168
14178342 30 17910091836086228906
14341114 176 18410302410775945611
14790565 3 18120940765930254092
14866123 147 16968295912698078971
15042514 8 17690277110836874850
15420108 30 17985245607981867546
15442244 35 18340771442502600137
15885798 251 18336545993383612426
1601671 61 18410294748385808988
16945 1 18267005332376219828
17349148 13 17632860811234562807
17492 89 18339361984898148379
1813 80 18058464105615046006
18785283 64 18189055463619460004
20157964 124 18339919416150033439
20645477 70 18335978748737162635
20681677 76 18335699498891147375
20715895 44 17985839121234362713
20739085 24 18262513822913735976
20832881 197 18115026277803091203
21033648 29 17603854608268182413
21041028 32 18339356353910426716
21065198 57 18408606981078674491
21065199 12 18261959660589230147
21478907 32 17905608800567274618
21524375 3 17624985223697328453
21641784 216 18043552520687617604
221490 88 18335425664112675729
22182313 1 18196915709607119292
2255824 54 18267306606740669452
23175994 123 18337111146887391215
23184049 59 18201998802774259367
23559900 14 18409446994776817147
2748010 2 18197193886075320372
2838139 119 14907048469572222648
3091708 16 9214317022177807336
3421961 26 18410573972488121634
351380 180 18409726266841265685
474 4 18268425926530845793
49207404 50 18045793539806159795
5104073 3 18409455812771814507
5283268 108 18338517430759548160
54173680 148 17690279314149757866
6443956 14 18336549330641656102
7097593 13 18341048618206536959
7364860 26 18411140276594709992
7832392 63 18270675501757297502
81228 2 17905056858772775346
8272917 22 18340212976352435491
84936 182 17771056387072000616
9709674 26 18261960764343616931

>  <PUBCHEM_SHAPE_MULTIPOLES>  (1) 
400.74
8.41
3.47
0.91
11.08
2.13
0.13
-3.14
-1.81
-3.91
0.05
0.37
-0.16
0.61

>  <PUBCHEM_SHAPE_SELFOVERLAP>  (1) 
873.994

>  <PUBCHEM_SHAPE_VOLUME>  (1) 
224.2

>  <PUBCHEM_COORDINATE_TYPE>  (1) 
2
5
10

$$$$
