49829
     RDKit          3D

 32 35  0  0  0  0  0  0  0  0999 V2000
    7.2035    1.5193   -2.8129 Cl  0  0  0  0  0  0  0  0  0  0  0  0
    0.8869   -4.7392   -0.6417 O   0  0  0  0  0  0  0  0  0  0  0  0
   -4.0495   -0.1495    1.0891 O   0  0  0  0  0  0  0  0  0  0  0  0
    2.8226    2.1363    2.1307 O   0  0  0  0  0  0  0  0  0  0  0  0
   -2.3586    0.3151   -0.4576 O   0  0  0  0  0  0  0  0  0  0  0  0
    1.6971    0.4230    1.1710 N   0  0  0  0  0  0  0  0  0  0  0  0
   -0.3806   -0.4006    1.4182 C   0  0  0  0  0  0  0  0  0  0  0  0
    0.4107   -1.3999    0.8052 C   0  0  0  0  0  0  0  0  0  0  0  0
    0.4196    0.6951    1.6231 C   0  0  0  0  0  0  0  0  0  0  0  0
    1.7020   -0.8763    0.6517 C   0  0  0  0  0  0  0  0  0  0  0  0
   -1.8121   -0.5137    1.7700 C   0  0  0  0  0  0  0  0  0  0  0  0
    0.1351   -2.7112    0.3641 C   0  0  0  0  0  0  0  0  0  0  0  0
    2.7261   -1.6498    0.0720 C   0  0  0  0  0  0  0  0  0  0  0  0
    0.0194    1.9850    2.2342 C   0  0  0  0  0  0  0  0  0  0  0  0
    2.7774    1.3316    1.2060 C   0  0  0  0  0  0  0  0  0  0  0  0
    1.1515   -3.4729   -0.2155 C   0  0  0  0  0  0  0  0  0  0  0  0
    2.4293   -2.9474   -0.3575 C   0  0  0  0  0  0  0  0  0  0  0  0
   -2.7302   -0.0605    0.6462 C   0  0  0  0  0  0  0  0  0  0  0  0
    3.8697    1.3769    0.2149 C   0  0  0  0  0  0  0  0  0  0  0  0
    3.6270    0.9925   -1.1012 C   0  0  0  0  0  0  0  0  0  0  0  0
    5.1375    1.8056    0.6001 C   0  0  0  0  0  0  0  0  0  0  0  0
   -4.9755    0.2478    0.1218 C   0  0  0  0  0  0  0  0  0  0  0  0
    4.6590    1.0367   -2.0385 C   0  0  0  0  0  0  0  0  0  0  0  0
    6.1696    1.8499   -0.3373 C   0  0  0  0  0  0  0  0  0  0  0  0
   -0.4454   -5.2173   -0.4661 C   0  0  0  0  0  0  0  0  0  0  0  0
    5.9303    1.4656   -1.6567 C   0  0  0  0  0  0  0  0  0  0  0  0
   -5.3546    1.5711    0.0723 C   0  0  0  0  0  0  0  0  0  0  0  0
   -5.4746   -0.6996   -0.7447 C   0  0  0  0  0  0  0  0  0  0  0  0
   -6.2799    1.9672   -0.8934 C   0  0  0  0  0  0  0  0  0  0  0  0
   -6.3998   -0.3033   -1.7103 C   0  0  0  0  0  0  0  0  0  0  0  0
   -6.8024    1.0300   -1.7847 C   0  0  0  0  0  0  0  0  0  0  0  0
   -6.7110    3.3925   -0.9725 C   0  0  0  0  0  0  0  0  0  0  0  0
  1 26  1  0
  2 16  1  0
  2 25  1  0
  3 18  1  0
  3 22  1  0
  4 15  2  0
  5 18  2  0
  6  9  1  0
  6 10  1  0
  6 15  1  0
  7  8  1  0
  7  9  2  0
  7 11  1  0
  8 10  2  0
  8 12  1  0
  9 14  1  0
 10 13  1  0
 11 18  1  0
 12 16  2  0
 13 17  2  0
 15 19  1  0
 16 17  1  0
 19 20  2  0
 19 21  1  0
 20 23  1  0
 21 24  2  0
 22 27  2  0
 22 28  1  0
 23 26  2  0
 24 26  1  0
 27 29  1  0
 28 30  2  0
 29 31  2  0
 29 32  1  0
 30 31  1  0
M  END
>  <PUBCHEM_COMPOUND_CID>  (1) 
49829

>  <PUBCHEM_CONFORMER_RMSD>  (1) 
1

>  <PUBCHEM_CONFORMER_DIVERSEORDER>  (1) 
1
284
327
111
241
148
358
354
381
39
13
17
413
196
119
206
130
207
70
49
383
154
163
176
110
404
84
216
250
273
170
212
375
326
140
274
396
147
153
315
135
93
363
157
355
98
305
55
340
75
56
348
150
341
215
407
376
14
279
329
349
78
325
213
306
347
289
71
409
64
202
265
264
16
25
65
272
204
60
230
374
267
35
352
294
219
389
66
379
415
312
185
408
368
400
231
239
105
27
256
46
152
403
362
394
411
79
18
346
339
30
259
139
69
331
28
401
303
307
356
402
367
225
316
127
120
377
175
82
123
334
243
345
380
91
270
249
151
189
208
191
173
19
269
309
220
121
211
343
21
109
342
68
257
197
95
29
299
106
214
278
293
321
224
43
9
160
205
8
335
103
263
58
193
12
414
101
184
179
393
115
137
238
165
112
371
388
102
114
410
138
330
171
405
96
235
32
161
162
333
398
74
357
38
282
288
136
190
92
72
155
177
217
391
187
201
44
36
245
76
360
246
31
384
286
268
210
232
62
338
296
63
337
387
90
34
181
382
311
297
373
11
412
33
218
253
146
385
336
45
392
227
397
301
390
308
97
237
234
6
104
125
221
361
10
271
94
100
344
37
59
61
50
277
99
194
52
236
145
167
53
244
198
22
169
126
395
252
386
178
302
5
195
141
319
182
15
313
81
48
332
26
248
320
129
180
300
276
323
304
188
372
261
328
54
281
164
222
41
366
42
3
134
192
108
275
80
365
172
223
322
254
359
47
132
57
67
113
209
229
24
317
242
285
295
168
86
199
351
149
4
298
255
124
7
77
228
292
226
200
73
156
318
370
203
116
88
406
258
2
40
89
118
283
350
117
186
280
364
290
87
324
251
266
378
51
23
158
85
107
399
143
183
174
247
166
291
20
240
310
131
142
128
233
262
369
122
314
144
159
353
133
287
260
83

>  <PUBCHEM_MMFF94_PARTIAL_CHARGES>  (1) 
42
1 -0.18
10 -0.15
11 0.24
12 -0.15
13 -0.15
14 0.18
15 0.49
16 0.08
17 -0.15
18 0.66
19 0.09
2 -0.36
20 -0.15
21 -0.15
22 0.08
23 -0.15
24 -0.15
25 0.28
26 0.18
27 -0.15
28 -0.15
29 -0.14
3 -0.23
30 -0.15
31 -0.15
32 0.14
35 0.15
36 0.15
4 -0.57
40 0.15
41 0.15
42 0.15
43 0.15
44 0.15
48 0.15
49 0.15
5 -0.57
50 0.15
51 0.15
6 0.29
7 -0.18
9 -0.33

>  <PUBCHEM_EFFECTIVE_ROTOR_COUNT>  (1) 
7

>  <PUBCHEM_PHARMACOPHORE_FEATURES>  (1) 
7
1 2 acceptor
1 4 acceptor
1 5 acceptor
5 6 7 8 9 10 rings
6 19 20 21 23 24 26 rings
6 22 27 28 29 30 31 rings
6 8 10 12 13 16 17 rings

>  <PUBCHEM_HEAVY_ATOM_COUNT>  (1) 
32

>  <PUBCHEM_ATOM_DEF_STEREO_COUNT>  (1) 
0

>  <PUBCHEM_ATOM_UDEF_STEREO_COUNT>  (1) 
0

>  <PUBCHEM_BOND_DEF_STEREO_COUNT>  (1) 
0

>  <PUBCHEM_BOND_UDEF_STEREO_COUNT>  (1) 
0

>  <PUBCHEM_ISOTOPIC_ATOM_COUNT>  (1) 
0

>  <PUBCHEM_COMPONENT_COUNT>  (1) 
1

>  <PUBCHEM_CACTVS_TAUTO_COUNT>  (1) 
1

>  <PUBCHEM_CONFORMER_ID>  (1) 
0000C2A500000001

>  <PUBCHEM_MMFF94_ENERGY>  (1) 
103.0012

>  <PUBCHEM_FEATURE_SELFOVERLAP>  (1) 
35.612

>  <PUBCHEM_SHAPE_FINGERPRINT>  (1) 
10190206 1 18202014208965089608
105312 117 18262802985549090382
10673678 19 18409170982576481399
10693767 8 17489591130367947830
10721379 63 18195248806349613155
10906281 52 17894354358759894681
11991303 11 18190185765952651250
12202916 173 17632861937069772052
12661589 4 14619925224325453461
12975358 362 16661217927883809173
13540713 5 17843134601273751681
13690498 29 17844521309656138199
13782708 43 12247673864356432125
13911987 19 18340497732626047330
14118638 360 18410284801900674677
14294032 229 18191036779404449659
14747281 78 18125455124776826277
14931854 50 18202014213644522748
14950920 106 9006765515538570277
15082195 135 18196092135967820819
15183329 4 17632296757548750353
15324884 4 17980483682518556112
15475509 35 12391511966732851700
15484559 13 18201994409028315286
15803439 3 18272941552294155374
15840311 113 14779535778026096217
15950262 2 16806465763001198132
15961568 22 17676486142527207893
17899979 129 18265340516846995749
17980427 23 14562817710811460843
19377110 9 12974187163832121649
20567600 247 14692576511075671276
21344244 181 17131277977271753030
21521239 73 17060345141058674356
21637258 2 14117523125245227432
21987483 16 9221214259368757869
22393880 68 17917139611252025859
23559900 14 17984962823298880427
23576562 1 17900829550266018500
25025965 108 16051860818753464926
25223398 141 18119811562591693490
2838139 119 17676488409868857108
3103668 31 17979916339262762519
3472631 163 17022622004720806913
4058900 60 18335707113314607043
439807 62 14692576533199354133
44802255 64 17971779876328944718
45266715 3 17917436428527314006
46194498 28 18118118079089055615
50009960 94 10519402079910319829
513532 50 17131539618400213840

>  <PUBCHEM_SHAPE_MULTIPOLES>  (1) 
631.96
17.6
4.57
2.15
13.52
7.34
-0.21
-19.25
-14.23
-0.52
-1.31
-1.62
-1.33
0.08

>  <PUBCHEM_SHAPE_SELFOVERLAP>  (1) 
1381.717

>  <PUBCHEM_SHAPE_VOLUME>  (1) 
344.4

>  <PUBCHEM_COORDINATE_TYPE>  (1) 
2
5
10

$$$$
