4983
     RDKit          3D

 17 18  0  0  0  0  0  0  0  0999 V2000
   -0.3468    2.3860    0.2136 O   0  0  0  0  0  0  0  0  0  0  0  0
   -0.2286   -2.2521   -0.3718 O   0  0  0  0  0  0  0  0  0  0  0  0
   -0.7874    1.0809    0.3226 N   0  0  0  0  0  0  0  0  0  0  0  0
   -0.6801   -1.0865   -0.1349 N   0  0  0  0  0  0  0  0  0  0  0  0
   -2.1873    0.7951   -0.0008 C   0  0  0  0  0  0  0  0  0  0  0  0
   -2.1639   -0.8018    0.0123 C   0  0  0  0  0  0  0  0  0  0  0  0
    0.0468   -0.0728    0.0609 C   0  0  0  0  0  0  0  0  0  0  0  0
   -2.5177    1.3823   -1.3847 C   0  0  0  0  0  0  0  0  0  0  0  0
   -3.1058    1.4211    1.0507 C   0  0  0  0  0  0  0  0  0  0  0  0
   -2.5570   -1.4375    1.3529 C   0  0  0  0  0  0  0  0  0  0  0  0
   -2.8870   -1.4876   -1.1459 C   0  0  0  0  0  0  0  0  0  0  0  0
    1.4989   -0.0298    0.0320 C   0  0  0  0  0  0  0  0  0  0  0  0
    2.2382   -0.2546    1.2001 C   0  0  0  0  0  0  0  0  0  0  0  0
    2.1766    0.2374   -1.1643 C   0  0  0  0  0  0  0  0  0  0  0  0
    3.6323   -0.2129    1.1726 C   0  0  0  0  0  0  0  0  0  0  0  0
    3.5706    0.2789   -1.1920 C   0  0  0  0  0  0  0  0  0  0  0  0
    4.2983    0.0539   -0.0235 C   0  0  0  0  0  0  0  0  0  0  0  0
  1  3  1  0
  2  4  1  0
  3  5  1  0
  3  7  1  0
  4  6  1  0
  4  7  2  0
  5  6  1  0
  5  8  1  0
  5  9  1  0
  6 10  1  0
  6 11  1  0
  7 12  1  0
 12 13  2  0
 12 14  1  0
 13 15  1  0
 14 16  2  0
 15 17  2  0
 16 17  1  0
M  CHG  2   2  -1   4   1
M  END
>  <PUBCHEM_COMPOUND_CID>  (1) 
4983

>  <PUBCHEM_CONFORMER_RMSD>  (1) 
0.6

>  <PUBCHEM_CONFORMER_DIVERSEORDER>  (1) 
1

>  <PUBCHEM_MMFF94_PARTIAL_CHARGES>  (1) 
19
1 -0.38
12 -0.02
13 -0.15
14 -0.15
15 -0.15
16 -0.15
17 -0.15
2 -0.63
3 -0.55
30 0.4
31 0.15
32 0.15
33 0.15
34 0.15
35 0.15
4 0.54
5 0.37
6 0.1
7 0.18

>  <PUBCHEM_EFFECTIVE_ROTOR_COUNT>  (1) 
1.6

>  <PUBCHEM_PHARMACOPHORE_FEATURES>  (1) 
6
1 2 anion
3 3 4 7 cation
3 5 8 9 hydrophobe
3 6 10 11 hydrophobe
5 3 4 5 6 7 rings
6 12 13 14 15 16 17 rings

>  <PUBCHEM_HEAVY_ATOM_COUNT>  (1) 
17

>  <PUBCHEM_ATOM_DEF_STEREO_COUNT>  (1) 
0

>  <PUBCHEM_ATOM_UDEF_STEREO_COUNT>  (1) 
0

>  <PUBCHEM_BOND_DEF_STEREO_COUNT>  (1) 
0

>  <PUBCHEM_BOND_UDEF_STEREO_COUNT>  (1) 
0

>  <PUBCHEM_ISOTOPIC_ATOM_COUNT>  (1) 
0

>  <PUBCHEM_COMPONENT_COUNT>  (1) 
1

>  <PUBCHEM_CACTVS_TAUTO_COUNT>  (1) 
1

>  <PUBCHEM_CONFORMER_ID>  (1) 
0000137700000001

>  <PUBCHEM_MMFF94_ENERGY>  (1) 
64.648

>  <PUBCHEM_FEATURE_SELFOVERLAP>  (1) 
30.471

>  <PUBCHEM_SHAPE_FINGERPRINT>  (1) 
11132069 177 18343302548070682889
11206711 2 18337380630383834039
12236239 1 17967532376562755834
12403814 3 17676492718274955813
12932764 1 18040718069372883724
13024252 1 15863789500281378529
13140716 1 18411422842683622497
13296908 3 18060419127419727670
13538477 17 18186519891216408312
13581323 91 18412542132920210482
13764800 53 18270692977884227641
14144814 61 18040433308872545266
14614273 12 18261952955934200117
15219456 202 17203608190305880482
15309172 13 18413112744657509603
15775835 57 18040439867155887036
16752209 62 18335969948085714815
16945 1 18270394984526755593
18175812 5 17489586766507036316
18186145 218 17917431991050487160
19422 9 17821732749584702330
19868273 325 18412826918899955557
200 152 16805601520585202459
20279233 1 17561081393400870918
20510252 161 18202005447014670584
20525323 117 18411420613616259235
20645476 183 17967812743026772295
22802520 49 17916041061417401518
23402539 116 18272364266045191764
23419403 2 16768688789727595475
23493267 7 18187653457328651138
23557571 272 17989207074813615598
23559900 14 18130508549027121918
2748010 2 18268981149986158361
3286 77 16200148850181276862
4175511 318 18114458976910427877
465052 167 18045519748648099035
77492 1 17967532376557494066
81228 2 17913197947560360030

>  <PUBCHEM_SHAPE_MULTIPOLES>  (1) 
328.15
6.72
1.8
1.34
5.07
0.07
-0.03
0.15
0.08
-1.77
-0.03
-0.09
-0.02
-0.35

>  <PUBCHEM_SHAPE_SELFOVERLAP>  (1) 
691.436

>  <PUBCHEM_SHAPE_VOLUME>  (1) 
188.7

>  <PUBCHEM_COORDINATE_TYPE>  (1) 
2
5
10

$$$$
