49833
     RDKit          3D

 28 30  0  0  1  0  0  0  0  0999 V2000
   -5.3005    0.1079   -2.5504 Cl  0  0  0  0  0  0  0  0  0  0  0  0
   -5.9816   -0.3762    0.2807 Cl  0  0  0  0  0  0  0  0  0  0  0  0
   -0.8459   -0.9051    0.8229 O   0  0  0  0  0  0  0  0  0  0  0  0
   -3.0323   -1.5019    0.3624 O   0  0  0  0  0  0  0  0  0  0  0  0
    4.1123   -0.3641   -0.7153 O   0  0  0  0  0  0  0  0  0  0  0  0
   -1.1675   -2.0507   -2.3524 N   0  0  0  0  0  0  0  0  0  0  0  0
   -2.0324    1.8145    1.0989 C   0  0  0  0  0  0  0  0  0  0  0  0
   -3.4679    1.4723    0.8276 C   0  0  0  0  0  0  0  0  0  0  0  0
   -2.5871    0.4997    1.5448 C   0  0  0  0  0  0  0  0  0  0  0  0
   -1.7595    2.8782    2.1087 C   0  0  0  0  0  0  0  0  0  0  0  0
   -1.0402    1.7918   -0.0160 C   0  0  0  0  0  0  0  0  0  0  0  0
   -3.9063    1.1437   -0.5205 C   0  0  0  0  0  0  0  0  0  0  0  0
   -2.1967   -0.7491    0.8420 C   0  0  0  0  0  0  0  0  0  0  0  0
   -4.9476    0.3774   -0.8792 C   0  0  0  0  0  0  0  0  0  0  0  0
   -0.3751   -2.0880    0.1631 C   0  0  0  0  0  0  0  0  0  0  0  0
    1.1066   -2.1860    0.2999 C   0  0  0  0  0  0  0  0  0  0  0  0
   -0.8160   -2.0727   -1.2466 C   0  0  0  0  0  0  0  0  0  0  0  0
    1.9263   -1.2169   -0.2785 C   0  0  0  0  0  0  0  0  0  0  0  0
    1.6728   -3.2474    1.0062 C   0  0  0  0  0  0  0  0  0  0  0  0
    3.3123   -1.3091   -0.1506 C   0  0  0  0  0  0  0  0  0  0  0  0
    3.0587   -3.3396    1.1340 C   0  0  0  0  0  0  0  0  0  0  0  0
    3.8784   -2.3704    0.5557 C   0  0  0  0  0  0  0  0  0  0  0  0
    3.7545    0.9637   -0.5518 C   0  0  0  0  0  0  0  0  0  0  0  0
    3.3603    1.4063    0.6980 C   0  0  0  0  0  0  0  0  0  0  0  0
    3.7996    1.8128   -1.6426 C   0  0  0  0  0  0  0  0  0  0  0  0
    2.9988    2.7435    0.8625 C   0  0  0  0  0  0  0  0  0  0  0  0
    3.4383    3.1500   -1.4782 C   0  0  0  0  0  0  0  0  0  0  0  0
    3.0379    3.6153   -0.2256 C   0  0  0  0  0  0  0  0  0  0  0  0
  1 14  1  0
  2 14  1  0
  3 13  1  0
  3 15  1  0
  4 13  2  0
  5 20  1  0
  5 23  1  0
  6 17  3  0
  7  8  1  0
  7  9  1  0
  7 10  1  0
  7 11  1  0
  8  9  1  0
  8 12  1  0
  9 13  1  0
 12 14  2  3
 15 16  1  0
 15 17  1  0
 16 18  2  0
 16 19  1  0
 18 20  1  0
 19 21  2  0
 20 22  2  0
 21 22  1  0
 23 24  2  0
 23 25  1  0
 24 26  1  0
 25 27  2  0
 26 28  2  0
 27 28  1  0
M  END
>  <PUBCHEM_COMPOUND_CID>  (1) 
49833

>  <PUBCHEM_CONFORMER_RMSD>  (1) 
1.2

>  <PUBCHEM_CONFORMER_DIVERSEORDER>  (1) 
1
100
479
129
112
50
222
69
151
337
318
74
188
674
343
669
420
125
553
486
10
51
329
194
444
90
478
261
28
269
341
333
179
94
485
609
123
43
267
438
117
356
466
421
367
453
82
25
200
599
616
204
347
363
18
246
312
370
409
229
675
224
24
559
62
27
392
470
241
304
497
359
243
336
271
63
174
31
67
201
317
619
342
144
207
573
23
86
42
12
226
156
7
608
640
40
91
60
210
34
635
244
89
55
124
104
189
519
276
165
131
202
32
571
52
9
564
253
606
664
13
47
272
88
514
245
633
422
390
178
586
209
462
106
324
567
264
16
369
105
648
538
116
169
98
247
322
14
137
588
54
393
414
256
61
368
76
487
38
5
552
494
563
434
152
39
577
2
64
300
251
236
159
653
73
513
127
298
170
565
484
600
132
3
468
310
162
36
344
140
158
4
49
78
84
11
96
645
416
6
213
339
495
19
388
99

>  <PUBCHEM_MMFF94_PARTIAL_CHARGES>  (1) 
40
1 -0.14
10 0.09
11 0.09
12 -0.19
13 0.72
14 0.28
15 0.62
16 -0.14
17 0.36
18 -0.15
19 -0.15
2 -0.14
20 0.08
21 -0.15
22 -0.15
23 0.08
24 -0.15
25 -0.15
26 -0.15
27 -0.15
28 -0.15
29 0.1
3 -0.43
30 0.1
37 0.15
39 0.15
4 -0.57
40 0.15
41 0.15
42 0.15
43 0.15
44 0.15
45 0.15
46 0.15
47 0.15
5 -0.17
6 -0.56
7 -0.19
8 -0.06
9 -0.1

>  <PUBCHEM_EFFECTIVE_ROTOR_COUNT>  (1) 
7.6

>  <PUBCHEM_PHARMACOPHORE_FEATURES>  (1) 
6
1 4 acceptor
1 5 acceptor
1 6 acceptor
3 7 10 11 hydrophobe
6 16 18 19 20 21 22 rings
6 23 24 25 26 27 28 rings

>  <PUBCHEM_HEAVY_ATOM_COUNT>  (1) 
28

>  <PUBCHEM_ATOM_DEF_STEREO_COUNT>  (1) 
2

>  <PUBCHEM_ATOM_UDEF_STEREO_COUNT>  (1) 
1

>  <PUBCHEM_BOND_DEF_STEREO_COUNT>  (1) 
0

>  <PUBCHEM_BOND_UDEF_STEREO_COUNT>  (1) 
0

>  <PUBCHEM_ISOTOPIC_ATOM_COUNT>  (1) 
0

>  <PUBCHEM_COMPONENT_COUNT>  (1) 
1

>  <PUBCHEM_CACTVS_TAUTO_COUNT>  (1) 
1

>  <PUBCHEM_CONFORMER_ID>  (1) 
0000C2A900000001

>  <PUBCHEM_MMFF94_ENERGY>  (1) 
81.3564

>  <PUBCHEM_FEATURE_SELFOVERLAP>  (1) 
30.446

>  <PUBCHEM_SHAPE_FINGERPRINT>  (1) 
10498660 4 18196661902303600176
10675989 125 18269833271551101785
11135609 187 18338238288378152657
11513181 2 17557993840438786966
11578080 2 17385725772971392199
12166972 35 18198900323352239514
12633257 1 17976553710159320504
12788726 201 17775013353954370313
13122387 1 17833842564542277640
13583140 156 18114192895133806203
1361 2 18190181372290758957
14117953 113 17621878695612012981
14840074 17 18130798884368370293
14848178 96 18334297612495802652
14931854 50 18342470243981788068
17980427 23 18126280835758989531
18681886 176 18268423551810453810
21033648 29 16660650592488163037
21133410 221 15973835526055739056
2132832 1 18196639714301660507
21623110 236 18410866451682916561
21860390 5 18268156344704076806
23559900 14 18335134259029373155
238 59 18412834581433069112
3298306 158 18338231686701688401
392239 28 18118427238955978154
469060 322 17827087512966802795
474 4 18261396671743888490
5048184 11 18265346177688290540
5312544 6 18410013251496139125
6034566 193 17535479441052440796
6287921 2 17557437482991113399
6669772 16 17769355455980546193
7288768 16 17606965267995810426
9981440 41 18046907358144228418

>  <PUBCHEM_SHAPE_MULTIPOLES>  (1) 
557.38
10.77
4.5
1.85
8.72
0.43
0.69
2.54
3.15
-5.81
-0.74
1.42
0.44
-2.18

>  <PUBCHEM_SHAPE_SELFOVERLAP>  (1) 
1178.533

>  <PUBCHEM_SHAPE_VOLUME>  (1) 
311.2

>  <PUBCHEM_COORDINATE_TYPE>  (1) 
2
5
10

$$$$
