49835
     RDKit          3D

 15 16  0  0  0  0  0  0  0  0999 V2000
    0.3322   -0.5443    0.5831 O   0  0  0  0  0  0  0  0  0  0  0  0
    2.8212    0.7611   -0.8765 N   0  0  0  0  0  0  0  0  0  0  0  0
    3.4375   -0.8665    0.5899 N   0  0  0  0  0  0  0  0  0  0  0  0
    4.1251    1.2178   -0.5012 C   0  0  0  0  0  0  0  0  0  0  0  0
    2.5232   -0.3935   -0.2187 C   0  0  0  0  0  0  0  0  0  0  0  0
    4.5682    0.1037    0.4590 C   0  0  0  0  0  0  0  0  0  0  0  0
    1.2017   -1.0661   -0.3980 C   0  0  0  0  0  0  0  0  0  0  0  0
   -1.7043    0.6792    0.2572 C   0  0  0  0  0  0  0  0  0  0  0  0
   -1.0103   -0.5229    0.2857 C   0  0  0  0  0  0  0  0  0  0  0  0
   -3.0655    0.6806   -0.0478 C   0  0  0  0  0  0  0  0  0  0  0  0
   -1.6526   -1.7240    0.0145 C   0  0  0  0  0  0  0  0  0  0  0  0
   -3.7206   -0.5203   -0.3213 C   0  0  0  0  0  0  0  0  0  0  0  0
   -0.9972    1.9636    0.5517 C   0  0  0  0  0  0  0  0  0  0  0  0
   -3.0139   -1.7226   -0.2904 C   0  0  0  0  0  0  0  0  0  0  0  0
   -3.8447    1.9543   -0.0873 C   0  0  0  0  0  0  0  0  0  0  0  0
  1  7  1  0
  1  9  1  0
  2  4  1  0
  2  5  1  0
  3  5  2  0
  3  6  1  0
  4  6  1  0
  5  7  1  0
  8  9  2  0
  8 10  1  0
  8 13  1  0
  9 11  1  0
 10 12  2  0
 10 15  1  0
 11 14  2  0
 12 14  1  0
M  END
>  <PUBCHEM_COMPOUND_CID>  (1) 
49835

>  <PUBCHEM_CONFORMER_RMSD>  (1) 
0.6

>  <PUBCHEM_CONFORMER_DIVERSEORDER>  (1) 
1
22
17
2
26
4
25
9
15
11
14
3
27
6
5
21
20
19
24
7
12
23
18
10
13
8
16

>  <PUBCHEM_MMFF94_PARTIAL_CHARGES>  (1) 
19
1 -0.36
10 -0.14
11 -0.15
12 -0.15
13 0.14
14 -0.15
15 0.14
2 -0.82
20 0.4
23 0.15
24 0.15
28 0.15
3 -0.7
4 0.37
5 0.44
6 0.25
7 0.34
8 -0.14
9 0.08

>  <PUBCHEM_EFFECTIVE_ROTOR_COUNT>  (1) 
3.6

>  <PUBCHEM_PHARMACOPHORE_FEATURES>  (1) 
5
1 1 acceptor
1 2 donor
3 2 3 5 cation
5 2 3 4 5 6 rings
6 8 9 10 11 12 14 rings

>  <PUBCHEM_HEAVY_ATOM_COUNT>  (1) 
15

>  <PUBCHEM_ATOM_DEF_STEREO_COUNT>  (1) 
0

>  <PUBCHEM_ATOM_UDEF_STEREO_COUNT>  (1) 
0

>  <PUBCHEM_BOND_DEF_STEREO_COUNT>  (1) 
0

>  <PUBCHEM_BOND_UDEF_STEREO_COUNT>  (1) 
0

>  <PUBCHEM_ISOTOPIC_ATOM_COUNT>  (1) 
0

>  <PUBCHEM_COMPONENT_COUNT>  (1) 
1

>  <PUBCHEM_CACTVS_TAUTO_COUNT>  (1) 
1

>  <PUBCHEM_CONFORMER_ID>  (1) 
0000C2AB00000001

>  <PUBCHEM_MMFF94_ENERGY>  (1) 
51.9842

>  <PUBCHEM_FEATURE_SELFOVERLAP>  (1) 
25.371

>  <PUBCHEM_SHAPE_FINGERPRINT>  (1) 
10014705 185 18333446526245545821
10062212 137 18408317804671623051
10498660 4 18342463642569412012
11132069 177 18412263908811775756
12162725 195 18334296487361940566
12173636 292 18341328873628755101
12403814 3 17894912910793184757
124424 183 12107780830690104031
14790565 3 18054797183103364657
14897335 6 18410010992253878478
15196674 1 18410575097928081276
15239191 94 10375872961358546508
15442244 35 18192429667611077450
15669948 3 18342170098375942503
15775835 57 18187650180300323972
1741750 31 18270685255765040337
17492 89 18408604742874128090
17802600 8 18410288134067575344
18186145 218 17676205753976469838
19050596 39 18335137592229605330
200 152 18336259132549710486
20279233 1 16988842774290809502
20300324 65 18343300400882369055
20645477 56 18411422774211610429
20645477 70 16773807948220690142
20871999 31 18343291583783872695
22213442 358 18200029685049818159
23402539 116 18341322332018808966
23402655 69 18408606946465761036
23557571 272 18130237024529553318
23559900 14 18201156530097762654
2748010 2 17835786866462348027
3545911 37 18411985732728547150
4028521 119 18411700954568681525
4175511 318 17989485238449734167
4214541 1 18410011018355809758
4340502 62 16878236247370927497
474 4 17531533178172304340
5104073 3 18409166597636314962
573450 72 18335126592707805090
7364860 26 18196934357965332394
9709674 26 18412550898711676110

>  <PUBCHEM_SHAPE_MULTIPOLES>  (1) 
292.86
8.7
1.94
0.77
6.53
0.36
-0.02
1.74
-0.56
-1.65
0
0.27
0.05
-0.44

>  <PUBCHEM_SHAPE_SELFOVERLAP>  (1) 
613.906

>  <PUBCHEM_SHAPE_VOLUME>  (1) 
168.4

>  <PUBCHEM_COORDINATE_TYPE>  (1) 
2
5
10

$$$$
