49831
     RDKit          3D

 17 19  0  0  0  0  0  0  0  0999 V2000
    4.1857   -2.2268   -0.4926 Cl  0  0  0  0  0  0  0  0  0  0  0  0
    5.5524    0.6458    0.0991 Cl  0  0  0  0  0  0  0  0  0  0  0  0
   -1.1939    1.0943   -0.3128 N   0  0  0  0  0  0  0  0  0  0  0  0
   -1.0628   -1.0149    0.3754 N   0  0  0  0  0  0  0  0  0  0  0  0
   -2.4908    0.6594   -0.2165 C   0  0  0  0  0  0  0  0  0  0  0  0
   -0.3784    0.0590    0.0509 C   0  0  0  0  0  0  0  0  0  0  0  0
   -2.3824   -0.6596    0.2148 C   0  0  0  0  0  0  0  0  0  0  0  0
    1.0588    0.1849    0.0594 C   0  0  0  0  0  0  0  0  0  0  0  0
   -3.7122    1.2875   -0.4623 C   0  0  0  0  0  0  0  0  0  0  0  0
   -3.5515   -1.4118    0.4184 C   0  0  0  0  0  0  0  0  0  0  0  0
    1.8585   -0.9308   -0.1873 C   0  0  0  0  0  0  0  0  0  0  0  0
    1.6481    1.4232    0.3137 C   0  0  0  0  0  0  0  0  0  0  0  0
   -4.8657    0.5240   -0.2547 C   0  0  0  0  0  0  0  0  0  0  0  0
   -4.7890   -0.8018    0.1780 C   0  0  0  0  0  0  0  0  0  0  0  0
    3.2480   -0.8083   -0.1797 C   0  0  0  0  0  0  0  0  0  0  0  0
    3.0375    1.5457    0.3215 C   0  0  0  0  0  0  0  0  0  0  0  0
    3.8375    0.4300    0.0748 C   0  0  0  0  0  0  0  0  0  0  0  0
  1 15  1  0
  2 17  1  0
  3  5  1  0
  3  6  1  0
  4  6  2  0
  4  7  1  0
  5  7  2  0
  5  9  1  0
  6  8  1  0
  7 10  1  0
  8 11  2  0
  8 12  1  0
  9 13  2  0
 10 14  2  0
 11 15  1  0
 12 16  2  0
 13 14  1  0
 15 17  2  0
 16 17  1  0
M  END
>  <PUBCHEM_COMPOUND_CID>  (1) 
49831

>  <PUBCHEM_CONFORMER_RMSD>  (1) 
0.6

>  <PUBCHEM_CONFORMER_DIVERSEORDER>  (1) 
1

>  <PUBCHEM_MMFF94_PARTIAL_CHARGES>  (1) 
25
1 -0.18
10 -0.15
11 -0.15
12 -0.15
13 -0.15
14 -0.15
15 0.18
16 -0.15
17 0.18
18 0.27
19 0.15
2 -0.18
20 0.15
21 0.15
22 0.15
23 0.15
24 0.15
25 0.15
3 0.03
4 -0.57
5 -0.15
6 0.13
7 0.23
8 0.05
9 -0.15

>  <PUBCHEM_EFFECTIVE_ROTOR_COUNT>  (1) 
1

>  <PUBCHEM_PHARMACOPHORE_FEATURES>  (1) 
5
1 3 donor
3 3 4 6 cation
5 3 4 5 6 7 rings
6 5 7 9 10 13 14 rings
6 8 11 12 15 16 17 rings

>  <PUBCHEM_HEAVY_ATOM_COUNT>  (1) 
17

>  <PUBCHEM_ATOM_DEF_STEREO_COUNT>  (1) 
0

>  <PUBCHEM_ATOM_UDEF_STEREO_COUNT>  (1) 
0

>  <PUBCHEM_BOND_DEF_STEREO_COUNT>  (1) 
0

>  <PUBCHEM_BOND_UDEF_STEREO_COUNT>  (1) 
0

>  <PUBCHEM_ISOTOPIC_ATOM_COUNT>  (1) 
0

>  <PUBCHEM_COMPONENT_COUNT>  (1) 
1

>  <PUBCHEM_CACTVS_TAUTO_COUNT>  (1) 
1

>  <PUBCHEM_CONFORMER_ID>  (1) 
0000C2A700000001

>  <PUBCHEM_MMFF94_ENERGY>  (1) 
36.6658

>  <PUBCHEM_FEATURE_SELFOVERLAP>  (1) 
25.479

>  <PUBCHEM_SHAPE_FINGERPRINT>  (1) 
10608611 8 18409725188098014905
11471102 20 18342175553390057540
11615757 297 17704076226230336145
12032990 46 18408889538001911249
12107183 9 17766850420061402072
12236239 1 16272211898658735768
12507560 40 18411699876478960829
13167823 11 18342453751148914199
13533116 47 17846498093190164162
13675066 3 18261395576521764859
14341114 176 18411989043810676777
14386348 63 18409450297363814554
14573314 32 18335421248727884204
14866123 147 17262446102429250658
15196674 1 18410293583916577478
15219456 202 18411699889558989455
15375358 24 18408886252035685146
15536298 74 18411136935104878962
15961568 22 17458628986062336588
17834072 33 18343300400808366700
17834074 16 18409730668449722475
18186145 218 18040428876271071583
19141452 34 18341615958123040831
200 152 17918272052262152433
20279233 1 18408046221004666634
20645477 56 18333729130793295957
20645477 70 18271808978203020582
21065198 57 18411419518452255305
21065201 7 17967527965430915515
21267235 1 18409456902817826467
221490 88 18337116760251482410
2215653 11 18412540977410348103
22485316 2 18413107268542571551
23402539 116 18260258681103018661
23402655 69 18343017783170096604
23557571 272 17894625946458035892
23559900 14 18410009914670605442
239999 70 18341054039083219934
26918003 58 18413106177647070457
3004659 81 18188213096690864750
33824 294 18411981352199859602
3421961 26 18270398270767905494
3545911 37 18411419526841840264
4214541 1 18409729543379306949
474 4 15792871103295585700
4990 188 18334012778754329186
5104073 3 18411138004572848594
5281201 14 18335423460683696356
542803 24 16805324400747372044
633830 44 17748826332300995307
69090 78 18341327872827580311
77779 3 18410575089184951489
9709674 26 18335707186276322675

>  <PUBCHEM_SHAPE_MULTIPOLES>  (1) 
343.63
11.47
1.76
0.69
0.04
0.41
0.01
0.7
0.37
1.07
0.07
-0.03
0.02
0.91

>  <PUBCHEM_SHAPE_SELFOVERLAP>  (1) 
748.891

>  <PUBCHEM_SHAPE_VOLUME>  (1) 
189.1

>  <PUBCHEM_COORDINATE_TYPE>  (1) 
2
5
10

$$$$
