49849
     RDKit          3D

 17 17  0  0  1  0  0  0  0  0999 V2000
   -3.0279    2.8250   -0.3753 Br  0  0  0  0  0  0  0  0  0  0  0  0
    1.9308    2.0505   -0.7606 O   0  0  0  0  0  0  0  0  0  0  0  0
   -0.5303    0.9731    0.1758 N   0  0  0  0  0  0  0  0  0  0  0  0
    3.5377   -0.2617   -0.2920 N   0  0  0  0  0  0  0  0  0  0  0  0
    5.0271   -1.8051   -1.1626 N   0  0  0  0  0  0  0  0  0  0  0  0
    5.6463   -0.7395    0.7549 N   0  0  0  0  0  0  0  0  0  0  0  0
    1.8814    1.3483    0.4811 C   0  0  0  0  0  0  0  0  0  0  0  0
    0.7419    0.3304    0.4180 C   0  0  0  0  0  0  0  0  0  0  0  0
    3.2395    0.7096    0.7666 C   0  0  0  0  0  0  0  0  0  0  0  0
   -1.7339    0.2916    0.1098 C   0  0  0  0  0  0  0  0  0  0  0  0
   -2.9610    0.9440   -0.1289 C   0  0  0  0  0  0  0  0  0  0  0  0
   -1.7511   -1.1062    0.2842 C   0  0  0  0  0  0  0  0  0  0  0  0
   -4.1481   -1.1573   -0.0142 C   0  0  0  0  0  0  0  0  0  0  0  0
   -4.1557    0.2265   -0.1901 C   0  0  0  0  0  0  0  0  0  0  0  0
   -2.9457   -1.8236    0.2229 C   0  0  0  0  0  0  0  0  0  0  0  0
   -5.4241   -1.9262   -0.0802 C   0  0  0  0  0  0  0  0  0  0  0  0
    4.6731   -0.8793   -0.2094 C   0  0  0  0  0  0  0  0  0  0  0  0
  1 11  1  0
  2  7  1  0
  3  8  1  0
  3 10  1  0
  4  9  1  0
  4 17  2  3
  5 17  1  0
  6 17  1  0
  7  8  1  0
  7  9  1  0
 10 11  2  0
 10 12  1  0
 11 14  1  0
 12 15  2  0
 13 14  2  0
 13 15  1  0
 13 16  1  0
M  END
>  <PUBCHEM_COMPOUND_CID>  (1) 
49849

>  <PUBCHEM_CONFORMER_RMSD>  (1) 
0.6

>  <PUBCHEM_CONFORMER_DIVERSEORDER>  (1) 
1
166
103
175
61
170
139
149
15
77
160
140
173
67
4
113
135
97
151
43
168
167
154
57
174
108
26
129
164
63
158
120
150
118
11
132
172
106
156
125
34
137
83
30
148
48
131
107
89
155
74
62
16
92
162
122
142
152
55
110
9
134
161
96
82
93
94
146
17
115
141
91
105
47
33
85
39
40
163
126
90
153
49
44
116
123
72
27
171
86
111
36
14
165
70
38
31
147
128
24
37
71
64
65
88
60
84
25
117
22
35
144
53
75
29
138
3
58
87
133
95
176
66
124
12
143
50
109
68
8
169
32
13
130
102
10
101
136
52
6
19
112
159
104
69
51
7
81
98
76
21
45
18
99
157
54
2
59
42
79
100
73
121
5
56
145
78
114
46
127
119
41
23
28
20
80

>  <PUBCHEM_MMFF94_PARTIAL_CHARGES>  (1) 
26
1 -0.11
10 0.1
11 0.11
12 -0.15
13 -0.14
14 -0.15
15 -0.15
16 0.14
17 0.55
2 -0.68
23 0.4
24 0.15
25 0.15
26 0.15
27 0.4
3 -0.87
31 0.4
32 0.4
33 0.4
34 0.4
4 -0.7
5 -0.85
6 -0.85
7 0.28
8 0.37
9 0.25

>  <PUBCHEM_EFFECTIVE_ROTOR_COUNT>  (1) 
5

>  <PUBCHEM_PHARMACOPHORE_FEATURES>  (1) 
9
1 1 hydrophobe
1 2 acceptor
1 2 donor
1 3 cation
1 3 donor
1 5 donor
1 6 donor
4 4 5 6 17 cation
6 10 11 12 13 14 15 rings

>  <PUBCHEM_HEAVY_ATOM_COUNT>  (1) 
17

>  <PUBCHEM_ATOM_DEF_STEREO_COUNT>  (1) 
0

>  <PUBCHEM_ATOM_UDEF_STEREO_COUNT>  (1) 
1

>  <PUBCHEM_BOND_DEF_STEREO_COUNT>  (1) 
0

>  <PUBCHEM_BOND_UDEF_STEREO_COUNT>  (1) 
0

>  <PUBCHEM_ISOTOPIC_ATOM_COUNT>  (1) 
0

>  <PUBCHEM_COMPONENT_COUNT>  (1) 
1

>  <PUBCHEM_CACTVS_TAUTO_COUNT>  (1) 
2

>  <PUBCHEM_CONFORMER_ID>  (1) 
0000C2B900000001

>  <PUBCHEM_MMFF94_ENERGY>  (1) 
51.8638

>  <PUBCHEM_FEATURE_SELFOVERLAP>  (1) 
45.73

>  <PUBCHEM_SHAPE_FINGERPRINT>  (1) 
11128504 68 16587747555454754318
11458722 379 18333449837359531979
12403259 226 18341888640974798457
12507560 40 18272923955944732408
12916754 54 18411139173273898977
13533116 47 18130789022421936435
13551218 46 18201441410872938271
13675066 3 18131624591340617328
14251751 93 18411412886927999719
14252887 29 16988567875452146670
14341114 328 12463564072113655414
15042514 8 18265053703753976587
15196674 1 18411418431561824352
15352361 1 18412827980083970678
17804303 29 18411136948264327865
17844677 252 18409451388486442144
17870717 6 18339088098584571087
18186145 218 17313656170009595529
193927 3 18335710471815248587
19784866 240 18272098200873094810
1986462 14 18408039593870291269
200 152 17846778524795439283
20374829 77 18335416855292890250
20403669 9 18412830191839478726
20645477 70 18412545440155746218
20871999 31 18186810158165188668
21065201 7 18337100194552033568
21267235 1 18334580178869064107
2215653 11 18342734087874538303
2297311 6 18408609171306111047
2306618 200 18272375248424624857
23402539 116 18340761620497722877
23403322 49 18342177756281213859
23559900 14 18339352054458603817
3004659 81 18333454236175890374
312423 11 18187941619775611469
4214541 1 18410572859891553944
5104073 3 18343018904151371400
559249 180 18335696083706474946
58051976 100 18334009467593195205
59755656 215 18337668599577858501
59755656 520 18126003768173787081
9709674 26 18263363770680576875

>  <PUBCHEM_SHAPE_MULTIPOLES>  (1) 
330
12.45
2.52
0.81
11.01
0.98
-0.05
-7.04
-1
-2.21
-0.42
0.62
-0.02
0.83

>  <PUBCHEM_SHAPE_SELFOVERLAP>  (1) 
653.527

>  <PUBCHEM_SHAPE_VOLUME>  (1) 
199.9

>  <PUBCHEM_COORDINATE_TYPE>  (1) 
2
5
10

$$$$
