49841
     RDKit          3D

 17 17  0  0  1  0  0  0  0  0999 V2000
    1.5225   -2.6098    1.1011 O   0  0  0  0  0  0  0  0  0  0  0  0
   -0.5392    0.4394    0.8862 N   0  0  0  0  0  0  0  0  0  0  0  0
    2.7977   -0.2727    0.0715 N   0  0  0  0  0  0  0  0  0  0  0  0
    4.7523    0.9521   -0.1214 N   0  0  0  0  0  0  0  0  0  0  0  0
    3.6459    0.4610   -2.0527 N   0  0  0  0  0  0  0  0  0  0  0  0
    0.2402   -0.6183    1.4896 C   0  0  0  0  0  0  0  0  0  0  0  0
    0.7800   -1.5874    0.4371 C   0  0  0  0  0  0  0  0  0  0  0  0
   -0.0880    1.8210    1.0527 C   0  0  0  0  0  0  0  0  0  0  0  0
   -1.7091    0.1633    0.1669 C   0  0  0  0  0  0  0  0  0  0  0  0
    1.6618   -0.9060   -0.6080 C   0  0  0  0  0  0  0  0  0  0  0  0
   -1.1461    2.6645    1.7434 C   0  0  0  0  0  0  0  0  0  0  0  0
   -2.1110    1.0025   -0.8788 C   0  0  0  0  0  0  0  0  0  0  0  0
   -2.4885   -0.9544    0.4869 C   0  0  0  0  0  0  0  0  0  0  0  0
   -3.2764    0.7280   -1.5945 C   0  0  0  0  0  0  0  0  0  0  0  0
   -3.6537   -1.2290   -0.2290 C   0  0  0  0  0  0  0  0  0  0  0  0
   -4.0477   -0.3877   -1.2697 C   0  0  0  0  0  0  0  0  0  0  0  0
    3.6595    0.3334   -0.6815 C   0  0  0  0  0  0  0  0  0  0  0  0
  1  7  1  0
  2  6  1  0
  2  8  1  0
  2  9  1  0
  3 10  1  0
  3 17  2  3
  4 17  1  0
  5 17  1  0
  6  7  1  0
  7 10  1  0
  8 11  1  0
  9 12  2  0
  9 13  1  0
 12 14  1  0
 13 15  2  0
 14 16  2  0
 15 16  1  0
M  END
>  <PUBCHEM_COMPOUND_CID>  (1) 
49841

>  <PUBCHEM_CONFORMER_RMSD>  (1) 
0.8

>  <PUBCHEM_CONFORMER_DIVERSEORDER>  (1) 
1
132
97
62
44
129
131
40
37
72
56
57
36
54
103
124
29
53
107
112
17
122
100
9
59
42
130
16
30
88
95
114
23
93
121
21
48
76
77
15
81
78
69
58
20
65
108
10
26
119
125
86
18
52
116
99
50
35
38
126
111
66
39
83
14
110
68
82
90
75
117
105
67
43
134
79
133
3
109
85
94
32
71
98
70
33
96
127
28
24
47
31
4
118
64
41
46
123
8
51
104
6
34
55
80
84
128
61
101
2
63
25
74
115
12
73
27
49
11
13
60
102
19
89
92
45
113
87
91
120
5
7
106
22

>  <PUBCHEM_MMFF94_PARTIAL_CHARGES>  (1) 
26
1 -0.68
10 0.25
12 -0.15
13 -0.15
14 -0.15
15 -0.15
16 -0.15
17 0.55
2 -0.84
28 0.15
29 0.15
3 -0.7
30 0.4
31 0.15
32 0.15
33 0.15
34 0.4
35 0.4
36 0.4
37 0.4
4 -0.85
5 -0.85
6 0.37
7 0.28
8 0.37
9 0.1

>  <PUBCHEM_EFFECTIVE_ROTOR_COUNT>  (1) 
6

>  <PUBCHEM_PHARMACOPHORE_FEATURES>  (1) 
7
1 1 acceptor
1 1 donor
1 2 cation
1 4 donor
1 5 donor
4 3 4 5 17 cation
6 9 12 13 14 15 16 rings

>  <PUBCHEM_HEAVY_ATOM_COUNT>  (1) 
17

>  <PUBCHEM_ATOM_DEF_STEREO_COUNT>  (1) 
0

>  <PUBCHEM_ATOM_UDEF_STEREO_COUNT>  (1) 
1

>  <PUBCHEM_BOND_DEF_STEREO_COUNT>  (1) 
0

>  <PUBCHEM_BOND_UDEF_STEREO_COUNT>  (1) 
0

>  <PUBCHEM_ISOTOPIC_ATOM_COUNT>  (1) 
0

>  <PUBCHEM_COMPONENT_COUNT>  (1) 
1

>  <PUBCHEM_CACTVS_TAUTO_COUNT>  (1) 
2

>  <PUBCHEM_CONFORMER_ID>  (1) 
0000C2B100000001

>  <PUBCHEM_MMFF94_ENERGY>  (1) 
57.2312

>  <PUBCHEM_FEATURE_SELFOVERLAP>  (1) 
35.576

>  <PUBCHEM_SHAPE_FINGERPRINT>  (1) 
12006461 19 14549011113352491111
12202030 40 15338264633040620638
12553582 1 17988633100069782439
12633257 1 12685364223695536388
12788726 201 17844525505527943281
13571099 52 16298389028406166186
15852999 172 17530973479451305562
16945 1 18259980496477471131
1813 80 16916798421505322693
18186145 218 18336835272484750316
192875 21 18040715870639856756
19422 9 13470687078907117930
19765921 60 17894907412765391867
20361792 2 17489289894209531157
20449540 30 18334584516295396477
20711985 344 17631450051753269697
20871999 31 18272081708784188863
212916 134 12540966443344493221
22620623 9 17131561518143550081
228727 97 18341336612737536912
23402539 116 18202570562169672316
23419403 2 17758983783942848953
23557571 272 17129568052222758130
23559900 14 18046887321742549266
2748010 2 17686325878405849539
3323516 105 18198337553702723257
351380 180 16732976548783115340
353137 74 18411141307460740312
4340502 62 13118280318746899805
449060 23 16988844990293266263
474 4 15719392819563666087
6992083 37 16967724174988024819
7615 1 18194683653272751930
81228 2 17628903540026687585
83771 10 14189577438017486990

>  <PUBCHEM_SHAPE_MULTIPOLES>  (1) 
324.06
7.36
2.14
1.68
4.07
0.88
-0.31
-0.55
-4.43
-0.25
1.31
0.11
0.21
-0.51

>  <PUBCHEM_SHAPE_SELFOVERLAP>  (1) 
651.845

>  <PUBCHEM_SHAPE_VOLUME>  (1) 
189

>  <PUBCHEM_COORDINATE_TYPE>  (1) 
2
5
10

$$$$
