49845
     RDKit          3D

 16 16  0  0  1  0  0  0  0  0999 V2000
    1.4819    1.8861   -1.1229 O   0  0  0  0  0  0  0  0  0  0  0  0
   -0.9267    0.8166   -0.0507 N   0  0  0  0  0  0  0  0  0  0  0  0
    3.2254   -0.1924   -0.2354 N   0  0  0  0  0  0  0  0  0  0  0  0
    4.8369   -1.7546   -0.8019 N   0  0  0  0  0  0  0  0  0  0  0  0
    5.3320   -0.3338    0.9103 N   0  0  0  0  0  0  0  0  0  0  0  0
    1.4456    1.4067    0.2211 C   0  0  0  0  0  0  0  0  0  0  0  0
    0.3783    0.3159    0.3186 C   0  0  0  0  0  0  0  0  0  0  0  0
    2.8349    0.9235    0.6337 C   0  0  0  0  0  0  0  0  0  0  0  0
   -2.0802    0.0513   -0.0154 C   0  0  0  0  0  0  0  0  0  0  0  0
   -3.3597    0.6400    0.0268 C   0  0  0  0  0  0  0  0  0  0  0  0
   -1.9976   -1.3548   -0.0210 C   0  0  0  0  0  0  0  0  0  0  0  0
   -4.5108   -0.1469    0.0620 C   0  0  0  0  0  0  0  0  0  0  0  0
   -3.5025    2.1274    0.0344 C   0  0  0  0  0  0  0  0  0  0  0  0
   -3.1488   -2.1417    0.0141 C   0  0  0  0  0  0  0  0  0  0  0  0
   -4.4053   -1.5378    0.0557 C   0  0  0  0  0  0  0  0  0  0  0  0
    4.3966   -0.7055   -0.0296 C   0  0  0  0  0  0  0  0  0  0  0  0
  1  6  1  0
  2  7  1  0
  2  9  1  0
  3  8  1  0
  3 16  2  3
  4 16  1  0
  5 16  1  0
  6  7  1  0
  6  8  1  0
  9 10  2  0
  9 11  1  0
 10 12  1  0
 10 13  1  0
 11 14  2  0
 12 15  2  0
 14 15  1  0
M  END
>  <PUBCHEM_COMPOUND_CID>  (1) 
49845

>  <PUBCHEM_CONFORMER_RMSD>  (1) 
0.6

>  <PUBCHEM_CONFORMER_DIVERSEORDER>  (1) 
1
134
39
135
93
117
126
20
137
60
155
146
120
122
129
6
29
152
4
143
64
14
31
151
56
84
127
97
115
132
25
91
144
19
107
136
57
94
77
150
147
114
51
50
106
148
3
26
128
43
32
108
21
153
47
138
80
62
18
92
88
72
36
149
102
65
34
27
101
42
133
100
125
83
154
105
130
35
17
89
58
156
23
49
24
104
41
52
95
81
121
141
98
73
70
68
63
140
78
74
79
113
54
45
8
59
118
15
7
109
10
119
2
103
85
40
142
86
112
116
139
37
61
82
38
76
53
87
111
123
11
9
22
44
110
69
71
96
66
16
12
55
131
48
99
124
30
90
46
145
28
5
33
75
13
67

>  <PUBCHEM_MMFF94_PARTIAL_CHARGES>  (1) 
26
1 -0.68
10 -0.14
11 -0.15
12 -0.15
13 0.14
14 -0.15
15 -0.15
16 0.55
2 -0.87
20 0.4
23 0.15
24 0.15
28 0.4
29 0.15
3 -0.7
30 0.15
31 0.4
32 0.4
33 0.4
34 0.4
4 -0.85
5 -0.85
6 0.28
7 0.37
8 0.25
9 0.1

>  <PUBCHEM_EFFECTIVE_ROTOR_COUNT>  (1) 
5

>  <PUBCHEM_PHARMACOPHORE_FEATURES>  (1) 
8
1 1 acceptor
1 1 donor
1 2 cation
1 2 donor
1 4 donor
1 5 donor
4 3 4 5 16 cation
6 9 10 11 12 14 15 rings

>  <PUBCHEM_HEAVY_ATOM_COUNT>  (1) 
16

>  <PUBCHEM_ATOM_DEF_STEREO_COUNT>  (1) 
0

>  <PUBCHEM_ATOM_UDEF_STEREO_COUNT>  (1) 
1

>  <PUBCHEM_BOND_DEF_STEREO_COUNT>  (1) 
0

>  <PUBCHEM_BOND_UDEF_STEREO_COUNT>  (1) 
0

>  <PUBCHEM_ISOTOPIC_ATOM_COUNT>  (1) 
0

>  <PUBCHEM_COMPONENT_COUNT>  (1) 
1

>  <PUBCHEM_CACTVS_TAUTO_COUNT>  (1) 
2

>  <PUBCHEM_CONFORMER_ID>  (1) 
0000C2B500000001

>  <PUBCHEM_MMFF94_ENERGY>  (1) 
51.8286

>  <PUBCHEM_FEATURE_SELFOVERLAP>  (1) 
40.656

>  <PUBCHEM_SHAPE_FINGERPRINT>  (1) 
10465860 250 17846779619806495153
11128504 68 16515691056686253910
11458722 379 18334013891146000027
124424 183 17703784808409941201
12507560 40 18201711894790753776
12555020 224 18411127053092487303
12596602 18 15195560234558841222
12916754 54 18336548334689453833
13167823 11 18409166631916931170
13675066 3 18060413625450706912
14251731 8 18410292484505157126
14251751 93 18410288099570693467
14252887 29 17203335494490307862
14420673 8 18267592312113175110
15042514 8 18265900332097322379
15196674 1 18412263926387381230
17804303 29 18412265047189105753
17834072 33 18335143141559785156
17834072 8 18334006181995701613
17834074 16 18412262839343904459
1813 80 17531247249267061404
18186145 218 17023175097929895377
193927 3 18260838145364260595
1986462 14 18407759235737921981
20281475 54 18335421244965828980
20374829 77 18335136462906485450
20645477 70 18410292540793490478
21065199 12 18272645800740195904
21267235 1 18335708269119537355
221490 88 18191593149303988554
2215653 11 18343297042154640415
22485316 2 18409727344598449776
2306618 200 18202290195511003921
23402539 116 18272363183982653445
23403322 49 18413672409071777555
23532345 12 18408325496852919029
23559900 14 18341886437308351177
23598291 2 18041005071787972909
26918003 58 18131627877032634552
3004659 81 18261396624974040950
312423 11 18042701644300050021
42 15 18343021116069915033
4214541 1 18411699876574205129
5104073 3 18341050804102122897
559249 180 18335697191913538819
58051976 100 18260264149097461839
5924683 9 17559946787785730519
59755656 215 18337388232766059199
633830 44 17167864196425808409
77779 3 18411138069029265528
9709674 26 18191588759816023363
9981440 41 17180251517795015176

>  <PUBCHEM_SHAPE_MULTIPOLES>  (1) 
303.48
11.42
2.12
0.77
9.36
0.03
0.03
4.41
-0.48
-1.16
0.26
0.51
-0.07
0.32

>  <PUBCHEM_SHAPE_SELFOVERLAP>  (1) 
612.199

>  <PUBCHEM_SHAPE_VOLUME>  (1) 
176.5

>  <PUBCHEM_COORDINATE_TYPE>  (1) 
2
5
10

$$$$
