49851
     RDKit          3D

 17 17  0  0  1  0  0  0  0  0999 V2000
    1.5443    2.0681   -0.4120 O   0  0  0  0  0  0  0  0  0  0  0  0
   -3.3295    1.6966    0.1232 O   0  0  0  0  0  0  0  0  0  0  0  0
   -0.7549    0.5880    0.3740 N   0  0  0  0  0  0  0  0  0  0  0  0
    3.4131   -0.0870   -0.3073 N   0  0  0  0  0  0  0  0  0  0  0  0
    5.0444   -1.3032   -1.4110 N   0  0  0  0  0  0  0  0  0  0  0  0
    5.5881   -0.4674    0.6387 N   0  0  0  0  0  0  0  0  0  0  0  0
    1.6060    1.1897    0.7114 C   0  0  0  0  0  0  0  0  0  0  0  0
    0.5874    0.0677    0.5067 C   0  0  0  0  0  0  0  0  0  0  0  0
    3.0344    0.6769    0.8869 C   0  0  0  0  0  0  0  0  0  0  0  0
   -1.8752   -0.2105    0.2171 C   0  0  0  0  0  0  0  0  0  0  0  0
   -3.1644    0.3440    0.0914 C   0  0  0  0  0  0  0  0  0  0  0  0
   -1.7502   -1.6129    0.1788 C   0  0  0  0  0  0  0  0  0  0  0  0
   -4.2843   -0.4726   -0.0666 C   0  0  0  0  0  0  0  0  0  0  0  0
   -2.8701   -2.4294    0.0209 C   0  0  0  0  0  0  0  0  0  0  0  0
   -4.1371   -1.8593   -0.1017 C   0  0  0  0  0  0  0  0  0  0  0  0
    4.6126   -0.5749   -0.3274 C   0  0  0  0  0  0  0  0  0  0  0  0
   -3.2647    2.3862   -1.1232 C   0  0  0  0  0  0  0  0  0  0  0  0
  1  7  1  0
  2 11  1  0
  2 17  1  0
  3  8  1  0
  3 10  1  0
  4  9  1  0
  4 16  2  3
  5 16  1  0
  6 16  1  0
  7  8  1  0
  7  9  1  0
 10 11  2  0
 10 12  1  0
 11 13  1  0
 12 14  2  0
 13 15  2  0
 14 15  1  0
M  END
>  <PUBCHEM_COMPOUND_CID>  (1) 
49851

>  <PUBCHEM_CONFORMER_RMSD>  (1) 
0.8

>  <PUBCHEM_CONFORMER_DIVERSEORDER>  (1) 
1
59
154
51
4
42
155
120
10
127
55
164
118
113
107
98
129
28
119
133
144
165
17
7
93
48
89
56
20
152
76
69
46
103
157
97
151
13
34
166
63
3
138
150
137
116
105
148
92
147
117
111
24
15
110
125
73
159
82
131
124
142
12
83
163
9
61
79
115
86
21
112
108
16
19
106
40
122
75
109
101
99
80
91
94
161
90
140
5
36
123
66
18
57
135
11
88
64
2
146
162
143
30
130
33
114
85
121
136
102
58
126
104
141
25
32
158
160
62
6
43
14
74
128
100
26
37
70
44
77
45
31
81
145
96
47
54
71
87
60
139
8
153
49
134
41
78
38
67
72
50
95
132
35
29
52
27
156
53
149
23
39
68
22
65
84

>  <PUBCHEM_MMFF94_PARTIAL_CHARGES>  (1) 
27
1 -0.68
10 0.1
11 0.08
12 -0.15
13 -0.15
14 -0.15
15 -0.15
16 0.55
17 0.28
2 -0.36
23 0.4
24 0.15
25 0.4
26 0.15
27 0.15
28 0.15
3 -0.87
32 0.4
33 0.4
34 0.4
35 0.4
4 -0.7
5 -0.85
6 -0.85
7 0.28
8 0.37
9 0.25

>  <PUBCHEM_EFFECTIVE_ROTOR_COUNT>  (1) 
6

>  <PUBCHEM_PHARMACOPHORE_FEATURES>  (1) 
9
1 1 acceptor
1 1 donor
1 2 acceptor
1 3 cation
1 3 donor
1 5 donor
1 6 donor
4 4 5 6 16 cation
6 10 11 12 13 14 15 rings

>  <PUBCHEM_HEAVY_ATOM_COUNT>  (1) 
17

>  <PUBCHEM_ATOM_DEF_STEREO_COUNT>  (1) 
0

>  <PUBCHEM_ATOM_UDEF_STEREO_COUNT>  (1) 
1

>  <PUBCHEM_BOND_DEF_STEREO_COUNT>  (1) 
0

>  <PUBCHEM_BOND_UDEF_STEREO_COUNT>  (1) 
0

>  <PUBCHEM_ISOTOPIC_ATOM_COUNT>  (1) 
0

>  <PUBCHEM_COMPONENT_COUNT>  (1) 
1

>  <PUBCHEM_CACTVS_TAUTO_COUNT>  (1) 
2

>  <PUBCHEM_CONFORMER_ID>  (1) 
0000C2BB00000001

>  <PUBCHEM_MMFF94_ENERGY>  (1) 
63.472

>  <PUBCHEM_FEATURE_SELFOVERLAP>  (1) 
45.73

>  <PUBCHEM_SHAPE_FINGERPRINT>  (1) 
10680689 15 18261114071264141961
11128504 68 16877947174180292798
11458722 379 18408604772780143435
12186901 62 18334571335362297597
12916754 54 18340487889025351969
13675066 3 18060131072542635208
14251731 8 18411419479997912286
14251751 93 18411976957846877207
14252887 29 16630254649615580350
15042514 8 18265054820456140027
17804303 29 18411701014919613801
17870717 6 18412835667774880423
18186145 218 17604417634786910915
1986462 14 18410573989657538457
200 152 16558746802094691545
20325693 3 18259990357696002359
20374829 77 18410855439344545370
20645477 70 17704073993327325094
20871999 31 18260272953754057862
21065201 7 18409157823007501354
21267235 1 18335706096013928123
221490 88 18266464402324531938
2215653 11 18201998815685528663
22943178 12 18201146758609132776
2306618 200 18272093799212196401
23175994 123 17632859728459777369
23403322 49 18273500078193468202
23559900 14 18342166825610713841
3004659 81 18334581209983169774
312423 11 18116165530810612321
4214541 1 18411417314907374168
5104073 3 18342458187628241448
559249 180 18335413513771735666
58051976 100 18335417980663946971
59755656 215 18411417272564362735
59755656 520 18200314300270504281
9709674 26 18193555803166147563

>  <PUBCHEM_SHAPE_MULTIPOLES>  (1) 
318.19
11.31
2.33
0.92
12.58
0.3
-0.16
-3.64
-1.77
-2.56
-0.53
0.64
0.1
1.11

>  <PUBCHEM_SHAPE_SELFOVERLAP>  (1) 
641.621

>  <PUBCHEM_SHAPE_VOLUME>  (1) 
184.9

>  <PUBCHEM_COORDINATE_TYPE>  (1) 
2
5
10

$$$$
