49857
     RDKit          3D

 16 16  0  0  0  0  0  0  0  0999 V2000
   -1.8494   -2.0614    0.8250 O   0  0  0  0  0  0  0  0  0  0  0  0
    1.6465   -2.1338    0.7711 O   0  0  0  0  0  0  0  0  0  0  0  0
    0.0286    0.7793    0.7452 N   0  0  0  0  0  0  0  0  0  0  0  0
   -2.8576   -0.2099   -0.1620 N   0  0  0  0  0  0  0  0  0  0  0  0
    2.8801   -0.3833   -0.1352 N   0  0  0  0  0  0  0  0  0  0  0  0
   -1.0911    1.3921    0.3167 C   0  0  0  0  0  0  0  0  0  0  0  0
    1.1951    1.3244    0.3332 C   0  0  0  0  0  0  0  0  0  0  0  0
   -2.3924    0.7898    0.7719 C   0  0  0  0  0  0  0  0  0  0  0  0
    2.4458    0.6569    0.7993 C   0  0  0  0  0  0  0  0  0  0  0  0
   -1.1200    2.5089   -0.4930 C   0  0  0  0  0  0  0  0  0  0  0  0
    1.2842    2.4429   -0.4798 C   0  0  0  0  0  0  0  0  0  0  0  0
    0.1000    3.0407   -0.8962 C   0  0  0  0  0  0  0  0  0  0  0  0
   -2.5432   -1.5535   -0.0520 C   0  0  0  0  0  0  0  0  0  0  0  0
    2.4345   -1.6805   -0.0548 C   0  0  0  0  0  0  0  0  0  0  0  0
   -3.1774   -2.3781   -1.1400 C   0  0  0  0  0  0  0  0  0  0  0  0
    3.0164   -2.5344   -1.1493 C   0  0  0  0  0  0  0  0  0  0  0  0
  1 13  2  0
  2 14  2  0
  3  6  2  0
  3  7  1  0
  4  8  1  0
  4 13  1  0
  5  9  1  0
  5 14  1  0
  6  8  1  0
  6 10  1  0
  7  9  1  0
  7 11  2  0
 10 12  2  0
 11 12  1  0
 13 15  1  0
 14 16  1  0
M  END
>  <PUBCHEM_COMPOUND_CID>  (1) 
49857

>  <PUBCHEM_CONFORMER_RMSD>  (1) 
0.8

>  <PUBCHEM_CONFORMER_DIVERSEORDER>  (1) 
1
28
16
74
67
29
72
32
47
20
73
36
2
48
27
61
75
22
6
23
64
45
66
14
4
37
49
70
15
19
52
31
46
71
62
69
68
12
25
41
53
57
56
7
55
24
51
39
17
38
13
5
44
50
11
59
3
10
63
40
60
76
18
54
58
26
21
9
30
8
34
33
35
42
65
43

>  <PUBCHEM_MMFF94_PARTIAL_CHARGES>  (1) 
21
1 -0.57
10 -0.15
11 -0.15
12 -0.15
13 0.57
14 0.57
15 0.06
16 0.06
2 -0.57
21 0.15
22 0.15
23 0.15
24 0.37
25 0.37
3 -0.62
4 -0.73
5 -0.73
6 0.17
7 0.17
8 0.44
9 0.44

>  <PUBCHEM_EFFECTIVE_ROTOR_COUNT>  (1) 
6

>  <PUBCHEM_PHARMACOPHORE_FEATURES>  (1) 
6
1 1 acceptor
1 2 acceptor
1 3 acceptor
1 4 donor
1 5 donor
6 3 6 7 10 11 12 rings

>  <PUBCHEM_HEAVY_ATOM_COUNT>  (1) 
16

>  <PUBCHEM_ATOM_DEF_STEREO_COUNT>  (1) 
0

>  <PUBCHEM_ATOM_UDEF_STEREO_COUNT>  (1) 
0

>  <PUBCHEM_BOND_DEF_STEREO_COUNT>  (1) 
0

>  <PUBCHEM_BOND_UDEF_STEREO_COUNT>  (1) 
0

>  <PUBCHEM_ISOTOPIC_ATOM_COUNT>  (1) 
0

>  <PUBCHEM_COMPONENT_COUNT>  (1) 
1

>  <PUBCHEM_CACTVS_TAUTO_COUNT>  (1) 
3

>  <PUBCHEM_CONFORMER_ID>  (1) 
0000C2C100000001

>  <PUBCHEM_MMFF94_ENERGY>  (1) 
24.7838

>  <PUBCHEM_FEATURE_SELFOVERLAP>  (1) 
30.447

>  <PUBCHEM_SHAPE_FINGERPRINT>  (1) 
11321824 6 17687730658585817411
11322862 65 18048877390501686429
116883 192 18337660962931210661
12553582 1 18335707147531459000
14178342 30 18341045345378349193
1420 336 18338516322558012179
14251705 54 18121220045777184699
14251711 518 18118119173752126987
14251745 187 18410856564409731850
14251757 17 17973967788298218279
19591789 44 17833548994953550481
20645476 183 16302351526758267384
20645477 70 17829879190365144191
22889148 1 17099162131434544557
23530152 11 17185035505681926365
238 59 17185853529801862367
2748010 2 18046903779803850624
3060560 45 17542498783344924877
598444 67 17836371440826921229
81228 2 18336826390302329169
8199 65 17833829756500959605
8272917 22 17977386358896145327

>  <PUBCHEM_SHAPE_MULTIPOLES>  (1) 
302.59
5.06
4.02
1.04
0.44
0.09
0.1
-4.47
0.59
-0.22
1.33
0.01
-0.18
0

>  <PUBCHEM_SHAPE_SELFOVERLAP>  (1) 
612.332

>  <PUBCHEM_SHAPE_VOLUME>  (1) 
175.9

>  <PUBCHEM_COORDINATE_TYPE>  (1) 
2
5
10

$$$$
