49868
     RDKit          3D

 20 20  0  0  0  0  0  0  0  0999 V2000
   -2.3910    0.3914    0.1004 O   0  0  0  0  0  0  0  0  0  0  0  0
    2.3957    0.4268    0.0997 O   0  0  0  0  0  0  0  0  0  0  0  0
   -1.3319    1.3035    1.9262 O   0  0  0  0  0  0  0  0  0  0  0  0
    1.3235    1.3223    1.9261 O   0  0  0  0  0  0  0  0  0  0  0  0
   -0.0649    3.4618   -2.3224 N   0  0  0  0  0  0  0  0  0  0  0  0
    0.0023    0.4058    0.0605 C   0  0  0  0  0  0  0  0  0  0  0  0
   -0.0019    1.2498   -1.2574 C   0  0  0  0  0  0  0  0  0  0  0  0
    0.0117   -1.1223   -0.1592 C   0  0  0  0  0  0  0  0  0  0  0  0
   -0.0560    2.7698   -1.0366 C   0  0  0  0  0  0  0  0  0  0  0  0
   -1.2922    0.7630    0.8281 C   0  0  0  0  0  0  0  0  0  0  0  0
    1.2915    0.7807    0.8283 C   0  0  0  0  0  0  0  0  0  0  0  0
    0.0413   -1.5890   -1.4464 C   0  0  0  0  0  0  0  0  0  0  0  0
   -0.0105   -1.9328    0.9444 C   0  0  0  0  0  0  0  0  0  0  0  0
    0.0495   -2.9696   -1.6446 C   0  0  0  0  0  0  0  0  0  0  0  0
   -0.0022   -3.3135    0.7462 C   0  0  0  0  0  0  0  0  0  0  0  0
    0.0277   -3.8319   -0.5483 C   0  0  0  0  0  0  0  0  0  0  0  0
   -3.6580    0.6730    0.7030 C   0  0  0  0  0  0  0  0  0  0  0  0
    3.6584    0.7295    0.7009 C   0  0  0  0  0  0  0  0  0  0  0  0
   -4.7597    0.2036   -0.2231 C   0  0  0  0  0  0  0  0  0  0  0  0
    4.7667    0.2779   -0.2261 C   0  0  0  0  0  0  0  0  0  0  0  0
  1 10  1  0
  1 17  1  0
  2 11  1  0
  2 18  1  0
  3 10  2  0
  4 11  2  0
  5  9  1  0
  6  7  1  0
  6  8  1  0
  6 10  1  0
  6 11  1  0
  7  9  1  0
  8 12  2  0
  8 13  1  0
 12 14  1  0
 13 15  2  0
 14 16  2  0
 15 16  1  0
 17 19  1  0
 18 20  1  0
M  END
>  <PUBCHEM_COMPOUND_CID>  (1) 
49868

>  <PUBCHEM_CONFORMER_RMSD>  (1) 
0.8

>  <PUBCHEM_CONFORMER_DIVERSEORDER>  (1) 
1
66
37
51
56
36
49
50
31
10
65
48
39
17
20
53
27
42
29
21
26
62
64
23
22
54
13
47
63
34
24
55
46
38
8
25
15
44
4
35
30
45
11
16
28
59
12
57
40
43
61
6
33
14
58
3
32
9
18
60
19
41
5
2
52
7

>  <PUBCHEM_MMFF94_PARTIAL_CHARGES>  (1) 
24
1 -0.43
10 0.66
11 0.66
12 -0.15
13 -0.15
14 -0.15
15 -0.15
16 -0.15
17 0.28
18 0.28
2 -0.43
25 0.15
26 0.15
27 0.15
28 0.15
29 0.36
3 -0.57
30 0.36
31 0.15
4 -0.57
5 -0.99
6 0.27
8 -0.14
9 0.27

>  <PUBCHEM_EFFECTIVE_ROTOR_COUNT>  (1) 
9

>  <PUBCHEM_PHARMACOPHORE_FEATURES>  (1) 
5
1 3 acceptor
1 4 acceptor
1 5 cation
1 5 donor
6 8 12 13 14 15 16 rings

>  <PUBCHEM_HEAVY_ATOM_COUNT>  (1) 
20

>  <PUBCHEM_ATOM_DEF_STEREO_COUNT>  (1) 
0

>  <PUBCHEM_ATOM_UDEF_STEREO_COUNT>  (1) 
0

>  <PUBCHEM_BOND_DEF_STEREO_COUNT>  (1) 
0

>  <PUBCHEM_BOND_UDEF_STEREO_COUNT>  (1) 
0

>  <PUBCHEM_ISOTOPIC_ATOM_COUNT>  (1) 
0

>  <PUBCHEM_COMPONENT_COUNT>  (1) 
1

>  <PUBCHEM_CACTVS_TAUTO_COUNT>  (1) 
1

>  <PUBCHEM_CONFORMER_ID>  (1) 
0000C2CC00000001

>  <PUBCHEM_MMFF94_ENERGY>  (1) 
42.1481

>  <PUBCHEM_FEATURE_SELFOVERLAP>  (1) 
25.38

>  <PUBCHEM_SHAPE_FINGERPRINT>  (1) 
10756046 70 18043536220458709637
10906281 52 17823436923946820349
11322862 65 18272366512223624542
11578080 2 17471034487673697244
12969540 114 18115005498571958612
13083527 12 18046892789235702483
14178342 30 18267608874107767145
14943834 7 17614006612889346149
16945 1 17775286062248259985
19930381 70 17127069910455384566
20344682 1 18334857190704925513
21421861 104 17913224065788497123
23419403 2 17622215300620526034
2748010 2 18194430885599471723
3060560 45 18409439302358468981
3250762 1 17613430047889576989
5845 1 12706321872729167850
6138700 20 18056771918955751846
68419 9 17542508687613388037
7364860 26 17986395486401187635
81228 2 17906141277811802058
81539 233 18339359660950913519
9999458 23 18060131068279797265

>  <PUBCHEM_SHAPE_MULTIPOLES>  (1) 
383.13
5.22
4.1
1.73
0.02
2.98
0.32
-2.52
-1.03
0.01
1.96
-0.01
-0.74
0.05

>  <PUBCHEM_SHAPE_SELFOVERLAP>  (1) 
780.231

>  <PUBCHEM_SHAPE_VOLUME>  (1) 
221.9

>  <PUBCHEM_COORDINATE_TYPE>  (1) 
2
5
10

$$$$
