4986
     RDKit          3D

 27 29  0  0  1  0  0  0  0  0999 V2000
   -5.0006   -0.0744   -1.4138 Cl  0  0  0  0  0  0  0  0  0  0  0  0
    0.3320    2.4454   -0.1125 N   0  0  0  0  0  0  0  0  0  0  0  0
    3.8314   -0.7663   -0.0249 N   0  0  0  0  0  0  0  0  0  0  0  0
    2.1903    1.0238   -0.0742 N   0  0  0  0  0  0  0  0  0  0  0  0
   -0.0849    0.1410   -0.0578 N   0  0  0  0  0  0  0  0  0  0  0  0
    2.4708   -2.5318    0.0151 N   0  0  0  0  0  0  0  0  0  0  0  0
   -0.5525   -2.2053    0.0008 N   0  0  0  0  0  0  0  0  0  0  0  0
   -1.0855    2.7534   -0.1254 C   0  0  0  0  0  0  0  0  0  0  0  0
   -1.6829    2.6007    1.2958 C   0  0  0  0  0  0  0  0  0  0  0  0
   -1.3032    4.1588   -0.7102 C   0  0  0  0  0  0  0  0  0  0  0  0
   -1.0802    3.5569    2.3300 C   0  0  0  0  0  0  0  0  0  0  0  0
   -3.2088    2.7508    1.2782 C   0  0  0  0  0  0  0  0  0  0  0  0
    0.8319    1.1574   -0.0810 C   0  0  0  0  0  0  0  0  0  0  0  0
    5.0599   -0.0095   -0.0416 C   0  0  0  0  0  0  0  0  0  0  0  0
   -0.7295    4.3012   -2.1154 C   0  0  0  0  0  0  0  0  0  0  0  0
    2.5610   -0.2650   -0.0408 C   0  0  0  0  0  0  0  0  0  0  0  0
    1.7324   -1.3754   -0.0151 C   0  0  0  0  0  0  0  0  0  0  0  0
    0.3617   -1.1377   -0.0242 C   0  0  0  0  0  0  0  0  0  0  0  0
    3.7252   -2.1315    0.0080 C   0  0  0  0  0  0  0  0  0  0  0  0
    5.8852   -0.2857   -1.2998 C   0  0  0  0  0  0  0  0  0  0  0  0
    5.8820   -0.2245    1.2304 C   0  0  0  0  0  0  0  0  0  0  0  0
   -1.9630   -2.2596   -0.0019 C   0  0  0  0  0  0  0  0  0  0  0  0
   -2.6981   -1.2566   -0.6325 C   0  0  0  0  0  0  0  0  0  0  0  0
   -2.6196   -3.3167    0.6271 C   0  0  0  0  0  0  0  0  0  0  0  0
   -4.0918   -1.3106   -0.6343 C   0  0  0  0  0  0  0  0  0  0  0  0
   -4.0134   -3.3708    0.6254 C   0  0  0  0  0  0  0  0  0  0  0  0
   -4.7494   -2.3678   -0.0053 C   0  0  0  0  0  0  0  0  0  0  0  0
  1 25  1  0
  2  8  1  0
  2 13  1  0
  3 14  1  0
  3 16  1  0
  3 19  1  0
  4 13  1  0
  4 16  2  0
  5 13  2  0
  5 18  1  0
  6 17  1  0
  6 19  2  0
  7 18  1  0
  7 22  1  0
  8  9  1  0
  8 10  1  0
  9 11  1  0
  9 12  1  0
 10 15  1  0
 14 20  1  0
 14 21  1  0
 16 17  1  0
 17 18  2  0
 22 23  2  0
 22 24  1  0
 23 25  1  0
 24 26  2  0
 25 27  2  0
 26 27  1  0
M  END
>  <PUBCHEM_COMPOUND_CID>  (1) 
4986

>  <PUBCHEM_CONFORMER_RMSD>  (1) 
0.8

>  <PUBCHEM_CONFORMER_DIVERSEORDER>  (1) 
1
112
401
391
452
162
408
400
415
348
448
373
77
450
249
318
481
278
160
365
296
180
187
128
204
461
478
263
467
423
37
333
451
186
424
374
173
242
175
464
395
198
360
473
323
347
17
319
277
355
427
178
313
236
143
251
258
47
295
14
229
188
280
484
362
445
272
368
441
399
375
4
459
50
490
487
357
388
54
264
393
142
127
262
363
371
266
193
147
256
337
212
91
350
241
83
304
82
325
283
215
194
429
206
210
244
163
332
252
453
406
298
344
203
466
288
39
431
462
228
372
28
179
449
231
208
104
291
383
320
137
358
284
150
190
432
458
349
421
88
7
443
62
109
412
93
370
107
446
67
171
465
232
407
299
315
11
384
165
86
382
233
314
483
457
268
397
246
247
281
209
389
43
189
352
131
321
95
440
392
309
12
285
211
108
410
346
57
133
259
38
192
482
73
491
472
328
381
98
317
486
191
36
470
402
70
422
172
115
310
166
301
428
282
181
22
302
469
25
390
274
353
15
489
359
79
376
167
474
338
404
110
53
55
96
485
419
219
105
153
141
341
293
42
132
222
32
220
19
488
312
336
114
300
237
99
235
40
308
351
30
120
417
66
123
418
426
444
168
369
33
101
130
227
455
476
201
106
29
265
224
271
366
460
174
113
430
255
273
195
72
155
261
343
61
316
216
20
199
413
386
279
275
177
267
18
436
385
44
331
329
364
379
118
287
240
161
276
475
250
126
435
152
129
226
121
27
420
23
292
286
80
89
214
433
200
41
31
425
396
297
146
454
154
257
221
75
239
148
46
354
140
26
394
305
253
63
223
294
238
65
135
169
35
218
480
85
447
90
356
5
324
361
217
164
442
468
330
117
380
145
225
269
260
434
414
159
416
437
122
134
151
456
34
21
405
339
176
245
438
170
387
367
124
196
471
158
13
157
182
322
59
84
479
81
377
111
270
119
230
184
24
234
139
58
340
205
378
125
45
477
52
303
51
144
16
138
439
100
326
335
60
8
74
2
213
327
149
398
307
103
68
248
345
197
6
334
306
290
243
289
207
409
463
87
49
92
76
136
102
3
342
69
202
254
97
156
116
311
185
403
78
9
10
56
48
94
71
183
64
411

>  <PUBCHEM_MMFF94_PARTIAL_CHARGES>  (1) 
27
1 -0.18
13 0.72
14 0.26
16 0.11
17 0.23
18 0.41
19 0.04
2 -0.87
22 0.1
23 -0.15
24 -0.15
25 0.18
26 -0.15
27 -0.15
3 0.05
32 0.4
4 -0.57
43 0.15
5 -0.62
50 0.4
51 0.15
52 0.15
53 0.15
54 0.15
6 -0.57
7 -0.6
8 0.37

>  <PUBCHEM_EFFECTIVE_ROTOR_COUNT>  (1) 
7

>  <PUBCHEM_PHARMACOPHORE_FEATURES>  (1) 
11
1 15 hydrophobe
1 2 donor
1 7 cation
1 7 donor
3 14 20 21 hydrophobe
3 3 6 19 cation
3 9 11 12 hydrophobe
4 2 4 5 13 cation
5 3 6 16 17 19 rings
6 22 23 24 25 26 27 rings
6 4 5 13 16 17 18 rings

>  <PUBCHEM_HEAVY_ATOM_COUNT>  (1) 
27

>  <PUBCHEM_ATOM_DEF_STEREO_COUNT>  (1) 
0

>  <PUBCHEM_ATOM_UDEF_STEREO_COUNT>  (1) 
1

>  <PUBCHEM_BOND_DEF_STEREO_COUNT>  (1) 
0

>  <PUBCHEM_BOND_UDEF_STEREO_COUNT>  (1) 
0

>  <PUBCHEM_ISOTOPIC_ATOM_COUNT>  (1) 
0

>  <PUBCHEM_COMPONENT_COUNT>  (1) 
1

>  <PUBCHEM_CACTVS_TAUTO_COUNT>  (1) 
9

>  <PUBCHEM_CONFORMER_ID>  (1) 
0000137A00000001

>  <PUBCHEM_MMFF94_ENERGY>  (1) 
63.375

>  <PUBCHEM_FEATURE_SELFOVERLAP>  (1) 
55.952

>  <PUBCHEM_SHAPE_FINGERPRINT>  (1) 
10050765 1 18265332812478084990
10190206 1 17974600136650323684
10670039 82 18338530677219294182
1100329 8 18341901766716582689
11582403 64 15869684849348449781
11646440 116 18340491178643721155
12160290 23 18126258892623218686
12788726 201 18340477877045368859
12954195 1 18200327528505746246
138480 1 15599761178711295749
140371 6 18336835268200508038
14251757 5 18335416838060332231
14866123 147 17761771763053283251
14931854 50 18267287773926294797
16087824 20 18337111169064139925
17138139 8 17479689925286760845
17980427 23 17417546820679632251
20600515 1 18340497720247859637
21033648 29 17703216421023058227
21041028 32 18269279126348357571
21049683 271 17899706944097412151
21120745 212 18269858512999800116
21236236 1 18343302522738592538
21641784 216 18262534662110348612
221357 26 18336819914209669079
23557571 272 18201166477157260574
23558518 356 18116719517378582418
23559900 14 17974558410868721847
25147074 1 18189338979502325282
283562 15 18410858767865267026
3886686 26 17615371820628240978
469060 322 18333736810073729504
46939830 39 17822290219154833701
59755656 520 17911530796275399264
6438718 38 17845368856583959959
9925002 15 18189641413091395820

>  <PUBCHEM_SHAPE_MULTIPOLES>  (1) 
527.63
10.62
5.68
1.41
10.64
5.05
0.14
-7.79
-1.05
-6.3
0.3
-0.53
1.75
-0.23

>  <PUBCHEM_SHAPE_SELFOVERLAP>  (1) 
1101.897

>  <PUBCHEM_SHAPE_VOLUME>  (1) 
300.6

>  <PUBCHEM_COORDINATE_TYPE>  (1) 
2
5
10

$$$$
