49864
     RDKit          3D

 22 22  0  0  0  0  0  0  0  0999 V2000
    0.9599    2.3818    0.0937 O   0  0  0  0  0  0  0  0  0  0  0  0
    0.9229   -2.4048    0.0936 O   0  0  0  0  0  0  0  0  0  0  0  0
    2.1157    1.3072    1.7659 O   0  0  0  0  0  0  0  0  0  0  0  0
    2.0944   -1.3481    1.7663 O   0  0  0  0  0  0  0  0  0  0  0  0
   -4.7619    0.0403    0.0845 O   0  0  0  0  0  0  0  0  0  0  0  0
    3.6033    0.0122   -2.7534 N   0  0  0  0  0  0  0  0  0  0  0  0
    0.9323   -0.0114    0.0550 C   0  0  0  0  0  0  0  0  0  0  0  0
    1.5723   -0.0186   -1.3732 C   0  0  0  0  0  0  0  0  0  0  0  0
   -0.6114    0.0024    0.0635 C   0  0  0  0  0  0  0  0  0  0  0  0
    3.1088    0.0124   -1.3795 C   0  0  0  0  0  0  0  0  0  0  0  0
    1.4184    1.2768    0.7598 C   0  0  0  0  0  0  0  0  0  0  0  0
    1.3971   -1.3069    0.7605 C   0  0  0  0  0  0  0  0  0  0  0  0
   -1.3152   -0.0186   -1.1407 C   0  0  0  0  0  0  0  0  0  0  0  0
   -1.3026    0.0361    1.2747 C   0  0  0  0  0  0  0  0  0  0  0  0
   -2.7099   -0.0061   -1.1338 C   0  0  0  0  0  0  0  0  0  0  0  0
   -2.6973    0.0487    1.2817 C   0  0  0  0  0  0  0  0  0  0  0  0
   -3.4010    0.0276    0.0774 C   0  0  0  0  0  0  0  0  0  0  0  0
    1.3465    3.6438    0.6465 C   0  0  0  0  0  0  0  0  0  0  0  0
    1.2920   -3.6726    0.6449 C   0  0  0  0  0  0  0  0  0  0  0  0
    0.7620    4.7534   -0.2014 C   0  0  0  0  0  0  0  0  0  0  0  0
    0.6918   -4.7731   -0.2038 C   0  0  0  0  0  0  0  0  0  0  0  0
   -5.4181    0.0173   -1.1823 C   0  0  0  0  0  0  0  0  0  0  0  0
  1 11  1  0
  1 18  1  0
  2 12  1  0
  2 19  1  0
  3 11  2  0
  4 12  2  0
  5 17  1  0
  5 22  1  0
  6 10  1  0
  7  8  1  0
  7  9  1  0
  7 11  1  0
  7 12  1  0
  8 10  1  0
  9 13  2  0
  9 14  1  0
 13 15  1  0
 14 16  2  0
 15 17  2  0
 16 17  1  0
 18 20  1  0
 19 21  1  0
M  END
>  <PUBCHEM_COMPOUND_CID>  (1) 
49864

>  <PUBCHEM_CONFORMER_RMSD>  (1) 
1

>  <PUBCHEM_CONFORMER_DIVERSEORDER>  (1) 
1
12
9
10
13
4
6
8
11
2
16
7
3
14
17
15
18
19
5

>  <PUBCHEM_MMFF94_PARTIAL_CHARGES>  (1) 
25
1 -0.43
10 0.27
11 0.66
12 0.66
13 -0.15
14 -0.15
15 -0.15
16 -0.15
17 0.08
18 0.28
19 0.28
2 -0.43
22 0.28
27 0.15
28 0.15
29 0.15
3 -0.57
30 0.15
31 0.36
32 0.36
4 -0.57
5 -0.36
6 -0.99
7 0.27
9 -0.14

>  <PUBCHEM_EFFECTIVE_ROTOR_COUNT>  (1) 
10

>  <PUBCHEM_PHARMACOPHORE_FEATURES>  (1) 
6
1 3 acceptor
1 4 acceptor
1 5 acceptor
1 6 cation
1 6 donor
6 9 13 14 15 16 17 rings

>  <PUBCHEM_HEAVY_ATOM_COUNT>  (1) 
22

>  <PUBCHEM_ATOM_DEF_STEREO_COUNT>  (1) 
0

>  <PUBCHEM_ATOM_UDEF_STEREO_COUNT>  (1) 
0

>  <PUBCHEM_BOND_DEF_STEREO_COUNT>  (1) 
0

>  <PUBCHEM_BOND_UDEF_STEREO_COUNT>  (1) 
0

>  <PUBCHEM_ISOTOPIC_ATOM_COUNT>  (1) 
0

>  <PUBCHEM_COMPONENT_COUNT>  (1) 
1

>  <PUBCHEM_CACTVS_TAUTO_COUNT>  (1) 
1

>  <PUBCHEM_CONFORMER_ID>  (1) 
0000C2C800000001

>  <PUBCHEM_MMFF94_ENERGY>  (1) 
53.2691

>  <PUBCHEM_FEATURE_SELFOVERLAP>  (1) 
30.454

>  <PUBCHEM_SHAPE_FINGERPRINT>  (1) 
10366900 7 18186806898417133157
11578080 2 16406410454030254889
13134695 92 18044347509752718609
13149001 5 17980791494714383204
13533116 47 18338234852878484643
13911987 19 18190486959476860430
14863182 85 18339071580294097770
15490181 7 17901392508497773914
15490181 8 17839174465518101176
16945 1 18410855460529056185
18186145 218 18343301483688803301
19765921 60 17841419634129122073
20645477 70 18040998385120173363
21452121 199 17974563602766901002
2255824 54 18340763827546429865
23419403 2 17174008143258953154
23558518 356 17765699613802778798
23559900 14 17132115728275887279
239999 70 18201158870875908359
298252 57 16879374378969881236
3060560 45 18411695512845046014
3250762 1 17620499216704122468
474 4 18195797686370072017
495365 180 18262788683703562129
6443956 14 17976527326618735131
81228 2 17034713042097110706

>  <PUBCHEM_SHAPE_MULTIPOLES>  (1) 
418.42
6.22
4.83
1.74
10.08
0.17
-0.56
-0.18
-2.73
-4.47
0.84
-1.17
0
-0.01

>  <PUBCHEM_SHAPE_SELFOVERLAP>  (1) 
849.587

>  <PUBCHEM_SHAPE_VOLUME>  (1) 
243.6

>  <PUBCHEM_COORDINATE_TYPE>  (1) 
2
5
10

$$$$
