49875
     RDKit          3D

 22 23  0  0  1  0  0  0  0  0999 V2000
    0.0048   -0.5569   -0.6455 O   0  0  0  0  0  0  0  0  0  0  0  0
   -1.7824    2.0903   -2.1656 O   0  0  0  0  0  0  0  0  0  0  0  0
    0.7443    1.0243   -2.1529 O   0  0  0  0  0  0  0  0  0  0  0  0
    0.6979   -3.2491    0.1171 N   0  0  0  0  0  0  0  0  0  0  0  0
    1.3548   -0.9191   -0.3583 C   0  0  0  0  0  0  0  0  0  0  0  0
    1.3918   -2.0761    0.6477 C   0  0  0  0  0  0  0  0  0  0  0  0
    2.0689    0.3030    0.1762 C   0  0  0  0  0  0  0  0  0  0  0  0
   -1.6333    0.7396   -1.7525 C   0  0  0  0  0  0  0  0  0  0  0  0
    1.3541    1.2397    0.9029 C   0  0  0  0  0  0  0  0  0  0  0  0
    3.4218    0.4583   -0.0725 C   0  0  0  0  0  0  0  0  0  0  0  0
   -0.1587    0.4379   -1.5697 C   0  0  0  0  0  0  0  0  0  0  0  0
    0.7627   -4.3560    1.0708 C   0  0  0  0  0  0  0  0  0  0  0  0
    1.2738   -3.6463   -1.1671 C   0  0  0  0  0  0  0  0  0  0  0  0
   -2.4315    0.5293   -0.4893 C   0  0  0  0  0  0  0  0  0  0  0  0
    2.0123    2.3663    1.3959 C   0  0  0  0  0  0  0  0  0  0  0  0
    4.0800    1.5849    0.4206 C   0  0  0  0  0  0  0  0  0  0  0  0
    3.3752    2.5389    1.1548 C   0  0  0  0  0  0  0  0  0  0  0  0
   -2.9869   -0.7151   -0.2352 C   0  0  0  0  0  0  0  0  0  0  0  0
   -2.5950    1.5841    0.3954 C   0  0  0  0  0  0  0  0  0  0  0  0
   -3.7246   -0.9098    0.9325 C   0  0  0  0  0  0  0  0  0  0  0  0
   -3.3327    1.3893    1.5631 C   0  0  0  0  0  0  0  0  0  0  0  0
   -3.8974    0.1424    1.8317 C   0  0  0  0  0  0  0  0  0  0  0  0
  1  5  1  0
  1 11  1  0
  2  8  1  0
  3 11  2  0
  4  6  1  0
  4 12  1  0
  4 13  1  0
  5  6  1  0
  5  7  1  0
  7  9  2  0
  7 10  1  0
  8 11  1  0
  8 14  1  0
  9 15  1  0
 10 16  2  0
 14 18  2  0
 14 19  1  0
 15 17  2  0
 16 17  1  0
 18 20  1  0
 19 21  2  0
 20 22  2  0
 21 22  1  0
M  END
>  <PUBCHEM_COMPOUND_CID>  (1) 
49875

>  <PUBCHEM_CONFORMER_RMSD>  (1) 
0.8

>  <PUBCHEM_CONFORMER_DIVERSEORDER>  (1) 
38
78
70
30
75
10
166
71
118
189
172
105
183
18
34
83
164
64
110
76
180
100
130
23
153
96
29
56
179
186
95
80
191
163
190
28
57
12
109
1
49
31
87
182
146
114
63
194
22
158
115
55
138
42
3
66
58
181
133
107
144
19
169
137
141
116
60
44
39
123
129
4
89
88
82
126
187
108
120
97
48
159
124
51
45
84
155
20
188
113
90
69
175
160
119
21
35
8
50
135
46
184
14
26
128
127
9
7
142
13
81
67
156
103
177
73
148
92
62
16
27
178
25
157
174
102
132
143
104
161
111
77
98
53
85
154
131
65
32
24
168
106
150
171
43
185
52
145
122
68
41
125
59
176
93
37
121
40
79
193
17
170
99
5
152
47
149
15
86
167
11
61
162
72
74
6
54
94
36
140
134
2
151
139
117
147
112
165
101
192
91
173
33
136

>  <PUBCHEM_MMFF94_PARTIAL_CHARGES>  (1) 
33
1 -0.43
10 -0.15
11 0.66
12 0.27
13 0.27
14 -0.14
15 -0.15
16 -0.15
17 -0.15
18 -0.15
19 -0.15
2 -0.68
20 -0.15
21 -0.15
22 -0.15
27 0.15
28 0.15
3 -0.57
35 0.15
36 0.15
37 0.15
38 0.15
39 0.15
4 -0.81
40 0.4
41 0.15
42 0.15
43 0.15
5 0.42
6 0.27
7 -0.14
8 0.48
9 -0.15

>  <PUBCHEM_EFFECTIVE_ROTOR_COUNT>  (1) 
7

>  <PUBCHEM_PHARMACOPHORE_FEATURES>  (1) 
6
1 2 acceptor
1 2 donor
1 3 acceptor
1 4 cation
6 14 18 19 20 21 22 rings
6 7 9 10 15 16 17 rings

>  <PUBCHEM_HEAVY_ATOM_COUNT>  (1) 
22

>  <PUBCHEM_ATOM_DEF_STEREO_COUNT>  (1) 
0

>  <PUBCHEM_ATOM_UDEF_STEREO_COUNT>  (1) 
2

>  <PUBCHEM_BOND_DEF_STEREO_COUNT>  (1) 
0

>  <PUBCHEM_BOND_UDEF_STEREO_COUNT>  (1) 
0

>  <PUBCHEM_ISOTOPIC_ATOM_COUNT>  (1) 
0

>  <PUBCHEM_COMPONENT_COUNT>  (1) 
1

>  <PUBCHEM_CACTVS_TAUTO_COUNT>  (1) 
1

>  <PUBCHEM_CONFORMER_ID>  (1) 
0000C2D300000026

>  <PUBCHEM_MMFF94_ENERGY>  (1) 
60.8342

>  <PUBCHEM_FEATURE_SELFOVERLAP>  (1) 
30.451

>  <PUBCHEM_SHAPE_FINGERPRINT>  (1) 
10064457 181 18267033919193193584
10165383 225 18337121158625119012
10366900 7 18409453561734294225
10906281 52 17385995153452222685
11370993 70 18411701032078416963
11578080 2 18044668494324249573
12160290 23 17763998652530612562
12553582 1 17477200535796987310
12633257 1 18265893566768918563
13032168 30 17982999344028047279
13533116 47 18267311937486024603
13583140 156 18270970042515353849
13681431 1 17837468779560162350
14022347 108 16155407330051124469
14178342 30 18263099854242471747
14223421 5 18335421206084217981
14713325 29 17478323593105373976
14787075 74 17625244695962620775
15209289 33 18343022228788224024
15309172 13 18337100271813971692
17974551 9 17613752248331809969
18219364 16 18339062869957671812
19734167 9 18048344367901444411
20101258 96 17047674081398406970
201361 129 18272656709893603152
20600515 1 16097923083802139954
21202864 24 18046907353632949976
21524375 3 18339912827190517038
21731228 192 18339642364182730466
21756936 100 17844244245310283176
23559900 14 17896315822820368557
238 59 17977345465884552255
2748010 2 17678735631579539047
35225 105 17758643996016046379
3797600 57 17346604127079169075
392239 28 17984430899714497587
458136 41 18336839623444798798
469060 322 16954755873562006290
484985 159 16172300020473740523
6287921 2 18263663855803257023
633830 44 18060423529708984852
6442390 28 18339370789248061858
7097593 13 18126573306036471091
7288768 16 17769919492091130592
81228 2 17615107220182136322
9981440 41 17831250087427145588

>  <PUBCHEM_SHAPE_MULTIPOLES>  (1) 
430.16
6.5
4.08
1.88
1.79
5.79
-0.69
-4.04
2.96
-2.85
1.05
1.01
-0.66
0.81

>  <PUBCHEM_SHAPE_SELFOVERLAP>  (1) 
907.581

>  <PUBCHEM_SHAPE_VOLUME>  (1) 
240.6

>  <PUBCHEM_COORDINATE_TYPE>  (1) 
2
5
10

$$$$
