49872
     RDKit          3D

 21 21  0  0  1  0  0  0  0  0999 V2000
   -0.0031    2.2685    0.3217 O   0  0  0  0  0  0  0  0  0  0  0  0
    2.3210   -0.8122    0.5109 O   0  0  0  0  0  0  0  0  0  0  0  0
    0.8830    0.9437    1.9795 O   0  0  0  0  0  0  0  0  0  0  0  0
    0.8075   -2.4502   -0.0363 O   0  0  0  0  0  0  0  0  0  0  0  0
    0.0855   -0.0641   -4.0572 N   0  0  0  0  0  0  0  0  0  0  0  0
    0.1090   -0.0920   -0.1245 C   0  0  0  0  0  0  0  0  0  0  0  0
    0.3539    0.4340   -1.6066 C   0  0  0  0  0  0  0  0  0  0  0  0
   -1.3401   -0.5296    0.2071 C   0  0  0  0  0  0  0  0  0  0  0  0
    0.0135   -0.6120   -2.7034 C   0  0  0  0  0  0  0  0  0  0  0  0
    1.7986    0.9427   -1.8164 C   0  0  0  0  0  0  0  0  0  0  0  0
    0.3996    1.0771    0.8618 C   0  0  0  0  0  0  0  0  0  0  0  0
    1.0994   -1.2672    0.0978 C   0  0  0  0  0  0  0  0  0  0  0  0
   -2.3616    0.0790   -0.4668 C   0  0  0  0  0  0  0  0  0  0  0  0
   -1.5144   -1.4995    1.1541 C   0  0  0  0  0  0  0  0  0  0  0  0
   -3.6660   -0.3149   -0.1687 C   0  0  0  0  0  0  0  0  0  0  0  0
   -2.8189   -1.8935    1.4521 C   0  0  0  0  0  0  0  0  0  0  0  0
   -3.8947   -1.3011    0.7906 C   0  0  0  0  0  0  0  0  0  0  0  0
    0.1702    3.4179    1.1561 C   0  0  0  0  0  0  0  0  0  0  0  0
    3.2970   -1.8194    0.7960 C   0  0  0  0  0  0  0  0  0  0  0  0
   -0.3209    4.6434    0.4155 C   0  0  0  0  0  0  0  0  0  0  0  0
    4.5815   -1.1506    1.2367 C   0  0  0  0  0  0  0  0  0  0  0  0
  1 11  1  0
  1 18  1  0
  2 12  1  0
  2 19  1  0
  3 11  2  0
  4 12  2  0
  5  9  1  0
  6  7  1  0
  6  8  1  0
  6 11  1  0
  6 12  1  0
  7  9  1  0
  7 10  1  0
  8 13  2  0
  8 14  1  0
 13 15  1  0
 14 16  2  0
 15 17  2  0
 16 17  1  0
 18 20  1  0
 19 21  1  0
M  END
>  <PUBCHEM_COMPOUND_CID>  (1) 
49872

>  <PUBCHEM_CONFORMER_RMSD>  (1) 
0.8

>  <PUBCHEM_CONFORMER_DIVERSEORDER>  (1) 
1
58
2
29
93
20
23
98
70
41
92
71
49
104
78
60
100
87
47
3
102
53
45
84
11
7
66
5
13
32
21
95
85
88
82
54
72
40
81
99
12
10
97
62
64
50
77
42
103
79
57
67
6
34
31
65
19
63
80
51
91
22
36
73
26
96
15
43
86
39
76
74
30
4
89
28
55
48
38
101
33
46
69
16
27
25
14
44
68
9
52
59
17
94
56
83
61
24
18
37
75
8
35
90

>  <PUBCHEM_MMFF94_PARTIAL_CHARGES>  (1) 
24
1 -0.43
11 0.66
12 0.66
13 -0.15
14 -0.15
15 -0.15
16 -0.15
17 -0.15
18 0.28
19 0.28
2 -0.43
28 0.15
29 0.15
3 -0.57
30 0.36
31 0.36
32 0.15
33 0.15
34 0.15
4 -0.57
5 -0.99
6 0.27
8 -0.14
9 0.27

>  <PUBCHEM_EFFECTIVE_ROTOR_COUNT>  (1) 
9

>  <PUBCHEM_PHARMACOPHORE_FEATURES>  (1) 
6
1 10 hydrophobe
1 3 acceptor
1 4 acceptor
1 5 cation
1 5 donor
6 8 13 14 15 16 17 rings

>  <PUBCHEM_HEAVY_ATOM_COUNT>  (1) 
21

>  <PUBCHEM_ATOM_DEF_STEREO_COUNT>  (1) 
0

>  <PUBCHEM_ATOM_UDEF_STEREO_COUNT>  (1) 
1

>  <PUBCHEM_BOND_DEF_STEREO_COUNT>  (1) 
0

>  <PUBCHEM_BOND_UDEF_STEREO_COUNT>  (1) 
0

>  <PUBCHEM_ISOTOPIC_ATOM_COUNT>  (1) 
0

>  <PUBCHEM_COMPONENT_COUNT>  (1) 
1

>  <PUBCHEM_CACTVS_TAUTO_COUNT>  (1) 
1

>  <PUBCHEM_CONFORMER_ID>  (1) 
0000C2D000000001

>  <PUBCHEM_MMFF94_ENERGY>  (1) 
54.7552

>  <PUBCHEM_FEATURE_SELFOVERLAP>  (1) 
30.446

>  <PUBCHEM_SHAPE_FINGERPRINT>  (1) 
11578080 2 17677870448845962996
12326174 3 17773617064017105255
12654903 92 17095243614096342815
13134695 92 18410565219439860539
14142880 1 17974555911070583296
14181834 199 17822310005710456254
14817 1 14187302694219461909
15238133 3 18267041487463873337
15490181 7 17617952764521864043
16945 1 17895481310574827327
17876694 64 17897464812345144260
17980427 26 17835517502491786708
20600515 1 18201451280232680403
21524375 3 17051057793756203297
23175994 123 18410570673826858651
23352939 185 17603591811676655694
23419403 2 17971161890110548212
23558518 356 17762618395622037090
23559900 14 18117267074322313034
266924 78 17476882085446221812
298252 57 15870578103539658823
3286 77 18336262457355648475
3493558 16 17966968326871815876
497634 4 18043252337055345814
5845 1 13461880029687231878
68419 9 17614048080882686260
7364860 26 18192151714169595369
81228 2 18050582745694019475
9981440 41 15074296355197570565
9999458 23 17759811733183442233

>  <PUBCHEM_SHAPE_MULTIPOLES>  (1) 
403.71
5.07
3.61
2.51
0.16
5.78
-3.34
-4.58
2.53
0.6
2.04
0.7
0.11
-0.06

>  <PUBCHEM_SHAPE_SELFOVERLAP>  (1) 
822.327

>  <PUBCHEM_SHAPE_VOLUME>  (1) 
232.5

>  <PUBCHEM_COORDINATE_TYPE>  (1) 
2
5
10

$$$$
