4987
     RDKit          3D

 27 29  0  0  1  0  0  0  0  0999 V2000
   -5.0018    0.0727    1.4193 Cl  0  0  0  0  0  0  0  0  0  0  0  0
   -0.7009   -4.1812    2.0494 O   0  0  0  0  0  0  0  0  0  0  0  0
    0.3342   -2.4455    0.1295 N   0  0  0  0  0  0  0  0  0  0  0  0
    3.8281    0.7714    0.0206 N   0  0  0  0  0  0  0  0  0  0  0  0
    2.1900   -1.0211    0.0815 N   0  0  0  0  0  0  0  0  0  0  0  0
   -0.0867   -0.1422    0.0614 N   0  0  0  0  0  0  0  0  0  0  0  0
    2.4644    2.5343   -0.0290 N   0  0  0  0  0  0  0  0  0  0  0  0
   -0.5583    2.2029   -0.0107 N   0  0  0  0  0  0  0  0  0  0  0  0
   -1.0843   -2.7551    0.1451 C   0  0  0  0  0  0  0  0  0  0  0  0
   -1.6859   -2.6310   -1.2744 C   0  0  0  0  0  0  0  0  0  0  0  0
   -1.2860   -4.1462    0.7514 C   0  0  0  0  0  0  0  0  0  0  0  0
   -1.0467   -3.6339   -2.2415 C   0  0  0  0  0  0  0  0  0  0  0  0
   -3.2110   -2.7693   -1.3151 C   0  0  0  0  0  0  0  0  0  0  0  0
    5.0578    0.0168    0.0409 C   0  0  0  0  0  0  0  0  0  0  0  0
    2.5586    0.2681    0.0402 C   0  0  0  0  0  0  0  0  0  0  0  0
    0.8316   -1.1576    0.0900 C   0  0  0  0  0  0  0  0  0  0  0  0
    1.7281    1.3770    0.0085 C   0  0  0  0  0  0  0  0  0  0  0  0
    0.3578    1.1370    0.0200 C   0  0  0  0  0  0  0  0  0  0  0  0
    3.7195    2.1363   -0.0204 C   0  0  0  0  0  0  0  0  0  0  0  0
    5.8836    0.3019    1.2969 C   0  0  0  0  0  0  0  0  0  0  0  0
    5.8788    0.2257   -1.2330 C   0  0  0  0  0  0  0  0  0  0  0  0
   -1.9689    2.2548   -0.0074 C   0  0  0  0  0  0  0  0  0  0  0  0
   -2.7018    1.2543    0.6297 C   0  0  0  0  0  0  0  0  0  0  0  0
   -2.6276    3.3070   -0.6422 C   0  0  0  0  0  0  0  0  0  0  0  0
   -4.0956    1.3060    0.6320 C   0  0  0  0  0  0  0  0  0  0  0  0
   -4.0216    3.3588   -0.6399 C   0  0  0  0  0  0  0  0  0  0  0  0
   -4.7555    2.3583   -0.0028 C   0  0  0  0  0  0  0  0  0  0  0  0
  1 25  1  0
  2 11  1  0
  3  9  1  0
  3 16  1  0
  4 14  1  0
  4 15  1  0
  4 19  1  0
  5 15  2  0
  5 16  1  0
  6 16  2  0
  6 18  1  0
  7 17  1  0
  7 19  2  0
  8 18  1  0
  8 22  1  0
  9 10  1  0
  9 11  1  0
 10 12  1  0
 10 13  1  0
 14 20  1  0
 14 21  1  0
 15 17  1  0
 17 18  2  0
 22 23  2  0
 22 24  1  0
 23 25  1  0
 24 26  2  0
 25 27  2  0
 26 27  1  0
M  END
>  <PUBCHEM_COMPOUND_CID>  (1) 
4987

>  <PUBCHEM_CONFORMER_RMSD>  (1) 
1

>  <PUBCHEM_CONFORMER_DIVERSEORDER>  (1) 
1
14
100
132
70
107
95
18
50
60
11
68
62
109
69
125
98
120
93
87
91
110
90
39
131
115
89
86
127
103
111
7
57
94
105
30
78
80
16
75
108
82
129
92
67
128
29
41
123
61
22
40
102
46
56
106
96
76
20
44
71
58
121
43
104
77
19
74
45
116
101
13
84
21
9
5
83
59
15
113
38
55
97
24
135
35
54
51
34
52
134
12
32
119
53
124
47
25
31
26
133
17
36
37
118
10
49
81
2
8
72
65
122
130
126
27
114
28
73
64
63
4
117
88
85
48
79
33
42
3
66
6
99
23
112

>  <PUBCHEM_MMFF94_PARTIAL_CHARGES>  (1) 
30
1 -0.18
11 0.28
14 0.26
15 0.11
16 0.72
17 0.23
18 0.41
19 0.04
2 -0.68
22 0.1
23 -0.15
24 -0.15
25 0.18
26 -0.15
27 -0.15
3 -0.87
30 0.4
4 0.05
40 0.15
47 0.4
48 0.4
49 0.15
5 -0.57
50 0.15
51 0.15
52 0.15
6 -0.62
7 -0.57
8 -0.6
9 0.37

>  <PUBCHEM_EFFECTIVE_ROTOR_COUNT>  (1) 
7

>  <PUBCHEM_PHARMACOPHORE_FEATURES>  (1) 
12
1 2 acceptor
1 2 donor
1 3 donor
1 8 cation
1 8 donor
3 10 12 13 hydrophobe
3 14 20 21 hydrophobe
3 4 7 19 cation
4 3 5 6 16 cation
5 4 7 15 17 19 rings
6 22 23 24 25 26 27 rings
6 5 6 15 16 17 18 rings

>  <PUBCHEM_HEAVY_ATOM_COUNT>  (1) 
27

>  <PUBCHEM_ATOM_DEF_STEREO_COUNT>  (1) 
0

>  <PUBCHEM_ATOM_UDEF_STEREO_COUNT>  (1) 
1

>  <PUBCHEM_BOND_DEF_STEREO_COUNT>  (1) 
0

>  <PUBCHEM_BOND_UDEF_STEREO_COUNT>  (1) 
0

>  <PUBCHEM_ISOTOPIC_ATOM_COUNT>  (1) 
0

>  <PUBCHEM_COMPONENT_COUNT>  (1) 
1

>  <PUBCHEM_CACTVS_TAUTO_COUNT>  (1) 
9

>  <PUBCHEM_CONFORMER_ID>  (1) 
0000137B00000001

>  <PUBCHEM_MMFF94_ENERGY>  (1) 
66.2515

>  <PUBCHEM_FEATURE_SELFOVERLAP>  (1) 
61.03

>  <PUBCHEM_SHAPE_FINGERPRINT>  (1) 
10050765 1 18265615558765108744
1100329 8 18412261770140063376
11488393 25 17839197211565109375
12160290 23 18126029240695566816
12293681 4 18192427704436996339
12597179 24 17917434181552536734
12788726 201 18266726068622137315
13052359 8 18409728473863644776
13140716 1 18266740367153795880
13583140 156 17168409485431685961
138480 1 17328864292827928003
140371 6 17471570405076375640
14363568 33 17550690828430928831
14790565 3 18266181617594389932
14866123 147 18409441488613263754
15042514 8 18265060304479894011
15131766 46 15938120983360935828
15927050 60 18337389340699764778
17138139 8 17699527534416708381
18681886 176 18408321069148416480
19427546 20 18191318259309059228
19591789 44 18338239249764108461
20197701 30 18339640023451849888
20775438 99 15682747501887244415
21033648 29 18341319012221177440
21236236 1 18270959158672132036
21344244 181 17702675345305842534
21796203 349 16612550029511400931
23558518 356 18043251451922525592
23559900 14 17616242590370573617
25147074 1 18189330333738452660
3298306 158 18265621978532564223
338550 245 18334862697253471132
38695281 34 18267581304143358125
5171179 24 17628346383810348064
5486654 2 18341335500325897324
59025328 239 16909443964384151086
59755656 520 18337102376759384300
6438718 38 17987804158343700567
6669772 16 18057891247177386854
70251023 43 16757173780423342047
7164475 11 18124309669451556892
81228 2 17979902028430634417
9709674 26 17832990447705448457

>  <PUBCHEM_SHAPE_MULTIPOLES>  (1) 
521.76
10.73
5.52
1.34
10.36
4.99
0.09
-7.61
-1.04
-6.14
0.69
-0.48
1.47
-0.16

>  <PUBCHEM_SHAPE_SELFOVERLAP>  (1) 
1093.923

>  <PUBCHEM_SHAPE_VOLUME>  (1) 
296.1

>  <PUBCHEM_COORDINATE_TYPE>  (1) 
2
5
10

$$$$
