49886
     RDKit          3D

 15 16  0  0  0  0  0  0  0  0999 V2000
   -4.9416    1.0563    0.8090 O   0  0  0  0  0  0  0  0  0  0  0  0
    0.9164   -0.5298   -1.4963 C   0  0  0  0  0  0  0  0  0  0  0  0
   -0.4363   -0.3885   -0.8842 C   0  0  0  0  0  0  0  0  0  0  0  0
    2.0541   -0.1645   -0.5640 C   0  0  0  0  0  0  0  0  0  0  0  0
   -1.0147   -1.4672   -0.2154 C   0  0  0  0  0  0  0  0  0  0  0  0
   -1.1225    0.8221   -0.9796 C   0  0  0  0  0  0  0  0  0  0  0  0
    2.6135   -1.1467    0.2332 C   0  0  0  0  0  0  0  0  0  0  0  0
    2.5057    1.1423   -0.5322 C   0  0  0  0  0  0  0  0  0  0  0  0
   -2.2795   -1.3354    0.3581 C   0  0  0  0  0  0  0  0  0  0  0  0
   -2.3872    0.9539   -0.4061 C   0  0  0  0  0  0  0  0  0  0  0  0
   -2.9656   -0.1249    0.2628 C   0  0  0  0  0  0  0  0  0  0  0  0
    3.6603   -0.8105    1.0916 C   0  0  0  0  0  0  0  0  0  0  0  0
    3.5526    1.4785    0.3261 C   0  0  0  0  0  0  0  0  0  0  0  0
    4.1299    0.5020    1.1380 C   0  0  0  0  0  0  0  0  0  0  0  0
   -4.2851    0.0126    0.8589 C   0  0  0  0  0  0  0  0  0  0  0  0
  1 15  2  0
  2  3  1  0
  2  4  1  0
  3  5  2  0
  3  6  1  0
  4  7  2  0
  4  8  1  0
  5  9  1  0
  6 10  2  0
  7 12  1  0
  8 13  2  0
  9 11  2  0
 10 11  1  0
 11 15  1  0
 12 14  2  0
 13 14  1  0
M  END
>  <PUBCHEM_COMPOUND_CID>  (1) 
49886

>  <PUBCHEM_CONFORMER_RMSD>  (1) 
0.6

>  <PUBCHEM_CONFORMER_DIVERSEORDER>  (1) 
1
2
4
3
5

>  <PUBCHEM_MMFF94_PARTIAL_CHARGES>  (1) 
25
1 -0.57
10 -0.15
11 0.09
12 -0.15
13 -0.15
14 -0.15
15 0.42
18 0.15
19 0.15
2 0.29
20 0.15
21 0.15
22 0.15
23 0.15
24 0.15
25 0.15
26 0.15
27 0.06
3 -0.14
4 -0.14
5 -0.15
6 -0.15
7 -0.15
8 -0.15
9 -0.15

>  <PUBCHEM_EFFECTIVE_ROTOR_COUNT>  (1) 
3

>  <PUBCHEM_PHARMACOPHORE_FEATURES>  (1) 
3
1 1 acceptor
6 3 5 6 9 10 11 rings
6 4 7 8 12 13 14 rings

>  <PUBCHEM_HEAVY_ATOM_COUNT>  (1) 
15

>  <PUBCHEM_ATOM_DEF_STEREO_COUNT>  (1) 
0

>  <PUBCHEM_ATOM_UDEF_STEREO_COUNT>  (1) 
0

>  <PUBCHEM_BOND_DEF_STEREO_COUNT>  (1) 
0

>  <PUBCHEM_BOND_UDEF_STEREO_COUNT>  (1) 
0

>  <PUBCHEM_ISOTOPIC_ATOM_COUNT>  (1) 
0

>  <PUBCHEM_COMPONENT_COUNT>  (1) 
1

>  <PUBCHEM_CACTVS_TAUTO_COUNT>  (1) 
1

>  <PUBCHEM_CONFORMER_ID>  (1) 
0000C2DE00000001

>  <PUBCHEM_MMFF94_ENERGY>  (1) 
38.6836

>  <PUBCHEM_FEATURE_SELFOVERLAP>  (1) 
15.223

>  <PUBCHEM_SHAPE_FINGERPRINT>  (1) 
10498660 4 15052011281690190786
11132069 177 18412267233559399311
11543360 7 11455885867038799273
122479 349 18060701714492469591
12251169 10 18333447659942552814
12507560 40 18041272184488744236
12633257 1 18334004025821931416
12644460 14 16878809190959008924
12670546 177 11743832547926945553
12707595 3 13767925736750714062
13296908 3 14418123041658536142
13581323 91 17822010899829276070
13675066 3 17313104150942984927
13764800 53 17274546536924939670
14252887 29 16008746927048922244
14366163 111 13254801213783739867
14445660 50 18337110167392092006
14576447 43 8358265856352179416
15239191 94 13479134609521098041
15375462 189 17458612394692556106
15775835 57 15841548574378857668
15885798 251 16153430541156182061
17804303 29 17969785185593996774
17846911 113 18202002122968556369
18186145 218 17917434185351507974
18915474 69 8430308035129950929
19050596 39 18261390096011587352
193927 3 14779557755241926833
19784866 240 13045932487181189432
19862831 5 12463573984454887502
20361792 2 14562524089899267518
20374829 77 10881394365957198305
20645476 183 13973959900765222541
20645477 70 12396306962605553386
20671657 53 12901540243792278622
20767249 442 16630526241297510370
20871999 31 11671481410175777773
21065199 12 18186796967940938024
22646028 28 14706924042701337376
22854114 59 18273498965997021845
22926399 37 15123791790577340539
231179 274 15985104119868768370
23402539 116 18410001136094959109
23402655 69 12031794681885493098
23557571 272 17559969877218378591
23559900 14 18268731466230629934
3060560 45 12103844549377663944
3286 77 13190339097245988807
4028521 119 13973967605624977219
4072396 5 17894917291917912471
42 15 17676489436450014403
4280585 95 8787286518945924192
465052 167 13768223687522724409
4990 188 10231755561490499629
5374978 207 18260270741666786145
58807428 26 18187651275934145051
7097593 13 18260819402427609066
90316 7 17822294565698614245
94968 8 12468642728985578488
960060 61 8358252627467552201

>  <PUBCHEM_SHAPE_MULTIPOLES>  (1) 
302.82
8.71
1.46
1.21
2.8
0.03
-0.1
-1.91
4.56
-0.25
0.04
-0.26
0
-0.15

>  <PUBCHEM_SHAPE_SELFOVERLAP>  (1) 
651.452

>  <PUBCHEM_SHAPE_VOLUME>  (1) 
166.3

>  <PUBCHEM_COORDINATE_TYPE>  (1) 
2
5
10

$$$$
