49896
     RDKit          3D

 11 11  0  0  1  0  0  0  0  0999 V2000
    1.0132   -2.3009   -0.3412 Cl  0  0  0  0  0  0  0  0  0  0  0  0
    3.7196   -0.4965    0.4693 Cl  0  0  0  0  0  0  0  0  0  0  0  0
    0.2931    1.8728   -0.2655 S   0  0  0  0  0  0  0  0  0  0  0  0
   -3.8429   -0.1332   -0.3108 N   0  0  0  0  0  0  0  0  0  0  0  0
   -2.5166    0.2620    0.1730 C   0  0  0  0  0  0  0  0  0  0  0  0
   -1.4455   -0.1794   -0.8424 C   0  0  0  0  0  0  0  0  0  0  0  0
   -0.0479    0.2164   -0.4568 C   0  0  0  0  0  0  0  0  0  0  0  0
   -2.3071   -0.3543    1.5562 C   0  0  0  0  0  0  0  0  0  0  0  0
    1.0295   -0.5882   -0.2296 C   0  0  0  0  0  0  0  0  0  0  0  0
    2.1825    0.1744    0.1152 C   0  0  0  0  0  0  0  0  0  0  0  0
    1.9221    1.5269    0.1326 C   0  0  0  0  0  0  0  0  0  0  0  0
  1  9  1  0
  2 10  1  0
  3  7  1  0
  3 11  1  0
  4  5  1  0
  5  6  1  0
  5  8  1  0
  6  7  1  0
  7  9  2  0
  9 10  1  0
 10 11  2  0
M  END
>  <PUBCHEM_COMPOUND_CID>  (1) 
49896

>  <PUBCHEM_CONFORMER_RMSD>  (1) 
0.4

>  <PUBCHEM_CONFORMER_DIVERSEORDER>  (1) 
3
9
7
12
1
6
4
8
11
2
5
10

>  <PUBCHEM_MMFF94_PARTIAL_CHARGES>  (1) 
13
1 -0.12
10 0.12
11 -0.11
18 0.36
19 0.36
2 -0.12
20 0.15
3 -0.08
4 -0.99
5 0.27
6 0.18
7 -0.14
9 0.12

>  <PUBCHEM_EFFECTIVE_ROTOR_COUNT>  (1) 
2

>  <PUBCHEM_PHARMACOPHORE_FEATURES>  (1) 
3
1 4 cation
1 4 donor
5 3 7 9 10 11 rings

>  <PUBCHEM_HEAVY_ATOM_COUNT>  (1) 
11

>  <PUBCHEM_ATOM_DEF_STEREO_COUNT>  (1) 
0

>  <PUBCHEM_ATOM_UDEF_STEREO_COUNT>  (1) 
1

>  <PUBCHEM_BOND_DEF_STEREO_COUNT>  (1) 
0

>  <PUBCHEM_BOND_UDEF_STEREO_COUNT>  (1) 
0

>  <PUBCHEM_ISOTOPIC_ATOM_COUNT>  (1) 
0

>  <PUBCHEM_COMPONENT_COUNT>  (1) 
1

>  <PUBCHEM_CACTVS_TAUTO_COUNT>  (1) 
1

>  <PUBCHEM_CONFORMER_ID>  (1) 
0000C2E800000003

>  <PUBCHEM_MMFF94_ENERGY>  (1) 
3.712

>  <PUBCHEM_FEATURE_SELFOVERLAP>  (1) 
15.223

>  <PUBCHEM_SHAPE_FINGERPRINT>  (1) 
10219947 1 18410855468987173724
11471102 22 18408893931442290442
12032990 46 18338235964678752966
12423570 1 11389687518962930396
124424 183 17895186692908156337
14251717 144 18412538812699656767
14993402 34 18341335577993433332
15207287 21 18040427793971332003
15775835 57 17917150618915933193
161256 15 18056486049810285334
16945 1 18342747303420336036
18175812 5 17821729472044399646
193761 8 17691684489883331756
20201158 50 18187646877565438499
20871998 22 18197783197994848150
21040471 1 18124030401940193724
21061003 4 18410295783203778536
2748010 2 18265614479830888790
29004967 10 18334863800611822408
5084963 1 18060131085058343252
568465 68 18338248136188711498
63268167 104 18272651302429784473
81228 2 17899424086141874805

>  <PUBCHEM_SHAPE_MULTIPOLES>  (1) 
228.98
5.17
1.81
0.98
1.44
0.19
0.27
0.63
1.02
-1
-0.23
0.51
0.12
0.12

>  <PUBCHEM_SHAPE_SELFOVERLAP>  (1) 
432.115

>  <PUBCHEM_SHAPE_VOLUME>  (1) 
145.4

>  <PUBCHEM_COORDINATE_TYPE>  (1) 
2
5
10

$$$$
