49894
     RDKit          3D

 10 10  0  0  1  0  0  0  0  0999 V2000
    3.5379   -1.3362   -0.0676 Cl  0  0  0  0  0  0  0  0  0  0  0  0
    0.7146    1.7865    0.3785 S   0  0  0  0  0  0  0  0  0  0  0  0
   -3.7541    0.0748   -0.1528 N   0  0  0  0  0  0  0  0  0  0  0  0
   -2.3714   -0.0390    0.3209 C   0  0  0  0  0  0  0  0  0  0  0  0
   -1.4091    0.4564   -0.7753 C   0  0  0  0  0  0  0  0  0  0  0  0
    0.0381    0.4183   -0.3711 C   0  0  0  0  0  0  0  0  0  0  0  0
   -2.1173   -1.4940    0.7148 C   0  0  0  0  0  0  0  0  0  0  0  0
    0.9206   -0.6075   -0.5305 C   0  0  0  0  0  0  0  0  0  0  0  0
    2.2065   -0.2667   -0.0201 C   0  0  0  0  0  0  0  0  0  0  0  0
    2.2342    1.0073    0.5032 C   0  0  0  0  0  0  0  0  0  0  0  0
  1  9  1  0
  2  6  1  0
  2 10  1  0
  3  4  1  0
  4  5  1  0
  4  7  1  0
  5  6  1  0
  6  8  2  0
  8  9  1  0
  9 10  2  0
M  END
>  <PUBCHEM_COMPOUND_CID>  (1) 
49894

>  <PUBCHEM_CONFORMER_RMSD>  (1) 
0.4

>  <PUBCHEM_CONFORMER_DIVERSEORDER>  (1) 
4
21
24
10
11
17
19
14
13
7
12
8
22
3
23
1
15
18
20
9
2
16
5
6

>  <PUBCHEM_MMFF94_PARTIAL_CHARGES>  (1) 
13
1 -0.12
10 -0.11
17 0.15
18 0.36
19 0.36
2 -0.08
20 0.15
3 -0.99
4 0.27
5 0.18
6 -0.14
8 -0.15
9 0.12

>  <PUBCHEM_EFFECTIVE_ROTOR_COUNT>  (1) 
2

>  <PUBCHEM_PHARMACOPHORE_FEATURES>  (1) 
3
1 3 cation
1 3 donor
5 2 6 8 9 10 rings

>  <PUBCHEM_HEAVY_ATOM_COUNT>  (1) 
10

>  <PUBCHEM_ATOM_DEF_STEREO_COUNT>  (1) 
0

>  <PUBCHEM_ATOM_UDEF_STEREO_COUNT>  (1) 
1

>  <PUBCHEM_BOND_DEF_STEREO_COUNT>  (1) 
0

>  <PUBCHEM_BOND_UDEF_STEREO_COUNT>  (1) 
0

>  <PUBCHEM_ISOTOPIC_ATOM_COUNT>  (1) 
0

>  <PUBCHEM_COMPONENT_COUNT>  (1) 
1

>  <PUBCHEM_CACTVS_TAUTO_COUNT>  (1) 
1

>  <PUBCHEM_CONFORMER_ID>  (1) 
0000C2E600000004

>  <PUBCHEM_MMFF94_ENERGY>  (1) 
1.7274

>  <PUBCHEM_FEATURE_SELFOVERLAP>  (1) 
15.223

>  <PUBCHEM_SHAPE_FINGERPRINT>  (1) 
10130415 120 18411982425329409800
10219947 1 17988925565492925942
10857977 72 18262229040273481201
12032990 46 18342178817597098046
124424 183 18411133598020791647
12897270 3 9007066746715931041
12932764 1 18057614350403197655
14128692 85 17895205406365599262
14325111 11 18340485663894565357
15775835 57 16845289505228517953
17841504 4 18343021137534260673
17990270 104 18263644141840032352
20201158 50 18410294679202180043
20281407 28 18187088342775067858
20711983 138 18409453561449236971
20871998 22 17916031153202325214
21028194 46 10447930572449742914
21293036 1 11819285442292354054
228727 97 14057002680884023764
23402539 116 17989199318925813285
29004967 10 18413388752309618432
3248919 1 18188764075826354341
8809292 202 18261116270108289722

>  <PUBCHEM_SHAPE_MULTIPOLES>  (1) 
206.53
5.36
1.6
0.83
1.2
0.17
0
-2
-0.3
-0.65
-0.29
0.12
-0.01
0.5

>  <PUBCHEM_SHAPE_SELFOVERLAP>  (1) 
392.497

>  <PUBCHEM_SHAPE_VOLUME>  (1) 
129.8

>  <PUBCHEM_COORDINATE_TYPE>  (1) 
2
5
10

$$$$
