49907
     RDKit          3D

 21 21  0  0  0  0  0  0  0  0999 V2000
    2.2392   -0.0963    2.6202 Cl  0  0  0  0  0  0  0  0  0  0  0  0
    2.9422    0.4506   -2.7660 Cl  0  0  0  0  0  0  0  0  0  0  0  0
   -3.9288   -0.7740    0.0614 N   0  0  0  0  0  0  0  0  0  0  0  0
   -0.3619    0.2403   -0.0912 N   0  0  0  0  0  0  0  0  0  0  0  0
   -0.0620    2.5251    0.3834 N   0  0  0  0  0  0  0  0  0  0  0  0
    1.8338    1.2271   -0.0651 N   0  0  0  0  0  0  0  0  0  0  0  0
   -2.4916   -0.9137   -0.1346 C   0  0  0  0  0  0  0  0  0  0  0  0
   -4.4769    0.2407   -0.8408 C   0  0  0  0  0  0  0  0  0  0  0  0
   -4.6052   -2.0558   -0.1469 C   0  0  0  0  0  0  0  0  0  0  0  0
   -1.7945    0.4217    0.0832 C   0  0  0  0  0  0  0  0  0  0  0  0
   -5.9632    0.4439   -0.6003 C   0  0  0  0  0  0  0  0  0  0  0  0
   -4.0523   -3.1254    0.7797 C   0  0  0  0  0  0  0  0  0  0  0  0
    0.4490    1.2492    0.0679 C   0  0  0  0  0  0  0  0  0  0  0  0
    2.6591    0.0806   -0.0738 C   0  0  0  0  0  0  0  0  0  0  0  0
   -0.4412    3.5101   -0.6280 C   0  0  0  0  0  0  0  0  0  0  0  0
   -0.1429    2.9781    1.7708 C   0  0  0  0  0  0  0  0  0  0  0  0
    2.9132   -0.6092    1.1138 C   0  0  0  0  0  0  0  0  0  0  0  0
    3.2244   -0.3670   -1.2698 C   0  0  0  0  0  0  0  0  0  0  0  0
    3.7284   -1.7411    1.1052 C   0  0  0  0  0  0  0  0  0  0  0  0
    4.0396   -1.4989   -1.2783 C   0  0  0  0  0  0  0  0  0  0  0  0
    4.2915   -2.1860   -0.0908 C   0  0  0  0  0  0  0  0  0  0  0  0
  1 17  1  0
  2 18  1  0
  3  7  1  0
  3  8  1  0
  3  9  1  0
  4 10  1  0
  4 13  2  0
  5 13  1  0
  5 15  1  0
  5 16  1  0
  6 13  1  0
  6 14  1  0
  7 10  1  0
  8 11  1  0
  9 12  1  0
 14 17  2  0
 14 18  1  0
 17 19  1  0
 18 20  2  0
 19 21  2  0
 20 21  1  0
M  END
>  <PUBCHEM_COMPOUND_CID>  (1) 
49907

>  <PUBCHEM_CONFORMER_RMSD>  (1) 
0.8

>  <PUBCHEM_CONFORMER_DIVERSEORDER>  (1) 
1
42
50
2
40
75
59
57
74
38
55
6
67
41
44
35
21
33
46
28
32
62
29
14
39
9
27
20
31
12
8
26
11
71
61
56
66
15
13
60
45
17
7
3
22
36
70
53
69
18
47
5
68
54
51
19
30
48
72
49
37
64
73
24
58
63
23
43
65
34
16
52
25
4
10

>  <PUBCHEM_MMFF94_PARTIAL_CHARGES>  (1) 
23
1 -0.18
10 0.25
13 0.55
14 0.1
15 0.37
16 0.37
17 0.18
18 0.18
19 -0.15
2 -0.18
20 -0.15
21 -0.15
3 -0.81
36 0.4
4 -0.7
43 0.15
44 0.15
45 0.15
5 -0.79
6 -0.55
7 0.27
8 0.27
9 0.27

>  <PUBCHEM_EFFECTIVE_ROTOR_COUNT>  (1) 
8

>  <PUBCHEM_PHARMACOPHORE_FEATURES>  (1) 
4
1 3 cation
1 6 donor
4 4 5 6 13 cation
6 14 17 18 19 20 21 rings

>  <PUBCHEM_HEAVY_ATOM_COUNT>  (1) 
21

>  <PUBCHEM_ATOM_DEF_STEREO_COUNT>  (1) 
0

>  <PUBCHEM_ATOM_UDEF_STEREO_COUNT>  (1) 
0

>  <PUBCHEM_BOND_DEF_STEREO_COUNT>  (1) 
0

>  <PUBCHEM_BOND_UDEF_STEREO_COUNT>  (1) 
0

>  <PUBCHEM_ISOTOPIC_ATOM_COUNT>  (1) 
0

>  <PUBCHEM_COMPONENT_COUNT>  (1) 
1

>  <PUBCHEM_CACTVS_TAUTO_COUNT>  (1) 
2

>  <PUBCHEM_CONFORMER_ID>  (1) 
0000C2F300000001

>  <PUBCHEM_MMFF94_ENERGY>  (1) 
75.0615

>  <PUBCHEM_FEATURE_SELFOVERLAP>  (1) 
20.297

>  <PUBCHEM_SHAPE_FINGERPRINT>  (1) 
11405975 8 18340204219789637155
11796584 16 18260546714732667255
12363563 72 18272092690393117743
12553582 1 18339377291596400499
12788726 201 17970062253855049841
13134695 92 17917422181488342001
14251757 5 18261957341296548541
14252887 29 18201438133580133298
14866123 147 17838624357696210907
15342816 4 18340779207850684468
15664445 248 18263083378447945364
15885798 251 18341045242330522173
16752209 62 18189892011458089537
18186145 218 12901545736833812805
18222031 100 17846780715133750077
20600515 1 18339630174944627920
21250096 35 18412823586174190847
21756936 100 13181011988233556922
23557571 272 18128251199229473300
23559900 14 18411132576108907313
238 59 15140967218912706706
3004659 81 18113900442315521838
31174 14 17060041645695057576
314173 41 18409168843893718783
314173 85 18059859441288042987
3472631 163 8717955687636823298
38570 142 13613377365050198970
44062 13 18408038529341193031
633830 44 13407344128416394423
7808743 9 9294416435740270286
8988823 20 16630510843860924769
960060 61 17967254221321796599
9841814 1 18201441431883148272

>  <PUBCHEM_SHAPE_MULTIPOLES>  (1) 
415.99
10.84
3.34
1.94
12.02
1.48
-0.04
-8.43
2.64
1.54
-0.83
-2.56
0.4
0.28

>  <PUBCHEM_SHAPE_SELFOVERLAP>  (1) 
809.753

>  <PUBCHEM_SHAPE_VOLUME>  (1) 
252.8

>  <PUBCHEM_COORDINATE_TYPE>  (1) 
2
5
10

$$$$
