4990
     RDKit          3D

 18 18  0  0  0  0  0  0  0  0999 V2000
    2.8184    0.2684    0.1272 O   0  0  0  0  0  0  0  0  0  0  0  0
   -2.8207    0.2734    0.1291 O   0  0  0  0  0  0  0  0  0  0  0  0
    4.6658    0.6329   -1.1875 O   0  0  0  0  0  0  0  0  0  0  0  0
   -4.6654    0.6395   -1.1892 O   0  0  0  0  0  0  0  0  0  0  0  0
   -0.0016   -0.8474   -0.6876 N   0  0  0  0  0  0  0  0  0  0  0  0
    4.2445    1.9169    0.6982 N   0  0  0  0  0  0  0  0  0  0  0  0
   -4.2390    1.9169    0.6999 N   0  0  0  0  0  0  0  0  0  0  0  0
    1.1466   -1.3871   -0.2207 C   0  0  0  0  0  0  0  0  0  0  0  0
   -1.1442   -1.3912   -0.2220 C   0  0  0  0  0  0  0  0  0  0  0  0
    2.4182   -0.7942   -0.7290 C   0  0  0  0  0  0  0  0  0  0  0  0
   -2.4215   -0.7953   -0.7365 C   0  0  0  0  0  0  0  0  0  0  0  0
    1.1992   -2.4366    0.6826 C   0  0  0  0  0  0  0  0  0  0  0  0
   -1.2060   -2.4375    0.6783 C   0  0  0  0  0  0  0  0  0  0  0  0
   -0.0039   -2.9661    1.1358 C   0  0  0  0  0  0  0  0  0  0  0  0
    3.9779    0.9160   -0.2123 C   0  0  0  0  0  0  0  0  0  0  0  0
   -3.9760    0.9178   -0.2137 C   0  0  0  0  0  0  0  0  0  0  0  0
    5.3968    2.7849    0.6212 C   0  0  0  0  0  0  0  0  0  0  0  0
   -5.3889    2.7885    0.6263 C   0  0  0  0  0  0  0  0  0  0  0  0
  1 10  1  0
  1 15  1  0
  2 11  1  0
  2 16  1  0
  3 15  2  0
  4 16  2  0
  5  8  2  0
  5  9  1  0
  6 15  1  0
  6 17  1  0
  7 16  1  0
  7 18  1  0
  8 10  1  0
  8 12  1  0
  9 11  1  0
  9 13  2  0
 12 14  2  0
 13 14  1  0
M  END
>  <PUBCHEM_COMPOUND_CID>  (1) 
4990

>  <PUBCHEM_CONFORMER_RMSD>  (1) 
0.8

>  <PUBCHEM_CONFORMER_DIVERSEORDER>  (1) 
1
120
33
186
14
156
62
170
3
34
133
165
208
154
5
191
36
100
4
148
182
184
45
134
2
153
80
119
118
161
195
112
64
38
49
39
180
122
87
35
168
91
151
117
124
149
65
183
102
69
169
193
179
50
16
88
113
93
174
111
70
201
19
109
74
138
177
32
135
75
205
131
157
27
126
204
210
185
81
129
188
47
140
155
160
60
83
203
46
147
132
164
6
175
121
194
142
29
72
172
166
139
207
181
106
105
30
41
197
22
128
130
23
84
152
43
189
196
94
77
150
68
31
163
52
141
114
167
59
202
192
143
21
159
85
99
66
209
171
108
20
144
51
146
198
26
103
173
190
25
136
158
115
137
89
178
96
55
28
56
11
92
110
200
123
67
40
7
90
145
97
125
37
9
116
127
10
57
53
78
24
107
58
13
44
79
176
73
42
63
8
76
48
101
95
61
162
18
54
82
98
15
17
12
199
206
71
104
187
86

>  <PUBCHEM_MMFF94_PARTIAL_CHARGES>  (1) 
23
1 -0.43
10 0.42
11 0.42
12 -0.15
13 -0.15
14 -0.15
15 0.78
16 0.78
17 0.3
18 0.3
2 -0.43
23 0.15
24 0.15
25 0.15
26 0.37
27 0.37
3 -0.57
4 -0.57
5 -0.62
6 -0.73
7 -0.73
8 0.17
9 0.17

>  <PUBCHEM_EFFECTIVE_ROTOR_COUNT>  (1) 
8

>  <PUBCHEM_PHARMACOPHORE_FEATURES>  (1) 
6
1 3 acceptor
1 4 acceptor
1 5 acceptor
1 6 donor
1 7 donor
6 5 8 9 12 13 14 rings

>  <PUBCHEM_HEAVY_ATOM_COUNT>  (1) 
18

>  <PUBCHEM_ATOM_DEF_STEREO_COUNT>  (1) 
0

>  <PUBCHEM_ATOM_UDEF_STEREO_COUNT>  (1) 
0

>  <PUBCHEM_BOND_DEF_STEREO_COUNT>  (1) 
0

>  <PUBCHEM_BOND_UDEF_STEREO_COUNT>  (1) 
0

>  <PUBCHEM_ISOTOPIC_ATOM_COUNT>  (1) 
0

>  <PUBCHEM_COMPONENT_COUNT>  (1) 
1

>  <PUBCHEM_CACTVS_TAUTO_COUNT>  (1) 
3

>  <PUBCHEM_CONFORMER_ID>  (1) 
0000137E00000001

>  <PUBCHEM_MMFF94_ENERGY>  (1) 
25.6331

>  <PUBCHEM_FEATURE_SELFOVERLAP>  (1) 
30.447

>  <PUBCHEM_SHAPE_FINGERPRINT>  (1) 
10382601 240 17895472514413168450
10968037 57 8862952692464014021
12107183 9 18261373565447350386
122479 349 18338516460350140198
12390115 104 18263096524898947134
12633257 1 17750224967321974660
13590594 115 17548429111215828658
13878862 14 17681537157527658285
13955234 65 17972602087377342811
14123255 52 18408602560808143051
1420 369 8646766694567334701
14251740 57 7853559219459986448
14251764 38 18125438859119101840
14251764 75 18412834585564986937
14576447 43 9510875103361075954
14848178 5 8214138525987124193
14848178 96 18411134714649387688
15142526 21 18335987484816642297
15342816 4 11312063128003036748
1741750 31 18335420205230666258
17834072 32 18409168848204737712
17980427 26 18338783538634022158
1813 80 10375865277387864395
19752476 56 18272089349135291272
19784866 34 18410572868734273921
20238998 120 17546729713259491371
204376 136 18113901554722484047
20621476 91 16878525509176060849
20871998 22 10087633801793596566
21304253 13 18049147888159557050
21401589 2 18338521940422331857
22182937 141 18336550537411434867
23500284 214 18333735740378855270
23845131 108 18187649077148207995
270888 7 18412543206266902361
283562 15 18118679057431779843
2838139 119 18273210898203632284
3014063 24 11530771439749865985
312425 83 17560807593240809045
3472631 163 18058449812280434869
474 4 18333453131815348989
5104073 3 18187081745547351699
56616090 13 18343301457201561879
59124914 9 18410858716146122984
633830 44 18269272374807617711
7062679 13 9078848372105232348
76465 3 9511457810126739135
9981440 41 18338510967013577354

>  <PUBCHEM_SHAPE_MULTIPOLES>  (1) 
332.01
11.54
3.66
1.04
0.06
0.22
-0.04
16.08
0.21
-0.01
1.69
-0.01
-0.11
0

>  <PUBCHEM_SHAPE_SELFOVERLAP>  (1) 
671.625

>  <PUBCHEM_SHAPE_VOLUME>  (1) 
193.1

>  <PUBCHEM_COORDINATE_TYPE>  (1) 
2
5
10

$$$$
