49925
     RDKit          3D

 17 17  0  0  0  0  0  0  0  0999 V2000
    1.0176    1.6002    1.8825 O   0  0  0  0  0  0  0  0  0  0  0  0
    0.2485   -0.8088   -2.2035 O   0  0  0  0  0  0  0  0  0  0  0  0
    3.8961   -1.6587    0.4365 O   0  0  0  0  0  0  0  0  0  0  0  0
    2.4310   -0.0347    1.1330 N   0  0  0  0  0  0  0  0  0  0  0  0
    2.0574   -1.2080   -0.8615 N   0  0  0  0  0  0  0  0  0  0  0  0
    0.4152    0.4947   -0.1775 C   0  0  0  0  0  0  0  0  0  0  0  0
    0.2097    1.8195   -0.9246 C   0  0  0  0  0  0  0  0  0  0  0  0
   -0.8859   -0.0165    0.3747 C   0  0  0  0  0  0  0  0  0  0  0  0
    1.2976    0.7527    1.0320 C   0  0  0  0  0  0  0  0  0  0  0  0
    0.8824   -0.5495   -1.1784 C   0  0  0  0  0  0  0  0  0  0  0  0
   -2.0346    0.6456    0.1395 C   0  0  0  0  0  0  0  0  0  0  0  0
    1.5275    2.3780   -1.4172 C   0  0  0  0  0  0  0  0  0  0  0  0
   -0.7689   -1.2891    1.1648 C   0  0  0  0  0  0  0  0  0  0  0  0
   -3.4110    0.3028    0.6349 C   0  0  0  0  0  0  0  0  0  0  0  0
    2.8639   -1.0118    0.2494 C   0  0  0  0  0  0  0  0  0  0  0  0
   -4.1715   -0.5441   -0.3851 C   0  0  0  0  0  0  0  0  0  0  0  0
   -5.5747   -0.8722    0.1007 C   0  0  0  0  0  0  0  0  0  0  0  0
  1  9  2  0
  2 10  2  0
  3 15  2  0
  4  9  1  0
  4 15  1  0
  5 10  1  0
  5 15  1  0
  6  7  1  0
  6  8  1  0
  6  9  1  0
  6 10  1  0
  7 12  1  0
  8 11  2  0
  8 13  1  0
 11 14  1  0
 14 16  1  0
 16 17  1  0
M  END
>  <PUBCHEM_COMPOUND_CID>  (1) 
49925

>  <PUBCHEM_CONFORMER_RMSD>  (1) 
0.6

>  <PUBCHEM_CONFORMER_DIVERSEORDER>  (1) 
1
5
26
30
38
37
31
28
20
22
23
24
17
34
29
27
33
10
18
9
15
35
39
4
32
14
36
25
12
6
19
11
3
40
8
16
7
21
2
13

>  <PUBCHEM_MMFF94_PARTIAL_CHARGES>  (1) 
16
1 -0.57
10 0.57
11 -0.29
13 0.14
14 0.14
15 0.69
2 -0.57
20 0.15
29 0.37
3 -0.57
30 0.37
4 -0.49
5 -0.49
6 0.26
8 -0.28
9 0.57

>  <PUBCHEM_EFFECTIVE_ROTOR_COUNT>  (1) 
4.6

>  <PUBCHEM_PHARMACOPHORE_FEATURES>  (1) 
9
1 1 acceptor
1 12 hydrophobe
1 13 hydrophobe
1 17 hydrophobe
1 2 acceptor
1 3 acceptor
1 4 donor
1 5 donor
6 4 5 6 9 10 15 rings

>  <PUBCHEM_HEAVY_ATOM_COUNT>  (1) 
17

>  <PUBCHEM_ATOM_DEF_STEREO_COUNT>  (1) 
0

>  <PUBCHEM_ATOM_UDEF_STEREO_COUNT>  (1) 
0

>  <PUBCHEM_BOND_DEF_STEREO_COUNT>  (1) 
0

>  <PUBCHEM_BOND_UDEF_STEREO_COUNT>  (1) 
1

>  <PUBCHEM_ISOTOPIC_ATOM_COUNT>  (1) 
0

>  <PUBCHEM_COMPONENT_COUNT>  (1) 
1

>  <PUBCHEM_CACTVS_TAUTO_COUNT>  (1) 
5

>  <PUBCHEM_CONFORMER_ID>  (1) 
0000C30500000001

>  <PUBCHEM_MMFF94_ENERGY>  (1) 
34.3466

>  <PUBCHEM_FEATURE_SELFOVERLAP>  (1) 
45.713

>  <PUBCHEM_SHAPE_FINGERPRINT>  (1) 
11578080 2 15937506252860073228
12251169 10 17489298694381379223
12423570 1 8498655963151736336
12725867 57 18259703401935139028
13134695 92 18271799138163867913
13380536 243 16805605862902698771
14178342 30 16772408235600789219
14344429 50 17531242898280593149
14863182 85 17418107502479020895
14993402 34 16226051063403883667
15848700 24 18259979353726032859
16945 1 18058436634813880872
18186145 218 16877939477989060873
19010151 120 18188779331745277688
20511035 2 18199468951035809938
20645477 70 17967813907653778715
21637258 2 17896027772465577114
23402539 116 18189612756905507342
23419403 2 18196909150702038972
23557571 272 18059856113422014601
276578 36 10952047840396213581
3060560 45 16805317812489443691
3286 77 18131066043813057625
7364860 26 18188215423734931684
74978 22 17895203250466109491

>  <PUBCHEM_SHAPE_MULTIPOLES>  (1) 
322.28
6.84
1.87
1.53
10.48
0.95
0.08
-3.29
0.22
-1.55
0.24
-0.7
0.14
-0.05

>  <PUBCHEM_SHAPE_SELFOVERLAP>  (1) 
657.969

>  <PUBCHEM_SHAPE_VOLUME>  (1) 
186.4

>  <PUBCHEM_COORDINATE_TYPE>  (1) 
2
5
10

$$$$
