49920
     RDKit          3D

 17 19  0  0  1  0  0  0  0  0999 V2000
    4.7820   -0.1557    0.1516 O   0  0  0  0  0  0  0  0  0  0  0  0
   -3.0506   -0.4070   -0.1815 N   0  0  0  0  0  0  0  0  0  0  0  0
   -3.5841    0.7845    0.4751 C   0  0  0  0  0  0  0  0  0  0  0  0
   -5.0117    1.1929    0.2494 C   0  0  0  0  0  0  0  0  0  0  0  0
   -3.8971    2.0125   -0.3314 C   0  0  0  0  0  0  0  0  0  0  0  0
   -1.6678   -0.6020    0.1799 C   0  0  0  0  0  0  0  0  0  0  0  0
   -1.1129   -1.8797   -0.4476 C   0  0  0  0  0  0  0  0  0  0  0  0
   -0.8262    0.6050   -0.2454 C   0  0  0  0  0  0  0  0  0  0  0  0
    0.3097   -2.1419    0.0431 C   0  0  0  0  0  0  0  0  0  0  0  0
   -3.8392   -1.5853    0.1725 C   0  0  0  0  0  0  0  0  0  0  0  0
    0.6587    0.3735   -0.1134 C   0  0  0  0  0  0  0  0  0  0  0  0
    1.1959   -0.9234   -0.0178 C   0  0  0  0  0  0  0  0  0  0  0  0
    1.5249    1.4771   -0.1441 C   0  0  0  0  0  0  0  0  0  0  0  0
    2.5860   -1.0872    0.0814 C   0  0  0  0  0  0  0  0  0  0  0  0
    3.4352    0.0184    0.0600 C   0  0  0  0  0  0  0  0  0  0  0  0
    2.9051    1.2999   -0.0552 C   0  0  0  0  0  0  0  0  0  0  0  0
    5.5921    1.0184    0.1234 C   0  0  0  0  0  0  0  0  0  0  0  0
  1 15  1  0
  1 17  1  0
  2  3  1  0
  2  6  1  0
  2 10  1  0
  3  4  1  0
  3  5  1  0
  4  5  1  0
  6  7  1  0
  6  8  1  0
  7  9  1  0
  8 11  1  0
  9 12  1  0
 11 12  2  0
 11 13  1  0
 12 14  1  0
 13 16  2  0
 14 15  2  0
 15 16  1  0
M  END
>  <PUBCHEM_COMPOUND_CID>  (1) 
49920

>  <PUBCHEM_CONFORMER_RMSD>  (1) 
0.6

>  <PUBCHEM_CONFORMER_DIVERSEORDER>  (1) 
3
14
2
12
10
13
7
11
6
1
4
5
16
8
15
9

>  <PUBCHEM_MMFF94_PARTIAL_CHARGES>  (1) 
24
1 -0.36
10 0.27
11 -0.14
12 -0.14
13 -0.15
14 -0.15
15 0.08
16 -0.15
17 0.28
18 0.1
19 0.1
2 -0.7
20 0.1
21 0.1
22 0.1
3 0.06
33 0.15
34 0.15
35 0.15
4 -0.2
5 -0.2
6 0.27
8 0.14
9 0.14

>  <PUBCHEM_EFFECTIVE_ROTOR_COUNT>  (1) 
4.4

>  <PUBCHEM_PHARMACOPHORE_FEATURES>  (1) 
4
1 1 acceptor
1 2 cation
6 11 12 13 14 15 16 rings
6 6 7 8 9 11 12 rings

>  <PUBCHEM_HEAVY_ATOM_COUNT>  (1) 
17

>  <PUBCHEM_ATOM_DEF_STEREO_COUNT>  (1) 
0

>  <PUBCHEM_ATOM_UDEF_STEREO_COUNT>  (1) 
1

>  <PUBCHEM_BOND_DEF_STEREO_COUNT>  (1) 
0

>  <PUBCHEM_BOND_UDEF_STEREO_COUNT>  (1) 
0

>  <PUBCHEM_ISOTOPIC_ATOM_COUNT>  (1) 
0

>  <PUBCHEM_COMPONENT_COUNT>  (1) 
1

>  <PUBCHEM_CACTVS_TAUTO_COUNT>  (1) 
1

>  <PUBCHEM_CONFORMER_ID>  (1) 
0000C30000000003

>  <PUBCHEM_MMFF94_ENERGY>  (1) 
52.0734

>  <PUBCHEM_FEATURE_SELFOVERLAP>  (1) 
20.318

>  <PUBCHEM_SHAPE_FINGERPRINT>  (1) 
10608611 8 18411418440499938001
11401426 45 18343018895761727024
11471102 20 18339640036162568054
11543360 7 15194990674439312921
12251169 10 18260832583703118541
12403259 415 18131067190131560440
12500047 106 18272646878697722618
12507557 5 18411421726123799297
13214271 11 18410011048542049735
13675066 3 18272651281229014210
14790565 3 18335145349262880044
15042514 8 18051133889279183711
15188451 53 15719972327476051873
15196674 1 18410856555661567234
15536298 74 18271528598052495598
1601671 61 18408887317657118468
18186145 218 18130238085513062707
19784866 170 18333734585021778364
19784866 9 18336825295069902858
200 152 17989201556060163125
20645477 56 18410576171975756473
20645477 70 17488748861078933942
21267235 1 18338243768085969847
21279426 13 18340773628962694454
21304253 335 18334862753331249956
21421861 104 17533490141276286018
21524375 3 18412545431413051751
21709351 56 18409162238012543469
231179 274 18188207598515079757
23402539 116 18201714067964811364
23402655 69 18201718440098944412
23559900 14 18131352999621549406
2916195 48 18129935797536559104
293599 30 18411983555153760772
335352 9 18338798892819857942
34934 24 18409725132115396275
350125 39 18339082713117444817
3545911 37 18412547596144971825
4214541 1 18410856581309980289
4463277 17 18409168823157451564
5104073 3 18409164415829877810
6430166 295 18410292510259292460
7364860 26 18198063569022785679
9709674 26 18412270557453220847

>  <PUBCHEM_SHAPE_MULTIPOLES>  (1) 
339
10.23
2.1
0.66
2.57
0.38
0
-4.54
-0.92
-1.18
0.12
-0.12
-0.01
0

>  <PUBCHEM_SHAPE_SELFOVERLAP>  (1) 
713.488

>  <PUBCHEM_SHAPE_VOLUME>  (1) 
192.7

>  <PUBCHEM_COORDINATE_TYPE>  (1) 
2
5
10

$$$$
