49929
     RDKit          3D

 11 10  0  0  0  0  0  0  0  0999 V2000
   -0.0291    0.3255   -0.0545 O   0  0  0  0  0  0  0  0  0  0  0  0
   -1.2436   -1.4514    0.7778 O   0  0  0  0  0  0  0  0  0  0  0  0
    3.7718   -0.9623   -0.9092 O   0  0  0  0  0  0  0  0  0  0  0  0
    2.4131    0.4446   -0.1294 N   0  0  0  0  0  0  0  0  0  0  0  0
    3.5445   -0.2062    0.0429 N   0  0  0  0  0  0  0  0  0  0  0  0
   -2.3624    0.4523   -0.2399 C   0  0  0  0  0  0  0  0  0  0  0  0
   -3.6966   -0.2620   -0.0333 C   0  0  0  0  0  0  0  0  0  0  0  0
   -1.1767   -0.3554    0.2386 C   0  0  0  0  0  0  0  0  0  0  0  0
   -4.8820    0.5629   -0.5151 C   0  0  0  0  0  0  0  0  0  0  0  0
    1.2204   -0.3100    0.3068 C   0  0  0  0  0  0  0  0  0  0  0  0
    2.4405    1.7621    0.5152 C   0  0  0  0  0  0  0  0  0  0  0  0
  1  8  1  0
  1 10  1  0
  2  8  2  0
  3  5  2  0
  4  5  1  0
  4 10  1  0
  4 11  1  0
  6  7  1  0
  6  8  1  0
  7  9  1  0
M  END
>  <PUBCHEM_COMPOUND_CID>  (1) 
49929

>  <PUBCHEM_CONFORMER_RMSD>  (1) 
0.8

>  <PUBCHEM_CONFORMER_DIVERSEORDER>  (1) 
1
241
307
10
368
431
32
19
13
336
20
387
88
532
519
248
21
31
151
2
15
46
103
463
499
255
270
120
5
167
324
62
364
6
77
261
51
118
133
424
335
17
134
237
123
42
114
160
227
78
119
54
16
337
427
231
139
478
298
14
191
156
3
124
359
11
305
281
4
9
105
275
244
469
146
458
274
413
86
220
279
38
296
98
61

>  <PUBCHEM_MMFF94_PARTIAL_CHARGES>  (1) 
9
1 -0.43
10 0.55
11 0.27
2 -0.57
3 -0.16
4 -0.36
5 -0.01
6 0.06
8 0.66

>  <PUBCHEM_EFFECTIVE_ROTOR_COUNT>  (1) 
6

>  <PUBCHEM_PHARMACOPHORE_FEATURES>  (1) 
2
1 2 acceptor
1 9 hydrophobe

>  <PUBCHEM_HEAVY_ATOM_COUNT>  (1) 
11

>  <PUBCHEM_ATOM_DEF_STEREO_COUNT>  (1) 
0

>  <PUBCHEM_ATOM_UDEF_STEREO_COUNT>  (1) 
0

>  <PUBCHEM_BOND_DEF_STEREO_COUNT>  (1) 
0

>  <PUBCHEM_BOND_UDEF_STEREO_COUNT>  (1) 
0

>  <PUBCHEM_ISOTOPIC_ATOM_COUNT>  (1) 
0

>  <PUBCHEM_COMPONENT_COUNT>  (1) 
1

>  <PUBCHEM_CACTVS_TAUTO_COUNT>  (1) 
1

>  <PUBCHEM_CONFORMER_ID>  (1) 
0000C30900000001

>  <PUBCHEM_MMFF94_ENERGY>  (1) 
14.7385

>  <PUBCHEM_FEATURE_SELFOVERLAP>  (1) 
10.148

>  <PUBCHEM_SHAPE_FINGERPRINT>  (1) 
11062470 55 17561082514313508025
12932764 1 17241031193342841512
14123238 8 10591755494025068373
14251717 144 17917996031599015838
14325111 11 18335698373351045145
14445660 50 11963396232443096085
18186145 218 18335975420190301213
190213 19 17917990590117609161
20201158 50 18342462525788055862
20279233 1 18412548730074386274
20645477 70 18131354107058720838
21119208 17 17917989464894206533
23402539 116 18271516542427195717
23402655 69 18343580741892917525
3248919 1 16271663272431763654
366044 4 18186800279698521851
4990 188 18411982446973233191
93112 12 18343021124649306638

>  <PUBCHEM_SHAPE_MULTIPOLES>  (1) 
198.8
8.51
1.23
0.75
3.7
0.24
0.01
0.72
1.87
-0.74
-0.17
-0.1
-0.09
0.72

>  <PUBCHEM_SHAPE_SELFOVERLAP>  (1) 
367.191

>  <PUBCHEM_SHAPE_VOLUME>  (1) 
126

>  <PUBCHEM_COORDINATE_TYPE>  (1) 
2
5
10

$$$$
