49937
     RDKit          3D

 10  9  0  0  0  0  0  0  0  0999 V2000
    2.6519    0.1792   -0.0134 S   0  0  0  0  0  0  0  0  0  0  0  0
    3.6660   -1.0856    0.1673 O   0  0  0  0  0  0  0  0  0  0  0  0
    2.7061    0.9957    1.1857 O   0  0  0  0  0  0  0  0  0  0  0  0
    2.8535    0.7530   -1.3317 O   0  0  0  0  0  0  0  0  0  0  0  0
   -1.3715   -0.6037    0.0209 C   0  0  0  0  0  0  0  0  0  0  0  0
   -0.0652    0.1897    0.0025 C   0  0  0  0  0  0  0  0  0  0  0  0
   -2.5868    0.3249    0.0005 C   0  0  0  0  0  0  0  0  0  0  0  0
    1.1423   -0.7349   -0.0161 C   0  0  0  0  0  0  0  0  0  0  0  0
   -3.8928   -0.4689   -0.0147 C   0  0  0  0  0  0  0  0  0  0  0  0
   -5.1036    0.4505   -0.0009 C   0  0  0  0  0  0  0  0  0  0  0  0
  1  2  1  0
  1  3  2  0
  1  4  2  0
  1  8  1  0
  5  6  1  0
  5  7  1  0
  6  8  1  0
  7  9  1  0
  9 10  1  0
M  END
>  <PUBCHEM_COMPOUND_CID>  (1) 
49937

>  <PUBCHEM_CONFORMER_RMSD>  (1) 
0.6

>  <PUBCHEM_CONFORMER_DIVERSEORDER>  (1) 
1
30
15
35
3
38
21
5
27
33
14
36
23
22
11
18
20
17
31
25
16
4
37
12
29
2
32
6
24
40
10
19
13
7
9
34
8
28
39
26

>  <PUBCHEM_MMFF94_PARTIAL_CHARGES>  (1) 
6
1 1.38
2 -0.68
24 0.5
3 -0.65
4 -0.65
8 0.11

>  <PUBCHEM_EFFECTIVE_ROTOR_COUNT>  (1) 
5

>  <PUBCHEM_PHARMACOPHORE_FEATURES>  (1) 
6
1 10 hydrophobe
1 2 acceptor
1 3 acceptor
1 4 acceptor
4 1 2 3 4 anion
4 5 6 7 9 hydrophobe

>  <PUBCHEM_HEAVY_ATOM_COUNT>  (1) 
10

>  <PUBCHEM_ATOM_DEF_STEREO_COUNT>  (1) 
0

>  <PUBCHEM_ATOM_UDEF_STEREO_COUNT>  (1) 
0

>  <PUBCHEM_BOND_DEF_STEREO_COUNT>  (1) 
0

>  <PUBCHEM_BOND_UDEF_STEREO_COUNT>  (1) 
0

>  <PUBCHEM_ISOTOPIC_ATOM_COUNT>  (1) 
0

>  <PUBCHEM_COMPONENT_COUNT>  (1) 
1

>  <PUBCHEM_CACTVS_TAUTO_COUNT>  (1) 
1

>  <PUBCHEM_CONFORMER_ID>  (1) 
0000C31100000001

>  <PUBCHEM_MMFF94_ENERGY>  (1) 
-0.5494

>  <PUBCHEM_FEATURE_SELFOVERLAP>  (1) 
30.5

>  <PUBCHEM_SHAPE_FINGERPRINT>  (1) 
11062470 55 18334576845794788783
12932764 1 18201432588640236415
14123238 8 8934993772632250627
14252887 29 8142087580394806292
14325111 11 18342174483806226171
18186145 218 17775290473506675115
190213 19 18259983782069365171
20279233 1 13038901153065370263
20645477 70 17489592221078690007
20719005 15 18410011031499278419
212847 35 18411420596299350481
22485316 2 18202841071942012495
23402539 116 17489577944733751253
522135 26 17312822662796652650

>  <PUBCHEM_SHAPE_MULTIPOLES>  (1) 
192.04
9.13
0.97
0.84
7.43
0.04
-0.05
-0.68
-0.02
-0.47
0.05
-0.68
-0.21
-0.03

>  <PUBCHEM_SHAPE_SELFOVERLAP>  (1) 
336.914

>  <PUBCHEM_SHAPE_VOLUME>  (1) 
126.3

>  <PUBCHEM_COORDINATE_TYPE>  (1) 
2
5
10

$$$$
