49940
     RDKit          3D

 29 32  0  0  1  0  0  0  0  0999 V2000
   -3.4503   -0.4526    0.7908 O   0  0  0  0  0  0  0  0  0  0  0  0
   -1.9646    1.5157   -0.8278 O   0  0  0  0  0  0  0  0  0  0  0  0
   -4.0338   -2.3738   -1.1397 O   0  0  0  0  0  0  0  0  0  0  0  0
    2.5553    0.3960   -1.7080 O   0  0  0  0  0  0  0  0  0  0  0  0
    4.7275   -0.1211   -2.1816 O   0  0  0  0  0  0  0  0  0  0  0  0
   -3.0015    1.8631    0.1123 C   0  0  0  0  0  0  0  0  0  0  0  0
   -3.0905    0.8523    1.2726 C   0  0  0  0  0  0  0  0  0  0  0  0
   -4.3235    1.8432   -0.6825 C   0  0  0  0  0  0  0  0  0  0  0  0
   -4.7317   -0.4799    0.1603 C   0  0  0  0  0  0  0  0  0  0  0  0
   -4.7233    0.4218   -1.0711 C   0  0  0  0  0  0  0  0  0  0  0  0
   -1.7535    0.7122    1.9953 C   0  0  0  0  0  0  0  0  0  0  0  0
   -5.0314   -1.9233   -0.2196 C   0  0  0  0  0  0  0  0  0  0  0  0
   -2.7497    3.2995    0.5992 C   0  0  0  0  0  0  0  0  0  0  0  0
   -0.6201    0.6320    1.0118 C   0  0  0  0  0  0  0  0  0  0  0  0
   -0.7880    1.0372   -0.3180 C   0  0  0  0  0  0  0  0  0  0  0  0
   -6.3988   -2.0420   -0.8957 C   0  0  0  0  0  0  0  0  0  0  0  0
   -4.9632   -2.8329    1.0076 C   0  0  0  0  0  0  0  0  0  0  0  0
    0.6351    0.1667    1.4388 C   0  0  0  0  0  0  0  0  0  0  0  0
    0.2732    0.9453   -1.2204 C   0  0  0  0  0  0  0  0  0  0  0  0
    1.7033    0.0824    0.5424 C   0  0  0  0  0  0  0  0  0  0  0  0
    1.5040    0.4703   -0.7751 C   0  0  0  0  0  0  0  0  0  0  0  0
    3.0152   -0.3991    0.9403 C   0  0  0  0  0  0  0  0  0  0  0  0
    4.0210   -0.4720    0.0584 C   0  0  0  0  0  0  0  0  0  0  0  0
    5.3850   -0.9636    0.4366 C   0  0  0  0  0  0  0  0  0  0  0  0
    3.8221   -0.0619   -1.3560 C   0  0  0  0  0  0  0  0  0  0  0  0
    5.3794   -1.3574    1.9274 C   0  0  0  0  0  0  0  0  0  0  0  0
    5.7157   -2.2153   -0.4007 C   0  0  0  0  0  0  0  0  0  0  0  0
    6.4921    0.0613    0.2188 C   0  0  0  0  0  0  0  0  0  0  0  0
    6.3950    1.3959    0.2836 C   0  0  0  0  0  0  0  0  0  0  0  0
  1  7  1  0
  1  9  1  0
  2  6  1  0
  2 15  1  0
  3 12  1  0
  4 21  1  0
  4 25  1  0
  5 25  2  0
  6  7  1  0
  6  8  1  0
  6 13  1  0
  7 11  1  0
  8 10  1  0
  9 10  1  0
  9 12  1  0
 11 14  1  0
 12 16  1  0
 12 17  1  0
 14 15  2  0
 14 18  1  0
 15 19  1  0
 18 20  2  0
 19 21  2  0
 20 21  1  0
 20 22  1  0
 22 23  2  0
 23 24  1  0
 23 25  1  0
 24 26  1  0
 24 27  1  0
 24 28  1  0
 28 29  2  0
M  END
>  <PUBCHEM_COMPOUND_CID>  (1) 
49940

>  <PUBCHEM_CONFORMER_RMSD>  (1) 
0.8

>  <PUBCHEM_CONFORMER_DIVERSEORDER>  (1) 
1
41
22
45
5
46
33
21
7
39
6
10
38
47
20
3
28
42
27
23
26
2
36
15
12
4
18
13
37
34
14
43
29
25
17
19
30
44
9
32
11
24
31
40
16
35
8

>  <PUBCHEM_MMFF94_PARTIAL_CHARGES>  (1) 
29
1 -0.56
11 0.14
12 0.28
14 -0.14
15 0.08
18 -0.15
19 -0.15
2 -0.36
20 0.03
21 0.08
22 -0.18
23 -0.12
24 0.28
25 0.71
28 -0.29
29 -0.3
3 -0.68
4 -0.23
47 0.15
48 0.15
49 0.4
5 -0.57
50 0.15
57 0.15
58 0.15
59 0.15
6 0.28
7 0.28
9 0.28

>  <PUBCHEM_EFFECTIVE_ROTOR_COUNT>  (1) 
4.2

>  <PUBCHEM_PHARMACOPHORE_FEATURES>  (1) 
12
1 1 acceptor
1 2 acceptor
1 29 hydrophobe
1 3 acceptor
1 3 donor
1 5 acceptor
3 12 16 17 hydrophobe
3 24 26 27 hydrophobe
6 1 6 7 8 9 10 rings
6 14 15 18 19 20 21 rings
6 2 6 7 11 14 15 rings
6 4 20 21 22 23 25 rings

>  <PUBCHEM_HEAVY_ATOM_COUNT>  (1) 
29

>  <PUBCHEM_ATOM_DEF_STEREO_COUNT>  (1) 
0

>  <PUBCHEM_ATOM_UDEF_STEREO_COUNT>  (1) 
3

>  <PUBCHEM_BOND_DEF_STEREO_COUNT>  (1) 
0

>  <PUBCHEM_BOND_UDEF_STEREO_COUNT>  (1) 
0

>  <PUBCHEM_ISOTOPIC_ATOM_COUNT>  (1) 
0

>  <PUBCHEM_COMPONENT_COUNT>  (1) 
1

>  <PUBCHEM_CACTVS_TAUTO_COUNT>  (1) 
1

>  <PUBCHEM_CONFORMER_ID>  (1) 
0000C31400000001

>  <PUBCHEM_MMFF94_ENERGY>  (1) 
104.0628

>  <PUBCHEM_FEATURE_SELFOVERLAP>  (1) 
61.076

>  <PUBCHEM_SHAPE_FINGERPRINT>  (1) 
10595046 47 18408040706688788184
11089746 13 15502372348708692632
11135609 149 16227988326110628682
11315181 36 18333732394604794792
11796584 16 18269836419582021158
12236239 1 18113896040010505288
12390115 104 10015866500679455029
12596602 18 18343864394881933392
12616971 3 17603882073787481045
12633257 1 16343422929316099023
12969540 114 14345793855395138073
13583140 156 17845925230504685400
13631057 29 18341607135954110443
13782708 43 18131351882561248630
14068700 675 18410290354802953389
14211702 104 18340775853434610926
14251751 18 18342455949902949331
14341114 328 11672066341523620583
14347332 77 18407759240175190549
14461889 52 18340196488817077186
15131766 46 14638581746263022797
15183329 4 15791730797894130758
15188451 53 18412537712924245758
15461852 350 18333453149607063342
15484559 13 13707071852582737807
15510800 12 17917149524338051103
15788980 27 17458633272169956812
15880784 105 18410577249964919424
17349148 13 17458348511458855848
17844677 252 18271811173105466472
17857418 61 18040434382561602282
19958102 18 18040710355364220051
200 152 17821730520079944201
20028762 73 18114738244960433002
20281389 69 8430314645053074534
20511986 3 17895743020006274040
20775438 99 17038653134090800883
21033648 144 15792027708946373750
21054139 6 18040431105443968794
21223535 225 15719654486694884543
21424621 283 17627801808186513801
21623969 137 16773796995990703390
21756936 100 8935003655441630761
22061861 79 15140682466760131714
22393880 68 17385995196364627165
2303208 19 17346605140786227486
23402539 116 17530685376986531444
23559900 14 18339069476071080001
23569914 152 14567259561599545539
24771293 8 17676490562713245596
249057 3 18260825969854981453
25122255 55 18201164264780156902
25222932 49 17917419935283561766
2838139 119 13118267209916018151
3009799 131 16515677870930744728
32027 91 17697044639192371702
34797466 226 18201726137245198380
392239 28 16128647557181473734
397830 11 18059276756545466138
4015057 19 16588316015450783740
4073 2 18059014982077313368
4325135 7 18342457088739111336
5104073 3 15769223721959696234
531348 171 17678448671850268131
5326457 24 18261951843248208466
57816373 69 17897715471855030194
6126387 218 12252169802527219516
7495541 125 18060415841870285248
7970288 3 18265897046162913475
9862886 166 18271804652843756123

>  <PUBCHEM_SHAPE_MULTIPOLES>  (1) 
567.46
16.82
2.55
1.66
10.27
0.32
-0.02
8.54
1.4
-4.06
-0.13
0.67
0.07
-0.68

>  <PUBCHEM_SHAPE_SELFOVERLAP>  (1) 
1231.875

>  <PUBCHEM_SHAPE_VOLUME>  (1) 
309.4

>  <PUBCHEM_COORDINATE_TYPE>  (1) 
2
5
10

$$$$
