49949
     RDKit          3D

 19 20  0  0  0  0  0  0  0  0999 V2000
   -2.2843    2.8744   -0.0136 Cl  0  0  0  0  0  0  0  0  0  0  0  0
   -1.0607   -2.3746    0.8624 Cl  0  0  0  0  0  0  0  0  0  0  0  0
   -6.0323   -0.9366   -0.5978 Cl  0  0  0  0  0  0  0  0  0  0  0  0
    5.3951   -1.0527   -0.1015 O   0  0  0  0  0  0  0  0  0  0  0  0
    0.6095    0.4770   -1.3753 O   0  0  0  0  0  0  0  0  0  0  0  0
    3.0386    0.5434   -0.0695 N   0  0  0  0  0  0  0  0  0  0  0  0
   -0.4686    0.5779    0.7079 N   0  0  0  0  0  0  0  0  0  0  0  0
    2.9722   -0.9243   -0.1022 C   0  0  0  0  0  0  0  0  0  0  0  0
    4.2697    0.9767    0.6058 C   0  0  0  0  0  0  0  0  0  0  0  0
    4.2172   -1.4842   -0.7842 C   0  0  0  0  0  0  0  0  0  0  0  0
    5.4838    0.3725   -0.0939 C   0  0  0  0  0  0  0  0  0  0  0  0
    1.8605    1.1015    0.5910 C   0  0  0  0  0  0  0  0  0  0  0  0
    0.6115    0.6841   -0.1661 C   0  0  0  0  0  0  0  0  0  0  0  0
   -1.8002    0.2152    0.3948 C   0  0  0  0  0  0  0  0  0  0  0  0
   -2.7141    1.2013    0.0501 C   0  0  0  0  0  0  0  0  0  0  0  0
   -2.1728   -1.1211    0.4378 C   0  0  0  0  0  0  0  0  0  0  0  0
   -4.0269    0.8439   -0.2578 C   0  0  0  0  0  0  0  0  0  0  0  0
   -3.4856   -1.4784    0.1301 C   0  0  0  0  0  0  0  0  0  0  0  0
   -4.4126   -0.4959   -0.2178 C   0  0  0  0  0  0  0  0  0  0  0  0
  1 15  1  0
  2 16  1  0
  3 19  1  0
  4 10  1  0
  4 11  1  0
  5 13  2  0
  6  8  1  0
  6  9  1  0
  6 12  1  0
  7 13  1  0
  7 14  1  0
  8 10  1  0
  9 11  1  0
 12 13  1  0
 14 15  2  0
 14 16  1  0
 15 17  1  0
 16 18  2  0
 17 19  2  0
 18 19  1  0
M  END
>  <PUBCHEM_COMPOUND_CID>  (1) 
49949

>  <PUBCHEM_CONFORMER_RMSD>  (1) 
0.8

>  <PUBCHEM_CONFORMER_DIVERSEORDER>  (1) 
2
5
6
4
1
3

>  <PUBCHEM_MMFF94_PARTIAL_CHARGES>  (1) 
22
1 -0.18
10 0.28
11 0.28
12 0.33
13 0.57
14 0.12
15 0.18
16 0.18
17 -0.15
18 -0.15
19 0.18
2 -0.18
3 -0.18
30 0.37
31 0.15
32 0.15
4 -0.56
5 -0.57
6 -0.81
7 -0.55
8 0.27
9 0.27

>  <PUBCHEM_EFFECTIVE_ROTOR_COUNT>  (1) 
5.2

>  <PUBCHEM_PHARMACOPHORE_FEATURES>  (1) 
6
1 4 acceptor
1 5 acceptor
1 6 cation
1 7 donor
6 14 15 16 17 18 19 rings
6 4 6 8 9 10 11 rings

>  <PUBCHEM_HEAVY_ATOM_COUNT>  (1) 
19

>  <PUBCHEM_ATOM_DEF_STEREO_COUNT>  (1) 
0

>  <PUBCHEM_ATOM_UDEF_STEREO_COUNT>  (1) 
0

>  <PUBCHEM_BOND_DEF_STEREO_COUNT>  (1) 
0

>  <PUBCHEM_BOND_UDEF_STEREO_COUNT>  (1) 
0

>  <PUBCHEM_ISOTOPIC_ATOM_COUNT>  (1) 
0

>  <PUBCHEM_COMPONENT_COUNT>  (1) 
1

>  <PUBCHEM_CACTVS_TAUTO_COUNT>  (1) 
2

>  <PUBCHEM_CONFORMER_ID>  (1) 
0000C31D00000002

>  <PUBCHEM_MMFF94_ENERGY>  (1) 
62.6593

>  <PUBCHEM_FEATURE_SELFOVERLAP>  (1) 
30.446

>  <PUBCHEM_SHAPE_FINGERPRINT>  (1) 
10 15 18200861981868097752
10366900 7 18202006564133467856
106641 1 15913319239164223738
11315181 36 17968099750332829848
11370993 70 18411136935490416642
11458722 379 18334858303301863435
12107183 9 17688870835311904144
12236239 1 17313097562320923033
13167823 11 18342455928633691854
13288520 33 18412262844224180933
13533116 47 18344145886748752306
14573314 32 18410292497590636092
14790565 3 17404587676077338681
15042514 8 18190467250072996395
15163728 17 16082753843897991759
15196674 1 18411702054270278218
15375358 24 18412266142669620826
15961568 22 17896037810195032044
17834072 33 18343020012727511196
17834072 8 18113894975085690215
17844677 252 18342182159097887752
17870717 6 18340781359328807750
19489759 90 18410572872881736472
200 152 17561081410506887067
20645477 70 17989210313714978694
21267235 1 18336271219136080251
21279426 13 18267022747920193574
221357 26 18342736316772706089
2297311 6 18412269440830048749
23402539 116 18412539912601655173
23557571 272 18342742896784377493
23559900 14 18339075024773038104
2838139 119 15647872891777114159
2871803 45 18408040706488393066
3004659 81 18261112938089315666
3286 77 17203325658809679801
34797466 226 18130519629689798708
351380 180 18343018908614863501
4214541 1 18411983516356942176
4325135 7 18113901598479090396
465052 167 17632298999199386454
5104073 3 18272931579479684112
5283173 99 18338513041139934700
559249 180 18263922146784082090
59755656 215 18334289851959676391
59755656 520 18198063569782629305
77779 3 18412546488054082352
9709674 26 18338239383066655698

>  <PUBCHEM_SHAPE_MULTIPOLES>  (1) 
374.92
12.47
2.21
0.87
6.01
0.39
-0.06
-2.83
-2.02
-1.23
0.23
0.06
-0.1
0.52

>  <PUBCHEM_SHAPE_SELFOVERLAP>  (1) 
754.082

>  <PUBCHEM_SHAPE_VOLUME>  (1) 
222.6

>  <PUBCHEM_COORDINATE_TYPE>  (1) 
2
5
10

$$$$
