49951
     RDKit          3D

 18 18  0  0  0  0  0  0  0  0999 V2000
   -1.6531   -2.8748    0.1123 Cl  0  0  0  0  0  0  0  0  0  0  0  0
   -0.9531    2.4433   -0.9099 Cl  0  0  0  0  0  0  0  0  0  0  0  0
    0.9545   -0.1535    1.4467 O   0  0  0  0  0  0  0  0  0  0  0  0
    3.4038   -0.0094    0.1849 N   0  0  0  0  0  0  0  0  0  0  0  0
   -0.0662   -0.4268   -0.6498 N   0  0  0  0  0  0  0  0  0  0  0  0
   -5.4792    0.4979    0.4543 N   0  0  0  0  0  0  0  0  0  0  0  0
    2.3013   -0.7054   -0.4775 C   0  0  0  0  0  0  0  0  0  0  0  0
    3.1813    1.4358    0.1655 C   0  0  0  0  0  0  0  0  0  0  0  0
    4.6757   -0.3395   -0.4572 C   0  0  0  0  0  0  0  0  0  0  0  0
    1.0015   -0.3956    0.2449 C   0  0  0  0  0  0  0  0  0  0  0  0
    4.3284    2.1502    0.8539 C   0  0  0  0  0  0  0  0  0  0  0  0
    4.9284   -1.8328   -0.3786 C   0  0  0  0  0  0  0  0  0  0  0  0
   -1.4338   -0.1932   -0.3707 C   0  0  0  0  0  0  0  0  0  0  0  0
   -2.2492   -1.2569   -0.0100 C   0  0  0  0  0  0  0  0  0  0  0  0
   -1.9394    1.0960   -0.4623 C   0  0  0  0  0  0  0  0  0  0  0  0
   -4.1163    0.2650    0.1762 C   0  0  0  0  0  0  0  0  0  0  0  0
   -3.5972   -1.0265    0.2649 C   0  0  0  0  0  0  0  0  0  0  0  0
   -3.2874    1.3263   -0.1875 C   0  0  0  0  0  0  0  0  0  0  0  0
  1 14  1  0
  2 15  1  0
  3 10  2  0
  4  7  1  0
  4  8  1  0
  4  9  1  0
  5 10  1  0
  5 13  1  0
  6 16  1  0
  7 10  1  0
  8 11  1  0
  9 12  1  0
 13 14  2  0
 13 15  1  0
 14 17  1  0
 15 18  2  0
 16 17  2  0
 16 18  1  0
M  END
>  <PUBCHEM_COMPOUND_CID>  (1) 
49951

>  <PUBCHEM_CONFORMER_RMSD>  (1) 
0.8

>  <PUBCHEM_CONFORMER_DIVERSEORDER>  (1) 
2
8
5
7
3
6
4
1

>  <PUBCHEM_MMFF94_PARTIAL_CHARGES>  (1) 
21
1 -0.18
10 0.57
13 0.12
14 0.18
15 0.18
16 0.1
17 -0.15
18 -0.15
2 -0.18
3 -0.57
31 0.37
32 0.15
33 0.15
34 0.4
35 0.4
4 -0.81
5 -0.55
6 -0.9
7 0.33
8 0.27
9 0.27

>  <PUBCHEM_EFFECTIVE_ROTOR_COUNT>  (1) 
6

>  <PUBCHEM_PHARMACOPHORE_FEATURES>  (1) 
6
1 3 acceptor
1 4 cation
1 5 donor
1 6 cation
1 6 donor
6 13 14 15 16 17 18 rings

>  <PUBCHEM_HEAVY_ATOM_COUNT>  (1) 
18

>  <PUBCHEM_ATOM_DEF_STEREO_COUNT>  (1) 
0

>  <PUBCHEM_ATOM_UDEF_STEREO_COUNT>  (1) 
0

>  <PUBCHEM_BOND_DEF_STEREO_COUNT>  (1) 
0

>  <PUBCHEM_BOND_UDEF_STEREO_COUNT>  (1) 
0

>  <PUBCHEM_ISOTOPIC_ATOM_COUNT>  (1) 
0

>  <PUBCHEM_COMPONENT_COUNT>  (1) 
1

>  <PUBCHEM_CACTVS_TAUTO_COUNT>  (1) 
2

>  <PUBCHEM_CONFORMER_ID>  (1) 
0000C31F00000002

>  <PUBCHEM_MMFF94_ENERGY>  (1) 
71.1118

>  <PUBCHEM_FEATURE_SELFOVERLAP>  (1) 
30.446

>  <PUBCHEM_SHAPE_FINGERPRINT>  (1) 
10608611 8 18412539929554456460
11132069 177 18261106421769281397
11405975 8 18412824698876760346
12011746 2 18336260168238027269
12173636 292 18408879620864467885
12236239 1 17240772761076852591
12969540 114 18188469321359183429
13081056 2 18411418401697649740
13533116 47 17604421891110369707
14341114 176 18410580574122010628
15042514 8 18262528099664492443
15196674 1 18411981394537317045
15536298 74 18411138069356469156
1813 80 17095239254482920284
18186145 218 18186512211936176302
19141452 34 18341614845235816439
19784866 170 18262242097781072033
20510252 161 18340769230911148649
20645477 56 18408602573698313166
20645477 70 17632583751610859294
21065198 57 18412545427091548294
21267235 1 18261404329633556479
21652331 79 18408319999342350284
22224240 67 18411428306910288075
2297311 6 18335996267713545630
23175994 123 17489873712907955521
23402539 116 18412258428913567415
23557571 272 18268440207597733462
23559900 14 18341893004951266690
2838139 119 15984542166786071809
3545911 37 18412545440198106632
4214541 1 18411982455499818654
474 4 17386573608105674124
5104073 3 18411701019046004146
58051976 100 18413672413630762134
633830 44 17386007316683299478
77779 3 18412545431275654814
9709674 26 18342181059375426118

>  <PUBCHEM_SHAPE_MULTIPOLES>  (1) 
353.36
10.45
2.49
0.88
4.35
0.18
-0.08
-0.36
-0.89
0.38
0.14
0.26
-0.18
1.03

>  <PUBCHEM_SHAPE_SELFOVERLAP>  (1) 
700.428

>  <PUBCHEM_SHAPE_VOLUME>  (1) 
213.3

>  <PUBCHEM_COORDINATE_TYPE>  (1) 
2
5
10

$$$$
