49958
     RDKit          3D

 22 25  0  0  0  0  0  0  0  0999 V2000
   -2.0436   -3.4105    1.2560 Cl  0  0  0  0  0  0  0  0  0  0  0  0
    3.1376   -2.7389   -0.2460 F   0  0  0  0  0  0  0  0  0  0  0  0
    0.4145    0.4008   -0.0331 C   0  0  0  0  0  0  0  0  0  0  0  0
   -0.0216   -0.9411   -0.1578 C   0  0  0  0  0  0  0  0  0  0  0  0
   -0.5956    1.3945    0.0329 C   0  0  0  0  0  0  0  0  0  0  0  0
   -1.3928   -1.2471   -0.2124 C   0  0  0  0  0  0  0  0  0  0  0  0
   -1.9700    1.0935   -0.0208 C   0  0  0  0  0  0  0  0  0  0  0  0
   -2.3733   -0.2481   -0.1459 C   0  0  0  0  0  0  0  0  0  0  0  0
    1.8276    0.6783    0.0193 C   0  0  0  0  0  0  0  0  0  0  0  0
    2.7486   -0.3994   -0.0541 C   0  0  0  0  0  0  0  0  0  0  0  0
    0.9156   -1.9754   -0.2276 C   0  0  0  0  0  0  0  0  0  0  0  0
    2.2795   -1.7091   -0.1764 C   0  0  0  0  0  0  0  0  0  0  0  0
   -0.3030    2.8617    0.1659 C   0  0  0  0  0  0  0  0  0  0  0  0
   -1.8309   -2.6825   -0.3463 C   0  0  0  0  0  0  0  0  0  0  0  0
   -2.9490    2.0999    0.0471 C   0  0  0  0  0  0  0  0  0  0  0  0
   -3.7437   -0.5554   -0.2004 C   0  0  0  0  0  0  0  0  0  0  0  0
    2.3805    1.9781    0.1414 C   0  0  0  0  0  0  0  0  0  0  0  0
    4.1330   -0.1630   -0.0053 C   0  0  0  0  0  0  0  0  0  0  0  0
   -4.3061    1.7815   -0.0083 C   0  0  0  0  0  0  0  0  0  0  0  0
   -4.7033    0.4543   -0.1319 C   0  0  0  0  0  0  0  0  0  0  0  0
    3.7596    2.1995    0.1886 C   0  0  0  0  0  0  0  0  0  0  0  0
    4.6363    1.1284    0.1152 C   0  0  0  0  0  0  0  0  0  0  0  0
  1 14  1  0
  2 12  1  0
  3  4  1  0
  3  5  2  0
  3  9  1  0
  4  6  2  0
  4 11  1  0
  5  7  1  0
  5 13  1  0
  6  8  1  0
  6 14  1  0
  7  8  2  0
  7 15  1  0
  8 16  1  0
  9 10  2  0
  9 17  1  0
 10 12  1  0
 10 18  1  0
 11 12  2  0
 15 19  2  0
 16 20  2  0
 17 21  2  0
 18 22  2  0
 19 20  1  0
 21 22  1  0
M  END
>  <PUBCHEM_COMPOUND_CID>  (1) 
49958

>  <PUBCHEM_CONFORMER_RMSD>  (1) 
0.6

>  <PUBCHEM_CONFORMER_DIVERSEORDER>  (1) 
1
2

>  <PUBCHEM_MMFF94_PARTIAL_CHARGES>  (1) 
25
1 -0.29
11 -0.15
12 0.19
13 0.14
14 0.43
15 -0.15
16 -0.15
17 -0.15
18 -0.15
19 -0.15
2 -0.19
20 -0.15
21 -0.15
22 -0.15
23 0.15
29 0.15
30 0.15
31 0.15
32 0.15
33 0.15
34 0.15
35 0.15
36 0.15
5 -0.14
6 -0.14

>  <PUBCHEM_EFFECTIVE_ROTOR_COUNT>  (1) 
1

>  <PUBCHEM_PHARMACOPHORE_FEATURES>  (1) 
4
6 3 4 5 6 7 8 rings
6 3 4 9 10 11 12 rings
6 7 8 15 16 19 20 rings
6 9 10 17 18 21 22 rings

>  <PUBCHEM_HEAVY_ATOM_COUNT>  (1) 
22

>  <PUBCHEM_ATOM_DEF_STEREO_COUNT>  (1) 
0

>  <PUBCHEM_ATOM_UDEF_STEREO_COUNT>  (1) 
0

>  <PUBCHEM_BOND_DEF_STEREO_COUNT>  (1) 
0

>  <PUBCHEM_BOND_UDEF_STEREO_COUNT>  (1) 
0

>  <PUBCHEM_ISOTOPIC_ATOM_COUNT>  (1) 
0

>  <PUBCHEM_COMPONENT_COUNT>  (1) 
1

>  <PUBCHEM_CACTVS_TAUTO_COUNT>  (1) 
1

>  <PUBCHEM_CONFORMER_ID>  (1) 
0000C32600000001

>  <PUBCHEM_MMFF94_ENERGY>  (1) 
107.6118

>  <PUBCHEM_FEATURE_SELFOVERLAP>  (1) 
20.37

>  <PUBCHEM_SHAPE_FINGERPRINT>  (1) 
10411042 1 16970549912020335639
10608611 8 18411698781320432932
10616163 171 18339361988686024982
10967382 1 18411981351608756092
1100329 8 17404586576153740936
11112241 14 16197595878644930704
11370993 70 18410852157335299421
11680986 33 18410302401658808318
12403259 226 18120652422877921676
12403814 3 17749101201818614709
12633257 1 18261941982319359898
12788726 201 17488752168114340985
13140716 1 18338508755205211080
138480 1 17618221706821265823
14178342 30 18263915712854195648
14223421 5 18339367473412041866
14787075 74 18342733031787284829
14790565 3 18196940976747436017
15196674 1 18340205194114346789
15442244 35 18196371420880293658
15536298 74 18271243824561734292
16087824 20 18340766066369844223
16945 1 18410863169636682190
17492 89 18412543184998054183
19591789 44 18338234834864860261
20510252 161 18271244915700030305
20602899 9 15913328017850465775
20715895 44 17903626389951259789
20739085 24 18048627857471394009
21267235 1 18412271626809815582
21421861 104 18042677317758065586
221490 88 18338524036266313754
22182313 1 18199208323915153254
23227448 37 18341048605120850439
2334 1 18195527232125851262
23366157 5 18186803543989607190
23402539 116 18272079509270543789
23558518 356 17970630915951242890
23559900 14 18270960138146598382
2748010 2 18269276931561897766
335352 9 18411699842725890694
34934 24 18411694409075348150
350125 39 18194686956081827972
4340502 62 16950285088043680657
474 4 17967255333913491932
5104073 3 18338518538929565929
59755656 215 18412548683124937564
633830 44 18198619926670354189
69090 78 18411133628243941573
7364860 26 18342456989828146166
9709674 26 18412830191733905854
9981440 41 18338507664088599330

>  <PUBCHEM_SHAPE_MULTIPOLES>  (1) 
447.35
8.21
3.57
0.72
1.38
1.52
-0.09
-2.7
-0.03
-0.86
-0.55
-0.18
0.27
0.58

>  <PUBCHEM_SHAPE_SELFOVERLAP>  (1) 
1012.102

>  <PUBCHEM_SHAPE_VOLUME>  (1) 
237.3

>  <PUBCHEM_COORDINATE_TYPE>  (1) 
2
5
10

$$$$
