49953
     RDKit          3D

 25 26  0  0  0  0  0  0  0  0999 V2000
    1.1787   -3.2001    0.3590 Cl  0  0  0  0  0  0  0  0  0  0  0  0
    1.2308    1.9782   -1.3721 Cl  0  0  0  0  0  0  0  0  0  0  0  0
    3.2696    0.0292    1.4508 O   0  0  0  0  0  0  0  0  0  0  0  0
    5.7737    0.3608    0.3407 N   0  0  0  0  0  0  0  0  0  0  0  0
    2.4755   -0.6700   -0.6451 N   0  0  0  0  0  0  0  0  0  0  0  0
   -3.0868   -0.4098   -0.0334 N   0  0  0  0  0  0  0  0  0  0  0  0
    4.8359   -0.5721   -0.2830 C   0  0  0  0  0  0  0  0  0  0  0  0
    7.1280    0.1381   -0.1641 C   0  0  0  0  0  0  0  0  0  0  0  0
    5.3583    1.7419    0.0980 C   0  0  0  0  0  0  0  0  0  0  0  0
    3.4500   -0.3624    0.3022 C   0  0  0  0  0  0  0  0  0  0  0  0
    7.5996   -1.2751    0.1341 C   0  0  0  0  0  0  0  0  0  0  0  0
    6.3221    2.7257    0.7395 C   0  0  0  0  0  0  0  0  0  0  0  0
    1.0702   -0.6045   -0.4907 C   0  0  0  0  0  0  0  0  0  0  0  0
   -1.6861   -0.4752   -0.1871 C   0  0  0  0  0  0  0  0  0  0  0  0
   -3.8464    0.7652   -0.3295 C   0  0  0  0  0  0  0  0  0  0  0  0
    0.3798   -1.7181   -0.0327 C   0  0  0  0  0  0  0  0  0  0  0  0
    0.4030    0.5730   -0.7993 C   0  0  0  0  0  0  0  0  0  0  0  0
   -1.0052   -1.6530    0.1199 C   0  0  0  0  0  0  0  0  0  0  0  0
   -0.9821    0.6378   -0.6468 C   0  0  0  0  0  0  0  0  0  0  0  0
   -5.3032    0.5398   -0.0330 C   0  0  0  0  0  0  0  0  0  0  0  0
   -6.1360    0.0427   -1.0273 C   0  0  0  0  0  0  0  0  0  0  0  0
   -5.7984    0.8308    1.2315 C   0  0  0  0  0  0  0  0  0  0  0  0
   -7.4873   -0.1668   -0.7523 C   0  0  0  0  0  0  0  0  0  0  0  0
   -7.1498    0.6213    1.5064 C   0  0  0  0  0  0  0  0  0  0  0  0
   -7.9942    0.1225    0.5144 C   0  0  0  0  0  0  0  0  0  0  0  0
  1 16  1  0
  2 17  1  0
  3 10  2  0
  4  7  1  0
  4  8  1  0
  4  9  1  0
  5 10  1  0
  5 13  1  0
  6 14  1  0
  6 15  1  0
  7 10  1  0
  8 11  1  0
  9 12  1  0
 13 16  2  0
 13 17  1  0
 14 18  2  0
 14 19  1  0
 15 20  1  0
 16 18  1  0
 17 19  2  0
 20 21  2  0
 20 22  1  0
 21 23  1  0
 22 24  2  0
 23 25  2  0
 24 25  1  0
M  END
>  <PUBCHEM_COMPOUND_CID>  (1) 
49953

>  <PUBCHEM_CONFORMER_RMSD>  (1) 
1

>  <PUBCHEM_CONFORMER_DIVERSEORDER>  (1) 
1
24
28
21
19
23
25
9
5
26
13
22
14
27
8
3
15
2
17
16
18
11
12
4
20
7
10
6

>  <PUBCHEM_MMFF94_PARTIAL_CHARGES>  (1) 
32
1 -0.18
10 0.57
13 0.12
14 0.1
15 0.51
16 0.18
17 0.18
18 -0.15
19 -0.15
2 -0.18
20 -0.14
21 -0.15
22 -0.15
23 -0.15
24 -0.15
25 -0.15
3 -0.57
38 0.37
4 -0.81
41 0.4
42 0.15
43 0.15
44 0.15
45 0.15
46 0.15
47 0.15
48 0.15
5 -0.55
6 -0.87
7 0.33
8 0.27
9 0.27

>  <PUBCHEM_EFFECTIVE_ROTOR_COUNT>  (1) 
9

>  <PUBCHEM_PHARMACOPHORE_FEATURES>  (1) 
7
1 3 acceptor
1 4 cation
1 5 donor
1 6 cation
1 6 donor
6 13 14 16 17 18 19 rings
6 20 21 22 23 24 25 rings

>  <PUBCHEM_HEAVY_ATOM_COUNT>  (1) 
25

>  <PUBCHEM_ATOM_DEF_STEREO_COUNT>  (1) 
0

>  <PUBCHEM_ATOM_UDEF_STEREO_COUNT>  (1) 
0

>  <PUBCHEM_BOND_DEF_STEREO_COUNT>  (1) 
0

>  <PUBCHEM_BOND_UDEF_STEREO_COUNT>  (1) 
0

>  <PUBCHEM_ISOTOPIC_ATOM_COUNT>  (1) 
0

>  <PUBCHEM_COMPONENT_COUNT>  (1) 
1

>  <PUBCHEM_CACTVS_TAUTO_COUNT>  (1) 
2

>  <PUBCHEM_CONFORMER_ID>  (1) 
0000C32100000001

>  <PUBCHEM_MMFF94_ENERGY>  (1) 
90.1046

>  <PUBCHEM_FEATURE_SELFOVERLAP>  (1) 
35.52

>  <PUBCHEM_SHAPE_FINGERPRINT>  (1) 
10 15 17821729459212420505
106641 1 17894634772436162433
10670039 82 14620517779683715867
11315181 36 18059856178426350213
11646440 116 18408610253437942265
12236239 1 17988645160675351895
12539765 74 17704082793087658700
12925494 130 18053940938159282200
13533116 47 18059856100057382782
13540713 4 17607518038571214231
13617811 41 17895489033754234054
14123256 10 12535629366753430493
14170010 4 18261111893589447189
14251764 18 18343301461427924836
14251764 46 18344145882063187038
14849402 71 18200876291919153033
14933364 13 16774079562131531177
15183329 4 14908188555164841986
15301273 46 16515683317086783378
15840311 113 18334296504537074572
15849732 13 18040435498883886551
20281389 69 18408882932131544712
21033648 29 18270390728588413570
21267235 1 17967535641128265244
21521721 280 18413108380938880608
21637258 2 13190336894059667009
21792934 111 18260537919003589980
22224240 67 18334856130000893339
23622692 88 17894631474017200295
24771293 8 18411982493986200412
3178227 256 18113627785080346817
335352 9 18409731768821070350
34797466 226 17632583746820052348
397830 11 17241341316010321425
4073 2 18342458187839932239
4325135 7 17346597470175297881
5758199 1 18413672413730611931
59682541 35 18260272971387588691
59755656 520 18272363183239186575

>  <PUBCHEM_SHAPE_MULTIPOLES>  (1) 
497.42
23.44
2.16
1.1
11.45
0.52
0.13
-6.42
4.88
-3.61
0.2
0.99
-0.34
-0.02

>  <PUBCHEM_SHAPE_SELFOVERLAP>  (1) 
1016.035

>  <PUBCHEM_SHAPE_VOLUME>  (1) 
289.5

>  <PUBCHEM_COORDINATE_TYPE>  (1) 
2
5
10

$$$$
