4996
     RDKit          3D

 19 19  0  0  0  0  0  0  0  0999 V2000
   -2.2592    1.4236    0.2190 O   0  0  0  0  0  0  0  0  0  0  0  0
    7.3233   -0.0113   -1.2471 O   0  0  0  0  0  0  0  0  0  0  0  0
    8.3979   -1.0487    1.0122 O   0  0  0  0  0  0  0  0  0  0  0  0
   -3.2192   -0.6826   -0.1742 N   0  0  0  0  0  0  0  0  0  0  0  0
    7.1832   -0.3507    1.0355 N   0  0  0  0  0  0  0  0  0  0  0  0
   -6.3863    1.1502    0.3763 N   0  0  0  0  0  0  0  0  0  0  0  0
    1.7013   -0.2657   -0.2967 C   0  0  0  0  0  0  0  0  0  0  0  0
    2.8875    0.6881   -0.1372 C   0  0  0  0  0  0  0  0  0  0  0  0
    0.3694    0.4758   -0.1466 C   0  0  0  0  0  0  0  0  0  0  0  0
    4.2197   -0.0579   -0.2562 C   0  0  0  0  0  0  0  0  0  0  0  0
   -0.8335   -0.4592   -0.2667 C   0  0  0  0  0  0  0  0  0  0  0  0
    5.4234    0.8645   -0.0710 C   0  0  0  0  0  0  0  0  0  0  0  0
   -2.1751    0.2298   -0.0495 C   0  0  0  0  0  0  0  0  0  0  0  0
    6.7425    0.1266   -0.1726 C   0  0  0  0  0  0  0  0  0  0  0  0
   -4.6055   -0.4302   -0.0429 C   0  0  0  0  0  0  0  0  0  0  0  0
   -5.5371   -1.4519   -0.1906 C   0  0  0  0  0  0  0  0  0  0  0  0
   -5.0773    0.8420    0.2376 C   0  0  0  0  0  0  0  0  0  0  0  0
   -6.8927   -1.1740   -0.0552 C   0  0  0  0  0  0  0  0  0  0  0  0
   -7.2623    0.1315    0.2259 C   0  0  0  0  0  0  0  0  0  0  0  0
  1 13  2  0
  2 14  2  0
  3  5  1  0
  4 13  1  0
  4 15  1  0
  5 14  1  0
  6 17  2  0
  6 19  1  0
  7  8  1  0
  7  9  1  0
  8 10  1  0
  9 11  1  0
 10 12  1  0
 11 13  1  0
 12 14  1  0
 15 16  2  0
 15 17  1  0
 16 18  1  0
 18 19  2  0
M  END
>  <PUBCHEM_COMPOUND_CID>  (1) 
4996

>  <PUBCHEM_CONFORMER_RMSD>  (1) 
1

>  <PUBCHEM_CONFORMER_DIVERSEORDER>  (1) 
1
35
151
3
277
174
25
203
149
7
259
147
132
159
146
172
235
39
6
93
190
267
221
43
90
261
104
214
22
175
194
112
205
71
46
113
274
265
70
223
37
238
145
66
228
248
209
275
121
234
8
252
207
200
87
81
59
18
53
40
125
264
217
195
117
276
242
191
160
69
161
211
258
89
130
177
173
31
110
254
279
269
167
229
47
29
170
206
251
247
99
179
41
75
108
58
106
240
74
176
143
187
182
243
128
260
133
120
52
152
114
272
270
150
225
188
38
193
262
45
5
268
55
124
135
255
96
232
122
204
84
2
64
119
118
210
184
213
181
134
162
129
77
26
61
263
249
4
65
237
196
9
168
49
148
171
212
226
67
183
48
23
16
241
62
192
222
57
11
60
166
227
28
105
56
180
34
98
157
10
17
273
256
72
218
253
86
24
189
198
73
154
131
79
97
88
76
100
14
220
186
158
83
219
169
231
137
12
101
239
21
51
91
32
257
94
85
92
245
36
42
44
27
230
178
80
63
20
244
165
78
13
103
208
102
50
216
266
197
126
111
136
163
271
95
30
246
278
82
127
33
19
140
68
202
116
236
185
123
201
107
144
115
15
153
199
54
233
215
139
109
155
250
156
141
142
164
224
138

>  <PUBCHEM_MMFF94_PARTIAL_CHARGES>  (1) 
22
1 -0.57
11 0.06
12 0.06
13 0.57
14 0.57
15 0.12
16 -0.15
17 0.16
18 -0.15
19 0.16
2 -0.57
3 -0.44
32 0.37
33 0.37
34 0.15
35 0.15
36 0.15
37 0.15
38 0.4
4 -0.55
5 -0.39
6 -0.62

>  <PUBCHEM_EFFECTIVE_ROTOR_COUNT>  (1) 
10

>  <PUBCHEM_PHARMACOPHORE_FEATURES>  (1) 
8
1 1 acceptor
1 2 acceptor
1 4 donor
1 5 donor
1 6 acceptor
3 7 9 11 hydrophobe
3 8 10 12 hydrophobe
6 6 15 16 17 18 19 rings

>  <PUBCHEM_HEAVY_ATOM_COUNT>  (1) 
19

>  <PUBCHEM_ATOM_DEF_STEREO_COUNT>  (1) 
0

>  <PUBCHEM_ATOM_UDEF_STEREO_COUNT>  (1) 
0

>  <PUBCHEM_BOND_DEF_STEREO_COUNT>  (1) 
0

>  <PUBCHEM_BOND_UDEF_STEREO_COUNT>  (1) 
0

>  <PUBCHEM_ISOTOPIC_ATOM_COUNT>  (1) 
0

>  <PUBCHEM_COMPONENT_COUNT>  (1) 
1

>  <PUBCHEM_CACTVS_TAUTO_COUNT>  (1) 
6

>  <PUBCHEM_CONFORMER_ID>  (1) 
0000138400000001

>  <PUBCHEM_MMFF94_ENERGY>  (1) 
35.5391

>  <PUBCHEM_FEATURE_SELFOVERLAP>  (1) 
40.596

>  <PUBCHEM_SHAPE_FINGERPRINT>  (1) 
10 15 17846775239630696112
10066227 49 13407338652592029952
10299344 5 18113900463927131426
11315181 36 10375870784569737167
11524674 6 16845574240386275847
11719270 70 17989209235699650486
12091667 2 17022619780644938701
12166972 35 18113338635040075748
125118 31 16845294947390075496
13073987 5 16988291867604800250
13533116 47 17603576405597225962
13885169 127 18342740684781008193
14251764 18 18333449846023104890
14251764 46 17632578253973364782
14729087 3 16988846055851506745
15419008 47 17275099514281136824
15716309 27 18113899372615022231
17093844 174 17489868241984647051
20281389 69 18334856134607298364
20621476 8 17749105578284501693
20735858 18 18060699494506087102
21315763 28 18409166645002403549
22224240 67 15769774663020547348
23035841 295 18334012804371119603
23521765 1 18341896298478928828
28498 318 17676764301983895766
33532 11 17895187780368852178
33684 2 18410292510185302999
4073 2 18188213229233490578
4325135 7 18407760339602422583
57583515 80 18261115188240319457
59755656 520 17894627093230433227
8209 1 18410294717882954261

>  <PUBCHEM_SHAPE_MULTIPOLES>  (1) 
358.46
26.83
1.15
0.77
26.09
0
-0.02
4.33
-3.24
-1.27
-0.07
1.13
0.08
-0.84

>  <PUBCHEM_SHAPE_SELFOVERLAP>  (1) 
712.409

>  <PUBCHEM_SHAPE_VOLUME>  (1) 
210.2

>  <PUBCHEM_COORDINATE_TYPE>  (1) 
2
5
10

$$$$
