49962
     RDKit          3D

 28 30  0  0  1  0  0  0  0  0999 V2000
   -4.1631    2.6469    0.8439 F   0  0  0  0  0  0  0  0  0  0  0  0
   -3.5950    1.8749   -1.2857 F   0  0  0  0  0  0  0  0  0  0  0  0
   -0.0211   -1.7893    0.1699 O   0  0  0  0  0  0  0  0  0  0  0  0
   -1.0791   -3.8148    0.5260 O   0  0  0  0  0  0  0  0  0  0  0  0
    3.1921    2.0085    0.3131 O   0  0  0  0  0  0  0  0  0  0  0  0
    1.7905   -3.7636    2.2577 N   0  0  0  0  0  0  0  0  0  0  0  0
   -3.2282   -1.6171   -0.6457 C   0  0  0  0  0  0  0  0  0  0  0  0
   -2.4135   -0.4731   -0.1178 C   0  0  0  0  0  0  0  0  0  0  0  0
   -2.3421   -1.8129    0.5424 C   0  0  0  0  0  0  0  0  0  0  0  0
   -4.7064   -1.5500   -0.4555 C   0  0  0  0  0  0  0  0  0  0  0  0
   -2.8213   -2.2919   -1.9135 C   0  0  0  0  0  0  0  0  0  0  0  0
   -3.0530    0.6185    0.6014 C   0  0  0  0  0  0  0  0  0  0  0  0
   -1.0873   -2.5972    0.4146 C   0  0  0  0  0  0  0  0  0  0  0  0
   -3.6007    1.7087    0.0535 C   0  0  0  0  0  0  0  0  0  0  0  0
    1.2379   -2.4616    0.0314 C   0  0  0  0  0  0  0  0  0  0  0  0
    2.3011   -1.4809   -0.3314 C   0  0  0  0  0  0  0  0  0  0  0  0
    1.5416   -3.1934    1.2781 C   0  0  0  0  0  0  0  0  0  0  0  0
    2.2485   -0.1789    0.1666 C   0  0  0  0  0  0  0  0  0  0  0  0
    3.3485   -1.8658   -1.1684 C   0  0  0  0  0  0  0  0  0  0  0  0
    3.2433    0.7381   -0.1724 C   0  0  0  0  0  0  0  0  0  0  0  0
    4.3431   -0.9486   -1.5075 C   0  0  0  0  0  0  0  0  0  0  0  0
    4.2905    0.3533   -1.0096 C   0  0  0  0  0  0  0  0  0  0  0  0
    1.9729    2.6641    0.2738 C   0  0  0  0  0  0  0  0  0  0  0  0
    1.2097    2.5988   -0.8778 C   0  0  0  0  0  0  0  0  0  0  0  0
    1.5500    3.3673    1.3871 C   0  0  0  0  0  0  0  0  0  0  0  0
   -0.0184    3.2590   -0.9174 C   0  0  0  0  0  0  0  0  0  0  0  0
    0.3219    4.0276    1.3476 C   0  0  0  0  0  0  0  0  0  0  0  0
   -0.4624    3.9734    0.1954 C   0  0  0  0  0  0  0  0  0  0  0  0
  1 14  1  0
  2 14  1  0
  3 13  1  0
  3 15  1  0
  4 13  2  0
  5 20  1  0
  5 23  1  0
  6 17  3  0
  7  8  1  0
  7  9  1  0
  7 10  1  0
  7 11  1  0
  8  9  1  0
  8 12  1  0
  9 13  1  0
 12 14  2  3
 15 16  1  0
 15 17  1  0
 16 18  2  0
 16 19  1  0
 18 20  1  0
 19 21  2  0
 20 22  2  0
 21 22  1  0
 23 24  2  0
 23 25  1  0
 24 26  1  0
 25 27  2  0
 26 28  2  0
 27 28  1  0
M  END
>  <PUBCHEM_COMPOUND_CID>  (1) 
49962

>  <PUBCHEM_CONFORMER_RMSD>  (1) 
1.2

>  <PUBCHEM_CONFORMER_DIVERSEORDER>  (1) 
1
248
342
372
607
455
41
91
237
194
144
20
10
71
363
72
163
30
155
523
561
586
101
420
343
601
160
616
117
362
98
571
327
562
495
216
202
63
236
215
407
38
355
43
322
224
537
139
221
547
19
206
388
384
516
45
271
102
219
543
13
42
408
469
631
66
405
577
171
200
53
58
76
8
509
490
450
24
137
299
245
145
622
223
150
69
643
17
167
213
9
31
184
319
80
241
112
49
192
449
326
61
361
36
337
26
129
6
140
576
545
402
55
54
210
302
477
56
11
141
16
97
521
185
478
22
360
651
593
60
135
34
351
220
5
107
187
474
47
598
87
285
12
96
563
486
138
312
641
37
147
635
462
143
311
128
32
4
447
2
15
260
51
18
153
359
471
376
493
90
40
166
151
25
131
267
275
93
23
81
249
116
526
320
466
157
14
375
29
654
115
603
74
582
256
182
358

>  <PUBCHEM_MMFF94_PARTIAL_CHARGES>  (1) 
40
1 -0.15
10 0.09
11 0.09
12 -0.19
13 0.72
14 0.3
15 0.62
16 -0.14
17 0.36
18 -0.15
19 -0.15
2 -0.15
20 0.08
21 -0.15
22 -0.15
23 0.08
24 -0.15
25 -0.15
26 -0.15
27 -0.15
28 -0.15
29 0.1
3 -0.43
30 0.1
37 0.15
39 0.15
4 -0.57
40 0.15
41 0.15
42 0.15
43 0.15
44 0.15
45 0.15
46 0.15
47 0.15
5 -0.17
6 -0.56
7 -0.19
8 -0.06
9 -0.1

>  <PUBCHEM_EFFECTIVE_ROTOR_COUNT>  (1) 
7.6

>  <PUBCHEM_PHARMACOPHORE_FEATURES>  (1) 
6
1 4 acceptor
1 5 acceptor
1 6 acceptor
3 7 10 11 hydrophobe
6 16 18 19 20 21 22 rings
6 23 24 25 26 27 28 rings

>  <PUBCHEM_HEAVY_ATOM_COUNT>  (1) 
28

>  <PUBCHEM_ATOM_DEF_STEREO_COUNT>  (1) 
2

>  <PUBCHEM_ATOM_UDEF_STEREO_COUNT>  (1) 
1

>  <PUBCHEM_BOND_DEF_STEREO_COUNT>  (1) 
0

>  <PUBCHEM_BOND_UDEF_STEREO_COUNT>  (1) 
0

>  <PUBCHEM_ISOTOPIC_ATOM_COUNT>  (1) 
0

>  <PUBCHEM_COMPONENT_COUNT>  (1) 
1

>  <PUBCHEM_CACTVS_TAUTO_COUNT>  (1) 
1

>  <PUBCHEM_CONFORMER_ID>  (1) 
0000C32A00000001

>  <PUBCHEM_MMFF94_ENERGY>  (1) 
76.0388

>  <PUBCHEM_FEATURE_SELFOVERLAP>  (1) 
30.447

>  <PUBCHEM_SHAPE_FINGERPRINT>  (1) 
1100329 8 18339931415460834032
11135609 187 16828671723516712231
11221954 11 17400924592864258890
11370993 70 17548406463621219921
11513181 2 17338153001445557695
12038231 1 18411139129975949321
12156800 1 15951527113257124417
12539773 59 17558849505293018243
12553582 1 18268426828463733573
12788726 201 18052824637297922224
13122387 1 18266737991694073893
13140716 1 18265607676661195059
13402501 40 18193553591479497068
1361 2 16613358780016520735
14466204 15 18337099168603339602
14725015 67 18048020059120769307
14931854 50 18410299120208596140
19319366 153 18043548130476906442
19930381 70 17403739342436180039
20567600 299 17912928567353498900
20764821 26 18048011022356597205
21585483 110 17833274125869312213
21860390 5 18055923331864076806
22113638 7 16966035321064570356
221357 26 18342182205914961543
22749437 52 17474663331068784753
23536364 44 17619958188480753564
23559900 14 17981042238757336129
238 59 17767397251197921726
238918 7 17840854493937864032
35225 105 17687462360573909820
508706 21 18334856177160890709
7226269 152 18408327675329713838
9709674 26 18124878120925514959
9981440 41 16976448258983790752

>  <PUBCHEM_SHAPE_MULTIPOLES>  (1) 
539.09
7.74
6.24
1.46
3.17
2.82
-0.11
-0.87
2.64
-0.7
-2.3
-0.34
-0.65
0.13

>  <PUBCHEM_SHAPE_SELFOVERLAP>  (1) 
1159.342

>  <PUBCHEM_SHAPE_VOLUME>  (1) 
296.3

>  <PUBCHEM_COORDINATE_TYPE>  (1) 
2
5
10

$$$$
