49968
     RDKit          3D

 18 18  0  0  0  0  0  0  0  0999 V2000
    1.9911    1.9336    0.1278 N   0  0  0  0  0  0  0  0  0  0  0  0
   -2.6567    1.3594   -0.1158 N   0  0  0  0  0  0  0  0  0  0  0  0
   -0.3367    1.6779    0.0053 N   0  0  0  0  0  0  0  0  0  0  0  0
   -1.2703   -0.5312   -0.0731 N   0  0  0  0  0  0  0  0  0  0  0  0
    1.1080   -0.2375    0.0520 N   0  0  0  0  0  0  0  0  0  0  0  0
    0.1666   -2.3836   -0.0247 N   0  0  0  0  0  0  0  0  0  0  0  0
    2.5349   -3.4856    0.0821 N   0  0  0  0  0  0  0  0  0  0  0  0
    3.3547    1.4540    0.1923 C   0  0  0  0  0  0  0  0  0  0  0  0
   -3.8370    0.5564   -0.1885 C   0  0  0  0  0  0  0  0  0  0  0  0
    4.2442    2.5464    0.7710 C   0  0  0  0  0  0  0  0  0  0  0  0
    3.8157    1.0425   -1.2000 C   0  0  0  0  0  0  0  0  0  0  0  0
   -4.9789    1.3924   -0.7512 C   0  0  0  0  0  0  0  0  0  0  0  0
   -4.1729    0.0190    1.1966 C   0  0  0  0  0  0  0  0  0  0  0  0
    0.8884    1.1001    0.0595 C   0  0  0  0  0  0  0  0  0  0  0  0
   -1.3581    0.8087   -0.0587 C   0  0  0  0  0  0  0  0  0  0  0  0
   -0.0071   -0.9828   -0.0150 C   0  0  0  0  0  0  0  0  0  0  0  0
   -0.9728   -3.2801   -0.0945 C   0  0  0  0  0  0  0  0  0  0  0  0
    1.4868   -2.9896    0.0348 C   0  0  0  0  0  0  0  0  0  0  0  0
  1  8  1  0
  1 14  1  0
  2  9  1  0
  2 15  1  0
  3 14  2  0
  3 15  1  0
  4 15  2  0
  4 16  1  0
  5 14  1  0
  5 16  2  0
  6 16  1  0
  6 17  1  0
  6 18  1  0
  7 18  3  0
  8 10  1  0
  8 11  1  0
  9 12  1  0
  9 13  1  0
M  END
>  <PUBCHEM_COMPOUND_CID>  (1) 
49968

>  <PUBCHEM_CONFORMER_RMSD>  (1) 
0.6

>  <PUBCHEM_CONFORMER_DIVERSEORDER>  (1) 
1
125
124
109
142
114
119
40
101
103
70
140
110
12
105
62
128
35
86
123
24
19
38
132
97
14
56
138
99
36
80
32
71
30
137
131
141
127
68
93
4
115
98
129
139
42
113
81
108
47
96
91
122
104
95
37
133
111
3
79
73
16
135
55
117
57
143
126
53
82
58
41
136
69
85
116
67
106
61
102
130
89
9
112
84
118
87
100
6
54
72
66
78
26
121
134
49
15
10
120
94
46
76
74
44
21
25
92
48
90
50
88
34
52
83
43
64
77
13
51
18
33
60
29
63
28
39
65
8
45
75
31
7
27
107
59
22
20
11
17
5
23
2

>  <PUBCHEM_MMFF94_PARTIAL_CHARGES>  (1) 
16
1 -0.87
14 0.72
15 0.72
16 0.72
17 0.37
18 0.62
2 -0.87
21 0.4
22 0.4
3 -0.62
4 -0.62
5 -0.62
6 -0.53
7 -0.56
8 0.37
9 0.37

>  <PUBCHEM_EFFECTIVE_ROTOR_COUNT>  (1) 
5

>  <PUBCHEM_PHARMACOPHORE_FEATURES>  (1) 
9
1 1 donor
1 2 donor
1 7 acceptor
3 8 10 11 hydrophobe
3 9 12 13 hydrophobe
4 1 3 5 14 cation
4 2 3 4 15 cation
4 4 5 6 16 cation
6 3 4 5 14 15 16 rings

>  <PUBCHEM_HEAVY_ATOM_COUNT>  (1) 
18

>  <PUBCHEM_ATOM_DEF_STEREO_COUNT>  (1) 
0

>  <PUBCHEM_ATOM_UDEF_STEREO_COUNT>  (1) 
0

>  <PUBCHEM_BOND_DEF_STEREO_COUNT>  (1) 
0

>  <PUBCHEM_BOND_UDEF_STEREO_COUNT>  (1) 
0

>  <PUBCHEM_ISOTOPIC_ATOM_COUNT>  (1) 
0

>  <PUBCHEM_COMPONENT_COUNT>  (1) 
1

>  <PUBCHEM_CACTVS_TAUTO_COUNT>  (1) 
5

>  <PUBCHEM_CONFORMER_ID>  (1) 
0000C33000000001

>  <PUBCHEM_MMFF94_ENERGY>  (1) 
48.2846

>  <PUBCHEM_FEATURE_SELFOVERLAP>  (1) 
45.798

>  <PUBCHEM_SHAPE_FINGERPRINT>  (1) 
10967382 1 18410856534033620046
1100329 8 18337950095835071114
11680986 33 18335430036357968483
12532896 13 18268707380380834116
12592029 89 18410017636694652554
12644460 14 18337399231570688443
12730499 353 18409736145166086065
12788726 201 17469888143985600440
12895836 83 17825132521385096140
13052359 8 18192708067032358539
13544592 145 18271821150388218348
14123255 52 18410851100815932377
15502722 9 18337954493680290621
16752209 62 18050563238327353818
19591789 44 18338805635749791595
204376 136 18338799025927050433
20510252 161 17911241933706721184
20645477 56 18266176313220199460
20645477 70 18262791857821310157
20671657 1 18341331085114834574
20871999 31 18050580835045814388
212916 134 18127671911574334736
221490 88 18263651671471908443
22182313 1 18264791972214287811
22224240 67 18269845371126939697
23366157 5 17969791765272553184
23402539 116 18271516610693621909
23419403 2 17610103071869894146
23557571 272 17767136667517703820
23558518 356 17613430469081468416
23559900 14 18121488056326366843
2748010 2 18336563667258580791
3071541 250 18052545374197766086
3071541 37 18336267851196015509
3091708 16 9477824857508682290
352729 6 18265903651172988641
458136 41 18338249209893631209
474229 33 18265051517282728819
53917941 68 18125136454755799445
58779409 8 18337676441703117327
58807428 26 18338794623822514018
633830 44 18131359604580345429
7364860 26 18267300941378138538
81228 2 17616804878640230569
81539 233 18260828181024049541

>  <PUBCHEM_SHAPE_MULTIPOLES>  (1) 
335.56
8.07
3.93
0.84
3.68
4.77
0
-6.82
-0.08
-2.9
0.14
0.04
-0.24
0.62

>  <PUBCHEM_SHAPE_SELFOVERLAP>  (1) 
666.265

>  <PUBCHEM_SHAPE_VOLUME>  (1) 
188.1

>  <PUBCHEM_COORDINATE_TYPE>  (1) 
2
5
10

$$$$
