49969
     RDKit          3D

 20 20  0  0  1  0  0  0  0  0999 V2000
    5.3668   -0.8397    0.2008 S   0  0  0  0  0  0  0  0  0  0  0  0
    6.0064   -0.6306    1.6869 O   0  0  0  0  0  0  0  0  0  0  0  0
    5.8000    0.2533   -0.6512 O   0  0  0  0  0  0  0  0  0  0  0  0
    5.5483   -2.2256   -0.1930 O   0  0  0  0  0  0  0  0  0  0  0  0
   -1.1008    0.0620   -1.1767 C   0  0  0  0  0  0  0  0  0  0  0  0
    0.4082   -0.1643   -1.4388 C   0  0  0  0  0  0  0  0  0  0  0  0
   -1.7462   -1.1968   -0.5519 C   0  0  0  0  0  0  0  0  0  0  0  0
    1.2888   -0.2785   -0.1881 C   0  0  0  0  0  0  0  0  0  0  0  0
   -3.2748   -1.0977   -0.4596 C   0  0  0  0  0  0  0  0  0  0  0  0
   -1.3483    1.3693   -0.4371 C   0  0  0  0  0  0  0  0  0  0  0  0
    2.7507   -0.5393   -0.5676 C   0  0  0  0  0  0  0  0  0  0  0  0
   -3.8747   -2.3621    0.1594 C   0  0  0  0  0  0  0  0  0  0  0  0
    3.6768   -0.5893    0.6399 C   0  0  0  0  0  0  0  0  0  0  0  0
   -5.3993   -2.2777    0.2271 C   0  0  0  0  0  0  0  0  0  0  0  0
   -1.3930    2.5720   -1.1425 C   0  0  0  0  0  0  0  0  0  0  0  0
   -1.5307    1.3649    0.9458 C   0  0  0  0  0  0  0  0  0  0  0  0
   -5.9977   -3.5184    0.8709 C   0  0  0  0  0  0  0  0  0  0  0  0
   -1.6201    3.7700   -0.4652 C   0  0  0  0  0  0  0  0  0  0  0  0
   -1.7579    2.5629    1.6232 C   0  0  0  0  0  0  0  0  0  0  0  0
   -1.8025    3.7655    0.9177 C   0  0  0  0  0  0  0  0  0  0  0  0
  1  2  1  0
  1  3  2  0
  1  4  2  0
  1 13  1  0
  5  6  1  0
  5  7  1  0
  5 10  1  0
  6  8  1  0
  7  9  1  0
  8 11  1  0
  9 12  1  0
 10 15  2  0
 10 16  1  0
 11 13  1  0
 12 14  1  0
 14 17  1  0
 15 18  1  0
 16 19  2  0
 18 20  2  0
 19 20  1  0
M  END
>  <PUBCHEM_COMPOUND_CID>  (1) 
49969

>  <PUBCHEM_CONFORMER_RMSD>  (1) 
1

>  <PUBCHEM_CONFORMER_DIVERSEORDER>  (1) 
1
151
63
26
130
162
57
143
6
171
170
163
135
12
94
133
56
152
72
2
166
5
112
76
137
74
138
30
105
24
70
36
118
32
43
161
89
136
116
174
157
77
11
35
27
38
42
128
110
82
87
169
145
9
16
131
28
8
10
14
147
156
29
3
17
52
60
31
69
62
139
65
7
67
108
117
101
127
51
132
33
85
141
125
90
140
13
153
160
18
172
58
92
98
4
106
68
155
55
104
48
66
144
46
95
49
103
96
37
154
119
59
107
50
165
124
168
109
126
159
111
41
83
167
102
91
75
22
73
80
148
44
54
64
93
53
100
79
86
20
25
40
134
47
150
39
78
84
34
120
15
175
122
142
97
149
164
19
129
173
123
88
115
121
99
23
45
81
113
146
114
71
158
61
21

>  <PUBCHEM_MMFF94_PARTIAL_CHARGES>  (1) 
18
1 1.38
10 -0.14
13 0.11
15 -0.15
16 -0.15
18 -0.15
19 -0.15
2 -0.68
20 -0.15
3 -0.65
38 0.15
39 0.15
4 -0.65
43 0.15
44 0.15
45 0.15
46 0.5
5 0.14

>  <PUBCHEM_EFFECTIVE_ROTOR_COUNT>  (1) 
10

>  <PUBCHEM_PHARMACOPHORE_FEATURES>  (1) 
6
1 17 hydrophobe
1 2 acceptor
1 3 acceptor
1 4 acceptor
4 1 2 3 4 anion
6 10 15 16 18 19 20 rings

>  <PUBCHEM_HEAVY_ATOM_COUNT>  (1) 
20

>  <PUBCHEM_ATOM_DEF_STEREO_COUNT>  (1) 
0

>  <PUBCHEM_ATOM_UDEF_STEREO_COUNT>  (1) 
1

>  <PUBCHEM_BOND_DEF_STEREO_COUNT>  (1) 
0

>  <PUBCHEM_BOND_UDEF_STEREO_COUNT>  (1) 
0

>  <PUBCHEM_ISOTOPIC_ATOM_COUNT>  (1) 
0

>  <PUBCHEM_COMPONENT_COUNT>  (1) 
1

>  <PUBCHEM_CACTVS_TAUTO_COUNT>  (1) 
1

>  <PUBCHEM_CONFORMER_ID>  (1) 
0000C33100000001

>  <PUBCHEM_MMFF94_ENERGY>  (1) 
26.2833

>  <PUBCHEM_FEATURE_SELFOVERLAP>  (1) 
30.5

>  <PUBCHEM_SHAPE_FINGERPRINT>  (1) 
11265709 11 18338521949297232399
12788726 201 18336561493899627710
12930653 34 18270401564401154094
13004483 165 18339642351403317039
13257819 101 13182481923505177363
13955234 65 17545894080395342035
14178342 30 18266747887383165918
15042514 8 18410859837306465557
17844677 252 18342176640591796470
18006028 8 18340203085523158303
20600515 1 18059027197423577159
21344244 78 17558570216813793059
23419403 2 18129362960737506285
23845131 108 17766289674107347993
268830 7 14333110989286226346
283562 15 18335138674350880619
312423 11 18334023787304193900
4409770 3 18261667066327533029
469060 322 18337685151806947561
497634 4 18187646873644907822
5104073 3 18198894830769562994
5219985 9 18337953506159975151
56616090 89 18187359956686104734
59755656 520 17979069388674894181
7288768 16 17413884123740420305
77188 2 18337955726700440709
81228 2 18198084516179135933
9981440 41 17271707400396700350

>  <PUBCHEM_SHAPE_MULTIPOLES>  (1) 
397.83
12.94
4.56
1.33
15.34
3.56
0.18
-16.66
4.02
-7.64
1.1
0.15
0.51
0.24

>  <PUBCHEM_SHAPE_SELFOVERLAP>  (1) 
770.066

>  <PUBCHEM_SHAPE_VOLUME>  (1) 
241.4

>  <PUBCHEM_COORDINATE_TYPE>  (1) 
2
5
10

$$$$
