49978
     RDKit          3D

 17 17  0  0  1  0  0  0  0  0999 V2000
   -2.3849    2.4818   -0.6201 O   0  0  0  0  0  0  0  0  0  0  0  0
   -3.4251    0.7168    0.3536 O   0  0  0  0  0  0  0  0  0  0  0  0
   -1.7663   -0.9547   -1.7598 O   0  0  0  0  0  0  0  0  0  0  0  0
   -0.3928   -0.5219    2.6132 O   0  0  0  0  0  0  0  0  0  0  0  0
   -1.0713   -0.6594    0.4349 N   0  0  0  0  0  0  0  0  0  0  0  0
   -0.7234   -1.3154    1.7253 N   0  0  0  0  0  0  0  0  0  0  0  0
   -1.5001   -2.7964   -0.4552 N   0  0  0  0  0  0  0  0  0  0  0  0
   -0.9908    0.7970    0.3499 C   0  0  0  0  0  0  0  0  0  0  0  0
    0.0212    1.1994   -0.7342 C   0  0  0  0  0  0  0  0  0  0  0  0
    1.4127    0.6759   -0.4621 C   0  0  0  0  0  0  0  0  0  0  0  0
   -2.3921    1.2919    0.0353 C   0  0  0  0  0  0  0  0  0  0  0  0
    2.2949    1.4481    0.2754 C   0  0  0  0  0  0  0  0  0  0  0  0
    1.7781   -0.5658   -0.9552 C   0  0  0  0  0  0  0  0  0  0  0  0
    3.5790    0.9651    0.5268 C   0  0  0  0  0  0  0  0  0  0  0  0
    3.0622   -1.0489   -0.7036 C   0  0  0  0  0  0  0  0  0  0  0  0
   -1.4640   -1.4301   -0.6615 C   0  0  0  0  0  0  0  0  0  0  0  0
    3.9627   -0.2834    0.0374 C   0  0  0  0  0  0  0  0  0  0  0  0
  1 11  1  0
  2 11  2  0
  3 16  2  0
  4  6  2  0
  5  6  1  0
  5  8  1  0
  5 16  1  0
  7 16  1  0
  8  9  1  0
  8 11  1  0
  9 10  1  0
 10 12  2  0
 10 13  1  0
 12 14  1  0
 13 15  2  0
 14 17  2  0
 15 17  1  0
M  END
>  <PUBCHEM_COMPOUND_CID>  (1) 
49978

>  <PUBCHEM_CONFORMER_RMSD>  (1) 
0.8

>  <PUBCHEM_CONFORMER_DIVERSEORDER>  (1) 
1
43
27
47
46
35
17
51
56
37
59
2
58
52
60
31
23
3
34
28
55
40
38
57
29
48
44
61
15
10
32
20
24
49
19
11
53
14
33
25
62
42
18
6
50
4
9
13
7
30
5
8
26
22
54
12
41
21
39
45
16
36

>  <PUBCHEM_MMFF94_PARTIAL_CHARGES>  (1) 
25
1 -0.65
10 -0.14
11 0.66
12 -0.15
13 -0.15
14 -0.15
15 -0.15
16 0.69
17 -0.15
2 -0.57
21 0.15
22 0.15
23 0.15
24 0.15
25 0.15
26 0.5
27 0.37
28 0.37
3 -0.57
4 -0.16
5 -0.18
6 -0.02
7 -0.8
8 0.36
9 0.14

>  <PUBCHEM_EFFECTIVE_ROTOR_COUNT>  (1) 
6

>  <PUBCHEM_PHARMACOPHORE_FEATURES>  (1) 
6
1 1 acceptor
1 2 acceptor
1 3 acceptor
1 7 donor
3 1 2 11 anion
6 10 12 13 14 15 17 rings

>  <PUBCHEM_HEAVY_ATOM_COUNT>  (1) 
17

>  <PUBCHEM_ATOM_DEF_STEREO_COUNT>  (1) 
0

>  <PUBCHEM_ATOM_UDEF_STEREO_COUNT>  (1) 
1

>  <PUBCHEM_BOND_DEF_STEREO_COUNT>  (1) 
0

>  <PUBCHEM_BOND_UDEF_STEREO_COUNT>  (1) 
0

>  <PUBCHEM_ISOTOPIC_ATOM_COUNT>  (1) 
0

>  <PUBCHEM_COMPONENT_COUNT>  (1) 
1

>  <PUBCHEM_CACTVS_TAUTO_COUNT>  (1) 
2

>  <PUBCHEM_CONFORMER_ID>  (1) 
0000C33A00000001

>  <PUBCHEM_MMFF94_ENERGY>  (1) 
47.3135

>  <PUBCHEM_FEATURE_SELFOVERLAP>  (1) 
30.505

>  <PUBCHEM_SHAPE_FINGERPRINT>  (1) 
11578080 2 16914802894111108905
12500047 106 18341326713239086596
12592029 89 18196943171216761259
13464514 151 17329713119952560221
13581323 91 18187368722535299956
14817 1 9815850977332229091
15775835 57 18116152177540920296
15852999 172 17846499180038163702
16945 1 18409162207931889404
18186145 218 17915467094662245885
200 152 16559026099691833924
20524608 308 18411418401533918124
20645476 183 16951713331751428860
21501502 16 18340766056740270012
21524375 3 18116716214326971309
22344851 262 18342176686924080172
23402539 116 18201709635838455237
23419403 2 13235964839700566345
23559900 14 17988638546378204138
2748010 2 18121795936382309349
298252 57 18267019453769740185
465052 167 14707793756805480345
68419 9 17901065760407842083
69090 78 18342736299867169509
81228 2 18189617309866383113
9709674 26 18202002148696344582

>  <PUBCHEM_SHAPE_MULTIPOLES>  (1) 
311.43
5.49
2.16
1.44
3.41
0.44
-0.85
-0.96
0.21
-1.4
0.39
-0.47
0.44
0.32

>  <PUBCHEM_SHAPE_SELFOVERLAP>  (1) 
643.984

>  <PUBCHEM_SHAPE_VOLUME>  (1) 
175.6

>  <PUBCHEM_COORDINATE_TYPE>  (1) 
2
5
10

$$$$
