49970
     RDKit          3D

 14 16  0  0  0  0  0  0  0  0999 V2000
   -0.8871    0.3923    0.0000 N   0  0  0  0  0  0  0  0  0  0  0  0
   -0.5475   -1.8264    0.0001 N   0  0  0  0  0  0  0  0  0  0  0  0
    1.4296    1.1541   -0.0002 N   0  0  0  0  0  0  0  0  0  0  0  0
    3.7746    1.5399   -0.0002 N   0  0  0  0  0  0  0  0  0  0  0  0
    0.4743    0.2058   -0.0001 C   0  0  0  0  0  0  0  0  0  0  0  0
   -1.4635   -0.8780   -0.0003 C   0  0  0  0  0  0  0  0  0  0  0  0
    0.6586   -1.1709    0.0002 C   0  0  0  0  0  0  0  0  0  0  0  0
   -1.6285    1.5719    0.0003 C   0  0  0  0  0  0  0  0  0  0  0  0
   -2.8881   -0.9426   -0.0005 C   0  0  0  0  0  0  0  0  0  0  0  0
    1.9726   -1.6572    0.0004 C   0  0  0  0  0  0  0  0  0  0  0  0
   -2.9694    1.5006    0.0005 C   0  0  0  0  0  0  0  0  0  0  0  0
    2.6801    0.6337   -0.0003 C   0  0  0  0  0  0  0  0  0  0  0  0
    3.0031   -0.7184    0.0002 C   0  0  0  0  0  0  0  0  0  0  0  0
   -3.6087    0.1951   -0.0001 C   0  0  0  0  0  0  0  0  0  0  0  0
  1  5  1  0
  1  6  1  0
  1  8  1  0
  2  6  2  0
  2  7  1  0
  3  5  1  0
  3 12  2  0
  4 12  1  0
  5  7  2  0
  6  9  1  0
  7 10  1  0
  8 11  2  0
  9 14  2  0
 10 13  2  0
 11 14  1  0
 12 13  1  0
M  END
>  <PUBCHEM_COMPOUND_CID>  (1) 
49970

>  <PUBCHEM_CONFORMER_RMSD>  (1) 
0.4

>  <PUBCHEM_CONFORMER_DIVERSEORDER>  (1) 
1

>  <PUBCHEM_MMFF94_PARTIAL_CHARGES>  (1) 
22
1 0.33
10 -0.15
11 -0.15
12 0.41
13 -0.15
14 -0.15
15 0.15
16 0.15
17 0.15
18 0.15
19 0.15
2 -0.57
20 0.15
21 0.4
22 0.4
3 -0.57
4 -0.9
5 0.11
6 0.14
7 0.23
8 -0.18
9 -0.11

>  <PUBCHEM_EFFECTIVE_ROTOR_COUNT>  (1) 
0

>  <PUBCHEM_PHARMACOPHORE_FEATURES>  (1) 
6
1 4 donor
3 1 2 6 cation
3 3 4 12 cation
5 1 2 5 6 7 rings
6 1 6 8 9 11 14 rings
6 3 5 7 10 12 13 rings

>  <PUBCHEM_HEAVY_ATOM_COUNT>  (1) 
14

>  <PUBCHEM_ATOM_DEF_STEREO_COUNT>  (1) 
0

>  <PUBCHEM_ATOM_UDEF_STEREO_COUNT>  (1) 
0

>  <PUBCHEM_BOND_DEF_STEREO_COUNT>  (1) 
0

>  <PUBCHEM_BOND_UDEF_STEREO_COUNT>  (1) 
0

>  <PUBCHEM_ISOTOPIC_ATOM_COUNT>  (1) 
0

>  <PUBCHEM_COMPONENT_COUNT>  (1) 
1

>  <PUBCHEM_CACTVS_TAUTO_COUNT>  (1) 
2

>  <PUBCHEM_CONFORMER_ID>  (1) 
0000C33200000001

>  <PUBCHEM_MMFF94_ENERGY>  (1) 
39.3276

>  <PUBCHEM_FEATURE_SELFOVERLAP>  (1) 
30.686

>  <PUBCHEM_SHAPE_FINGERPRINT>  (1) 
10608611 8 18410008801857604245
10967382 1 18410575084726401925
10980938 120 18410575072063130650
11132069 177 18411974754422880049
11471102 20 18411132520089501911
12346645 44 18409729594887116616
12491281 212 18339935813496549081
12932764 1 17459468857877948107
13380535 21 18411147930263478170
13380535 76 18410009961714993522
14144814 61 18409730646885007441
14325111 11 18410855443001189537
14897335 6 18411414029462854572
15196674 1 18410856555376496773
15219456 202 18410857641997960911
15442244 35 18122906426030896162
15536298 74 18342738494785296726
15775835 57 18341618122105829113
16945 1 18338517559355346119
17844478 74 18260559917709515947
18186145 218 18270967829873732932
19591789 44 15595564016363093883
20510252 161 18343024401999582121
20645477 70 18340483366208803887
21267235 1 18410864230488738731
21501502 16 18411415090172259003
2334 1 18410573972282380001
23402539 116 18341320188750987575
23402655 69 18270388409464569325
23463225 33 18335699390994660602
23559900 14 18272087142165926174
2748010 2 18410294666280004263
5104073 3 18410012121893354475
528886 8 18410851053502343723
53812653 166 18271520983265299608
57096353 35 18340483469145133199
69090 78 18343295968528958159
7364860 26 18342176605715509118
9709674 26 18411705391312486038

>  <PUBCHEM_SHAPE_MULTIPOLES>  (1) 
268.19
5.88
1.89
0.59
0.24
0
0
1.59
0
0.27
0
-0.02
-0.01
0

>  <PUBCHEM_SHAPE_SELFOVERLAP>  (1) 
605.722

>  <PUBCHEM_SHAPE_VOLUME>  (1) 
139.5

>  <PUBCHEM_COORDINATE_TYPE>  (1) 
2
5
10

$$$$
