49976
     RDKit          3D

 12 11  0  0  0  0  0  0  0  0999 V2000
   -1.3246   -0.2574    0.1306 O   0  0  0  0  0  0  0  0  0  0  0  0
   -2.0168    1.3056   -1.4094 O   0  0  0  0  0  0  0  0  0  0  0  0
    1.5960   -1.3119   -1.5893 O   0  0  0  0  0  0  0  0  0  0  0  0
    0.9092    1.9291    1.6076 O   0  0  0  0  0  0  0  0  0  0  0  0
    1.1874    0.3738   -0.0434 N   0  0  0  0  0  0  0  0  0  0  0  0
    1.4802    0.8651    1.3451 N   0  0  0  0  0  0  0  0  0  0  0  0
    2.5971   -1.4784    0.4441 N   0  0  0  0  0  0  0  0  0  0  0  0
    0.3208    1.1394   -0.8924 C   0  0  0  0  0  0  0  0  0  0  0  0
   -1.1335    0.7509   -0.7639 C   0  0  0  0  0  0  0  0  0  0  0  0
   -2.6800   -0.6819    0.3089 C   0  0  0  0  0  0  0  0  0  0  0  0
   -2.7165   -1.8003    1.3284 C   0  0  0  0  0  0  0  0  0  0  0  0
    1.7808   -0.8339   -0.4663 C   0  0  0  0  0  0  0  0  0  0  0  0
  1  9  1  0
  1 10  1  0
  2  9  2  0
  3 12  2  0
  4  6  2  0
  5  6  1  0
  5  8  1  0
  5 12  1  0
  7 12  1  0
  8  9  1  0
 10 11  1  0
M  END
>  <PUBCHEM_COMPOUND_CID>  (1) 
49976

>  <PUBCHEM_CONFORMER_RMSD>  (1) 
0.6

>  <PUBCHEM_CONFORMER_DIVERSEORDER>  (1) 
2
166
33
221
100
265
314
357
223
137
145
36
175
322
153
44
273
330
238
130
329
303
111
187
313
88
237
270
228
342
95
222
38
259
251
338
57
56
168
360
58
124
154
297
207
306
119
195
102
352
69
231
72
277
344
18
307
176
355
45
279
188
183
46
107
220
332
118
283
282
302
225
185
266
197
117
367
247
70
206
229
23
295
126
193
356
255
204
369
276
230
136
125
108
359
177
208
236
281
112
361
345
123
210
346
132
186
161
29
194
147
286
157
290
64
363
171
98
12
201
160
312
143
109
103
83
337
174
167
139
8
316
182
163
365
32
144
257
134
234
287
347
263
200
217
25
17
96
131
150
325
202
275
205
364
63
77
115
246
211
99
85
47
271
93
269
334
43
368
110
323
180
97
285
120
68
340
214
224
215
55
128
240
304
333
308
152
294
216
9
86
15
3
258
50
28
315
122
66
358
212
351
74
272
35
121
305
151
233
172
4
252
165
278
291
331
91
34
298
245
310
148
318
336
24
191
184
235
173
133
78
227
61
84
149
60
92
51
320
105
178
311
244
73
250
104
242
317
339
90
181
196
127
62
253
327
27
164
26
309
335
321
293
67
11
268
53
14
80
326
114
249
54
300
239
40
101
52
59
10
328
203
209
89
190
260
219
42
280
248
141
324
106
192
21
13
213
179
135
81
7
71
39
296
129
256
262
94
353
289
155
20
48
366
41
169
16
113
362
301
274
87
341
140
6
264
284
299
79
138
146
354
49
159
241
319
232
370
37
218
288
267
82
1
156
189
19
162
243
170
158
30
116
31
349
75
76
22
5
198
343
142
261
254
226
65
199
350
292
348

>  <PUBCHEM_MMFF94_PARTIAL_CHARGES>  (1) 
13
1 -0.43
10 0.28
12 0.69
2 -0.57
20 0.37
21 0.37
3 -0.57
4 -0.16
5 -0.18
6 -0.02
7 -0.8
8 0.36
9 0.66

>  <PUBCHEM_EFFECTIVE_ROTOR_COUNT>  (1) 
6

>  <PUBCHEM_PHARMACOPHORE_FEATURES>  (1) 
3
1 2 acceptor
1 3 acceptor
1 7 donor

>  <PUBCHEM_HEAVY_ATOM_COUNT>  (1) 
12

>  <PUBCHEM_ATOM_DEF_STEREO_COUNT>  (1) 
0

>  <PUBCHEM_ATOM_UDEF_STEREO_COUNT>  (1) 
0

>  <PUBCHEM_BOND_DEF_STEREO_COUNT>  (1) 
0

>  <PUBCHEM_BOND_UDEF_STEREO_COUNT>  (1) 
0

>  <PUBCHEM_ISOTOPIC_ATOM_COUNT>  (1) 
0

>  <PUBCHEM_COMPONENT_COUNT>  (1) 
1

>  <PUBCHEM_CACTVS_TAUTO_COUNT>  (1) 
2

>  <PUBCHEM_CONFORMER_ID>  (1) 
0000C33800000002

>  <PUBCHEM_MMFF94_ENERGY>  (1) 
19.5679

>  <PUBCHEM_FEATURE_SELFOVERLAP>  (1) 
15.223

>  <PUBCHEM_SHAPE_FINGERPRINT>  (1) 
14252887 29 17534361208089001867
20379382 53 17916597555887374497
20539784 86 17556885798763335371
20645477 70 16597048565249765595
20711978 78 17989212576613941815
20711983 138 17697616402043741350
20711985 344 17458058257901106805
21061003 4 17917151606890228066
21922407 69 16916497194021191807
230 275 10807391645602933715
29004967 10 17774150189759723934
430814 3 15911652473630124665
568465 68 18272087175866476578
81228 2 17411058340460467936

>  <PUBCHEM_SHAPE_MULTIPOLES>  (1) 
208.53
3.87
1.93
1.52
1.85
0.18
0.42
2.34
0.31
0.46
0.05
-0.7
-0.38
1.18

>  <PUBCHEM_SHAPE_SELFOVERLAP>  (1) 
395.006

>  <PUBCHEM_SHAPE_VOLUME>  (1) 
128

>  <PUBCHEM_COORDINATE_TYPE>  (1) 
2
5
10

$$$$
