49974
     RDKit          3D

 25 28  0  0  1  0  0  0  0  0999 V2000
    1.3224   -2.9885    1.2771 O   0  0  0  0  0  0  0  0  0  0  0  0
   -1.4601   -1.0905    0.4070 N   0  0  0  0  0  0  0  0  0  0  0  0
   -2.0420    0.5739   -1.7814 N   0  0  0  0  0  0  0  0  0  0  0  0
    4.0078    1.0533    0.3569 N   0  0  0  0  0  0  0  0  0  0  0  0
    1.7485   -1.4122   -1.4476 C   0  0  0  0  0  0  0  0  0  0  0  0
    0.6386   -1.5101   -0.4707 C   0  0  0  0  0  0  0  0  0  0  0  0
   -0.5339   -0.8962   -0.5793 C   0  0  0  0  0  0  0  0  0  0  0  0
   -2.6899   -0.4488    0.3290 C   0  0  0  0  0  0  0  0  0  0  0  0
   -0.9124   -1.9904    1.4106 C   0  0  0  0  0  0  0  0  0  0  0  0
   -3.6903   -0.6617    1.4397 C   0  0  0  0  0  0  0  0  0  0  0  0
   -2.9472    0.3572   -0.7396 C   0  0  0  0  0  0  0  0  0  0  0  0
    3.0150   -0.8600   -0.7940 C   0  0  0  0  0  0  0  0  0  0  0  0
   -0.8889   -0.0247   -1.7068 C   0  0  0  0  0  0  0  0  0  0  0  0
    0.4706   -2.2579    0.7962 C   0  0  0  0  0  0  0  0  0  0  0  0
   -3.9971    0.6139    2.2260 C   0  0  0  0  0  0  0  0  0  0  0  0
   -4.2496    1.1064   -0.8909 C   0  0  0  0  0  0  0  0  0  0  0  0
   -4.9798    1.5512    1.5254 C   0  0  0  0  0  0  0  0  0  0  0  0
   -4.4834    2.1441    0.2077 C   0  0  0  0  0  0  0  0  0  0  0  0
    1.3468   -0.5289   -2.6224 C   0  0  0  0  0  0  0  0  0  0  0  0
    2.7817    0.5418   -0.2437 C   0  0  0  0  0  0  0  0  0  0  0  0
    0.1671    0.1060   -2.7507 C   0  0  0  0  0  0  0  0  0  0  0  0
    4.4444    0.1877    1.4540 C   0  0  0  0  0  0  0  0  0  0  0  0
    3.8144    2.4227    0.8372 C   0  0  0  0  0  0  0  0  0  0  0  0
    5.7569    0.6722    2.0464 C   0  0  0  0  0  0  0  0  0  0  0  0
    3.3605    3.3394   -0.2861 C   0  0  0  0  0  0  0  0  0  0  0  0
  1 14  2  0
  2  7  1  0
  2  8  1  0
  2  9  1  0
  3 11  1  0
  3 13  2  0
  4 20  1  0
  4 22  1  0
  4 23  1  0
  5  6  1  0
  5 12  1  0
  5 19  1  0
  6  7  2  0
  6 14  1  0
  7 13  1  0
  8 10  1  0
  8 11  2  0
  9 14  1  0
 10 15  1  0
 11 16  1  0
 12 20  1  0
 13 21  1  0
 15 17  1  0
 16 18  1  0
 17 18  1  0
 19 21  2  0
 22 24  1  0
 23 25  1  0
M  END
>  <PUBCHEM_COMPOUND_CID>  (1) 
49974

>  <PUBCHEM_CONFORMER_RMSD>  (1) 
0.8

>  <PUBCHEM_CONFORMER_DIVERSEORDER>  (1) 
1
5
41
25
21
40
13
37
36
33
10
29
11
39
26
24
34
32
7
3
30
23
12
28
27
2
9
14
38
20
18
16
35
19
6
4
31
22
17
15
8

>  <PUBCHEM_MMFF94_PARTIAL_CHARGES>  (1) 
21
1 -0.57
10 0.14
11 0.03
13 0.42
14 0.49
16 0.14
19 -0.29
2 -0.57
20 0.27
21 -0.14
22 0.27
23 0.27
3 -0.62
4 -0.81
41 0.15
44 0.15
5 0.28
6 -0.12
7 0.11
8 -0.04
9 0.43

>  <PUBCHEM_EFFECTIVE_ROTOR_COUNT>  (1) 
6.4

>  <PUBCHEM_PHARMACOPHORE_FEATURES>  (1) 
8
1 1 acceptor
1 2 cation
1 3 acceptor
1 4 cation
5 2 6 7 9 14 rings
6 2 3 7 8 11 13 rings
6 5 6 7 13 19 21 rings
7 8 10 11 15 16 17 18 rings

>  <PUBCHEM_HEAVY_ATOM_COUNT>  (1) 
25

>  <PUBCHEM_ATOM_DEF_STEREO_COUNT>  (1) 
0

>  <PUBCHEM_ATOM_UDEF_STEREO_COUNT>  (1) 
1

>  <PUBCHEM_BOND_DEF_STEREO_COUNT>  (1) 
0

>  <PUBCHEM_BOND_UDEF_STEREO_COUNT>  (1) 
0

>  <PUBCHEM_ISOTOPIC_ATOM_COUNT>  (1) 
0

>  <PUBCHEM_COMPONENT_COUNT>  (1) 
1

>  <PUBCHEM_CACTVS_TAUTO_COUNT>  (1) 
2

>  <PUBCHEM_CONFORMER_ID>  (1) 
0000C33600000001

>  <PUBCHEM_MMFF94_ENERGY>  (1) 
52.9066

>  <PUBCHEM_FEATURE_SELFOVERLAP>  (1) 
40.81

>  <PUBCHEM_SHAPE_FINGERPRINT>  (1) 
10498660 4 15554451794520288720
10928967 22 12180111108155173648
11578080 2 17768009563057637886
11640471 11 17131546245582133174
11796584 16 12757149078308263905
11961588 58 16056583361799676771
12422481 6 17168420463346528019
12633257 1 18188199996686963200
12670546 177 13254792451723213680
12824470 246 11963656833847054500
12892183 10 17022895796291097520
13103583 49 14707205470444256101
13140716 1 17242202178101717415
13544653 18 11241968191800273514
13590594 115 17627247658319387404
14081887 123 18040726818585080617
14178342 30 17749400273419028123
14251764 30 13623799480940113792
15163728 17 17488761071697355876
15475509 84 17179967328387845577
16110190 28 17240478144180704400
16945 1 17386591118766707991
17349148 13 17095809905893010015
1813 80 13118279205865268210
20775530 9 10666039568982116808
21033648 29 18188495657761382549
21475661 188 18412829057746624864
22182313 1 13828973942319220631
23559900 14 18267603341868571734
2748010 2 17024592183861722999
2838139 119 17489304170570320056
392239 28 18334576841289150081
394222 165 16916786223846104334
4463277 69 10737292371862509929
474 4 18273215300392038812
484985 159 12254666711148856648
57724786 102 18341894151908430096
58807428 26 17458626683605963075
7064713 232 17967827028557237475
7097593 13 15647631079995140934
7970288 3 13912589538506725328
999808 66 16082193131822582944

>  <PUBCHEM_SHAPE_MULTIPOLES>  (1) 
493.68
10.18
2.73
2.47
1.22
1.15
-0.47
9.31
4.98
1.77
0.46
0.02
-0.6
0.21

>  <PUBCHEM_SHAPE_SELFOVERLAP>  (1) 
1053.241

>  <PUBCHEM_SHAPE_VOLUME>  (1) 
275.1

>  <PUBCHEM_COORDINATE_TYPE>  (1) 
2
5
10

$$$$
