49983
     RDKit          3D

 12 13  0  0  0  0  0  0  0  0999 V2000
   -1.9212    0.1395   -1.5131 S   0  0  0  0  0  0  0  0  0  0  0  0
   -1.9311    0.2798    1.4746 S   0  0  0  0  0  0  0  0  0  0  0  0
   -0.9865    0.6677   -0.0368 C   0  0  0  0  0  0  0  0  0  0  0  0
    0.4146    0.1001   -0.0030 C   0  0  0  0  0  0  0  0  0  0  0  0
   -3.2108   -0.7832   -0.6363 C   0  0  0  0  0  0  0  0  0  0  0  0
   -3.5109   -0.0480    0.6538 C   0  0  0  0  0  0  0  0  0  0  0  0
    1.5299    0.9370   -0.0403 C   0  0  0  0  0  0  0  0  0  0  0  0
    0.5824   -1.2829    0.0661 C   0  0  0  0  0  0  0  0  0  0  0  0
    2.8129    0.3908   -0.0086 C   0  0  0  0  0  0  0  0  0  0  0  0
    1.3744    2.4204   -0.1150 C   0  0  0  0  0  0  0  0  0  0  0  0
    1.8655   -1.8291    0.0980 C   0  0  0  0  0  0  0  0  0  0  0  0
    2.9807   -0.9923    0.0606 C   0  0  0  0  0  0  0  0  0  0  0  0
  1  3  1  0
  1  5  1  0
  2  3  1  0
  2  6  1  0
  3  4  1  0
  4  7  2  0
  4  8  1  0
  5  6  1  0
  7  9  1  0
  7 10  1  0
  8 11  2  0
  9 12  2  0
 11 12  1  0
M  END
>  <PUBCHEM_COMPOUND_CID>  (1) 
49983

>  <PUBCHEM_CONFORMER_RMSD>  (1) 
0.6

>  <PUBCHEM_CONFORMER_DIVERSEORDER>  (1) 
1
3
2
4

>  <PUBCHEM_MMFF94_PARTIAL_CHARGES>  (1) 
16
1 -0.46
10 0.14
11 -0.15
12 -0.15
18 0.15
19 0.15
2 -0.46
23 0.15
24 0.15
3 0.6
4 -0.14
5 0.23
6 0.23
7 -0.14
8 -0.15
9 -0.15

>  <PUBCHEM_EFFECTIVE_ROTOR_COUNT>  (1) 
2

>  <PUBCHEM_PHARMACOPHORE_FEATURES>  (1) 
2
5 1 2 3 5 6 rings
6 4 7 8 9 11 12 rings

>  <PUBCHEM_HEAVY_ATOM_COUNT>  (1) 
12

>  <PUBCHEM_ATOM_DEF_STEREO_COUNT>  (1) 
0

>  <PUBCHEM_ATOM_UDEF_STEREO_COUNT>  (1) 
0

>  <PUBCHEM_BOND_DEF_STEREO_COUNT>  (1) 
0

>  <PUBCHEM_BOND_UDEF_STEREO_COUNT>  (1) 
0

>  <PUBCHEM_ISOTOPIC_ATOM_COUNT>  (1) 
0

>  <PUBCHEM_COMPONENT_COUNT>  (1) 
1

>  <PUBCHEM_CACTVS_TAUTO_COUNT>  (1) 
1

>  <PUBCHEM_CONFORMER_ID>  (1) 
0000C33F00000001

>  <PUBCHEM_MMFF94_ENERGY>  (1) 
27.5782

>  <PUBCHEM_FEATURE_SELFOVERLAP>  (1) 
10.149

>  <PUBCHEM_SHAPE_FINGERPRINT>  (1) 
10219947 1 18410013230237567506
107287 299 18041289871058547980
11471102 20 18409162212437671277
11578080 2 17486455323026656961
12032990 46 18337675196547820294
12932764 1 17917707998238632393
13538477 17 17489303118355754839
13581323 91 16487253266196201799
14251717 144 18410008866382184559
15219456 202 18040431096769280621
15501101 241 18187370938669723141
15775835 57 18342181110713936757
16945 1 18409165528168234878
17844478 74 17894354362901329101
18175812 5 17749391520069404543
19422 9 17988645241778609695
200 152 18271515447231627567
20201158 50 18113618971538566627
20279233 1 17603865606940695467
20645477 70 18410003321954147071
20871998 22 18126572215236506254
21061003 4 18334863766241424073
21639500 275 18337946921410634005
21730867 7 18334010626885991127
22445834 79 18201443536670311307
23598291 2 18130799966172933061
2748010 2 18194109721230327396
5084963 1 18272645766211450736
57812782 119 17749101201528249507
581208 293 18409727400000488392
63268167 104 18411978065832031168
77492 1 17846500348290249805
81228 2 17615961115483533504

>  <PUBCHEM_SHAPE_MULTIPOLES>  (1) 
254.65
5.27
1.77
1.13
1.9
0.46
0.02
-1.01
-0.16
-1.43
0.04
1.04
0.06
-0.25

>  <PUBCHEM_SHAPE_SELFOVERLAP>  (1) 
503.956

>  <PUBCHEM_SHAPE_VOLUME>  (1) 
151.5

>  <PUBCHEM_COORDINATE_TYPE>  (1) 
2
5
10

$$$$
