49987
     RDKit          3D

 13 12  0  0  0  0  0  0  0  0999 V2000
    3.1020   -0.8270    0.2865 O   0  0  0  0  0  0  0  0  0  0  0  0
   -3.2883   -0.5168    0.2480 O   0  0  0  0  0  0  0  0  0  0  0  0
   -0.0927    3.1336   -0.6455 O   0  0  0  0  0  0  0  0  0  0  0  0
    0.0060    1.1507    0.0857 N   0  0  0  0  0  0  0  0  0  0  0  0
    0.3413    2.4153    0.2630 N   0  0  0  0  0  0  0  0  0  0  0  0
    0.9876    0.2327    0.6439 C   0  0  0  0  0  0  0  0  0  0  0  0
   -1.3355    0.8197    0.5969 C   0  0  0  0  0  0  0  0  0  0  0  0
    2.1630    0.0615   -0.3051 C   0  0  0  0  0  0  0  0  0  0  0  0
   -2.0077   -0.2157   -0.2907 C   0  0  0  0  0  0  0  0  0  0  0  0
    4.2294   -1.0297   -0.5547 C   0  0  0  0  0  0  0  0  0  0  0  0
   -3.9711   -1.4829   -0.5392 C   0  0  0  0  0  0  0  0  0  0  0  0
    5.1890   -1.9810    0.1277 C   0  0  0  0  0  0  0  0  0  0  0  0
   -5.3229   -1.7603    0.0834 C   0  0  0  0  0  0  0  0  0  0  0  0
  1  8  1  0
  1 10  1  0
  2  9  1  0
  2 11  1  0
  3  5  2  0
  4  5  1  0
  4  6  1  0
  4  7  1  0
  6  8  1  0
  7  9  1  0
 10 12  1  0
 11 13  1  0
M  END
>  <PUBCHEM_COMPOUND_CID>  (1) 
49987

>  <PUBCHEM_CONFORMER_RMSD>  (1) 
0.8

>  <PUBCHEM_CONFORMER_DIVERSEORDER>  (1) 
1
39
132
135
87
118
90
81
78
3
79
65
97
51
183
66
10
178
58
148
130
115
176
11
108
192
101
85
94
100
194
47
174
23
4
142
55
105
177
140
190
77
68
13
7
61
75
129
121
175
145
24
96
64
119
91
71
193
125
69
63
133
138
143
162
111
86
131
92
147
74
152
109
21
160
46
113
156
82
27
128
184
40
170
123
31
56
60
188
173
185
196
33
2
150
45
141
18
159
57
20
36
127
67
84
149
169
6
168
52
179
157
158
164
195
181
37
144
151
107
146
182
25
136
17
54
34
161
29
187
80
103
189
114
116
99
165
32
120
43
89
122
166
126
134
9
197
139
102
153
180
30
48
83
112
76
106
26
50
98
62
5
72
49
38
41
22
14
186
137
117
167
163
104
95
172
59
16
19
73
53
44
70
8
171
124
155
15
42
88
154
28
191
93
35
12
110

>  <PUBCHEM_MMFF94_PARTIAL_CHARGES>  (1) 
11
1 -0.56
10 0.28
11 0.28
2 -0.56
3 -0.16
4 -0.36
5 -0.01
6 0.27
7 0.27
8 0.28
9 0.28

>  <PUBCHEM_EFFECTIVE_ROTOR_COUNT>  (1) 
9

>  <PUBCHEM_PHARMACOPHORE_FEATURES>  (1) 
2
1 1 acceptor
1 2 acceptor

>  <PUBCHEM_HEAVY_ATOM_COUNT>  (1) 
13

>  <PUBCHEM_ATOM_DEF_STEREO_COUNT>  (1) 
0

>  <PUBCHEM_ATOM_UDEF_STEREO_COUNT>  (1) 
0

>  <PUBCHEM_BOND_DEF_STEREO_COUNT>  (1) 
0

>  <PUBCHEM_BOND_UDEF_STEREO_COUNT>  (1) 
0

>  <PUBCHEM_ISOTOPIC_ATOM_COUNT>  (1) 
0

>  <PUBCHEM_COMPONENT_COUNT>  (1) 
1

>  <PUBCHEM_CACTVS_TAUTO_COUNT>  (1) 
1

>  <PUBCHEM_CONFORMER_ID>  (1) 
0000C34300000001

>  <PUBCHEM_MMFF94_ENERGY>  (1) 
19.4357

>  <PUBCHEM_FEATURE_SELFOVERLAP>  (1) 
10.149

>  <PUBCHEM_SHAPE_FINGERPRINT>  (1) 
100836 57 8718826504892997646
12032990 46 18411980264823742178
12841375 25 18410572898667150109
13955234 65 17909271622039745113
14123255 352 8934999274032208799
14178000 29 18411699915207467527
1420 369 18343304743079007278
14252887 29 18340760558865432008
15477762 27 18266176313024397057
17539 30 18264479590368234893
20112054 13 10303810990585472066
20374829 77 18410853231130130819
20388580 30 18337113465879600213
20605781 2 7997972375345179671
20645477 70 18192140723865606439
20671657 53 18410578422222089021
20871998 22 18339918307125740169
20871999 31 18187360996041868581
21426921 1 18193839241596968444
23402539 116 18410292463125564910
23402655 69 12973600036505574923
23532345 12 18202289134664423025
270888 7 8934998165978450542
328317 168 8214146244243853987
351380 3 18413669119158997095
59345606 38 8574714598393611123

>  <PUBCHEM_SHAPE_MULTIPOLES>  (1) 
239.96
10.45
2.64
0.75
0.17
1.98
0.01
-12.05
0.51
-0.07
0.34
-0.02
0.04
-0.17

>  <PUBCHEM_SHAPE_SELFOVERLAP>  (1) 
435.876

>  <PUBCHEM_SHAPE_VOLUME>  (1) 
155.3

>  <PUBCHEM_COORDINATE_TYPE>  (1) 
2
5
10

$$$$
