49998
     RDKit          3D

 23 25  0  0  1  0  0  0  0  0999 V2000
    3.6950    0.2906    1.7007 O   0  0  0  0  0  0  0  0  0  0  0  0
    4.4134   -1.1347    0.0307 O   0  0  0  0  0  0  0  0  0  0  0  0
    0.6122   -0.6506   -0.1267 C   0  0  0  0  0  0  0  0  0  0  0  0
    1.4063    0.6983    0.0760 C   0  0  0  0  0  0  0  0  0  0  0  0
   -0.8925   -0.4923    0.3727 C   0  0  0  0  0  0  0  0  0  0  0  0
    2.8790    0.6654   -0.4690 C   0  0  0  0  0  0  0  0  0  0  0  0
    0.7100   -1.0598   -1.6212 C   0  0  0  0  0  0  0  0  0  0  0  0
   -1.5161    0.8741    0.1796 C   0  0  0  0  0  0  0  0  0  0  0  0
    0.6382    1.8919   -0.5553 C   0  0  0  0  0  0  0  0  0  0  0  0
   -1.8394   -1.5734   -0.2089 C   0  0  0  0  0  0  0  0  0  0  0  0
    2.9387    0.1453   -1.9184 C   0  0  0  0  0  0  0  0  0  0  0  0
    2.1430   -1.1337   -2.1518 C   0  0  0  0  0  0  0  0  0  0  0  0
    1.2159   -1.7919    0.7405 C   0  0  0  0  0  0  0  0  0  0  0  0
   -3.8514   -0.0717   -0.0034 C   0  0  0  0  0  0  0  0  0  0  0  0
   -2.9616    1.0238    0.5931 C   0  0  0  0  0  0  0  0  0  0  0  0
   -3.2714   -1.4535    0.3148 C   0  0  0  0  0  0  0  0  0  0  0  0
   -0.8216    1.9264   -0.2676 C   0  0  0  0  0  0  0  0  0  0  0  0
    3.5624    2.0498   -0.4155 C   0  0  0  0  0  0  0  0  0  0  0  0
    3.7570   -0.1792    0.4223 C   0  0  0  0  0  0  0  0  0  0  0  0
   -5.2813    0.0478    0.5204 C   0  0  0  0  0  0  0  0  0  0  0  0
   -5.8648    1.4167    0.1789 C   0  0  0  0  0  0  0  0  0  0  0  0
   -6.1561   -1.0665   -0.0492 C   0  0  0  0  0  0  0  0  0  0  0  0
    4.4851   -0.4230    2.6572 C   0  0  0  0  0  0  0  0  0  0  0  0
  1 19  1  0
  1 23  1  0
  2 19  2  0
  3  4  1  0
  3  5  1  0
  3  7  1  0
  3 13  1  0
  4  6  1  0
  4  9  1  0
  5  8  1  0
  5 10  1  0
  6 11  1  0
  6 18  1  0
  6 19  1  0
  7 12  1  0
  8 15  1  0
  8 17  2  0
  9 17  1  0
 10 16  1  0
 11 12  1  0
 14 15  1  0
 14 16  1  0
 14 20  1  0
 20 21  1  0
 20 22  1  0
M  END
>  <PUBCHEM_COMPOUND_CID>  (1) 
49998

>  <PUBCHEM_CONFORMER_RMSD>  (1) 
0.8

>  <PUBCHEM_CONFORMER_DIVERSEORDER>  (1) 
4
136
37
125
15
90
121
35
52
149
134
113
98
9
160
150
68
49
162
57
62
156
147
23
77
40
58
59
87
86
34
122
30
38
141
31
142
50
53
158
21
119
29
89
108
14
139
120
153
118
45
56
61
11
140
82
84
65
6
146
129
130
20
159
161
133
112
60
114
138
123
94
110
96
1
104
33
109
51
132
83
73
24
79
8
39
66
91
101
55
126
154
115
63
71
103
152
117
22
95
10
54
155
106
124
47
148
99
107
70
42
67
137
102
111
27
88
28
80
128
72
46
25
43
97
44
143
3
18
2
32
144
81
145
19
131
76
85
116
41
105
157
36
5
16
100
12
93
69
75
48
127
151
7
78
26
64
17
13
74
92
135

>  <PUBCHEM_MMFF94_PARTIAL_CHARGES>  (1) 
11
1 -0.43
15 0.14
17 -0.29
19 0.66
2 -0.57
23 0.28
44 0.15
5 0.14
6 0.06
8 -0.28
9 0.14

>  <PUBCHEM_EFFECTIVE_ROTOR_COUNT>  (1) 
4.8

>  <PUBCHEM_PHARMACOPHORE_FEATURES>  (1) 
5
1 2 acceptor
3 20 21 22 hydrophobe
6 3 4 5 8 9 17 rings
6 3 4 6 7 11 12 rings
6 5 8 10 14 15 16 rings

>  <PUBCHEM_HEAVY_ATOM_COUNT>  (1) 
23

>  <PUBCHEM_ATOM_DEF_STEREO_COUNT>  (1) 
0

>  <PUBCHEM_ATOM_UDEF_STEREO_COUNT>  (1) 
5

>  <PUBCHEM_BOND_DEF_STEREO_COUNT>  (1) 
0

>  <PUBCHEM_BOND_UDEF_STEREO_COUNT>  (1) 
0

>  <PUBCHEM_ISOTOPIC_ATOM_COUNT>  (1) 
0

>  <PUBCHEM_COMPONENT_COUNT>  (1) 
1

>  <PUBCHEM_CACTVS_TAUTO_COUNT>  (1) 
1

>  <PUBCHEM_CONFORMER_ID>  (1) 
0000C34E00000004

>  <PUBCHEM_MMFF94_ENERGY>  (1) 
67.818

>  <PUBCHEM_FEATURE_SELFOVERLAP>  (1) 
25.438

>  <PUBCHEM_SHAPE_FINGERPRINT>  (1) 
10062212 137 18261106426380759923
11132069 177 18273215304882002953
11370993 70 16988843886439510615
11796584 16 17458070365097851635
12236239 1 17676491643941924111
12403259 415 17703504416086677584
12633257 1 18334570256798005211
12670546 56 17313097558020797837
12730499 353 16702024205233793230
12788726 201 18337968830028794200
13134695 92 16081370777943394718
13140716 1 18266456688494884873
13224815 77 18201729456827182645
13533116 47 17313097536445442864
13862211 1 18409165528648464739
13955234 65 16487259833323017286
14115302 16 17095815394312334683
14178342 30 18196089932824074248
14863182 85 18187931629555372962
15196674 1 18409735088387684517
15238133 3 18113624452222661461
15375358 24 18272094898570673999
15788980 27 16660363684525522261
16945 1 18190168010926354764
17349148 13 17749109967767458369
17980427 23 18057304284003797092
1813 80 16661203621178420042
18681886 176 18129110085747664004
19784866 9 17821728317130908803
20691752 17 18042989591475737313
21267235 1 18336557048713951699
21421861 104 17823132332980882203
21452121 103 17846777373438229322
22079108 93 16199858561651976667
22149856 69 17560260123473628835
22182313 1 18199467662719811997
23402539 116 18342452639042106207
23419403 2 15473881940827680732
23557571 272 18270685259648771669
23559900 14 18201452328278657518
3004659 81 18113339704016602012
335352 9 18408608041302516159
3411729 13 18196086870808168200
345986 75 17387107828848954904
34797466 226 14908183088199131049
34934 24 18413110584689685039
3680242 22 18261395516344834865
4072396 5 18408597050639460939
4340502 62 16271924930355719247
465052 167 18334018306324498178
495365 180 17131834257103585086
5104073 3 18262240023085269009
5374978 207 18408040727657222504
5939293 188 18340491187196693036
59755656 215 18340494357088318662
633830 44 18336549416430421110
8509985 295 18113615703047134339
9709674 26 18271257105223118863
9981440 41 17110443542038564153

>  <PUBCHEM_SHAPE_MULTIPOLES>  (1) 
461.59
11.23
1.92
1.61
12.99
0.41
-0.17
0.01
-3.08
0.13
0.19
-2.84
-0.46
-0.38

>  <PUBCHEM_SHAPE_SELFOVERLAP>  (1) 
959.86

>  <PUBCHEM_SHAPE_VOLUME>  (1) 
260.7

>  <PUBCHEM_COORDINATE_TYPE>  (1) 
2
5
10

$$$$
