49999
     RDKit          3D

 19 20  0  0  0  0  0  0  0  0999 V2000
    1.9755   -0.7894    0.1085 O   0  0  0  0  0  0  0  0  0  0  0  0
   -2.0584   -2.6063    0.8262 O   0  0  0  0  0  0  0  0  0  0  0  0
    3.7248   -0.9009   -1.3907 O   0  0  0  0  0  0  0  0  0  0  0  0
   -5.0839    2.3405    0.0406 O   0  0  0  0  0  0  0  0  0  0  0  0
    4.2478    1.3796    0.9292 C   0  0  0  0  0  0  0  0  0  0  0  0
    4.1057   -0.1499    0.8923 C   0  0  0  0  0  0  0  0  0  0  0  0
   -1.2105   -0.2762   -0.4041 C   0  0  0  0  0  0  0  0  0  0  0  0
   -0.2936   -1.3866   -0.3167 C   0  0  0  0  0  0  0  0  0  0  0  0
   -2.5576   -0.3702    0.1414 C   0  0  0  0  0  0  0  0  0  0  0  0
    4.8914    1.9129   -0.3533 C   0  0  0  0  0  0  0  0  0  0  0  0
    2.8768    2.0285    1.1281 C   0  0  0  0  0  0  0  0  0  0  0  0
    1.0852   -1.2808   -0.8794 C   0  0  0  0  0  0  0  0  0  0  0  0
    3.2834   -0.6432   -0.2792 C   0  0  0  0  0  0  0  0  0  0  0  0
   -3.2351    0.8767   -0.0896 C   0  0  0  0  0  0  0  0  0  0  0  0
   -1.1052    0.9585   -0.9262 C   0  0  0  0  0  0  0  0  0  0  0  0
   -2.3628    1.6735   -0.7303 C   0  0  0  0  0  0  0  0  0  0  0  0
   -0.7745   -2.4876    0.2950 C   0  0  0  0  0  0  0  0  0  0  0  0
   -2.9193   -1.5165    0.7258 C   0  0  0  0  0  0  0  0  0  0  0  0
   -4.5896    1.2373    0.2824 C   0  0  0  0  0  0  0  0  0  0  0  0
  1 12  1  0
  1 13  1  0
  2 17  1  0
  2 18  1  0
  3 13  2  0
  4 19  2  0
  5  6  1  0
  5 10  1  0
  5 11  1  0
  6 13  1  0
  7  8  1  0
  7  9  1  0
  7 15  2  0
  8 12  1  0
  8 17  2  0
  9 14  1  0
  9 18  2  0
 14 16  2  0
 14 19  1  0
 15 16  1  0
M  END
>  <PUBCHEM_COMPOUND_CID>  (1) 
49999

>  <PUBCHEM_CONFORMER_RMSD>  (1) 
0.8

>  <PUBCHEM_CONFORMER_DIVERSEORDER>  (1) 
1
13
59
27
50
49
38
47
18
3
14
58
6
24
23
30
54
44
37
57
32
42
45
53
9
40
28
21
2
35
17
33
26
20
60
5
56
51
25
8
22
48
4
41
19
12
10
11
52
7
55
29
46
39
16
36
31
43
34
15

>  <PUBCHEM_MMFF94_PARTIAL_CHARGES>  (1) 
19
1 -0.43
12 0.42
13 0.66
14 0.01
15 -0.15
16 -0.15
17 -0.07
18 -0.07
19 0.5
2 -0.15
3 -0.57
31 0.15
32 0.15
33 0.15
34 0.15
35 0.06
4 -0.57
6 0.06
8 -0.14

>  <PUBCHEM_EFFECTIVE_ROTOR_COUNT>  (1) 
6

>  <PUBCHEM_PHARMACOPHORE_FEATURES>  (1) 
6
1 2 acceptor
1 3 acceptor
1 4 acceptor
3 5 10 11 hydrophobe
5 7 9 14 15 16 rings
6 2 7 8 9 17 18 rings

>  <PUBCHEM_HEAVY_ATOM_COUNT>  (1) 
19

>  <PUBCHEM_ATOM_DEF_STEREO_COUNT>  (1) 
0

>  <PUBCHEM_ATOM_UDEF_STEREO_COUNT>  (1) 
0

>  <PUBCHEM_BOND_DEF_STEREO_COUNT>  (1) 
0

>  <PUBCHEM_BOND_UDEF_STEREO_COUNT>  (1) 
0

>  <PUBCHEM_ISOTOPIC_ATOM_COUNT>  (1) 
0

>  <PUBCHEM_COMPONENT_COUNT>  (1) 
1

>  <PUBCHEM_CACTVS_TAUTO_COUNT>  (1) 
1

>  <PUBCHEM_CONFORMER_ID>  (1) 
0000C34F00000001

>  <PUBCHEM_MMFF94_ENERGY>  (1) 
58.832

>  <PUBCHEM_FEATURE_SELFOVERLAP>  (1) 
30.545

>  <PUBCHEM_SHAPE_FINGERPRINT>  (1) 
10319926 262 18336535093532205690
10366900 7 18122057865369200034
10608611 8 18413107277522857270
10764073 3 9793276066530854359
11132069 177 18260552212322019559
11405975 8 18408600349533358946
122479 349 18413103970123719790
12390115 104 18341066180084983281
12403259 415 18341062855790995047
12596602 18 15647347333086524684
12633257 1 18262785303442786464
12769317 202 18124862465944287853
12824470 246 14708356809790345403
13583140 156 15864337060955918381
14341114 328 17676763288424608408
14787075 74 18343576331525909345
15163728 17 15768672866845144953
15196674 1 18411698807369792024
15295992 7 18341890771119990490
15806764 133 18057349308240523438
17834072 32 18411419509667304296
18186145 218 18272368620846604614
20645477 56 18334580105216251575
21864079 5 18128806633528541112
22079108 93 18411419484551420389
22182937 141 18413672426304251753
23227448 37 18343297098057657029
23557571 272 18339934834455066894
23559900 14 18337681823772068366
27216 239 18340763865911193210
474 4 18201716211053252217
495365 180 17917703553232584054
5104073 3 18260829293478816602
53917941 68 18261095358872426799
58807428 26 18040715818857623723
633830 44 18272082751865181983
7097593 13 17823396242132397266
7808743 9 18262521511015634564
90316 7 17385715894108638340

>  <PUBCHEM_SHAPE_MULTIPOLES>  (1) 
367.53
10.05
2.73
1.05
4.23
0.21
0.04
-6.82
-1.31
-1.25
-0.35
0.62
0
1.14

>  <PUBCHEM_SHAPE_SELFOVERLAP>  (1) 
777.299

>  <PUBCHEM_SHAPE_VOLUME>  (1) 
205.7

>  <PUBCHEM_COORDINATE_TYPE>  (1) 
2
5
10

$$$$
