49997
     RDKit          3D

 26 28  0  0  1  0  0  0  0  0999 V2000
   -1.3520    1.1044    0.4598 O   0  0  0  0  0  0  0  0  0  0  0  0
   -3.3772    1.8969   -0.3196 O   0  0  0  0  0  0  0  0  0  0  0  0
    3.7261    0.1594   -0.3161 O   0  0  0  0  0  0  0  0  0  0  0  0
   -1.0672    2.3040   -2.7055 N   0  0  0  0  0  0  0  0  0  0  0  0
   -4.0727   -1.1116    0.0773 C   0  0  0  0  0  0  0  0  0  0  0  0
   -2.6942   -1.5023    0.5234 C   0  0  0  0  0  0  0  0  0  0  0  0
   -3.2565   -0.1762    0.8987 C   0  0  0  0  0  0  0  0  0  0  0  0
   -4.3062   -0.8177   -1.3679 C   0  0  0  0  0  0  0  0  0  0  0  0
   -5.2546   -1.7334    0.7444 C   0  0  0  0  0  0  0  0  0  0  0  0
   -1.5857   -1.5013   -0.4754 C   0  0  0  0  0  0  0  0  0  0  0  0
   -2.5483   -2.5647    1.5625 C   0  0  0  0  0  0  0  0  0  0  0  0
   -2.7003    1.0649    0.2692 C   0  0  0  0  0  0  0  0  0  0  0  0
   -0.6870    2.2467   -0.0960 C   0  0  0  0  0  0  0  0  0  0  0  0
    0.7593    2.2197    0.2663 C   0  0  0  0  0  0  0  0  0  0  0  0
   -0.9062    2.2782   -1.5566 C   0  0  0  0  0  0  0  0  0  0  0  0
    1.5759    1.1892   -0.1996 C   0  0  0  0  0  0  0  0  0  0  0  0
    1.2957    3.2252    1.0706 C   0  0  0  0  0  0  0  0  0  0  0  0
    2.9288    1.1643    0.1389 C   0  0  0  0  0  0  0  0  0  0  0  0
    2.6485    3.2004    1.4090 C   0  0  0  0  0  0  0  0  0  0  0  0
    3.4651    2.1700    0.9431 C   0  0  0  0  0  0  0  0  0  0  0  0
    3.3170   -1.1435   -0.2691 C   0  0  0  0  0  0  0  0  0  0  0  0
    2.7143   -1.6385    0.8841 C   0  0  0  0  0  0  0  0  0  0  0  0
    3.5061   -1.9682   -1.3746 C   0  0  0  0  0  0  0  0  0  0  0  0
    2.2975   -2.9688    0.9322 C   0  0  0  0  0  0  0  0  0  0  0  0
    3.0892   -3.2984   -1.3264 C   0  0  0  0  0  0  0  0  0  0  0  0
    2.4848   -3.7987   -0.1729 C   0  0  0  0  0  0  0  0  0  0  0  0
  1 12  1  0
  1 13  1  0
  2 12  2  0
  3 18  1  0
  3 21  1  0
  4 15  3  0
  5  6  1  0
  5  7  1  0
  5  8  1  0
  5  9  1  0
  6  7  1  0
  6 10  1  0
  6 11  1  0
  7 12  1  0
 13 14  1  0
 13 15  1  0
 14 16  2  0
 14 17  1  0
 16 18  1  0
 17 19  2  0
 18 20  2  0
 19 20  1  0
 21 22  2  0
 21 23  1  0
 22 24  1  0
 23 25  2  0
 24 26  2  0
 25 26  1  0
M  END
>  <PUBCHEM_COMPOUND_CID>  (1) 
49997

>  <PUBCHEM_CONFORMER_RMSD>  (1) 
1

>  <PUBCHEM_CONFORMER_DIVERSEORDER>  (1) 
1
123
80
331
248
223
113
167
222
14
400
338
305
449
54
258
221
56
3
178
243
489
377
52
144
238
476
378
303
351
512
72
33
423
301
49
169
38
162
414
132
170
455
532
39
7
174
83
478
329
93
431
130
9
45
145
464
340
507
98
259
198
176
116
466
11
313
394
323
254
79
332
367
90
312
10
41
134
160
363
66
32
5
357
490
500
246
12
2
8
441
125
60
17
181
249
96
262
304
65
61
493
383
26
131
71
118
361
24
447
282
445
43
150
58
353
82
283
4
35
359
154
23
21
85
62
27
104
94
18
22
200
141
19
16
112

>  <PUBCHEM_MMFF94_PARTIAL_CHARGES>  (1) 
36
1 -0.43
10 0.09
11 0.09
12 0.72
13 0.62
14 -0.14
15 0.36
16 -0.15
17 -0.15
18 0.08
19 -0.15
2 -0.57
20 -0.15
21 0.08
22 -0.15
23 -0.15
24 -0.15
25 -0.15
26 -0.15
27 0.1
3 -0.17
4 -0.56
41 0.15
42 0.15
43 0.15
44 0.15
45 0.15
46 0.15
47 0.15
48 0.15
49 0.15
5 -0.19
6 -0.19
7 -0.1
8 0.09
9 0.09

>  <PUBCHEM_EFFECTIVE_ROTOR_COUNT>  (1) 
6.6

>  <PUBCHEM_PHARMACOPHORE_FEATURES>  (1) 
7
1 2 acceptor
1 3 acceptor
1 4 acceptor
3 5 8 9 hydrophobe
3 6 10 11 hydrophobe
6 14 16 17 18 19 20 rings
6 21 22 23 24 25 26 rings

>  <PUBCHEM_HEAVY_ATOM_COUNT>  (1) 
26

>  <PUBCHEM_ATOM_DEF_STEREO_COUNT>  (1) 
1

>  <PUBCHEM_ATOM_UDEF_STEREO_COUNT>  (1) 
0

>  <PUBCHEM_BOND_DEF_STEREO_COUNT>  (1) 
0

>  <PUBCHEM_BOND_UDEF_STEREO_COUNT>  (1) 
0

>  <PUBCHEM_ISOTOPIC_ATOM_COUNT>  (1) 
0

>  <PUBCHEM_COMPONENT_COUNT>  (1) 
1

>  <PUBCHEM_CACTVS_TAUTO_COUNT>  (1) 
1

>  <PUBCHEM_CONFORMER_ID>  (1) 
0000C34D00000001

>  <PUBCHEM_MMFF94_ENERGY>  (1) 
85.0968

>  <PUBCHEM_FEATURE_SELFOVERLAP>  (1) 
35.544

>  <PUBCHEM_SHAPE_FINGERPRINT>  (1) 
10064457 181 17549825933391258696
1100329 8 17978791208154175993
11370993 70 17982444103282043856
114674 6 18338238266533466506
12107183 9 17914636964032050985
12506688 2 18411986827934814096
12553582 1 18052827948786285930
12633257 1 18053672373468335547
12788726 201 17764037861149739026
13122387 1 17977948981999509362
13402501 40 18335702797088459850
13533116 47 18271533095563411939
13583140 156 17845644967057723993
1361 2 18196650924758107819
138480 1 18341897355484060346
14863182 85 18121227737973843604
14866123 147 17334787383209751961
15635459 17 18409732893221767530
15664445 248 17676770975772665821
17093844 170 18190458448993468736
17138139 8 16407289333177693855
17974551 9 17774162279871733953
1813 80 17458907149576679781
1979834 28 18049456030139374043
19930381 70 18411136952696939059
20511986 3 17273685662850189373
20775438 99 17761161706409431663
20775530 9 18264497199802382062
21133410 32 16810725215434738658
21197605 99 17691692602766331171
21279426 13 18335977576886285365
21285901 2 17896301641107493085
22113638 7 16394929821575100290
22182313 1 18114167658575445981
23559900 14 18338512049071126241
238918 7 18196932404055419426
3117164 225 18199208212883982809
463206 1 18053382390515449855
6433294 58 18411135831498919490
66674814 147 17330801013656702263
86090 222 18192441972154538130
9709674 26 18411139151487520843

>  <PUBCHEM_SHAPE_MULTIPOLES>  (1) 
512.48
8.73
5.01
1.57
6.26
0.89
-0.67
4.54
0.54
-4.54
0.25
0.21
-0.34
2.38

>  <PUBCHEM_SHAPE_SELFOVERLAP>  (1) 
1102.382

>  <PUBCHEM_SHAPE_VOLUME>  (1) 
282.3

>  <PUBCHEM_COORDINATE_TYPE>  (1) 
2
5
10

$$$$
