49994
     RDKit          3D

 21 22  0  0  0  0  0  0  0  0999 V2000
    2.1492   -3.2072    0.3849 O   0  0  0  0  0  0  0  0  0  0  0  0
    5.1561    0.4739    0.5349 O   0  0  0  0  0  0  0  0  0  0  0  0
   -0.1628   -2.6511   -0.8079 O   0  0  0  0  0  0  0  0  0  0  0  0
    1.9870    3.0210    0.0807 O   0  0  0  0  0  0  0  0  0  0  0  0
    4.1498    2.8178   -0.5566 O   0  0  0  0  0  0  0  0  0  0  0  0
    1.3596   -1.0014   -0.1259 C   0  0  0  0  0  0  0  0  0  0  0  0
    1.5815    0.3546   -0.2756 C   0  0  0  0  0  0  0  0  0  0  0  0
    2.8625    0.8600   -0.0534 C   0  0  0  0  0  0  0  0  0  0  0  0
    2.3703   -1.8705    0.2379 C   0  0  0  0  0  0  0  0  0  0  0  0
    3.8974    0.0002    0.3147 C   0  0  0  0  0  0  0  0  0  0  0  0
    3.6512   -1.3652    0.4602 C   0  0  0  0  0  0  0  0  0  0  0  0
   -0.0095   -1.5180   -0.3656 C   0  0  0  0  0  0  0  0  0  0  0  0
   -3.6117   -0.2044   -0.0858 C   0  0  0  0  0  0  0  0  0  0  0  0
   -1.1522   -0.6061   -0.0807 C   0  0  0  0  0  0  0  0  0  0  0  0
   -2.4219   -1.0108   -0.3090 C   0  0  0  0  0  0  0  0  0  0  0  0
    3.0981    2.2885   -0.2092 C   0  0  0  0  0  0  0  0  0  0  0  0
   -3.5085    1.1846   -0.0083 C   0  0  0  0  0  0  0  0  0  0  0  0
   -4.8561   -0.8200    0.0508 C   0  0  0  0  0  0  0  0  0  0  0  0
   -4.6494    1.9579    0.2061 C   0  0  0  0  0  0  0  0  0  0  0  0
   -5.9969   -0.0464    0.2651 C   0  0  0  0  0  0  0  0  0  0  0  0
   -5.8935    1.3425    0.3427 C   0  0  0  0  0  0  0  0  0  0  0  0
  1  9  1  0
  2 10  1  0
  3 12  2  0
  4 16  1  0
  5 16  2  0
  6  7  2  0
  6  9  1  0
  6 12  1  0
  7  8  1  0
  8 10  2  0
  8 16  1  0
  9 11  2  0
 10 11  1  0
 12 14  1  0
 13 15  1  0
 13 17  2  0
 13 18  1  0
 14 15  2  0
 17 19  1  0
 18 20  2  0
 19 21  2  0
 20 21  1  0
M  END
>  <PUBCHEM_COMPOUND_CID>  (1) 
49994

>  <PUBCHEM_CONFORMER_RMSD>  (1) 
0.6

>  <PUBCHEM_CONFORMER_DIVERSEORDER>  (1) 
5
19
9
8
2
24
23
25
12
27
3
21
26
1
11
28
10
17
13
7
16
15
22
6
4
18
20
14

>  <PUBCHEM_MMFF94_PARTIAL_CHARGES>  (1) 
33
1 -0.53
10 0.08
11 -0.15
12 0.47
13 0.03
14 -0.14
15 -0.18
16 0.63
17 -0.15
18 -0.15
19 -0.15
2 -0.53
20 -0.15
21 -0.15
22 0.15
23 0.15
24 0.15
25 0.15
26 0.15
27 0.15
28 0.15
29 0.15
3 -0.57
30 0.15
31 0.45
32 0.45
33 0.5
4 -0.65
5 -0.57
6 0.09
7 -0.15
8 0.09
9 0.08

>  <PUBCHEM_EFFECTIVE_ROTOR_COUNT>  (1) 
4

>  <PUBCHEM_PHARMACOPHORE_FEATURES>  (1) 
8
1 1 donor
1 2 donor
1 3 acceptor
1 4 acceptor
1 5 acceptor
3 4 5 16 anion
6 13 17 18 19 20 21 rings
6 6 7 8 9 10 11 rings

>  <PUBCHEM_HEAVY_ATOM_COUNT>  (1) 
21

>  <PUBCHEM_ATOM_DEF_STEREO_COUNT>  (1) 
0

>  <PUBCHEM_ATOM_UDEF_STEREO_COUNT>  (1) 
0

>  <PUBCHEM_BOND_DEF_STEREO_COUNT>  (1) 
0

>  <PUBCHEM_BOND_UDEF_STEREO_COUNT>  (1) 
1

>  <PUBCHEM_ISOTOPIC_ATOM_COUNT>  (1) 
0

>  <PUBCHEM_COMPONENT_COUNT>  (1) 
1

>  <PUBCHEM_CACTVS_TAUTO_COUNT>  (1) 
15

>  <PUBCHEM_CONFORMER_ID>  (1) 
0000C34A00000005

>  <PUBCHEM_MMFF94_ENERGY>  (1) 
69.8081

>  <PUBCHEM_FEATURE_SELFOVERLAP>  (1) 
40.655

>  <PUBCHEM_SHAPE_FINGERPRINT>  (1) 
10354089 29 18409167697021419258
10411042 1 17833550098776599922
10595046 47 18412542137568677167
10688039 33 17749669580331448196
12107183 9 17690843363656869227
12403259 118 18339915004512134979
12633257 1 17894897551604850322
12788726 201 17560813095490060785
12925494 130 18268144254878157697
13785724 45 17907860600592586514
13878862 14 18189874467023244133
14251764 38 18338804416464551985
14251764 75 18195260024925938441
14341114 176 18338803316957815427
14790565 3 18263368156576065284
14849402 71 18261957448723874596
15142526 21 18115305716711680186
15188451 53 16081662183623251491
15196674 1 18410856564515310925
15238133 3 18260833683378179318
15475509 35 16443616888390838530
15475509 8 18341341011828598574
1601671 61 18409729535010658748
16760501 71 18339653261385380625
16992752 21 17543070083549447066
17810953 82 18411983550542639624
17844677 252 18340213986213114555
17868525 174 17973714784174317793
19784866 9 18411978066064250514
20157964 124 18410290286109752975
20715895 44 17981324483314298105
20739085 24 18040716991526198444
21033648 144 18260820544835974447
21033648 29 16877930630129578511
21033650 10 15266801948019014043
21065198 57 18337111164378769443
21315764 268 18189332369436672765
21503847 285 18408042896773774050
21709351 56 18340761538571818511
21859007 373 17243005762673531637
23227448 37 18342738555104808319
23557571 272 13542466436637583603
23558518 356 17754737453115672610
23559900 14 18268430140284724755
245318 6 17534639392731244669
335352 9 18410856573421666102
350125 39 18409166589194462428
351380 180 18407759222984785025
351380 3 11891336452377591137
3680242 22 18340495443799180785
38570 142 18116169924936794260
4214541 1 18410292476548264155
4325135 7 18273209812325830463
474 4 18410292514712573939
5104073 3 18187642560943919603
54446538 1 18410853270169802417
633830 44 18340485664042616342
7808743 9 18195808702655068536
8272917 22 18411139117307448766
960060 61 11527946780980971723
9999458 23 18333732429544684782

>  <PUBCHEM_SHAPE_MULTIPOLES>  (1) 
402.82
12.93
3.08
0.7
13.75
0.62
0.01
5.44
-1.85
-3.06
0.2
-0.07
-0.06
-0.75

>  <PUBCHEM_SHAPE_SELFOVERLAP>  (1) 
877.12

>  <PUBCHEM_SHAPE_VOLUME>  (1) 
218.2

>  <PUBCHEM_COORDINATE_TYPE>  (1) 
2
5
10

$$$$
