5004
     RDKit          3D

 20 22  0  0  0  0  0  0  0  0999 V2000
    0.2960    2.4507   -0.0016 O   0  0  0  0  0  0  0  0  0  0  0  0
   -0.5710   -2.8220   -0.0012 O   0  0  0  0  0  0  0  0  0  0  0  0
    2.8233    2.1109    0.0010 O   0  0  0  0  0  0  0  0  0  0  0  0
   -2.2124    2.9641   -0.0009 O   0  0  0  0  0  0  0  0  0  0  0  0
   -3.1317   -2.4747    0.0004 O   0  0  0  0  0  0  0  0  0  0  0  0
    4.8927    0.3407    0.0001 O   0  0  0  0  0  0  0  0  0  0  0  0
    1.2222    0.2917   -0.0001 C   0  0  0  0  0  0  0  0  0  0  0  0
   -1.2879    0.7180   -0.0001 C   0  0  0  0  0  0  0  0  0  0  0  0
   -1.5217   -0.6588   -0.0001 C   0  0  0  0  0  0  0  0  0  0  0  0
    0.9884   -1.0851   -0.0005 C   0  0  0  0  0  0  0  0  0  0  0  0
    0.0926    1.2435   -0.0003 C   0  0  0  0  0  0  0  0  0  0  0  0
   -0.3922   -1.6106   -0.0002 C   0  0  0  0  0  0  0  0  0  0  0  0
    2.5355    0.7768    0.0006 C   0  0  0  0  0  0  0  0  0  0  0  0
   -2.3674    1.6096    0.0003 C   0  0  0  0  0  0  0  0  0  0  0  0
   -2.8350   -1.1439    0.0003 C   0  0  0  0  0  0  0  0  0  0  0  0
    2.0678   -1.9766   -0.0004 C   0  0  0  0  0  0  0  0  0  0  0  0
    3.6083   -0.1152    0.0008 C   0  0  0  0  0  0  0  0  0  0  0  0
    3.3749   -1.4890    0.0003 C   0  0  0  0  0  0  0  0  0  0  0  0
   -3.6745    1.1219    0.0009 C   0  0  0  0  0  0  0  0  0  0  0  0
   -3.9078   -0.2520    0.0009 C   0  0  0  0  0  0  0  0  0  0  0  0
  1 11  2  0
  2 12  2  0
  3 13  1  0
  4 14  1  0
  5 15  1  0
  6 17  1  0
  7 10  2  0
  7 11  1  0
  7 13  1  0
  8  9  2  0
  8 11  1  0
  8 14  1  0
  9 12  1  0
  9 15  1  0
 10 12  1  0
 10 16  1  0
 13 17  2  0
 14 19  2  0
 15 20  2  0
 16 18  2  0
 17 18  1  0
 19 20  1  0
M  END
>  <PUBCHEM_COMPOUND_CID>  (1) 
5004

>  <PUBCHEM_CONFORMER_RMSD>  (1) 
0.6

>  <PUBCHEM_CONFORMER_DIVERSEORDER>  (1) 
1

>  <PUBCHEM_MMFF94_PARTIAL_CHARGES>  (1) 
28
1 -0.57
10 0.09
11 0.4
12 0.4
13 0.08
14 0.08
15 0.08
16 -0.15
17 0.08
18 -0.15
19 -0.15
2 -0.57
20 -0.15
21 0.15
22 0.15
23 0.15
24 0.15
25 0.45
26 0.45
27 0.45
28 0.45
3 -0.53
4 -0.53
5 -0.53
6 -0.53
7 0.09
8 0.09
9 0.09

>  <PUBCHEM_EFFECTIVE_ROTOR_COUNT>  (1) 
0

>  <PUBCHEM_PHARMACOPHORE_FEATURES>  (1) 
9
1 1 acceptor
1 2 acceptor
1 3 donor
1 4 donor
1 5 donor
1 6 donor
6 7 10 13 16 17 18 rings
6 7 8 9 10 11 12 rings
6 8 9 14 15 19 20 rings

>  <PUBCHEM_HEAVY_ATOM_COUNT>  (1) 
20

>  <PUBCHEM_ATOM_DEF_STEREO_COUNT>  (1) 
0

>  <PUBCHEM_ATOM_UDEF_STEREO_COUNT>  (1) 
0

>  <PUBCHEM_BOND_DEF_STEREO_COUNT>  (1) 
0

>  <PUBCHEM_BOND_UDEF_STEREO_COUNT>  (1) 
0

>  <PUBCHEM_ISOTOPIC_ATOM_COUNT>  (1) 
0

>  <PUBCHEM_COMPONENT_COUNT>  (1) 
1

>  <PUBCHEM_CACTVS_TAUTO_COUNT>  (1) 
227

>  <PUBCHEM_CONFORMER_ID>  (1) 
0000138C00000001

>  <PUBCHEM_MMFF94_ENERGY>  (1) 
64.7385

>  <PUBCHEM_FEATURE_SELFOVERLAP>  (1) 
45.72

>  <PUBCHEM_SHAPE_FINGERPRINT>  (1) 
10319926 262 18269812313038047410
10411042 1 17545884188685810726
10493431 412 18270127786406634529
10608611 8 18411697668955532256
10616163 171 18411984675765906127
10863032 1 18412262796409873914
10967382 1 18266741264237256551
11132069 177 18410852144418690682
11578080 2 17130407190016578379
13140716 1 18266459815030337099
13221675 6 18410855464576324294
13583140 156 14117527527734405295
138480 1 16753249013611513283
14223421 5 18411419535363027659
15196674 1 18338234868923950726
15442244 35 18265613178466665786
15536298 74 18342457002549686542
16945 1 18266741470369312999
17492 89 18410292501591204562
18186145 218 18200883859365704034
19591789 44 18410857676463571090
200 152 18131623487739588293
20510252 161 18271527507040982513
21267235 1 18410583902257753103
21501502 16 18410575084668373154
221490 88 18409456911777247106
2334 1 18411136930841573159
23402539 116 18341885316332189566
23463225 33 18408886204864657470
23559900 14 18270679745754899390
238 59 16671582860288468173
2748010 2 18410855425826491303
335352 9 17906453221001544254
34934 24 18409442557722133259
350125 39 18410296895484504017
474 4 17313958540403212724
5104073 3 18411135810298442386
58051976 378 18412823568920403916
69090 78 18413385427962713783
7097593 13 17754158800550879546
8809292 202 18334297599610926763
9709674 26 18341054038297164942

>  <PUBCHEM_SHAPE_MULTIPOLES>  (1) 
376.37
7.03
2.89
0.59
2.33
0.06
0
0.33
0
-0.96
0
-0.01
-0.01
0

>  <PUBCHEM_SHAPE_SELFOVERLAP>  (1) 
860.833

>  <PUBCHEM_SHAPE_VOLUME>  (1) 
191.9

>  <PUBCHEM_COORDINATE_TYPE>  (1) 
2
5
10

$$$$
