5016
     RDKit          3D

 23 25  0  0  1  0  0  0  0  0999 V2000
   -2.3066    3.0974    1.9476 Br  0  0  0  0  0  0  0  0  0  0  0  0
    1.1192    3.7274   -1.9134 O   0  0  0  0  0  0  0  0  0  0  0  0
   -0.7056    4.6195   -0.0804 O   0  0  0  0  0  0  0  0  0  0  0  0
   -1.7772   -1.7310   -0.2627 N   0  0  0  0  0  0  0  0  0  0  0  0
    0.5612   -0.9313   -0.5530 C   0  0  0  0  0  0  0  0  0  0  0  0
   -0.3701   -2.0465   -0.0092 C   0  0  0  0  0  0  0  0  0  0  0  0
    0.1639    0.5326   -0.3519 C   0  0  0  0  0  0  0  0  0  0  0  0
   -2.3907   -0.9768    0.8413 C   0  0  0  0  0  0  0  0  0  0  0  0
   -1.4865    0.0496    1.5361 C   0  0  0  0  0  0  0  0  0  0  0  0
   -0.7809    0.9846    0.5906 C   0  0  0  0  0  0  0  0  0  0  0  0
    1.9945   -1.2076   -0.1069 C   0  0  0  0  0  0  0  0  0  0  0  0
   -2.5597   -2.9321   -0.5498 C   0  0  0  0  0  0  0  0  0  0  0  0
    0.7876    1.4869   -1.1856 C   0  0  0  0  0  0  0  0  0  0  0  0
   -1.0682    2.3599    0.6771 C   0  0  0  0  0  0  0  0  0  0  0  0
    0.4911    2.8457   -1.0886 C   0  0  0  0  0  0  0  0  0  0  0  0
    2.4512   -0.6862    1.0974 C   0  0  0  0  0  0  0  0  0  0  0  0
    2.8271   -1.9779   -0.9095 C   0  0  0  0  0  0  0  0  0  0  0  0
   -0.4384    3.2827   -0.1557 C   0  0  0  0  0  0  0  0  0  0  0  0
   -3.9644   -2.5941   -0.9446 C   0  0  0  0  0  0  0  0  0  0  0  0
    3.7610   -0.9388    1.5053 C   0  0  0  0  0  0  0  0  0  0  0  0
    4.1368   -2.2306   -0.5014 C   0  0  0  0  0  0  0  0  0  0  0  0
    4.6036   -1.7110    0.7060 C   0  0  0  0  0  0  0  0  0  0  0  0
   -5.0492   -3.0223   -0.2888 C   0  0  0  0  0  0  0  0  0  0  0  0
  1 14  1  0
  2 15  1  0
  3 18  1  0
  4  6  1  0
  4  8  1  0
  4 12  1  0
  5  6  1  0
  5  7  1  0
  5 11  1  0
  7 10  2  0
  7 13  1  0
  8  9  1  0
  9 10  1  0
 10 14  1  0
 11 16  2  0
 11 17  1  0
 12 19  1  0
 13 15  2  0
 14 18  2  0
 15 18  1  0
 16 20  1  0
 17 21  2  0
 19 23  2  0
 20 22  2  0
 21 22  1  0
M  END
>  <PUBCHEM_COMPOUND_CID>  (1) 
5016

>  <PUBCHEM_CONFORMER_RMSD>  (1) 
0.6

>  <PUBCHEM_CONFORMER_DIVERSEORDER>  (1) 
5
24
8
6
26
29
2
39
34
17
11
15
4
22
36
14
9
10
3
23
19
27
7
37
31
1
25
21
33
35
38
28
16
13
30
18
12
20
32
40

>  <PUBCHEM_MMFF94_PARTIAL_CHARGES>  (1) 
34
1 -0.11
10 -0.14
11 -0.14
12 0.41
13 -0.15
14 0.11
15 0.08
16 -0.15
17 -0.15
18 0.08
19 -0.29
2 -0.53
20 -0.15
21 -0.15
22 -0.15
23 -0.3
3 -0.53
33 0.15
34 0.15
35 0.15
36 0.15
37 0.15
38 0.15
39 0.15
4 -0.81
40 0.45
41 0.45
42 0.15
43 0.15
5 0.29
6 0.27
7 -0.14
8 0.27
9 0.14

>  <PUBCHEM_EFFECTIVE_ROTOR_COUNT>  (1) 
4

>  <PUBCHEM_PHARMACOPHORE_FEATURES>  (1) 
8
1 1 hydrophobe
1 2 donor
1 23 hydrophobe
1 3 donor
1 4 cation
6 11 16 17 20 21 22 rings
6 7 10 13 14 15 18 rings
7 4 5 6 7 8 9 10 rings

>  <PUBCHEM_HEAVY_ATOM_COUNT>  (1) 
23

>  <PUBCHEM_ATOM_DEF_STEREO_COUNT>  (1) 
0

>  <PUBCHEM_ATOM_UDEF_STEREO_COUNT>  (1) 
1

>  <PUBCHEM_BOND_DEF_STEREO_COUNT>  (1) 
0

>  <PUBCHEM_BOND_UDEF_STEREO_COUNT>  (1) 
0

>  <PUBCHEM_ISOTOPIC_ATOM_COUNT>  (1) 
0

>  <PUBCHEM_COMPONENT_COUNT>  (1) 
1

>  <PUBCHEM_CACTVS_TAUTO_COUNT>  (1) 
31

>  <PUBCHEM_CONFORMER_ID>  (1) 
0000139800000005

>  <PUBCHEM_MMFF94_ENERGY>  (1) 
75.0709

>  <PUBCHEM_FEATURE_SELFOVERLAP>  (1) 
40.61

>  <PUBCHEM_SHAPE_FINGERPRINT>  (1) 
10165383 225 17623025494998113456
11045515 52 18334002917546698375
11115154 58 17557949985113589277
11265709 11 18411136973860376587
11578080 2 16010181849646951607
11833330 49 18337382760466248291
12293681 160 17261901234257087897
12553582 1 18336846263211673870
13004483 165 18339907277713339338
13083527 12 18339635767297365688
13134695 92 17985528190817690407
13140716 1 18336274469729913355
13294875 104 17263838582324023337
133893 2 17971770005718345633
13681431 1 18190176978290600022
13757389 114 17980790158768960500
13955234 65 17832423473035602107
14178000 15 18268428108627641071
14955137 171 17836923774096102914
15420108 30 17909871748856216153
17357779 13 18199444654305849943
1813 80 18410289254658809958
21033648 29 17621592823000312840
21120745 212 18340783593170789388
21202864 24 18123478176435552136
21304303 172 18343302557030005987
21304303 282 17182162052554922166
21344244 78 18127967710293487699
21452121 199 18338514260820359027
21524375 3 17397827878098414290
22112679 90 18189919559647150062
23419403 2 17908100538639020113
23559900 14 18050839215730731547
23598288 3 17825689767236435998
238 59 16605460352380523196
394222 165 17253696686879403355
458136 41 16972530140392011624
5265222 85 17688620181527964182
621550 34 17114397935581259137
6442390 28 17692816982164384816
6443956 14 18267573787997933043
7399639 24 18057864975279291618
7471813 234 18199461237691563823
7808743 9 18193001405510366644
81228 2 18336827489835380522
84936 182 17620193569693797639
9925002 15 18337408053365319292
9981440 41 16965173325777152392

>  <PUBCHEM_SHAPE_MULTIPOLES>  (1) 
462.55
6.85
5.62
1.53
4.32
3.69
0.2
-8.31
1.41
-6.42
-1.77
0.06
1.08
-1.71

>  <PUBCHEM_SHAPE_SELFOVERLAP>  (1) 
977.722

>  <PUBCHEM_SHAPE_VOLUME>  (1) 
263.5

>  <PUBCHEM_COORDINATE_TYPE>  (1) 
2
5
10

$$$$
