5019
     RDKit          3D

 23 26  0  0  1  0  0  0  0  0999 V2000
    1.5053    4.4692    0.3221 O   0  0  0  0  0  0  0  0  0  0  0  0
    3.7525    0.4902   -0.6080 O   0  0  0  0  0  0  0  0  0  0  0  0
    4.9596   -1.9053   -0.4202 O   0  0  0  0  0  0  0  0  0  0  0  0
   -2.7275   -0.3594    0.1019 N   0  0  0  0  0  0  0  0  0  0  0  0
   -1.2788   -0.4671   -0.2117 C   0  0  0  0  0  0  0  0  0  0  0  0
   -0.5294    0.8583   -0.0395 C   0  0  0  0  0  0  0  0  0  0  0  0
   -0.5901   -1.5441    0.6570 C   0  0  0  0  0  0  0  0  0  0  0  0
   -3.3148    0.7743   -0.6301 C   0  0  0  0  0  0  0  0  0  0  0  0
   -1.2376    2.0761   -0.0464 C   0  0  0  0  0  0  0  0  0  0  0  0
   -2.7393    2.0891   -0.1123 C   0  0  0  0  0  0  0  0  0  0  0  0
    0.8853    0.8504    0.0619 C   0  0  0  0  0  0  0  0  0  0  0  0
    0.8918   -1.6236    0.3658 C   0  0  0  0  0  0  0  0  0  0  0  0
   -3.4624   -1.5815   -0.2418 C   0  0  0  0  0  0  0  0  0  0  0  0
    1.6078   -0.4423    0.0744 C   0  0  0  0  0  0  0  0  0  0  0  0
   -0.5463    3.2851    0.0772 C   0  0  0  0  0  0  0  0  0  0  0  0
    1.5456    2.0866    0.1819 C   0  0  0  0  0  0  0  0  0  0  0  0
   -4.9259   -1.4543    0.1737 C   0  0  0  0  0  0  0  0  0  0  0  0
    0.8386    3.2894    0.1874 C   0  0  0  0  0  0  0  0  0  0  0  0
    1.5482   -2.8626    0.4282 C   0  0  0  0  0  0  0  0  0  0  0  0
    2.9833   -0.5608   -0.1935 C   0  0  0  0  0  0  0  0  0  0  0  0
    3.6279   -1.8003   -0.1461 C   0  0  0  0  0  0  0  0  0  0  0  0
    2.9125   -2.9492    0.1704 C   0  0  0  0  0  0  0  0  0  0  0  0
   -5.7061   -2.7183   -0.1526 C   0  0  0  0  0  0  0  0  0  0  0  0
  1 18  1  0
  2 20  1  0
  3 21  1  0
  4  5  1  0
  4  8  1  0
  4 13  1  0
  5  6  1  0
  5  7  1  0
  6  9  2  0
  6 11  1  0
  7 12  1  0
  8 10  1  0
  9 10  1  0
  9 15  1  0
 11 14  1  0
 11 16  2  0
 12 14  2  0
 12 19  1  0
 13 17  1  0
 14 20  1  0
 15 18  2  0
 16 18  1  0
 17 23  1  0
 19 22  2  0
 20 21  2  0
 21 22  1  0
M  END
>  <PUBCHEM_COMPOUND_CID>  (1) 
5019

>  <PUBCHEM_CONFORMER_RMSD>  (1) 
0.6

>  <PUBCHEM_CONFORMER_DIVERSEORDER>  (1) 
4
1
6
3
5
2

>  <PUBCHEM_MMFF94_PARTIAL_CHARGES>  (1) 
26
1 -0.53
10 0.14
12 -0.14
13 0.27
15 -0.15
16 -0.15
18 0.08
19 -0.15
2 -0.53
20 0.08
21 0.08
22 -0.15
3 -0.53
33 0.15
34 0.15
37 0.15
38 0.15
4 -0.81
42 0.45
43 0.45
44 0.45
5 0.41
6 -0.14
7 0.14
8 0.27
9 -0.14

>  <PUBCHEM_EFFECTIVE_ROTOR_COUNT>  (1) 
2.8

>  <PUBCHEM_PHARMACOPHORE_FEATURES>  (1) 
9
1 1 donor
1 2 donor
1 23 hydrophobe
1 3 donor
1 4 cation
6 12 14 19 20 21 22 rings
6 4 5 6 8 9 10 rings
6 5 6 7 11 12 14 rings
6 6 9 11 15 16 18 rings

>  <PUBCHEM_HEAVY_ATOM_COUNT>  (1) 
23

>  <PUBCHEM_ATOM_DEF_STEREO_COUNT>  (1) 
0

>  <PUBCHEM_ATOM_UDEF_STEREO_COUNT>  (1) 
1

>  <PUBCHEM_BOND_DEF_STEREO_COUNT>  (1) 
0

>  <PUBCHEM_BOND_UDEF_STEREO_COUNT>  (1) 
0

>  <PUBCHEM_ISOTOPIC_ATOM_COUNT>  (1) 
0

>  <PUBCHEM_COMPONENT_COUNT>  (1) 
1

>  <PUBCHEM_CACTVS_TAUTO_COUNT>  (1) 
250

>  <PUBCHEM_CONFORMER_ID>  (1) 
0000139B00000004

>  <PUBCHEM_MMFF94_ENERGY>  (1) 
68.1235

>  <PUBCHEM_FEATURE_SELFOVERLAP>  (1) 
45.766

>  <PUBCHEM_SHAPE_FINGERPRINT>  (1) 
10319926 262 17619317950907735362
10411042 1 18411136922231098242
10616163 171 18196091040856934830
10693767 8 18129951211810499886
10967382 1 18338234993652004216
1100329 8 18267307539002442993
11045515 52 18188210897008090117
11578080 2 17630865180038921865
12173636 292 17258207472303908588
12403259 226 18335414673417933365
12553582 1 18266732485556264161
12788726 201 17974007241266269266
13140716 1 18193547874804075834
13533116 47 18127411383770382587
138480 1 18410854399487894321
13955234 65 18125160695714358745
14767858 380 18262249918763752462
14787075 74 18187372038197441298
14790565 3 17255687916024346789
14863182 85 17829614207899222757
15042514 8 18122908620769766355
15196674 1 18410012113234827638
15442244 35 17399514524994246898
15475509 84 18130244691985707049
15927050 60 17764592418484025406
16087824 20 18050569543946739813
16945 1 18410848901723676353
17980427 26 17055256768812985297
19591789 44 18410576197064902822
19930381 70 18337951323841614257
20028762 73 16685420764017434031
20510252 161 17478604612308927976
20645477 70 18118953927117196607
20775438 99 17689381236831056893
21049683 271 18189346825410147109
21197605 99 17472422526968360107
21267235 1 18338243677907734263
221490 88 18336265725714724467
22182313 1 18190721202698593317
2334 1 18337389340292653874
23352939 185 18343028804314621891
23379529 103 18056487136153019310
23557571 272 17842273666869258110
23558518 356 17830184510852595834
23559900 14 18338222839332438905
23566358 27 18196649820697805335
2748010 2 18339344310521701712
3091708 16 9211793642596292649
33824 294 18048875492495049273
3421961 26 18339642364604626115
352729 6 17114094470139552881
5104073 3 18341889641353681698
54173680 148 18050566248729974851
59755656 215 18193840581025573269
6443956 14 18409167740187266205
6669772 16 17980765166496858740
70251023 43 18409167744841332643
7364860 26 18267583696439934121
9709674 26 18263360455625480035

>  <PUBCHEM_SHAPE_MULTIPOLES>  (1) 
450.74
8.19
4.79
0.69
6.14
3.53
0
-8.59
1.15
-1.11
-0.51
-0.01
-0.05
0.18

>  <PUBCHEM_SHAPE_SELFOVERLAP>  (1) 
993.879

>  <PUBCHEM_SHAPE_VOLUME>  (1) 
241.8

>  <PUBCHEM_COORDINATE_TYPE>  (1) 
2
5
10

$$$$
