5021
     RDKit          3D

 21 24  0  0  1  0  0  0  0  0999 V2000
    2.5410    1.7593    0.6454 O   0  0  0  0  0  0  0  0  0  0  0  0
    4.6017    0.0332    0.5542 O   0  0  0  0  0  0  0  0  0  0  0  0
   -3.0542   -1.6038   -0.1264 N   0  0  0  0  0  0  0  0  0  0  0  0
   -1.6893   -1.1222    0.2113 C   0  0  0  0  0  0  0  0  0  0  0  0
   -1.5209    0.3873    0.0074 C   0  0  0  0  0  0  0  0  0  0  0  0
   -0.6089   -1.8589   -0.6127 C   0  0  0  0  0  0  0  0  0  0  0  0
   -2.6527    1.2249   -0.0339 C   0  0  0  0  0  0  0  0  0  0  0  0
   -4.0601   -0.7791    0.5619 C   0  0  0  0  0  0  0  0  0  0  0  0
   -4.0385    0.6440    0.0120 C   0  0  0  0  0  0  0  0  0  0  0  0
   -0.2163    0.9377   -0.0744 C   0  0  0  0  0  0  0  0  0  0  0  0
    0.7758   -1.3379   -0.2984 C   0  0  0  0  0  0  0  0  0  0  0  0
    0.9585    0.0369   -0.0352 C   0  0  0  0  0  0  0  0  0  0  0  0
   -3.2547   -3.0090    0.2429 C   0  0  0  0  0  0  0  0  0  0  0  0
   -2.4930    2.6054   -0.1868 C   0  0  0  0  0  0  0  0  0  0  0  0
   -0.0958    2.3310   -0.2251 C   0  0  0  0  0  0  0  0  0  0  0  0
    1.8699   -2.2168   -0.3117 C   0  0  0  0  0  0  0  0  0  0  0  0
    2.2614    0.4793    0.2560 C   0  0  0  0  0  0  0  0  0  0  0  0
   -1.2204    3.1551   -0.2786 C   0  0  0  0  0  0  0  0  0  0  0  0
    3.3447   -0.4043    0.2581 C   0  0  0  0  0  0  0  0  0  0  0  0
    3.1502   -1.7498   -0.0313 C   0  0  0  0  0  0  0  0  0  0  0  0
    5.4017    0.4875   -0.5349 C   0  0  0  0  0  0  0  0  0  0  0  0
  1 17  1  0
  2 19  1  0
  2 21  1  0
  3  4  1  0
  3  8  1  0
  3 13  1  0
  4  5  1  0
  4  6  1  0
  5  7  2  0
  5 10  1  0
  6 11  1  0
  7  9  1  0
  7 14  1  0
  8  9  1  0
 10 12  1  0
 10 15  2  0
 11 12  2  0
 11 16  1  0
 12 17  1  0
 14 18  2  0
 15 18  1  0
 16 20  2  0
 17 19  2  0
 19 20  1  0
M  END
>  <PUBCHEM_COMPOUND_CID>  (1) 
5021

>  <PUBCHEM_CONFORMER_RMSD>  (1) 
0.6

>  <PUBCHEM_CONFORMER_DIVERSEORDER>  (1) 
1
4
2
6
5
3

>  <PUBCHEM_MMFF94_PARTIAL_CHARGES>  (1) 
25
1 -0.53
11 -0.14
13 0.27
14 -0.15
15 -0.15
16 -0.15
17 0.08
18 -0.15
19 0.08
2 -0.36
20 -0.15
21 0.28
3 -0.81
32 0.15
33 0.15
34 0.15
35 0.15
36 0.15
37 0.45
4 0.41
5 -0.14
6 0.14
7 -0.14
8 0.27
9 0.14

>  <PUBCHEM_EFFECTIVE_ROTOR_COUNT>  (1) 
1.8

>  <PUBCHEM_PHARMACOPHORE_FEATURES>  (1) 
7
1 1 donor
1 2 acceptor
1 3 cation
6 11 12 16 17 19 20 rings
6 3 4 5 7 8 9 rings
6 4 5 6 10 11 12 rings
6 5 7 10 14 15 18 rings

>  <PUBCHEM_HEAVY_ATOM_COUNT>  (1) 
21

>  <PUBCHEM_ATOM_DEF_STEREO_COUNT>  (1) 
0

>  <PUBCHEM_ATOM_UDEF_STEREO_COUNT>  (1) 
1

>  <PUBCHEM_BOND_DEF_STEREO_COUNT>  (1) 
0

>  <PUBCHEM_BOND_UDEF_STEREO_COUNT>  (1) 
0

>  <PUBCHEM_ISOTOPIC_ATOM_COUNT>  (1) 
0

>  <PUBCHEM_COMPONENT_COUNT>  (1) 
1

>  <PUBCHEM_CACTVS_TAUTO_COUNT>  (1) 
9

>  <PUBCHEM_CONFORMER_ID>  (1) 
0000139D00000001

>  <PUBCHEM_MMFF94_ENERGY>  (1) 
76.8085

>  <PUBCHEM_FEATURE_SELFOVERLAP>  (1) 
35.608

>  <PUBCHEM_SHAPE_FINGERPRINT>  (1) 
10319926 262 18267564842361953498
10366900 7 18130495375529046721
10411042 1 18193839481767380119
10493431 412 18125731093389783521
10498660 4 18409168779653800004
10608611 8 18268425737615581612
10616163 171 18411139138586768606
10670039 82 18334588945229625284
10759866 29 18188494567182411730
10906281 52 18340782442393828221
10967382 1 17906451378676812719
11132069 177 18412260623193267587
11578080 2 13828480171730798081
12011746 2 18412822473772412693
12035759 4 18044403679525329636
12173636 292 18048877390528138373
12236239 1 17748828518956216388
12390115 104 18057338183869636073
12403259 226 18340763728498470416
12553582 1 18337670940003069419
12633257 1 17908142083741383339
12730499 353 17108749753335337429
12788726 201 18261107456882546761
13140716 1 18339927142163521073
138480 1 15816217643610347461
14223421 5 18412261705456441234
14787075 74 18041564770625068218
14790565 3 18194410119849482852
15196674 1 18339637832849606826
15442244 35 18120932802722673042
16087824 20 18410291386259898757
16945 1 18266739078267753471
17357779 13 18266439040811551287
17492 89 18263362499476564394
17804303 29 18341896324243685192
1813 80 17458070356359886141
19591789 44 18123191465820016892
19784866 170 18412268332649326026
20510252 161 18269836406902782953
21029758 27 18264212572240269103
21267235 1 18338525234741758275
21421861 104 18042402417996873322
21501502 16 18266173933649340922
221490 88 18196378026667043742
2334 1 18339361971717074407
23402539 116 18411129260141064271
23557571 272 18343029860944972918
23559900 14 17981601564375830470
238 59 16674401977868594061
2748010 2 18412544301730911183
335352 9 17907015075806837911
34934 24 18408880711944734539
350125 39 18339924922092930648
474 4 17096102389060817820
5104073 3 18267302041280059936
59755656 215 18411139104232487206
7097593 13 17537984884623738906
81228 2 18260841349604912185
8809292 202 18265899055636973339
9709674 26 18269554940331455462

>  <PUBCHEM_SHAPE_MULTIPOLES>  (1) 
415.45
8.08
3.28
0.71
6.09
0.44
0
-0.9
0.52
-2.38
-0.24
0.1
-0.02
0.4

>  <PUBCHEM_SHAPE_SELFOVERLAP>  (1) 
921.537

>  <PUBCHEM_SHAPE_VOLUME>  (1) 
221.5

>  <PUBCHEM_COORDINATE_TYPE>  (1) 
2
5
10

$$$$
