5024
     RDKit          3D

 22 24  0  0  1  0  0  0  0  0999 V2000
    3.6504   -1.2682   -1.2910 O   0  0  0  0  0  0  0  0  0  0  0  0
    4.2184    0.0878    1.0646 O   0  0  0  0  0  0  0  0  0  0  0  0
   -2.0595    2.3073   -0.2947 N   0  0  0  0  0  0  0  0  0  0  0  0
   -1.0591    0.0854   -1.0905 C   0  0  0  0  0  0  0  0  0  0  0  0
   -1.5232    1.5309   -1.4259 C   0  0  0  0  0  0  0  0  0  0  0  0
    0.3426    0.1199   -0.4869 C   0  0  0  0  0  0  0  0  0  0  0  0
   -1.0231    2.7320    0.6568 C   0  0  0  0  0  0  0  0  0  0  0  0
   -0.4202    1.5774    1.4592 C   0  0  0  0  0  0  0  0  0  0  0  0
    0.6355    0.8136    0.7028 C   0  0  0  0  0  0  0  0  0  0  0  0
   -2.0689   -0.8069   -0.3587 C   0  0  0  0  0  0  0  0  0  0  0  0
    1.3771   -0.5760   -1.1427 C   0  0  0  0  0  0  0  0  0  0  0  0
    1.9474    0.7871    1.2081 C   0  0  0  0  0  0  0  0  0  0  0  0
   -2.7716    3.4866   -0.8007 C   0  0  0  0  0  0  0  0  0  0  0  0
    2.6736   -0.5885   -0.6307 C   0  0  0  0  0  0  0  0  0  0  0  0
    2.9586    0.0928    0.5458 C   0  0  0  0  0  0  0  0  0  0  0  0
   -1.6123   -1.7971    0.5029 C   0  0  0  0  0  0  0  0  0  0  0  0
   -3.4299   -0.6158   -0.5641 C   0  0  0  0  0  0  0  0  0  0  0  0
   -2.5308   -2.6086    1.1688 C   0  0  0  0  0  0  0  0  0  0  0  0
   -4.3481   -1.4273    0.1020 C   0  0  0  0  0  0  0  0  0  0  0  0
   -3.8985   -2.4238    0.9685 C   0  0  0  0  0  0  0  0  0  0  0  0
    3.8423   -2.6357   -0.9346 C   0  0  0  0  0  0  0  0  0  0  0  0
    5.0993    1.1270    0.6410 C   0  0  0  0  0  0  0  0  0  0  0  0
  1 14  1  0
  1 21  1  0
  2 15  1  0
  2 22  1  0
  3  5  1  0
  3  7  1  0
  3 13  1  0
  4  5  1  0
  4  6  1  0
  4 10  1  0
  6  9  2  0
  6 11  1  0
  7  8  1  0
  8  9  1  0
  9 12  1  0
 10 16  2  0
 10 17  1  0
 11 14  2  0
 12 15  2  0
 14 15  1  0
 16 18  1  0
 17 19  2  0
 18 20  2  0
 19 20  1  0
M  END
>  <PUBCHEM_COMPOUND_CID>  (1) 
5024

>  <PUBCHEM_CONFORMER_RMSD>  (1) 
0.6

>  <PUBCHEM_CONFORMER_DIVERSEORDER>  (1) 
1
21
25
29
20
9
28
3
2
18
6
12
30
10
8
22
27
26
16
13
24
15
7
14
5
23
32
19
17
11
31
4

>  <PUBCHEM_MMFF94_PARTIAL_CHARGES>  (1) 
29
1 -0.36
10 -0.14
11 -0.15
12 -0.15
13 0.27
14 0.08
15 0.08
16 -0.15
17 -0.15
18 -0.15
19 -0.15
2 -0.36
20 -0.15
21 0.28
22 0.28
3 -0.81
30 0.15
31 0.15
35 0.15
36 0.15
37 0.15
38 0.15
39 0.15
4 0.29
5 0.27
6 -0.14
7 0.27
8 0.14
9 -0.14

>  <PUBCHEM_EFFECTIVE_ROTOR_COUNT>  (1) 
4

>  <PUBCHEM_PHARMACOPHORE_FEATURES>  (1) 
6
1 1 acceptor
1 2 acceptor
1 3 cation
6 10 16 17 18 19 20 rings
6 6 9 11 12 14 15 rings
7 3 4 5 6 7 8 9 rings

>  <PUBCHEM_HEAVY_ATOM_COUNT>  (1) 
22

>  <PUBCHEM_ATOM_DEF_STEREO_COUNT>  (1) 
0

>  <PUBCHEM_ATOM_UDEF_STEREO_COUNT>  (1) 
1

>  <PUBCHEM_BOND_DEF_STEREO_COUNT>  (1) 
0

>  <PUBCHEM_BOND_UDEF_STEREO_COUNT>  (1) 
0

>  <PUBCHEM_ISOTOPIC_ATOM_COUNT>  (1) 
0

>  <PUBCHEM_COMPONENT_COUNT>  (1) 
1

>  <PUBCHEM_CACTVS_TAUTO_COUNT>  (1) 
1

>  <PUBCHEM_CONFORMER_ID>  (1) 
000013A000000001

>  <PUBCHEM_MMFF94_ENERGY>  (1) 
92.3334

>  <PUBCHEM_FEATURE_SELFOVERLAP>  (1) 
30.458

>  <PUBCHEM_SHAPE_FINGERPRINT>  (1) 
10366900 7 18270951457674593906
10764073 3 17198019235363194827
1100329 8 17472694724646354003
11833330 49 18113898277768101309
12236239 1 15936676142844837343
12549972 3 18057873663464965930
12714826 92 18408322198428500231
12788726 201 18114754818404913897
13544653 18 18343023336689508351
13681431 1 17901401304780634949
14178342 30 18115018611481366694
14223421 5 18342457036956735330
14386348 63 18339643446414586979
14790565 3 17405424893493289288
14863182 85 15228802109088659691
15420108 30 14533547161287564984
15422964 175 18341897441019597642
15885798 251 18336553819273026699
16752209 62 18114737149431768991
16945 1 18260267443194979063
17349148 13 14635136941925851824
17357779 13 18342164605597678029
1813 80 18114472261455036975
19049666 15 18270113513760583790
192875 21 14418123037600952230
200 152 15430025574179736264
20510252 161 18411133623848630633
20600515 1 17896036718734397727
21285901 2 18342741823448385151
221490 88 18201442420501099310
22182313 1 17917430900440205948
23175994 123 18338801221061234659
23419403 2 17632283576125008977
23493267 7 18339062810144316344
23526113 38 18058428946558846065
23557571 272 18409444787211281372
23559900 14 18339642235776803886
2748010 2 17917709055201442460
3380486 145 18060133293235958095
3759504 43 18191013505108749309
4921388 177 18262519186873591020
5104073 3 18271800178173318482
6049 1 18272938193792512300
7364860 26 17470176211879561221
81228 2 18336554854186065153
8809292 202 18198908011026759060
9709674 26 18341326713112421014
9981440 41 17772161177583393554

>  <PUBCHEM_SHAPE_MULTIPOLES>  (1) 
436.03
8.14
3.38
1.41
5.69
1.25
0
-3.81
0.67
-2.97
0.01
0.25
0.04
2.25

>  <PUBCHEM_SHAPE_SELFOVERLAP>  (1) 
929.971

>  <PUBCHEM_SHAPE_VOLUME>  (1) 
241.9

>  <PUBCHEM_COORDINATE_TYPE>  (1) 
2
5
10

$$$$
