5028
     RDKit          3D

 23 24  0  0  1  0  0  0  0  0999 V2000
    2.2505    2.2260    2.2074 Br  0  0  0  0  0  0  0  0  0  0  0  0
    1.7314   -1.6832   -1.9943 Br  0  0  0  0  0  0  0  0  0  0  0  0
    0.0136    0.7839   -2.4816 O   0  0  0  0  0  0  0  0  0  0  0  0
   -0.9958   -2.7320    0.7691 O   0  0  0  0  0  0  0  0  0  0  0  0
   -0.2126   -0.2625   -0.0057 N   0  0  0  0  0  0  0  0  0  0  0  0
    1.6681    2.2605   -1.8826 N   0  0  0  0  0  0  0  0  0  0  0  0
    0.8198    0.7499   -0.1943 C   0  0  0  0  0  0  0  0  0  0  0  0
   -1.5848    0.0326    0.1535 C   0  0  0  0  0  0  0  0  0  0  0  0
    2.1814    0.1921    0.1560 C   0  0  0  0  0  0  0  0  0  0  0  0
   -2.5205   -0.9866    0.3300 C   0  0  0  0  0  0  0  0  0  0  0  0
   -1.9996    1.3643    0.1323 C   0  0  0  0  0  0  0  0  0  0  0  0
   -3.3501    1.6765    0.2879 C   0  0  0  0  0  0  0  0  0  0  0  0
    0.7697    1.2458   -1.6299 C   0  0  0  0  0  0  0  0  0  0  0  0
    2.9050    0.7600    1.1954 C   0  0  0  0  0  0  0  0  0  0  0  0
    2.6886   -0.8789   -0.5665 C   0  0  0  0  0  0  0  0  0  0  0  0
   -3.8711   -0.6743    0.4856 C   0  0  0  0  0  0  0  0  0  0  0  0
   -4.2859    0.6573    0.4647 C   0  0  0  0  0  0  0  0  0  0  0  0
   -2.1197   -2.3875    0.3571 C   0  0  0  0  0  0  0  0  0  0  0  0
    4.1610    0.2464    1.5188 C   0  0  0  0  0  0  0  0  0  0  0  0
    3.9444   -1.3926   -0.2431 C   0  0  0  0  0  0  0  0  0  0  0  0
   -3.7943    3.1001    0.2650 C   0  0  0  0  0  0  0  0  0  0  0  0
    4.6806   -0.8299    0.7996 C   0  0  0  0  0  0  0  0  0  0  0  0
   -3.0797   -3.4679   -0.1243 C   0  0  0  0  0  0  0  0  0  0  0  0
  1 14  1  0
  2 15  1  0
  3 13  2  0
  4 18  2  0
  5  7  1  0
  5  8  1  0
  6 13  1  0
  7  9  1  0
  7 13  1  0
  8 10  2  0
  8 11  1  0
  9 14  2  0
  9 15  1  0
 10 16  1  0
 10 18  1  0
 11 12  2  0
 12 17  1  0
 12 21  1  0
 14 19  1  0
 15 20  2  0
 16 17  2  0
 18 23  1  0
 19 22  2  0
 20 22  1  0
M  END
>  <PUBCHEM_COMPOUND_CID>  (1) 
5028

>  <PUBCHEM_CONFORMER_RMSD>  (1) 
0.8

>  <PUBCHEM_CONFORMER_DIVERSEORDER>  (1) 
1
28
23
18
25
22
29
10
4
34
11
35
12
21
20
32
26
2
33
5
3
9
30
31
27
15
8
13
24
14
19
16
6
7
17

>  <PUBCHEM_MMFF94_PARTIAL_CHARGES>  (1) 
32
1 -0.11
10 0.09
11 -0.15
12 -0.14
13 0.57
14 0.11
15 0.11
16 -0.15
17 -0.15
18 0.42
19 -0.15
2 -0.11
20 -0.15
21 0.14
22 -0.15
23 0.06
25 0.4
26 0.15
27 0.15
28 0.15
29 0.15
3 -0.57
30 0.15
34 0.15
35 0.37
36 0.37
4 -0.57
5 -0.87
6 -0.8
7 0.57
8 0.1
9 -0.14

>  <PUBCHEM_EFFECTIVE_ROTOR_COUNT>  (1) 
5

>  <PUBCHEM_PHARMACOPHORE_FEATURES>  (1) 
9
1 1 hydrophobe
1 2 hydrophobe
1 3 acceptor
1 4 acceptor
1 5 cation
1 5 donor
1 6 donor
6 8 10 11 12 16 17 rings
6 9 14 15 19 20 22 rings

>  <PUBCHEM_HEAVY_ATOM_COUNT>  (1) 
23

>  <PUBCHEM_ATOM_DEF_STEREO_COUNT>  (1) 
0

>  <PUBCHEM_ATOM_UDEF_STEREO_COUNT>  (1) 
1

>  <PUBCHEM_BOND_DEF_STEREO_COUNT>  (1) 
0

>  <PUBCHEM_BOND_UDEF_STEREO_COUNT>  (1) 
0

>  <PUBCHEM_ISOTOPIC_ATOM_COUNT>  (1) 
0

>  <PUBCHEM_COMPONENT_COUNT>  (1) 
1

>  <PUBCHEM_CACTVS_TAUTO_COUNT>  (1) 
14

>  <PUBCHEM_CONFORMER_ID>  (1) 
000013A400000001

>  <PUBCHEM_MMFF94_ENERGY>  (1) 
86.5284

>  <PUBCHEM_FEATURE_SELFOVERLAP>  (1) 
45.67

>  <PUBCHEM_SHAPE_FINGERPRINT>  (1) 
10366900 7 18130785710870360064
11045977 3 18201716215717296224
11370993 70 18271802376463616627
12293681 4 18059293158703998160
12403259 327 18272083851603526312
12422481 6 17100865227759149881
12500047 106 18340204098612719873
12553582 1 17618800484172381959
12633257 1 18339627963505423698
12788726 201 18045797924968204027
13004483 165 17412718963532405927
13140716 1 18190753114268588483
133893 2 16661774473428398916
13544592 145 18126295142390297054
13583140 156 17632001048617299954
14178342 30 18407476669528710547
14223421 5 18200028593838000912
14866123 147 16545540289030300738
15042514 8 18336552724457585427
15375358 24 18201999885058577466
15420108 30 17975401431248998241
17349148 13 18409724097555786031
17492 89 18116160050153248883
17804303 29 18411422791095918258
17980427 23 18266733761003568708
1813 80 16950567640835746678
19078846 21 17531252712096391348
20600515 1 18336271137268217676
20832881 197 17409100101329128719
21033648 29 18267287760456707073
21065198 57 18342171168075474472
21756936 100 17269458122515483920
23419403 2 17108986611753095589
23557571 272 18130517391652647145
23558518 356 18261959668804715739
23559900 14 18341899618705153812
23598291 2 17895480335474638095
312423 11 17750811019661712043
474 4 13542468691273542610
495365 180 17416952955272019570
5385378 56 17832993746193034913
602551 16 18334574599442458074
6992083 37 18040437689670674085
7164475 11 18191872429906157039
7615 1 18042409212761254909
81228 2 18194697071246469747
9709674 26 18202284701551726935
9862522 239 17678447568344633253
9981440 41 17104546822223356480

>  <PUBCHEM_SHAPE_MULTIPOLES>  (1) 
463.51
8.41
3.3
1.8
0.08
0.81
-0.91
-0.35
3
2.75
0.47
-1.56
-0.57
1.38

>  <PUBCHEM_SHAPE_SELFOVERLAP>  (1) 
963.856

>  <PUBCHEM_SHAPE_VOLUME>  (1) 
269.8

>  <PUBCHEM_COORDINATE_TYPE>  (1) 
2
5
10

$$$$
