5033
     RDKit          3D

 25 27  0  0  1  0  0  0  0  0999 V2000
   -3.4454   -2.2318    1.4914 Cl  0  0  0  0  0  0  0  0  0  0  0  0
    4.5809    0.4063    1.6596 O   0  0  0  0  0  0  0  0  0  0  0  0
    0.7031    1.6957    0.1148 O   0  0  0  0  0  0  0  0  0  0  0  0
    0.2560    0.7759   -1.9733 O   0  0  0  0  0  0  0  0  0  0  0  0
   -2.0536    2.9454   -0.9485 O   0  0  0  0  0  0  0  0  0  0  0  0
   -1.0749   -2.3136   -1.7732 O   0  0  0  0  0  0  0  0  0  0  0  0
   -5.2064    0.0793    1.1223 O   0  0  0  0  0  0  0  0  0  0  0  0
    3.2448    0.7169    1.2617 C   0  0  0  0  0  0  0  0  0  0  0  0
    4.1519   -0.1512    0.4048 C   0  0  0  0  0  0  0  0  0  0  0  0
    2.9704    2.1348    0.8757 C   0  0  0  0  0  0  0  0  0  0  0  0
    1.9925    2.2010   -0.3076 C   0  0  0  0  0  0  0  0  0  0  0  0
    3.7072   -1.5390    0.2156 C   0  0  0  0  0  0  0  0  0  0  0  0
    1.8050    3.6406   -0.7741 C   0  0  0  0  0  0  0  0  0  0  0  0
    2.5456   -1.8536   -0.3771 C   0  0  0  0  0  0  0  0  0  0  0  0
   -0.0370    1.0502   -0.8222 C   0  0  0  0  0  0  0  0  0  0  0  0
   -1.3513    0.7492   -0.2470 C   0  0  0  0  0  0  0  0  0  0  0  0
   -1.6429   -0.4943    0.3393 C   0  0  0  0  0  0  0  0  0  0  0  0
    1.9892   -3.1767   -0.4972 C   0  0  0  0  0  0  0  0  0  0  0  0
   -0.6202   -1.5939    0.4989 C   0  0  0  0  0  0  0  0  0  0  0  0
   -2.3297    1.7430   -0.3687 C   0  0  0  0  0  0  0  0  0  0  0  0
    0.6936   -3.4461   -0.7159 C   0  0  0  0  0  0  0  0  0  0  0  0
   -0.3793   -2.4081   -0.7642 C   0  0  0  0  0  0  0  0  0  0  0  0
   -2.9517   -0.7132    0.7986 C   0  0  0  0  0  0  0  0  0  0  0  0
   -3.6181    1.5049    0.1028 C   0  0  0  0  0  0  0  0  0  0  0  0
   -3.9296    0.2780    0.6838 C   0  0  0  0  0  0  0  0  0  0  0  0
  1 23  1  0
  2  8  1  0
  2  9  1  0
  3 11  1  0
  3 15  1  0
  4 15  2  0
  5 20  1  0
  6 22  2  0
  7 25  1  0
  8  9  1  0
  8 10  1  0
  9 12  1  0
 10 11  1  0
 11 13  1  0
 12 14  2  0
 14 18  1  0
 15 16  1  0
 16 17  2  0
 16 20  1  0
 17 19  1  0
 17 23  1  0
 18 21  2  0
 19 22  1  0
 20 24  2  0
 21 22  1  0
 23 25  2  0
 24 25  1  0
M  END
>  <PUBCHEM_COMPOUND_CID>  (1) 
5033

>  <PUBCHEM_CONFORMER_RMSD>  (1) 
0.6

>  <PUBCHEM_CONFORMER_DIVERSEORDER>  (1) 
6
3
5
1
2
4
7
8

>  <PUBCHEM_MMFF94_PARTIAL_CHARGES>  (1) 
33
1 -0.18
10 0.09
11 0.28
12 -0.19
14 -0.15
15 0.63
16 0.09
17 -0.14
18 -0.15
19 0.2
2 -0.3
20 0.08
21 -0.14
22 0.49
23 0.18
24 -0.15
25 0.08
26 0.1
27 0.1
3 -0.43
31 0.15
35 0.15
36 0.15
39 0.15
4 -0.57
40 0.15
41 0.45
42 0.45
5 -0.53
6 -0.57
7 -0.53
8 -0.05
9 0.09

>  <PUBCHEM_EFFECTIVE_ROTOR_COUNT>  (1) 
1

>  <PUBCHEM_PHARMACOPHORE_FEATURES>  (1) 
6
1 2 acceptor
1 4 acceptor
1 5 donor
1 6 acceptor
1 7 donor
6 16 17 20 23 24 25 rings

>  <PUBCHEM_HEAVY_ATOM_COUNT>  (1) 
25

>  <PUBCHEM_ATOM_DEF_STEREO_COUNT>  (1) 
0

>  <PUBCHEM_ATOM_UDEF_STEREO_COUNT>  (1) 
3

>  <PUBCHEM_BOND_DEF_STEREO_COUNT>  (1) 
0

>  <PUBCHEM_BOND_UDEF_STEREO_COUNT>  (1) 
2

>  <PUBCHEM_ISOTOPIC_ATOM_COUNT>  (1) 
0

>  <PUBCHEM_COMPONENT_COUNT>  (1) 
1

>  <PUBCHEM_CACTVS_TAUTO_COUNT>  (1) 
37

>  <PUBCHEM_CONFORMER_ID>  (1) 
000013A900000006

>  <PUBCHEM_MMFF94_ENERGY>  (1) 
67.8692

>  <PUBCHEM_FEATURE_SELFOVERLAP>  (1) 
30.446

>  <PUBCHEM_SHAPE_FINGERPRINT>  (1) 
10493431 412 18271518784505502256
10616163 171 18047476904766547488
11112241 14 17273385427303317400
11370993 70 18272359906442331506
12011746 2 18341337691238727334
12035759 4 18055605504237148151
12403259 226 17763186834549606598
12422481 6 18265917876832778091
12553582 1 17759798535044509564
12633257 1 18259699012768330072
12788726 201 17407965852084899583
12839892 36 18340488997153671435
13140716 1 18265616661384189787
13402501 40 18266459806883825610
14725015 67 17327160062621179610
16110190 28 18336813278716571704
1813 80 16950285113128123613
19930381 70 18198055876704365706
20905425 154 17761494690691591014
21033648 29 18059559270508981016
22182313 1 18042406821060797285
23227448 37 18272645761917081318
23419403 2 18046337531663121581
23559900 14 18335713727405993764
2748010 2 18267299824976740230
3493558 16 16551726193103522753
35225 105 17199110264103695114
3524813 1 18269834229591850938
4340502 62 17632306692008189107
49207404 50 18412267211652351490
5265222 85 18195262233393288100
5282274 181 18339922714147041246
59755656 215 18115580432175270837
7064713 232 18129086996029153064
7097593 13 18193551392509359176
7471813 234 12353207799241176884

>  <PUBCHEM_SHAPE_MULTIPOLES>  (1) 
481.14
7.77
4.24
1.37
1.24
0.41
-0.06
-0.76
4.17
-1.59
-1.42
-0.07
0.17
1.01

>  <PUBCHEM_SHAPE_SELFOVERLAP>  (1) 
1015.041

>  <PUBCHEM_SHAPE_VOLUME>  (1) 
268.5

>  <PUBCHEM_COORDINATE_TYPE>  (1) 
2
5
10

$$$$
