5034
     RDKit          3D

 21 23  0  0  0  0  0  0  0  0999 V2000
    5.8607    2.6515   -0.0060 I   0  0  0  0  0  0  0  0  0  0  0  0
   -4.4327    0.2202    2.8716 Br  0  0  0  0  0  0  0  0  0  0  0  0
   -4.4334    0.2023   -2.8719 Br  0  0  0  0  0  0  0  0  0  0  0  0
   -0.4344   -2.1082    0.0055 O   0  0  0  0  0  0  0  0  0  0  0  0
   -5.5743    0.0480    0.0009 O   0  0  0  0  0  0  0  0  0  0  0  0
    1.9273   -2.1642    0.0056 N   0  0  0  0  0  0  0  0  0  0  0  0
    2.3869    0.0891   -0.0011 C   0  0  0  0  0  0  0  0  0  0  0  0
    0.9402   -0.0992   -0.0005 C   0  0  0  0  0  0  0  0  0  0  0  0
    2.9376   -1.1959    0.0028 C   0  0  0  0  0  0  0  0  0  0  0  0
    0.6593   -1.5740    0.0039 C   0  0  0  0  0  0  0  0  0  0  0  0
   -0.0192    0.8283   -0.0031 C   0  0  0  0  0  0  0  0  0  0  0  0
    3.2012    1.2057   -0.0035 C   0  0  0  0  0  0  0  0  0  0  0  0
   -1.4496    0.6284   -0.0024 C   0  0  0  0  0  0  0  0  0  0  0  0
    4.3009   -1.4160    0.0040 C   0  0  0  0  0  0  0  0  0  0  0  0
    4.5859    1.0054   -0.0023 C   0  0  0  0  0  0  0  0  0  0  0  0
    5.1303   -0.2927    0.0014 C   0  0  0  0  0  0  0  0  0  0  0  0
   -2.1508    0.5265   -1.2097 C   0  0  0  0  0  0  0  0  0  0  0  0
   -2.1499    0.5335    1.2062 C   0  0  0  0  0  0  0  0  0  0  0  0
   -3.5314    0.3397    1.2074 C   0  0  0  0  0  0  0  0  0  0  0  0
   -3.5322    0.3325   -1.2086 C   0  0  0  0  0  0  0  0  0  0  0  0
   -4.2225    0.2392   -0.0001 C   0  0  0  0  0  0  0  0  0  0  0  0
  1 15  1  0
  2 19  1  0
  3 20  1  0
  4 10  2  0
  5 21  1  0
  6  9  1  0
  6 10  1  0
  7  8  1  0
  7  9  2  0
  7 12  1  0
  8 10  1  0
  8 11  2  0
  9 14  1  0
 11 13  1  0
 12 15  2  0
 13 17  2  0
 13 18  1  0
 14 16  2  0
 15 16  1  0
 17 20  1  0
 18 19  2  0
 19 21  1  0
 20 21  2  0
M  END
>  <PUBCHEM_COMPOUND_CID>  (1) 
5034

>  <PUBCHEM_CONFORMER_RMSD>  (1) 
0.6

>  <PUBCHEM_CONFORMER_DIVERSEORDER>  (1) 
1

>  <PUBCHEM_MMFF94_PARTIAL_CHARGES>  (1) 
29
1 -0.08
10 0.62
11 -0.18
12 -0.15
13 0.03
14 -0.15
15 0.08
16 -0.15
17 -0.15
18 -0.15
19 0.11
2 -0.11
20 0.11
21 0.08
22 0.37
23 0.15
24 0.15
25 0.15
26 0.15
27 0.15
28 0.15
29 0.45
3 -0.11
4 -0.57
5 -0.53
6 -0.55
7 0.03
8 -0.01
9 0.12

>  <PUBCHEM_EFFECTIVE_ROTOR_COUNT>  (1) 
1.2

>  <PUBCHEM_PHARMACOPHORE_FEATURES>  (1) 
9
1 1 hydrophobe
1 2 hydrophobe
1 3 hydrophobe
1 4 acceptor
1 5 donor
1 6 donor
5 6 7 8 9 10 rings
6 13 17 18 19 20 21 rings
6 7 9 12 14 15 16 rings

>  <PUBCHEM_HEAVY_ATOM_COUNT>  (1) 
21

>  <PUBCHEM_ATOM_DEF_STEREO_COUNT>  (1) 
0

>  <PUBCHEM_ATOM_UDEF_STEREO_COUNT>  (1) 
0

>  <PUBCHEM_BOND_DEF_STEREO_COUNT>  (1) 
0

>  <PUBCHEM_BOND_UDEF_STEREO_COUNT>  (1) 
1

>  <PUBCHEM_ISOTOPIC_ATOM_COUNT>  (1) 
0

>  <PUBCHEM_COMPONENT_COUNT>  (1) 
1

>  <PUBCHEM_CACTVS_TAUTO_COUNT>  (1) 
4

>  <PUBCHEM_CONFORMER_ID>  (1) 
000013AA00000001

>  <PUBCHEM_MMFF94_ENERGY>  (1) 
66.5684

>  <PUBCHEM_FEATURE_SELFOVERLAP>  (1) 
45.76

>  <PUBCHEM_SHAPE_FINGERPRINT>  (1) 
10 15 17676768790483579304
10319926 262 16370995300891227536
10912923 1 17703789215125150776
11056379 131 15697997466292076557
11273773 42 17702108160921511192
11796584 16 16226604062297836954
12236239 1 17846780693891106125
12390115 104 18124892393787739112
12403259 415 18040434373908494396
12523318 42 16153428393308946625
12616971 3 18131072593495531634
13583140 156 17240194452220056624
13631057 29 17984692578991937367
13760787 5 18342737403705380548
14341114 328 17846506915152872969
14386348 63 17749396940434176771
14787075 74 18202847664321088896
17844677 252 18337677421056160076
19489759 90 16008748000642994733
200 152 18342731884735702149
204376 136 18409450319102395098
20645477 70 18262795164366321030
21033648 144 18339917216694449852
21033648 29 17676479549403969076
21033650 10 16056058908128675336
21065201 7 16153710881855286098
21315764 119 15338300986108739268
23402539 116 17917425410770310116
23536379 177 16056884602917419110
23557571 272 16878227459371720655
23559900 14 16516525474258430482
23569914 152 8233105986688798336
2838139 119 18202003265952590448
335352 9 18411703206439611924
34797466 226 14404900336461392336
474 4 18342458183803012024
5104073 3 17968097460798997544
5283173 99 17096074780462439125
542803 24 17561369473879248240
543368 44 17774720977897124464
633830 44 18130520642837505846

>  <PUBCHEM_SHAPE_MULTIPOLES>  (1) 
439.27
13.57
1.93
1.9
5.08
0.26
0.03
-5.77
0.15
3.67
-0.03
-5.25
-0.41
-0.24

>  <PUBCHEM_SHAPE_SELFOVERLAP>  (1) 
919.855

>  <PUBCHEM_SHAPE_VOLUME>  (1) 
256.2

>  <PUBCHEM_COORDINATE_TYPE>  (1) 
2
5
10

$$$$
