5038
     RDKit          3D

 30 32  0  0  1  0  0  0  0  0999 V2000
   -0.5082    1.8942    0.7731 O   0  0  0  0  0  0  0  0  0  0  0  0
   -3.3025   -2.5974   -0.2037 O   0  0  0  0  0  0  0  0  0  0  0  0
   -2.2269   -1.1847   -1.6332 O   0  0  0  0  0  0  0  0  0  0  0  0
    0.5774   -3.0645   -0.5282 O   0  0  0  0  0  0  0  0  0  0  0  0
    1.0412   -3.0791    1.7299 O   0  0  0  0  0  0  0  0  0  0  0  0
   -2.4795    0.8187    0.2150 N   0  0  0  0  0  0  0  0  0  0  0  0
    0.5804   -0.3383    1.6981 N   0  0  0  0  0  0  0  0  0  0  0  0
   -4.3005    1.3532   -1.2342 C   0  0  0  0  0  0  0  0  0  0  0  0
   -2.9537    1.8586   -0.6942 C   0  0  0  0  0  0  0  0  0  0  0  0
   -4.7275    0.2619   -0.2401 C   0  0  0  0  0  0  0  0  0  0  0  0
   -5.2161    2.5695   -1.2383 C   0  0  0  0  0  0  0  0  0  0  0  0
   -3.2418    3.2117   -0.0259 C   0  0  0  0  0  0  0  0  0  0  0  0
   -3.4134   -0.3001    0.2796 C   0  0  0  0  0  0  0  0  0  0  0  0
   -4.7578    3.3768   -0.0323 C   0  0  0  0  0  0  0  0  0  0  0  0
   -1.2580    0.9200    0.8658 C   0  0  0  0  0  0  0  0  0  0  0  0
   -2.9048   -1.3753   -0.6345 C   0  0  0  0  0  0  0  0  0  0  0  0
   -0.8694   -0.2509    1.7329 C   0  0  0  0  0  0  0  0  0  0  0  0
   -1.3688   -0.0358    3.1475 C   0  0  0  0  0  0  0  0  0  0  0  0
    1.0380   -0.9847    0.4742 C   0  0  0  0  0  0  0  0  0  0  0  0
    2.5031   -0.6394    0.1622 C   0  0  0  0  0  0  0  0  0  0  0  0
    0.8977   -2.4854    0.6688 C   0  0  0  0  0  0  0  0  0  0  0  0
    2.8014    0.8566   -0.0109 C   0  0  0  0  0  0  0  0  0  0  0  0
    4.2578    1.1620   -0.2546 C   0  0  0  0  0  0  0  0  0  0  0  0
    5.1093    1.4051    0.8232 C   0  0  0  0  0  0  0  0  0  0  0  0
    4.7538    1.2009   -1.5578 C   0  0  0  0  0  0  0  0  0  0  0  0
    0.4032   -4.4846   -0.5002 C   0  0  0  0  0  0  0  0  0  0  0  0
    6.4565    1.6875    0.5980 C   0  0  0  0  0  0  0  0  0  0  0  0
    6.1012    1.4832   -1.7829 C   0  0  0  0  0  0  0  0  0  0  0  0
    0.0551   -4.9664   -1.8925 C   0  0  0  0  0  0  0  0  0  0  0  0
    6.9525    1.7265   -0.7050 C   0  0  0  0  0  0  0  0  0  0  0  0
  1 15  2  0
  2 16  1  0
  3 16  2  0
  4 21  1  0
  4 26  1  0
  5 21  2  0
  6  9  1  0
  6 13  1  0
  6 15  1  0
  7 17  1  0
  7 19  1  0
  8  9  1  0
  8 10  1  0
  8 11  1  0
  9 12  1  0
 10 13  1  0
 11 14  1  0
 12 14  1  0
 13 16  1  0
 15 17  1  0
 17 18  1  0
 19 20  1  0
 19 21  1  0
 20 22  1  0
 22 23  1  0
 23 24  2  0
 23 25  1  0
 24 27  1  0
 25 28  2  0
 26 29  1  0
 27 30  2  0
 28 30  1  0
M  END
>  <PUBCHEM_COMPOUND_CID>  (1) 
5038

>  <PUBCHEM_CONFORMER_RMSD>  (1) 
1.4

>  <PUBCHEM_CONFORMER_DIVERSEORDER>  (1) 
1
142
31
206
32
6
258
101
116
261
234
204
118
163
243
242
265
259
121
215
201
239
247
172
170
227
41
140
82
194
210
141
237
219
138
76
250
165
197
214
187
81
35
256
27
89
216
262
136
217
244
209
233
69
161
67
74
213
127
94
236
177
68
17
16
241
86
218
199
145
33
158
235
20
63
173
222
180
174
257
129
130
195
75
85
61
171
34
254
114
238
7
97
100
91
46
122
191
252
134
240
117
176
52
128
152
78
251
71
55
223
189
147
246
108
66
112
73
183
18
186
253
79
153
107
182
109
230
93
54
110
164
30
60
44
3
12
260
47
80
95
224
181
184
220
200
207
150
139
9
203
169
28
70
92
90
225
179
36
157
72
232
53
62
83
151
64
59
249
58
263
43
226
103
148
49
190
84
123
19
255
42
202
65
99
21
156
146
137
228
245
119
205
229
39
56
14
113
29
175
88
111
188
211
166
48
98
143
221
144
124
178
212
13
15
24
264
167
126
106
125
37
105
133
231
135
160
193
132
87
5
155
198
104
248
102
185
45
38
57
4
96
26
131
196
8
77
50
25
11
115
2
208
162
154
168
51
23
40
120
159
192
10
22
149

>  <PUBCHEM_MMFF94_PARTIAL_CHARGES>  (1) 
29
1 -0.57
13 0.36
15 0.57
16 0.66
17 0.33
19 0.33
2 -0.65
21 0.66
22 0.14
23 -0.14
24 -0.15
25 -0.15
26 0.28
27 -0.15
28 -0.15
3 -0.57
30 -0.15
4 -0.43
43 0.36
47 0.5
5 -0.57
53 0.15
54 0.15
57 0.15
58 0.15
6 -0.66
62 0.15
7 -0.9
9 0.3

>  <PUBCHEM_EFFECTIVE_ROTOR_COUNT>  (1) 
12.2

>  <PUBCHEM_PHARMACOPHORE_FEATURES>  (1) 
10
1 1 acceptor
1 2 acceptor
1 3 acceptor
1 5 acceptor
1 7 cation
1 7 donor
3 2 3 16 anion
5 6 8 9 10 13 rings
5 8 9 11 12 14 rings
6 23 24 25 27 28 30 rings

>  <PUBCHEM_HEAVY_ATOM_COUNT>  (1) 
30

>  <PUBCHEM_ATOM_DEF_STEREO_COUNT>  (1) 
0

>  <PUBCHEM_ATOM_UDEF_STEREO_COUNT>  (1) 
5

>  <PUBCHEM_BOND_DEF_STEREO_COUNT>  (1) 
0

>  <PUBCHEM_BOND_UDEF_STEREO_COUNT>  (1) 
0

>  <PUBCHEM_ISOTOPIC_ATOM_COUNT>  (1) 
0

>  <PUBCHEM_COMPONENT_COUNT>  (1) 
1

>  <PUBCHEM_CACTVS_TAUTO_COUNT>  (1) 
1

>  <PUBCHEM_CONFORMER_ID>  (1) 
000013AE00000001

>  <PUBCHEM_MMFF94_ENERGY>  (1) 
62.1693

>  <PUBCHEM_FEATURE_SELFOVERLAP>  (1) 
51.227

>  <PUBCHEM_SHAPE_FINGERPRINT>  (1) 
10369192 42 18187938295291401141
105312 117 18336270128166875454
10721379 63 17910402684259672854
12293681 160 17918274251190469776
13103583 49 9222958105149960364
13150687 139 18410856547377776750
13383661 66 15910202231021116535
14713325 29 18188214320265849715
15163728 17 18334584507715777604
15463212 79 18339634628999663670
17980427 23 17385731321821264508
17980427 26 17313928745962418866
19958102 18 18272092738387124222
21033648 29 18409727404945153640
22393880 68 18272361010054182632
22950370 63 11240003365043943696
23559900 14 17983003458411479259
2838139 119 18113336453396863032
44802255 64 18265069084063142158
46194498 28 18048030771064396669
5283173 99 18197776803295043936
5486654 36 11383830497815289741
59755656 520 18058189330892539218
7288768 16 17748828505665230347
9981440 41 18041002847078887810

>  <PUBCHEM_SHAPE_MULTIPOLES>  (1) 
578.08
13.48
5.04
1.89
18.25
6.82
-0.83
-16.32
5.35
-2.29
2.19
0.08
0.56
-0.14

>  <PUBCHEM_SHAPE_SELFOVERLAP>  (1) 
1205.774

>  <PUBCHEM_SHAPE_VOLUME>  (1) 
329

>  <PUBCHEM_COORDINATE_TYPE>  (1) 
2
5
10

$$$$
