5041
     RDKit          3D

 26 28  0  0  1  0  0  0  0  0999 V2000
    8.0289    1.6411   -0.8128 I   0  0  0  0  0  0  0  0  0  0  0  0
   -4.6601   -0.3171   -0.4081 O   0  0  0  0  0  0  0  0  0  0  0  0
    1.6257   -0.8790    0.6452 N   0  0  0  0  0  0  0  0  0  0  0  0
   -2.0423   -0.1987   -1.3239 N   0  0  0  0  0  0  0  0  0  0  0  0
   -1.7879    1.9445   -0.3337 N   0  0  0  0  0  0  0  0  0  0  0  0
   -0.8820   -0.9252   -0.8583 C   0  0  0  0  0  0  0  0  0  0  0  0
    0.3877   -0.2802   -1.4118 C   0  0  0  0  0  0  0  0  0  0  0  0
   -0.8475   -0.9328    0.6697 C   0  0  0  0  0  0  0  0  0  0  0  0
    1.6408   -0.9316   -0.8234 C   0  0  0  0  0  0  0  0  0  0  0  0
    0.4454   -1.5644    1.1898 C   0  0  0  0  0  0  0  0  0  0  0  0
    2.8522   -1.4606    1.1906 C   0  0  0  0  0  0  0  0  0  0  0  0
   -2.5762    0.8651   -0.5883 C   0  0  0  0  0  0  0  0  0  0  0  0
   -2.6604   -0.6096   -2.5829 C   0  0  0  0  0  0  0  0  0  0  0  0
    4.0791   -0.7269    0.7184 C   0  0  0  0  0  0  0  0  0  0  0  0
   -3.8948    0.7739   -0.1447 C   0  0  0  0  0  0  0  0  0  0  0  0
    4.7083   -1.1317   -0.4503 C   0  0  0  0  0  0  0  0  0  0  0  0
    4.5625    0.3440    1.4569 C   0  0  0  0  0  0  0  0  0  0  0  0
   -4.4245    1.8305    0.5877 C   0  0  0  0  0  0  0  0  0  0  0  0
   -2.3372    2.9520    0.3812 C   0  0  0  0  0  0  0  0  0  0  0  0
    5.8443   -0.4518   -0.8895 C   0  0  0  0  0  0  0  0  0  0  0  0
    5.6984    1.0241    1.0177 C   0  0  0  0  0  0  0  0  0  0  0  0
   -5.1619   -1.0471    0.7120 C   0  0  0  0  0  0  0  0  0  0  0  0
   -3.6375    2.9439    0.8600 C   0  0  0  0  0  0  0  0  0  0  0  0
    6.3394    0.6262   -0.1556 C   0  0  0  0  0  0  0  0  0  0  0  0
   -6.6825   -1.0219    0.6853 C   0  0  0  0  0  0  0  0  0  0  0  0
   -4.6178   -2.4668    0.6690 C   0  0  0  0  0  0  0  0  0  0  0  0
  1 24  1  0
  2 15  1  0
  2 22  1  0
  3  9  1  0
  3 10  1  0
  3 11  1  0
  4  6  1  0
  4 12  1  0
  4 13  1  0
  5 12  2  0
  5 19  1  0
  6  7  1  0
  6  8  1  0
  7  9  1  0
  8 10  1  0
 11 14  1  0
 12 15  1  0
 14 16  2  0
 14 17  1  0
 15 18  2  0
 16 20  1  0
 17 21  2  0
 18 23  1  0
 19 23  2  0
 20 24  2  0
 21 24  1  0
 22 25  1  0
 22 26  1  0
M  END
>  <PUBCHEM_COMPOUND_CID>  (1) 
5041

>  <PUBCHEM_CONFORMER_RMSD>  (1) 
0.8

>  <PUBCHEM_CONFORMER_DIVERSEORDER>  (1) 
3
125
233
127
183
34
185
172
162
200
97
75
95
73
182
111
198
10
32
227
225
103
187
117
119
207
234
77
126
173
84
242
223
96
109
237
41
218
209
110
146
133
86
124
232
85
145
47
65
181
238
51
82
31
240
215
20
106
55
140
159
216
11
144
157
202
155
193
14
76
68
164
186
48
56
50
175
219
88
165
19
17
27
18
158
112
101
243
62
199
195
229
7
206
94
105
212
208
214
43
246
100
224
81
203
192
113
92
189
46
6
239
201
53
49
128
153
151
104
180
72
244
98
83
59
69
87
222
57
66
245
26
44
167
71
230
211
58
148
79
39
149
213
38
115
28
205
102
171
78
163
241
21
130
143
160
204
12
122
141
22
184
221
67
25
74
135
23
196
210
191
136
45
89
120
134
108
169
197
63
220
166
16
4
226
1
15
70
235
156
99
168
123
161
150
37
142
131
176
114
194
2
217
177
107
236
154
60
231
138
36
228
33
90
30
174
52
118
121
190
61
188
147
91
5
64
9
35
13
129
93
179
139
152
137
132
178
54
29
116
8
80
40
170
42
24

>  <PUBCHEM_MMFF94_PARTIAL_CHARGES>  (1) 
29
1 -0.08
10 0.27
11 0.41
12 0.41
13 0.37
14 -0.14
15 0.08
16 -0.15
17 -0.15
18 -0.15
19 0.16
2 -0.36
20 -0.15
21 -0.15
22 0.28
23 -0.15
24 0.08
3 -0.81
4 -0.84
41 0.15
42 0.15
43 0.15
44 0.15
45 0.15
46 0.15
48 0.15
5 -0.62
6 0.37
9 0.27

>  <PUBCHEM_EFFECTIVE_ROTOR_COUNT>  (1) 
7.2

>  <PUBCHEM_PHARMACOPHORE_FEATURES>  (1) 
9
1 1 hydrophobe
1 2 acceptor
1 3 cation
1 4 cation
1 5 acceptor
3 22 25 26 hydrophobe
6 14 16 17 20 21 24 rings
6 3 6 7 8 9 10 rings
6 5 12 15 18 19 23 rings

>  <PUBCHEM_HEAVY_ATOM_COUNT>  (1) 
26

>  <PUBCHEM_ATOM_DEF_STEREO_COUNT>  (1) 
0

>  <PUBCHEM_ATOM_UDEF_STEREO_COUNT>  (1) 
0

>  <PUBCHEM_BOND_DEF_STEREO_COUNT>  (1) 
0

>  <PUBCHEM_BOND_UDEF_STEREO_COUNT>  (1) 
0

>  <PUBCHEM_ISOTOPIC_ATOM_COUNT>  (1) 
0

>  <PUBCHEM_COMPONENT_COUNT>  (1) 
1

>  <PUBCHEM_CACTVS_TAUTO_COUNT>  (1) 
1

>  <PUBCHEM_CONFORMER_ID>  (1) 
000013B100000003

>  <PUBCHEM_MMFF94_ENERGY>  (1) 
91.4277

>  <PUBCHEM_FEATURE_SELFOVERLAP>  (1) 
45.671

>  <PUBCHEM_SHAPE_FINGERPRINT>  (1) 
10165383 225 16630531730793436943
106641 1 16877943879903251968
10670039 82 18342172233739644492
11135609 201 18187926253120884088
11578080 2 16700629892258254321
11796584 16 8214139655700692396
11991303 11 17060052696313776958
12403259 415 17417802942406144800
12596602 18 18113051615101557112
12730499 353 18342741810933176482
12916748 109 18412261731743326730
13631057 29 18041279971729156459
14251752 14 10303817570485769497
14341114 328 18261673658094731152
14848160 23 12035452731295908152
14848178 5 8358242757870569768
14849402 71 18188779473817607852
14856354 85 18200030775940526191
14933364 13 18273218590748216794
15183329 4 15913330178566953516
15338160 23 18130234757552310193
15575132 122 18268423538603700781
17844677 252 18271529710670441410
18335252 98 18409736187730994674
18608769 82 18339361980528535858
19377110 9 17894905226954196242
20511986 3 17313658227816011953
21033648 29 17631718405383156890
21304303 282 12325056346242926471
21315759 148 18340215115220392390
21315759 40 17748825199073298674
21756936 100 18341041965439260906
21792961 116 17703519822767319126
23572383 38 12035448307437844160
2747138 104 18338523035892290867
2838139 119 18271516577425458272
392239 28 18335425703189193161
4098825 35 18343026554474672406
4325135 7 18186803603549482643
44317340 157 17489587913906817936
444769 64 11167951267941363847
445580 37 18336837463371459636
469060 322 17240484689083005869
497634 4 18187082819621179311
5085150 59 11241967105263965888
5104073 3 18338508626234996714
550186 72 18260547796912075708
6126387 218 10519713259402289902

>  <PUBCHEM_SHAPE_MULTIPOLES>  (1) 
526.19
18.7
2.54
1.55
21.76
1.68
-0.6
4.19
0.8
-2.76
0.74
0.02
-0.26
-0.56

>  <PUBCHEM_SHAPE_SELFOVERLAP>  (1) 
1080.896

>  <PUBCHEM_SHAPE_VOLUME>  (1) 
308.4

>  <PUBCHEM_COORDINATE_TYPE>  (1) 
2
5
10

$$$$
