5042
     RDKit          3D

 26 28  0  0  1  0  0  0  0  0999 V2000
   -6.6005   -1.9155    0.0104 Cl  0  0  0  0  0  0  0  0  0  0  0  0
   -0.9679    4.0069   -0.8423 O   0  0  0  0  0  0  0  0  0  0  0  0
    0.5893   -3.1529   -2.0058 O   0  0  0  0  0  0  0  0  0  0  0  0
    1.2150    4.4419   -0.4364 O   0  0  0  0  0  0  0  0  0  0  0  0
   -0.7633    0.7590    1.8896 O   0  0  0  0  0  0  0  0  0  0  0  0
   -0.7773    1.4276   -0.3188 N   0  0  0  0  0  0  0  0  0  0  0  0
    2.2830   -2.6615   -0.5304 N   0  0  0  0  0  0  0  0  0  0  0  0
    1.5010    1.5257   -1.2294 C   0  0  0  0  0  0  0  0  0  0  0  0
    0.4726    2.1437   -0.2781 C   0  0  0  0  0  0  0  0  0  0  0  0
    1.7667    0.0672   -0.9925 C   0  0  0  0  0  0  0  0  0  0  0  0
    2.8365   -0.3419   -0.0581 C   0  0  0  0  0  0  0  0  0  0  0  0
    3.0653   -1.7113    0.1477 C   0  0  0  0  0  0  0  0  0  0  0  0
    1.0433   -0.8750   -1.6193 C   0  0  0  0  0  0  0  0  0  0  0  0
    3.6390    0.5745    0.6373 C   0  0  0  0  0  0  0  0  0  0  0  0
    1.2774   -2.3272   -1.4094 C   0  0  0  0  0  0  0  0  0  0  0  0
    0.2941    3.6360   -0.5179 C   0  0  0  0  0  0  0  0  0  0  0  0
    4.0637   -2.1565    1.0203 C   0  0  0  0  0  0  0  0  0  0  0  0
   -1.3297    0.7636    0.7971 C   0  0  0  0  0  0  0  0  0  0  0  0
    4.6379    0.1321    1.5098 C   0  0  0  0  0  0  0  0  0  0  0  0
    4.8498   -1.2308    1.7009 C   0  0  0  0  0  0  0  0  0  0  0  0
   -2.6272    0.1028    0.6033 C   0  0  0  0  0  0  0  0  0  0  0  0
   -3.4772   -0.0631    1.6874 C   0  0  0  0  0  0  0  0  0  0  0  0
   -2.9842   -0.3440   -0.6610 C   0  0  0  0  0  0  0  0  0  0  0  0
   -4.7100   -0.6892    1.5034 C   0  0  0  0  0  0  0  0  0  0  0  0
   -4.2171   -0.9699   -0.8451 C   0  0  0  0  0  0  0  0  0  0  0  0
   -5.0801   -1.1424    0.2371 C   0  0  0  0  0  0  0  0  0  0  0  0
  1 26  1  0
  2 16  1  0
  3 15  2  0
  4 16  2  0
  5 18  2  0
  6  9  1  0
  6 18  1  0
  7 12  1  0
  7 15  1  0
  8  9  1  0
  8 10  1  0
  9 16  1  0
 10 11  1  0
 10 13  2  0
 11 12  2  0
 11 14  1  0
 12 17  1  0
 13 15  1  0
 14 19  2  0
 17 20  2  0
 18 21  1  0
 19 20  1  0
 21 22  2  0
 21 23  1  0
 22 24  1  0
 23 25  2  0
 24 26  2  0
 25 26  1  0
M  END
>  <PUBCHEM_COMPOUND_CID>  (1) 
5042

>  <PUBCHEM_CONFORMER_RMSD>  (1) 
0.8

>  <PUBCHEM_CONFORMER_DIVERSEORDER>  (1) 
1
33
25
30
18
42
3
16
46
29
20
4
48
51
59
45
5
28
62
34
26
9
35
61
57
53
44
31
8
17
2
58
13
52
43
32
27
15
24
37
56
47
19
50
41
11
40
10
55
38
60
7
54
22
23
21
6
12
49
14
39
36

>  <PUBCHEM_MMFF94_PARTIAL_CHARGES>  (1) 
38
1 -0.18
10 -0.17
11 0.03
12 0.12
13 -0.14
14 -0.15
15 0.62
16 0.66
17 -0.15
18 0.54
19 -0.15
2 -0.65
20 -0.15
21 0.09
22 -0.15
23 -0.15
24 -0.15
25 -0.15
26 0.18
3 -0.57
30 0.15
31 0.37
32 0.15
33 0.37
34 0.15
35 0.15
36 0.15
37 0.15
38 0.15
39 0.5
4 -0.57
40 0.15
41 0.15
5 -0.57
6 -0.73
7 -0.55
8 0.14
9 0.36

>  <PUBCHEM_EFFECTIVE_ROTOR_COUNT>  (1) 
6

>  <PUBCHEM_PHARMACOPHORE_FEATURES>  (1) 
10
1 2 acceptor
1 3 acceptor
1 4 acceptor
1 5 acceptor
1 6 donor
1 7 donor
3 2 4 16 anion
6 11 12 14 17 19 20 rings
6 21 22 23 24 25 26 rings
6 7 10 11 12 13 15 rings

>  <PUBCHEM_HEAVY_ATOM_COUNT>  (1) 
26

>  <PUBCHEM_ATOM_DEF_STEREO_COUNT>  (1) 
0

>  <PUBCHEM_ATOM_UDEF_STEREO_COUNT>  (1) 
1

>  <PUBCHEM_BOND_DEF_STEREO_COUNT>  (1) 
0

>  <PUBCHEM_BOND_UDEF_STEREO_COUNT>  (1) 
0

>  <PUBCHEM_ISOTOPIC_ATOM_COUNT>  (1) 
0

>  <PUBCHEM_COMPONENT_COUNT>  (1) 
1

>  <PUBCHEM_CACTVS_TAUTO_COUNT>  (1) 
4

>  <PUBCHEM_CONFORMER_ID>  (1) 
000013B200000001

>  <PUBCHEM_MMFF94_ENERGY>  (1) 
68.7249

>  <PUBCHEM_FEATURE_SELFOVERLAP>  (1) 
50.832

>  <PUBCHEM_SHAPE_FINGERPRINT>  (1) 
1100329 8 17980198913972166148
11578080 2 17772476689828337384
11796584 16 16660641869082791027
11828532 37 17458910448812955447
12160290 23 17393348523572570141
12363563 72 18113910324776333027
12553582 1 18338533979236728725
12596602 18 15913337896803403411
12633257 1 18334299807324726735
12788726 201 17900001351247634853
12895836 83 11527648830910880850
13083527 12 18334857216828111828
13134695 92 18260544575606871533
13544653 18 18187363207834091712
13692114 37 17547306501824569809
13878862 14 10085984423595322347
14178342 30 18129954355668284185
14251751 18 16877949377366965747
14341114 328 16917343753487065394
14787075 74 16916492782905149594
14840074 17 18341893038973433972
14848160 33 18261122889011432931
14863182 85 17274557515019435623
15463212 79 17187000333520411933
17138139 8 16766754860591382439
17349148 13 18341901809249329243
1813 80 18411428297534213537
1979834 28 18060150829514139703
20626108 58 18411981373347200651
20739085 24 18343308063093462974
21304303 282 17103371019170311861
21315764 119 15574985162155048635
21315764 371 17131844187216205707
21756936 100 15194698196389568394
2255824 54 18196953268690265885
23419403 2 17823393033380500540
392239 28 17131536332244349730
427121 178 17060341829459956734
439807 62 18043812207623321915
44802255 64 15075432142978965740
463206 1 18040155132368084451
469060 322 18055881429925818382
633830 44 10665234799605568723
7064713 232 17775567528793720315
7808743 9 11527358521049344130
81228 2 17902247619080204405
9709674 26 17836356052338953380

>  <PUBCHEM_SHAPE_MULTIPOLES>  (1) 
503.5
10.83
4
1.73
11.95
4.51
-0.15
-8.59
-5
-1.96
1.77
-0.48
-0.66
-0.43

>  <PUBCHEM_SHAPE_SELFOVERLAP>  (1) 
1083.906

>  <PUBCHEM_SHAPE_VOLUME>  (1) 
275.1

>  <PUBCHEM_COORDINATE_TYPE>  (1) 
2
5
10

$$$$
