5043
     RDKit          3D

 39 45  0  0  1  0  0  0  0  0999 V2000
   -2.7165   -3.6663    0.1159 Cl  0  0  0  0  0  0  0  0  0  0  0  0
   -2.0195    4.0908   -0.1175 Cl  0  0  0  0  0  0  0  0  0  0  0  0
   -1.9007    0.4985    0.7135 O   0  0  0  0  0  0  0  0  0  0  0  0
   -3.0412   -1.8099   -1.8229 O   0  0  0  0  0  0  0  0  0  0  0  0
   -4.9637   -0.4293    0.1239 O   0  0  0  0  0  0  0  0  0  0  0  0
   -2.8190    1.7475   -1.8775 O   0  0  0  0  0  0  0  0  0  0  0  0
   -2.9220    1.3866    3.2885 O   0  0  0  0  0  0  0  0  0  0  0  0
    4.8268   -2.7054    0.0695 O   0  0  0  0  0  0  0  0  0  0  0  0
    5.2376    1.8890   -0.0743 O   0  0  0  0  0  0  0  0  0  0  0  0
   -0.4963   -1.3106    0.0423 N   0  0  0  0  0  0  0  0  0  0  0  0
   -0.2486    1.4607   -0.0421 N   0  0  0  0  0  0  0  0  0  0  0  0
    5.4209   -0.4430   -0.0014 N   0  0  0  0  0  0  0  0  0  0  0  0
   -1.9070   -0.7543    0.0281 C   0  0  0  0  0  0  0  0  0  0  0  0
   -2.4362   -0.5824   -1.4117 C   0  0  0  0  0  0  0  0  0  0  0  0
   -3.4833    0.5377   -1.5164 C   0  0  0  0  0  0  0  0  0  0  0  0
   -4.2076    0.7401   -0.1835 C   0  0  0  0  0  0  0  0  0  0  0  0
    0.7224   -0.7252    0.0215 C   0  0  0  0  0  0  0  0  0  0  0  0
   -3.2020    1.0578    0.9430 C   0  0  0  0  0  0  0  0  0  0  0  0
    1.9444   -1.4777    0.0408 C   0  0  0  0  0  0  0  0  0  0  0  0
   -0.1417   -2.6508    0.0813 C   0  0  0  0  0  0  0  0  0  0  0  0
    0.8469    0.6684   -0.0214 C   0  0  0  0  0  0  0  0  0  0  0  0
    1.2871   -2.7917    0.0821 C   0  0  0  0  0  0  0  0  0  0  0  0
    2.1830    1.1920   -0.0416 C   0  0  0  0  0  0  0  0  0  0  0  0
    3.2298   -0.9440    0.0210 C   0  0  0  0  0  0  0  0  0  0  0  0
    3.3534    0.4388   -0.0220 C   0  0  0  0  0  0  0  0  0  0  0  0
   -3.6790    0.6641    2.3367 C   0  0  0  0  0  0  0  0  0  0  0  0
    1.7694    2.6019   -0.0837 C   0  0  0  0  0  0  0  0  0  0  0  0
   -0.9937   -3.7652    0.1161 C   0  0  0  0  0  0  0  0  0  0  0  0
    0.3383    2.7167   -0.0827 C   0  0  0  0  0  0  0  0  0  0  0  0
    1.8062   -4.1084    0.1201 C   0  0  0  0  0  0  0  0  0  0  0  0
    4.5631   -1.5201    0.0343 C   0  0  0  0  0  0  0  0  0  0  0  0
    4.7679    0.7691   -0.0371 C   0  0  0  0  0  0  0  0  0  0  0  0
   -0.4305   -5.0413    0.1527 C   0  0  0  0  0  0  0  0  0  0  0  0
    0.9477   -5.2124    0.1549 C   0  0  0  0  0  0  0  0  0  0  0  0
    2.5139    3.8055   -0.1234 C   0  0  0  0  0  0  0  0  0  0  0  0
   -0.3025    3.9646   -0.1192 C   0  0  0  0  0  0  0  0  0  0  0  0
   -6.1909   -0.4568   -0.5906 C   0  0  0  0  0  0  0  0  0  0  0  0
    1.8648    5.0443   -0.1597 C   0  0  0  0  0  0  0  0  0  0  0  0
    0.4782    5.1206   -0.1575 C   0  0  0  0  0  0  0  0  0  0  0  0
  1 28  1  0
  2 36  1  0
  3 13  1  0
  3 18  1  0
  4 14  1  0
  5 16  1  0
  5 37  1  0
  6 15  1  0
  7 26  1  0
  8 31  2  0
  9 32  2  0
 10 13  1  0
 10 17  1  0
 10 20  1  0
 11 21  1  0
 11 29  1  0
 12 31  1  0
 12 32  1  0
 13 14  1  0
 14 15  1  0
 15 16  1  0
 16 18  1  0
 17 19  1  0
 17 21  2  0
 18 26  1  0
 19 22  1  0
 19 24  2  0
 20 22  2  0
 20 28  1  0
 21 23  1  0
 22 30  1  0
 23 25  2  0
 23 27  1  0
 24 25  1  0
 24 31  1  0
 25 32  1  0
 27 29  2  0
 27 35  1  0
 28 33  2  0
 29 36  1  0
 30 34  2  0
 33 34  1  0
 35 38  2  0
 36 39  2  0
 38 39  1  0
M  END
>  <PUBCHEM_COMPOUND_CID>  (1) 
5043

>  <PUBCHEM_CONFORMER_RMSD>  (1) 
0.8

>  <PUBCHEM_CONFORMER_DIVERSEORDER>  (1) 
1
6
2
11
13

>  <PUBCHEM_MMFF94_PARTIAL_CHARGES>  (1) 
48
1 -0.18
10 -0.04
11 -0.05
12 -0.49
13 0.54
14 0.28
15 0.28
16 0.28
17 -0.05
18 0.28
19 -0.01
2 -0.18
20 -0.15
21 -0.05
23 -0.01
24 0.09
25 0.09
26 0.28
28 0.18
29 -0.15
3 -0.56
30 -0.15
31 0.54
32 0.54
33 -0.15
34 -0.15
35 -0.15
36 0.18
37 0.28
38 -0.15
39 -0.15
4 -0.68
47 0.27
48 0.4
49 0.15
5 -0.56
50 0.4
51 0.37
52 0.15
53 0.15
54 0.15
58 0.4
59 0.15
6 -0.68
60 0.15
7 -0.68
8 -0.57
9 -0.57

>  <PUBCHEM_EFFECTIVE_ROTOR_COUNT>  (1) 
4.4

>  <PUBCHEM_PHARMACOPHORE_FEATURES>  (1) 
21
1 10 cation
1 11 cation
1 11 donor
1 12 donor
1 3 acceptor
1 4 acceptor
1 4 donor
1 5 acceptor
1 6 acceptor
1 6 donor
1 7 acceptor
1 7 donor
1 8 acceptor
1 9 acceptor
5 10 17 19 20 22 rings
5 11 21 23 27 29 rings
5 12 24 25 31 32 rings
6 17 19 21 23 24 25 rings
6 20 22 28 30 33 34 rings
6 27 29 35 36 38 39 rings
6 3 13 14 15 16 18 rings

>  <PUBCHEM_HEAVY_ATOM_COUNT>  (1) 
39

>  <PUBCHEM_ATOM_DEF_STEREO_COUNT>  (1) 
0

>  <PUBCHEM_ATOM_UDEF_STEREO_COUNT>  (1) 
5

>  <PUBCHEM_BOND_DEF_STEREO_COUNT>  (1) 
0

>  <PUBCHEM_BOND_UDEF_STEREO_COUNT>  (1) 
0

>  <PUBCHEM_ISOTOPIC_ATOM_COUNT>  (1) 
0

>  <PUBCHEM_COMPONENT_COUNT>  (1) 
1

>  <PUBCHEM_CACTVS_TAUTO_COUNT>  (1) 
21

>  <PUBCHEM_CONFORMER_ID>  (1) 
000013B300000001

>  <PUBCHEM_MMFF94_ENERGY>  (1) 
197.2922

>  <PUBCHEM_FEATURE_SELFOVERLAP>  (1) 
107.052

>  <PUBCHEM_SHAPE_FINGERPRINT>  (1) 
10190108 129 17907048116921804280
10675989 125 17831559995224292021
1100329 8 18338515373443748336
12788726 201 18264486179543781826
13140716 1 18339083803553841376
1361 2 18410006672154783515
13636023 51 12917879420130602426
13911987 19 18334301954760402452
140371 6 18124878125663756186
14790565 3 18410580552636858436
14955137 171 18336844016821880826
15320467 1 18410291432143237045
15420108 30 17627808413507851113
15439362 3 18194393618311123925
15927050 60 17906737260121203317
16112460 7 18343305877123940424
19311894 1 18411979144170516422
19319366 153 18200021997533476007
19591789 44 18266741286207900250
19930381 70 18336825278338406639
20028762 73 18272366481816274223
20642791 105 17187557785520127345
20739085 24 18193580916356911512
20764821 26 18265057014265880668
20775438 99 17333889498985087743
21796203 349 17976018377394745784
23559900 14 17835793471821349464
3178227 256 18337681892633742411
350125 39 18120660389894731299
3886686 26 17763992025617901464
469060 322 18339928086929693657
50150288 127 16766527179863646433
5309563 4 18338515227573141943
9961470 85 17982442999376047096

>  <PUBCHEM_SHAPE_MULTIPOLES>  (1) 
750.31
9.01
7.63
1.26
0.09
0.49
0.67
-0.04
-0.33
-2.82
-0.01
2.06
-0.51
-0.61

>  <PUBCHEM_SHAPE_SELFOVERLAP>  (1) 
1698.894

>  <PUBCHEM_SHAPE_VOLUME>  (1) 
393.4

>  <PUBCHEM_COORDINATE_TYPE>  (1) 
2
5
10

$$$$
