5050
     RDKit          3D

 26 28  0  0  0  0  0  0  0  0999 V2000
    0.4081    0.5191   -0.0057 O   0  0  0  0  0  0  0  0  0  0  0  0
    2.9251    0.2148   -0.0128 O   0  0  0  0  0  0  0  0  0  0  0  0
   -3.7576    2.8710    0.0151 O   0  0  0  0  0  0  0  0  0  0  0  0
   -1.3475    4.1595    0.0132 O   0  0  0  0  0  0  0  0  0  0  0  0
    3.3827    2.4841   -0.0052 O   0  0  0  0  0  0  0  0  0  0  0  0
   -3.7709    0.5840    0.0082 N   0  0  0  0  0  0  0  0  0  0  0  0
    5.9685   -2.0526   -0.0054 C   0  0  0  0  0  0  0  0  0  0  0  0
   -3.0930   -0.6448    0.0017 C   0  0  0  0  0  0  0  0  0  0  0  0
   -1.6936   -0.6633   -0.0037 C   0  0  0  0  0  0  0  0  0  0  0  0
    4.4997   -1.5993   -0.0220 C   0  0  0  0  0  0  0  0  0  0  0  0
   -0.9726    0.6194   -0.0012 C   0  0  0  0  0  0  0  0  0  0  0  0
   -3.8307   -1.8323    0.0000 C   0  0  0  0  0  0  0  0  0  0  0  0
   -1.6389    1.7894    0.0052 C   0  0  0  0  0  0  0  0  0  0  0  0
   -3.1673   -3.0571   -0.0074 C   0  0  0  0  0  0  0  0  0  0  0  0
    4.3246   -0.0853   -0.0161 C   0  0  0  0  0  0  0  0  0  0  0  0
   -1.0406   -1.9040   -0.0111 C   0  0  0  0  0  0  0  0  0  0  0  0
    6.6915   -1.6382    1.2769 C   0  0  0  0  0  0  0  0  0  0  0  0
    6.7027   -1.4810   -1.2205 C   0  0  0  0  0  0  0  0  0  0  0  0
   -3.1374    1.8090    0.0096 C   0  0  0  0  0  0  0  0  0  0  0  0
   -1.7748   -3.0930   -0.0131 C   0  0  0  0  0  0  0  0  0  0  0  0
   -0.8334    3.0463    0.0074 C   0  0  0  0  0  0  0  0  0  0  0  0
   -5.3276   -1.8151    0.0051 C   0  0  0  0  0  0  0  0  0  0  0  0
    1.1553    1.6740   -0.0039 C   0  0  0  0  0  0  0  0  0  0  0  0
    0.6384    2.9057    0.0021 C   0  0  0  0  0  0  0  0  0  0  0  0
   -3.9221   -4.3462   -0.0090 C   0  0  0  0  0  0  0  0  0  0  0  0
    2.6114    1.5359   -0.0074 C   0  0  0  0  0  0  0  0  0  0  0  0
  1 11  1  0
  1 23  1  0
  2 15  1  0
  2 26  1  0
  3 19  2  0
  4 21  2  0
  5 26  2  0
  6  8  1  0
  6 19  1  0
  7 10  1  0
  7 17  1  0
  7 18  1  0
  8  9  2  0
  8 12  1  0
  9 11  1  0
  9 16  1  0
 10 15  1  0
 11 13  2  0
 12 14  2  0
 12 22  1  0
 13 19  1  0
 13 21  1  0
 14 20  1  0
 14 25  1  0
 16 20  2  0
 21 24  1  0
 23 24  2  0
 23 26  1  0
M  END
>  <PUBCHEM_COMPOUND_CID>  (1) 
5050

>  <PUBCHEM_CONFORMER_RMSD>  (1) 
0.8

>  <PUBCHEM_CONFORMER_DIVERSEORDER>  (1) 
1
18
17
3
23
7
2
11
15
20
4
8
12
25
10
5
16
14
21
13
24
22
6
9
19

>  <PUBCHEM_MMFF94_PARTIAL_CHARGES>  (1) 
26
1 -0.15
11 0.05
12 -0.14
13 0.03
14 -0.14
15 0.28
16 -0.15
19 0.62
2 -0.43
20 -0.15
21 0.54
22 0.14
23 0.09
24 -0.14
25 0.14
26 0.71
3 -0.57
32 0.37
33 0.15
4 -0.57
40 0.15
44 0.15
5 -0.57
6 -0.55
8 0.12
9 0.03

>  <PUBCHEM_EFFECTIVE_ROTOR_COUNT>  (1) 
5

>  <PUBCHEM_PHARMACOPHORE_FEATURES>  (1) 
10
1 1 acceptor
1 13 anion
1 3 acceptor
1 4 acceptor
1 5 acceptor
1 6 donor
3 7 17 18 hydrophobe
6 1 11 13 21 23 24 rings
6 6 8 9 11 13 19 rings
6 8 9 12 14 16 20 rings

>  <PUBCHEM_HEAVY_ATOM_COUNT>  (1) 
26

>  <PUBCHEM_ATOM_DEF_STEREO_COUNT>  (1) 
0

>  <PUBCHEM_ATOM_UDEF_STEREO_COUNT>  (1) 
0

>  <PUBCHEM_BOND_DEF_STEREO_COUNT>  (1) 
0

>  <PUBCHEM_BOND_UDEF_STEREO_COUNT>  (1) 
0

>  <PUBCHEM_ISOTOPIC_ATOM_COUNT>  (1) 
0

>  <PUBCHEM_COMPONENT_COUNT>  (1) 
1

>  <PUBCHEM_CACTVS_TAUTO_COUNT>  (1) 
5

>  <PUBCHEM_CONFORMER_ID>  (1) 
000013BA00000001

>  <PUBCHEM_MMFF94_ENERGY>  (1) 
67.0627

>  <PUBCHEM_FEATURE_SELFOVERLAP>  (1) 
50.799

>  <PUBCHEM_SHAPE_FINGERPRINT>  (1) 
10050765 1 18410575111066684444
10411042 1 18338799047692316463
10483366 6 18337658730101812589
10693767 8 17768792506349314031
10940486 97 18261683562907053300
10967382 1 17185877736595861445
1100329 8 18411139087089722993
11963148 33 18049432940859732090
12107183 9 18341626927347949251
12643181 29 18265610992861217958
12760667 363 18342455963078144655
12969540 37 17760645167461133997
13140716 1 18342178877230988864
138480 1 15888840394681818573
13911852 28 18123188171960493591
14347332 77 18408322190128573054
14790565 3 17475237899062034536
14844126 61 18336547122854588178
14866123 147 18411985724375963691
15042514 8 18410856551345552953
15230672 131 17832712267037869006
15250474 111 18261107414772176042
15320467 1 17329710921235564654
15352361 1 18410855490747197590
15439362 3 16462197268975038900
15927050 60 17549540713504045093
16120349 21 18341909476008578403
16719943 64 18193837042024807402
17492 89 18266177416778478482
19591789 44 18410012143737468201
21267235 1 18409455790627142099
21279426 13 18335127727080168791
21478907 32 18338517564093353667
21703447 108 18268418209139337904
23559900 14 18340198708408073545
23569914 152 18053911165979146287
3004659 81 18187366545699031038
335352 9 18410573968741806613
3383291 50 18411978023410275491
3421961 26 18196652015451999360
3882209 13 17335018715029694982
44062 13 18411421691848398294
4409770 3 18189890920932431717
463206 1 18262803002761167058
5104073 3 18273217525332908856
559249 180 18335135341535087722
56633871 153 18340497780467345331
6823239 73 18343011178475584666
70251023 43 17975416033948167395
7970288 3 18267019655470504222
9709674 26 18263364870403194642

>  <PUBCHEM_SHAPE_MULTIPOLES>  (1) 
500.74
13.28
5.24
0.72
23.16
0.69
0.01
-12.92
0.05
-4.68
0.03
0.86
-0.24
-0.09

>  <PUBCHEM_SHAPE_SELFOVERLAP>  (1) 
1080.815

>  <PUBCHEM_SHAPE_VOLUME>  (1) 
275

>  <PUBCHEM_COORDINATE_TYPE>  (1) 
2
5
10

$$$$
