5057
     RDKit          3D

 24 24  0  0  0  0  0  0  0  0999 V2000
   -7.1116   -0.7606    0.6055 O   0  0  0  0  0  0  0  0  0  0  0  0
   -9.2078   -0.1870   -0.1854 O   0  0  0  0  0  0  0  0  0  0  0  0
    5.7501    0.5037    0.8448 C   0  0  0  0  0  0  0  0  0  0  0  0
    6.8342   -0.5476    1.2086 C   0  0  0  0  0  0  0  0  0  0  0  0
    7.2235   -1.4069    0.0192 C   0  0  0  0  0  0  0  0  0  0  0  0
    4.6242   -0.1144   -0.0171 C   0  0  0  0  0  0  0  0  0  0  0  0
    6.0090   -2.1639   -0.4966 C   0  0  0  0  0  0  0  0  0  0  0  0
    4.7443   -1.3352   -0.5973 C   0  0  0  0  0  0  0  0  0  0  0  0
    6.4156    1.6646    0.0701 C   0  0  0  0  0  0  0  0  0  0  0  0
    5.2187    1.0519    2.1918 C   0  0  0  0  0  0  0  0  0  0  0  0
    3.4382    0.7090   -0.1871 C   0  0  0  0  0  0  0  0  0  0  0  0
    3.6783   -2.0361   -1.4078 C   0  0  0  0  0  0  0  0  0  0  0  0
    2.1921    0.2098   -0.1874 C   0  0  0  0  0  0  0  0  0  0  0  0
    0.9450    0.9651   -0.3505 C   0  0  0  0  0  0  0  0  0  0  0  0
    1.0634    2.4574   -0.5370 C   0  0  0  0  0  0  0  0  0  0  0  0
   -0.2218    0.2853   -0.3232 C   0  0  0  0  0  0  0  0  0  0  0  0
   -1.5641    0.8182   -0.4641 C   0  0  0  0  0  0  0  0  0  0  0  0
   -2.6595    0.0396   -0.4201 C   0  0  0  0  0  0  0  0  0  0  0  0
   -4.0528    0.4772   -0.5515 C   0  0  0  0  0  0  0  0  0  0  0  0
   -5.0285   -0.4528   -0.4812 C   0  0  0  0  0  0  0  0  0  0  0  0
   -4.3041    1.9476   -0.7613 C   0  0  0  0  0  0  0  0  0  0  0  0
   -6.5096   -0.2616   -0.5832 C   0  0  0  0  0  0  0  0  0  0  0  0
   -8.4709   -0.6587    0.6688 C   0  0  0  0  0  0  0  0  0  0  0  0
   -9.0058   -1.2045    1.9422 C   0  0  0  0  0  0  0  0  0  0  0  0
  1 22  1  0
  1 23  1  0
  2 23  2  0
  3  4  1  0
  3  6  1  0
  3  9  1  0
  3 10  1  0
  4  5  1  0
  5  7  1  0
  6  8  2  0
  6 11  1  0
  7  8  1  0
  8 12  1  0
 11 13  2  0
 13 14  1  0
 14 15  1  0
 14 16  2  0
 16 17  1  0
 17 18  2  0
 18 19  1  0
 19 20  2  0
 19 21  1  0
 20 22  1  0
 23 24  1  0
M  END
>  <PUBCHEM_COMPOUND_CID>  (1) 
5057

>  <PUBCHEM_CONFORMER_RMSD>  (1) 
0.8

>  <PUBCHEM_CONFORMER_DIVERSEORDER>  (1) 
1
174
27
120
54
202
5
74
136
60
84
102
32
114
77
50
63
58
70
25
190
146
86
19
104
55
29
150
153
198
46
18
72
15
38
73
203
2
119
176
76
106
20
85
26
157
68
31
39
66
80
148
79
16
165
40
48
113
42
184
3
181
82
187
99
22
4
172
90
75
94
138
34
21
35
127
182
36
8
162
97
200
115
28
179
192
199
62
7
116
143
117
118
10
6
45
180
57
196
133
152
129
193
14
111
23
9
44
51
11
52
170
130
30
171
159
17
124
98
41
101
12
158
149
191
65
47
67
13
24
197
135
121
91
37
56
188
168
160
96
64
103
43
100
109
164
132
144
125
194
161
33
186
142
83
155
145
112
175
95
173
71
81
61
128
88
53
110
49
139
140
167
89
177
163
141
189
108
185
169
105
59
147
92
201
183
87
166
78
123
205
156
154
126
122
137
178
107
69
131
93
195
134
204
151

>  <PUBCHEM_MMFF94_PARTIAL_CHARGES>  (1) 
26
1 -0.43
11 -0.15
12 0.14
13 -0.15
14 -0.14
15 0.14
16 -0.15
17 -0.15
18 -0.15
19 -0.14
2 -0.57
20 -0.29
21 0.14
22 0.42
23 0.66
24 0.06
3 0.14
37 0.15
41 0.15
45 0.15
46 0.15
47 0.15
48 0.15
6 -0.14
7 0.14
8 -0.28

>  <PUBCHEM_EFFECTIVE_ROTOR_COUNT>  (1) 
7.8

>  <PUBCHEM_PHARMACOPHORE_FEATURES>  (1) 
5
1 15 hydrophobe
1 2 acceptor
1 21 hydrophobe
3 3 9 10 hydrophobe
6 3 4 5 6 7 8 rings

>  <PUBCHEM_HEAVY_ATOM_COUNT>  (1) 
24

>  <PUBCHEM_ATOM_DEF_STEREO_COUNT>  (1) 
0

>  <PUBCHEM_ATOM_UDEF_STEREO_COUNT>  (1) 
0

>  <PUBCHEM_BOND_DEF_STEREO_COUNT>  (1) 
0

>  <PUBCHEM_BOND_UDEF_STEREO_COUNT>  (1) 
4

>  <PUBCHEM_ISOTOPIC_ATOM_COUNT>  (1) 
0

>  <PUBCHEM_COMPONENT_COUNT>  (1) 
1

>  <PUBCHEM_CACTVS_TAUTO_COUNT>  (1) 
1

>  <PUBCHEM_CONFORMER_ID>  (1) 
000013C100000001

>  <PUBCHEM_MMFF94_ENERGY>  (1) 
52.3673

>  <PUBCHEM_FEATURE_SELFOVERLAP>  (1) 
25.373

>  <PUBCHEM_SHAPE_FINGERPRINT>  (1) 
10066227 49 14996548569822592185
11386260 185 11963396249470816398
11991303 11 14057009355690515921
12516196 113 18412822478115060460
13073987 5 18130227051921693709
13533116 47 17846495912063949238
13668630 136 17749106682175512151
13673619 4 17821728338811785701
13685833 64 18408323285023590549
13885169 127 18334856079263269045
14251757 52 13614231612169642250
14251764 18 17131833175283405845
14729087 3 13182744732733055275
15183329 4 14057000494898683068
15419008 91 18041540512824562549
15510794 2 18334294280577087999
15716309 27 18272367581670150053
1754908 1 17989488563340386499
1754911 235 10665224874516578235
1818759 1 17749113288062261883
18335252 98 18409167710523538668
21150785 3 13767924624765523899
21267235 1 18187367632125225389
21315759 40 15791729694314291541
21623969 137 18201999906881652102
21781051 124 16950575406263433259
21792934 111 18343016701872826033
220451 1 17489300910468427500
22149856 69 18272657817969188136
22224240 67 17418092140013758583
22956985 138 16736899434789704178
23576562 1 10809927223260750235
246663 6 17748828518929849019
3004659 81 17821729421232909540
3178227 256 18410579509096643735
3383291 50 18187366549899358667
4340502 62 17632289086879129950
5104073 3 17988081071627215049
59682541 52 12540692601004663312
9962374 69 18339635763524677223

>  <PUBCHEM_SHAPE_MULTIPOLES>  (1) 
482.17
29.35
1.97
1.31
55.52
0.14
-0.7
-11.94
-10.74
-2.43
0.4
0.04
-0.14
2.67

>  <PUBCHEM_SHAPE_SELFOVERLAP>  (1) 
961.743

>  <PUBCHEM_SHAPE_VOLUME>  (1) 
284.8

>  <PUBCHEM_COORDINATE_TYPE>  (1) 
2
5
10

$$$$
