5059
     RDKit          3D

 25 27  0  0  1  0  0  0  0  0999 V2000
   -4.4964   -1.8402   -2.1890 O   0  0  0  0  0  0  0  0  0  0  0  0
    0.1978   -0.9394    0.9074 O   0  0  0  0  0  0  0  0  0  0  0  0
    2.9564   -0.4852   -0.6116 N   0  0  0  0  0  0  0  0  0  0  0  0
   -5.4185   -0.0751   -0.8251 C   0  0  0  0  0  0  0  0  0  0  0  0
   -5.2067    1.0880    0.1499 C   0  0  0  0  0  0  0  0  0  0  0  0
   -4.1357   -0.7454   -1.3427 C   0  0  0  0  0  0  0  0  0  0  0  0
   -4.4551    2.2691   -0.4676 C   0  0  0  0  0  0  0  0  0  0  0  0
   -3.2404   -1.2800   -0.2493 C   0  0  0  0  0  0  0  0  0  0  0  0
   -4.3529    3.4349    0.5167 C   0  0  0  0  0  0  0  0  0  0  0  0
   -1.9242   -0.8539   -0.1817 C   0  0  0  0  0  0  0  0  0  0  0  0
   -3.7536   -2.1863    0.6641 C   0  0  0  0  0  0  0  0  0  0  0  0
   -3.6428    4.6273   -0.1043 C   0  0  0  0  0  0  0  0  0  0  0  0
   -1.0979   -1.3478    0.8276 C   0  0  0  0  0  0  0  0  0  0  0  0
   -2.9273   -2.6801    1.6733 C   0  0  0  0  0  0  0  0  0  0  0  0
   -1.5995   -2.2609    1.7552 C   0  0  0  0  0  0  0  0  0  0  0  0
    0.6457   -0.0043   -0.0729 C   0  0  0  0  0  0  0  0  0  0  0  0
    2.0977    0.3035    0.0751 C   0  0  0  0  0  0  0  0  0  0  0  0
    4.7721    0.8095    0.3017 C   0  0  0  0  0  0  0  0  0  0  0  0
    4.2754   -0.2381   -0.5019 C   0  0  0  0  0  0  0  0  0  0  0  0
    2.4892    1.3505    0.8853 C   0  0  0  0  0  0  0  0  0  0  0  0
    3.8490    1.6027    0.9964 C   0  0  0  0  0  0  0  0  0  0  0  0
    6.1555    1.0389    0.3933 C   0  0  0  0  0  0  0  0  0  0  0  0
    5.1930   -1.0256   -1.1918 C   0  0  0  0  0  0  0  0  0  0  0  0
    7.0506    0.2356   -0.3073 C   0  0  0  0  0  0  0  0  0  0  0  0
    6.5684   -0.7978   -1.1009 C   0  0  0  0  0  0  0  0  0  0  0  0
  1  6  1  0
  2 13  1  0
  2 16  1  0
  3 17  2  0
  3 19  1  0
  4  5  1  0
  4  6  1  0
  5  7  1  0
  6  8  1  0
  7  9  1  0
  8 10  2  0
  8 11  1  0
  9 12  1  0
 10 13  1  0
 11 14  2  0
 13 15  2  0
 14 15  1  0
 16 17  1  0
 17 20  1  0
 18 19  2  0
 18 21  1  0
 18 22  1  0
 19 23  1  0
 20 21  2  0
 22 24  2  0
 23 25  2  0
 24 25  1  0
M  END
>  <PUBCHEM_COMPOUND_CID>  (1) 
5059

>  <PUBCHEM_CONFORMER_RMSD>  (1) 
1.2

>  <PUBCHEM_CONFORMER_DIVERSEORDER>  (1) 
1
73
116
63
9
113
65
14
137
108
120
131
155
127
95
41
96
129
54
15
189
38
35
144
104
22
89
19
114
183
75
78
145
121
91
142
27
112
12
111
177
169
21
126
20
106
70
148
48
37
130
49
136
85
185
52
181
124
152
101
3
163
84
146
93
39
51
55
167
195
138
82
2
157
74
7
71
128
164
6
109
72
159
99
150
92
162
83
29
18
160
158
118
11
193
47
90
33
44
77
98
156
173
10
86
175
26
110
103
16
180
187
178
123
50
134
34
79
174
135
107
139
153
170
13
184
154
171
132
61
57
43
46
17
182
190
40
168
133
88
53
64
166
117
172
115
42
81
141
151
87
80
25
161
56
125
191
4
176
186
179
8
192
30
5
45
147
149
140
194
62
102
58
97
36
94
28
23
143
69
66
105
76
188
68
24
196
119
59
31
100
165
67
32
122
60

>  <PUBCHEM_MMFF94_PARTIAL_CHARGES>  (1) 
30
1 -0.68
10 -0.15
11 -0.15
13 0.08
14 -0.15
15 -0.15
16 0.42
17 0.17
19 0.31
2 -0.36
20 -0.15
21 -0.15
22 -0.15
23 -0.15
24 -0.15
25 -0.15
3 -0.62
35 0.15
36 0.15
40 0.4
41 0.15
42 0.15
45 0.15
46 0.15
47 0.15
48 0.15
49 0.15
50 0.15
6 0.42
8 -0.14

>  <PUBCHEM_EFFECTIVE_ROTOR_COUNT>  (1) 
8

>  <PUBCHEM_PHARMACOPHORE_FEATURES>  (1) 
9
1 1 acceptor
1 1 donor
1 12 hydrophobe
1 2 acceptor
1 3 acceptor
4 4 5 7 9 hydrophobe
6 18 19 22 23 24 25 rings
6 3 17 18 19 20 21 rings
6 8 10 11 13 14 15 rings

>  <PUBCHEM_HEAVY_ATOM_COUNT>  (1) 
25

>  <PUBCHEM_ATOM_DEF_STEREO_COUNT>  (1) 
0

>  <PUBCHEM_ATOM_UDEF_STEREO_COUNT>  (1) 
1

>  <PUBCHEM_BOND_DEF_STEREO_COUNT>  (1) 
0

>  <PUBCHEM_BOND_UDEF_STEREO_COUNT>  (1) 
0

>  <PUBCHEM_ISOTOPIC_ATOM_COUNT>  (1) 
0

>  <PUBCHEM_COMPONENT_COUNT>  (1) 
1

>  <PUBCHEM_CACTVS_TAUTO_COUNT>  (1) 
1

>  <PUBCHEM_CONFORMER_ID>  (1) 
000013C300000001

>  <PUBCHEM_MMFF94_ENERGY>  (1) 
67.4266

>  <PUBCHEM_FEATURE_SELFOVERLAP>  (1) 
45.702

>  <PUBCHEM_SHAPE_FINGERPRINT>  (1) 
10087517 78 18409444778273499277
10291535 26 18408605885798619801
10429389 16 18199198286803039756
10669705 162 17915473709771641014
10670039 82 18336541638672168829
10815517 723 18260832557427803252
10835480 77 18261954167553165092
11545043 162 18188494708505110186
11796584 16 18040998479984046346
12128747 34 18342459184250694084
12236239 1 15213288769030336954
12616971 3 16557925544250316298
14461889 52 11097861822031242292
14931854 50 18340188710579030549
15183329 4 18342453716593782478
15361156 5 18339927116235630916
15629462 23 17058659452131460152
17844677 252 18115033042444737944
19304152 47 17896896344134837745
21033648 144 17630604750760364498
21033648 29 18271236227249813264
21033650 10 18341890771277999619
21236236 1 18412545392431415365
21756936 100 18335704919292784555
21859007 373 18271794719143635104
23198884 109 18409165511146881215
23559900 14 18261390113497418194
23569914 152 16979567053917886110
4015057 19 17773314749732734490
4073 2 18334018315568651498
4098825 35 17846499227789342335
437795 70 18413389817414476848
439807 62 16772380936989766199
508706 21 18409727370047000713
5283173 99 18341894069565410904
531348 171 18202281377389451943
59755656 520 18040716952760456435
6126387 218 18059569141198479370
7288768 16 17749958744148334201
9980921 221 18337973202832860196

>  <PUBCHEM_SHAPE_MULTIPOLES>  (1) 
497.77
17.64
3.61
1.41
20.29
3.94
-0.12
4.42
-4.92
-8.02
1.01
-0.82
-0.92
1.14

>  <PUBCHEM_SHAPE_SELFOVERLAP>  (1) 
1059.115

>  <PUBCHEM_SHAPE_VOLUME>  (1) 
277

>  <PUBCHEM_COORDINATE_TYPE>  (1) 
2
5
10

$$$$
