5072
     RDKit          3D

 24 27  0  0  1  0  0  0  0  0999 V2000
   -2.8674   -1.1236   -0.2581 N   0  0  0  0  0  0  0  0  0  0  0  0
   -5.2998    0.4267    0.0229 N   0  0  0  0  0  0  0  0  0  0  0  0
    1.3259   -0.3657    0.2008 N   0  0  0  0  0  0  0  0  0  0  0  0
   -3.9969    1.0786   -0.1741 C   0  0  0  0  0  0  0  0  0  0  0  0
   -5.1731   -0.8983    0.6479 C   0  0  0  0  0  0  0  0  0  0  0  0
   -3.0221    0.1685   -0.9399 C   0  0  0  0  0  0  0  0  0  0  0  0
   -4.1731   -1.7812   -0.1178 C   0  0  0  0  0  0  0  0  0  0  0  0
   -1.9300   -1.9817   -0.9804 C   0  0  0  0  0  0  0  0  0  0  0  0
   -0.5681   -1.3004   -1.0965 C   0  0  0  0  0  0  0  0  0  0  0  0
    0.0281   -1.0273    0.2841 C   0  0  0  0  0  0  0  0  0  0  0  0
   -4.2098    2.3904   -0.9302 C   0  0  0  0  0  0  0  0  0  0  0  0
   -4.8315   -0.7837    2.1370 C   0  0  0  0  0  0  0  0  0  0  0  0
    1.4989    0.9927    0.1787 C   0  0  0  0  0  0  0  0  0  0  0  0
    2.5245   -1.0250    0.1349 C   0  0  0  0  0  0  0  0  0  0  0  0
    2.8719    1.2253    0.0943 C   0  0  0  0  0  0  0  0  0  0  0  0
    3.5202   -0.0502    0.0667 C   0  0  0  0  0  0  0  0  0  0  0  0
    0.5573    2.0271    0.2264 C   0  0  0  0  0  0  0  0  0  0  0  0
    2.8059   -2.3961    0.1303 C   0  0  0  0  0  0  0  0  0  0  0  0
    3.3287    2.5595    0.0553 C   0  0  0  0  0  0  0  0  0  0  0  0
    4.8664   -0.4653   -0.0099 C   0  0  0  0  0  0  0  0  0  0  0  0
    1.0344    3.3401    0.1867 C   0  0  0  0  0  0  0  0  0  0  0  0
    4.1467   -2.7823    0.0540 C   0  0  0  0  0  0  0  0  0  0  0  0
    2.3992    3.6046    0.1021 C   0  0  0  0  0  0  0  0  0  0  0  0
    5.1634   -1.8329   -0.0153 C   0  0  0  0  0  0  0  0  0  0  0  0
  1  6  1  0
  1  7  1  0
  1  8  1  0
  2  4  1  0
  2  5  1  0
  3 10  1  0
  3 13  1  0
  3 14  1  0
  4  6  1  0
  4 11  1  0
  5  7  1  0
  5 12  1  0
  8  9  1  0
  9 10  1  0
 13 15  1  0
 13 17  2  0
 14 16  2  0
 14 18  1  0
 15 16  1  0
 15 19  2  0
 16 20  1  0
 17 21  1  0
 18 22  2  0
 19 23  1  0
 20 24  2  0
 21 23  2  0
 22 24  1  0
M  END
>  <PUBCHEM_COMPOUND_CID>  (1) 
5072

>  <PUBCHEM_CONFORMER_RMSD>  (1) 
0.8

>  <PUBCHEM_CONFORMER_DIVERSEORDER>  (1) 
2
6
16
20
3
21
11
15
7
1
13
23
19
5
18
24
17
8
12
9
25
14
22
10
4

>  <PUBCHEM_MMFF94_PARTIAL_CHARGES>  (1) 
28
1 -0.81
10 0.26
13 -0.15
14 -0.15
17 -0.15
18 -0.15
19 -0.15
2 -0.9
20 -0.15
21 -0.15
22 -0.15
23 -0.15
24 -0.15
3 0.05
33 0.36
4 0.27
44 0.15
45 0.15
46 0.15
47 0.15
48 0.15
49 0.15
5 0.27
50 0.15
51 0.15
6 0.27
7 0.27
8 0.27

>  <PUBCHEM_EFFECTIVE_ROTOR_COUNT>  (1) 
5.2

>  <PUBCHEM_PHARMACOPHORE_FEATURES>  (1) 
8
1 1 cation
1 2 cation
1 2 donor
1 3 cation
5 3 13 14 15 16 rings
6 1 2 4 5 6 7 rings
6 13 15 17 19 21 23 rings
6 14 16 18 20 22 24 rings

>  <PUBCHEM_HEAVY_ATOM_COUNT>  (1) 
24

>  <PUBCHEM_ATOM_DEF_STEREO_COUNT>  (1) 
0

>  <PUBCHEM_ATOM_UDEF_STEREO_COUNT>  (1) 
2

>  <PUBCHEM_BOND_DEF_STEREO_COUNT>  (1) 
0

>  <PUBCHEM_BOND_UDEF_STEREO_COUNT>  (1) 
0

>  <PUBCHEM_ISOTOPIC_ATOM_COUNT>  (1) 
0

>  <PUBCHEM_COMPONENT_COUNT>  (1) 
1

>  <PUBCHEM_CACTVS_TAUTO_COUNT>  (1) 
1

>  <PUBCHEM_CONFORMER_ID>  (1) 
000013D000000002

>  <PUBCHEM_MMFF94_ENERGY>  (1) 
42.3916

>  <PUBCHEM_FEATURE_SELFOVERLAP>  (1) 
40.779

>  <PUBCHEM_SHAPE_FINGERPRINT>  (1) 
10074138 170 15810272626783292738
10366900 7 17748821921865656259
10411042 1 18339079260370511858
10688039 33 18188210901218602988
10906281 52 18263926713072919616
11045977 3 18113621188274434723
11370993 144 18334862727645283211
11545043 162 17821451253275527963
11578080 2 14637164441567821004
116883 192 18127129672116432846
12107183 9 18270689649796165889
12422481 6 17486505801492033899
12553582 1 18340192013150307590
12633257 1 18273220811320415495
12788726 201 18047470028919760178
13004483 165 18195795277167660482
13402501 40 18265326206322434173
13583140 156 18333453114999892323
13590594 115 18410860919396099008
138480 1 18411415129275714860
14178342 30 17624388155040789258
14341114 176 18335145314876118083
14466204 15 18266172842580247179
14790565 3 17977381969587891868
14950920 106 18266485224869640611
15042514 8 17835516030093288298
15081414 286 18342460335713145180
15196674 1 18411416241503166717
15475509 8 17772500969868714150
1601671 61 18342736300120448574
16087824 20 18051410665118645485
16992752 21 18049163273065246266
17349148 13 17489590043371806815
17492 89 18339357590861560095
17818456 19 17632585937052893603
17844677 252 18410579483089534583
18785283 64 18189052169695951196
20832881 197 18260828142543904794
21065198 57 18409728491181021207
21133410 127 17897433120183460293
21478907 32 18123187897193005634
21792961 116 18116145581225989230
221357 26 18408317779186616999
221490 88 18408042909516614912
23559900 14 18411973667891034857
24771293 8 18057586867931143160
3421961 26 18411979170108371640
5081480 168 17129052415571106085
5104073 3 18341612680635694267
5281201 14 18408885152539660821
602551 16 16081654499082720531
6287921 2 17969787586343565661
6443956 14 18410292502365605830
7495541 125 18333172769119389582
79837 15 17402035095418535536
84936 182 17769650137886480264
8863177 126 18042136490891659267
9981440 41 17547278364865299744

>  <PUBCHEM_SHAPE_MULTIPOLES>  (1) 
478.97
12.04
3.82
1.01
8.43
2.72
-0.26
-3.85
-1.63
-3.26
0.14
1.42
-0.22
0.72

>  <PUBCHEM_SHAPE_SELFOVERLAP>  (1) 
1032.325

>  <PUBCHEM_SHAPE_VOLUME>  (1) 
262.4

>  <PUBCHEM_COORDINATE_TYPE>  (1) 
2
5
10

$$$$
