5084
     RDKit          3D

 34 39  0  0  1  0  0  0  0  0999 V2000
    1.2980    0.3262    3.4907 O   0  0  0  0  0  0  0  0  0  0  0  0
   -1.8399   -2.8991    2.6502 O   0  0  0  0  0  0  0  0  0  0  0  0
    1.7133    1.9286   -0.8117 N   0  0  0  0  0  0  0  0  0  0  0  0
    4.8619   -2.0888   -0.3831 N   0  0  0  0  0  0  0  0  0  0  0  0
   -0.2247   -1.4267    3.4358 N   0  0  0  0  0  0  0  0  0  0  0  0
   -2.2792   -2.1693   -1.8854 N   0  0  0  0  0  0  0  0  0  0  0  0
    3.7911   -0.0033   -1.0493 C   0  0  0  0  0  0  0  0  0  0  0  0
    2.4690   -0.4272   -0.3900 C   0  0  0  0  0  0  0  0  0  0  0  0
    3.5066    0.9410   -2.2261 C   0  0  0  0  0  0  0  0  0  0  0  0
    1.5648    0.7356   -0.1459 C   0  0  0  0  0  0  0  0  0  0  0  0
    2.7912    2.2041   -1.7473 C   0  0  0  0  0  0  0  0  0  0  0  0
    0.4714    0.8602    0.6845 C   0  0  0  0  0  0  0  0  0  0  0  0
    4.5814   -1.2259   -1.5088 C   0  0  0  0  0  0  0  0  0  0  0  0
    0.7463    2.8278   -0.4163 C   0  0  0  0  0  0  0  0  0  0  0  0
   -0.0533    2.1726    0.5256 C   0  0  0  0  0  0  0  0  0  0  0  0
   -0.0282   -0.1693    1.5420 C   0  0  0  0  0  0  0  0  0  0  0  0
    0.5070    4.1564   -0.7991 C   0  0  0  0  0  0  0  0  0  0  0  0
   -1.1377    2.8652    1.1012 C   0  0  0  0  0  0  0  0  0  0  0  0
   -0.9423   -1.1245    1.2911 C   0  0  0  0  0  0  0  0  0  0  0  0
    0.4527   -0.3547    2.9350 C   0  0  0  0  0  0  0  0  0  0  0  0
   -0.5735    4.8228   -0.2143 C   0  0  0  0  0  0  0  0  0  0  0  0
   -1.7047   -1.3657    0.1057 C   0  0  0  0  0  0  0  0  0  0  0  0
   -1.3856    4.1884    0.7214 C   0  0  0  0  0  0  0  0  0  0  0  0
    5.6504   -1.3860    0.6368 C   0  0  0  0  0  0  0  0  0  0  0  0
    5.5705   -3.3015   -0.8112 C   0  0  0  0  0  0  0  0  0  0  0  0
   -1.0848   -1.9508    2.5171 C   0  0  0  0  0  0  0  0  0  0  0  0
   -2.9834   -0.8394   -0.2384 C   0  0  0  0  0  0  0  0  0  0  0  0
   -1.2998   -2.1802   -0.9289 C   0  0  0  0  0  0  0  0  0  0  0  0
   -3.3197   -1.3588   -1.4904 C   0  0  0  0  0  0  0  0  0  0  0  0
   -3.8883    0.0323    0.3994 C   0  0  0  0  0  0  0  0  0  0  0  0
   -4.5204   -1.0488   -2.1390 C   0  0  0  0  0  0  0  0  0  0  0  0
   -2.2149   -2.9103   -3.1266 C   0  0  0  0  0  0  0  0  0  0  0  0
   -5.0932    0.3513   -0.2374 C   0  0  0  0  0  0  0  0  0  0  0  0
   -5.4023   -0.1822   -1.4871 C   0  0  0  0  0  0  0  0  0  0  0  0
  1 20  2  0
  2 26  2  0
  3 10  1  0
  3 11  1  0
  3 14  1  0
  4 13  1  0
  4 24  1  0
  4 25  1  0
  5 20  1  0
  5 26  1  0
  6 28  1  0
  6 29  1  0
  6 32  1  0
  7  8  1  0
  7  9  1  0
  7 13  1  0
  8 10  1  0
  9 11  1  0
 10 12  2  0
 12 15  1  0
 12 16  1  0
 14 15  2  0
 14 17  1  0
 15 18  1  0
 16 19  2  0
 16 20  1  0
 17 21  2  0
 18 23  2  0
 19 22  1  0
 19 26  1  0
 21 23  1  0
 22 27  1  0
 22 28  2  0
 27 29  2  0
 27 30  1  0
 29 31  1  0
 30 33  2  0
 31 34  2  0
 33 34  1  0
M  END
>  <PUBCHEM_COMPOUND_CID>  (1) 
5084

>  <PUBCHEM_CONFORMER_RMSD>  (1) 
0.8

>  <PUBCHEM_CONFORMER_DIVERSEORDER>  (1) 
9
11
17
23
26
5
8
18
21
25
12
3
4
24
6
22
29
1
13
15
27
10
19
7
28
14
20
2
16

>  <PUBCHEM_MMFF94_PARTIAL_CHARGES>  (1) 
40
1 -0.57
10 -0.33
11 0.26
12 -0.05
13 0.27
14 -0.15
16 0.06
17 -0.15
18 -0.15
19 0.06
2 -0.57
20 0.62
21 -0.15
22 -0.05
23 -0.15
24 0.27
25 0.27
26 0.62
28 -0.3
29 -0.15
3 0.05
30 -0.15
31 -0.15
32 0.26
33 -0.15
34 -0.15
4 -0.81
44 0.15
45 0.15
46 0.15
47 0.15
5 -0.49
54 0.37
55 0.15
56 0.15
57 0.15
6 0.05
61 0.15
62 0.15
8 0.18

>  <PUBCHEM_EFFECTIVE_ROTOR_COUNT>  (1) 
5

>  <PUBCHEM_PHARMACOPHORE_FEATURES>  (1) 
12
1 1 acceptor
1 2 acceptor
1 3 cation
1 4 cation
1 5 donor
1 6 cation
5 3 10 12 14 15 rings
5 5 16 19 20 26 rings
5 6 22 27 28 29 rings
6 14 15 17 18 21 23 rings
6 27 29 30 31 33 34 rings
6 3 7 8 9 10 11 rings

>  <PUBCHEM_HEAVY_ATOM_COUNT>  (1) 
34

>  <PUBCHEM_ATOM_DEF_STEREO_COUNT>  (1) 
0

>  <PUBCHEM_ATOM_UDEF_STEREO_COUNT>  (1) 
1

>  <PUBCHEM_BOND_DEF_STEREO_COUNT>  (1) 
0

>  <PUBCHEM_BOND_UDEF_STEREO_COUNT>  (1) 
0

>  <PUBCHEM_ISOTOPIC_ATOM_COUNT>  (1) 
0

>  <PUBCHEM_COMPONENT_COUNT>  (1) 
1

>  <PUBCHEM_CACTVS_TAUTO_COUNT>  (1) 
3

>  <PUBCHEM_CONFORMER_ID>  (1) 
000013DC00000009

>  <PUBCHEM_MMFF94_ENERGY>  (1) 
75.6968

>  <PUBCHEM_FEATURE_SELFOVERLAP>  (1) 
61.165

>  <PUBCHEM_SHAPE_FINGERPRINT>  (1) 
11578080 2 17489317428897382800
11582403 64 16460471649598059828
11720765 8 18270108132251582013
12156800 1 17908391707456930594
12160290 23 17909584707944378028
12422481 6 17695387726491831073
12788726 201 18337400344378992788
13004483 165 18342736299988541076
13083527 12 14045740469206732723
13636023 20 17556575770928937124
13636023 51 17201331161669741122
13911987 19 17179724800902673428
15297060 5 17698998493056521393
15361156 5 17757578269777933310
15815584 197 17907876341948056316
17809404 112 18113906009294822602
19311894 1 18410576163486100669
20465049 17 18259982687322138125
20600515 1 17750494330527950560
20775438 99 17407929525869007535
21133665 82 16892320776802012446
21987440 362 15073065796276810356
22149856 69 16158442214727142359
23536364 44 18115300064782950301
238 59 17188408807530224541
3027735 51 17844257215467783262
3380486 77 18059305339141721782
340366 18 18130503154131662199
3729539 64 16806162125893273194
5080951 261 17902771000501819206
57527295 17 18117845623047657870
613672 6 18334019393800965738
9981440 41 17042589389574869049

>  <PUBCHEM_SHAPE_MULTIPOLES>  (1) 
668.04
9.28
4.97
3.09
5.13
5.65
2.11
-8.06
-5.85
0.39
-1.14
-0.69
-2.12
-1.26

>  <PUBCHEM_SHAPE_SELFOVERLAP>  (1) 
1500.459

>  <PUBCHEM_SHAPE_VOLUME>  (1) 
357

>  <PUBCHEM_COORDINATE_TYPE>  (1) 
2
5
10

$$$$
