5092
     RDKit          3D

 20 22  0  0  1  0  0  0  0  0999 V2000
   -2.2269    0.1355   -0.3387 O   0  0  0  0  0  0  0  0  0  0  0  0
   -2.2637   -2.5420    0.4049 O   0  0  0  0  0  0  0  0  0  0  0  0
    6.0293    0.6346    0.4693 O   0  0  0  0  0  0  0  0  0  0  0  0
    4.1023    1.8435   -0.0812 N   0  0  0  0  0  0  0  0  0  0  0  0
   -2.3894    1.2758    0.4955 C   0  0  0  0  0  0  0  0  0  0  0  0
   -3.6638    1.1274    1.3123 C   0  0  0  0  0  0  0  0  0  0  0  0
   -2.6634    2.5131   -0.3458 C   0  0  0  0  0  0  0  0  0  0  0  0
   -4.7837    1.5211    0.3500 C   0  0  0  0  0  0  0  0  0  0  0  0
   -4.1350    2.3855   -0.7314 C   0  0  0  0  0  0  0  0  0  0  0  0
    2.6667    0.0697   -0.5753 C   0  0  0  0  0  0  0  0  0  0  0  0
    2.7049    1.5673   -0.2638 C   0  0  0  0  0  0  0  0  0  0  0  0
    3.8710   -0.4560    0.2297 C   0  0  0  0  0  0  0  0  0  0  0  0
    1.3483   -0.6250   -0.3143 C   0  0  0  0  0  0  0  0  0  0  0  0
   -1.0575   -0.5658   -0.2045 C   0  0  0  0  0  0  0  0  0  0  0  0
    0.1512    0.0787   -0.4465 C   0  0  0  0  0  0  0  0  0  0  0  0
    4.8365    0.7037    0.2175 C   0  0  0  0  0  0  0  0  0  0  0  0
    1.3299   -1.9689    0.0592 C   0  0  0  0  0  0  0  0  0  0  0  0
   -1.0827   -1.9056    0.1680 C   0  0  0  0  0  0  0  0  0  0  0  0
    0.1145   -2.6091    0.3003 C   0  0  0  0  0  0  0  0  0  0  0  0
   -2.8882   -3.1835   -0.7053 C   0  0  0  0  0  0  0  0  0  0  0  0
  1  5  1  0
  1 14  1  0
  2 18  1  0
  2 20  1  0
  3 16  2  0
  4 11  1  0
  4 16  1  0
  5  6  1  0
  5  7  1  0
  6  8  1  0
  7  9  1  0
  8  9  1  0
 10 11  1  0
 10 12  1  0
 10 13  1  0
 12 16  1  0
 13 15  2  0
 13 17  1  0
 14 15  1  0
 14 18  2  0
 17 19  2  0
 18 19  1  0
M  END
>  <PUBCHEM_COMPOUND_CID>  (1) 
5092

>  <PUBCHEM_CONFORMER_RMSD>  (1) 
0.8

>  <PUBCHEM_CONFORMER_DIVERSEORDER>  (1) 
1
80
85
77
30
84
22
91
68
61
35
75
82
23
86
87
45
60
34
42
70
71
58
26
72
49
27
55
88
56
59
14
51
78
19
79
57
54
63
89
83
73
90
64
25
65
52
33
48
20
46
8
38
40
69
41
31
47
24
67
29
18
53
7
36
12
5
81
13
17
16
10
6
32
11
66
43
39
28
76
21
50
15
62
37
74
44
9
3
4
2

>  <PUBCHEM_MMFF94_PARTIAL_CHARGES>  (1) 
20
1 -0.36
10 0.14
11 0.3
12 0.06
13 -0.14
14 0.08
15 -0.15
16 0.57
17 -0.15
18 0.08
19 -0.15
2 -0.36
20 0.28
3 -0.57
35 0.15
36 0.37
37 0.15
38 0.15
4 -0.73
5 0.28

>  <PUBCHEM_EFFECTIVE_ROTOR_COUNT>  (1) 
5.8

>  <PUBCHEM_PHARMACOPHORE_FEATURES>  (1) 
7
1 1 acceptor
1 2 acceptor
1 3 acceptor
1 4 donor
5 4 10 11 12 16 rings
5 5 6 7 8 9 rings
6 13 14 15 17 18 19 rings

>  <PUBCHEM_HEAVY_ATOM_COUNT>  (1) 
20

>  <PUBCHEM_ATOM_DEF_STEREO_COUNT>  (1) 
0

>  <PUBCHEM_ATOM_UDEF_STEREO_COUNT>  (1) 
1

>  <PUBCHEM_BOND_DEF_STEREO_COUNT>  (1) 
0

>  <PUBCHEM_BOND_UDEF_STEREO_COUNT>  (1) 
0

>  <PUBCHEM_ISOTOPIC_ATOM_COUNT>  (1) 
0

>  <PUBCHEM_COMPONENT_COUNT>  (1) 
1

>  <PUBCHEM_CACTVS_TAUTO_COUNT>  (1) 
3

>  <PUBCHEM_CONFORMER_ID>  (1) 
000013E400000001

>  <PUBCHEM_MMFF94_ENERGY>  (1) 
68.2768

>  <PUBCHEM_FEATURE_SELFOVERLAP>  (1) 
35.527

>  <PUBCHEM_SHAPE_FINGERPRINT>  (1) 
10042902 136 12396886409681807904
10411042 1 17761775469699691243
10493431 412 18410296887031531065
10670039 82 17903087956066920420
11370993 70 18336546010611168601
12107183 9 18263070030195212506
12390115 104 18269010798329681120
12403259 118 17604159155192171517
12403259 415 18118412752305295749
12403260 363 18266170832962651622
12633257 1 18334849520521010788
12788726 201 18048331229385423726
13140716 1 18337394953931428448
13583140 156 16805595958750350965
14123255 52 18337673014298018181
14142880 1 18334286604542096095
14178342 30 18187373159194520038
14787075 74 18272367573328459873
15209294 21 18408041818789743218
16087824 20 18411980287855111495
1741750 31 18342742896667910707
18186145 218 18127703625417214237
18915476 22 16988021413356371174
204376 136 18410578344870395225
20510252 161 18268996564576174674
20645477 56 18411144623217742628
21033648 29 18336814295738694616
21236236 1 18340767138686828631
212916 134 18341313532095017464
21524375 3 18341333310050130415
22182937 141 18342463663743289017
23227448 37 18412545426917546693
23402539 116 18197773516917387311
23419403 2 17058923571229054635
23557571 272 18059021695111379142
23558518 356 17971760123141080848
23559900 14 18202006487262107662
25147074 1 18264188292764537706
283562 15 18265046023714388131
335352 9 18337954477133781782
350125 39 18267027330666115921
3545911 37 18342744000928179876
4214541 1 18411136970013314944
474 4 18339923710241856841
474229 33 18410014330287278427
5104073 3 18408325458235150370
53917941 68 18338220614391602519
56633871 153 17829585298759879226
58807428 26 18187079534156178106
59755656 215 18268717113283155350
59755656 520 18409163286021467358
6327066 14 18335697213336030853
6333272 397 18337676308685653345
633830 44 17700140898474709605
7226269 152 18202278083692991488
7808743 9 18409729577802602384
7970288 3 8934703496809751496
9862522 239 18187358788333823893

>  <PUBCHEM_SHAPE_MULTIPOLES>  (1) 
389
10.08
3.4
0.84
7.58
2.05
-0.07
-7.59
-1.19
-3.21
0.33
-0.49
-0.09
-0.14

>  <PUBCHEM_SHAPE_SELFOVERLAP>  (1) 
826.922

>  <PUBCHEM_SHAPE_VOLUME>  (1) 
219.7

>  <PUBCHEM_COORDINATE_TYPE>  (1) 
2
5
10

$$$$
