5098
     RDKit          3D

 41 45  0  0  1  0  0  0  0  0999 V2000
    1.3717   -3.4454   -1.5809 O   0  0  0  0  0  0  0  0  0  0  0  0
    4.0994   -1.0420    1.4081 O   0  0  0  0  0  0  0  0  0  0  0  0
   -4.7266   -3.4547    1.5459 O   0  0  0  0  0  0  0  0  0  0  0  0
   -3.1088   -2.1276    2.4228 O   0  0  0  0  0  0  0  0  0  0  0  0
   -1.7540    1.3542    1.9947 O   0  0  0  0  0  0  0  0  0  0  0  0
   -3.5478   -0.1615    0.6177 N   0  0  0  0  0  0  0  0  0  0  0  0
    3.8990   -1.6908   -0.7492 N   0  0  0  0  0  0  0  0  0  0  0  0
   -4.3406   -1.3651    0.4628 C   0  0  0  0  0  0  0  0  0  0  0  0
   -4.0602   -2.0052   -0.9015 C   0  0  0  0  0  0  0  0  0  0  0  0
   -2.6110   -2.3884   -1.0818 C   0  0  0  0  0  0  0  0  0  0  0  0
   -3.9154    1.0667    0.1002 C   0  0  0  0  0  0  0  0  0  0  0  0
   -2.1731   -3.6568   -0.7005 C   0  0  0  0  0  0  0  0  0  0  0  0
   -1.7106   -1.4756   -1.6310 C   0  0  0  0  0  0  0  0  0  0  0  0
   -3.9747   -2.3230    1.5797 C   0  0  0  0  0  0  0  0  0  0  0  0
   -3.1098    2.1908    0.2823 C   0  0  0  0  0  0  0  0  0  0  0  0
    0.0657   -3.0990   -1.4175 C   0  0  0  0  0  0  0  0  0  0  0  0
    3.4094   -4.1286   -0.4779 C   0  0  0  0  0  0  0  0  0  0  0  0
   -0.8346   -4.0121   -0.8682 C   0  0  0  0  0  0  0  0  0  0  0  0
   -0.3723   -1.8308   -1.7987 C   0  0  0  0  0  0  0  0  0  0  0  0
    1.9153   -4.3841   -0.6541 C   0  0  0  0  0  0  0  0  0  0  0  0
   -5.1100    1.1728   -0.6123 C   0  0  0  0  0  0  0  0  0  0  0  0
    3.7052   -2.7657    0.0800 C   0  0  0  0  0  0  0  0  0  0  0  0
   -3.4987    3.4209   -0.2484 C   0  0  0  0  0  0  0  0  0  0  0  0
   -1.8562    2.1134    1.0217 C   0  0  0  0  0  0  0  0  0  0  0  0
    3.8263   -2.3763    1.3908 C   0  0  0  0  0  0  0  0  0  0  0  0
   -5.4987    2.4028   -1.1430 C   0  0  0  0  0  0  0  0  0  0  0  0
   -4.6932    3.5268   -0.9610 C   0  0  0  0  0  0  0  0  0  0  0  0
    4.1268   -0.7053    0.0895 C   0  0  0  0  0  0  0  0  0  0  0  0
   -0.6603    2.9260    0.6515 C   0  0  0  0  0  0  0  0  0  0  0  0
    4.4010    0.6783   -0.1830 C   0  0  0  0  0  0  0  0  0  0  0  0
    3.7285   -3.0550    2.6874 C   0  0  0  0  0  0  0  0  0  0  0  0
   -0.7191    3.7983   -0.4355 C   0  0  0  0  0  0  0  0  0  0  0  0
    0.5161    2.8137    1.3927 C   0  0  0  0  0  0  0  0  0  0  0  0
    4.0524    1.2280   -1.4167 C   0  0  0  0  0  0  0  0  0  0  0  0
    5.0161    1.4721    0.7853 C   0  0  0  0  0  0  0  0  0  0  0  0
    0.3985    4.5580   -0.7813 C   0  0  0  0  0  0  0  0  0  0  0  0
    1.6335    3.5736    1.0468 C   0  0  0  0  0  0  0  0  0  0  0  0
    4.3192    2.5711   -1.6824 C   0  0  0  0  0  0  0  0  0  0  0  0
    5.2828    2.8152    0.5196 C   0  0  0  0  0  0  0  0  0  0  0  0
    1.5746    4.4457   -0.0402 C   0  0  0  0  0  0  0  0  0  0  0  0
    4.9343    3.3646   -0.7143 C   0  0  0  0  0  0  0  0  0  0  0  0
  1 16  1  0
  1 20  1  0
  2 25  1  0
  2 28  1  0
  3 14  1  0
  4 14  2  0
  5 24  2  0
  6  8  1  0
  6 11  1  0
  7 22  1  0
  7 28  2  0
  8  9  1  0
  8 14  1  0
  9 10  1  0
 10 12  2  0
 10 13  1  0
 11 15  1  0
 11 21  2  0
 12 18  1  0
 13 19  2  0
 15 23  2  0
 15 24  1  0
 16 18  2  0
 16 19  1  0
 17 20  1  0
 17 22  1  0
 21 26  1  0
 22 25  2  0
 23 27  1  0
 24 29  1  0
 25 31  1  0
 26 27  2  0
 28 30  1  0
 29 32  2  0
 29 33  1  0
 30 34  2  0
 30 35  1  0
 32 36  1  0
 33 37  2  0
 34 38  1  0
 35 39  2  0
 36 40  2  0
 37 40  1  0
 38 41  2  0
 39 41  1  0
M  END
>  <PUBCHEM_COMPOUND_CID>  (1) 
5098

>  <PUBCHEM_CONFORMER_RMSD>  (1) 
1.6

>  <PUBCHEM_CONFORMER_DIVERSEORDER>  (1) 
2
117
121
112
6
165
36
103
147
149
96
119
39
138
31
40
10
79
12
148
101
178
3
95
44
109
81
67
159
84
134
55
82
74
1
17
107
156
80
42
66
131
30
110
16
89
146
52
100
25
127
7
124
75
172
126
94
69
35
34
152
23
85
8
51
111
98
9
163
93
53
62
41
175
90
48
47
56
46
153
164
11
58
60
4
141
18
142
151
154
43
136
135
143
72
170
106
171
140
113
108
133
123
5
70
92
145
68
29
104
130
173
13
161
105
71
78
83
45
49
87
91
162
37
50
102
139
64
132
99
169
114
174
168
88
97
150
21
144
76
129
115
38
125
86
122
155
158
32
73
54
160
128
15
27
157
77
24
137
65
177
176
167
22
116
118
26
28
120
14
166
59
19
61
57
20
63
33

>  <PUBCHEM_MMFF94_PARTIAL_CHARGES>  (1) 
61
1 -0.36
10 -0.14
11 0.1
12 -0.15
13 -0.15
14 0.66
15 0.09
16 0.08
17 0.18
18 -0.15
19 -0.15
2 -0.28
20 0.28
21 -0.15
22 0.05
23 -0.15
24 0.4
25 -0.04
26 -0.15
27 -0.15
28 0.43
29 0.09
3 -0.65
30 0.05
31 0.18
32 -0.15
33 -0.15
34 -0.15
35 -0.15
36 -0.15
37 -0.15
38 -0.15
39 -0.15
4 -0.57
40 -0.15
41 -0.15
45 0.4
46 0.15
47 0.15
5 -0.57
50 0.15
51 0.15
54 0.15
55 0.15
56 0.15
57 0.15
6 -0.87
61 0.5
62 0.15
63 0.15
64 0.15
65 0.15
66 0.15
67 0.15
68 0.15
69 0.15
7 -0.57
70 0.15
71 0.15
8 0.43
9 0.14

>  <PUBCHEM_EFFECTIVE_ROTOR_COUNT>  (1) 
12

>  <PUBCHEM_PHARMACOPHORE_FEATURES>  (1) 
12
1 1 acceptor
1 3 acceptor
1 4 acceptor
1 5 acceptor
1 6 cation
1 6 donor
3 3 4 14 anion
5 2 7 22 25 28 rings
6 10 12 13 16 18 19 rings
6 11 15 21 23 26 27 rings
6 29 32 33 36 37 40 rings
6 30 34 35 38 39 41 rings

>  <PUBCHEM_HEAVY_ATOM_COUNT>  (1) 
41

>  <PUBCHEM_ATOM_DEF_STEREO_COUNT>  (1) 
0

>  <PUBCHEM_ATOM_UDEF_STEREO_COUNT>  (1) 
1

>  <PUBCHEM_BOND_DEF_STEREO_COUNT>  (1) 
0

>  <PUBCHEM_BOND_UDEF_STEREO_COUNT>  (1) 
0

>  <PUBCHEM_ISOTOPIC_ATOM_COUNT>  (1) 
0

>  <PUBCHEM_COMPONENT_COUNT>  (1) 
1

>  <PUBCHEM_CACTVS_TAUTO_COUNT>  (1) 
4

>  <PUBCHEM_CONFORMER_ID>  (1) 
000013EA00000002

>  <PUBCHEM_MMFF94_ENERGY>  (1) 
132.8625

>  <PUBCHEM_FEATURE_SELFOVERLAP>  (1) 
60.957

>  <PUBCHEM_SHAPE_FINGERPRINT>  (1) 
10581848 197 17183960088963841003
11146851 88 18266447707470037014
13561361 72 18053372202604727178
1361 2 18269267976286618756
14932702 115 18060133262712290416
14950920 106 18040428876266804274
15001296 14 18336260146299057828
15264996 55 16605471343407751115
15320291 9 18337952290256709080
15320467 1 18051970613078876212
16067690 210 18189325767386331907
17627616 140 18412548703972072190
19311894 1 17548695635875787374
19319366 153 18044652238389771138
20764821 26 18198910214450626455
21133410 62 17899689356328199374
21792938 131 18057581293105745653
21792965 270 17978243656228931121
325973 47 18196373611065798868
354706 109 17691095185979421312
373842 8 18339360764894425055
44575985 19 18052262800343151409
513202 73 18047194330847999305
6176135 31 18197775501249774129
6608658 132 17913758694084977990
9961470 85 18270669875482021540

>  <PUBCHEM_SHAPE_MULTIPOLES>  (1) 
804.45
12.32
8.31
1.89
1.11
0.13
-0.69
-2.68
-0.63
1.71
1
0.21
1.17
0

>  <PUBCHEM_SHAPE_SELFOVERLAP>  (1) 
1765.479

>  <PUBCHEM_SHAPE_VOLUME>  (1) 
433.4

>  <PUBCHEM_COORDINATE_TYPE>  (1) 
2
5
10

$$$$
