5101
     RDKit          3D

 30 34  0  0  1  0  0  0  0  0999 V2000
   -3.3209   -2.3234   -0.6535 O   0  0  0  0  0  0  0  0  0  0  0  0
   -1.4968    1.0024    1.6110 O   0  0  0  0  0  0  0  0  0  0  0  0
    1.1763    0.8764    2.5686 O   0  0  0  0  0  0  0  0  0  0  0  0
    0.7757    3.4640    0.0531 O   0  0  0  0  0  0  0  0  0  0  0  0
   -0.8017    2.7558   -1.9832 O   0  0  0  0  0  0  0  0  0  0  0  0
    3.3084   -0.6098   -2.3009 O   0  0  0  0  0  0  0  0  0  0  0  0
    4.1568   -1.7944    0.0642 O   0  0  0  0  0  0  0  0  0  0  0  0
   -3.2982   -0.3783    0.7716 C   0  0  0  0  0  0  0  0  0  0  0  0
   -3.9168   -1.0219   -0.4845 C   0  0  0  0  0  0  0  0  0  0  0  0
   -2.8108   -1.6046    1.5327 C   0  0  0  0  0  0  0  0  0  0  0  0
   -2.2136    0.6472    0.4908 C   0  0  0  0  0  0  0  0  0  0  0  0
    0.1178    2.2064    0.1772 C   0  0  0  0  0  0  0  0  0  0  0  0
   -0.6412    2.1463    1.5025 C   0  0  0  0  0  0  0  0  0  0  0  0
   -2.4315   -2.5893    0.4400 C   0  0  0  0  0  0  0  0  0  0  0  0
   -2.0208    1.1446   -0.7457 C   0  0  0  0  0  0  0  0  0  0  0  0
   -0.8987    2.1026   -0.9459 C   0  0  0  0  0  0  0  0  0  0  0  0
   -3.7279   -0.2565   -1.7575 C   0  0  0  0  0  0  0  0  0  0  0  0
    1.1943    1.1461    0.1334 C   0  0  0  0  0  0  0  0  0  0  0  0
    0.3645    2.0543    2.6473 C   0  0  0  0  0  0  0  0  0  0  0  0
   -2.8527    0.7515   -1.8603 C   0  0  0  0  0  0  0  0  0  0  0  0
   -1.0201   -2.4526   -0.0334 C   0  0  0  0  0  0  0  0  0  0  0  0
    1.6558    0.5613    1.3233 C   0  0  0  0  0  0  0  0  0  0  0  0
    1.7788    0.7465   -1.0795 C   0  0  0  0  0  0  0  0  0  0  0  0
    0.0482   -2.7463    0.9778 C   0  0  0  0  0  0  0  0  0  0  0  0
    2.6411   -0.4309    1.2917 C   0  0  0  0  0  0  0  0  0  0  0  0
    2.7688   -0.2371   -1.1067 C   0  0  0  0  0  0  0  0  0  0  0  0
   -0.7260   -2.0887   -1.2904 C   0  0  0  0  0  0  0  0  0  0  0  0
    3.1958   -0.8295    0.0779 C   0  0  0  0  0  0  0  0  0  0  0  0
    4.4589    0.1071   -2.7441 C   0  0  0  0  0  0  0  0  0  0  0  0
    4.5365   -2.3493    1.3222 C   0  0  0  0  0  0  0  0  0  0  0  0
  1  9  1  0
  1 14  1  0
  2 11  1  0
  2 13  1  0
  3 19  1  0
  3 22  1  0
  4 12  1  0
  5 16  2  0
  6 26  1  0
  6 29  1  0
  7 28  1  0
  7 30  1  0
  8  9  1  0
  8 10  1  0
  8 11  1  0
  9 17  1  0
 10 14  1  0
 11 15  2  0
 12 13  1  0
 12 16  1  0
 12 18  1  0
 13 19  1  0
 14 21  1  0
 15 16  1  0
 15 20  1  0
 17 20  2  0
 18 22  2  0
 18 23  1  0
 21 24  1  0
 21 27  2  0
 22 25  1  0
 23 26  2  0
 25 28  2  0
 26 28  1  0
M  END
>  <PUBCHEM_COMPOUND_CID>  (1) 
5101

>  <PUBCHEM_CONFORMER_RMSD>  (1) 
0.8

>  <PUBCHEM_CONFORMER_DIVERSEORDER>  (1) 
4
13
26
14
19
16
12
31
23
9
11
6
29
10
1
17
21
3
20
8
25
2
15
27
24
7
5
28
22
30
18

>  <PUBCHEM_MMFF94_PARTIAL_CHARGES>  (1) 
36
1 -0.56
11 -0.06
12 0.48
13 0.28
14 0.42
15 0.01
16 0.49
17 -0.29
18 -0.14
19 0.28
2 -0.36
20 -0.15
21 -0.28
22 0.08
23 -0.15
24 0.14
25 -0.15
26 0.08
27 -0.3
28 0.08
29 0.28
3 -0.36
30 0.28
37 0.15
4 -0.68
40 0.15
41 0.4
42 0.15
46 0.15
47 0.15
48 0.15
5 -0.57
6 -0.36
7 -0.36
8 0.14
9 0.42

>  <PUBCHEM_EFFECTIVE_ROTOR_COUNT>  (1) 
4.2

>  <PUBCHEM_PHARMACOPHORE_FEATURES>  (1) 
13
1 1 acceptor
1 2 acceptor
1 3 acceptor
1 4 acceptor
1 4 donor
1 5 acceptor
1 6 acceptor
1 7 acceptor
5 1 8 9 10 14 rings
6 18 22 23 25 26 28 rings
6 2 11 12 13 15 16 rings
6 3 12 13 18 19 22 rings
6 8 9 11 15 17 20 rings

>  <PUBCHEM_HEAVY_ATOM_COUNT>  (1) 
30

>  <PUBCHEM_ATOM_DEF_STEREO_COUNT>  (1) 
0

>  <PUBCHEM_ATOM_UDEF_STEREO_COUNT>  (1) 
5

>  <PUBCHEM_BOND_DEF_STEREO_COUNT>  (1) 
0

>  <PUBCHEM_BOND_UDEF_STEREO_COUNT>  (1) 
0

>  <PUBCHEM_ISOTOPIC_ATOM_COUNT>  (1) 
0

>  <PUBCHEM_COMPONENT_COUNT>  (1) 
1

>  <PUBCHEM_CACTVS_TAUTO_COUNT>  (1) 
4

>  <PUBCHEM_CONFORMER_ID>  (1) 
000013ED00000004

>  <PUBCHEM_MMFF94_ENERGY>  (1) 
98.3623

>  <PUBCHEM_FEATURE_SELFOVERLAP>  (1) 
66.372

>  <PUBCHEM_SHAPE_FINGERPRINT>  (1) 
10759866 29 17894642460950180358
10863032 1 15068618271315044505
11578080 2 18335124419391712140
11582403 64 15389683350317946001
12156800 1 13278103927920093355
12363563 72 18060127730799641922
12553582 1 18341345425984086814
12596599 1 17703788145736693383
12788726 201 18197513830278165937
131258 38 17625566822721315075
15664445 248 16740861378958238175
16752209 62 18262227820597682303
16945 1 18042103398326580273
17357779 13 17918000485622247054
17492 54 17968673712154896783
20600515 1 18272087210220628648
20691752 17 17753036487305433131
20775438 99 17333329860626577127
20775530 9 18053106408617522119
22907989 373 18262250906178825780
23419403 2 17843088572230871120
2818148 4 18114474468937001651
3027735 51 18123745353587583591
35225 105 17127074320779570320
469060 322 16521355877952472570
57527585 103 17827386313584071675

>  <PUBCHEM_SHAPE_MULTIPOLES>  (1) 
576.3
6.96
3.42
2.46
3.69
0.05
-0.17
-4.5
-2.57
-0.45
0.59
1.25
0.83
-0.05

>  <PUBCHEM_SHAPE_SELFOVERLAP>  (1) 
1281.105

>  <PUBCHEM_SHAPE_VOLUME>  (1) 
303.7

>  <PUBCHEM_COORDINATE_TYPE>  (1) 
2
5
10

$$$$
