5103
     RDKit          3D

 38 41  0  0  0  0  0  0  0  0999 V2000
   -2.2623   -2.8207   -0.3888 O   0  0  0  0  0  0  0  0  0  0  0  0
    2.5629   -2.8459   -0.0348 O   0  0  0  0  0  0  0  0  0  0  0  0
   -0.0608    0.2165    2.5054 O   0  0  0  0  0  0  0  0  0  0  0  0
    4.8944   -1.6038    0.5927 O   0  0  0  0  0  0  0  0  0  0  0  0
    1.6739    1.8718    1.2039 O   0  0  0  0  0  0  0  0  0  0  0  0
   -3.0813   -1.2672    2.3700 O   0  0  0  0  0  0  0  0  0  0  0  0
    5.4298    2.5672   -1.6749 O   0  0  0  0  0  0  0  0  0  0  0  0
    3.4238    4.5573    0.1631 O   0  0  0  0  0  0  0  0  0  0  0  0
   -2.2582   -3.8938   -1.3550 C   0  0  0  0  0  0  0  0  0  0  0  0
   -1.0738   -2.3674    0.1097 C   0  0  0  0  0  0  0  0  0  0  0  0
    0.1685   -2.8875   -0.2588 C   0  0  0  0  0  0  0  0  0  0  0  0
    1.2545   -1.3163    1.2343 C   0  0  0  0  0  0  0  0  0  0  0  0
    2.5026   -0.7531    1.8364 C   0  0  0  0  0  0  0  0  0  0  0  0
    1.3339   -2.3571    0.3078 C   0  0  0  0  0  0  0  0  0  0  0  0
   -0.9010   -4.4384   -1.7336 C   0  0  0  0  0  0  0  0  0  0  0  0
   -1.1509   -1.3255    1.0378 C   0  0  0  0  0  0  0  0  0  0  0  0
    0.0127   -0.8009    1.5991 C   0  0  0  0  0  0  0  0  0  0  0  0
    0.2402   -3.9711   -1.2235 C   0  0  0  0  0  0  0  0  0  0  0  0
   -2.9505   -3.3464   -2.6087 C   0  0  0  0  0  0  0  0  0  0  0  0
   -3.1031   -5.0208   -0.7490 C   0  0  0  0  0  0  0  0  0  0  0  0
    3.2861    0.1373    0.8960 C   0  0  0  0  0  0  0  0  0  0  0  0
    4.4516   -0.3427    0.3197 C   0  0  0  0  0  0  0  0  0  0  0  0
    2.8240    1.4160    0.6280 C   0  0  0  0  0  0  0  0  0  0  0  0
   -2.4474   -0.7779    1.4266 C   0  0  0  0  0  0  0  0  0  0  0  0
    5.1736    0.4777   -0.5473 C   0  0  0  0  0  0  0  0  0  0  0  0
    3.5461    2.2363   -0.2390 C   0  0  0  0  0  0  0  0  0  0  0  0
    4.7209    1.7672   -0.8265 C   0  0  0  0  0  0  0  0  0  0  0  0
    6.4332   -0.0256   -1.1768 C   0  0  0  0  0  0  0  0  0  0  0  0
   -3.0041    0.3691    0.6360 C   0  0  0  0  0  0  0  0  0  0  0  0
    3.0727    3.5853   -0.5306 C   0  0  0  0  0  0  0  0  0  0  0  0
   -4.2040    0.8850    0.9407 C   0  0  0  0  0  0  0  0  0  0  0  0
    2.1304    3.8277   -1.7016 C   0  0  0  0  0  0  0  0  0  0  0  0
   -4.8424    1.9987    0.2173 C   0  0  0  0  0  0  0  0  0  0  0  0
   -4.0611    2.8415   -0.5567 C   0  0  0  0  0  0  0  0  0  0  0  0
   -6.2116    2.1817    0.3251 C   0  0  0  0  0  0  0  0  0  0  0  0
   -4.6653    3.8959   -1.2413 C   0  0  0  0  0  0  0  0  0  0  0  0
   -6.8156    3.2362   -0.3598 C   0  0  0  0  0  0  0  0  0  0  0  0
   -6.0424    4.0932   -1.1429 C   0  0  0  0  0  0  0  0  0  0  0  0
  1  9  1  0
  1 10  1  0
  2 14  1  0
  3 17  1  0
  4 22  1  0
  5 23  1  0
  6 24  2  0
  7 27  1  0
  8 30  2  0
  9 15  1  0
  9 19  1  0
  9 20  1  0
 10 11  2  0
 10 16  1  0
 11 14  1  0
 11 18  1  0
 12 13  1  0
 12 14  2  0
 12 17  1  0
 13 21  1  0
 15 18  2  0
 16 17  2  0
 16 24  1  0
 21 22  2  0
 21 23  1  0
 22 25  1  0
 23 26  2  0
 24 29  1  0
 25 27  2  0
 25 28  1  0
 26 27  1  0
 26 30  1  0
 29 31  2  0
 30 32  1  0
 31 33  1  0
 33 34  2  0
 33 35  1  0
 34 36  1  0
 35 37  2  0
 36 38  2  0
 37 38  1  0
M  END
>  <PUBCHEM_COMPOUND_CID>  (1) 
5103

>  <PUBCHEM_CONFORMER_RMSD>  (1) 
1

>  <PUBCHEM_CONFORMER_DIVERSEORDER>  (1) 
1
98
31
71
109
72
60
69
99
101
10
108
5
110
47
23
37
95
83
55
64
100
40
106
68
89
29
80
87
107
93
61
57
3
67
58
19
50
76
88
30
41
18
26
90
17
44
52
96
103
102
75
34
45
56
66
86
85
42
2
74
12
49
63
32
38
9
51
81
11
104
43
4
48
35
39
27
65
82
46
7
16
15
91
22
25
73
33
94
6
70
54
8
24
97
77
53
59
14
62
79
21
20
92
36
28
105
78
13
84

>  <PUBCHEM_MMFF94_PARTIAL_CHARGES>  (1) 
50
1 -0.36
10 0.08
11 0.03
12 -0.14
13 0.29
14 0.08
15 -0.29
16 0.09
17 0.08
18 -0.18
2 -0.53
21 -0.14
22 0.08
23 0.08
24 0.47
25 -0.14
26 0.09
27 0.08
28 0.14
29 -0.14
3 -0.53
30 0.42
31 -0.18
32 0.06
33 0.03
34 -0.15
35 -0.15
36 -0.15
37 -0.15
38 -0.15
4 -0.53
41 0.15
42 0.15
49 0.45
5 -0.53
50 0.45
54 0.15
55 0.45
56 0.45
57 0.15
6 -0.57
61 0.45
62 0.15
63 0.15
64 0.15
65 0.15
66 0.15
7 -0.53
8 -0.57
9 0.42

>  <PUBCHEM_EFFECTIVE_ROTOR_COUNT>  (1) 
6.4

>  <PUBCHEM_PHARMACOPHORE_FEATURES>  (1) 
13
1 1 acceptor
1 2 donor
1 3 donor
1 4 donor
1 5 donor
1 6 acceptor
1 7 donor
1 8 acceptor
3 9 19 20 hydrophobe
6 1 9 10 11 15 18 rings
6 10 11 12 14 16 17 rings
6 21 22 23 25 26 27 rings
6 33 34 35 36 37 38 rings

>  <PUBCHEM_HEAVY_ATOM_COUNT>  (1) 
38

>  <PUBCHEM_ATOM_DEF_STEREO_COUNT>  (1) 
0

>  <PUBCHEM_ATOM_UDEF_STEREO_COUNT>  (1) 
0

>  <PUBCHEM_BOND_DEF_STEREO_COUNT>  (1) 
0

>  <PUBCHEM_BOND_UDEF_STEREO_COUNT>  (1) 
1

>  <PUBCHEM_ISOTOPIC_ATOM_COUNT>  (1) 
0

>  <PUBCHEM_COMPONENT_COUNT>  (1) 
1

>  <PUBCHEM_CACTVS_TAUTO_COUNT>  (1) 
630

>  <PUBCHEM_CONFORMER_ID>  (1) 
000013EF00000001

>  <PUBCHEM_MMFF94_ENERGY>  (1) 
141.9578

>  <PUBCHEM_FEATURE_SELFOVERLAP>  (1) 
66.015

>  <PUBCHEM_SHAPE_FINGERPRINT>  (1) 
10483366 6 18194976136799131982
10556698 54 16165218126615311237
11093857 51 18199176304812369625
11513181 2 18121514698035320092
11991303 11 18343863329883719703
12788726 201 17835227222979682075
1361 2 18196926670273994565
13617811 41 17475505552965803419
13911987 19 18131073680486326427
13944108 23 17902792964174085197
14117953 113 18197218045261495070
14294032 229 18341337781712712963
14705955 166 16590302901903361024
15082195 135 18267283384480410013
15198563 99 18052254287706785367
15484559 13 18053663581908184087
17899979 129 17980486668217255241
17980427 26 17676194754549784826
20775438 99 16173937218619336236
21223535 225 18262523723166489268
21641784 216 17908698776444997023
21792965 11 15375735349977699725
21857420 4 17183338418158876373
23576562 1 18409736196473488166
27425 322 18042960975158618515
3388396 114 17472704001316985932
340366 18 18340487777266830282
38695281 34 18340768131288367693
392239 28 10738145666585897342
4066623 53 17554583460396785679
46194498 28 17979350855768233349
50677037 204 17907009931069389877
5109719 28 18044665196691634625
5951187 136 17683802104315097601
6608658 132 17688599680857054669

>  <PUBCHEM_SHAPE_MULTIPOLES>  (1) 
735.07
13.8
7.49
1.94
5.73
2.27
0.09
-18.01
-3.75
6.09
-5.2
0.39
0.82
-1.17

>  <PUBCHEM_SHAPE_SELFOVERLAP>  (1) 
1622.33

>  <PUBCHEM_SHAPE_VOLUME>  (1) 
395.3

>  <PUBCHEM_COORDINATE_TYPE>  (1) 
2
5
10

$$$$
