5105
     RDKit          3D

 25 26  0  0  0  0  0  0  0  0999 V2000
    2.0314   -1.8457    1.2714 O   0  0  0  0  0  0  0  0  0  0  0  0
    0.7647    2.7027   -1.2451 O   0  0  0  0  0  0  0  0  0  0  0  0
    0.5627    1.4287    1.1911 O   0  0  0  0  0  0  0  0  0  0  0  0
    2.0533    1.1915   -2.4256 O   0  0  0  0  0  0  0  0  0  0  0  0
   -2.8739   -0.6538    0.4073 N   0  0  0  0  0  0  0  0  0  0  0  0
    2.8786    1.5359    1.3922 N   0  0  0  0  0  0  0  0  0  0  0  0
   -2.8317    0.5361   -0.4543 C   0  0  0  0  0  0  0  0  0  0  0  0
   -4.1744   -0.7763    1.0807 C   0  0  0  0  0  0  0  0  0  0  0  0
   -3.0838    1.8106    0.3526 C   0  0  0  0  0  0  0  0  0  0  0  0
   -4.4702    0.4554    1.9379 C   0  0  0  0  0  0  0  0  0  0  0  0
   -4.4037    1.7347    1.1117 C   0  0  0  0  0  0  0  0  0  0  0  0
   -2.5847   -1.8587   -0.3700 C   0  0  0  0  0  0  0  0  0  0  0  0
   -1.1073   -2.0377   -0.5983 C   0  0  0  0  0  0  0  0  0  0  0  0
   -0.2114   -1.8559    0.4553 C   0  0  0  0  0  0  0  0  0  0  0  0
   -0.6345   -2.3856   -1.8636 C   0  0  0  0  0  0  0  0  0  0  0  0
    1.1572   -2.0222    0.2435 C   0  0  0  0  0  0  0  0  0  0  0  0
    0.7341   -2.5519   -2.0755 C   0  0  0  0  0  0  0  0  0  0  0  0
    1.6299   -2.3702   -1.0219 C   0  0  0  0  0  0  0  0  0  0  0  0
    3.3389   -1.3807    0.9395 C   0  0  0  0  0  0  0  0  0  0  0  0
    3.8913   -0.5879    2.1179 C   0  0  0  0  0  0  0  0  0  0  0  0
    3.0239    0.6099    2.4820 C   0  0  0  0  0  0  0  0  0  0  0  0
    1.6508    1.8711    0.8329 C   0  0  0  0  0  0  0  0  0  0  0  0
    1.7972    2.8684   -0.2966 C   0  0  0  0  0  0  0  0  0  0  0  0
    1.0198    1.8280   -2.2707 C   0  0  0  0  0  0  0  0  0  0  0  0
   -0.1581    1.7534   -3.1943 C   0  0  0  0  0  0  0  0  0  0  0  0
  1 16  1  0
  1 19  1  0
  2 23  1  0
  2 24  1  0
  3 22  2  0
  4 24  2  0
  5  7  1  0
  5  8  1  0
  5 12  1  0
  6 21  1  0
  6 22  1  0
  7  9  1  0
  8 10  1  0
  9 11  1  0
 10 11  1  0
 12 13  1  0
 13 14  2  0
 13 15  1  0
 14 16  1  0
 15 17  2  0
 16 18  2  0
 17 18  1  0
 19 20  1  0
 20 21  1  0
 22 23  1  0
 24 25  1  0
M  END
>  <PUBCHEM_COMPOUND_CID>  (1) 
5105

>  <PUBCHEM_CONFORMER_RMSD>  (1) 
1.2

>  <PUBCHEM_CONFORMER_DIVERSEORDER>  (1) 
2
135
162
128
75
91
108
67
92
58
158
31
19
12
45
112
56
68
146
23
22
154
101
156
62
1
117
17
80
72
51
161
105
24
15
99
7
6
39
122
38
61
14
37
109
110
21
28
49
130
66
48
3
129
98
152
29
60
148
33
27
107
40
143
106
41
16
11
160
145
64
13
4
73
164
100
89
76
102
103
114
81
54
10
71
159
137
55
43
26
94
8
69
139
147
70
113
126
20
5
132
120
9
35
83
85
127
78
142
32
123
133
84
82
104
163
124
87
47
136
116
63
119
140
79
44
144
153
150
90
18
34
157
53
121
46
77
65
36
115
50
88
57
86
118
74
96
42
93
149
155
30
125
52
59
134
111
25
95
138
151
131
141
97

>  <PUBCHEM_MMFF94_PARTIAL_CHARGES>  (1) 
26
1 -0.36
12 0.41
13 -0.14
14 -0.15
15 -0.15
16 0.08
17 -0.15
18 -0.15
19 0.28
2 -0.43
21 0.3
22 0.57
23 0.34
24 0.66
25 0.06
3 -0.57
38 0.15
39 0.15
4 -0.57
40 0.15
41 0.15
48 0.37
5 -0.81
6 -0.73
7 0.27
8 0.27

>  <PUBCHEM_EFFECTIVE_ROTOR_COUNT>  (1) 
12.2

>  <PUBCHEM_PHARMACOPHORE_FEATURES>  (1) 
7
1 1 acceptor
1 3 acceptor
1 4 acceptor
1 5 cation
1 6 donor
6 13 14 15 16 17 18 rings
6 5 7 8 9 10 11 rings

>  <PUBCHEM_HEAVY_ATOM_COUNT>  (1) 
25

>  <PUBCHEM_ATOM_DEF_STEREO_COUNT>  (1) 
0

>  <PUBCHEM_ATOM_UDEF_STEREO_COUNT>  (1) 
0

>  <PUBCHEM_BOND_DEF_STEREO_COUNT>  (1) 
0

>  <PUBCHEM_BOND_UDEF_STEREO_COUNT>  (1) 
0

>  <PUBCHEM_ISOTOPIC_ATOM_COUNT>  (1) 
0

>  <PUBCHEM_COMPONENT_COUNT>  (1) 
1

>  <PUBCHEM_CACTVS_TAUTO_COUNT>  (1) 
2

>  <PUBCHEM_CONFORMER_ID>  (1) 
000013F100000002

>  <PUBCHEM_MMFF94_ENERGY>  (1) 
39.3263

>  <PUBCHEM_FEATURE_SELFOVERLAP>  (1) 
35.522

>  <PUBCHEM_SHAPE_FINGERPRINT>  (1) 
10382601 240 17823144578259709964
11244481 83 17314539043418461329
11725454 13 15840978009453786626
12156800 1 15258665338381866916
12422481 6 18263341652337500696
12539773 59 17258476272853117806
12788726 201 16096603703849766598
13965767 371 18198888250135899402
14251757 17 17556341454434375116
1601671 61 18342745074680638010
17859628 37 18200867383918934730
19026451 147 8934721046272489289
20600515 1 17830751858578000687
21860390 5 16700893774173239918
23419403 2 17908692939367761422
35225 105 17696166464092333197
513532 50 16916515731390438297
539174 4 17973986642714075558
57091435 65 18260840344213598440
6287921 2 17917155996510360871
6786 2 15507490695510542278

>  <PUBCHEM_SHAPE_MULTIPOLES>  (1) 
481.05
6.96
3.73
2.85
5.93
0.17
-1.56
-1.69
6.07
-1.08
-1.61
-1.64
-1.07
-0.57

>  <PUBCHEM_SHAPE_SELFOVERLAP>  (1) 
976.063

>  <PUBCHEM_SHAPE_VOLUME>  (1) 
278.7

>  <PUBCHEM_COORDINATE_TYPE>  (1) 
2
5
10

$$$$
