511
     RDKit          2D

 30 31  0  0  1  0  0  0  0  0999 V2000
    0.0000    0.0000    0.0000 S   0  0  0  0  0  0  0  0  0  0  0  0
    0.0000    0.0000    0.0000 P   0  0  0  0  0  0  0  0  0  0  0  0
    0.0000    0.0000    0.0000 P   0  0  0  0  0  0  0  0  0  0  0  0
    0.0000    0.0000    0.0000 P   0  0  0  0  0  0  0  0  0  0  0  0
    0.0000    0.0000    0.0000 O   0  0  0  0  0  0  0  0  0  0  0  0
    0.0000    0.0000    0.0000 O   0  0  0  0  0  0  0  0  0  0  0  0
    0.0000    0.0000    0.0000 O   0  0  0  0  0  0  0  0  0  0  0  0
    0.0000    0.0000    0.0000 O   0  0  0  0  0  0  0  0  0  0  0  0
    0.0000    0.0000    0.0000 O   0  0  0  0  0  0  0  0  0  0  0  0
    0.0000    0.0000    0.0000 O   0  0  0  0  0  0  0  0  0  0  0  0
    0.0000    0.0000    0.0000 O   0  0  0  0  0  0  0  0  0  0  0  0
    0.0000    0.0000    0.0000 O   0  0  0  0  0  0  0  0  0  0  0  0
    0.0000    0.0000    0.0000 O   0  0  0  0  0  0  0  0  0  0  0  0
    0.0000    0.0000    0.0000 O   0  0  0  0  0  0  0  0  0  0  0  0
    0.0000    0.0000    0.0000 N   0  0  0  0  0  0  0  0  0  0  0  0
    0.0000    0.0000    0.0000 N   0  0  0  0  0  0  0  0  0  0  0  0
    0.0000    0.0000    0.0000 N   0  0  0  0  0  0  0  0  0  0  0  0
    0.0000    0.0000    0.0000 N   0  0  0  0  0  0  0  0  0  0  0  0
    0.0000    0.0000    0.0000 C   0  0  0  0  0  0  0  0  0  0  0  0
    0.0000    0.0000    0.0000 C   0  0  0  0  0  0  0  0  0  0  0  0
    0.0000    0.0000    0.0000 C   0  0  0  0  0  0  0  0  0  0  0  0
    0.0000    0.0000    0.0000 C   0  0  0  0  0  0  0  0  0  0  0  0
    0.0000    0.0000    0.0000 C   0  0  0  0  0  0  0  0  0  0  0  0
    0.0000    0.0000    0.0000 C   0  0  0  0  0  0  0  0  0  0  0  0
    0.0000    0.0000    0.0000 C   0  0  0  0  0  0  0  0  0  0  0  0
    0.0000    0.0000    0.0000 C   0  0  0  0  0  0  0  0  0  0  0  0
    0.0000    0.0000    0.0000 C   0  0  0  0  0  0  0  0  0  0  0  0
    0.0000    0.0000    0.0000 C   0  0  0  0  0  0  0  0  0  0  0  0
    0.0000    0.0000    0.0000 C   0  0  0  0  0  0  0  0  0  0  0  0
    0.0000    0.0000    0.0000 C   0  0  0  0  0  0  0  0  0  0  0  0
  1 20  1  0
  1 23  1  0
  2  5  1  0
  2  6  1  0
  2  7  1  0
  2  8  2  0
  3  6  1  0
  3  9  1  0
  3 10  1  0
  3 11  2  0
  4  9  1  0
  4 12  1  0
  4 13  1  0
  4 14  2  0
  5 24  1  0
 15 19  1  0
 15 21  1  0
 15 23  2  0
 16 27  2  0
 16 29  1  0
 17 28  1  0
 17 29  2  0
 18 27  1  0
 19 20  2  0
 19 25  1  0
 20 22  1  0
 21 26  1  0
 22 24  1  0
 26 27  1  0
 26 28  2  0
 29 30  1  0
M  CHG  1  15   1
M  END
>  <PUBCHEM_COMPOUND_CID>  (1) 
511

>  <PUBCHEM_CONFORMER_RMSD>  (1) 
1.4

>  <PUBCHEM_CONFORMER_DIVERSEORDER>  (1) 
15
108
129
2
22
71
1
120
136
7
94
131
36
137
115
134
99
85
102
87
38
60
103
93
32
81
104
4
83
96
110
44
28
100
132
107
13
59
9
46
35
122
92
135
55
86
112
30
69
77
138
70
73
113
45
48
95
21
121
49
84
90
41
63
29
127
42
78
75
124
67
54
27
12
34
52
23
57
53
26
128
106
111
125
51
16
74
17
82
101
97
10
116
14
47
130
37
66
39
18
20
64
105
79
88
114
91
33
62
80
61
126
24
89
56
43
50
109
6
58
98
118
31
40
25
72
119
76
117
123
3
5
133
68
11
19
65
8

>  <PUBCHEM_MMFF94_PARTIAL_CHARGES>  (1) 
38
1 -0.08
10 -0.77
11 -0.7
12 -0.77
13 -0.77
14 -0.7
15 -0.18
16 -0.62
17 -0.62
18 -0.9
19 0.15
2 1.51
20 -0.14
21 0.66
22 0.18
23 0.22
24 0.28
25 0.18
26 -0.14
27 0.41
28 0.16
29 0.48
3 1.51
30 0.14
35 0.15
4 1.51
41 0.15
42 0.4
43 0.4
47 0.5
48 0.5
49 0.5
5 -0.55
50 0.5
6 -0.54
7 -0.77
8 -0.7
9 -0.54

>  <PUBCHEM_EFFECTIVE_ROTOR_COUNT>  (1) 
10

>  <PUBCHEM_PHARMACOPHORE_FEATURES>  (1) 
13
1 10 acceptor
1 11 acceptor
1 12 acceptor
1 13 acceptor
1 14 acceptor
1 18 donor
1 7 acceptor
1 8 acceptor
3 16 17 29 cation
3 16 18 27 cation
4 4 12 13 14 anion
5 1 15 19 20 23 rings
6 16 17 26 27 28 29 rings

>  <PUBCHEM_HEAVY_ATOM_COUNT>  (1) 
30

>  <PUBCHEM_ATOM_DEF_STEREO_COUNT>  (1) 
0

>  <PUBCHEM_ATOM_UDEF_STEREO_COUNT>  (1) 
0

>  <PUBCHEM_BOND_DEF_STEREO_COUNT>  (1) 
0

>  <PUBCHEM_BOND_UDEF_STEREO_COUNT>  (1) 
0

>  <PUBCHEM_ISOTOPIC_ATOM_COUNT>  (1) 
0

>  <PUBCHEM_COMPONENT_COUNT>  (1) 
1

>  <PUBCHEM_CACTVS_TAUTO_COUNT>  (1) 
3

$$$$
