5118
     RDKit          3D

 22 23  0  0  1  0  0  0  0  0999 V2000
    3.8878    3.0000    0.0569 Cl  0  0  0  0  0  0  0  0  0  0  0  0
    5.1643   -2.1738    0.7373 Cl  0  0  0  0  0  0  0  0  0  0  0  0
   -0.0028   -0.9914   -1.6284 O   0  0  0  0  0  0  0  0  0  0  0  0
    1.1462    1.9413   -0.4882 O   0  0  0  0  0  0  0  0  0  0  0  0
    2.2804   -2.6563    0.1166 O   0  0  0  0  0  0  0  0  0  0  0  0
   -4.2313   -0.2864    0.2410 N   0  0  0  0  0  0  0  0  0  0  0  0
   -0.5338   -0.8030    0.6225 N   0  0  0  0  0  0  0  0  0  0  0  0
   -2.7973    0.0333    0.2665 C   0  0  0  0  0  0  0  0  0  0  0  0
   -2.6976    1.0456    1.4097 C   0  0  0  0  0  0  0  0  0  0  0  0
   -4.0845    1.6706    1.5164 C   0  0  0  0  0  0  0  0  0  0  0  0
   -4.9078    0.9992    0.4299 C   0  0  0  0  0  0  0  0  0  0  0  0
   -1.9109   -1.1818    0.5084 C   0  0  0  0  0  0  0  0  0  0  0  0
   -4.6560   -0.9368   -0.9929 C   0  0  0  0  0  0  0  0  0  0  0  0
   -6.1399   -1.2405   -0.9777 C   0  0  0  0  0  0  0  0  0  0  0  0
    0.3244   -0.7369   -0.4722 C   0  0  0  0  0  0  0  0  0  0  0  0
    1.7303   -0.3531   -0.1836 C   0  0  0  0  0  0  0  0  0  0  0  0
    2.0779    0.9841   -0.2051 C   0  0  0  0  0  0  0  0  0  0  0  0
    2.6520   -1.3425    0.1008 C   0  0  0  0  0  0  0  0  0  0  0  0
    3.3971    1.3458    0.0682 C   0  0  0  0  0  0  0  0  0  0  0  0
    3.9713   -0.9811    0.3740 C   0  0  0  0  0  0  0  0  0  0  0  0
    4.3439    0.3630    0.3577 C   0  0  0  0  0  0  0  0  0  0  0  0
    0.9863    2.3007   -1.8577 C   0  0  0  0  0  0  0  0  0  0  0  0
  1 19  1  0
  2 20  1  0
  3 15  2  0
  4 17  1  0
  4 22  1  0
  5 18  1  0
  6  8  1  0
  6 11  1  0
  6 13  1  0
  7 12  1  0
  7 15  1  0
  8  9  1  0
  8 12  1  0
  9 10  1  0
 10 11  1  0
 13 14  1  0
 15 16  1  0
 16 17  2  0
 16 18  1  0
 17 19  1  0
 18 20  2  0
 19 21  2  0
 20 21  1  0
M  END
>  <PUBCHEM_COMPOUND_CID>  (1) 
5118

>  <PUBCHEM_CONFORMER_RMSD>  (1) 
0.8

>  <PUBCHEM_CONFORMER_DIVERSEORDER>  (1) 
6
18
68
44
107
102
82
25
108
32
106
42
90
93
70
74
96
14
59
85
30
104
49
12
4
29
60
101
80
69
31
40
34
110
61
27
63
67
83
36
1
53
86
71
98
3
16
54
89
66
33
9
15
22
81
10
75
62
11
109
5
47
8
103
2
65
17
73
28
39
19
41
52
64
50
79
97
20
43
56
46
87
21
92
58
105
94
55
38
51
37
57
72
100
23
7
24
77
35
78
76
13
45
88
99
95
26
91
48
84

>  <PUBCHEM_MMFF94_PARTIAL_CHARGES>  (1) 
22
1 -0.18
11 0.27
12 0.3
13 0.27
15 0.54
16 0.09
17 0.08
18 0.08
19 0.18
2 -0.18
20 0.18
21 -0.15
22 0.28
3 -0.57
34 0.37
38 0.15
39 0.45
4 -0.36
5 -0.53
6 -0.81
7 -0.73
8 0.27

>  <PUBCHEM_EFFECTIVE_ROTOR_COUNT>  (1) 
7

>  <PUBCHEM_PHARMACOPHORE_FEATURES>  (1) 
7
1 3 acceptor
1 4 acceptor
1 5 donor
1 6 cation
1 7 donor
5 6 8 9 10 11 rings
6 16 17 18 19 20 21 rings

>  <PUBCHEM_HEAVY_ATOM_COUNT>  (1) 
22

>  <PUBCHEM_ATOM_DEF_STEREO_COUNT>  (1) 
0

>  <PUBCHEM_ATOM_UDEF_STEREO_COUNT>  (1) 
1

>  <PUBCHEM_BOND_DEF_STEREO_COUNT>  (1) 
0

>  <PUBCHEM_BOND_UDEF_STEREO_COUNT>  (1) 
0

>  <PUBCHEM_ISOTOPIC_ATOM_COUNT>  (1) 
0

>  <PUBCHEM_COMPONENT_COUNT>  (1) 
1

>  <PUBCHEM_CACTVS_TAUTO_COUNT>  (1) 
7

>  <PUBCHEM_CONFORMER_ID>  (1) 
000013FE00000006

>  <PUBCHEM_MMFF94_ENERGY>  (1) 
54.9358

>  <PUBCHEM_FEATURE_SELFOVERLAP>  (1) 
35.521

>  <PUBCHEM_SHAPE_FINGERPRINT>  (1) 
10595046 47 18343862247393088171
11545043 162 15791740710968820017
12107183 9 17694789519263029803
12166972 35 18409448111479064681
12236239 1 18201997720384569314
12403259 118 18202278070127074649
12403260 363 18343018878624043097
12616971 3 18342184341040864649
12633257 1 18260830367252334210
12670546 56 18412541015780158451
12760667 363 17751637650848786098
128620 24 15626227918330069387
13167823 11 18272931609565917143
13533116 47 18340483460544661699
13911852 28 18046620106294884826
14178342 30 17904192982426396362
14251739 40 18411419496903695839
14251764 18 18411416211797039978
14739800 52 17631156662848874184
14790565 3 17828498182392024804
15196674 1 18412546513676238721
15527383 91 18333734585649493386
17349148 13 18341898497882050979
17357779 13 17749380447633367997
17492 89 18202289057144840343
192875 21 18410294744143647693
19377110 9 18059586810430022363
200 152 18343860035490322463
20028762 73 18272082773551852926
20157964 124 18335697282519139887
20511986 3 18200579333568846633
20715895 44 17911243819704572001
20739085 24 18259989288539575628
21033648 144 18334572494724016469
21033648 29 17167855370784928205
21033650 10 17344661225439691177
21065198 48 18342740719304120985
21709351 56 18341890745207645047
23184049 59 18410294696677214542
23402539 116 18272364244596774231
23557571 272 16343717538302690401
23558518 356 18043819907481221370
23559900 14 18261109720288353731
2748010 2 18194095467003907596
351380 180 18410855451812624977
439807 62 18268983371508079023
474 4 18261394510974256057
5104073 3 18410017645332157883
57724786 102 17023482914178897261
67856867 119 18343578551406660873
7495541 125 17274814792335153163
9971528 1 18186519916801777772
9981440 41 17471852983622662480

>  <PUBCHEM_SHAPE_MULTIPOLES>  (1) 
428.92
12.33
2.72
1.26
10.43
0.87
0.22
-2.08
-1.11
-3.13
0.14
0.95
0.4
-1.98

>  <PUBCHEM_SHAPE_SELFOVERLAP>  (1) 
876.185

>  <PUBCHEM_SHAPE_VOLUME>  (1) 
251.8

>  <PUBCHEM_COORDINATE_TYPE>  (1) 
2
5
10

$$$$
