5119
     RDKit          3D

 17 18  0  0  1  0  0  0  0  0999 V2000
   -2.7689    0.3764    0.1018 N   0  0  0  0  0  0  0  0  0  0  0  0
    4.2967   -1.5255    2.2075 N   0  0  0  0  0  0  0  0  0  0  0  0
   -0.4359    1.0296   -0.4447 C   0  0  0  0  0  0  0  0  0  0  0  0
   -1.3906   -0.1159   -0.0514 C   0  0  0  0  0  0  0  0  0  0  0  0
   -0.5059    2.1716    0.5809 C   0  0  0  0  0  0  0  0  0  0  0  0
   -1.9530    2.6076    0.7903 C   0  0  0  0  0  0  0  0  0  0  0  0
   -2.8489    1.4176    1.1353 C   0  0  0  0  0  0  0  0  0  0  0  0
   -3.6748   -0.7280    0.4171 C   0  0  0  0  0  0  0  0  0  0  0  0
    0.9869    0.5406   -0.6469 C   0  0  0  0  0  0  0  0  0  0  0  0
   -3.6148   -1.7914   -0.6766 C   0  0  0  0  0  0  0  0  0  0  0  0
    1.6851   -0.0246    0.4180 C   0  0  0  0  0  0  0  0  0  0  0  0
    1.5896    0.6590   -1.8973 C   0  0  0  0  0  0  0  0  0  0  0  0
   -4.5648   -2.9422   -0.3830 C   0  0  0  0  0  0  0  0  0  0  0  0
    2.9924   -0.4738    0.2313 C   0  0  0  0  0  0  0  0  0  0  0  0
    2.8968    0.2096   -2.0840 C   0  0  0  0  0  0  0  0  0  0  0  0
    3.5982   -0.3567   -1.0197 C   0  0  0  0  0  0  0  0  0  0  0  0
    3.7119   -1.0540    1.3215 C   0  0  0  0  0  0  0  0  0  0  0  0
  1  4  1  0
  1  7  1  0
  1  8  1  0
  2 17  3  0
  3  4  1  0
  3  5  1  0
  3  9  1  0
  5  6  1  0
  6  7  1  0
  8 10  1  0
  9 11  2  0
  9 12  1  0
 10 13  1  0
 11 14  1  0
 12 15  2  0
 14 16  2  0
 14 17  1  0
 15 16  1  0
M  END
>  <PUBCHEM_COMPOUND_CID>  (1) 
5119

>  <PUBCHEM_CONFORMER_RMSD>  (1) 
0.6

>  <PUBCHEM_CONFORMER_DIVERSEORDER>  (1) 
1
29
55
20
97
40
88
53
38
41
26
46
83
69
102
44
27
63
72
86
91
7
6
73
62
25
99
13
54
31
59
32
9
49
18
81
95
90
84
3
103
98
67
64
100
66
50
74
14
39
17
35
57
51
22
75
47
76
82
36
60
4
56
10
96
93
89
11
5
94
45
92
71
28
23
79
15
33
87
42
85
70
19
68
21
77
37
61
43
30
8
34
24
52
78
58
12
16
65
2
80
48
104
101

>  <PUBCHEM_MMFF94_PARTIAL_CHARGES>  (1) 
17
1 -0.81
11 -0.15
12 -0.15
14 0.07
15 -0.15
16 -0.15
17 0.48
2 -0.56
3 0.14
31 0.15
32 0.15
36 0.15
37 0.15
4 0.27
7 0.27
8 0.27
9 -0.14

>  <PUBCHEM_EFFECTIVE_ROTOR_COUNT>  (1) 
4.2

>  <PUBCHEM_PHARMACOPHORE_FEATURES>  (1) 
5
1 1 cation
1 13 hydrophobe
1 2 acceptor
6 1 3 4 5 6 7 rings
6 9 11 12 14 15 16 rings

>  <PUBCHEM_HEAVY_ATOM_COUNT>  (1) 
17

>  <PUBCHEM_ATOM_DEF_STEREO_COUNT>  (1) 
0

>  <PUBCHEM_ATOM_UDEF_STEREO_COUNT>  (1) 
1

>  <PUBCHEM_BOND_DEF_STEREO_COUNT>  (1) 
0

>  <PUBCHEM_BOND_UDEF_STEREO_COUNT>  (1) 
0

>  <PUBCHEM_ISOTOPIC_ATOM_COUNT>  (1) 
0

>  <PUBCHEM_COMPONENT_COUNT>  (1) 
1

>  <PUBCHEM_CACTVS_TAUTO_COUNT>  (1) 
1

>  <PUBCHEM_CONFORMER_ID>  (1) 
000013FF00000001

>  <PUBCHEM_MMFF94_ENERGY>  (1) 
26.7874

>  <PUBCHEM_FEATURE_SELFOVERLAP>  (1) 
25.371

>  <PUBCHEM_SHAPE_FINGERPRINT>  (1) 
10042902 136 18190740835131805298
10062212 137 18187646873497246691
10610426 29 18187351160435008901
11137873 295 15864358982326422600
114674 6 16389032032851529523
11578080 2 18042382738388592892
12363563 72 18200319956357129487
12549972 3 16700345096406835842
12553582 1 18270412697335991711
12824470 246 18261391178380373103
13083527 12 17701518831067337269
13583140 156 17630020703980475882
14178342 30 18200033932503532971
14251764 38 12245754082985462675
14576447 43 17895197752755243110
14787075 74 18193841676648460836
15295992 7 15624833621321427857
15342816 4 18337959007522224391
15375462 189 18188506751456043409
15842332 3 18114761346908464108
18186145 218 13695871410966756957
19049666 15 16699224676846588420
200 152 17530687597600616100
20600515 1 18201433641076782841
20626108 58 18041264556473864947
20645477 70 16081092575821511842
20715346 28 16916789526622771476
21065201 7 18059585624375249310
21069387 34 17458341935621345570
21452121 199 18199187480739487337
21503847 285 12175359023167829726
21650355 55 18271237236309132625
21728266 224 18409719656301294691
22112679 90 18188220788275730460
22943178 12 17202773587639108516
23366157 5 18120658200021047401
23419403 2 17981851367910363629
23526113 38 14923953382928014533
23557571 272 17703517592677147881
23559900 14 17916317034815416764
23598288 3 18043261149647599425
3086196 2 18343575227175852673
49207404 50 16917344831702899184
5902787 121 18343588468565521657
602551 16 18130796646136846086
603831 33 18187944892387457196
6049 1 16845024407088824220
621550 5 16126445210064619292
633830 44 17172412833612937284
7615 1 18114471080154888516
77492 1 18041858219902119260
9841814 1 18127415776914719227

>  <PUBCHEM_SHAPE_MULTIPOLES>  (1) 
339.89
8.6
2.49
1.71
1.31
0.04
0.03
-6.79
-1.59
3.73
-0.57
-2.59
-0.3
-1.93

>  <PUBCHEM_SHAPE_SELFOVERLAP>  (1) 
699.007

>  <PUBCHEM_SHAPE_VOLUME>  (1) 
191.5

>  <PUBCHEM_COORDINATE_TYPE>  (1) 
2
5
10

$$$$
