5122
     RDKit          3D

 19 20  0  0  1  0  0  0  0  0999 V2000
    4.0345   -1.4558    1.3626 F   0  0  0  0  0  0  0  0  0  0  0  0
    1.5351    1.9409   -2.1513 O   0  0  0  0  0  0  0  0  0  0  0  0
   -2.2864   -0.3212    0.5216 N   0  0  0  0  0  0  0  0  0  0  0  0
   -0.8488   -0.2016    0.7599 C   0  0  0  0  0  0  0  0  0  0  0  0
   -0.2567   -1.5711    1.0980 C   0  0  0  0  0  0  0  0  0  0  0  0
   -0.1483    0.3821   -0.4748 C   0  0  0  0  0  0  0  0  0  0  0  0
    1.2229   -1.4360    1.4582 C   0  0  0  0  0  0  0  0  0  0  0  0
    1.3572    0.3042   -0.3931 C   0  0  0  0  0  0  0  0  0  0  0  0
    2.0013   -0.5827    0.4886 C   0  0  0  0  0  0  0  0  0  0  0  0
   -2.5442   -1.2014   -0.6175 C   0  0  0  0  0  0  0  0  0  0  0  0
   -2.8780    0.9967    0.2933 C   0  0  0  0  0  0  0  0  0  0  0  0
   -4.0468   -1.3517   -0.8416 C   0  0  0  0  0  0  0  0  0  0  0  0
   -2.6910    1.8817    1.5231 C   0  0  0  0  0  0  0  0  0  0  0  0
    2.1277    1.0934   -1.2607 C   0  0  0  0  0  0  0  0  0  0  0  0
    3.4033   -0.6354    0.5100 C   0  0  0  0  0  0  0  0  0  0  0  0
    3.5201    1.0242   -1.2368 C   0  0  0  0  0  0  0  0  0  0  0  0
    4.1578    0.1618   -0.3500 C   0  0  0  0  0  0  0  0  0  0  0  0
   -4.3426   -2.2807   -2.0089 C   0  0  0  0  0  0  0  0  0  0  0  0
   -3.3172    3.2526    1.3193 C   0  0  0  0  0  0  0  0  0  0  0  0
  1 15  1  0
  2 14  1  0
  3  4  1  0
  3 10  1  0
  3 11  1  0
  4  5  1  0
  4  6  1  0
  5  7  1  0
  6  8  1  0
  7  9  1  0
  8  9  2  0
  8 14  1  0
  9 15  1  0
 10 12  1  0
 11 13  1  0
 12 18  1  0
 13 19  1  0
 14 16  2  0
 15 17  2  0
 16 17  1  0
M  END
>  <PUBCHEM_COMPOUND_CID>  (1) 
5122

>  <PUBCHEM_CONFORMER_RMSD>  (1) 
0.8

>  <PUBCHEM_CONFORMER_DIVERSEORDER>  (1) 
2
4
6
10
1
9
11
5
7
8
3

>  <PUBCHEM_MMFF94_PARTIAL_CHARGES>  (1) 
17
1 -0.19
10 0.27
11 0.27
14 0.08
15 0.19
16 -0.15
17 -0.15
2 -0.53
3 -0.81
35 0.15
36 0.15
4 0.27
43 0.45
6 0.14
7 0.14
8 -0.14
9 -0.14

>  <PUBCHEM_EFFECTIVE_ROTOR_COUNT>  (1) 
5.8

>  <PUBCHEM_PHARMACOPHORE_FEATURES>  (1) 
6
1 18 hydrophobe
1 19 hydrophobe
1 2 donor
1 3 cation
6 4 5 6 7 8 9 rings
6 8 9 14 15 16 17 rings

>  <PUBCHEM_HEAVY_ATOM_COUNT>  (1) 
19

>  <PUBCHEM_ATOM_DEF_STEREO_COUNT>  (1) 
0

>  <PUBCHEM_ATOM_UDEF_STEREO_COUNT>  (1) 
1

>  <PUBCHEM_BOND_DEF_STEREO_COUNT>  (1) 
0

>  <PUBCHEM_BOND_UDEF_STEREO_COUNT>  (1) 
0

>  <PUBCHEM_ISOTOPIC_ATOM_COUNT>  (1) 
0

>  <PUBCHEM_COMPONENT_COUNT>  (1) 
1

>  <PUBCHEM_CACTVS_TAUTO_COUNT>  (1) 
6

>  <PUBCHEM_CONFORMER_ID>  (1) 
0000140200000002

>  <PUBCHEM_MMFF94_ENERGY>  (1) 
39.3983

>  <PUBCHEM_FEATURE_SELFOVERLAP>  (1) 
30.467

>  <PUBCHEM_SHAPE_FINGERPRINT>  (1) 
10062212 137 18409449154797103499
11471102 20 17530957016894355190
11578080 2 18120901049792505556
11582403 64 14757532196649099475
11640471 11 18266193729090720945
11796584 16 17416982621107207222
12236239 1 18408606958865203623
12596599 1 18336547122907394111
12730499 353 16298651838257115003
12788726 201 18343022203477505795
13009979 54 18337663101392485794
13583140 156 16844995824239646862
16752209 62 18201145612354076343
17349148 13 18261385671942461371
18186145 218 17749400264681016786
18219364 16 16732990850691810281
192875 21 18262229018914552863
200 152 18334850662760720151
20645477 70 17095516292900864538
20739085 24 17315378950433550140
21065201 7 17704359844385288398
21524375 3 18123482587799943281
21639500 275 17677050256015299966
22112679 90 18410858737473357185
231179 274 16153978140606518718
23402539 116 18341332279458601959
23557571 272 17132121221096174329
23559900 14 17969783180208077948
23598288 3 18341901749457202363
23598291 2 18335984173006791254
266924 1 18337101281722162603
2748010 2 17315655138236785234
3286 77 18271507763598516802
474 4 17968107403595234513
57100710 210 17703214191939714887
6049 1 16702301265078777083
633830 44 18042707047321292734
7164475 11 18343582941090019135
7471813 234 18269264819469559508
7615 1 18408606967550376117
77492 1 18408609149382933704
88987 49 17988648445650197529

>  <PUBCHEM_SHAPE_MULTIPOLES>  (1) 
372.89
8.23
2.58
1.8
0.19
1.55
0.42
-1.36
1.68
4.24
-0.18
-0.42
-0.06
-3.33

>  <PUBCHEM_SHAPE_SELFOVERLAP>  (1) 
768.924

>  <PUBCHEM_SHAPE_VOLUME>  (1) 
215.8

>  <PUBCHEM_COORDINATE_TYPE>  (1) 
2
5
10

$$$$
