5123
     RDKit          3D

 14 14  0  0  1  0  0  0  0  0999 V2000
   -1.3306   -0.9277   -1.6504 O   0  0  0  0  0  0  0  0  0  0  0  0
   -0.0702   -1.4897    1.3444 O   0  0  0  0  0  0  0  0  0  0  0  0
   -2.9347   -1.4392   -0.1297 O   0  0  0  0  0  0  0  0  0  0  0  0
    3.9919   -0.4426   -0.5654 O   0  0  0  0  0  0  0  0  0  0  0  0
    0.2524    0.6635    0.5021 N   0  0  0  0  0  0  0  0  0  0  0  0
   -3.4354    1.2489    0.1842 N   0  0  0  0  0  0  0  0  0  0  0  0
    1.9523   -0.9661    0.3936 N   0  0  0  0  0  0  0  0  0  0  0  0
   -1.0884    1.1017    0.8720 C   0  0  0  0  0  0  0  0  0  0  0  0
   -2.0979    0.8495   -0.2487 C   0  0  0  0  0  0  0  0  0  0  0  0
    0.6456   -0.6524    0.7908 C   0  0  0  0  0  0  0  0  0  0  0  0
    1.1019    1.5531   -0.1227 C   0  0  0  0  0  0  0  0  0  0  0  0
   -2.1856   -0.6163   -0.6394 C   0  0  0  0  0  0  0  0  0  0  0  0
    2.3446    1.2394   -0.4953 C   0  0  0  0  0  0  0  0  0  0  0  0
    2.8541   -0.1221   -0.2355 C   0  0  0  0  0  0  0  0  0  0  0  0
  1 12  1  0
  2 10  2  0
  3 12  2  0
  4 14  2  0
  5  8  1  0
  5 10  1  0
  5 11  1  0
  6  9  1  0
  7 10  1  0
  7 14  1  0
  8  9  1  0
  9 12  1  0
 11 13  2  0
 13 14  1  0
M  END
>  <PUBCHEM_COMPOUND_CID>  (1) 
5123

>  <PUBCHEM_CONFORMER_RMSD>  (1) 
0.6

>  <PUBCHEM_CONFORMER_DIVERSEORDER>  (1) 
1
4
5
8
11
9
3
7
6
10
2

>  <PUBCHEM_MMFF94_PARTIAL_CHARGES>  (1) 
20
1 -0.65
10 0.69
11 -0.04
12 0.66
13 -0.14
14 0.62
18 0.15
19 0.36
2 -0.57
20 0.36
21 0.37
22 0.15
23 0.5
3 -0.57
4 -0.57
5 -0.47
6 -0.99
7 -0.49
8 0.3
9 0.33

>  <PUBCHEM_EFFECTIVE_ROTOR_COUNT>  (1) 
3

>  <PUBCHEM_PHARMACOPHORE_FEATURES>  (1) 
9
1 1 acceptor
1 2 acceptor
1 3 acceptor
1 4 acceptor
1 6 cation
1 6 donor
1 7 donor
3 1 3 12 anion
6 5 7 10 11 13 14 rings

>  <PUBCHEM_HEAVY_ATOM_COUNT>  (1) 
14

>  <PUBCHEM_ATOM_DEF_STEREO_COUNT>  (1) 
0

>  <PUBCHEM_ATOM_UDEF_STEREO_COUNT>  (1) 
1

>  <PUBCHEM_BOND_DEF_STEREO_COUNT>  (1) 
0

>  <PUBCHEM_BOND_UDEF_STEREO_COUNT>  (1) 
0

>  <PUBCHEM_ISOTOPIC_ATOM_COUNT>  (1) 
0

>  <PUBCHEM_COMPONENT_COUNT>  (1) 
1

>  <PUBCHEM_CACTVS_TAUTO_COUNT>  (1) 
3

>  <PUBCHEM_CONFORMER_ID>  (1) 
0000140300000001

>  <PUBCHEM_MMFF94_ENERGY>  (1) 
21.8603

>  <PUBCHEM_FEATURE_SELFOVERLAP>  (1) 
45.73

>  <PUBCHEM_SHAPE_FINGERPRINT>  (1) 
11031198 65 17604718759070286481
12897270 3 18041549330159389437
12932764 1 17313374621812764433
14128692 85 18272085024034801832
14993402 34 18271520880254773013
15775835 57 18259989236345632333
16945 1 18339918199756637625
18186145 218 18187078464482201476
19422 9 18341618165297984845
20645476 183 18411415069050948087
21119208 17 18343022151241500964
22802520 49 18193282011896173490
23402539 116 18335135359337078828
23552423 10 18336539503777659857
23559900 14 18060415795142297608
25 1 17895757292187944761
2748010 2 16751855455363496880
528886 8 18186800253496077984
63268167 104 18261954042281558752
81228 2 14188759371143681546

>  <PUBCHEM_SHAPE_MULTIPOLES>  (1) 
249.69
5.21
1.61
1.06
1.02
0.08
-0.07
-0.12
-1.17
-0.38
0.13
-0.21
-0.28
-0.44

>  <PUBCHEM_SHAPE_SELFOVERLAP>  (1) 
513.576

>  <PUBCHEM_SHAPE_VOLUME>  (1) 
141.5

>  <PUBCHEM_COORDINATE_TYPE>  (1) 
2
5
10

$$$$
