5124
     RDKit          3D

 25 24  0  0  1  0  0  0  0  0999 V2000
    3.1483   -2.3789    0.0915 S   0  0  0  0  0  0  0  0  0  0  0  0
   -3.3471   -1.6996    0.5823 S   0  0  0  0  0  0  0  0  0  0  0  0
   -0.1430    0.6943   -1.8880 O   0  0  0  0  0  0  0  0  0  0  0  0
   -2.8779    3.0217   -0.6801 O   0  0  0  0  0  0  0  0  0  0  0  0
   -1.4885    2.8088    1.0986 O   0  0  0  0  0  0  0  0  0  0  0  0
    4.0587    1.9568   -0.9971 O   0  0  0  0  0  0  0  0  0  0  0  0
    3.2100    1.4631    1.0792 O   0  0  0  0  0  0  0  0  0  0  0  0
    3.6086   -2.2373    2.4655 O   0  0  0  0  0  0  0  0  0  0  0  0
   -3.6767   -2.5830   -1.6496 O   0  0  0  0  0  0  0  0  0  0  0  0
   -0.9793    0.2708    0.2311 N   0  0  0  0  0  0  0  0  0  0  0  0
    2.3560    0.5024   -0.8518 N   0  0  0  0  0  0  0  0  0  0  0  0
    2.6819   -1.9854    1.6890 N   0  0  0  0  0  0  0  0  0  0  0  0
   -3.6454   -1.4836   -1.0875 N   0  0  0  0  0  0  0  0  0  0  0  0
    1.4976   -1.8289   -0.5355 C   0  0  0  0  0  0  0  0  0  0  0  0
    1.3302   -0.3135   -0.2425 C   0  0  0  0  0  0  0  0  0  0  0  0
   -3.4109    0.1295    0.8407 C   0  0  0  0  0  0  0  0  0  0  0  0
   -2.3017    0.7954   -0.0139 C   0  0  0  0  0  0  0  0  0  0  0  0
    0.0063    0.2648   -0.7451 C   0  0  0  0  0  0  0  0  0  0  0  0
    1.4942   -2.1156   -2.0452 C   0  0  0  0  0  0  0  0  0  0  0  0
    0.4322   -2.6985    0.1500 C   0  0  0  0  0  0  0  0  0  0  0  0
   -3.1681    0.3632    2.3404 C   0  0  0  0  0  0  0  0  0  0  0  0
   -4.8292    0.5966    0.4788 C   0  0  0  0  0  0  0  0  0  0  0  0
   -2.1689    2.2924    0.2207 C   0  0  0  0  0  0  0  0  0  0  0  0
    3.2069    1.3199   -0.1390 C   0  0  0  0  0  0  0  0  0  0  0  0
    5.0057    2.8446   -0.3924 C   0  0  0  0  0  0  0  0  0  0  0  0
  1 12  1  0
  1 14  1  0
  2 13  1  0
  2 16  1  0
  3 18  2  0
  4 23  1  0
  5 23  2  0
  6 24  1  0
  6 25  1  0
  7 24  2  0
  8 12  2  0
  9 13  2  0
 10 17  1  0
 10 18  1  0
 11 15  1  0
 11 24  1  0
 14 15  1  0
 14 19  1  0
 14 20  1  0
 15 18  1  0
 16 17  1  0
 16 21  1  0
 16 22  1  0
 17 23  1  0
M  END
>  <PUBCHEM_COMPOUND_CID>  (1) 
5124

>  <PUBCHEM_CONFORMER_RMSD>  (1) 
1

>  <PUBCHEM_CONFORMER_DIVERSEORDER>  (1) 
1
90
223
42
106
125
241
97
173
200
87
60
187
43
238
73
204
220
169
74
81
243
152
215
188
83
229
134
88
196
239
217
165
109
218
127
48
79
232
234
128
210
203
155
154
183
144
228
224
118
171
14
242
68
192
131
167
119
226
45
56
191
185
55
151
237
121
186
66
98
197
240
227
22
233
168
146
225
38
13
130
75
27
214
102
99
63
174
135
140
202
53
172
65
123
44
149
206
11
107
143
94
57
211
160
23
64
161
129
207
136
184
40
112
59
116
182
70
122
31
133
132
120
148
108
35
147
180
157
111
189
104
93
156
10
47
126
115
36
153
138
194
12
84
137
71
142
230
96
9
52
105
221
176
103
208
145
8
110
193
80
86
181
4
62
58
26
61
231
117
30
162
51
92
201
199
17
159
15
164
34
37
16
222
78
39
158
50
163
177
89
46
113
101
29
178
216
76
141
212
41
18
100
5
33
7
175
72
235
67
91
19
179
124
3
25
209
69
219
20
85
139
95
24
54
82
205
195
21
150
170
190
2
213
236
198
32
166
49
6
77
28
114

>  <PUBCHEM_MMFF94_PARTIAL_CHARGES>  (1) 
24
1 -0.04
10 -0.73
11 -0.73
12 -0.03
13 -0.03
14 0.23
15 0.36
16 0.23
17 0.36
18 0.57
2 -0.04
23 0.66
24 0.78
25 0.28
28 0.37
3 -0.57
4 -0.65
41 0.37
42 0.5
5 -0.57
6 -0.43
7 -0.57
8 -0.16
9 -0.16

>  <PUBCHEM_EFFECTIVE_ROTOR_COUNT>  (1) 
13

>  <PUBCHEM_PHARMACOPHORE_FEATURES>  (1) 
9
1 10 donor
1 11 donor
1 3 acceptor
1 4 acceptor
1 5 acceptor
1 7 acceptor
3 14 19 20 hydrophobe
3 16 21 22 hydrophobe
3 4 5 23 anion

>  <PUBCHEM_HEAVY_ATOM_COUNT>  (1) 
25

>  <PUBCHEM_ATOM_DEF_STEREO_COUNT>  (1) 
0

>  <PUBCHEM_ATOM_UDEF_STEREO_COUNT>  (1) 
2

>  <PUBCHEM_BOND_DEF_STEREO_COUNT>  (1) 
0

>  <PUBCHEM_BOND_UDEF_STEREO_COUNT>  (1) 
0

>  <PUBCHEM_ISOTOPIC_ATOM_COUNT>  (1) 
0

>  <PUBCHEM_COMPONENT_COUNT>  (1) 
1

>  <PUBCHEM_CACTVS_TAUTO_COUNT>  (1) 
4

>  <PUBCHEM_CONFORMER_ID>  (1) 
0000140400000001

>  <PUBCHEM_MMFF94_ENERGY>  (1) 
71.7249

>  <PUBCHEM_FEATURE_SELFOVERLAP>  (1) 
45.731

>  <PUBCHEM_SHAPE_FINGERPRINT>  (1) 
10090160 65 18116156760297555004
10366900 7 18339082716969651633
11578080 2 17604141515460742100
12633257 1 18270124487486317587
13004483 165 18411974755240460071
13032168 30 18057613259745586363
13140716 1 18117565032776454041
13224815 77 18408892832099642831
13583140 156 17822851948888810851
14223421 5 18340498776408757629
14289901 80 18408886230534572424
14787075 74 18055358191092725148
15238133 3 16055493642919252691
18981168 100 14764336158963428451
20600515 1 15936410052509702981
21421861 104 18336555919147829947
21524375 3 18270126850103523396
23559900 14 18197222438221221804
34934 24 18342184379822261397
350125 39 18410017615657626758
3797600 57 17988648522906666560
469060 322 18117265063881719925
5104073 3 18188787041554836377
81228 2 17334204023961895896
9709674 26 18196944275181624863

>  <PUBCHEM_SHAPE_MULTIPOLES>  (1) 
461.18
8.98
3.78
1.79
0.34
0.44
0.5
2.7
1.31
1.98
-0.25
0.22
-0.93
-1.65

>  <PUBCHEM_SHAPE_SELFOVERLAP>  (1) 
887.174

>  <PUBCHEM_SHAPE_VOLUME>  (1) 
283.8

>  <PUBCHEM_COORDINATE_TYPE>  (1) 
2
5
10

$$$$
