5126
     RDKit          3D

  5  4  0  0  1  0  0  0  0  0999 V2000
    1.9433    0.0527   -0.1163 O   0  0  0  0  0  0  0  0  0  0  0  0
   -1.6424   -0.7963    0.0291 N   0  0  0  0  0  0  0  0  0  0  0  0
   -0.4603   -0.0144   -0.3292 C   0  0  0  0  0  0  0  0  0  0  0  0
    0.7825   -0.6721    0.2716 C   0  0  0  0  0  0  0  0  0  0  0  0
   -0.6231    1.4301    0.1448 C   0  0  0  0  0  0  0  0  0  0  0  0
  1  4  1  0
  2  3  1  0
  3  4  1  0
  3  5  1  0
M  END
>  <PUBCHEM_COMPOUND_CID>  (1) 
5126

>  <PUBCHEM_CONFORMER_RMSD>  (1) 
0.4

>  <PUBCHEM_CONFORMER_DIVERSEORDER>  (1) 
1
6
5
3
4
2

>  <PUBCHEM_MMFF94_PARTIAL_CHARGES>  (1) 
7
1 -0.68
12 0.36
13 0.36
14 0.4
2 -0.99
3 0.27
4 0.28

>  <PUBCHEM_EFFECTIVE_ROTOR_COUNT>  (1) 
1

>  <PUBCHEM_PHARMACOPHORE_FEATURES>  (1) 
4
1 1 acceptor
1 1 donor
1 2 cation
1 2 donor

>  <PUBCHEM_HEAVY_ATOM_COUNT>  (1) 
5

>  <PUBCHEM_ATOM_DEF_STEREO_COUNT>  (1) 
0

>  <PUBCHEM_ATOM_UDEF_STEREO_COUNT>  (1) 
1

>  <PUBCHEM_BOND_DEF_STEREO_COUNT>  (1) 
0

>  <PUBCHEM_BOND_UDEF_STEREO_COUNT>  (1) 
0

>  <PUBCHEM_ISOTOPIC_ATOM_COUNT>  (1) 
0

>  <PUBCHEM_COMPONENT_COUNT>  (1) 
1

>  <PUBCHEM_CACTVS_TAUTO_COUNT>  (1) 
1

>  <PUBCHEM_CONFORMER_ID>  (1) 
0000140600000001

>  <PUBCHEM_MMFF94_ENERGY>  (1) 
-2.1203

>  <PUBCHEM_FEATURE_SELFOVERLAP>  (1) 
20.297

>  <PUBCHEM_SHAPE_FINGERPRINT>  (1) 
139733 1 9295300446998360415
16714656 1 18271813444604667078
20096714 4 17978229353106054968
21015797 1 9727337056979807823
21040471 1 17907575826716164072
29004967 10 18337113487386091691
5943 1 17554931940656796089

>  <PUBCHEM_SHAPE_MULTIPOLES>  (1) 
92.05
1.92
1.24
0.63
0.65
0.33
0
-0.18
-0.02
-0.47
0.08
-0.01
0.01
-0.06

>  <PUBCHEM_SHAPE_SELFOVERLAP>  (1) 
155.57

>  <PUBCHEM_SHAPE_VOLUME>  (1) 
63.1

>  <PUBCHEM_COORDINATE_TYPE>  (1) 
2
5
10

$$$$
