5129
     RDKit          3D

 29 32  0  0  1  0  0  0  0  0999 V2000
   -1.8743   -0.5099   -0.9315 S   0  0  0  0  0  0  0  0  0  0  0  0
    4.5821    0.9684    0.9277 O   0  0  0  0  0  0  0  0  0  0  0  0
    5.5282    0.0295   -2.3946 O   0  0  0  0  0  0  0  0  0  0  0  0
    6.8848   -1.5770   -0.1183 O   0  0  0  0  0  0  0  0  0  0  0  0
    7.1166    1.8070    1.7362 O   0  0  0  0  0  0  0  0  0  0  0  0
   -9.1109   -0.4843   -0.1376 O   0  0  0  0  0  0  0  0  0  0  0  0
   -8.7460    1.6690    0.0843 O   0  0  0  0  0  0  0  0  0  0  0  0
    2.8639    0.7859   -0.6897 N   0  0  0  0  0  0  0  0  0  0  0  0
    0.7940    1.2969   -1.3447 N   0  0  0  0  0  0  0  0  0  0  0  0
    2.4526   -1.3774    0.3363 N   0  0  0  0  0  0  0  0  0  0  0  0
    0.0944   -1.9906    0.1993 N   0  0  0  0  0  0  0  0  0  0  0  0
   -8.3335    0.4848    0.0389 N   0  0  0  0  0  0  0  0  0  0  0  0
    5.1161   -0.2323   -1.0644 C   0  0  0  0  0  0  0  0  0  0  0  0
    4.3048    0.9211   -0.4855 C   0  0  0  0  0  0  0  0  0  0  0  0
    6.2909   -0.2927   -0.1116 C   0  0  0  0  0  0  0  0  0  0  0  0
    5.6212    0.0173    1.2176 C   0  0  0  0  0  0  0  0  0  0  0  0
    6.5699    0.6026    2.2483 C   0  0  0  0  0  0  0  0  0  0  0  0
    2.0749   -0.2617   -0.3055 C   0  0  0  0  0  0  0  0  0  0  0  0
    2.0481    1.6964   -1.3089 C   0  0  0  0  0  0  0  0  0  0  0  0
    0.7963    0.0745   -0.7210 C   0  0  0  0  0  0  0  0  0  0  0  0
   -0.2151   -0.8408   -0.4470 C   0  0  0  0  0  0  0  0  0  0  0  0
    1.3900   -2.1846    0.5457 C   0  0  0  0  0  0  0  0  0  0  0  0
   -2.7569   -0.5241    0.6598 C   0  0  0  0  0  0  0  0  0  0  0  0
   -4.2279   -0.2581    0.4952 C   0  0  0  0  0  0  0  0  0  0  0  0
   -5.0985   -1.3217    0.2984 C   0  0  0  0  0  0  0  0  0  0  0  0
   -4.6969    1.0480    0.5428 C   0  0  0  0  0  0  0  0  0  0  0  0
   -6.4629   -1.0748    0.1464 C   0  0  0  0  0  0  0  0  0  0  0  0
   -6.0614    1.2951    0.3909 C   0  0  0  0  0  0  0  0  0  0  0  0
   -6.9445    0.2336    0.1927 C   0  0  0  0  0  0  0  0  0  0  0  0
  1 21  1  0
  1 23  1  0
  2 14  1  0
  2 16  1  0
  3 13  1  0
  4 15  1  0
  5 17  1  0
  6 12  1  0
  7 12  2  0
  8 14  1  0
  8 18  1  0
  8 19  1  0
  9 19  2  0
  9 20  1  0
 10 18  1  0
 10 22  2  0
 11 21  2  0
 11 22  1  0
 12 29  1  0
 13 14  1  0
 13 15  1  0
 15 16  1  0
 16 17  1  0
 18 20  2  0
 20 21  1  0
 23 24  1  0
 24 25  2  0
 24 26  1  0
 25 27  1  0
 26 28  2  0
 27 29  2  0
 28 29  1  0
M  CHG  2   6  -1  12   1
M  END
>  <PUBCHEM_COMPOUND_CID>  (1) 
5129

>  <PUBCHEM_CONFORMER_RMSD>  (1) 
1

>  <PUBCHEM_CONFORMER_DIVERSEORDER>  (1) 
1
674
127
200
224
373
395
94
406
615
33
177
27
5
90
236
112
245
554
201
238
402
363
262
88
381
124
365
325
312
494
244
160
355
142
558
35
14
40
154
288
43
149
119
638
685
51
551
640
452
393
258
9
41
68
566
16
24
34
50
42
466
328
502
232
163
374
476
269
46
366
148
2
391
529
32
448
57
631
293
441
13
38
48
523
83
416
377
76
453
108
197
4
202
28
520
152
669
380
384
622
513
164
31
464
188
135
420
109
590
17
134
22
275
141
7
234
167
47
408
667
26
36
173
329
284
54
10
67
435
118
643
684
428
3
361
555
327
21
383
524
49
242
20
604
246
189
649
484
62
296
162
681
77
101
308
61
121
656
196
63
193
576
71
534
19
263
192
392

>  <PUBCHEM_MMFF94_PARTIAL_CHARGES>  (1) 
38
1 -0.33
10 -0.57
11 -0.62
12 0.91
13 0.28
14 0.54
15 0.28
16 0.28
17 0.28
18 0.11
19 0.04
2 -0.56
20 0.23
21 0.41
22 0.47
23 0.37
24 -0.14
25 -0.15
26 -0.15
27 -0.15
28 -0.15
29 0.13
3 -0.68
36 0.4
37 0.4
38 0.15
39 0.4
4 -0.68
40 0.15
43 0.15
44 0.15
45 0.15
46 0.15
5 -0.68
6 -0.52
7 -0.52
8 0.05
9 -0.57

>  <PUBCHEM_EFFECTIVE_ROTOR_COUNT>  (1) 
7

>  <PUBCHEM_PHARMACOPHORE_FEATURES>  (1) 
17
1 11 acceptor
1 2 acceptor
1 3 acceptor
1 3 donor
1 4 acceptor
1 4 donor
1 5 acceptor
1 5 donor
1 6 acceptor
1 6 anion
1 7 acceptor
3 10 11 22 cation
3 8 9 19 cation
5 2 13 14 15 16 rings
5 8 9 18 19 20 rings
6 10 11 18 20 21 22 rings
6 24 25 26 27 28 29 rings

>  <PUBCHEM_HEAVY_ATOM_COUNT>  (1) 
29

>  <PUBCHEM_ATOM_DEF_STEREO_COUNT>  (1) 
0

>  <PUBCHEM_ATOM_UDEF_STEREO_COUNT>  (1) 
4

>  <PUBCHEM_BOND_DEF_STEREO_COUNT>  (1) 
0

>  <PUBCHEM_BOND_UDEF_STEREO_COUNT>  (1) 
0

>  <PUBCHEM_ISOTOPIC_ATOM_COUNT>  (1) 
0

>  <PUBCHEM_COMPONENT_COUNT>  (1) 
1

>  <PUBCHEM_CACTVS_TAUTO_COUNT>  (1) 
1

>  <PUBCHEM_CONFORMER_ID>  (1) 
0000140900000001

>  <PUBCHEM_MMFF94_ENERGY>  (1) 
72.3144

>  <PUBCHEM_FEATURE_SELFOVERLAP>  (1) 
86.496

>  <PUBCHEM_SHAPE_FINGERPRINT>  (1) 
10 15 17918272077815866808
10162869 55 18187921820825501871
10299344 5 16008749108486048841
11315181 36 16630528445644543931
11719270 70 18260550013083057819
12236239 1 18342741840422577687
12838862 33 18336814343784311301
13540713 5 11526299683083543270
13673619 4 14851595583956221366
13685833 64 12035447233732455627
13692114 37 18410854407983565530
13914758 101 18186239516157741121
14170010 4 18407762525413903750
14347424 109 18260827129422155040
14767858 380 12319458809416940514
15131766 46 16771523326921394512
15183329 4 17749113287634870377
15419008 145 17895464835260102109
1577012 14 18188497989870271085
15840311 113 18273213106059512808
20105231 36 9295287270793739445
20157964 124 16343989109248210420
21150785 3 15195564607193633891
21344244 181 11530476706209450424
21403212 168 18260824895226635115
22224240 67 18335698351697257019
22956985 138 17099164327028503178
23522609 53 16951714456859158549
24771293 8 18266730458838466580
24893992 56 18113903797618202219
3178227 256 17458060482493796812
335352 9 18260275152804031958
34797466 226 16845577508792687358
4073 2 17458637756437899219
4093350 32 18272089348956813639
4340502 62 16558755611579317374
465052 167 16732985340829083122
58260988 647 13840531918957436520
59755656 215 18411146809256168719
6394761 36 16805040714236946385

>  <PUBCHEM_SHAPE_MULTIPOLES>  (1) 
540.53
25.69
1.71
1.41
32.34
0.21
0.11
-5.47
6.36
-0.09
0.1
-3.45
-0.43
0.37

>  <PUBCHEM_SHAPE_SELFOVERLAP>  (1) 
1164.206

>  <PUBCHEM_SHAPE_VOLUME>  (1) 
300.1

>  <PUBCHEM_COORDINATE_TYPE>  (1) 
2
5
10

$$$$
