5133
     RDKit          3D

 30 30  0  0  1  0  0  0  0  0999 V2000
    1.4305    1.2162    0.8289 S   0  0  0  0  0  0  0  0  0  0  0  0
    0.2289   -2.5606   -1.9328 O   0  0  0  0  0  0  0  0  0  0  0  0
    4.0826   -1.4804    0.6580 O   0  0  0  0  0  0  0  0  0  0  0  0
   -3.1208   -2.0730   -1.0064 O   0  0  0  0  0  0  0  0  0  0  0  0
   -3.6057   -3.4947    0.6921 O   0  0  0  0  0  0  0  0  0  0  0  0
    4.9466    1.9851    0.6805 O   0  0  0  0  0  0  0  0  0  0  0  0
    7.2045    1.7628    0.7082 O   0  0  0  0  0  0  0  0  0  0  0  0
   -5.8252    1.8011    0.5407 O   0  0  0  0  0  0  0  0  0  0  0  0
   -5.4418    1.3950   -1.5824 O   0  0  0  0  0  0  0  0  0  0  0  0
    1.5479   -1.8657   -0.1515 N   0  0  0  0  0  0  0  0  0  0  0  0
    4.5367    0.0500   -1.0255 N   0  0  0  0  0  0  0  0  0  0  0  0
   -2.3781   -1.2508    2.1554 N   0  0  0  0  0  0  0  0  0  0  0  0
   -5.0412    1.7046   -0.4343 N   0  0  0  0  0  0  0  0  0  0  0  0
    2.2978   -0.8568   -0.8634 C   0  0  0  0  0  0  0  0  0  0  0  0
   -0.7248   -2.8961    1.4103 C   0  0  0  0  0  0  0  0  0  0  0  0
   -0.0629   -3.6098    0.2298 C   0  0  0  0  0  0  0  0  0  0  0  0
    1.6049    0.5079   -0.8415 C   0  0  0  0  0  0  0  0  0  0  0  0
   -1.7940   -1.8886    0.9730 C   0  0  0  0  0  0  0  0  0  0  0  0
    0.5670   -2.6392   -0.7549 C   0  0  0  0  0  0  0  0  0  0  0  0
    3.7230   -0.8215   -0.3156 C   0  0  0  0  0  0  0  0  0  0  0  0
    0.5238    2.7122    0.3783 C   0  0  0  0  0  0  0  0  0  0  0  0
   -0.9407    2.4454    0.1647 C   0  0  0  0  0  0  0  0  0  0  0  0
   -2.9331   -2.5756    0.2418 C   0  0  0  0  0  0  0  0  0  0  0  0
    5.9217    0.2757   -0.6837 C   0  0  0  0  0  0  0  0  0  0  0  0
   -1.8310    2.5456    1.2338 C   0  0  0  0  0  0  0  0  0  0  0  0
   -1.4091    2.0995   -1.1028 C   0  0  0  0  0  0  0  0  0  0  0  0
   -3.1896    2.2996    1.0356 C   0  0  0  0  0  0  0  0  0  0  0  0
   -2.7677    1.8535   -1.3012 C   0  0  0  0  0  0  0  0  0  0  0  0
   -3.6579    1.9536   -0.2320 C   0  0  0  0  0  0  0  0  0  0  0  0
    6.1076    1.4050    0.2967 C   0  0  0  0  0  0  0  0  0  0  0  0
  1 17  1  0
  1 21  1  0
  2 19  2  0
  3 20  2  0
  4 23  1  0
  5 23  2  0
  6 30  1  0
  7 30  2  0
  8 13  1  0
  9 13  2  0
 10 14  1  0
 10 19  1  0
 11 20  1  0
 11 24  1  0
 12 18  1  0
 13 29  1  0
 14 17  1  0
 14 20  1  0
 15 16  1  0
 15 18  1  0
 16 19  1  0
 18 23  1  0
 21 22  1  0
 22 25  2  0
 22 26  1  0
 24 30  1  0
 25 27  1  0
 26 28  2  0
 27 29  2  0
 28 29  1  0
M  CHG  2   8  -1  13   1
M  END
>  <PUBCHEM_COMPOUND_CID>  (1) 
5133

>  <PUBCHEM_CONFORMER_RMSD>  (1) 
1.2

>  <PUBCHEM_CONFORMER_DIVERSEORDER>  (1) 
3
180
67
122
34
33
146
50
29
55
40
46
42
6
135
49
125
152
51
23
150
179
97
117
43
66
61
153
54
20
16
86
60
58
156
101
127
72
116
27
126
74
142
63
115
75
112
88
161
7
32
143
168
165
64
26
139
173
91
44
140
98
134
87
159
18
181
132
56
95
11
176
103
129
131
81
154
138
70
80
166
121
174
130
59
108
28
92
178
35
96
10
160
47
14
12
141
4
99
45
124
137
163
111
68
120
102
158
84
83
17
113
110
78
162
114
171
93
89
172
38
109
53
21
128
57
79
24
5
145
25
19
136
77
170
22
41
151
119
2
76
105
157
90
164
107
48
73
85
37
8
155
118
94
175
65
1
169
62
167
100
144
9
15
123
52
36
82
104
147
148
39
149
13
71
133
69
30
177
31
106

>  <PUBCHEM_MMFF94_PARTIAL_CHARGES>  (1) 
39
1 -0.46
10 -0.73
11 -0.73
12 -0.99
13 0.91
14 0.36
16 0.06
17 0.23
18 0.33
19 0.57
2 -0.57
20 0.57
21 0.37
22 -0.14
23 0.66
24 0.36
25 -0.15
26 -0.15
27 -0.15
28 -0.15
29 0.13
3 -0.57
30 0.66
38 0.37
4 -0.65
42 0.37
43 0.36
44 0.36
47 0.15
48 0.15
49 0.15
5 -0.57
50 0.15
51 0.5
52 0.5
6 -0.65
7 -0.57
8 -0.52
9 -0.52

>  <PUBCHEM_EFFECTIVE_ROTOR_COUNT>  (1) 
15

>  <PUBCHEM_PHARMACOPHORE_FEATURES>  (1) 
16
1 10 donor
1 11 donor
1 12 cation
1 12 donor
1 2 acceptor
1 3 acceptor
1 4 acceptor
1 5 acceptor
1 6 acceptor
1 7 acceptor
1 8 acceptor
1 8 anion
1 9 acceptor
3 4 5 23 anion
3 6 7 30 anion
6 22 25 26 27 28 29 rings

>  <PUBCHEM_HEAVY_ATOM_COUNT>  (1) 
30

>  <PUBCHEM_ATOM_DEF_STEREO_COUNT>  (1) 
0

>  <PUBCHEM_ATOM_UDEF_STEREO_COUNT>  (1) 
2

>  <PUBCHEM_BOND_DEF_STEREO_COUNT>  (1) 
0

>  <PUBCHEM_BOND_UDEF_STEREO_COUNT>  (1) 
0

>  <PUBCHEM_ISOTOPIC_ATOM_COUNT>  (1) 
0

>  <PUBCHEM_COMPONENT_COUNT>  (1) 
1

>  <PUBCHEM_CACTVS_TAUTO_COUNT>  (1) 
4

>  <PUBCHEM_CONFORMER_ID>  (1) 
0000140D00000003

>  <PUBCHEM_MMFF94_ENERGY>  (1) 
58.1327

>  <PUBCHEM_FEATURE_SELFOVERLAP>  (1) 
81.402

>  <PUBCHEM_SHAPE_FINGERPRINT>  (1) 
10675989 125 17325197438788115829
11135609 187 18337950070381791345
12156800 1 18191839379969167843
12788726 201 18262509416313889362
13402501 40 18410298003828373769
14725015 67 18120370119421201755
14765038 42 18200889374457595153
14787075 74 18129940074902310584
14931854 50 18339632353246720167
17492 54 18336816486867302309
20764821 26 18411418427440975969
21236236 1 18411418444873870742
21360443 126 18334572464459109997
23559900 14 18342449382956697601
3052486 1 18334294292607220288
469060 322 17313095389267717574
5171179 24 17843388841821068497
6287921 2 17263278433053405731

>  <PUBCHEM_SHAPE_MULTIPOLES>  (1) 
554.36
12.32
4.8
1.45
14.01
3.01
0.01
-8.34
0.25
-3.78
-0.72
-0.81
0.22
1.39

>  <PUBCHEM_SHAPE_SELFOVERLAP>  (1) 
1116.003

>  <PUBCHEM_SHAPE_VOLUME>  (1) 
324.4

>  <PUBCHEM_COORDINATE_TYPE>  (1) 
2
5
10

$$$$
