5139
     RDKit          3D

  6  5  0  0  0  0  0  0  0  0999 V2000
   -0.3342   -0.5584    0.6805 S   0  0  0  0  0  0  0  0  0  0  0  0
    2.0498   -0.9566   -0.3873 N   0  0  0  0  0  0  0  0  0  0  0  0
    1.4926    1.2875    0.0942 N   0  0  0  0  0  0  0  0  0  0  0  0
   -1.4996    0.2981   -0.4010 C   0  0  0  0  0  0  0  0  0  0  0  0
   -2.9259   -0.0930   -0.0635 C   0  0  0  0  0  0  0  0  0  0  0  0
    1.2173    0.0225    0.0770 C   0  0  0  0  0  0  0  0  0  0  0  0
  1  4  1  0
  1  6  1  0
  2  6  1  0
  3  6  2  0
  4  5  1  0
M  END
>  <PUBCHEM_COMPOUND_CID>  (1) 
5139

>  <PUBCHEM_CONFORMER_RMSD>  (1) 
0.4

>  <PUBCHEM_CONFORMER_DIVERSEORDER>  (1) 
1
7
3
6
2
8
4
5

>  <PUBCHEM_MMFF94_PARTIAL_CHARGES>  (1) 
8
1 -0.37
12 0.4
13 0.4
14 0.4
2 -0.85
3 -0.85
4 0.23
6 0.64

>  <PUBCHEM_EFFECTIVE_ROTOR_COUNT>  (1) 
2

>  <PUBCHEM_PHARMACOPHORE_FEATURES>  (1) 
4
1 2 donor
1 3 donor
1 5 hydrophobe
3 2 3 6 cation

>  <PUBCHEM_HEAVY_ATOM_COUNT>  (1) 
6

>  <PUBCHEM_ATOM_DEF_STEREO_COUNT>  (1) 
0

>  <PUBCHEM_ATOM_UDEF_STEREO_COUNT>  (1) 
0

>  <PUBCHEM_BOND_DEF_STEREO_COUNT>  (1) 
0

>  <PUBCHEM_BOND_UDEF_STEREO_COUNT>  (1) 
0

>  <PUBCHEM_ISOTOPIC_ATOM_COUNT>  (1) 
0

>  <PUBCHEM_COMPONENT_COUNT>  (1) 
1

>  <PUBCHEM_CACTVS_TAUTO_COUNT>  (1) 
1

>  <PUBCHEM_CONFORMER_ID>  (1) 
0000141300000001

>  <PUBCHEM_MMFF94_ENERGY>  (1) 
5.3473

>  <PUBCHEM_FEATURE_SELFOVERLAP>  (1) 
20.335

>  <PUBCHEM_SHAPE_FINGERPRINT>  (1) 
14390081 3 17968085418148172093
16714656 1 17167869646929022783
20096714 4 18260261971137651081
21040471 1 17167859772693675427
24536 1 18341322370662939041
29004967 10 18201438047517419210
5460574 1 10159699101223704523

>  <PUBCHEM_SHAPE_MULTIPOLES>  (1) 
117.36
3.61
1.03
0.75
1.81
0.13
-0.05
-0.04
0.48
-0.49
-0.04
0.01
-0.08
0.24

>  <PUBCHEM_SHAPE_SELFOVERLAP>  (1) 
194.34

>  <PUBCHEM_SHAPE_VOLUME>  (1) 
81.2

>  <PUBCHEM_COORDINATE_TYPE>  (1) 
2
5
10

$$$$
