514
     RDKit          3D

 33 36  0  0  1  0  0  0  0  0999 V2000
    4.4313   -0.4807   -0.2659 P   0  0  0  0  0  0  0  0  0  0  0  0
    1.1189    1.1396    0.5449 O   0  0  0  0  0  0  0  0  0  0  0  0
    0.7735    3.1730   -2.0090 O   0  0  0  0  0  0  0  0  0  0  0  0
    0.7488    3.9870    1.4743 O   0  0  0  0  0  0  0  0  0  0  0  0
    4.1349    0.9747    0.3763 O   0  0  0  0  0  0  0  0  0  0  0  0
    2.9638   -1.1303   -0.4711 O   0  0  0  0  0  0  0  0  0  0  0  0
    4.9228   -0.1581   -1.7739 O   0  0  0  0  0  0  0  0  0  0  0  0
    5.3813   -1.3288    0.5298 O   0  0  0  0  0  0  0  0  0  0  0  0
    2.6798   -2.0210    1.6142 O   0  0  0  0  0  0  0  0  0  0  0  0
   -0.0053   -2.1318    2.1425 O   0  0  0  0  0  0  0  0  0  0  0  0
   -2.4283   -2.9893    1.1237 O   0  0  0  0  0  0  0  0  0  0  0  0
   -1.2250    1.2579    0.2275 N   0  0  0  0  0  0  0  0  0  0  0  0
   -2.7953    0.9899    1.7870 N   0  0  0  0  0  0  0  0  0  0  0  0
   -2.5123    0.7111   -1.7585 N   0  0  0  0  0  0  0  0  0  0  0  0
   -4.8180    0.1457   -1.1924 N   0  0  0  0  0  0  0  0  0  0  0  0
   -5.6272    0.1553    1.0597 N   0  0  0  0  0  0  0  0  0  0  0  0
    0.2867    3.0343   -0.6776 C   0  0  0  0  0  0  0  0  0  0  0  0
    1.3627    3.4779    0.2927 C   0  0  0  0  0  0  0  0  0  0  0  0
    0.0827    1.5523   -0.3623 C   0  0  0  0  0  0  0  0  0  0  0  0
    2.0923    2.1913    0.6541 C   0  0  0  0  0  0  0  0  0  0  0  0
    3.2536    1.8718   -0.2794 C   0  0  0  0  0  0  0  0  0  0  0  0
   -2.3585    0.8853   -0.4374 C   0  0  0  0  0  0  0  0  0  0  0  0
   -1.5374    1.3064    1.5602 C   0  0  0  0  0  0  0  0  0  0  0  0
   -3.3203    0.7245    0.5471 C   0  0  0  0  0  0  0  0  0  0  0  0
   -4.5903    0.3401    0.1289 C   0  0  0  0  0  0  0  0  0  0  0  0
   -3.7801    0.3404   -2.0416 C   0  0  0  0  0  0  0  0  0  0  0  0
    2.2827   -1.8093    0.4801 C   0  0  0  0  0  0  0  0  0  0  0  0
    0.9720   -2.2689   -0.0377 C   0  0  0  0  0  0  0  0  0  0  0  0
   -0.1244   -2.4120    0.8128 C   0  0  0  0  0  0  0  0  0  0  0  0
    0.8433   -2.5582   -1.3962 C   0  0  0  0  0  0  0  0  0  0  0  0
   -1.3493   -2.8449    0.3048 C   0  0  0  0  0  0  0  0  0  0  0  0
   -0.3814   -2.9910   -1.9041 C   0  0  0  0  0  0  0  0  0  0  0  0
   -1.4778   -3.1343   -1.0537 C   0  0  0  0  0  0  0  0  0  0  0  0
  1  5  1  0
  1  6  1  0
  1  7  1  0
  1  8  2  0
  2 19  1  0
  2 20  1  0
  3 17  1  0
  4 18  1  0
  5 21  1  0
  6 27  1  0
  9 27  2  0
 10 29  1  0
 11 31  1  0
 12 19  1  0
 12 22  1  0
 12 23  1  0
 13 23  2  0
 13 24  1  0
 14 22  1  0
 14 26  2  0
 15 25  2  0
 15 26  1  0
 16 25  1  0
 17 18  1  0
 17 19  1  0
 18 20  1  0
 20 21  1  0
 22 24  2  0
 24 25  1  0
 27 28  1  0
 28 29  2  0
 28 30  1  0
 29 31  1  0
 30 32  2  0
 31 33  2  0
 32 33  1  0
M  END
>  <PUBCHEM_COMPOUND_CID>  (1) 
514

>  <PUBCHEM_CONFORMER_RMSD>  (1) 
1.6

>  <PUBCHEM_CONFORMER_DIVERSEORDER>  (1) 
1
126
83
59
99
7
12
55
6
9
22
57
69
113
23
28
24
82
80
68
46
90
16
36
53
81
98
38
29
107
4
3
125
74
78
10
56
121
92
14
88
117
15
52
89
66
111
65
2
106
124
85
103
102
31
5
54
122
75
39
48
112
109
58
33
79
20
119
67
61
41
19
37
118
32
87
114
86
27
40
100
49
115
104
84
71
95
116
42
108
101
45
30
120
35
76
8
64
60
43
21
91
17
97
51
77
62
47
13
18
93
94
123
63
73
26
34
72
44
70
25
11
110
50
105
96

>  <PUBCHEM_MMFF94_PARTIAL_CHARGES>  (1) 
45
1 1.51
10 -0.53
11 -0.53
12 0.05
13 -0.57
14 -0.57
15 -0.62
16 -0.9
17 0.28
18 0.28
19 0.54
2 -0.56
20 0.28
21 0.28
22 0.11
23 0.04
24 0.23
25 0.41
26 0.47
27 0.63
28 0.09
29 0.08
3 -0.68
30 -0.15
31 0.08
32 -0.15
33 -0.15
4 -0.68
40 0.4
41 0.4
42 0.15
43 0.15
44 0.4
45 0.4
46 0.5
47 0.15
48 0.15
49 0.15
5 -0.55
50 0.45
51 0.45
6 -0.42
7 -0.77
8 -0.7
9 -0.57

>  <PUBCHEM_EFFECTIVE_ROTOR_COUNT>  (1) 
8

>  <PUBCHEM_PHARMACOPHORE_FEATURES>  (1) 
19
1 10 donor
1 11 donor
1 16 cation
1 16 donor
1 2 acceptor
1 3 acceptor
1 3 donor
1 4 acceptor
1 4 donor
1 7 acceptor
1 8 acceptor
1 9 acceptor
3 12 13 23 cation
3 12 14 22 cation
3 14 15 26 cation
5 12 13 22 23 24 rings
5 2 17 18 19 20 rings
6 14 15 22 24 25 26 rings
6 28 29 30 31 32 33 rings

>  <PUBCHEM_HEAVY_ATOM_COUNT>  (1) 
33

>  <PUBCHEM_ATOM_DEF_STEREO_COUNT>  (1) 
0

>  <PUBCHEM_ATOM_UDEF_STEREO_COUNT>  (1) 
4

>  <PUBCHEM_BOND_DEF_STEREO_COUNT>  (1) 
0

>  <PUBCHEM_BOND_UDEF_STEREO_COUNT>  (1) 
0

>  <PUBCHEM_ISOTOPIC_ATOM_COUNT>  (1) 
0

>  <PUBCHEM_COMPONENT_COUNT>  (1) 
1

>  <PUBCHEM_CACTVS_TAUTO_COUNT>  (1) 
39

>  <PUBCHEM_CONFORMER_ID>  (1) 
0000020200000001

>  <PUBCHEM_MMFF94_ENERGY>  (1) 
59.262

>  <PUBCHEM_FEATURE_SELFOVERLAP>  (1) 
97.048

>  <PUBCHEM_SHAPE_FINGERPRINT>  (1) 
10675989 125 16891440067539452605
1100329 8 18412260674912307570
11578080 2 17315353618821752125
12156800 1 15974347777654806410
12422481 6 17975437981495125787
12553582 1 18341608166408618684
13122387 1 18338514145077736068
13140716 1 18410855495284427050
13911987 19 18187378592427987030
14117953 113 17910100318614776031
14840074 17 18410018710315436460
17492 54 18336542733392717127
19319366 153 18113336397620382258
20737093 15 17913171393142971223
20764821 26 18340210811815558142
21197605 99 18122638412110043147
22113638 7 18341609343366613012
23558518 356 17759234485394603880
23559900 14 18056755662124936416
238 59 18119219853937671997
3027735 51 18195525879037677328
3298306 158 18260817181744744933
338550 245 18118972631203762269
35225 105 17618811466197425813
463206 1 18413107290318218281
6287921 2 17630048157190288583
6443956 14 18267590096237000561
70251023 43 17476919057084296935
9981440 41 16549993839061140273

>  <PUBCHEM_SHAPE_MULTIPOLES>  (1) 
599.38
8.36
4.71
1.81
0.22
0.34
0.25
0.19
0.54
-1.42
0.02
0.76
-0.24
-0.22

>  <PUBCHEM_SHAPE_SELFOVERLAP>  (1) 
1295.064

>  <PUBCHEM_SHAPE_VOLUME>  (1) 
330.5

>  <PUBCHEM_COORDINATE_TYPE>  (1) 
2
5
10

$$$$
