5142
     RDKit          3D

  5  4  0  0  0  0  0  0  0  0999 V2000
   -0.9026   -0.6365   -0.6354 S   0  0  0  0  0  0  0  0  0  0  0  0
    1.5309   -0.8844    0.3641 N   0  0  0  0  0  0  0  0  0  0  0  0
    0.8288    1.3186   -0.1180 N   0  0  0  0  0  0  0  0  0  0  0  0
    0.6284    0.0400   -0.0814 C   0  0  0  0  0  0  0  0  0  0  0  0
   -2.0856    0.1623    0.4708 C   0  0  0  0  0  0  0  0  0  0  0  0
  1  4  1  0
  1  5  1  0
  2  4  1  0
  3  4  2  0
M  END
>  <PUBCHEM_COMPOUND_CID>  (1) 
5142

>  <PUBCHEM_CONFORMER_RMSD>  (1) 
0.4

>  <PUBCHEM_CONFORMER_DIVERSEORDER>  (1) 
1
2
3

>  <PUBCHEM_MMFF94_PARTIAL_CHARGES>  (1) 
8
1 -0.37
10 0.4
11 0.4
2 -0.85
3 -0.85
4 0.64
5 0.23
9 0.4

>  <PUBCHEM_EFFECTIVE_ROTOR_COUNT>  (1) 
1

>  <PUBCHEM_PHARMACOPHORE_FEATURES>  (1) 
4
1 2 donor
1 3 donor
1 5 hydrophobe
3 2 3 4 cation

>  <PUBCHEM_HEAVY_ATOM_COUNT>  (1) 
5

>  <PUBCHEM_ATOM_DEF_STEREO_COUNT>  (1) 
0

>  <PUBCHEM_ATOM_UDEF_STEREO_COUNT>  (1) 
0

>  <PUBCHEM_BOND_DEF_STEREO_COUNT>  (1) 
0

>  <PUBCHEM_BOND_UDEF_STEREO_COUNT>  (1) 
0

>  <PUBCHEM_ISOTOPIC_ATOM_COUNT>  (1) 
0

>  <PUBCHEM_COMPONENT_COUNT>  (1) 
1

>  <PUBCHEM_CACTVS_TAUTO_COUNT>  (1) 
1

>  <PUBCHEM_CONFORMER_ID>  (1) 
0000141600000001

>  <PUBCHEM_MMFF94_ENERGY>  (1) 
6.222

>  <PUBCHEM_FEATURE_SELFOVERLAP>  (1) 
20.335

>  <PUBCHEM_SHAPE_FINGERPRINT>  (1) 
139733 1 10447631531025162566
16714656 1 18127700335446047822
20096714 4 18271251645760509725
21015797 1 8861017586242828614
24536 1 18267290101097078195
29004967 10 18113335276021422994
5943 1 11700053464909930598

>  <PUBCHEM_SHAPE_MULTIPOLES>  (1) 
96.79
2.28
1.12
0.77
0.78
0.16
0.04
-0.01
-0.46
-0.3
0.07
0.13
-0.07
-0.29

>  <PUBCHEM_SHAPE_SELFOVERLAP>  (1) 
156.782

>  <PUBCHEM_SHAPE_VOLUME>  (1) 
68.7

>  <PUBCHEM_COORDINATE_TYPE>  (1) 
2
5
10

$$$$
