515
     RDKit          3D

 14 13  0  0  1  0  0  0  0  0999 V2000
    0.0550    0.0285   -1.5118 O   0  0  0  0  0  0  0  0  0  0  0  0
    1.0011   -1.9604    1.3317 O   0  0  0  0  0  0  0  0  0  0  0  0
   -2.8248    1.0998    1.3518 O   0  0  0  0  0  0  0  0  0  0  0  0
    1.3964   -2.1558   -0.8882 O   0  0  0  0  0  0  0  0  0  0  0  0
   -2.5278    1.2796   -0.8879 O   0  0  0  0  0  0  0  0  0  0  0  0
    2.0688    2.1244   -0.8385 O   0  0  0  0  0  0  0  0  0  0  0  0
    3.0671    0.7891    0.7025 O   0  0  0  0  0  0  0  0  0  0  0  0
    0.0380   -0.2794   -0.1147 C   0  0  0  0  0  0  0  0  0  0  0  0
   -1.4368   -0.5520    0.3013 C   0  0  0  0  0  0  0  0  0  0  0  0
    0.6513    0.9041    0.6598 C   0  0  0  0  0  0  0  0  0  0  0  0
   -2.1000   -1.6678   -0.5128 C   0  0  0  0  0  0  0  0  0  0  0  0
    0.8768   -1.5518    0.0430 C   0  0  0  0  0  0  0  0  0  0  0  0
   -2.3163    0.6867    0.1623 C   0  0  0  0  0  0  0  0  0  0  0  0
    2.0513    1.2551    0.2015 C   0  0  0  0  0  0  0  0  0  0  0  0
  1  8  1  0
  2 12  1  0
  3 13  1  0
  4 12  2  0
  5 13  2  0
  6 14  1  0
  7 14  2  0
  8  9  1  0
  8 10  1  0
  8 12  1  0
  9 11  1  0
  9 13  1  0
 10 14  1  0
M  END
>  <PUBCHEM_COMPOUND_CID>  (1) 
515

>  <PUBCHEM_CONFORMER_RMSD>  (1) 
0.6

>  <PUBCHEM_CONFORMER_DIVERSEORDER>  (1) 
7
89
56
109
78
94
96
54
32
74
119
82
75
22
65
101
113
105
52
68
86
73
108
53
66
57
122
71
67
111
77
121
112
36
39
120
19
83
87
16
93
114
123
95
90
60
46
45
51
104
13
107
33
70
40
59
116
92
47
69
34
85
26
64
118
61
84
27
79
28
100
115
9
63
31
5
80
41
58
88
55
18
38
42
72
124
103
81
15
17
25
48
30
97
8
102
62
3
44
37
76
23
110
43
29
106
10
20
2
12
50
117
14
21
24
4
49
91
6
99
1
11
125
35
98

>  <PUBCHEM_MMFF94_PARTIAL_CHARGES>  (1) 
17
1 -0.68
10 0.06
12 0.66
13 0.66
14 0.66
2 -0.65
21 0.4
22 0.5
23 0.5
24 0.5
3 -0.65
4 -0.57
5 -0.57
6 -0.65
7 -0.57
8 0.34
9 0.06

>  <PUBCHEM_EFFECTIVE_ROTOR_COUNT>  (1) 
5

>  <PUBCHEM_PHARMACOPHORE_FEATURES>  (1) 
12
1 1 acceptor
1 1 donor
1 11 hydrophobe
1 2 acceptor
1 3 acceptor
1 4 acceptor
1 5 acceptor
1 6 acceptor
1 7 acceptor
3 2 4 12 anion
3 3 5 13 anion
3 6 7 14 anion

>  <PUBCHEM_HEAVY_ATOM_COUNT>  (1) 
14

>  <PUBCHEM_ATOM_DEF_STEREO_COUNT>  (1) 
0

>  <PUBCHEM_ATOM_UDEF_STEREO_COUNT>  (1) 
2

>  <PUBCHEM_BOND_DEF_STEREO_COUNT>  (1) 
0

>  <PUBCHEM_BOND_UDEF_STEREO_COUNT>  (1) 
0

>  <PUBCHEM_ISOTOPIC_ATOM_COUNT>  (1) 
0

>  <PUBCHEM_COMPONENT_COUNT>  (1) 
1

>  <PUBCHEM_CACTVS_TAUTO_COUNT>  (1) 
1

>  <PUBCHEM_CONFORMER_ID>  (1) 
0000020300000007

>  <PUBCHEM_MMFF94_ENERGY>  (1) 
21.3584

>  <PUBCHEM_FEATURE_SELFOVERLAP>  (1) 
61.091

>  <PUBCHEM_SHAPE_FINGERPRINT>  (1) 
1 1 18413385445290152636
12423570 1 15152788858248704238
12524768 44 18196932171541687431
13024252 1 12542901588077842198
13380535 21 18342192067439239827
13380535 76 18411410739607901395
14614273 12 18337662131156793493
15076042 46 17902230345016456930
15490181 8 18192160493082942842
15775835 57 18339645658312071569
16945 1 18198343957382832562
21028194 46 18267017435050883976
21130352 189 18048306748066321109
21501502 16 18341891896475313775
21524375 3 18266175213518037632
23419403 2 15437864877216543299
23552423 10 18409727357109103971
2748010 2 18413394236808905598
305870 269 18410849975797796826
5084963 1 18193828460632826664
528862 383 18338227163720875962
57177213 63 18261956352836683983
68250623 7 18272939340127189942
7364860 26 18201723898965701102
81228 2 17474388457662322336

>  <PUBCHEM_SHAPE_MULTIPOLES>  (1) 
247.03
3.85
2.24
1.15
0.27
0.73
-0.01
-1.81
0.35
-0.49
-0.12
0.08
-0.01
-0.35

>  <PUBCHEM_SHAPE_SELFOVERLAP>  (1) 
491.682

>  <PUBCHEM_SHAPE_VOLUME>  (1) 
145

>  <PUBCHEM_COORDINATE_TYPE>  (1) 
2
5
10

$$$$
