5155
     RDKit          3D

 16 17  0  0  1  0  0  0  0  0999 V2000
    1.8165   -0.2575   -0.6246 O   0  0  0  0  0  0  0  0  0  0  0  0
    4.3009    0.4613   -1.7417 O   0  0  0  0  0  0  0  0  0  0  0  0
   -1.0836   -2.7580   -0.1647 O   0  0  0  0  0  0  0  0  0  0  0  0
   -4.2319    0.5817   -0.4520 O   0  0  0  0  0  0  0  0  0  0  0  0
   -0.3965   -0.5510    0.1507 N   0  0  0  0  0  0  0  0  0  0  0  0
   -2.6433   -1.0825   -0.3059 N   0  0  0  0  0  0  0  0  0  0  0  0
    1.0030   -0.8929    0.3773 C   0  0  0  0  0  0  0  0  0  0  0  0
    2.7147    0.6628    0.0332 C   0  0  0  0  0  0  0  0  0  0  0  0
    1.4616   -0.3594    1.6808 C   0  0  0  0  0  0  0  0  0  0  0  0
    2.4417    0.5200    1.4878 C   0  0  0  0  0  0  0  0  0  0  0  0
    4.1431    0.3049   -0.3414 C   0  0  0  0  0  0  0  0  0  0  0  0
   -0.7485    0.7822    0.2008 C   0  0  0  0  0  0  0  0  0  0  0  0
   -1.3406   -1.5536   -0.1083 C   0  0  0  0  0  0  0  0  0  0  0  0
   -1.9959    1.2297    0.0112 C   0  0  0  0  0  0  0  0  0  0  0  0
   -3.0673    0.2372   -0.2696 C   0  0  0  0  0  0  0  0  0  0  0  0
   -2.3736    2.6751    0.0663 C   0  0  0  0  0  0  0  0  0  0  0  0
  1  7  1  0
  1  8  1  0
  2 11  1  0
  3 13  2  0
  4 15  2  0
  5  7  1  0
  5 12  1  0
  5 13  1  0
  6 13  1  0
  6 15  1  0
  7  9  1  0
  8 10  1  0
  8 11  1  0
  9 10  2  0
 12 14  2  0
 14 15  1  0
 14 16  1  0
M  END
>  <PUBCHEM_COMPOUND_CID>  (1) 
5155

>  <PUBCHEM_CONFORMER_RMSD>  (1) 
0.6

>  <PUBCHEM_CONFORMER_DIVERSEORDER>  (1) 
1
17
25
27
7
12
4
23
18
9
21
22
3
5
2
13
26
15
20
8
24
14
28
11
16
10
6
19

>  <PUBCHEM_MMFF94_PARTIAL_CHARGES>  (1) 
21
1 -0.56
10 -0.29
11 0.28
12 -0.04
13 0.69
14 -0.12
15 0.62
16 0.14
19 0.15
2 -0.68
20 0.15
23 0.15
24 0.37
28 0.4
3 -0.57
4 -0.57
5 -0.47
6 -0.49
7 0.72
8 0.42
9 -0.29

>  <PUBCHEM_EFFECTIVE_ROTOR_COUNT>  (1) 
2.6

>  <PUBCHEM_PHARMACOPHORE_FEATURES>  (1) 
8
1 1 acceptor
1 2 acceptor
1 2 donor
1 3 acceptor
1 4 acceptor
1 6 donor
5 1 7 8 9 10 rings
6 5 6 12 13 14 15 rings

>  <PUBCHEM_HEAVY_ATOM_COUNT>  (1) 
16

>  <PUBCHEM_ATOM_DEF_STEREO_COUNT>  (1) 
0

>  <PUBCHEM_ATOM_UDEF_STEREO_COUNT>  (1) 
2

>  <PUBCHEM_BOND_DEF_STEREO_COUNT>  (1) 
0

>  <PUBCHEM_BOND_UDEF_STEREO_COUNT>  (1) 
0

>  <PUBCHEM_ISOTOPIC_ATOM_COUNT>  (1) 
0

>  <PUBCHEM_COMPONENT_COUNT>  (1) 
1

>  <PUBCHEM_CACTVS_TAUTO_COUNT>  (1) 
3

>  <PUBCHEM_CONFORMER_ID>  (1) 
0000142300000001

>  <PUBCHEM_MMFF94_ENERGY>  (1) 
32.2267

>  <PUBCHEM_FEATURE_SELFOVERLAP>  (1) 
40.601

>  <PUBCHEM_SHAPE_FINGERPRINT>  (1) 
10498660 4 18410003343212653493
12173636 292 18411129212885757781
12186901 62 18411428331508998998
12236239 1 17821722836736684704
12491281 212 18260835882016501408
13538477 17 18187633743333946803
13764800 53 18334577958017401475
14993402 34 18334852822970910565
15279307 12 18113890559548314258
15342168 16 15936704756185787894
15669948 3 18336254742961278131
15775835 57 17894628145306951300
16945 1 18339629131425252427
18186145 218 17632289047675908449
19784866 240 14189584030787232748
204376 136 15502667039447427264
20510252 161 18272646831785684545
20645476 183 18040713692843459047
20645477 56 18413106190948872592
20671657 1 18263636291067206850
20871999 31 18339641273361446119
21524375 3 18261669260011134267
22802520 49 18060143167096739530
23048698 100 17167855335850092297
23366157 5 17828203186488539507
23402539 116 18342163484104707692
23493267 7 18259988197032417539
23526113 38 17560531603290938102
23557571 272 18055907951332955832
23559900 14 18273495698318206960
2748010 2 18195804060143126509
458136 41 18125734391765761611
474 4 17023475260583890852
53812653 8 18335979792319140177
6049 1 17845374512876417432
7364860 26 17767956546350692043
77492 1 17749377183336773330
81228 2 17983278619960448683

>  <PUBCHEM_SHAPE_MULTIPOLES>  (1) 
295.83
6.82
2
1.14
2.51
0.22
-0.16
-2.25
2.25
-1.97
0.05
1.39
-0.09
-0.27

>  <PUBCHEM_SHAPE_SELFOVERLAP>  (1) 
624.766

>  <PUBCHEM_SHAPE_VOLUME>  (1) 
165.2

>  <PUBCHEM_COORDINATE_TYPE>  (1) 
2
5
10

$$$$
