5160
     RDKit          3D

 31 32  0  0  1  0  0  0  0  0999 V2000
   -2.5951   -0.2290   -0.1604 O   0  0  0  0  0  0  0  0  0  0  0  0
   -0.3572   -1.5594    0.8170 O   0  0  0  0  0  0  0  0  0  0  0  0
    0.6642   -3.5237    1.4629 O   0  0  0  0  0  0  0  0  0  0  0  0
    3.6247    0.3193   -2.1392 O   0  0  0  0  0  0  0  0  0  0  0  0
    5.4972   -1.5450    1.7933 O   0  0  0  0  0  0  0  0  0  0  0  0
    4.0464    0.1138    2.3467 O   0  0  0  0  0  0  0  0  0  0  0  0
   -2.4225   -3.4350   -1.6187 N   0  0  0  0  0  0  0  0  0  0  0  0
   -1.5036   -2.2978    0.3819 C   0  0  0  0  0  0  0  0  0  0  0  0
   -1.2833   -2.7074   -1.0762 C   0  0  0  0  0  0  0  0  0  0  0  0
   -2.7454   -1.4326    0.5860 C   0  0  0  0  0  0  0  0  0  0  0  0
   -1.0137    2.0534    0.5242 C   0  0  0  0  0  0  0  0  0  0  0  0
   -2.4982    2.0201    0.6799 C   0  0  0  0  0  0  0  0  0  0  0  0
   -0.5392    2.5632   -0.8504 C   0  0  0  0  0  0  0  0  0  0  0  0
   -3.2260    0.8825    0.3310 C   0  0  0  0  0  0  0  0  0  0  0  0
    0.9624    2.5559   -1.0017 C   0  0  0  0  0  0  0  0  0  0  0  0
   -3.1569    3.1433    1.1800 C   0  0  0  0  0  0  0  0  0  0  0  0
   -2.4738   -3.3030   -3.0763 C   0  0  0  0  0  0  0  0  0  0  0  0
   -2.3609   -4.8484   -1.2402 C   0  0  0  0  0  0  0  0  0  0  0  0
   -4.6126    0.8683    0.4820 C   0  0  0  0  0  0  0  0  0  0  0  0
    0.6600   -2.3067    1.3412 C   0  0  0  0  0  0  0  0  0  0  0  0
   -4.5434    3.1291    1.3311 C   0  0  0  0  0  0  0  0  0  0  0  0
   -5.2713    1.9915    0.9821 C   0  0  0  0  0  0  0  0  0  0  0  0
    1.7842   -1.3797    1.7508 C   0  0  0  0  0  0  0  0  0  0  0  0
    1.6075    1.4267   -1.5062 C   0  0  0  0  0  0  0  0  0  0  0  0
    1.7053    3.6789   -0.6371 C   0  0  0  0  0  0  0  0  0  0  0  0
    2.9953    1.4205   -1.6462 C   0  0  0  0  0  0  0  0  0  0  0  0
    3.1653   -1.9990    1.5733 C   0  0  0  0  0  0  0  0  0  0  0  0
    3.0930    3.6727   -0.7770 C   0  0  0  0  0  0  0  0  0  0  0  0
    3.7380    2.5435   -1.2816 C   0  0  0  0  0  0  0  0  0  0  0  0
    4.2549   -1.0220    1.9403 C   0  0  0  0  0  0  0  0  0  0  0  0
    2.8048   -0.7938   -2.4923 C   0  0  0  0  0  0  0  0  0  0  0  0
  1 10  1  0
  1 14  1  0
  2  8  1  0
  2 20  1  0
  3 20  2  0
  4 26  1  0
  4 31  1  0
  5 30  1  0
  6 30  2  0
  7  9  1  0
  7 17  1  0
  7 18  1  0
  8  9  1  0
  8 10  1  0
 11 12  1  0
 11 13  1  0
 12 14  2  0
 12 16  1  0
 13 15  1  0
 14 19  1  0
 15 24  2  0
 15 25  1  0
 16 21  2  0
 19 22  2  0
 20 23  1  0
 21 22  1  0
 23 27  1  0
 24 26  1  0
 25 28  2  0
 26 29  2  0
 27 30  1  0
 28 29  1  0
M  END
>  <PUBCHEM_COMPOUND_CID>  (1) 
5160

>  <PUBCHEM_CONFORMER_RMSD>  (1) 
1.2

>  <PUBCHEM_CONFORMER_DIVERSEORDER>  (1) 
1
178
8
243
73
206
215
35
222
263
93
284
280
228
25
140
265
64
262
104
63
157
273
54
227
238
187
218
110
148
256
139
102
75
266
92
153
249
111
239
34
162
69
42
230
285
250
15
159
113
116
38
247
121
163
182
26
151
88
211
260
183
89
128
170
114
176
267
180
108
136
199
201
9
198
56
122
61
11
138
191
251
194
281
255
107
141
269
74
221
23
261
200
51
205
203
90
167
195
277
190
6
188
149
233
28
216
196
131
184
177
99
275
87
57
105
202
143
244
10
145
283
17
33
207
101
179
118
84
171
181
103
175
47
43
259
29
234
21
46
97
127
264
24
254
31
164
204
27
271
226
245
91
100
96
235
62
2
45
147
241
214
49
223
94
258
135
40
115
231
210
112
32
20
72
276
76
150
268
193
52
197
81
18
155
237
185
173
146
209
117
225
156
79
137
119
16
282
58
3
133
106
242
4
154
144
217
70
246
77
60
67
65
71
158
123
212
78
82
50
55
13
192
132
142
125
41
109
129
53
257
208
172
166
37
220
213
66
12
5
236
7
48
248
152
68
30
224
189
169
168
44
219
186
274
36
165
278
272
134
86
270
80
14
252
83
161
22
95
124
279
98
85
229
19
174
130
120
59
240
253
232
39
126
160

>  <PUBCHEM_MMFF94_PARTIAL_CHARGES>  (1) 
40
1 -0.36
10 0.28
11 0.14
12 -0.14
13 0.14
14 0.08
15 -0.14
16 -0.15
17 0.27
18 0.27
19 -0.15
2 -0.43
20 0.66
21 -0.15
22 -0.15
23 0.06
24 -0.15
25 -0.15
26 0.08
27 0.06
28 -0.15
29 -0.15
3 -0.57
30 0.66
31 0.28
4 -0.36
41 0.15
48 0.15
49 0.15
5 -0.65
50 0.15
53 0.15
54 0.15
57 0.15
58 0.15
6 -0.57
62 0.5
7 -0.81
8 0.28
9 0.27

>  <PUBCHEM_EFFECTIVE_ROTOR_COUNT>  (1) 
14

>  <PUBCHEM_PHARMACOPHORE_FEATURES>  (1) 
9
1 1 acceptor
1 3 acceptor
1 4 acceptor
1 5 acceptor
1 6 acceptor
1 7 cation
3 5 6 30 anion
6 12 14 16 19 21 22 rings
6 15 24 25 26 28 29 rings

>  <PUBCHEM_HEAVY_ATOM_COUNT>  (1) 
31

>  <PUBCHEM_ATOM_DEF_STEREO_COUNT>  (1) 
0

>  <PUBCHEM_ATOM_UDEF_STEREO_COUNT>  (1) 
1

>  <PUBCHEM_BOND_DEF_STEREO_COUNT>  (1) 
0

>  <PUBCHEM_BOND_UDEF_STEREO_COUNT>  (1) 
0

>  <PUBCHEM_ISOTOPIC_ATOM_COUNT>  (1) 
0

>  <PUBCHEM_COMPONENT_COUNT>  (1) 
1

>  <PUBCHEM_CACTVS_TAUTO_COUNT>  (1) 
1

>  <PUBCHEM_CONFORMER_ID>  (1) 
0000142800000001

>  <PUBCHEM_MMFF94_ENERGY>  (1) 
83.9693

>  <PUBCHEM_FEATURE_SELFOVERLAP>  (1) 
45.731

>  <PUBCHEM_SHAPE_FINGERPRINT>  (1) 
10006869 2 18263940989370190603
10032420 55 14438399543703769964
1100329 8 18259989253673084472
11513181 2 17629182837043840487
11578080 2 16629974355105977634
12156800 1 17631441431400257798
12788726 201 18052260892780799911
14117953 113 17974285417840465189
14840074 17 18041843896391915688
14955137 171 18042412322481309210
15840311 113 16114290899721858777
18336668 15 17313948498890941472
19319366 153 17678203549745880462
2132832 1 18193816348909746726
21796203 349 17681305207856059952
23558518 356 18048332324549635588
23559900 14 18129962125322827148
25019877 29 17630304373485580127
445580 8 18190184481672182744
463206 1 17968387779514271080
474144 1 17896616002453856688
57091435 65 17970924253680424368
5895379 119 18343021112112668422
6287921 2 17550115762300483929

>  <PUBCHEM_SHAPE_MULTIPOLES>  (1) 
597.77
9.26
6.35
2.59
0.54
2.68
0.65
-3.99
-3.15
-3.23
1.92
2.36
2
-5.58

>  <PUBCHEM_SHAPE_SELFOVERLAP>  (1) 
1230.299

>  <PUBCHEM_SHAPE_VOLUME>  (1) 
343.5

>  <PUBCHEM_COORDINATE_TYPE>  (1) 
2
5
10

$$$$
