5162
     RDKit          3D

 21 23  0  0  0  0  0  0  0  0999 V2000
    6.0542   -0.3756   -0.2334 O   0  0  0  0  0  0  0  0  0  0  0  0
   -0.0262    1.5864    0.4434 N   0  0  0  0  0  0  0  0  0  0  0  0
   -0.3989   -0.5370   -0.0894 N   0  0  0  0  0  0  0  0  0  0  0  0
   -5.3702   -1.7500   -0.2513 N   0  0  0  0  0  0  0  0  0  0  0  0
   -1.3839    1.4330    0.4458 C   0  0  0  0  0  0  0  0  0  0  0  0
   -1.5896    0.1144    0.1138 C   0  0  0  0  0  0  0  0  0  0  0  0
    0.5230    0.3776    0.1164 C   0  0  0  0  0  0  0  0  0  0  0  0
   -2.2979    2.5447    0.7583 C   0  0  0  0  0  0  0  0  0  0  0  0
    1.9493    0.1835    0.0257 C   0  0  0  0  0  0  0  0  0  0  0  0
   -2.8684   -0.5156   -0.0094 C   0  0  0  0  0  0  0  0  0  0  0  0
   -2.7090    3.3463   -0.4840 C   0  0  0  0  0  0  0  0  0  0  0  0
    2.5032   -1.0634    0.3161 C   0  0  0  0  0  0  0  0  0  0  0  0
    2.7750    1.2425   -0.3517 C   0  0  0  0  0  0  0  0  0  0  0  0
   -3.5315   -0.5262   -1.2344 C   0  0  0  0  0  0  0  0  0  0  0  0
   -3.4613   -1.1246    1.0941 C   0  0  0  0  0  0  0  0  0  0  0  0
    3.8826   -1.2512    0.2294 C   0  0  0  0  0  0  0  0  0  0  0  0
    4.1544    1.0546   -0.4387 C   0  0  0  0  0  0  0  0  0  0  0  0
    4.7083   -0.1921   -0.1480 C   0  0  0  0  0  0  0  0  0  0  0  0
   -4.7669   -1.1500   -1.3019 C   0  0  0  0  0  0  0  0  0  0  0  0
   -4.6999   -1.7216    0.9225 C   0  0  0  0  0  0  0  0  0  0  0  0
    6.5534   -1.6758    0.0766 C   0  0  0  0  0  0  0  0  0  0  0  0
  1 18  1  0
  1 21  1  0
  2  5  1  0
  2  7  1  0
  3  6  1  0
  3  7  2  0
  4 19  2  0
  4 20  1  0
  5  6  2  0
  5  8  1  0
  6 10  1  0
  7  9  1  0
  8 11  1  0
  9 12  2  0
  9 13  1  0
 10 14  2  0
 10 15  1  0
 12 16  1  0
 13 17  2  0
 14 19  1  0
 15 20  2  0
 16 18  2  0
 17 18  1  0
M  END
>  <PUBCHEM_COMPOUND_CID>  (1) 
5162

>  <PUBCHEM_CONFORMER_RMSD>  (1) 
0.6

>  <PUBCHEM_CONFORMER_DIVERSEORDER>  (1) 
1
10
11
3
5
8
9
6
4
12
7
2

>  <PUBCHEM_MMFF94_PARTIAL_CHARGES>  (1) 
29
1 -0.36
10 0.05
12 -0.15
13 -0.15
14 -0.15
15 -0.15
16 -0.15
17 -0.15
18 0.08
19 0.16
2 0.03
20 0.16
21 0.28
24 0.27
28 0.15
29 0.15
3 -0.57
30 0.15
31 0.15
32 0.15
33 0.15
34 0.15
35 0.15
4 -0.62
5 -0.33
6 0.17
7 0.13
8 0.18
9 0.05

>  <PUBCHEM_EFFECTIVE_ROTOR_COUNT>  (1) 
4

>  <PUBCHEM_PHARMACOPHORE_FEATURES>  (1) 
8
1 1 acceptor
1 11 hydrophobe
1 2 donor
1 4 acceptor
3 2 3 7 cation
5 2 3 5 6 7 rings
6 4 10 14 15 19 20 rings
6 9 12 13 16 17 18 rings

>  <PUBCHEM_HEAVY_ATOM_COUNT>  (1) 
21

>  <PUBCHEM_ATOM_DEF_STEREO_COUNT>  (1) 
0

>  <PUBCHEM_ATOM_UDEF_STEREO_COUNT>  (1) 
0

>  <PUBCHEM_BOND_DEF_STEREO_COUNT>  (1) 
0

>  <PUBCHEM_BOND_UDEF_STEREO_COUNT>  (1) 
0

>  <PUBCHEM_ISOTOPIC_ATOM_COUNT>  (1) 
0

>  <PUBCHEM_COMPONENT_COUNT>  (1) 
1

>  <PUBCHEM_CACTVS_TAUTO_COUNT>  (1) 
3

>  <PUBCHEM_CONFORMER_ID>  (1) 
0000142A00000001

>  <PUBCHEM_MMFF94_ENERGY>  (1) 
56.2754

>  <PUBCHEM_FEATURE_SELFOVERLAP>  (1) 
40.596

>  <PUBCHEM_SHAPE_FINGERPRINT>  (1) 
10 15 11671778282441277142
11045515 52 18113334254294512725
11101153 10 18335429018925947428
11315181 36 17967536770567539786
11545043 162 18060132095071899592
11578080 2 17345450722603125233
12107183 9 17614559242489646522
12166972 35 17748830751848749836
12236239 1 18273498991724757514
12553582 1 18271798077422860343
12760667 363 18413108372781761291
12788726 201 18410003313279615307
12916754 54 18333734619698482668
13073987 5 18411135815115492464
13288520 33 18341896294521630015
13533116 47 18411138078357496512
13544653 18 18410294756864733469
13583140 156 17202750506806606388
13862211 1 18272087235832540479
14251740 79 17748830734827350667
14508225 48 18336256916800682509
15196674 1 18410295779515518160
16087824 20 18267021658249577661
16752209 62 18340192021338821819
17492 89 18340207371610700438
17844677 252 18411986858194802876
1813 80 18129678511773552389
18222031 100 17846209020906482111
18927931 339 18342183249713145367
193927 3 18411430505052711454
19784866 140 18334853943994220227
200 152 18410291427842988390
20101258 96 18336274487279866177
21236236 1 18341051831000310377
21267235 1 18411708686095409102
21426921 1 18340206289210123177
21709351 56 18334577898241410676
21756936 100 13551467013295093885
22950370 63 18269559493429188719
23175994 123 18262236746325700293
23402539 116 18411138030332088941
23522609 53 17984172432340001929
23557571 272 18272654506670676548
23559900 14 18187924053179788992
25147074 1 18339096937691134576
2871803 45 18261108590938619626
3004659 81 18113612417233934402
312423 11 18337686273010033444
351380 3 18272931652098884847
4214541 1 18337955589002835824
465052 167 18201163277106327991
5104073 3 18342173324660916344
5283173 99 18040704849722113885
542803 24 13045936919566385174
559249 180 18265610992544407970
59755656 520 16226057647657522209
7495541 125 17632854248608865896
7970288 3 18270677687922856583
9709674 26 18338807723415205258

>  <PUBCHEM_SHAPE_MULTIPOLES>  (1) 
411.36
13.52
2.54
0.95
12.91
2.01
-0.08
-8.47
-1.43
-2.61
0.15
-1.11
-0.14
-0.32

>  <PUBCHEM_SHAPE_SELFOVERLAP>  (1) 
897.779

>  <PUBCHEM_SHAPE_VOLUME>  (1) 
226

>  <PUBCHEM_COORDINATE_TYPE>  (1) 
2
5
10

$$$$
