5166
     RDKit          3D

 27 30  0  0  0  0  0  0  0  0999 V2000
   -6.5088    0.5076    0.1078 F   0  0  0  0  0  0  0  0  0  0  0  0
    6.6944    0.2668    0.1134 O   0  0  0  0  0  0  0  0  0  0  0  0
   -0.2160   -3.9776   -0.9751 O   0  0  0  0  0  0  0  0  0  0  0  0
    1.1166    1.2400   -0.1800 N   0  0  0  0  0  0  0  0  0  0  0  0
   -0.5112    2.6641   -0.6660 N   0  0  0  0  0  0  0  0  0  0  0  0
   -0.1316   -1.7253   -0.4453 N   0  0  0  0  0  0  0  0  0  0  0  0
   -0.2137   -3.4151    1.2708 N   0  0  0  0  0  0  0  0  0  0  0  0
    2.4849    0.7337   -0.0112 C   0  0  0  0  0  0  0  0  0  0  0  0
    3.2537    0.6778   -1.3422 C   0  0  0  0  0  0  0  0  0  0  0  0
    3.2654    1.5100    1.0629 C   0  0  0  0  0  0  0  0  0  0  0  0
    4.6605    0.1197   -1.1452 C   0  0  0  0  0  0  0  0  0  0  0  0
    4.6728    0.9467    1.2410 C   0  0  0  0  0  0  0  0  0  0  0  0
    5.4337    0.8982   -0.0832 C   0  0  0  0  0  0  0  0  0  0  0  0
   -0.0456    0.5673    0.0577 C   0  0  0  0  0  0  0  0  0  0  0  0
    0.7911    2.4929   -0.6120 C   0  0  0  0  0  0  0  0  0  0  0  0
   -1.0386    1.4676   -0.2492 C   0  0  0  0  0  0  0  0  0  0  0  0
   -0.1033   -0.7969    0.5297 C   0  0  0  0  0  0  0  0  0  0  0  0
   -2.4463    1.2205   -0.1574 C   0  0  0  0  0  0  0  0  0  0  0  0
   -0.1270   -1.0870    1.8755 C   0  0  0  0  0  0  0  0  0  0  0  0
   -3.1302    1.4944    1.0292 C   0  0  0  0  0  0  0  0  0  0  0  0
   -3.1406    0.7047   -1.2539 C   0  0  0  0  0  0  0  0  0  0  0  0
   -0.1828   -2.4291    2.1913 C   0  0  0  0  0  0  0  0  0  0  0  0
   -0.1861   -2.9985   -0.0094 C   0  0  0  0  0  0  0  0  0  0  0  0
   -4.5012    1.2537    1.1188 C   0  0  0  0  0  0  0  0  0  0  0  0
   -4.5117    0.4640   -1.1644 C   0  0  0  0  0  0  0  0  0  0  0  0
   -5.1919    0.7385    0.0219 C   0  0  0  0  0  0  0  0  0  0  0  0
   -0.1868   -3.5386   -2.3254 C   0  0  0  0  0  0  0  0  0  0  0  0
  1 26  1  0
  2 13  1  0
  3 23  1  0
  3 27  1  0
  4  8  1  0
  4 14  1  0
  4 15  1  0
  5 15  2  0
  5 16  1  0
  6 17  2  0
  6 23  1  0
  7 22  1  0
  7 23  2  0
  8  9  1  0
  8 10  1  0
  9 11  1  0
 10 12  1  0
 11 13  1  0
 12 13  1  0
 14 16  2  0
 14 17  1  0
 16 18  1  0
 17 19  1  0
 18 20  2  0
 18 21  1  0
 19 22  2  0
 20 24  1  0
 21 25  2  0
 24 26  2  0
 25 26  1  0
M  END
>  <PUBCHEM_COMPOUND_CID>  (1) 
5166

>  <PUBCHEM_CONFORMER_RMSD>  (1) 
0.8

>  <PUBCHEM_CONFORMER_DIVERSEORDER>  (1) 
2
14
7
13
15
18
17
8
3
9
10
4
16
19
12
6
5
11
1

>  <PUBCHEM_MMFF94_PARTIAL_CHARGES>  (1) 
31
1 -0.19
13 0.28
14 -0.2
15 0.04
16 0.17
17 0.36
18 0.05
19 -0.15
2 -0.68
20 -0.15
21 -0.15
22 0.16
23 0.7
24 -0.15
25 -0.15
26 0.19
27 0.28
3 -0.36
38 0.15
39 0.4
4 0.05
40 0.15
41 0.15
42 0.15
43 0.15
44 0.15
45 0.15
5 -0.57
6 -0.62
7 -0.62
8 0.26

>  <PUBCHEM_EFFECTIVE_ROTOR_COUNT>  (1) 
5.2

>  <PUBCHEM_PHARMACOPHORE_FEATURES>  (1) 
9
1 2 acceptor
1 2 donor
1 6 acceptor
3 4 5 15 cation
3 6 7 23 cation
5 4 5 14 15 16 rings
6 18 20 21 24 25 26 rings
6 6 7 17 19 22 23 rings
6 8 9 10 11 12 13 rings

>  <PUBCHEM_HEAVY_ATOM_COUNT>  (1) 
27

>  <PUBCHEM_ATOM_DEF_STEREO_COUNT>  (1) 
0

>  <PUBCHEM_ATOM_UDEF_STEREO_COUNT>  (1) 
0

>  <PUBCHEM_BOND_DEF_STEREO_COUNT>  (1) 
0

>  <PUBCHEM_BOND_UDEF_STEREO_COUNT>  (1) 
0

>  <PUBCHEM_ISOTOPIC_ATOM_COUNT>  (1) 
0

>  <PUBCHEM_COMPONENT_COUNT>  (1) 
1

>  <PUBCHEM_CACTVS_TAUTO_COUNT>  (1) 
1

>  <PUBCHEM_CONFORMER_ID>  (1) 
0000142E00000002

>  <PUBCHEM_MMFF94_ENERGY>  (1) 
64.7539

>  <PUBCHEM_FEATURE_SELFOVERLAP>  (1) 
45.672

>  <PUBCHEM_SHAPE_FINGERPRINT>  (1) 
10764073 3 14492129949337323763
10906281 52 18270418173435443396
1100329 8 18262518224822424985
11421498 54 17917438571278242449
11488393 25 18122623847105633203
11578080 2 17270036469134812064
12035758 1 18335999647763292880
12597179 24 18409739451595006982
12788726 201 17761490691718368103
13083527 12 17753592569284031323
13692114 37 18341335612865348979
13911987 19 17967541181056413453
14674994 50 16844168050913702878
15131766 46 15142394527272296582
15209289 33 18342459248691391113
15849732 13 17240483611478958732
17980427 23 14273742828731652975
19319366 153 17458058279676929552
20028762 73 18269842068070845959
20197701 30 18410852174699817665
20567600 347 18337115570550848735
20602899 9 17918279765881433146
20642791 13 17835502092618340952
20771845 140 17988070111482968743
21344244 181 18130801043904120726
21781051 124 17896342309667729827
22224240 67 18408041823433188825
229495 10 14708023558719065696
22956985 138 17607518029707330506
23419403 2 17619120145297061923
23558518 356 17831571351144000965
23559900 14 18336831991937273604
23569943 247 17912660016086986654
23598288 3 17898869095258361374
283562 15 18336829667394966128
3178227 256 18187939395325521857
3383291 50 18263639564281465698
38695281 34 18342454812190089119
404807 14 15692413935560419574
5080951 261 18051377895287232038
59025328 239 16404203046772395806
59755656 215 18410292467710773845
59755656 520 18413102874790833038
6138700 20 18262802861327153310
6669772 16 18335139748488583586
7495541 125 13686002251021504973
81228 2 17902501924103739505

>  <PUBCHEM_SHAPE_MULTIPOLES>  (1) 
516.71
10.8
3.72
1.71
2.96
5.1
-0.12
-7.02
0.16
-0.61
0.68
-0.01
1.25
0.02

>  <PUBCHEM_SHAPE_SELFOVERLAP>  (1) 
1126.055

>  <PUBCHEM_SHAPE_VOLUME>  (1) 
283.3

>  <PUBCHEM_COORDINATE_TYPE>  (1) 
2
5
10

$$$$
