5173
     RDKit          3D

 14 13  0  0  0  0  0  0  0  0999 V2000
    3.5096   -0.1473    1.4331 O   0  0  0  0  0  0  0  0  0  0  0  0
   -3.5167   -0.1408   -1.4347 O   0  0  0  0  0  0  0  0  0  0  0  0
    4.4752   -2.2200   -0.0033 O   0  0  0  0  0  0  0  0  0  0  0  0
   -4.4865   -2.2157    0.0015 O   0  0  0  0  0  0  0  0  0  0  0  0
    4.0690   -1.0319   -0.6253 N   0  0  0  0  0  0  0  0  0  0  0  0
   -4.0657   -1.0326    0.6236 N   0  0  0  0  0  0  0  0  0  0  0  0
    0.7337    1.1212    0.2247 C   0  0  0  0  0  0  0  0  0  0  0  0
   -0.7298    1.1218   -0.2227 C   0  0  0  0  0  0  0  0  0  0  0  0
    1.6816    1.1454   -0.9784 C   0  0  0  0  0  0  0  0  0  0  0  0
   -1.6778    1.1434    0.9803 C   0  0  0  0  0  0  0  0  0  0  0  0
    3.1508    1.1791   -0.5606 C   0  0  0  0  0  0  0  0  0  0  0  0
   -3.1470    1.1781    0.5624 C   0  0  0  0  0  0  0  0  0  0  0  0
    3.5958   -0.0506    0.2118 C   0  0  0  0  0  0  0  0  0  0  0  0
   -3.5922   -0.0500   -0.2123 C   0  0  0  0  0  0  0  0  0  0  0  0
  1 13  2  0
  2 14  2  0
  3  5  1  0
  4  6  1  0
  5 13  1  0
  6 14  1  0
  7  8  1  0
  7  9  1  0
  8 10  1  0
  9 11  1  0
 10 12  1  0
 11 13  1  0
 12 14  1  0
M  END
>  <PUBCHEM_COMPOUND_CID>  (1) 
5173

>  <PUBCHEM_CONFORMER_RMSD>  (1) 
0.8

>  <PUBCHEM_CONFORMER_DIVERSEORDER>  (1) 
3
95
1
53
70
50
36
63
94
8
88
37
62
57
65
10
66
4
45
56
93
42
91
14
15
81
86
92
29
17
52
21
98
22
68
61
32
89
5
72
6
60
96
25
27
35
55
18
67
85
38
79
31
43
11
39
76
20
48
2
99
40
80
47
12
84
7
78
74
69
82
41
19
90
97
9
13
54
46
30
24
64
51
77
87
26
33
59
100
16
58
101
28
23
34
83
73
44
71
49
75

>  <PUBCHEM_MMFF94_PARTIAL_CHARGES>  (1) 
14
1 -0.57
11 0.06
12 0.06
13 0.57
14 0.57
2 -0.57
27 0.37
28 0.37
29 0.4
3 -0.44
30 0.4
4 -0.44
5 -0.39
6 -0.39

>  <PUBCHEM_EFFECTIVE_ROTOR_COUNT>  (1) 
9

>  <PUBCHEM_PHARMACOPHORE_FEATURES>  (1) 
6
1 1 acceptor
1 2 acceptor
1 5 donor
1 6 donor
3 7 9 11 hydrophobe
3 8 10 12 hydrophobe

>  <PUBCHEM_HEAVY_ATOM_COUNT>  (1) 
14

>  <PUBCHEM_ATOM_DEF_STEREO_COUNT>  (1) 
0

>  <PUBCHEM_ATOM_UDEF_STEREO_COUNT>  (1) 
0

>  <PUBCHEM_BOND_DEF_STEREO_COUNT>  (1) 
0

>  <PUBCHEM_BOND_UDEF_STEREO_COUNT>  (1) 
0

>  <PUBCHEM_ISOTOPIC_ATOM_COUNT>  (1) 
0

>  <PUBCHEM_COMPONENT_COUNT>  (1) 
1

>  <PUBCHEM_CACTVS_TAUTO_COUNT>  (1) 
6

>  <PUBCHEM_CONFORMER_ID>  (1) 
0000143500000003

>  <PUBCHEM_MMFF94_ENERGY>  (1) 
16.3354

>  <PUBCHEM_FEATURE_SELFOVERLAP>  (1) 
30.446

>  <PUBCHEM_SHAPE_FINGERPRINT>  (1) 
10498660 4 11458422448848641703
11159736 12 18410854360616637954
11987891 38 18335142011466187565
12410352 35 18335976514974653058
13167823 11 18410859858174835300
13255334 9 18410017636747945278
1420 369 18341617035558308927
14251710 61 18410577283686431906
15239191 94 18411422812428557120
177051 138 18411984650296743648
17834072 32 8502386528916759655
17834072 33 18409738378543915948
18186145 218 16805332088707690056
18915474 69 18335424581743902816
20279233 1 16298389093289923392
20281475 54 18410580582226908293
20645477 70 17967819357756332596
20671657 53 18337114561418475133
21652331 79 9583518711548201143
22485316 2 18410856559640315744
22646028 28 18410858762958116357
22959321 4 18341053020532340377
22959321 60 12031788080293951245
22959321 94 17917151709990243597
23403322 49 18410576210535393139
23503953 91 15195291971054052569
23503958 8 18129666288006107498
27216 239 10447933875933539511
573450 72 18343023263907296465
58051976 100 18261954051098632645

>  <PUBCHEM_SHAPE_MULTIPOLES>  (1) 
254.67
10.58
1.89
1.08
0.03
1.1
0
6.47
-0.01
0
0
0
-0.13
-0.45

>  <PUBCHEM_SHAPE_SELFOVERLAP>  (1) 
476.426

>  <PUBCHEM_SHAPE_VOLUME>  (1) 
157.8

>  <PUBCHEM_COORDINATE_TYPE>  (1) 
2
5
10

$$$$
