5179
     RDKit          3D

 42 46  0  0  1  0  0  0  0  0999 V2000
   -0.9291    4.0611    1.8303 S   0  0  0  0  0  0  0  0  0  0  0  0
    1.8224    2.8013    1.4750 S   0  0  0  0  0  0  0  0  0  0  0  0
   -3.4017   -0.5480    0.9503 O   0  0  0  0  0  0  0  0  0  0  0  0
   -1.8559    1.2446    1.2458 O   0  0  0  0  0  0  0  0  0  0  0  0
   -9.3480   -0.7770   -2.9913 O   0  0  0  0  0  0  0  0  0  0  0  0
    4.1523   -3.5298   -1.2632 O   0  0  0  0  0  0  0  0  0  0  0  0
    7.3650    0.3894    0.9722 O   0  0  0  0  0  0  0  0  0  0  0  0
    7.4487    2.2499   -0.9905 O   0  0  0  0  0  0  0  0  0  0  0  0
    3.4226   -3.0531    0.8897 N   0  0  0  0  0  0  0  0  0  0  0  0
    0.1615    3.1706   -0.4633 N   0  0  0  0  0  0  0  0  0  0  0  0
    7.6890    0.8962   -1.2599 N   0  0  0  0  0  0  0  0  0  0  0  0
   -4.1427    1.7413    0.6449 C   0  0  0  0  0  0  0  0  0  0  0  0
   -4.5300    0.3239    1.0854 C   0  0  0  0  0  0  0  0  0  0  0  0
   -2.9035    2.2035    1.4150 C   0  0  0  0  0  0  0  0  0  0  0  0
   -2.2702   -0.0560    1.6754 C   0  0  0  0  0  0  0  0  0  0  0  0
   -5.6796   -0.2200    0.2678 C   0  0  0  0  0  0  0  0  0  0  0  0
   -2.4009    3.5467    0.9073 C   0  0  0  0  0  0  0  0  0  0  0  0
   -1.1220   -1.0082    1.4492 C   0  0  0  0  0  0  0  0  0  0  0  0
   -5.4266   -0.9131   -0.9159 C   0  0  0  0  0  0  0  0  0  0  0  0
   -6.9930   -0.0285    0.6968 C   0  0  0  0  0  0  0  0  0  0  0  0
   -0.6330   -1.2168    0.1596 C   0  0  0  0  0  0  0  0  0  0  0  0
   -0.5497   -1.6803    2.5293 C   0  0  0  0  0  0  0  0  0  0  0  0
   -6.4869   -1.4149   -1.6706 C   0  0  0  0  0  0  0  0  0  0  0  0
   -8.0533   -0.5302   -0.0578 C   0  0  0  0  0  0  0  0  0  0  0  0
   -7.8003   -1.2234   -1.2415 C   0  0  0  0  0  0  0  0  0  0  0  0
    1.0007   -2.7691    1.0302 C   0  0  0  0  0  0  0  0  0  0  0  0
    0.4284   -2.0972   -0.0499 C   0  0  0  0  0  0  0  0  0  0  0  0
    0.5116   -2.5608    2.3198 C   0  0  0  0  0  0  0  0  0  0  0  0
    2.1423   -3.7177    0.8042 C   0  0  0  0  0  0  0  0  0  0  0  0
    0.3305    3.3318    0.8284 C   0  0  0  0  0  0  0  0  0  0  0  0
   -8.9338   -1.7590   -2.0493 C   0  0  0  0  0  0  0  0  0  0  0  0
    2.3156    2.3009   -0.0995 C   0  0  0  0  0  0  0  0  0  0  0  0
    1.2918    2.5804   -1.0097 C   0  0  0  0  0  0  0  0  0  0  0  0
    4.3269   -3.0157   -0.1617 C   0  0  0  0  0  0  0  0  0  0  0  0
    5.5728   -2.2233    0.1988 C   0  0  0  0  0  0  0  0  0  0  0  0
    6.6049   -2.1505   -0.9278 C   0  0  0  0  0  0  0  0  0  0  0  0
    7.8800   -1.3959   -0.5463 C   0  0  0  0  0  0  0  0  0  0  0  0
    3.5216    1.7038   -0.5004 C   0  0  0  0  0  0  0  0  0  0  0  0
    1.4844    2.2498   -2.3687 C   0  0  0  0  0  0  0  0  0  0  0  0
    3.6867    1.3867   -1.8510 C   0  0  0  0  0  0  0  0  0  0  0  0
    2.6826    1.6553   -2.7747 C   0  0  0  0  0  0  0  0  0  0  0  0
    7.6180    0.0512   -0.1822 C   0  0  0  0  0  0  0  0  0  0  0  0
  1 17  1  0
  1 30  1  0
  2 30  1  0
  2 32  1  0
  3 13  1  0
  3 15  1  0
  4 14  1  0
  4 15  1  0
  5 31  1  0
  6 34  2  0
  7 42  2  0
  8 11  1  0
  9 29  1  0
  9 34  1  0
 10 30  2  0
 10 33  1  0
 11 42  1  0
 12 13  1  0
 12 14  1  0
 13 16  1  0
 14 17  1  0
 15 18  1  0
 16 19  2  0
 16 20  1  0
 18 21  2  0
 18 22  1  0
 19 23  1  0
 20 24  2  0
 21 27  1  0
 22 28  2  0
 23 25  2  0
 24 25  1  0
 25 31  1  0
 26 27  2  0
 26 28  1  0
 26 29  1  0
 32 33  2  0
 32 38  1  0
 33 39  1  0
 34 35  1  0
 35 36  1  0
 36 37  1  0
 37 42  1  0
 38 40  2  0
 39 41  2  0
 40 41  1  0
M  END
>  <PUBCHEM_COMPOUND_CID>  (1) 
5179

>  <PUBCHEM_CONFORMER_RMSD>  (1) 
1.4

>  <PUBCHEM_CONFORMER_DIVERSEORDER>  (1) 
1
96
349
146
290
306
6
341
38
119
115
323
160
206
262
122
32
101
322
131
291
313
370
58
326
300
250
36
355
142
186
314
351
178
369
66
151
99
83
45
213
319
348
265
198
336
233
295
172
201
368
194
74
73
181
352
109
285
62
287
267
180
273
145
264
147
202
54
292
278
318
20
190
286
40
299
144
346
155
89
268
294
193
334
248
307
26
373
330
110
320
302
136
266
106
362
111
84
271
78
239
35
324
220
156
342
150
191
53
173
55
372
192
293
371
46
195
333
263
196
107
304
129
360
140
137
138
207
338
199
77
87
56
289
161
321
245
277
325
134
91
39
279
47
182
259
223
179
165
284
366
3
335
219
34
243
301
254
118
222
363
347
98
31
282
121
108
356
75
200
139
332
361
69
234
345
29
246
241
158
298
93
256
157
261
81
228
114
310
353
365
13
23
327
159
283
315
237
359
303
274
212
337
308
95
167
7
227
112
100
152
311
123
225
211
209
177
185
153
344
255
103
176
331
52
280
357
229
232
204
126
316
354
168
125
276
30
358
171
104
154
102
340
48
226
230
257
343
28
124
188
247
231
312
216
252
183
149
61
132
141
288
43
235
270
12
17
214
116
189
148
367
258
105
97
128
94
49
217
238
22
174
329
253
162
208
242
240
68
42
197
305
50
33
221
164
21
143
2
16
328
339
297
350
210
224
135
163
11
120
127
27
272
65
85
309
130
88
5
275
113
205
15
364
57
187
19
92
269
169
86
296
251
170
184
281
59
76
44
215
317
41
166
70
9
244
37
60
260
72
25
236
79
133
175
67
117
218
18
24
4
203
80
82
51
63
249
64
14
10
90
71
8

>  <PUBCHEM_MMFF94_PARTIAL_CHARGES>  (1) 
56
1 -0.29
10 -0.57
11 -0.39
13 0.42
14 0.28
15 0.7
16 -0.14
17 0.23
18 -0.14
19 -0.15
2 -0.08
20 -0.15
21 -0.15
22 -0.15
23 -0.15
24 -0.15
25 -0.14
26 -0.14
27 -0.15
28 -0.15
29 0.44
3 -0.56
30 0.43
31 0.42
32 0.04
33 0.23
34 0.57
35 0.06
37 0.06
38 -0.15
39 -0.15
4 -0.56
40 -0.15
41 -0.15
42 0.57
5 -0.68
50 0.15
51 0.15
52 0.15
53 0.15
54 0.15
55 0.15
56 0.15
57 0.15
6 -0.57
62 0.37
67 0.4
7 -0.57
70 0.15
71 0.15
72 0.15
73 0.15
74 0.37
75 0.4
8 -0.44
9 -0.73

>  <PUBCHEM_EFFECTIVE_ROTOR_COUNT>  (1) 
15.2

>  <PUBCHEM_PHARMACOPHORE_FEATURES>  (1) 
14
1 10 acceptor
1 11 donor
1 3 acceptor
1 4 acceptor
1 5 acceptor
1 5 donor
1 6 acceptor
1 7 acceptor
1 9 donor
5 2 10 30 32 33 rings
6 16 19 20 23 24 25 rings
6 18 21 22 26 27 28 rings
6 3 4 12 13 14 15 rings
6 32 33 38 39 40 41 rings

>  <PUBCHEM_HEAVY_ATOM_COUNT>  (1) 
42

>  <PUBCHEM_ATOM_DEF_STEREO_COUNT>  (1) 
0

>  <PUBCHEM_ATOM_UDEF_STEREO_COUNT>  (1) 
3

>  <PUBCHEM_BOND_DEF_STEREO_COUNT>  (1) 
0

>  <PUBCHEM_BOND_UDEF_STEREO_COUNT>  (1) 
0

>  <PUBCHEM_ISOTOPIC_ATOM_COUNT>  (1) 
0

>  <PUBCHEM_COMPONENT_COUNT>  (1) 
1

>  <PUBCHEM_CACTVS_TAUTO_COUNT>  (1) 
6

>  <PUBCHEM_CONFORMER_ID>  (1) 
0000143B00000001

>  <PUBCHEM_MMFF94_ENERGY>  (1) 
86.1143

>  <PUBCHEM_FEATURE_SELFOVERLAP>  (1) 
71.157

>  <PUBCHEM_SHAPE_FINGERPRINT>  (1) 
10674148 151 11891341959058830350
10677394 325 18411138082067369687
11513181 2 17983309131476652478
12402354 99 18339912814954196207
12758862 65 17274826903873674920
131258 43 18060410305815696465
14068700 675 18341611464816817481
14394314 77 18267880380144611392
15351339 4 18335703806543022440
15781502 685 18335434473170384164
16664035 1 18337400434479237489
208703 8 18202559562758616351
21344244 246 18339640139816802787
45266715 3 18267866262280588508
6004065 56 18411984689178250818
6700243 42 17343519816406040399
9961470 85 18192998342855962568

>  <PUBCHEM_SHAPE_MULTIPOLES>  (1) 
821.88
23.18
5.13
2.4
15.17
1.43
0.77
-13.11
15.76
-4.67
-1.32
1.91
0.18
-3.64

>  <PUBCHEM_SHAPE_SELFOVERLAP>  (1) 
1731.102

>  <PUBCHEM_SHAPE_VOLUME>  (1) 
460.7

>  <PUBCHEM_COORDINATE_TYPE>  (1) 
2
5
10

$$$$
