5184
     RDKit          3D

 22 25  0  0  1  0  0  0  0  0999 V2000
    4.9965   -1.7255   -0.3653 O   0  0  0  0  0  0  0  0  0  0  0  0
    0.1202    0.4643    0.8353 O   0  0  0  0  0  0  0  0  0  0  0  0
   -0.8843   -0.6087   -0.9376 O   0  0  0  0  0  0  0  0  0  0  0  0
   -1.0204    3.0014    0.0950 O   0  0  0  0  0  0  0  0  0  0  0  0
    3.9394    0.7976   -0.1592 N   0  0  0  0  0  0  0  0  0  0  0  0
    4.0204   -1.4396    0.6412 C   0  0  0  0  0  0  0  0  0  0  0  0
    3.6548   -1.4755   -0.7949 C   0  0  0  0  0  0  0  0  0  0  0  0
    3.8562   -0.0058    1.0821 C   0  0  0  0  0  0  0  0  0  0  0  0
    3.2828   -0.0620   -1.1707 C   0  0  0  0  0  0  0  0  0  0  0  0
    2.4132    0.2307    1.5777 C   0  0  0  0  0  0  0  0  0  0  0  0
    1.7758    0.1681   -0.9271 C   0  0  0  0  0  0  0  0  0  0  0  0
    1.3551   -0.1700    0.5232 C   0  0  0  0  0  0  0  0  0  0  0  0
    5.2885    1.2163   -0.5132 C   0  0  0  0  0  0  0  0  0  0  0  0
   -0.9354    0.1560    0.0173 C   0  0  0  0  0  0  0  0  0  0  0  0
   -2.1804    0.9126    0.4712 C   0  0  0  0  0  0  0  0  0  0  0  0
   -2.2252    2.2973   -0.1908 C   0  0  0  0  0  0  0  0  0  0  0  0
   -3.4404    0.1035    0.2074 C   0  0  0  0  0  0  0  0  0  0  0  0
   -4.0877    0.2500   -1.0033 C   0  0  0  0  0  0  0  0  0  0  0  0
   -3.9009   -0.7549    1.1859 C   0  0  0  0  0  0  0  0  0  0  0  0
   -5.2436   -0.4923   -1.2455 C   0  0  0  0  0  0  0  0  0  0  0  0
   -5.0567   -1.4974    0.9435 C   0  0  0  0  0  0  0  0  0  0  0  0
   -5.7279   -1.3660   -0.2722 C   0  0  0  0  0  0  0  0  0  0  0  0
  1  6  1  0
  1  7  1  0
  2 12  1  0
  2 14  1  0
  3 14  2  0
  4 16  1  0
  5  8  1  0
  5  9  1  0
  5 13  1  0
  6  7  1  0
  6  8  1  0
  7  9  1  0
  8 10  1  0
  9 11  1  0
 10 12  1  0
 11 12  1  0
 14 15  1  0
 15 16  1  0
 15 17  1  0
 17 18  2  0
 17 19  1  0
 18 20  1  0
 19 21  2  0
 20 22  2  0
 21 22  1  0
M  END
>  <PUBCHEM_COMPOUND_CID>  (1) 
5184

>  <PUBCHEM_CONFORMER_RMSD>  (1) 
0.8

>  <PUBCHEM_CONFORMER_DIVERSEORDER>  (1) 
1
43
139
71
42
122
153
102
18
138
84
156
24
36
17
28
131
59
145
62
130
47
88
154
132
163
147
69
121
179
161
165
5
146
141
167
162
144
158
89
173
51
73
93
177
109
44
166
76
159
53
98
50
68
120
61
157
129
77
119
48
133
143
12
82
142
108
11
7
74
30
124
75
169
2
96
180
95
117
8
63
112
116
136
31
168
26
128
57
35
21
13
60
34
27
106
81
92
37
178
80
52
174
101
29
79
87
148
40
65
58
100
176
150
94
9
45
14
55
97
70
46
135
125
104
151
86
25
66
152
107
115
164
72
64
105
113
127
83
39
175
149
33
103
90
91
3
20
114
49
56
160
23
85
126
32
6
155
170
54
137
99
171
123
19
22
16
172
38
111
110
140
78
67
118
10
15
4
134
41

>  <PUBCHEM_MMFF94_PARTIAL_CHARGES>  (1) 
28
1 -0.3
12 0.28
13 0.27
14 0.66
15 0.2
16 0.28
17 -0.14
18 -0.15
19 -0.15
2 -0.43
20 -0.15
21 -0.15
22 -0.15
23 0.1
24 0.1
3 -0.57
38 0.15
39 0.15
4 -0.68
40 0.4
41 0.15
42 0.15
43 0.15
5 -0.81
6 -0.05
7 -0.05
8 0.37
9 0.37

>  <PUBCHEM_EFFECTIVE_ROTOR_COUNT>  (1) 
6

>  <PUBCHEM_PHARMACOPHORE_FEATURES>  (1) 
8
1 1 acceptor
1 3 acceptor
1 4 acceptor
1 4 donor
1 5 cation
6 1 5 6 7 8 9 rings
6 17 18 19 20 21 22 rings
8 5 6 7 8 9 10 11 12 rings

>  <PUBCHEM_HEAVY_ATOM_COUNT>  (1) 
22

>  <PUBCHEM_ATOM_DEF_STEREO_COUNT>  (1) 
0

>  <PUBCHEM_ATOM_UDEF_STEREO_COUNT>  (1) 
5

>  <PUBCHEM_BOND_DEF_STEREO_COUNT>  (1) 
0

>  <PUBCHEM_BOND_UDEF_STEREO_COUNT>  (1) 
0

>  <PUBCHEM_ISOTOPIC_ATOM_COUNT>  (1) 
0

>  <PUBCHEM_COMPONENT_COUNT>  (1) 
1

>  <PUBCHEM_CACTVS_TAUTO_COUNT>  (1) 
1

>  <PUBCHEM_CONFORMER_ID>  (1) 
0000144000000001

>  <PUBCHEM_MMFF94_ENERGY>  (1) 
68.782

>  <PUBCHEM_FEATURE_SELFOVERLAP>  (1) 
44.098

>  <PUBCHEM_SHAPE_FINGERPRINT>  (1) 
10014705 185 7997964670405498211
10366900 7 18202003252297087658
11045515 52 17822009809446270653
11089746 13 13767923554901942492
11796584 16 17676483978079721283
12236239 1 17749103396166802034
12363563 72 18410862074931867569
12516196 113 18410572929264749169
12633257 1 16702297970749326487
128620 24 18334014994857194581
12916754 54 18340491071221721288
13533116 47 18335699429728858074
13544653 18 18131632292301388201
13583140 156 17845358960599475772
14251758 9 11959741446859679289
14341114 328 15123511445345911547
14528608 73 15791734121919450839
14849402 71 15266479860322390866
15183329 4 16298379155057133215
15375358 24 12179847186403092289
15788980 27 18201436952337681983
17349148 13 17967820418323162827
17492 89 18268150864373324918
17844677 252 18408889520600840365
17870717 6 17967251984303341435
1813 80 18131359634998297501
18222031 100 18271517693689375329
18785283 64 16844430799611248848
19489759 90 17095238129528191533
19862831 5 17240203222680411897
200 152 17967249806401046209
20645477 70 18411422783007676198
22646028 1 18131350795491034231
22950370 63 18342179981511934849
23402539 116 18409730634506572637
23402655 69 14634871941990046970
23522609 53 17415870060609403665
23557571 272 18270118998645103301
23559900 14 17895471539919854693
29717793 49 18187081732662247879
300161 21 16081359770090017883
3004659 81 17894346670267086610
312423 11 18338248089060426956
34797466 226 17894917364399717327
4340502 62 18341326778117276714
465052 167 18272375312522053719
495365 180 12685087103340949168
5104073 3 18200592497553756856
5283173 99 17968366867424014909
7495541 125 17918269853307533928
960060 61 15213020427620648698

>  <PUBCHEM_SHAPE_MULTIPOLES>  (1) 
424.29
13.45
1.88
1.27
3.6
0.95
-0.07
-5.13
1.58
0.27
-0.03
-0.01
-0.17
0.28

>  <PUBCHEM_SHAPE_SELFOVERLAP>  (1) 
916.463

>  <PUBCHEM_SHAPE_VOLUME>  (1) 
234.3

>  <PUBCHEM_COORDINATE_TYPE>  (1) 
2
5
10

$$$$
