5188
     RDKit          3D

 29 32  0  0  1  0  0  0  0  0999 V2000
    1.5314   -3.0323    0.3203 O   0  0  0  0  0  0  0  0  0  0  0  0
   -0.4713   -4.9866    0.1538 O   0  0  0  0  0  0  0  0  0  0  0  0
   -2.5367   -1.9925   -0.5679 N   0  0  0  0  0  0  0  0  0  0  0  0
   -4.2524    0.2457   -0.1142 N   0  0  0  0  0  0  0  0  0  0  0  0
   -5.1328    2.2882   -1.0087 N   0  0  0  0  0  0  0  0  0  0  0  0
    5.3504    1.1562    0.3843 C   0  0  0  0  0  0  0  0  0  0  0  0
    6.4048    0.9870   -0.7235 C   0  0  0  0  0  0  0  0  0  0  0  0
    4.6833    2.5405    0.3031 C   0  0  0  0  0  0  0  0  0  0  0  0
    7.4344    2.1154   -0.6914 C   0  0  0  0  0  0  0  0  0  0  0  0
    5.7200    3.6624    0.3308 C   0  0  0  0  0  0  0  0  0  0  0  0
    6.7692    3.4868   -0.7631 C   0  0  0  0  0  0  0  0  0  0  0  0
    4.3275    0.0350    0.3674 C   0  0  0  0  0  0  0  0  0  0  0  0
   -3.7688   -1.8312   -1.3498 C   0  0  0  0  0  0  0  0  0  0  0  0
   -2.7353   -1.4716    0.7900 C   0  0  0  0  0  0  0  0  0  0  0  0
   -4.1661   -0.3567   -1.4505 C   0  0  0  0  0  0  0  0  0  0  0  0
   -3.0994    0.0150    0.7614 C   0  0  0  0  0  0  0  0  0  0  0  0
   -2.1370   -3.3986   -0.5246 C   0  0  0  0  0  0  0  0  0  0  0  0
   -0.7996   -3.5948    0.1932 C   0  0  0  0  0  0  0  0  0  0  0  0
    3.5054   -0.1420   -0.7456 C   0  0  0  0  0  0  0  0  0  0  0  0
    4.2102   -0.8190    1.4639 C   0  0  0  0  0  0  0  0  0  0  0  0
    0.3466   -2.8069   -0.4375 C   0  0  0  0  0  0  0  0  0  0  0  0
   -5.0147    1.4097    0.0343 C   0  0  0  0  0  0  0  0  0  0  0  0
    2.4540   -2.0208    0.3348 C   0  0  0  0  0  0  0  0  0  0  0  0
    2.5658   -1.1728   -0.7617 C   0  0  0  0  0  0  0  0  0  0  0  0
    3.2706   -1.8499    1.4476 C   0  0  0  0  0  0  0  0  0  0  0  0
   -5.6436    1.6445    1.2649 C   0  0  0  0  0  0  0  0  0  0  0  0
   -6.4047    2.7968    1.4278 C   0  0  0  0  0  0  0  0  0  0  0  0
   -5.8807    3.3974   -0.8131 C   0  0  0  0  0  0  0  0  0  0  0  0
   -6.5305    3.6950    0.3739 C   0  0  0  0  0  0  0  0  0  0  0  0
  1 21  1  0
  1 23  1  0
  2 18  1  0
  3 13  1  0
  3 14  1  0
  3 17  1  0
  4 15  1  0
  4 16  1  0
  4 22  1  0
  5 22  2  0
  5 28  1  0
  6  7  1  0
  6  8  1  0
  6 12  1  0
  7  9  1  0
  8 10  1  0
  9 11  1  0
 10 11  1  0
 12 19  2  0
 12 20  1  0
 13 15  1  0
 14 16  1  0
 17 18  1  0
 18 21  1  0
 19 24  1  0
 20 25  2  0
 22 26  1  0
 23 24  2  0
 23 25  1  0
 26 27  2  0
 27 29  1  0
 28 29  2  0
M  END
>  <PUBCHEM_COMPOUND_CID>  (1) 
5188

>  <PUBCHEM_CONFORMER_RMSD>  (1) 
1

>  <PUBCHEM_CONFORMER_DIVERSEORDER>  (1) 
1
9
200
62
32
184
119
272
12
269
162
212
230
68
273
180
146
163
192
275
139
195
302
126
155
254
151
39
190
226
89
255
4
319
167
341
278
301
121
64
97
197
313
296
87
24
282
327
51
93
233
76
55
28
310
30
36
41
114
304
283
243
124
74
168
220
10
174
25
236
325
100
199
182
5
118
309
288
218
84
311
235
79
221
298
201
186
329
149
335
242
29
136
320
145
291
15
250
331
247
19
338
7
333
88
21
251
281
27
120
257
193
138
80
241
52
286
245
23
50
57
289
45
178
58
213
123
308
339
53
248
239
90
203
102
67
232
206
77
259
82
267
263
99
103
332
42
315
26
117
256
94
20
112
157
49
297
253
133
131
65
295
196
326
202
95
31
303
66
292
116
134
137
305
179
316
231
85
249
16
46
252
225
132
285
148
238
191
209
104
277
125
306
109
258
234
61
56
205
264
290
43
113
175
130
48
140
105
246
177
188
268
115
222
279
69
38
22
17
244
111
172
98
189
171
101
260
71
229
176
54
187
270
276
122
321
72
323
185
173
287
211
317
91
181
108
75
63
207
169
106
265
262
154
217
127
96
216
266
3
40
2
336
107
128
334
92
150
322
280
47
224
166
274
152
240
60
73
300
198
34
81
78
223
340
299
147
194
18
33
156
293
271
83
160
158
227
318
153
210
8
228
11
328
37
294
312
70
159
164
183
204
314
14
284
6
110
144
208
214
59
44
13
143
142
215
170
261
330
165
86
237
135
219
161
324
129
141
337
35
307

>  <PUBCHEM_MMFF94_PARTIAL_CHARGES>  (1) 
33
1 -0.36
12 -0.14
13 0.27
14 0.27
15 0.37
16 0.37
17 0.27
18 0.28
19 -0.15
2 -0.68
20 -0.15
21 0.28
22 0.41
23 0.08
24 -0.15
25 -0.15
26 -0.15
27 -0.15
28 0.16
29 -0.15
3 -0.81
4 -0.84
5 -0.62
52 0.15
53 0.15
56 0.15
57 0.15
58 0.4
59 0.15
6 0.14
60 0.15
61 0.15
62 0.15

>  <PUBCHEM_EFFECTIVE_ROTOR_COUNT>  (1) 
9.4

>  <PUBCHEM_PHARMACOPHORE_FEATURES>  (1) 
10
1 1 acceptor
1 2 acceptor
1 2 donor
1 3 cation
1 4 cation
1 5 acceptor
6 12 19 20 23 24 25 rings
6 3 4 13 14 15 16 rings
6 5 22 26 27 28 29 rings
6 6 7 8 9 10 11 rings

>  <PUBCHEM_HEAVY_ATOM_COUNT>  (1) 
29

>  <PUBCHEM_ATOM_DEF_STEREO_COUNT>  (1) 
0

>  <PUBCHEM_ATOM_UDEF_STEREO_COUNT>  (1) 
1

>  <PUBCHEM_BOND_DEF_STEREO_COUNT>  (1) 
0

>  <PUBCHEM_BOND_UDEF_STEREO_COUNT>  (1) 
0

>  <PUBCHEM_ISOTOPIC_ATOM_COUNT>  (1) 
0

>  <PUBCHEM_COMPONENT_COUNT>  (1) 
1

>  <PUBCHEM_CACTVS_TAUTO_COUNT>  (1) 
1

>  <PUBCHEM_CONFORMER_ID>  (1) 
0000144400000001

>  <PUBCHEM_MMFF94_ENERGY>  (1) 
83.6717

>  <PUBCHEM_FEATURE_SELFOVERLAP>  (1) 
50.753

>  <PUBCHEM_SHAPE_FINGERPRINT>  (1) 
100830 2 18189058753770449396
10675989 125 18195810665423422745
10864689 126 18410864226958903292
10917259 69 18410295818592489916
11088757 655 9439408987166449494
11135609 201 18409733980407825155
11374522 174 18336841800846220237
11477941 20 17409639291734829470
11505856 67 18340476876930418799
11761917 142 18124866022573056456
11828042 163 18341339877989004380
11828422 8 18270410390912830694
1200032 147 18261401018271794170
12013929 29 18339647845379457492
12107183 9 18262782009588830538
12895837 130 18335989769264690917
1361 87 12679165146714668693
13726171 33 18410863182563932417
13944108 23 18198063569286425912
14026016 13 18342181051238951641
14251764 75 18411139104390424241
14347329 18 18341607187641424418
14765038 42 18334860532437207220
15064981 113 17703503376794640414
15198563 99 17698993313125841367
15274700 21 18270967964125911635
15419008 42 17916603028715161638
15513586 35 16736658971911441844
155225 6 18339364059240446665
15803439 3 16630524037889955894
16728433 281 18267035028039554900
16992727 255 18411705426474103752
19053607 189 18343291557544557618
19302320 297 18264768748977537136
19309040 13 18130787832821757503
19438510 23 18187085070052238994
20691028 202 18410572903062733944
20775438 99 9292422960850092677
21774942 28 18270114738839236432
22033318 11 17968083241011736336
23516275 100 17118584313040228081
23522609 53 17605281882041063004
23569914 152 17700436697642055182
270888 7 18410857637813938827
2748736 6 18411689972405994249
2838139 119 18269272529732148230
3388396 114 17045974785549523332
3472631 163 18201435814651572207
4144715 1 18119256297358313338
4258327 124 18342451514277886077
437795 171 18116705223358741485
437795 70 14835839518301315099
5047190 36 18041008374613056084
5104073 3 17967524701504392474
5718773 13 9223228529297468692
57724786 102 18335696092529011778
5874358 3 13685473270412730892
5951187 136 18128826235073342070
6034566 193 18341615902225026259
6036956 94 17975416029395315221
6058803 2 18265589092180410986
6201320 77 12246246823398179245
636775 72 18124029303046335512
7970288 3 9151166558645525217
9849439 229 18408889512237863159

>  <PUBCHEM_SHAPE_MULTIPOLES>  (1) 
570.12
21.06
6.21
1.28
5.19
1.22
-0.09
-31.6
0.66
-2.58
0.05
-0.66
-0.08
-2.36

>  <PUBCHEM_SHAPE_SELFOVERLAP>  (1) 
1196.296

>  <PUBCHEM_SHAPE_VOLUME>  (1) 
318.3

>  <PUBCHEM_COORDINATE_TYPE>  (1) 
2
5
10

$$$$
