5189
     RDKit          3D

 26 29  0  0  0  0  0  0  0  0999 V2000
    4.7127    0.1919   -2.1833 S   0  0  0  0  0  0  0  0  0  0  0  0
   -3.4243    2.6433    0.5417 S   0  0  0  0  0  0  0  0  0  0  0  0
   -5.7778   -1.5418   -0.1755 O   0  0  0  0  0  0  0  0  0  0  0  0
   -7.2534    0.1612    0.2466 O   0  0  0  0  0  0  0  0  0  0  0  0
    1.4525    0.5892   -0.1334 N   0  0  0  0  0  0  0  0  0  0  0  0
   -1.4068    0.9256    0.0876 N   0  0  0  0  0  0  0  0  0  0  0  0
    3.4742   -0.3171    0.6049 N   0  0  0  0  0  0  0  0  0  0  0  0
   -3.6616    0.1175    0.0452 N   0  0  0  0  0  0  0  0  0  0  0  0
    0.8017    1.8363   -0.5260 C   0  0  0  0  0  0  0  0  0  0  0  0
    0.5987   -0.4812    0.3750 C   0  0  0  0  0  0  0  0  0  0  0  0
   -0.4872    2.0543    0.2660 C   0  0  0  0  0  0  0  0  0  0  0  0
   -0.8106   -0.3814   -0.2082 C   0  0  0  0  0  0  0  0  0  0  0  0
    2.8135    0.4294   -0.2372 C   0  0  0  0  0  0  0  0  0  0  0  0
   -2.7733    1.0864    0.1930 C   0  0  0  0  0  0  0  0  0  0  0  0
    3.4837    1.2120   -1.3479 C   0  0  0  0  0  0  0  0  0  0  0  0
    4.8652   -0.5014    0.4873 C   0  0  0  0  0  0  0  0  0  0  0  0
    5.5674   -0.3508   -0.7192 C   0  0  0  0  0  0  0  0  0  0  0  0
   -4.9324    0.6309    0.2168 C   0  0  0  0  0  0  0  0  0  0  0  0
   -5.0051    1.9803    0.4927 C   0  0  0  0  0  0  0  0  0  0  0  0
    5.5667   -0.9242    1.6248 C   0  0  0  0  0  0  0  0  0  0  0  0
    6.9389   -0.6261   -0.7799 C   0  0  0  0  0  0  0  0  0  0  0  0
    6.9360   -1.1862    1.5659 C   0  0  0  0  0  0  0  0  0  0  0  0
    7.6210   -1.0396    0.3632 C   0  0  0  0  0  0  0  0  0  0  0  0
   -6.0801   -0.2245    0.1059 C   0  0  0  0  0  0  0  0  0  0  0  0
   -6.8774   -2.4509   -0.2995 C   0  0  0  0  0  0  0  0  0  0  0  0
   -6.3421   -3.8333   -0.6065 C   0  0  0  0  0  0  0  0  0  0  0  0
  1 15  1  0
  1 17  1  0
  2 14  1  0
  2 19  1  0
  3 24  1  0
  3 25  1  0
  4 24  2  0
  5  9  1  0
  5 10  1  0
  5 13  1  0
  6 11  1  0
  6 12  1  0
  6 14  1  0
  7 13  2  0
  7 16  1  0
  8 14  2  0
  8 18  1  0
  9 11  1  0
 10 12  1  0
 13 15  1  0
 16 17  2  0
 16 20  1  0
 17 21  1  0
 18 19  2  0
 18 24  1  0
 20 22  2  0
 21 23  2  0
 22 23  1  0
 25 26  1  0
M  END
>  <PUBCHEM_COMPOUND_CID>  (1) 
5189

>  <PUBCHEM_CONFORMER_RMSD>  (1) 
0.8

>  <PUBCHEM_CONFORMER_DIVERSEORDER>  (1) 
1
71
53
77
90
58
36
69
72
83
64
84
96
54
27
73
25
75
29
34
57
79
40
9
30
82
55
10
39
3
61
19
26
45
85
2
80
51
35
88
63
70
62
87
47
43
49
12
22
56
42
23
5
60
91
11
66
28
16
13
76
37
94
74
50
31
17
101
89
32
14
44
7
6
18
8
59
48
4
98
24
65
99
33
97
93
67
41
81
46
92
78
100
95
86
15
20
38
68
21
52

>  <PUBCHEM_MMFF94_PARTIAL_CHARGES>  (1) 
30
1 -0.33
10 0.37
11 0.37
12 0.37
13 0.44
14 0.46
15 0.29
16 0.18
17 0.1
18 0.14
19 -0.11
2 -0.08
20 -0.15
21 -0.15
22 -0.15
23 -0.15
24 0.81
25 0.28
3 -0.43
37 0.15
38 0.15
39 0.15
4 -0.57
40 0.15
41 0.15
5 -0.79
6 -0.82
7 -0.63
8 -0.57
9 0.37

>  <PUBCHEM_EFFECTIVE_ROTOR_COUNT>  (1) 
6.6

>  <PUBCHEM_PHARMACOPHORE_FEATURES>  (1) 
7
1 4 acceptor
3 5 7 13 cation
3 6 8 14 cation
5 2 8 14 18 19 rings
6 1 7 13 15 16 17 rings
6 16 17 20 21 22 23 rings
6 5 6 9 10 11 12 rings

>  <PUBCHEM_HEAVY_ATOM_COUNT>  (1) 
26

>  <PUBCHEM_ATOM_DEF_STEREO_COUNT>  (1) 
0

>  <PUBCHEM_ATOM_UDEF_STEREO_COUNT>  (1) 
0

>  <PUBCHEM_BOND_DEF_STEREO_COUNT>  (1) 
0

>  <PUBCHEM_BOND_UDEF_STEREO_COUNT>  (1) 
0

>  <PUBCHEM_ISOTOPIC_ATOM_COUNT>  (1) 
0

>  <PUBCHEM_COMPONENT_COUNT>  (1) 
1

>  <PUBCHEM_CACTVS_TAUTO_COUNT>  (1) 
1

>  <PUBCHEM_CONFORMER_ID>  (1) 
0000144500000001

>  <PUBCHEM_MMFF94_ENERGY>  (1) 
67.601

>  <PUBCHEM_FEATURE_SELFOVERLAP>  (1) 
35.544

>  <PUBCHEM_SHAPE_FINGERPRINT>  (1) 
10 15 17560793338835073216
10299344 5 18113622261314547808
106641 1 18342451544432230720
11135926 11 18409162183206856815
11315181 36 18409168797045081417
11524674 6 16917065564545380623
11646440 116 16559030489306607800
11761917 87 15482130275607276918
11963148 33 18410568466399246174
12166972 35 18040719177364144508
12236239 1 18113623340105979316
12730499 353 16558468600769277710
13533116 47 17603866642803105392
13782708 43 17989204867226974539
13862211 1 18334858315933375657
13878862 14 15936695973399615654
14068700 675 18409731777052912453
14251764 18 18186805768819505364
14344974 204 17844804979061119599
15183329 4 17385726885204131568
15419008 47 17346311562455267968
15461852 350 18413114957277576702
1577012 14 18186812361167400956
20028762 73 18410293601508552934
21054139 6 18261111867777347843
21130935 74 18270961229390253106
21150785 3 18113905965970213340
21267235 1 18410299107682616993
21315759 40 18113902654080812798
21814621 53 16629415648406184353
22002106 203 17701809111524324703
221357 26 15646773371527592196
22224240 67 15985097500923557292
22956985 138 17833271922630224070
2303208 19 17275113803309730013
23081809 10 17967543354204304660
23522609 53 17971786348143903900
23559900 14 15357993269284391260
23569914 152 13772091691924962347
23569943 247 17835810699363358002
249057 25 18114755866546376252
3004659 81 17966971621469803424
3383291 50 18342455980358883567
3418910 222 17632302306599551248
34797466 226 17918278650176399300
3504750 166 18045212748311014904
397830 11 17488730306841093162
4015057 19 17095819792333212485
406291 66 18268427022682098959
4340502 62 16128372658522289132
5104073 3 17988368182461179857
5718773 13 18341327907546144695
58902169 19 17676492761155563959
59682541 35 17774995804907422162
59682541 52 14345783930079385616
5969126 39 17168137910697348477
96874 4 18260542329407462866
9953998 17 17632296766422989051
9962374 69 17894907400930548882

>  <PUBCHEM_SHAPE_MULTIPOLES>  (1) 
511.1
23.44
2.66
1.25
1.55
1.43
-0.24
15.41
1.55
7.1
-0.16
-2.76
0.11
-2.58

>  <PUBCHEM_SHAPE_SELFOVERLAP>  (1) 
1068.218

>  <PUBCHEM_SHAPE_VOLUME>  (1) 
290.8

>  <PUBCHEM_COORDINATE_TYPE>  (1) 
2
5
10

$$$$
