5190
     RDKit          3D

 35 39  0  0  1  0  0  0  0  0999 V2000
    3.2376   -3.6427   -2.5777 O   0  0  0  0  0  0  0  0  0  0  0  0
    4.0544   -1.9312   -0.5443 O   0  0  0  0  0  0  0  0  0  0  0  0
   -2.0018   -0.4728   -0.4655 N   0  0  0  0  0  0  0  0  0  0  0  0
    0.6388   -1.3676   -1.2307 N   0  0  0  0  0  0  0  0  0  0  0  0
    4.3411    2.3993    1.1317 N   0  0  0  0  0  0  0  0  0  0  0  0
    3.2477    4.6638   -1.3683 N   0  0  0  0  0  0  0  0  0  0  0  0
   -1.4400   -1.7245    0.0568 C   0  0  0  0  0  0  0  0  0  0  0  0
   -0.9296    0.4845   -0.7640 C   0  0  0  0  0  0  0  0  0  0  0  0
   -0.4337   -2.3244   -0.9313 C   0  0  0  0  0  0  0  0  0  0  0  0
    0.0777   -0.1148   -1.7513 C   0  0  0  0  0  0  0  0  0  0  0  0
   -2.9607    0.0991    0.4775 C   0  0  0  0  0  0  0  0  0  0  0  0
    1.5962   -1.9398   -2.1752 C   0  0  0  0  0  0  0  0  0  0  0  0
    2.2970   -3.1758   -1.6064 C   0  0  0  0  0  0  0  0  0  0  0  0
   -3.4334    1.4825    0.0558 C   0  0  0  0  0  0  0  0  0  0  0  0
   -4.1272   -0.8368    0.7581 C   0  0  0  0  0  0  0  0  0  0  0  0
    3.0411   -2.9022   -0.3013 C   0  0  0  0  0  0  0  0  0  0  0  0
   -2.7321    2.5887    0.4911 C   0  0  0  0  0  0  0  0  0  0  0  0
   -4.7443   -0.7828    1.9914 C   0  0  0  0  0  0  0  0  0  0  0  0
   -4.5488    1.5902   -0.7498 C   0  0  0  0  0  0  0  0  0  0  0  0
   -4.5335   -1.7115   -0.2290 C   0  0  0  0  0  0  0  0  0  0  0  0
   -3.1651    3.8571    0.1044 C   0  0  0  0  0  0  0  0  0  0  0  0
   -5.8137   -1.6405    2.2488 C   0  0  0  0  0  0  0  0  0  0  0  0
   -4.9817    2.8586   -1.1364 C   0  0  0  0  0  0  0  0  0  0  0  0
   -5.6030   -2.5692    0.0283 C   0  0  0  0  0  0  0  0  0  0  0  0
   -4.2897    3.9919   -0.7094 C   0  0  0  0  0  0  0  0  0  0  0  0
   -6.2431   -2.5337    1.2673 C   0  0  0  0  0  0  0  0  0  0  0  0
    4.3736   -1.1012    0.4969 C   0  0  0  0  0  0  0  0  0  0  0  0
    4.2296    0.2967    0.3939 C   0  0  0  0  0  0  0  0  0  0  0  0
    4.5725    1.0904    1.4907 C   0  0  0  0  0  0  0  0  0  0  0  0
    4.8546   -1.6518    1.6905 C   0  0  0  0  0  0  0  0  0  0  0  0
    3.7846    1.1746   -0.6339 C   0  0  0  0  0  0  0  0  0  0  0  0
    5.0543    0.5540    2.6899 C   0  0  0  0  0  0  0  0  0  0  0  0
    5.1893   -0.8350    2.7687 C   0  0  0  0  0  0  0  0  0  0  0  0
    3.8647    2.4602   -0.1502 C   0  0  0  0  0  0  0  0  0  0  0  0
    3.5269    3.6667   -0.8171 C   0  0  0  0  0  0  0  0  0  0  0  0
  1 13  1  0
  2 16  1  0
  2 27  1  0
  3  7  1  0
  3  8  1  0
  3 11  1  0
  4  9  1  0
  4 10  1  0
  4 12  1  0
  5 29  1  0
  5 34  1  0
  6 35  3  0
  7  9  1  0
  8 10  1  0
 11 14  1  0
 11 15  1  0
 12 13  1  0
 13 16  1  0
 14 17  2  0
 14 19  1  0
 15 18  2  0
 15 20  1  0
 17 21  1  0
 18 22  1  0
 19 23  2  0
 20 24  2  0
 21 25  2  0
 22 26  2  0
 23 25  1  0
 24 26  1  0
 27 28  1  0
 27 30  2  0
 28 29  2  0
 28 31  1  0
 29 32  1  0
 30 33  1  0
 31 34  2  0
 32 33  2  0
 34 35  1  0
M  END
>  <PUBCHEM_COMPOUND_CID>  (1) 
5190

>  <PUBCHEM_CONFORMER_RMSD>  (1) 
1.2

>  <PUBCHEM_CONFORMER_DIVERSEORDER>  (1) 
1
485
18
128
291
267
494
333
438
171
314
269
328
157
308
17
216
61
481
479
205
39
430
52
270
117
238
217
229
380
49
161
440
200
247
13
109
296
508
517
221
257
78
263
388
476
347
375
22
36
134
495
206
64
218
498
130
298
234
262
23
363
381
155
89
47
33
326
441
185
409
242
284
182
343
193
518
300
512
288
10
84
44
209
304
165
90
350
111
196
121
219
312
40
255
433
160
386
139
330
329
81
302
405
289
41
198
389
114
368
331
396
100
98
415
131
335
435
7
56
85
309
239
4
202
488
220
259
400
211
12
55
129
514
99
473
452
175
164
474
79
2
465
486
148
48
16
15
172
133
80
158
14
223
179
125
35
19
353
8
138
11
21
3

>  <PUBCHEM_MMFF94_PARTIAL_CHARGES>  (1) 
50
1 -0.68
10 0.27
11 0.56
12 0.27
13 0.28
14 -0.14
15 -0.14
16 0.28
17 -0.15
18 -0.15
19 -0.15
2 -0.36
20 -0.15
21 -0.15
22 -0.15
23 -0.15
24 -0.15
25 -0.15
26 -0.15
27 0.08
29 -0.15
3 -0.81
30 -0.15
31 -0.15
32 -0.15
33 -0.15
34 -0.13
35 0.54
4 -0.81
5 0.03
50 0.15
51 0.15
52 0.15
53 0.15
54 0.4
55 0.15
56 0.15
57 0.15
58 0.15
59 0.15
6 -0.56
60 0.15
61 0.15
62 0.15
63 0.15
64 0.27
65 0.15
7 0.27
8 0.27
9 0.27

>  <PUBCHEM_EFFECTIVE_ROTOR_COUNT>  (1) 
9.2

>  <PUBCHEM_PHARMACOPHORE_FEATURES>  (1) 
13
1 1 acceptor
1 1 donor
1 2 acceptor
1 3 cation
1 4 cation
1 5 cation
1 5 donor
1 6 acceptor
5 5 28 29 31 34 rings
6 14 17 19 21 23 25 rings
6 15 18 20 22 24 26 rings
6 27 28 29 30 32 33 rings
6 3 4 7 8 9 10 rings

>  <PUBCHEM_HEAVY_ATOM_COUNT>  (1) 
35

>  <PUBCHEM_ATOM_DEF_STEREO_COUNT>  (1) 
0

>  <PUBCHEM_ATOM_UDEF_STEREO_COUNT>  (1) 
1

>  <PUBCHEM_BOND_DEF_STEREO_COUNT>  (1) 
0

>  <PUBCHEM_BOND_UDEF_STEREO_COUNT>  (1) 
0

>  <PUBCHEM_ISOTOPIC_ATOM_COUNT>  (1) 
0

>  <PUBCHEM_COMPONENT_COUNT>  (1) 
1

>  <PUBCHEM_CACTVS_TAUTO_COUNT>  (1) 
1

>  <PUBCHEM_CONFORMER_ID>  (1) 
0000144600000001

>  <PUBCHEM_MMFF94_ENERGY>  (1) 
99.3829

>  <PUBCHEM_FEATURE_SELFOVERLAP>  (1) 
66.07

>  <PUBCHEM_SHAPE_FINGERPRINT>  (1) 
10258939 38 18410574024577057139
10319926 262 18263640680376466962
12403259 118 18409718556699846680
12422481 6 18197757952683400178
12633257 1 18042112190345706844
12925494 130 18196369217673367121
13560911 23 18042107822037179832
14190465 44 18188497861718143069
14251764 38 18338798914321178421
14950920 106 17895182320826699874
150020 26 18272362045426267832
15131766 46 16702012098200943539
15336146 87 18408613564651623022
17844677 252 18333731320899387865
19301679 30 18262810669994442395
19319366 153 17683243934328688188
23559900 14 18126291843623285926
23572383 38 18269827623415353921
3493558 16 18128533760749144016
3886686 26 17898564285608281019
50150288 127 13995412760303875148
508706 21 18120375354443172557
6523845 18 17846510270128998990
9981440 41 18268420249359579473

>  <PUBCHEM_SHAPE_MULTIPOLES>  (1) 
688.62
15.74
5.47
2.28
4.41
4.54
-0.66
-0.97
-8.46
0.78
2.46
-2.29
-1.4
2.64

>  <PUBCHEM_SHAPE_SELFOVERLAP>  (1) 
1500.838

>  <PUBCHEM_SHAPE_VOLUME>  (1) 
373.1

>  <PUBCHEM_COORDINATE_TYPE>  (1) 
2
5
10

$$$$
