5191
     RDKit          3D

 20 20  0  0  0  0  0  0  0  0999 V2000
    3.2083    3.3652    0.0659 Cl  0  0  0  0  0  0  0  0  0  0  0  0
   -0.6849    0.0250   -0.1734 O   0  0  0  0  0  0  0  0  0  0  0  0
    2.5477   -2.4736   -0.1554 O   0  0  0  0  0  0  0  0  0  0  0  0
    0.1136   -1.8742   -1.2003 O   0  0  0  0  0  0  0  0  0  0  0  0
   -4.3611    0.2699   -0.0640 N   0  0  0  0  0  0  0  0  0  0  0  0
    5.4092    1.3123    0.5185 N   0  0  0  0  0  0  0  0  0  0  0  0
   -2.9681    0.6528    0.1644 C   0  0  0  0  0  0  0  0  0  0  0  0
   -4.6474   -1.0177    0.5674 C   0  0  0  0  0  0  0  0  0  0  0  0
   -5.2645    1.3010    0.4450 C   0  0  0  0  0  0  0  0  0  0  0  0
   -2.0236   -0.3953   -0.4019 C   0  0  0  0  0  0  0  0  0  0  0  0
   -6.0736   -1.4608    0.2887 C   0  0  0  0  0  0  0  0  0  0  0  0
   -4.9812    2.6468   -0.2007 C   0  0  0  0  0  0  0  0  0  0  0  0
    1.6362   -0.2615   -0.3248 C   0  0  0  0  0  0  0  0  0  0  0  0
    0.2901   -0.8114   -0.6251 C   0  0  0  0  0  0  0  0  0  0  0  0
    2.6953   -1.1196   -0.1049 C   0  0  0  0  0  0  0  0  0  0  0  0
    1.7822    1.1112   -0.2747 C   0  0  0  0  0  0  0  0  0  0  0  0
    3.9522   -0.5835    0.1758 C   0  0  0  0  0  0  0  0  0  0  0  0
    4.1241    0.7998    0.2314 C   0  0  0  0  0  0  0  0  0  0  0  0
    3.0391    1.6470    0.0064 C   0  0  0  0  0  0  0  0  0  0  0  0
    2.2065   -3.1334    1.0617 C   0  0  0  0  0  0  0  0  0  0  0  0
  1 19  1  0
  2 10  1  0
  2 14  1  0
  3 15  1  0
  3 20  1  0
  4 14  2  0
  5  7  1  0
  5  8  1  0
  5  9  1  0
  6 18  1  0
  7 10  1  0
  8 11  1  0
  9 12  1  0
 13 14  1  0
 13 15  2  0
 13 16  1  0
 15 17  1  0
 16 19  2  0
 17 18  2  0
 18 19  1  0
M  END
>  <PUBCHEM_COMPOUND_CID>  (1) 
5191

>  <PUBCHEM_CONFORMER_RMSD>  (1) 
0.8

>  <PUBCHEM_CONFORMER_DIVERSEORDER>  (1) 
1
149
181
172
20
222
37
232
79
220
22
73
50
151
33
155
30
16
157
114
115
84
140
36
77
44
81
17
171
136
14
53
152
159
193
93
89
57
90
199
13
213
156
160
78
184
64
190
18
56
132
49
134
117
107
83
118
212
82
72
59
226
187
43
197
51
131
180
94
186
61
28
8
125
29
113
21
175
169
6
108
126
26
176
150
153
165
3
92
60
201
116
142
105
206
5
154
87
23
192
203
42
178
167
109
216
121
99
163
66
147
164
196
12
174
86
48
221
189
120
58
95
88
128
158
168
80
19
85
75
188
170
194
35
55
123
11
25
135
32
235
218
198
130
161
52
230
96
191
10
208
119
39
15
7
166
71
62
103
46
137
204
27
214
101
9
210
45
133
2
70
4
111
162
63
139
38
143
122
233
91
225
40
127
76
24
47
183
69
104
31
129
227
224
124
205
110
54
41
231
74
102
112
228
148
229
185
173
219
179
177
138
202
223
106
195
207
209
234
211
182
68
200
144
100
65
217
67
97
146
34
98
141
215
145

>  <PUBCHEM_MMFF94_PARTIAL_CHARGES>  (1) 
22
1 -0.18
10 0.28
13 0.09
14 0.63
15 0.08
16 -0.15
17 -0.15
18 0.1
19 0.18
2 -0.43
20 0.28
3 -0.36
35 0.15
36 0.15
37 0.4
38 0.4
4 -0.57
5 -0.81
6 -0.9
7 0.27
8 0.27
9 0.27

>  <PUBCHEM_EFFECTIVE_ROTOR_COUNT>  (1) 
8

>  <PUBCHEM_PHARMACOPHORE_FEATURES>  (1) 
6
1 3 acceptor
1 4 acceptor
1 5 cation
1 6 cation
1 6 donor
6 13 15 16 17 18 19 rings

>  <PUBCHEM_HEAVY_ATOM_COUNT>  (1) 
20

>  <PUBCHEM_ATOM_DEF_STEREO_COUNT>  (1) 
0

>  <PUBCHEM_ATOM_UDEF_STEREO_COUNT>  (1) 
0

>  <PUBCHEM_BOND_DEF_STEREO_COUNT>  (1) 
0

>  <PUBCHEM_BOND_UDEF_STEREO_COUNT>  (1) 
0

>  <PUBCHEM_ISOTOPIC_ATOM_COUNT>  (1) 
0

>  <PUBCHEM_COMPONENT_COUNT>  (1) 
1

>  <PUBCHEM_CACTVS_TAUTO_COUNT>  (1) 
2

>  <PUBCHEM_CONFORMER_ID>  (1) 
0000144700000001

>  <PUBCHEM_MMFF94_ENERGY>  (1) 
66.5315

>  <PUBCHEM_FEATURE_SELFOVERLAP>  (1) 
30.452

>  <PUBCHEM_SHAPE_FINGERPRINT>  (1) 
10354089 29 18412263969352703048
10366900 7 17968388891514700306
10411042 1 17835521518983053502
10595046 47 18411981382311609721
11370993 144 18189334564017079565
11405975 8 18336830767543890617
12107183 9 17761492496210872273
12403259 118 18341604911150449537
13073987 5 18335985286088876531
13140716 1 18265606770760380632
13167823 11 18411136918605985471
13785724 45 17837494042558407982
14341114 176 18338242557406073009
14790565 3 18191311687703634868
15196674 1 18412546487953816581
17492 89 18340771425597544087
17844677 252 18412271610226129721
17868525 174 18119803608385964937
19784866 9 18413103979066998096
20157964 124 18411415077846520013
20645477 70 18342178830018036215
20715895 44 17981888537021638441
21065198 57 18337111155777837093
21065199 12 18335144168125235203
21315763 129 18409166623511905217
21315764 268 18190177893878796293
21421861 104 17969493810891385354
21709351 56 18341890766956788381
21859007 373 17243853460316196973
23557571 272 17167855357984195333
23558518 356 17832136504974658510
23559900 14 18056484937477461919
239999 70 18271816708975322430
33824 294 18334857216822927970
3421961 26 18192147105902483738
4073 2 18187091658948750227
4214541 1 18409731725665727017
4325135 7 18201437021711221807
474 4 18410009983305783704
5104073 3 18336271141874135843
633830 44 18269834367077972420
77779 3 18410295783567535019
8272917 22 18410576154558536470
90127 26 18340780264592253303
9999458 23 18335985354723729998

>  <PUBCHEM_SHAPE_MULTIPOLES>  (1) 
385.89
13.22
3.25
0.8
16.13
0.47
0.01
4.07
-2.48
-1.83
-0.42
-0.06
-0.27
0.13

>  <PUBCHEM_SHAPE_SELFOVERLAP>  (1) 
774.155

>  <PUBCHEM_SHAPE_VOLUME>  (1) 
229.9

>  <PUBCHEM_COORDINATE_TYPE>  (1) 
2
5
10

$$$$
