5198
     RDKit          3D

 16 16  0  0  0  0  0  0  0  0999 V2000
    5.8366    0.5954    0.0141 Cl  0  0  0  0  0  0  0  0  0  0  0  0
    1.1906    1.8375   -0.3636 O   0  0  0  0  0  0  0  0  0  0  0  0
    2.4724   -2.5689   -0.0252 O   0  0  0  0  0  0  0  0  0  0  0  0
   -0.3285    0.2401    0.2891 N   0  0  0  0  0  0  0  0  0  0  0  0
    1.9005   -0.3637   -0.2152 N   0  0  0  0  0  0  0  0  0  0  0  0
    1.5352   -1.7738    0.1035 N   0  0  0  0  0  0  0  0  0  0  0  0
   -3.9851   -0.2417   -0.1356 C   0  0  0  0  0  0  0  0  0  0  0  0
   -1.4249    1.1692    0.4415 C   0  0  0  0  0  0  0  0  0  0  0  0
   -3.2315   -0.4733    1.1801 C   0  0  0  0  0  0  0  0  0  0  0  0
   -3.0173    0.1453   -1.2607 C   0  0  0  0  0  0  0  0  0  0  0  0
   -2.3723    0.7328    1.5627 C   0  0  0  0  0  0  0  0  0  0  0  0
   -2.1687    1.3599   -0.8826 C   0  0  0  0  0  0  0  0  0  0  0  0
   -4.7909   -1.4810   -0.5206 C   0  0  0  0  0  0  0  0  0  0  0  0
    0.9389    0.6540   -0.1148 C   0  0  0  0  0  0  0  0  0  0  0  0
    3.2695   -0.0763   -0.6247 C   0  0  0  0  0  0  0  0  0  0  0  0
    4.1755    0.2445    0.5521 C   0  0  0  0  0  0  0  0  0  0  0  0
  1 16  1  0
  2 14  2  0
  3  6  2  0
  4  8  1  0
  4 14  1  0
  5  6  1  0
  5 14  1  0
  5 15  1  0
  7  9  1  0
  7 10  1  0
  7 13  1  0
  8 11  1  0
  8 12  1  0
  9 11  1  0
 10 12  1  0
 15 16  1  0
M  END
>  <PUBCHEM_COMPOUND_CID>  (1) 
5198

>  <PUBCHEM_CONFORMER_RMSD>  (1) 
0.8

>  <PUBCHEM_CONFORMER_DIVERSEORDER>  (1) 
1
64
91
66
30
60
53
77
26
25
43
86
90
81
49
85
28
4
14
3
51
75
20
31
33
32
57
27
8
76
23
17
56
9
54
10
34
71
70
89
19
62
15
6
84
24
73
58
80
88
36
22
38
82
79
78
50
63
13
44
47
69
48
16
72
92
68
39
95
74
67
35
42
7
29
94
52
61
55
11
40
46
65
5
37
93
45
2
87
83
59
18
41
12
21

>  <PUBCHEM_MMFF94_PARTIAL_CHARGES>  (1) 
11
1 -0.29
14 0.69
15 0.3
16 0.29
2 -0.57
3 -0.16
30 0.37
4 -0.73
5 -0.18
6 -0.02
8 0.3

>  <PUBCHEM_EFFECTIVE_ROTOR_COUNT>  (1) 
7.2

>  <PUBCHEM_PHARMACOPHORE_FEATURES>  (1) 
3
1 2 acceptor
1 4 donor
6 7 8 9 10 11 12 rings

>  <PUBCHEM_HEAVY_ATOM_COUNT>  (1) 
16

>  <PUBCHEM_ATOM_DEF_STEREO_COUNT>  (1) 
0

>  <PUBCHEM_ATOM_UDEF_STEREO_COUNT>  (1) 
0

>  <PUBCHEM_BOND_DEF_STEREO_COUNT>  (1) 
0

>  <PUBCHEM_BOND_UDEF_STEREO_COUNT>  (1) 
0

>  <PUBCHEM_ISOTOPIC_ATOM_COUNT>  (1) 
0

>  <PUBCHEM_COMPONENT_COUNT>  (1) 
1

>  <PUBCHEM_CACTVS_TAUTO_COUNT>  (1) 
2

>  <PUBCHEM_CONFORMER_ID>  (1) 
0000144E00000001

>  <PUBCHEM_MMFF94_ENERGY>  (1) 
19.6295

>  <PUBCHEM_FEATURE_SELFOVERLAP>  (1) 
15.223

>  <PUBCHEM_SHAPE_FINGERPRINT>  (1) 
11806522 49 18342175587480893964
124424 183 16515404075387545572
128620 24 18342457036745784388
13296908 3 18265054634980625294
13862211 1 18409165494505036610
14004511 7 11097857397354622713
14252887 29 17704081689470817820
14787075 74 17988924530733193368
15375462 189 17846210077209973935
17834072 14 17968091984767987354
17834072 8 11674873369160808840
19433438 15 12179852701257274859
19433438 38 18040710364222322639
19489759 90 16588018018093275676
200 152 18413105078525871505
20279233 1 17822016388813291547
204376 136 18410576219309872600
20645477 56 17895191039895764229
22485316 2 18342176639995729897
23402539 116 16805595967102759797
23557571 272 17240759549599344372
23559900 14 16298668399197367004
474229 33 18409166645276723074
58051976 378 18186523211009947718
6913067 236 18187355558692458052
9971528 1 11458425760970046750

>  <PUBCHEM_SHAPE_MULTIPOLES>  (1) 
304.46
10.52
1.72
1.1
8.09
0.83
-0.17
1.66
0.39
0.27
0.1
-1.03
-0.19
-0.16

>  <PUBCHEM_SHAPE_SELFOVERLAP>  (1) 
581.238

>  <PUBCHEM_SHAPE_VOLUME>  (1) 
186.8

>  <PUBCHEM_COORDINATE_TYPE>  (1) 
2
5
10

$$$$
