5203
     RDKit          3D

 20 22  0  0  1  0  0  0  0  0999 V2000
   -3.2737    0.9428   -2.5354 Cl  0  0  0  0  0  0  0  0  0  0  0  0
   -5.5573   -0.0605   -0.4733 Cl  0  0  0  0  0  0  0  0  0  0  0  0
    2.7891    1.7867   -1.0201 N   0  0  0  0  0  0  0  0  0  0  0  0
    0.2340    0.1245    1.2081 C   0  0  0  0  0  0  0  0  0  0  0  0
    0.7147    1.5898    1.2172 C   0  0  0  0  0  0  0  0  0  0  0  0
    2.9402    0.9878    0.2005 C   0  0  0  0  0  0  0  0  0  0  0  0
    2.2282    1.6696    1.3759 C   0  0  0  0  0  0  0  0  0  0  0  0
    1.1481   -0.8229    0.4353 C   0  0  0  0  0  0  0  0  0  0  0  0
    2.4232   -0.4199   -0.0136 C   0  0  0  0  0  0  0  0  0  0  0  0
   -1.2243    0.0843    0.7684 C   0  0  0  0  0  0  0  0  0  0  0  0
    0.7539   -2.1603    0.2359 C   0  0  0  0  0  0  0  0  0  0  0  0
    3.2419   -1.3421   -0.6913 C   0  0  0  0  0  0  0  0  0  0  0  0
   -1.5672    0.4786   -0.5205 C   0  0  0  0  0  0  0  0  0  0  0  0
   -2.2012   -0.3470    1.6597 C   0  0  0  0  0  0  0  0  0  0  0  0
    1.5787   -3.0636   -0.4347 C   0  0  0  0  0  0  0  0  0  0  0  0
    2.8205   -2.6530   -0.9032 C   0  0  0  0  0  0  0  0  0  0  0  0
    3.2764    3.1391   -0.8089 C   0  0  0  0  0  0  0  0  0  0  0  0
   -2.9022    0.4410   -0.9231 C   0  0  0  0  0  0  0  0  0  0  0  0
   -3.5363   -0.3844    1.2572 C   0  0  0  0  0  0  0  0  0  0  0  0
   -3.8868    0.0095   -0.0342 C   0  0  0  0  0  0  0  0  0  0  0  0
  1 18  1  0
  2 20  1  0
  3  6  1  0
  3 17  1  0
  4  5  1  0
  4  8  1  0
  4 10  1  0
  5  7  1  0
  6  7  1  0
  6  9  1  0
  8  9  2  0
  8 11  1  0
  9 12  1  0
 10 13  2  0
 10 14  1  0
 11 15  2  0
 12 16  2  0
 13 18  1  0
 14 19  2  0
 15 16  1  0
 18 20  2  0
 19 20  1  0
M  END
>  <PUBCHEM_COMPOUND_CID>  (1) 
5203

>  <PUBCHEM_CONFORMER_RMSD>  (1) 
0.6

>  <PUBCHEM_CONFORMER_DIVERSEORDER>  (1) 
1
18
12
10
31
38
51
48
17
43
50
26
30
34
33
15
37
42
24
45
35
44
25
46
40
22
16
47
23
41
13
27
32
14
28
39
49
11
9
36
3
21
7
2
4
6
29
8
5
19
20

>  <PUBCHEM_MMFF94_PARTIAL_CHARGES>  (1) 
26
1 -0.18
10 -0.14
11 -0.15
12 -0.15
13 -0.15
14 -0.15
15 -0.15
16 -0.15
17 0.27
18 0.18
19 -0.15
2 -0.18
20 0.18
27 0.36
28 0.15
29 0.15
3 -0.9
30 0.15
31 0.15
32 0.15
33 0.15
37 0.15
4 0.29
6 0.41
8 -0.14
9 -0.14

>  <PUBCHEM_EFFECTIVE_ROTOR_COUNT>  (1) 
2.8

>  <PUBCHEM_PHARMACOPHORE_FEATURES>  (1) 
5
1 3 cation
1 3 donor
6 10 13 14 18 19 20 rings
6 4 5 6 7 8 9 rings
6 8 9 11 12 15 16 rings

>  <PUBCHEM_HEAVY_ATOM_COUNT>  (1) 
20

>  <PUBCHEM_ATOM_DEF_STEREO_COUNT>  (1) 
0

>  <PUBCHEM_ATOM_UDEF_STEREO_COUNT>  (1) 
2

>  <PUBCHEM_BOND_DEF_STEREO_COUNT>  (1) 
0

>  <PUBCHEM_BOND_UDEF_STEREO_COUNT>  (1) 
0

>  <PUBCHEM_ISOTOPIC_ATOM_COUNT>  (1) 
0

>  <PUBCHEM_COMPONENT_COUNT>  (1) 
1

>  <PUBCHEM_CACTVS_TAUTO_COUNT>  (1) 
1

>  <PUBCHEM_CONFORMER_ID>  (1) 
0000145300000001

>  <PUBCHEM_MMFF94_ENERGY>  (1) 
52.2022

>  <PUBCHEM_FEATURE_SELFOVERLAP>  (1) 
25.392

>  <PUBCHEM_SHAPE_FINGERPRINT>  (1) 
10165383 225 17978536417545713040
10646746 165 16732695056236372325
11759241 127 18114455786118901255
12236239 1 17132114624010401451
12553582 1 17914619349770172206
12670546 177 18261671566915182207
12730499 353 18339650056732778515
13134695 92 18129653102672909584
13533116 47 18201722856222305427
13836976 161 18413105091247256206
13911987 19 18124046868871771312
14739800 52 15647626686913602060
14863182 85 17917987261808566510
14866123 147 10082924559216080821
15502722 9 18411422812581310620
15961568 22 17168431591781405397
16752209 62 15697999592506284929
16945 1 18343304738910127530
17134986 127 18193286414881528940
1813 80 17629777677335039822
18186145 218 18114740417849042825
19786989 88 18335985358364699176
20361792 2 17773588313347906819
20645477 70 18412259519566247835
20671657 53 18123192303338873382
20715895 44 12686741787459294351
21639500 275 18343299283958679218
22112679 90 16916791729877346907
2255824 54 18060418023491962914
23114952 82 18333737896499741908
23419403 2 17322451142346156834
23526113 38 17969510303112510883
23557571 272 17169289185402564771
23559900 14 17749388139724758899
23598288 3 17272859697225408705
23598291 2 17631470993866014577
238 59 18337657663952994943
2748010 2 18125736809837896890
3060560 45 18270960258089145600
312423 11 17988936526560682393
3323516 105 18411135823183434371
458136 41 18268451172454249818
46194498 28 18334013874013090863
5281201 14 18334573495583356125
57527585 21 18042108998948260589
59682541 52 18127385906002953189
6049 1 17968669224204118433
633830 44 17702399522400948560
7471813 234 17916579826383553250
77492 1 17132115727859168667
81228 2 17260186593275856858
8272917 22 18342465824412350185
9981440 41 15189343797684043600

>  <PUBCHEM_SHAPE_MULTIPOLES>  (1) 
410.35
8.12
2.82
1.69
8.8
0.46
-0.38
-0.96
-2.47
-4.7
-0.82
1.18
-0.54
0.85

>  <PUBCHEM_SHAPE_SELFOVERLAP>  (1) 
867.103

>  <PUBCHEM_SHAPE_VOLUME>  (1) 
229.9

>  <PUBCHEM_COORDINATE_TYPE>  (1) 
2
5
10

$$$$
