5207
     RDKit          3D

 20 19  0  0  1  0  0  0  0  0999 V2000
   -0.9492    0.8530   -1.3912 O   0  0  0  0  0  0  0  0  0  0  0  0
   -2.7590    1.6860   -0.2047 N   0  0  0  0  0  0  0  0  0  0  0  0
   -2.5616   -1.7924    0.3776 N   0  0  0  0  0  0  0  0  0  0  0  0
   -0.6835    3.9156   -0.7372 N   0  0  0  0  0  0  0  0  0  0  0  0
    3.0931    0.3466   -0.0101 N   0  0  0  0  0  0  0  0  0  0  0  0
    0.7099   -3.8231   -1.6306 N   0  0  0  0  0  0  0  0  0  0  0  0
    4.9820   -0.2940   -1.1902 N   0  0  0  0  0  0  0  0  0  0  0  0
    5.1679   -0.1821    1.0786 N   0  0  0  0  0  0  0  0  0  0  0  0
   -0.5905    2.7228    0.1067 C   0  0  0  0  0  0  0  0  0  0  0  0
    0.8791    2.3069    0.2673 C   0  0  0  0  0  0  0  0  0  0  0  0
   -4.3359   -0.0643    0.4258 C   0  0  0  0  0  0  0  0  0  0  0  0
   -3.7266    0.7466   -0.7194 C   0  0  0  0  0  0  0  0  0  0  0  0
    1.0269    1.0324    1.1104 C   0  0  0  0  0  0  0  0  0  0  0  0
   -3.2926   -0.8534    1.2198 C   0  0  0  0  0  0  0  0  0  0  0  0
   -1.4273    1.6571   -0.5931 C   0  0  0  0  0  0  0  0  0  0  0  0
   -1.5690   -2.5226    1.1535 C   0  0  0  0  0  0  0  0  0  0  0  0
   -0.7803   -3.5096    0.2902 C   0  0  0  0  0  0  0  0  0  0  0  0
    2.4841    0.6208    1.2926 C   0  0  0  0  0  0  0  0  0  0  0  0
   -0.0046   -2.8281   -0.8385 C   0  0  0  0  0  0  0  0  0  0  0  0
    4.3373   -0.0181   -0.0075 C   0  0  0  0  0  0  0  0  0  0  0  0
  1 15  2  0
  2 12  1  0
  2 15  1  0
  3 14  1  0
  3 16  1  0
  4  9  1  0
  5 18  1  0
  5 20  2  3
  6 19  1  0
  7 20  1  0
  8 20  1  0
  9 10  1  0
  9 15  1  0
 10 13  1  0
 11 12  1  0
 11 14  1  0
 13 18  1  0
 16 17  1  0
 17 19  1  0
M  END
>  <PUBCHEM_COMPOUND_CID>  (1) 
5207

>  <PUBCHEM_CONFORMER_RMSD>  (1) 
1

>  <PUBCHEM_CONFORMER_DIVERSEORDER>  (1) 
1
199
281
57
139
232
10
367
337
27
190
64
309
29
152
109
322
260
351
56
226
259
223
166
51
211
80
265
234
59
14
258
66
319
361
18
378
296
70
212
290
173
292
102
110
23
316
288
215
40
142
352
311
88
313
160
170
329
46
149
201
356
22
163
31
233
267
279
343
243
314
339
143
15
249
350
146
238
386
77
32
68
236
253
382
344
189
65
114
365
307
128
49
214
197
245
180
390
301
360
26
237
347
6
235
122
262
363
171
120
165
282
263
61
178
250
368
106
78
274
188
346
202
228
392
370
42
305
353
52
150
138
286
303
196
132
224
374
169
349
181
219
153
63
7
53
112
385
177
44
273
101
30
205
20
373
240
242
221
126
222
371
140
330
387
73
81
354
251
191
34
272
300
75
179
125
203
174
246
198
38
256
3
393
62
107
317
388
36
94
302
244
358
389
69
158
136
333
391
369
318
183
299
39
117
328
100
48
116
93
148
159
124
280
119
357
241
16
254
324
218
60
172
270
58
192
342
162
308
76
372
359
4
28
239
247
381
55
291
213
380
323
261
98
133
167
345
87
206
186
129
331
216
257
310
161
97
362
144
210
83
168
118
115
325
248
121
33
293
111
364
41
193
383
182
147
266
230
336
108
376
289
103
145
175
21
84
326
264
276
297
327
355
137
348
12
184
335
306
67
130
50
340
91
157
54
375
195
123
164
43
127
207
187
277
35
271
47
200
92
217
96
284
320
287
71
334
90
72
19
151
338
379
156
131
2
135
366
154
79
209
298
24
384
268
155
269
95
45
283
176
8
74
86
11
9
141
377
99
134
13
105
220
89
321
104
37
294
204
275
82
252
304
113
295
341
285
194
225
208
227
231
255
229
185
5
315
17
278
332
25
312
85

>  <PUBCHEM_MMFF94_PARTIAL_CHARGES>  (1) 
26
1 -0.57
12 0.3
14 0.27
15 0.57
16 0.27
18 0.25
19 0.27
2 -0.73
20 0.55
3 -0.9
32 0.37
35 0.36
4 -0.99
40 0.36
41 0.36
44 0.36
45 0.36
46 0.4
47 0.4
48 0.4
49 0.4
5 -0.7
6 -0.99
7 -0.85
8 -0.85
9 0.33

>  <PUBCHEM_EFFECTIVE_ROTOR_COUNT>  (1) 
13

>  <PUBCHEM_PHARMACOPHORE_FEATURES>  (1) 
11
1 1 acceptor
1 2 donor
1 3 cation
1 3 donor
1 4 cation
1 4 donor
1 6 cation
1 6 donor
1 7 donor
1 8 donor
4 5 7 8 20 cation

>  <PUBCHEM_HEAVY_ATOM_COUNT>  (1) 
20

>  <PUBCHEM_ATOM_DEF_STEREO_COUNT>  (1) 
0

>  <PUBCHEM_ATOM_UDEF_STEREO_COUNT>  (1) 
1

>  <PUBCHEM_BOND_DEF_STEREO_COUNT>  (1) 
0

>  <PUBCHEM_BOND_UDEF_STEREO_COUNT>  (1) 
0

>  <PUBCHEM_ISOTOPIC_ATOM_COUNT>  (1) 
0

>  <PUBCHEM_COMPONENT_COUNT>  (1) 
1

>  <PUBCHEM_CACTVS_TAUTO_COUNT>  (1) 
4

>  <PUBCHEM_CONFORMER_ID>  (1) 
0000145700000001

>  <PUBCHEM_MMFF94_ENERGY>  (1) 
11.3385

>  <PUBCHEM_FEATURE_SELFOVERLAP>  (1) 
55.883

>  <PUBCHEM_SHAPE_FINGERPRINT>  (1) 
10759866 29 17894912893613322178
11014199 57 17332240309270104502
12011746 2 18335977627945714847
12054548 360 18192153917751860712
12467345 10 17677063463509325052
12596602 18 14548729629980959452
13402501 40 18341337716592052798
14251757 5 18262532506105408406
19777482 4 17337575105006374535
238918 7 18200870687097308902
373842 8 17905882579707188610
5283178 26 18342747359291866763
57583515 115 18408884065913116899
59755656 215 18261375738827519349
6437827 68 18337675192601324482

>  <PUBCHEM_SHAPE_MULTIPOLES>  (1) 
370.85
8.02
4.62
1.33
8.24
1.96
0.07
0.43
-0.84
-1.81
1.39
0.28
0.51
1.26

>  <PUBCHEM_SHAPE_SELFOVERLAP>  (1) 
695.965

>  <PUBCHEM_SHAPE_VOLUME>  (1) 
228.2

>  <PUBCHEM_COORDINATE_TYPE>  (1) 
2
5
10

$$$$
