5209
     RDKit          3D

 20 22  0  0  0  0  0  0  0  0999 V2000
    2.7538    2.5066    0.3838 O   0  0  0  0  0  0  0  0  0  0  0  0
   -0.5648   -1.0818    0.5647 N   0  0  0  0  0  0  0  0  0  0  0  0
   -0.0508    0.1768    0.3593 C   0  0  0  0  0  0  0  0  0  0  0  0
   -1.1014    0.9863   -0.0738 C   0  0  0  0  0  0  0  0  0  0  0  0
    1.2545    0.6542    0.5236 C   0  0  0  0  0  0  0  0  0  0  0  0
   -2.2763    0.1706   -0.1243 C   0  0  0  0  0  0  0  0  0  0  0  0
   -1.9095   -1.1133    0.2797 C   0  0  0  0  0  0  0  0  0  0  0  0
   -0.8352    2.3423   -0.3577 C   0  0  0  0  0  0  0  0  0  0  0  0
    1.4930    2.0008    0.2366 C   0  0  0  0  0  0  0  0  0  0  0  0
    2.3670   -0.2276    0.9898 C   0  0  0  0  0  0  0  0  0  0  0  0
    0.4652    2.8342   -0.1979 C   0  0  0  0  0  0  0  0  0  0  0  0
   -3.6214    0.4081   -0.4775 C   0  0  0  0  0  0  0  0  0  0  0  0
   -2.8199   -2.1741    0.3492 C   0  0  0  0  0  0  0  0  0  0  0  0
    3.0912   -0.9069   -0.1455 C   0  0  0  0  0  0  0  0  0  0  0  0
    0.7300    4.2733   -0.5029 C   0  0  0  0  0  0  0  0  0  0  0  0
   -4.5434   -0.6427   -0.4129 C   0  0  0  0  0  0  0  0  0  0  0  0
   -4.1463   -1.9139   -0.0053 C   0  0  0  0  0  0  0  0  0  0  0  0
    3.2031   -2.2271   -0.3872 C   0  0  0  0  0  0  0  0  0  0  0  0
    3.9434   -2.8379   -1.5430 C   0  0  0  0  0  0  0  0  0  0  0  0
    2.5676   -3.2278    0.5412 C   0  0  0  0  0  0  0  0  0  0  0  0
  1  9  1  0
  2  3  1  0
  2  7  1  0
  3  4  2  0
  3  5  1  0
  4  6  1  0
  4  8  1  0
  5  9  2  0
  5 10  1  0
  6  7  2  0
  6 12  1  0
  7 13  1  0
  8 11  2  0
  9 11  1  0
 10 14  1  0
 11 15  1  0
 12 16  2  0
 13 17  2  0
 14 18  2  3
 16 17  1  0
 18 19  1  0
 18 20  1  0
M  END
>  <PUBCHEM_COMPOUND_CID>  (1) 
5209

>  <PUBCHEM_CONFORMER_RMSD>  (1) 
0.6

>  <PUBCHEM_CONFORMER_DIVERSEORDER>  (1) 
1
12
13
11
3
8
9
4
7
10
5
6
2

>  <PUBCHEM_MMFF94_PARTIAL_CHARGES>  (1) 
26
1 -0.53
10 0.28
11 -0.14
12 -0.15
13 -0.15
14 -0.29
15 0.14
16 -0.15
17 -0.15
18 -0.28
19 0.14
2 0.03
20 0.14
21 0.27
22 0.15
25 0.15
26 0.15
27 0.15
3 -0.15
31 0.15
32 0.15
33 0.45
5 -0.14
7 -0.15
8 -0.15
9 0.08

>  <PUBCHEM_EFFECTIVE_ROTOR_COUNT>  (1) 
2

>  <PUBCHEM_PHARMACOPHORE_FEATURES>  (1) 
7
1 1 donor
1 2 cation
1 2 donor
3 18 19 20 hydrophobe
5 2 3 4 6 7 rings
6 3 4 5 8 9 11 rings
6 6 7 12 13 16 17 rings

>  <PUBCHEM_HEAVY_ATOM_COUNT>  (1) 
20

>  <PUBCHEM_ATOM_DEF_STEREO_COUNT>  (1) 
0

>  <PUBCHEM_ATOM_UDEF_STEREO_COUNT>  (1) 
0

>  <PUBCHEM_BOND_DEF_STEREO_COUNT>  (1) 
0

>  <PUBCHEM_BOND_UDEF_STEREO_COUNT>  (1) 
0

>  <PUBCHEM_ISOTOPIC_ATOM_COUNT>  (1) 
0

>  <PUBCHEM_COMPONENT_COUNT>  (1) 
1

>  <PUBCHEM_CACTVS_TAUTO_COUNT>  (1) 
9

>  <PUBCHEM_CONFORMER_ID>  (1) 
0000145900000001

>  <PUBCHEM_MMFF94_ENERGY>  (1) 
43.164

>  <PUBCHEM_FEATURE_SELFOVERLAP>  (1) 
35.7

>  <PUBCHEM_SHAPE_FINGERPRINT>  (1) 
10616163 171 17760364792054313603
10906281 52 18188779460731836672
10967382 1 18336823211979005097
11578080 2 16735197527843146772
116883 192 18339356366484170148
12403259 327 15267051566949444447
12553582 1 18265056838183291034
12623949 98 17976279129334094171
12788726 201 17974295317766521314
13140716 1 18265318530635705385
13533116 47 18201438142803466779
13583140 156 14188431647959191819
138480 1 18410009948803445032
14022347 108 18188486865704507897
14790565 3 17259063991530091296
14863182 85 18119813761957639012
14866123 147 17765156068775286459
15422964 175 18339912758270216452
15442244 35 18411136944264876761
15475509 8 18055362336352850677
16752209 62 17687174297286080602
16945 1 18263632974999026353
17492 89 18268146638278798199
17818456 19 17774735164701013577
18681886 176 17688583179841253400
19591789 44 17186721619943564801
20645477 70 18264478663050703523
20871999 31 18193001417788789158
21665056 4 17329145772025752908
221490 88 18335706108429403035
2255824 54 18193556907078113928
22849339 104 17262459305401792958
23419403 2 17270565046591414504
23557571 272 18126555722889001010
23559900 14 18338508767763123633
2748010 2 18264468655360295897
3060560 45 18123189280008782436
3091708 16 9644980320344795592
314173 41 18409452487649949139
335352 9 18337950074676154845
3421961 26 18412543236315394570
352729 6 16751833941676820643
4280585 95 18409165472866916766
58779409 8 17615686233023328564
6443956 14 18408885156776599300
6669772 16 17838913877542728532
7364860 26 18266176329982889144
81228 2 18264204704018822120
8272917 22 18194686092898578115
9709674 26 18191021407853764339

>  <PUBCHEM_SHAPE_MULTIPOLES>  (1) 
400.74
7.15
4.56
0.9
2.65
3.07
0.13
-7.22
1.52
-3.17
0.7
-0.6
-0.32
0.98

>  <PUBCHEM_SHAPE_SELFOVERLAP>  (1) 
878.267

>  <PUBCHEM_SHAPE_VOLUME>  (1) 
220.7

>  <PUBCHEM_COORDINATE_TYPE>  (1) 
2
5
10

$$$$
