5229
     RDKit          3D

 27 29  0  0  1  0  0  0  0  0999 V2000
    0.9858    0.7072   -0.3148 O   0  0  0  0  0  0  0  0  0  0  0  0
    4.3721   -4.5400    0.2022 O   0  0  0  0  0  0  0  0  0  0  0  0
   -7.6043   -0.3196   -0.6756 O   0  0  0  0  0  0  0  0  0  0  0  0
    2.9204    3.0826   -0.4976 N   0  0  0  0  0  0  0  0  0  0  0  0
    3.1570    5.0385    0.3821 N   0  0  0  0  0  0  0  0  0  0  0  0
    2.3398    0.7440    0.1156 C   0  0  0  0  0  0  0  0  0  0  0  0
    3.1344    1.6726   -0.8076 C   0  0  0  0  0  0  0  0  0  0  0  0
    2.8825   -0.6663    0.1392 C   0  0  0  0  0  0  0  0  0  0  0  0
    0.1118    0.3363    0.7425 C   0  0  0  0  0  0  0  0  0  0  0  0
   -1.3165    0.3162    0.2165 C   0  0  0  0  0  0  0  0  0  0  0  0
   -2.3281   -0.0620    1.3056 C   0  0  0  0  0  0  0  0  0  0  0  0
   -3.7228   -0.1297    0.7822 C   0  0  0  0  0  0  0  0  0  0  0  0
    2.9875   -1.3925   -1.0471 C   0  0  0  0  0  0  0  0  0  0  0  0
    3.2782   -1.2420    1.3466 C   0  0  0  0  0  0  0  0  0  0  0  0
    3.6508    3.7961    0.3655 C   0  0  0  0  0  0  0  0  0  0  0  0
    1.9434    3.8817   -1.0411 C   0  0  0  0  0  0  0  0  0  0  0  0
    3.4882   -2.6941   -1.0261 C   0  0  0  0  0  0  0  0  0  0  0  0
    3.7788   -2.5436    1.3677 C   0  0  0  0  0  0  0  0  0  0  0  0
    2.0933    5.1203   -0.4841 C   0  0  0  0  0  0  0  0  0  0  0  0
    3.8839   -3.2697    0.1813 C   0  0  0  0  0  0  0  0  0  0  0  0
   -4.5305    1.0073    0.7990 C   0  0  0  0  0  0  0  0  0  0  0  0
   -4.2195   -1.3307    0.2756 C   0  0  0  0  0  0  0  0  0  0  0  0
   -5.8350    0.9435    0.3092 C   0  0  0  0  0  0  0  0  0  0  0  0
   -5.5239   -1.3946   -0.2141 C   0  0  0  0  0  0  0  0  0  0  0  0
   -6.3317   -0.2575   -0.1973 C   0  0  0  0  0  0  0  0  0  0  0  0
    4.4525   -5.2253   -1.0467 C   0  0  0  0  0  0  0  0  0  0  0  0
   -8.0483   -1.5787   -1.1788 C   0  0  0  0  0  0  0  0  0  0  0  0
  1  6  1  0
  1  9  1  0
  2 20  1  0
  2 26  1  0
  3 25  1  0
  3 27  1  0
  4  7  1  0
  4 15  2  0
  4 16  1  0
  5 15  1  0
  5 19  1  0
  6  7  1  0
  6  8  1  0
  8 13  2  0
  8 14  1  0
  9 10  1  0
 10 11  1  0
 11 12  1  0
 12 21  2  0
 12 22  1  0
 13 17  1  0
 14 18  2  0
 16 19  2  0
 17 20  2  0
 18 20  1  0
 21 23  1  0
 22 24  2  0
 23 25  2  0
 24 25  1  0
M  CHG  1   4   1
M  END
>  <PUBCHEM_COMPOUND_CID>  (1) 
5229

>  <PUBCHEM_CONFORMER_RMSD>  (1) 
1

>  <PUBCHEM_CONFORMER_DIVERSEORDER>  (1) 
1
251
48
90
195
204
70
217
228
178
51
249
54
198
271
156
58
13
234
207
37
103
49
161
211
108
214
93
96
135
57
194
144
129
130
99
241
203
75
254
220
92
114
153
43
47
268
141
10
166
267
125
252
34
185
11
240
137
63
127
41
225
261
179
45
190
215
124
62
128
18
60
68
169
184
84
164
147
224
106
173
78
246
22
255
44
5
260
121
82
148
33
40
24
94
126
38
61
66
133
174
39
180
150
145
105
149
98
245
200
95
67
122
253
6
212
15
120
266
157
8
91
29
154
100
107
16
119
28
112
243
213
226
248
59
139
218
35
110
143
7
209
111
140
12
64
53
230
113
23
19
136
250
232
131
4
123
247
235
89
72
118
30
170
32
151
69
222
73
236
88
83
9
87
155
56
109
257
71
193
104
42
79
238
86
159
80
168
31
55
256
36
223
97
262
17
244
187
227
229
142
2
221
208
162
152
74
265
132
134
20
264
52
50
216
46
3
116
158
117
85
163
233
206
115
181
263
270
188
202
205
192
242
138
102
191
272
167
65
239
197
165
160
237
259
146
26
231
196
176
25
175
189
186
258
101
81
201
177
219
199
172
21
171
269
76
14
183
182
77
210
27
273

>  <PUBCHEM_MMFF94_PARTIAL_CHARGES>  (1) 
38
1 -0.56
11 0.14
12 -0.14
13 -0.15
14 -0.15
15 0.65
16 0.2
17 -0.15
18 -0.15
19 0.2
2 -0.36
20 0.08
21 -0.15
22 -0.15
23 -0.15
24 -0.15
25 0.08
26 0.28
27 0.28
3 -0.36
37 0.15
38 0.15
39 0.15
4 -0.76
40 0.15
41 0.15
42 0.15
43 0.45
44 0.15
45 0.15
46 0.15
47 0.15
48 0.15
5 -0.7
6 0.42
7 0.51
8 -0.14
9 0.28

>  <PUBCHEM_EFFECTIVE_ROTOR_COUNT>  (1) 
10

>  <PUBCHEM_PHARMACOPHORE_FEATURES>  (1) 
8
1 1 acceptor
1 2 acceptor
1 3 acceptor
1 5 donor
3 4 5 15 cation
5 4 5 15 16 19 rings
6 12 21 22 23 24 25 rings
6 8 13 14 17 18 20 rings

>  <PUBCHEM_HEAVY_ATOM_COUNT>  (1) 
27

>  <PUBCHEM_ATOM_DEF_STEREO_COUNT>  (1) 
0

>  <PUBCHEM_ATOM_UDEF_STEREO_COUNT>  (1) 
1

>  <PUBCHEM_BOND_DEF_STEREO_COUNT>  (1) 
0

>  <PUBCHEM_BOND_UDEF_STEREO_COUNT>  (1) 
0

>  <PUBCHEM_ISOTOPIC_ATOM_COUNT>  (1) 
0

>  <PUBCHEM_COMPONENT_COUNT>  (1) 
1

>  <PUBCHEM_CACTVS_TAUTO_COUNT>  (1) 
2

>  <PUBCHEM_CONFORMER_ID>  (1) 
0000146D00000001

>  <PUBCHEM_MMFF94_ENERGY>  (1) 
77.7763

>  <PUBCHEM_FEATURE_SELFOVERLAP>  (1) 
40.597

>  <PUBCHEM_SHAPE_FINGERPRINT>  (1) 
10411042 1 18193839245844573386
10554248 39 18340192052200223853
10595046 47 18341895260025550273
12107183 9 18125451804503765649
12166972 35 18271526394982179971
12788726 201 17466796970170809698
13533116 47 18335140899628716693
1361 4 18268145534947080279
13955234 65 18339089288506848512
14068700 686 17757846897752749619
14150023 79 18336266863923450784
15001296 14 18335129934767932827
15183329 4 18334294228663187339
16992752 21 18050863122251846734
16993427 108 17606660454362785554
19319366 153 18056478580419156125
20157964 124 18336826519673963785
21304303 282 17407950459491829260
21344244 78 18270949181537477000
23081809 10 17988928899347598161
23559900 14 18409450276005133491
255183 451 18269843021373971526
3004659 81 18202005417287691071
3103668 31 17684653121493268341
376196 1 17826514662982214272
44317340 157 18335708273773090433
5470011 282 18265037207296192423
6025842 7 18338517550870906580
6695519 79 17693117552802844275
6700243 42 17267533603514926950
67856867 119 18339359768304159673
77188 2 18266181630726912828

>  <PUBCHEM_SHAPE_MULTIPOLES>  (1) 
528.08
17.15
7.02
1.19
43.05
3.91
-0.06
-11.19
3.41
-18.35
1.78
-0.26
-0.42
-0.77

>  <PUBCHEM_SHAPE_SELFOVERLAP>  (1) 
1115.196

>  <PUBCHEM_SHAPE_VOLUME>  (1) 
298.4

>  <PUBCHEM_COORDINATE_TYPE>  (1) 
2
5
10

$$$$
