523
     RDKit          3D

  9  8  0  0  0  0  0  0  0  0999 V2000
   -1.0215   -1.6468    0.0065 O   0  0  0  0  0  0  0  0  0  0  0  0
   -3.1029   -0.2195   -0.0149 O   0  0  0  0  0  0  0  0  0  0  0  0
    3.3144    0.9945   -0.0148 O   0  0  0  0  0  0  0  0  0  0  0  0
   -1.8312    1.6898    0.0211 O   0  0  0  0  0  0  0  0  0  0  0  0
    0.5859    0.1920    0.0114 C   0  0  0  0  0  0  0  0  0  0  0  0
    1.7130   -0.8339    0.0123 C   0  0  0  0  0  0  0  0  0  0  0  0
   -0.7846   -0.4483   -0.0024 C   0  0  0  0  0  0  0  0  0  0  0  0
    3.0902   -0.2110   -0.0038 C   0  0  0  0  0  0  0  0  0  0  0  0
   -1.9632    0.4832   -0.0154 C   0  0  0  0  0  0  0  0  0  0  0  0
  1  7  2  0
  2  9  1  0
  3  8  2  0
  4  9  2  0
  5  6  1  0
  5  7  1  0
  6  8  1  0
  7  9  1  0
M  END
>  <PUBCHEM_COMPOUND_CID>  (1) 
523

>  <PUBCHEM_CONFORMER_RMSD>  (1) 
0.6

>  <PUBCHEM_CONFORMER_DIVERSEORDER>  (1) 
1
16
14
11
12
3
10
5
15
7
2
9
13
8
6
4

>  <PUBCHEM_MMFF94_PARTIAL_CHARGES>  (1) 
11
1 -0.57
14 0.06
15 0.5
2 -0.65
3 -0.57
4 -0.57
5 0.06
6 0.06
7 0.51
8 0.45
9 0.72

>  <PUBCHEM_EFFECTIVE_ROTOR_COUNT>  (1) 
4

>  <PUBCHEM_PHARMACOPHORE_FEATURES>  (1) 
5
1 1 acceptor
1 2 acceptor
1 3 acceptor
1 4 acceptor
3 2 4 9 anion

>  <PUBCHEM_HEAVY_ATOM_COUNT>  (1) 
9

>  <PUBCHEM_ATOM_DEF_STEREO_COUNT>  (1) 
0

>  <PUBCHEM_ATOM_UDEF_STEREO_COUNT>  (1) 
0

>  <PUBCHEM_BOND_DEF_STEREO_COUNT>  (1) 
0

>  <PUBCHEM_BOND_UDEF_STEREO_COUNT>  (1) 
0

>  <PUBCHEM_ISOTOPIC_ATOM_COUNT>  (1) 
0

>  <PUBCHEM_COMPONENT_COUNT>  (1) 
1

>  <PUBCHEM_CACTVS_TAUTO_COUNT>  (1) 
6

>  <PUBCHEM_CONFORMER_ID>  (1) 
0000020B00000001

>  <PUBCHEM_MMFF94_ENERGY>  (1) 
8.8351

>  <PUBCHEM_FEATURE_SELFOVERLAP>  (1) 
25.443

>  <PUBCHEM_SHAPE_FINGERPRINT>  (1) 
12932764 1 17131539583576329094
14325111 11 18410573937912085632
14390081 3 18412543206487909232
20653085 51 18127423262578557529
20871998 184 18200318852192137175
21040471 1 18338797806008404842
23552423 10 18194401087132072811
29004967 10 14562815417488464462
5460574 1 9295285045177045666

>  <PUBCHEM_SHAPE_MULTIPOLES>  (1) 
161.74
5.04
1.32
0.57
2.08
0.06
0
1.01
-0.03
-0.35
0.01
0.03
-0.01
-0.01

>  <PUBCHEM_SHAPE_SELFOVERLAP>  (1) 
308.938

>  <PUBCHEM_SHAPE_VOLUME>  (1) 
97.5

>  <PUBCHEM_COORDINATE_TYPE>  (1) 
2
5
10

$$$$
