5248
     RDKit          3D

 19 18  0  0  0  0  0  0  0  0999 V2000
    8.0700    0.1042    0.1002 S   0  0  0  0  0  0  0  0  0  0  0  0
    6.5560   -0.5092    0.0493 O   0  0  0  0  0  0  0  0  0  0  0  0
    9.0218   -1.2141   -0.0308 O   0  0  0  0  0  0  0  0  0  0  0  0
    8.2589    0.9004   -1.0982 O   0  0  0  0  0  0  0  0  0  0  0  0
    8.2971    0.6905    1.4080 O   0  0  0  0  0  0  0  0  0  0  0  0
   -2.2017    0.4086   -0.1020 C   0  0  0  0  0  0  0  0  0  0  0  0
   -3.5116   -0.3854   -0.1543 C   0  0  0  0  0  0  0  0  0  0  0  0
   -0.9521   -0.4756   -0.1081 C   0  0  0  0  0  0  0  0  0  0  0  0
   -4.7975    0.4485   -0.1236 C   0  0  0  0  0  0  0  0  0  0  0  0
    0.3248    0.3676   -0.0793 C   0  0  0  0  0  0  0  0  0  0  0  0
   -6.0714   -0.3998   -0.1190 C   0  0  0  0  0  0  0  0  0  0  0  0
    1.6080   -0.4706   -0.0711 C   0  0  0  0  0  0  0  0  0  0  0  0
   -7.3536    0.4326   -0.0096 C   0  0  0  0  0  0  0  0  0  0  0  0
    2.8852    0.3737   -0.1172 C   0  0  0  0  0  0  0  0  0  0  0  0
   -8.6575   -0.3660    0.0926 C   0  0  0  0  0  0  0  0  0  0  0  0
    4.1647   -0.4610   -0.0389 C   0  0  0  0  0  0  0  0  0  0  0  0
   -9.9084    0.5122    0.1461 C   0  0  0  0  0  0  0  0  0  0  0  0
    5.4396    0.3704    0.0016 C   0  0  0  0  0  0  0  0  0  0  0  0
  -11.1722   -0.3271    0.2543 C   0  0  0  0  0  0  0  0  0  0  0  0
  1  2  1  0
  1  3  1  0
  1  4  2  0
  1  5  2  0
  2 18  1  0
  6  7  1  0
  6  8  1  0
  7  9  1  0
  8 10  1  0
  9 11  1  0
 10 12  1  0
 11 13  1  0
 12 14  1  0
 13 15  1  0
 14 16  1  0
 15 17  1  0
 16 18  1  0
 17 19  1  0
M  END
>  <PUBCHEM_COMPOUND_CID>  (1) 
5248

>  <PUBCHEM_CONFORMER_RMSD>  (1) 
1.4

>  <PUBCHEM_CONFORMER_DIVERSEORDER>  (1) 
1
18
13
24
31
6
34
23
37
36
16
8
5
10
14
22
25
27
15
7
17
30
21
38
26
11
29
19
4
39
33
20
28
32
9
2
12
3
35

>  <PUBCHEM_MMFF94_PARTIAL_CHARGES>  (1) 
7
1 1.67
18 0.28
2 -0.46
3 -0.68
4 -0.65
49 0.5
5 -0.65

>  <PUBCHEM_EFFECTIVE_ROTOR_COUNT>  (1) 
14

>  <PUBCHEM_PHARMACOPHORE_FEATURES>  (1) 
5
1 19 hydrophobe
1 3 acceptor
1 4 acceptor
1 5 acceptor
4 1 3 4 5 anion

>  <PUBCHEM_HEAVY_ATOM_COUNT>  (1) 
19

>  <PUBCHEM_ATOM_DEF_STEREO_COUNT>  (1) 
0

>  <PUBCHEM_ATOM_UDEF_STEREO_COUNT>  (1) 
0

>  <PUBCHEM_BOND_DEF_STEREO_COUNT>  (1) 
0

>  <PUBCHEM_BOND_UDEF_STEREO_COUNT>  (1) 
0

>  <PUBCHEM_ISOTOPIC_ATOM_COUNT>  (1) 
0

>  <PUBCHEM_COMPONENT_COUNT>  (1) 
1

>  <PUBCHEM_CACTVS_TAUTO_COUNT>  (1) 
1

>  <PUBCHEM_CONFORMER_ID>  (1) 
0000148000000001

>  <PUBCHEM_MMFF94_ENERGY>  (1) 
1.6813

>  <PUBCHEM_FEATURE_SELFOVERLAP>  (1) 
25.43

>  <PUBCHEM_SHAPE_FINGERPRINT>  (1) 
14123256 10 18411418405802446599
14251764 18 18411138026490912784
14251764 46 18113337509900243379
14251920 1 18410575080368124614
15510794 2 18341618114070282815
155225 1 16630239295360854736
21362267 2 18339909515613522285
21362267 20 17530968016691542219
21362267 313 17823409405742695313
232437 2 18333732407531673859
23521765 1 18341894090839332351
23581129 1 18409449184756236295
33684 2 18410855455833200995
67123 10 18040998449438544695
8209 1 18410855464428403861

>  <PUBCHEM_SHAPE_MULTIPOLES>  (1) 
371.38
42.1
0.86
0.74
23.99
0.03
0.06
-0.05
3.68
-0.62
-0.01
-0.92
-0.1
0.02

>  <PUBCHEM_SHAPE_SELFOVERLAP>  (1) 
664.726

>  <PUBCHEM_SHAPE_VOLUME>  (1) 
239

>  <PUBCHEM_COORDINATE_TYPE>  (1) 
2
5
10

$$$$
