5268
     RDKit          3D

 28 32  0  0  1  0  0  0  0  0999 V2000
   -2.1655   -3.5534   -0.4928 O   0  0  0  0  0  0  0  0  0  0  0  0
    3.9547   -1.0142    0.6616 O   0  0  0  0  0  0  0  0  0  0  0  0
    3.4532    1.6458   -0.3270 O   0  0  0  0  0  0  0  0  0  0  0  0
   -3.7794   -0.3996   -0.3120 N   0  0  0  0  0  0  0  0  0  0  0  0
    0.2636   -0.9269    0.8046 N   0  0  0  0  0  0  0  0  0  0  0  0
   -4.2204   -2.5621   -0.9021 N   0  0  0  0  0  0  0  0  0  0  0  0
   -2.5132   -1.1451   -0.0858 C   0  0  0  0  0  0  0  0  0  0  0  0
   -1.3894   -0.6679   -1.0235 C   0  0  0  0  0  0  0  0  0  0  0  0
   -2.1271   -1.1828    1.4039 C   0  0  0  0  0  0  0  0  0  0  0  0
   -0.0039   -1.1795   -0.6164 C   0  0  0  0  0  0  0  0  0  0  0  0
   -0.6914   -1.6592    1.6448 C   0  0  0  0  0  0  0  0  0  0  0  0
   -2.8978   -2.5743   -0.5059 C   0  0  0  0  0  0  0  0  0  0  0  0
   -4.8316   -1.2764   -0.8129 C   0  0  0  0  0  0  0  0  0  0  0  0
    1.6346   -1.3152    1.1391 C   0  0  0  0  0  0  0  0  0  0  0  0
   -4.0380    0.9483   -0.1044 C   0  0  0  0  0  0  0  0  0  0  0  0
    2.6466   -0.5530    0.2963 C   0  0  0  0  0  0  0  0  0  0  0  0
    2.5465    0.9481    0.5329 C   0  0  0  0  0  0  0  0  0  0  0  0
   -5.3150    1.5178   -0.3668 C   0  0  0  0  0  0  0  0  0  0  0  0
   -3.0412    1.8380    0.3840 C   0  0  0  0  0  0  0  0  0  0  0  0
    4.9439   -0.2093    0.1610 C   0  0  0  0  0  0  0  0  0  0  0  0
   -5.5750    2.8721   -0.1570 C   0  0  0  0  0  0  0  0  0  0  0  0
   -3.3011    3.1922    0.5938 C   0  0  0  0  0  0  0  0  0  0  0  0
    4.6990    1.0757   -0.3282 C   0  0  0  0  0  0  0  0  0  0  0  0
   -4.5680    3.7093    0.3234 C   0  0  0  0  0  0  0  0  0  0  0  0
    6.2417   -0.7207    0.1632 C   0  0  0  0  0  0  0  0  0  0  0  0
    5.7447    1.8334   -0.8560 C   0  0  0  0  0  0  0  0  0  0  0  0
    7.2893    0.0430   -0.3521 C   0  0  0  0  0  0  0  0  0  0  0  0
    7.0403    1.3160   -0.8660 C   0  0  0  0  0  0  0  0  0  0  0  0
  1 12  2  0
  2 16  1  0
  2 20  1  0
  3 17  1  0
  3 23  1  0
  4  7  1  0
  4 13  1  0
  4 15  1  0
  5 10  1  0
  5 11  1  0
  5 14  1  0
  6 12  1  0
  6 13  1  0
  7  8  1  0
  7  9  1  0
  7 12  1  0
  8 10  1  0
  9 11  1  0
 14 16  1  0
 15 18  2  0
 15 19  1  0
 16 17  1  0
 18 21  1  0
 19 22  2  0
 20 23  2  0
 20 25  1  0
 21 24  2  0
 22 24  1  0
 23 26  1  0
 25 27  2  0
 26 28  2  0
 27 28  1  0
M  END
>  <PUBCHEM_COMPOUND_CID>  (1) 
5268

>  <PUBCHEM_CONFORMER_RMSD>  (1) 
0.8

>  <PUBCHEM_CONFORMER_DIVERSEORDER>  (1) 
1
35
24
32
15
12
30
8
2
28
19
22
11
34
29
33
20
25
14
31
23
10
18
26
6
16
9
21
4
5
27
17
13
7
3

>  <PUBCHEM_MMFF94_PARTIAL_CHARGES>  (1) 
36
1 -0.57
10 0.27
11 0.27
12 0.57
13 0.67
14 0.27
15 0.1
16 0.28
17 0.28
18 -0.15
19 -0.15
2 -0.36
20 0.08
21 -0.15
22 -0.15
23 0.08
24 -0.15
25 -0.15
26 -0.15
27 -0.15
28 -0.15
3 -0.36
4 -0.84
41 0.37
45 0.15
46 0.15
47 0.15
48 0.15
49 0.15
5 -0.81
50 0.15
51 0.15
52 0.15
53 0.15
6 -0.73
7 0.43

>  <PUBCHEM_EFFECTIVE_ROTOR_COUNT>  (1) 
5.4

>  <PUBCHEM_PHARMACOPHORE_FEATURES>  (1) 
11
1 1 acceptor
1 2 acceptor
1 3 acceptor
1 4 cation
1 5 cation
1 6 donor
5 4 6 7 12 13 rings
6 15 18 19 21 22 24 rings
6 2 3 16 17 20 23 rings
6 20 23 25 26 27 28 rings
6 5 7 8 9 10 11 rings

>  <PUBCHEM_HEAVY_ATOM_COUNT>  (1) 
28

>  <PUBCHEM_ATOM_DEF_STEREO_COUNT>  (1) 
0

>  <PUBCHEM_ATOM_UDEF_STEREO_COUNT>  (1) 
1

>  <PUBCHEM_BOND_DEF_STEREO_COUNT>  (1) 
0

>  <PUBCHEM_BOND_UDEF_STEREO_COUNT>  (1) 
0

>  <PUBCHEM_ISOTOPIC_ATOM_COUNT>  (1) 
0

>  <PUBCHEM_COMPONENT_COUNT>  (1) 
1

>  <PUBCHEM_CACTVS_TAUTO_COUNT>  (1) 
2

>  <PUBCHEM_CONFORMER_ID>  (1) 
0000149400000001

>  <PUBCHEM_MMFF94_ENERGY>  (1) 
92.7101

>  <PUBCHEM_FEATURE_SELFOVERLAP>  (1) 
55.869

>  <PUBCHEM_SHAPE_FINGERPRINT>  (1) 
10165383 225 17917437493642169763
10411042 1 18052253201217884535
10454371 7 18341897393680323821
10595046 47 18336824286227666382
10670039 82 18411411817528667677
10730089 173 18412826876208868873
11763715 3 17688042219935310255
12107183 9 18048589331535432994
12107698 1 18341611585070763317
12788726 201 18337096978207604475
12895837 130 18335990821674233253
13167372 99 18335420150039221344
13690498 29 17986948742466151471
13782708 43 16987428900937563279
14251764 75 17981052912321474577
14257110 125 18336547119182248921
14840074 17 17749113249017634053
14856354 85 18269840981075180215
15064981 113 18129366129763657478
15064981 194 18042135421713392359
15163728 17 18200320896917777519
15183329 4 18413109459666683652
15198563 99 18198889470808198295
15297060 5 18130509635211093753
15348495 7 11169910611190761782
15419008 42 17844815780913190854
15604295 49 18200588237738405560
1577012 14 18334574638355814872
15876981 60 18337674230164166989
16126227 98 18271250413717417161
16991971 28 17984125236168284967
16992828 155 17968933081331484093
17844677 252 18339366378633069028
17913733 40 15285355103031411568
18608769 82 18335147522615915913
19611394 137 18042701649079931595
20101258 96 18050569840114542555
21033650 10 18267047040692790220
21236236 1 18408886247693245044
21756936 100 18113903753861622243
21859007 373 17988065743669878488
22122407 14 18188501275789816528
221357 26 18270397316746576088
22393880 68 18272366503575427520
23198884 109 18409729586212980838
23522609 53 17968112910571788876
23559900 14 18197207268386208912
23569943 247 16806986785642288098
25147074 1 18187352208723586050
255183 451 17481130625011798959
2838139 119 18341327816602868645
3610482 184 18187663422064429716
38570 142 18041570135155122834
4073 2 17968383442008511874
445580 204 18408040715131120648
445580 37 18411142441537919300
44802255 64 17774726458744308686
4516262 110 17968088690612473919
497634 4 18187919620863321287
5104073 3 17240199946026619346
5171179 24 18057879345353881313
5283173 99 18342175583470763616
531348 171 18342741818948124294
5372103 7 17461142272634197213
59755656 520 18336261254384815781
6299153 45 18190739739845586138
6327066 14 18264766555004181301
6328613 192 18333735719600565596
6700243 42 17626421104273727119
7288768 16 17530972358490845211
7808743 9 18339920416481969377

>  <PUBCHEM_SHAPE_MULTIPOLES>  (1) 
543.68
17.5
3.68
1.09
24.91
1.16
0.2
10.14
-3.98
-6.86
-0.11
-0.13
-0.39
-1.88

>  <PUBCHEM_SHAPE_SELFOVERLAP>  (1) 
1187.745

>  <PUBCHEM_SHAPE_VOLUME>  (1) 
293

>  <PUBCHEM_COORDINATE_TYPE>  (1) 
2
5
10

$$$$
