5269
     RDKit          3D

 15 17  0  0  0  0  0  0  0  0999 V2000
   -2.4621    0.9251   -0.1415 O   0  0  0  0  0  0  0  0  0  0  0  0
   -4.4769   -0.1585   -0.1939 O   0  0  0  0  0  0  0  0  0  0  0  0
   -0.3839   -0.3817   -0.0546 C   0  0  0  0  0  0  0  0  0  0  0  0
   -1.2229   -1.6273   -0.1469 C   0  0  0  0  0  0  0  0  0  0  0  0
    1.0369   -0.3937   -0.0395 C   0  0  0  0  0  0  0  0  0  0  0  0
   -2.5614   -1.4123    0.5390 C   0  0  0  0  0  0  0  0  0  0  0  0
   -1.0553    0.8471   -0.0377 C   0  0  0  0  0  0  0  0  0  0  0  0
    1.7295    0.8451    0.0423 C   0  0  0  0  0  0  0  0  0  0  0  0
   -0.3763    2.0574    0.0332 C   0  0  0  0  0  0  0  0  0  0  0  0
    1.0126    2.0511    0.0838 C   0  0  0  0  0  0  0  0  0  0  0  0
   -3.2683   -0.1956    0.0101 C   0  0  0  0  0  0  0  0  0  0  0  0
    1.8145   -1.5728   -0.1064 C   0  0  0  0  0  0  0  0  0  0  0  0
    3.1338    0.8654    0.0734 C   0  0  0  0  0  0  0  0  0  0  0  0
    3.2103   -1.5336   -0.0771 C   0  0  0  0  0  0  0  0  0  0  0  0
    3.8693   -0.3158    0.0161 C   0  0  0  0  0  0  0  0  0  0  0  0
  1  7  1  0
  1 11  1  0
  2 11  2  0
  3  4  1  0
  3  5  2  0
  3  7  1  0
  4  6  1  0
  5  8  1  0
  5 12  1  0
  6 11  1  0
  7  9  2  0
  8 10  2  0
  8 13  1  0
  9 10  1  0
 12 14  2  0
 13 15  2  0
 14 15  1  0
M  END
>  <PUBCHEM_COMPOUND_CID>  (1) 
5269

>  <PUBCHEM_CONFORMER_RMSD>  (1) 
0.4

>  <PUBCHEM_CONFORMER_DIVERSEORDER>  (1) 
1

>  <PUBCHEM_MMFF94_PARTIAL_CHARGES>  (1) 
19
1 -0.23
10 -0.15
11 0.66
12 -0.15
13 -0.15
14 -0.15
15 -0.15
2 -0.57
20 0.15
21 0.15
22 0.15
23 0.15
24 0.15
25 0.15
3 -0.14
4 0.14
6 0.06
7 0.08
9 -0.15

>  <PUBCHEM_EFFECTIVE_ROTOR_COUNT>  (1) 
0.6

>  <PUBCHEM_PHARMACOPHORE_FEATURES>  (1) 
4
1 2 acceptor
6 1 3 4 6 7 11 rings
6 3 5 7 8 9 10 rings
6 5 8 12 13 14 15 rings

>  <PUBCHEM_HEAVY_ATOM_COUNT>  (1) 
15

>  <PUBCHEM_ATOM_DEF_STEREO_COUNT>  (1) 
0

>  <PUBCHEM_ATOM_UDEF_STEREO_COUNT>  (1) 
0

>  <PUBCHEM_BOND_DEF_STEREO_COUNT>  (1) 
0

>  <PUBCHEM_BOND_UDEF_STEREO_COUNT>  (1) 
0

>  <PUBCHEM_ISOTOPIC_ATOM_COUNT>  (1) 
0

>  <PUBCHEM_COMPONENT_COUNT>  (1) 
1

>  <PUBCHEM_CACTVS_TAUTO_COUNT>  (1) 
1

>  <PUBCHEM_CONFORMER_ID>  (1) 
0000149500000001

>  <PUBCHEM_MMFF94_ENERGY>  (1) 
46.7876

>  <PUBCHEM_FEATURE_SELFOVERLAP>  (1) 
20.349

>  <PUBCHEM_SHAPE_FINGERPRINT>  (1) 
10130415 120 18408602556507940163
10608611 8 18409725170807317484
10618630 7 18410293597065217052
10967382 1 18411138051997011374
11132069 177 18411131472191321762
11471102 20 18410852183073409333
11543360 7 15864365673948740638
12032990 46 18410579469882866318
12382932 28 18412544331684957954
13140716 1 18195521725904158984
13221675 6 18410293626924422146
13380535 76 18411136952322152118
13571099 22 18411419526788910831
14115302 16 17967543384110579935
14144814 61 18412266129267552986
15196674 1 18411138008857258949
15219456 202 18337391646584551347
15442244 35 18340208479416129696
15536298 74 18343582966817637648
15848700 24 18341606018819222526
16945 1 18339644541636197324
193761 8 17689433784922394414
19591789 44 16180746468328128256
200 152 17988636411436540863
20201158 50 18409449193388576859
20510252 161 18200873959397918184
20588541 1 18409731776450824196
20645477 70 18413387644197617295
20871998 22 18199757955274898014
21029758 11 18342168956331230177
21267235 1 18410865343096225998
21501502 16 18267872683504278160
21501925 9 18410848850511090552
221490 88 18191593162157618603
22721475 48 18411142419904813928
2334 1 17762901365231568288
23402539 116 18271232837945714055
23402655 69 18341604898355160269
23463225 33 18410013238790578820
23559900 14 18267298734577630498
2748010 2 18339640023520376276
3312278 4 18408609170952800218
335352 9 18122344571072433620
34934 24 18339634633357564082
5104073 3 18410575084684185409
528886 8 18412258471604614810
537710 114 18410299120335423356
53812653 166 18270958063429331872
69090 78 18342171181060986079
7364860 26 18269836583033573000
81228 2 18193289502519818688
8809292 202 18260271879553700963
9709674 26 18412267198788723942

>  <PUBCHEM_SHAPE_MULTIPOLES>  (1) 
296.95
6.29
2.07
0.63
1.87
0.39
-0.02
-1.56
0.03
-0.42
-0.04
0.02
-0.03
0.19

>  <PUBCHEM_SHAPE_SELFOVERLAP>  (1) 
662.031

>  <PUBCHEM_SHAPE_VOLUME>  (1) 
157.3

>  <PUBCHEM_COORDINATE_TYPE>  (1) 
2
5
10

$$$$
