5272
     RDKit          3D

 26 28  0  0  1  0  0  0  0  0999 V2000
   -4.0705    2.0479   -0.4693 O   0  0  0  0  0  0  0  0  0  0  0  0
    0.8314    2.1443   -1.3940 O   0  0  0  0  0  0  0  0  0  0  0  0
   -1.0476    0.4559   -2.4991 N   0  0  0  0  0  0  0  0  0  0  0  0
    0.0803    0.0009   -1.8352 N   0  0  0  0  0  0  0  0  0  0  0  0
    2.0407    0.2642   -0.6778 N   0  0  0  0  0  0  0  0  0  0  0  0
   -3.6203   -0.0673    0.2846 C   0  0  0  0  0  0  0  0  0  0  0  0
   -2.3601    0.4791   -0.4231 C   0  0  0  0  0  0  0  0  0  0  0  0
   -4.3346    1.2278    0.6980 C   0  0  0  0  0  0  0  0  0  0  0  0
   -2.6251    1.9944   -0.3968 C   0  0  0  0  0  0  0  0  0  0  0  0
   -3.5983    2.0248    1.7724 C   0  0  0  0  0  0  0  0  0  0  0  0
   -2.3839    2.5497    1.0072 C   0  0  0  0  0  0  0  0  0  0  0  0
   -3.3169   -1.0370    1.4160 C   0  0  0  0  0  0  0  0  0  0  0  0
   -2.2500   -0.0465   -1.8522 C   0  0  0  0  0  0  0  0  0  0  0  0
   -2.6022   -2.2564    0.9139 C   0  0  0  0  0  0  0  0  0  0  0  0
   -1.3781   -2.6236    1.3204 C   0  0  0  0  0  0  0  0  0  0  0  0
   -0.6666   -3.8491    0.8253 C   0  0  0  0  0  0  0  0  0  0  0  0
    0.9817    0.9275   -1.3051 C   0  0  0  0  0  0  0  0  0  0  0  0
    0.6805   -3.4912    0.1942 C   0  0  0  0  0  0  0  0  0  0  0  0
    1.3905   -4.7353   -0.3403 C   0  0  0  0  0  0  0  0  0  0  0  0
    2.7123   -4.3812   -1.0028 C   0  0  0  0  0  0  0  0  0  0  0  0
    3.1558    0.8337   -0.0206 C   0  0  0  0  0  0  0  0  0  0  0  0
    4.1234    0.0087    0.5531 C   0  0  0  0  0  0  0  0  0  0  0  0
    3.2887    2.2203    0.0535 C   0  0  0  0  0  0  0  0  0  0  0  0
    5.2235    0.5702    1.2010 C   0  0  0  0  0  0  0  0  0  0  0  0
    4.3890    2.7817    0.7015 C   0  0  0  0  0  0  0  0  0  0  0  0
    5.3564    1.9566    1.2752 C   0  0  0  0  0  0  0  0  0  0  0  0
  1  8  1  0
  1  9  1  0
  2 17  2  0
  3  4  1  0
  3 13  1  0
  4 17  1  0
  5 17  1  0
  5 21  1  0
  6  7  1  0
  6  8  1  0
  6 12  1  0
  7  9  1  0
  7 13  1  0
  8 10  1  0
  9 11  1  0
 10 11  1  0
 12 14  1  0
 14 15  2  0
 15 16  1  0
 16 18  1  0
 18 19  1  0
 19 20  1  0
 21 22  2  0
 21 23  1  0
 22 24  1  0
 23 25  2  0
 24 26  2  0
 25 26  1  0
M  END
>  <PUBCHEM_COMPOUND_CID>  (1) 
5272

>  <PUBCHEM_CONFORMER_RMSD>  (1) 
1.2

>  <PUBCHEM_CONFORMER_DIVERSEORDER>  (1) 
1
121
125
127
88
70
95
148
29
14
31
65
89
43
80
32
20
108
10
130
27
120
2
49
131
30
73
147
117
139
102
100
67
74
141
44
62
91
24
94
136
37
28
114
41
59
42
151
76
21
7
12
128
110
143
55
56
63
105
57
111
118
150
106
40
19
132
134
71
149
93
123
135
104
17
124
90
138
146
15
18
38
16
98
69
72
116
78
107
133
50
85
140
87
113
34
129
83
47
64
39
33
97
8
4
3
23
48
103
26
112
119
115
35
142
81
66
101
137
52
46
45
51
58
84
25
60
79
96
53
22
36
61
145
6
54
5
75
9
144
68
13
109
82
126
77
122
92
99
11
86

>  <PUBCHEM_MMFF94_PARTIAL_CHARGES>  (1) 
29
1 -0.56
12 0.14
13 0.27
14 -0.29
15 -0.29
16 0.14
17 0.69
2 -0.57
21 0.12
22 -0.15
23 -0.15
24 -0.15
25 -0.15
26 -0.15
3 -0.64
39 0.15
4 -0.42
40 0.36
41 0.15
42 0.37
49 0.37
5 -0.55
53 0.15
54 0.15
55 0.15
56 0.15
57 0.15
8 0.28
9 0.28

>  <PUBCHEM_EFFECTIVE_ROTOR_COUNT>  (1) 
12

>  <PUBCHEM_PHARMACOPHORE_FEATURES>  (1) 
9
1 1 acceptor
1 2 acceptor
1 20 hydrophobe
1 3 donor
1 4 donor
1 5 donor
4 15 16 18 19 hydrophobe
6 21 22 23 24 25 26 rings
7 1 6 7 8 9 10 11 rings

>  <PUBCHEM_HEAVY_ATOM_COUNT>  (1) 
26

>  <PUBCHEM_ATOM_DEF_STEREO_COUNT>  (1) 
0

>  <PUBCHEM_ATOM_UDEF_STEREO_COUNT>  (1) 
4

>  <PUBCHEM_BOND_DEF_STEREO_COUNT>  (1) 
0

>  <PUBCHEM_BOND_UDEF_STEREO_COUNT>  (1) 
1

>  <PUBCHEM_ISOTOPIC_ATOM_COUNT>  (1) 
0

>  <PUBCHEM_COMPONENT_COUNT>  (1) 
1

>  <PUBCHEM_CACTVS_TAUTO_COUNT>  (1) 
3

>  <PUBCHEM_CONFORMER_ID>  (1) 
0000149800000001

>  <PUBCHEM_MMFF94_ENERGY>  (1) 
61.7597

>  <PUBCHEM_FEATURE_SELFOVERLAP>  (1) 
47.211

>  <PUBCHEM_SHAPE_FINGERPRINT>  (1) 
11370993 144 18408880737735513912
11370993 70 18409448085249916162
11552529 35 17977093888765811346
12422481 6 18115290191175558490
12633257 1 18261405476269057365
12788726 201 17613730631729551966
13004483 165 17615127019775785715
13402501 40 18117847599181857694
13533116 47 18267310820483434005
14100547 121 18119527884544523866
14950920 106 18336536214192102976
14955137 171 17114694829901584139
15274700 34 17677343848207653955
15475509 8 8862671141032454427
16120349 306 18040986362799337419
23559900 14 18263946374562548700
469060 322 16914819403875834263
5047190 48 18263932205913753636
5171179 24 17760074130105179021
532947 4 18118397341993863871
9981440 41 17775005674273061949

>  <PUBCHEM_SHAPE_MULTIPOLES>  (1) 
508.39
9.84
5.57
1.79
8.21
8.69
0.64
-8.11
-4.52
2.46
-0.58
-0.67
-0.28
1.38

>  <PUBCHEM_SHAPE_SELFOVERLAP>  (1) 
1050.738

>  <PUBCHEM_SHAPE_VOLUME>  (1) 
293.5

>  <PUBCHEM_COORDINATE_TYPE>  (1) 
2
5
10

$$$$
