5279
     RDKit          3D

 35 42  0  0  1  0  0  0  0  0999 V2000
    0.9874   -1.9453    1.7480 O   0  0  0  0  0  0  0  0  0  0  0  0
    3.7693   -1.6767   -0.7116 O   0  0  0  0  0  0  0  0  0  0  0  0
   -4.4145    2.6108   -0.3962 O   0  0  0  0  0  0  0  0  0  0  0  0
    1.6223    0.0108    0.5976 N   0  0  0  0  0  0  0  0  0  0  0  0
   -0.9582   -1.5303    0.5572 N   0  0  0  0  0  0  0  0  0  0  0  0
    1.1013   -1.7406   -1.9104 N   0  0  0  0  0  0  0  0  0  0  0  0
   -2.6604    4.1554   -0.4987 N   0  0  0  0  0  0  0  0  0  0  0  0
    2.0701   -1.2995    1.0729 C   0  0  0  0  0  0  0  0  0  0  0  0
    2.6593   -2.2333   -0.0223 C   0  0  0  0  0  0  0  0  0  0  0  0
   -0.0033   -2.5370    0.9389 C   0  0  0  0  0  0  0  0  0  0  0  0
    1.6256   -2.7714   -1.0163 C   0  0  0  0  0  0  0  0  0  0  0  0
    0.5057   -3.4158   -0.2078 C   0  0  0  0  0  0  0  0  0  0  0  0
    0.3649    0.5459    0.3956 C   0  0  0  0  0  0  0  0  0  0  0  0
   -0.8611   -0.1822    0.3824 C   0  0  0  0  0  0  0  0  0  0  0  0
    0.2080    1.9582    0.1206 C   0  0  0  0  0  0  0  0  0  0  0  0
   -2.0572    0.6029    0.1227 C   0  0  0  0  0  0  0  0  0  0  0  0
    2.4323    1.1408    0.3474 C   0  0  0  0  0  0  0  0  0  0  0  0
    3.0884   -1.1645    2.2316 C   0  0  0  0  0  0  0  0  0  0  0  0
   -2.3274   -1.7509    0.3922 C   0  0  0  0  0  0  0  0  0  0  0  0
    1.6224    2.2938    0.1152 C   0  0  0  0  0  0  0  0  0  0  0  0
   -0.9510    2.7004   -0.0892 C   0  0  0  0  0  0  0  0  0  0  0  0
   -2.1314    1.9771   -0.0809 C   0  0  0  0  0  0  0  0  0  0  0  0
   -3.0025   -0.5194    0.1470 C   0  0  0  0  0  0  0  0  0  0  0  0
   -1.2191    4.1423   -0.3664 C   0  0  0  0  0  0  0  0  0  0  0  0
    3.8388    1.2777    0.3065 C   0  0  0  0  0  0  0  0  0  0  0  0
   -3.2353    2.8987   -0.3392 C   0  0  0  0  0  0  0  0  0  0  0  0
    2.2616    3.5410   -0.1115 C   0  0  0  0  0  0  0  0  0  0  0  0
   -3.0369   -2.9696    0.4485 C   0  0  0  0  0  0  0  0  0  0  0  0
   -4.4078   -0.5774   -0.0372 C   0  0  0  0  0  0  0  0  0  0  0  0
    0.1326   -2.3042   -2.8394 C   0  0  0  0  0  0  0  0  0  0  0  0
    4.4137   -2.6433   -1.5304 C   0  0  0  0  0  0  0  0  0  0  0  0
    4.4286    2.5231    0.0741 C   0  0  0  0  0  0  0  0  0  0  0  0
    3.6503    3.6470   -0.1258 C   0  0  0  0  0  0  0  0  0  0  0  0
   -4.4185   -2.9730    0.2623 C   0  0  0  0  0  0  0  0  0  0  0  0
   -5.0980   -1.7914    0.0227 C   0  0  0  0  0  0  0  0  0  0  0  0
  1  8  1  0
  1 10  1  0
  2  9  1  0
  2 31  1  0
  3 26  2  0
  4  8  1  0
  4 13  1  0
  4 17  1  0
  5 10  1  0
  5 14  1  0
  5 19  1  0
  6 11  1  0
  6 30  1  0
  7 24  1  0
  7 26  1  0
  8  9  1  0
  8 18  1  0
  9 11  1  0
 10 12  1  0
 11 12  1  0
 13 14  2  0
 13 15  1  0
 14 16  1  0
 15 20  1  0
 15 21  2  0
 16 22  2  0
 16 23  1  0
 17 20  2  0
 17 25  1  0
 19 23  2  0
 19 28  1  0
 20 27  1  0
 21 22  1  0
 21 24  1  0
 22 26  1  0
 23 29  1  0
 25 32  2  0
 27 33  2  0
 28 34  2  0
 29 35  2  0
 32 33  1  0
 34 35  1  0
M  END
>  <PUBCHEM_COMPOUND_CID>  (1) 
5279

>  <PUBCHEM_CONFORMER_RMSD>  (1) 
0.8

>  <PUBCHEM_CONFORMER_DIVERSEORDER>  (1) 
1
8
3
7
4
6
2
5

>  <PUBCHEM_MMFF94_PARTIAL_CHARGES>  (1) 
41
1 -0.56
10 0.54
11 0.27
13 -0.05
14 -0.05
15 -0.01
16 -0.01
17 -0.15
19 -0.15
2 -0.56
21 -0.14
22 0.09
24 0.44
25 -0.15
26 0.54
27 -0.15
28 -0.15
29 -0.15
3 -0.57
30 0.27
31 0.28
32 -0.15
33 -0.15
34 -0.15
35 -0.15
4 -0.04
44 0.36
47 0.15
48 0.15
49 0.15
5 -0.04
50 0.37
51 0.15
58 0.15
59 0.15
6 -0.9
60 0.15
61 0.15
7 -0.73
8 0.54
9 0.28

>  <PUBCHEM_EFFECTIVE_ROTOR_COUNT>  (1) 
3.2

>  <PUBCHEM_PHARMACOPHORE_FEATURES>  (1) 
16
1 1 acceptor
1 2 acceptor
1 3 acceptor
1 4 cation
1 5 cation
1 6 cation
1 6 donor
1 7 donor
5 4 13 15 17 20 rings
5 5 14 16 19 23 rings
5 7 21 22 24 26 rings
6 1 8 9 10 11 12 rings
6 13 14 15 16 21 22 rings
6 17 20 25 27 32 33 rings
6 19 23 28 29 34 35 rings
7 1 4 5 8 10 13 14 rings

>  <PUBCHEM_HEAVY_ATOM_COUNT>  (1) 
35

>  <PUBCHEM_ATOM_DEF_STEREO_COUNT>  (1) 
0

>  <PUBCHEM_ATOM_UDEF_STEREO_COUNT>  (1) 
4

>  <PUBCHEM_BOND_DEF_STEREO_COUNT>  (1) 
0

>  <PUBCHEM_BOND_UDEF_STEREO_COUNT>  (1) 
0

>  <PUBCHEM_ISOTOPIC_ATOM_COUNT>  (1) 
0

>  <PUBCHEM_COMPONENT_COUNT>  (1) 
1

>  <PUBCHEM_CACTVS_TAUTO_COUNT>  (1) 
2

>  <PUBCHEM_CONFORMER_ID>  (1) 
0000149F00000001

>  <PUBCHEM_MMFF94_ENERGY>  (1) 
149.8934

>  <PUBCHEM_FEATURE_SELFOVERLAP>  (1) 
82.35

>  <PUBCHEM_SHAPE_FINGERPRINT>  (1) 
10006869 2 18265035015512060033
10675989 125 18116694250507473087
10967382 1 17975693110519696561
1100329 8 18192425264768491337
11513181 2 18272651285297388870
11578080 2 14542895638685896161
12107698 1 18409726257719042522
12553582 1 17833262022202423128
12788726 201 18045502177847187728
13140716 1 18336813204673986008
140371 6 17912647899962749200
14223421 5 18410292514638694873
14790565 3 17976264856883222609
15081414 286 18265342896522706483
15219462 58 17603592914924251002
15274700 242 17545297036892019528
15324884 4 17915727692298887242
19319366 153 17318438070891568112
19591789 44 17687745356311953449
20028762 73 17262162935336256239
20600515 1 17762031273682280282
20642791 35 18336266760917958971
20764821 26 18337675204768327581
20775438 99 17981294847596188599
20905425 154 18411140255114592276
23558518 356 18260551104173374145
23559900 14 18341609248914664960
3178227 256 17612883999439503107
3298306 158 18197504124062949156
34934 24 17832983128569356584
350125 39 18408318912773621000
4280585 95 18123189005394807798
59755656 215 18264775535548136364
6823239 73 18270400482337978802
70251023 43 18410586075669707779
9709674 26 18411416185441712461

>  <PUBCHEM_SHAPE_MULTIPOLES>  (1) 
682.75
8.15
5.97
1.38
2.91
3.55
0.45
-0.08
-0.06
-0.29
1.43
-0.89
-1.49
1.09

>  <PUBCHEM_SHAPE_SELFOVERLAP>  (1) 
1573.87

>  <PUBCHEM_SHAPE_VOLUME>  (1) 
347.9

>  <PUBCHEM_COORDINATE_TYPE>  (1) 
2
5
10

$$$$
