528
     RDKit          3D

 11 10  0  0  1  0  0  0  0  0999 V2000
   -1.6193    0.3780    0.0292 O   0  0  0  0  0  0  0  0  0  0  0  0
    2.9398    1.5312    0.3108 O   0  0  0  0  0  0  0  0  0  0  0  0
    3.7298   -0.5003   -0.3138 O   0  0  0  0  0  0  0  0  0  0  0  0
   -3.5631   -0.7731    0.5123 O   0  0  0  0  0  0  0  0  0  0  0  0
    1.2726   -1.4546   -0.8785 N   0  0  0  0  0  0  0  0  0  0  0  0
    0.5669   -0.0046    1.0202 C   0  0  0  0  0  0  0  0  0  0  0  0
    1.3188   -0.1053   -0.3160 C   0  0  0  0  0  0  0  0  0  0  0  0
   -0.9029   -0.4147    0.9643 C   0  0  0  0  0  0  0  0  0  0  0  0
    2.7825    0.2493   -0.1148 C   0  0  0  0  0  0  0  0  0  0  0  0
   -2.9510    0.0919   -0.0996 C   0  0  0  0  0  0  0  0  0  0  0  0
   -3.5741    1.0023   -1.1141 C   0  0  0  0  0  0  0  0  0  0  0  0
  1  8  1  0
  1 10  1  0
  2  9  1  0
  3  9  2  0
  4 10  2  0
  5  7  1  0
  6  7  1  0
  6  8  1  0
  7  9  1  0
 10 11  1  0
M  END
>  <PUBCHEM_COMPOUND_CID>  (1) 
528

>  <PUBCHEM_CONFORMER_RMSD>  (1) 
0.6

>  <PUBCHEM_CONFORMER_DIVERSEORDER>  (1) 
4
144
12
113
78
80
79
125
1
25
114
128
15
65
73
97
48
112
45
135
26
142
109
6
18
23
51
71
85
111
41
91
122
63
68
130
104
40
105
44
107
74
60
136
64
57
131
121
108
17
46
66
141
34
42
103
124
87
133
21
19
138
72
140
69
90
20
16
62
88
52
38
110
75
86
100
27
77
58
99
33
14
126
139
39
76
89
134
82
102
10
120
50
2
47
106
115
29
137
3
116
94
96
22
32
143
95
123
56
117
54
36
83
35
98
93
81
132
5
101
129
119
43
11
92
127
28
13
61
7
24
84
30
67
53
31
9
49
118
59
70
8
55
37

>  <PUBCHEM_MMFF94_PARTIAL_CHARGES>  (1) 
13
1 -0.43
10 0.66
11 0.06
17 0.36
18 0.36
2 -0.65
22 0.5
3 -0.57
4 -0.57
5 -0.99
7 0.33
8 0.28
9 0.66

>  <PUBCHEM_EFFECTIVE_ROTOR_COUNT>  (1) 
5

>  <PUBCHEM_PHARMACOPHORE_FEATURES>  (1) 
6
1 2 acceptor
1 3 acceptor
1 4 acceptor
1 5 cation
1 5 donor
3 2 3 9 anion

>  <PUBCHEM_HEAVY_ATOM_COUNT>  (1) 
11

>  <PUBCHEM_ATOM_DEF_STEREO_COUNT>  (1) 
0

>  <PUBCHEM_ATOM_UDEF_STEREO_COUNT>  (1) 
1

>  <PUBCHEM_BOND_DEF_STEREO_COUNT>  (1) 
0

>  <PUBCHEM_BOND_UDEF_STEREO_COUNT>  (1) 
0

>  <PUBCHEM_ISOTOPIC_ATOM_COUNT>  (1) 
0

>  <PUBCHEM_COMPONENT_COUNT>  (1) 
1

>  <PUBCHEM_CACTVS_TAUTO_COUNT>  (1) 
1

>  <PUBCHEM_CONFORMER_ID>  (1) 
0000021000000004

>  <PUBCHEM_MMFF94_ENERGY>  (1) 
9.029

>  <PUBCHEM_FEATURE_SELFOVERLAP>  (1) 
30.505

>  <PUBCHEM_SHAPE_FINGERPRINT>  (1) 
12897270 3 18272370862603274753
12932764 1 18186239528441048691
14325111 11 17530963575013731291
14390081 3 17676483930634386633
15775835 57 16878221970335126021
177051 138 11743825993965087685
18186145 218 18408890615701235569
190213 19 12895354395453028481
20201158 50 18342460313594873415
20281407 28 11743846875536781584
20645477 70 18129944456016762455
20711985 327 15267053748739297642
20828058 44 12391513070428332332
21119208 17 18059853943730053677
22485316 2 13470690321443785725
23402539 116 18187355532542755174
23557571 272 18186807972037391221
305870 269 16298938750187136491
3248919 1 18201997686309427403
57812782 119 18408602556734721824

>  <PUBCHEM_SHAPE_MULTIPOLES>  (1) 
197.92
6.85
1.13
1
1.54
0.19
0.05
1.44
0.99
0.24
0.05
-0.17
-0.11
0.83

>  <PUBCHEM_SHAPE_SELFOVERLAP>  (1) 
374.118

>  <PUBCHEM_SHAPE_VOLUME>  (1) 
121.8

>  <PUBCHEM_COORDINATE_TYPE>  (1) 
2
5
10

$$$$
