5280
     RDKit          3D

 16 17  0  0  1  0  0  0  0  0999 V2000
   -1.7709    0.1473    0.5726 O   0  0  0  0  0  0  0  0  0  0  0  0
   -3.9393    1.8701    1.0667 O   0  0  0  0  0  0  0  0  0  0  0  0
    1.2519   -2.6441    0.6987 O   0  0  0  0  0  0  0  0  0  0  0  0
    4.2410    0.7822    0.0097 O   0  0  0  0  0  0  0  0  0  0  0  0
    0.4215   -0.5428    0.1175 N   0  0  0  0  0  0  0  0  0  0  0  0
    2.7315   -0.9261    0.3528 N   0  0  0  0  0  0  0  0  0  0  0  0
   -0.9532   -0.9502    0.1383 C   0  0  0  0  0  0  0  0  0  0  0  0
   -1.4676   -1.3782   -1.2254 C   0  0  0  0  0  0  0  0  0  0  0  0
   -2.9238   -0.9925   -1.1439 C   0  0  0  0  0  0  0  0  0  0  0  0
   -2.8472    0.3098   -0.3664 C   0  0  0  0  0  0  0  0  0  0  0  0
   -4.1270    0.6497    0.3721 C   0  0  0  0  0  0  0  0  0  0  0  0
    0.6974    0.7717   -0.1983 C   0  0  0  0  0  0  0  0  0  0  0  0
    1.4394   -1.4602    0.4107 C   0  0  0  0  0  0  0  0  0  0  0  0
    1.9349    1.2795   -0.2528 C   0  0  0  0  0  0  0  0  0  0  0  0
    3.0812    0.3794    0.0430 C   0  0  0  0  0  0  0  0  0  0  0  0
    2.2301    2.7043   -0.5953 C   0  0  0  0  0  0  0  0  0  0  0  0
  1  7  1  0
  1 10  1  0
  2 11  1  0
  3 13  2  0
  4 15  2  0
  5  7  1  0
  5 12  1  0
  5 13  1  0
  6 13  1  0
  6 15  1  0
  7  8  1  0
  8  9  1  0
  9 10  1  0
 10 11  1  0
 12 14  2  0
 14 15  1  0
 14 16  1  0
M  END
>  <PUBCHEM_COMPOUND_CID>  (1) 
5280

>  <PUBCHEM_CONFORMER_RMSD>  (1) 
0.6

>  <PUBCHEM_CONFORMER_DIVERSEORDER>  (1) 
1
27
16
34
13
28
26
35
32
2
33
9
14
30
25
4
12
15
18
7
36
3
29
19
24
11
17
31
20
22
5
10
8
6
23
21

>  <PUBCHEM_MMFF94_PARTIAL_CHARGES>  (1) 
17
1 -0.56
10 0.28
11 0.28
12 -0.04
13 0.69
14 -0.12
15 0.62
16 0.14
2 -0.68
25 0.15
26 0.37
27 0.4
3 -0.57
4 -0.57
5 -0.47
6 -0.49
7 0.58

>  <PUBCHEM_EFFECTIVE_ROTOR_COUNT>  (1) 
3

>  <PUBCHEM_PHARMACOPHORE_FEATURES>  (1) 
8
1 1 acceptor
1 2 acceptor
1 2 donor
1 3 acceptor
1 4 acceptor
1 6 donor
5 1 7 8 9 10 rings
6 5 6 12 13 14 15 rings

>  <PUBCHEM_HEAVY_ATOM_COUNT>  (1) 
16

>  <PUBCHEM_ATOM_DEF_STEREO_COUNT>  (1) 
0

>  <PUBCHEM_ATOM_UDEF_STEREO_COUNT>  (1) 
2

>  <PUBCHEM_BOND_DEF_STEREO_COUNT>  (1) 
0

>  <PUBCHEM_BOND_UDEF_STEREO_COUNT>  (1) 
0

>  <PUBCHEM_ISOTOPIC_ATOM_COUNT>  (1) 
0

>  <PUBCHEM_COMPONENT_COUNT>  (1) 
1

>  <PUBCHEM_CACTVS_TAUTO_COUNT>  (1) 
3

>  <PUBCHEM_CONFORMER_ID>  (1) 
000014A000000001

>  <PUBCHEM_MMFF94_ENERGY>  (1) 
33.4764

>  <PUBCHEM_FEATURE_SELFOVERLAP>  (1) 
40.601

>  <PUBCHEM_SHAPE_FINGERPRINT>  (1) 
10465860 228 18339084795701836312
10980938 120 18334853879316483398
11471102 20 18334006172978505486
12553582 1 17831004741879184258
15279307 12 18341608239597396071
15342168 16 17823989041765647421
15442244 35 18195524787999400523
15775835 57 18342459244337953261
16752209 62 17488725879278710119
16945 1 18261100864128936750
17844478 74 17168142300090309117
18186145 218 18335978770169775388
201361 129 18409731754976007219
20233049 118 17632292341720658785
20645476 183 18201717366768980119
21041028 32 17972875856818090416
21524375 3 18338233885423912887
21639500 275 18189317112931803814
21665062 11 18265344906161550289
22094290 62 18410291410731989821
22854114 111 18407761430323765865
23402539 116 17489583459129153781
23557571 272 17131550655912243528
23559900 14 16917349234577146914
23598291 2 18271230621964577191
25 1 18260547835739860146
2748010 2 17829334936382886590
474 4 18334293209953909465
528886 8 18334849563159233178
633830 44 18410580621287497604
7364860 26 18341895130511997174
77492 1 18272078405500845727
7832392 63 18342175548662651564
81228 2 16530843138407551818
84936 182 18127968822463261240
9981440 41 17477188901210540160

>  <PUBCHEM_SHAPE_MULTIPOLES>  (1) 
295.83
6.89
2.31
0.94
2.04
0.22
0.13
3.06
-0.53
-0.85
-0.13
0.62
-0.07
-1.41

>  <PUBCHEM_SHAPE_SELFOVERLAP>  (1) 
618.663

>  <PUBCHEM_SHAPE_VOLUME>  (1) 
167.5

>  <PUBCHEM_COORDINATE_TYPE>  (1) 
2
5
10

$$$$
