5283
     RDKit          3D

 30 34  0  0  1  0  0  0  0  0999 V2000
   -1.3211    3.9825    0.8627 O   0  0  0  0  0  0  0  0  0  0  0  0
    0.2648    1.4524    2.0373 O   0  0  0  0  0  0  0  0  0  0  0  0
   -2.8021    3.1781   -0.6823 O   0  0  0  0  0  0  0  0  0  0  0  0
   -0.1678   -2.6798    0.9266 O   0  0  0  0  0  0  0  0  0  0  0  0
    5.2841   -0.1514    0.0838 O   0  0  0  0  0  0  0  0  0  0  0  0
    4.3906   -2.0948   -1.0254 O   0  0  0  0  0  0  0  0  0  0  0  0
   -4.4152   -1.2418   -0.6659 O   0  0  0  0  0  0  0  0  0  0  0  0
   -2.8545   -3.0643    0.7089 O   0  0  0  0  0  0  0  0  0  0  0  0
   -0.4027    2.8195   -0.9662 C   0  0  0  0  0  0  0  0  0  0  0  0
    0.6459    2.9310    0.1353 C   0  0  0  0  0  0  0  0  0  0  0  0
   -0.5251    1.5108   -1.7592 C   0  0  0  0  0  0  0  0  0  0  0  0
    0.1043    4.0725    0.9748 C   0  0  0  0  0  0  0  0  0  0  0  0
    0.8282    1.6746    0.9717 C   0  0  0  0  0  0  0  0  0  0  0  0
   -1.0953    0.2897   -1.0604 C   0  0  0  0  0  0  0  0  0  0  0  0
   -1.6573    3.3055   -0.2778 C   0  0  0  0  0  0  0  0  0  0  0  0
   -0.2882   -0.6463   -0.3705 C   0  0  0  0  0  0  0  0  0  0  0  0
    1.7262    0.6486    0.4201 C   0  0  0  0  0  0  0  0  0  0  0  0
    1.1700   -0.4810   -0.2274 C   0  0  0  0  0  0  0  0  0  0  0  0
   -2.4816    0.0582   -1.1497 C   0  0  0  0  0  0  0  0  0  0  0  0
   -0.9055   -1.7701    0.2168 C   0  0  0  0  0  0  0  0  0  0  0  0
    3.1055    0.8325    0.5655 C   0  0  0  0  0  0  0  0  0  0  0  0
    2.0526   -1.4506   -0.7374 C   0  0  0  0  0  0  0  0  0  0  0  0
   -3.0699   -1.0588   -0.5591 C   0  0  0  0  0  0  0  0  0  0  0  0
    3.9239   -0.1453    0.0459 C   0  0  0  0  0  0  0  0  0  0  0  0
    3.4131   -1.2546   -0.5866 C   0  0  0  0  0  0  0  0  0  0  0  0
   -2.2817   -1.9731    0.1258 C   0  0  0  0  0  0  0  0  0  0  0  0
    5.5733   -1.3878   -0.5999 C   0  0  0  0  0  0  0  0  0  0  0  0
   -0.0240   -2.4394    2.3217 C   0  0  0  0  0  0  0  0  0  0  0  0
   -5.2302   -0.6742    0.3580 C   0  0  0  0  0  0  0  0  0  0  0  0
   -2.9603   -4.2425   -0.0870 C   0  0  0  0  0  0  0  0  0  0  0  0
  1 12  1  0
  1 15  1  0
  2 13  2  0
  3 15  2  0
  4 20  1  0
  4 28  1  0
  5 24  1  0
  5 27  1  0
  6 25  1  0
  6 27  1  0
  7 23  1  0
  7 29  1  0
  8 26  1  0
  8 30  1  0
  9 10  1  0
  9 11  1  0
  9 15  1  0
 10 12  1  0
 10 13  1  0
 11 14  1  0
 13 17  1  0
 14 16  2  0
 14 19  1  0
 16 18  1  0
 16 20  1  0
 17 18  2  0
 17 21  1  0
 18 22  1  0
 19 23  2  0
 20 26  2  0
 21 24  2  0
 22 25  2  0
 23 26  1  0
 24 25  1  0
M  END
>  <PUBCHEM_COMPOUND_CID>  (1) 
5283

>  <PUBCHEM_CONFORMER_RMSD>  (1) 
0.8

>  <PUBCHEM_CONFORMER_DIVERSEORDER>  (1) 
2
4
10
7
6
9
3
1
8
5

>  <PUBCHEM_MMFF94_PARTIAL_CHARGES>  (1) 
31
1 -0.43
10 0.06
11 0.14
12 0.28
13 0.42
14 -0.14
15 0.66
17 0.09
19 -0.15
2 -0.57
20 0.08
21 -0.15
22 -0.15
23 0.08
24 0.08
25 0.08
26 0.08
27 0.56
28 0.28
29 0.28
3 -0.57
30 0.28
37 0.15
38 0.15
39 0.15
4 -0.36
5 -0.36
6 -0.36
7 -0.36
8 -0.36
9 0.06

>  <PUBCHEM_EFFECTIVE_ROTOR_COUNT>  (1) 
4.2

>  <PUBCHEM_PHARMACOPHORE_FEATURES>  (1) 
11
1 2 acceptor
1 3 acceptor
1 4 acceptor
1 5 acceptor
1 6 acceptor
1 7 acceptor
1 8 acceptor
5 1 9 10 12 15 rings
5 5 6 24 25 27 rings
6 14 16 19 20 23 26 rings
6 17 18 21 22 24 25 rings

>  <PUBCHEM_HEAVY_ATOM_COUNT>  (1) 
30

>  <PUBCHEM_ATOM_DEF_STEREO_COUNT>  (1) 
0

>  <PUBCHEM_ATOM_UDEF_STEREO_COUNT>  (1) 
2

>  <PUBCHEM_BOND_DEF_STEREO_COUNT>  (1) 
0

>  <PUBCHEM_BOND_UDEF_STEREO_COUNT>  (1) 
0

>  <PUBCHEM_ISOTOPIC_ATOM_COUNT>  (1) 
0

>  <PUBCHEM_COMPONENT_COUNT>  (1) 
1

>  <PUBCHEM_CACTVS_TAUTO_COUNT>  (1) 
4

>  <PUBCHEM_CONFORMER_ID>  (1) 
000014A300000002

>  <PUBCHEM_MMFF94_ENERGY>  (1) 
128.4002

>  <PUBCHEM_FEATURE_SELFOVERLAP>  (1) 
55.993

>  <PUBCHEM_SHAPE_FINGERPRINT>  (1) 
10006869 2 18050280367945026053
1100329 8 18339364067730375213
11421498 54 14707470500228184245
11578080 2 13480575017319930940
12156800 1 18122599713678766145
12236239 1 15769776883592992262
12293681 4 18411421712964551667
12403259 226 18119242015747821087
12788726 201 18334576815666890034
13140716 1 18117559750631350595
138480 1 15601176249849403684
14363568 33 17834687367324023496
14713325 29 18127977403954974998
14790565 3 17692815887043351912
14866123 147 17979921514360133258
14955137 171 18262815076388723523
15420108 30 16973906188106225440
15927050 60 17765432042157639757
17357779 13 18341316855856554348
19591789 44 17690564082854668781
1979834 28 16314168476623260515
20510252 161 18335697200439903670
20600515 1 18335714844286875477
20691752 17 16880173775357711087
21049683 271 17831030383133647460
23419403 2 17488442166217700496
23557571 272 18341618071072507414
23559900 14 18124023800807893007
23845131 108 17546174000199175033
24893992 56 18409167719846469115
283562 15 18335702685129237462
3027735 51 18268996375708727586
3052486 1 18261668164821113656
3380486 145 18121792878798617946
3493558 16 17202785699626173473
469060 322 17386864828241860061
59755656 520 17976827480465738654
6287921 2 17619064375199308183
81228 2 18335431131901371064

>  <PUBCHEM_SHAPE_MULTIPOLES>  (1) 
570.43
7.81
5.11
1.39
4.69
2.97
0.42
-6.42
-1.5
-3.39
1.08
-0.05
0.04
1.09

>  <PUBCHEM_SHAPE_SELFOVERLAP>  (1) 
1278.39

>  <PUBCHEM_SHAPE_VOLUME>  (1) 
301.8

>  <PUBCHEM_COORDINATE_TYPE>  (1) 
2
5
10

$$$$
