5306
     RDKit          3D

 25 28  0  0  0  0  0  0  0  0999 V2000
   -8.2968   -1.3150   -0.1425 O   0  0  0  0  0  0  0  0  0  0  0  0
    1.6834   -1.7798    0.3731 O   0  0  0  0  0  0  0  0  0  0  0  0
   -3.4605    0.3035   -0.0193 N   0  0  0  0  0  0  0  0  0  0  0  0
   -6.3112   -0.0977    0.0819 N   0  0  0  0  0  0  0  0  0  0  0  0
    4.0431   -1.8917    0.3803 N   0  0  0  0  0  0  0  0  0  0  0  0
   -4.1238   -0.6138   -0.9526 C   0  0  0  0  0  0  0  0  0  0  0  0
   -4.2843    1.0125    0.9662 C   0  0  0  0  0  0  0  0  0  0  0  0
   -5.4142   -1.1619   -0.3473 C   0  0  0  0  0  0  0  0  0  0  0  0
   -5.7150    1.1770    0.4582 C   0  0  0  0  0  0  0  0  0  0  0  0
   -2.0818    0.4981   -0.0688 C   0  0  0  0  0  0  0  0  0  0  0  0
   -1.3641    0.3804   -1.2825 C   0  0  0  0  0  0  0  0  0  0  0  0
   -1.3413    0.8218    1.0927 C   0  0  0  0  0  0  0  0  0  0  0  0
   -7.6803   -0.2936    0.1388 C   0  0  0  0  0  0  0  0  0  0  0  0
    0.7177    0.8931   -0.1693 C   0  0  0  0  0  0  0  0  0  0  0  0
    0.0162    0.5750   -1.3320 C   0  0  0  0  0  0  0  0  0  0  0  0
    0.0390    1.0165    1.0432 C   0  0  0  0  0  0  0  0  0  0  0  0
    3.1045    0.1543   -0.0340 C   0  0  0  0  0  0  0  0  0  0  0  0
    4.5551    0.3035   -0.0746 C   0  0  0  0  0  0  0  0  0  0  0  0
    2.1569    1.0962   -0.2208 C   0  0  0  0  0  0  0  0  0  0  0  0
    5.0756   -0.9679    0.1834 C   0  0  0  0  0  0  0  0  0  0  0  0
    2.7892   -1.2831    0.2637 C   0  0  0  0  0  0  0  0  0  0  0  0
    5.3953    1.3774   -0.3002 C   0  0  0  0  0  0  0  0  0  0  0  0
    6.4335   -1.2164    0.2257 C   0  0  0  0  0  0  0  0  0  0  0  0
    6.7749    1.1480   -0.2618 C   0  0  0  0  0  0  0  0  0  0  0  0
    7.2889   -0.1364   -0.0014 C   0  0  0  0  0  0  0  0  0  0  0  0
  1 13  2  0
  2 21  2  0
  3  6  1  0
  3  7  1  0
  3 10  1  0
  4  8  1  0
  4  9  1  0
  4 13  1  0
  5 20  1  0
  5 21  1  0
  6  8  1  0
  7  9  1  0
 10 11  2  0
 10 12  1  0
 11 15  1  0
 12 16  2  0
 14 15  2  0
 14 16  1  0
 14 19  1  0
 17 18  1  0
 17 19  2  0
 17 21  1  0
 18 20  2  0
 18 22  1  0
 20 23  1  0
 22 24  2  0
 23 25  2  0
 24 25  1  0
M  END
>  <PUBCHEM_COMPOUND_CID>  (1) 
5306

>  <PUBCHEM_CONFORMER_RMSD>  (1) 
0.8

>  <PUBCHEM_CONFORMER_DIVERSEORDER>  (1) 
1
5
2
3
4

>  <PUBCHEM_MMFF94_PARTIAL_CHARGES>  (1) 
36
1 -0.57
10 0.1
11 -0.15
12 -0.15
13 0.57
14 0.03
15 -0.15
16 -0.15
17 -0.01
18 0.03
19 -0.18
2 -0.57
20 0.12
21 0.62
22 -0.15
23 -0.15
24 -0.15
25 -0.15
3 -0.84
34 0.15
35 0.15
36 0.06
37 0.15
38 0.15
39 0.15
4 -0.66
40 0.37
41 0.15
42 0.15
43 0.15
44 0.15
5 -0.55
6 0.37
7 0.37
8 0.3
9 0.3

>  <PUBCHEM_EFFECTIVE_ROTOR_COUNT>  (1) 
4.4

>  <PUBCHEM_PHARMACOPHORE_FEATURES>  (1) 
8
1 1 acceptor
1 2 acceptor
1 3 cation
1 5 donor
5 5 17 18 20 21 rings
6 10 11 12 14 15 16 rings
6 18 20 22 23 24 25 rings
6 3 4 6 7 8 9 rings

>  <PUBCHEM_HEAVY_ATOM_COUNT>  (1) 
25

>  <PUBCHEM_ATOM_DEF_STEREO_COUNT>  (1) 
0

>  <PUBCHEM_ATOM_UDEF_STEREO_COUNT>  (1) 
0

>  <PUBCHEM_BOND_DEF_STEREO_COUNT>  (1) 
0

>  <PUBCHEM_BOND_UDEF_STEREO_COUNT>  (1) 
1

>  <PUBCHEM_ISOTOPIC_ATOM_COUNT>  (1) 
0

>  <PUBCHEM_COMPONENT_COUNT>  (1) 
1

>  <PUBCHEM_CACTVS_TAUTO_COUNT>  (1) 
2

>  <PUBCHEM_CONFORMER_ID>  (1) 
000014BA00000001

>  <PUBCHEM_MMFF94_ENERGY>  (1) 
89.1053

>  <PUBCHEM_FEATURE_SELFOVERLAP>  (1) 
40.686

>  <PUBCHEM_SHAPE_FINGERPRINT>  (1) 
10 15 16773793727135416985
10299344 5 18341895199273314543
10595046 47 18410576141235836944
106641 1 17274819177095575562
11315181 36 18342741819681003169
11524674 6 16056878053034264959
12236239 1 18202565064585348060
12516196 113 18409166610305295348
12596602 18 18202284688571516048
13533116 47 18341612577930836666
13540713 4 15070055453478094389
13540713 5 15911333598463763941
13685833 64 18186521007865603239
13885169 127 18334011662838636637
13968360 50 12901536936525562513
14123256 10 18187363233672408730
14170010 4 18113338639350490196
14178184 131 18057325205460208231
14251764 18 18273215309540947733
14251764 46 18259985976433780041
14849402 71 18270683189892033368
15183329 4 11674877779659841535
15419008 47 15936404559172535965
15716309 27 18413670214485667415
15849732 13 17894631470091712663
16120349 18 18335136535799961285
16993438 75 18042976564872740827
17492 89 18050565145757349290
18335252 114 8862944944396149547
20771845 140 17346591938447903390
21150785 3 17458344156794378385
21267235 1 18342741780809740262
21315763 28 18410856538291898032
21344244 181 17988655064854989958
21521721 280 18335139825950222472
22224240 67 18260265265899735250
23035841 295 17988924470049554967
23516275 137 18200052649987957355
23522609 53 18197244544498145976
23536379 177 18409167697237879001
23559900 14 18264485255804495225
23569943 247 17460587022649302099
249057 3 8574707997171113801
3009799 131 15574713599350375029
335352 9 18334303055390472102
34797466 226 16415483774955792232
397830 11 14547870958243750374
4073 2 18041284369131784130
4325135 7 18409448089956430782
465052 167 18059858363240760805
5385378 56 14979970146468095125
5758199 1 18410856581842626424
999808 66 18187655738858794483

>  <PUBCHEM_SHAPE_MULTIPOLES>  (1) 
487.81
21.92
1.54
0.96
14.13
0.36
-0.09
4.46
0.54
-0.82
0.16
0.43
-0.15
-1.08

>  <PUBCHEM_SHAPE_SELFOVERLAP>  (1) 
1068.401

>  <PUBCHEM_SHAPE_VOLUME>  (1) 
264.3

>  <PUBCHEM_COORDINATE_TYPE>  (1) 
2
5
10

$$$$
