5308
     RDKit          3D

 19 21  0  0  0  0  0  0  0  0999 V2000
    4.9945   -2.4047   -0.2649 Cl  0  0  0  0  0  0  0  0  0  0  0  0
   -1.0473    2.0985    0.1531 O   0  0  0  0  0  0  0  0  0  0  0  0
   -2.7239   -0.4987   -1.0897 N   0  0  0  0  0  0  0  0  0  0  0  0
    1.3128    2.1425    0.0592 N   0  0  0  0  0  0  0  0  0  0  0  0
    0.3130    0.0840    0.0218 C   0  0  0  0  0  0  0  0  0  0  0  0
    1.7572   -0.1115   -0.0441 C   0  0  0  0  0  0  0  0  0  0  0  0
   -2.0795   -0.6313    0.0917 C   0  0  0  0  0  0  0  0  0  0  0  0
    2.3159    1.1698   -0.0184 C   0  0  0  0  0  0  0  0  0  0  0  0
   -2.9494   -0.5365    1.1194 C   0  0  0  0  0  0  0  0  0  0  0  0
   -0.6516   -0.8382    0.0259 C   0  0  0  0  0  0  0  0  0  0  0  0
   -4.0563   -0.3122   -0.8286 C   0  0  0  0  0  0  0  0  0  0  0  0
    0.0420    1.5591    0.0887 C   0  0  0  0  0  0  0  0  0  0  0  0
   -4.2252   -0.3308    0.5383 C   0  0  0  0  0  0  0  0  0  0  0  0
    2.5635   -1.2313   -0.1200 C   0  0  0  0  0  0  0  0  0  0  0  0
    3.6795    1.3829   -0.0662 C   0  0  0  0  0  0  0  0  0  0  0  0
   -2.6602   -0.6258    2.5648 C   0  0  0  0  0  0  0  0  0  0  0  0
   -5.0339   -0.1341   -1.9183 C   0  0  0  0  0  0  0  0  0  0  0  0
    3.9483   -1.0382   -0.1696 C   0  0  0  0  0  0  0  0  0  0  0  0
    4.5008    0.2563   -0.1429 C   0  0  0  0  0  0  0  0  0  0  0  0
  1 18  1  0
  2 12  2  0
  3  7  1  0
  3 11  1  0
  4  8  1  0
  4 12  1  0
  5  6  1  0
  5 10  2  0
  5 12  1  0
  6  8  2  0
  6 14  1  0
  7  9  2  0
  7 10  1  0
  8 15  1  0
  9 13  1  0
  9 16  1  0
 11 13  2  0
 11 17  1  0
 14 18  2  0
 15 19  2  0
 18 19  1  0
M  END
>  <PUBCHEM_COMPOUND_CID>  (1) 
5308

>  <PUBCHEM_CONFORMER_RMSD>  (1) 
0.6

>  <PUBCHEM_CONFORMER_DIVERSEORDER>  (1) 
2
3
1
4

>  <PUBCHEM_MMFF94_PARTIAL_CHARGES>  (1) 
26
1 -0.18
10 -0.11
11 -0.33
12 0.62
13 -0.15
14 -0.15
15 -0.15
16 0.18
17 0.18
18 0.18
19 -0.15
2 -0.57
20 0.15
21 0.27
22 0.15
23 0.37
24 0.15
25 0.15
3 0.03
32 0.15
4 -0.55
5 -0.01
6 0.03
7 -0.2
8 0.12
9 -0.18

>  <PUBCHEM_EFFECTIVE_ROTOR_COUNT>  (1) 
1.2

>  <PUBCHEM_PHARMACOPHORE_FEATURES>  (1) 
7
1 2 acceptor
1 3 cation
1 3 donor
1 4 donor
5 3 7 9 11 13 rings
5 4 5 6 8 12 rings
6 6 8 14 15 18 19 rings

>  <PUBCHEM_HEAVY_ATOM_COUNT>  (1) 
19

>  <PUBCHEM_ATOM_DEF_STEREO_COUNT>  (1) 
0

>  <PUBCHEM_ATOM_UDEF_STEREO_COUNT>  (1) 
0

>  <PUBCHEM_BOND_DEF_STEREO_COUNT>  (1) 
0

>  <PUBCHEM_BOND_UDEF_STEREO_COUNT>  (1) 
1

>  <PUBCHEM_ISOTOPIC_ATOM_COUNT>  (1) 
0

>  <PUBCHEM_COMPONENT_COUNT>  (1) 
1

>  <PUBCHEM_CACTVS_TAUTO_COUNT>  (1) 
2

>  <PUBCHEM_CONFORMER_ID>  (1) 
000014BC00000002

>  <PUBCHEM_MMFF94_ENERGY>  (1) 
52.4323

>  <PUBCHEM_FEATURE_SELFOVERLAP>  (1) 
35.609

>  <PUBCHEM_SHAPE_FINGERPRINT>  (1) 
10912923 1 17275108344527719794
11471102 20 18410289246374194028
11796584 16 16805316678976670178
12236239 1 17703793630768379363
124424 183 18259983790648756723
12500047 106 16805597101369732267
12553582 1 18341345443596596070
12596602 18 16559023875231642618
12633257 1 16200165278320363227
12670546 56 17418094329945951912
12760667 363 18266460906575171754
13134695 92 18342458179102103024
13140716 1 17908424998191910880
13544653 18 18410016520240551556
13675066 3 17968380155461503888
13760787 5 18412831295524228340
14386348 63 18041002868480026490
15196674 1 18411702058417539420
15375358 24 18186797019295779832
15475509 35 14333140641771658708
15848700 24 18342451543593453972
16752209 62 18336538309681669762
16945 1 18339087111053478448
17349148 13 17489871565693501783
17357779 13 18335413560873925293
1813 80 18200051563655441956
18186145 218 17603305955300500993
18222031 100 17846777403961891046
193927 3 18263657177810022346
200 152 18131066035059449533
20325693 3 16081092571774730595
20645477 70 18408884040417840462
21065201 7 16805322231720381099
21267235 1 18339934740229627870
21279426 13 18190173495193488125
21315764 119 16009309769671060882
21728266 224 16200143284062001767
221357 26 18336811045123081397
22646028 1 17632857538042169823
23175994 123 18186809084312763797
23402539 116 15554447405812817745
23493267 7 17022615386376631681
23557571 272 17530954779300985516
23559900 14 17894349978019392074
26918003 58 18040151833906319450
2838139 119 18199470970641805833
2871803 45 18261390014655290918
34797466 226 16805620190850385982
34934 24 18269265923898198260
474 4 17629188596948471192
4921388 177 15936419965404517523
5104073 3 18340206276857621328
5161694 15 17821727256073402823
542803 24 13118001089125377374
573450 72 16845578595208702483
77492 1 17560531689137120571

>  <PUBCHEM_SHAPE_MULTIPOLES>  (1) 
377.05
10.41
1.88
1.35
0.38
0.39
0.47
-3.99
-2.6
2.41
0.02
-2.52
-0.34
0.45

>  <PUBCHEM_SHAPE_SELFOVERLAP>  (1) 
826.598

>  <PUBCHEM_SHAPE_VOLUME>  (1) 
208.1

>  <PUBCHEM_COORDINATE_TYPE>  (1) 
2
5
10

$$$$
