5309
     RDKit          3D

 26 29  0  0  0  0  0  0  0  0999 V2000
   -4.8744   -0.9580   -0.7876 S   0  0  0  0  0  0  0  0  0  0  0  0
    1.8358    2.3164    0.4645 O   0  0  0  0  0  0  0  0  0  0  0  0
   -6.0534   -0.1921   -1.1742 O   0  0  0  0  0  0  0  0  0  0  0  0
   -4.3324   -1.9271   -1.7329 O   0  0  0  0  0  0  0  0  0  0  0  0
    3.0267   -0.8139    0.7001 N   0  0  0  0  0  0  0  0  0  0  0  0
   -0.4886    2.7277    0.5575 N   0  0  0  0  0  0  0  0  0  0  0  0
   -5.1955   -1.7588    0.7115 N   0  0  0  0  0  0  0  0  0  0  0  0
    4.3800   -0.7801    0.5123 C   0  0  0  0  0  0  0  0  0  0  0  0
    4.6310   -0.3646   -0.7802 C   0  0  0  0  0  0  0  0  0  0  0  0
    5.3975   -1.1055    1.5456 C   0  0  0  0  0  0  0  0  0  0  0  0
    6.0105   -0.2322   -1.3237 C   0  0  0  0  0  0  0  0  0  0  0  0
    6.7738   -1.2895    0.8779 C   0  0  0  0  0  0  0  0  0  0  0  0
    7.0539   -0.2129   -0.1889 C   0  0  0  0  0  0  0  0  0  0  0  0
    2.4037   -0.4285   -0.4610 C   0  0  0  0  0  0  0  0  0  0  0  0
    3.3759   -0.1449   -1.3981 C   0  0  0  0  0  0  0  0  0  0  0  0
    1.0005   -0.3979   -0.4793 C   0  0  0  0  0  0  0  0  0  0  0  0
    0.1684    0.6488   -0.1389 C   0  0  0  0  0  0  0  0  0  0  0  0
   -1.2899    0.6928   -0.1537 C   0  0  0  0  0  0  0  0  0  0  0  0
   -1.6359    1.9767    0.2776 C   0  0  0  0  0  0  0  0  0  0  0  0
   -3.6033    0.1705   -0.3778 C   0  0  0  0  0  0  0  0  0  0  0  0
   -2.2663   -0.2268   -0.4867 C   0  0  0  0  0  0  0  0  0  0  0  0
    0.6731    1.9837    0.3273 C   0  0  0  0  0  0  0  0  0  0  0  0
   -2.9489    2.3894    0.3923 C   0  0  0  0  0  0  0  0  0  0  0  0
   -3.9412    1.4659    0.0575 C   0  0  0  0  0  0  0  0  0  0  0  0
   -4.0780   -2.5018    1.3472 C   0  0  0  0  0  0  0  0  0  0  0  0
   -6.0231   -1.0375    1.7117 C   0  0  0  0  0  0  0  0  0  0  0  0
  1  3  2  0
  1  4  2  0
  1  7  1  0
  1 20  1  0
  2 22  2  0
  5  8  1  0
  5 14  1  0
  6 19  1  0
  6 22  1  0
  7 25  1  0
  7 26  1  0
  8  9  2  0
  8 10  1  0
  9 11  1  0
  9 15  1  0
 10 12  1  0
 11 13  1  0
 12 13  1  0
 14 15  2  0
 14 16  1  0
 16 17  2  0
 17 18  1  0
 17 22  1  0
 18 19  2  0
 18 21  1  0
 19 23  1  0
 20 21  2  0
 20 24  1  0
 23 24  2  0
M  END
>  <PUBCHEM_COMPOUND_CID>  (1) 
5309

>  <PUBCHEM_CONFORMER_RMSD>  (1) 
0.8

>  <PUBCHEM_CONFORMER_DIVERSEORDER>  (1) 
2
3
6
8
9
1
7
4
5

>  <PUBCHEM_MMFF94_PARTIAL_CHARGES>  (1) 
31
1 1.45
10 0.18
11 0.18
14 -0.2
15 -0.15
16 -0.11
17 -0.01
18 0.03
19 0.12
2 -0.57
20 -0.01
21 -0.15
22 0.62
23 -0.15
24 -0.15
25 0.36
26 0.36
3 -0.65
35 0.27
36 0.15
37 0.15
38 0.15
39 0.37
4 -0.65
40 0.15
41 0.15
5 0.03
6 -0.55
7 -0.85
8 -0.33
9 -0.18

>  <PUBCHEM_EFFECTIVE_ROTOR_COUNT>  (1) 
4

>  <PUBCHEM_PHARMACOPHORE_FEATURES>  (1) 
10
1 2 acceptor
1 3 acceptor
1 4 acceptor
1 5 cation
1 5 donor
1 6 donor
5 5 8 9 14 15 rings
5 6 17 18 19 22 rings
6 18 19 20 21 23 24 rings
6 8 9 10 11 12 13 rings

>  <PUBCHEM_HEAVY_ATOM_COUNT>  (1) 
26

>  <PUBCHEM_ATOM_DEF_STEREO_COUNT>  (1) 
0

>  <PUBCHEM_ATOM_UDEF_STEREO_COUNT>  (1) 
0

>  <PUBCHEM_BOND_DEF_STEREO_COUNT>  (1) 
0

>  <PUBCHEM_BOND_UDEF_STEREO_COUNT>  (1) 
1

>  <PUBCHEM_ISOTOPIC_ATOM_COUNT>  (1) 
0

>  <PUBCHEM_COMPONENT_COUNT>  (1) 
1

>  <PUBCHEM_CACTVS_TAUTO_COUNT>  (1) 
2

>  <PUBCHEM_CONFORMER_ID>  (1) 
000014BD00000002

>  <PUBCHEM_MMFF94_ENERGY>  (1) 
58.6486

>  <PUBCHEM_FEATURE_SELFOVERLAP>  (1) 
50.939

>  <PUBCHEM_SHAPE_FINGERPRINT>  (1) 
10 15 17632278087758126202
11089746 13 12973885944220591374
11315181 36 18113340812118164445
11552529 35 13972809858599270285
11796584 16 17822286873159031139
12166972 35 17821733849217740804
12236239 1 18114463371352736662
12596602 18 18260265223203295872
12760667 363 18411982477422931131
13631057 29 18260831522630315155
13668630 136 17313385604461235698
13862211 1 18341888606171701686
15183329 4 13551184498493153042
17138139 8 17749945690978461090
17686467 74 18335419085225422832
17780758 139 17417818348744180651
18927931 339 18343302565788557687
19841028 212 18054220201734354111
200 152 17240485754567464420
20028762 73 17774714372126868583
20511986 3 17895743020481059964
21033648 29 16343122633349339186
21267235 1 18343305872438641197
21796203 349 18054255338217250595
2260408 40 16056334868183073244
2303208 19 17274829017577814046
23081809 10 18040722424997015396
23402539 116 18113337475018421796
23522609 53 18123503624117768129
23559900 14 18261106443692679577
23569914 152 14134067365166162010
25147074 1 18340784700808790508
2838139 119 12540690440003286190
312425 54 16702027469525307623
314173 85 18060140942382704061
329604 57 18335146418397961052
335352 9 18342733002134471141
34797466 226 17489594485338935468
4015057 19 16298402278712896100
4098825 35 16660360364357553775
439807 62 17677059044188794603
445580 182 17703242732577490153
484985 159 18186813504462087051
4938544 92 16486983856383967425
504579 68 17458923586833240326
5104073 3 18343303673415860472
531348 171 16444175431480836407
6371380 46 18408604765244769681
7495541 125 18334859450073812692
8863177 126 18117285972162493699
9862886 166 18040438823252156331

>  <PUBCHEM_SHAPE_MULTIPOLES>  (1) 
506.37
17.57
2.4
1.36
12.16
0.88
-0.04
-10.13
0.79
-2.92
0.86
-0.29
-0.61
-0.35

>  <PUBCHEM_SHAPE_SELFOVERLAP>  (1) 
1092.667

>  <PUBCHEM_SHAPE_VOLUME>  (1) 
282.7

>  <PUBCHEM_COORDINATE_TYPE>  (1) 
2
5
10

$$$$
