5314
     RDKit          3D

 20 19  0  0  0  0  0  0  0  0999 V2000
    2.9797   -0.4119   -0.0327 O   0  0  0  0  0  0  0  0  0  0  0  0
   -2.9795    0.4108   -0.0523 O   0  0  0  0  0  0  0  0  0  0  0  0
    1.9288    1.6402   -0.1056 O   0  0  0  0  0  0  0  0  0  0  0  0
   -1.9310   -1.6434   -0.1110 O   0  0  0  0  0  0  0  0  0  0  0  0
    6.6730   -0.1168    0.0701 N   0  0  0  0  0  0  0  0  0  0  0  0
   -6.6723    0.1191    0.0743 N   0  0  0  0  0  0  0  0  0  0  0  0
    5.3557   -0.8002    0.0237 C   0  0  0  0  0  0  0  0  0  0  0  0
   -5.3549    0.8011    0.0137 C   0  0  0  0  0  0  0  0  0  0  0  0
    7.8146   -1.1393    0.1511 C   0  0  0  0  0  0  0  0  0  0  0  0
    6.7667    0.8017    1.2962 C   0  0  0  0  0  0  0  0  0  0  0  0
    6.8869    0.7394   -1.1855 C   0  0  0  0  0  0  0  0  0  0  0  0
   -6.8939   -0.7492   -1.1716 C   0  0  0  0  0  0  0  0  0  0  0  0
   -6.7596   -0.7872    1.3097 C   0  0  0  0  0  0  0  0  0  0  0  0
   -7.8128    1.1431    0.1516 C   0  0  0  0  0  0  0  0  0  0  0  0
    4.2538    0.2399   -0.0244 C   0  0  0  0  0  0  0  0  0  0  0  0
   -4.2539   -0.2401   -0.0304 C   0  0  0  0  0  0  0  0  0  0  0  0
    0.6365   -0.4234   -0.0881 C   0  0  0  0  0  0  0  0  0  0  0  0
   -0.6368    0.4191   -0.1209 C   0  0  0  0  0  0  0  0  0  0  0  0
    1.8949    0.4179   -0.0751 C   0  0  0  0  0  0  0  0  0  0  0  0
   -1.8958   -0.4207   -0.0926 C   0  0  0  0  0  0  0  0  0  0  0  0
  1 15  1  0
  1 19  1  0
  2 16  1  0
  2 20  1  0
  3 19  2  0
  4 20  2  0
  5  7  1  0
  5  9  1  0
  5 10  1  0
  5 11  1  0
  6  8  1  0
  6 12  1  0
  6 13  1  0
  6 14  1  0
  7 15  1  0
  8 16  1  0
 17 18  1  0
 17 19  1  0
 18 20  1  0
M  CHG  2   5   1   6   1
M  END
>  <PUBCHEM_COMPOUND_CID>  (1) 
5314

>  <PUBCHEM_CONFORMER_RMSD>  (1) 
1.2

>  <PUBCHEM_CONFORMER_DIVERSEORDER>  (1) 
1
6
8
9
3
5
7
18
22
19
23
16
4
13
20
24
15
12
10
2
17
11
21
14

>  <PUBCHEM_MMFF94_PARTIAL_CHARGES>  (1) 
20
1 -0.43
10 0.5
11 0.5
12 0.5
13 0.5
14 0.5
15 0.28
16 0.28
17 0.06
18 0.06
19 0.66
2 -0.43
20 0.66
3 -0.57
4 -0.57
5 -1.01
6 -1.01
7 0.5
8 0.5
9 0.5

>  <PUBCHEM_EFFECTIVE_ROTOR_COUNT>  (1) 
11

>  <PUBCHEM_PHARMACOPHORE_FEATURES>  (1) 
4
1 3 acceptor
1 4 acceptor
1 5 cation
1 6 cation

>  <PUBCHEM_HEAVY_ATOM_COUNT>  (1) 
20

>  <PUBCHEM_ATOM_DEF_STEREO_COUNT>  (1) 
0

>  <PUBCHEM_ATOM_UDEF_STEREO_COUNT>  (1) 
0

>  <PUBCHEM_BOND_DEF_STEREO_COUNT>  (1) 
0

>  <PUBCHEM_BOND_UDEF_STEREO_COUNT>  (1) 
0

>  <PUBCHEM_ISOTOPIC_ATOM_COUNT>  (1) 
0

>  <PUBCHEM_COMPONENT_COUNT>  (1) 
1

>  <PUBCHEM_CACTVS_TAUTO_COUNT>  (1) 
1

>  <PUBCHEM_CONFORMER_ID>  (1) 
000014C200000001

>  <PUBCHEM_MMFF94_ENERGY>  (1) 
56.4595

>  <PUBCHEM_FEATURE_SELFOVERLAP>  (1) 
20.297

>  <PUBCHEM_SHAPE_FINGERPRINT>  (1) 
10066227 49 12324507719857880680
10299344 5 15647053763328408217
11315181 36 16559031610920922947
12091667 2 13039187005605317599
13533116 47 13758083948220187294
13885169 127 17822010891619149409
13914758 101 15339128917815367418
14170010 4 18342455963431624496
14251764 18 18410855468723371333
14251764 46 18410856555350103526
15183329 4 18410856559639789568
15716309 27 15140959560527159843
16120349 18 18340762741115519356
17093844 174 18343581842337903649
17834076 25 17561363980552571522
18006028 8 18344145890690382625
20281389 69 18408038507444181264
20621476 8 18409446964279262980
21095086 128 15140680284705554337
21267235 1 18333735710335105292
21315763 28 18060136523019781048
22224240 67 17560797736739354510
23402539 116 18060134350193577773
23521765 1 18341894086539083799
246663 6 15791734087590997458
28498 318 18336264557404485846
33532 11 17313380098566298906
33684 2 18410855447248547651
34797466 226 16845294956391472336
3545911 37 18413388734929237135
57583515 80 12391513092272453447
59755656 520 16950280741368537307
8209 1 18410855455843750516

>  <PUBCHEM_SHAPE_MULTIPOLES>  (1) 
378.15
27.56
1.2
0.93
0.02
0
0.06
0.02
1.5
0
0.01
0
0
-0.08

>  <PUBCHEM_SHAPE_SELFOVERLAP>  (1) 
709.97

>  <PUBCHEM_SHAPE_VOLUME>  (1) 
239.5

>  <PUBCHEM_COORDINATE_TYPE>  (1) 
2
5
10

$$$$
