5320
     RDKit          3D

 14 14  0  0  0  0  0  0  0  0999 V2000
    1.1675   -1.2750   -0.2485 S   0  0  0  0  0  0  0  0  0  0  0  0
    1.1709   -2.5850    0.3893 O   0  0  0  0  0  0  0  0  0  0  0  0
    1.5888   -1.1505   -1.6372 O   0  0  0  0  0  0  0  0  0  0  0  0
    2.4302    1.5112   -0.8735 O   0  0  0  0  0  0  0  0  0  0  0  0
    2.0936   -0.1934    0.7062 N   0  0  0  0  0  0  0  0  0  0  0  0
   -4.2760    1.0753    0.2018 N   0  0  0  0  0  0  0  0  0  0  0  0
   -0.4309   -0.5850   -0.1165 C   0  0  0  0  0  0  0  0  0  0  0  0
   -1.2820   -0.9888    0.9123 C   0  0  0  0  0  0  0  0  0  0  0  0
   -0.8569    0.3700   -1.0398 C   0  0  0  0  0  0  0  0  0  0  0  0
   -2.9850    0.5171    0.0947 C   0  0  0  0  0  0  0  0  0  0  0  0
   -2.5591   -0.4378    1.0178 C   0  0  0  0  0  0  0  0  0  0  0  0
   -2.1340    0.9211   -0.9341 C   0  0  0  0  0  0  0  0  0  0  0  0
    2.6228    1.0545    0.2477 C   0  0  0  0  0  0  0  0  0  0  0  0
    3.4502    1.7662    1.2796 C   0  0  0  0  0  0  0  0  0  0  0  0
  1  2  2  0
  1  3  2  0
  1  5  1  0
  1  7  1  0
  4 13  2  0
  5 13  1  0
  6 10  1  0
  7  8  2  0
  7  9  1  0
  8 11  1  0
  9 12  2  0
 10 11  2  0
 10 12  1  0
 13 14  1  0
M  END
>  <PUBCHEM_COMPOUND_CID>  (1) 
5320

>  <PUBCHEM_CONFORMER_RMSD>  (1) 
0.6

>  <PUBCHEM_CONFORMER_DIVERSEORDER>  (1) 
1
9
5
8
10
6
3
2
4
7

>  <PUBCHEM_MMFF94_PARTIAL_CHARGES>  (1) 
21
1 1.45
10 0.1
11 -0.15
12 -0.15
13 0.75
14 0.06
15 0.15
16 0.15
17 0.42
18 0.15
19 0.15
2 -0.65
23 0.4
24 0.4
3 -0.65
4 -0.57
5 -0.79
6 -0.9
7 -0.01
8 -0.15
9 -0.15

>  <PUBCHEM_EFFECTIVE_ROTOR_COUNT>  (1) 
3

>  <PUBCHEM_PHARMACOPHORE_FEATURES>  (1) 
7
1 2 acceptor
1 3 acceptor
1 4 acceptor
1 5 donor
1 6 cation
1 6 donor
6 7 8 9 10 11 12 rings

>  <PUBCHEM_HEAVY_ATOM_COUNT>  (1) 
14

>  <PUBCHEM_ATOM_DEF_STEREO_COUNT>  (1) 
0

>  <PUBCHEM_ATOM_UDEF_STEREO_COUNT>  (1) 
0

>  <PUBCHEM_BOND_DEF_STEREO_COUNT>  (1) 
0

>  <PUBCHEM_BOND_UDEF_STEREO_COUNT>  (1) 
0

>  <PUBCHEM_ISOTOPIC_ATOM_COUNT>  (1) 
0

>  <PUBCHEM_COMPONENT_COUNT>  (1) 
1

>  <PUBCHEM_CACTVS_TAUTO_COUNT>  (1) 
2

>  <PUBCHEM_CONFORMER_ID>  (1) 
000014C800000001

>  <PUBCHEM_MMFF94_ENERGY>  (1) 
23.947

>  <PUBCHEM_FEATURE_SELFOVERLAP>  (1) 
35.54

>  <PUBCHEM_SHAPE_FINGERPRINT>  (1) 
10857977 72 17458638804230102983
11031198 65 17989489623410824425
11127187 94 10807672111072296217
11132069 177 18187078494562822609
11769659 78 11891347469100756041
12251169 10 17530957012325068264
12326174 3 18129665175673381262
12382932 28 17894638084109226593
12696612 119 17822012055312843236
12932764 1 18336838472446486487
13571099 52 18342454880556105088
14115302 16 15482385357197524254
15219456 202 18335424551605330795
15775835 57 18059847415569817064
16945 1 17895206484587026247
170605 34 18131068246719674110
18186145 218 18266465304584233445
19786989 88 18131060498841376047
20645464 45 18260266343604223499
20645476 183 16415472749294397077
20671657 1 18342458093276324350
21028194 46 18200315558130990794
21524375 3 18128527344447155658
21731228 192 18264194971822980026
21947302 44 18411139091231228715
22096605 113 18343577439210474041
230 275 18407760317916641380
23557571 272 18262816167025203123
25 1 17989211481629571952
27216 239 18050276274229679536
2748010 2 17822588105333371835
305870 269 18410565215340091786
7364860 26 18267304240140323410
8030462 33 15338838634055833231
81228 2 17547003491490770626

>  <PUBCHEM_SHAPE_MULTIPOLES>  (1) 
264.39
5.82
1.93
1.26
1.36
0.63
-0.15
-3.74
1.41
-1.34
0.15
-0.29
-0.03
0.76

>  <PUBCHEM_SHAPE_SELFOVERLAP>  (1) 
530.61

>  <PUBCHEM_SHAPE_VOLUME>  (1) 
155.4

>  <PUBCHEM_COORDINATE_TYPE>  (1) 
2
5
10

$$$$
