5324
     RDKit          3D

 14 14  0  0  0  0  0  0  0  0999 V2000
    1.0661    0.7725    0.0091 S   0  0  0  0  0  0  0  0  0  0  0  0
    1.3527    1.4361    1.2772 O   0  0  0  0  0  0  0  0  0  0  0  0
    1.3065    1.4838   -1.2414 O   0  0  0  0  0  0  0  0  0  0  0  0
    1.8449   -0.6668   -0.0096 N   0  0  0  0  0  0  0  0  0  0  0  0
   -4.6933   -0.7065   -0.0060 N   0  0  0  0  0  0  0  0  0  0  0  0
    3.9079   -1.8997   -0.0267 N   0  0  0  0  0  0  0  0  0  0  0  0
    3.9242    0.3820    0.0025 N   0  0  0  0  0  0  0  0  0  0  0  0
   -0.6251    0.3385    0.0048 C   0  0  0  0  0  0  0  0  0  0  0  0
   -1.3015    0.1804   -1.2049 C   0  0  0  0  0  0  0  0  0  0  0  0
   -1.2999    0.1497    1.2109 C   0  0  0  0  0  0  0  0  0  0  0  0
   -3.3274   -0.3549   -0.0026 C   0  0  0  0  0  0  0  0  0  0  0  0
   -2.6525   -0.1662   -1.2086 C   0  0  0  0  0  0  0  0  0  0  0  0
   -2.6511   -0.1969    1.2071 C   0  0  0  0  0  0  0  0  0  0  0  0
    3.1484   -0.7522   -0.0117 C   0  0  0  0  0  0  0  0  0  0  0  0
  1  2  2  0
  1  3  2  0
  1  4  1  0
  1  8  1  0
  4 14  2  3
  5 11  1  0
  6 14  1  0
  7 14  1  0
  8  9  2  0
  8 10  1  0
  9 12  1  0
 10 13  2  0
 11 12  2  0
 11 13  1  0
M  END
>  <PUBCHEM_COMPOUND_CID>  (1) 
5324

>  <PUBCHEM_CONFORMER_RMSD>  (1) 
0.6

>  <PUBCHEM_CONFORMER_DIVERSEORDER>  (1) 
1
3
2

>  <PUBCHEM_MMFF94_PARTIAL_CHARGES>  (1) 
24
1 1.5
10 -0.15
11 0.1
12 -0.15
13 -0.15
14 0.55
15 0.15
16 0.15
17 0.15
18 0.15
19 0.4
2 -0.65
20 0.4
21 0.4
22 0.4
23 0.4
24 0.4
3 -0.65
4 -0.64
5 -0.9
6 -0.85
7 -0.85
8 -0.01
9 -0.15

>  <PUBCHEM_EFFECTIVE_ROTOR_COUNT>  (1) 
2

>  <PUBCHEM_PHARMACOPHORE_FEATURES>  (1) 
8
1 2 acceptor
1 3 acceptor
1 4 donor
1 5 cation
1 5 donor
1 6 donor
1 7 donor
6 8 9 10 11 12 13 rings

>  <PUBCHEM_HEAVY_ATOM_COUNT>  (1) 
14

>  <PUBCHEM_ATOM_DEF_STEREO_COUNT>  (1) 
0

>  <PUBCHEM_ATOM_UDEF_STEREO_COUNT>  (1) 
0

>  <PUBCHEM_BOND_DEF_STEREO_COUNT>  (1) 
0

>  <PUBCHEM_BOND_UDEF_STEREO_COUNT>  (1) 
0

>  <PUBCHEM_ISOTOPIC_ATOM_COUNT>  (1) 
0

>  <PUBCHEM_COMPONENT_COUNT>  (1) 
1

>  <PUBCHEM_CACTVS_TAUTO_COUNT>  (1) 
2

>  <PUBCHEM_CONFORMER_ID>  (1) 
000014CC00000001

>  <PUBCHEM_MMFF94_ENERGY>  (1) 
41.7092

>  <PUBCHEM_FEATURE_SELFOVERLAP>  (1) 
40.744

>  <PUBCHEM_SHAPE_FINGERPRINT>  (1) 
10130415 120 16917066702611109715
10465860 71 16370733603821962718
12251169 10 15985098617746669226
13296908 3 18187643562072141094
13581323 91 16128657448580580035
13705890 14 17967253087808918334
14144814 61 17418376887085446816
14911166 2 16008744736826643407
15219456 202 17314237828582251389
15375462 189 18060696187128093882
1813 80 18199766764711518140
18186145 218 15285654170204364628
200 152 18411134740777582287
20201158 50 17676489440634380914
20279233 1 17603305964212221506
20281407 28 18334297556645260394
20361792 2 18343579625169674596
20523700 14 14201395006177883113
20645477 70 18334854987713847766
20671657 53 18114187393543917812
20871999 31 16805328747206874510
21119208 17 13695868116805929578
21501925 9 16558751226127362113
22445834 79 17704072871729177855
22485316 2 18408884040085284107
23402539 116 16153414052412911142
23403322 49 17823696369920036930
23557571 272 17095235913393885932
23559900 14 16443067206023539768
2748010 2 15721097209016676097
3286 77 18342174496791205433
42 15 18060703888020195395
474 4 17771333455876632328
4990 188 17168142356004050323
7364860 26 17605284075566922092
77492 1 17703793647257164996
90316 7 16917072109547830593

>  <PUBCHEM_SHAPE_MULTIPOLES>  (1) 
260.3
7.3
1.24
1.23
0.68
0.07
-0.07
3.12
0.29
1.28
0.06
-0.61
-0.25
0.18

>  <PUBCHEM_SHAPE_SELFOVERLAP>  (1) 
528.832

>  <PUBCHEM_SHAPE_VOLUME>  (1) 
151.4

>  <PUBCHEM_COORDINATE_TYPE>  (1) 
2
5
10

$$$$
