5326
     RDKit          3D

 19 20  0  0  0  0  0  0  0  0999 V2000
    1.4467   -2.1155   -0.1092 S   0  0  0  0  0  0  0  0  0  0  0  0
    2.5035   -2.8113    0.6155 O   0  0  0  0  0  0  0  0  0  0  0  0
    1.1390   -2.5307   -1.4723 O   0  0  0  0  0  0  0  0  0  0  0  0
   -4.1069    1.1518   -0.4920 O   0  0  0  0  0  0  0  0  0  0  0  0
    0.0151   -2.1725    0.8478 N   0  0  0  0  0  0  0  0  0  0  0  0
   -1.6829   -1.5570   -0.6697 N   0  0  0  0  0  0  0  0  0  0  0  0
   -1.3481   -0.3195    1.3709 N   0  0  0  0  0  0  0  0  0  0  0  0
    2.7801    3.6791   -0.1394 N   0  0  0  0  0  0  0  0  0  0  0  0
    1.8388   -0.4142   -0.1182 C   0  0  0  0  0  0  0  0  0  0  0  0
    2.6658    0.1161    0.8720 C   0  0  0  0  0  0  0  0  0  0  0  0
    1.3240    0.4151   -1.1147 C   0  0  0  0  0  0  0  0  0  0  0  0
    2.4635    2.3048   -0.1312 C   0  0  0  0  0  0  0  0  0  0  0  0
    2.9780    1.4757    0.8656 C   0  0  0  0  0  0  0  0  0  0  0  0
    1.6364    1.7744   -1.1213 C   0  0  0  0  0  0  0  0  0  0  0  0
   -1.0701   -1.2971    0.4951 C   0  0  0  0  0  0  0  0  0  0  0  0
   -3.0879    0.3298   -0.1606 C   0  0  0  0  0  0  0  0  0  0  0  0
   -2.6956   -0.7172   -0.9692 C   0  0  0  0  0  0  0  0  0  0  0  0
   -2.3711    0.4822    1.0088 C   0  0  0  0  0  0  0  0  0  0  0  0
   -4.4284    2.2059    0.4219 C   0  0  0  0  0  0  0  0  0  0  0  0
  1  2  2  0
  1  3  2  0
  1  5  1  0
  1  9  1  0
  4 16  1  0
  4 19  1  0
  5 15  1  0
  6 15  2  0
  6 17  1  0
  7 15  1  0
  7 18  2  0
  8 12  1  0
  9 10  2  0
  9 11  1  0
 10 13  1  0
 11 14  2  0
 12 13  2  0
 12 14  1  0
 16 17  2  0
 16 18  1  0
M  END
>  <PUBCHEM_COMPOUND_CID>  (1) 
5326

>  <PUBCHEM_CONFORMER_RMSD>  (1) 
0.6

>  <PUBCHEM_CONFORMER_DIVERSEORDER>  (1) 
1
6
4
12
2
8
3
10
24
7
23
11
21
19
5
18
22
15
9
16
17
20
14
13

>  <PUBCHEM_MMFF94_PARTIAL_CHARGES>  (1) 
28
1 1.45
10 -0.15
11 -0.15
12 0.1
13 -0.15
14 -0.15
15 0.82
16 0.08
17 0.16
18 0.16
19 0.28
2 -0.65
20 0.15
21 0.15
22 0.42
23 0.15
24 0.15
25 0.15
26 0.15
27 0.4
28 0.4
3 -0.65
4 -0.36
5 -0.76
6 -0.62
7 -0.62
8 -0.9
9 -0.01

>  <PUBCHEM_EFFECTIVE_ROTOR_COUNT>  (1) 
4

>  <PUBCHEM_PHARMACOPHORE_FEATURES>  (1) 
9
1 2 acceptor
1 3 acceptor
1 4 acceptor
1 5 donor
1 6 acceptor
1 8 cation
1 8 donor
6 6 7 15 16 17 18 rings
6 9 10 11 12 13 14 rings

>  <PUBCHEM_HEAVY_ATOM_COUNT>  (1) 
19

>  <PUBCHEM_ATOM_DEF_STEREO_COUNT>  (1) 
0

>  <PUBCHEM_ATOM_UDEF_STEREO_COUNT>  (1) 
0

>  <PUBCHEM_BOND_DEF_STEREO_COUNT>  (1) 
0

>  <PUBCHEM_BOND_UDEF_STEREO_COUNT>  (1) 
0

>  <PUBCHEM_ISOTOPIC_ATOM_COUNT>  (1) 
0

>  <PUBCHEM_COMPONENT_COUNT>  (1) 
1

>  <PUBCHEM_CACTVS_TAUTO_COUNT>  (1) 
2

>  <PUBCHEM_CONFORMER_ID>  (1) 
000014CE00000001

>  <PUBCHEM_MMFF94_ENERGY>  (1) 
58.9273

>  <PUBCHEM_FEATURE_SELFOVERLAP>  (1) 
45.69

>  <PUBCHEM_SHAPE_FINGERPRINT>  (1) 
10382601 240 18040710347137639368
104564 63 17255976567321319990
11640471 11 18201435917213536445
12633257 1 17750213907543687112
13134695 92 18191864522660427006
13464514 151 18410023121647503142
14250199 8 18270405988343477863
15295992 7 18042417845867014259
15420108 30 18199162076097803802
16945 1 18334292089384228674
17980427 23 17985517044950347714
18186145 218 18200604605208916769
18522851 12 9222409478881069220
18981168 100 18191330305842861771
192875 21 18050824895992567149
20510252 161 17618510221438856594
20671657 1 18409452470406419366
21475661 188 17750508469618538677
21524375 3 18125445451909205762
23419403 2 13632173326504572346
23558518 356 18410567401563672751
305870 269 18337672026671752958
474 4 18408035217446186321
49207404 50 18042709298195243345
5939293 188 18266176136830517702
7364860 26 18342458097565861054
7832392 63 18340201886852489319
81228 2 17254291024892011018
84936 182 18342733056903370457
9981440 41 18193828477891804880

>  <PUBCHEM_SHAPE_MULTIPOLES>  (1) 
357.33
6.48
3.5
1.21
6.1
0.62
0.07
4.74
-0.45
-2.64
0.21
-0.07
-0.18
-0.38

>  <PUBCHEM_SHAPE_SELFOVERLAP>  (1) 
746.84

>  <PUBCHEM_SHAPE_VOLUME>  (1) 
203.9

>  <PUBCHEM_COORDINATE_TYPE>  (1) 
2
5
10

$$$$
