5331
     RDKit          3D

 22 24  0  0  1  0  0  0  0  0999 V2000
   -3.0264   -1.8923   -0.3184 S   0  0  0  0  0  0  0  0  0  0  0  0
    3.3757   -1.8500   -0.1715 S   0  0  0  0  0  0  0  0  0  0  0  0
   -0.9670    2.5740   -0.3394 O   0  0  0  0  0  0  0  0  0  0  0  0
    1.2818    1.9751   -0.0609 O   0  0  0  0  0  0  0  0  0  0  0  0
    0.1760    0.5563    1.4341 O   0  0  0  0  0  0  0  0  0  0  0  0
   -2.0803   -0.8273   -1.1234 O   0  0  0  0  0  0  0  0  0  0  0  0
   -3.0884   -1.0701    1.0965 O   0  0  0  0  0  0  0  0  0  0  0  0
    2.3537   -0.6388    0.2409 O   0  0  0  0  0  0  0  0  0  0  0  0
   -2.2823   -3.1189   -0.1173 O   0  0  0  0  0  0  0  0  0  0  0  0
   -4.3462   -1.8891   -0.9163 O   0  0  0  0  0  0  0  0  0  0  0  0
    2.6604   -3.1092   -0.0736 O   0  0  0  0  0  0  0  0  0  0  0  0
    4.0144   -1.4731   -1.4195 O   0  0  0  0  0  0  0  0  0  0  0  0
    4.5735   -1.8198    1.0549 N   0  0  0  0  0  0  0  0  0  0  0  0
   -0.7883    1.2044   -0.7300 C   0  0  0  0  0  0  0  0  0  0  0  0
    0.4562    0.8004    0.0519 C   0  0  0  0  0  0  0  0  0  0  0  0
   -2.0469    0.4224   -0.4133 C   0  0  0  0  0  0  0  0  0  0  0  0
   -2.1698    0.0353    1.0694 C   0  0  0  0  0  0  0  0  0  0  0  0
    0.3642    3.0753   -0.1536 C   0  0  0  0  0  0  0  0  0  0  0  0
   -0.8420   -0.4049    1.6703 C   0  0  0  0  0  0  0  0  0  0  0  0
    1.2206   -0.3659   -0.5638 C   0  0  0  0  0  0  0  0  0  0  0  0
    0.4065    3.8852    1.1357 C   0  0  0  0  0  0  0  0  0  0  0  0
    0.7547    3.9313   -1.3528 C   0  0  0  0  0  0  0  0  0  0  0  0
  1  6  1  0
  1  7  1  0
  1  9  2  0
  1 10  2  0
  2  8  1  0
  2 11  2  0
  2 12  2  0
  2 13  1  0
  3 14  1  0
  3 18  1  0
  4 15  1  0
  4 18  1  0
  5 15  1  0
  5 19  1  0
  6 16  1  0
  7 17  1  0
  8 20  1  0
 14 15  1  0
 14 16  1  0
 15 20  1  0
 16 17  1  0
 17 19  1  0
 18 21  1  0
 18 22  1  0
M  END
>  <PUBCHEM_COMPOUND_CID>  (1) 
5331

>  <PUBCHEM_CONFORMER_RMSD>  (1) 
0.8

>  <PUBCHEM_CONFORMER_DIVERSEORDER>  (1) 
3
47
55
23
27
51
35
54
34
43
44
32
46
42
52
53
11
40
58
31
20
39
28
45
24
16
6
57
56
17
9
41
19
1
48
50
36
5
4
25
49
8
10
15
33
26
38
18
29
21
7
37
2
22
30
13
14
12

>  <PUBCHEM_MMFF94_PARTIAL_CHARGES>  (1) 
22
1 1.67
10 -0.65
11 -0.65
12 -0.65
13 -0.98
14 0.28
15 0.56
16 0.28
17 0.28
18 0.56
19 0.28
2 1.62
20 0.28
3 -0.56
36 0.42
37 0.42
4 -0.56
5 -0.56
6 -0.46
7 -0.46
8 -0.46
9 -0.65

>  <PUBCHEM_EFFECTIVE_ROTOR_COUNT>  (1) 
4.4

>  <PUBCHEM_PHARMACOPHORE_FEATURES>  (1) 
12
1 10 acceptor
1 11 acceptor
1 12 acceptor
1 13 donor
1 3 acceptor
1 4 acceptor
1 5 acceptor
1 9 acceptor
3 18 21 22 hydrophobe
5 1 6 7 16 17 rings
5 3 4 14 15 18 rings
6 5 14 15 16 17 19 rings

>  <PUBCHEM_HEAVY_ATOM_COUNT>  (1) 
22

>  <PUBCHEM_ATOM_DEF_STEREO_COUNT>  (1) 
0

>  <PUBCHEM_ATOM_UDEF_STEREO_COUNT>  (1) 
4

>  <PUBCHEM_BOND_DEF_STEREO_COUNT>  (1) 
0

>  <PUBCHEM_BOND_UDEF_STEREO_COUNT>  (1) 
0

>  <PUBCHEM_ISOTOPIC_ATOM_COUNT>  (1) 
0

>  <PUBCHEM_COMPONENT_COUNT>  (1) 
1

>  <PUBCHEM_CACTVS_TAUTO_COUNT>  (1) 
1

>  <PUBCHEM_CONFORMER_ID>  (1) 
000014D300000003

>  <PUBCHEM_MMFF94_ENERGY>  (1) 
50.9708

>  <PUBCHEM_FEATURE_SELFOVERLAP>  (1) 
61.458

>  <PUBCHEM_SHAPE_FINGERPRINT>  (1) 
107951 10 16239602303682691330
11578080 2 17917415528103927457
12173636 292 17545314186268748684
12553582 1 18337966622589430326
12788726 201 18046622304800305210
12839892 36 17402874017936424634
13004483 165 18338227146594260890
13140716 1 18339921515708832008
13533116 47 18053388979512350579
13681431 1 18335982077141943520
13931106 250 18121491354587060430
13955234 65 17981043330216956979
14081887 123 18267289938310561402
14790565 3 17762619486549881941
14817 1 14090309409129978369
15309172 13 17254845689758709109
15852999 172 17321539831668784153
16945 1 18048884288340489385
1813 80 18343033189281331479
20524608 308 17760372089314006002
20600515 1 18128826248190728677
20645477 70 17974837669462946727
20671657 53 18410849988524852447
21304303 282 17106174778400586988
21452121 199 18335692862860687560
21452121 71 18339090383602170006
21665056 4 17402892224418972974
21731228 192 9871744689442301390
23114952 82 17897999377170754781
23419403 2 17392712164243503340
23526113 38 17822847692634255913
23557571 272 18198613346891180640
23559900 14 18196924685851579387
23566358 27 18048619288910878883
23598288 3 17972900059022119964
23598291 2 18128556992453425651
23728640 28 17616248083449232858
257057 1 18410571781880980412
3091708 16 9138333063242053608
458136 41 17615426074111362185
6992083 37 18199488587958616705
7364860 26 18123747818619178009
81228 2 18119812413285232120
84936 31 17982154927371072289

>  <PUBCHEM_SHAPE_MULTIPOLES>  (1) 
396.77
5.9
4.75
1.33
1.9
3.83
0.23
-8.05
-0.65
1.97
-0.59
-0.04
0.26
-0.36

>  <PUBCHEM_SHAPE_SELFOVERLAP>  (1) 
815.437

>  <PUBCHEM_SHAPE_VOLUME>  (1) 
231.9

>  <PUBCHEM_COORDINATE_TYPE>  (1) 
2
5
10

$$$$
