5335
     RDKit          3D

 22 24  0  0  0  0  0  0  0  0999 V2000
   -0.2991   -2.1848    0.3841 S   0  0  0  0  0  0  0  0  0  0  0  0
   -0.7039   -3.5281    0.0135 O   0  0  0  0  0  0  0  0  0  0  0  0
    0.2792   -1.9417    1.6917 O   0  0  0  0  0  0  0  0  0  0  0  0
    2.5404    0.0561   -0.1781 N   0  0  0  0  0  0  0  0  0  0  0  0
    0.7244   -1.5721   -0.8441 N   0  0  0  0  0  0  0  0  0  0  0  0
    3.8574    0.0758    0.1164 N   0  0  0  0  0  0  0  0  0  0  0  0
   -5.1073    1.2731   -0.1458 N   0  0  0  0  0  0  0  0  0  0  0  0
    2.0779   -1.1978   -0.4831 C   0  0  0  0  0  0  0  0  0  0  0  0
   -1.7307   -1.1560    0.2267 C   0  0  0  0  0  0  0  0  0  0  0  0
    1.7982    1.2227   -0.1542 C   0  0  0  0  0  0  0  0  0  0  0  0
    3.1575   -2.0408   -0.3809 C   0  0  0  0  0  0  0  0  0  0  0  0
   -2.7515   -1.5475   -0.6205 C   0  0  0  0  0  0  0  0  0  0  0  0
   -1.7988    0.0190    0.9529 C   0  0  0  0  0  0  0  0  0  0  0  0
    4.2252   -1.2021   -0.0089 C   0  0  0  0  0  0  0  0  0  0  0  0
   -3.8791   -0.7360   -0.7456 C   0  0  0  0  0  0  0  0  0  0  0  0
   -2.9266    0.8304    0.8280 C   0  0  0  0  0  0  0  0  0  0  0  0
    0.6989    1.3675   -1.0006 C   0  0  0  0  0  0  0  0  0  0  0  0
    2.1496    2.2552    0.7154 C   0  0  0  0  0  0  0  0  0  0  0  0
   -3.9667    0.4529   -0.0213 C   0  0  0  0  0  0  0  0  0  0  0  0
   -0.0489    2.5448   -0.9772 C   0  0  0  0  0  0  0  0  0  0  0  0
    1.4016    3.4323    0.7389 C   0  0  0  0  0  0  0  0  0  0  0  0
    0.3023    3.5772   -0.1074 C   0  0  0  0  0  0  0  0  0  0  0  0
  1  2  2  0
  1  3  2  0
  1  5  1  0
  1  9  1  0
  4  6  1  0
  4  8  1  0
  4 10  1  0
  5  8  1  0
  6 14  2  0
  7 19  1  0
  8 11  2  0
  9 12  2  0
  9 13  1  0
 10 17  2  0
 10 18  1  0
 11 14  1  0
 12 15  1  0
 13 16  2  0
 15 19  2  0
 16 19  1  0
 17 20  1  0
 18 21  2  0
 20 22  2  0
 21 22  1  0
M  END
>  <PUBCHEM_COMPOUND_CID>  (1) 
5335

>  <PUBCHEM_CONFORMER_RMSD>  (1) 
0.6

>  <PUBCHEM_CONFORMER_DIVERSEORDER>  (1) 
1
21
12
24
22
38
48
40
36
30
25
37
17
28
41
47
16
45
49
18
19
50
3
26
43
44
20
14
29
15
33
31
8
35
23
27
7
13
10
32
4
11
9
39
34
2
6
46
5
42

>  <PUBCHEM_MMFF94_PARTIAL_CHARGES>  (1) 
36
1 1.45
10 -0.02
11 -0.15
12 -0.15
13 -0.15
14 0.14
15 -0.15
16 -0.15
17 -0.15
18 -0.15
19 0.1
2 -0.65
20 -0.15
21 -0.15
22 -0.15
23 0.42
24 0.15
25 0.15
26 0.15
27 0.15
28 0.15
29 0.15
3 -0.65
30 0.15
31 0.15
32 0.15
33 0.15
34 0.15
35 0.4
36 0.4
4 0.59
5 -0.7
6 -0.71
7 -0.9
8 -0.01
9 -0.01

>  <PUBCHEM_EFFECTIVE_ROTOR_COUNT>  (1) 
4

>  <PUBCHEM_PHARMACOPHORE_FEATURES>  (1) 
9
1 2 acceptor
1 3 acceptor
1 5 donor
1 6 acceptor
1 7 cation
1 7 donor
5 4 6 8 11 14 rings
6 10 17 18 20 21 22 rings
6 9 12 13 15 16 19 rings

>  <PUBCHEM_HEAVY_ATOM_COUNT>  (1) 
22

>  <PUBCHEM_ATOM_DEF_STEREO_COUNT>  (1) 
0

>  <PUBCHEM_ATOM_UDEF_STEREO_COUNT>  (1) 
0

>  <PUBCHEM_BOND_DEF_STEREO_COUNT>  (1) 
0

>  <PUBCHEM_BOND_UDEF_STEREO_COUNT>  (1) 
0

>  <PUBCHEM_ISOTOPIC_ATOM_COUNT>  (1) 
0

>  <PUBCHEM_COMPONENT_COUNT>  (1) 
1

>  <PUBCHEM_CACTVS_TAUTO_COUNT>  (1) 
3

>  <PUBCHEM_CONFORMER_ID>  (1) 
000014D700000001

>  <PUBCHEM_MMFF94_ENERGY>  (1) 
61.1249

>  <PUBCHEM_FEATURE_SELFOVERLAP>  (1) 
45.69

>  <PUBCHEM_SHAPE_FINGERPRINT>  (1) 
104564 63 18046631096730248056
10708813 3 17984433936135238297
10967382 1 18410858750315814142
11370993 70 17908974749209866409
11646440 116 18339933610531884241
116883 192 18197224646362095222
12011746 2 18413395319631014980
12403259 226 18334575771984549079
12553582 1 18339662078309465788
12596599 1 17917445193489908991
12788726 201 18192158105603326866
13134695 92 18411135835872962780
13140716 1 18409173220312308947
13402501 40 18262234396651977381
14178342 30 17905036307148853936
14223421 5 17832711544506715443
14955137 171 18195836014742305907
15420108 30 17914313918182711562
17357779 13 18335975359638883372
17492 89 18197213865615121159
192875 21 18273210919720419725
20600515 1 18261121768241266486
20905425 154 17905045846207694031
22749437 52 18123745628381133289
23402539 116 18342731884535722934
23558518 356 17973159827239813643
23559900 14 18200869686032176096
3014063 31 18194117413263897565
345986 75 17535442865564622434
350125 39 17904777917584422890
3524813 1 18041836208347578629
474 4 18411984663392570827
5939293 188 18411415120295019904
6443956 14 18338801117644844837
7226269 152 18187921751736623442
7832392 63 18412260666053652935
81228 2 18047774606340568924
9709674 26 18123470737468020095
9981440 41 17620181478780975240

>  <PUBCHEM_SHAPE_MULTIPOLES>  (1) 
424.94
7.02
4.08
1.02
3.95
1.82
-0.13
-0.82
0.44
-1.66
-0.21
0.12
0.02
0.21

>  <PUBCHEM_SHAPE_SELFOVERLAP>  (1) 
913.572

>  <PUBCHEM_SHAPE_VOLUME>  (1) 
235.1

>  <PUBCHEM_COORDINATE_TYPE>  (1) 
2
5
10

$$$$
