5340
     RDKit          3D

 16 17  0  0  0  0  0  0  0  0999 V2000
    0.4732   -2.0125    0.1703 S   0  0  0  0  0  0  0  0  0  0  0  0
    2.5055    1.2704   -1.5949 S   0  0  0  0  0  0  0  0  0  0  0  0
    0.0415   -3.2030   -0.5525 O   0  0  0  0  0  0  0  0  0  0  0  0
    0.9030   -2.1497    1.5565 O   0  0  0  0  0  0  0  0  0  0  0  0
    1.7180   -1.2522   -0.7466 N   0  0  0  0  0  0  0  0  0  0  0  0
   -3.9504    1.9540   -0.0676 N   0  0  0  0  0  0  0  0  0  0  0  0
    2.1294    0.5233    0.8511 N   0  0  0  0  0  0  0  0  0  0  0  0
   -0.8256   -0.8476    0.1005 C   0  0  0  0  0  0  0  0  0  0  0  0
   -1.7623   -0.9086   -0.9314 C   0  0  0  0  0  0  0  0  0  0  0  0
   -0.9265    0.1440    1.0763 C   0  0  0  0  0  0  0  0  0  0  0  0
   -2.9007    1.0135   -0.0118 C   0  0  0  0  0  0  0  0  0  0  0  0
   -2.7998    0.0220   -0.9876 C   0  0  0  0  0  0  0  0  0  0  0  0
   -1.9642    1.0746    1.0202 C   0  0  0  0  0  0  0  0  0  0  0  0
    2.0861    0.0946   -0.4020 C   0  0  0  0  0  0  0  0  0  0  0  0
    2.7596    2.4271   -0.3543 C   0  0  0  0  0  0  0  0  0  0  0  0
    2.5131    1.8499    0.8738 C   0  0  0  0  0  0  0  0  0  0  0  0
  1  3  2  0
  1  4  2  0
  1  5  1  0
  1  8  1  0
  2 14  1  0
  2 15  1  0
  5 14  1  0
  6 11  1  0
  7 14  2  0
  7 16  1  0
  8  9  2  0
  8 10  1  0
  9 12  1  0
 10 13  2  0
 11 12  2  0
 11 13  1  0
 15 16  2  0
M  END
>  <PUBCHEM_COMPOUND_CID>  (1) 
5340

>  <PUBCHEM_CONFORMER_RMSD>  (1) 
0.6

>  <PUBCHEM_CONFORMER_DIVERSEORDER>  (1) 
1
10
2
12
13
7
16
8
4
5
6
3
17
18
14
9
11
15

>  <PUBCHEM_MMFF94_PARTIAL_CHARGES>  (1) 
25
1 1.45
10 -0.15
11 0.1
12 -0.15
13 -0.15
14 0.52
15 -0.11
16 0.08
17 0.15
18 0.15
19 0.42
2 -0.08
20 0.15
21 0.15
22 0.4
23 0.4
24 0.15
25 0.15
3 -0.65
4 -0.65
5 -0.7
6 -0.9
7 -0.57
8 -0.01
9 -0.15

>  <PUBCHEM_EFFECTIVE_ROTOR_COUNT>  (1) 
3

>  <PUBCHEM_PHARMACOPHORE_FEATURES>  (1) 
8
1 3 acceptor
1 4 acceptor
1 5 donor
1 6 cation
1 6 donor
1 7 acceptor
5 2 7 14 15 16 rings
6 8 9 10 11 12 13 rings

>  <PUBCHEM_HEAVY_ATOM_COUNT>  (1) 
16

>  <PUBCHEM_ATOM_DEF_STEREO_COUNT>  (1) 
0

>  <PUBCHEM_ATOM_UDEF_STEREO_COUNT>  (1) 
0

>  <PUBCHEM_BOND_DEF_STEREO_COUNT>  (1) 
0

>  <PUBCHEM_BOND_UDEF_STEREO_COUNT>  (1) 
0

>  <PUBCHEM_ISOTOPIC_ATOM_COUNT>  (1) 
0

>  <PUBCHEM_COMPONENT_COUNT>  (1) 
1

>  <PUBCHEM_CACTVS_TAUTO_COUNT>  (1) 
2

>  <PUBCHEM_CONFORMER_ID>  (1) 
000014DC00000001

>  <PUBCHEM_MMFF94_ENERGY>  (1) 
28.8804

>  <PUBCHEM_FEATURE_SELFOVERLAP>  (1) 
40.615

>  <PUBCHEM_SHAPE_FINGERPRINT>  (1) 
11640471 11 17897149437386667032
12400797 245 8070024433038277528
13134695 92 17536570946850451302
13533116 47 9798538175422923461
13764800 53 18048045356483261170
14817 1 8068380723299898330
15276787 5 15358235152956856420
15775835 57 18411703187941288332
16945 1 18197232351037603827
17134986 127 18410859845311188541
18186145 218 18130517391473532933
18981168 100 18118707605957115556
19765921 60 18341323478922744153
20510252 161 17832427875065421658
20559304 39 18054505799166641955
20645476 183 18262242251846149788
20671657 1 18338518538644650590
21524375 3 18334576875485201894
21947302 44 17968663692270527441
22802520 49 17699879463720287772
23419403 2 16819186961941724170
23557571 272 17478056411541843004
25 1 18338815432754524396
2748010 2 18338535121555727778
305870 269 18335975411362807962
3060560 45 18198622125166420375
353137 74 18198332043328215267
474 4 18260547822929077829
5262128 65 16773252771910459216
526903 126 18057320797936739969
549884 4 18130802117803764284
7364860 26 18198056971863094703
81228 2 17617393108882263914
9981440 41 17983565597116800400

>  <PUBCHEM_SHAPE_MULTIPOLES>  (1) 
310.29
5.19
2.88
1.33
1.03
1.43
0
-4.63
-0.95
-0.27
0.11
-0.36
0
-0.33

>  <PUBCHEM_SHAPE_SELFOVERLAP>  (1) 
633.804

>  <PUBCHEM_SHAPE_VOLUME>  (1) 
180

>  <PUBCHEM_COORDINATE_TYPE>  (1) 
2
5
10

$$$$
