5345
     RDKit          3D

 36 39  0  0  0  0  0  0  0  0999 V2000
    0.1328   -0.3095   -2.3327 Br  0  0  0  0  0  0  0  0  0  0  0  0
   -4.4618   -3.4190    1.3126 Br  0  0  0  0  0  0  0  0  0  0  0  0
   -2.3330   -2.0017   -3.8659 Br  0  0  0  0  0  0  0  0  0  0  0  0
   -4.6545   -3.5446   -2.0323 Br  0  0  0  0  0  0  0  0  0  0  0  0
    4.6458    0.1599   -1.0131 S   0  0  0  0  0  0  0  0  0  0  0  0
   -1.9618    4.0410   -0.9530 S   0  0  0  0  0  0  0  0  0  0  0  0
   -0.6875   -0.9456    2.2731 O   0  0  0  0  0  0  0  0  0  0  0  0
   -2.4832   -2.1168    3.1382 O   0  0  0  0  0  0  0  0  0  0  0  0
    5.0689   -2.5742    0.1790 O   0  0  0  0  0  0  0  0  0  0  0  0
   -0.3185    5.1703    1.3054 O   0  0  0  0  0  0  0  0  0  0  0  0
    4.8629   -0.6167   -2.4343 O   0  0  0  0  0  0  0  0  0  0  0  0
   -0.8709    4.8063   -1.8988 O   0  0  0  0  0  0  0  0  0  0  0  0
    4.0275    1.4410   -1.3174 O   0  0  0  0  0  0  0  0  0  0  0  0
    5.8907    0.0934   -0.2653 O   0  0  0  0  0  0  0  0  0  0  0  0
   -2.6545    3.0779   -1.7947 O   0  0  0  0  0  0  0  0  0  0  0  0
   -2.7018    5.0472   -0.2091 O   0  0  0  0  0  0  0  0  0  0  0  0
   -0.1713   -0.5053    0.9647 C   0  0  0  0  0  0  0  0  0  0  0  0
   -1.1630   -1.1705    0.0560 C   0  0  0  0  0  0  0  0  0  0  0  0
    1.2436   -1.0576    0.7502 C   0  0  0  0  0  0  0  0  0  0  0  0
   -0.2153    1.0246    1.0518 C   0  0  0  0  0  0  0  0  0  0  0  0
   -2.1282   -1.8300    0.7948 C   0  0  0  0  0  0  0  0  0  0  0  0
   -1.8407   -1.6749    2.2073 C   0  0  0  0  0  0  0  0  0  0  0  0
   -1.2112   -1.2252   -1.3310 C   0  0  0  0  0  0  0  0  0  0  0  0
    2.1914   -0.3036    0.0559 C   0  0  0  0  0  0  0  0  0  0  0  0
   -0.9693    1.7566    0.1326 C   0  0  0  0  0  0  0  0  0  0  0  0
    1.5866   -2.3158    1.2484 C   0  0  0  0  0  0  0  0  0  0  0  0
    0.4987    1.6896    2.0502 C   0  0  0  0  0  0  0  0  0  0  0  0
   -3.1690   -2.5382    0.2196 C   0  0  0  0  0  0  0  0  0  0  0  0
    3.4780   -0.8058   -0.1393 C   0  0  0  0  0  0  0  0  0  0  0  0
   -1.0093    3.1487    0.2119 C   0  0  0  0  0  0  0  0  0  0  0  0
   -2.2518   -1.9313   -1.9438 C   0  0  0  0  0  0  0  0  0  0  0  0
   -3.2264   -2.5819   -1.1723 C   0  0  0  0  0  0  0  0  0  0  0  0
    2.8731   -2.8182    1.0529 C   0  0  0  0  0  0  0  0  0  0  0  0
    0.4590    3.0817    2.1292 C   0  0  0  0  0  0  0  0  0  0  0  0
    3.8189   -2.0632    0.3591 C   0  0  0  0  0  0  0  0  0  0  0  0
   -0.2951    3.8113    1.2101 C   0  0  0  0  0  0  0  0  0  0  0  0
  1 23  1  0
  2 28  1  0
  3 31  1  0
  4 32  1  0
  5 11  1  0
  5 13  2  0
  5 14  2  0
  5 29  1  0
  6 12  1  0
  6 15  2  0
  6 16  2  0
  6 30  1  0
  7 17  1  0
  7 22  1  0
  8 22  2  0
  9 35  1  0
 10 36  1  0
 17 18  1  0
 17 19  1  0
 17 20  1  0
 18 21  2  0
 18 23  1  0
 19 24  2  0
 19 26  1  0
 20 25  2  0
 20 27  1  0
 21 22  1  0
 21 28  1  0
 23 31  2  0
 24 29  1  0
 25 30  1  0
 26 33  2  0
 27 34  2  0
 28 32  2  0
 29 35  2  0
 30 36  2  0
 31 32  1  0
 33 35  1  0
 34 36  1  0
M  END
>  <PUBCHEM_COMPOUND_CID>  (1) 
5345

>  <PUBCHEM_CONFORMER_RMSD>  (1) 
0.8

>  <PUBCHEM_CONFORMER_DIVERSEORDER>  (1) 
1
6
18
10
15
12
14
3
5
11
9
4
8
16
17
13
19
7
2

>  <PUBCHEM_MMFF94_PARTIAL_CHARGES>  (1) 
46
1 -0.11
10 -0.53
11 -0.68
12 -0.68
13 -0.65
14 -0.65
15 -0.65
16 -0.65
17 0.71
18 -0.14
19 -0.14
2 -0.11
20 -0.14
21 0.09
22 0.63
23 0.11
24 -0.15
25 -0.15
26 -0.15
27 -0.15
28 0.11
29 -0.01
3 -0.11
30 -0.01
31 0.11
32 0.11
33 -0.15
34 -0.15
35 0.08
36 0.08
37 0.15
38 0.15
39 0.15
4 -0.11
40 0.15
41 0.15
42 0.15
43 0.45
44 0.45
45 0.5
46 0.5
5 1.49
6 1.49
7 -0.43
8 -0.57
9 -0.53

>  <PUBCHEM_EFFECTIVE_ROTOR_COUNT>  (1) 
4.4

>  <PUBCHEM_PHARMACOPHORE_FEATURES>  (1) 
19
1 1 hydrophobe
1 10 donor
1 11 acceptor
1 12 acceptor
1 13 acceptor
1 14 acceptor
1 15 acceptor
1 16 acceptor
1 2 hydrophobe
1 3 hydrophobe
1 4 hydrophobe
1 8 acceptor
1 9 donor
4 5 11 13 14 anion
4 6 12 15 16 anion
5 7 17 18 21 22 rings
6 18 21 23 28 31 32 rings
6 19 24 26 29 33 35 rings
6 20 25 27 30 34 36 rings

>  <PUBCHEM_HEAVY_ATOM_COUNT>  (1) 
36

>  <PUBCHEM_ATOM_DEF_STEREO_COUNT>  (1) 
0

>  <PUBCHEM_ATOM_UDEF_STEREO_COUNT>  (1) 
0

>  <PUBCHEM_BOND_DEF_STEREO_COUNT>  (1) 
0

>  <PUBCHEM_BOND_UDEF_STEREO_COUNT>  (1) 
0

>  <PUBCHEM_ISOTOPIC_ATOM_COUNT>  (1) 
0

>  <PUBCHEM_COMPONENT_COUNT>  (1) 
1

>  <PUBCHEM_CACTVS_TAUTO_COUNT>  (1) 
5

>  <PUBCHEM_CONFORMER_ID>  (1) 
000014E100000001

>  <PUBCHEM_MMFF94_ENERGY>  (1) 
102.5148

>  <PUBCHEM_FEATURE_SELFOVERLAP>  (1) 
96.627

>  <PUBCHEM_SHAPE_FINGERPRINT>  (1) 
10764073 3 14042695809782365398
11045515 52 18339643446477611226
11069576 57 16108350251017220277
11115154 58 18263349435029686031
11445158 3 17688898726703722119
11578080 2 17559931338265686243
11763715 3 18267608933937018790
11991303 11 18048326539291536791
12160290 23 18058160622814148515
12741549 16 17822855419449076969
12788726 201 18265885870224830187
13149001 5 17699536226760855304
133893 2 17622743319725592027
15439362 3 17620754324771634105
15484559 13 16683106209950348740
15815584 197 17472083756689278563
17980427 26 17328905443178993539
1813 80 17845373413217739486
18603816 31 14043500541441991198
19319366 153 17615380599456678749
21304303 282 17898544532926988392
21716022 299 17126770117263502195
22907989 373 17986961756358930412
23598288 3 18268720411285678218
244849 19 17828191427279630699
24893989 43 16618629508807215045
26353 1 18199455735421427652
3388396 114 18118420646951253708
3493558 16 17749687237247457053
35225 105 18195256515725725725
404807 78 17753315488993197557
4394409 98 17179412590987590108
4409770 3 18055912095828963003
469060 322 17972070104222378896
5080951 261 17917141681548212114
5081480 168 18126544933799135847
57527306 92 17259687762662376749
59444896 2 17548472279948400041
6691757 9 17553752968446420994
70251023 43 18126554854994747375

>  <PUBCHEM_SHAPE_MULTIPOLES>  (1) 
713.64
8.28
6.58
3.09
0.75
12.25
1
-11.04
3.16
-3.48
0.39
2.36
-0.64
0.86

>  <PUBCHEM_SHAPE_SELFOVERLAP>  (1) 
1505.796

>  <PUBCHEM_SHAPE_VOLUME>  (1) 
413.4

>  <PUBCHEM_COORDINATE_TYPE>  (1) 
2
5
10

$$$$
