5353
     RDKit          3D

 20 22  0  0  1  0  0  0  0  0999 V2000
    5.1031   -0.6134    0.3354 S   0  0  0  0  0  0  0  0  0  0  0  0
    0.7468    2.0889   -0.0288 O   0  0  0  0  0  0  0  0  0  0  0  0
    5.6197    0.7444    0.7222 O   0  0  0  0  0  0  0  0  0  0  0  0
   -1.6719   -1.2344   -0.3570 N   0  0  0  0  0  0  0  0  0  0  0  0
   -1.6412    0.7907    0.5693 N   0  0  0  0  0  0  0  0  0  0  0  0
   -4.0435    1.1398    0.5960 N   0  0  0  0  0  0  0  0  0  0  0  0
    0.5324   -0.2946    0.1929 C   0  0  0  0  0  0  0  0  0  0  0  0
   -0.9081   -0.2173    0.1493 C   0  0  0  0  0  0  0  0  0  0  0  0
    1.3161    0.8565    0.1016 C   0  0  0  0  0  0  0  0  0  0  0  0
   -2.9830   -0.8560   -0.2563 C   0  0  0  0  0  0  0  0  0  0  0  0
    1.1424   -1.5426    0.3273 C   0  0  0  0  0  0  0  0  0  0  0  0
   -2.9353    0.4070    0.3227 C   0  0  0  0  0  0  0  0  0  0  0  0
    3.3156   -0.4882    0.2796 C   0  0  0  0  0  0  0  0  0  0  0  0
    2.7070    0.7598    0.1449 C   0  0  0  0  0  0  0  0  0  0  0  0
    2.5333   -1.6393    0.3708 C   0  0  0  0  0  0  0  0  0  0  0  0
   -4.1856   -1.4638   -0.5998 C   0  0  0  0  0  0  0  0  0  0  0  0
   -5.3323   -0.7233   -0.3252 C   0  0  0  0  0  0  0  0  0  0  0  0
   -5.2056    0.5343    0.2554 C   0  0  0  0  0  0  0  0  0  0  0  0
    5.3840   -0.8014   -1.4454 C   0  0  0  0  0  0  0  0  0  0  0  0
    0.5062    2.5529   -1.3550 C   0  0  0  0  0  0  0  0  0  0  0  0
  1  3  2  0
  1 13  1  0
  1 19  1  0
  2  9  1  0
  2 20  1  0
  4  8  1  0
  4 10  1  0
  5  8  2  0
  5 12  1  0
  6 12  1  0
  6 18  2  0
  7  8  1  0
  7  9  2  0
  7 11  1  0
  9 14  1  0
 10 12  2  0
 10 16  1  0
 11 15  2  0
 13 14  2  0
 13 15  1  0
 16 17  2  0
 17 18  1  0
M  END
>  <PUBCHEM_COMPOUND_CID>  (1) 
5353

>  <PUBCHEM_CONFORMER_RMSD>  (1) 
0.6

>  <PUBCHEM_CONFORMER_DIVERSEORDER>  (1) 
6
21
24
27
29
4
16
9
30
25
26
10
23
18
28
15
11
17
19
3
22
13
20
8
2
14
12
5
7
1

>  <PUBCHEM_MMFF94_PARTIAL_CHARGES>  (1) 
27
1 0.24
10 -0.15
11 -0.15
12 0.48
13 0.06
14 -0.15
15 -0.15
16 -0.15
17 -0.15
18 0.16
19 0.19
2 -0.36
20 0.28
21 0.27
22 0.15
23 0.15
24 0.15
25 0.15
26 0.15
27 0.15
3 -0.5
4 0.03
5 -0.57
6 -0.57
7 0.05
8 0.13
9 0.08

>  <PUBCHEM_EFFECTIVE_ROTOR_COUNT>  (1) 
3

>  <PUBCHEM_PHARMACOPHORE_FEATURES>  (1) 
8
1 2 acceptor
1 3 acceptor
1 4 donor
1 6 acceptor
3 4 5 8 cation
5 4 5 8 10 12 rings
6 6 10 12 16 17 18 rings
6 7 9 11 13 14 15 rings

>  <PUBCHEM_HEAVY_ATOM_COUNT>  (1) 
20

>  <PUBCHEM_ATOM_DEF_STEREO_COUNT>  (1) 
0

>  <PUBCHEM_ATOM_UDEF_STEREO_COUNT>  (1) 
1

>  <PUBCHEM_BOND_DEF_STEREO_COUNT>  (1) 
0

>  <PUBCHEM_BOND_UDEF_STEREO_COUNT>  (1) 
0

>  <PUBCHEM_ISOTOPIC_ATOM_COUNT>  (1) 
0

>  <PUBCHEM_COMPONENT_COUNT>  (1) 
1

>  <PUBCHEM_CACTVS_TAUTO_COUNT>  (1) 
3

>  <PUBCHEM_CONFORMER_ID>  (1) 
000014E900000006

>  <PUBCHEM_MMFF94_ENERGY>  (1) 
57.4964

>  <PUBCHEM_FEATURE_SELFOVERLAP>  (1) 
40.725

>  <PUBCHEM_SHAPE_FINGERPRINT>  (1) 
10090160 65 17603305930079687306
10366900 7 17095519617505835761
10906281 52 18189071866231029506
11806522 49 18412823603311751674
12107183 9 17622449337646009939
12236239 1 18273494572113765227
12592029 89 11887960938800665948
13288520 33 18131634482671294951
13862211 1 18335135384743288602
14347332 77 18046347432138433262
14573314 32 17203052898078772406
15196674 1 18413387656897597306
15536298 74 18271803566079692008
15788980 27 16271924908880642087
1601671 61 18411418384570268246
17357779 13 17822555167086572997
17834072 33 18272931635192925754
1813 80 18040722437481017020
18186145 218 17822561803101032467
18222031 100 18408885135818740372
18681886 176 18202275948503128450
19141452 34 18202280320653345782
200 152 18273210911331068819
20567600 75 16486700173245628492
20612939 158 18113902709815485861
21033648 29 15984808290853184555
21267235 1 18413114974172933923
21421861 104 17607237658779372762
21641784 216 17386581154426459044
21709351 56 18335975446133970933
221490 88 18117845618853346115
2255824 54 18260830448777259799
23402539 116 18410005524792042287
23557571 272 18339085874150130076
23559900 14 18131340947305221793
29717793 49 17989486325044733509
34797466 226 16845298297522542312
34934 24 18335976459424602995
3545911 37 18341894082908897763
4214541 1 18343581828846457193
4340502 62 15626222416725039502
4463277 17 18410292510565228072
474 4 18042403715161229517
5104073 3 18341611555264377787
542803 24 17095244708927692846
67856867 119 18269550714104968961
7495541 125 16154004528732481065
9709674 26 18412830213662728111
9971528 1 18408880771800067548
9981440 41 17257364674813383193

>  <PUBCHEM_SHAPE_MULTIPOLES>  (1) 
388.76
12.2
1.88
0.92
0.65
0.82
-0.25
-2.38
-0.55
0.15
-0.42
0.58
0.12
-0.37

>  <PUBCHEM_SHAPE_SELFOVERLAP>  (1) 
839.464

>  <PUBCHEM_SHAPE_VOLUME>  (1) 
217.4

>  <PUBCHEM_COORDINATE_TYPE>  (1) 
2
5
10

$$$$
