5362
     RDKit          3D

 32 34  0  0  0  0  0  0  0  0999 V2000
    1.7601   -1.4763    0.1169 O   0  0  0  0  0  0  0  0  0  0  0  0
   -1.0475   -1.7386    2.1291 O   0  0  0  0  0  0  0  0  0  0  0  0
   -0.2857   -1.2311   -2.5116 O   0  0  0  0  0  0  0  0  0  0  0  0
    3.5287   -2.9488    0.2671 O   0  0  0  0  0  0  0  0  0  0  0  0
    7.5104    0.2679    0.7886 O   0  0  0  0  0  0  0  0  0  0  0  0
    5.6569    1.5810    0.7388 O   0  0  0  0  0  0  0  0  0  0  0  0
   -1.2247    0.0815    0.6073 N   0  0  0  0  0  0  0  0  0  0  0  0
   -0.8869    0.2575   -0.7557 N   0  0  0  0  0  0  0  0  0  0  0  0
   -0.5470   -1.9940   -0.2272 C   0  0  0  0  0  0  0  0  0  0  0  0
   -1.5662   -3.0967   -0.5022 C   0  0  0  0  0  0  0  0  0  0  0  0
   -0.9341   -1.2265    1.0246 C   0  0  0  0  0  0  0  0  0  0  0  0
   -0.5799   -0.9748   -1.3527 C   0  0  0  0  0  0  0  0  0  0  0  0
    0.8637   -2.5559   -0.0702 C   0  0  0  0  0  0  0  0  0  0  0  0
   -2.9571   -2.5176   -0.7468 C   0  0  0  0  0  0  0  0  0  0  0  0
   -3.9677   -3.6224   -1.0537 C   0  0  0  0  0  0  0  0  0  0  0  0
   -2.1129    0.9351    1.3299 C   0  0  0  0  0  0  0  0  0  0  0  0
   -0.4922    1.5044   -1.3296 C   0  0  0  0  0  0  0  0  0  0  0  0
   -5.3493   -3.0519   -1.3319 C   0  0  0  0  0  0  0  0  0  0  0  0
   -2.2383    0.8009    2.7128 C   0  0  0  0  0  0  0  0  0  0  0  0
   -0.9346    1.8561   -2.6049 C   0  0  0  0  0  0  0  0  0  0  0  0
   -2.8547    1.9035    0.6533 C   0  0  0  0  0  0  0  0  0  0  0  0
    0.3348    2.3708   -0.6146 C   0  0  0  0  0  0  0  0  0  0  0  0
    3.0830   -1.8098    0.2758 C   0  0  0  0  0  0  0  0  0  0  0  0
    3.8990   -0.5492    0.4657 C   0  0  0  0  0  0  0  0  0  0  0  0
   -3.1054    1.6347    3.4188 C   0  0  0  0  0  0  0  0  0  0  0  0
   -0.5497    3.0740   -3.1654 C   0  0  0  0  0  0  0  0  0  0  0  0
   -3.7218    2.7373    1.3594 C   0  0  0  0  0  0  0  0  0  0  0  0
    0.7195    3.5888   -1.1752 C   0  0  0  0  0  0  0  0  0  0  0  0
   -3.8471    2.6029    2.7422 C   0  0  0  0  0  0  0  0  0  0  0  0
    0.2772    3.9403   -2.4507 C   0  0  0  0  0  0  0  0  0  0  0  0
    5.3963   -0.8149    0.5649 C   0  0  0  0  0  0  0  0  0  0  0  0
    6.1730    0.4717    0.6972 C   0  0  0  0  0  0  0  0  0  0  0  0
  1 13  1  0
  1 23  1  0
  2 11  2  0
  3 12  2  0
  4 23  2  0
  5 32  1  0
  6 32  2  0
  7  8  1  0
  7 11  1  0
  7 16  1  0
  8 12  1  0
  8 17  1  0
  9 10  1  0
  9 11  1  0
  9 12  1  0
  9 13  1  0
 10 14  1  0
 14 15  1  0
 15 18  1  0
 16 19  2  0
 16 21  1  0
 17 20  2  0
 17 22  1  0
 19 25  1  0
 20 26  1  0
 21 27  2  0
 22 28  2  0
 23 24  1  0
 24 31  1  0
 25 29  2  0
 26 30  2  0
 27 29  1  0
 28 30  1  0
 31 32  1  0
M  END
>  <PUBCHEM_COMPOUND_CID>  (1) 
5362

>  <PUBCHEM_CONFORMER_RMSD>  (1) 
1

>  <PUBCHEM_CONFORMER_DIVERSEORDER>  (1) 
1
14
42
5
21
24
8
2
18
40
23
15
30
34
37
43
45
38
44
28
3
17
6
27
29
35
26
13
32
16
12
31
10
19
25
41
20
47
22
39
36
11
33
4
46
9
7

>  <PUBCHEM_MMFF94_PARTIAL_CHARGES>  (1) 
39
1 -0.43
11 0.57
12 0.57
13 0.28
16 0.12
17 0.12
19 -0.15
2 -0.57
20 -0.15
21 -0.15
22 -0.15
23 0.66
24 0.06
25 -0.15
26 -0.15
27 -0.15
28 -0.15
29 -0.15
3 -0.57
30 -0.15
31 0.06
32 0.66
4 -0.57
44 0.15
45 0.15
46 0.15
47 0.15
5 -0.65
50 0.15
51 0.15
52 0.15
53 0.15
54 0.15
55 0.15
58 0.5
6 -0.57
7 -0.18
8 -0.18
9 0.12

>  <PUBCHEM_EFFECTIVE_ROTOR_COUNT>  (1) 
11.6

>  <PUBCHEM_PHARMACOPHORE_FEATURES>  (1) 
10
1 18 hydrophobe
1 2 acceptor
1 3 acceptor
1 4 acceptor
1 5 acceptor
1 6 acceptor
3 5 6 32 anion
5 7 8 9 11 12 rings
6 16 19 21 25 27 29 rings
6 17 20 22 26 28 30 rings

>  <PUBCHEM_HEAVY_ATOM_COUNT>  (1) 
32

>  <PUBCHEM_ATOM_DEF_STEREO_COUNT>  (1) 
0

>  <PUBCHEM_ATOM_UDEF_STEREO_COUNT>  (1) 
0

>  <PUBCHEM_BOND_DEF_STEREO_COUNT>  (1) 
0

>  <PUBCHEM_BOND_UDEF_STEREO_COUNT>  (1) 
0

>  <PUBCHEM_ISOTOPIC_ATOM_COUNT>  (1) 
0

>  <PUBCHEM_COMPONENT_COUNT>  (1) 
1

>  <PUBCHEM_CACTVS_TAUTO_COUNT>  (1) 
1

>  <PUBCHEM_CONFORMER_ID>  (1) 
000014F200000001

>  <PUBCHEM_MMFF94_ENERGY>  (1) 
95.0753

>  <PUBCHEM_FEATURE_SELFOVERLAP>  (1) 
50.806

>  <PUBCHEM_SHAPE_FINGERPRINT>  (1) 
10670039 82 18260553355848716790
10816530 23 17327724116930510965
10930396 42 17530958090805387512
11582403 64 16088940645060345007
12156800 1 17416151531754934525
12422481 6 18114474370659149312
12788726 201 17913783970088053823
133893 2 17607546892145268421
14028597 1 17257407521575192259
140371 6 18265624362345915250
14068700 675 18198053892345221894
14142880 1 18342172267481886106
14400156 266 18341623649997609375
15163728 17 15050623569172674504
15324884 4 17688344216787591083
15420108 30 18196108663503369557
16114785 44 17822844265239830149
17980427 23 18192174654107037617
18365409 1 18130509635827791253
20600515 1 16809864164395429489
21927370 108 18114466759512981274
23352939 185 18263913504993527479
23419403 2 17912610722757132791
27425 322 16985480317762844841
3187 122 17241902986269424812
3380486 145 18187367584369031797
3493558 16 18341886437846011965
376196 1 16525230144432794172
46194498 28 8694741471164103698
469060 322 18260541238838710256
497634 4 18343578551892184606
5252454 2 18341886339293736738

>  <PUBCHEM_SHAPE_MULTIPOLES>  (1) 
613.37
10.12
5.29
3.08
21.16
0.42
0.22
-2.81
5.72
-4.54
-2.85
-3.39
3.24
-3.67

>  <PUBCHEM_SHAPE_SELFOVERLAP>  (1) 
1301.044

>  <PUBCHEM_SHAPE_VOLUME>  (1) 
339.4

>  <PUBCHEM_COORDINATE_TYPE>  (1) 
2
5
10

$$$$
