5370
     RDKit          3D

 10 10  0  0  1  0  0  0  0  0999 V2000
   -2.7893   -0.9990    0.9835 O   0  0  0  0  0  0  0  0  0  0  0  0
    2.7563    0.5293    1.0316 O   0  0  0  0  0  0  0  0  0  0  0  0
   -2.8696    0.5610   -0.6767 O   0  0  0  0  0  0  0  0  0  0  0  0
    2.6142   -1.2533   -0.3818 O   0  0  0  0  0  0  0  0  0  0  0  0
   -0.0375   -0.3329   -1.0405 N   0  0  0  0  0  0  0  0  0  0  0  0
    0.0159    1.2594    0.3325 C   0  0  0  0  0  0  0  0  0  0  0  0
   -0.6974   -0.0985    0.2672 C   0  0  0  0  0  0  0  0  0  0  0  0
    1.0253    0.6166   -0.6290 C   0  0  0  0  0  0  0  0  0  0  0  0
   -2.2336   -0.1199    0.1141 C   0  0  0  0  0  0  0  0  0  0  0  0
    2.2158   -0.1627   -0.0009 C   0  0  0  0  0  0  0  0  0  0  0  0
  1  9  1  0
  2 10  1  0
  3  9  2  0
  4 10  2  0
  5  7  1  0
  5  8  1  0
  6  7  1  0
  6  8  1  0
  7  9  1  0
  8 10  1  0
M  END
>  <PUBCHEM_COMPOUND_CID>  (1) 
5370

>  <PUBCHEM_CONFORMER_RMSD>  (1) 
0.6

>  <PUBCHEM_CONFORMER_DIVERSEORDER>  (1) 
1
8
5
10
4
9
3
2
7
6

>  <PUBCHEM_MMFF94_PARTIAL_CHARGES>  (1) 
12
1 -0.65
10 0.67
15 0.36
16 0.5
17 0.5
2 -0.65
3 -0.57
4 -0.57
5 -0.78
7 0.26
8 0.26
9 0.67

>  <PUBCHEM_EFFECTIVE_ROTOR_COUNT>  (1) 
2.8

>  <PUBCHEM_PHARMACOPHORE_FEATURES>  (1) 
9
1 1 acceptor
1 2 acceptor
1 3 acceptor
1 4 acceptor
1 5 cation
1 5 donor
3 1 3 9 anion
3 2 4 10 anion
4 5 6 7 8 rings

>  <PUBCHEM_HEAVY_ATOM_COUNT>  (1) 
10

>  <PUBCHEM_ATOM_DEF_STEREO_COUNT>  (1) 
0

>  <PUBCHEM_ATOM_UDEF_STEREO_COUNT>  (1) 
2

>  <PUBCHEM_BOND_DEF_STEREO_COUNT>  (1) 
0

>  <PUBCHEM_BOND_UDEF_STEREO_COUNT>  (1) 
0

>  <PUBCHEM_ISOTOPIC_ATOM_COUNT>  (1) 
0

>  <PUBCHEM_COMPONENT_COUNT>  (1) 
1

>  <PUBCHEM_CACTVS_TAUTO_COUNT>  (1) 
1

>  <PUBCHEM_CONFORMER_ID>  (1) 
000014FA00000001

>  <PUBCHEM_MMFF94_ENERGY>  (1) 
17.4882

>  <PUBCHEM_FEATURE_SELFOVERLAP>  (1) 
45.783

>  <PUBCHEM_SHAPE_FINGERPRINT>  (1) 
10219947 1 17775286066611863957
10857977 72 18410569612943380776
11062470 55 18411132528521408197
12716758 59 18187643540491828985
12897270 3 9223240636725652811
12932764 1 17775289369373201301
14390081 3 11095889237392285347
20715346 28 18411980277703245847
21028194 46 10735877283207221340
21040471 1 12175618477762772396
21293036 1 11747225705134297867
23552423 10 16805612524365020885
29004967 10 18410574002500229400
3248919 1 18259701211633453021
369184 2 17703787011674987561

>  <PUBCHEM_SHAPE_MULTIPOLES>  (1) 
177.34
4.42
1.07
0.95
0.63
0.02
-0.02
-0.89
-0.63
-0.17
-0.06
0.03
-0.01
0.49

>  <PUBCHEM_SHAPE_SELFOVERLAP>  (1) 
355.08

>  <PUBCHEM_SHAPE_VOLUME>  (1) 
105.1

>  <PUBCHEM_COORDINATE_TYPE>  (1) 
2
5
10

$$$$
