5375
     RDKit          3D

 29 31  0  0  1  0  0  0  0  0999 V2000
    0.8753    1.2590   -1.5876 O   0  0  0  0  0  0  0  0  0  0  0  0
    3.9246    2.1050   -1.2549 O   0  0  0  0  0  0  0  0  0  0  0  0
   -1.5245   -0.2006    1.0196 O   0  0  0  0  0  0  0  0  0  0  0  0
   -3.7476    2.6171   -1.0728 O   0  0  0  0  0  0  0  0  0  0  0  0
   -5.3575   -0.8896    1.5531 O   0  0  0  0  0  0  0  0  0  0  0  0
    2.0676    1.3200    0.3951 N   0  0  0  0  0  0  0  0  0  0  0  0
   -0.3368   -0.9141   -0.8529 N   0  0  0  0  0  0  0  0  0  0  0  0
    3.7510    4.3372   -0.7243 N   0  0  0  0  0  0  0  0  0  0  0  0
   -3.7436   -1.3046   -0.0024 N   0  0  0  0  0  0  0  0  0  0  0  0
   -4.4646    0.9145    0.3630 N   0  0  0  0  0  0  0  0  0  0  0  0
    3.1640   -3.5884    0.1169 N   0  0  0  0  0  0  0  0  0  0  0  0
    1.5734   -5.1282    0.2933 N   0  0  0  0  0  0  0  0  0  0  0  0
    2.3201    2.7550    0.3934 C   0  0  0  0  0  0  0  0  0  0  0  0
    2.7809    3.0689    1.8121 C   0  0  0  0  0  0  0  0  0  0  0  0
    2.5850    0.6954    1.6100 C   0  0  0  0  0  0  0  0  0  0  0  0
    3.4395    1.7688    2.2672 C   0  0  0  0  0  0  0  0  0  0  0  0
    1.2947    0.6987   -0.5734 C   0  0  0  0  0  0  0  0  0  0  0  0
    0.9878   -0.7564   -0.3248 C   0  0  0  0  0  0  0  0  0  0  0  0
    3.4012    3.0123   -0.6126 C   0  0  0  0  0  0  0  0  0  0  0  0
    2.0220   -1.6387   -1.0127 C   0  0  0  0  0  0  0  0  0  0  0  0
   -2.7379   -0.8514   -0.9286 C   0  0  0  0  0  0  0  0  0  0  0  0
   -1.4898   -0.6217   -0.1336 C   0  0  0  0  0  0  0  0  0  0  0  0
   -3.1859    0.3823   -1.6765 C   0  0  0  0  0  0  0  0  0  0  0  0
    2.0431   -3.0333   -0.4333 C   0  0  0  0  0  0  0  0  0  0  0  0
   -3.7960    1.4248   -0.7652 C   0  0  0  0  0  0  0  0  0  0  0  0
   -4.5765   -0.4532    0.7034 C   0  0  0  0  0  0  0  0  0  0  0  0
    1.0750   -4.0024   -0.3132 C   0  0  0  0  0  0  0  0  0  0  0  0
   -5.1779    1.8698    1.2029 C   0  0  0  0  0  0  0  0  0  0  0  0
    2.8337   -4.8460    0.5389 C   0  0  0  0  0  0  0  0  0  0  0  0
  1 17  2  0
  2 19  2  0
  3 22  2  0
  4 25  2  0
  5 26  2  0
  6 13  1  0
  6 15  1  0
  6 17  1  0
  7 18  1  0
  7 22  1  0
  8 19  1  0
  9 21  1  0
  9 26  1  0
 10 25  1  0
 10 26  1  0
 10 28  1  0
 11 24  1  0
 11 29  1  0
 12 27  1  0
 12 29  2  0
 13 14  1  0
 13 19  1  0
 14 16  1  0
 15 16  1  0
 17 18  1  0
 18 20  1  0
 20 24  1  0
 21 22  1  0
 21 23  1  0
 23 25  1  0
 24 27  2  0
M  END
>  <PUBCHEM_COMPOUND_CID>  (1) 
5375

>  <PUBCHEM_CONFORMER_RMSD>  (1) 
1.4

>  <PUBCHEM_CONFORMER_DIVERSEORDER>  (1) 
1
289
264
169
279
110
225
202
182
177
215
59
17
291
148
256
235
42
75
81
106
232
194
260
249
146
37
261
224
31
294
234
173
229
96
263
292
268
145
39
139
262
44
200
27
240
218
213
136
191
175
154
286
102
30
149
237
66
288
140
111
61
214
270
84
98
299
254
158
11
259
178
298
35
248
109
113
79
152
199
265
196
77
283
297
68
45
171
97
162
295
51
195
247
147
211
243
63
220
16
230
120
18
209
166
125
258
13
69
278
242
103
41
112
238
25
203
153
181
101
132
26
290
126
163
7
138
216
257
208
57
34
157
267
128
222
245
78
302
303
72
130
241
255
253
38
32
43
198
86
189
155
23
54
272
21
185
233
193
176
170
204
46
212
210
3
179
87
70
134
104
107
88
280
71
217
117
221
29
95
172
251
8
2
76
174
188
19
273
124
271
186
284
14
49
250
282
62
141
118
92
6
144
183
187
64
206
287
73
47
91
161
274
236
33
192
239
9
151
100
85
4
115
275
269
160
167
156
48
80
24
293
20
60
93
28
164
165
82
150
137
133
83
65
226
228
114
123
131
116
12
52
207
90
15
5
300
143
10
53
121
58
94
252
40
180
205
301
129
201
74
119
135
197
190
281
50
277
168
159
89
219
285
36
276
99
244
105
127
122
108
296
227
55
231
266
56
22
142
246
67
223
184

>  <PUBCHEM_MMFF94_PARTIAL_CHARGES>  (1) 
34
1 -0.57
10 -0.42
11 0.03
12 -0.57
13 0.36
15 0.3
17 0.57
18 0.36
19 0.57
2 -0.57
20 0.18
21 0.36
22 0.57
23 0.06
24 -0.33
25 0.57
26 0.69
27 0.08
28 0.3
29 0.04
3 -0.57
4 -0.57
40 0.37
44 0.37
45 0.37
46 0.37
47 0.27
48 0.15
5 -0.57
52 0.15
6 -0.66
7 -0.73
8 -0.8
9 -0.73

>  <PUBCHEM_EFFECTIVE_ROTOR_COUNT>  (1) 
9.8

>  <PUBCHEM_PHARMACOPHORE_FEATURES>  (1) 
13
1 1 acceptor
1 11 donor
1 2 acceptor
1 3 acceptor
1 4 acceptor
1 5 acceptor
1 7 donor
1 8 donor
1 9 donor
3 11 12 29 cation
5 11 12 24 27 29 rings
5 6 13 14 15 16 rings
6 9 10 21 23 25 26 rings

>  <PUBCHEM_HEAVY_ATOM_COUNT>  (1) 
29

>  <PUBCHEM_ATOM_DEF_STEREO_COUNT>  (1) 
0

>  <PUBCHEM_ATOM_UDEF_STEREO_COUNT>  (1) 
3

>  <PUBCHEM_BOND_DEF_STEREO_COUNT>  (1) 
0

>  <PUBCHEM_BOND_UDEF_STEREO_COUNT>  (1) 
0

>  <PUBCHEM_ISOTOPIC_ATOM_COUNT>  (1) 
0

>  <PUBCHEM_COMPONENT_COUNT>  (1) 
1

>  <PUBCHEM_CACTVS_TAUTO_COUNT>  (1) 
16

>  <PUBCHEM_CONFORMER_ID>  (1) 
000014FF00000001

>  <PUBCHEM_MMFF94_ENERGY>  (1) 
61.718

>  <PUBCHEM_FEATURE_SELFOVERLAP>  (1) 
65.974

>  <PUBCHEM_SHAPE_FINGERPRINT>  (1) 
10074138 170 17403997710288502402
11070050 100 18128546044360593643
11456790 92 17762066441671650217
12160290 23 17406813559825497974
12549972 3 18189057495576477659
12788726 201 16968563098192033875
13004483 165 17618491095876193006
13134695 92 18124866859368336414
13533116 47 18411982439069269623
13583140 156 18339921511799071175
13911987 19 17830718109052017815
14466204 15 17476924554700230481
14856354 85 16154823734385446864
151778 21 18410574023922409376
17868525 174 18123755257666182193
17980427 23 17057227857789518009
18393751 57 17977105979041156249
18785283 64 18408603651978191426
20600515 1 17692820280867963174
21033648 29 18126004012211508712
21120745 212 17550124567263522534
23366157 5 18410286986899961263
23559900 14 18261957328343094223
4058900 60 18339938119894194864
5252454 2 18130510846254597229
57124632 79 18411136956595721698
633830 44 17559958907640185269
6442390 28 18193565686033387308
6443956 14 18268423539056718794
6700243 42 16322080528316625076
6703917 75 17976566084256116644
7399639 24 18190471630686176987
7808743 9 17761492895564670380
79837 15 18050841423253861282
9981440 41 18266448996150117531

>  <PUBCHEM_SHAPE_MULTIPOLES>  (1) 
532.59
9.79
6.25
1.62
13.3
6
0.4
-5.06
2.37
-10.42
0.4
-0.21
-1.09
0.2

>  <PUBCHEM_SHAPE_SELFOVERLAP>  (1) 
1131.092

>  <PUBCHEM_SHAPE_VOLUME>  (1) 
295.5

>  <PUBCHEM_COORDINATE_TYPE>  (1) 
2
5
10

$$$$
