5382
     RDKit          3D

 24 26  0  0  0  0  0  0  0  0999 V2000
   -5.7525    1.7765    0.0005 Cl  0  0  0  0  0  0  0  0  0  0  0  0
    5.7525    1.7764    0.0014 Cl  0  0  0  0  0  0  0  0  0  0  0  0
   -5.2843   -3.6021    0.0047 Cl  0  0  0  0  0  0  0  0  0  0  0  0
    5.2841   -3.6022   -0.0047 Cl  0  0  0  0  0  0  0  0  0  0  0  0
   -2.7559    1.6325   -0.0018 O   0  0  0  0  0  0  0  0  0  0  0  0
    2.7560    1.6325    0.0019 O   0  0  0  0  0  0  0  0  0  0  0  0
   -2.5893   -0.6686   -0.0023 N   0  0  0  0  0  0  0  0  0  0  0  0
    2.5892   -0.6686    0.0017 N   0  0  0  0  0  0  0  0  0  0  0  0
   -1.3949    1.6328   -0.0012 C   0  0  0  0  0  0  0  0  0  0  0  0
    1.3950    1.6330    0.0005 C   0  0  0  0  0  0  0  0  0  0  0  0
   -0.6965    1.6332   -1.2088 C   0  0  0  0  0  0  0  0  0  0  0  0
    0.6983    1.6332   -1.2080 C   0  0  0  0  0  0  0  0  0  0  0  0
   -0.6981    1.6326    1.2072 C   0  0  0  0  0  0  0  0  0  0  0  0
    0.6967    1.6328    1.2080 C   0  0  0  0  0  0  0  0  0  0  0  0
   -3.3993    0.4062   -0.0025 C   0  0  0  0  0  0  0  0  0  0  0  0
    3.3993    0.4061    0.0026 C   0  0  0  0  0  0  0  0  0  0  0  0
   -4.7770    0.3602   -0.0010 C   0  0  0  0  0  0  0  0  0  0  0  0
    4.7770    0.3602    0.0018 C   0  0  0  0  0  0  0  0  0  0  0  0
   -5.3754   -0.8949    0.0007 C   0  0  0  0  0  0  0  0  0  0  0  0
    5.3753   -0.8950    0.0002 C   0  0  0  0  0  0  0  0  0  0  0  0
   -4.5823   -2.0370    0.0008 C   0  0  0  0  0  0  0  0  0  0  0  0
    4.5821   -2.0371   -0.0008 C   0  0  0  0  0  0  0  0  0  0  0  0
   -3.2067   -1.8713   -0.0008 C   0  0  0  0  0  0  0  0  0  0  0  0
    3.2066   -1.8713    0.0001 C   0  0  0  0  0  0  0  0  0  0  0  0
  1 17  1  0
  2 18  1  0
  3 21  1  0
  4 22  1  0
  5  9  1  0
  5 15  1  0
  6 10  1  0
  6 16  1  0
  7 15  2  0
  7 23  1  0
  8 16  2  0
  8 24  1  0
  9 11  2  0
  9 13  1  0
 10 12  2  0
 10 14  1  0
 11 12  1  0
 13 14  2  0
 15 17  1  0
 16 18  1  0
 17 19  2  0
 18 20  2  0
 19 21  1  0
 20 22  1  0
 21 23  2  0
 22 24  2  0
M  END
>  <PUBCHEM_COMPOUND_CID>  (1) 
5382

>  <PUBCHEM_CONFORMER_RMSD>  (1) 
0.8

>  <PUBCHEM_CONFORMER_DIVERSEORDER>  (1) 
1
38
37
3
35
2
36
40
39
5
31
42
43
16
32
6
44
24
25
11
41
12
18
23
22
7
20
8
9
13
34
33
10
14
26
19
4
21
15
17
28
27
30
29

>  <PUBCHEM_MMFF94_PARTIAL_CHARGES>  (1) 
32
1 -0.18
10 0.08
11 -0.15
12 -0.15
13 -0.15
14 -0.15
15 0.39
16 0.39
17 0.18
18 0.18
19 -0.15
2 -0.18
20 -0.15
21 0.18
22 0.18
23 0.16
24 0.16
25 0.15
26 0.15
27 0.15
28 0.15
29 0.15
3 -0.18
30 0.15
31 0.15
32 0.15
4 -0.18
5 -0.17
6 -0.17
7 -0.62
8 -0.62
9 0.08

>  <PUBCHEM_EFFECTIVE_ROTOR_COUNT>  (1) 
4

>  <PUBCHEM_PHARMACOPHORE_FEATURES>  (1) 
7
1 5 acceptor
1 6 acceptor
1 7 acceptor
1 8 acceptor
6 7 15 17 19 21 23 rings
6 8 16 18 20 22 24 rings
6 9 10 11 12 13 14 rings

>  <PUBCHEM_HEAVY_ATOM_COUNT>  (1) 
24

>  <PUBCHEM_ATOM_DEF_STEREO_COUNT>  (1) 
0

>  <PUBCHEM_ATOM_UDEF_STEREO_COUNT>  (1) 
0

>  <PUBCHEM_BOND_DEF_STEREO_COUNT>  (1) 
0

>  <PUBCHEM_BOND_UDEF_STEREO_COUNT>  (1) 
0

>  <PUBCHEM_ISOTOPIC_ATOM_COUNT>  (1) 
0

>  <PUBCHEM_COMPONENT_COUNT>  (1) 
1

>  <PUBCHEM_CACTVS_TAUTO_COUNT>  (1) 
1

>  <PUBCHEM_CONFORMER_ID>  (1) 
0000150600000001

>  <PUBCHEM_MMFF94_ENERGY>  (1) 
76.2321

>  <PUBCHEM_FEATURE_SELFOVERLAP>  (1) 
35.622

>  <PUBCHEM_SHAPE_FINGERPRINT>  (1) 
10074138 170 17199953241609185872
10835480 77 18411692197094136613
11135609 12 17896896541417529483
11135609 99 18340765928482445766
117089 54 17972893732953213643
11796584 16 18342181050832353445
11963148 33 18336256925644032226
12107183 9 18053390894255245473
12596602 18 17417818391129215058
12633257 1 16128376034018384631
12760667 363 18200025132183933519
12788726 201 17489315143964010616
13103583 49 17774737432269685387
13402501 40 18410856559640406711
13533116 47 18343018857450153304
13544653 18 18410300219773133184
14251751 18 18410858789165750631
14251764 18 18202286909945554385
14420673 8 18338239258903188903
14848178 5 18410568491888487426
14866123 147 18198347256624780065
15196674 1 18410856563934938755
15352361 1 18410575084673849283
15361156 5 17968391086174663788
15475509 35 18129378370383507779
17492 89 18265053712127496715
17857418 61 18411699880837413345
1813 80 17313104150505525452
19141452 34 18336267860340052293
20028762 73 18269834216976649870
21033648 29 14189297006517441249
21033650 10 16371569146939497180
21279426 13 18337106766083974935
21673915 165 18410292527681780742
22393880 68 17823691971941525666
22950370 63 18410857663451899749
23559900 14 18341042004115644049
239999 70 18130795573059647572
25222932 49 18200873010521343430
3004659 81 18333732377920265226
33382 64 18412267267497326552
4073 2 18261396692854598544
4325135 7 18334859433458556492
437795 51 17631167683977717496
439807 62 18336266842612404595
44062 13 18409729547964366191
46194498 28 17313663883691686709
5104073 3 18059292059435067448
559249 180 18409728444384397029
6431902 208 18338232790545375687
7226269 152 17703232802756260505
9709674 26 18189057658600546795

>  <PUBCHEM_SHAPE_MULTIPOLES>  (1) 
479.69
15.58
3.75
0.86
0
3.49
0
8.88
0
0
0
0
-0.4
0.01

>  <PUBCHEM_SHAPE_SELFOVERLAP>  (1) 
1014.421

>  <PUBCHEM_SHAPE_VOLUME>  (1) 
270.9

>  <PUBCHEM_COORDINATE_TYPE>  (1) 
2
5
10

$$$$
