5385
     RDKit          3D

  8  7  0  0  0  0  0  0  0  0999 V2000
   -1.0150   -0.6819    0.8117 O   0  0  0  0  0  0  0  0  0  0  0  0
    1.7181   -0.0234    0.2862 N   0  0  0  0  0  0  0  0  0  0  0  0
   -0.6849    0.4145   -0.0435 C   0  0  0  0  0  0  0  0  0  0  0  0
    0.6624    0.1310   -0.7211 C   0  0  0  0  0  0  0  0  0  0  0  0
   -1.8191    0.6074   -1.0526 C   0  0  0  0  0  0  0  0  0  0  0  0
   -0.5649    1.6531    0.8473 C   0  0  0  0  0  0  0  0  0  0  0  0
   -1.1822   -1.8795    0.0706 C   0  0  0  0  0  0  0  0  0  0  0  0
    2.8857   -0.2211   -0.1985 C   0  0  0  0  0  0  0  0  0  0  0  0
  1  3  1  0
  1  7  1  0
  2  4  1  0
  2  8  2  0
  3  4  1  0
  3  5  1  0
  3  6  1  0
M  END
>  <PUBCHEM_COMPOUND_CID>  (1) 
5385

>  <PUBCHEM_CONFORMER_RMSD>  (1) 
0.6

>  <PUBCHEM_CONFORMER_DIVERSEORDER>  (1) 
1
4
3
7
6
8
2
5

>  <PUBCHEM_MMFF94_PARTIAL_CHARGES>  (1) 
8
1 -0.56
2 -0.7
20 0.06
21 0.06
3 0.28
4 0.25
7 0.28
8 0.33

>  <PUBCHEM_EFFECTIVE_ROTOR_COUNT>  (1) 
3

>  <PUBCHEM_PHARMACOPHORE_FEATURES>  (1) 
3
1 1 acceptor
1 2 acceptor
3 3 5 6 hydrophobe

>  <PUBCHEM_HEAVY_ATOM_COUNT>  (1) 
8

>  <PUBCHEM_ATOM_DEF_STEREO_COUNT>  (1) 
0

>  <PUBCHEM_ATOM_UDEF_STEREO_COUNT>  (1) 
0

>  <PUBCHEM_BOND_DEF_STEREO_COUNT>  (1) 
0

>  <PUBCHEM_BOND_UDEF_STEREO_COUNT>  (1) 
0

>  <PUBCHEM_ISOTOPIC_ATOM_COUNT>  (1) 
0

>  <PUBCHEM_COMPONENT_COUNT>  (1) 
1

>  <PUBCHEM_CACTVS_TAUTO_COUNT>  (1) 
1

>  <PUBCHEM_CONFORMER_ID>  (1) 
0000150900000001

>  <PUBCHEM_MMFF94_ENERGY>  (1) 
27.4164

>  <PUBCHEM_FEATURE_SELFOVERLAP>  (1) 
15.226

>  <PUBCHEM_SHAPE_FINGERPRINT>  (1) 
13024252 1 14273746139528900116
137420 1 8194276050442175381
21040471 1 18116142286146653284
23552449 11 17552651652409776587
24536 1 18342189834014041572
29004967 10 17845931943464566551
369184 2 18343017774775171816
5943 1 11651637497131328893

>  <PUBCHEM_SHAPE_MULTIPOLES>  (1) 
153.79
2.9
1.56
0.98
2.68
0.33
0.08
0.29
0.46
-0.88
-0.39
-0.32
-0.17
0.14

>  <PUBCHEM_SHAPE_SELFOVERLAP>  (1) 
280.713

>  <PUBCHEM_SHAPE_VOLUME>  (1) 
100

>  <PUBCHEM_COORDINATE_TYPE>  (1) 
2
5
10

$$$$
