5386
     RDKit          3D

 14 15  0  0  1  0  0  0  0  0999 V2000
    2.1760   -2.3572    0.1560 F   0  0  0  0  0  0  0  0  0  0  0  0
   -2.1345   -0.6788   -1.0254 O   0  0  0  0  0  0  0  0  0  0  0  0
    0.1642    2.6476   -0.2313 O   0  0  0  0  0  0  0  0  0  0  0  0
    3.7922   -0.1715    0.2052 O   0  0  0  0  0  0  0  0  0  0  0  0
   -0.2101    0.3426   -0.1653 N   0  0  0  0  0  0  0  0  0  0  0  0
    1.9693    1.2441   -0.0131 N   0  0  0  0  0  0  0  0  0  0  0  0
   -1.6333    0.4504   -0.2941 C   0  0  0  0  0  0  0  0  0  0  0  0
   -2.3490    0.4618    1.0443 C   0  0  0  0  0  0  0  0  0  0  0  0
   -3.6722   -0.1703    0.6946 C   0  0  0  0  0  0  0  0  0  0  0  0
   -3.2561   -1.2194   -0.3128 C   0  0  0  0  0  0  0  0  0  0  0  0
    0.5944    1.4954   -0.1440 C   0  0  0  0  0  0  0  0  0  0  0  0
    0.3326   -0.9223   -0.0647 C   0  0  0  0  0  0  0  0  0  0  0  0
    1.6426   -1.1260    0.0581 C   0  0  0  0  0  0  0  0  0  0  0  0
    2.5838    0.0037    0.0927 C   0  0  0  0  0  0  0  0  0  0  0  0
  1 13  1  0
  2  7  1  0
  2 10  1  0
  3 11  2  0
  4 14  2  0
  5  7  1  0
  5 11  1  0
  5 12  1  0
  6 11  1  0
  6 14  1  0
  7  8  1  0
  8  9  1  0
  9 10  1  0
 12 13  2  0
 13 14  1  0
M  END
>  <PUBCHEM_COMPOUND_CID>  (1) 
5386

>  <PUBCHEM_CONFORMER_RMSD>  (1) 
0.6

>  <PUBCHEM_CONFORMER_DIVERSEORDER>  (1) 
1
6
4
8
5
3
2
7

>  <PUBCHEM_MMFF94_PARTIAL_CHARGES>  (1) 
14
1 -0.15
10 0.28
11 0.69
12 -0.04
13 0.16
14 0.62
2 -0.56
22 0.15
23 0.37
3 -0.57
4 -0.57
5 -0.47
6 -0.49
7 0.58

>  <PUBCHEM_EFFECTIVE_ROTOR_COUNT>  (1) 
2

>  <PUBCHEM_PHARMACOPHORE_FEATURES>  (1) 
6
1 2 acceptor
1 3 acceptor
1 4 acceptor
1 6 donor
5 2 7 8 9 10 rings
6 5 6 11 12 13 14 rings

>  <PUBCHEM_HEAVY_ATOM_COUNT>  (1) 
14

>  <PUBCHEM_ATOM_DEF_STEREO_COUNT>  (1) 
0

>  <PUBCHEM_ATOM_UDEF_STEREO_COUNT>  (1) 
1

>  <PUBCHEM_BOND_DEF_STEREO_COUNT>  (1) 
0

>  <PUBCHEM_BOND_UDEF_STEREO_COUNT>  (1) 
0

>  <PUBCHEM_ISOTOPIC_ATOM_COUNT>  (1) 
0

>  <PUBCHEM_COMPONENT_COUNT>  (1) 
1

>  <PUBCHEM_CACTVS_TAUTO_COUNT>  (1) 
3

>  <PUBCHEM_CONFORMER_ID>  (1) 
0000150A00000001

>  <PUBCHEM_MMFF94_ENERGY>  (1) 
28.0806

>  <PUBCHEM_FEATURE_SELFOVERLAP>  (1) 
30.446

>  <PUBCHEM_SHAPE_FINGERPRINT>  (1) 
10219947 1 18409167744297643000
11132069 177 18343575235850092218
11471102 20 18336823190757434685
11471102 22 18336277794145448267
12032990 46 18409733945757682678
12251169 10 18342465850366815811
12696612 119 18340495546661844781
14144814 61 18342176665623232339
14251717 144 18337387248670129871
14252887 29 18272664432234530990
15375462 189 18409168805033350043
15501101 241 18261111906400268589
16945 1 18409164449915211276
17844478 74 17894634742582355445
200 152 18201428225512775927
20201158 50 18186803586390712691
20645464 45 13973973120874642511
20645477 70 18335695070600738247
20871998 22 18268719324458219350
22445834 79 18343024384877695939
2255824 54 18193280908079347205
23388829 49 18413108376670644049
23463225 33 18411983541889018359
23552423 10 18268710700469662165
2748010 2 18050840027568350988
63268167 104 18411135848726150977
77492 1 17988927803329129581
81228 2 18043808671714801868

>  <PUBCHEM_SHAPE_MULTIPOLES>  (1) 
253.27
5.57
1.91
0.79
1.03
0.41
-0.04
-1.64
-0.77
-0.88
0.13
0.49
-0.01
-0.36

>  <PUBCHEM_SHAPE_SELFOVERLAP>  (1) 
537.106

>  <PUBCHEM_SHAPE_VOLUME>  (1) 
141.8

>  <PUBCHEM_COORDINATE_TYPE>  (1) 
2
5
10

$$$$
