5388
     RDKit          3D

 44 48  0  0  1  0  0  0  0  0999 V2000
   -9.7193    0.9208   -3.2462 O   0  0  0  0  0  0  0  0  0  0  0  0
    9.7212   -0.9195   -3.2463 O   0  0  0  0  0  0  0  0  0  0  0  0
   -6.1780   -2.1085    0.4231 O   0  0  0  0  0  0  0  0  0  0  0  0
    6.1784    2.1079    0.4230 O   0  0  0  0  0  0  0  0  0  0  0  0
   -0.7382    2.5676    0.4076 O   0  0  0  0  0  0  0  0  0  0  0  0
    0.7392   -2.5686    0.4038 O   0  0  0  0  0  0  0  0  0  0  0  0
  -10.0146   -0.0946    0.3903 N   0  0  0  0  0  0  0  0  0  0  0  0
   10.0155    0.0946    0.3906 N   0  0  0  0  0  0  0  0  0  0  0  0
   -5.1158   -0.0142    0.4078 N   0  0  0  0  0  0  0  0  0  0  0  0
    5.0973    0.0182    0.4067 N   0  0  0  0  0  0  0  0  0  0  0  0
  -10.0390    0.8081   -0.8782 C   0  0  0  0  0  0  0  0  0  0  0  0
   10.0402   -0.8076   -0.8782 C   0  0  0  0  0  0  0  0  0  0  0  0
  -11.2414   -1.0153    0.4616 C   0  0  0  0  0  0  0  0  0  0  0  0
   11.2420    1.0157    0.4626 C   0  0  0  0  0  0  0  0  0  0  0  0
  -11.3774    1.5571   -0.9759 C   0  0  0  0  0  0  0  0  0  0  0  0
   11.3788   -1.5563   -0.9757 C   0  0  0  0  0  0  0  0  0  0  0  0
   -8.7552   -0.9758    0.4118 C   0  0  0  0  0  0  0  0  0  0  0  0
    8.7558    0.9757    0.4121 C   0  0  0  0  0  0  0  0  0  0  0  0
  -12.5471   -0.2415    0.3406 C   0  0  0  0  0  0  0  0  0  0  0  0
   12.5479    0.2419    0.3417 C   0  0  0  0  0  0  0  0  0  0  0  0
  -12.5879    0.6354   -0.9016 C   0  0  0  0  0  0  0  0  0  0  0  0
   12.5892   -0.6345   -0.9008 C   0  0  0  0  0  0  0  0  0  0  0  0
   -9.9329    0.7817    1.6529 C   0  0  0  0  0  0  0  0  0  0  0  0
    9.9334   -0.7820    1.6530 C   0  0  0  0  0  0  0  0  0  0  0  0
   -9.7591    0.0147   -2.1607 C   0  0  0  0  0  0  0  0  0  0  0  0
    9.7606   -0.0138   -2.1606 C   0  0  0  0  0  0  0  0  0  0  0  0
   -7.5124   -0.0996    0.4092 C   0  0  0  0  0  0  0  0  0  0  0  0
    7.5131    0.0994    0.4089 C   0  0  0  0  0  0  0  0  0  0  0  0
   -6.2041   -0.8823    0.4102 C   0  0  0  0  0  0  0  0  0  0  0  0
    6.2047    0.8818    0.4098 C   0  0  0  0  0  0  0  0  0  0  0  0
   -3.7418   -0.3531    0.4077 C   0  0  0  0  0  0  0  0  0  0  0  0
    3.7424    0.3522    0.4064 C   0  0  0  0  0  0  0  0  0  0  0  0
   -2.7755    0.6533    0.4076 C   0  0  0  0  0  0  0  0  0  0  0  0
    2.7764   -0.6542    0.4062 C   0  0  0  0  0  0  0  0  0  0  0  0
   -3.3562   -1.6922    0.4077 C   0  0  0  0  0  0  0  0  0  0  0  0
    3.3568    1.6913    0.4067 C   0  0  0  0  0  0  0  0  0  0  0  0
   -1.4162    0.3182    0.4073 C   0  0  0  0  0  0  0  0  0  0  0  0
    1.4170   -0.3191    0.4063 C   0  0  0  0  0  0  0  0  0  0  0  0
   -1.0298   -1.0238    0.4069 C   0  0  0  0  0  0  0  0  0  0  0  0
    1.0305    1.0228    0.4067 C   0  0  0  0  0  0  0  0  0  0  0  0
   -2.0027   -2.0305    0.4070 C   0  0  0  0  0  0  0  0  0  0  0  0
    2.0033    2.0296    0.4067 C   0  0  0  0  0  0  0  0  0  0  0  0
   -0.4002    1.3904    0.4074 C   0  0  0  0  0  0  0  0  0  0  0  0
    0.4010   -1.3915    0.4060 C   0  0  0  0  0  0  0  0  0  0  0  0
  1 25  1  0
  2 26  1  0
  3 29  2  0
  4 30  2  0
  5 43  2  0
  6 44  2  0
  7 11  1  0
  7 13  1  0
  7 17  1  0
  7 23  1  0
  8 12  1  0
  8 14  1  0
  8 18  1  0
  8 24  1  0
  9 29  1  0
  9 31  1  0
 10 30  1  0
 10 32  1  0
 11 15  1  0
 11 25  1  0
 12 16  1  0
 12 26  1  0
 13 19  1  0
 14 20  1  0
 15 21  1  0
 16 22  1  0
 17 27  1  0
 18 28  1  0
 19 21  1  0
 20 22  1  0
 27 29  1  0
 28 30  1  0
 31 33  2  0
 31 35  1  0
 32 34  2  0
 32 36  1  0
 33 37  1  0
 34 38  1  0
 35 41  2  0
 36 42  2  0
 37 39  2  0
 37 43  1  0
 38 40  2  0
 38 44  1  0
 39 41  1  0
 39 44  1  0
 40 42  1  0
 40 43  1  0
M  CHG  2   7   1   8   1
M  END
>  <PUBCHEM_COMPOUND_CID>  (1) 
5388

>  <PUBCHEM_CONFORMER_RMSD>  (1) 
1.4

>  <PUBCHEM_CONFORMER_DIVERSEORDER>  (1) 
1
21
38
27
32
45
37
8
22
28
17
7
50
24
18
56
25
54
35
10
46
19
6
57
42
43
13
52
47
31
48
41
39
40
4
14
51
36
11
53
23
16
29
5
12
34
58
3
20
15
44
55
9
2
33
26
49
30

>  <PUBCHEM_MMFF94_PARTIAL_CHARGES>  (1) 
48
1 -0.68
10 -0.55
11 0.5
12 0.5
13 0.5
14 0.5
17 0.5
18 0.5
2 -0.68
23 0.5
24 0.5
25 0.28
26 0.28
27 0.06
28 0.06
29 0.57
3 -0.57
30 0.57
31 0.12
32 0.12
33 -0.15
34 -0.15
35 -0.15
36 -0.15
37 0.09
38 0.09
39 0.09
4 -0.57
40 0.09
41 -0.15
42 -0.15
43 0.4
44 0.4
5 -0.57
6 -0.57
7 -1.01
8 -1.01
81 0.4
82 0.4
83 0.37
84 0.37
85 0.15
86 0.15
87 0.15
88 0.15
89 0.15
9 -0.55
90 0.15

>  <PUBCHEM_EFFECTIVE_ROTOR_COUNT>  (1) 
14.4

>  <PUBCHEM_PHARMACOPHORE_FEATURES>  (1) 
17
1 1 acceptor
1 1 donor
1 10 donor
1 2 acceptor
1 2 donor
1 3 acceptor
1 4 acceptor
1 5 acceptor
1 6 acceptor
1 7 cation
1 8 cation
1 9 donor
6 31 33 35 37 39 41 rings
6 32 34 36 38 40 42 rings
6 37 38 39 40 43 44 rings
6 7 11 13 15 19 21 rings
6 8 12 14 16 20 22 rings

>  <PUBCHEM_HEAVY_ATOM_COUNT>  (1) 
44

>  <PUBCHEM_ATOM_DEF_STEREO_COUNT>  (1) 
0

>  <PUBCHEM_ATOM_UDEF_STEREO_COUNT>  (1) 
4

>  <PUBCHEM_BOND_DEF_STEREO_COUNT>  (1) 
0

>  <PUBCHEM_BOND_UDEF_STEREO_COUNT>  (1) 
0

>  <PUBCHEM_ISOTOPIC_ATOM_COUNT>  (1) 
0

>  <PUBCHEM_COMPONENT_COUNT>  (1) 
1

>  <PUBCHEM_CACTVS_TAUTO_COUNT>  (1) 
21

>  <PUBCHEM_CONFORMER_ID>  (1) 
0000150C00000001

>  <PUBCHEM_MMFF94_ENERGY>  (1) 
147.4926

>  <PUBCHEM_FEATURE_SELFOVERLAP>  (1) 
86.318

>  <PUBCHEM_SHAPE_FINGERPRINT>  (1) 
10580692 12 18343023272117052770
11410812 94 15697726935414198283
11421887 21 18272934879233905169
12013929 2 18410573993741386369
12120059 9 15913334614682654342
12522641 33 18060701688797272822
12559415 86 17386002819425123591
12559415 90 16558751208921295569
14040221 8 17022903445575345228
15061470 23 16153423943722379508
15065858 18 18200870781005762882
15145343 6 15864356882662752756
15219723 13 14189303630602282388
15247644 1 16128657457439690718
15274700 256 15339119039996943225
15289351 153 18202003227155187729
15890870 6 18335420179423913579
16067689 302 18131074784778926206
16087824 20 18407758132105536737
16728433 110 18201437013659916280
21102433 48 15626223507414436244
21792934 111 18272364313638498912
232437 2 18410293622618775826
3092352 35 14692569926974864413
335352 9 18410856568229724323
5028188 123 14779550110970000913
5381727 24 17418095412361950473
54131252 152 17275102852420239175
9663363 56 18343582949917460496

>  <PUBCHEM_SHAPE_MULTIPOLES>  (1) 
850.36
62.03
1.86
1.56
0.05
0
1.56
-0.02
19.44
0
-0.2
0
0
2.88

>  <PUBCHEM_SHAPE_SELFOVERLAP>  (1) 
1801.875

>  <PUBCHEM_SHAPE_VOLUME>  (1) 
471.4

>  <PUBCHEM_COORDINATE_TYPE>  (1) 
2
5
10

$$$$
