5393
     RDKit          3D

 32 34  0  0  1  0  0  0  0  0999 V2000
    3.2295   -1.5249   -1.7220 S   0  0  0  0  0  0  0  0  0  0  0  0
    6.7595    0.3145   -1.0790 S   0  0  0  0  0  0  0  0  0  0  0  0
    0.1279    1.9642   -1.0745 O   0  0  0  0  0  0  0  0  0  0  0  0
   -1.6292   -1.9810    1.4818 O   0  0  0  0  0  0  0  0  0  0  0  0
   -1.3494   -3.0012   -0.5663 O   0  0  0  0  0  0  0  0  0  0  0  0
    1.3382    2.3378    2.1866 O   0  0  0  0  0  0  0  0  0  0  0  0
    2.1720    4.4274    1.8931 O   0  0  0  0  0  0  0  0  0  0  0  0
    2.1596    1.4115   -0.1204 N   0  0  0  0  0  0  0  0  0  0  0  0
   -0.6561   -0.5005   -1.5536 N   0  0  0  0  0  0  0  0  0  0  0  0
    0.7425   -0.3681   -1.1227 C   0  0  0  0  0  0  0  0  0  0  0  0
    4.0013   -0.0931   -0.8656 C   0  0  0  0  0  0  0  0  0  0  0  0
    1.6553   -0.7931   -2.2761 C   0  0  0  0  0  0  0  0  0  0  0  0
    3.1473    0.4141    0.3062 C   0  0  0  0  0  0  0  0  0  0  0  0
   -1.5376   -0.5721   -0.4020 C   0  0  0  0  0  0  0  0  0  0  0  0
    0.9628    1.1064   -0.7711 C   0  0  0  0  0  0  0  0  0  0  0  0
   -2.9838   -0.2022   -0.7692 C   0  0  0  0  0  0  0  0  0  0  0  0
    2.5012    2.8044    0.1461 C   0  0  0  0  0  0  0  0  0  0  0  0
    5.4009   -0.4848   -0.4100 C   0  0  0  0  0  0  0  0  0  0  0  0
   -3.9824   -0.2250    0.3966 C   0  0  0  0  0  0  0  0  0  0  0  0
   -1.4926   -1.9983    0.1210 C   0  0  0  0  0  0  0  0  0  0  0  0
   -5.3764    0.2021    0.0117 C   0  0  0  0  0  0  0  0  0  0  0  0
    5.7658   -1.4409    0.5122 C   0  0  0  0  0  0  0  0  0  0  0  0
    1.9985    3.2865    1.4825 C   0  0  0  0  0  0  0  0  0  0  0  0
    7.1795   -1.5180    0.6717 C   0  0  0  0  0  0  0  0  0  0  0  0
    7.8411   -0.6182   -0.1345 C   0  0  0  0  0  0  0  0  0  0  0  0
   -5.7420    1.5457    0.0946 C   0  0  0  0  0  0  0  0  0  0  0  0
   -6.3002   -0.7463   -0.4276 C   0  0  0  0  0  0  0  0  0  0  0  0
   -1.5972   -3.2605    2.1219 C   0  0  0  0  0  0  0  0  0  0  0  0
   -7.0314    1.9410   -0.2616 C   0  0  0  0  0  0  0  0  0  0  0  0
   -7.5896   -0.3508   -0.7839 C   0  0  0  0  0  0  0  0  0  0  0  0
   -7.9551    0.9928   -0.7008 C   0  0  0  0  0  0  0  0  0  0  0  0
   -1.7600   -3.0692    3.6148 C   0  0  0  0  0  0  0  0  0  0  0  0
  1 11  1  0
  1 12  1  0
  2 18  1  0
  2 25  1  0
  3 15  2  0
  4 20  1  0
  4 28  1  0
  5 20  2  0
  6 23  1  0
  7 23  2  0
  8 13  1  0
  8 15  1  0
  8 17  1  0
  9 10  1  0
  9 14  1  0
 10 12  1  0
 10 15  1  0
 11 13  1  0
 11 18  1  0
 14 16  1  0
 14 20  1  0
 16 19  1  0
 17 23  1  0
 18 22  2  0
 19 21  1  0
 21 26  2  0
 21 27  1  0
 22 24  1  0
 24 25  2  0
 26 29  1  0
 27 30  2  0
 28 32  1  0
 29 31  2  0
 30 31  1  0
M  END
>  <PUBCHEM_COMPOUND_CID>  (1) 
5393

>  <PUBCHEM_CONFORMER_RMSD>  (1) 
1.2

>  <PUBCHEM_CONFORMER_DIVERSEORDER>  (1) 
2
110
79
35
94
38
28
52
75
63
86
71
12
36
10
109
115
14
67
102
65
3
40
117
123
49
89
39
69
74
125
84
122
19
107
8
118
106
104
13
17
121
29
93
68
46
126
23
66
44
85
50
64
60
6
91
90
1
62
9
114
99
26
83
88
53
96
113
87
51
57
15
45
16
21
25
116
11
111
48
72
124
95
54
32
58
56
34
120
80
119
18
5
20
100
70
33
77
98
4
30
59
101
43
81
42
97
73
31
27
55
47
103
22
78
41
7
82
112
105
61
92
108
76
24
37

>  <PUBCHEM_MMFF94_PARTIAL_CHARGES>  (1) 
40
1 -0.46
10 0.33
11 0.41
12 0.23
13 0.3
14 0.33
15 0.57
17 0.36
18 -0.14
19 0.14
2 -0.08
20 0.66
21 -0.14
22 -0.15
23 0.66
24 -0.15
25 -0.11
26 -0.15
27 -0.15
28 0.28
29 -0.15
3 -0.57
30 -0.15
31 -0.15
4 -0.43
40 0.36
47 0.15
48 0.15
49 0.15
5 -0.57
50 0.15
51 0.15
54 0.15
55 0.15
56 0.15
57 0.5
6 -0.65
7 -0.57
8 -0.66
9 -0.9

>  <PUBCHEM_EFFECTIVE_ROTOR_COUNT>  (1) 
12.2

>  <PUBCHEM_PHARMACOPHORE_FEATURES>  (1) 
10
1 3 acceptor
1 5 acceptor
1 6 acceptor
1 7 acceptor
1 9 cation
1 9 donor
3 6 7 23 anion
5 2 18 22 24 25 rings
6 21 26 27 29 30 31 rings
7 1 8 10 11 12 13 15 rings

>  <PUBCHEM_HEAVY_ATOM_COUNT>  (1) 
32

>  <PUBCHEM_ATOM_DEF_STEREO_COUNT>  (1) 
0

>  <PUBCHEM_ATOM_UDEF_STEREO_COUNT>  (1) 
3

>  <PUBCHEM_BOND_DEF_STEREO_COUNT>  (1) 
0

>  <PUBCHEM_BOND_UDEF_STEREO_COUNT>  (1) 
0

>  <PUBCHEM_ISOTOPIC_ATOM_COUNT>  (1) 
0

>  <PUBCHEM_COMPONENT_COUNT>  (1) 
1

>  <PUBCHEM_CACTVS_TAUTO_COUNT>  (1) 
1

>  <PUBCHEM_CONFORMER_ID>  (1) 
0000151100000002

>  <PUBCHEM_MMFF94_ENERGY>  (1) 
62.6792

>  <PUBCHEM_FEATURE_SELFOVERLAP>  (1) 
50.805

>  <PUBCHEM_SHAPE_FINGERPRINT>  (1) 
10050765 1 18056471996234083783
10162869 55 17560790049211969573
10674148 151 16587743140597677984
11456790 92 18338809935676667905
12166972 35 16487258768043981449
12549972 3 18191592062603351744
12664476 115 18411697661489730941
12788726 201 18267579110073959600
13008946 113 18195240251714510096
13560911 43 18272090483297347537
14251764 18 18410012126209413886
15183329 4 18412547587249049673
15537594 2 14056996161239810249
15849732 13 16515406261278096943
19301679 30 17985828134639304590
21344244 181 14346077469898942392
21403212 168 17894909590646529127
21521721 280 12252197281036435260
23559900 14 18188490318726520149
24893992 56 18334296475215497603
249057 3 17704067413184259511
2838139 119 18201716272063892645
335352 9 18411981368698825204
3383291 50 18273214192301441703
4073 2 17896324799760894104
4325135 7 9151170960934139358
59755656 520 18040994060193653615
6004065 56 18131633387154155887
6009941 240 18113626711576205162
6081469 158 16845292697074936638
6086070 43 17774167949360082036
6328613 192 18187374271622685836
6371380 46 18333448763522489594
6523845 18 17821720638040535343

>  <PUBCHEM_SHAPE_MULTIPOLES>  (1) 
626.94
20.34
3.64
2.11
10.48
1.14
-1.52
1.16
4.21
-0.25
-3.64
-0.37
-0.95
2.04

>  <PUBCHEM_SHAPE_SELFOVERLAP>  (1) 
1275.787

>  <PUBCHEM_SHAPE_VOLUME>  (1) 
363.1

>  <PUBCHEM_COORDINATE_TYPE>  (1) 
2
5
10

$$$$
