5399
     RDKit          3D

 24 23  0  0  0  0  0  0  0  0999 V2000
   -3.0141    4.1590    0.5649 O   0  0  0  0  0  0  0  0  0  0  0  0
    0.5110   -1.6294   -0.2929 C   0  0  0  0  0  0  0  0  0  0  0  0
    1.6185   -2.4273    0.4109 C   0  0  0  0  0  0  0  0  0  0  0  0
   -0.8755   -2.1008    0.0881 C   0  0  0  0  0  0  0  0  0  0  0  0
   -3.1834   -3.0795   -0.4757 C   0  0  0  0  0  0  0  0  0  0  0  0
   -4.3041   -2.1866   -1.0246 C   0  0  0  0  0  0  0  0  0  0  0  0
   -1.8073   -2.5525   -0.7745 C   0  0  0  0  0  0  0  0  0  0  0  0
    3.9311   -1.3859    0.8103 C   0  0  0  0  0  0  0  0  0  0  0  0
    5.2496   -0.9395    0.2046 C   0  0  0  0  0  0  0  0  0  0  0  0
   -4.3052   -0.7743   -0.4794 C   0  0  0  0  0  0  0  0  0  0  0  0
    2.9739   -1.9080    0.0190 C   0  0  0  0  0  0  0  0  0  0  0  0
    5.2735    0.5486   -0.1707 C   0  0  0  0  0  0  0  0  0  0  0  0
   -1.1692   -2.0875    1.5672 C   0  0  0  0  0  0  0  0  0  0  0  0
   -3.6516    0.2675   -1.0302 C   0  0  0  0  0  0  0  0  0  0  0  0
   -3.5436    1.6745   -0.5076 C   0  0  0  0  0  0  0  0  0  0  0  0
    3.8240   -1.2145    2.3000 C   0  0  0  0  0  0  0  0  0  0  0  0
   -5.0440   -0.5877    0.8213 C   0  0  0  0  0  0  0  0  0  0  0  0
   -2.2903    1.8830    0.3409 C   0  0  0  0  0  0  0  0  0  0  0  0
    4.2789    0.8807   -1.2500 C   0  0  0  0  0  0  0  0  0  0  0  0
    3.3080    1.8134   -1.2303 C   0  0  0  0  0  0  0  0  0  0  0  0
   -2.1870    3.2995    0.8677 C   0  0  0  0  0  0  0  0  0  0  0  0
    2.4089    2.0006   -2.4236 C   0  0  0  0  0  0  0  0  0  0  0  0
    3.0018    2.7269   -0.0782 C   0  0  0  0  0  0  0  0  0  0  0  0
   -1.0041    3.6198    1.7430 C   0  0  0  0  0  0  0  0  0  0  0  0
  1 21  2  0
  2  3  1  0
  2  4  1  0
  3 11  1  0
  4  7  2  0
  4 13  1  0
  5  6  1  0
  5  7  1  0
  6 10  1  0
  8  9  1  0
  8 11  2  0
  8 16  1  0
  9 12  1  0
 10 14  2  0
 10 17  1  0
 12 19  1  0
 14 15  1  0
 15 18  1  0
 18 21  1  0
 19 20  2  3
 20 22  1  0
 20 23  1  0
 21 24  1  0
M  END
>  <PUBCHEM_COMPOUND_CID>  (1) 
5399

>  <PUBCHEM_CONFORMER_RMSD>  (1) 
1.4

>  <PUBCHEM_CONFORMER_DIVERSEORDER>  (1) 
6
118
35
65
112
151
167
159
42
11
20
147
86
66
47
160
79
55
152
153
145
141
161
102
164
4
169
139
57
78
1
124
92
125
53
25
171
51
106
99
116
170
74
19
77
176
87
85
127
117
166
89
162
135
119
114
84
111
155
39
76
2
69
34
175
41
165
140
26
75
108
107
82
94
137
126
173
105
150
18
37
10
157
115
80
156
110
133
132
113
158
9
163
134
168
154
128
45
67
38
146
72
36
73
174
131
8
91
148
172
29
142
100
27
31
122
48
60
120
14
58
143
121
61
136
30
129
28
21
63
90
97
52
130
70
93
101
81
62
88
44
12
40
144
46
123
7
104
96
56
98
13
64
109
22
149
59
95
138
24
103
32
17
71
50
43
33
23
68
15
54
5
16
83
49
3

>  <PUBCHEM_MMFF94_PARTIAL_CHARGES>  (1) 
28
1 -0.57
10 -0.28
11 -0.29
12 0.14
13 0.14
14 -0.29
15 0.14
16 0.14
17 0.14
18 0.06
19 -0.29
2 0.14
20 -0.28
21 0.45
22 0.14
23 0.14
24 0.06
3 0.14
33 0.15
36 0.15
4 -0.28
42 0.15
5 0.14
53 0.15
6 0.14
7 -0.29
8 -0.28
9 0.14

>  <PUBCHEM_EFFECTIVE_ROTOR_COUNT>  (1) 
12

>  <PUBCHEM_PHARMACOPHORE_FEATURES>  (1) 
8
1 1 acceptor
1 13 hydrophobe
1 16 hydrophobe
1 17 hydrophobe
3 20 22 23 hydrophobe
4 2 3 4 11 hydrophobe
4 5 6 7 10 hydrophobe
4 8 9 12 19 hydrophobe

>  <PUBCHEM_HEAVY_ATOM_COUNT>  (1) 
24

>  <PUBCHEM_ATOM_DEF_STEREO_COUNT>  (1) 
0

>  <PUBCHEM_ATOM_UDEF_STEREO_COUNT>  (1) 
0

>  <PUBCHEM_BOND_DEF_STEREO_COUNT>  (1) 
0

>  <PUBCHEM_BOND_UDEF_STEREO_COUNT>  (1) 
3

>  <PUBCHEM_ISOTOPIC_ATOM_COUNT>  (1) 
0

>  <PUBCHEM_COMPONENT_COUNT>  (1) 
1

>  <PUBCHEM_CACTVS_TAUTO_COUNT>  (1) 
3

>  <PUBCHEM_CONFORMER_ID>  (1) 
0000151700000006

>  <PUBCHEM_MMFF94_ENERGY>  (1) 
21.9862

>  <PUBCHEM_FEATURE_SELFOVERLAP>  (1) 
40.621

>  <PUBCHEM_SHAPE_FINGERPRINT>  (1) 
10074138 170 15012270203126413162
10670039 82 18341900649850570542
10708813 3 18261115145079962092
10937287 8 17694500343583874433
11513181 2 17913492337777705750
12596602 18 17458341935896042443
12788726 201 18341063989636130381
12978246 48 18337955576028198225
13583140 156 17240772748038944314
14117953 113 17400632723613031148
14251764 38 18337115570513717368
14363568 33 17689163726385585947
15274700 259 18042102312744314701
15297060 5 17844246211977394018
17818456 19 18411979165623591390
338550 245 18334862705527349252
3493558 16 18126565622234989810
5895379 119 18341615872049361862
7064713 232 18196362620571795784

>  <PUBCHEM_SHAPE_MULTIPOLES>  (1) 
488.04
11.69
5.06
1.71
4.22
4
0.12
-1.18
-1.08
-3.36
1.17
1.01
0.6
-2.96

>  <PUBCHEM_SHAPE_SELFOVERLAP>  (1) 
927.138

>  <PUBCHEM_SHAPE_VOLUME>  (1) 
300.8

>  <PUBCHEM_COORDINATE_TYPE>  (1) 
2
5
10

$$$$
