5402
     RDKit          3D

 22 23  0  0  1  0  0  0  0  0999 V2000
   -0.9164    2.1133   -0.8008 N   0  0  0  0  0  0  0  0  0  0  0  0
   -1.0077    1.4006    0.4743 C   0  0  0  0  0  0  0  0  0  0  0  0
   -2.3314    0.6997    0.5480 C   0  0  0  0  0  0  0  0  0  0  0  0
   -2.5043   -0.6120    0.0796 C   0  0  0  0  0  0  0  0  0  0  0  0
   -3.7798   -1.2177    0.1772 C   0  0  0  0  0  0  0  0  0  0  0  0
    5.4879   -0.9322    0.2878 C   0  0  0  0  0  0  0  0  0  0  0  0
    0.3856    2.7577   -0.9362 C   0  0  0  0  0  0  0  0  0  0  0  0
   -3.3970    1.4055    1.1047 C   0  0  0  0  0  0  0  0  0  0  0  0
   -1.4413   -1.3364   -0.4834 C   0  0  0  0  0  0  0  0  0  0  0  0
   -1.9925    3.0993   -0.9102 C   0  0  0  0  0  0  0  0  0  0  0  0
   -4.8430   -0.4929    0.7401 C   0  0  0  0  0  0  0  0  0  0  0  0
   -4.6513    0.8102    1.2004 C   0  0  0  0  0  0  0  0  0  0  0  0
   -3.9544   -2.5304   -0.2910 C   0  0  0  0  0  0  0  0  0  0  0  0
    6.8119   -0.2675   -0.1139 C   0  0  0  0  0  0  0  0  0  0  0  0
    5.1799   -2.0870   -0.6756 C   0  0  0  0  0  0  0  0  0  0  0  0
    5.5984   -1.4736    1.7200 C   0  0  0  0  0  0  0  0  0  0  0  0
    1.5046    1.7662   -0.8273 C   0  0  0  0  0  0  0  0  0  0  0  0
   -1.6329   -2.6393   -0.9439 C   0  0  0  0  0  0  0  0  0  0  0  0
   -2.8869   -3.2353   -0.8479 C   0  0  0  0  0  0  0  0  0  0  0  0
    4.3971    0.0658    0.2225 C   0  0  0  0  0  0  0  0  0  0  0  0
    2.4631    1.8317    0.1073 C   0  0  0  0  0  0  0  0  0  0  0  0
    3.5103    0.8744    0.1683 C   0  0  0  0  0  0  0  0  0  0  0  0
  1  2  1  0
  1  7  1  0
  1 10  1  0
  2  3  1  0
  3  4  2  0
  3  8  1  0
  4  5  1  0
  4  9  1  0
  5 11  2  0
  5 13  1  0
  6 14  1  0
  6 15  1  0
  6 16  1  0
  6 20  1  0
  7 17  1  0
  8 12  2  0
  9 18  2  0
 11 12  1  0
 13 19  2  0
 17 21  2  0
 18 19  1  0
 20 22  3  0
 21 22  1  0
M  END
>  <PUBCHEM_COMPOUND_CID>  (1) 
5402

>  <PUBCHEM_CONFORMER_RMSD>  (1) 
0.6

>  <PUBCHEM_CONFORMER_DIVERSEORDER>  (1) 
1
6
3
33
59
17
45
19
27
7
29
44
52
21
15
38
46
61
2
20
58
50
18
13
10
41
55
24
26
14
43
5
51
62
37
12
4
25
54
16
39
30
32
60
48
9
8
40
31
53
11
34
49
23
47
22
42
63
57
35
36
56
28

>  <PUBCHEM_MMFF94_PARTIAL_CHARGES>  (1) 
26
1 -0.81
10 0.27
11 -0.15
12 -0.15
13 -0.15
17 -0.29
18 -0.15
19 -0.15
2 0.41
20 -0.2
21 -0.09
22 -0.06
27 0.15
28 0.15
3 -0.14
32 0.15
33 0.15
34 0.15
44 0.15
45 0.15
46 0.15
47 0.15
6 0.2
7 0.41
8 -0.15
9 -0.15

>  <PUBCHEM_EFFECTIVE_ROTOR_COUNT>  (1) 
4

>  <PUBCHEM_PHARMACOPHORE_FEATURES>  (1) 
4
1 1 cation
4 6 14 15 16 hydrophobe
6 3 4 5 8 11 12 rings
6 4 5 9 13 18 19 rings

>  <PUBCHEM_HEAVY_ATOM_COUNT>  (1) 
22

>  <PUBCHEM_ATOM_DEF_STEREO_COUNT>  (1) 
0

>  <PUBCHEM_ATOM_UDEF_STEREO_COUNT>  (1) 
0

>  <PUBCHEM_BOND_DEF_STEREO_COUNT>  (1) 
0

>  <PUBCHEM_BOND_UDEF_STEREO_COUNT>  (1) 
1

>  <PUBCHEM_ISOTOPIC_ATOM_COUNT>  (1) 
0

>  <PUBCHEM_COMPONENT_COUNT>  (1) 
1

>  <PUBCHEM_CACTVS_TAUTO_COUNT>  (1) 
1

>  <PUBCHEM_CONFORMER_ID>  (1) 
0000151A00000001

>  <PUBCHEM_MMFF94_ENERGY>  (1) 
61.6637

>  <PUBCHEM_FEATURE_SELFOVERLAP>  (1) 
20.324

>  <PUBCHEM_SHAPE_FINGERPRINT>  (1) 
10291535 26 9583508832944222132
10483366 6 18192124081067743645
10622 236 18053934327877462175
11524674 6 17560797697699286943
12107183 9 18340216219364578465
12174731 88 18044641015524494594
12422481 6 18272379645785222655
12633257 1 18202572782319877664
13551218 46 18410299085806711010
14100547 121 18130786801792294071
14251751 93 18262795164619035154
14420673 8 18270409291305808102
15250474 111 18268429212623965014
15537594 2 18187367606350101578
16110190 28 18341334470092363372
17492 89 17977668932967882099
17780758 139 18202281398895832928
17857418 61 18409728474137931762
1813 80 17748832916828765132
19141452 34 18413393124407075144
19319366 153 16538484250436266143
20403669 9 18408325467294270678
20621476 51 18341890856755469047
229767 44 18343021094748683150
235170 7 13984661421815833498
23559900 14 18058163011011702713
312425 54 18202844353318100392
351380 3 18114181926208695240
4409770 3 18189325789230758165
463206 1 18334580191395283066
5081480 168 15647331999952597445
5104073 3 18129671935925252649
559249 180 18409167706064943713
56633871 153 18412268358672467311
7064713 232 18131357392439351947

>  <PUBCHEM_SHAPE_MULTIPOLES>  (1) 
447.77
14.02
3.74
1.17
22.71
0.26
-0.2
7.61
-3.97
-2.48
1.54
0.04
-0.02
-1.28

>  <PUBCHEM_SHAPE_SELFOVERLAP>  (1) 
936.052

>  <PUBCHEM_SHAPE_VOLUME>  (1) 
253.3

>  <PUBCHEM_COORDINATE_TYPE>  (1) 
2
5
10

$$$$
