5405
     RDKit          3D

 35 38  0  0  1  0  0  0  0  0999 V2000
    2.6482    0.0636   -1.6970 O   0  0  0  0  0  0  0  0  0  0  0  0
   -4.2219   -3.3124   -1.9908 O   0  0  0  0  0  0  0  0  0  0  0  0
   -0.0003   -2.3519    0.9006 N   0  0  0  0  0  0  0  0  0  0  0  0
    2.3313   -0.6131    0.5330 C   0  0  0  0  0  0  0  0  0  0  0  0
    2.3205   -2.0794    0.0880 C   0  0  0  0  0  0  0  0  0  0  0  0
    0.8982   -0.0714    0.5655 C   0  0  0  0  0  0  0  0  0  0  0  0
    3.2164    0.2308   -0.3800 C   0  0  0  0  0  0  0  0  0  0  0  0
    1.3574   -2.9118    0.9369 C   0  0  0  0  0  0  0  0  0  0  0  0
   -0.0175   -0.9702    1.3991 C   0  0  0  0  0  0  0  0  0  0  0  0
   -0.9190   -3.1868    1.6743 C   0  0  0  0  0  0  0  0  0  0  0  0
    4.6515   -0.3252   -0.3624 C   0  0  0  0  0  0  0  0  0  0  0  0
    3.2171    1.7417   -0.0884 C   0  0  0  0  0  0  0  0  0  0  0  0
   -2.3725   -2.9024    1.2944 C   0  0  0  0  0  0  0  0  0  0  0  0
   -2.6240   -3.2052   -0.1857 C   0  0  0  0  0  0  0  0  0  0  0  0
    5.1787   -0.9308   -1.5029 C   0  0  0  0  0  0  0  0  0  0  0  0
    3.1150    2.1985    1.2256 C   0  0  0  0  0  0  0  0  0  0  0  0
    5.4250   -0.2232    0.7939 C   0  0  0  0  0  0  0  0  0  0  0  0
    3.3202    2.6546   -1.1380 C   0  0  0  0  0  0  0  0  0  0  0  0
   -4.0794   -2.9599   -0.6134 C   0  0  0  0  0  0  0  0  0  0  0  0
    6.4794   -1.4345   -1.4872 C   0  0  0  0  0  0  0  0  0  0  0  0
    3.1160    3.5680    1.4900 C   0  0  0  0  0  0  0  0  0  0  0  0
    6.7257   -0.7267    0.8097 C   0  0  0  0  0  0  0  0  0  0  0  0
    3.3213    4.0242   -0.8737 C   0  0  0  0  0  0  0  0  0  0  0  0
   -4.5336   -1.5280   -0.4495 C   0  0  0  0  0  0  0  0  0  0  0  0
    7.2529   -1.3323   -0.3308 C   0  0  0  0  0  0  0  0  0  0  0  0
    3.2191    4.4809    0.4403 C   0  0  0  0  0  0  0  0  0  0  0  0
   -5.8181    2.5291    0.0162 C   0  0  0  0  0  0  0  0  0  0  0  0
   -5.3713    1.1156   -0.1465 C   0  0  0  0  0  0  0  0  0  0  0  0
   -5.6505   -1.2357    0.3333 C   0  0  0  0  0  0  0  0  0  0  0  0
   -3.8355   -0.4985   -1.0806 C   0  0  0  0  0  0  0  0  0  0  0  0
   -6.0694    0.0861    0.4849 C   0  0  0  0  0  0  0  0  0  0  0  0
   -4.2543    0.8232   -0.9291 C   0  0  0  0  0  0  0  0  0  0  0  0
   -4.9585    3.5962   -0.7394 C   0  0  0  0  0  0  0  0  0  0  0  0
   -5.7928    2.9614    1.5151 C   0  0  0  0  0  0  0  0  0  0  0  0
   -7.2756    2.7255   -0.5053 C   0  0  0  0  0  0  0  0  0  0  0  0
  1  7  1  0
  2 19  1  0
  3  8  1  0
  3  9  1  0
  3 10  1  0
  4  5  1  0
  4  6  1  0
  4  7  1  0
  5  8  1  0
  6  9  1  0
  7 11  1  0
  7 12  1  0
 10 13  1  0
 11 15  2  0
 11 17  1  0
 12 16  2  0
 12 18  1  0
 13 14  1  0
 14 19  1  0
 15 20  1  0
 16 21  1  0
 17 22  2  0
 18 23  2  0
 19 24  1  0
 20 25  2  0
 21 26  2  0
 22 25  1  0
 23 26  1  0
 24 29  2  0
 24 30  1  0
 27 28  1  0
 27 33  1  0
 27 34  1  0
 27 35  1  0
 28 31  2  0
 28 32  1  0
 29 31  1  0
 30 32  2  0
M  END
>  <PUBCHEM_COMPOUND_CID>  (1) 
5405

>  <PUBCHEM_CONFORMER_RMSD>  (1) 
1

>  <PUBCHEM_CONFORMER_DIVERSEORDER>  (1) 
1
177
90
194
172
11
72
45
77
120
178
15
95
113
83
39
110
115
125
86
29
148
44
52
104
97
154
139
91
123
6
145
85
135
53
73
55
101
69
18
118
185
167
71
161
96
181
188
89
127
147
203
133
105
149
129
60
112
56
48
31
182
130
169
176
175
186
57
122
150
168
88
7
141
152
206
159
8
119
191
93
156
184
67
199
34
207
99
38
13
70
201
41
124
174
46
98
189
183
30
107
24
37
163
144
140
205
204
50
151
102
103
200
51
84
4
157
49
179
32
54
134
62
81
137
198
158
171
25
100
22
106
155
138
64
126
114
43
208
196
202
192
142
36
166
165
80
121
190
10
170
65
160
197
116
164
82
33
75
153
66
146
79
14
136
19
27
68
16
195
26
193
47
132
78
162
58
109
21
20
173
143
180
187
87
128
12
23
63
76
131
111
35
3
28
61
92
17
42
5
40
9
108
94
117
2
74
59

>  <PUBCHEM_MMFF94_PARTIAL_CHARGES>  (1) 
43
1 -0.68
10 0.27
11 -0.14
12 -0.14
15 -0.15
16 -0.15
17 -0.15
18 -0.15
19 0.42
2 -0.68
20 -0.15
21 -0.15
22 -0.15
23 -0.15
24 -0.14
25 -0.15
26 -0.15
27 0.14
28 -0.14
29 -0.15
3 -0.81
30 -0.15
31 -0.15
32 -0.15
49 0.4
52 0.15
53 0.15
54 0.15
55 0.15
57 0.15
58 0.15
59 0.15
60 0.15
61 0.15
62 0.15
63 0.15
64 0.15
65 0.4
66 0.15
67 0.15
7 0.57
8 0.27
9 0.27

>  <PUBCHEM_EFFECTIVE_ROTOR_COUNT>  (1) 
10.2

>  <PUBCHEM_PHARMACOPHORE_FEATURES>  (1) 
10
1 1 acceptor
1 1 donor
1 2 acceptor
1 2 donor
1 3 cation
4 27 33 34 35 hydrophobe
6 11 15 17 20 22 25 rings
6 12 16 18 21 23 26 rings
6 24 28 29 30 31 32 rings
6 3 4 5 6 8 9 rings

>  <PUBCHEM_HEAVY_ATOM_COUNT>  (1) 
35

>  <PUBCHEM_ATOM_DEF_STEREO_COUNT>  (1) 
0

>  <PUBCHEM_ATOM_UDEF_STEREO_COUNT>  (1) 
1

>  <PUBCHEM_BOND_DEF_STEREO_COUNT>  (1) 
0

>  <PUBCHEM_BOND_UDEF_STEREO_COUNT>  (1) 
0

>  <PUBCHEM_ISOTOPIC_ATOM_COUNT>  (1) 
0

>  <PUBCHEM_COMPONENT_COUNT>  (1) 
1

>  <PUBCHEM_CACTVS_TAUTO_COUNT>  (1) 
1

>  <PUBCHEM_CONFORMER_ID>  (1) 
0000151D00000001

>  <PUBCHEM_MMFF94_ENERGY>  (1) 
106.9818

>  <PUBCHEM_FEATURE_SELFOVERLAP>  (1) 
50.746

>  <PUBCHEM_SHAPE_FINGERPRINT>  (1) 
10439779 11 18335692841539364970
10815517 723 18186801357376604492
10864689 126 18265891350603359701
11456790 92 18113897144255308426
11578080 2 17897451816686600220
13835254 42 17757843603170357851
14251764 38 18265330797061847624
14279260 333 18271244907210530086
14295345 954 17846503578358909596
15183329 4 17749384893157289838
15320291 9 18266457805498390973
15406563 228 18409455773506087920
15419009 47 18339923718979536774
15968369 26 17841964944600079913
15975801 100 17241599533860671076
16112460 7 18261679267285362724
16708801 149 18117547634207102305
16992727 255 18335710386395937684
21223535 225 18412256212378113767
23559900 14 18339359794590889266
249057 3 18341613676989023957
25223398 141 16271059649227792743
2747138 104 17896611772681437947
2838139 119 18410009970484666027
4144715 1 18337394962568693058
508180 173 18410019810359574290
6086070 43 18409448103063269018
613672 6 12031504432337933295
6431902 208 9799400127676155089

>  <PUBCHEM_SHAPE_MULTIPOLES>  (1) 
703.56
19.55
5.72
1.53
6.88
3.6
0.05
6.01
3.53
2.83
-0.62
-0.37
-0.26
0.14

>  <PUBCHEM_SHAPE_SELFOVERLAP>  (1) 
1495.646

>  <PUBCHEM_SHAPE_VOLUME>  (1) 
390.3

>  <PUBCHEM_COORDINATE_TYPE>  (1) 
2
5
10

$$$$
