5420
     RDKit          3D

 21 20  0  0  0  0  0  0  0  0999 V2000
   -1.5109    0.1212    0.2793 P   0  0  0  0  0  0  0  0  0  0  0  0
    1.4181    0.1572   -0.2095 P   0  0  0  0  0  0  0  0  0  0  0  0
   -0.0427   -0.5282    0.0079 O   0  0  0  0  0  0  0  0  0  0  0  0
   -1.4733    1.0128    1.4970 O   0  0  0  0  0  0  0  0  0  0  0  0
    1.3686    1.1486   -1.3472 O   0  0  0  0  0  0  0  0  0  0  0  0
   -2.5336   -1.1855    0.3989 N   0  0  0  0  0  0  0  0  0  0  0  0
   -1.8948    0.8864   -1.1470 N   0  0  0  0  0  0  0  0  0  0  0  0
    2.4553   -1.1222   -0.4335 N   0  0  0  0  0  0  0  0  0  0  0  0
    1.8006    0.8024    1.2750 N   0  0  0  0  0  0  0  0  0  0  0  0
   -2.4324   -2.0576    1.5600 C   0  0  0  0  0  0  0  0  0  0  0  0
   -3.0509    1.7689   -1.1809 C   0  0  0  0  0  0  0  0  0  0  0  0
    2.3673   -1.9007   -1.6588 C   0  0  0  0  0  0  0  0  0  0  0  0
    2.9487    1.6896    1.3805 C   0  0  0  0  0  0  0  0  0  0  0  0
   -1.4245   -3.1730    1.2978 C   0  0  0  0  0  0  0  0  0  0  0  0
   -3.8085   -2.6284    1.8879 C   0  0  0  0  0  0  0  0  0  0  0  0
   -3.6844    1.7578   -2.5692 C   0  0  0  0  0  0  0  0  0  0  0  0
   -2.6252    3.1789   -0.7840 C   0  0  0  0  0  0  0  0  0  0  0  0
    2.7702   -3.3489   -1.3956 C   0  0  0  0  0  0  0  0  0  0  0  0
    3.2562   -1.2699   -2.7260 C   0  0  0  0  0  0  0  0  0  0  0  0
    3.5873    1.5667    2.7611 C   0  0  0  0  0  0  0  0  0  0  0  0
    2.5088    3.1241    1.1060 C   0  0  0  0  0  0  0  0  0  0  0  0
  1  3  1  0
  1  4  2  0
  1  6  1  0
  1  7  1  0
  2  3  1  0
  2  5  2  0
  2  8  1  0
  2  9  1  0
  6 10  1  0
  7 11  1  0
  8 12  1  0
  9 13  1  0
 10 14  1  0
 10 15  1  0
 11 16  1  0
 11 17  1  0
 12 18  1  0
 12 19  1  0
 13 20  1  0
 13 21  1  0
M  END
>  <PUBCHEM_COMPOUND_CID>  (1) 
5420

>  <PUBCHEM_CONFORMER_RMSD>  (1) 
1

>  <PUBCHEM_CONFORMER_DIVERSEORDER>  (1) 
1
28
81
82
72
22
52
7
19
70
54
39
12
86
29
66
27
9
51
10
73
79
83
64
33
67
21
3
49
58
2
14
48
63
44
62
30
37
26
56
69
34
53
23
59
45
5
18
40
17
20
38
65
84
24
36
32
55
68
71
8
75
13
77
50
25
15
47
16
74
31
11
46
57
61
78
76
43
42
35
85
80
41
60
4
6

>  <PUBCHEM_MMFF94_PARTIAL_CHARGES>  (1) 
17
1 1.51
10 0.27
11 0.27
12 0.27
13 0.27
2 1.51
26 0.36
27 0.36
28 0.36
29 0.36
3 -0.54
4 -0.7
5 -0.7
6 -0.9
7 -0.9
8 -0.9
9 -0.9

>  <PUBCHEM_EFFECTIVE_ROTOR_COUNT>  (1) 
10

>  <PUBCHEM_PHARMACOPHORE_FEATURES>  (1) 
4
3 10 14 15 hydrophobe
3 11 16 17 hydrophobe
3 12 18 19 hydrophobe
3 13 20 21 hydrophobe

>  <PUBCHEM_HEAVY_ATOM_COUNT>  (1) 
21

>  <PUBCHEM_ATOM_DEF_STEREO_COUNT>  (1) 
0

>  <PUBCHEM_ATOM_UDEF_STEREO_COUNT>  (1) 
0

>  <PUBCHEM_BOND_DEF_STEREO_COUNT>  (1) 
0

>  <PUBCHEM_BOND_UDEF_STEREO_COUNT>  (1) 
0

>  <PUBCHEM_ISOTOPIC_ATOM_COUNT>  (1) 
0

>  <PUBCHEM_COMPONENT_COUNT>  (1) 
1

>  <PUBCHEM_CACTVS_TAUTO_COUNT>  (1) 
3

>  <PUBCHEM_CONFORMER_ID>  (1) 
0000152C00000001

>  <PUBCHEM_MMFF94_ENERGY>  (1) 
-19.1852

>  <PUBCHEM_FEATURE_SELFOVERLAP>  (1) 
20.3

>  <PUBCHEM_SHAPE_FINGERPRINT>  (1) 
12160290 23 17749112184408491521
12549972 3 18341615854331260395
12788726 201 17386575794275266995
133893 2 17275100622413696900
14022347 108 17315943193040395675
18915476 22 18131629006213452742
20600515 1 17677869332397214924
20671657 53 17271993264782404628
20693207 138 18340783575779930223
21285901 2 18262800808565407847
22907989 373 17969525778449488335
23419403 2 18272664436487157367
23526113 38 18198337351844541678
23557571 272 18334291006952282237
23559900 14 18196395773244856251
23598288 3 17759772112753851784
2748010 2 18412267245969560447
57100710 210 17753305849988592202
59554788 248 18055061327575188624
59554788 62 18054790847720257767
6049 1 18339656588992900463
621550 34 18197505227605748043
621550 5 17835850478410683366
633830 44 16198473272018157328
7615 1 16009024016436638973
81228 2 18114190778204863889
88987 49 17749385957791370181
9981440 41 17843086390308461040

>  <PUBCHEM_SHAPE_MULTIPOLES>  (1) 
402.34
7.07
4.38
2.88
0.85
1.02
-0.4
-0.54
-0.26
0.63
0.45
-1
0.1
6.46

>  <PUBCHEM_SHAPE_SELFOVERLAP>  (1) 
718.423

>  <PUBCHEM_SHAPE_VOLUME>  (1) 
262.8

>  <PUBCHEM_COORDINATE_TYPE>  (1) 
2
5
10

$$$$
