5423
     RDKit          3D

 19 18  0  0  1  0  0  0  0  0999 V2000
    5.1730    0.3104    0.2710 O   0  0  0  0  0  0  0  0  0  0  0  0
   -3.5102    1.9313   -1.0372 O   0  0  0  0  0  0  0  0  0  0  0  0
   -2.3395    1.5672    0.8796 O   0  0  0  0  0  0  0  0  0  0  0  0
   -0.9536   -2.7253    0.3310 C   0  0  0  0  0  0  0  0  0  0  0  0
   -2.2910   -3.2630   -0.1872 C   0  0  0  0  0  0  0  0  0  0  0  0
    0.2593   -3.3264   -0.3832 C   0  0  0  0  0  0  0  0  0  0  0  0
   -3.5028   -2.6826    0.5425 C   0  0  0  0  0  0  0  0  0  0  0  0
    1.5416   -2.7754    0.1710 C   0  0  0  0  0  0  0  0  0  0  0  0
    3.7418   -1.5850   -0.0140 C   0  0  0  0  0  0  0  0  0  0  0  0
    3.9092   -0.0811   -0.2693 C   0  0  0  0  0  0  0  0  0  0  0  0
    2.4596   -2.1366   -0.5693 C   0  0  0  0  0  0  0  0  0  0  0  0
   -4.8031   -3.2570    0.0007 C   0  0  0  0  0  0  0  0  0  0  0  0
    2.8367    0.7422    0.3911 C   0  0  0  0  0  0  0  0  0  0  0  0
    2.0415    1.5921   -0.2760 C   0  0  0  0  0  0  0  0  0  0  0  0
   -0.8645    4.0438    0.3498 C   0  0  0  0  0  0  0  0  0  0  0  0
    1.0087    2.3744    0.3635 C   0  0  0  0  0  0  0  0  0  0  0  0
    0.2136    3.2242   -0.3036 C   0  0  0  0  0  0  0  0  0  0  0  0
   -2.2503    3.7431   -0.2229 C   0  0  0  0  0  0  0  0  0  0  0  0
   -2.6700    2.3038   -0.0374 C   0  0  0  0  0  0  0  0  0  0  0  0
  1 10  1  0
  2 19  1  0
  3 19  2  0
  4  5  1  0
  4  6  1  0
  5  7  1  0
  6  8  1  0
  7 12  1  0
  8 11  2  0
  9 10  1  0
  9 11  1  0
 10 13  1  0
 13 14  2  0
 14 16  1  0
 15 17  1  0
 15 18  1  0
 16 17  2  0
 18 19  1  0
M  END
>  <PUBCHEM_COMPOUND_CID>  (1) 
5423

>  <PUBCHEM_CONFORMER_RMSD>  (1) 
1

>  <PUBCHEM_CONFORMER_DIVERSEORDER>  (1) 
1
29
234
33
173
143
111
208
220
147
181
97
219
164
115
62
132
189
9
24
55
92
68
167
113
213
130
91
171
82
178
210
94
169
135
198
170
144
47
133
64
81
18
190
2
37
128
42
188
201
46
72
221
58
166
158
16
204
211
86
141
17
225
34
185
39
176
23
155
129
199
222
54
79
218
4
192
117
232
114
57
36
196
154
172
106
187
101
60
80
180
120
103
105
142
194
45
109
85
41
12
53
28
104
182
83
75
13
127
215
108
21
163
93
119
88
22
134
212
110
226
186
145
174
48
153
209
73
71
152
233
65
19
150
140
35
203
160
27
229
32
136
175
10
122
131
7
89
98
177
149
159
6
78
116
162
90
126
157
217
5
183
168
84
231
61
107
197
8
63
15
124
207
191
44
205
76
230
148
202
224
3
11
137
123
59
51
184
121
43
195
206
235
52
67
99
227
100
179
138
70
214
156
26
165
40
193
30
139
66
125
50
112
223
146
216
151
74
96
228
95
102
69
14
161
87
20
49
56
200
31
118
38
25
77

>  <PUBCHEM_MMFF94_PARTIAL_CHARGES>  (1) 
23
1 -0.68
10 0.42
11 -0.29
13 -0.29
14 -0.15
15 0.14
16 -0.15
17 -0.29
18 0.06
19 0.66
2 -0.65
28 0.15
3 -0.57
32 0.15
36 0.15
37 0.15
40 0.4
41 0.15
42 0.15
45 0.5
6 0.14
8 -0.29
9 0.14

>  <PUBCHEM_EFFECTIVE_ROTOR_COUNT>  (1) 
11

>  <PUBCHEM_PHARMACOPHORE_FEATURES>  (1) 
7
1 1 acceptor
1 1 donor
1 12 hydrophobe
1 2 acceptor
1 3 acceptor
3 2 3 19 anion
5 4 5 6 7 8 hydrophobe

>  <PUBCHEM_HEAVY_ATOM_COUNT>  (1) 
19

>  <PUBCHEM_ATOM_DEF_STEREO_COUNT>  (1) 
0

>  <PUBCHEM_ATOM_UDEF_STEREO_COUNT>  (1) 
1

>  <PUBCHEM_BOND_DEF_STEREO_COUNT>  (1) 
0

>  <PUBCHEM_BOND_UDEF_STEREO_COUNT>  (1) 
3

>  <PUBCHEM_ISOTOPIC_ATOM_COUNT>  (1) 
0

>  <PUBCHEM_COMPONENT_COUNT>  (1) 
1

>  <PUBCHEM_CACTVS_TAUTO_COUNT>  (1) 
1

>  <PUBCHEM_CONFORMER_ID>  (1) 
0000152F00000001

>  <PUBCHEM_MMFF94_ENERGY>  (1) 
6.3228

>  <PUBCHEM_FEATURE_SELFOVERLAP>  (1) 
35.578

>  <PUBCHEM_SHAPE_FINGERPRINT>  (1) 
12038231 1 18410857698096357819
13122387 1 18050569547539281647
138480 1 16176790412543217298
14940714 1 9124006422606035071
15110567 62 17474111994770469241
19930381 70 17257649448715132647
20621476 13 17762051443059997071
20621476 7 18266749158514234523
21860390 5 17839756090068720470
3014063 31 18338797948101158279
4283 87 17403727857392918052
463206 1 18340762633709493797
5939293 188 17907015437164780798
6433294 58 16825307711018121596
653340 110 18413101784296466488

>  <PUBCHEM_SHAPE_MULTIPOLES>  (1) 
373.4
8.19
7.25
0.77
1.35
4.47
0.02
-6.31
-0.18
5.14
0.31
0.17
0.1
0.59

>  <PUBCHEM_SHAPE_SELFOVERLAP>  (1) 
703.791

>  <PUBCHEM_SHAPE_VOLUME>  (1) 
230.2

>  <PUBCHEM_COORDINATE_TYPE>  (1) 
2
5
10

$$$$
