5425
     RDKit          3D

 10  9  0  0  1  0  0  0  0  0999 V2000
    0.3005   -1.6027    1.0177 O   0  0  0  0  0  0  0  0  0  0  0  0
   -0.8823    1.9794   -0.1901 O   0  0  0  0  0  0  0  0  0  0  0  0
    1.9942    0.6555   -1.1880 O   0  0  0  0  0  0  0  0  0  0  0  0
   -2.0429    0.5187    1.0979 O   0  0  0  0  0  0  0  0  0  0  0  0
    2.1774    0.3337    1.0560 O   0  0  0  0  0  0  0  0  0  0  0  0
   -1.7506   -1.3725   -0.9307 N   0  0  0  0  0  0  0  0  0  0  0  0
   -0.7265   -0.3344   -0.7750 C   0  0  0  0  0  0  0  0  0  0  0  0
    0.5601   -0.9632   -0.2245 C   0  0  0  0  0  0  0  0  0  0  0  0
   -1.2923    0.7305    0.1539 C   0  0  0  0  0  0  0  0  0  0  0  0
    1.6623    0.0551   -0.0172 C   0  0  0  0  0  0  0  0  0  0  0  0
  1  8  1  0
  2  9  1  0
  3 10  1  0
  4  9  2  0
  5 10  2  0
  6  7  1  0
  7  8  1  0
  7  9  1  0
  8 10  1  0
M  END
>  <PUBCHEM_COMPOUND_CID>  (1) 
5425

>  <PUBCHEM_CONFORMER_RMSD>  (1) 
0.6

>  <PUBCHEM_CONFORMER_DIVERSEORDER>  (1) 
9
22
32
26
1
17
19
5
4
6
20
3
30
12
14
25
28
7
2
8
11
13
16
29
10
23
24
27
18
15
21
31

>  <PUBCHEM_MMFF94_PARTIAL_CHARGES>  (1) 
15
1 -0.68
10 0.66
13 0.36
14 0.36
15 0.4
16 0.5
17 0.5
2 -0.65
3 -0.65
4 -0.57
5 -0.57
6 -0.99
7 0.33
8 0.34
9 0.66

>  <PUBCHEM_EFFECTIVE_ROTOR_COUNT>  (1) 
3

>  <PUBCHEM_PHARMACOPHORE_FEATURES>  (1) 
10
1 1 acceptor
1 1 donor
1 2 acceptor
1 3 acceptor
1 4 acceptor
1 5 acceptor
1 6 cation
1 6 donor
3 2 4 9 anion
3 3 5 10 anion

>  <PUBCHEM_HEAVY_ATOM_COUNT>  (1) 
10

>  <PUBCHEM_ATOM_DEF_STEREO_COUNT>  (1) 
0

>  <PUBCHEM_ATOM_UDEF_STEREO_COUNT>  (1) 
2

>  <PUBCHEM_BOND_DEF_STEREO_COUNT>  (1) 
0

>  <PUBCHEM_BOND_UDEF_STEREO_COUNT>  (1) 
0

>  <PUBCHEM_ISOTOPIC_ATOM_COUNT>  (1) 
0

>  <PUBCHEM_COMPONENT_COUNT>  (1) 
1

>  <PUBCHEM_CACTVS_TAUTO_COUNT>  (1) 
1

>  <PUBCHEM_CONFORMER_ID>  (1) 
0000153100000009

>  <PUBCHEM_MMFF94_ENERGY>  (1) 
7.4528

>  <PUBCHEM_FEATURE_SELFOVERLAP>  (1) 
50.873

>  <PUBCHEM_SHAPE_FINGERPRINT>  (1) 
18185500 45 18337378405226764567
21040471 1 18200032815701214356
21922407 69 18113898251607471834
241688 4 18270391810361255769
24536 1 17604430669780545488
29004967 10 13985239854646418828
5084963 1 18267319637434075096
54338 74 18192694855501920432

>  <PUBCHEM_SHAPE_MULTIPOLES>  (1) 
171.47
2.65
1.54
1.12
0.54
0.06
0.07
0.47
0.17
-0.54
-0.04
0.12
-0.08
-0.37

>  <PUBCHEM_SHAPE_SELFOVERLAP>  (1) 
333.373

>  <PUBCHEM_SHAPE_VOLUME>  (1) 
102.6

>  <PUBCHEM_COORDINATE_TYPE>  (1) 
2
5
10

$$$$
