5437
     RDKit          3D

  7  7  0  0  0  0  0  0  0  0999 V2000
   -0.8775    1.4832    0.0003 S   0  0  0  0  0  0  0  0  0  0  0  0
    2.3002   -0.6902   -0.0003 O   0  0  0  0  0  0  0  0  0  0  0  0
   -2.3197   -0.7158   -0.0005 O   0  0  0  0  0  0  0  0  0  0  0  0
   -0.0038   -0.9162    0.0005 N   0  0  0  0  0  0  0  0  0  0  0  0
    0.9202    1.2798   -0.0004 C   0  0  0  0  0  0  0  0  0  0  0  0
    1.1757   -0.2021    0.0003 C   0  0  0  0  0  0  0  0  0  0  0  0
   -1.1950   -0.2388    0.0002 C   0  0  0  0  0  0  0  0  0  0  0  0
  1  5  1  0
  1  7  1  0
  2  6  2  0
  3  7  2  0
  4  6  1  0
  4  7  1  0
  5  6  1  0
M  END
>  <PUBCHEM_COMPOUND_CID>  (1) 
5437

>  <PUBCHEM_CONFORMER_RMSD>  (1) 
0.4

>  <PUBCHEM_CONFORMER_DIVERSEORDER>  (1) 
1

>  <PUBCHEM_MMFF94_PARTIAL_CHARGES>  (1) 
8
1 -0.37
10 0.37
2 -0.57
3 -0.57
4 -0.49
5 0.29
6 0.57
7 0.77

>  <PUBCHEM_EFFECTIVE_ROTOR_COUNT>  (1) 
0.6

>  <PUBCHEM_PHARMACOPHORE_FEATURES>  (1) 
3
1 2 acceptor
1 4 donor
5 1 4 5 6 7 rings

>  <PUBCHEM_HEAVY_ATOM_COUNT>  (1) 
7

>  <PUBCHEM_ATOM_DEF_STEREO_COUNT>  (1) 
0

>  <PUBCHEM_ATOM_UDEF_STEREO_COUNT>  (1) 
0

>  <PUBCHEM_BOND_DEF_STEREO_COUNT>  (1) 
0

>  <PUBCHEM_BOND_UDEF_STEREO_COUNT>  (1) 
0

>  <PUBCHEM_ISOTOPIC_ATOM_COUNT>  (1) 
0

>  <PUBCHEM_COMPONENT_COUNT>  (1) 
1

>  <PUBCHEM_CACTVS_TAUTO_COUNT>  (1) 
3

>  <PUBCHEM_CONFORMER_ID>  (1) 
0000153D00000001

>  <PUBCHEM_MMFF94_ENERGY>  (1) 
4.059

>  <PUBCHEM_FEATURE_SELFOVERLAP>  (1) 
15.223

>  <PUBCHEM_SHAPE_FINGERPRINT>  (1) 
16714656 1 18194407692881074644
18185500 45 18197496444339494903
20096714 4 18051414268568877997
21040471 1 17834113430437862625
23552423 10 18044385928615424518
29004967 10 18262803002628434209

>  <PUBCHEM_SHAPE_MULTIPOLES>  (1) 
131.19
2.5
1.46
0.59
0.14
0.54
0
-0.76
0
-0.19
0
-0.01
0.05
0

>  <PUBCHEM_SHAPE_SELFOVERLAP>  (1) 
252.572

>  <PUBCHEM_SHAPE_VOLUME>  (1) 
81.4

>  <PUBCHEM_COORDINATE_TYPE>  (1) 
2
5
10

$$$$
