5438
     RDKit          3D

 12 13  0  0  0  0  0  0  0  0999 V2000
   -0.5435    1.5064    0.0000 S   0  0  0  0  0  0  0  0  0  0  0  0
    2.1157    1.3871   -0.0007 N   0  0  0  0  0  0  0  0  0  0  0  0
   -3.5706    1.0658    0.0011 N   0  0  0  0  0  0  0  0  0  0  0  0
   -3.4283   -1.2622   -0.0019 N   0  0  0  0  0  0  0  0  0  0  0  0
    0.8184   -0.6884    0.0005 C   0  0  0  0  0  0  0  0  0  0  0  0
   -1.4058    0.0299    0.0008 C   0  0  0  0  0  0  0  0  0  0  0  0
    0.9568    0.6956    0.0000 C   0  0  0  0  0  0  0  0  0  0  0  0
   -0.5641   -1.0608    0.0011 C   0  0  0  0  0  0  0  0  0  0  0  0
    2.0076   -1.4457    0.0005 C   0  0  0  0  0  0  0  0  0  0  0  0
   -2.8313   -0.0573   -0.0007 C   0  0  0  0  0  0  0  0  0  0  0  0
    3.2276   -0.7770   -0.0001 C   0  0  0  0  0  0  0  0  0  0  0  0
    3.2174    0.6066   -0.0007 C   0  0  0  0  0  0  0  0  0  0  0  0
  1  6  1  0
  1  7  1  0
  2  7  2  0
  2 12  1  0
  3 10  2  0
  4 10  1  0
  5  7  1  0
  5  8  1  0
  5  9  2  0
  6  8  2  0
  6 10  1  0
  9 11  1  0
 11 12  2  0
M  CHG  1   3   1
M  END
>  <PUBCHEM_COMPOUND_CID>  (1) 
5438

>  <PUBCHEM_CONFORMER_RMSD>  (1) 
0.4

>  <PUBCHEM_CONFORMER_DIVERSEORDER>  (1) 
1

>  <PUBCHEM_MMFF94_PARTIAL_CHARGES>  (1) 
19
1 -0.08
10 0.78
11 -0.15
12 0.16
13 0.15
14 0.15
15 0.15
16 0.15
17 0.45
18 0.45
19 0.45
2 -0.57
20 0.45
3 -0.75
4 -0.75
6 -0.04
7 0.3
8 -0.15
9 -0.15

>  <PUBCHEM_EFFECTIVE_ROTOR_COUNT>  (1) 
1

>  <PUBCHEM_PHARMACOPHORE_FEATURES>  (1) 
6
1 2 acceptor
1 3 donor
1 4 donor
3 3 4 10 cation
5 1 5 6 7 8 rings
6 2 5 7 9 11 12 rings

>  <PUBCHEM_HEAVY_ATOM_COUNT>  (1) 
12

>  <PUBCHEM_ATOM_DEF_STEREO_COUNT>  (1) 
0

>  <PUBCHEM_ATOM_UDEF_STEREO_COUNT>  (1) 
0

>  <PUBCHEM_BOND_DEF_STEREO_COUNT>  (1) 
0

>  <PUBCHEM_BOND_UDEF_STEREO_COUNT>  (1) 
0

>  <PUBCHEM_ISOTOPIC_ATOM_COUNT>  (1) 
0

>  <PUBCHEM_COMPONENT_COUNT>  (1) 
1

>  <PUBCHEM_CACTVS_TAUTO_COUNT>  (1) 
2

>  <PUBCHEM_CONFORMER_ID>  (1) 
0000153E00000001

>  <PUBCHEM_MMFF94_ENERGY>  (1) 
24.6008

>  <PUBCHEM_FEATURE_SELFOVERLAP>  (1) 
30.567

>  <PUBCHEM_SHAPE_FINGERPRINT>  (1) 
10219947 1 18272090491348789166
10608611 8 18409444795437219109
11132069 177 18413101745230258400
11471102 20 18410288090669314796
11769659 78 18409442574817658379
12032990 46 18410580595132759783
12932764 1 17458337503489220627
13296908 3 18410294709430293003
13380535 76 18337107964374841930
14144814 61 18412263930291711707
14325111 11 18410856572640833441
15442244 35 18051976922169465130
15775835 57 18412548716651381684
16945 1 18410575076442422438
17844478 74 18040438780544926917
18186145 218 18113897135021560983
193761 8 17545883728659099010
20201158 50 18408886213354586194
20645477 70 18411413973787094239
20871998 22 18054228722595671182
21501502 16 18337676295732218584
21501925 9 18410564111032388714
23402539 116 18340476812151643302
23402655 69 18340761572852305517
23463225 33 18409730646863869348
23552423 10 18333170561310734742
2748010 2 18266180706538512134
3248919 1 17240770613556170611
3312278 4 18411984654528154209
528886 8 18412257341801356130
63268167 104 18413111658078204641
8809292 202 18260554402555198819

>  <PUBCHEM_SHAPE_MULTIPOLES>  (1) 
235.86
5.75
1.59
0.6
1.98
0.11
0
-0.36
0
-0.09
0
-0.03
0
0

>  <PUBCHEM_SHAPE_SELFOVERLAP>  (1) 
503.207

>  <PUBCHEM_SHAPE_VOLUME>  (1) 
133.6

>  <PUBCHEM_COORDINATE_TYPE>  (1) 
2
5
10

$$$$
