5439
     RDKit          3D

 12 13  0  0  0  0  0  0  0  0999 V2000
   -0.5643    1.4552    0.0001 S   0  0  0  0  0  0  0  0  0  0  0  0
    2.0969    1.3927   -0.0001 N   0  0  0  0  0  0  0  0  0  0  0  0
   -3.6343   -1.1892   -0.0003 N   0  0  0  0  0  0  0  0  0  0  0  0
   -3.4675    1.1208   -0.0001 N   0  0  0  0  0  0  0  0  0  0  0  0
    0.8441   -0.7101    0.0001 C   0  0  0  0  0  0  0  0  0  0  0  0
    0.9530    0.6766    0.0002 C   0  0  0  0  0  0  0  0  0  0  0  0
   -0.5301   -1.1118    0.0002 C   0  0  0  0  0  0  0  0  0  0  0  0
   -1.3949   -0.0394    0.0002 C   0  0  0  0  0  0  0  0  0  0  0  0
    2.0492   -1.4417    0.0000 C   0  0  0  0  0  0  0  0  0  0  0  0
   -2.8218   -0.0416    0.0000 C   0  0  0  0  0  0  0  0  0  0  0  0
    3.2547   -0.7472   -0.0001 C   0  0  0  0  0  0  0  0  0  0  0  0
    3.2150    0.6358   -0.0002 C   0  0  0  0  0  0  0  0  0  0  0  0
  1  6  1  0
  1  8  1  0
  2  6  2  0
  2 12  1  0
  3 10  1  0
  4 10  2  0
  5  6  1  0
  5  7  1  0
  5  9  2  0
  7  8  2  0
  8 10  1  0
  9 11  1  0
 11 12  2  0
M  END
>  <PUBCHEM_COMPOUND_CID>  (1) 
5439

>  <PUBCHEM_CONFORMER_RMSD>  (1) 
0.4

>  <PUBCHEM_CONFORMER_DIVERSEORDER>  (1) 
1

>  <PUBCHEM_MMFF94_PARTIAL_CHARGES>  (1) 
18
1 -0.08
10 0.58
11 -0.15
12 0.16
13 0.15
14 0.15
15 0.15
16 0.15
17 0.4
18 0.4
19 0.4
2 -0.57
3 -0.85
4 -0.85
6 0.3
7 -0.15
8 -0.05
9 -0.15

>  <PUBCHEM_EFFECTIVE_ROTOR_COUNT>  (1) 
1

>  <PUBCHEM_PHARMACOPHORE_FEATURES>  (1) 
6
1 2 acceptor
1 3 donor
1 4 donor
3 3 4 10 cation
5 1 5 6 7 8 rings
6 2 5 6 9 11 12 rings

>  <PUBCHEM_HEAVY_ATOM_COUNT>  (1) 
12

>  <PUBCHEM_ATOM_DEF_STEREO_COUNT>  (1) 
0

>  <PUBCHEM_ATOM_UDEF_STEREO_COUNT>  (1) 
0

>  <PUBCHEM_BOND_DEF_STEREO_COUNT>  (1) 
0

>  <PUBCHEM_BOND_UDEF_STEREO_COUNT>  (1) 
0

>  <PUBCHEM_ISOTOPIC_ATOM_COUNT>  (1) 
0

>  <PUBCHEM_COMPONENT_COUNT>  (1) 
1

>  <PUBCHEM_CACTVS_TAUTO_COUNT>  (1) 
1

>  <PUBCHEM_CONFORMER_ID>  (1) 
0000153F00000001

>  <PUBCHEM_MMFF94_ENERGY>  (1) 
27.2635

>  <PUBCHEM_FEATURE_SELFOVERLAP>  (1) 
30.57

>  <PUBCHEM_SHAPE_FINGERPRINT>  (1) 
10219947 1 18342177764844690287
10608611 8 18409444791136983557
10980938 120 18411419527031627410
11132069 177 18341044146881545408
11471102 20 18410288090674583052
11769659 78 18409161091266830899
11806522 49 18265892639314743703
12032990 46 18410580590853610255
12932764 1 17458338598726954131
13380535 76 18337109063860108930
14144814 61 18412545400973442075
14325111 11 18410575093411347009
15442244 35 18123753041235963650
16945 1 18410575076426578694
17844478 74 18040720255516362821
18186145 218 18186800244927112359
193761 8 17546165199377765638
200 152 18130496514280825791
20201158 50 18408886217675933762
20645477 70 18340200804737314079
20871998 22 18054510197567113590
21501502 16 18337956679660635520
21501925 9 18410282631760697778
23402539 116 18341884186803068558
23402655 69 18412820270665154005
23463225 33 18409729543057274284
23552423 10 18333733506953332022
2748010 2 18050291658939183070
3248919 1 17168152260024503091
528886 8 18411695508797933618
63268167 104 18413111653741013353
8809292 202 18260274027116483219

>  <PUBCHEM_SHAPE_MULTIPOLES>  (1) 
235.86
5.81
1.58
0.6
2.16
0.11
0
-0.4
0
-0.1
0
-0.03
0
0

>  <PUBCHEM_SHAPE_SELFOVERLAP>  (1) 
501.889

>  <PUBCHEM_SHAPE_VOLUME>  (1) 
133.7

>  <PUBCHEM_COORDINATE_TYPE>  (1) 
2
5
10

$$$$
