5464
     RDKit          3D

 20 22  0  0  1  0  0  0  0  0999 V2000
    4.1470    0.2993   -0.1949 P   0  0  0  0  0  0  0  0  0  0  0  0
    0.6098   -0.5906   -0.7114 O   0  0  0  0  0  0  0  0  0  0  0  0
    2.8435    0.8574    0.5787 O   0  0  0  0  0  0  0  0  0  0  0  0
    3.5332   -0.8497   -1.1522 O   0  0  0  0  0  0  0  0  0  0  0  0
    4.9625   -0.5119    0.9432 O   0  0  0  0  0  0  0  0  0  0  0  0
    4.9469    1.3537   -0.9023 O   0  0  0  0  0  0  0  0  0  0  0  0
   -1.8386    2.7058   -0.2686 O   0  0  0  0  0  0  0  0  0  0  0  0
   -5.4350   -0.1536   -0.0700 O   0  0  0  0  0  0  0  0  0  0  0  0
   -1.4068    0.4192   -0.0753 N   0  0  0  0  0  0  0  0  0  0  0  0
   -3.6230    1.2685   -0.1679 N   0  0  0  0  0  0  0  0  0  0  0  0
    1.9325   -0.0668    1.1643 C   0  0  0  0  0  0  0  0  0  0  0  0
    1.5457   -1.1873    0.2075 C   0  0  0  0  0  0  0  0  0  0  0  0
    0.6043    0.6361    1.3331 C   0  0  0  0  0  0  0  0  0  0  0  0
    0.0205    0.5540   -0.0720 C   0  0  0  0  0  0  0  0  0  0  0  0
    2.6888   -1.8296   -0.5631 C   0  0  0  0  0  0  0  0  0  0  0  0
   -1.9565   -0.8550    0.0246 C   0  0  0  0  0  0  0  0  0  0  0  0
   -2.2520    1.5480   -0.1769 C   0  0  0  0  0  0  0  0  0  0  0  0
   -3.2689   -1.1190    0.0330 C   0  0  0  0  0  0  0  0  0  0  0  0
   -4.2192    0.0202   -0.0712 C   0  0  0  0  0  0  0  0  0  0  0  0
   -3.8346   -2.4985    0.1413 C   0  0  0  0  0  0  0  0  0  0  0  0
  1  3  1  0
  1  4  1  0
  1  5  1  0
  1  6  2  0
  2 12  1  0
  2 14  1  0
  3 11  1  0
  4 15  1  0
  7 17  2  0
  8 19  2  0
  9 14  1  0
  9 16  1  0
  9 17  1  0
 10 17  1  0
 10 19  1  0
 11 12  1  0
 11 13  1  0
 12 15  1  0
 13 14  1  0
 16 18  2  0
 18 19  1  0
 18 20  1  0
M  END
>  <PUBCHEM_COMPOUND_CID>  (1) 
5464

>  <PUBCHEM_CONFORMER_RMSD>  (1) 
0.6

>  <PUBCHEM_CONFORMER_DIVERSEORDER>  (1) 
3
10
67
38
47
37
21
42
1
54
45
72
49
69
6
66
36
27
63
56
28
58
70
22
12
5
65
9
29
7
52
68
53
43
44
39
17
34
41
32
24
55
40
30
73
26
33
18
14
62
50
71
20
16
23
25
11
60
8
61
31
46
19
4
59
57
35
2
13
15
48
64
51

>  <PUBCHEM_MMFF94_PARTIAL_CHARGES>  (1) 
22
1 1.51
10 -0.49
11 0.28
12 0.28
14 0.58
15 0.28
16 -0.04
17 0.69
18 -0.12
19 0.62
2 -0.56
20 0.14
28 0.15
29 0.37
3 -0.55
30 0.5
4 -0.55
5 -0.77
6 -0.7
7 -0.57
8 -0.57
9 -0.47

>  <PUBCHEM_EFFECTIVE_ROTOR_COUNT>  (1) 
2.2

>  <PUBCHEM_PHARMACOPHORE_FEATURES>  (1) 
9
1 10 donor
1 2 acceptor
1 5 acceptor
1 6 acceptor
1 7 acceptor
1 8 acceptor
5 2 11 12 13 14 rings
6 1 3 4 11 12 15 rings
6 9 10 16 17 18 19 rings

>  <PUBCHEM_HEAVY_ATOM_COUNT>  (1) 
20

>  <PUBCHEM_ATOM_DEF_STEREO_COUNT>  (1) 
0

>  <PUBCHEM_ATOM_UDEF_STEREO_COUNT>  (1) 
3

>  <PUBCHEM_BOND_DEF_STEREO_COUNT>  (1) 
0

>  <PUBCHEM_BOND_UDEF_STEREO_COUNT>  (1) 
0

>  <PUBCHEM_ISOTOPIC_ATOM_COUNT>  (1) 
0

>  <PUBCHEM_COMPONENT_COUNT>  (1) 
1

>  <PUBCHEM_CACTVS_TAUTO_COUNT>  (1) 
3

>  <PUBCHEM_CONFORMER_ID>  (1) 
0000155800000003

>  <PUBCHEM_MMFF94_ENERGY>  (1) 
27.7328

>  <PUBCHEM_FEATURE_SELFOVERLAP>  (1) 
45.951

>  <PUBCHEM_SHAPE_FINGERPRINT>  (1) 
10366900 7 18130779075625844795
10498660 4 18260825947731090429
10616163 171 18411136948312190335
11543360 7 18335426768072121512
11552529 35 17417246675607127759
11615757 297 16845854606965731811
12173636 292 18120369865775408349
12236239 1 17385439917064495323
128620 24 17749108889577731671
14252887 29 16486979492465130918
14289901 80 18334296435737859298
14386348 63 18202563977605200803
15219456 202 18201997694567058831
15788980 27 15574710296272844690
17349148 13 12396294859350874502
17834072 33 18260829323342873556
17834074 16 18344146990265112535
18186145 218 18128829555652656478
19141452 34 18202283637201645263
19784866 140 16916803859492660044
200 152 16917062257531097667
20510252 161 18269552754741741017
20645477 70 17417533510380952558
21079973 296 18411981381557515195
21267235 1 18337114566156216299
22094290 60 18410295787419566065
221490 88 18342183241434817150
23175994 123 17060341846534078049
23402539 116 18114456837974516098
23557571 272 18272097049969883996
23559900 14 18197494030969249326
2871803 45 18411417293464322487
296302 2 17603585252713039598
34797466 226 18129956662155458260
4214541 1 18338797810282162705
4325135 7 18333452066732096332
474 4 17168437063880787876
5104073 3 18270680865918295282
58051976 378 18411416198368767078
7495541 125 18271804666087101152
77779 3 18411420587767217230
9709674 26 18269840830619156839

>  <PUBCHEM_SHAPE_MULTIPOLES>  (1) 
364.39
10.25
2.02
0.94
0.87
0.03
0.14
-0.87
-0.94
-1.4
-0.24
0.84
0.01
0.25

>  <PUBCHEM_SHAPE_SELFOVERLAP>  (1) 
765.736

>  <PUBCHEM_SHAPE_VOLUME>  (1) 
206.2

>  <PUBCHEM_COORDINATE_TYPE>  (1) 
2
5
10

$$$$
