5465
     RDKit          3D

 15 15  0  0  0  0  0  0  0  0999 V2000
    2.0522   -0.4130    0.8233 O   0  0  0  0  0  0  0  0  0  0  0  0
   -2.8041    1.7983   -0.5701 O   0  0  0  0  0  0  0  0  0  0  0  0
    2.4705   -0.8293   -1.4420 O   0  0  0  0  0  0  0  0  0  0  0  0
   -2.7079   -1.0038   -0.0222 C   0  0  0  0  0  0  0  0  0  0  0  0
   -1.5068   -0.1197    0.0502 C   0  0  0  0  0  0  0  0  0  0  0  0
   -1.6073    1.2434   -0.2284 C   0  0  0  0  0  0  0  0  0  0  0  0
   -0.2748   -0.6708    0.4022 C   0  0  0  0  0  0  0  0  0  0  0  0
   -3.0521   -1.6391    1.3374 C   0  0  0  0  0  0  0  0  0  0  0  0
   -2.5652   -2.1018   -1.0924 C   0  0  0  0  0  0  0  0  0  0  0  0
    0.7567    1.5043    0.1970 C   0  0  0  0  0  0  0  0  0  0  0  0
    0.8569    0.1412    0.4756 C   0  0  0  0  0  0  0  0  0  0  0  0
   -0.4755    2.0555   -0.1549 C   0  0  0  0  0  0  0  0  0  0  0  0
    1.9579    2.3881    0.2706 C   0  0  0  0  0  0  0  0  0  0  0  0
    2.8040   -0.8821   -0.2656 C   0  0  0  0  0  0  0  0  0  0  0  0
    4.0956   -1.4709    0.2192 C   0  0  0  0  0  0  0  0  0  0  0  0
  1 11  1  0
  1 14  1  0
  2  6  1  0
  3 14  2  0
  4  5  1  0
  4  8  1  0
  4  9  1  0
  5  6  2  0
  5  7  1  0
  6 12  1  0
  7 11  2  0
 10 11  1  0
 10 12  2  0
 10 13  1  0
 14 15  1  0
M  END
>  <PUBCHEM_COMPOUND_CID>  (1) 
5465

>  <PUBCHEM_CONFORMER_RMSD>  (1) 
0.6

>  <PUBCHEM_CONFORMER_DIVERSEORDER>  (1) 
2
8
3
12
1
6
7
4
5
11
9
10

>  <PUBCHEM_MMFF94_PARTIAL_CHARGES>  (1) 
16
1 -0.23
10 -0.14
11 0.08
12 -0.15
13 0.14
14 0.66
15 0.06
17 0.15
2 -0.53
24 0.15
28 0.45
3 -0.57
4 0.14
5 -0.14
6 0.08
7 -0.15

>  <PUBCHEM_EFFECTIVE_ROTOR_COUNT>  (1) 
3

>  <PUBCHEM_PHARMACOPHORE_FEATURES>  (1) 
4
1 2 donor
1 3 acceptor
3 4 8 9 hydrophobe
6 5 6 7 10 11 12 rings

>  <PUBCHEM_HEAVY_ATOM_COUNT>  (1) 
15

>  <PUBCHEM_ATOM_DEF_STEREO_COUNT>  (1) 
0

>  <PUBCHEM_ATOM_UDEF_STEREO_COUNT>  (1) 
0

>  <PUBCHEM_BOND_DEF_STEREO_COUNT>  (1) 
0

>  <PUBCHEM_BOND_UDEF_STEREO_COUNT>  (1) 
0

>  <PUBCHEM_ISOTOPIC_ATOM_COUNT>  (1) 
0

>  <PUBCHEM_COMPONENT_COUNT>  (1) 
1

>  <PUBCHEM_CACTVS_TAUTO_COUNT>  (1) 
6

>  <PUBCHEM_CONFORMER_ID>  (1) 
0000155900000002

>  <PUBCHEM_MMFF94_ENERGY>  (1) 
44.3529

>  <PUBCHEM_FEATURE_SELFOVERLAP>  (1) 
20.297

>  <PUBCHEM_SHAPE_FINGERPRINT>  (1) 
11206711 2 18260261936909866103
11680986 33 18411127052433227456
12553582 1 18411987987360167382
13083527 12 17835764815546265298
13140716 1 18410576171453764337
13296908 3 18341608205316402114
14115302 16 18042411226948059396
14252887 29 17973453388465225907
14911166 2 18192701263862431021
15219456 202 18342168994864597232
15422964 175 17755029927582386123
161256 15 18265059200399193465
16945 1 18265044726501947729
19766037 51 18041856124063554499
20361792 2 18410294752285195887
20645476 183 17387700396827711809
20645477 70 18194389212032874287
20871998 184 18270683064978447399
20871998 22 18191030203903984371
20871999 31 18335703801736137342
21061003 4 17346597435504316914
21501502 16 18411984697251369956
22213442 358 18413386532090945268
22802520 49 18408887347400012609
2334 1 18336825406829002329
23402539 116 17982714291211385428
23552423 10 18260545657933088673
23557571 272 18270968942934725422
23559900 14 18195238924584588842
2748010 2 18336535110047494381
5493415 88 18411415094810085376
5902787 121 18409161083151370938
7364860 26 18199466752202737984
81228 2 17768537092869573512
8809292 202 18335420119125124434

>  <PUBCHEM_SHAPE_MULTIPOLES>  (1) 
291.09
5.64
2.58
1.01
1.89
0.98
-0.05
-3.57
-0.02
-0.08
-0.21
-0.3
-0.43
0.42

>  <PUBCHEM_SHAPE_SELFOVERLAP>  (1) 
599.399

>  <PUBCHEM_SHAPE_VOLUME>  (1) 
168.2

>  <PUBCHEM_COORDINATE_TYPE>  (1) 
2
5
10

$$$$
