5466
     RDKit          3D

 25 27  0  0  1  0  0  0  0  0999 V2000
    4.6400    0.8854   -1.4828 S   0  0  0  0  0  0  0  0  0  0  0  0
    1.7281   -1.2679    1.8727 S   0  0  0  0  0  0  0  0  0  0  0  0
   -7.2131    1.0451   -0.4937 O   0  0  0  0  0  0  0  0  0  0  0  0
   -5.9416    1.8360    1.2250 O   0  0  0  0  0  0  0  0  0  0  0  0
   -2.5301    0.1429   -0.6564 N   0  0  0  0  0  0  0  0  0  0  0  0
   -4.9854    0.3094   -0.3860 C   0  0  0  0  0  0  0  0  0  0  0  0
   -3.6257    0.9682   -0.1276 C   0  0  0  0  0  0  0  0  0  0  0  0
   -5.0349   -1.1021    0.1957 C   0  0  0  0  0  0  0  0  0  0  0  0
   -3.8458   -1.9204   -0.2952 C   0  0  0  0  0  0  0  0  0  0  0  0
   -2.5259   -1.1913   -0.0405 C   0  0  0  0  0  0  0  0  0  0  0  0
   -1.2430    0.8064   -0.4493 C   0  0  0  0  0  0  0  0  0  0  0  0
   -0.1222    0.0049   -1.1101 C   0  0  0  0  0  0  0  0  0  0  0  0
   -6.0665    1.1497    0.2216 C   0  0  0  0  0  0  0  0  0  0  0  0
    1.2103    0.6859   -0.9240 C   0  0  0  0  0  0  0  0  0  0  0  0
    2.3135    0.2095   -0.3033 C   0  0  0  0  0  0  0  0  0  0  0  0
    3.5011    1.0155   -0.2267 C   0  0  0  0  0  0  0  0  0  0  0  0
    2.2435   -1.1151    0.2616 C   0  0  0  0  0  0  0  0  0  0  0  0
    3.8590    1.9016    0.7437 C   0  0  0  0  0  0  0  0  0  0  0  0
    2.5425   -2.2994   -0.3347 C   0  0  0  0  0  0  0  0  0  0  0  0
    5.1172    2.5040    0.4542 C   0  0  0  0  0  0  0  0  0  0  0  0
    2.3434   -3.3893    0.5610 C   0  0  0  0  0  0  0  0  0  0  0  0
    3.0655    2.2211    1.9566 C   0  0  0  0  0  0  0  0  0  0  0  0
    3.0160   -2.4717   -1.7306 C   0  0  0  0  0  0  0  0  0  0  0  0
    5.6527    2.0413   -0.7276 C   0  0  0  0  0  0  0  0  0  0  0  0
    1.9013   -2.9697    1.7963 C   0  0  0  0  0  0  0  0  0  0  0  0
  1 16  1  0
  1 24  1  0
  2 17  1  0
  2 25  1  0
  3 13  1  0
  4 13  2  0
  5  7  1  0
  5 10  1  0
  5 11  1  0
  6  7  1  0
  6  8  1  0
  6 13  1  0
  8  9  1  0
  9 10  1  0
 11 12  1  0
 12 14  1  0
 14 15  2  3
 15 16  1  0
 15 17  1  0
 16 18  2  0
 17 19  2  0
 18 20  1  0
 18 22  1  0
 19 21  1  0
 19 23  1  0
 20 24  2  0
 21 25  2  0
M  END
>  <PUBCHEM_COMPOUND_CID>  (1) 
5466

>  <PUBCHEM_CONFORMER_RMSD>  (1) 
0.8

>  <PUBCHEM_CONFORMER_DIVERSEORDER>  (1) 
2
165
303
59
248
399
250
43
66
272
120
346
382
366
262
239
321
64
298
273
146
220
138
164
329
128
347
409
247
326
285
193
361
300
334
199
356
278
28
74
162
139
54
150
414
105
93
351
374
137
115
166
267
209
341
276
184
237
81
221
135
291
296
412
136
397
50
309
228
77
400
398
205
89
9
348
387
197
317
357
344
284
243
129
301
389
19
282
125
183
388
245
373
339
171
178
132
40
194
156
174
86
167
158
39
151
402
380
232
216
362
319
208
32
90
294
133
360
172
268
333
246
155
325
188
255
191
381
258
61
411
371
252
375
407
270
111
79
160
386
58
98
31
144
365
331
198
259
15
134
173
195
196
10
202
337
290
226
305
236
406
283
281
200
25
231
342
288
20
299
338
240
131
352
186
368
260
249
53
116
69
201
212
48
308
97
34
359
254
206
126
363
297
55
385
5
140
328
340
401
244
177
29
369
101
289
192
189
364
207
37
275
210
320
224
280
85
121
219
332
91
349
234
92
257
185
279
413
415
176
203
269
307
94
410
45
65
393
292
169
84
109
82
60
242
229
265
227
214
354
3
350
396
62
310
154
8
145
261
395
57
35
72
302
408
215
22
253
311
353
271
345
266
330
148
403
170
56
225
286
313
223
1
355
67
47
263
277
13
405
68
230
153
377
384
314
390
241
33
293
204
327
104
27
99
87
372
49
238
142
218
295
416
378
100
318
143
103
394
323
256
83
187
343
181
159
315
235
78
6
324
118
41
73
379
179
336
117
180
370
122
23
274
316
376
190
213
42
30
251
304
147
114
367
14
119
391
211
18
17
404
335
44
149
63
7
163
51
4
110
108
161
233
392
127
80
157
217
141
175
106
76
287
130
124
16
102
38
322
52
182
112
123
26
152
383
88
306
358
113
264
95
11
71
107
46
168
12
222
312
70
96
21
75
36
24

>  <PUBCHEM_MMFF94_PARTIAL_CHARGES>  (1) 
29
1 -0.08
10 0.27
11 0.27
12 0.14
13 0.66
14 -0.29
15 0.09
16 -0.01
17 -0.01
18 -0.18
19 -0.18
2 -0.08
20 -0.15
21 -0.15
22 0.18
23 0.18
24 -0.11
25 -0.11
3 -0.65
39 0.15
4 -0.57
40 0.5
41 0.15
42 0.15
49 0.15
5 -0.81
50 0.15
6 0.06
7 0.27

>  <PUBCHEM_EFFECTIVE_ROTOR_COUNT>  (1) 
7.2

>  <PUBCHEM_PHARMACOPHORE_FEATURES>  (1) 
7
1 3 acceptor
1 4 acceptor
1 5 cation
3 3 4 13 anion
5 1 16 18 20 24 rings
5 2 17 19 21 25 rings
6 5 6 7 8 9 10 rings

>  <PUBCHEM_HEAVY_ATOM_COUNT>  (1) 
25

>  <PUBCHEM_ATOM_DEF_STEREO_COUNT>  (1) 
0

>  <PUBCHEM_ATOM_UDEF_STEREO_COUNT>  (1) 
1

>  <PUBCHEM_BOND_DEF_STEREO_COUNT>  (1) 
0

>  <PUBCHEM_BOND_UDEF_STEREO_COUNT>  (1) 
0

>  <PUBCHEM_ISOTOPIC_ATOM_COUNT>  (1) 
0

>  <PUBCHEM_COMPONENT_COUNT>  (1) 
1

>  <PUBCHEM_CACTVS_TAUTO_COUNT>  (1) 
1

>  <PUBCHEM_CONFORMER_ID>  (1) 
0000155A00000002

>  <PUBCHEM_MMFF94_ENERGY>  (1) 
44.7765

>  <PUBCHEM_FEATURE_SELFOVERLAP>  (1) 
35.577

>  <PUBCHEM_SHAPE_FINGERPRINT>  (1) 
10906281 52 17604162517887592764
11488393 25 18270417018279333126
12107183 9 17762057636576827185
12596602 18 18341900697221726963
12730499 353 18336273396251950258
12788726 201 17489314031999906881
13073987 5 18409171000763646083
13533116 47 18339359661356829043
13631057 29 18194118753816134727
13878862 14 18195505040278448413
13955234 65 18335136436962927002
14114206 34 15338575893753576171
14118638 360 18409163338537072703
14347329 18 16414930642880515009
14461889 52 17967821591329257363
14790565 3 18118408585981595924
14863182 85 17749113292272924086
15142526 21 18125711529307205264
15238133 3 17202762588349105043
15475509 84 18125434207474199064
17980427 23 16516815942859645078
1813 80 16226054362444981423
20511986 3 18338504310103756023
20567600 347 18114179770198857722
20600515 1 17329407464894671114
21033648 29 17916859256824475552
21421861 104 18187639150919123818
22224240 67 18187922941157883644
22956985 138 17532631470441449402
23559900 14 17987801796043395431
239999 70 18411703145366298398
268830 7 18342732975984553621
300161 21 18407755946151669605
3411729 13 18410572890462415438
34934 24 18412261765812824103
4073 2 18334302002279420251
427121 178 18187361069515202818
4340502 62 18186522111371589354
5104073 3 18335706023036271371
59755656 215 18412552011434656156
59755656 520 18116425029035580182
633830 44 18128527353111417876
6442390 28 18265048214537449542
9658208 31 18194687188605777598

>  <PUBCHEM_SHAPE_MULTIPOLES>  (1) 
505.47
14.84
3.41
1.55
23.86
2.25
0.43
-10.33
-0.58
-3.83
1
-1.66
0.27
-0.14

>  <PUBCHEM_SHAPE_SELFOVERLAP>  (1) 
1043.39

>  <PUBCHEM_SHAPE_VOLUME>  (1) 
293

>  <PUBCHEM_COORDINATE_TYPE>  (1) 
2
5
10

$$$$
