5469
     RDKit          3D

 23 25  0  0  0  0  0  0  0  0999 V2000
   -2.4965    4.1773    0.0396 Cl  0  0  0  0  0  0  0  0  0  0  0  0
   -4.4210   -1.7623   -0.0200 S   0  0  0  0  0  0  0  0  0  0  0  0
   -0.4672   -1.1669   -1.4118 O   0  0  0  0  0  0  0  0  0  0  0  0
    7.3366    1.6388    0.6351 O   0  0  0  0  0  0  0  0  0  0  0  0
   -2.3849   -3.3069    0.6473 O   0  0  0  0  0  0  0  0  0  0  0  0
    4.2869   -0.1993   -0.3164 N   0  0  0  0  0  0  0  0  0  0  0  0
    1.5423   -1.0187   -0.2564 N   0  0  0  0  0  0  0  0  0  0  0  0
   -1.9914   -0.9812    0.5749 N   0  0  0  0  0  0  0  0  0  0  0  0
    3.4387    0.1241    0.8403 C   0  0  0  0  0  0  0  0  0  0  0  0
    3.4876   -0.2204   -1.5501 C   0  0  0  0  0  0  0  0  0  0  0  0
    2.3045   -0.8916    0.9893 C   0  0  0  0  0  0  0  0  0  0  0  0
    2.3598   -1.2465   -1.4470 C   0  0  0  0  0  0  0  0  0  0  0  0
    5.3849    0.7596   -0.4321 C   0  0  0  0  0  0  0  0  0  0  0  0
    0.1519   -1.0593   -0.3502 C   0  0  0  0  0  0  0  0  0  0  0  0
   -0.6144   -0.9582    0.9445 C   0  0  0  0  0  0  0  0  0  0  0  0
    6.2766    0.7057    0.7981 C   0  0  0  0  0  0  0  0  0  0  0  0
   -2.7265    0.2057    0.2853 C   0  0  0  0  0  0  0  0  0  0  0  0
   -4.0584   -0.0299   -0.0555 C   0  0  0  0  0  0  0  0  0  0  0  0
   -2.7536   -2.1568    0.4597 C   0  0  0  0  0  0  0  0  0  0  0  0
   -2.2271    1.5022    0.3201 C   0  0  0  0  0  0  0  0  0  0  0  0
   -4.9192    1.0108   -0.3675 C   0  0  0  0  0  0  0  0  0  0  0  0
   -3.0861    2.5590    0.0072 C   0  0  0  0  0  0  0  0  0  0  0  0
   -4.4234    2.3149   -0.3344 C   0  0  0  0  0  0  0  0  0  0  0  0
  1 22  1  0
  2 18  1  0
  2 19  1  0
  3 14  2  0
  4 16  1  0
  5 19  2  0
  6  9  1  0
  6 10  1  0
  6 13  1  0
  7 11  1  0
  7 12  1  0
  7 14  1  0
  8 15  1  0
  8 17  1  0
  8 19  1  0
  9 11  1  0
 10 12  1  0
 13 16  1  0
 14 15  1  0
 17 18  2  0
 17 20  1  0
 18 21  1  0
 20 22  2  0
 21 23  2  0
 22 23  1  0
M  END
>  <PUBCHEM_COMPOUND_CID>  (1) 
5469

>  <PUBCHEM_CONFORMER_RMSD>  (1) 
0.8

>  <PUBCHEM_CONFORMER_DIVERSEORDER>  (1) 
1
72
44
41
26
76
79
62
34
52
23
56
68
57
19
18
66
71
58
29
49
16
3
46
9
77
27
67
12
21
32
13
48
51
59
78
24
40
43
33
17
70
75
63
15
22
25
28
60
69
42
54
35
50
37
74
14
8
7
39
55
5
61
30
6
38
53
10
47
4
11
64
36
20
73
31
45
2
65

>  <PUBCHEM_MMFF94_PARTIAL_CHARGES>  (1) 
27
1 -0.18
10 0.27
11 0.3
12 0.3
13 0.27
14 0.57
15 0.36
16 0.28
17 0.12
18 0.1
19 0.77
2 -0.24
20 -0.15
21 -0.15
22 0.18
23 -0.15
3 -0.57
38 0.15
39 0.15
4 -0.68
40 0.4
41 0.15
5 -0.57
6 -0.81
7 -0.66
8 -0.48
9 0.27

>  <PUBCHEM_EFFECTIVE_ROTOR_COUNT>  (1) 
6.2

>  <PUBCHEM_PHARMACOPHORE_FEATURES>  (1) 
7
1 3 acceptor
1 4 acceptor
1 4 donor
1 6 cation
5 2 8 17 18 19 rings
6 17 18 20 21 22 23 rings
6 6 7 9 10 11 12 rings

>  <PUBCHEM_HEAVY_ATOM_COUNT>  (1) 
23

>  <PUBCHEM_ATOM_DEF_STEREO_COUNT>  (1) 
0

>  <PUBCHEM_ATOM_UDEF_STEREO_COUNT>  (1) 
0

>  <PUBCHEM_BOND_DEF_STEREO_COUNT>  (1) 
0

>  <PUBCHEM_BOND_UDEF_STEREO_COUNT>  (1) 
0

>  <PUBCHEM_ISOTOPIC_ATOM_COUNT>  (1) 
0

>  <PUBCHEM_COMPONENT_COUNT>  (1) 
1

>  <PUBCHEM_CACTVS_TAUTO_COUNT>  (1) 
1

>  <PUBCHEM_CONFORMER_ID>  (1) 
0000155D00000001

>  <PUBCHEM_MMFF94_ENERGY>  (1) 
49.3696

>  <PUBCHEM_FEATURE_SELFOVERLAP>  (1) 
35.583

>  <PUBCHEM_SHAPE_FINGERPRINT>  (1) 
10087517 78 18335698364587544036
10291535 26 18409731768256561241
10411042 1 17904483261976385323
10498660 4 18340209578959704649
10937287 8 17833835963257048081
11315181 36 17676767686191395146
12107183 9 17828754046245919986
12173636 292 18265052440811623391
12236239 1 17603302674330810090
12596602 18 17022910072430281816
12616971 3 16370730348521738398
12633257 1 16225770739947575182
12788726 201 17389411464718231891
13402501 40 18273209807435348856
13403585 85 18409729603381982314
13583140 156 18202282528551657994
13911987 19 16845573119082903342
13965767 371 17246682447250906325
14251764 30 11383243376181929709
14251764 75 17693945094560563057
14508225 48 18053089903696312271
14739800 52 18336814326324906848
14790565 3 17550113559173315193
14844126 61 18116155661076643379
15209294 21 17894912914855880798
15463212 79 18187927236151514683
155225 5 18339079268465165568
15961568 22 18411136939759367740
16988056 13 15667583466823665501
17980427 23 18187086186590566854
19489759 90 18335139821180715674
20511986 3 17677035872148849969
20645477 70 16916516848129597238
21033650 10 18190486916542965502
21315763 129 18338797922605635008
21403212 168 11242241906804984421
22956985 138 16964363535284057811
23227448 37 18410295830490720989
235170 7 17632303324004736893
23557571 272 18341335569129244019
23559900 14 18055073147035524110
26918003 58 12179839511544558014
2838139 119 18343574141034812964
2916195 48 18342735269597147544
341906 21 18335703823516961172
3633792 109 17314208034927382007
441001 317 18410293609828812632
445580 37 18335149717407676276
469060 322 18190769529960427587
5104073 3 18187369770375504099
5969126 39 18199461250766636327
7808743 9 18337389340324731393
8863177 126 10665239159213840068
9849439 229 17976257933411895601
9981440 41 18260554394239733715

>  <PUBCHEM_SHAPE_MULTIPOLES>  (1) 
446.5
13.71
3.37
1.11
22.22
2.28
-0.25
6.85
0.98
-5.11
0.3
1
-0.29
1.03

>  <PUBCHEM_SHAPE_SELFOVERLAP>  (1) 
921.187

>  <PUBCHEM_SHAPE_VOLUME>  (1) 
258.6

>  <PUBCHEM_COORDINATE_TYPE>  (1) 
2
5
10

$$$$
