5473
     RDKit          3D

 22 24  0  0  1  0  0  0  0  0999 V2000
    3.8948    0.9396   -0.5154 S   0  0  0  0  0  0  0  0  0  0  0  0
   -5.1671   -0.2649    0.9558 O   0  0  0  0  0  0  0  0  0  0  0  0
    1.3253    0.4556   -2.0532 O   0  0  0  0  0  0  0  0  0  0  0  0
   -2.7573    0.5262   -0.4248 N   0  0  0  0  0  0  0  0  0  0  0  0
   -1.3939    0.0191   -0.9058 C   0  0  0  0  0  0  0  0  0  0  0  0
   -2.8293    0.3601    1.0974 C   0  0  0  0  0  0  0  0  0  0  0  0
   -3.8521   -0.3237   -1.0796 C   0  0  0  0  0  0  0  0  0  0  0  0
   -0.2461    0.8071   -0.2638 C   0  0  0  0  0  0  0  0  0  0  0  0
   -2.8689    1.9937   -0.8334 C   0  0  0  0  0  0  0  0  0  0  0  0
   -4.2430    0.6094    1.5994 C   0  0  0  0  0  0  0  0  0  0  0  0
   -5.2062   -0.0345   -0.4506 C   0  0  0  0  0  0  0  0  0  0  0  0
    1.2010    0.3521   -0.6260 C   0  0  0  0  0  0  0  0  0  0  0  0
    1.4376   -1.0941   -0.1708 C   0  0  0  0  0  0  0  0  0  0  0  0
    2.3098    1.2773   -0.0718 C   0  0  0  0  0  0  0  0  0  0  0  0
    1.4598   -1.3605    1.1769 C   0  0  0  0  0  0  0  0  0  0  0  0
    1.6165   -2.0614   -1.1300 C   0  0  0  0  0  0  0  0  0  0  0  0
    2.1313    2.3290    0.7338 C   0  0  0  0  0  0  0  0  0  0  0  0
    3.3892    2.9296    1.0288 C   0  0  0  0  0  0  0  0  0  0  0  0
    1.6746   -2.6752    1.5909 C   0  0  0  0  0  0  0  0  0  0  0  0
    1.8311   -3.3759   -0.7159 C   0  0  0  0  0  0  0  0  0  0  0  0
    4.4327    2.2738    0.4135 C   0  0  0  0  0  0  0  0  0  0  0  0
    1.8602   -3.6828    0.6446 C   0  0  0  0  0  0  0  0  0  0  0  0
  1 14  1  0
  1 21  1  0
  2 10  1  0
  2 11  1  0
  3 12  1  0
  4  5  1  0
  4  6  1  0
  4  7  1  0
  4  9  1  0
  5  8  1  0
  6 10  1  0
  7 11  1  0
  8 12  1  0
 12 13  1  0
 12 14  1  0
 13 15  2  0
 13 16  1  0
 14 17  2  0
 15 19  1  0
 16 20  2  0
 17 18  1  0
 18 21  2  0
 19 22  2  0
 20 22  1  0
M  CHG  1   4   1
M  END
>  <PUBCHEM_COMPOUND_CID>  (1) 
5473

>  <PUBCHEM_CONFORMER_RMSD>  (1) 
0.8

>  <PUBCHEM_CONFORMER_DIVERSEORDER>  (1) 
1
15
38
33
24
2
39
32
6
4
30
3
40
5
12
13
22
34
21
35
14
10
37
20
8
29
16
7
31
9
23
11
36
19
18
27
25
17
28
26

>  <PUBCHEM_MMFF94_PARTIAL_CHARGES>  (1) 
30
1 -0.08
10 0.28
11 0.28
12 0.6
13 -0.14
14 -0.14
15 -0.15
16 -0.15
17 -0.15
18 -0.15
19 -0.15
2 -0.56
20 -0.15
21 -0.11
22 -0.15
3 -0.68
38 0.4
39 0.15
4 -1.01
40 0.15
41 0.15
42 0.15
43 0.15
44 0.15
45 0.15
46 0.15
5 0.5
6 0.5
7 0.5
9 0.5

>  <PUBCHEM_EFFECTIVE_ROTOR_COUNT>  (1) 
6.2

>  <PUBCHEM_PHARMACOPHORE_FEATURES>  (1) 
7
1 2 acceptor
1 3 acceptor
1 3 donor
1 4 cation
5 1 14 17 18 21 rings
6 13 15 16 19 20 22 rings
6 2 4 6 7 10 11 rings

>  <PUBCHEM_HEAVY_ATOM_COUNT>  (1) 
22

>  <PUBCHEM_ATOM_DEF_STEREO_COUNT>  (1) 
0

>  <PUBCHEM_ATOM_UDEF_STEREO_COUNT>  (1) 
1

>  <PUBCHEM_BOND_DEF_STEREO_COUNT>  (1) 
0

>  <PUBCHEM_BOND_UDEF_STEREO_COUNT>  (1) 
0

>  <PUBCHEM_ISOTOPIC_ATOM_COUNT>  (1) 
0

>  <PUBCHEM_COMPONENT_COUNT>  (1) 
1

>  <PUBCHEM_CACTVS_TAUTO_COUNT>  (1) 
1

>  <PUBCHEM_CONFORMER_ID>  (1) 
0000156100000001

>  <PUBCHEM_MMFF94_ENERGY>  (1) 
69.2256

>  <PUBCHEM_FEATURE_SELFOVERLAP>  (1) 
35.522

>  <PUBCHEM_SHAPE_FINGERPRINT>  (1) 
10090160 65 18339072812922954837
10366900 7 18335146409750296521
10382601 240 18341618113436753860
10692045 39 17988346145242005272
11421498 54 17560812017035875416
11578080 2 17606392155812664060
12532896 13 18195236957114559598
12549972 3 17751645351593057873
12553582 1 17981892934403297023
12596602 18 17917165991373986979
12644460 14 18342176639621332919
12707595 3 18120656825261942199
12788726 201 16966046316191774674
13009979 54 17058380163102886762
13140716 1 18338795727634558930
13533116 47 18337397042013028123
13583140 156 18411412878707506053
14178342 30 18191318263171158627
14223421 5 18335419015524621397
14251757 5 17256536218734453812
14347424 109 18267313041398433361
14863182 85 18114191855603592270
14955137 171 18268133276840833722
15142526 21 17914047857211091873
15338160 23 17257080997151666456
15927050 60 18339355401161390726
17134984 74 17981296171127267111
1813 80 17628364770570759838
204376 136 18265051512534431612
20567600 347 18334573585608857610
20600515 1 17477469916503813056
20603629 256 18339085886818812531
20645477 70 18335973169764660079
20681651 13 18272646853718975735
21049683 118 17839149129469047968
21054139 6 18126553751156211999
21120745 212 17404031319125225622
21421861 104 18269282270005988425
21524375 3 18270675510458066820
21731228 192 18265049326685942536
21796203 349 17977973205452146323
22224240 67 18265892638898109777
22956985 138 17605257503116088346
23419403 2 17623339113615978270
23557571 272 16950555528954216813
23558518 356 17475779322913603332
23559900 14 17677053430460329487
298252 57 16916225623561059708
33824 294 18408885148355586631
394222 165 18131350829840294842
427121 178 18336551620054449256
4340502 62 18337396045269521859
458136 41 18409173224892138692
469060 322 17606660681700269559
474 4 18199470037546985081
58807428 26 18337942515280337272
5895379 119 17057258635224890641
59755656 215 18260546710226281333
59755656 520 18266730475976020860
621550 34 18334856134543904013
633830 44 18059014003046868508
6442390 28 18266463298486307554
6669772 16 18412828019366495694
7288768 16 17411875655198812672
7364860 26 18339920424823971110
81228 2 17398374812551220796
9841814 1 18193837046278083426
9999458 23 18410009970663709124

>  <PUBCHEM_SHAPE_MULTIPOLES>  (1) 
439.88
9.07
3.74
1.5
11.58
2.79
0.1
-4.52
1.35
-5.55
0.86
0.35
0.25
0.32

>  <PUBCHEM_SHAPE_SELFOVERLAP>  (1) 
916.183

>  <PUBCHEM_SHAPE_VOLUME>  (1) 
252.6

>  <PUBCHEM_COORDINATE_TYPE>  (1) 
2
5
10

$$$$
