5476
     RDKit          3D

 21 23  0  0  1  0  0  0  0  0999 V2000
   -2.8813   -1.1282    1.4139 S   0  0  0  0  0  0  0  0  0  0  0  0
   -0.8294    2.3182   -1.5007 S   0  0  0  0  0  0  0  0  0  0  0  0
    3.8553    0.9915    0.2188 O   0  0  0  0  0  0  0  0  0  0  0  0
    1.8392   -2.1685   -0.1335 N   0  0  0  0  0  0  0  0  0  0  0  0
    3.0470   -1.2526    0.1025 C   0  0  0  0  0  0  0  0  0  0  0  0
    0.6401   -1.6853    0.7058 C   0  0  0  0  0  0  0  0  0  0  0  0
    2.7056    0.2207   -0.1273 C   0  0  0  0  0  0  0  0  0  0  0  0
    1.5212    0.6844    0.7235 C   0  0  0  0  0  0  0  0  0  0  0  0
    0.3402   -0.2228    0.5345 C   0  0  0  0  0  0  0  0  0  0  0  0
    2.2092   -3.5860    0.3084 C   0  0  0  0  0  0  0  0  0  0  0  0
    1.4707   -2.2228   -1.6160 C   0  0  0  0  0  0  0  0  0  0  0  0
   -0.8793    0.2313    0.2138 C   0  0  0  0  0  0  0  0  0  0  0  0
   -1.9510   -0.7253    0.0543 C   0  0  0  0  0  0  0  0  0  0  0  0
   -1.0612    1.6550    0.0431 C   0  0  0  0  0  0  0  0  0  0  0  0
    3.6406    2.3759   -0.0133 C   0  0  0  0  0  0  0  0  0  0  0  0
   -2.3225   -1.3661   -1.0823 C   0  0  0  0  0  0  0  0  0  0  0  0
   -1.4052    2.5624    0.9912 C   0  0  0  0  0  0  0  0  0  0  0  0
   -3.4256   -2.2347   -0.8398 C   0  0  0  0  0  0  0  0  0  0  0  0
   -1.4866    3.8723    0.4366 C   0  0  0  0  0  0  0  0  0  0  0  0
   -3.8298   -2.2024    0.4767 C   0  0  0  0  0  0  0  0  0  0  0  0
   -1.1973    3.8829   -0.9101 C   0  0  0  0  0  0  0  0  0  0  0  0
  1 13  1  0
  1 20  1  0
  2 14  1  0
  2 21  1  0
  3  7  1  0
  3 15  1  0
  4  5  1  0
  4  6  1  0
  4 10  1  0
  4 11  1  0
  5  7  1  0
  6  9  1  0
  7  8  1  0
  8  9  1  0
  9 12  2  3
 12 13  1  0
 12 14  1  0
 13 16  2  0
 14 17  2  0
 16 18  1  0
 17 19  1  0
 18 20  2  0
 19 21  2  0
M  CHG  1   4   1
M  END
>  <PUBCHEM_COMPOUND_CID>  (1) 
5476

>  <PUBCHEM_CONFORMER_RMSD>  (1) 
0.6

>  <PUBCHEM_CONFORMER_DIVERSEORDER>  (1) 
3
11
16
42
27
47
10
45
17
43
8
44
21
40
20
46
29
15
23
39
41
35
36
22
28
19
14
24
30
25
13
38
12
18
34
26
1
37
2
7
31
33
9
6
32
5
4

>  <PUBCHEM_MMFF94_PARTIAL_CHARGES>  (1) 
27
1 -0.08
10 0.5
11 0.5
12 0.09
13 -0.01
14 -0.01
15 0.28
16 -0.15
17 -0.15
18 -0.15
19 -0.15
2 -0.08
20 -0.11
21 -0.11
3 -0.56
38 0.15
39 0.15
4 -1.01
40 0.15
41 0.15
42 0.15
43 0.15
5 0.5
6 0.64
7 0.28
8 0.14
9 -0.28

>  <PUBCHEM_EFFECTIVE_ROTOR_COUNT>  (1) 
4

>  <PUBCHEM_PHARMACOPHORE_FEATURES>  (1) 
5
1 3 acceptor
1 4 cation
5 1 13 16 18 20 rings
5 2 14 17 19 21 rings
6 4 5 6 7 8 9 rings

>  <PUBCHEM_HEAVY_ATOM_COUNT>  (1) 
21

>  <PUBCHEM_ATOM_DEF_STEREO_COUNT>  (1) 
0

>  <PUBCHEM_ATOM_UDEF_STEREO_COUNT>  (1) 
1

>  <PUBCHEM_BOND_DEF_STEREO_COUNT>  (1) 
0

>  <PUBCHEM_BOND_UDEF_STEREO_COUNT>  (1) 
0

>  <PUBCHEM_ISOTOPIC_ATOM_COUNT>  (1) 
0

>  <PUBCHEM_COMPONENT_COUNT>  (1) 
1

>  <PUBCHEM_CACTVS_TAUTO_COUNT>  (1) 
1

>  <PUBCHEM_CONFORMER_ID>  (1) 
0000156400000003

>  <PUBCHEM_MMFF94_ENERGY>  (1) 
65.5292

>  <PUBCHEM_FEATURE_SELFOVERLAP>  (1) 
25.373

>  <PUBCHEM_SHAPE_FINGERPRINT>  (1) 
10670039 82 18261689164029671460
10675989 125 18118384182546872175
12403259 226 18341326773621829896
12553582 1 18340204214783000379
12788726 201 18193257625625832723
13004483 165 18410568453882842899
13132413 78 18268999846353298697
13140716 1 18337395946401209547
13149001 5 17837209273182616430
13681431 1 18117845614821778341
13911987 19 18045501073855138524
13965767 371 17482601517896680329
14178342 30 18266725893118977978
14223421 5 18410856521206636536
14790565 3 18050578631401134713
14955137 171 17978249466406318835
15664445 248 18197240223828760917
16945 1 18411417323819283026
17492 54 17828765388927448700
1813 80 18196953260047142045
20344682 6 18339079418735110594
20600515 1 17386293210822544745
20739085 24 18120109513347775593
21285901 2 18200021834261006519
21421861 104 18262519191137254811
21501502 16 18337391513815241442
21524375 3 17396988959616951457
2255824 54 17835242625143706027
23402539 116 18267300009792325888
23419403 2 14215933870197173275
23557571 272 18408044004638018326
23558518 356 18188212000919894432
23559900 14 18338502042071029098
2748010 2 18123162844232127737
283562 15 18410572929001323576
3060560 45 17907281501344919095
3250762 1 18267302028236934046
34934 24 18411984680672562923
350125 39 18338804403473667680
589210 1 18266740190627268912
59554788 170 18342469165886760038
6443956 14 18266739271926449141
70251023 43 18340198592703003959
74978 22 17978507538274778618
7832392 63 17977946787555888842
81228 2 18261393287320215369
9709674 26 18197494026257265014
9981440 41 17123046925825438736

>  <PUBCHEM_SHAPE_MULTIPOLES>  (1) 
429.02
5.73
5.04
1.25
1.65
3.11
-0.27
-2.64
0.37
-0.91
-0.62
-0.55
-0.03
0.17

>  <PUBCHEM_SHAPE_SELFOVERLAP>  (1) 
885.899

>  <PUBCHEM_SHAPE_VOLUME>  (1) 
250.3

>  <PUBCHEM_COORDINATE_TYPE>  (1) 
2
5
10

$$$$
