5483
     RDKit          3D

 10  9  0  0  1  0  0  0  0  0999 V2000
   -2.2092    1.8631    0.0564 S   0  0  0  0  0  0  0  0  0  0  0  0
   -0.7560   -1.0461    1.1325 O   0  0  0  0  0  0  0  0  0  0  0  0
    1.7837    1.3223    0.2937 O   0  0  0  0  0  0  0  0  0  0  0  0
    3.5634   -0.0848    0.2972 O   0  0  0  0  0  0  0  0  0  0  0  0
    0.1587   -0.3500   -0.8835 N   0  0  0  0  0  0  0  0  0  0  0  0
   -2.1766    0.1109   -0.4461 C   0  0  0  0  0  0  0  0  0  0  0  0
   -0.8661   -0.4894    0.0418 C   0  0  0  0  0  0  0  0  0  0  0  0
   -3.3813   -0.6134    0.1399 C   0  0  0  0  0  0  0  0  0  0  0  0
    1.4911   -0.8575   -0.6531 C   0  0  0  0  0  0  0  0  0  0  0  0
    2.3923    0.1448    0.0211 C   0  0  0  0  0  0  0  0  0  0  0  0
  1  6  1  0
  2  7  2  0
  3 10  1  0
  4 10  2  0
  5  7  1  0
  5  9  1  0
  6  7  1  0
  6  8  1  0
  9 10  1  0
M  END
>  <PUBCHEM_COMPOUND_CID>  (1) 
5483

>  <PUBCHEM_CONFORMER_RMSD>  (1) 
0.6

>  <PUBCHEM_CONFORMER_DIVERSEORDER>  (1) 
7
34
14
31
36
29
3
26
27
35
21
32
18
16
38
28
17
5
10
8
9
19
37
23
13
25
11
24
15
6
33
4
12
2
22
1
20
30

>  <PUBCHEM_MMFF94_PARTIAL_CHARGES>  (1) 
12
1 -0.41
10 0.66
12 0.37
18 0.18
19 0.5
2 -0.57
3 -0.65
4 -0.57
5 -0.73
6 0.29
7 0.57
9 0.36

>  <PUBCHEM_EFFECTIVE_ROTOR_COUNT>  (1) 
4

>  <PUBCHEM_PHARMACOPHORE_FEATURES>  (1) 
5
1 2 acceptor
1 3 acceptor
1 4 acceptor
1 5 donor
3 3 4 10 anion

>  <PUBCHEM_HEAVY_ATOM_COUNT>  (1) 
10

>  <PUBCHEM_ATOM_DEF_STEREO_COUNT>  (1) 
0

>  <PUBCHEM_ATOM_UDEF_STEREO_COUNT>  (1) 
1

>  <PUBCHEM_BOND_DEF_STEREO_COUNT>  (1) 
0

>  <PUBCHEM_BOND_UDEF_STEREO_COUNT>  (1) 
0

>  <PUBCHEM_ISOTOPIC_ATOM_COUNT>  (1) 
0

>  <PUBCHEM_COMPONENT_COUNT>  (1) 
1

>  <PUBCHEM_CACTVS_TAUTO_COUNT>  (1) 
2

>  <PUBCHEM_CONFORMER_ID>  (1) 
0000156B00000007

>  <PUBCHEM_MMFF94_ENERGY>  (1) 
13.0467

>  <PUBCHEM_FEATURE_SELFOVERLAP>  (1) 
25.43

>  <PUBCHEM_SHAPE_FINGERPRINT>  (1) 
11062470 55 12247681582001030946
12162725 195 18410011039514356076
12897270 3 18131066035059404253
12932764 1 17632850919344572934
14325111 11 18410573955091954924
14390081 3 18341894052406276789
15310529 11 17917427588640580167
15775835 57 18042687204430122761
17834069 15 18043243544391718428
18342897 137 12251904793631981289
19973954 147 18342181029151931445
20201158 50 18413671309412190371
20653085 51 18129393600490422321
21028194 46 18413670218553943636
23402539 116 18339349842935230551
305870 269 18043528305034254419
3248919 1 17749401350933261470
369184 2 18335137609335640799
5084963 1 17749108881035237575
57812782 119 18412259536582352863

>  <PUBCHEM_SHAPE_MULTIPOLES>  (1) 
187.06
5.23
1.42
0.84
1.4
0.7
0.03
0.41
0.35
-0.74
0.1
-0.05
-0.15
0.27

>  <PUBCHEM_SHAPE_SELFOVERLAP>  (1) 
344.369

>  <PUBCHEM_SHAPE_VOLUME>  (1) 
119.5

>  <PUBCHEM_COORDINATE_TYPE>  (1) 
2
5
10

$$$$
