5488
     RDKit          3D

 20 22  0  0  0  0  0  0  0  0999 V2000
    2.6253   -2.1135   -0.1354 O   0  0  0  0  0  0  0  0  0  0  0  0
   -3.8547   -1.8416   -0.1123 N   0  0  0  0  0  0  0  0  0  0  0  0
    0.2596   -0.7408   -0.0824 N   0  0  0  0  0  0  0  0  0  0  0  0
    1.4601   -0.1147   -0.0516 N   0  0  0  0  0  0  0  0  0  0  0  0
    6.2772    1.2478    0.0823 N   0  0  0  0  0  0  0  0  0  0  0  0
   -3.3437    0.3253    0.0318 C   0  0  0  0  0  0  0  0  0  0  0  0
   -4.4037   -0.5825   -0.0188 C   0  0  0  0  0  0  0  0  0  0  0  0
   -2.1412   -0.4327   -0.0347 C   0  0  0  0  0  0  0  0  0  0  0  0
   -2.4881   -1.7612   -0.1227 C   0  0  0  0  0  0  0  0  0  0  0  0
   -3.6330    1.7008    0.1303 C   0  0  0  0  0  0  0  0  0  0  0  0
   -5.7439   -0.1820    0.0245 C   0  0  0  0  0  0  0  0  0  0  0  0
   -4.9688    2.1162    0.1747 C   0  0  0  0  0  0  0  0  0  0  0  0
   -6.0064    1.1875    0.1224 C   0  0  0  0  0  0  0  0  0  0  0  0
   -0.7888    0.0484   -0.0165 C   0  0  0  0  0  0  0  0  0  0  0  0
    3.8899   -0.1397   -0.0236 C   0  0  0  0  0  0  0  0  0  0  0  0
    2.6066   -0.8863   -0.0819 C   0  0  0  0  0  0  0  0  0  0  0  0
    4.9987   -0.7611    0.5000 C   0  0  0  0  0  0  0  0  0  0  0  0
    3.9318    1.1505   -0.4961 C   0  0  0  0  0  0  0  0  0  0  0  0
    6.1710   -0.0232    0.5307 C   0  0  0  0  0  0  0  0  0  0  0  0
    5.1518    1.8029   -0.4208 C   0  0  0  0  0  0  0  0  0  0  0  0
  1 16  2  0
  2  7  1  0
  2  9  1  0
  3  4  1  0
  3 14  2  0
  4 16  1  0
  5 19  2  0
  5 20  1  0
  6  7  2  0
  6  8  1  0
  6 10  1  0
  7 11  1  0
  8  9  2  0
  8 14  1  0
 10 12  2  0
 11 13  2  0
 12 13  1  0
 15 16  1  0
 15 17  2  0
 15 18  1  0
 17 19  1  0
 18 20  2  0
M  END
>  <PUBCHEM_COMPOUND_CID>  (1) 
5488

>  <PUBCHEM_CONFORMER_RMSD>  (1) 
0.6

>  <PUBCHEM_CONFORMER_DIVERSEORDER>  (1) 
1
3
9
8
10
6
7
5
4
2

>  <PUBCHEM_MMFF94_PARTIAL_CHARGES>  (1) 
31
1 -0.57
10 -0.15
11 -0.15
12 -0.15
13 -0.15
14 0.48
15 0.09
16 0.54
17 -0.15
18 -0.15
19 0.16
2 0.03
20 0.16
21 0.27
22 0.15
23 0.15
24 0.15
25 0.15
26 0.15
27 0.06
28 0.37
29 0.15
3 -0.51
30 0.15
31 0.15
32 0.15
4 -0.37
5 -0.62
7 -0.15
8 -0.09
9 -0.3

>  <PUBCHEM_EFFECTIVE_ROTOR_COUNT>  (1) 
4

>  <PUBCHEM_PHARMACOPHORE_FEATURES>  (1) 
9
1 1 acceptor
1 2 cation
1 2 donor
1 3 acceptor
1 4 donor
1 5 acceptor
5 2 6 7 8 9 rings
6 5 15 17 18 19 20 rings
6 6 7 10 11 12 13 rings

>  <PUBCHEM_HEAVY_ATOM_COUNT>  (1) 
20

>  <PUBCHEM_ATOM_DEF_STEREO_COUNT>  (1) 
0

>  <PUBCHEM_ATOM_UDEF_STEREO_COUNT>  (1) 
0

>  <PUBCHEM_BOND_DEF_STEREO_COUNT>  (1) 
0

>  <PUBCHEM_BOND_UDEF_STEREO_COUNT>  (1) 
1

>  <PUBCHEM_ISOTOPIC_ATOM_COUNT>  (1) 
0

>  <PUBCHEM_COMPONENT_COUNT>  (1) 
1

>  <PUBCHEM_CACTVS_TAUTO_COUNT>  (1) 
5

>  <PUBCHEM_CONFORMER_ID>  (1) 
0000157000000001

>  <PUBCHEM_MMFF94_ENERGY>  (1) 
46.3262

>  <PUBCHEM_FEATURE_SELFOVERLAP>  (1) 
45.768

>  <PUBCHEM_SHAPE_FINGERPRINT>  (1) 
10 15 18259992574004667905
10014705 185 18409730647391396501
10411042 1 17979634860771572247
10595046 47 18409447020156347442
11089746 13 17703781527086341584
11315181 36 18113900494150067071
11578080 2 13541089809731039441
117890 112 18411982451035890336
12107183 9 17760644763607426130
12236239 1 18261109677317406122
12596602 18 17676207987507014561
12616971 3 16515691069138743271
12788726 201 17417252013860593585
13073987 5 18336267851755275675
13167372 99 18409729530658019960
13785724 45 17905603299432230050
14528608 73 18412828018807118412
14933364 13 18411140238377964668
15048467 5 18411981355829876825
15183329 4 18411702079966372000
15348495 7 15936701457329488392
17844677 252 18339932515103947332
18335252 98 18411422834979852419
20281389 69 18261110751159723165
20621476 66 18201163131705200449
20645477 56 18411698777584446425
21150785 3 15913320312731955005
21315763 28 18410291414984765594
220451 1 17385723599881633002
22061861 79 16200441243001784308
23536379 177 18408039606855147338
23559900 14 18272362118350859209
245318 6 17171821463745549612
300161 21 18410570673916490175
3004659 81 18340770339144553754
34797466 226 17775295996692550468
3545911 37 18413672400365564577
4073 2 18040722506427723818
4214541 1 18410573981120292917
441001 317 18412826884835642313
445580 37 18342751706089323340
5104073 3 18188496774510843971
531348 171 12318915586359007857
542803 24 18334856125774250834
59755656 520 17312821584591414363
6327066 14 18191579745608668805
67856867 119 18262521531915601213
7062679 6 18409735057837837797

>  <PUBCHEM_SHAPE_MULTIPOLES>  (1) 
385.8
17.85
1.97
0.65
8.25
0.16
0.01
6.35
1.25
-0.79
-0.09
0.21
0.04
-0.62

>  <PUBCHEM_SHAPE_SELFOVERLAP>  (1) 
850.679

>  <PUBCHEM_SHAPE_VOLUME>  (1) 
206.6

>  <PUBCHEM_COORDINATE_TYPE>  (1) 
2
5
10

$$$$
