5489
     RDKit          3D

 33 34  0  0  1  0  0  0  0  0999 V2000
   -2.7655    0.0783    1.5021 O   0  0  0  0  0  0  0  0  0  0  0  0
   -5.9808   -1.8157    1.1285 O   0  0  0  0  0  0  0  0  0  0  0  0
   -0.7508    1.3694   -1.6440 O   0  0  0  0  0  0  0  0  0  0  0  0
    3.1619    1.2777    0.2434 O   0  0  0  0  0  0  0  0  0  0  0  0
    1.4144    1.4342    1.7255 O   0  0  0  0  0  0  0  0  0  0  0  0
   -3.7600   -0.8918   -0.3570 N   0  0  0  0  0  0  0  0  0  0  0  0
   -2.1765    2.2821   -0.0561 N   0  0  0  0  0  0  0  0  0  0  0  0
    1.3727    2.5165   -0.3270 N   0  0  0  0  0  0  0  0  0  0  0  0
   -3.3349    1.4910   -0.3858 C   0  0  0  0  0  0  0  0  0  0  0  0
   -4.6673    2.2190   -0.1085 C   0  0  0  0  0  0  0  0  0  0  0  0
   -3.8183   -2.2427    0.1516 C   0  0  0  0  0  0  0  0  0  0  0  0
   -3.2327    0.1670    0.3686 C   0  0  0  0  0  0  0  0  0  0  0  0
   -3.0217   -3.1983   -0.7506 C   0  0  0  0  0  0  0  0  0  0  0  0
   -4.8868    2.5267    1.3766 C   0  0  0  0  0  0  0  0  0  0  0  0
   -4.7699    3.5095   -0.9274 C   0  0  0  0  0  0  0  0  0  0  0  0
   -5.2749   -2.6969    0.2623 C   0  0  0  0  0  0  0  0  0  0  0  0
   -0.9634    2.1540   -0.7219 C   0  0  0  0  0  0  0  0  0  0  0  0
   -1.5283   -3.0959   -0.5492 C   0  0  0  0  0  0  0  0  0  0  0  0
    0.0801    3.1389   -0.2114 C   0  0  0  0  0  0  0  0  0  0  0  0
    0.0227    4.4439   -0.9900 C   0  0  0  0  0  0  0  0  0  0  0  0
   -0.8951   -3.9016    0.3973 C   0  0  0  0  0  0  0  0  0  0  0  0
   -0.7822   -2.1951   -1.3094 C   0  0  0  0  0  0  0  0  0  0  0  0
    0.4841   -3.8066    0.5832 C   0  0  0  0  0  0  0  0  0  0  0  0
    0.5969   -2.1003   -1.1235 C   0  0  0  0  0  0  0  0  0  0  0  0
    1.2301   -2.9059   -0.1771 C   0  0  0  0  0  0  0  0  0  0  0  0
    1.9331    1.7159    0.6502 C   0  0  0  0  0  0  0  0  0  0  0  0
    3.8602    0.4330    1.1651 C   0  0  0  0  0  0  0  0  0  0  0  0
    5.1810    0.0439    0.5687 C   0  0  0  0  0  0  0  0  0  0  0  0
    5.2820   -1.1084   -0.2108 C   0  0  0  0  0  0  0  0  0  0  0  0
    6.3080    0.8347    0.7936 C   0  0  0  0  0  0  0  0  0  0  0  0
    6.5097   -1.4701   -0.7654 C   0  0  0  0  0  0  0  0  0  0  0  0
    7.5356    0.4730    0.2388 C   0  0  0  0  0  0  0  0  0  0  0  0
    7.6364   -0.6794   -0.5406 C   0  0  0  0  0  0  0  0  0  0  0  0
  1 12  2  0
  2 16  1  0
  3 17  2  0
  4 26  1  0
  4 27  1  0
  5 26  2  0
  6 11  1  0
  6 12  1  0
  7  9  1  0
  7 17  1  0
  8 19  1  0
  8 26  1  0
  9 10  1  0
  9 12  1  0
 10 14  1  0
 10 15  1  0
 11 13  1  0
 11 16  1  0
 13 18  1  0
 17 19  1  0
 18 21  2  0
 18 22  1  0
 19 20  1  0
 21 23  1  0
 22 24  2  0
 23 25  2  0
 24 25  1  0
 27 28  1  0
 28 29  2  0
 28 30  1  0
 29 31  1  0
 30 32  2  0
 31 33  2  0
 32 33  1  0
M  END
>  <PUBCHEM_COMPOUND_CID>  (1) 
5489

>  <PUBCHEM_CONFORMER_RMSD>  (1) 
1.4

>  <PUBCHEM_CONFORMER_DIVERSEORDER>  (1) 
1
140
86
44
35
10
45
7
136
144
77
154
102
170
9
62
34
179
85
148
4
161
112
96
191
181
153
46
72
76
64
147
172
158
17
88
15
123
168
48
146
125
103
133
119
135
114
73
40
192
137
25
175
108
166
194
69
22
42
173
50
87
20
53
67
118
27
36
195
126
8
89
107
176
141
30
187
95
177
100
134
180
160
122
65
93
165
23
99
186
129
156
145
58
79
142
120
115
152
104
21
14
28
189
33
182
127
157
185
138
171
98
54
94
43
116
38
2
52
57
111
164
162
124
61
128
37
32
90
121
13
47
169
183
11
113
97
106
66
41
24
101
167
91
12
60
159
82
6
117
193
70
139
29
16
92
155
68
188
174
149
178
190
83
31
143
49
130
5
59
80
163
18
3
184
110
131
105
74
81
55
150
151
19
56
63
71
109
132
75
78
51
39
84
26

>  <PUBCHEM_MMFF94_PARTIAL_CHARGES>  (1) 
43
1 -0.57
11 0.3
12 0.57
13 0.14
16 0.28
17 0.57
18 -0.14
19 0.36
2 -0.68
21 -0.15
22 -0.15
23 -0.15
24 -0.15
25 -0.15
26 0.78
27 0.42
28 -0.14
29 -0.15
3 -0.57
30 -0.15
31 -0.15
32 -0.15
33 -0.15
37 0.37
38 0.37
4 -0.43
5 -0.57
53 0.15
54 0.15
55 0.37
56 0.4
57 0.15
58 0.15
59 0.15
6 -0.73
62 0.15
63 0.15
64 0.15
65 0.15
66 0.15
7 -0.73
8 -0.73
9 0.36

>  <PUBCHEM_EFFECTIVE_ROTOR_COUNT>  (1) 
15

>  <PUBCHEM_PHARMACOPHORE_FEATURES>  (1) 
11
1 1 acceptor
1 2 acceptor
1 2 donor
1 3 acceptor
1 5 acceptor
1 6 donor
1 7 donor
1 8 donor
3 10 14 15 hydrophobe
6 18 21 22 23 24 25 rings
6 28 29 30 31 32 33 rings

>  <PUBCHEM_HEAVY_ATOM_COUNT>  (1) 
33

>  <PUBCHEM_ATOM_DEF_STEREO_COUNT>  (1) 
0

>  <PUBCHEM_ATOM_UDEF_STEREO_COUNT>  (1) 
3

>  <PUBCHEM_BOND_DEF_STEREO_COUNT>  (1) 
0

>  <PUBCHEM_BOND_UDEF_STEREO_COUNT>  (1) 
0

>  <PUBCHEM_ISOTOPIC_ATOM_COUNT>  (1) 
0

>  <PUBCHEM_COMPONENT_COUNT>  (1) 
1

>  <PUBCHEM_CACTVS_TAUTO_COUNT>  (1) 
8

>  <PUBCHEM_CONFORMER_ID>  (1) 
0000157100000001

>  <PUBCHEM_MMFF94_ENERGY>  (1) 
68.2486

>  <PUBCHEM_FEATURE_SELFOVERLAP>  (1) 
55.826

>  <PUBCHEM_SHAPE_FINGERPRINT>  (1) 
10864689 126 18051982424597617198
11014199 57 17833546074534200810
11524674 6 17917420995776201284
11578080 2 17024849495568535535
12522641 33 18192139414344219661
13402501 40 18343582954281226806
14117953 113 18410287034845734703
14251757 5 18409167736467513130
14725015 67 18267019634580684627
15439362 3 18049999992517665469
15927050 60 18269264669694083591
16112460 7 18198354042034947328
17627616 140 18263356989407985578
21304304 249 18338237188655015031
21796203 349 17901141729452231937
3383291 50 18336542828035647706
50150288 127 16126417597550659738
508706 21 18412537725851443207
5265222 85 18408889529618478212

>  <PUBCHEM_SHAPE_MULTIPOLES>  (1) 
634.83
15.98
5.88
1.23
26.51
0.44
-0.09
-0.26
-1.97
-6.93
0.99
-0.31
-0.25
1.04

>  <PUBCHEM_SHAPE_SELFOVERLAP>  (1) 
1303.222

>  <PUBCHEM_SHAPE_VOLUME>  (1) 
363.8

>  <PUBCHEM_COORDINATE_TYPE>  (1) 
2
5
10

$$$$
