5498
     RDKit          2D

 23 24  0  0  1  0  0  0  0  0999 V2000
    0.0000    0.0000    0.0000 O   0  0  0  0  0  0  0  0  0  0  0  0
    0.0000    0.0000    0.0000 O   0  0  0  0  0  0  0  0  0  0  0  0
    0.0000    0.0000    0.0000 O   0  0  0  0  0  0  0  0  0  0  0  0
    0.0000    0.0000    0.0000 O   0  0  0  0  0  0  0  0  0  0  0  0
    0.0000    0.0000    0.0000 C   0  0  0  0  0  0  0  0  0  0  0  0
    0.0000    0.0000    0.0000 C   0  0  0  0  0  0  0  0  0  0  0  0
    0.0000    0.0000    0.0000 C   0  0  0  0  0  0  0  0  0  0  0  0
    0.0000    0.0000    0.0000 C   0  0  0  0  0  0  0  0  0  0  0  0
    0.0000    0.0000    0.0000 C   0  0  0  0  0  0  0  0  0  0  0  0
    0.0000    0.0000    0.0000 C   0  0  0  0  0  0  0  0  0  0  0  0
    0.0000    0.0000    0.0000 C   0  0  0  0  0  0  0  0  0  0  0  0
    0.0000    0.0000    0.0000 C   0  0  0  0  0  0  0  0  0  0  0  0
    0.0000    0.0000    0.0000 C   0  0  0  0  0  0  0  0  0  0  0  0
    0.0000    0.0000    0.0000 C   0  0  0  0  0  0  0  0  0  0  0  0
    0.0000    0.0000    0.0000 C   0  0  0  0  0  0  0  0  0  0  0  0
    0.0000    0.0000    0.0000 C   0  0  0  0  0  0  0  0  0  0  0  0
    0.0000    0.0000    0.0000 C   0  0  0  0  0  0  0  0  0  0  0  0
    0.0000    0.0000    0.0000 C   0  0  0  0  0  0  0  0  0  0  0  0
    0.0000    0.0000    0.0000 C   0  0  0  0  0  0  0  0  0  0  0  0
    0.0000    0.0000    0.0000 C   0  0  0  0  0  0  0  0  0  0  0  0
    0.0000    0.0000    0.0000 C   0  0  0  0  0  0  0  0  0  0  0  0
    0.0000    0.0000    0.0000 C   0  0  0  0  0  0  0  0  0  0  0  0
    0.0000    0.0000    0.0000 C   0  0  0  0  0  0  0  0  0  0  0  0
  1 14  1  0
  1 15  1  0
  2 13  1  0
  3 13  2  0
  4 14  2  0
  5  6  1  0
  5  7  1  0
  5 10  1  0
  5 11  1  0
  6  8  1  0
  6 12  1  0
  6 13  1  0
  7  9  1  0
  7 14  1  0
  8  9  1  0
 15 16  1  0
 15 17  1  0
 16 18  2  0
 16 19  1  0
 18 20  1  0
 19 21  2  0
 20 22  2  0
 21 22  1  0
 22 23  1  0
M  END
>  <PUBCHEM_COMPOUND_CID>  (1) 
5498

>  <PUBCHEM_CONFORMER_RMSD>  (1) 
0.8

>  <PUBCHEM_CONFORMER_DIVERSEORDER>  (1) 
63
21
243
222
244
209
201
230
153
176
83
95
168
147
56
7
82
130
133
97
116
151
40
199
65
69
183
167
52
169
50
66
76
59
30
231
202
131
62
212
39
64
166
205
102
25
67
118
126
45
32
149
29
124
218
125
88
12
191
114
152
18
219
158
180
103
74
71
53
108
104
215
171
236
234
73
6
37
155
11
182
128
179
111
49
193
216
203
208
185
72
77
14
226
214
2
98
173
38
96
186
28
145
242
237
148
9
115
181
188
177
75
106
197
190
42
198
119
80
91
93
117
172
141
150
78
247
200
84
19
137
55
241
34
213
192
138
156
129
51
54
235
1
178
162
157
194
233
196
132
58
27
105
170
90
101
24
35
160
61
109
240
139
23
245
5
68
239
163
110
154
146
195
46
140
206
33
174
43
113
41
20
159
122
57
44
127
87
187
3
26
4
15
135
143
60
92
31
165
207
85
86
229
217
123
161
16
136
94
210
100
8
211
248
79
184
238
144
121
232
204
13
48
225
221
70
134
142
224
223
99
107
47
246
22
228
81
220
17
189
10
164
227
89
175
36
112
120

>  <PUBCHEM_MMFF94_PARTIAL_CHARGES>  (1) 
21
1 -0.43
13 0.66
14 0.66
15 0.42
16 -0.14
18 -0.15
19 -0.15
2 -0.65
20 -0.15
21 -0.15
22 -0.14
23 0.14
3 -0.57
38 0.5
4 -0.57
43 0.15
44 0.15
45 0.15
46 0.15
6 0.06
7 0.06

>  <PUBCHEM_EFFECTIVE_ROTOR_COUNT>  (1) 
6

>  <PUBCHEM_PHARMACOPHORE_FEATURES>  (1) 
7
1 2 acceptor
1 3 acceptor
1 4 acceptor
3 2 3 13 anion
3 5 10 11 hydrophobe
5 5 6 7 8 9 rings
6 16 18 19 20 21 22 rings

>  <PUBCHEM_HEAVY_ATOM_COUNT>  (1) 
23

>  <PUBCHEM_ATOM_DEF_STEREO_COUNT>  (1) 
0

>  <PUBCHEM_ATOM_UDEF_STEREO_COUNT>  (1) 
3

>  <PUBCHEM_BOND_DEF_STEREO_COUNT>  (1) 
0

>  <PUBCHEM_BOND_UDEF_STEREO_COUNT>  (1) 
0

>  <PUBCHEM_ISOTOPIC_ATOM_COUNT>  (1) 
0

>  <PUBCHEM_COMPONENT_COUNT>  (1) 
1

>  <PUBCHEM_CACTVS_TAUTO_COUNT>  (1) 
1

$$$$
