5500
     RDKit          3D

 39 41  0  0  1  0  0  0  0  0999 V2000
   -2.8291    2.5790    0.2995 O   0  0  0  0  0  0  0  0  0  0  0  0
    2.3509    0.6611    0.2963 O   0  0  0  0  0  0  0  0  0  0  0  0
    3.1241    2.8242    0.6923 O   0  0  0  0  0  0  0  0  0  0  0  0
    7.0736    1.3246    0.7588 N   0  0  0  0  0  0  0  0  0  0  0  0
   -3.5203    2.8100   -0.9426 C   0  0  0  0  0  0  0  0  0  0  0  0
   -4.1601    1.4936   -1.4088 C   0  0  0  0  0  0  0  0  0  0  0  0
   -2.5952    3.4290   -2.0029 C   0  0  0  0  0  0  0  0  0  0  0  0
   -4.6914    0.6777   -0.2288 C   0  0  0  0  0  0  0  0  0  0  0  0
   -5.8500   -1.5311    0.4350 C   0  0  0  0  0  0  0  0  0  0  0  0
   -5.3565   -0.6170   -0.7088 C   0  0  0  0  0  0  0  0  0  0  0  0
   -1.3788    2.5506   -2.2598 C   0  0  0  0  0  0  0  0  0  0  0  0
   -4.7284   -1.8248    1.4541 C   0  0  0  0  0  0  0  0  0  0  0  0
   -4.6409    3.8092   -0.6194 C   0  0  0  0  0  0  0  0  0  0  0  0
   -0.7912    2.0882   -0.9596 C   0  0  0  0  0  0  0  0  0  0  0  0
   -1.5403    2.1209    0.2225 C   0  0  0  0  0  0  0  0  0  0  0  0
   -3.5431   -2.5968    0.8634 C   0  0  0  0  0  0  0  0  0  0  0  0
   -2.4405   -2.9033    1.8867 C   0  0  0  0  0  0  0  0  0  0  0  0
   -1.1811   -3.6222    1.3489 C   0  0  0  0  0  0  0  0  0  0  0  0
   -6.4238   -2.8173   -0.1711 C   0  0  0  0  0  0  0  0  0  0  0  0
    0.5165    1.5852   -0.9261 C   0  0  0  0  0  0  0  0  0  0  0  0
   -0.9741    1.6889    1.4254 C   0  0  0  0  0  0  0  0  0  0  0  0
   -0.5573   -2.8651    0.1576 C   0  0  0  0  0  0  0  0  0  0  0  0
    0.7004   -3.4980   -0.4526 C   0  0  0  0  0  0  0  0  0  0  0  0
    0.3317    1.2014    1.4500 C   0  0  0  0  0  0  0  0  0  0  0  0
    1.0758    1.1459    0.2740 C   0  0  0  0  0  0  0  0  0  0  0  0
   -0.1805   -3.7872    2.5001 C   0  0  0  0  0  0  0  0  0  0  0  0
    1.3475   -2.7117   -1.5994 C   0  0  0  0  0  0  0  0  0  0  0  0
    1.3356    1.5034   -2.1774 C   0  0  0  0  0  0  0  0  0  0  0  0
   -1.7718    1.7416    2.6912 C   0  0  0  0  0  0  0  0  0  0  0  0
    2.6552   -3.3023   -2.1599 C   0  0  0  0  0  0  0  0  0  0  0  0
    0.9383    0.7331    2.7346 C   0  0  0  0  0  0  0  0  0  0  0  0
    2.3957   -4.7098   -2.7030 C   0  0  0  0  0  0  0  0  0  0  0  0
    3.2662   -2.4305   -3.2573 C   0  0  0  0  0  0  0  0  0  0  0  0
    3.3273    1.6305    0.5291 C   0  0  0  0  0  0  0  0  0  0  0  0
    4.6844    1.0281    0.5389 C   0  0  0  0  0  0  0  0  0  0  0  0
    4.8640   -0.3375    0.3482 C   0  0  0  0  0  0  0  0  0  0  0  0
    5.8115    1.8088    0.7383 C   0  0  0  0  0  0  0  0  0  0  0  0
    6.1471   -0.8731    0.3626 C   0  0  0  0  0  0  0  0  0  0  0  0
    7.2088   -0.0073    0.5699 C   0  0  0  0  0  0  0  0  0  0  0  0
  1  5  1  0
  1 15  1  0
  2 25  1  0
  2 34  1  0
  3 34  2  0
  4 37  2  0
  4 39  1  0
  5  6  1  0
  5  7  1  0
  5 13  1  0
  6  8  1  0
  7 11  1  0
  8 10  1  0
  9 10  1  0
  9 12  1  0
  9 19  1  0
 11 14  1  0
 12 16  1  0
 14 15  2  0
 14 20  1  0
 15 21  1  0
 16 17  1  0
 17 18  1  0
 18 22  1  0
 18 26  1  0
 20 25  2  0
 20 28  1  0
 21 24  2  0
 21 29  1  0
 22 23  1  0
 23 27  1  0
 24 25  1  0
 24 31  1  0
 27 30  1  0
 30 32  1  0
 30 33  1  0
 34 35  1  0
 35 36  2  0
 35 37  1  0
 36 38  1  0
 38 39  2  0
M  END
>  <PUBCHEM_COMPOUND_CID>  (1) 
5500

>  <PUBCHEM_CONFORMER_RMSD>  (1) 
1.6

>  <PUBCHEM_CONFORMER_DIVERSEORDER>  (1) 
1
104
16
68
57
175
77
19
141
92
177
125
44
60
53
10
112
85
45
4
159
127
74
169
64
35
14
123
137
80
84
106
155
153
12
20
154
40
144
152
157
93
87
148
76
33
91
30
21
99
81
32
61
82
62
130
108
129
143
161
156
89
41
119
184
22
37
50
97
56
166
110
149
18
75
48
183
182
39
135
95
72
165
133
15
49
146
145
55
150
162
17
24
73
13
147
69
115
78
34
124
170
6
36
113
164
103
25
114
139
140
178
134
23
176
94
43
9
70
142
131
179
167
27
3
54
98
172
151
83
71
47
96
88
58
66
105
107
26
63
128
121
136
102
138
122
163
46
158
117
2
100
101
59
7
160
126
67
120
65
28
52
11
168
42
174
31
29
111
180
118
90
132
5
38
79
116
171
109
51
173
86
8
181

>  <PUBCHEM_MMFF94_PARTIAL_CHARGES>  (1) 
25
1 -0.36
11 0.14
14 -0.14
15 0.08
2 -0.23
20 -0.14
21 -0.14
24 -0.14
25 0.08
28 0.14
29 0.14
3 -0.57
31 0.14
34 0.63
35 0.09
36 -0.15
37 0.16
38 -0.15
39 0.16
4 -0.62
5 0.28
89 0.15
90 0.15
91 0.15
92 0.15

>  <PUBCHEM_EFFECTIVE_ROTOR_COUNT>  (1) 
15.8

>  <PUBCHEM_PHARMACOPHORE_FEATURES>  (1) 
9
1 1 acceptor
1 19 hydrophobe
1 26 hydrophobe
1 3 acceptor
1 4 acceptor
3 30 32 33 hydrophobe
6 1 5 7 11 14 15 rings
6 14 15 20 21 24 25 rings
6 4 35 36 37 38 39 rings

>  <PUBCHEM_HEAVY_ATOM_COUNT>  (1) 
39

>  <PUBCHEM_ATOM_DEF_STEREO_COUNT>  (1) 
0

>  <PUBCHEM_ATOM_UDEF_STEREO_COUNT>  (1) 
3

>  <PUBCHEM_BOND_DEF_STEREO_COUNT>  (1) 
0

>  <PUBCHEM_BOND_UDEF_STEREO_COUNT>  (1) 
0

>  <PUBCHEM_ISOTOPIC_ATOM_COUNT>  (1) 
0

>  <PUBCHEM_COMPONENT_COUNT>  (1) 
1

>  <PUBCHEM_CACTVS_TAUTO_COUNT>  (1) 
1

>  <PUBCHEM_CONFORMER_ID>  (1) 
0000157C00000001

>  <PUBCHEM_MMFF94_ENERGY>  (1) 
105.9344

>  <PUBCHEM_FEATURE_SELFOVERLAP>  (1) 
45.701

>  <PUBCHEM_SHAPE_FINGERPRINT>  (1) 
10653451 467 18341051938216458187
10974685 15 18042973064393980247
11828532 37 17389673200605674219
12156800 1 17895493465612006190
12355185 283 17844820175008736670
12522641 33 17971458617403162933
13383661 66 18270132313286508955
13402501 40 18338516443233840939
13782708 43 18408597068020264800
15276724 80 18118119397686459968
15439362 3 17756130203904718909
15444296 9 18411986866595028307
19311894 1 17825670220962137555
19315958 150 18271534079375361825
20764821 26 17897474790150168255
22019808 20 18188211004329343420
238918 7 18340488958003138982
463206 1 17470452828932301219
5080951 261 17533746499638164288
5171179 24 18198075693773725071
5265222 85 18270677701239885420
6376802 90 18193834834644609829

>  <PUBCHEM_SHAPE_MULTIPOLES>  (1) 
780.01
13.81
6.13
2.75
9.89
4.45
0.69
-0.44
-1.23
-3.25
1.96
0.79
1.43
4.88

>  <PUBCHEM_SHAPE_SELFOVERLAP>  (1) 
1602.094

>  <PUBCHEM_SHAPE_VOLUME>  (1) 
449.1

>  <PUBCHEM_COORDINATE_TYPE>  (1) 
2
5
10

$$$$
