5504
     RDKit          3D

 12 13  0  0  0  0  0  0  0  0999 V2000
   -2.0967   -1.1026   -0.1176 N   0  0  0  0  0  0  0  0  0  0  0  0
   -2.1103    1.1712   -0.0232 N   0  0  0  0  0  0  0  0  0  0  0  0
   -1.5578    0.0866   -0.5049 C   0  0  0  0  0  0  0  0  0  0  0  0
   -3.1881   -0.8779    0.7813 C   0  0  0  0  0  0  0  0  0  0  0  0
   -0.3750    0.1391   -1.4152 C   0  0  0  0  0  0  0  0  0  0  0  0
   -3.2328    0.6570    0.8208 C   0  0  0  0  0  0  0  0  0  0  0  0
    0.9087    0.0603   -0.6397 C   0  0  0  0  0  0  0  0  0  0  0  0
    1.5136    1.2286   -0.1918 C   0  0  0  0  0  0  0  0  0  0  0  0
    1.4783   -1.1800   -0.3776 C   0  0  0  0  0  0  0  0  0  0  0  0
    2.7057    1.1556    0.5287 C   0  0  0  0  0  0  0  0  0  0  0  0
    2.6703   -1.2530    0.3430 C   0  0  0  0  0  0  0  0  0  0  0  0
    3.2841   -0.0851    0.7962 C   0  0  0  0  0  0  0  0  0  0  0  0
  1  3  1  0
  1  4  1  0
  2  3  2  0
  2  6  1  0
  3  5  1  0
  4  6  1  0
  5  7  1  0
  7  8  2  0
  7  9  1  0
  8 10  1  0
  9 11  2  0
 10 12  2  0
 11 12  1  0
M  END
>  <PUBCHEM_COMPOUND_CID>  (1) 
5504

>  <PUBCHEM_CONFORMER_RMSD>  (1) 
0.6

>  <PUBCHEM_CONFORMER_DIVERSEORDER>  (1) 
1
4
3
2

>  <PUBCHEM_MMFF94_PARTIAL_CHARGES>  (1) 
18
1 -0.82
10 -0.15
11 -0.15
12 -0.15
19 0.4
2 -0.7
20 0.15
21 0.15
22 0.15
23 0.15
24 0.15
3 0.44
4 0.37
5 0.2
6 0.25
7 -0.14
8 -0.15
9 -0.15

>  <PUBCHEM_EFFECTIVE_ROTOR_COUNT>  (1) 
2.6

>  <PUBCHEM_PHARMACOPHORE_FEATURES>  (1) 
4
1 1 donor
3 1 2 3 cation
5 1 2 3 4 6 rings
6 7 8 9 10 11 12 rings

>  <PUBCHEM_HEAVY_ATOM_COUNT>  (1) 
12

>  <PUBCHEM_ATOM_DEF_STEREO_COUNT>  (1) 
0

>  <PUBCHEM_ATOM_UDEF_STEREO_COUNT>  (1) 
0

>  <PUBCHEM_BOND_DEF_STEREO_COUNT>  (1) 
0

>  <PUBCHEM_BOND_UDEF_STEREO_COUNT>  (1) 
0

>  <PUBCHEM_ISOTOPIC_ATOM_COUNT>  (1) 
0

>  <PUBCHEM_COMPONENT_COUNT>  (1) 
1

>  <PUBCHEM_CACTVS_TAUTO_COUNT>  (1) 
1

>  <PUBCHEM_CONFORMER_ID>  (1) 
0000158000000001

>  <PUBCHEM_MMFF94_ENERGY>  (1) 
32.7568

>  <PUBCHEM_FEATURE_SELFOVERLAP>  (1) 
20.297

>  <PUBCHEM_SHAPE_FINGERPRINT>  (1) 
11031198 65 12895083936993644117
11471102 22 18408885144229307634
12251169 10 18411699902306799683
12382932 28 18412261722683828809
12696612 119 18410857689390534780
12932764 1 18413110562776992252
13296908 3 16298381383485458437
13705890 14 11314031266501255840
13764800 53 15267068094289151767
14144814 61 18412544305735656515
15775835 57 17203603813349214104
16945 1 18410568517932377236
18186145 218 12751246903837273605
200 152 18129362926187442215
20279233 1 17749095686716460007
20281407 28 17240762852476472214
20361792 2 15719395053099789975
20528008 55 18410849975903343767
20653085 51 10952059969737265887
20671657 53 12468631708189226214
20711985 344 15213843931617019279
22169311 14 18337675221947969369
22802520 49 11239726321871842446
230 275 15841559547941229548
25 1 11671516611252540332
305870 269 15410902812109626406
369184 2 18413107260421869061
81228 2 16299493990500500517

>  <PUBCHEM_SHAPE_MULTIPOLES>  (1) 
236.99
5.84
1.38
1.05
1.52
0.04
-0.14
0.24
2.39
-0.32
0.1
0.13
-0.02
0.09

>  <PUBCHEM_SHAPE_SELFOVERLAP>  (1) 
499.287

>  <PUBCHEM_SHAPE_VOLUME>  (1) 
132.5

>  <PUBCHEM_COORDINATE_TYPE>  (1) 
2
5
10

$$$$
