5505
     RDKit          3D

 18 18  0  0  0  0  0  0  0  0999 V2000
    1.0779    2.1150    0.2777 S   0  0  0  0  0  0  0  0  0  0  0  0
    1.0725    2.7600   -1.0211 O   0  0  0  0  0  0  0  0  0  0  0  0
    1.7013    2.7605    1.4168 O   0  0  0  0  0  0  0  0  0  0  0  0
   -1.3548    1.2564   -1.4519 O   0  0  0  0  0  0  0  0  0  0  0  0
   -2.7377    0.9669    0.3790 N   0  0  0  0  0  0  0  0  0  0  0  0
   -0.5174    1.6602    0.6908 N   0  0  0  0  0  0  0  0  0  0  0  0
   -3.9754   -0.9538   -0.5379 C   0  0  0  0  0  0  0  0  0  0  0  0
   -3.9106    0.5573   -0.3427 C   0  0  0  0  0  0  0  0  0  0  0  0
   -4.0272   -1.7163    0.7879 C   0  0  0  0  0  0  0  0  0  0  0  0
    1.8462    0.5329    0.1031 C   0  0  0  0  0  0  0  0  0  0  0  0
   -4.1521   -3.2150    0.5620 C   0  0  0  0  0  0  0  0  0  0  0  0
   -1.5396    1.2875   -0.2389 C   0  0  0  0  0  0  0  0  0  0  0  0
    1.8411   -0.0874   -1.1344 C   0  0  0  0  0  0  0  0  0  0  0  0
    2.4386   -0.0569    1.2063 C   0  0  0  0  0  0  0  0  0  0  0  0
    3.0487   -1.9453   -0.1719 C   0  0  0  0  0  0  0  0  0  0  0  0
    2.4470   -1.3362   -1.2729 C   0  0  0  0  0  0  0  0  0  0  0  0
    3.0445   -1.3057    1.0678 C   0  0  0  0  0  0  0  0  0  0  0  0
    3.6970   -3.2803   -0.3197 C   0  0  0  0  0  0  0  0  0  0  0  0
  1  2  2  0
  1  3  2  0
  1  6  1  0
  1 10  1  0
  4 12  2  0
  5  8  1  0
  5 12  1  0
  6 12  1  0
  7  8  1  0
  7  9  1  0
  9 11  1  0
 10 13  2  0
 10 14  1  0
 13 16  1  0
 14 17  2  0
 15 16  2  0
 15 17  1  0
 15 18  1  0
M  END
>  <PUBCHEM_COMPOUND_CID>  (1) 
5505

>  <PUBCHEM_CONFORMER_RMSD>  (1) 
0.8

>  <PUBCHEM_CONFORMER_DIVERSEORDER>  (1) 
1
71
48
37
46
18
25
7
51
35
65
31
26
57
49
30
47
4
38
32
36
22
55
20
27
23
33
24
9
67
64
11
61
58
63
34
15
17
68
8
28
44
6
16
60
13
29
19
21
50
40
43
54
52
56
3
66
42
12
59
39
53
62
10
70
5
14
41
45
72
2
69

>  <PUBCHEM_MMFF94_PARTIAL_CHARGES>  (1) 
21
1 1.45
10 -0.01
12 0.87
13 -0.15
14 -0.15
15 -0.14
16 -0.15
17 -0.15
18 0.14
2 -0.65
25 0.37
29 0.42
3 -0.65
30 0.15
31 0.15
32 0.15
33 0.15
4 -0.57
5 -0.73
6 -0.79
8 0.3

>  <PUBCHEM_EFFECTIVE_ROTOR_COUNT>  (1) 
7

>  <PUBCHEM_PHARMACOPHORE_FEATURES>  (1) 
7
1 11 hydrophobe
1 2 acceptor
1 3 acceptor
1 4 acceptor
1 5 donor
1 6 donor
6 10 13 14 15 16 17 rings

>  <PUBCHEM_HEAVY_ATOM_COUNT>  (1) 
18

>  <PUBCHEM_ATOM_DEF_STEREO_COUNT>  (1) 
0

>  <PUBCHEM_ATOM_UDEF_STEREO_COUNT>  (1) 
0

>  <PUBCHEM_BOND_DEF_STEREO_COUNT>  (1) 
0

>  <PUBCHEM_BOND_UDEF_STEREO_COUNT>  (1) 
0

>  <PUBCHEM_ISOTOPIC_ATOM_COUNT>  (1) 
0

>  <PUBCHEM_COMPONENT_COUNT>  (1) 
1

>  <PUBCHEM_CACTVS_TAUTO_COUNT>  (1) 
3

>  <PUBCHEM_CONFORMER_ID>  (1) 
0000158100000001

>  <PUBCHEM_MMFF94_ENERGY>  (1) 
8.8497

>  <PUBCHEM_FEATURE_SELFOVERLAP>  (1) 
35.582

>  <PUBCHEM_SHAPE_FINGERPRINT>  (1) 
117890 22 18411136978555997707
12006461 19 18411136900945626633
12363563 72 18340769221724770702
12506688 2 18413390938447874649
12596599 1 18412551989870265875
12633257 1 18199481986741672875
12969540 37 18409727395779562494
13257819 37 17466810576670161588
13533116 47 18270683181918445459
13911882 115 18273210885814771498
14251705 54 18411982464042520783
14251731 5 18408611352954890347
14863182 85 17903645424971378781
15352361 1 18411418367301273879
15422964 175 18270392793987725324
15635459 17 18119534477514534811
18186145 218 11674872278186400549
20291156 8 18338237046472434806
20645477 70 18340473578283875605
21864079 5 9583513201084152443
221490 88 18410014363855959979
23379529 103 18196666094308271462
23503958 25 10159693655337321399
23559900 14 18408599292802546901
314173 41 18336267855707162995
5486654 36 18338252461574193403
5902787 121 18409728430755761585
6433294 58 18265617765502729171
7987 15 18267326329426353611
9709674 26 18411129264973731399

>  <PUBCHEM_SHAPE_MULTIPOLES>  (1) 
346.71
8.27
3.82
1.27
8.13
1.06
-0.04
8.02
0.55
-0.75
0.37
-0.54
-0.2
1.2

>  <PUBCHEM_SHAPE_SELFOVERLAP>  (1) 
684.292

>  <PUBCHEM_SHAPE_VOLUME>  (1) 
207

>  <PUBCHEM_COORDINATE_TYPE>  (1) 
2
5
10

$$$$
