5515
     RDKit          3D

 31 35  0  0  1  0  0  0  0  0999 V2000
   -5.9916   -0.9765    0.3216 O   0  0  0  0  0  0  0  0  0  0  0  0
   -4.3565    2.1494    0.6612 O   0  0  0  0  0  0  0  0  0  0  0  0
   -2.5492   -3.4246    0.0578 O   0  0  0  0  0  0  0  0  0  0  0  0
   -6.7363    1.0482    0.9417 O   0  0  0  0  0  0  0  0  0  0  0  0
    6.5032    1.5902    0.4207 O   0  0  0  0  0  0  0  0  0  0  0  0
   -1.1626   -1.5753    0.1192 N   0  0  0  0  0  0  0  0  0  0  0  0
    0.9821    1.3131    0.1638 N   0  0  0  0  0  0  0  0  0  0  0  0
    6.5084   -0.8280   -0.5181 N   0  0  0  0  0  0  0  0  0  0  0  0
   -4.5748    0.9801   -0.1320 C   0  0  0  0  0  0  0  0  0  0  0  0
   -3.3896    0.0613   -0.0194 C   0  0  0  0  0  0  0  0  0  0  0  0
   -1.0030   -0.1994    0.1012 C   0  0  0  0  0  0  0  0  0  0  0  0
    0.1444   -2.2598    0.1971 C   0  0  0  0  0  0  0  0  0  0  0  0
   -3.5713   -1.2717   -0.0181 C   0  0  0  0  0  0  0  0  0  0  0  0
    1.1004   -1.1131    0.2199 C   0  0  0  0  0  0  0  0  0  0  0  0
    0.4215    0.0957    0.1625 C   0  0  0  0  0  0  0  0  0  0  0  0
   -2.0500    0.6265    0.0306 C   0  0  0  0  0  0  0  0  0  0  0  0
   -2.3920   -2.2060    0.0579 C   0  0  0  0  0  0  0  0  0  0  0  0
   -4.8244    1.4036   -1.5815 C   0  0  0  0  0  0  0  0  0  0  0  0
   -4.9360   -1.8644   -0.1076 C   0  0  0  0  0  0  0  0  0  0  0  0
   -5.8475    0.3643    0.4372 C   0  0  0  0  0  0  0  0  0  0  0  0
    2.4734   -1.0907    0.2849 C   0  0  0  0  0  0  0  0  0  0  0  0
    3.1177    0.1576    0.2896 C   0  0  0  0  0  0  0  0  0  0  0  0
    2.3290    1.3415    0.2271 C   0  0  0  0  0  0  0  0  0  0  0  0
    4.5171    0.2466    0.3548 C   0  0  0  0  0  0  0  0  0  0  0  0
   -5.9996    2.3548   -1.6815 C   0  0  0  0  0  0  0  0  0  0  0  0
    5.3758   -0.9810    0.4213 C   0  0  0  0  0  0  0  0  0  0  0  0
    2.9891    2.5658    0.2326 C   0  0  0  0  0  0  0  0  0  0  0  0
    5.1464    1.4883    0.3584 C   0  0  0  0  0  0  0  0  0  0  0  0
    4.3823    2.6473    0.2972 C   0  0  0  0  0  0  0  0  0  0  0  0
    6.0058   -0.6583   -1.8747 C   0  0  0  0  0  0  0  0  0  0  0  0
    7.3876   -1.9856   -0.4251 C   0  0  0  0  0  0  0  0  0  0  0  0
  1 19  1  0
  1 20  1  0
  2  9  1  0
  3 17  2  0
  4 20  2  0
  5 28  1  0
  6 11  1  0
  6 12  1  0
  6 17  1  0
  7 15  2  0
  7 23  1  0
  8 26  1  0
  8 30  1  0
  8 31  1  0
  9 10  1  0
  9 18  1  0
  9 20  1  0
 10 13  2  0
 10 16  1  0
 11 15  1  0
 11 16  2  0
 12 14  1  0
 13 17  1  0
 13 19  1  0
 14 15  1  0
 14 21  2  0
 18 25  1  0
 21 22  1  0
 22 23  2  0
 22 24  1  0
 23 27  1  0
 24 26  1  0
 24 28  2  0
 27 29  2  0
 28 29  1  0
M  END
>  <PUBCHEM_COMPOUND_CID>  (1) 
5515

>  <PUBCHEM_CONFORMER_RMSD>  (1) 
0.8

>  <PUBCHEM_CONFORMER_DIVERSEORDER>  (1) 
1
4
3
2

>  <PUBCHEM_MMFF94_PARTIAL_CHARGES>  (1) 
34
1 -0.43
10 -0.14
11 0.08
12 0.44
13 -0.12
14 -0.14
15 0.34
16 -0.15
17 0.62
19 0.42
2 -0.68
20 0.66
21 -0.15
23 0.31
24 -0.14
26 0.41
27 -0.15
28 0.08
29 -0.15
3 -0.57
30 0.27
31 0.27
34 0.15
39 0.15
4 -0.57
43 0.4
46 0.15
47 0.15
5 -0.53
54 0.45
6 -0.47
7 -0.62
8 -0.81
9 0.48

>  <PUBCHEM_EFFECTIVE_ROTOR_COUNT>  (1) 
3.8

>  <PUBCHEM_PHARMACOPHORE_FEATURES>  (1) 
13
1 2 acceptor
1 2 donor
1 25 hydrophobe
1 3 acceptor
1 4 acceptor
1 5 donor
1 7 acceptor
1 8 cation
5 6 11 12 14 15 rings
6 1 9 10 13 19 20 rings
6 22 23 24 27 28 29 rings
6 6 10 11 13 16 17 rings
6 7 14 15 21 22 23 rings

>  <PUBCHEM_HEAVY_ATOM_COUNT>  (1) 
31

>  <PUBCHEM_ATOM_DEF_STEREO_COUNT>  (1) 
0

>  <PUBCHEM_ATOM_UDEF_STEREO_COUNT>  (1) 
1

>  <PUBCHEM_BOND_DEF_STEREO_COUNT>  (1) 
0

>  <PUBCHEM_BOND_UDEF_STEREO_COUNT>  (1) 
0

>  <PUBCHEM_ISOTOPIC_ATOM_COUNT>  (1) 
0

>  <PUBCHEM_COMPONENT_COUNT>  (1) 
1

>  <PUBCHEM_CACTVS_TAUTO_COUNT>  (1) 
3

>  <PUBCHEM_CONFORMER_ID>  (1) 
0000158B00000001

>  <PUBCHEM_MMFF94_ENERGY>  (1) 
104.3765

>  <PUBCHEM_FEATURE_SELFOVERLAP>  (1) 
66.221

>  <PUBCHEM_SHAPE_FINGERPRINT>  (1) 
10 15 18040433313072937633
10050765 1 18267304420845259706
10638233 991 16660653985275106572
10763959 59 18186518796005536148
10835480 77 18271800276915958888
11297010 23 18268697321588702223
11497681 19 18199461242466891263
11578080 2 16914797388316515408
12107183 9 18264479586173176426
12166972 35 18409171038532882032
12236239 1 18060419135629886731
12403259 415 18260824899774731949
13533116 47 17489871527718959626
13782708 43 17702665613058226799
13785724 45 18050562946629073394
14117953 113 18260263011243138725
14341114 176 18410858789060379056
14790565 3 18335700589084723449
14856354 85 15864077580664927515
14904525 67 15791726417074904724
14933364 13 18408887347373586912
15064981 113 17274819095687168925
15183329 4 18411980230785698778
15196674 1 18339078293395630794
17844677 252 18339367460759027834
18608769 82 18338237180539892739
18681886 176 18272644667106167698
19611394 137 17969798556560185715
20281389 69 18260265243807908505
21033648 29 18336250344915033641
21130935 74 18273215339332107506
21223535 225 17915745267157694297
21236236 1 18340202003296712535
21267235 1 18409736183446375443
21279426 13 18412263930740072140
21709351 56 18410849975766161589
21859007 373 18261937567067151500
22393880 68 18408879659471908258
23522609 53 17971220091476789852
23559900 14 18271803553775026032
249057 3 18413107247684887638
2747138 104 17823426062285135499
2838139 119 18410847746752059389
3004659 81 18408041810832791962
3103668 31 18118123576700832188
335352 9 18411702076198626678
350125 39 18410293618292315673
3545911 37 18410293605850330505
4073 2 18115871978881673106
4093350 32 17489587866651439342
4144715 1 18335426815332898226
4214541 1 18410290354407191081
5104073 3 18335977678957893530
59755656 215 18337952294725607084
59755656 520 18409166610759066975
6328613 192 18260554433131653436
9996256 80 18340204197708541651

>  <PUBCHEM_SHAPE_MULTIPOLES>  (1) 
593.68
19.01
2.96
0.99
5.59
0.19
0.47
-2.8
2.8
-0.39
0.08
-0.21
-0.3
1.74

>  <PUBCHEM_SHAPE_SELFOVERLAP>  (1) 
1332.897

>  <PUBCHEM_SHAPE_VOLUME>  (1) 
313.6

>  <PUBCHEM_COORDINATE_TYPE>  (1) 
2
5
10

$$$$
