5517
     RDKit          3D

 29 32  0  0  1  0  0  0  0  0999 V2000
   -2.2657    3.7044    0.0342 F   0  0  0  0  0  0  0  0  0  0  0  0
    0.9566   -1.9586   -2.2309 F   0  0  0  0  0  0  0  0  0  0  0  0
   -0.1227   -5.8380    0.2537 F   0  0  0  0  0  0  0  0  0  0  0  0
    2.7666    3.3860    0.1069 O   0  0  0  0  0  0  0  0  0  0  0  0
    5.0835    2.3531   -0.5800 O   0  0  0  0  0  0  0  0  0  0  0  0
    5.5117    0.4147    0.5555 O   0  0  0  0  0  0  0  0  0  0  0  0
   -3.1064    1.1142    0.0058 N   0  0  0  0  0  0  0  0  0  0  0  0
   -6.0272   -1.0510    0.0882 N   0  0  0  0  0  0  0  0  0  0  0  0
   -0.8905    0.3434    0.0555 N   0  0  0  0  0  0  0  0  0  0  0  0
    1.4020   -0.4784    0.1052 N   0  0  0  0  0  0  0  0  0  0  0  0
   -5.1447    0.0053   -0.3762 C   0  0  0  0  0  0  0  0  0  0  0  0
   -5.4331    1.3611    0.2600 C   0  0  0  0  0  0  0  0  0  0  0  0
   -3.6763   -0.2333   -0.0064 C   0  0  0  0  0  0  0  0  0  0  0  0
   -4.1475    2.1407   -0.0162 C   0  0  0  0  0  0  0  0  0  0  0  0
   -1.7551    1.3836    0.0392 C   0  0  0  0  0  0  0  0  0  0  0  0
   -1.3710    2.7086    0.0527 C   0  0  0  0  0  0  0  0  0  0  0  0
    0.4448    0.6004    0.0981 C   0  0  0  0  0  0  0  0  0  0  0  0
    0.9048    1.9282    0.0964 C   0  0  0  0  0  0  0  0  0  0  0  0
   -0.0127    2.9830    0.0788 C   0  0  0  0  0  0  0  0  0  0  0  0
    2.3543    2.2330    0.0942 C   0  0  0  0  0  0  0  0  0  0  0  0
    2.7547   -0.1500    0.0777 C   0  0  0  0  0  0  0  0  0  0  0  0
    3.2812    1.0801    0.0719 C   0  0  0  0  0  0  0  0  0  0  0  0
    1.0087   -1.8590    0.1414 C   0  0  0  0  0  0  0  0  0  0  0  0
    0.7954   -2.5667   -1.0471 C   0  0  0  0  0  0  0  0  0  0  0  0
    0.8361   -2.5102    1.3681 C   0  0  0  0  0  0  0  0  0  0  0  0
    4.7387    1.2155    0.0595 C   0  0  0  0  0  0  0  0  0  0  0  0
    0.4143   -3.9081   -1.0091 C   0  0  0  0  0  0  0  0  0  0  0  0
    0.4551   -3.8514    1.4059 C   0  0  0  0  0  0  0  0  0  0  0  0
    0.2442   -4.5503    0.2173 C   0  0  0  0  0  0  0  0  0  0  0  0
  1 16  1  0
  2 24  1  0
  3 29  1  0
  4 20  2  0
  5 26  1  0
  6 26  2  0
  7 13  1  0
  7 14  1  0
  7 15  1  0
  8 11  1  0
  9 15  2  0
  9 17  1  0
 10 17  1  0
 10 21  1  0
 10 23  1  0
 11 12  1  0
 11 13  1  0
 12 14  1  0
 15 16  1  0
 16 19  2  0
 17 18  2  0
 18 19  1  0
 18 20  1  0
 20 22  1  0
 21 22  2  0
 22 26  1  0
 23 24  2  0
 23 25  1  0
 24 27  1  0
 25 28  2  0
 27 29  2  0
 28 29  1  0
M  END
>  <PUBCHEM_COMPOUND_CID>  (1) 
5517

>  <PUBCHEM_CONFORMER_RMSD>  (1) 
0.8

>  <PUBCHEM_CONFORMER_DIVERSEORDER>  (1) 
1
8
9
5
4
7
6
2
3

>  <PUBCHEM_MMFF94_PARTIAL_CHARGES>  (1) 
36
1 -0.19
10 -0.3
11 0.27
13 0.37
14 0.37
15 0.41
16 0.19
17 0.41
18 0.09
19 -0.15
2 -0.19
20 0.47
21 -0.05
22 0.03
23 0.1
24 0.19
25 -0.15
26 0.71
27 -0.15
28 -0.15
29 0.19
3 -0.19
37 0.36
38 0.36
39 0.15
4 -0.57
40 0.15
41 0.15
42 0.15
43 0.15
44 0.5
5 -0.65
6 -0.57
7 -0.84
8 -0.99
9 -0.62

>  <PUBCHEM_EFFECTIVE_ROTOR_COUNT>  (1) 
4

>  <PUBCHEM_PHARMACOPHORE_FEATURES>  (1) 
13
1 22 anion
1 4 acceptor
1 5 acceptor
1 6 acceptor
1 7 cation
1 8 cation
1 8 donor
3 5 6 26 anion
3 9 10 17 cation
5 7 11 12 13 14 rings
6 10 17 18 20 21 22 rings
6 23 24 25 27 28 29 rings
6 9 15 16 17 18 19 rings

>  <PUBCHEM_HEAVY_ATOM_COUNT>  (1) 
29

>  <PUBCHEM_ATOM_DEF_STEREO_COUNT>  (1) 
0

>  <PUBCHEM_ATOM_UDEF_STEREO_COUNT>  (1) 
1

>  <PUBCHEM_BOND_DEF_STEREO_COUNT>  (1) 
0

>  <PUBCHEM_BOND_UDEF_STEREO_COUNT>  (1) 
0

>  <PUBCHEM_ISOTOPIC_ATOM_COUNT>  (1) 
0

>  <PUBCHEM_COMPONENT_COUNT>  (1) 
1

>  <PUBCHEM_CACTVS_TAUTO_COUNT>  (1) 
1

>  <PUBCHEM_CONFORMER_ID>  (1) 
0000158D00000001

>  <PUBCHEM_MMFF94_ENERGY>  (1) 
95.1499

>  <PUBCHEM_FEATURE_SELFOVERLAP>  (1) 
66.395

>  <PUBCHEM_SHAPE_FINGERPRINT>  (1) 
10074138 170 18052226760986968290
10090160 65 18409163303396632069
10906281 52 18261974980453374873
1100329 8 18266171927963118672
11135926 11 18337102368248713725
11421498 54 17560529417168045425
11488393 25 17844266046131832678
11719270 70 18410001118345539801
11991303 11 18042972162730695710
12156800 1 17613187433877194783
12553582 1 17187290063133497999
12788726 201 17398378115096241842
12839892 36 18265315236643280584
12969540 37 17903639583662953558
13140716 1 18339355361746874145
13257819 37 18263945335628829956
13692114 37 18127678546834693115
138480 1 17906170646666446099
14790565 3 18410577318052153133
14863182 85 18336558143782906437
14866123 147 18266451178405622714
15131766 46 15504362585742462324
15927050 60 18410009975212273410
16728300 4 17389914822358331650
16993438 75 18044098084571824043
17138139 8 17628329852755266199
18681886 176 18334852866084854464
19591789 44 18339077215232440193
20028762 73 18343579676661796607
20567600 347 18335707109029961362
21133410 32 16162501417539291931
21133410 62 18045475747167243719
21133410 90 16624638558843276475
21197605 99 18123758810016027683
21344244 181 18059874864975052806
21421861 104 18193561060654316001
21796203 349 17043774151913441515
22956985 138 17973999549323486850
23184049 29 17545598950905324283
23366157 5 17902239914140626628
23559900 14 17835231251769554441
283562 15 18342462512703369944
3178227 256 18337116756009464489
3383291 50 18410851024472145474
38695281 34 18411134744872057107
3882209 13 17470405619158458427
4280585 95 17547855148998259606
5486654 2 18338239370234676692
57359948 33 17604708851577904245
59755656 215 18335699386979853013
6669772 16 18342460310096900950
9709674 26 18122344571768817425

>  <PUBCHEM_SHAPE_MULTIPOLES>  (1) 
537.45
9.33
6.37
0.97
7.99
8.36
-0.18
-6.74
0.08
-2.55
0.35
-0.36
0.94
-0.16

>  <PUBCHEM_SHAPE_SELFOVERLAP>  (1) 
1191.754

>  <PUBCHEM_SHAPE_VOLUME>  (1) 
287.6

>  <PUBCHEM_COORDINATE_TYPE>  (1) 
2
5
10

$$$$
