5518
     RDKit          3D

 18 19  0  0  1  0  0  0  0  0999 V2000
    2.4219   -2.0510   -0.0252 Cl  0  0  0  0  0  0  0  0  0  0  0  0
   -0.6035    2.3710    1.4306 Cl  0  0  0  0  0  0  0  0  0  0  0  0
    2.6570    1.1938    1.3246 Cl  0  0  0  0  0  0  0  0  0  0  0  0
    0.8732   -0.4702    2.7307 Cl  0  0  0  0  0  0  0  0  0  0  0  0
    3.0159    0.5875   -1.8289 Cl  0  0  0  0  0  0  0  0  0  0  0  0
   -0.5533    2.0440   -2.1151 Cl  0  0  0  0  0  0  0  0  0  0  0  0
   -3.2796    1.4868    0.5456 Cl  0  0  0  0  0  0  0  0  0  0  0  0
   -3.4926   -1.2925   -0.2992 Cl  0  0  0  0  0  0  0  0  0  0  0  0
    1.1807   -0.7955   -0.1092 C   0  0  0  0  0  0  0  0  0  0  0  0
   -0.3161   -1.3866   -0.1618 C   0  0  0  0  0  0  0  0  0  0  0  0
   -0.0485    0.9865    0.4777 C   0  0  0  0  0  0  0  0  0  0  0  0
   -1.1294   -0.1539    0.3805 C   0  0  0  0  0  0  0  0  0  0  0  0
    1.1633    0.2128    1.1006 C   0  0  0  0  0  0  0  0  0  0  0  0
    1.3383    0.1655   -1.3535 C   0  0  0  0  0  0  0  0  0  0  0  0
    0.5645    1.4226   -0.8909 C   0  0  0  0  0  0  0  0  0  0  0  0
   -0.5127   -2.6834    0.6634 C   0  0  0  0  0  0  0  0  0  0  0  0
   -0.8173   -1.7911   -1.5735 C   0  0  0  0  0  0  0  0  0  0  0  0
   -2.4620    0.1538   -0.2963 C   0  0  0  0  0  0  0  0  0  0  0  0
  1  9  1  0
  2 11  1  0
  3 13  1  0
  4 13  1  0
  5 14  1  0
  6 15  1  0
  7 18  1  0
  8 18  1  0
  9 10  1  0
  9 13  1  0
  9 14  1  0
 10 12  1  0
 10 16  1  0
 10 17  1  0
 11 12  1  0
 11 13  1  0
 11 15  1  0
 12 18  1  0
 14 15  1  0
M  END
>  <PUBCHEM_COMPOUND_CID>  (1) 
5518

>  <PUBCHEM_CONFORMER_RMSD>  (1) 
0.6

>  <PUBCHEM_CONFORMER_DIVERSEORDER>  (1) 
1
6
3
4
2
5

>  <PUBCHEM_MMFF94_PARTIAL_CHARGES>  (1) 
14
1 -0.29
11 0.29
13 0.58
14 0.29
15 0.29
18 0.58
2 -0.29
3 -0.29
4 -0.29
5 -0.29
6 -0.29
7 -0.29
8 -0.29
9 0.29

>  <PUBCHEM_EFFECTIVE_ROTOR_COUNT>  (1) 
2

>  <PUBCHEM_PHARMACOPHORE_FEATURES>  (1) 
2
3 10 16 17 hydrophobe
7 9 10 11 12 13 14 15 rings

>  <PUBCHEM_HEAVY_ATOM_COUNT>  (1) 
18

>  <PUBCHEM_ATOM_DEF_STEREO_COUNT>  (1) 
0

>  <PUBCHEM_ATOM_UDEF_STEREO_COUNT>  (1) 
5

>  <PUBCHEM_BOND_DEF_STEREO_COUNT>  (1) 
0

>  <PUBCHEM_BOND_UDEF_STEREO_COUNT>  (1) 
0

>  <PUBCHEM_ISOTOPIC_ATOM_COUNT>  (1) 
0

>  <PUBCHEM_COMPONENT_COUNT>  (1) 
1

>  <PUBCHEM_CACTVS_TAUTO_COUNT>  (1) 
1

>  <PUBCHEM_CONFORMER_ID>  (1) 
0000158E00000001

>  <PUBCHEM_MMFF94_ENERGY>  (1) 
112.2347

>  <PUBCHEM_FEATURE_SELFOVERLAP>  (1) 
10.148

>  <PUBCHEM_SHAPE_FINGERPRINT>  (1) 
10863032 1 18271528615131793621
10948715 1 17774148145213035240
12423570 1 12940974713574589032
12491281 212 18117589312426967060
13024252 1 16156833679925728148
13140716 1 18272370811417147483
13172582 1 18261104180038777001
144361 1 17827080601858164149
14817 1 11660141085484331330
15881359 60 17758074200153584821
16945 1 18190192362831662853
20511035 2 18341621420756984367
20691752 17 18334851714837647555
22112679 90 17969211399179183020
22344851 12 11649545650210106495
22344851 262 18193829564502718706
2334 1 18201715171950618049
23419403 2 17256492268349872611
23559900 14 17845951641118269756
2748010 2 18060695091942952073
3286 77 18059282180714880431
5084963 1 18118406150602620214
528886 8 18188508907344847356

>  <PUBCHEM_SHAPE_MULTIPOLES>  (1) 
385.39
4.04
2.65
2.15
1.65
0.47
0.29
-0.05
-0.4
0.48
-0.04
-1.02
-0.66
-0.33

>  <PUBCHEM_SHAPE_SELFOVERLAP>  (1) 
734.183

>  <PUBCHEM_SHAPE_VOLUME>  (1) 
235.2

>  <PUBCHEM_COORDINATE_TYPE>  (1) 
2
5
10

$$$$
