5520
     RDKit          3D

 10 10  0  0  1  0  0  0  0  0999 V2000
    1.7397   -0.0161    0.1734 P   0  0  0  0  0  0  0  0  0  0  0  0
    2.3457    1.2549    0.7791 O   0  0  0  0  0  0  0  0  0  0  0  0
    2.4152   -1.3416    0.5433 O   0  0  0  0  0  0  0  0  0  0  0  0
   -2.8318    0.0133    0.2947 N   0  0  0  0  0  0  0  0  0  0  0  0
   -2.1682    1.2088   -0.3061 C   0  0  0  0  0  0  0  0  0  0  0  0
   -0.7203    1.2681    0.1744 C   0  0  0  0  0  0  0  0  0  0  0  0
   -0.0050   -0.0555    0.0967 C   0  0  0  0  0  0  0  0  0  0  0  0
   -2.1650   -1.2749   -0.0885 C   0  0  0  0  0  0  0  0  0  0  0  0
   -0.6722   -1.2127   -0.0373 C   0  0  0  0  0  0  0  0  0  0  0  0
    2.0621    0.1557   -1.6298 C   0  0  0  0  0  0  0  0  0  0  0  0
  1  2  1  0
  1  3  2  0
  1  7  1  0
  1 10  1  0
  4  5  1  0
  4  8  1  0
  5  6  1  0
  6  7  1  0
  7  9  2  0
  8  9  1  0
M  CHG  2   2  -1   4   1
M  END
>  <PUBCHEM_COMPOUND_CID>  (1) 
5520

>  <PUBCHEM_CONFORMER_RMSD>  (1) 
0.4

>  <PUBCHEM_CONFORMER_DIVERSEORDER>  (1) 
1
4
3
2

>  <PUBCHEM_MMFF94_PARTIAL_CHARGES>  (1) 
12
1 1.05
15 0.45
16 0.45
19 0.15
2 -0.95
3 -0.95
4 -0.91
5 0.5
6 0.14
7 -0.29
8 0.64
9 -0.29

>  <PUBCHEM_EFFECTIVE_ROTOR_COUNT>  (1) 
1.8

>  <PUBCHEM_PHARMACOPHORE_FEATURES>  (1) 
3
1 4 cation
1 4 donor
6 4 5 6 7 8 9 rings

>  <PUBCHEM_HEAVY_ATOM_COUNT>  (1) 
10

>  <PUBCHEM_ATOM_DEF_STEREO_COUNT>  (1) 
0

>  <PUBCHEM_ATOM_UDEF_STEREO_COUNT>  (1) 
0

>  <PUBCHEM_BOND_DEF_STEREO_COUNT>  (1) 
0

>  <PUBCHEM_BOND_UDEF_STEREO_COUNT>  (1) 
0

>  <PUBCHEM_ISOTOPIC_ATOM_COUNT>  (1) 
0

>  <PUBCHEM_COMPONENT_COUNT>  (1) 
1

>  <PUBCHEM_CACTVS_TAUTO_COUNT>  (1) 
1

>  <PUBCHEM_CONFORMER_ID>  (1) 
0000159000000001

>  <PUBCHEM_MMFF94_ENERGY>  (1) 
5.6592

>  <PUBCHEM_FEATURE_SELFOVERLAP>  (1) 
15.223

>  <PUBCHEM_SHAPE_FINGERPRINT>  (1) 
10857977 72 18339072821591478065
12524768 44 18131355240739948741
12716758 59 18410011009655131395
12897270 3 18412549833342755300
12932741 1 18060144244890931308
12932764 1 18411989065317174715
14325111 11 18410569565878205393
14390081 3 18341328967716998289
15310529 11 17603598425588661669
15775835 57 18335709303642120656
16945 1 18189339133392621381
19973954 147 18413666907160688264
20201158 50 17846502504263631870
20645464 45 18060135461619370992
20653085 51 16515676707142366047
21040471 1 18337674100977407165
23235687 12 17561077029366049054
23552423 10 18113337496398448962
2748010 2 18412823611917445493
3248919 1 17313383460929260747
369184 2 18412819192406621467
5084963 1 17895478007602246465
8030462 33 18333452066341849015

>  <PUBCHEM_SHAPE_MULTIPOLES>  (1) 
192.93
4.05
1.52
0.97
0.05
0.04
-0.35
0.03
0
0.3
0.14
-0.72
-0.09
0.01

>  <PUBCHEM_SHAPE_SELFOVERLAP>  (1) 
360.879

>  <PUBCHEM_SHAPE_VOLUME>  (1) 
121.1

>  <PUBCHEM_COORDINATE_TYPE>  (1) 
2
5
10

$$$$
