5523
     RDKit          3D

 19 20  0  0  1  0  0  0  0  0999 V2000
   -0.4836    1.2560   -1.6525 O   0  0  0  0  0  0  0  0  0  0  0  0
    4.2921    0.1866   -0.9419 O   0  0  0  0  0  0  0  0  0  0  0  0
   -2.8601   -2.0324   -0.3341 N   0  0  0  0  0  0  0  0  0  0  0  0
   -1.7425    0.0942    0.0783 C   0  0  0  0  0  0  0  0  0  0  0  0
   -0.5091    0.9985   -0.2402 C   0  0  0  0  0  0  0  0  0  0  0  0
   -3.0775    0.8322   -0.1439 C   0  0  0  0  0  0  0  0  0  0  0  0
   -0.6234    2.3674    0.4749 C   0  0  0  0  0  0  0  0  0  0  0  0
   -3.1325    2.1559    0.6104 C   0  0  0  0  0  0  0  0  0  0  0  0
   -1.9653    3.0624    0.2444 C   0  0  0  0  0  0  0  0  0  0  0  0
   -1.7512   -1.2043   -0.7416 C   0  0  0  0  0  0  0  0  0  0  0  0
    0.8141    0.3333    0.1664 C   0  0  0  0  0  0  0  0  0  0  0  0
    1.9636    0.5670   -0.5822 C   0  0  0  0  0  0  0  0  0  0  0  0
    0.8546   -0.4988    1.2809 C   0  0  0  0  0  0  0  0  0  0  0  0
   -2.7657   -2.3825    1.0900 C   0  0  0  0  0  0  0  0  0  0  0  0
   -2.9322   -3.2581   -1.1412 C   0  0  0  0  0  0  0  0  0  0  0  0
    3.1652   -0.0372   -0.2125 C   0  0  0  0  0  0  0  0  0  0  0  0
    2.0561   -1.1032    1.6504 C   0  0  0  0  0  0  0  0  0  0  0  0
    3.2115   -0.8724    0.9036 C   0  0  0  0  0  0  0  0  0  0  0  0
    5.4859   -0.4644   -0.5090 C   0  0  0  0  0  0  0  0  0  0  0  0
  1  5  1  0
  2 16  1  0
  2 19  1  0
  3 10  1  0
  3 14  1  0
  3 15  1  0
  4  5  1  0
  4  6  1  0
  4 10  1  0
  5  7  1  0
  5 11  1  0
  6  8  1  0
  7  9  1  0
  8  9  1  0
 11 12  2  0
 11 13  1  0
 12 16  1  0
 13 17  2  0
 16 18  2  0
 17 18  1  0
M  END
>  <PUBCHEM_COMPOUND_CID>  (1) 
5523

>  <PUBCHEM_CONFORMER_RMSD>  (1) 
0.8

>  <PUBCHEM_CONFORMER_DIVERSEORDER>  (1) 
9
43
20
22
11
49
15
30
44
14
35
39
24
46
45
26
48
12
29
1
33
38
41
18
31
40
36
21
34
3
16
5
47
19
37
13
10
25
4
2
42
17
27
28
6
23
32
7
8

>  <PUBCHEM_MMFF94_PARTIAL_CHARGES>  (1) 
19
1 -0.68
10 0.27
11 -0.14
12 -0.15
13 -0.15
14 0.27
15 0.27
16 0.08
17 -0.15
18 -0.15
19 0.28
2 -0.36
3 -0.81
31 0.4
32 0.15
33 0.15
40 0.15
41 0.15
5 0.42

>  <PUBCHEM_EFFECTIVE_ROTOR_COUNT>  (1) 
5.2

>  <PUBCHEM_PHARMACOPHORE_FEATURES>  (1) 
6
1 1 acceptor
1 1 donor
1 2 acceptor
1 3 cation
6 11 12 13 16 17 18 rings
6 4 5 6 7 8 9 rings

>  <PUBCHEM_HEAVY_ATOM_COUNT>  (1) 
19

>  <PUBCHEM_ATOM_DEF_STEREO_COUNT>  (1) 
0

>  <PUBCHEM_ATOM_UDEF_STEREO_COUNT>  (1) 
2

>  <PUBCHEM_BOND_DEF_STEREO_COUNT>  (1) 
0

>  <PUBCHEM_BOND_UDEF_STEREO_COUNT>  (1) 
0

>  <PUBCHEM_ISOTOPIC_ATOM_COUNT>  (1) 
0

>  <PUBCHEM_COMPONENT_COUNT>  (1) 
1

>  <PUBCHEM_CACTVS_TAUTO_COUNT>  (1) 
1

>  <PUBCHEM_CONFORMER_ID>  (1) 
0000159300000009

>  <PUBCHEM_MMFF94_ENERGY>  (1) 
66.0468

>  <PUBCHEM_FEATURE_SELFOVERLAP>  (1) 
30.446

>  <PUBCHEM_SHAPE_FINGERPRINT>  (1) 
10366900 7 17631721682353616732
104564 63 18409730677124300099
10616163 171 18411420592168205830
121448 382 17385722547514113634
12173636 292 18051963732278049772
12236239 1 18114467747191603832
12403814 3 17531527564407728285
12500047 106 18199465476454766224
12553582 1 18266170819898966883
12633257 1 14619405240829800063
12714826 92 17989207061881416346
12788726 201 18408879625402294675
13538477 17 18335977584447695008
14178342 30 18266156397498325498
14787075 74 17831296473453445276
15042514 8 18411709781280089801
15279307 12 18189614934527805714
15309172 13 18049441444388374785
15415430 112 18408322176774237651
15669948 3 18409725123520161032
15842332 3 18042109982548232258
15906896 17 18336548210029693115
16752209 62 18194381339399758629
16945 1 18340760443101936977
18785283 64 17186447837390236689
20645476 183 18265615377358143369
20645477 70 17547273967293931791
20681677 155 18340208483916974848
21041028 32 18119828030012822971
21452121 199 17980747552735172321
21634736 98 18261956370227608212
21731516 1 18195239151569041331
22094290 60 18342741831843062382
22620623 9 18272101495313639942
23184049 29 18268698579919108433
23402539 116 18113621196948687374
23419403 2 16822142663961089189
23493267 7 18058450911338030872
23526113 38 17202771375963014254
23557571 272 18130772487114494624
23559900 14 18271796956288917464
23566358 27 17897170122244888858
23598288 3 18337404836961964967
23598291 2 18042395838270408194
23598294 1 18411133628101582043
238078 22 18337394936671931250
25147074 1 17968649424811378130
2748010 2 18125983087346541977
474 4 17677065619873505932
4921388 177 18341901753388198726
6049 1 17704063036549229264
633830 44 17531264820379156598
7364860 26 17476352177066565647
77492 1 18113896009893123248
7970288 3 18125438858929737462
81228 2 18269815598002459521
90525 40 18046619002155116145
9709674 26 18129948866874082134

>  <PUBCHEM_SHAPE_MULTIPOLES>  (1) 
374.29
7.51
3.14
1.28
9.4
0.48
-0.13
2.1
1.1
-5.05
0.1
0.27
0.43
-0.95

>  <PUBCHEM_SHAPE_SELFOVERLAP>  (1) 
771.974

>  <PUBCHEM_SHAPE_VOLUME>  (1) 
215.1

>  <PUBCHEM_COORDINATE_TYPE>  (1) 
2
5
10

$$$$
