5525
     RDKit          3D

 31 33  0  0  1  0  0  0  0  0999 V2000
   -0.4418   -1.7291   -0.8908 O   0  0  0  0  0  0  0  0  0  0  0  0
   -2.9299    2.9479    0.0802 O   0  0  0  0  0  0  0  0  0  0  0  0
   -1.8858    1.4932    1.4907 O   0  0  0  0  0  0  0  0  0  0  0  0
    0.9637    3.0882    0.6163 O   0  0  0  0  0  0  0  0  0  0  0  0
    1.4807    3.1488   -1.6295 O   0  0  0  0  0  0  0  0  0  0  0  0
   -2.3391   -0.5320   -0.3227 N   0  0  0  0  0  0  0  0  0  0  0  0
    0.8239    0.4493   -1.7087 N   0  0  0  0  0  0  0  0  0  0  0  0
   -4.1124   -0.9248    1.1897 C   0  0  0  0  0  0  0  0  0  0  0  0
   -2.9885   -1.6279    0.4131 C   0  0  0  0  0  0  0  0  0  0  0  0
   -4.5316    0.1931    0.2232 C   0  0  0  0  0  0  0  0  0  0  0  0
   -3.1958    0.6551   -0.3614 C   0  0  0  0  0  0  0  0  0  0  0  0
   -5.2509   -1.8259    1.6576 C   0  0  0  0  0  0  0  0  0  0  0  0
   -3.4961   -2.7019   -0.5639 C   0  0  0  0  0  0  0  0  0  0  0  0
   -5.7047   -2.8400    0.6154 C   0  0  0  0  0  0  0  0  0  0  0  0
   -4.5230   -3.6300    0.0696 C   0  0  0  0  0  0  0  0  0  0  0  0
   -1.1191   -0.7012   -0.9621 C   0  0  0  0  0  0  0  0  0  0  0  0
   -2.5893    1.7102    0.5153 C   0  0  0  0  0  0  0  0  0  0  0  0
   -0.6272    0.4684   -1.7771 C   0  0  0  0  0  0  0  0  0  0  0  0
   -1.1072    0.3400   -3.2088 C   0  0  0  0  0  0  0  0  0  0  0  0
    1.2975    1.0173   -0.4522 C   0  0  0  0  0  0  0  0  0  0  0  0
    2.7263    0.5558   -0.1224 C   0  0  0  0  0  0  0  0  0  0  0  0
    1.2699    2.5301   -0.5943 C   0  0  0  0  0  0  0  0  0  0  0  0
    2.9123   -0.9630    0.0017 C   0  0  0  0  0  0  0  0  0  0  0  0
    4.3368   -1.3818    0.2646 C   0  0  0  0  0  0  0  0  0  0  0  0
    0.8926    4.5175    0.6369 C   0  0  0  0  0  0  0  0  0  0  0  0
    4.7978   -1.5025    1.5757 C   0  0  0  0  0  0  0  0  0  0  0  0
    5.1939   -1.6479   -0.8033 C   0  0  0  0  0  0  0  0  0  0  0  0
    6.1158   -1.8896    1.8186 C   0  0  0  0  0  0  0  0  0  0  0  0
    6.5117   -2.0350   -0.5603 C   0  0  0  0  0  0  0  0  0  0  0  0
    0.5470    4.9737    2.0383 C   0  0  0  0  0  0  0  0  0  0  0  0
    6.9727   -2.1558    0.7506 C   0  0  0  0  0  0  0  0  0  0  0  0
  1 16  2  0
  2 17  1  0
  3 17  2  0
  4 22  1  0
  4 25  1  0
  5 22  2  0
  6  9  1  0
  6 11  1  0
  6 16  1  0
  7 18  1  0
  7 20  1  0
  8  9  1  0
  8 10  1  0
  8 12  1  0
  9 13  1  0
 10 11  1  0
 11 17  1  0
 12 14  1  0
 13 15  1  0
 14 15  1  0
 16 18  1  0
 18 19  1  0
 20 21  1  0
 20 22  1  0
 21 23  1  0
 23 24  1  0
 24 26  2  0
 24 27  1  0
 25 30  1  0
 26 28  1  0
 27 29  2  0
 28 31  2  0
 29 31  1  0
M  END
>  <PUBCHEM_COMPOUND_CID>  (1) 
5525

>  <PUBCHEM_CONFORMER_RMSD>  (1) 
1.4

>  <PUBCHEM_CONFORMER_DIVERSEORDER>  (1) 
1
217
244
161
74
227
199
225
247
178
197
155
205
167
88
96
157
136
63
195
188
186
266
184
68
248
93
158
148
177
162
209
75
127
57
99
89
108
76
11
185
172
183
242
154
265
212
180
235
25
236
203
220
106
16
41
146
202
267
56
27
47
156
50
152
173
171
65
272
24
149
164
71
239
181
124
166
163
198
80
262
40
131
196
138
140
250
213
192
36
141
123
174
128
182
168
73
113
121
234
153
215
59
222
104
134
125
229
189
28
101
94
83
110
85
49
109
249
259
137
142
246
257
122
20
72
252
165
211
34
271
258
79
70
102
84
179
255
200
38
214
169
111
228
224
129
87
97
133
116
26
35
270
219
193
160
256
187
78
48
107
19
268
112
145
207
64
105
22
14
238
31
43
92
86
12
82
69
135
139
223
251
29
143
53
201
204
216
237
190
42
44
61
226
30
21
5
55
9
147
254
120
98
218
151
95
67
253
54
90
231
144
126
261
32
13
175
241
232
10
7
245
132
46
118
23
191
176
260
58
269
230
3
194
52
66
100
221
119
60
91
51
8
240
45
233
37
18
62
263
208
33
77
15
115
150
103
264
4
114
130
170
206
159
39
2
81
117
17
6
243
210

>  <PUBCHEM_MMFF94_PARTIAL_CHARGES>  (1) 
29
1 -0.57
11 0.36
16 0.57
17 0.66
18 0.33
2 -0.65
20 0.33
22 0.66
23 0.14
24 -0.14
25 0.28
26 -0.15
27 -0.15
28 -0.15
29 -0.15
3 -0.57
31 -0.15
4 -0.43
46 0.36
5 -0.57
50 0.5
56 0.15
57 0.15
6 -0.66
60 0.15
61 0.15
65 0.15
7 -0.9
9 0.3

>  <PUBCHEM_EFFECTIVE_ROTOR_COUNT>  (1) 
12.4

>  <PUBCHEM_PHARMACOPHORE_FEATURES>  (1) 
10
1 1 acceptor
1 2 acceptor
1 3 acceptor
1 5 acceptor
1 7 cation
1 7 donor
3 2 3 17 anion
5 6 8 9 10 11 rings
6 24 26 27 28 29 31 rings
6 8 9 12 13 14 15 rings

>  <PUBCHEM_HEAVY_ATOM_COUNT>  (1) 
31

>  <PUBCHEM_ATOM_DEF_STEREO_COUNT>  (1) 
0

>  <PUBCHEM_ATOM_UDEF_STEREO_COUNT>  (1) 
5

>  <PUBCHEM_BOND_DEF_STEREO_COUNT>  (1) 
0

>  <PUBCHEM_BOND_UDEF_STEREO_COUNT>  (1) 
0

>  <PUBCHEM_ISOTOPIC_ATOM_COUNT>  (1) 
0

>  <PUBCHEM_COMPONENT_COUNT>  (1) 
1

>  <PUBCHEM_CACTVS_TAUTO_COUNT>  (1) 
1

>  <PUBCHEM_CONFORMER_ID>  (1) 
0000159500000001

>  <PUBCHEM_MMFF94_ENERGY>  (1) 
59.0882

>  <PUBCHEM_FEATURE_SELFOVERLAP>  (1) 
50.95

>  <PUBCHEM_SHAPE_FINGERPRINT>  (1) 
10074138 170 17983015548844885272
11456790 92 18338251388550119417
11578080 2 18044077172534081541
12107183 9 18336272236922068793
12633257 1 18270418139006366465
12788726 201 18340219483982393044
13009979 54 18411991251677360256
13103583 49 18339652148086380970
13135754 10 18126856984716682220
13533116 47 18119250812247070507
13673619 4 17967533492838021854
14068700 675 18408604790250111099
14114206 34 14490466452784774405
14251764 30 18113617889460353330
14955137 171 18413674616885414910
15878777 1 10155436080153669540
17492 89 18263084486543615651
17780758 139 18337666430166128386
19319366 153 17833278892944953116
19841028 212 17972037204989961763
20775530 9 18040711493593408955
21033648 29 16558480690173878556
23522609 53 17606429591369757300
23559900 14 18337665434102571569
2747138 104 18341607093769276890
2838139 119 11599708581244190198
3418910 222 18409446952961689976
4409770 3 17898280598454790469
469060 322 18116722820439872776
474113 269 18270672178160330607
484985 159 17899967245233519094
5104073 3 18343588472659789065
5486654 36 18186807967278408091
57527573 199 17769100042744334357
7288768 16 16616165820459788281

>  <PUBCHEM_SHAPE_MULTIPOLES>  (1) 
598.66
14.08
5.29
1.94
15.16
6.64
-0.74
-19.24
5.89
-0.62
2.37
0.14
0.64
-0.16

>  <PUBCHEM_SHAPE_SELFOVERLAP>  (1) 
1242.671

>  <PUBCHEM_SHAPE_VOLUME>  (1) 
340

>  <PUBCHEM_COORDINATE_TYPE>  (1) 
2
5
10

$$$$
