5530
     RDKit          3D

 10 11  0  0  1  0  0  0  0  0999 V2000
    3.5190    0.8666    0.2031 N   0  0  0  0  0  0  0  0  0  0  0  0
    1.2915   -0.1167   -0.5946 C   0  0  0  0  0  0  0  0  0  0  0  0
    2.2800    0.1429    0.4993 C   0  0  0  0  0  0  0  0  0  0  0  0
    2.0847   -1.2503   -0.0227 C   0  0  0  0  0  0  0  0  0  0  0  0
   -0.1655   -0.0253   -0.2948 C   0  0  0  0  0  0  0  0  0  0  0  0
   -0.7900    1.2207   -0.2401 C   0  0  0  0  0  0  0  0  0  0  0  0
   -0.9046   -1.1864   -0.0690 C   0  0  0  0  0  0  0  0  0  0  0  0
   -2.1537    1.3056    0.0407 C   0  0  0  0  0  0  0  0  0  0  0  0
   -2.2684   -1.1016    0.2116 C   0  0  0  0  0  0  0  0  0  0  0  0
   -2.8929    0.1445    0.2665 C   0  0  0  0  0  0  0  0  0  0  0  0
  1  3  1  0
  2  3  1  0
  2  4  1  0
  2  5  1  0
  3  4  1  0
  5  6  2  0
  5  7  1  0
  6  8  1  0
  7  9  2  0
  8 10  2  0
  9 10  1  0
M  END
>  <PUBCHEM_COMPOUND_CID>  (1) 
5530

>  <PUBCHEM_CONFORMER_RMSD>  (1) 
0.4

>  <PUBCHEM_CONFORMER_DIVERSEORDER>  (1) 
1
3
4
2

>  <PUBCHEM_MMFF94_PARTIAL_CHARGES>  (1) 
21
1 -0.88
10 -0.15
11 0.1
12 0.1
13 0.1
14 0.1
15 0.36
16 0.36
17 0.15
18 0.15
19 0.15
2 -0.07
20 0.15
21 0.15
3 0.06
4 -0.2
5 -0.03
6 -0.15
7 -0.15
8 -0.15
9 -0.15

>  <PUBCHEM_EFFECTIVE_ROTOR_COUNT>  (1) 
1.6

>  <PUBCHEM_PHARMACOPHORE_FEATURES>  (1) 
3
1 1 cation
1 1 donor
6 5 6 7 8 9 10 rings

>  <PUBCHEM_HEAVY_ATOM_COUNT>  (1) 
10

>  <PUBCHEM_ATOM_DEF_STEREO_COUNT>  (1) 
0

>  <PUBCHEM_ATOM_UDEF_STEREO_COUNT>  (1) 
2

>  <PUBCHEM_BOND_DEF_STEREO_COUNT>  (1) 
0

>  <PUBCHEM_BOND_UDEF_STEREO_COUNT>  (1) 
0

>  <PUBCHEM_ISOTOPIC_ATOM_COUNT>  (1) 
0

>  <PUBCHEM_COMPONENT_COUNT>  (1) 
1

>  <PUBCHEM_CACTVS_TAUTO_COUNT>  (1) 
1

>  <PUBCHEM_CONFORMER_ID>  (1) 
0000159A00000001

>  <PUBCHEM_MMFF94_ENERGY>  (1) 
25.1708

>  <PUBCHEM_FEATURE_SELFOVERLAP>  (1) 
15.223

>  <PUBCHEM_SHAPE_FINGERPRINT>  (1) 
10857977 72 18410288150941249265
11062470 55 17240478130462183893
12932764 1 17749953245804152670
13024252 1 14273453669847264365
14325111 11 18411418367137197901
14390081 3 18272368659263965888
15775835 57 18411985736617241825
16945 1 18335428984211884383
19973954 147 18342178808706489424
20528008 55 18412256246727172261
20645464 45 18201721730054533542
20871998 184 18200599214872479983
21040471 1 18192721042196923741
23552423 10 18114469984779835879
2748010 2 18265059033169600375
29004967 10 14851608769141829310
3248919 1 18272362027913484662
369184 2 18412260610466621075
5084963 1 18042134149943837663
6333449 129 18341890809695314831
75552 356 18335421308868020979

>  <PUBCHEM_SHAPE_MULTIPOLES>  (1) 
200.81
4.72
1.43
0.7
1.86
0.03
0.01
-0.6
-0.71
-0.31
0
0.07
0
0.14

>  <PUBCHEM_SHAPE_SELFOVERLAP>  (1) 
419.782

>  <PUBCHEM_SHAPE_VOLUME>  (1) 
114.2

>  <PUBCHEM_COORDINATE_TYPE>  (1) 
2
5
10

$$$$
