5532
     RDKit          3D

 43 47  0  0  1  0  0  0  0  0999 V2000
    2.0140   -1.7369   -2.7331 O   0  0  0  0  0  0  0  0  0  0  0  0
    3.0582   -0.6884    2.6237 O   0  0  0  0  0  0  0  0  0  0  0  0
   -8.7881   -1.1328    2.2797 O   0  0  0  0  0  0  0  0  0  0  0  0
   -0.4288    0.5626   -2.9987 O   0  0  0  0  0  0  0  0  0  0  0  0
    2.5283    2.5260   -1.3048 O   0  0  0  0  0  0  0  0  0  0  0  0
   -6.6337    0.0433    0.7998 O   0  0  0  0  0  0  0  0  0  0  0  0
    2.8694   -2.0601    0.7835 N   0  0  0  0  0  0  0  0  0  0  0  0
    0.6163   -1.7623   -0.8879 N   0  0  0  0  0  0  0  0  0  0  0  0
    2.0472    0.9866    0.3676 N   0  0  0  0  0  0  0  0  0  0  0  0
   -0.4022    0.8799   -0.6980 N   0  0  0  0  0  0  0  0  0  0  0  0
    2.9794   -2.4000   -0.6418 C   0  0  0  0  0  0  0  0  0  0  0  0
    2.9583   -3.9380   -0.6774 C   0  0  0  0  0  0  0  0  0  0  0  0
    3.3316   -4.3537    0.7370 C   0  0  0  0  0  0  0  0  0  0  0  0
    2.6993   -3.2664    1.5833 C   0  0  0  0  0  0  0  0  0  0  0  0
    1.8430   -1.8842   -1.5217 C   0  0  0  0  0  0  0  0  0  0  0  0
    3.1203   -0.8384    1.3981 C   0  0  0  0  0  0  0  0  0  0  0  0
    3.3586    0.3724    0.4969 C   0  0  0  0  0  0  0  0  0  0  0  0
   -0.6048   -1.3784   -1.5938 C   0  0  0  0  0  0  0  0  0  0  0  0
   -1.8537   -1.7576   -0.8142 C   0  0  0  0  0  0  0  0  0  0  0  0
    4.3611    1.3312    1.1308 C   0  0  0  0  0  0  0  0  0  0  0  0
   -3.1236   -1.3165   -1.5419 C   0  0  0  0  0  0  0  0  0  0  0  0
    0.2182    2.1975   -0.6977 C   0  0  0  0  0  0  0  0  0  0  0  0
   -0.4938    0.1183   -1.8531 C   0  0  0  0  0  0  0  0  0  0  0  0
   -4.3791   -1.7292   -0.7708 C   0  0  0  0  0  0  0  0  0  0  0  0
    1.7190    1.9180   -0.6072 C   0  0  0  0  0  0  0  0  0  0  0  0
   -5.6502   -1.3207   -1.5208 C   0  0  0  0  0  0  0  0  0  0  0  0
   -0.2682    3.0474    0.4627 C   0  0  0  0  0  0  0  0  0  0  0  0
   -6.9218   -1.7442   -0.7908 C   0  0  0  0  0  0  0  0  0  0  0  0
    5.7802    0.9256    0.8380 C   0  0  0  0  0  0  0  0  0  0  0  0
   -7.7474   -1.8672    1.6223 C   0  0  0  0  0  0  0  0  0  0  0  0
   -7.0544   -1.0827    0.5606 C   0  0  0  0  0  0  0  0  0  0  0  0
   -9.1932   -2.2383    1.4621 C   0  0  0  0  0  0  0  0  0  0  0  0
   -1.7522    3.3013    0.3911 C   0  0  0  0  0  0  0  0  0  0  0  0
    6.4512    0.0613    1.7032 C   0  0  0  0  0  0  0  0  0  0  0  0
    6.4247    1.4134   -0.2989 C   0  0  0  0  0  0  0  0  0  0  0  0
   -2.2365    4.4183   -0.2898 C   0  0  0  0  0  0  0  0  0  0  0  0
   -2.6413    2.4193    1.0054 C   0  0  0  0  0  0  0  0  0  0  0  0
    7.7666   -0.3149    1.4319 C   0  0  0  0  0  0  0  0  0  0  0  0
    7.7402    1.0369   -0.5703 C   0  0  0  0  0  0  0  0  0  0  0  0
    8.4111    0.1727    0.2952 C   0  0  0  0  0  0  0  0  0  0  0  0
   -3.6099    4.6533   -0.3564 C   0  0  0  0  0  0  0  0  0  0  0  0
   -4.0146    2.6543    0.9387 C   0  0  0  0  0  0  0  0  0  0  0  0
   -4.4988    3.7713    0.2578 C   0  0  0  0  0  0  0  0  0  0  0  0
  1 15  2  0
  2 16  2  0
  3 30  1  0
  3 32  1  0
  4 23  2  0
  5 25  2  0
  6 31  2  0
  7 11  1  0
  7 14  1  0
  7 16  1  0
  8 15  1  0
  8 18  1  0
  9 17  1  0
  9 25  1  0
 10 22  1  0
 10 23  1  0
 11 12  1  0
 11 15  1  0
 12 13  1  0
 13 14  1  0
 16 17  1  0
 17 20  1  0
 18 19  1  0
 18 23  1  0
 19 21  1  0
 20 29  1  0
 21 24  1  0
 22 25  1  0
 22 27  1  0
 24 26  1  0
 26 28  1  0
 27 33  1  0
 28 31  1  0
 29 34  2  0
 29 35  1  0
 30 31  1  0
 30 32  1  0
 33 36  2  0
 33 37  1  0
 34 38  1  0
 35 39  2  0
 36 41  1  0
 37 42  2  0
 38 40  2  0
 39 40  1  0
 41 43  2  0
 42 43  1  0
M  END
>  <PUBCHEM_COMPOUND_CID>  (1) 
5532

>  <PUBCHEM_CONFORMER_RMSD>  (1) 
2

>  <PUBCHEM_CONFORMER_DIVERSEORDER>  (1) 
1
59
67
69
3
41
10
50
39
49
53
15
21
60
44
54
23
19
40
7
66
65
33
22
34
11
25
4
61
37
26
47
32
31
6
55
24
48
64
16
43
13
20
62
27
30
58
2
46
52
68
28
35
57
5
36
63
17
45
42
38
56
51
12
18
29
9
14
8

>  <PUBCHEM_MMFF94_PARTIAL_CHARGES>  (1) 
53
1 -0.57
10 -0.73
11 0.36
14 0.3
15 0.57
16 0.57
17 0.36
18 0.36
2 -0.57
20 0.14
22 0.36
23 0.57
25 0.57
27 0.14
28 0.06
29 -0.14
3 -0.3
30 0.05
31 0.51
32 -0.05
33 -0.14
34 -0.15
35 -0.15
36 -0.15
37 -0.15
38 -0.15
39 -0.15
4 -0.57
40 -0.15
41 -0.15
42 -0.15
43 -0.15
5 -0.57
53 0.37
6 -0.57
60 0.37
66 0.37
7 -0.66
71 0.1
72 0.1
73 0.1
74 0.15
75 0.15
76 0.15
77 0.15
78 0.15
79 0.15
8 -0.73
80 0.15
81 0.15
82 0.15
83 0.15
9 -0.73

>  <PUBCHEM_EFFECTIVE_ROTOR_COUNT>  (1) 
13.4

>  <PUBCHEM_PHARMACOPHORE_FEATURES>  (1) 
13
1 1 acceptor
1 10 donor
1 2 acceptor
1 3 acceptor
1 4 acceptor
1 5 acceptor
1 6 acceptor
1 8 donor
1 9 donor
5 19 21 24 26 28 hydrophobe
5 7 11 12 13 14 rings
6 29 34 35 38 39 40 rings
6 33 36 37 41 42 43 rings

>  <PUBCHEM_HEAVY_ATOM_COUNT>  (1) 
43

>  <PUBCHEM_ATOM_DEF_STEREO_COUNT>  (1) 
0

>  <PUBCHEM_ATOM_UDEF_STEREO_COUNT>  (1) 
5

>  <PUBCHEM_BOND_DEF_STEREO_COUNT>  (1) 
0

>  <PUBCHEM_BOND_UDEF_STEREO_COUNT>  (1) 
0

>  <PUBCHEM_ISOTOPIC_ATOM_COUNT>  (1) 
0

>  <PUBCHEM_COMPONENT_COUNT>  (1) 
1

>  <PUBCHEM_CACTVS_TAUTO_COUNT>  (1) 
24

>  <PUBCHEM_CONFORMER_ID>  (1) 
0000159C00000001

>  <PUBCHEM_MMFF94_ENERGY>  (1) 
113.3014

>  <PUBCHEM_FEATURE_SELFOVERLAP>  (1) 
65.987

>  <PUBCHEM_SHAPE_FINGERPRINT>  (1) 
10190108 129 18341612646254492592
12422481 6 17846219913476216691
15347590 135 18334576854306154779
16992727 255 10159700200777959441
19311894 1 17840286042258177926
3178227 256 18262517112868571678
3552219 110 18113900493633661524
444735 79 18411422808513378809
4461854 278 18201162147387907143
6523845 18 15697709376532811222

>  <PUBCHEM_SHAPE_MULTIPOLES>  (1) 
829.78
22.23
5.49
2.09
15.54
2.7
0.28
-8.47
-12.65
4.17
-0.14
0.69
-1.08
0.29

>  <PUBCHEM_SHAPE_SELFOVERLAP>  (1) 
1747.858

>  <PUBCHEM_SHAPE_VOLUME>  (1) 
461.3

>  <PUBCHEM_COORDINATE_TYPE>  (1) 
2
5
10

$$$$
