5536
     RDKit          3D

 22 22  0  0  0  0  0  0  0  0999 V2000
    0.1636    2.8012   -0.3683 O   0  0  0  0  0  0  0  0  0  0  0  0
   -2.2969   -2.1223   -0.7106 O   0  0  0  0  0  0  0  0  0  0  0  0
   -3.8040    0.1748   -0.2886 O   0  0  0  0  0  0  0  0  0  0  0  0
    2.3180    1.5127   -1.2744 O   0  0  0  0  0  0  0  0  0  0  0  0
    6.0655   -1.1305    1.0131 O   0  0  0  0  0  0  0  0  0  0  0  0
    4.4285   -2.6228    0.5021 O   0  0  0  0  0  0  0  0  0  0  0  0
    0.3231    0.4262   -0.6658 C   0  0  0  0  0  0  0  0  0  0  0  0
   -0.4332    1.5789   -0.4542 C   0  0  0  0  0  0  0  0  0  0  0  0
   -1.6931   -0.9042   -0.6250 C   0  0  0  0  0  0  0  0  0  0  0  0
    2.6423   -0.6897   -0.3523 C   0  0  0  0  0  0  0  0  0  0  0  0
   -0.3068   -0.8154   -0.7511 C   0  0  0  0  0  0  0  0  0  0  0  0
    1.8077    0.4987   -0.8036 C   0  0  0  0  0  0  0  0  0  0  0  0
   -2.4495    0.2486   -0.4133 C   0  0  0  0  0  0  0  0  0  0  0  0
   -1.8195    1.4901   -0.3279 C   0  0  0  0  0  0  0  0  0  0  0  0
    4.0320   -0.2727    0.1150 C   0  0  0  0  0  0  0  0  0  0  0  0
   -0.0132    3.5241    0.8480 C   0  0  0  0  0  0  0  0  0  0  0  0
   -1.9109   -3.1058    0.2474 C   0  0  0  0  0  0  0  0  0  0  0  0
   -4.3684    0.6403    0.9357 C   0  0  0  0  0  0  0  0  0  0  0  0
    4.8369   -1.4698    0.5494 C   0  0  0  0  0  0  0  0  0  0  0  0
    1.2084    4.3838    1.0927 C   0  0  0  0  0  0  0  0  0  0  0  0
   -3.0872   -4.0195    0.5176 C   0  0  0  0  0  0  0  0  0  0  0  0
   -5.6435   -0.1268    1.2140 C   0  0  0  0  0  0  0  0  0  0  0  0
  1  8  1  0
  1 16  1  0
  2  9  1  0
  2 17  1  0
  3 13  1  0
  3 18  1  0
  4 12  2  0
  5 19  1  0
  6 19  2  0
  7  8  2  0
  7 11  1  0
  7 12  1  0
  8 14  1  0
  9 11  2  0
  9 13  1  0
 10 12  1  0
 10 15  1  0
 13 14  2  0
 15 19  1  0
 16 20  1  0
 17 21  1  0
 18 22  1  0
M  END
>  <PUBCHEM_COMPOUND_CID>  (1) 
5536

>  <PUBCHEM_CONFORMER_RMSD>  (1) 
1

>  <PUBCHEM_CONFORMER_DIVERSEORDER>  (1) 
1
8
7
2
3
6
5
4

>  <PUBCHEM_MMFF94_PARTIAL_CHARGES>  (1) 
22
1 -0.36
10 0.06
11 -0.15
12 0.42
13 0.08
14 -0.15
15 0.06
16 0.28
17 0.28
18 0.28
19 0.66
2 -0.36
25 0.15
26 0.15
3 -0.36
4 -0.57
44 0.5
5 -0.65
6 -0.57
7 0.09
8 0.08
9 0.08

>  <PUBCHEM_EFFECTIVE_ROTOR_COUNT>  (1) 
10

>  <PUBCHEM_PHARMACOPHORE_FEATURES>  (1) 
8
1 1 acceptor
1 2 acceptor
1 3 acceptor
1 4 acceptor
1 5 acceptor
1 6 acceptor
3 5 6 19 anion
6 7 8 9 11 13 14 rings

>  <PUBCHEM_HEAVY_ATOM_COUNT>  (1) 
22

>  <PUBCHEM_ATOM_DEF_STEREO_COUNT>  (1) 
0

>  <PUBCHEM_ATOM_UDEF_STEREO_COUNT>  (1) 
0

>  <PUBCHEM_BOND_DEF_STEREO_COUNT>  (1) 
0

>  <PUBCHEM_BOND_UDEF_STEREO_COUNT>  (1) 
0

>  <PUBCHEM_ISOTOPIC_ATOM_COUNT>  (1) 
0

>  <PUBCHEM_COMPONENT_COUNT>  (1) 
1

>  <PUBCHEM_CACTVS_TAUTO_COUNT>  (1) 
2

>  <PUBCHEM_CONFORMER_ID>  (1) 
000015A000000001

>  <PUBCHEM_MMFF94_ENERGY>  (1) 
66.5528

>  <PUBCHEM_FEATURE_SELFOVERLAP>  (1) 
40.67

>  <PUBCHEM_SHAPE_FINGERPRINT>  (1) 
1100329 8 18410295830590778771
12553582 1 18342181037910431228
12633257 1 18411707594730624007
12788726 201 18266475234464362148
13140716 1 18339644541673101198
14022347 108 18127438720229250748
14178342 30 17834676376729800117
14341114 176 18340201896170222666
14466204 15 18197789808509121369
15042514 8 18408887317177369391
17980427 23 17346309436324960885
1813 80 17313675828449696726
20510252 161 18055348042285256800
20600515 1 18201728335746272968
20642791 105 18119246164639191637
21637258 2 16588026818370248835
21650355 55 18340760464666307884
22122407 14 16200145530319491690
2297311 6 18271532979662592084
23366157 5 18048318035262188901
23402539 116 18129650912102555917
23557571 272 18058461919719123140
23558518 356 17976828915190803155
23559900 14 18266726068616563604
2748010 2 17909270522565131549
3117164 225 18340773753463738875
3421961 26 17903920302789080659
4409770 3 18116420450126046613
5104073 3 18341053041774756986
5486654 36 18188213216201142379
56633871 153 18336547109959837850
58807428 26 17980492156699799265
69474 34 18272649039093081721
7097593 13 18337956821320742423
81228 2 17772495424480839692

>  <PUBCHEM_SHAPE_MULTIPOLES>  (1) 
417.53
9.77
4.71
1.09
4.85
1.54
0.08
-7.12
4.49
-0.06
1.79
0
0.25
-0.5

>  <PUBCHEM_SHAPE_SELFOVERLAP>  (1) 
845.386

>  <PUBCHEM_SHAPE_VOLUME>  (1) 
243.7

>  <PUBCHEM_COORDINATE_TYPE>  (1) 
2
5
10

$$$$
