5537
     RDKit          3D

 30 33  0  0  0  0  0  0  0  0999 V2000
   -0.5391   -4.7685    0.2237 O   0  0  0  0  0  0  0  0  0  0  0  0
    5.3004    1.5779   -0.3024 O   0  0  0  0  0  0  0  0  0  0  0  0
    3.0209    2.8415    0.6549 O   0  0  0  0  0  0  0  0  0  0  0  0
    0.5101   -2.7023    0.0795 N   0  0  0  0  0  0  0  0  0  0  0  0
   -1.8691   -2.8657    0.1527 N   0  0  0  0  0  0  0  0  0  0  0  0
   -3.1797   -0.9092    0.0642 N   0  0  0  0  0  0  0  0  0  0  0  0
    1.8388   -3.3288    0.0893 C   0  0  0  0  0  0  0  0  0  0  0  0
    2.8210   -2.6114   -0.8263 C   0  0  0  0  0  0  0  0  0  0  0  0
    0.4266   -1.3114    0.0557 C   0  0  0  0  0  0  0  0  0  0  0  0
    2.8698   -1.1571   -0.4492 C   0  0  0  0  0  0  0  0  0  0  0  0
    1.6923   -0.5210   -0.0062 C   0  0  0  0  0  0  0  0  0  0  0  0
   -0.6216   -3.5370    0.1569 C   0  0  0  0  0  0  0  0  0  0  0  0
   -0.7660   -0.6997    0.0400 C   0  0  0  0  0  0  0  0  0  0  0  0
    4.0707   -0.4423   -0.5611 C   0  0  0  0  0  0  0  0  0  0  0  0
   -2.0187   -1.4823    0.0849 C   0  0  0  0  0  0  0  0  0  0  0  0
    1.7766    0.8287    0.3769 C   0  0  0  0  0  0  0  0  0  0  0  0
    4.1243    0.8997   -0.1968 C   0  0  0  0  0  0  0  0  0  0  0  0
    2.9809    1.5317    0.2797 C   0  0  0  0  0  0  0  0  0  0  0  0
   -3.0545   -3.7202    0.2208 C   0  0  0  0  0  0  0  0  0  0  0  0
   -3.1614    0.4920   -0.0026 C   0  0  0  0  0  0  0  0  0  0  0  0
   -3.1591    1.1312   -1.2422 C   0  0  0  0  0  0  0  0  0  0  0  0
   -3.1461    1.2451    1.1712 C   0  0  0  0  0  0  0  0  0  0  0  0
   -3.1258    3.2779   -0.1346 C   0  0  0  0  0  0  0  0  0  0  0  0
   -3.1411    2.5244   -1.3081 C   0  0  0  0  0  0  0  0  0  0  0  0
   -3.1282    2.6383    1.1051 C   0  0  0  0  0  0  0  0  0  0  0  0
   -3.1737    0.3471   -2.5138 C   0  0  0  0  0  0  0  0  0  0  0  0
   -3.1463    0.5842    2.5110 C   0  0  0  0  0  0  0  0  0  0  0  0
    6.1648    1.5580    0.8323 C   0  0  0  0  0  0  0  0  0  0  0  0
    2.7390    3.8119   -0.3510 C   0  0  0  0  0  0  0  0  0  0  0  0
   -3.1058    4.7675   -0.2046 C   0  0  0  0  0  0  0  0  0  0  0  0
  1 12  2  0
  2 17  1  0
  2 28  1  0
  3 18  1  0
  3 29  1  0
  4  7  1  0
  4  9  1  0
  4 12  1  0
  5 12  1  0
  5 15  1  0
  5 19  1  0
  6 15  2  0
  6 20  1  0
  7  8  1  0
  8 10  1  0
  9 11  1  0
  9 13  2  0
 10 11  2  0
 10 14  1  0
 11 16  1  0
 13 15  1  0
 14 17  2  0
 16 18  2  0
 17 18  1  0
 20 21  2  0
 20 22  1  0
 21 24  1  0
 21 26  1  0
 22 25  2  0
 22 27  1  0
 23 24  2  0
 23 25  1  0
 23 30  1  0
M  END
>  <PUBCHEM_COMPOUND_CID>  (1) 
5537

>  <PUBCHEM_CONFORMER_RMSD>  (1) 
0.8

>  <PUBCHEM_CONFORMER_DIVERSEORDER>  (1) 
1

>  <PUBCHEM_MMFF94_PARTIAL_CHARGES>  (1) 
35
1 -0.57
10 -0.14
11 0.03
12 0.69
13 -0.14
14 -0.15
15 0.5
16 -0.15
17 0.08
18 0.08
19 0.3
2 -0.36
20 0.18
21 -0.14
22 -0.14
23 -0.14
24 -0.15
25 -0.15
26 0.14
27 0.14
28 0.28
29 0.28
3 -0.36
30 0.14
35 0.15
36 0.15
37 0.15
4 -0.47
41 0.15
42 0.15
5 -0.42
6 -0.63
7 0.3
8 0.14
9 0.08

>  <PUBCHEM_EFFECTIVE_ROTOR_COUNT>  (1) 
3.4

>  <PUBCHEM_PHARMACOPHORE_FEATURES>  (1) 
7
1 1 acceptor
1 2 acceptor
1 3 acceptor
6 10 11 14 16 17 18 rings
6 20 21 22 23 24 25 rings
6 4 5 9 12 13 15 rings
6 4 7 8 9 10 11 rings

>  <PUBCHEM_HEAVY_ATOM_COUNT>  (1) 
30

>  <PUBCHEM_ATOM_DEF_STEREO_COUNT>  (1) 
0

>  <PUBCHEM_ATOM_UDEF_STEREO_COUNT>  (1) 
0

>  <PUBCHEM_BOND_DEF_STEREO_COUNT>  (1) 
0

>  <PUBCHEM_BOND_UDEF_STEREO_COUNT>  (1) 
0

>  <PUBCHEM_ISOTOPIC_ATOM_COUNT>  (1) 
0

>  <PUBCHEM_COMPONENT_COUNT>  (1) 
1

>  <PUBCHEM_CACTVS_TAUTO_COUNT>  (1) 
1

>  <PUBCHEM_CONFORMER_ID>  (1) 
000015A100000001

>  <PUBCHEM_MMFF94_ENERGY>  (1) 
115.4657

>  <PUBCHEM_FEATURE_SELFOVERLAP>  (1) 
35.578

>  <PUBCHEM_SHAPE_FINGERPRINT>  (1) 
10439779 11 18339062831956925440
10670039 82 17831030383419205468
1100329 8 18194684753080434634
12107183 9 18189599568052998186
12156800 1 15174758148802360671
12173636 292 18410015407917985639
12788726 201 18117826909965599707
12925494 130 17832994841299529689
13140716 1 17832714847484720562
138480 1 17257370739522566299
14466204 15 18193267503976864626
14713325 29 18337677541246503890
14790565 3 18409452466992536900
15081414 286 17405152824599951331
15320467 1 18410576171380534476
19611394 137 16168345751695366274
19930381 70 18193272997477711497
20764821 26 18192708951827549484
21033648 144 18272092686546387612
21133410 90 15323024070324591009
21860390 5 17767682759022576774
21864079 5 18266457603349207969
22122407 14 17477781082901723841
23559900 14 18272096007258130078
283562 15 18337669844929438019
350125 39 18194970862115282874
3886686 26 18047998997029093954
469060 322 18121235413439111435
474 4 18195801865304146327
50150288 127 16556255377693125513
5081480 168 16984370909918457060
508706 21 18412542128493809616
6287921 2 18262534683073754660
6371009 1 18338501049859886500
9981440 41 18335693902190045689

>  <PUBCHEM_SHAPE_MULTIPOLES>  (1) 
584.83
9.57
6.13
1.35
8.46
1.59
0.04
-8.5
-0.12
-1.75
-0.17
-1.72
-0.46
0.83

>  <PUBCHEM_SHAPE_SELFOVERLAP>  (1) 
1275.39

>  <PUBCHEM_SHAPE_VOLUME>  (1) 
320.8

>  <PUBCHEM_COORDINATE_TYPE>  (1) 
2
5
10

$$$$
