5543
     RDKit          3D

 16 15  0  0  0  0  0  0  0  0999 V2000
   -3.6932   -0.2873    2.1418 Cl  0  0  0  0  0  0  0  0  0  0  0  0
   -5.5788    0.7871   -0.2037 Cl  0  0  0  0  0  0  0  0  0  0  0  0
   -3.5259    0.1145   -2.1800 Cl  0  0  0  0  0  0  0  0  0  0  0  0
   -0.5539    0.3732    0.2952 S   0  0  0  0  0  0  0  0  0  0  0  0
    0.8230   -1.8127   -0.0850 O   0  0  0  0  0  0  0  0  0  0  0  0
    2.1233    0.1130    0.0176 N   0  0  0  0  0  0  0  0  0  0  0  0
    2.1917    1.5652    0.1885 C   0  0  0  0  0  0  0  0  0  0  0  0
    3.4076   -0.5437   -0.1946 C   0  0  0  0  0  0  0  0  0  0  0  0
    2.7620    2.2193   -1.0632 C   0  0  0  0  0  0  0  0  0  0  0  0
    3.0145    1.9204    1.4208 C   0  0  0  0  0  0  0  0  0  0  0  0
    3.4336   -1.2291   -1.5546 C   0  0  0  0  0  0  0  0  0  0  0  0
    3.6940   -1.5335    0.9279 C   0  0  0  0  0  0  0  0  0  0  0  0
    0.9112   -0.5948    0.0552 C   0  0  0  0  0  0  0  0  0  0  0  0
   -1.8213   -0.9135    0.2762 C   0  0  0  0  0  0  0  0  0  0  0  0
   -3.1879   -0.3111    0.4679 C   0  0  0  0  0  0  0  0  0  0  0  0
   -3.9999    0.1331   -0.5103 C   0  0  0  0  0  0  0  0  0  0  0  0
  1 15  1  0
  2 16  1  0
  3 16  1  0
  4 13  1  0
  4 14  1  0
  5 13  2  0
  6  7  1  0
  6  8  1  0
  6 13  1  0
  7  9  1  0
  7 10  1  0
  8 11  1  0
  8 12  1  0
 14 15  1  0
 15 16  2  3
M  END
>  <PUBCHEM_COMPOUND_CID>  (1) 
5543

>  <PUBCHEM_CONFORMER_RMSD>  (1) 
0.8

>  <PUBCHEM_CONFORMER_DIVERSEORDER>  (1) 
1
11
22
33
40
24
14
34
3
2
30
9
19
35
20
38
39
26
12
23
32
37
28
7
29
5
18
16
27
4
36
21
8
25
13
6
10
31
15
17

>  <PUBCHEM_MMFF94_PARTIAL_CHARGES>  (1) 
11
1 -0.14
13 0.77
14 0.37
16 0.28
2 -0.14
3 -0.14
4 -0.37
5 -0.57
6 -0.66
7 0.3
8 0.3

>  <PUBCHEM_EFFECTIVE_ROTOR_COUNT>  (1) 
6

>  <PUBCHEM_PHARMACOPHORE_FEATURES>  (1) 
2
3 7 9 10 hydrophobe
3 8 11 12 hydrophobe

>  <PUBCHEM_HEAVY_ATOM_COUNT>  (1) 
16

>  <PUBCHEM_ATOM_DEF_STEREO_COUNT>  (1) 
0

>  <PUBCHEM_ATOM_UDEF_STEREO_COUNT>  (1) 
0

>  <PUBCHEM_BOND_DEF_STEREO_COUNT>  (1) 
0

>  <PUBCHEM_BOND_UDEF_STEREO_COUNT>  (1) 
0

>  <PUBCHEM_ISOTOPIC_ATOM_COUNT>  (1) 
0

>  <PUBCHEM_COMPONENT_COUNT>  (1) 
1

>  <PUBCHEM_CACTVS_TAUTO_COUNT>  (1) 
1

>  <PUBCHEM_CONFORMER_ID>  (1) 
000015A700000001

>  <PUBCHEM_MMFF94_ENERGY>  (1) 
30.1502

>  <PUBCHEM_FEATURE_SELFOVERLAP>  (1) 
10.149

>  <PUBCHEM_SHAPE_FINGERPRINT>  (1) 
11405975 8 18113900463953388747
11543360 7 15338561668647168425
11595378 159 14562522986087105621
12616971 3 18060131038425587399
12932764 1 18041000669393727163
13134695 92 18411692163250641964
13296908 3 18113902692888447235
13583140 156 17821727256073780019
13922767 16 18412259536872568282
18186145 218 18408609179416270683
192875 21 17988642977892910633
19422 9 17203894071739792751
19433438 15 18060132137921488373
200 152 18060132116393696313
20645477 56 17312822650639588575
20645477 70 18411700988891516094
212847 35 17822011973555308198
2255824 54 18336554888740930250
22943178 12 17749391498557736011
23402655 69 18131915970174315357
23503958 25 17530971306081653197
23557571 272 17386019364404298331
23559900 14 16877947122282131914
23598291 2 17631750286957199041
3060560 45 18341896255851607262
5104073 3 18411983594040692883
5281201 14 18333450941329475541
6049 1 17749114412979624749
633830 44 18410855460597666863
7615 1 17275388724303516409
9971528 1 17846500284166570126

>  <PUBCHEM_SHAPE_MULTIPOLES>  (1) 
327.88
10.37
1.86
1.71
8.81
0.61
0.11
0.88
0.56
-2.62
-0.05
0.98
0.06
0.78

>  <PUBCHEM_SHAPE_SELFOVERLAP>  (1) 
589.434

>  <PUBCHEM_SHAPE_VOLUME>  (1) 
214.4

>  <PUBCHEM_COORDINATE_TYPE>  (1) 
2
5
10

$$$$
