556
     RDKit          3D

 16 15  0  0  1  0  0  0  0  0999 V2000
   -1.8027   -2.4045   -1.1940 O   0  0  0  0  0  0  0  0  0  0  0  0
    0.8701   -0.0543    1.8931 O   0  0  0  0  0  0  0  0  0  0  0  0
   -3.5082   -2.2289    0.2788 O   0  0  0  0  0  0  0  0  0  0  0  0
   -3.6826    3.0032    0.2323 O   0  0  0  0  0  0  0  0  0  0  0  0
    5.6307    0.6574    0.3311 O   0  0  0  0  0  0  0  0  0  0  0  0
    4.5158    0.0833   -1.5624 O   0  0  0  0  0  0  0  0  0  0  0  0
   -0.3135   -0.6068   -0.0299 N   0  0  0  0  0  0  0  0  0  0  0  0
   -1.6090   -0.7591    0.5785 C   0  0  0  0  0  0  0  0  0  0  0  0
   -2.4033    0.5551    0.5675 C   0  0  0  0  0  0  0  0  0  0  0  0
   -2.6497    1.1078   -0.8362 C   0  0  0  0  0  0  0  0  0  0  0  0
    2.0484   -0.1729   -0.2165 C   0  0  0  0  0  0  0  0  0  0  0  0
    0.8293   -0.2640    0.6837 C   0  0  0  0  0  0  0  0  0  0  0  0
   -2.4062   -1.8575   -0.1114 C   0  0  0  0  0  0  0  0  0  0  0  0
    3.3126    0.2025    0.5498 C   0  0  0  0  0  0  0  0  0  0  0  0
   -3.3482    2.4418   -0.8062 C   0  0  0  0  0  0  0  0  0  0  0  0
    4.5165    0.2969   -0.3581 C   0  0  0  0  0  0  0  0  0  0  0  0
  1 13  1  0
  2 12  2  0
  3 13  2  0
  4 15  2  0
  5 16  1  0
  6 16  2  0
  7  8  1  0
  7 12  1  0
  8  9  1  0
  8 13  1  0
  9 10  1  0
 10 15  1  0
 11 12  1  0
 11 14  1  0
 14 16  1  0
M  END
>  <PUBCHEM_COMPOUND_CID>  (1) 
556

>  <PUBCHEM_CONFORMER_RMSD>  (1) 
0.8

>  <PUBCHEM_CONFORMER_DIVERSEORDER>  (1) 
1
83
82
149
138
41
182
152
171
67
128
31
130
32
103
69
17
63
135
14
179
51
151
47
50
148
26
25
42
58
38
163
80
66
90
177
70
107
64
174
101
137
18
7
167
173
159
168
96
92
81
112
175
54
150
59
176
40
136
55
124
145
43
118
99
134
9
36
60
131
45
86
178
21
49
74
172
146
147
117
56
73
94
170
57
24
122
2
72
153
108
34
119
52
35
143
155
84
161
62
68
125
157
23
106
91
33
75
164
12
79
109
15
61
48
160
71
27
140
142
16
89
95
3
13
183
162
133
8
144
10
129
166
104
126
102
139
77
105
100
88
19
127
115
158
4
180
30
111
123
132
156
5
169
87
28
120
141
76
181
6
37
121
78
98
93
116
22
154
20
44
11
165
39
29
46
85
110
65
53
97
114
113

>  <PUBCHEM_MMFF94_PARTIAL_CHARGES>  (1) 
19
1 -0.65
10 0.06
11 0.06
12 0.57
13 0.66
14 0.06
15 0.45
16 0.66
2 -0.57
20 0.37
27 0.06
28 0.5
29 0.5
3 -0.57
4 -0.57
5 -0.65
6 -0.57
7 -0.73
8 0.36

>  <PUBCHEM_EFFECTIVE_ROTOR_COUNT>  (1) 
9

>  <PUBCHEM_PHARMACOPHORE_FEATURES>  (1) 
9
1 1 acceptor
1 2 acceptor
1 3 acceptor
1 4 acceptor
1 5 acceptor
1 6 acceptor
1 7 donor
3 1 3 13 anion
3 5 6 16 anion

>  <PUBCHEM_HEAVY_ATOM_COUNT>  (1) 
16

>  <PUBCHEM_ATOM_DEF_STEREO_COUNT>  (1) 
0

>  <PUBCHEM_ATOM_UDEF_STEREO_COUNT>  (1) 
1

>  <PUBCHEM_BOND_DEF_STEREO_COUNT>  (1) 
0

>  <PUBCHEM_BOND_UDEF_STEREO_COUNT>  (1) 
0

>  <PUBCHEM_ISOTOPIC_ATOM_COUNT>  (1) 
0

>  <PUBCHEM_COMPONENT_COUNT>  (1) 
1

>  <PUBCHEM_CACTVS_TAUTO_COUNT>  (1) 
4

>  <PUBCHEM_CONFORMER_ID>  (1) 
0000022C00000001

>  <PUBCHEM_MMFF94_ENERGY>  (1) 
17.2721

>  <PUBCHEM_FEATURE_SELFOVERLAP>  (1) 
45.794

>  <PUBCHEM_SHAPE_FINGERPRINT>  (1) 
10680689 15 18336836372112344866
10803635 8 18272939310795609718
12186901 62 18413671322524153511
12500047 106 18342452621566883206
14123260 362 17967529051867951733
14251751 93 18409730672781593662
15534591 1 18040435460466473147
1741750 31 18339356353841822577
18186145 218 18130793373661566226
1986462 14 18341899614557788514
20300324 65 18114462365607832662
20645477 56 18412547591591567769
20871999 31 18412541028781150123
21426921 1 18410009974583941219
21524375 3 18050266099968580251
22094290 60 18338236071588848106
23402539 116 18115301305849293150
23402655 69 18333735689598701676
23557571 272 18342181089439579692
3268164 11 18336259141091984134
4175511 318 18413390929704887973
57210444 14 18129945555401471143
573450 72 18260535728554107378
6049 1 17845644983814684472
7615 1 17604685833930032778

>  <PUBCHEM_SHAPE_MULTIPOLES>  (1) 
289.08
9.64
2.46
1.17
13.02
0.47
0.03
3.94
-1.7
-5.16
-0.5
0.41
-0.07
0.03

>  <PUBCHEM_SHAPE_SELFOVERLAP>  (1) 
561.101

>  <PUBCHEM_SHAPE_VOLUME>  (1) 
172.4

>  <PUBCHEM_COORDINATE_TYPE>  (1) 
2
5
10

$$$$
