5562
     RDKit          3D

 22 22  0  0  1  0  0  0  0  0999 V2000
   -0.6056   -2.1178    1.7263 O   0  0  0  0  0  0  0  0  0  0  0  0
    6.0753   -0.0923    0.7482 O   0  0  0  0  0  0  0  0  0  0  0  0
    7.4614    2.1907    0.3065 O   0  0  0  0  0  0  0  0  0  0  0  0
   -5.3456    1.6519   -0.1360 N   0  0  0  0  0  0  0  0  0  0  0  0
    6.1372    2.0448   -0.1293 N   0  0  0  0  0  0  0  0  0  0  0  0
   -0.0027   -2.1115   -0.6116 C   0  0  0  0  0  0  0  0  0  0  0  0
   -0.8680   -1.7239    0.5899 C   0  0  0  0  0  0  0  0  0  0  0  0
   -2.0498   -0.8335    0.3986 C   0  0  0  0  0  0  0  0  0  0  0  0
    1.4128   -1.6911   -0.3036 C   0  0  0  0  0  0  0  0  0  0  0  0
   -0.0661   -3.6229   -0.8371 C   0  0  0  0  0  0  0  0  0  0  0  0
   -4.2289    0.8097    0.0452 C   0  0  0  0  0  0  0  0  0  0  0  0
   -2.7153   -0.8704   -0.8055 C   0  0  0  0  0  0  0  0  0  0  0  0
   -2.4289   -0.0088    1.4334 C   0  0  0  0  0  0  0  0  0  0  0  0
   -3.8196   -0.0374   -0.9848 C   0  0  0  0  0  0  0  0  0  0  0  0
   -3.5334    0.8240    1.2543 C   0  0  0  0  0  0  0  0  0  0  0  0
    2.0116   -0.5122   -0.5783 C   0  0  0  0  0  0  0  0  0  0  0  0
    1.3421    0.6183   -1.3156 C   0  0  0  0  0  0  0  0  0  0  0  0
   -5.6806    2.1533   -1.4540 C   0  0  0  0  0  0  0  0  0  0  0  0
   -6.1811    2.0157    0.9912 C   0  0  0  0  0  0  0  0  0  0  0  0
    3.4000   -0.3151   -0.1512 C   0  0  0  0  0  0  0  0  0  0  0  0
    4.1409    0.7875   -0.3420 C   0  0  0  0  0  0  0  0  0  0  0  0
    5.5444    0.8410    0.1555 C   0  0  0  0  0  0  0  0  0  0  0  0
  1  7  2  0
  2 22  2  0
  3  5  1  0
  4 11  1  0
  4 18  1  0
  4 19  1  0
  5 22  1  0
  6  7  1  0
  6  9  1  0
  6 10  1  0
  7  8  1  0
  8 12  2  0
  8 13  1  0
  9 16  2  0
 11 14  2  0
 11 15  1  0
 12 14  1  0
 13 15  2  0
 16 17  1  0
 16 20  1  0
 20 21  2  0
 21 22  1  0
M  END
>  <PUBCHEM_COMPOUND_CID>  (1) 
5562

>  <PUBCHEM_CONFORMER_RMSD>  (1) 
0.8

>  <PUBCHEM_CONFORMER_DIVERSEORDER>  (1) 
2
85
99
12
88
125
84
15
39
113
36
118
115
50
4
26
122
53
104
92
135
153
19
130
3
145
8
46
21
142
9
110
126
76
138
148
33
90
117
47
65
52
97
144
32
68
24
78
6
136
44
107
112
41
70
128
67
149
59
106
10
123
151
25
55
116
40
42
56
154
14
43
58
73
79
89
38
63
82
137
45
93
5
18
34
62
120
35
66
69
87
71
17
27
105
124
83
114
152
16
121
7
86
75
31
143
13
108
1
60
49
141
100
11
64
155
37
29
22
131
95
134
109
103
51
150
133
96
146
54
80
101
140
72
139
132
30
129
111
77
119
23
28
127
61
57
102
98
20
91
74
94
81
48
147

>  <PUBCHEM_MMFF94_PARTIAL_CHARGES>  (1) 
30
1 -0.57
11 0.1
12 -0.15
13 -0.15
14 -0.15
15 -0.15
16 -0.14
17 0.14
18 0.37
19 0.37
2 -0.57
20 -0.15
21 -0.14
22 0.62
24 0.15
28 0.15
29 0.15
3 -0.44
30 0.15
31 0.15
4 -0.84
41 0.15
42 0.15
43 0.37
44 0.4
5 -0.39
6 0.2
7 0.42
8 0.09
9 -0.29

>  <PUBCHEM_EFFECTIVE_ROTOR_COUNT>  (1) 
7

>  <PUBCHEM_PHARMACOPHORE_FEATURES>  (1) 
7
1 1 acceptor
1 10 hydrophobe
1 17 hydrophobe
1 2 acceptor
1 4 cation
1 5 donor
6 8 11 12 13 14 15 rings

>  <PUBCHEM_HEAVY_ATOM_COUNT>  (1) 
22

>  <PUBCHEM_ATOM_DEF_STEREO_COUNT>  (1) 
0

>  <PUBCHEM_ATOM_UDEF_STEREO_COUNT>  (1) 
1

>  <PUBCHEM_BOND_DEF_STEREO_COUNT>  (1) 
0

>  <PUBCHEM_BOND_UDEF_STEREO_COUNT>  (1) 
2

>  <PUBCHEM_ISOTOPIC_ATOM_COUNT>  (1) 
0

>  <PUBCHEM_COMPONENT_COUNT>  (1) 
1

>  <PUBCHEM_CACTVS_TAUTO_COUNT>  (1) 
9

>  <PUBCHEM_CONFORMER_ID>  (1) 
000015BA00000002

>  <PUBCHEM_MMFF94_ENERGY>  (1) 
68.9738

>  <PUBCHEM_FEATURE_SELFOVERLAP>  (1) 
35.52

>  <PUBCHEM_SHAPE_FINGERPRINT>  (1) 
10319926 262 16733281061911732187
10692045 39 17896032153253026666
12107183 9 18337383847900375474
12293681 160 17632297856532715067
12403259 118 17823147859319103967
12596602 18 17967534597071573624
12633257 1 16009041595927731111
12895837 130 18202284748901972845
13103583 49 14418141720276088313
13540713 4 18269580306329963878
13673619 4 11818990786498914166
14123256 34 10303808804552879909
14251764 30 8502652601797887996
14420673 8 9511458936094460205
15061688 2 18410014320938208255
15188451 53 14779564417326943033
15238133 3 17603596235614173124
16120349 189 18334856134221845740
17780758 139 12973593452346804958
1813 80 8214138598780327810
193927 3 10159689188539529287
19784866 240 10231745700593715267
20871999 31 14549020949170632835
21033648 29 17313388860130439623
21298829 104 18271249330932204969
21307412 95 11815885748715028549
21401589 2 18334864913504198795
21637258 2 11458427955054587773
22765269 38 18336262362544393717
22950370 63 8286200561058146350
23559900 14 17917445233110219230
270888 7 18412545392404898705
2748736 6 18341327816708513216
2838139 119 18409441466752980548
2916195 48 18334577940737123265
329604 57 10159700205389080232
351380 3 8430316827107463964
393628 194 18411706499525526333
465052 167 8141790703670686137
474 4 18338240366925415659
484985 159 8790343105156023215
5104073 3 17967812760602482554
5283384 27 18187075136194095629
53917941 68 18272365407995237911
54039377 194 8646775508689747424
543368 44 18201721709545450993
59682541 35 18262531372755873283
59682541 52 16773246080757068692
6327066 14 18411698794268690580
636775 8 8285932306903779712
77188 2 17402897717635685270
7970288 3 8502651493527910368
8217 86 11527941270617123412
9981440 41 18409735079434487667
999808 66 10087636039708902589

>  <PUBCHEM_SHAPE_MULTIPOLES>  (1) 
425.18
15.94
2.95
1.31
15.53
1.58
-0.13
-18.8
-0.82
0.29
0.35
-1.36
0
0.37

>  <PUBCHEM_SHAPE_SELFOVERLAP>  (1) 
868.384

>  <PUBCHEM_SHAPE_VOLUME>  (1) 
246.6

>  <PUBCHEM_COORDINATE_TYPE>  (1) 
2
5
10

$$$$
