5567
     RDKit          3D

 29 31  0  0  0  0  0  0  0  0999 V2000
    8.3728   -1.0963   -0.2585 F   0  0  0  0  0  0  0  0  0  0  0  0
    7.0069   -2.3323    0.8863 F   0  0  0  0  0  0  0  0  0  0  0  0
    6.8018   -2.2041   -1.2748 F   0  0  0  0  0  0  0  0  0  0  0  0
   -9.3816   -1.9745   -0.2284 F   0  0  0  0  0  0  0  0  0  0  0  0
    2.2130   -0.4466    1.5428 O   0  0  0  0  0  0  0  0  0  0  0  0
   -4.0746    0.8922    1.4977 O   0  0  0  0  0  0  0  0  0  0  0  0
   -0.3597    0.6194   -0.7576 N   0  0  0  0  0  0  0  0  0  0  0  0
    2.3827    0.3276    0.3461 C   0  0  0  0  0  0  0  0  0  0  0  0
    1.5298    1.6080    0.4878 C   0  0  0  0  0  0  0  0  0  0  0  0
    1.8628   -0.4791   -0.8662 C   0  0  0  0  0  0  0  0  0  0  0  0
    0.0221    1.3309    0.4670 C   0  0  0  0  0  0  0  0  0  0  0  0
    0.3400   -0.6650   -0.8622 C   0  0  0  0  0  0  0  0  0  0  0  0
    3.8889    0.5655    0.2255 C   0  0  0  0  0  0  0  0  0  0  0  0
   -1.8080    0.4201   -0.8047 C   0  0  0  0  0  0  0  0  0  0  0  0
   -2.5291    1.7689   -0.7609 C   0  0  0  0  0  0  0  0  0  0  0  0
    4.7563   -0.5175    0.0915 C   0  0  0  0  0  0  0  0  0  0  0  0
    4.3913    1.8656    0.2487 C   0  0  0  0  0  0  0  0  0  0  0  0
   -4.0519    1.6151   -0.8048 C   0  0  0  0  0  0  0  0  0  0  0  0
    6.1297   -0.2999   -0.0197 C   0  0  0  0  0  0  0  0  0  0  0  0
    5.7646    2.0831    0.1375 C   0  0  0  0  0  0  0  0  0  0  0  0
    6.6338    1.0004    0.0035 C   0  0  0  0  0  0  0  0  0  0  0  0
   -4.6193    0.8723    0.3966 C   0  0  0  0  0  0  0  0  0  0  0  0
    7.0590   -1.4576   -0.1615 C   0  0  0  0  0  0  0  0  0  0  0  0
   -5.8914    0.1131    0.2309 C   0  0  0  0  0  0  0  0  0  0  0  0
   -6.8122    0.5593   -0.6906 C   0  0  0  0  0  0  0  0  0  0  0  0
   -6.0983   -1.0074    1.0042 C   0  0  0  0  0  0  0  0  0  0  0  0
   -8.0019   -0.1519   -0.8469 C   0  0  0  0  0  0  0  0  0  0  0  0
   -7.2880   -1.7185    0.8480 C   0  0  0  0  0  0  0  0  0  0  0  0
   -8.2398   -1.2908   -0.0776 C   0  0  0  0  0  0  0  0  0  0  0  0
  1 23  1  0
  2 23  1  0
  3 23  1  0
  4 29  1  0
  5  8  1  0
  6 22  2  0
  7 11  1  0
  7 12  1  0
  7 14  1  0
  8  9  1  0
  8 10  1  0
  8 13  1  0
  9 11  1  0
 10 12  1  0
 13 16  2  0
 13 17  1  0
 14 15  1  0
 15 18  1  0
 16 19  1  0
 17 20  2  0
 18 22  1  0
 19 21  2  0
 19 23  1  0
 20 21  1  0
 22 24  1  0
 24 25  2  0
 24 26  1  0
 25 27  1  0
 26 28  2  0
 27 29  2  0
 28 29  1  0
M  END
>  <PUBCHEM_COMPOUND_CID>  (1) 
5567

>  <PUBCHEM_CONFORMER_RMSD>  (1) 
1

>  <PUBCHEM_CONFORMER_DIVERSEORDER>  (1) 
1
270
49
102
210
335
161
325
152
455
413
395
98
454
53
441
394
314
35
263
317
254
313
429
166
280
326
169
293
432
97
245
274
132
148
350
37
121
459
370
38
438
232
228
154
282
192
341
260
7
103
362
436
371
181
14
420
289
194
243
199
409
229
146
182
187
425
82
262
352
398
353
33
439
176
338
127
309
165
151
44
373
215
105
278
287
333
437
142
125
13
258
268
163
2
358
402
22
244
212
408
378
80
348
222
18
460
386
390
299
177
269
31
131
356
364
431
62
276
162
393
355
330
79
250
19
195
252
428
238
107
196
354
157
5
128
336
224
24
200
139
69
343
305
369
249
435
366
310
412
58
419
216
391
345
298
288
36
183
4
239
240
67
236
440
110
380
452
427
221
220
124
116
324
446
359
382
346
301
457
403
94
379
384
203
191
78
144
159
52
114
214
399
376
273
426
206
93
449
140
329
120
423
284
170
158
246
259
70
292
349
138
443
401
217
9
360
389
150
83
433
447
281
307
42
96
300
257
337
231
129
332
16
230
99
256
418
328
461
264
59
57
422
201
122
77
405
421
86
54
55
28
375
266
188
448
167
331
294
213
323
71
186
20
283
275
75
172
458
218
130
334
135
87
193
242
304
168
322
271
367
160
88
21
178
12
207
327
56
241
208
155
101
302
267
147
411
434
46
23
189
171
66
320
233
451
374
95
123
173
225
197
90
365
351
111
339
6
81
184
50
400
410
51
76
396
219
265
91
315
11
253
143
113
303
141
424
190
414
40
153
392
357
204
286
450
180
321
109
318
3
277
340
100
388
92
463
377
406
272
295
185
291
385
61
126
202
60
63
261
445
64
164
34
247
68
279
27
84
106
8
39
415
65
344
296
209
319
383
25
175
26
372
47
15
108
156
179
316
32
290
30
226
297
237
444
134
363
417
89
117
119
361
285
404
198
223
442
115
453
48
430
306
255
137
43
17
118
145
133
368
248
456
205
235
73
251
387
311
29
174
112
72
10
45
342
312
104
85
397
381
407
41
149
462
416
211
74
308
347
136
234
227

>  <PUBCHEM_MMFF94_PARTIAL_CHARGES>  (1) 
35
1 -0.34
11 0.27
12 0.27
13 -0.14
14 0.27
16 -0.15
17 -0.15
18 0.06
19 -0.14
2 -0.34
20 -0.15
21 -0.15
22 0.42
23 1.16
24 0.09
25 -0.15
26 -0.15
27 -0.15
28 -0.15
29 0.19
3 -0.34
4 -0.19
42 0.4
43 0.15
44 0.15
47 0.15
48 0.15
49 0.15
5 -0.68
50 0.15
51 0.15
52 0.15
6 -0.57
7 -0.81
8 0.42

>  <PUBCHEM_EFFECTIVE_ROTOR_COUNT>  (1) 
8.2

>  <PUBCHEM_PHARMACOPHORE_FEATURES>  (1) 
7
1 5 acceptor
1 5 donor
1 6 acceptor
1 7 cation
6 13 16 17 19 20 21 rings
6 24 25 26 27 28 29 rings
6 7 8 9 10 11 12 rings

>  <PUBCHEM_HEAVY_ATOM_COUNT>  (1) 
29

>  <PUBCHEM_ATOM_DEF_STEREO_COUNT>  (1) 
0

>  <PUBCHEM_ATOM_UDEF_STEREO_COUNT>  (1) 
0

>  <PUBCHEM_BOND_DEF_STEREO_COUNT>  (1) 
0

>  <PUBCHEM_BOND_UDEF_STEREO_COUNT>  (1) 
0

>  <PUBCHEM_ISOTOPIC_ATOM_COUNT>  (1) 
0

>  <PUBCHEM_COMPONENT_COUNT>  (1) 
1

>  <PUBCHEM_CACTVS_TAUTO_COUNT>  (1) 
2

>  <PUBCHEM_CONFORMER_ID>  (1) 
000015BF00000001

>  <PUBCHEM_MMFF94_ENERGY>  (1) 
65.3496

>  <PUBCHEM_FEATURE_SELFOVERLAP>  (1) 
35.522

>  <PUBCHEM_SHAPE_FINGERPRINT>  (1) 
10299344 5 18060419127177284141
10391435 84 17895754135967082033
10670039 82 8285937752864145687
11181472 205 12180111039070848343
11315181 36 18410576206915990505
12082328 90 18412259524468130101
13668630 136 18333730226173382793
13692114 37 17967807263392731050
13782708 43 18187927219029433582
13885169 127 18335137567045890133
14028597 1 15769501928234354742
14150022 121 17632305541284677969
14251764 18 17561082514055181653
1454969 45 16515687736296686918
14849402 71 16558176241407066448
150020 25 18186513311495634525
15065858 18 18336820984146440919
15183329 4 14764344920776242932
15198563 99 17168412797801103437
15301273 46 18186517704835377325
15352257 5 18408324375850721418
15461852 350 17748827410859909605
15510794 2 18334571343530518356
15716309 27 18343863329672196901
15849732 13 18040996271816363927
1754911 235 13479141185754740734
18335252 98 18410012161255278664
195137 175 12324239443241252151
19611394 137 18410577327353783185
20105231 36 18130514046617533518
2026 5 18339924801148479374
21095086 128 18411418410102805614
21267235 1 18271808991414781508
21315759 40 17775566446519834517
21315763 28 18411699872173911609
21756936 100 11815894553666705541
21781051 124 18272380775936719582
22149856 69 16271664298881403547
232437 2 18411981378454661327
23559900 14 15936981859229260773
23569917 315 18059583459844543462
23569943 247 17690004432439315162
23576562 1 13479718480571915603
3009799 131 10881402032210090901
3178227 256 17346598590449508216
328311 84 18413108342774778860
33532 11 18409165493877399626
4093350 32 13614250252285418572
4339292 15 17967524662664601986
44880568 143 17749389243679658245
4625314 4 18335136506030576237
504579 68 15285362812038459518
5385378 56 14261362327112234500
54039377 194 18202004292507101566
563151 97 14346344638123434941
5758199 1 14117519844180039117
58083652 198 16128076907048400321
59755656 520 13973965416141755133
6009941 240 11167933675877178116
6698420 124 10591776410996244861

>  <PUBCHEM_SHAPE_MULTIPOLES>  (1) 
550.99
29.09
2.09
1.06
19
0.32
0.08
15.78
-0.56
-1.61
0.01
0.51
0.1
1.21

>  <PUBCHEM_SHAPE_SELFOVERLAP>  (1) 
1176.309

>  <PUBCHEM_SHAPE_VOLUME>  (1) 
306.6

>  <PUBCHEM_COORDINATE_TYPE>  (1) 
2
5
10

$$$$
