5571
     RDKit          3D

 10 10  0  0  0  0  0  0  0  0999 V2000
    2.2103    1.5621   -0.0008 O   0  0  0  0  0  0  0  0  0  0  0  0
    2.9474   -0.5880    0.0004 O   0  0  0  0  0  0  0  0  0  0  0  0
   -1.6724    0.5198   -0.0002 N   0  0  0  0  0  0  0  0  0  0  0  0
    0.5980   -0.1358    0.0001 C   0  0  0  0  0  0  0  0  0  0  0  0
   -0.3746    0.8537   -0.0001 C   0  0  0  0  0  0  0  0  0  0  0  0
   -2.0850   -0.7551   -0.0003 C   0  0  0  0  0  0  0  0  0  0  0  0
    0.1982   -1.4687    0.0001 C   0  0  0  0  0  0  0  0  0  0  0  0
   -1.1567   -1.7864   -0.0003 C   0  0  0  0  0  0  0  0  0  0  0  0
   -2.6732    1.5828    0.0006 C   0  0  0  0  0  0  0  0  0  0  0  0
    2.0079    0.2154    0.0004 C   0  0  0  0  0  0  0  0  0  0  0  0
  1 10  1  0
  2 10  2  0
  3  5  2  0
  3  6  1  0
  3  9  1  0
  4  5  1  0
  4  7  2  0
  4 10  1  0
  6  8  2  0
  7  8  1  0
M  CHG  1   3   1
M  END
>  <PUBCHEM_COMPOUND_CID>  (1) 
5571

>  <PUBCHEM_CONFORMER_RMSD>  (1) 
0.4

>  <PUBCHEM_CONFORMER_DIVERSEORDER>  (1) 
1
2

>  <PUBCHEM_MMFF94_PARTIAL_CHARGES>  (1) 
15
1 -0.65
10 0.63
11 0.15
12 0.15
13 0.15
14 0.15
18 0.5
2 -0.57
3 -0.21
4 0.09
5 0.21
6 0.21
7 -0.15
8 -0.15
9 0.49

>  <PUBCHEM_EFFECTIVE_ROTOR_COUNT>  (1) 
1

>  <PUBCHEM_PHARMACOPHORE_FEATURES>  (1) 
4
1 1 acceptor
1 2 acceptor
3 1 2 10 anion
6 3 4 5 6 7 8 rings

>  <PUBCHEM_HEAVY_ATOM_COUNT>  (1) 
10

>  <PUBCHEM_ATOM_DEF_STEREO_COUNT>  (1) 
0

>  <PUBCHEM_ATOM_UDEF_STEREO_COUNT>  (1) 
0

>  <PUBCHEM_BOND_DEF_STEREO_COUNT>  (1) 
0

>  <PUBCHEM_BOND_UDEF_STEREO_COUNT>  (1) 
0

>  <PUBCHEM_ISOTOPIC_ATOM_COUNT>  (1) 
0

>  <PUBCHEM_COMPONENT_COUNT>  (1) 
1

>  <PUBCHEM_CACTVS_TAUTO_COUNT>  (1) 
1

>  <PUBCHEM_CONFORMER_ID>  (1) 
000015C300000001

>  <PUBCHEM_MMFF94_ENERGY>  (1) 
30.1165

>  <PUBCHEM_FEATURE_SELFOVERLAP>  (1) 
20.355

>  <PUBCHEM_SHAPE_FINGERPRINT>  (1) 
13380535 76 18338794494978990287
14325111 11 18410573980909393760
16945 1 18410573942233589095
193761 8 14663580637267630050
19973954 147 18338518659056929940
20653085 51 18337966626783638256
20871998 184 18128262383388051055
21040471 1 18410856529685846755
23235685 24 18339637824428633193
23552423 10 18188771772571317958
241688 4 16250536861047704091
2748010 2 18411139168493186749
369184 2 18342175621671833826
5084963 1 18273495688689159218

>  <PUBCHEM_SHAPE_MULTIPOLES>  (1) 
189.08
3.76
1.83
0.59
1.04
0.14
0
-1.19
0
-0.62
0
-0.04
0.02
0

>  <PUBCHEM_SHAPE_SELFOVERLAP>  (1) 
394.181

>  <PUBCHEM_SHAPE_VOLUME>  (1) 
109.1

>  <PUBCHEM_COORDINATE_TYPE>  (1) 
2
5
10

$$$$
