5577
     RDKit          3D

 28 29  0  0  0  0  0  0  0  0999 V2000
    5.1596    0.4329    0.7065 O   0  0  0  0  0  0  0  0  0  0  0  0
   -4.5116   -2.2154    1.8045 O   0  0  0  0  0  0  0  0  0  0  0  0
   -4.8145   -0.1745   -2.5174 O   0  0  0  0  0  0  0  0  0  0  0  0
   -5.6536   -2.1038   -0.7162 O   0  0  0  0  0  0  0  0  0  0  0  0
   -1.4770    1.8515    1.9256 O   0  0  0  0  0  0  0  0  0  0  0  0
    6.9755   -2.3911   -0.8143 N   0  0  0  0  0  0  0  0  0  0  0  0
   -0.8770    2.0918   -0.3018 N   0  0  0  0  0  0  0  0  0  0  0  0
    6.4849   -1.5025    0.2387 C   0  0  0  0  0  0  0  0  0  0  0  0
    1.5091    2.3403    0.1214 C   0  0  0  0  0  0  0  0  0  0  0  0
    0.2006    3.0242   -0.0877 C   0  0  0  0  0  0  0  0  0  0  0  0
    5.6275   -0.3940   -0.3509 C   0  0  0  0  0  0  0  0  0  0  0  0
    3.9568    1.0609    0.5139 C   0  0  0  0  0  0  0  0  0  0  0  0
   -2.6939    0.6057    0.3555 C   0  0  0  0  0  0  0  0  0  0  0  0
    1.9131    1.9875    1.4090 C   0  0  0  0  0  0  0  0  0  0  0  0
    2.3291    2.0534   -0.9700 C   0  0  0  0  0  0  0  0  0  0  0  0
    3.1369    1.3477    1.6052 C   0  0  0  0  0  0  0  0  0  0  0  0
    3.5529    1.4138   -0.7738 C   0  0  0  0  0  0  0  0  0  0  0  0
   -1.6366    1.5762    0.7394 C   0  0  0  0  0  0  0  0  0  0  0  0
   -3.2677    0.6656   -0.9144 C   0  0  0  0  0  0  0  0  0  0  0  0
   -3.1146   -0.3640    1.2658 C   0  0  0  0  0  0  0  0  0  0  0  0
   -4.1091   -1.2735    0.9062 C   0  0  0  0  0  0  0  0  0  0  0  0
   -4.2621   -0.2441   -1.2741 C   0  0  0  0  0  0  0  0  0  0  0  0
   -4.6829   -1.2135   -0.3638 C   0  0  0  0  0  0  0  0  0  0  0  0
    8.1198   -1.7901   -1.4985 C   0  0  0  0  0  0  0  0  0  0  0  0
    7.3398   -3.6927   -0.2558 C   0  0  0  0  0  0  0  0  0  0  0  0
   -3.8744   -2.2081    3.0804 C   0  0  0  0  0  0  0  0  0  0  0  0
   -4.3277    0.8459   -3.3868 C   0  0  0  0  0  0  0  0  0  0  0  0
   -7.0028   -1.7302   -0.4465 C   0  0  0  0  0  0  0  0  0  0  0  0
  1 11  1  0
  1 12  1  0
  2 21  1  0
  2 26  1  0
  3 22  1  0
  3 27  1  0
  4 23  1  0
  4 28  1  0
  5 18  2  0
  6  8  1  0
  6 24  1  0
  6 25  1  0
  7 10  1  0
  7 18  1  0
  8 11  1  0
  9 10  1  0
  9 14  2  0
  9 15  1  0
 12 16  2  0
 12 17  1  0
 13 18  1  0
 13 19  2  0
 13 20  1  0
 14 16  1  0
 15 17  2  0
 19 22  1  0
 20 21  2  0
 21 23  1  0
 22 23  2  0
M  END
>  <PUBCHEM_COMPOUND_CID>  (1) 
5577

>  <PUBCHEM_CONFORMER_RMSD>  (1) 
1

>  <PUBCHEM_CONFORMER_DIVERSEORDER>  (1) 
1
9
41
19
36
43
22
14
33
21
25
6
28
4
32
17
42
23
31
18
40
30
38
2
12
26
8
11
29
44
13
7
35
24
3
16
15
39
34
5
27
20
37
10

>  <PUBCHEM_MMFF94_PARTIAL_CHARGES>  (1) 
35
1 -0.36
10 0.44
11 0.28
12 0.08
13 0.09
14 -0.15
15 -0.15
16 -0.15
17 -0.15
18 0.54
19 -0.15
2 -0.36
20 -0.15
21 0.08
22 0.08
23 0.08
24 0.27
25 0.27
26 0.28
27 0.28
28 0.28
3 -0.36
35 0.15
36 0.15
37 0.37
38 0.15
39 0.15
4 -0.36
40 0.15
41 0.15
5 -0.57
6 -0.81
7 -0.73
8 0.27
9 -0.14

>  <PUBCHEM_EFFECTIVE_ROTOR_COUNT>  (1) 
11

>  <PUBCHEM_PHARMACOPHORE_FEATURES>  (1) 
9
1 1 acceptor
1 2 acceptor
1 3 acceptor
1 4 acceptor
1 5 acceptor
1 6 cation
1 7 donor
6 13 19 20 21 22 23 rings
6 9 12 14 15 16 17 rings

>  <PUBCHEM_HEAVY_ATOM_COUNT>  (1) 
28

>  <PUBCHEM_ATOM_DEF_STEREO_COUNT>  (1) 
0

>  <PUBCHEM_ATOM_UDEF_STEREO_COUNT>  (1) 
0

>  <PUBCHEM_BOND_DEF_STEREO_COUNT>  (1) 
0

>  <PUBCHEM_BOND_UDEF_STEREO_COUNT>  (1) 
0

>  <PUBCHEM_ISOTOPIC_ATOM_COUNT>  (1) 
0

>  <PUBCHEM_COMPONENT_COUNT>  (1) 
1

>  <PUBCHEM_CACTVS_TAUTO_COUNT>  (1) 
2

>  <PUBCHEM_CONFORMER_ID>  (1) 
000015C900000001

>  <PUBCHEM_MMFF94_ENERGY>  (1) 
108.8116

>  <PUBCHEM_FEATURE_SELFOVERLAP>  (1) 
45.682

>  <PUBCHEM_SHAPE_FINGERPRINT>  (1) 
10319926 262 14117258185692393028
10930396 42 13973963204159607503
11135609 201 9223225230636134405
11273773 46 18409725128506244583
11393246 34 18270117912302687806
117089 54 18335999630953253858
12633257 1 16343707676746951824
1361 87 17822302343420203034
13690498 29 17095533923646318433
13782708 43 18272370812060549898
14341114 328 15266788848147442185
14848178 5 18411415124922563072
14950920 106 15482377721141206746
15064981 194 14634876362186374557
15183329 4 16588291808993900160
15510800 12 18410007745886383162
15519825 34 14835539441182974244
15530120 55 16154856689406083718
15803439 3 15647064750751700658
16989378 47 18334586724652216710
20691028 202 8574714606957198046
21033650 10 16660359247271093453
21401589 2 9367336055452641588
21585483 132 17899127223421463074
21682296 61 18412547630225317291
22393880 68 17313373582388818929
23379529 103 18115600373364989496
23559900 14 17243004920533055429
24983565 74 17986939941793968943
25122255 55 18335984245952410194
270888 7 8214141850544856288
2748736 6 10953744430557756238
32027 91 18272080630446697632
3472631 163 10953734504229069352
3610482 184 15213010523457576413
3862424 121 17970374652981718618
392239 28 15913038850466105348
406291 66 18272929410658953398
4258327 124 11674881100260164803
44062 13 17677039274390507729
474113 269 17704061902989073741
5104073 3 13829865581993363196
5364581 5 12535052174541328043
5718773 13 18343299267121863678
6034566 193 11602820203070990337
6431902 208 18340772533872725126
6712543 237 15051734183380185436
7970288 3 18340768247004772714

>  <PUBCHEM_SHAPE_MULTIPOLES>  (1) 
536.92
20.72
3.62
2.38
27.03
1.14
0.41
24.13
7.89
3.79
-0.56
-3.94
0.34
3.27

>  <PUBCHEM_SHAPE_SELFOVERLAP>  (1) 
1115.621

>  <PUBCHEM_SHAPE_VOLUME>  (1) 
308.3

>  <PUBCHEM_COORDINATE_TYPE>  (1) 
2
5
10

$$$$
