5581
     RDKit          3D

 25 27  0  0  1  0  0  0  0  0999 V2000
   -4.6553    2.8531    0.1741 O   0  0  0  0  0  0  0  0  0  0  0  0
   -6.5813    0.8562    0.2833 O   0  0  0  0  0  0  0  0  0  0  0  0
    4.1926   -2.0396    0.3602 O   0  0  0  0  0  0  0  0  0  0  0  0
    3.4854    2.6638   -0.2016 O   0  0  0  0  0  0  0  0  0  0  0  0
    5.1938    0.4845   -0.1890 O   0  0  0  0  0  0  0  0  0  0  0  0
   -0.8619   -1.8659   -0.8402 N   0  0  0  0  0  0  0  0  0  0  0  0
   -1.0951   -0.4843   -0.3791 C   0  0  0  0  0  0  0  0  0  0  0  0
   -2.5623   -0.1347   -0.2109 C   0  0  0  0  0  0  0  0  0  0  0  0
   -0.3002   -0.2112    0.9033 C   0  0  0  0  0  0  0  0  0  0  0  0
   -3.5404   -1.1438   -0.1464 C   0  0  0  0  0  0  0  0  0  0  0  0
   -3.1585   -2.5910   -0.3175 C   0  0  0  0  0  0  0  0  0  0  0  0
   -1.6671   -2.8329   -0.0923 C   0  0  0  0  0  0  0  0  0  0  0  0
    1.1612   -0.0267    0.6125 C   0  0  0  0  0  0  0  0  0  0  0  0
   -2.9561    1.2080   -0.1001 C   0  0  0  0  0  0  0  0  0  0  0  0
   -4.8890   -0.7962    0.0136 C   0  0  0  0  0  0  0  0  0  0  0  0
   -4.2995    1.5427    0.0690 C   0  0  0  0  0  0  0  0  0  0  0  0
   -5.2650    0.5415    0.1260 C   0  0  0  0  0  0  0  0  0  0  0  0
    1.6515    1.2442    0.3372 C   0  0  0  0  0  0  0  0  0  0  0  0
    2.0086   -1.1283    0.6215 C   0  0  0  0  0  0  0  0  0  0  0  0
    3.3662   -0.9565    0.3510 C   0  0  0  0  0  0  0  0  0  0  0  0
    3.0091    1.4161    0.0668 C   0  0  0  0  0  0  0  0  0  0  0  0
    3.8666    0.3158    0.0738 C   0  0  0  0  0  0  0  0  0  0  0  0
    4.3615   -2.7363   -0.8727 C   0  0  0  0  0  0  0  0  0  0  0  0
    3.4896    3.0761   -1.5669 C   0  0  0  0  0  0  0  0  0  0  0  0
    6.0456    0.7455    0.9241 C   0  0  0  0  0  0  0  0  0  0  0  0
  1 16  1  0
  2 17  1  0
  3 20  1  0
  3 23  1  0
  4 21  1  0
  4 24  1  0
  5 22  1  0
  5 25  1  0
  6  7  1  0
  6 12  1  0
  7  8  1  0
  7  9  1  0
  8 10  2  0
  8 14  1  0
  9 13  1  0
 10 11  1  0
 10 15  1  0
 11 12  1  0
 13 18  2  0
 13 19  1  0
 14 16  2  0
 15 17  2  0
 16 17  1  0
 18 21  1  0
 19 20  2  0
 20 22  1  0
 21 22  2  0
M  END
>  <PUBCHEM_COMPOUND_CID>  (1) 
5581

>  <PUBCHEM_CONFORMER_RMSD>  (1) 
0.8

>  <PUBCHEM_CONFORMER_DIVERSEORDER>  (1) 
3
7
22
16
1
6
19
18
24
27
12
20
23
10
5
15
2
13
26
21
9
25
4
11
17
8
14

>  <PUBCHEM_MMFF94_PARTIAL_CHARGES>  (1) 
32
1 -0.53
10 -0.14
11 0.14
12 0.27
13 -0.14
14 -0.15
15 -0.15
16 0.08
17 0.08
18 -0.15
19 -0.15
2 -0.53
20 0.08
21 0.08
22 0.08
23 0.28
24 0.28
25 0.28
3 -0.36
33 0.36
34 0.15
35 0.15
36 0.15
37 0.15
38 0.45
39 0.45
4 -0.36
5 -0.36
6 -0.9
7 0.41
8 -0.14
9 0.14

>  <PUBCHEM_EFFECTIVE_ROTOR_COUNT>  (1) 
5.8

>  <PUBCHEM_PHARMACOPHORE_FEATURES>  (1) 
10
1 1 donor
1 2 donor
1 3 acceptor
1 4 acceptor
1 5 acceptor
1 6 cation
1 6 donor
6 13 18 19 20 21 22 rings
6 6 7 8 10 11 12 rings
6 8 10 14 15 16 17 rings

>  <PUBCHEM_HEAVY_ATOM_COUNT>  (1) 
25

>  <PUBCHEM_ATOM_DEF_STEREO_COUNT>  (1) 
0

>  <PUBCHEM_ATOM_UDEF_STEREO_COUNT>  (1) 
1

>  <PUBCHEM_BOND_DEF_STEREO_COUNT>  (1) 
0

>  <PUBCHEM_BOND_UDEF_STEREO_COUNT>  (1) 
0

>  <PUBCHEM_ISOTOPIC_ATOM_COUNT>  (1) 
0

>  <PUBCHEM_COMPONENT_COUNT>  (1) 
1

>  <PUBCHEM_CACTVS_TAUTO_COUNT>  (1) 
18

>  <PUBCHEM_CONFORMER_ID>  (1) 
000015CD00000003

>  <PUBCHEM_MMFF94_ENERGY>  (1) 
97.369

>  <PUBCHEM_FEATURE_SELFOVERLAP>  (1) 
50.78

>  <PUBCHEM_SHAPE_FINGERPRINT>  (1) 
10595046 47 18337952410410168421
10616163 171 18268992153618764606
11405975 8 18334853935140684546
12107183 9 18121494648684506659
12173636 292 18341040934652365415
12236239 1 18409726283261512346
12788726 201 17489032565180516657
13167823 11 18409164420114457227
13533116 47 17632011949403046306
13583140 156 17703219740937143330
13785724 45 17692250738108977146
14341114 176 18411141303292412339
14790565 3 18410859824495741481
15183329 4 18341896255603251706
15196674 1 18413105035238783363
15250474 111 18340192102780521110
17349148 13 17131557158514036627
17844677 252 18409455764962709987
1813 80 17095242505851946886
21065198 57 18410573993894821251
21279426 13 18198906907336234719
21421861 104 17896586307566931050
21709351 56 18262791982227675500
22393880 68 18198914797745214412
23559900 14 18272368659670479050
245318 6 16593102365855727684
3004659 81 18340488868478725538
335352 9 18340486647336990694
350125 39 18411980252566496897
3545911 37 18413387648571491328
4073 2 18187650245105051346
4214541 1 18411134757746364027
460360 51 18269578094399752467
474 4 17604711221513718308
5104073 3 18409443704494395355
5281201 14 18334858307570184140
543358 83 18409167701770060794
54446538 1 18335137609467944809
59755656 215 18342742901796230476
59755656 520 16950560008431039835
633830 44 18114176458378165347
67856867 119 18264763432335941224
77779 3 18410009961704288163
9709674 26 18410294756680799202
9981440 41 17253150242486196848

>  <PUBCHEM_SHAPE_MULTIPOLES>  (1) 
480.16
13.91
3.23
0.89
2.64
0
0.13
4.02
-0.62
-0.9
0.98
-0.75
0.16
-0.71

>  <PUBCHEM_SHAPE_SELFOVERLAP>  (1) 
1029.62

>  <PUBCHEM_SHAPE_VOLUME>  (1) 
266

>  <PUBCHEM_COORDINATE_TYPE>  (1) 
2
5
10

$$$$
