5582
     RDKit          3D

 27 29  0  0  0  0  0  0  0  0999 V2000
    4.8340   -2.3368   -0.8569 O   0  0  0  0  0  0  0  0  0  0  0  0
    4.6041    2.2135    0.6204 O   0  0  0  0  0  0  0  0  0  0  0  0
    6.0685    0.1034   -0.4166 O   0  0  0  0  0  0  0  0  0  0  0  0
    0.6743   -0.5564    0.7757 N   0  0  0  0  0  0  0  0  0  0  0  0
   -5.6830    0.3103   -1.3767 N   0  0  0  0  0  0  0  0  0  0  0  0
   -5.6449   -0.7880    0.7351 N   0  0  0  0  0  0  0  0  0  0  0  0
   -3.8771    1.3533   -2.3682 N   0  0  0  0  0  0  0  0  0  0  0  0
   -7.6257   -0.6724   -0.5775 N   0  0  0  0  0  0  0  0  0  0  0  0
   -1.6072    0.1732    1.1291 C   0  0  0  0  0  0  0  0  0  0  0  0
   -2.3007    0.5707   -0.0102 C   0  0  0  0  0  0  0  0  0  0  0  0
   -3.6607    0.2534   -0.1549 C   0  0  0  0  0  0  0  0  0  0  0  0
   -0.1601    0.4923    1.3186 C   0  0  0  0  0  0  0  0  0  0  0  0
   -4.3427   -0.4701    0.8473 C   0  0  0  0  0  0  0  0  0  0  0  0
   -2.2691   -0.5396    2.1222 C   0  0  0  0  0  0  0  0  0  0  0  0
   -4.3891    0.6353   -1.2833 C   0  0  0  0  0  0  0  0  0  0  0  0
   -3.6230   -0.8540    1.9753 C   0  0  0  0  0  0  0  0  0  0  0  0
   -1.5190    1.3350   -1.0367 C   0  0  0  0  0  0  0  0  0  0  0  0
    2.0167   -0.3923    0.4792 C   0  0  0  0  0  0  0  0  0  0  0  0
   -6.2639   -0.3763   -0.3899 C   0  0  0  0  0  0  0  0  0  0  0  0
    2.6600    0.8411    0.6967 C   0  0  0  0  0  0  0  0  0  0  0  0
    2.7759   -1.4541   -0.0485 C   0  0  0  0  0  0  0  0  0  0  0  0
    4.1283   -1.2886   -0.3475 C   0  0  0  0  0  0  0  0  0  0  0  0
    4.0124    1.0067    0.3975 C   0  0  0  0  0  0  0  0  0  0  0  0
    4.7465   -0.0582   -0.1247 C   0  0  0  0  0  0  0  0  0  0  0  0
    4.8644   -2.4686   -2.2767 C   0  0  0  0  0  0  0  0  0  0  0  0
    4.5804    3.1545   -0.4510 C   0  0  0  0  0  0  0  0  0  0  0  0
    7.0006   -0.1871    0.6222 C   0  0  0  0  0  0  0  0  0  0  0  0
  1 22  1  0
  1 25  1  0
  2 23  1  0
  2 26  1  0
  3 24  1  0
  3 27  1  0
  4 12  1  0
  4 18  1  0
  5 15  2  0
  5 19  1  0
  6 13  1  0
  6 19  2  0
  7 15  1  0
  8 19  1  0
  9 10  1  0
  9 12  1  0
  9 14  2  0
 10 11  2  0
 10 17  1  0
 11 13  1  0
 11 15  1  0
 13 16  2  0
 14 16  1  0
 18 20  2  0
 18 21  1  0
 20 23  1  0
 21 22  2  0
 22 24  1  0
 23 24  2  0
M  CHG  1   5   1
M  END
>  <PUBCHEM_COMPOUND_CID>  (1) 
5582

>  <PUBCHEM_CONFORMER_RMSD>  (1) 
0.8

>  <PUBCHEM_CONFORMER_DIVERSEORDER>  (1) 
3
11
16
25
7
36
10
18
35
12
41
13
34
20
9
33
2
24
5
37
14
40
15
38
39
8
22
32
28
29
4
6
19
26
1
23
31
21
30
17
27

>  <PUBCHEM_MMFF94_PARTIAL_CHARGES>  (1) 
36
1 -0.36
10 -0.14
12 0.51
13 0.31
14 -0.15
15 0.46
16 -0.15
17 0.14
18 0.1
19 0.77
2 -0.36
20 -0.15
21 -0.15
22 0.08
23 0.08
24 0.08
25 0.28
26 0.28
27 0.28
3 -0.36
30 0.15
31 0.15
32 0.4
36 0.46
37 0.15
38 0.15
39 0.4
4 -0.87
40 0.4
41 0.4
42 0.4
5 -0.18
6 -0.62
7 -0.9
8 -0.9
9 -0.14

>  <PUBCHEM_EFFECTIVE_ROTOR_COUNT>  (1) 
6

>  <PUBCHEM_PHARMACOPHORE_FEATURES>  (1) 
12
1 1 acceptor
1 2 acceptor
1 3 acceptor
1 4 cation
1 4 donor
1 5 donor
1 7 donor
1 8 donor
4 5 6 8 19 cation
6 18 20 21 22 23 24 rings
6 5 6 11 13 15 19 rings
6 9 10 11 13 14 16 rings

>  <PUBCHEM_HEAVY_ATOM_COUNT>  (1) 
27

>  <PUBCHEM_ATOM_DEF_STEREO_COUNT>  (1) 
0

>  <PUBCHEM_ATOM_UDEF_STEREO_COUNT>  (1) 
0

>  <PUBCHEM_BOND_DEF_STEREO_COUNT>  (1) 
0

>  <PUBCHEM_BOND_UDEF_STEREO_COUNT>  (1) 
0

>  <PUBCHEM_ISOTOPIC_ATOM_COUNT>  (1) 
0

>  <PUBCHEM_COMPONENT_COUNT>  (1) 
1

>  <PUBCHEM_CACTVS_TAUTO_COUNT>  (1) 
39

>  <PUBCHEM_CONFORMER_ID>  (1) 
000015CE00000003

>  <PUBCHEM_MMFF94_ENERGY>  (1) 
142.329

>  <PUBCHEM_FEATURE_SELFOVERLAP>  (1) 
61.034

>  <PUBCHEM_SHAPE_FINGERPRINT>  (1) 
10299344 5 17132115749534549359
10670039 82 16153991227498548582
11059845 2 14688381690202512594
11089746 13 14129066924095918790
11135609 149 17983574109921848886
12236239 1 16917073243471813930
12390115 104 17604988114625578453
12616971 3 17561089076823173907
13402501 40 17895187843923150572
13533116 47 17775286062322307938
15082195 135 17168154424835947662
15183329 4 17821723918942096465
15537594 2 16487253270459637903
15799311 1 16415205602017492551
173720 79 15357685397438244553
17844677 252 18411705348267646532
17857418 61 16845571997985838106
1813 80 16702303468518819561
19377110 9 16630521813561099730
19489759 90 17022902350363523713
200 152 17988925543875671507
20645477 70 18342740693840369786
21792961 116 18188216412690155050
22061861 79 18411983541915541518
221357 26 18410009923086856592
23081809 10 17489878132967295667
23522609 53 16844473654884735809
23557571 272 17676491648400642600
23559900 14 17749107790087281120
23569914 152 17258479064455266527
239999 70 18334012809457423360
2838139 119 13117999994320459623
341906 21 16515404075429594216
34797466 226 18334012821936253613
351380 3 16558746823838618227
4015057 19 18343025531391378185
4098825 35 18271244920427462233
4325135 7 18202845465450826726
46194498 28 18410292502339570268
5281201 14 18410301272551842884
5283173 99 17749101167337803613

>  <PUBCHEM_SHAPE_MULTIPOLES>  (1) 
513.13
18.64
2.03
1.77
3.52
0.55
0.3
-2.55
4.66
-4.35
0.9
1.42
-0.34
2.42

>  <PUBCHEM_SHAPE_SELFOVERLAP>  (1) 
1110.754

>  <PUBCHEM_SHAPE_VOLUME>  (1) 
283.4

>  <PUBCHEM_COORDINATE_TYPE>  (1) 
2
5
10

$$$$
