5583
     RDKit          3D

 27 29  0  0  0  0  0  0  0  0999 V2000
    4.7662    2.2728    0.0221 O   0  0  0  0  0  0  0  0  0  0  0  0
    4.8486   -2.5156   -0.0344 O   0  0  0  0  0  0  0  0  0  0  0  0
    6.1896   -0.0995    0.1562 O   0  0  0  0  0  0  0  0  0  0  0  0
    0.6645   -0.1869   -0.4924 N   0  0  0  0  0  0  0  0  0  0  0  0
   -5.6194   -0.3330   -1.1825 N   0  0  0  0  0  0  0  0  0  0  0  0
   -5.9352   -0.3432    1.2064 N   0  0  0  0  0  0  0  0  0  0  0  0
   -4.1905    0.1178    2.6691 N   0  0  0  0  0  0  0  0  0  0  0  0
   -7.7149   -0.8130   -0.2429 N   0  0  0  0  0  0  0  0  0  0  0  0
   -1.5980    0.6512   -0.6961 C   0  0  0  0  0  0  0  0  0  0  0  0
   -2.4105    0.4858    0.4210 C   0  0  0  0  0  0  0  0  0  0  0  0
   -0.1516    1.0040   -0.5715 C   0  0  0  0  0  0  0  0  0  0  0  0
   -3.7670    0.1539    0.2607 C   0  0  0  0  0  0  0  0  0  0  0  0
   -4.3233   -0.0157   -1.0177 C   0  0  0  0  0  0  0  0  0  0  0  0
   -2.1372    0.4858   -1.9671 C   0  0  0  0  0  0  0  0  0  0  0  0
   -3.4872    0.1558   -2.1183 C   0  0  0  0  0  0  0  0  0  0  0  0
   -1.7523    0.6815    1.7540 C   0  0  0  0  0  0  0  0  0  0  0  0
    2.0394   -0.1651   -0.3312 C   0  0  0  0  0  0  0  0  0  0  0  0
   -4.6333   -0.0255    1.3354 C   0  0  0  0  0  0  0  0  0  0  0  0
    2.7786   -1.3614   -0.2612 C   0  0  0  0  0  0  0  0  0  0  0  0
    2.7369    1.0540   -0.2325 C   0  0  0  0  0  0  0  0  0  0  0  0
    4.1220    1.0759   -0.0699 C   0  0  0  0  0  0  0  0  0  0  0  0
    4.1637   -1.3396   -0.0981 C   0  0  0  0  0  0  0  0  0  0  0  0
    4.8355   -0.1210   -0.0025 C   0  0  0  0  0  0  0  0  0  0  0  0
   -6.3549   -0.4796   -0.0618 C   0  0  0  0  0  0  0  0  0  0  0  0
    4.9245    2.8249    1.3275 C   0  0  0  0  0  0  0  0  0  0  0  0
    5.0266   -3.0926    1.2577 C   0  0  0  0  0  0  0  0  0  0  0  0
    6.9796   -0.0716   -1.0302 C   0  0  0  0  0  0  0  0  0  0  0  0
  1 21  1  0
  1 25  1  0
  2 22  1  0
  2 26  1  0
  3 23  1  0
  3 27  1  0
  4 11  1  0
  4 17  1  0
  5 13  2  0
  5 24  1  0
  6 18  1  0
  6 24  2  0
  7 18  1  0
  8 24  1  0
  9 10  2  0
  9 11  1  0
  9 14  1  0
 10 12  1  0
 10 16  1  0
 12 13  1  0
 12 18  2  0
 13 15  1  0
 14 15  2  0
 17 19  2  0
 17 20  1  0
 19 22  1  0
 20 21  2  0
 21 23  1  0
 22 23  2  0
M  END
>  <PUBCHEM_COMPOUND_CID>  (1) 
5583

>  <PUBCHEM_CONFORMER_RMSD>  (1) 
0.8

>  <PUBCHEM_CONFORMER_DIVERSEORDER>  (1) 
1
25
14
36
5
15
37
20
11
24
23
18
10
35
38
34
16
40
17
12
41
7
6
32
13
22
29
9
30
8
28
3
21
39
4
31
2
27
26
33
19

>  <PUBCHEM_MMFF94_PARTIAL_CHARGES>  (1) 
35
1 -0.36
10 -0.14
11 0.51
13 0.31
14 -0.15
15 -0.15
16 0.14
17 0.1
18 0.41
19 -0.15
2 -0.36
20 -0.15
21 0.08
22 0.08
23 0.08
24 0.72
25 0.28
26 0.28
27 0.28
3 -0.36
30 0.15
31 0.4
32 0.15
36 0.15
37 0.15
38 0.4
39 0.4
4 -0.87
40 0.4
41 0.4
5 -0.62
6 -0.62
7 -0.9
8 -0.9
9 -0.14

>  <PUBCHEM_EFFECTIVE_ROTOR_COUNT>  (1) 
6

>  <PUBCHEM_PHARMACOPHORE_FEATURES>  (1) 
11
1 1 acceptor
1 2 acceptor
1 3 acceptor
1 4 cation
1 4 donor
1 7 donor
1 8 donor
4 5 6 8 24 cation
6 17 19 20 21 22 23 rings
6 5 6 12 13 18 24 rings
6 9 10 12 13 14 15 rings

>  <PUBCHEM_HEAVY_ATOM_COUNT>  (1) 
27

>  <PUBCHEM_ATOM_DEF_STEREO_COUNT>  (1) 
0

>  <PUBCHEM_ATOM_UDEF_STEREO_COUNT>  (1) 
0

>  <PUBCHEM_BOND_DEF_STEREO_COUNT>  (1) 
0

>  <PUBCHEM_BOND_UDEF_STEREO_COUNT>  (1) 
0

>  <PUBCHEM_ISOTOPIC_ATOM_COUNT>  (1) 
0

>  <PUBCHEM_COMPONENT_COUNT>  (1) 
1

>  <PUBCHEM_CACTVS_TAUTO_COUNT>  (1) 
9

>  <PUBCHEM_CONFORMER_ID>  (1) 
000015CF00000001

>  <PUBCHEM_MMFF94_ENERGY>  (1) 
153.4762

>  <PUBCHEM_FEATURE_SELFOVERLAP>  (1) 
55.861

>  <PUBCHEM_SHAPE_FINGERPRINT>  (1) 
10 15 17676481813696012404
10299344 5 17703792530623645207
10912923 1 17775563156353105965
11796584 16 15647062589560217160
12166972 35 18342740732411205576
12236239 1 17703792552420546725
12390115 104 14045202744382081419
12516196 113 18409448102952342829
12596602 18 18131635616795946787
12616971 3 17989198235734030028
12730499 353 18333168376127169790
13533116 47 18410012117967807482
13782708 43 17968093079837396530
13955234 65 18411408519737219474
14341114 328 17561367279261625863
146900 427 18130504227778501072
14848160 23 17894912923319208347
14849402 71 17632004369529782640
14910302 57 16009020631939619299
15419008 47 17749103409036822533
15685185 35 17482827158268135032
17844677 252 18410576162742679252
17870717 6 16298393422832839275
19377110 9 17774999085687553138
19489759 90 15864069862650628061
19958102 18 15213293102241142403
21033648 29 18041265626037149884
21033650 10 14997126826933798668
21065201 7 16733260149731707468
21267235 1 18272654532978239020
21623969 137 18334297548082121998
21792961 116 17968101881411886942
22061861 79 18040433269875149695
23522609 53 17345213253239038505
23559900 14 16226054443711983605
239999 70 17458345256427591724
29717793 49 12973604413710005514
3178227 256 18408882950424211464
3383291 50 16805612503839835715
3411729 13 15481523469631753498
34797466 226 16877948239131547172
4073 2 18189336929847935306
5104073 3 18337383830024141496
59755656 215 16515400746808990787

>  <PUBCHEM_SHAPE_MULTIPOLES>  (1) 
513.13
19.36
2
1.7
3.85
0.5
0.36
4.12
1.09
-5.48
0.82
2.2
-0.21
0.17

>  <PUBCHEM_SHAPE_SELFOVERLAP>  (1) 
1110.822

>  <PUBCHEM_SHAPE_VOLUME>  (1) 
281.5

>  <PUBCHEM_COORDINATE_TYPE>  (1) 
2
5
10

$$$$
