5586
     RDKit          3D

 24 27  0  0  1  0  0  0  0  0999 V2000
    5.7857   -1.8762   -0.2343 Cl  0  0  0  0  0  0  0  0  0  0  0  0
    5.1967    1.2930    0.0282 S   0  0  0  0  0  0  0  0  0  0  0  0
   -0.0245    1.1662    0.9451 O   0  0  0  0  0  0  0  0  0  0  0  0
    4.7218    2.4808    0.7196 O   0  0  0  0  0  0  0  0  0  0  0  0
    6.4319    0.6507    0.4480 O   0  0  0  0  0  0  0  0  0  0  0  0
   -2.1100   -0.3341   -0.0717 N   0  0  0  0  0  0  0  0  0  0  0  0
   -0.7927   -0.7243   -0.1591 N   0  0  0  0  0  0  0  0  0  0  0  0
    5.2859    1.6222   -1.6447 N   0  0  0  0  0  0  0  0  0  0  0  0
   -4.2266   -0.2594   -1.1329 C   0  0  0  0  0  0  0  0  0  0  0  0
   -4.3616   -1.0154    0.2084 C   0  0  0  0  0  0  0  0  0  0  0  0
   -4.9279    1.0893   -0.8332 C   0  0  0  0  0  0  0  0  0  0  0  0
   -5.1219    0.0022    1.0955 C   0  0  0  0  0  0  0  0  0  0  0  0
   -4.5968    1.3612    0.6338 C   0  0  0  0  0  0  0  0  0  0  0  0
   -6.4443    0.8221   -0.7422 C   0  0  0  0  0  0  0  0  0  0  0  0
   -6.5787    0.0699    0.5931 C   0  0  0  0  0  0  0  0  0  0  0  0
   -2.7217   -0.1834   -1.3923 C   0  0  0  0  0  0  0  0  0  0  0  0
   -2.9255   -1.3241    0.6328 C   0  0  0  0  0  0  0  0  0  0  0  0
    0.1838    0.0949    0.3807 C   0  0  0  0  0  0  0  0  0  0  0  0
    1.5832   -0.3825    0.2279 C   0  0  0  0  0  0  0  0  0  0  0  0
    2.6040    0.5444    0.2016 C   0  0  0  0  0  0  0  0  0  0  0  0
    1.8151   -1.7374    0.1176 C   0  0  0  0  0  0  0  0  0  0  0  0
    3.9170    0.0958    0.0584 C   0  0  0  0  0  0  0  0  0  0  0  0
    3.1281   -2.1862   -0.0254 C   0  0  0  0  0  0  0  0  0  0  0  0
    4.1790   -1.2695   -0.0549 C   0  0  0  0  0  0  0  0  0  0  0  0
  1 24  1  0
  2  4  2  0
  2  5  2  0
  2  8  1  0
  2 22  1  0
  3 18  2  0
  6  7  1  0
  6 16  1  0
  6 17  1  0
  7 18  1  0
  9 10  1  0
  9 11  1  0
  9 16  1  0
 10 12  1  0
 10 17  1  0
 11 13  1  0
 11 14  1  0
 12 13  1  0
 12 15  1  0
 14 15  1  0
 18 19  1  0
 19 20  2  0
 19 21  1  0
 20 22  1  0
 21 23  2  0
 22 24  2  0
 23 24  1  0
M  END
>  <PUBCHEM_COMPOUND_CID>  (1) 
5586

>  <PUBCHEM_CONFORMER_RMSD>  (1) 
0.8

>  <PUBCHEM_CONFORMER_DIVERSEORDER>  (1) 
1
37
47
66
42
13
43
74
6
34
62
46
41
48
81
55
17
35
64
5
72
23
85
24
20
2
61
21
56
27
54
79
73
44
78
36
58
22
28
4
49
53
67
76
14
19
18
3
33
70
12
16
32
71
10
83
30
25
75
50
38
69
9
77
63
29
45
82
68
11
26
65
39
59
80
7
15
8
40
31
52
84
60
51
57

>  <PUBCHEM_MMFF94_PARTIAL_CHARGES>  (1) 
23
1 -0.18
16 0.27
17 0.27
18 0.54
19 0.09
2 1.45
20 -0.15
21 -0.15
22 -0.01
23 -0.15
24 0.18
3 -0.57
39 0.37
4 -0.65
40 0.15
41 0.15
42 0.15
43 0.42
44 0.42
5 -0.65
6 -0.55
7 -0.42
8 -0.98

>  <PUBCHEM_EFFECTIVE_ROTOR_COUNT>  (1) 
5.2

>  <PUBCHEM_PHARMACOPHORE_FEATURES>  (1) 
8
1 3 acceptor
1 4 acceptor
1 5 acceptor
1 7 donor
1 8 donor
5 6 9 10 16 17 rings
6 19 20 21 22 23 24 rings
7 9 10 11 12 13 14 15 rings

>  <PUBCHEM_HEAVY_ATOM_COUNT>  (1) 
24

>  <PUBCHEM_ATOM_DEF_STEREO_COUNT>  (1) 
0

>  <PUBCHEM_ATOM_UDEF_STEREO_COUNT>  (1) 
4

>  <PUBCHEM_BOND_DEF_STEREO_COUNT>  (1) 
0

>  <PUBCHEM_BOND_UDEF_STEREO_COUNT>  (1) 
0

>  <PUBCHEM_ISOTOPIC_ATOM_COUNT>  (1) 
0

>  <PUBCHEM_COMPONENT_COUNT>  (1) 
1

>  <PUBCHEM_CACTVS_TAUTO_COUNT>  (1) 
2

>  <PUBCHEM_CONFORMER_ID>  (1) 
000015D200000001

>  <PUBCHEM_MMFF94_ENERGY>  (1) 
61.2271

>  <PUBCHEM_FEATURE_SELFOVERLAP>  (1) 
40.716

>  <PUBCHEM_SHAPE_FINGERPRINT>  (1) 
10 15 17385726927969441233
10066227 112 18409444753030956237
10411042 1 18052257290258806606
10595046 47 18343578538891166735
10638233 991 17988925582710205865
10835480 77 18409443700157183705
11089746 13 17131827677050066626
11287383 113 17822013116027119394
11315181 36 9367345947115479015
11719270 70 18341608192838377242
12107183 9 17479181864714247035
12166972 35 11386369231604356990
12236239 1 17775283859041079603
12403259 415 17821722806339799398
12516196 113 17703785925048359561
12596602 18 18411420609796072011
12616971 3 18272359863535252774
12730499 353 18259707778934302570
12788726 201 17346324752040747185
12916748 109 17095241406139916885
13073987 5 18336830801766472547
13167372 99 18272090448636616704
13533116 47 18341894057250097650
13955234 65 18262511503789593890
14251764 18 18131351917252854603
14341114 176 18334861606226347661
14528608 73 18201718483301811868
14933364 13 18334579031600878613
15081414 286 18333733520260831780
15183329 4 17561084700182998916
15348495 7 17458350779101264192
15788980 27 18201997716173991599
17844677 252 18334581191948544029
18222031 100 14692569927022344090
18335252 98 18410014373485417115
18608769 82 18335424625538238275
18927931 339 11743843590699053505
19377110 9 13695865900697763637
20281389 69 18409446973291489417
20612939 158 18412263917586203234
21033648 29 17458334209613204693
21150785 3 16773791532713116381
21267235 1 18270687463557955134
21641784 216 18270697384627064400
220451 1 17418373593230971223
23081809 10 17775282746908229079
23198884 109 18343864407809006907
23402539 116 12319448875695732907
23522609 53 17631754736760076985
23559900 14 18341888623430478024
23569914 2 17612820025417456333
239999 70 18410013196290013270
2916195 48 17967530186018762593
29717793 49 17632300038813762406
300161 21 18413384345530773883
3004659 81 18410010997197822282
34797466 226 14405176309136532363
3545911 37 18334858320296745781
4073 2 18041284352142117834
4340502 62 17313100848182148402
5104073 3 17676484983043715225
5283173 99 18188769444425094225
542803 24 17989205941026716835
543368 44 18201154442590513577
7495541 125 13190352278542831391

>  <PUBCHEM_SHAPE_MULTIPOLES>  (1) 
467.08
18.38
1.93
1.06
2.41
0.07
0.23
4.11
0.73
-3.07
-0.06
0.65
0.24
0.27

>  <PUBCHEM_SHAPE_SELFOVERLAP>  (1) 
1000.859

>  <PUBCHEM_SHAPE_VOLUME>  (1) 
263.6

>  <PUBCHEM_COORDINATE_TYPE>  (1) 
2
5
10

$$$$
