5592
     RDKit          3D

 19 20  0  0  1  0  0  0  0  0999 V2000
   -1.0036   -0.6488   -0.5954 O   0  0  0  0  0  0  0  0  0  0  0  0
    4.2765    0.4700    0.5782 O   0  0  0  0  0  0  0  0  0  0  0  0
   -4.4768    0.0324    1.4285 O   0  0  0  0  0  0  0  0  0  0  0  0
   -2.8004   -1.5062    1.3718 O   0  0  0  0  0  0  0  0  0  0  0  0
   -1.9341    0.4198   -0.8532 C   0  0  0  0  0  0  0  0  0  0  0  0
   -1.7138    1.6085    0.0964 C   0  0  0  0  0  0  0  0  0  0  0  0
   -0.2924    2.1437   -0.0041 C   0  0  0  0  0  0  0  0  0  0  0  0
    0.6892    1.0098    0.0068 C   0  0  0  0  0  0  0  0  0  0  0  0
    0.2851   -0.2966   -0.2926 C   0  0  0  0  0  0  0  0  0  0  0  0
   -3.3295   -0.1675   -0.5957 C   0  0  0  0  0  0  0  0  0  0  0  0
   -1.8379    0.8172   -2.3340 C   0  0  0  0  0  0  0  0  0  0  0  0
    2.0388    1.2599    0.2894 C   0  0  0  0  0  0  0  0  0  0  0  0
    1.2139   -1.3411   -0.2737 C   0  0  0  0  0  0  0  0  0  0  0  0
    2.5521   -1.0837    0.0203 C   0  0  0  0  0  0  0  0  0  0  0  0
    2.9653    0.2169    0.2982 C   0  0  0  0  0  0  0  0  0  0  0  0
   -3.4697   -0.6455    0.8203 C   0  0  0  0  0  0  0  0  0  0  0  0
    2.5139    2.6501    0.5807 C   0  0  0  0  0  0  0  0  0  0  0  0
    0.7746   -2.7400   -0.5774 C   0  0  0  0  0  0  0  0  0  0  0  0
    3.5488   -2.1989    0.0355 C   0  0  0  0  0  0  0  0  0  0  0  0
  1  5  1  0
  1  9  1  0
  2 15  1  0
  3 16  1  0
  4 16  2  0
  5  6  1  0
  5 10  1  0
  5 11  1  0
  6  7  1  0
  7  8  1  0
  8  9  2  0
  8 12  1  0
  9 13  1  0
 10 16  1  0
 12 15  2  0
 12 17  1  0
 13 14  2  0
 13 18  1  0
 14 15  1  0
 14 19  1  0
M  END
>  <PUBCHEM_COMPOUND_CID>  (1) 
5592

>  <PUBCHEM_CONFORMER_RMSD>  (1) 
0.6

>  <PUBCHEM_CONFORMER_DIVERSEORDER>  (1) 
2
11
8
3
10
12
9
7
6
4
1
5

>  <PUBCHEM_MMFF94_PARTIAL_CHARGES>  (1) 
19
1 -0.36
10 0.06
12 -0.14
13 -0.14
14 -0.14
15 0.08
16 0.66
17 0.14
18 0.14
19 0.14
2 -0.53
3 -0.65
38 0.45
39 0.5
4 -0.57
5 0.28
7 0.14
8 -0.14
9 0.08

>  <PUBCHEM_EFFECTIVE_ROTOR_COUNT>  (1) 
2.8

>  <PUBCHEM_PHARMACOPHORE_FEATURES>  (1) 
7
1 1 acceptor
1 2 donor
1 3 acceptor
1 4 acceptor
3 3 4 16 anion
6 1 5 6 7 8 9 rings
6 8 9 12 13 14 15 rings

>  <PUBCHEM_HEAVY_ATOM_COUNT>  (1) 
19

>  <PUBCHEM_ATOM_DEF_STEREO_COUNT>  (1) 
0

>  <PUBCHEM_ATOM_UDEF_STEREO_COUNT>  (1) 
1

>  <PUBCHEM_BOND_DEF_STEREO_COUNT>  (1) 
0

>  <PUBCHEM_BOND_UDEF_STEREO_COUNT>  (1) 
0

>  <PUBCHEM_ISOTOPIC_ATOM_COUNT>  (1) 
0

>  <PUBCHEM_COMPONENT_COUNT>  (1) 
1

>  <PUBCHEM_CACTVS_TAUTO_COUNT>  (1) 
9

>  <PUBCHEM_CONFORMER_ID>  (1) 
000015D800000002

>  <PUBCHEM_MMFF94_ENERGY>  (1) 
61.0226

>  <PUBCHEM_FEATURE_SELFOVERLAP>  (1) 
35.61

>  <PUBCHEM_SHAPE_FINGERPRINT>  (1) 
10493431 412 17909270530749176264
10967382 1 18341321271583866836
11132069 177 18334856155781175099
11471102 20 18341038640770460317
11471102 22 18410578404678099682
11582403 64 16385000952450973077
12236239 1 17346875676396851957
12596599 1 17704356571689060391
12633257 1 18334860523836749355
13140716 1 18052528057316734328
13296908 3 18336820892849743438
13583140 156 17098300308077361584
14223421 5 18408322176848291961
14790565 3 18196104445830219384
15219456 202 18335135371567904911
15309172 13 18342455997284609783
15375358 24 18334287648461579293
15653759 3 18040714757773425627
16945 1 18270666650040644980
17844478 74 18187080654846996205
18186145 218 18131066060939997284
18219364 16 18337941363738446047
19049666 15 18116423739833143815
19591789 44 17761500583423455852
200 152 18130490990820910549
20645477 70 18339062835781978591
21041028 32 18057892350793836960
21061003 4 18411702045664279087
22112679 90 16988549243367415733
221490 88 18338237047021093426
22182313 1 18268135484374519148
23184049 59 18343025501347685659
2334 1 17619614118549852180
23493267 7 17750213851408587212
23526113 38 17901929873557827215
23557571 272 17385992958365263925
23559900 14 17749665195338279718
2748010 2 18337657664253818052
31174 14 18410295825931795056
458136 41 18265903642936657412
5104073 3 18267860584876636384
568465 68 18268439090800709235
6049 1 18114458989710940237
77492 1 17274815891714671469
81228 2 17045689454013563170
8809292 202 18189617133482482643

>  <PUBCHEM_SHAPE_MULTIPOLES>  (1) 
367.53
6.65
2.59
1.24
1.28
0.05
-0.38
1.13
2.15
-1.94
0.13
1.43
-0.03
0.91

>  <PUBCHEM_SHAPE_SELFOVERLAP>  (1) 
784.529

>  <PUBCHEM_SHAPE_VOLUME>  (1) 
206.6

>  <PUBCHEM_COORDINATE_TYPE>  (1) 
2
5
10

$$$$
