5594
     RDKit          3D

 20 22  0  0  1  0  0  0  0  0999 V2000
    3.9950    3.1915   -0.2010 Cl  0  0  0  0  0  0  0  0  0  0  0  0
    5.7615   -1.8941    0.1812 Cl  0  0  0  0  0  0  0  0  0  0  0  0
   -0.1225    0.1162    0.4654 O   0  0  0  0  0  0  0  0  0  0  0  0
    0.3948   -1.8874   -0.5430 O   0  0  0  0  0  0  0  0  0  0  0  0
   -3.5437   -0.4917   -1.0267 C   0  0  0  0  0  0  0  0  0  0  0  0
   -3.8054    0.7950    0.9252 C   0  0  0  0  0  0  0  0  0  0  0  0
   -4.0351    0.8972   -0.5905 C   0  0  0  0  0  0  0  0  0  0  0  0
   -4.1880   -1.4374    0.0019 C   0  0  0  0  0  0  0  0  0  0  0  0
   -4.3593   -0.5968    1.2770 C   0  0  0  0  0  0  0  0  0  0  0  0
   -2.0062   -0.5212   -0.9225 C   0  0  0  0  0  0  0  0  0  0  0  0
   -2.2903    0.8758    1.1963 C   0  0  0  0  0  0  0  0  0  0  0  0
   -1.5004   -0.2401    0.4995 C   0  0  0  0  0  0  0  0  0  0  0  0
   -5.4913    1.1701   -0.9656 C   0  0  0  0  0  0  0  0  0  0  0  0
    0.7174   -0.8025   -0.0845 C   0  0  0  0  0  0  0  0  0  0  0  0
    2.1191   -0.3135   -0.0586 C   0  0  0  0  0  0  0  0  0  0  0  0
    3.1444   -1.2319    0.0382 C   0  0  0  0  0  0  0  0  0  0  0  0
    2.3537    1.0445   -0.1330 C   0  0  0  0  0  0  0  0  0  0  0  0
    3.6705    1.5038   -0.1092 C   0  0  0  0  0  0  0  0  0  0  0  0
    4.4613   -0.7727    0.0619 C   0  0  0  0  0  0  0  0  0  0  0  0
    4.7244    0.5952   -0.0119 C   0  0  0  0  0  0  0  0  0  0  0  0
  1 18  1  0
  2 19  1  0
  3 12  1  0
  3 14  1  0
  4 14  2  0
  5  7  1  0
  5  8  1  0
  5 10  1  0
  6  7  1  0
  6  9  1  0
  6 11  1  0
  7 13  1  0
  8  9  1  0
 10 12  1  0
 11 12  1  0
 14 15  1  0
 15 16  2  0
 15 17  1  0
 16 19  1  0
 17 18  2  0
 18 20  1  0
 19 20  2  0
M  END
>  <PUBCHEM_COMPOUND_CID>  (1) 
5594

>  <PUBCHEM_CONFORMER_RMSD>  (1) 
0.6

>  <PUBCHEM_CONFORMER_DIVERSEORDER>  (1) 
1
30
10
12
25
8
23
7
9
14
18
11
28
16
5
4
24
22
15
26
6
21
27
2
17
20
19
33
3
32
29
13
31

>  <PUBCHEM_MMFF94_PARTIAL_CHARGES>  (1) 
15
1 -0.18
12 0.28
14 0.63
15 0.09
16 -0.15
17 -0.15
18 0.18
19 0.18
2 -0.18
20 -0.15
3 -0.43
36 0.15
37 0.15
38 0.15
4 -0.57

>  <PUBCHEM_EFFECTIVE_ROTOR_COUNT>  (1) 
4.2

>  <PUBCHEM_PHARMACOPHORE_FEATURES>  (1) 
3
1 4 acceptor
6 15 16 17 18 19 20 rings
8 5 6 7 8 9 10 11 12 rings

>  <PUBCHEM_HEAVY_ATOM_COUNT>  (1) 
20

>  <PUBCHEM_ATOM_DEF_STEREO_COUNT>  (1) 
0

>  <PUBCHEM_ATOM_UDEF_STEREO_COUNT>  (1) 
2

>  <PUBCHEM_BOND_DEF_STEREO_COUNT>  (1) 
0

>  <PUBCHEM_BOND_UDEF_STEREO_COUNT>  (1) 
0

>  <PUBCHEM_ISOTOPIC_ATOM_COUNT>  (1) 
0

>  <PUBCHEM_COMPONENT_COUNT>  (1) 
1

>  <PUBCHEM_CACTVS_TAUTO_COUNT>  (1) 
1

>  <PUBCHEM_CONFORMER_ID>  (1) 
000015DA00000001

>  <PUBCHEM_MMFF94_ENERGY>  (1) 
58.1037

>  <PUBCHEM_FEATURE_SELFOVERLAP>  (1) 
15.223

>  <PUBCHEM_SHAPE_FINGERPRINT>  (1) 
10014705 185 18333728022987093821
10366900 7 15140680301906703873
10763959 59 18186801374862720964
10912923 1 18060423550824689955
11045977 3 18040720268111133946
11089746 13 18261947462438971797
11315181 36 17703785912089701923
11405975 8 18333448729262854611
11545043 162 17313114046136289208
12107183 9 17693383239379664354
12236239 1 18060134332085267559
12403259 415 18040157331206099153
12403260 363 18342457015339785976
12507557 5 18410009927170476537
12616971 3 18202288004307315243
128620 24 17561369486700625587
13167823 11 18412544327332253978
13224815 77 18343871025852541139
13583140 156 18114183012566850363
13590594 115 18336830776245270472
13675066 3 17967254225505753420
13760787 5 18201722859810209017
13911852 28 18048875192122561194
14251764 38 18334012765749037309
14341114 176 18260555527936597025
14528608 73 18411981403180096908
15196674 1 18410574015248078677
15788980 27 18335421257307411834
17349148 13 18131356293376344330
17844677 252 18408328782439395517
18186145 218 18411986857698794374
18681886 176 18202274810848595362
19433438 28 17894915135200920665
19489759 90 16587739850262170249
200 152 18130782348422423335
20612939 158 18411138039449784692
20645477 70 18409171004742524482
20832881 197 17968935280702157978
21033648 144 18336822104257413604
21033648 29 17385997386328761748
21033650 10 15553631563547091490
21065198 57 18261112997517140434
21065201 7 16588024627783908280
21709351 56 18411696560864474326
23402539 116 18412821369833864159
23557571 272 17095533872523513403
23559900 14 18409444756977647130
2838139 119 18190732052039528789
29717793 49 17846780672247445484
351380 180 18334574637944377792
4214541 1 18409729556174427631
474 4 18411419531352903552
5104073 3 18409169930340935073
5281201 14 18260831509845412700
542803 24 18410857659156692154
602551 16 15792022215767488138
633830 44 18114173155321272810
67856867 119 18272644693102824624
7495541 125 17560517416644635938
77779 3 18410012160505939111
90127 26 18040155127756105081
9971528 1 17894631470075953444
9981440 41 17549246478290002176

>  <PUBCHEM_SHAPE_MULTIPOLES>  (1) 
403.59
13.43
2.18
1.01
1.8
1.16
0.09
0.5
-0.44
3.12
-0.16
-1.3
0.05
-0.02

>  <PUBCHEM_SHAPE_SELFOVERLAP>  (1) 
849.181

>  <PUBCHEM_SHAPE_VOLUME>  (1) 
231.4

>  <PUBCHEM_COORDINATE_TYPE>  (1) 
2
5
10

$$$$
