5596
     RDKit          3D

 29 33  0  0  1  0  0  0  0  0999 V2000
   -0.1426    0.1203   -0.9072 O   0  0  0  0  0  0  0  0  0  0  0  0
    0.8267   -1.9648   -0.9413 O   0  0  0  0  0  0  0  0  0  0  0  0
    1.2177   -0.3554    1.6006 O   0  0  0  0  0  0  0  0  0  0  0  0
   -4.1355    0.0074    0.1370 N   0  0  0  0  0  0  0  0  0  0  0  0
   -3.4186   -1.3575    0.2204 C   0  0  0  0  0  0  0  0  0  0  0  0
   -3.8919    0.3538   -1.3380 C   0  0  0  0  0  0  0  0  0  0  0  0
   -3.9166   -2.0733   -1.0469 C   0  0  0  0  0  0  0  0  0  0  0  0
   -4.2448   -0.9594   -2.0482 C   0  0  0  0  0  0  0  0  0  0  0  0
   -3.7027    1.0799    1.1343 C   0  0  0  0  0  0  0  0  0  0  0  0
   -5.6358   -0.1011    0.4800 C   0  0  0  0  0  0  0  0  0  0  0  0
   -1.8969   -1.1469    0.1528 C   0  0  0  0  0  0  0  0  0  0  0  0
   -2.4093    0.7202   -1.5252 C   0  0  0  0  0  0  0  0  0  0  0  0
   -1.4501   -0.4041   -1.1128 C   0  0  0  0  0  0  0  0  0  0  0  0
   -4.4038    0.6961    2.4206 C   0  0  0  0  0  0  0  0  0  0  0  0
   -5.7054    0.0400    1.9927 C   0  0  0  0  0  0  0  0  0  0  0  0
    0.8274   -0.7944   -0.5783 C   0  0  0  0  0  0  0  0  0  0  0  0
    1.8808   -0.1616    0.3347 C   0  0  0  0  0  0  0  0  0  0  0  0
    2.1101    1.3301    0.0798 C   0  0  0  0  0  0  0  0  0  0  0  0
    3.2062   -0.9268    0.3258 C   0  0  0  0  0  0  0  0  0  0  0  0
    2.0939    1.7863   -1.2180 C   0  0  0  0  0  0  0  0  0  0  0  0
    3.9735   -0.9017   -0.8160 C   0  0  0  0  0  0  0  0  0  0  0  0
    2.3232    2.1572    1.1584 C   0  0  0  0  0  0  0  0  0  0  0  0
    3.5799   -1.6101    1.4601 C   0  0  0  0  0  0  0  0  0  0  0  0
    2.3026    3.1458   -1.4504 C   0  0  0  0  0  0  0  0  0  0  0  0
    5.1816   -1.5988   -0.8241 C   0  0  0  0  0  0  0  0  0  0  0  0
    2.5318    3.5167    0.9259 C   0  0  0  0  0  0  0  0  0  0  0  0
    4.7881   -2.3072    1.4519 C   0  0  0  0  0  0  0  0  0  0  0  0
    2.5214    4.0109   -0.3785 C   0  0  0  0  0  0  0  0  0  0  0  0
    5.5889   -2.3015    0.3098 C   0  0  0  0  0  0  0  0  0  0  0  0
  1 13  1  0
  1 16  1  0
  2 16  2  0
  3 17  1  0
  4  5  1  0
  4  6  1  0
  4  9  1  0
  4 10  1  0
  5  7  1  0
  5 11  1  0
  6  8  1  0
  6 12  1  0
  7  8  1  0
  9 14  1  0
 10 15  1  0
 11 13  1  0
 12 13  1  0
 14 15  1  0
 16 17  1  0
 17 18  1  0
 17 19  1  0
 18 20  2  0
 18 22  1  0
 19 21  2  0
 19 23  1  0
 20 24  1  0
 21 25  1  0
 22 26  2  0
 23 27  2  0
 24 28  2  0
 25 29  2  0
 26 28  1  0
 27 29  1  0
M  CHG  1   4   1
M  END
>  <PUBCHEM_COMPOUND_CID>  (1) 
5596

>  <PUBCHEM_CONFORMER_RMSD>  (1) 
0.8

>  <PUBCHEM_CONFORMER_DIVERSEORDER>  (1) 
1
106
43
33
28
11
112
74
40
46
24
66
5
113
35
96
124
2
18
8
95
92
29
25
49
111
26
109
86
12
77
41
79
31
38
20
68
42
101
80
128
34
58
72
122
7
82
47
119
48
17
21
39
87
102
22
83
19
37
62
3
71
107
89
44
85
81
10
52
84
27
125
90
88
4
13
115
60
36
99
15
9
6
56
123
23
32
108
76
30
45
116
54
117
103
61
120
94
70
14
69
51
118
63
53
126
75
67
100
91
114
98
16
73
57
127
121
64
65
110
93
78
50
97
55
59
105
104

>  <PUBCHEM_MMFF94_PARTIAL_CHARGES>  (1) 
34
1 -0.43
10 0.5
13 0.28
16 0.66
17 0.63
18 -0.14
19 -0.14
2 -0.57
20 -0.15
21 -0.15
22 -0.15
23 -0.15
24 -0.15
25 -0.15
26 -0.15
27 -0.15
28 -0.15
29 -0.15
3 -0.68
4 -1.01
49 0.4
5 0.5
50 0.15
51 0.15
52 0.15
53 0.15
54 0.15
55 0.15
56 0.15
57 0.15
58 0.15
59 0.15
6 0.5
9 0.5

>  <PUBCHEM_EFFECTIVE_ROTOR_COUNT>  (1) 
6.8

>  <PUBCHEM_PHARMACOPHORE_FEATURES>  (1) 
8
1 2 acceptor
1 3 acceptor
1 3 donor
1 4 cation
5 4 9 10 14 15 rings
6 18 20 22 24 26 28 rings
6 19 21 23 25 27 29 rings
8 4 5 6 7 8 11 12 13 rings

>  <PUBCHEM_HEAVY_ATOM_COUNT>  (1) 
29

>  <PUBCHEM_ATOM_DEF_STEREO_COUNT>  (1) 
0

>  <PUBCHEM_ATOM_UDEF_STEREO_COUNT>  (1) 
2

>  <PUBCHEM_BOND_DEF_STEREO_COUNT>  (1) 
0

>  <PUBCHEM_BOND_UDEF_STEREO_COUNT>  (1) 
0

>  <PUBCHEM_ISOTOPIC_ATOM_COUNT>  (1) 
0

>  <PUBCHEM_COMPONENT_COUNT>  (1) 
1

>  <PUBCHEM_CACTVS_TAUTO_COUNT>  (1) 
1

>  <PUBCHEM_CONFORMER_ID>  (1) 
000015DC00000001

>  <PUBCHEM_MMFF94_ENERGY>  (1) 
105.4504

>  <PUBCHEM_FEATURE_SELFOVERLAP>  (1) 
40.603

>  <PUBCHEM_SHAPE_FINGERPRINT>  (1) 
10366900 7 17168412784393460519
10675989 125 18195538210765088364
10764073 3 15480711798127669940
10928967 22 18040988523231898435
11049842 53 16988021443093730940
11405975 8 18411983598082601187
11421498 54 17969782965549494906
11545043 162 17167861941931689119
11552529 35 18052822730522950943
11578080 2 17462316778036191248
12107698 1 18335988575875803769
12166972 35 18272927224124317571
12422481 6 17702105768249440016
12553582 1 18335134237892074938
12616971 3 18202003244303050335
12633257 1 18341898476396859815
12788726 201 17972310712801467650
12988421 55 17622417847289609168
13009979 54 18059859458457577352
13224815 77 18115302422878049765
13257819 101 13398336946283325368
13533116 47 18337105795595510703
13583140 156 18040711421185457211
13590594 115 18336830788671268928
13631057 29 11386956405378932433
13673619 4 17676496003376096567
13782708 43 17385726872082561355
14341114 176 18408888433952684153
14347329 18 15866574433953026909
14739800 52 17273121621537583080
14849402 71 18340773757817429608
14950920 106 18264227901648449457
14955137 171 18341061713735837182
15021287 119 18413393111706562355
15131766 46 18122068873777282605
15238133 3 17417826006385935609
15475509 8 17844831234374410846
15788980 27 16486968488258252359
1601671 61 18272090444695187654
16992787 43 18262246607882368268
17349148 13 18131631175209139727
17818456 19 17775287153159416747
17980427 23 17774996882401069408
1813 80 18342456989954857406
20739085 24 18342458123810424992
21033648 144 18337102492427913941
21033648 29 17458334269658519429
21864079 5 17702675491672437305
21987440 362 15694086296725112321
22849341 161 18341337699733683688
23559900 14 18115292466806299503
24771293 8 18201428217344795688
249057 25 17846780720167201721
312423 11 18272369832095954031
314194 84 18114457873320545690
3552219 110 18339933606975492392
3737641 26 18122626046530036290
404807 78 10302082498731935113
4409770 3 17540234468392255940
5081480 168 18261401043904707500
5104073 3 18341899649186780163
513202 73 17835813997449471346
5219985 9 18338796720315414046
57724786 102 18339648931351522641
5895379 119 16844751753864384752
5912855 24 18052826042069460087
6086070 43 18263062354750901237
6703917 75 17396440763029972292
6823239 73 16226051110432291525
7495541 125 18040439880024964502
8863177 126 17749401394104753875
9841814 1 18261380157905651202

>  <PUBCHEM_SHAPE_MULTIPOLES>  (1) 
574.22
12.79
3.46
1.94
6.52
3.56
-0.38
-5.92
-3.23
-5.91
0.1
1.82
0.13
-1.64

>  <PUBCHEM_SHAPE_SELFOVERLAP>  (1) 
1255.942

>  <PUBCHEM_SHAPE_VOLUME>  (1) 
310.4

>  <PUBCHEM_COORDINATE_TYPE>  (1) 
2
5
10

$$$$
