5598
     RDKit          3D

 26 29  0  0  1  0  0  0  0  0999 V2000
   -1.9000   -2.8267    0.3592 O   0  0  0  0  0  0  0  0  0  0  0  0
   -3.0312    2.0109   -1.5696 O   0  0  0  0  0  0  0  0  0  0  0  0
   -3.3632   -1.0451    0.1403 N   0  0  0  0  0  0  0  0  0  0  0  0
   -1.4923    0.3559   -1.1189 N   0  0  0  0  0  0  0  0  0  0  0  0
    3.1965    0.5737    0.5855 N   0  0  0  0  0  0  0  0  0  0  0  0
   -3.5554    0.3969    0.1443 C   0  0  0  0  0  0  0  0  0  0  0  0
   -5.0591    0.5618   -0.0436 C   0  0  0  0  0  0  0  0  0  0  0  0
   -4.6136   -1.7577    0.3391 C   0  0  0  0  0  0  0  0  0  0  0  0
   -5.6220   -0.6658    0.6692 C   0  0  0  0  0  0  0  0  0  0  0  0
   -0.9907   -0.6733   -0.2144 C   0  0  0  0  0  0  0  0  0  0  0  0
   -2.1193   -1.6455    0.0970 C   0  0  0  0  0  0  0  0  0  0  0  0
   -2.7126    0.9929   -0.9602 C   0  0  0  0  0  0  0  0  0  0  0  0
   -0.3658   -0.0960    1.0459 C   0  0  0  0  0  0  0  0  0  0  0  0
    1.0173    0.4429    0.7898 C   0  0  0  0  0  0  0  0  0  0  0  0
    2.1675   -0.2733    0.8985 C   0  0  0  0  0  0  0  0  0  0  0  0
    1.3168    1.7614    0.4028 C   0  0  0  0  0  0  0  0  0  0  0  0
    2.7064    1.8231    0.2786 C   0  0  0  0  0  0  0  0  0  0  0  0
    2.4249   -1.6792    1.2665 C   0  0  0  0  0  0  0  0  0  0  0  0
    0.5603    2.9210    0.1414 C   0  0  0  0  0  0  0  0  0  0  0  0
    3.3800    2.9912   -0.0958 C   0  0  0  0  0  0  0  0  0  0  0  0
    2.4365   -2.6640    0.1093 C   0  0  0  0  0  0  0  0  0  0  0  0
    1.2206    4.0967   -0.2339 C   0  0  0  0  0  0  0  0  0  0  0  0
    2.6089    4.1289   -0.3502 C   0  0  0  0  0  0  0  0  0  0  0  0
    3.4906   -3.0890   -0.6130 C   0  0  0  0  0  0  0  0  0  0  0  0
    3.4252   -4.0698   -1.7493 C   0  0  0  0  0  0  0  0  0  0  0  0
    4.8738   -2.5719   -0.3186 C   0  0  0  0  0  0  0  0  0  0  0  0
  1 11  2  0
  2 12  2  0
  3  6  1  0
  3  8  1  0
  3 11  1  0
  4 10  1  0
  4 12  1  0
  5 15  1  0
  5 17  1  0
  6  7  1  0
  6 12  1  0
  7  9  1  0
  8  9  1  0
 10 11  1  0
 10 13  1  0
 13 14  1  0
 14 15  2  0
 14 16  1  0
 15 18  1  0
 16 17  2  0
 16 19  1  0
 17 20  1  0
 18 21  1  0
 19 22  2  0
 20 23  2  0
 21 24  2  3
 22 23  1  0
 24 25  1  0
 24 26  1  0
M  END
>  <PUBCHEM_COMPOUND_CID>  (1) 
5598

>  <PUBCHEM_CONFORMER_RMSD>  (1) 
0.8

>  <PUBCHEM_CONFORMER_DIVERSEORDER>  (1) 
3
124
58
41
51
118
80
94
71
45
123
20
67
127
56
134
115
87
79
113
132
125
88
48
72
131
44
117
128
116
55
114
26
82
96
36
101
76
119
109
77
91
135
34
64
19
110
66
111
23
103
95
73
105
59
136
75
100
133
49
121
108
92
120
106
33
85
65
13
10
53
130
107
30
86
40
99
35
69
25
74
61
104
102
129
42
37
43
89
112
90
32
83
22
24
63
84
97
126
98
28
81
57
68
47
12
62
70
8
50
18
9
29
16
21
39
46
78
122
27
60
93
52
17
15
11
5
7
38
54
14
4
6
2
1
31

>  <PUBCHEM_MMFF94_PARTIAL_CHARGES>  (1) 
30
1 -0.57
10 0.36
11 0.57
12 0.57
13 0.18
14 -0.18
15 -0.33
17 -0.15
18 0.32
19 -0.15
2 -0.57
20 -0.15
21 -0.29
22 -0.15
23 -0.15
24 -0.28
25 0.14
26 0.14
3 -0.66
37 0.37
38 0.27
4 -0.73
41 0.15
42 0.15
43 0.15
44 0.15
45 0.15
5 0.03
6 0.36
8 0.3

>  <PUBCHEM_EFFECTIVE_ROTOR_COUNT>  (1) 
5

>  <PUBCHEM_PHARMACOPHORE_FEATURES>  (1) 
10
1 1 acceptor
1 2 acceptor
1 4 donor
1 5 cation
1 5 donor
3 24 25 26 hydrophobe
5 3 6 7 8 9 rings
5 5 14 15 16 17 rings
6 16 17 19 20 22 23 rings
6 3 4 6 10 11 12 rings

>  <PUBCHEM_HEAVY_ATOM_COUNT>  (1) 
26

>  <PUBCHEM_ATOM_DEF_STEREO_COUNT>  (1) 
0

>  <PUBCHEM_ATOM_UDEF_STEREO_COUNT>  (1) 
2

>  <PUBCHEM_BOND_DEF_STEREO_COUNT>  (1) 
0

>  <PUBCHEM_BOND_UDEF_STEREO_COUNT>  (1) 
0

>  <PUBCHEM_ISOTOPIC_ATOM_COUNT>  (1) 
0

>  <PUBCHEM_COMPONENT_COUNT>  (1) 
1

>  <PUBCHEM_CACTVS_TAUTO_COUNT>  (1) 
2

>  <PUBCHEM_CONFORMER_ID>  (1) 
000015DE00000003

>  <PUBCHEM_MMFF94_ENERGY>  (1) 
60.6464

>  <PUBCHEM_FEATURE_SELFOVERLAP>  (1) 
50.934

>  <PUBCHEM_SHAPE_FINGERPRINT>  (1) 
10411042 1 18266178323201447826
10616163 171 17975974585554552875
1100329 8 17979356365636988817
116883 192 18124024638289105320
12107183 9 18126577730348911913
12160290 23 17190634807622646576
12553582 1 18049439249628353762
12623949 98 18265628735149876943
12633257 1 18116415102580006977
12788726 201 17830458272047047986
13009979 54 17916595223630586241
13140716 1 17975122455268677097
13533116 47 18343017844143748491
13785724 45 18126862507686071527
138480 1 18410856534297338226
14022347 108 17975681810439485978
14251757 5 17758677746032679068
14790565 3 17043456333314244672
14866123 147 17477488599379533163
15081414 286 18411417289533196384
15664445 248 18341910588594680796
15806764 133 18261668165253507237
15840311 113 18336274475454975121
17357779 13 17841418242554469278
17492 89 18411982498861416155
17909252 39 18341054021713082896
1813 80 18057616364848737950
18785283 64 18410577313851663638
23559900 14 18410569570405424243
23566358 27 18339359781226069175
24771750 20 18119547650410879364
255183 451 18271813384596983871
314173 41 18337671919266415978
38695281 34 18124879216680238952
4280585 95 18266454313990218106
46194498 28 18335421278893096206
6287921 2 18042969959154035781
6442390 28 17762058039702541353
6443956 14 18409169905093337350
6669772 16 18198349657669916548
6823239 73 18408602535386947474
7364860 26 18337389443514332768
8272917 22 18339083803559109763
9709674 26 18335982073052964707

>  <PUBCHEM_SHAPE_MULTIPOLES>  (1) 
508.39
9.73
5.4
1.11
9.6
1.83
0.21
-5.43
0.48
-8.13
1.68
-0.24
-0.39
1.63

>  <PUBCHEM_SHAPE_SELFOVERLAP>  (1) 
1100.279

>  <PUBCHEM_SHAPE_VOLUME>  (1) 
280.2

>  <PUBCHEM_COORDINATE_TYPE>  (1) 
2
5
10

$$$$
