5599
     RDKit          3D

 15 16  0  0  0  0  0  0  0  0999 V2000
    3.5181   -1.5283   -0.4430 O   0  0  0  0  0  0  0  0  0  0  0  0
    1.8989   -1.5133    1.1861 O   0  0  0  0  0  0  0  0  0  0  0  0
   -1.7137    2.0146    0.4010 N   0  0  0  0  0  0  0  0  0  0  0  0
    3.1144    1.3172    0.6276 N   0  0  0  0  0  0  0  0  0  0  0  0
    0.0577    1.0481   -0.5235 C   0  0  0  0  0  0  0  0  0  0  0  0
   -0.9532    0.0601   -0.3597 C   0  0  0  0  0  0  0  0  0  0  0  0
   -2.0540    0.6926    0.2223 C   0  0  0  0  0  0  0  0  0  0  0  0
    1.4023    0.8440   -1.0997 C   0  0  0  0  0  0  0  0  0  0  0  0
   -0.4396    2.2391   -0.0468 C   0  0  0  0  0  0  0  0  0  0  0  0
   -1.0378   -1.3158   -0.6515 C   0  0  0  0  0  0  0  0  0  0  0  0
   -3.2397    0.0153    0.5284 C   0  0  0  0  0  0  0  0  0  0  0  0
    2.4068    0.4654   -0.0355 C   0  0  0  0  0  0  0  0  0  0  0  0
   -2.2176   -2.0062   -0.3510 C   0  0  0  0  0  0  0  0  0  0  0  0
   -3.3003   -1.3489    0.2299 C   0  0  0  0  0  0  0  0  0  0  0  0
    2.5578   -0.9836    0.3152 C   0  0  0  0  0  0  0  0  0  0  0  0
  1 15  1  0
  2 15  2  0
  3  7  1  0
  3  9  1  0
  4 12  2  0
  5  6  1  0
  5  8  1  0
  5  9  2  0
  6  7  2  0
  6 10  1  0
  7 11  1  0
  8 12  1  0
 10 13  2  0
 11 14  2  0
 12 15  1  0
 13 14  1  0
M  END
>  <PUBCHEM_COMPOUND_CID>  (1) 
5599

>  <PUBCHEM_CONFORMER_RMSD>  (1) 
0.6

>  <PUBCHEM_CONFORMER_DIVERSEORDER>  (1) 
1
8
38
16
37
25
28
34
33
40
20
26
36
39
15
35
5
17
31
23
32
29
22
6
21
24
30
27
11
7
2
14
12
19
10
3
13
4
18
9

>  <PUBCHEM_MMFF94_PARTIAL_CHARGES>  (1) 
22
1 -0.65
10 -0.15
11 -0.15
12 0.39
13 -0.15
14 -0.15
15 0.72
18 0.15
19 0.27
2 -0.57
20 0.15
21 0.15
22 0.15
23 0.15
24 0.4
25 0.5
3 0.03
4 -0.85
5 -0.18
7 -0.15
8 0.24
9 -0.3

>  <PUBCHEM_EFFECTIVE_ROTOR_COUNT>  (1) 
3

>  <PUBCHEM_PHARMACOPHORE_FEATURES>  (1) 
9
1 1 acceptor
1 2 acceptor
1 3 cation
1 3 donor
1 4 acceptor
1 4 donor
3 1 2 15 anion
5 3 5 6 7 9 rings
6 6 7 10 11 13 14 rings

>  <PUBCHEM_HEAVY_ATOM_COUNT>  (1) 
15

>  <PUBCHEM_ATOM_DEF_STEREO_COUNT>  (1) 
0

>  <PUBCHEM_ATOM_UDEF_STEREO_COUNT>  (1) 
0

>  <PUBCHEM_BOND_DEF_STEREO_COUNT>  (1) 
0

>  <PUBCHEM_BOND_UDEF_STEREO_COUNT>  (1) 
0

>  <PUBCHEM_ISOTOPIC_ATOM_COUNT>  (1) 
0

>  <PUBCHEM_COMPONENT_COUNT>  (1) 
1

>  <PUBCHEM_CACTVS_TAUTO_COUNT>  (1) 
4

>  <PUBCHEM_CONFORMER_ID>  (1) 
000015DF00000001

>  <PUBCHEM_MMFF94_ENERGY>  (1) 
26.9896

>  <PUBCHEM_FEATURE_SELFOVERLAP>  (1) 
45.814

>  <PUBCHEM_SHAPE_FINGERPRINT>  (1) 
10618630 7 18335138717184054062
12251169 10 18343300345047696704
12382932 28 18340483481866549762
13296908 3 18408039619444656430
14251711 518 18334284349468331850
15001771 113 18334860515040884372
15076042 46 18270963440427660365
15375462 189 18263650730562483627
15536298 74 18413109480856787402
16752209 62 18337948974816165949
16945 1 18194395585257419421
17804303 29 18198633142026377854
19422 9 18189628154890797278
20361792 2 17022903432600460316
20442098 301 18413384337083335526
20510252 161 18130510738690667081
20871998 184 18273214170868225439
22445834 79 18261956236951811834
23388829 49 18267864059077968693
23463225 33 18410017654017011223
23552423 10 17904769130492649261
23559900 14 18342453734206350228
2748010 2 18410852135839416245
34934 24 18269551805189776725
6338986 31 18056464287195308759
7364860 26 18341055232635566340

>  <PUBCHEM_SHAPE_MULTIPOLES>  (1) 
286.99
5.46
2.29
0.89
1.29
0.21
-0.02
-2.07
0.87
-0.18
0.07
0.22
-0.07
-0.32

>  <PUBCHEM_SHAPE_SELFOVERLAP>  (1) 
623.376

>  <PUBCHEM_SHAPE_VOLUME>  (1) 
157.2

>  <PUBCHEM_COORDINATE_TYPE>  (1) 
2
5
10

$$$$
