5602
     RDKit          3D

 26 28  0  0  0  0  0  0  0  0999 V2000
    7.6710    0.4620    1.0212 O   0  0  0  0  0  0  0  0  0  0  0  0
    7.7796   -0.7256   -0.9031 O   0  0  0  0  0  0  0  0  0  0  0  0
   -3.6320   -1.8525    0.0984 C   0  0  0  0  0  0  0  0  0  0  0  0
   -5.2113    0.7687    0.0578 C   0  0  0  0  0  0  0  0  0  0  0  0
   -5.1077   -1.7239    0.5373 C   0  0  0  0  0  0  0  0  0  0  0  0
   -5.8309   -0.6198   -0.2152 C   0  0  0  0  0  0  0  0  0  0  0  0
   -2.9483   -0.4825    0.0045 C   0  0  0  0  0  0  0  0  0  0  0  0
   -3.6798    0.7306   -0.0225 C   0  0  0  0  0  0  0  0  0  0  0  0
   -3.5525   -2.5410   -1.2822 C   0  0  0  0  0  0  0  0  0  0  0  0
   -2.9456   -2.7695    1.1388 C   0  0  0  0  0  0  0  0  0  0  0  0
   -5.8199    1.7321   -0.9892 C   0  0  0  0  0  0  0  0  0  0  0  0
   -5.6211    1.2594    1.4642 C   0  0  0  0  0  0  0  0  0  0  0  0
   -1.5401   -0.4226   -0.0968 C   0  0  0  0  0  0  0  0  0  0  0  0
   -2.9646    1.9475   -0.0880 C   0  0  0  0  0  0  0  0  0  0  0  0
   -0.8609    0.7912   -0.1802 C   0  0  0  0  0  0  0  0  0  0  0  0
   -1.5737    1.9785   -0.1674 C   0  0  0  0  0  0  0  0  0  0  0  0
    0.5902    0.8122   -0.2762 C   0  0  0  0  0  0  0  0  0  0  0  0
    1.1935    1.9756   -1.0368 C   0  0  0  0  0  0  0  0  0  0  0  0
    1.4093   -0.1337    0.2605 C   0  0  0  0  0  0  0  0  0  0  0  0
    2.8770   -0.1494    0.1861 C   0  0  0  0  0  0  0  0  0  0  0  0
    3.4996   -0.7922   -0.8739 C   0  0  0  0  0  0  0  0  0  0  0  0
    3.6171    0.4780    1.1778 C   0  0  0  0  0  0  0  0  0  0  0  0
    4.8926   -0.8081   -0.9439 C   0  0  0  0  0  0  0  0  0  0  0  0
    5.0102    0.4624    1.1079 C   0  0  0  0  0  0  0  0  0  0  0  0
    5.6480   -0.1807    0.0469 C   0  0  0  0  0  0  0  0  0  0  0  0
    7.1003   -0.1971   -0.0263 C   0  0  0  0  0  0  0  0  0  0  0  0
  1 26  1  0
  2 26  2  0
  3  5  1  0
  3  7  1  0
  3  9  1  0
  3 10  1  0
  4  6  1  0
  4  8  1  0
  4 11  1  0
  4 12  1  0
  5  6  1  0
  7  8  2  0
  7 13  1  0
  8 14  1  0
 13 15  2  0
 14 16  2  0
 15 16  1  0
 15 17  1  0
 17 18  1  0
 17 19  2  0
 19 20  1  0
 20 21  2  0
 20 22  1  0
 21 23  1  0
 22 24  2  0
 23 25  2  0
 24 25  1  0
 25 26  1  0
M  END
>  <PUBCHEM_COMPOUND_CID>  (1) 
5602

>  <PUBCHEM_CONFORMER_RMSD>  (1) 
0.8

>  <PUBCHEM_CONFORMER_DIVERSEORDER>  (1) 
1
3
4
2

>  <PUBCHEM_MMFF94_PARTIAL_CHARGES>  (1) 
29
1 -0.65
13 -0.15
14 -0.15
15 0.03
16 -0.15
17 -0.17
18 0.14
19 -0.18
2 -0.57
20 0.03
21 -0.15
22 -0.15
23 -0.15
24 -0.15
25 0.09
26 0.63
3 0.14
4 0.14
43 0.15
44 0.15
45 0.15
49 0.15
50 0.15
51 0.15
52 0.15
53 0.15
54 0.5
7 -0.14
8 -0.14

>  <PUBCHEM_EFFECTIVE_ROTOR_COUNT>  (1) 
3.8

>  <PUBCHEM_PHARMACOPHORE_FEATURES>  (1) 
9
1 1 acceptor
1 18 hydrophobe
1 2 acceptor
3 1 2 26 anion
3 3 9 10 hydrophobe
3 4 11 12 hydrophobe
6 20 21 22 23 24 25 rings
6 3 4 5 6 7 8 rings
6 7 8 13 14 15 16 rings

>  <PUBCHEM_HEAVY_ATOM_COUNT>  (1) 
26

>  <PUBCHEM_ATOM_DEF_STEREO_COUNT>  (1) 
0

>  <PUBCHEM_ATOM_UDEF_STEREO_COUNT>  (1) 
0

>  <PUBCHEM_BOND_DEF_STEREO_COUNT>  (1) 
0

>  <PUBCHEM_BOND_UDEF_STEREO_COUNT>  (1) 
1

>  <PUBCHEM_ISOTOPIC_ATOM_COUNT>  (1) 
0

>  <PUBCHEM_COMPONENT_COUNT>  (1) 
1

>  <PUBCHEM_CACTVS_TAUTO_COUNT>  (1) 
1

>  <PUBCHEM_CONFORMER_ID>  (1) 
000015E200000001

>  <PUBCHEM_MMFF94_ENERGY>  (1) 
98.9362

>  <PUBCHEM_FEATURE_SELFOVERLAP>  (1) 
45.75

>  <PUBCHEM_SHAPE_FINGERPRINT>  (1) 
10 15 18130213944467204616
10411042 1 18120375617570417899
10673678 19 18128820940634777704
11045977 3 18201994456151460888
11135926 11 17385994058130313578
11315181 36 18060137652543510353
11524674 6 16988560212408039279
12091667 2 17603305938516458945
12166972 35 16950002548026220836
12236239 1 17385723582464016376
12516196 113 18272650143200149144
12616971 3 17312829290115703262
12788726 201 18263359205399776201
12838862 33 18262221254072896957
13288520 33 18408041827617009197
13402501 40 18272936020370690718
13583140 156 16702014331341193983
13668630 136 15140965032779764472
13947920 75 18040995150687455706
14341114 176 18060419135994280120
14394314 77 18261393308700496017
14856354 85 18041003968187294151
14933364 13 18273215301009269424
15021287 119 17240491303501823989
15183329 4 16805599287281329774
15348495 7 17845648269854958474
15352257 5 18342460305786141558
15361156 5 18339365261519657028
15461852 350 17561358505023443605
15510794 2 18131071512187477918
15537594 2 17894629231886185402
17093844 174 18413103974576735019
17492 89 17974573808162921611
17844677 252 18059860592672023256
18681886 176 18334855056517480248
18927931 339 18411418436089095295
19489759 90 17917992768051267225
21033648 29 17489293183695544624
21236236 1 18410573998173795499
21267235 1 18261396693667104955
21315763 178 17676200260918838602
21623969 137 17275109423139465894
21781055 127 17986420848489343985
21792961 116 17703513195674667412
220451 1 17822007601832547570
23035841 295 18333449833480847722
23402539 116 18186799192559852494
23522609 53 17969813850142985956
23559900 14 18341888614782891217
24771293 8 17968655060246859548
249057 3 18260265248804872949
3004659 81 18040715896098281140
335352 9 18334853910320466157
3383291 50 18336550525355656979
3545911 37 18342737390899677792
397830 11 17845360219568173824
4015057 19 17703212027809266025
4073 2 18410295835207837394
4325135 7 18187367619350898564
437815 12 17989486324823655313
4625314 4 18409731768974232828
5104073 3 18337678632300209137
5364581 5 18127399266887088320
559249 180 18334856121811625471
58260988 114 17313965133589599323
59755656 215 18412263904859940366
67856867 119 18188776179245220132
7226269 152 18342457007161496601
9953998 17 18342734122508719720
999808 66 17458639929717432667

>  <PUBCHEM_SHAPE_MULTIPOLES>  (1) 
523.33
19.37
2.27
1.13
28.59
0.72
-0.09
1.57
-1.15
-4.05
0.19
0.08
0.08
0.62

>  <PUBCHEM_SHAPE_SELFOVERLAP>  (1) 
1127.302

>  <PUBCHEM_SHAPE_VOLUME>  (1) 
289.4

>  <PUBCHEM_COORDINATE_TYPE>  (1) 
2
5
10

$$$$
