5603
     RDKit          3D

  8  7  0  0  1  0  0  0  0  0999 V2000
    2.4582    1.3381   -0.2846 N   0  0  0  0  0  0  0  0  0  0  0  0
    0.8941   -0.5716   -0.1372 C   0  0  0  0  0  0  0  0  0  0  0  0
   -0.3125    0.2900    0.2568 C   0  0  0  0  0  0  0  0  0  0  0  0
    2.2359    0.0244    0.3207 C   0  0  0  0  0  0  0  0  0  0  0  0
   -1.6264   -0.3798   -0.1545 C   0  0  0  0  0  0  0  0  0  0  0  0
   -2.8646    0.4498    0.1919 C   0  0  0  0  0  0  0  0  0  0  0  0
    3.3904   -0.9089   -0.0426 C   0  0  0  0  0  0  0  0  0  0  0  0
   -4.1752   -0.2420   -0.1505 C   0  0  0  0  0  0  0  0  0  0  0  0
  1  4  1  0
  2  3  1  0
  2  4  1  0
  3  5  1  0
  4  7  1  0
  5  6  1  0
  6  8  1  0
M  END
>  <PUBCHEM_COMPOUND_CID>  (1) 
5603

>  <PUBCHEM_CONFORMER_RMSD>  (1) 
0.6

>  <PUBCHEM_CONFORMER_DIVERSEORDER>  (1) 
1
15
49
6
50
33
46
42
56
54
10
20
25
51
37
24
3
26
40
28
55
19
36
47
30
16
53
38
12
41
18
48
43
52
35
8
32
7
29
11
17
14
31
44
9
13
39
27
45
34
21
5
22
23
4
2

>  <PUBCHEM_MMFF94_PARTIAL_CHARGES>  (1) 
4
1 -0.99
21 0.36
22 0.36
4 0.27

>  <PUBCHEM_EFFECTIVE_ROTOR_COUNT>  (1) 
4

>  <PUBCHEM_PHARMACOPHORE_FEATURES>  (1) 
4
1 1 cation
1 1 donor
1 8 hydrophobe
4 2 3 5 6 hydrophobe

>  <PUBCHEM_HEAVY_ATOM_COUNT>  (1) 
8

>  <PUBCHEM_ATOM_DEF_STEREO_COUNT>  (1) 
0

>  <PUBCHEM_ATOM_UDEF_STEREO_COUNT>  (1) 
1

>  <PUBCHEM_BOND_DEF_STEREO_COUNT>  (1) 
0

>  <PUBCHEM_BOND_UDEF_STEREO_COUNT>  (1) 
0

>  <PUBCHEM_ISOTOPIC_ATOM_COUNT>  (1) 
0

>  <PUBCHEM_COMPONENT_COUNT>  (1) 
1

>  <PUBCHEM_CACTVS_TAUTO_COUNT>  (1) 
1

>  <PUBCHEM_CONFORMER_ID>  (1) 
000015E300000001

>  <PUBCHEM_MMFF94_ENERGY>  (1) 
-5.7467

>  <PUBCHEM_FEATURE_SELFOVERLAP>  (1) 
20.297

>  <PUBCHEM_SHAPE_FINGERPRINT>  (1) 
11062470 55 8214140763659589619
12932764 1 17095513007013291659
14325111 11 18410856577109835107
14390081 3 18407759244254081433
177051 138 18060419088443515526
190213 19 18273211993530796067
20719005 15 18412825785534991495
3248919 1 17703800214425677903
5460574 1 8142085364434242075

>  <PUBCHEM_SHAPE_MULTIPOLES>  (1) 
159.66
7.08
0.99
0.65
3.52
0.15
-0.01
-0.65
0.23
-0.65
0.07
-0.01
0.01
-0.15

>  <PUBCHEM_SHAPE_SELFOVERLAP>  (1) 
276.583

>  <PUBCHEM_SHAPE_VOLUME>  (1) 
106.1

>  <PUBCHEM_COORDINATE_TYPE>  (1) 
2
5
10

$$$$
