5605
     RDKit          3D

 33 36  0  0  1  0  0  0  0  0999 V2000
   -4.7007   -2.2293   -0.8424 Cl  0  0  0  0  0  0  0  0  0  0  0  0
   -0.1141   -4.7501   -2.0968 Cl  0  0  0  0  0  0  0  0  0  0  0  0
   -1.0311    4.1445   -0.4477 S   0  0  0  0  0  0  0  0  0  0  0  0
   -2.1032    1.2461   -0.0166 O   0  0  0  0  0  0  0  0  0  0  0  0
   -4.2027    0.2860   -0.4124 O   0  0  0  0  0  0  0  0  0  0  0  0
    5.5593   -0.6686   -0.4916 O   0  0  0  0  0  0  0  0  0  0  0  0
    4.3079    0.0780    1.2709 O   0  0  0  0  0  0  0  0  0  0  0  0
   -1.8729   -0.2791    2.4203 N   0  0  0  0  0  0  0  0  0  0  0  0
   -0.1352   -1.3028    3.3501 N   0  0  0  0  0  0  0  0  0  0  0  0
    3.7974    0.6612   -0.9427 N   0  0  0  0  0  0  0  0  0  0  0  0
   -2.9138    0.0737    0.1990 C   0  0  0  0  0  0  0  0  0  0  0  0
   -2.9957    2.2330   -0.5387 C   0  0  0  0  0  0  0  0  0  0  0  0
   -4.0227    1.4106   -1.2727 C   0  0  0  0  0  0  0  0  0  0  0  0
   -3.1282   -0.0991    1.7021 C   0  0  0  0  0  0  0  0  0  0  0  0
   -2.2371   -1.1573   -0.3858 C   0  0  0  0  0  0  0  0  0  0  0  0
   -2.2484    3.2121   -1.4182 C   0  0  0  0  0  0  0  0  0  0  0  0
   -2.9747   -2.2350   -0.8756 C   0  0  0  0  0  0  0  0  0  0  0  0
   -0.8432   -1.1904   -0.4256 C   0  0  0  0  0  0  0  0  0  0  0  0
   -1.0979    0.7109    2.9554 C   0  0  0  0  0  0  0  0  0  0  0  0
   -1.2551   -1.4702    2.6823 C   0  0  0  0  0  0  0  0  0  0  0  0
   -2.3185   -3.3460   -1.4054 C   0  0  0  0  0  0  0  0  0  0  0  0
   -0.1870   -2.3014   -0.9554 C   0  0  0  0  0  0  0  0  0  0  0  0
   -0.9247   -3.3792   -1.4453 C   0  0  0  0  0  0  0  0  0  0  0  0
   -0.0317    0.0546    3.5241 C   0  0  0  0  0  0  0  0  0  0  0  0
    0.4156    3.1016   -0.5953 C   0  0  0  0  0  0  0  0  0  0  0  0
    0.9524    2.8279   -1.8533 C   0  0  0  0  0  0  0  0  0  0  0  0
    1.0059    2.5617    0.5473 C   0  0  0  0  0  0  0  0  0  0  0  0
    2.0794    2.0140   -1.9688 C   0  0  0  0  0  0  0  0  0  0  0  0
    2.1328    1.7478    0.4320 C   0  0  0  0  0  0  0  0  0  0  0  0
    2.6695    1.4740   -0.8261 C   0  0  0  0  0  0  0  0  0  0  0  0
    4.5245    0.0340    0.0661 C   0  0  0  0  0  0  0  0  0  0  0  0
    6.4062   -1.3735    0.4236 C   0  0  0  0  0  0  0  0  0  0  0  0
    7.4879   -2.0894   -0.3570 C   0  0  0  0  0  0  0  0  0  0  0  0
  1 17  1  0
  2 23  1  0
  3 16  1  0
  3 25  1  0
  4 11  1  0
  4 12  1  0
  5 11  1  0
  5 13  1  0
  6 31  1  0
  6 32  1  0
  7 31  2  0
  8 14  1  0
  8 19  1  0
  8 20  1  0
  9 20  2  0
  9 24  1  0
 10 30  1  0
 10 31  1  0
 11 14  1  0
 11 15  1  0
 12 13  1  0
 12 16  1  0
 15 17  2  0
 15 18  1  0
 17 21  1  0
 18 22  2  0
 19 24  2  0
 21 23  2  0
 22 23  1  0
 25 26  2  0
 25 27  1  0
 26 28  1  0
 27 29  2  0
 28 30  2  0
 29 30  1  0
 32 33  1  0
M  END
>  <PUBCHEM_COMPOUND_CID>  (1) 
5605

>  <PUBCHEM_CONFORMER_RMSD>  (1) 
1.2

>  <PUBCHEM_CONFORMER_DIVERSEORDER>  (1) 
1
270
157
24
96
182
149
71
217
103
2
278
138
28
206
183
196
16
109
120
192
195
233
84
171
101
141
156
230
266
136
10
74
146
267
106
98
224
36
65
193
3
78
82
184
132
121
279
175
40
95
205
238
5
85
8
248
186
119
130
81
63
240
276
66
197
209
56
166
187
123
250
190
263
164
222
18
115
51
69
176
159
202
155
201
68
21
249
144
53
194
135
34
59
70
225
124
252
151
273
77
198
232
246
242
42
254
191
180
257
260
219
126
129
72
100
170
32
271
13
87
145
247
231
61
58
172
9
236
79
29
142
228
223
188
31
158
162
76
15
262
17
39
47
168
86
220
143
264
37
48
214
234
265
88
212
67
235
22
161
216
178
44
89
173
269
105
274
208
218
14
57
275
107
46
137
25
150
203
204
19
213
160
256
277
140
226
54
110
38
104
253
147
167
229
199
210
52
245
127
244
91
189
163
154
200
108
133
118
90
102
55
7
128
4
26
165
97
116
83
272
207
237
241
114
185
174
255
169
259
134
11
179
41
258
152
139
43
243
177
215
261
148
268
64
94
239
92
33
211
111
99
80
112
131
153
50
60
122
49
30
20
23
12
73
27
227
251
113
35
62
181
117
125
221
6
45
93
75

>  <PUBCHEM_MMFF94_PARTIAL_CHARGES>  (1) 
43
1 -0.18
10 -0.55
11 0.7
12 0.28
13 0.28
14 0.26
15 -0.14
16 0.23
17 0.18
18 -0.15
19 -0.3
2 -0.18
20 0.04
21 -0.15
22 -0.15
23 0.18
24 0.08
25 0.1
26 -0.15
27 -0.15
28 -0.15
29 -0.15
3 -0.33
30 0.12
31 0.78
32 0.28
4 -0.56
41 0.15
42 0.15
43 0.15
44 0.15
45 0.15
46 0.15
47 0.15
48 0.15
49 0.15
5 -0.56
50 0.15
51 0.37
6 -0.43
7 -0.57
8 0.05
9 -0.57

>  <PUBCHEM_EFFECTIVE_ROTOR_COUNT>  (1) 
11

>  <PUBCHEM_PHARMACOPHORE_FEATURES>  (1) 
9
1 10 donor
1 4 acceptor
1 5 acceptor
1 7 acceptor
3 8 9 20 cation
5 4 5 11 12 13 rings
5 8 9 19 20 24 rings
6 15 17 18 21 22 23 rings
6 25 26 27 28 29 30 rings

>  <PUBCHEM_HEAVY_ATOM_COUNT>  (1) 
33

>  <PUBCHEM_ATOM_DEF_STEREO_COUNT>  (1) 
0

>  <PUBCHEM_ATOM_UDEF_STEREO_COUNT>  (1) 
2

>  <PUBCHEM_BOND_DEF_STEREO_COUNT>  (1) 
0

>  <PUBCHEM_BOND_UDEF_STEREO_COUNT>  (1) 
0

>  <PUBCHEM_ISOTOPIC_ATOM_COUNT>  (1) 
0

>  <PUBCHEM_COMPONENT_COUNT>  (1) 
1

>  <PUBCHEM_CACTVS_TAUTO_COUNT>  (1) 
2

>  <PUBCHEM_CONFORMER_ID>  (1) 
000015E500000001

>  <PUBCHEM_MMFF94_ENERGY>  (1) 
80.795

>  <PUBCHEM_FEATURE_SELFOVERLAP>  (1) 
45.714

>  <PUBCHEM_SHAPE_FINGERPRINT>  (1) 
10483366 6 18339905066606347565
10764073 3 17752239234301456441
107951 10 17532095986191721437
11285246 1 18047180028185566970
1200032 147 8752579832496344711
12104220 1 17489025956238411770
12156800 1 17477426133454425237
12788726 201 17896595082090391648
13165053 137 18264765450549168523
14114206 34 17313371319326013484
14279260 333 17604428471844428866
14659021 117 18188197823512763048
14674994 50 18342735196450750118
14844126 61 18336825295587172492
15361156 5 18114189618943866124
20764821 26 18268174030946482901
20775438 99 17326036851459426859
20775530 9 17554897941542888814
22121540 332 12441389799650644766
22223350 30 17340401923874701823
238 59 16962666984130485889
238918 7 18129659682721368862
25265897 201 17911487056181004753
484985 159 18129103316878724648
5080951 261 17898261967835673396
57527452 28 17846772980008504485
70251023 43 17902793294806458235

>  <PUBCHEM_SHAPE_MULTIPOLES>  (1) 
648.29
10.06
5.33
2.86
22.04
1.23
-3.41
5.99
1.55
-1.92
4.3
-1.07
0.55
-0.55

>  <PUBCHEM_SHAPE_SELFOVERLAP>  (1) 
1361.722

>  <PUBCHEM_SHAPE_VOLUME>  (1) 
369.8

>  <PUBCHEM_COORDINATE_TYPE>  (1) 
2
5
10

$$$$
