5612
     RDKit          3D

 20 20  0  0  0  0  0  0  0  0999 V2000
    4.0423    1.5391    1.6983 O   0  0  0  0  0  0  0  0  0  0  0  0
    3.5849   -1.9942   -1.5022 O   0  0  0  0  0  0  0  0  0  0  0  0
    5.1973   -0.2820   -0.0396 O   0  0  0  0  0  0  0  0  0  0  0  0
   -3.2435    1.9941   -0.1088 N   0  0  0  0  0  0  0  0  0  0  0  0
   -0.2284    2.2845   -2.0054 N   0  0  0  0  0  0  0  0  0  0  0  0
   -5.9582   -0.3143    0.4794 N   0  0  0  0  0  0  0  0  0  0  0  0
   -2.2450   -2.7253    0.2526 N   0  0  0  0  0  0  0  0  0  0  0  0
    1.0831   -0.1205    0.3700 C   0  0  0  0  0  0  0  0  0  0  0  0
    1.6458   -1.0383   -0.5048 C   0  0  0  0  0  0  0  0  0  0  0  0
    1.8766    0.7442    1.1097 C   0  0  0  0  0  0  0  0  0  0  0  0
    3.2635    0.6898    0.9715 C   0  0  0  0  0  0  0  0  0  0  0  0
    3.0327   -1.0927   -0.6428 C   0  0  0  0  0  0  0  0  0  0  0  0
    3.8416   -0.2286    0.0953 C   0  0  0  0  0  0  0  0  0  0  0  0
   -0.3785   -0.0630    0.5155 C   0  0  0  0  0  0  0  0  0  0  0  0
   -1.2181    0.7167   -0.1956 C   0  0  0  0  0  0  0  0  0  0  0  0
   -2.6792    0.7414   -0.0317 C   0  0  0  0  0  0  0  0  0  0  0  0
   -3.3865   -0.3997    0.1742 C   0  0  0  0  0  0  0  0  0  0  0  0
   -0.6709    1.5823   -1.1942 C   0  0  0  0  0  0  0  0  0  0  0  0
   -4.8064   -0.3511    0.3422 C   0  0  0  0  0  0  0  0  0  0  0  0
   -2.7533   -1.6824    0.2166 C   0  0  0  0  0  0  0  0  0  0  0  0
  1 11  1  0
  2 12  1  0
  3 13  1  0
  4 16  1  0
  5 18  3  0
  6 19  3  0
  7 20  3  0
  8  9  2  0
  8 10  1  0
  8 14  1  0
  9 12  1  0
 10 11  2  0
 11 13  1  0
 12 13  2  0
 14 15  2  0
 15 16  1  0
 15 18  1  0
 16 17  2  0
 17 19  1  0
 17 20  1  0
M  END
>  <PUBCHEM_COMPOUND_CID>  (1) 
5612

>  <PUBCHEM_CONFORMER_RMSD>  (1) 
0.6

>  <PUBCHEM_CONFORMER_DIVERSEORDER>  (1) 
1
7
4
5
2
3
6

>  <PUBCHEM_MMFF94_PARTIAL_CHARGES>  (1) 
28
1 -0.53
10 -0.15
11 0.08
12 0.08
13 0.08
14 -0.18
15 0.06
16 0.1
17 0.13
18 0.49
19 0.49
2 -0.53
20 0.49
21 0.15
22 0.15
23 0.15
24 0.45
25 0.45
26 0.45
27 0.4
28 0.4
3 -0.53
4 -0.9
5 -0.56
6 -0.56
7 -0.56
8 0.03
9 -0.15

>  <PUBCHEM_EFFECTIVE_ROTOR_COUNT>  (1) 
2

>  <PUBCHEM_PHARMACOPHORE_FEATURES>  (1) 
9
1 1 donor
1 2 donor
1 3 donor
1 4 cation
1 4 donor
1 5 acceptor
1 6 acceptor
1 7 acceptor
6 8 9 10 11 12 13 rings

>  <PUBCHEM_HEAVY_ATOM_COUNT>  (1) 
20

>  <PUBCHEM_ATOM_DEF_STEREO_COUNT>  (1) 
0

>  <PUBCHEM_ATOM_UDEF_STEREO_COUNT>  (1) 
0

>  <PUBCHEM_BOND_DEF_STEREO_COUNT>  (1) 
0

>  <PUBCHEM_BOND_UDEF_STEREO_COUNT>  (1) 
1

>  <PUBCHEM_ISOTOPIC_ATOM_COUNT>  (1) 
0

>  <PUBCHEM_COMPONENT_COUNT>  (1) 
1

>  <PUBCHEM_CACTVS_TAUTO_COUNT>  (1) 
22

>  <PUBCHEM_CONFORMER_ID>  (1) 
000015EC00000001

>  <PUBCHEM_MMFF94_ENERGY>  (1) 
56.4977

>  <PUBCHEM_FEATURE_SELFOVERLAP>  (1) 
45.681

>  <PUBCHEM_SHAPE_FINGERPRINT>  (1) 
11132069 177 18335131029197869105
11370993 144 17988373580696636531
11552529 35 17059488690041291863
12236239 1 16226046682494829226
12507560 40 18201999902581500497
12553582 1 17822281418608275611
12592029 89 15698007305713680319
13140716 1 18044379559547832755
13533116 47 17775290439215969747
13544592 145 18342183228180604663
13583140 156 17973966701792778680
14289901 80 17632287999482160040
14341114 176 18201723976385980089
14386348 63 18341897393685325603
15219456 202 18272928319456931450
17349148 13 16081080459808388954
17834074 16 18342459231379399714
1813 80 17894632565108036421
18222031 100 18040433313114836525
19141452 34 18341896329177137783
192875 21 15430040941957804836
200 152 17060338513407366907
20510252 161 18343018848976309009
20645477 70 17346885520393569646
20693207 138 18199197204603292982
21033648 29 18342162359567588169
23402539 116 17531243933604880550
23557571 272 18334013865486784060
23559900 14 18272650185832921488
4325135 7 18187368761817707892
5104073 3 18270116807847325010
621550 34 18341323449116734404
8272917 22 16773526490117704663
9709674 26 18272089422050021783

>  <PUBCHEM_SHAPE_MULTIPOLES>  (1) 
374.06
10.06
2.09
1.24
2.86
0.24
-0.24
1.81
1.91
0.58
-0.64
-1.03
-0.51
1.53

>  <PUBCHEM_SHAPE_SELFOVERLAP>  (1) 
798.77

>  <PUBCHEM_SHAPE_VOLUME>  (1) 
201.2

>  <PUBCHEM_COORDINATE_TYPE>  (1) 
2
5
10

$$$$
