5616
     RDKit          3D

 25 29  0  0  0  0  0  0  0  0999 V2000
   -3.6103    3.2837   -0.5376 O   0  0  0  0  0  0  0  0  0  0  0  0
    0.5305    0.8058    1.1385 N   0  0  0  0  0  0  0  0  0  0  0  0
   -1.5589    1.5530    0.2636 N   0  0  0  0  0  0  0  0  0  0  0  0
   -1.0262   -0.7771    0.4524 N   0  0  0  0  0  0  0  0  0  0  0  0
    2.9265    1.3841    0.7940 C   0  0  0  0  0  0  0  0  0  0  0  0
    1.7591   -0.2203   -0.7675 C   0  0  0  0  0  0  0  0  0  0  0  0
    1.5881    1.0294    0.1177 C   0  0  0  0  0  0  0  0  0  0  0  0
    3.4784   -1.0821    0.8740 C   0  0  0  0  0  0  0  0  0  0  0  0
    4.2081    0.3061   -1.0978 C   0  0  0  0  0  0  0  0  0  0  0  0
    3.3183    0.2038    1.7077 C   0  0  0  0  0  0  0  0  0  0  0  0
    4.0432    1.5802   -0.2511 C   0  0  0  0  0  0  0  0  0  0  0  0
    2.1544   -1.3957    0.1509 C   0  0  0  0  0  0  0  0  0  0  0  0
    2.8809   -0.0176   -1.8059 C   0  0  0  0  0  0  0  0  0  0  0  0
    4.5832   -0.8658   -0.1741 C   0  0  0  0  0  0  0  0  0  0  0  0
   -0.7923    0.4846    0.5776 C   0  0  0  0  0  0  0  0  0  0  0  0
   -2.3319   -1.1453   -0.1124 C   0  0  0  0  0  0  0  0  0  0  0  0
   -2.3451    2.2686    1.2654 C   0  0  0  0  0  0  0  0  0  0  0  0
   -1.5073    2.1894   -1.0503 C   0  0  0  0  0  0  0  0  0  0  0  0
   -3.1100   -1.9616    0.9203 C   0  0  0  0  0  0  0  0  0  0  0  0
   -2.1178   -1.9173   -1.4150 C   0  0  0  0  0  0  0  0  0  0  0  0
   -3.7260    2.5736    0.6981 C   0  0  0  0  0  0  0  0  0  0  0  0
   -2.9249    2.4982   -1.5163 C   0  0  0  0  0  0  0  0  0  0  0  0
   -2.5229   -3.3564    1.1354 C   0  0  0  0  0  0  0  0  0  0  0  0
   -1.5360   -3.3120   -1.1863 C   0  0  0  0  0  0  0  0  0  0  0  0
   -2.3612   -4.1093   -0.1813 C   0  0  0  0  0  0  0  0  0  0  0  0
  1 21  1  0
  1 22  1  0
  2  7  1  0
  2 15  1  0
  3 15  1  0
  3 17  1  0
  3 18  1  0
  4 15  2  0
  4 16  1  0
  5  7  1  0
  5 10  1  0
  5 11  1  0
  6  7  1  0
  6 12  1  0
  6 13  1  0
  8 10  1  0
  8 12  1  0
  8 14  1  0
  9 11  1  0
  9 13  1  0
  9 14  1  0
 16 19  1  0
 16 20  1  0
 17 21  1  0
 18 22  1  0
 19 23  1  0
 20 24  1  0
 23 25  1  0
 24 25  1  0
M  CHG  1   2   1
M  END
>  <PUBCHEM_COMPOUND_CID>  (1) 
5616

>  <PUBCHEM_CONFORMER_RMSD>  (1) 
0.8

>  <PUBCHEM_CONFORMER_DIVERSEORDER>  (1) 
1
8
12
5
14
11
6
13
3
7
9
2
10
4

>  <PUBCHEM_MMFF94_PARTIAL_CHARGES>  (1) 
13
1 -0.56
15 0.9
16 0.25
17 0.37
18 0.37
2 -0.8
21 0.28
22 0.28
3 -0.79
4 -0.7
41 0.45
42 0.45
7 0.5

>  <PUBCHEM_EFFECTIVE_ROTOR_COUNT>  (1) 
7.6

>  <PUBCHEM_PHARMACOPHORE_FEATURES>  (1) 
9
1 1 acceptor
1 2 donor
4 2 3 4 15 cation
6 1 3 17 18 21 22 rings
6 16 19 20 23 24 25 rings
6 5 6 7 8 10 12 rings
6 5 6 7 9 11 13 rings
6 5 8 9 10 11 14 rings
6 6 8 9 12 13 14 rings

>  <PUBCHEM_HEAVY_ATOM_COUNT>  (1) 
25

>  <PUBCHEM_ATOM_DEF_STEREO_COUNT>  (1) 
0

>  <PUBCHEM_ATOM_UDEF_STEREO_COUNT>  (1) 
0

>  <PUBCHEM_BOND_DEF_STEREO_COUNT>  (1) 
0

>  <PUBCHEM_BOND_UDEF_STEREO_COUNT>  (1) 
0

>  <PUBCHEM_ISOTOPIC_ATOM_COUNT>  (1) 
0

>  <PUBCHEM_COMPONENT_COUNT>  (1) 
1

>  <PUBCHEM_CACTVS_TAUTO_COUNT>  (1) 
2

>  <PUBCHEM_CONFORMER_ID>  (1) 
000015F000000001

>  <PUBCHEM_MMFF94_ENERGY>  (1) 
58.5661

>  <PUBCHEM_FEATURE_SELFOVERLAP>  (1) 
58.194

>  <PUBCHEM_SHAPE_FINGERPRINT>  (1) 
11488393 25 17835249944100515619
11578080 2 17773871076851905929
12160290 23 18339346531462457385
12173636 292 18199470961329002577
12422481 6 18121532135987176625
12500047 106 18339358561549847652
12553582 1 18122625221495181091
12643181 29 18124601886775081822
12714826 92 18270969041027974386
12788726 201 18335134345287350219
13004483 165 18267015249139643379
13149001 5 18201140101436658961
13224815 77 18198341964766381850
133893 2 17259339969538779457
13583140 156 17749684986363334240
13681431 1 17543911664745452421
14178342 30 18336533985055791400
14223421 5 18200025299925112920
14251757 5 18337109072597515871
15420108 30 14677675560566408544
15927050 60 15820727849092318694
16752209 62 18339912762581345907
17138139 8 17768205186665968069
17357779 13 18127958914162911951
17980427 23 17530963631629664924
1813 80 17977671140718085875
21033648 29 18119515553788992616
21285901 2 18201439224908405039
21344244 246 17764854807037854335
22182313 1 17632014256285559960
22393880 68 18410582782157161748
22907989 373 18410014372699213133
23557571 272 18268983353135290236
23558518 356 18188209909339503480
23559900 14 18200031730023989202
23598288 3 18333731312399513691
3027735 51 18272081678719969991
314173 41 17689438608292701787
3298306 158 17978229361954342157
340366 18 18116723906834678526
59025328 239 16909431844308273127
633830 44 16805623455779579924
7399639 24 17840578529182615680
7615 1 17749381586015913776
81228 2 18336817706321678505
9981440 41 16337454801311839369

>  <PUBCHEM_SHAPE_MULTIPOLES>  (1) 
493.68
8.2
4.39
1.53
5.77
1.58
0.18
-0.84
0.05
-7.54
0.37
0.09
-0.07
0.27

>  <PUBCHEM_SHAPE_SELFOVERLAP>  (1) 
1045.993

>  <PUBCHEM_SHAPE_VOLUME>  (1) 
269.3

>  <PUBCHEM_COORDINATE_TYPE>  (1) 
2
5
10

$$$$
