5619
     RDKit          3D

 24 26  0  0  1  0  0  0  0  0999 V2000
    4.7801   -2.6573    1.0647 Cl  0  0  0  0  0  0  0  0  0  0  0  0
    6.7048   -0.0622    1.2596 Cl  0  0  0  0  0  0  0  0  0  0  0  0
    0.4496    0.8523    0.5756 O   0  0  0  0  0  0  0  0  0  0  0  0
   -2.8109   -1.1617    0.0514 N   0  0  0  0  0  0  0  0  0  0  0  0
   -1.0014    0.7998   -1.2466 N   0  0  0  0  0  0  0  0  0  0  0  0
   -2.5153    0.1530    0.6010 C   0  0  0  0  0  0  0  0  0  0  0  0
   -2.1878    1.1751   -0.5075 C   0  0  0  0  0  0  0  0  0  0  0  0
   -3.7160    0.6075    1.4419 C   0  0  0  0  0  0  0  0  0  0  0  0
   -2.0039    2.5820    0.0772 C   0  0  0  0  0  0  0  0  0  0  0  0
   -3.5078    2.0066    2.0144 C   0  0  0  0  0  0  0  0  0  0  0  0
   -3.2018    3.0162    0.9146 C   0  0  0  0  0  0  0  0  0  0  0  0
   -3.0546   -2.1601    1.0920 C   0  0  0  0  0  0  0  0  0  0  0  0
   -4.0220   -1.1646   -0.7687 C   0  0  0  0  0  0  0  0  0  0  0  0
   -3.7080   -3.3003    0.3249 C   0  0  0  0  0  0  0  0  0  0  0  0
   -4.3407   -2.6466   -0.8998 C   0  0  0  0  0  0  0  0  0  0  0  0
   -1.1952    0.5697   -2.6788 C   0  0  0  0  0  0  0  0  0  0  0  0
    0.2558    0.6650   -0.6288 C   0  0  0  0  0  0  0  0  0  0  0  0
    1.4014    0.2641   -1.5463 C   0  0  0  0  0  0  0  0  0  0  0  0
    2.7299    0.1666   -0.8372 C   0  0  0  0  0  0  0  0  0  0  0  0
    3.1139   -1.0415   -0.2766 C   0  0  0  0  0  0  0  0  0  0  0  0
    3.5434    1.2864   -0.7604 C   0  0  0  0  0  0  0  0  0  0  0  0
    4.3427   -1.1322    0.3773 C   0  0  0  0  0  0  0  0  0  0  0  0
    4.7720    1.1957   -0.1064 C   0  0  0  0  0  0  0  0  0  0  0  0
    5.1718   -0.0136    0.4623 C   0  0  0  0  0  0  0  0  0  0  0  0
  1 22  1  0
  2 24  1  0
  3 17  2  0
  4  6  1  0
  4 12  1  0
  4 13  1  0
  5  7  1  0
  5 16  1  0
  5 17  1  0
  6  7  1  0
  6  8  1  0
  7  9  1  0
  8 10  1  0
  9 11  1  0
 10 11  1  0
 12 14  1  0
 13 15  1  0
 14 15  1  0
 17 18  1  0
 18 19  1  0
 19 20  2  0
 19 21  1  0
 20 22  1  0
 21 23  2  0
 22 24  2  0
 23 24  1  0
M  END
>  <PUBCHEM_COMPOUND_CID>  (1) 
5619

>  <PUBCHEM_CONFORMER_RMSD>  (1) 
1

>  <PUBCHEM_CONFORMER_DIVERSEORDER>  (1) 
4
505
115
60
205
103
21
224
149
408
400
257
304
179
372
580
418
299
530
3
301
317
34
485
305
121
263
235
510
99
39
50
38
193
264
496
402
32
315
1
41
10
25
180
2
88
259
120
119
167
270
213
359
85
191
40
592
144
106
427
368
307
367
441
129
462
545
229
7
553
484
303
138
71
319
391
403
356
572
357
518
150
12
89
17
476
190
131
56
300
122
337
210
44
371
512
16
36
23
114
94
430
231
195
78
455
489
54
248
93
13
20
22
429
198
375
338
241
470
594
208
9
47
5
18
341
45
67
237
199
288
95
77
310
112
155
261
24
80
33
15
128
51
266
422
498
68
342
6
113
69
35
29
204
141
76
83
416
388
116
280
532
336
26
123
243
589
102
91
58
209
566
31
118
272
385
46
8
137
28
211
135
352
339
232
59
48
579
148
42
43
194
233
271

>  <PUBCHEM_MMFF94_PARTIAL_CHARGES>  (1) 
21
1 -0.18
12 0.27
13 0.27
16 0.3
17 0.57
18 0.2
19 -0.14
2 -0.18
20 -0.15
21 -0.15
22 0.18
23 -0.15
24 0.18
3 -0.57
4 -0.81
48 0.15
49 0.15
5 -0.66
50 0.15
6 0.27
7 0.3

>  <PUBCHEM_EFFECTIVE_ROTOR_COUNT>  (1) 
7.2

>  <PUBCHEM_PHARMACOPHORE_FEATURES>  (1) 
5
1 3 acceptor
1 4 cation
5 4 12 13 14 15 rings
6 19 20 21 22 23 24 rings
6 6 7 8 9 10 11 rings

>  <PUBCHEM_HEAVY_ATOM_COUNT>  (1) 
24

>  <PUBCHEM_ATOM_DEF_STEREO_COUNT>  (1) 
0

>  <PUBCHEM_ATOM_UDEF_STEREO_COUNT>  (1) 
2

>  <PUBCHEM_BOND_DEF_STEREO_COUNT>  (1) 
0

>  <PUBCHEM_BOND_UDEF_STEREO_COUNT>  (1) 
0

>  <PUBCHEM_ISOTOPIC_ATOM_COUNT>  (1) 
0

>  <PUBCHEM_COMPONENT_COUNT>  (1) 
1

>  <PUBCHEM_CACTVS_TAUTO_COUNT>  (1) 
1

>  <PUBCHEM_CONFORMER_ID>  (1) 
000015F300000004

>  <PUBCHEM_MMFF94_ENERGY>  (1) 
59.06

>  <PUBCHEM_FEATURE_SELFOVERLAP>  (1) 
25.373

>  <PUBCHEM_SHAPE_FINGERPRINT>  (1) 
10319926 262 18130234757356617790
10928967 22 17604431761293778050
11036077 4 18339075961154698547
11370993 144 18266464200524320298
11405975 8 18339645521352847728
11552529 35 18411980286456977066
11578080 2 17969778773683091461
12107183 9 17977667507265022058
12403259 118 17989208161599175208
12523318 42 18272087210083530523
12596602 18 18131067143793924338
12633257 1 18339371746761803752
13004483 165 18200030780641200623
13544653 18 18188776183365425255
13583140 156 17989197136370186040
13994607 96 12751523989948283907
14178342 30 18339654359941797495
14289901 80 18335991925691883264
14341114 328 18411711988793553304
14565420 104 17124266134614725153
14844126 61 18341333379244887339
14848178 5 18114175393157853334
14849402 71 18267019639504107664
14950920 106 18341888550943548208
15250474 111 18335139808601918338
15842332 3 18043276667169307141
16992727 255 18338223879348093413
16994733 274 15839869483602793489
17349148 13 17458349671374150392
17780758 139 18409729564547941722
17857418 61 18113892776115175610
1813 80 16588324755946159836
19141452 34 18114181891400797781
19377110 9 18336274538987914656
21033648 29 15625944201079763354
21065198 48 18411138030954633212
21304303 282 18269833109180510405
21315759 148 17988932171722833246
21673915 165 18261108587002803138
23402655 69 10375874087204318028
235170 7 11891633269035609650
23559900 14 18191575561650755837
255183 313 18269289980506610329
312425 54 18340204082076780106
339767 52 18115014316250820386
3459 110 17988926712022698376
3633792 109 18118109291839286149
376196 1 16481922632178344857
469060 322 16701726242262534765
5104073 3 18271518711754945618
5924683 9 18412262839570530491
6371380 46 17549557209998052014
90127 26 17203334369024467876
9981440 41 16629119841582646813

>  <PUBCHEM_SHAPE_MULTIPOLES>  (1) 
481.82
13.08
3.24
1.74
17.28
1.31
0.43
4.5
-4.92
-4.34
-0.95
-0.91
-0.45
-1.97

>  <PUBCHEM_SHAPE_SELFOVERLAP>  (1) 
989.853

>  <PUBCHEM_SHAPE_VOLUME>  (1) 
280.3

>  <PUBCHEM_COORDINATE_TYPE>  (1) 
2
5
10

$$$$
