562
     RDKit          3D

 10  9  0  0  0  0  0  0  0  0999 V2000
   -3.2945    1.0791    0.0046 S   0  0  0  0  0  0  0  0  0  0  0  0
    0.1701   -1.9081   -0.0022 O   0  0  0  0  0  0  0  0  0  0  0  0
    2.8509   -1.1931    0.0009 O   0  0  0  0  0  0  0  0  0  0  0  0
    3.3140    1.7082   -0.0004 O   0  0  0  0  0  0  0  0  0  0  0  0
   -0.6357    0.3665   -0.0044 C   0  0  0  0  0  0  0  0  0  0  0  0
   -2.0385   -0.2313    0.0217 C   0  0  0  0  0  0  0  0  0  0  0  0
    0.4426   -0.7089   -0.0026 C   0  0  0  0  0  0  0  0  0  0  0  0
    1.8649   -0.2329   -0.0016 C   0  0  0  0  0  0  0  0  0  0  0  0
   -4.7673    0.0315   -0.0136 C   0  0  0  0  0  0  0  0  0  0  0  0
    2.0934    1.0891   -0.0024 C   0  0  0  0  0  0  0  0  0  0  0  0
  1  6  1  0
  1  9  1  0
  2  7  2  0
  3  8  1  0
  4 10  1  0
  5  6  1  0
  5  7  1  0
  7  8  1  0
  8 10  2  0
M  END
>  <PUBCHEM_COMPOUND_CID>  (1) 
562

>  <PUBCHEM_CONFORMER_RMSD>  (1) 
0.6

>  <PUBCHEM_CONFORMER_DIVERSEORDER>  (1) 
1
92
54
84
76
21
19
28
82
80
91
30
94
40
14
13
72
93
18
88
50
90
2
81
20
3
37
87
63
68
26
51
35
89
32
27
47
83
15
78
39
59
79
85
67
38
74
24
65
46
9
75
70
69
86
22
33
16
4
25
71
36
64
23
44
29
42
77
48
43
49
52
41
55
7
62
12
61
60
31
53
56
10
8
34
73
11
45
17
6
58
5
57
66

>  <PUBCHEM_MMFF94_PARTIAL_CHARGES>  (1) 
13
1 -0.46
10 -0.07
18 0.15
19 0.45
2 -0.57
20 0.45
3 -0.53
4 -0.53
5 0.06
6 0.23
7 0.49
8 0.09
9 0.23

>  <PUBCHEM_EFFECTIVE_ROTOR_COUNT>  (1) 
4

>  <PUBCHEM_PHARMACOPHORE_FEATURES>  (1) 
4
1 2 acceptor
1 3 donor
1 4 donor
1 9 hydrophobe

>  <PUBCHEM_HEAVY_ATOM_COUNT>  (1) 
10

>  <PUBCHEM_ATOM_DEF_STEREO_COUNT>  (1) 
0

>  <PUBCHEM_ATOM_UDEF_STEREO_COUNT>  (1) 
0

>  <PUBCHEM_BOND_DEF_STEREO_COUNT>  (1) 
0

>  <PUBCHEM_BOND_UDEF_STEREO_COUNT>  (1) 
1

>  <PUBCHEM_ISOTOPIC_ATOM_COUNT>  (1) 
0

>  <PUBCHEM_COMPONENT_COUNT>  (1) 
1

>  <PUBCHEM_CACTVS_TAUTO_COUNT>  (1) 
8

>  <PUBCHEM_CONFORMER_ID>  (1) 
0000023200000001

>  <PUBCHEM_MMFF94_ENERGY>  (1) 
15.7979

>  <PUBCHEM_FEATURE_SELFOVERLAP>  (1) 
20.299

>  <PUBCHEM_SHAPE_FINGERPRINT>  (1) 
10219947 1 18260551112863178141
11062470 55 11386374733630983759
12932764 1 17458336408251539091
14251717 144 18411133632755154301
14325111 11 18410856568498801473
14390081 3 18410293597192064361
14415576 193 18410577245427514757
14897335 6 18341046419235716936
15775835 57 18343584074724209677
170605 34 18409449176435398579
18186145 218 18341618092151834389
20606313 2 18410854360738308069
20645477 70 18341047424479980911
21499 59 18411132571734637101
22959321 4 18337390448652776531
23402655 69 18343014463830458821
3248919 1 17274830125225812151
449060 62 18410578400488926017

>  <PUBCHEM_SHAPE_MULTIPOLES>  (1) 
192.04
7.17
1.56
0.6
6.12
0.06
0
-1.95
-0.02
-1.14
0
0.1
-0.02
0

>  <PUBCHEM_SHAPE_SELFOVERLAP>  (1) 
346.958

>  <PUBCHEM_SHAPE_VOLUME>  (1) 
124.1

>  <PUBCHEM_COORDINATE_TYPE>  (1) 
2
5
10

$$$$
