5621
     RDKit          3D

 34 38  0  0  1  0  0  0  0  0999 V2000
    3.4579   -4.1428   -0.1975 O   0  0  0  0  0  0  0  0  0  0  0  0
   -1.8476   -2.1442    1.6947 O   0  0  0  0  0  0  0  0  0  0  0  0
   -4.6067   -2.6100   -1.9823 O   0  0  0  0  0  0  0  0  0  0  0  0
   -1.8726    3.0160    0.0962 N   0  0  0  0  0  0  0  0  0  0  0  0
   -3.5212   -2.2793    0.0637 N   0  0  0  0  0  0  0  0  0  0  0  0
    0.6721    3.0454    0.1910 C   0  0  0  0  0  0  0  0  0  0  0  0
    1.7302    2.6225   -0.8594 C   0  0  0  0  0  0  0  0  0  0  0  0
    3.1306    2.3530   -0.2517 C   0  0  0  0  0  0  0  0  0  0  0  0
   -0.6255    2.9662   -0.6537 C   0  0  0  0  0  0  0  0  0  0  0  0
    3.1502    1.4339    0.9948 C   0  0  0  0  0  0  0  0  0  0  0  0
    0.6888    2.0608    1.3867 C   0  0  0  0  0  0  0  0  0  0  0  0
    1.0388    1.4838   -1.6332 C   0  0  0  0  0  0  0  0  0  0  0  0
   -0.4716    1.6929   -1.4823 C   0  0  0  0  0  0  0  0  0  0  0  0
    2.0789    1.9030    2.0021 C   0  0  0  0  0  0  0  0  0  0  0  0
    4.1966    1.9122   -1.2590 C   0  0  0  0  0  0  0  0  0  0  0  0
    0.8841    4.4893    0.6823 C   0  0  0  0  0  0  0  0  0  0  0  0
    3.1858   -0.0523    0.6566 C   0  0  0  0  0  0  0  0  0  0  0  0
    4.0959    0.4543   -1.6835 C   0  0  0  0  0  0  0  0  0  0  0  0
    3.6879   -0.4954   -0.5863 C   0  0  0  0  0  0  0  0  0  0  0  0
   -3.0214    2.9450   -0.7968 C   0  0  0  0  0  0  0  0  0  0  0  0
    2.8240   -1.0255    1.6058 C   0  0  0  0  0  0  0  0  0  0  0  0
    3.7642   -1.8731   -0.8627 C   0  0  0  0  0  0  0  0  0  0  0  0
   -4.3184    3.0390    0.0060 C   0  0  0  0  0  0  0  0  0  0  0  0
    2.9094   -2.3903    1.3206 C   0  0  0  0  0  0  0  0  0  0  0  0
    3.3758   -2.8151    0.0844 C   0  0  0  0  0  0  0  0  0  0  0  0
   -4.4811    1.9104    1.0291 C   0  0  0  0  0  0  0  0  0  0  0  0
   -4.5225    0.5167    0.3972 C   0  0  0  0  0  0  0  0  0  0  0  0
   -4.6127   -0.5736    1.4701 C   0  0  0  0  0  0  0  0  0  0  0  0
    3.0478   -5.0513    0.8241 C   0  0  0  0  0  0  0  0  0  0  0  0
   -4.6688   -1.9770    0.8744 C   0  0  0  0  0  0  0  0  0  0  0  0
   -2.2256   -2.3346    0.5470 C   0  0  0  0  0  0  0  0  0  0  0  0
   -3.6004   -2.5665   -1.2882 C   0  0  0  0  0  0  0  0  0  0  0  0
   -1.3084   -2.6828   -0.5898 C   0  0  0  0  0  0  0  0  0  0  0  0
   -2.2144   -2.8306   -1.8009 C   0  0  0  0  0  0  0  0  0  0  0  0
  1 25  1  0
  1 29  1  0
  2 31  2  0
  3 32  2  0
  4  9  1  0
  4 20  1  0
  5 30  1  0
  5 31  1  0
  5 32  1  0
  6  7  1  0
  6  9  1  0
  6 11  1  0
  6 16  1  0
  7  8  1  0
  7 12  1  0
  8 10  1  0
  8 15  1  0
  9 13  1  0
 10 14  1  0
 10 17  1  0
 11 14  1  0
 12 13  1  0
 15 18  1  0
 17 19  2  0
 17 21  1  0
 18 19  1  0
 19 22  1  0
 20 23  1  0
 21 24  2  0
 22 25  2  0
 23 26  1  0
 24 25  1  0
 26 27  1  0
 27 28  1  0
 28 30  1  0
 31 33  1  0
 32 34  1  0
 33 34  1  0
M  END
>  <PUBCHEM_COMPOUND_CID>  (1) 
5621

>  <PUBCHEM_CONFORMER_RMSD>  (1) 
1.8

>  <PUBCHEM_CONFORMER_DIVERSEORDER>  (1) 
1
11
7
32
33
43
28
21
42
46
35
14
19
2
18
49
47
5
4
13
22
16
3
6
34
17
12
10
39
41
25
20
31
30
9
38
51
40
23
27
44
45
37
15
29
50
36
48
24
26
8

>  <PUBCHEM_MMFF94_PARTIAL_CHARGES>  (1) 
25
1 -0.36
10 0.14
17 -0.14
18 0.14
19 -0.14
2 -0.57
20 0.27
21 -0.15
22 -0.15
24 -0.15
25 0.08
29 0.28
3 -0.57
30 0.3
31 0.57
32 0.57
33 0.06
34 0.06
4 -0.9
5 -0.42
52 0.36
57 0.15
58 0.15
61 0.15
9 0.27

>  <PUBCHEM_EFFECTIVE_ROTOR_COUNT>  (1) 
11

>  <PUBCHEM_PHARMACOPHORE_FEATURES>  (1) 
11
1 1 acceptor
1 2 acceptor
1 3 acceptor
1 4 cation
1 4 donor
4 23 26 27 28 hydrophobe
5 5 31 32 33 34 rings
5 6 7 9 12 13 rings
6 17 19 21 22 24 25 rings
6 6 7 8 10 11 14 rings
6 8 10 15 17 18 19 rings

>  <PUBCHEM_HEAVY_ATOM_COUNT>  (1) 
34

>  <PUBCHEM_ATOM_DEF_STEREO_COUNT>  (1) 
0

>  <PUBCHEM_ATOM_UDEF_STEREO_COUNT>  (1) 
5

>  <PUBCHEM_BOND_DEF_STEREO_COUNT>  (1) 
0

>  <PUBCHEM_BOND_UDEF_STEREO_COUNT>  (1) 
0

>  <PUBCHEM_ISOTOPIC_ATOM_COUNT>  (1) 
0

>  <PUBCHEM_COMPONENT_COUNT>  (1) 
1

>  <PUBCHEM_CACTVS_TAUTO_COUNT>  (1) 
3

>  <PUBCHEM_CONFORMER_ID>  (1) 
000015F500000001

>  <PUBCHEM_MMFF94_ENERGY>  (1) 
81.4267

>  <PUBCHEM_FEATURE_SELFOVERLAP>  (1) 
56.037

>  <PUBCHEM_SHAPE_FINGERPRINT>  (1) 
10462674 296 17911519006089096982
10794284 68 17038372762947221912
10928967 22 18342184383737336151
11513181 2 18342742913980156023
11552529 35 18130510842118268881
11621639 254 17394497823136599396
11756154 5 17616244785336875266
12120059 20 18198327491211878414
12422481 6 18265639631892831809
14117953 113 17545319679542534709
17921350 177 18202010923266719692
20764821 26 18338508638750594015
20775530 9 18335979766686960682
21133410 90 17344608375656014139
24941158 1 16558744663660109256
354706 35 16749847726041178125
3737641 26 18410581694976586774
460360 51 17968356997230017381
636783 77 18191292785826709722

>  <PUBCHEM_SHAPE_MULTIPOLES>  (1) 
672.13
10.21
6.66
1.82
7.02
2.46
-0.09
4.33
0.02
-0.82
0.07
-0.01
0.29
-1.4

>  <PUBCHEM_SHAPE_SELFOVERLAP>  (1) 
1422.633

>  <PUBCHEM_SHAPE_VOLUME>  (1) 
375

>  <PUBCHEM_COORDINATE_TYPE>  (1) 
2
5
10

$$$$
