5626
     RDKit          3D

 20 21  0  0  0  0  0  0  0  0999 V2000
   -4.3440   -1.4593    0.3181 O   0  0  0  0  0  0  0  0  0  0  0  0
   -4.4013    1.2903   -0.0515 O   0  0  0  0  0  0  0  0  0  0  0  0
    2.7249   -0.0408   -0.5819 N   0  0  0  0  0  0  0  0  0  0  0  0
    1.4041    0.0208    0.0257 C   0  0  0  0  0  0  0  0  0  0  0  0
    0.5928   -1.2715   -0.1992 C   0  0  0  0  0  0  0  0  0  0  0  0
    0.5418    1.1745   -0.5275 C   0  0  0  0  0  0  0  0  0  0  0  0
   -0.8069   -0.7481   -0.0989 C   0  0  0  0  0  0  0  0  0  0  0  0
   -0.8357    0.6396   -0.2853 C   0  0  0  0  0  0  0  0  0  0  0  0
    3.5013   -1.1505   -0.0234 C   0  0  0  0  0  0  0  0  0  0  0  0
    3.4419    1.2228   -0.3930 C   0  0  0  0  0  0  0  0  0  0  0  0
   -1.9737   -1.4667    0.0985 C   0  0  0  0  0  0  0  0  0  0  0  0
   -2.0321    1.3365   -0.2783 C   0  0  0  0  0  0  0  0  0  0  0  0
    4.8716   -1.2278   -0.6919 C   0  0  0  0  0  0  0  0  0  0  0  0
    3.5786    1.5372    1.0946 C   0  0  0  0  0  0  0  0  0  0  0  0
   -3.1839   -0.7700    0.1197 C   0  0  0  0  0  0  0  0  0  0  0  0
   -3.2129    0.6212   -0.0674 C   0  0  0  0  0  0  0  0  0  0  0  0
    5.6905   -2.3864   -0.1442 C   0  0  0  0  0  0  0  0  0  0  0  0
    4.3016    2.8566    1.3177 C   0  0  0  0  0  0  0  0  0  0  0  0
   -4.7810   -1.6150    1.6660 C   0  0  0  0  0  0  0  0  0  0  0  0
   -5.0777    1.4365   -1.2978 C   0  0  0  0  0  0  0  0  0  0  0  0
  1 15  1  0
  1 19  1  0
  2 16  1  0
  2 20  1  0
  3  4  1  0
  3  9  1  0
  3 10  1  0
  4  5  1  0
  4  6  1  0
  5  7  1  0
  6  8  1  0
  7  8  2  0
  7 11  1  0
  8 12  1  0
  9 13  1  0
 10 14  1  0
 11 15  2  0
 12 16  2  0
 13 17  1  0
 14 18  1  0
 15 16  1  0
M  END
>  <PUBCHEM_COMPOUND_CID>  (1) 
5626

>  <PUBCHEM_CONFORMER_RMSD>  (1) 
0.8

>  <PUBCHEM_CONFORMER_DIVERSEORDER>  (1) 
1
16
6
10
9
5
2
14
7
15
3
11
4
12
13
8

>  <PUBCHEM_MMFF94_PARTIAL_CHARGES>  (1) 
18
1 -0.36
10 0.27
11 -0.15
12 -0.15
15 0.08
16 0.08
19 0.28
2 -0.36
20 0.28
3 -0.81
30 0.15
31 0.15
4 0.27
5 0.14
6 0.14
7 -0.14
8 -0.14
9 0.27

>  <PUBCHEM_EFFECTIVE_ROTOR_COUNT>  (1) 
7.6

>  <PUBCHEM_PHARMACOPHORE_FEATURES>  (1) 
7
1 1 acceptor
1 17 hydrophobe
1 18 hydrophobe
1 2 acceptor
1 3 cation
5 4 5 6 7 8 rings
6 7 8 11 12 15 16 rings

>  <PUBCHEM_HEAVY_ATOM_COUNT>  (1) 
20

>  <PUBCHEM_ATOM_DEF_STEREO_COUNT>  (1) 
0

>  <PUBCHEM_ATOM_UDEF_STEREO_COUNT>  (1) 
0

>  <PUBCHEM_BOND_DEF_STEREO_COUNT>  (1) 
0

>  <PUBCHEM_BOND_UDEF_STEREO_COUNT>  (1) 
0

>  <PUBCHEM_ISOTOPIC_ATOM_COUNT>  (1) 
0

>  <PUBCHEM_COMPONENT_COUNT>  (1) 
1

>  <PUBCHEM_CACTVS_TAUTO_COUNT>  (1) 
1

>  <PUBCHEM_CONFORMER_ID>  (1) 
000015FA00000001

>  <PUBCHEM_MMFF94_ENERGY>  (1) 
67.8004

>  <PUBCHEM_FEATURE_SELFOVERLAP>  (1) 
35.608

>  <PUBCHEM_SHAPE_FINGERPRINT>  (1) 
10912923 1 17060341867908570183
1100329 8 16826152136085260592
11045977 3 18409728447851176264
11089746 13 18341885243307092061
11132069 177 18259981591515101853
11405975 8 18412827962671882768
11545043 162 18333735701692338994
12236239 1 17458071434887605958
12403259 226 18410853240078949980
12403259 415 18410577305198282621
12507560 40 18411418444473067424
12616971 3 16988567904831154299
13140716 1 18340209596223918136
13533116 47 18341619243361539802
13675066 3 18335985354164625343
13760787 19 17240765038883942323
13760787 5 17418378008072034497
14866123 147 17621889690891502472
15196674 1 18408325496799768791
15536298 74 18411699907007922956
17804303 29 18411142398804563038
17844677 252 18343589542138371761
1813 80 16877939473150911732
18186145 218 18040709256089163630
18222031 100 16805324434991299847
19433438 28 18334299781417357315
200 152 17632008663705079015
20645477 56 18340202011169118440
20645477 70 18060134323732638870
20832881 197 18338518522172014146
21065198 57 18412824698691838376
21065199 12 18410572928721586200
21065201 7 17967810548250823000
21267235 1 18334588931453516763
21452121 103 18341884230359526480
21859007 373 17898265248510673812
2215653 11 18340765927812032750
22182313 1 18261657243167621396
23402539 116 18340482279439451975
23557571 272 18040723537140285839
23559900 14 18408039602723911572
268830 7 17417822771916735753
3004659 81 18115596929535233414
3286 77 18413110537714096092
335352 9 18336265626603234725
350125 39 18410858737879493628
3545911 37 18187930530528229735
4214541 1 18335143063791165039
495365 180 17917698115967108248
5104073 3 18410014338154572793
559249 180 18114744832632928586
59755656 215 18044092358599326095
633830 44 17312824896216446582
7495541 125 18411984646460562894
90127 26 18408323297913656915
9709674 26 18335986488073213602

>  <PUBCHEM_SHAPE_MULTIPOLES>  (1) 
394.87
12.35
2.52
1.07
1.17
0.43
0.28
-1.95
0.82
2.39
0.59
-0.4
0.22
2.71

>  <PUBCHEM_SHAPE_SELFOVERLAP>  (1) 
810.06

>  <PUBCHEM_SHAPE_VOLUME>  (1) 
233.1

>  <PUBCHEM_COORDINATE_TYPE>  (1) 
2
5
10

$$$$
