5628
     RDKit          3D

 24 25  0  0  0  0  0  0  0  0999 V2000
   -2.9454   -0.8371   -1.3986 S   0  0  0  0  0  0  0  0  0  0  0  0
    2.9371   -0.7593    1.4805 S   0  0  0  0  0  0  0  0  0  0  0  0
   -0.5723    0.4884   -1.1404 N   0  0  0  0  0  0  0  0  0  0  0  0
    0.5622    0.5031    1.0746 N   0  0  0  0  0  0  0  0  0  0  0  0
   -1.9705   -3.9446    0.1413 N   0  0  0  0  0  0  0  0  0  0  0  0
    2.0150   -3.9709   -0.1144 N   0  0  0  0  0  0  0  0  0  0  0  0
   -3.6268    0.5300   -0.4747 C   0  0  0  0  0  0  0  0  0  0  0  0
    3.6073    0.5817    0.5059 C   0  0  0  0  0  0  0  0  0  0  0  0
   -0.6511   -1.7462   -0.2641 C   0  0  0  0  0  0  0  0  0  0  0  0
    0.7214   -1.7527    0.2619 C   0  0  0  0  0  0  0  0  0  0  0  0
   -1.2367   -0.6960   -0.9056 C   0  0  0  0  0  0  0  0  0  0  0  0
    1.2614   -0.6684    0.8833 C   0  0  0  0  0  0  0  0  0  0  0  0
   -3.5245    0.5488    0.9147 C   0  0  0  0  0  0  0  0  0  0  0  0
    3.5594    0.5178   -0.8837 C   0  0  0  0  0  0  0  0  0  0  0  0
   -4.2593    1.5747   -1.1454 C   0  0  0  0  0  0  0  0  0  0  0  0
    4.1737    1.6828    1.1417 C   0  0  0  0  0  0  0  0  0  0  0  0
   -4.0568    1.6170    1.6366 C   0  0  0  0  0  0  0  0  0  0  0  0
    4.0822    1.5639   -1.6439 C   0  0  0  0  0  0  0  0  0  0  0  0
   -4.7916    2.6430   -0.4235 C   0  0  0  0  0  0  0  0  0  0  0  0
    4.6965    2.7288    0.3815 C   0  0  0  0  0  0  0  0  0  0  0  0
   -4.6903    2.6642    0.9675 C   0  0  0  0  0  0  0  0  0  0  0  0
    4.6507    2.6695   -1.0114 C   0  0  0  0  0  0  0  0  0  0  0  0
   -1.3818   -2.9612   -0.0411 C   0  0  0  0  0  0  0  0  0  0  0  0
    1.4402   -2.9772    0.0574 C   0  0  0  0  0  0  0  0  0  0  0  0
  1  7  1  0
  1 11  1  0
  2  8  1  0
  2 12  1  0
  3 11  1  0
  4 12  1  0
  5 23  3  0
  6 24  3  0
  7 13  2  0
  7 15  1  0
  8 14  2  0
  8 16  1  0
  9 10  1  0
  9 11  2  0
  9 23  1  0
 10 12  2  0
 10 24  1  0
 13 17  1  0
 14 18  1  0
 15 19  2  0
 16 20  2  0
 17 21  2  0
 18 22  2  0
 19 21  1  0
 20 22  1  0
M  END
>  <PUBCHEM_COMPOUND_CID>  (1) 
5628

>  <PUBCHEM_CONFORMER_RMSD>  (1) 
0.8

>  <PUBCHEM_CONFORMER_DIVERSEORDER>  (1) 
1
11
10
20
19
29
31
16
32
28
8
25
9
14
27
13
6
21
3
33
18
15
30
4
23
22
12
26
2
24
17
5
7

>  <PUBCHEM_MMFF94_PARTIAL_CHARGES>  (1) 
38
1 -0.2
10 0.06
11 0.2
12 0.2
13 -0.15
14 -0.15
15 -0.15
16 -0.15
17 -0.15
18 -0.15
19 -0.15
2 -0.2
20 -0.15
21 -0.15
22 -0.15
23 0.49
24 0.49
25 0.15
26 0.15
27 0.15
28 0.15
29 0.15
3 -0.9
30 0.15
31 0.15
32 0.15
33 0.15
34 0.15
35 0.4
36 0.4
37 0.4
38 0.4
4 -0.9
5 -0.56
6 -0.56
7 0.1
8 0.1
9 0.06

>  <PUBCHEM_EFFECTIVE_ROTOR_COUNT>  (1) 
5

>  <PUBCHEM_PHARMACOPHORE_FEATURES>  (1) 
8
1 3 cation
1 3 donor
1 4 cation
1 4 donor
1 5 acceptor
1 6 acceptor
6 7 13 15 17 19 21 rings
6 8 14 16 18 20 22 rings

>  <PUBCHEM_HEAVY_ATOM_COUNT>  (1) 
24

>  <PUBCHEM_ATOM_DEF_STEREO_COUNT>  (1) 
0

>  <PUBCHEM_ATOM_UDEF_STEREO_COUNT>  (1) 
0

>  <PUBCHEM_BOND_DEF_STEREO_COUNT>  (1) 
0

>  <PUBCHEM_BOND_UDEF_STEREO_COUNT>  (1) 
2

>  <PUBCHEM_ISOTOPIC_ATOM_COUNT>  (1) 
0

>  <PUBCHEM_COMPONENT_COUNT>  (1) 
1

>  <PUBCHEM_CACTVS_TAUTO_COUNT>  (1) 
3

>  <PUBCHEM_CONFORMER_ID>  (1) 
000015FC00000001

>  <PUBCHEM_MMFF94_ENERGY>  (1) 
85.8806

>  <PUBCHEM_FEATURE_SELFOVERLAP>  (1) 
40.636

>  <PUBCHEM_SHAPE_FINGERPRINT>  (1) 
102385 1 18410573993763874914
10937287 8 18411135857205471630
11720765 8 17559405652435098092
12107183 9 18262498365874259090
12173636 292 18267296719736822054
12390115 104 18336836410751148236
12422481 6 17750217163340172772
12788726 201 17758406557544794886
13590594 115 17690844462920823578
13828863 39 17241910841485034492
13965767 371 18113889447441532092
14251757 17 15697997435589131720
14251764 75 18335991960025644260
14713325 29 18192438690789019683
14790565 3 18410573989452498733
14848178 5 9367347002838988509
14848178 96 18341048536343701801
14950920 106 16660637432144632769
15163728 17 18336839683658659470
151778 21 18337671906096073096
15342168 16 18336541634350425261
16988056 13 17689424988824189004
18785283 64 18264208002311319834
20567600 9 18269280075494107572
20626108 58 8070023376307251292
21120745 212 17831030378928415591
235170 7 15554153886993636564
23559900 14 18123467181372457211
283562 15 18120930874198350819
38570 142 18057905587851485301
474 4 18268138761260642051
5048184 11 18411979156933345221
57724786 102 18123757452742980737
6034566 193 18261117429839260549
633830 44 18343017770343035508
7808743 9 18337390555916513904

>  <PUBCHEM_SHAPE_MULTIPOLES>  (1) 
481.68
11.02
4.48
1.5
0.44
3.39
0.01
-13.06
-0.1
-0.12
0.02
-0.04
-0.65
-1.36

>  <PUBCHEM_SHAPE_SELFOVERLAP>  (1) 
999.278

>  <PUBCHEM_SHAPE_VOLUME>  (1) 
272.6

>  <PUBCHEM_COORDINATE_TYPE>  (1) 
2
5
10

$$$$
