5632
     RDKit          3D

 24 25  0  0  0  0  0  0  0  0999 V2000
    6.1481    0.5093    0.9199 F   0  0  0  0  0  0  0  0  0  0  0  0
    4.5709   -0.0358    2.3053 F   0  0  0  0  0  0  0  0  0  0  0  0
    5.0569   -1.3512    0.6433 F   0  0  0  0  0  0  0  0  0  0  0  0
   -3.6785   -0.0970    0.1418 O   0  0  0  0  0  0  0  0  0  0  0  0
   -1.8557    1.1874    0.7140 O   0  0  0  0  0  0  0  0  0  0  0  0
    0.3106    0.4075   -0.7704 N   0  0  0  0  0  0  0  0  0  0  0  0
   -5.9906    0.5159    0.2494 C   0  0  0  0  0  0  0  0  0  0  0  0
   -6.9904    1.6175    0.5896 C   0  0  0  0  0  0  0  0  0  0  0  0
   -4.5563    0.9646    0.4907 C   0  0  0  0  0  0  0  0  0  0  0  0
   -0.2701   -0.8700   -0.6077 C   0  0  0  0  0  0  0  0  0  0  0  0
   -1.5425   -1.0328   -0.0964 C   0  0  0  0  0  0  0  0  0  0  0  0
    1.6421    0.8598   -0.7291 C   0  0  0  0  0  0  0  0  0  0  0  0
    2.5792    0.2094    0.0767 C   0  0  0  0  0  0  0  0  0  0  0  0
   -2.3484    0.1486    0.3023 C   0  0  0  0  0  0  0  0  0  0  0  0
    3.8994    0.6580    0.1171 C   0  0  0  0  0  0  0  0  0  0  0  0
   -8.4187    1.1806    0.3065 C   0  0  0  0  0  0  0  0  0  0  0  0
    0.4620   -1.9996   -0.9738 C   0  0  0  0  0  0  0  0  0  0  0  0
   -2.1124   -2.2816    0.0635 C   0  0  0  0  0  0  0  0  0  0  0  0
    2.0320    1.9611   -1.4948 C   0  0  0  0  0  0  0  0  0  0  0  0
    4.2859    1.7580   -0.6486 C   0  0  0  0  0  0  0  0  0  0  0  0
   -0.0933   -3.2701   -0.8213 C   0  0  0  0  0  0  0  0  0  0  0  0
   -1.3804   -3.4112   -0.3024 C   0  0  0  0  0  0  0  0  0  0  0  0
    3.3523    2.4094   -1.4546 C   0  0  0  0  0  0  0  0  0  0  0  0
    4.8977   -0.0378    0.9789 C   0  0  0  0  0  0  0  0  0  0  0  0
  1 24  1  0
  2 24  1  0
  3 24  1  0
  4  9  1  0
  4 14  1  0
  5 14  2  0
  6 10  1  0
  6 12  1  0
  7  8  1  0
  7  9  1  0
  8 16  1  0
 10 11  2  0
 10 17  1  0
 11 14  1  0
 11 18  1  0
 12 13  2  0
 12 19  1  0
 13 15  1  0
 15 20  2  0
 15 24  1  0
 17 21  2  0
 18 22  2  0
 19 23  2  0
 20 23  1  0
 21 22  1  0
M  END
>  <PUBCHEM_COMPOUND_CID>  (1) 
5632

>  <PUBCHEM_CONFORMER_RMSD>  (1) 
0.8

>  <PUBCHEM_CONFORMER_DIVERSEORDER>  (1) 
1
311
252
12
331
266
183
213
371
189
211
179
50
164
374
322
195
299
301
48
402
381
334
328
351
180
291
208
398
416
326
370
115
285
53
365
93
308
388
113
158
403
186
382
42
343
60
38
318
29
377
99
233
298
278
274
33
243
300
220
354
134
401
153
273
59
244
105
157
68
400
151
425
297
3
171
327
357
236
207
386
123
194
404
132
420
64
131
46
329
330
265
378
424
197
237
91
142
31
161
294
376
149
373
163
320
360
178
139
202
287
248
281
44
412
176
410
350
389
201
383
353
18
347
286
65
196
136
118
346
342
25
413
245
218
267
399
87
61
52
216
228
235
11
409
165
225
120
340
130
205
191
107
282
98
227
140
182
15
380
368
333
70
411
203
312
229
215
184
249
72
395
276
240
124
279
271
426
385
361
82
181
263
423
275
270
317
324
272
85
71
366
26
396
188
174
175
62
67
2
206
79
390
419
268
332
221
54
415
144
290
167
358
86
210
102
288
166
7
352
122
230
147
304
66
77
313
24
217
316
135
369
242
109
234
4
187
296
246
190
418
94
258
406
337
36
90
315
96
407
394
126
254
74
250
393
259
387
34
255
35
169
305
204
125
292
95
101
295
256
5
148
138
253
335
222
41
39
341
57
146
27
427
214
51
106
13
116
325
199
219
224
212
364
114
421
92
422
47
104
9
356
100
405
81
23
289
362
251
127
414
348
56
43
349
261
302
339
264
247
269
185
257
88
69
262
83
103
45
37
283
231
323
310
314
345
40
277
89
293
63
232
284
306
30
145
384
84
367
336
241
111
8
20
10
110
172
408
73
21
303
119
6
307
22
108
319
80
32
417
280
193
112
391
117
154
192
223
28
128
75
137
260
97
16
156
162
121
338
209
397
239
363
129
76
375
152
160
150
177
309
17
159
379
372
14
58
141
173
198
355
78
19
200
55
392
226
49
359
170
155
168
344
238
321
143
133

>  <PUBCHEM_MMFF94_PARTIAL_CHARGES>  (1) 
30
1 -0.34
10 0.1
11 0.09
12 0.1
13 -0.15
14 0.63
15 -0.14
17 -0.15
18 -0.15
19 -0.15
2 -0.34
20 -0.15
21 -0.15
22 -0.15
23 -0.15
24 1.16
3 -0.34
31 0.4
32 0.15
36 0.15
37 0.15
38 0.15
39 0.15
4 -0.43
40 0.15
41 0.15
42 0.15
5 -0.57
6 -0.6
9 0.28

>  <PUBCHEM_EFFECTIVE_ROTOR_COUNT>  (1) 
8

>  <PUBCHEM_PHARMACOPHORE_FEATURES>  (1) 
6
1 16 hydrophobe
1 5 acceptor
1 6 cation
1 6 donor
6 10 11 17 18 21 22 rings
6 12 13 15 19 20 23 rings

>  <PUBCHEM_HEAVY_ATOM_COUNT>  (1) 
24

>  <PUBCHEM_ATOM_DEF_STEREO_COUNT>  (1) 
0

>  <PUBCHEM_ATOM_UDEF_STEREO_COUNT>  (1) 
0

>  <PUBCHEM_BOND_DEF_STEREO_COUNT>  (1) 
0

>  <PUBCHEM_BOND_UDEF_STEREO_COUNT>  (1) 
0

>  <PUBCHEM_ISOTOPIC_ATOM_COUNT>  (1) 
0

>  <PUBCHEM_COMPONENT_COUNT>  (1) 
1

>  <PUBCHEM_CACTVS_TAUTO_COUNT>  (1) 
2

>  <PUBCHEM_CONFORMER_ID>  (1) 
0000160000000001

>  <PUBCHEM_MMFF94_ENERGY>  (1) 
67.0381

>  <PUBCHEM_FEATURE_SELFOVERLAP>  (1) 
30.446

>  <PUBCHEM_SHAPE_FINGERPRINT>  (1) 
11578080 2 17830700478053700364
11719270 70 18412266108541874031
12107183 9 18334572426120642570
12128747 34 16082200802138651113
12236239 1 18261111928265404000
12516196 113 8718824271968537045
12633257 1 18334292097815596228
12788726 201 17906177608898642910
13533116 47 17846499171659446222
13540713 5 18044937020274522078
13583140 156 17605572151892392537
13673619 4 14056996101220966064
13899415 154 9007053574468205973
14117953 113 18410016498734508917
15238133 3 18343585174478683864
15403338 16 17168135711615972905
16728300 4 17460855320428568353
16752209 62 18056480788190855430
16994733 274 15698004003269192435
173720 79 18410575098096561527
17818456 19 18411420622470067796
20554085 129 17917423216400802883
20715895 44 18412267220648110501
21033648 29 17702929448935984394
21065198 48 18116715316773329854
212916 134 18201995538567426938
21304304 249 18339083683706499734
21403212 168 18336540530238095939
21781055 127 17987258667411485152
22224240 67 18342735213736211753
22950370 63 9079122146379161157
23016692 55 7925909284012564841
23503953 91 18336820992077018456
23559900 14 17988100966664751780
23569917 315 18341620313099333071
23598288 3 18122347040837631246
23622692 88 18260546727669810134
335352 9 18411709759726464062
4072396 5 18411138017732270565
4340502 62 18343306942529030631
445580 126 18340209597126063209
495365 180 17346609555965395214
5104073 3 18043243737892126544
5385378 56 18341615850379625819
56633871 153 18190161422521071186
6058803 2 17901103341572181430
6371009 1 18412827980395941145
7097593 13 18190174766951979660
8509985 295 18412544323132355704
9981440 41 18412271623232741283

>  <PUBCHEM_SHAPE_MULTIPOLES>  (1) 
455.37
15.93
3.08
1.23
23.39
2.76
0.21
-11.81
6.04
0.44
-1.16
-1.82
-0.25
-1.59

>  <PUBCHEM_SHAPE_SELFOVERLAP>  (1) 
962.488

>  <PUBCHEM_SHAPE_VOLUME>  (1) 
255.4

>  <PUBCHEM_COORDINATE_TYPE>  (1) 
2
5
10

$$$$
