5636
     RDKit          3D

 27 27  0  0  1  0  0  0  0  0999 V2000
   -1.8514    2.0959    2.2967 O   0  0  0  0  0  0  0  0  0  0  0  0
   -4.6499   -1.5857    1.1295 O   0  0  0  0  0  0  0  0  0  0  0  0
   -0.1750    2.2791   -2.2742 O   0  0  0  0  0  0  0  0  0  0  0  0
    0.4653   -1.4690    1.8490 O   0  0  0  0  0  0  0  0  0  0  0  0
    2.0645   -2.0988    0.3676 O   0  0  0  0  0  0  0  0  0  0  0  0
   -2.6138    1.2555    0.1523 C   0  0  0  0  0  0  0  0  0  0  0  0
   -3.5864    0.1308   -0.2150 C   0  0  0  0  0  0  0  0  0  0  0  0
   -2.9502    1.5048    1.6257 C   0  0  0  0  0  0  0  0  0  0  0  0
   -3.4789   -0.7991    0.9978 C   0  0  0  0  0  0  0  0  0  0  0  0
   -3.2855    0.1263    2.2032 C   0  0  0  0  0  0  0  0  0  0  0  0
   -2.7673    2.5084   -0.6998 C   0  0  0  0  0  0  0  0  0  0  0  0
   -3.2494   -0.5757   -1.5214 C   0  0  0  0  0  0  0  0  0  0  0  0
   -1.5304    3.3982   -0.6145 C   0  0  0  0  0  0  0  0  0  0  0  0
   -1.8803   -1.1887   -1.6280 C   0  0  0  0  0  0  0  0  0  0  0  0
   -0.2783    2.7024   -1.1231 C   0  0  0  0  0  0  0  0  0  0  0  0
    0.8492    2.5189   -0.1274 C   0  0  0  0  0  0  0  0  0  0  0  0
   -1.5836   -2.4878   -1.7852 C   0  0  0  0  0  0  0  0  0  0  0  0
    2.0188    1.7777   -0.7641 C   0  0  0  0  0  0  0  0  0  0  0  0
   -0.1818   -3.0130   -1.8943 C   0  0  0  0  0  0  0  0  0  0  0  0
    3.1469    1.5502    0.2423 C   0  0  0  0  0  0  0  0  0  0  0  0
    0.1850   -4.0235   -0.7986 C   0  0  0  0  0  0  0  0  0  0  0  0
    4.3346    0.8357   -0.4051 C   0  0  0  0  0  0  0  0  0  0  0  0
    5.4764    0.6378    0.5932 C   0  0  0  0  0  0  0  0  0  0  0  0
    0.0672   -3.4681    0.6241 C   0  0  0  0  0  0  0  0  0  0  0  0
    6.6758   -0.0463   -0.0623 C   0  0  0  0  0  0  0  0  0  0  0  0
    7.8001   -0.2752    0.9352 C   0  0  0  0  0  0  0  0  0  0  0  0
    0.9782   -2.2909    0.8964 C   0  0  0  0  0  0  0  0  0  0  0  0
  1  8  1  0
  2  9  1  0
  3 15  2  0
  4 27  1  0
  5 27  2  0
  6  7  1  0
  6  8  1  0
  6 11  1  0
  7  9  1  0
  7 12  1  0
  8 10  1  0
  9 10  1  0
 11 13  1  0
 12 14  1  0
 13 15  1  0
 14 17  2  0
 15 16  1  0
 16 18  1  0
 17 19  1  0
 18 20  1  0
 19 21  1  0
 20 22  1  0
 21 24  1  0
 22 23  1  0
 23 25  1  0
 24 27  1  0
 25 26  1  0
M  END
>  <PUBCHEM_COMPOUND_CID>  (1) 
5636

>  <PUBCHEM_CONFORMER_RMSD>  (1) 
1.8

>  <PUBCHEM_CONFORMER_DIVERSEORDER>  (1) 
1
33
45
58
64
4
15
3
51
10
46
71
63
48
20
14
6
57
17
31
47
37
32
59
12
18
19
25
62
66
69
60
23
70
50
28
53
44
21
2
40
29
36
30
39
9
52
61
54
38
16
22
41
11
43
7
13
8
34
65
42
5
68
27
55
35
26
49
24
67
56

>  <PUBCHEM_MMFF94_PARTIAL_CHARGES>  (1) 
21
1 -0.68
12 0.14
13 0.06
14 -0.29
15 0.45
16 0.06
17 -0.29
19 0.14
2 -0.68
24 0.06
27 0.66
3 -0.57
4 -0.65
40 0.4
41 0.4
42 0.15
45 0.15
5 -0.57
65 0.5
8 0.28
9 0.28

>  <PUBCHEM_EFFECTIVE_ROTOR_COUNT>  (1) 
16

>  <PUBCHEM_PHARMACOPHORE_FEATURES>  (1) 
13
1 1 acceptor
1 1 donor
1 2 acceptor
1 2 donor
1 26 hydrophobe
1 3 acceptor
1 4 acceptor
1 5 acceptor
3 16 18 20 hydrophobe
3 22 23 25 hydrophobe
3 4 5 27 anion
4 17 19 21 24 hydrophobe
5 6 7 8 9 10 rings

>  <PUBCHEM_HEAVY_ATOM_COUNT>  (1) 
27

>  <PUBCHEM_ATOM_DEF_STEREO_COUNT>  (1) 
0

>  <PUBCHEM_ATOM_UDEF_STEREO_COUNT>  (1) 
4

>  <PUBCHEM_BOND_DEF_STEREO_COUNT>  (1) 
0

>  <PUBCHEM_BOND_UDEF_STEREO_COUNT>  (1) 
1

>  <PUBCHEM_ISOTOPIC_ATOM_COUNT>  (1) 
0

>  <PUBCHEM_COMPONENT_COUNT>  (1) 
1

>  <PUBCHEM_CACTVS_TAUTO_COUNT>  (1) 
3

>  <PUBCHEM_CONFORMER_ID>  (1) 
0000160400000001

>  <PUBCHEM_MMFF94_ENERGY>  (1) 
32.309

>  <PUBCHEM_FEATURE_SELFOVERLAP>  (1) 
66.044

>  <PUBCHEM_SHAPE_FINGERPRINT>  (1) 
12633257 1 17488475232981377841
14840074 17 18408323284965672160
14866123 147 18411127053208557534
15664445 248 15813379825489979012
16120349 306 18341323418856479392
21796203 349 17972915624269321096
35225 105 17469917792129306607
444769 64 18410570653370497546
44575985 13 17023750156303329712
56638632 33 17843678004768679609
57527452 28 18412541050693836871
57527585 103 17173479565850038354
6287921 2 18127716871133746027
9896288 288 18129955467938505960

>  <PUBCHEM_SHAPE_MULTIPOLES>  (1) 
526.3
11.12
4.77
2.05
28.11
2.32
-0.21
-1.37
-4.1
-1.77
1.54
-1.92
0.18
-0.75

>  <PUBCHEM_SHAPE_SELFOVERLAP>  (1) 
1023.663

>  <PUBCHEM_SHAPE_VOLUME>  (1) 
317.8

>  <PUBCHEM_COORDINATE_TYPE>  (1) 
2
5
10

$$$$
