5637
     RDKit          3D

 26 27  0  0  0  0  0  0  0  0999 V2000
   -3.0449   -0.9610   -1.1559 S   0  0  0  0  0  0  0  0  0  0  0  0
    3.0471   -0.8885    1.2486 S   0  0  0  0  0  0  0  0  0  0  0  0
   -4.5894    1.5326   -2.1568 N   0  0  0  0  0  0  0  0  0  0  0  0
    4.4662    1.7176    2.1428 N   0  0  0  0  0  0  0  0  0  0  0  0
   -0.6546    0.3573   -1.0940 N   0  0  0  0  0  0  0  0  0  0  0  0
    0.6516    0.3803    1.0243 N   0  0  0  0  0  0  0  0  0  0  0  0
   -1.9613   -4.0633    0.3204 N   0  0  0  0  0  0  0  0  0  0  0  0
    1.9915   -4.1057   -0.2494 N   0  0  0  0  0  0  0  0  0  0  0  0
   -3.6467    0.4138   -0.1891 C   0  0  0  0  0  0  0  0  0  0  0  0
    3.6424    0.4445    0.2160 C   0  0  0  0  0  0  0  0  0  0  0  0
   -4.3340    1.4844   -0.7671 C   0  0  0  0  0  0  0  0  0  0  0  0
    4.2690    1.5714    0.7504 C   0  0  0  0  0  0  0  0  0  0  0  0
   -3.4147    0.4042    1.1885 C   0  0  0  0  0  0  0  0  0  0  0  0
    3.4658    0.3363   -1.1641 C   0  0  0  0  0  0  0  0  0  0  0  0
   -4.7861    2.5380    0.0273 C   0  0  0  0  0  0  0  0  0  0  0  0
    4.7176    2.5876   -0.0933 C   0  0  0  0  0  0  0  0  0  0  0  0
   -1.3021   -0.8233   -0.8003 C   0  0  0  0  0  0  0  0  0  0  0  0
    1.3297   -0.7948    0.7852 C   0  0  0  0  0  0  0  0  0  0  0  0
   -0.6710   -1.8721   -0.2010 C   0  0  0  0  0  0  0  0  0  0  0  0
    0.7388   -1.8807    0.2149 C   0  0  0  0  0  0  0  0  0  0  0  0
   -3.8668    1.4578    1.9830 C   0  0  0  0  0  0  0  0  0  0  0  0
    3.9144    1.3525   -2.0079 C   0  0  0  0  0  0  0  0  0  0  0  0
   -4.5524    2.5248    1.4024 C   0  0  0  0  0  0  0  0  0  0  0  0
    4.5403    2.4782   -1.4724 C   0  0  0  0  0  0  0  0  0  0  0  0
   -1.3857   -3.0831    0.0862 C   0  0  0  0  0  0  0  0  0  0  0  0
    1.4352   -3.1090   -0.0386 C   0  0  0  0  0  0  0  0  0  0  0  0
  1  9  1  0
  1 17  1  0
  2 10  1  0
  2 18  1  0
  3 11  1  0
  4 12  1  0
  5 17  1  0
  6 18  1  0
  7 25  3  0
  8 26  3  0
  9 11  2  0
  9 13  1  0
 10 12  2  0
 10 14  1  0
 11 15  1  0
 12 16  1  0
 13 21  2  0
 14 22  2  0
 15 23  2  0
 16 24  2  0
 17 19  2  0
 18 20  2  0
 19 20  1  0
 19 25  1  0
 20 26  1  0
 21 23  1  0
 22 24  1  0
M  END
>  <PUBCHEM_COMPOUND_CID>  (1) 
5637

>  <PUBCHEM_CONFORMER_RMSD>  (1) 
0.8

>  <PUBCHEM_CONFORMER_DIVERSEORDER>  (1) 
2
6
127
133
64
98
81
29
33
136
119
115
42
101
59
12
27
17
85
138
84
19
118
40
87
93
103
108
28
129
134
66
41
100
99
125
7
54
79
88
122
78
107
15
26
92
69
65
13
95
117
141
124
44
51
47
73
31
132
90
120
82
114
97
21
116
144
143
10
11
128
57
34
74
83
142
113
3
36
139
60
43
112
123
96
77
61
49
25
102
137
39
140
86
9
72
23
146
135
80
46
131
24
35
1
89
126
63
38
75
62
106
76
71
32
45
94
121
53
30
67
50
8
56
52
5
104
105
68
48
145
110
109
111
130
18
91
16
20
55
58
70
37
14
4
22

>  <PUBCHEM_MMFF94_PARTIAL_CHARGES>  (1) 
42
1 -0.2
10 0.1
11 0.1
12 0.1
13 -0.15
14 -0.15
15 -0.15
16 -0.15
17 0.2
18 0.2
19 0.06
2 -0.2
20 0.06
21 -0.15
22 -0.15
23 -0.15
24 -0.15
25 0.49
26 0.49
27 0.15
28 0.15
29 0.15
3 -0.9
30 0.15
31 0.15
32 0.15
33 0.15
34 0.15
35 0.4
36 0.4
37 0.4
38 0.4
39 0.4
4 -0.9
40 0.4
41 0.4
42 0.4
5 -0.9
6 -0.9
7 -0.56
8 -0.56
9 0.1

>  <PUBCHEM_EFFECTIVE_ROTOR_COUNT>  (1) 
5

>  <PUBCHEM_PHARMACOPHORE_FEATURES>  (1) 
12
1 3 cation
1 3 donor
1 4 cation
1 4 donor
1 5 cation
1 5 donor
1 6 cation
1 6 donor
1 7 acceptor
1 8 acceptor
6 10 12 14 16 22 24 rings
6 9 11 13 15 21 23 rings

>  <PUBCHEM_HEAVY_ATOM_COUNT>  (1) 
26

>  <PUBCHEM_ATOM_DEF_STEREO_COUNT>  (1) 
0

>  <PUBCHEM_ATOM_UDEF_STEREO_COUNT>  (1) 
0

>  <PUBCHEM_BOND_DEF_STEREO_COUNT>  (1) 
0

>  <PUBCHEM_BOND_UDEF_STEREO_COUNT>  (1) 
2

>  <PUBCHEM_ISOTOPIC_ATOM_COUNT>  (1) 
0

>  <PUBCHEM_COMPONENT_COUNT>  (1) 
1

>  <PUBCHEM_CACTVS_TAUTO_COUNT>  (1) 
3

>  <PUBCHEM_CONFORMER_ID>  (1) 
0000160500000002

>  <PUBCHEM_MMFF94_ENERGY>  (1) 
114.6918

>  <PUBCHEM_FEATURE_SELFOVERLAP>  (1) 
60.938

>  <PUBCHEM_SHAPE_FINGERPRINT>  (1) 
102385 1 18410295817337917338
10937287 8 18411419526900083430
11370993 144 15358246109439780929
12173636 292 18268144438885920414
12390115 104 18338528528712233278
12422481 6 17749656420973438092
12788726 201 17613448052840790262
13590594 115 17690283711996016970
13828863 39 17024615470931568676
13878862 14 18047456839033301573
13965767 371 18114453496906444652
14251757 17 16630527357815304688
14713325 29 18192724559506802603
14790565 3 18410578387493663644
14848178 5 9871469768554393132
14848178 96 18412545383799061924
14950920 106 16081082684227655360
15163728 17 18337405927804621494
15342168 16 18336546032412637143
20567600 9 18270126699447384620
21033650 10 17987807444077882760
235170 7 15913042174670539820
23559900 14 18044943363693720315
283562 15 18121498217961390139
312425 83 16559033804832105268
3459 110 16805895090538121097
38570 142 17986695713041556217
469060 322 18192163796424549011
474 4 18268423534782870067
57724786 102 18122353380657525601
6034566 193 18188780559889997581
633830 44 18057892346762340791
7808743 9 18336834207422752588
9849439 229 18340764858565863313

>  <PUBCHEM_SHAPE_MULTIPOLES>  (1) 
512.88
11.53
4.38
1.8
0.44
4.06
-0.02
-12.89
-0.21
-0.11
0.09
-0.04
-1.21
-1.05

>  <PUBCHEM_SHAPE_SELFOVERLAP>  (1) 
1068.201

>  <PUBCHEM_SHAPE_VOLUME>  (1) 
289.4

>  <PUBCHEM_COORDINATE_TYPE>  (1) 
2
5
10

$$$$
