5639
     RDKit          3D

 28 30  0  0  0  0  0  0  0  0999 V2000
    5.0501   -0.7267   -1.7375 O   0  0  0  0  0  0  0  0  0  0  0  0
   -7.0112    0.4365   -1.7445 O   0  0  0  0  0  0  0  0  0  0  0  0
   -4.5428    2.5751    1.5716 O   0  0  0  0  0  0  0  0  0  0  0  0
    1.0578   -1.5711    1.2567 N   0  0  0  0  0  0  0  0  0  0  0  0
    3.4382   -0.1776    0.5145 N   0  0  0  0  0  0  0  0  0  0  0  0
   -3.0015   -1.5139   -0.0736 N   0  0  0  0  0  0  0  0  0  0  0  0
   -5.0568   -0.5423   -0.9511 N   0  0  0  0  0  0  0  0  0  0  0  0
   -5.8151    1.5533   -0.1035 N   0  0  0  0  0  0  0  0  0  0  0  0
    1.5100   -1.5639   -0.1398 C   0  0  0  0  0  0  0  0  0  0  0  0
    2.2172   -1.5505    2.1572 C   0  0  0  0  0  0  0  0  0  0  0  0
    2.3370   -0.3124   -0.4440 C   0  0  0  0  0  0  0  0  0  0  0  0
    3.0667   -0.2980    1.9299 C   0  0  0  0  0  0  0  0  0  0  0  0
    0.2246   -2.7437    1.5203 C   0  0  0  0  0  0  0  0  0  0  0  0
   -1.0030   -2.7363    0.6072 C   0  0  0  0  0  0  0  0  0  0  0  0
    4.5475    0.6116    0.1906 C   0  0  0  0  0  0  0  0  0  0  0  0
   -1.8639   -1.4893    0.7967 C   0  0  0  0  0  0  0  0  0  0  0  0
    5.3500    0.3337   -0.9353 C   0  0  0  0  0  0  0  0  0  0  0  0
    4.8951    1.7183    0.9917 C   0  0  0  0  0  0  0  0  0  0  0  0
   -3.9468   -0.5114   -0.0992 C   0  0  0  0  0  0  0  0  0  0  0  0
    6.4530    1.1289   -1.2463 C   0  0  0  0  0  0  0  0  0  0  0  0
    5.9981    2.5135    0.6808 C   0  0  0  0  0  0  0  0  0  0  0  0
    6.7771    2.2186   -0.4382 C   0  0  0  0  0  0  0  0  0  0  0  0
   -3.7899    0.5332    0.7311 C   0  0  0  0  0  0  0  0  0  0  0  0
   -6.0317    0.4751   -0.9917 C   0  0  0  0  0  0  0  0  0  0  0  0
   -4.7440    1.6554    0.7812 C   0  0  0  0  0  0  0  0  0  0  0  0
   -5.2135   -1.6911   -1.8468 C   0  0  0  0  0  0  0  0  0  0  0  0
    5.9018   -0.9514   -2.8588 C   0  0  0  0  0  0  0  0  0  0  0  0
   -6.8040    2.6264   -0.1192 C   0  0  0  0  0  0  0  0  0  0  0  0
  1 17  1  0
  1 27  1  0
  2 24  2  0
  3 25  2  0
  4  9  1  0
  4 10  1  0
  4 13  1  0
  5 11  1  0
  5 12  1  0
  5 15  1  0
  6 16  1  0
  6 19  1  0
  7 19  1  0
  7 24  1  0
  7 26  1  0
  8 24  1  0
  8 25  1  0
  8 28  1  0
  9 11  1  0
 10 12  1  0
 13 14  1  0
 14 16  1  0
 15 17  2  0
 15 18  1  0
 17 20  1  0
 18 21  2  0
 19 23  2  0
 20 22  2  0
 21 22  1  0
 23 25  1  0
M  END
>  <PUBCHEM_COMPOUND_CID>  (1) 
5639

>  <PUBCHEM_CONFORMER_RMSD>  (1) 
1

>  <PUBCHEM_CONFORMER_DIVERSEORDER>  (1) 
6
213
4
211
153
172
224
68
188
85
168
131
162
106
23
205
21
198
28
89
24
103
31
196
150
215
7
36
43
221
156
143
214
98
161
27
81
147
15
228
97
229
129
138
133
95
57
151
185
208
52
59
55
165
8
140
209
17
34
127
47
148
175
200
16
192
124
186
66
26
80
194
54
102
88
69
202
45
90
193
30
108
158
171
82
32
74
144
222
146
19
206
145
135
37
126
227
121
18
113
159
2
204
155
197
49
225
11
178
219
33
128
75
99
174
93
116
139
212
112
210
44
141
163
77
199
101
177
65
73
79
167
58
179
76
22
220
14
223
120
134
122
5
109
119
201
216
136
39
180
203
170
152
61
107
137
218
104
157
64
50
160
35
132
63
62
176
100
71
29
195
125
46
226
96
130
94
173
13
166
114
123
189
83
154
105
42
56
207
115
110
91
9
40
72
191
184
169
48
1
117
70
181
25
118
53
183
164
84
87
78
111
92
149
41
51
20
190
67
142
60
182
3
12
217
187
86
38
10

>  <PUBCHEM_MMFF94_PARTIAL_CHARGES>  (1) 
33
1 -0.36
10 0.27
11 0.37
12 0.37
13 0.27
15 0.1
16 0.37
17 0.08
18 -0.15
19 0.21
2 -0.57
20 -0.15
21 -0.15
22 -0.15
23 -0.14
24 0.69
25 0.62
26 0.3
27 0.28
28 0.3
3 -0.57
4 -0.81
43 0.15
44 0.4
45 0.15
46 0.15
47 0.15
48 0.15
5 -0.84
6 -0.87
7 -0.47
8 -0.42
9 0.27

>  <PUBCHEM_EFFECTIVE_ROTOR_COUNT>  (1) 
8.2

>  <PUBCHEM_PHARMACOPHORE_FEATURES>  (1) 
10
1 1 acceptor
1 2 acceptor
1 3 acceptor
1 4 cation
1 5 cation
1 6 cation
1 6 donor
6 15 17 18 20 21 22 rings
6 4 5 9 10 11 12 rings
6 7 8 19 23 24 25 rings

>  <PUBCHEM_HEAVY_ATOM_COUNT>  (1) 
28

>  <PUBCHEM_ATOM_DEF_STEREO_COUNT>  (1) 
0

>  <PUBCHEM_ATOM_UDEF_STEREO_COUNT>  (1) 
0

>  <PUBCHEM_BOND_DEF_STEREO_COUNT>  (1) 
0

>  <PUBCHEM_BOND_UDEF_STEREO_COUNT>  (1) 
0

>  <PUBCHEM_ISOTOPIC_ATOM_COUNT>  (1) 
0

>  <PUBCHEM_COMPONENT_COUNT>  (1) 
1

>  <PUBCHEM_CACTVS_TAUTO_COUNT>  (1) 
2

>  <PUBCHEM_CONFORMER_ID>  (1) 
0000160700000006

>  <PUBCHEM_MMFF94_ENERGY>  (1) 
92.55

>  <PUBCHEM_FEATURE_SELFOVERLAP>  (1) 
50.749

>  <PUBCHEM_SHAPE_FINGERPRINT>  (1) 
10 15 14851607686773322983
10319926 262 12540967452830892091
10622 236 14404085486797269750
10670039 82 18341334405092886601
11475781 23 18411986888639187292
12124843 1 18131068221214381413
12166972 35 14117795851294155929
12390115 104 18041007270742988059
13627167 48 18268151959479189541
13782708 43 14189568629113487321
14251751 18 8070027774638657311
14394314 77 18336266752624352253
14840074 17 17749112171128035461
14931854 50 18273208682438571889
15183329 4 17346886641184770230
15188451 53 10953747707670316779
15513586 35 16373845397790514791
15980000 95 17542783110766327162
16110190 28 11169912792527628849
17134984 74 15410608216524908230
17780758 139 11386357145856334663
19841028 212 11455586809162714221
21298829 104 18260545598421193085
21315763 87 7997969076762492660
21424621 283 18261113015113656810
21585480 29 11747520395794515664
21774942 28 18342173367674178256
249057 25 18266158587763354747
270888 7 18333729113433871121
2748736 6 18114175367356141252
2838139 119 18410571781981214034
312425 54 11386356045827372012
38570 142 18335432218212014747
3862424 121 15337690881941101421
3918712 181 18335690672117000768
406291 66 11671787061307249844
4098825 35 17489603242043944251
42767 28 18060699476973134929
474113 269 18058740097010737942
5104073 3 12396297062685077678
5364581 5 13840562790802337799
543368 44 18335414674066552365
54583773 228 18337099105060123205
59682541 52 17275107210993866494
6376802 90 18195819677140989822
6608658 132 18340480089570782317
6712543 237 13190335773231978737
7970288 3 10592043561550244905

>  <PUBCHEM_SHAPE_MULTIPOLES>  (1) 
533.71
21.79
3.03
2.05
6.99
0.25
0.65
17.09
10.06
1.22
-1.12
-1.68
-0.75
-0.49

>  <PUBCHEM_SHAPE_SELFOVERLAP>  (1) 
1112.813

>  <PUBCHEM_SHAPE_VOLUME>  (1) 
302.1

>  <PUBCHEM_COORDINATE_TYPE>  (1) 
2
5
10

$$$$
