5640
     RDKit          3D

 29 31  0  0  0  0  0  0  0  0999 V2000
    5.4143   -1.8871   -1.1802 O   0  0  0  0  0  0  0  0  0  0  0  0
   -6.3231   -2.5925    0.8360 O   0  0  0  0  0  0  0  0  0  0  0  0
   -6.9448    1.2526   -1.6671 O   0  0  0  0  0  0  0  0  0  0  0  0
    1.3110    0.4161    0.6014 N   0  0  0  0  0  0  0  0  0  0  0  0
    4.1336    0.2058    0.2162 N   0  0  0  0  0  0  0  0  0  0  0  0
   -2.9651    0.7509    0.8508 N   0  0  0  0  0  0  0  0  0  0  0  0
   -4.6772   -0.9550    0.8409 N   0  0  0  0  0  0  0  0  0  0  0  0
   -6.6816   -0.6773   -0.4038 N   0  0  0  0  0  0  0  0  0  0  0  0
    2.0428    1.4643   -0.1201 C   0  0  0  0  0  0  0  0  0  0  0  0
    1.9301   -0.8906    0.3468 C   0  0  0  0  0  0  0  0  0  0  0  0
    3.5044    1.5250    0.3309 C   0  0  0  0  0  0  0  0  0  0  0  0
    3.3871   -0.9082    0.8145 C   0  0  0  0  0  0  0  0  0  0  0  0
   -0.0955    0.4040    0.2010 C   0  0  0  0  0  0  0  0  0  0  0  0
   -0.7565    1.7389    0.5501 C   0  0  0  0  0  0  0  0  0  0  0  0
    5.5278    0.1049    0.1540 C   0  0  0  0  0  0  0  0  0  0  0  0
   -2.2350    1.7754    0.1695 C   0  0  0  0  0  0  0  0  0  0  0  0
    6.1635   -0.9423   -0.5448 C   0  0  0  0  0  0  0  0  0  0  0  0
    6.3425    1.0595    0.7962 C   0  0  0  0  0  0  0  0  0  0  0  0
   -4.1976    0.2984    0.4218 C   0  0  0  0  0  0  0  0  0  0  0  0
    7.5546   -1.0307   -0.5985 C   0  0  0  0  0  0  0  0  0  0  0  0
   -4.9550    1.0536   -0.4088 C   0  0  0  0  0  0  0  0  0  0  0  0
    7.7335    0.9712    0.7424 C   0  0  0  0  0  0  0  0  0  0  0  0
    8.3395   -0.0740    0.0452 C   0  0  0  0  0  0  0  0  0  0  0  0
   -5.9189   -1.4880    0.4555 C   0  0  0  0  0  0  0  0  0  0  0  0
   -6.2835    0.5643   -0.8893 C   0  0  0  0  0  0  0  0  0  0  0  0
   -3.8307   -1.7542    1.7341 C   0  0  0  0  0  0  0  0  0  0  0  0
   -4.5924    2.4203   -0.9389 C   0  0  0  0  0  0  0  0  0  0  0  0
   -7.9903   -1.1764   -0.8181 C   0  0  0  0  0  0  0  0  0  0  0  0
    5.0625   -1.6290   -2.5377 C   0  0  0  0  0  0  0  0  0  0  0  0
  1 17  1  0
  1 29  1  0
  2 24  2  0
  3 25  2  0
  4  9  1  0
  4 10  1  0
  4 13  1  0
  5 11  1  0
  5 12  1  0
  5 15  1  0
  6 16  1  0
  6 19  1  0
  7 19  1  0
  7 24  1  0
  7 26  1  0
  8 24  1  0
  8 25  1  0
  8 28  1  0
  9 11  1  0
 10 12  1  0
 13 14  1  0
 14 16  1  0
 15 17  2  0
 15 18  1  0
 17 20  1  0
 18 22  2  0
 19 21  2  0
 20 23  2  0
 21 25  1  0
 21 27  1  0
 22 23  1  0
M  END
>  <PUBCHEM_COMPOUND_CID>  (1) 
5640

>  <PUBCHEM_CONFORMER_RMSD>  (1) 
1

>  <PUBCHEM_CONFORMER_DIVERSEORDER>  (1) 
1
81
31
50
32
44
73
87
14
21
58
62
78
28
65
75
22
54
13
52
64
35
33
4
56
18
66
40
82
23
61
46
59
63
29
10
42
3
60
37
17
38
71
80
72
43
57
39
45
30
2
20
86
70
36
74
16
49
84
53
77
12
69
85
34
79
15
76
5
51
41
48
27
47
7
26
9
67
11
83
25
19
8
68
55
6
24

>  <PUBCHEM_MMFF94_PARTIAL_CHARGES>  (1) 
33
1 -0.36
10 0.27
11 0.37
12 0.37
13 0.27
15 0.1
16 0.37
17 0.08
18 -0.15
19 0.21
2 -0.57
20 -0.15
21 -0.12
22 -0.15
23 -0.15
24 0.69
25 0.62
26 0.3
27 0.14
28 0.3
29 0.28
3 -0.57
4 -0.81
44 0.4
45 0.15
46 0.15
47 0.15
48 0.15
5 -0.84
6 -0.87
7 -0.47
8 -0.42
9 0.27

>  <PUBCHEM_EFFECTIVE_ROTOR_COUNT>  (1) 
8.2

>  <PUBCHEM_PHARMACOPHORE_FEATURES>  (1) 
10
1 1 acceptor
1 2 acceptor
1 3 acceptor
1 4 cation
1 5 cation
1 6 cation
1 6 donor
6 15 17 18 20 22 23 rings
6 4 5 9 10 11 12 rings
6 7 8 19 21 24 25 rings

>  <PUBCHEM_HEAVY_ATOM_COUNT>  (1) 
29

>  <PUBCHEM_ATOM_DEF_STEREO_COUNT>  (1) 
0

>  <PUBCHEM_ATOM_UDEF_STEREO_COUNT>  (1) 
0

>  <PUBCHEM_BOND_DEF_STEREO_COUNT>  (1) 
0

>  <PUBCHEM_BOND_UDEF_STEREO_COUNT>  (1) 
0

>  <PUBCHEM_ISOTOPIC_ATOM_COUNT>  (1) 
0

>  <PUBCHEM_COMPONENT_COUNT>  (1) 
1

>  <PUBCHEM_CACTVS_TAUTO_COUNT>  (1) 
2

>  <PUBCHEM_CONFORMER_ID>  (1) 
0000160800000001

>  <PUBCHEM_MMFF94_ENERGY>  (1) 
109.0079

>  <PUBCHEM_FEATURE_SELFOVERLAP>  (1) 
50.749

>  <PUBCHEM_SHAPE_FINGERPRINT>  (1) 
10299344 5 15339117948801033588
10391435 84 18341043116200391858
11200772 48 17458347459508523243
11315181 36 18343864420747163377
11719270 70 18408317779435056922
12082328 90 18131067104696723533
13668630 136 18343581837193792181
13782708 43 17846223194224764566
13811026 1 18410009953267269568
13885169 127 18342176635885983281
14251764 18 15626222420655905596
14294032 229 16950839190275185028
14461889 52 18411694397008078962
14849402 71 13542165247787527426
150020 25 18410855443576085748
15183329 4 17748826302183593848
15352257 5 17704071798198493798
15419008 91 18263342807125520908
15510794 2 18342737403425734278
15849732 13 18411980269662113324
15979999 66 18041000669879791284
18335252 114 13551470376449710278
18335252 98 18131633387681344926
18603816 31 17203321278592216103
18681886 176 18334851749023631384
19377110 9 15195290798195651812
2026 5 18343019982716299991
21150785 3 17894911823770722388
21315759 40 15985100825412938088
21623969 137 17846503612771428270
23559900 14 18335132129369412785
23569943 247 17906742402247720018
23576562 1 17096387188125671494
249057 3 17748827432229569133
2838139 119 13839985520984781071
3004659 81 18040711489514725945
44880568 143 18333733494074686308
504579 68 16877943845110990397
504843 32 13479144509616713897
5385378 56 12247690348715728028
58083652 198 15482658083742792721
58902169 19 16081091497806300278
59755656 215 18260265231070836282
9962374 69 17631719577730055677
999808 66 18273217508532593679

>  <PUBCHEM_SHAPE_MULTIPOLES>  (1) 
554.29
27.66
2.2
1.35
3.99
0.13
0.52
7.21
5.04
-2.05
0.14
-0.07
0.55
3.34

>  <PUBCHEM_SHAPE_SELFOVERLAP>  (1) 
1155.774

>  <PUBCHEM_SHAPE_VOLUME>  (1) 
314

>  <PUBCHEM_COORDINATE_TYPE>  (1) 
2
5
10

$$$$
