5641
     RDKit          3D

  6  5  0  0  0  0  0  0  0  0999 V2000
   -0.2530    0.4888   -0.0001 O   0  0  0  0  0  0  0  0  0  0  0  0
    1.2720   -1.2357    0.0000 O   0  0  0  0  0  0  0  0  0  0  0  0
    1.9439    0.9633    0.0000 N   0  0  0  0  0  0  0  0  0  0  0  0
   -1.3249   -0.4609    0.0000 C   0  0  0  0  0  0  0  0  0  0  0  0
   -2.6431    0.2833    0.0000 C   0  0  0  0  0  0  0  0  0  0  0  0
    1.0052   -0.0386    0.0000 C   0  0  0  0  0  0  0  0  0  0  0  0
  1  4  1  0
  1  6  1  0
  2  6  2  0
  3  6  1  0
  4  5  1  0
M  END
>  <PUBCHEM_COMPOUND_CID>  (1) 
5641

>  <PUBCHEM_CONFORMER_RMSD>  (1) 
0.4

>  <PUBCHEM_CONFORMER_DIVERSEORDER>  (1) 
1
4
5
2
8
9
3
6
7

>  <PUBCHEM_MMFF94_PARTIAL_CHARGES>  (1) 
7
1 -0.43
12 0.37
13 0.37
2 -0.57
3 -0.8
4 0.28
6 0.78

>  <PUBCHEM_EFFECTIVE_ROTOR_COUNT>  (1) 
2

>  <PUBCHEM_PHARMACOPHORE_FEATURES>  (1) 
2
1 2 acceptor
1 3 donor

>  <PUBCHEM_HEAVY_ATOM_COUNT>  (1) 
6

>  <PUBCHEM_ATOM_DEF_STEREO_COUNT>  (1) 
0

>  <PUBCHEM_ATOM_UDEF_STEREO_COUNT>  (1) 
0

>  <PUBCHEM_BOND_DEF_STEREO_COUNT>  (1) 
0

>  <PUBCHEM_BOND_UDEF_STEREO_COUNT>  (1) 
0

>  <PUBCHEM_ISOTOPIC_ATOM_COUNT>  (1) 
0

>  <PUBCHEM_COMPONENT_COUNT>  (1) 
1

>  <PUBCHEM_CACTVS_TAUTO_COUNT>  (1) 
2

>  <PUBCHEM_CONFORMER_ID>  (1) 
0000160900000001

>  <PUBCHEM_MMFF94_ENERGY>  (1) 
3.6717

>  <PUBCHEM_FEATURE_SELFOVERLAP>  (1) 
10.148

>  <PUBCHEM_SHAPE_FINGERPRINT>  (1) 
139733 1 9294989272238408355
14390081 3 18273212040664997961
20096714 4 18341332296279677352
21040471 1 18338516468560182022
24536 1 18336535067081574939
29004967 10 18114187440514270809
5460574 1 9223235143763096513

>  <PUBCHEM_SHAPE_MULTIPOLES>  (1) 
106.76
3.21
1
0.57
1.45
0.13
0
-0.49
0
-0.44
0
0.05
0
0

>  <PUBCHEM_SHAPE_SELFOVERLAP>  (1) 
190.523

>  <PUBCHEM_SHAPE_VOLUME>  (1) 
69.6

>  <PUBCHEM_COORDINATE_TYPE>  (1) 
2
5
10

$$$$
