5643
     RDKit          3D

 21 22  0  0  1  0  0  0  0  0999 V2000
   -3.5080    1.3888    0.5595 P   0  0  0  0  0  0  0  0  0  0  0  0
    0.0734   -1.7610   -0.5803 O   0  0  0  0  0  0  0  0  0  0  0  0
   -2.8261   -0.0764    0.6753 O   0  0  0  0  0  0  0  0  0  0  0  0
   -0.9255    1.6136   -1.1098 O   0  0  0  0  0  0  0  0  0  0  0  0
   -1.2963   -4.1563    0.0133 O   0  0  0  0  0  0  0  0  0  0  0  0
   -4.6559    1.3682    1.6984 O   0  0  0  0  0  0  0  0  0  0  0  0
   -4.3491    1.2903   -0.8180 O   0  0  0  0  0  0  0  0  0  0  0  0
    2.2830    1.3769   -2.0427 O   0  0  0  0  0  0  0  0  0  0  0  0
   -2.5491    2.5408    0.6359 O   0  0  0  0  0  0  0  0  0  0  0  0
    5.3435    0.6407    1.3244 O   0  0  0  0  0  0  0  0  0  0  0  0
    1.7082   -0.1083   -0.3331 N   0  0  0  0  0  0  0  0  0  0  0  0
    3.8061    1.0083   -0.3654 N   0  0  0  0  0  0  0  0  0  0  0  0
   -1.8627   -0.4522   -0.2896 C   0  0  0  0  0  0  0  0  0  0  0  0
   -0.6731    0.4816   -0.2973 C   0  0  0  0  0  0  0  0  0  0  0  0
   -1.2040   -1.7699    0.0768 C   0  0  0  0  0  0  0  0  0  0  0  0
    0.4166   -0.3999   -0.8870 C   0  0  0  0  0  0  0  0  0  0  0  0
   -1.9999   -2.9844   -0.3654 C   0  0  0  0  0  0  0  0  0  0  0  0
    2.5707    0.7983   -0.9927 C   0  0  0  0  0  0  0  0  0  0  0  0
    2.1090   -0.7173    0.8502 C   0  0  0  0  0  0  0  0  0  0  0  0
    3.2897   -0.5072    1.4360 C   0  0  0  0  0  0  0  0  0  0  0  0
    4.2495    0.4254    0.8115 C   0  0  0  0  0  0  0  0  0  0  0  0
  1  3  1  0
  1  6  1  0
  1  7  1  0
  1  9  2  0
  2 15  1  0
  2 16  1  0
  3 13  1  0
  4 14  1  0
  5 17  1  0
  8 18  2  0
 10 21  2  0
 11 16  1  0
 11 18  1  0
 11 19  1  0
 12 18  1  0
 12 21  1  0
 13 14  1  0
 13 15  1  0
 14 16  1  0
 15 17  1  0
 19 20  2  0
 20 21  1  0
M  END
>  <PUBCHEM_COMPOUND_CID>  (1) 
5643

>  <PUBCHEM_CONFORMER_RMSD>  (1) 
0.8

>  <PUBCHEM_CONFORMER_DIVERSEORDER>  (1) 
1
28
42
40
66
49
44
68
38
11
60
67
72
46
37
50
10
31
62
16
19
18
53
32
27
4
51
48
45
23
9
52
7
36
34
61
70
65
20
33
59
21
39
30
2
5
58
24
6
74
69
12
3
13
55
63
26
71
43
15
64
29
17
56
35
22
47
8
73
25
54
41
57
14

>  <PUBCHEM_MMFF94_PARTIAL_CHARGES>  (1) 
28
1 1.51
10 -0.57
11 -0.47
12 -0.49
13 0.28
14 0.28
15 0.28
16 0.58
17 0.28
18 0.69
19 -0.04
2 -0.56
20 -0.14
21 0.62
28 0.4
29 0.15
3 -0.55
30 0.4
31 0.37
32 0.15
33 0.5
34 0.5
4 -0.68
5 -0.68
6 -0.77
7 -0.77
8 -0.57
9 -0.7

>  <PUBCHEM_EFFECTIVE_ROTOR_COUNT>  (1) 
5

>  <PUBCHEM_PHARMACOPHORE_FEATURES>  (1) 
14
1 10 acceptor
1 12 donor
1 2 acceptor
1 4 acceptor
1 4 donor
1 5 acceptor
1 5 donor
1 6 acceptor
1 7 acceptor
1 8 acceptor
1 9 acceptor
4 1 6 7 9 anion
5 2 13 14 15 16 rings
6 11 12 18 19 20 21 rings

>  <PUBCHEM_HEAVY_ATOM_COUNT>  (1) 
21

>  <PUBCHEM_ATOM_DEF_STEREO_COUNT>  (1) 
0

>  <PUBCHEM_ATOM_UDEF_STEREO_COUNT>  (1) 
4

>  <PUBCHEM_BOND_DEF_STEREO_COUNT>  (1) 
0

>  <PUBCHEM_BOND_UDEF_STEREO_COUNT>  (1) 
0

>  <PUBCHEM_ISOTOPIC_ATOM_COUNT>  (1) 
0

>  <PUBCHEM_COMPONENT_COUNT>  (1) 
1

>  <PUBCHEM_CACTVS_TAUTO_COUNT>  (1) 
3

>  <PUBCHEM_CONFORMER_ID>  (1) 
0000160B00000001

>  <PUBCHEM_MMFF94_ENERGY>  (1) 
19.984

>  <PUBCHEM_FEATURE_SELFOVERLAP>  (1) 
71.106

>  <PUBCHEM_SHAPE_FINGERPRINT>  (1) 
11132069 177 18409450263009591461
11543360 7 15051727569399807757
11725454 13 17203314594688925804
11796584 16 11892702016213915296
121448 382 18343009004921465223
12251169 10 18186801365987520484
12553582 1 17834968846190026399
12788726 201 18048046451827230307
13538477 17 18335701693118126470
13583140 156 17489298750675078394
13965767 371 17829616054355923384
14178342 30 18337388339929868302
14787075 74 17846206757517142409
15209294 21 18409158927125442992
15842332 3 17824550892344214126
16945 1 18342184409370184839
1741750 31 18343867718527471035
1813 80 16878224148506128494
19433438 48 17968924392759485346
19862831 5 11815886869089049856
204376 136 18339924823144600363
20510252 161 18272376390569212723
20600515 1 18272376390416777360
212916 134 18271799090744764913
21731228 192 18339643347730286667
22112679 90 18116152345202777318
22149856 69 18051724087396402697
22950370 63 9367050212546756293
23402539 116 18271231837878087527
23402655 69 13254801213477804400
23419403 2 17546970450001011661
23557571 272 18129952298653035150
23559900 14 18202015317703968404
23598291 2 17969226805685933582
23622692 88 18040995116322357572
25147074 1 17897171427698026044
26918003 58 16226044470418256496
2748010 2 17682949995039704630
427121 178 18129957667182696651
495365 180 17203331053156858190
5104073 3 18265597936307844962
58807428 26 18336267838543534099
633830 44 17773601507809193469
6992083 37 18113893888179175366
7097593 13 18187917362074435602
7615 1 17970347233545809212
7808743 9 18341621459649326864
81228 2 18268144434680623839

>  <PUBCHEM_SHAPE_MULTIPOLES>  (1) 
373.23
8.43
2.91
1.37
3.52
3.18
0.03
-4.89
-3.59
-3.39
0.14
0.58
-0.56
-1.02

>  <PUBCHEM_SHAPE_SELFOVERLAP>  (1) 
768.482

>  <PUBCHEM_SHAPE_VOLUME>  (1) 
215.3

>  <PUBCHEM_COORDINATE_TYPE>  (1) 
2
5
10

$$$$
