5648
     RDKit          3D

 22 22  0  0  1  0  0  0  0  0999 V2000
   -0.6141    0.5469    0.2088 O   0  0  0  0  0  0  0  0  0  0  0  0
    0.3456    1.2066   -1.7729 O   0  0  0  0  0  0  0  0  0  0  0  0
   -4.2956    0.2062   -0.0529 N   0  0  0  0  0  0  0  0  0  0  0  0
   -2.9637    0.1958    0.6030 C   0  0  0  0  0  0  0  0  0  0  0  0
   -5.3919   -0.2190    0.9333 C   0  0  0  0  0  0  0  0  0  0  0  0
   -4.3233   -0.7610   -1.2440 C   0  0  0  0  0  0  0  0  0  0  0  0
   -4.6370    1.6104   -0.5699 C   0  0  0  0  0  0  0  0  0  0  0  0
   -1.9050    0.5903   -0.4078 C   0  0  0  0  0  0  0  0  0  0  0  0
    2.8365    1.7678   -0.2538 C   0  0  0  0  0  0  0  0  0  0  0  0
    1.7534    0.7270    0.1759 C   0  0  0  0  0  0  0  0  0  0  0  0
   -5.4381    0.7652    2.0817 C   0  0  0  0  0  0  0  0  0  0  0  0
   -3.9895   -2.1556   -0.7612 C   0  0  0  0  0  0  0  0  0  0  0  0
    3.7106    2.1973    0.9465 C   0  0  0  0  0  0  0  0  0  0  0  0
    0.4391    0.8824   -0.5958 C   0  0  0  0  0  0  0  0  0  0  0  0
    2.2416   -0.7167    0.2161 C   0  0  0  0  0  0  0  0  0  0  0  0
    3.6929    1.3120   -1.4415 C   0  0  0  0  0  0  0  0  0  0  0  0
    4.6507    3.3537    0.6314 C   0  0  0  0  0  0  0  0  0  0  0  0
    2.9870   -1.1708    1.3043 C   0  0  0  0  0  0  0  0  0  0  0  0
    1.9428   -1.5838   -0.8350 C   0  0  0  0  0  0  0  0  0  0  0  0
    3.4336   -2.4916    1.3413 C   0  0  0  0  0  0  0  0  0  0  0  0
    2.3894   -2.9047   -0.7978 C   0  0  0  0  0  0  0  0  0  0  0  0
    3.1348   -3.3585    0.2904 C   0  0  0  0  0  0  0  0  0  0  0  0
  1  8  1  0
  1 14  1  0
  2 14  2  0
  3  4  1  0
  3  5  1  0
  3  6  1  0
  3  7  1  0
  4  8  1  0
  5 11  1  0
  6 12  1  0
  9 10  1  0
  9 13  1  0
  9 16  1  0
 10 14  1  0
 10 15  1  0
 13 17  1  0
 15 18  2  0
 15 19  1  0
 18 20  1  0
 19 21  2  0
 20 22  2  0
 21 22  1  0
M  CHG  1   3   1
M  END
>  <PUBCHEM_COMPOUND_CID>  (1) 
5648

>  <PUBCHEM_CONFORMER_RMSD>  (1) 
1.2

>  <PUBCHEM_CONFORMER_DIVERSEORDER>  (1) 
1
81
139
4
88
134
51
32
93
6
103
54
102
48
108
52
59
140
60
28
119
43
76
42
50
138
57
137
67
135
99
33
132
49
118
14
100
98
13
109
30
77
91
12
58
34
11
90
47
112
126
64
117
45
17
62
97
8
61
94
22
120
27
5
122
69
65
63
23
71
55
133
44
3
130
78
72
20
128
40
31
29
24
84
105
111
87
66
41
115
75
129
136
36
123
18
79
38
9
7
82
96
101
21
39
35
107
46
131
110
127
15
53
113
74
26
104
19
16
92
10
121
86
68
83
89
56
124
116
106
114
125
85
95
37
25
80
70
73
2

>  <PUBCHEM_MMFF94_PARTIAL_CHARGES>  (1) 
21
1 -0.43
10 0.2
14 0.66
15 -0.14
18 -0.15
19 -0.15
2 -0.57
20 -0.15
21 -0.15
22 -0.15
3 -1.01
4 0.5
5 0.5
50 0.15
51 0.15
52 0.15
53 0.15
54 0.15
6 0.5
7 0.5
8 0.28

>  <PUBCHEM_EFFECTIVE_ROTOR_COUNT>  (1) 
10

>  <PUBCHEM_PHARMACOPHORE_FEATURES>  (1) 
5
1 16 hydrophobe
1 17 hydrophobe
1 2 acceptor
1 3 cation
6 15 18 19 20 21 22 rings

>  <PUBCHEM_HEAVY_ATOM_COUNT>  (1) 
22

>  <PUBCHEM_ATOM_DEF_STEREO_COUNT>  (1) 
0

>  <PUBCHEM_ATOM_UDEF_STEREO_COUNT>  (1) 
2

>  <PUBCHEM_BOND_DEF_STEREO_COUNT>  (1) 
0

>  <PUBCHEM_BOND_UDEF_STEREO_COUNT>  (1) 
0

>  <PUBCHEM_ISOTOPIC_ATOM_COUNT>  (1) 
0

>  <PUBCHEM_COMPONENT_COUNT>  (1) 
1

>  <PUBCHEM_CACTVS_TAUTO_COUNT>  (1) 
1

>  <PUBCHEM_CONFORMER_ID>  (1) 
0000161000000001

>  <PUBCHEM_MMFF94_ENERGY>  (1) 
67.2172

>  <PUBCHEM_FEATURE_SELFOVERLAP>  (1) 
25.372

>  <PUBCHEM_SHAPE_FINGERPRINT>  (1) 
10090160 65 18267018538873803428
10912923 1 17989487425089208473
11405975 8 18263924341749916009
12107183 9 17910117911012037889
12616971 3 18341611478361270979
12633257 1 18201720596642291711
12644460 14 18412269419449832986
12788726 201 16772971215808892801
13533116 47 18337680732886824121
13583140 156 17845069896853630069
13631057 29 17840862194734909471
13675066 3 18186524285311057697
13955234 65 18411140221250798042
14252887 29 18040157318289776225
14347424 109 18338526227438341065
146900 427 18271247217570373032
14790565 3 18048875488026814300
14863182 85 18114472248754881556
15142526 21 17841985891049632384
15238133 3 16844737413321446195
15250474 111 18200864163089504751
15422964 175 17766551361969129366
17492 89 18410011040137400431
17818456 19 18055357938090633529
17844677 252 18114469951121659009
17913733 40 18268975622695707504
19377110 9 18201434826745478843
20645477 70 18187085027060425835
20681651 13 18202284732212220339
21054139 6 18053652852900121270
21421861 104 18342466893490123944
22182313 1 17749374932631609309
22393880 68 18342181102160867390
23503953 91 18059573543028072875
23557571 272 17023174990234161764
23559900 14 18270676450744752678
268830 7 18202289078640366449
300161 21 18341890827371361541
31174 14 18335975364492668622
312423 11 18263657168602798969
341906 21 16200433538109828611
3421961 26 18262237712055083978
5104073 3 18335989679819523169
59755656 520 18196363948149337220
6442390 28 18196367246420313724
90127 26 12751240311742865291
9709674 26 18259988175894963539
9841814 1 18265336114563832010

>  <PUBCHEM_SHAPE_MULTIPOLES>  (1) 
436.03
12.25
3.56
1.51
15.66
1.26
0.19
-2.62
3.18
-6.27
0.26
0.56
-0.05
-0.87

>  <PUBCHEM_SHAPE_SELFOVERLAP>  (1) 
861.721

>  <PUBCHEM_SHAPE_VOLUME>  (1) 
262.1

>  <PUBCHEM_COORDINATE_TYPE>  (1) 
2
5
10

$$$$
