5650
     RDKit          3D

 32 34  0  0  1  0  0  0  0  0999 V2000
   -0.4458    2.5838    1.1246 O   0  0  0  0  0  0  0  0  0  0  0  0
   -4.3162    0.5688    1.0335 O   0  0  0  0  0  0  0  0  0  0  0  0
   -2.0033    1.2291    2.0368 O   0  0  0  0  0  0  0  0  0  0  0  0
   -2.6618    0.3095   -0.5713 N   0  0  0  0  0  0  0  0  0  0  0  0
    3.8341    1.5413    1.6470 N   0  0  0  0  0  0  0  0  0  0  0  0
    3.3551    1.6753   -0.5621 N   0  0  0  0  0  0  0  0  0  0  0  0
    3.3007    2.7131    1.2738 N   0  0  0  0  0  0  0  0  0  0  0  0
    3.0013    2.8371   -0.0267 N   0  0  0  0  0  0  0  0  0  0  0  0
   -2.1281    1.6483   -0.3526 C   0  0  0  0  0  0  0  0  0  0  0  0
   -3.1990    2.7097   -0.6844 C   0  0  0  0  0  0  0  0  0  0  0  0
   -1.9717   -0.4751   -1.5925 C   0  0  0  0  0  0  0  0  0  0  0  0
   -3.7602   -0.1255    0.1783 C   0  0  0  0  0  0  0  0  0  0  0  0
   -2.6829    4.1466   -0.5608 C   0  0  0  0  0  0  0  0  0  0  0  0
   -3.8255    2.4888   -2.0639 C   0  0  0  0  0  0  0  0  0  0  0  0
   -4.2561   -1.5358   -0.1131 C   0  0  0  0  0  0  0  0  0  0  0  0
   -1.5293    1.7727    1.0456 C   0  0  0  0  0  0  0  0  0  0  0  0
   -0.5353   -0.7246   -1.2339 C   0  0  0  0  0  0  0  0  0  0  0  0
   -5.4569   -1.9270    0.7501 C   0  0  0  0  0  0  0  0  0  0  0  0
   -5.9070   -3.3585    0.4608 C   0  0  0  0  0  0  0  0  0  0  0  0
   -0.1980   -1.1231    0.0597 C   0  0  0  0  0  0  0  0  0  0  0  0
    0.4619   -0.5585   -2.1950 C   0  0  0  0  0  0  0  0  0  0  0  0
    2.1338   -1.1893   -0.5690 C   0  0  0  0  0  0  0  0  0  0  0  0
    1.1365   -1.3554    0.3920 C   0  0  0  0  0  0  0  0  0  0  0  0
    1.7965   -0.7908   -1.8625 C   0  0  0  0  0  0  0  0  0  0  0  0
   -7.0767   -3.7638    1.3433 C   0  0  0  0  0  0  0  0  0  0  0  0
    3.5178   -1.4314   -0.2247 C   0  0  0  0  0  0  0  0  0  0  0  0
    4.3373   -0.4169    0.2701 C   0  0  0  0  0  0  0  0  0  0  0  0
    4.0280   -2.7179   -0.3981 C   0  0  0  0  0  0  0  0  0  0  0  0
    5.6671   -0.6890    0.5913 C   0  0  0  0  0  0  0  0  0  0  0  0
    5.3579   -2.9900   -0.0769 C   0  0  0  0  0  0  0  0  0  0  0  0
    3.8485    0.9241    0.4629 C   0  0  0  0  0  0  0  0  0  0  0  0
    6.1775   -1.9755    0.4177 C   0  0  0  0  0  0  0  0  0  0  0  0
  1 16  1  0
  2 12  2  0
  3 16  2  0
  4  9  1  0
  4 11  1  0
  4 12  1  0
  5  7  1  0
  5 31  2  0
  6  8  2  0
  6 31  1  0
  7  8  1  0
  9 10  1  0
  9 16  1  0
 10 13  1  0
 10 14  1  0
 11 17  1  0
 12 15  1  0
 15 18  1  0
 17 20  2  0
 17 21  1  0
 18 19  1  0
 19 25  1  0
 20 23  1  0
 21 24  2  0
 22 23  2  0
 22 24  1  0
 22 26  1  0
 26 27  1  0
 26 28  2  0
 27 29  2  0
 27 31  1  0
 28 30  1  0
 29 32  1  0
 30 32  2  0
M  END
>  <PUBCHEM_COMPOUND_CID>  (1) 
5650

>  <PUBCHEM_CONFORMER_RMSD>  (1) 
1

>  <PUBCHEM_CONFORMER_DIVERSEORDER>  (1) 
1
19
136
34
125
172
46
111
35
107
166
57
42
156
154
130
104
56
95
70
174
105
44
164
74
97
26
113
146
163
21
173
119
158
60
18
67
82
132
78
62
110
102
170
127
30
128
12
58
157
143
84
11
153
175
59
109
106
171
43
93
103
51
61
124
118
116
87
76
13
149
73
169
129
117
161
90
28
33
108
148
155
31
27
151
101
126
22
63
24
168
75
160
79
16
100
138
8
66
80
140
99
85
167
68
112
139
47
50
165
96
159
32
141
39
142
150
88
25
29
121
40
81
147
6
134
45
94
89
144
23
86
52
64
41
17
91
10
37
120
38
9
122
145
131
98
72
20
14
115
123
137
69
162
55
5
114
36
77
83
65
53
2
133
48
135
3
7
71
152
49
4
92
15
54

>  <PUBCHEM_MMFF94_PARTIAL_CHARGES>  (1) 
34
1 -0.65
11 0.44
12 0.57
15 0.06
16 0.66
17 -0.14
2 -0.57
20 -0.15
21 -0.15
23 -0.15
24 -0.15
27 0.05
28 -0.15
29 -0.15
3 -0.57
30 -0.15
31 0.46
32 -0.15
4 -0.66
49 0.15
5 -0.71
50 0.15
51 0.15
52 0.15
56 0.5
57 0.15
58 0.15
59 0.15
6 -0.23
60 0.15
61 0.27
7 0.57
8 -0.42
9 0.36

>  <PUBCHEM_EFFECTIVE_ROTOR_COUNT>  (1) 
11

>  <PUBCHEM_PHARMACOPHORE_FEATURES>  (1) 
10
1 1 acceptor
1 2 acceptor
1 25 hydrophobe
1 3 acceptor
3 1 3 16 anion
3 10 13 14 hydrophobe
3 5 6 31 cation
5 5 6 7 8 31 rings
6 17 20 21 22 23 24 rings
6 26 27 28 29 30 32 rings

>  <PUBCHEM_HEAVY_ATOM_COUNT>  (1) 
32

>  <PUBCHEM_ATOM_DEF_STEREO_COUNT>  (1) 
0

>  <PUBCHEM_ATOM_UDEF_STEREO_COUNT>  (1) 
1

>  <PUBCHEM_BOND_DEF_STEREO_COUNT>  (1) 
0

>  <PUBCHEM_BOND_UDEF_STEREO_COUNT>  (1) 
0

>  <PUBCHEM_ISOTOPIC_ATOM_COUNT>  (1) 
0

>  <PUBCHEM_COMPONENT_COUNT>  (1) 
1

>  <PUBCHEM_CACTVS_TAUTO_COUNT>  (1) 
2

>  <PUBCHEM_CONFORMER_ID>  (1) 
0000161200000001

>  <PUBCHEM_MMFF94_ENERGY>  (1) 
82.9619

>  <PUBCHEM_FEATURE_SELFOVERLAP>  (1) 
50.818

>  <PUBCHEM_SHAPE_FINGERPRINT>  (1) 
11545043 162 18187644652761803710
12107698 1 18341888563411646662
12166972 35 17967819383051461023
12422481 6 17560526109726748258
12507557 5 18199181802692228868
12596602 18 18261952947603267506
13583140 156 18268142063526178951
13782708 43 18040996207403183506
14341114 176 18343584019311816374
14950920 106 18343869905014250963
16090146 7 15338818869112489661
17349148 13 16370731426378979879
17492 89 18410011026872047226
18222031 100 16515682273130422286
18608769 82 18339080518542390778
19315092 285 17314482955392901842
21033648 29 18114453466757654084
21792934 111 18409732868459434835
23559900 14 18267011778436309418
392239 28 18341907289738524947
4144715 1 18197223537975916838
5081480 168 16413249416666654324
508706 21 18120079598879706780
5104073 3 18273223001711584203
57527293 21 18270980011091963923
6086070 43 17897703419479691854

>  <PUBCHEM_SHAPE_MULTIPOLES>  (1) 
616.03
14.53
4.59
1.63
1.85
1.06
0.36
-13.57
-4.39
5.16
-0.74
0.68
0.48
3.01

>  <PUBCHEM_SHAPE_SELFOVERLAP>  (1) 
1306.824

>  <PUBCHEM_SHAPE_VOLUME>  (1) 
345

>  <PUBCHEM_COORDINATE_TYPE>  (1) 
2
5
10

$$$$
