5662
     RDKit          3D

 19 21  0  0  1  0  0  0  0  0999 V2000
    3.2119    1.1825   -1.5756 O   0  0  0  0  0  0  0  0  0  0  0  0
    1.2293   -0.0801    0.0675 N   0  0  0  0  0  0  0  0  0  0  0  0
    2.6507   -0.0839    0.4176 C   0  0  0  0  0  0  0  0  0  0  0  0
    3.3688    1.1486   -0.1567 C   0  0  0  0  0  0  0  0  0  0  0  0
    3.2961   -1.3889   -0.0674 C   0  0  0  0  0  0  0  0  0  0  0  0
    0.5916    1.1626    0.5236 C   0  0  0  0  0  0  0  0  0  0  0  0
    0.5584   -1.2599    0.6307 C   0  0  0  0  0  0  0  0  0  0  0  0
   -1.6440   -0.0152    0.6448 C   0  0  0  0  0  0  0  0  0  0  0  0
   -0.8827    1.2096    0.1140 C   0  0  0  0  0  0  0  0  0  0  0  0
   -0.9173   -1.3027    0.2255 C   0  0  0  0  0  0  0  0  0  0  0  0
    4.8630    1.1085    0.1784 C   0  0  0  0  0  0  0  0  0  0  0  0
    4.7884   -1.4201    0.2618 C   0  0  0  0  0  0  0  0  0  0  0  0
    5.5183   -0.1947   -0.2822 C   0  0  0  0  0  0  0  0  0  0  0  0
   -3.1007   -0.0133    0.2234 C   0  0  0  0  0  0  0  0  0  0  0  0
   -4.0567    0.6009    1.0304 C   0  0  0  0  0  0  0  0  0  0  0  0
   -3.4800   -0.6252   -0.9701 C   0  0  0  0  0  0  0  0  0  0  0  0
   -5.3967    0.6030    0.6428 C   0  0  0  0  0  0  0  0  0  0  0  0
   -4.8200   -0.6229   -1.3576 C   0  0  0  0  0  0  0  0  0  0  0  0
   -5.7783   -0.0088   -0.5511 C   0  0  0  0  0  0  0  0  0  0  0  0
  1  4  1  0
  2  3  1  0
  2  6  1  0
  2  7  1  0
  3  4  1  0
  3  5  1  0
  4 11  1  0
  5 12  1  0
  6  9  1  0
  7 10  1  0
  8  9  1  0
  8 10  1  0
  8 14  1  0
 11 13  1  0
 12 13  1  0
 14 15  2  0
 14 16  1  0
 15 17  1  0
 16 18  2  0
 17 19  2  0
 18 19  1  0
M  END
>  <PUBCHEM_COMPOUND_CID>  (1) 
5662

>  <PUBCHEM_CONFORMER_RMSD>  (1) 
0.6

>  <PUBCHEM_CONFORMER_DIVERSEORDER>  (1) 
1
14
56
23
15
77
72
67
83
24
62
48
4
49
29
53
38
75
69
11
36
40
28
12
9
59
57
8
18
82
63
64
61
58
37
70
44
39
13
81
43
80
20
30
22
73
35
79
2
52
47
33
27
16
68
60
42
19
34
26
31
41
71
65
54
21
74
17
45
32
66
3
51
10
7
50
76
55
46
78
25
6
5

>  <PUBCHEM_MMFF94_PARTIAL_CHARGES>  (1) 
19
1 -0.68
14 -0.14
15 -0.15
16 -0.15
17 -0.15
18 -0.15
19 -0.15
2 -0.81
3 0.27
39 0.4
4 0.28
40 0.15
41 0.15
42 0.15
43 0.15
44 0.15
6 0.27
7 0.27
8 0.14

>  <PUBCHEM_EFFECTIVE_ROTOR_COUNT>  (1) 
4.4

>  <PUBCHEM_PHARMACOPHORE_FEATURES>  (1) 
6
1 1 acceptor
1 1 donor
1 2 cation
6 14 15 16 17 18 19 rings
6 2 6 7 8 9 10 rings
6 3 4 5 11 12 13 rings

>  <PUBCHEM_HEAVY_ATOM_COUNT>  (1) 
19

>  <PUBCHEM_ATOM_DEF_STEREO_COUNT>  (1) 
0

>  <PUBCHEM_ATOM_UDEF_STEREO_COUNT>  (1) 
2

>  <PUBCHEM_BOND_DEF_STEREO_COUNT>  (1) 
0

>  <PUBCHEM_BOND_UDEF_STEREO_COUNT>  (1) 
0

>  <PUBCHEM_ISOTOPIC_ATOM_COUNT>  (1) 
0

>  <PUBCHEM_COMPONENT_COUNT>  (1) 
1

>  <PUBCHEM_CACTVS_TAUTO_COUNT>  (1) 
1

>  <PUBCHEM_CONFORMER_ID>  (1) 
0000161E00000001

>  <PUBCHEM_MMFF94_ENERGY>  (1) 
39.8712

>  <PUBCHEM_FEATURE_SELFOVERLAP>  (1) 
30.447

>  <PUBCHEM_SHAPE_FINGERPRINT>  (1) 
10595046 47 18131911572143407657
10912923 1 17917996070232141635
11128504 68 18343299283963934267
11287383 113 17168148965842635489
11315181 36 16845573132326495099
11401426 45 18342174475094829529
11471102 20 18335420175471356618
11796584 16 15913328000860461471
12107183 9 17267237812599639923
12236239 1 18273495663351800603
12616971 3 18412547587386115323
12916748 109 16660642942634580517
13167823 11 17989485221074822279
13288520 33 17203607099626832321
13533116 47 18341331103007042402
13583140 156 16226047812187331473
13760787 5 18408606959118450249
13862211 1 18411976940608959890
14251718 22 16917067788921519257
14251752 14 18339073792512887429
14528608 73 18202281437550310824
14573314 32 16009026146777548923
15183329 4 18201718440283625767
15196674 1 18410857693548384499
15788980 27 17385443232599958259
17349148 13 18411138013315750354
17834072 33 17989485233975373009
17834072 8 18187367627735279942
17844677 252 16009036094175059933
18186145 218 17676204684350031482
19489759 90 15626225697974415363
200 152 18273213088499517355
20612939 158 18334296486992935396
20645477 56 16081084888025328139
20645477 70 18336265652626797778
21033648 29 17385991897508328613
21033650 10 17415874368814762568
21267235 1 18340776965614238922
21641784 216 17968393238243858900
220451 1 17846503633903405419
23402539 116 18059853952446608049
23402655 69 18342455949908107159
23536379 177 17632860810738560659
23557571 272 15554174678935403600
23559900 14 18338516451960763232
29717793 49 17989494009221182974
300161 21 18201715158749230961
3004659 81 18341895169488241782
34797466 226 16056601005525666753
3545911 37 18187368740110561170
4990 188 17274827956014094093
5104073 3 18410011073874140834
542803 24 18343584036042922379
59755656 215 18334298622240625374
633830 44 18186522081639238291
7164475 11 18199754635439452832
7495541 125 16917060088124142826
9971528 1 18410851083889335824

>  <PUBCHEM_SHAPE_MULTIPOLES>  (1) 
380.16
13.8
1.43
1.03
2.68
0.08
-0.24
0.05
-1.95
-1.09
0.03
0.58
-0.04
-1

>  <PUBCHEM_SHAPE_SELFOVERLAP>  (1) 
794.683

>  <PUBCHEM_SHAPE_VOLUME>  (1) 
213.4

>  <PUBCHEM_COORDINATE_TYPE>  (1) 
2
5
10

$$$$
