5663
     RDKit          3D

 29 32  0  0  0  0  0  0  0  0999 V2000
    3.1762   -2.8653    1.2076 O   0  0  0  0  0  0  0  0  0  0  0  0
   -8.6761    1.4268   -0.3661 O   0  0  0  0  0  0  0  0  0  0  0  0
    5.6539    2.0011    1.2596 O   0  0  0  0  0  0  0  0  0  0  0  0
    6.6429    1.7036   -1.3204 O   0  0  0  0  0  0  0  0  0  0  0  0
   -1.4113   -0.9897    0.1268 N   0  0  0  0  0  0  0  0  0  0  0  0
    1.4148   -1.5371    0.4427 N   0  0  0  0  0  0  0  0  0  0  0  0
   -6.8492    0.0555   -0.6074 N   0  0  0  0  0  0  0  0  0  0  0  0
   -0.4464    0.1056    0.2551 C   0  0  0  0  0  0  0  0  0  0  0  0
   -0.9101   -2.3651    0.1992 C   0  0  0  0  0  0  0  0  0  0  0  0
    0.9344   -0.3295   -0.2364 C   0  0  0  0  0  0  0  0  0  0  0  0
    0.3925   -2.4221    0.9936 C   0  0  0  0  0  0  0  0  0  0  0  0
   -2.7696   -0.7331   -0.0426 C   0  0  0  0  0  0  0  0  0  0  0  0
   -4.6885    0.7047    0.2997 C   0  0  0  0  0  0  0  0  0  0  0  0
   -3.3313    0.4267    0.4931 C   0  0  0  0  0  0  0  0  0  0  0  0
   -5.3368    1.8952    0.9455 C   0  0  0  0  0  0  0  0  0  0  0  0
    2.7625   -1.8554    0.6395 C   0  0  0  0  0  0  0  0  0  0  0  0
   -5.4781   -0.1980   -0.4239 C   0  0  0  0  0  0  0  0  0  0  0  0
   -3.5634   -1.6300   -0.7573 C   0  0  0  0  0  0  0  0  0  0  0  0
   -6.5287    2.3727    0.1295 C   0  0  0  0  0  0  0  0  0  0  0  0
   -4.9207   -1.3686   -0.9435 C   0  0  0  0  0  0  0  0  0  0  0  0
    3.7801   -0.9217    0.1295 C   0  0  0  0  0  0  0  0  0  0  0  0
   -7.4625    1.2460   -0.2673 C   0  0  0  0  0  0  0  0  0  0  0  0
    4.2427    0.1091    0.9426 C   0  0  0  0  0  0  0  0  0  0  0  0
    4.2724   -1.0743   -1.1637 C   0  0  0  0  0  0  0  0  0  0  0  0
    5.2058    0.9946    0.4585 C   0  0  0  0  0  0  0  0  0  0  0  0
    5.2352   -0.1888   -1.6476 C   0  0  0  0  0  0  0  0  0  0  0  0
    5.7021    0.8455   -0.8366 C   0  0  0  0  0  0  0  0  0  0  0  0
    4.9481    3.2391    1.2013 C   0  0  0  0  0  0  0  0  0  0  0  0
    8.0093    1.3523   -1.1111 C   0  0  0  0  0  0  0  0  0  0  0  0
  1 16  2  0
  2 22  2  0
  3 25  1  0
  3 28  1  0
  4 27  1  0
  4 29  1  0
  5  8  1  0
  5  9  1  0
  5 12  1  0
  6 10  1  0
  6 11  1  0
  6 16  1  0
  7 17  1  0
  7 22  1  0
  8 10  1  0
  9 11  1  0
 12 14  1  0
 12 18  2  0
 13 14  2  0
 13 15  1  0
 13 17  1  0
 15 19  1  0
 16 21  1  0
 17 20  2  0
 18 20  1  0
 19 22  1  0
 21 23  2  0
 21 24  1  0
 23 25  1  0
 24 26  2  0
 25 27  2  0
 26 27  1  0
M  END
>  <PUBCHEM_COMPOUND_CID>  (1) 
5663

>  <PUBCHEM_CONFORMER_RMSD>  (1) 
0.8

>  <PUBCHEM_CONFORMER_DIVERSEORDER>  (1) 
2
65
36
26
17
68
34
54
48
10
49
69
67
56
62
18
45
24
38
39
37
12
31
60
7
19
13
51
23
41
42
46
66
9
44
50
29
15
40
33
28
3
32
22
53
11
52
55
5
6
4
20
58
57
63
21
27
43
35
8
70
16
61
30
64
47
25
14
59
1

>  <PUBCHEM_MMFF94_PARTIAL_CHARGES>  (1) 
36
1 -0.57
10 0.3
11 0.3
12 0.1
13 -0.14
14 -0.15
15 0.14
16 0.54
17 0.12
18 -0.15
19 0.06
2 -0.57
20 -0.15
21 0.09
22 0.57
23 -0.15
24 -0.15
25 0.08
26 -0.15
27 0.08
28 0.28
29 0.28
3 -0.36
38 0.15
4 -0.36
41 0.15
44 0.15
45 0.37
46 0.15
47 0.15
48 0.15
5 -0.84
6 -0.66
7 -0.55
8 0.37
9 0.37

>  <PUBCHEM_EFFECTIVE_ROTOR_COUNT>  (1) 
6.8

>  <PUBCHEM_PHARMACOPHORE_FEATURES>  (1) 
10
1 1 acceptor
1 2 acceptor
1 3 acceptor
1 4 acceptor
1 5 cation
1 7 donor
6 12 13 14 17 18 20 rings
6 21 23 24 25 26 27 rings
6 5 6 8 9 10 11 rings
6 7 13 15 17 19 22 rings

>  <PUBCHEM_HEAVY_ATOM_COUNT>  (1) 
29

>  <PUBCHEM_ATOM_DEF_STEREO_COUNT>  (1) 
0

>  <PUBCHEM_ATOM_UDEF_STEREO_COUNT>  (1) 
0

>  <PUBCHEM_BOND_DEF_STEREO_COUNT>  (1) 
0

>  <PUBCHEM_BOND_UDEF_STEREO_COUNT>  (1) 
0

>  <PUBCHEM_ISOTOPIC_ATOM_COUNT>  (1) 
0

>  <PUBCHEM_COMPONENT_COUNT>  (1) 
1

>  <PUBCHEM_CACTVS_TAUTO_COUNT>  (1) 
2

>  <PUBCHEM_CONFORMER_ID>  (1) 
0000161F00000002

>  <PUBCHEM_MMFF94_ENERGY>  (1) 
116.1714

>  <PUBCHEM_FEATURE_SELFOVERLAP>  (1) 
50.777

>  <PUBCHEM_SHAPE_FINGERPRINT>  (1) 
10 15 16587745334803538493
10280341 67 18195808703668782444
10319926 262 12396569707267380943
10554248 39 18124298438312726759
10906281 52 17895202133758956878
11007060 377 18410576232358935499
11408170 253 17843688755953049681
11409948 41 16056057757974714060
11578821 258 18187644653744090741
12236239 1 18337667517563097915
13668630 136 12895066306653904749
13690498 29 17630880694094297735
13782708 43 13183013008795152397
14216079 64 9655576310144801585
14347332 77 10519994763642256131
14394314 77 18336834108982013373
14461889 52 17458354064983777011
14528608 73 18342737429417382786
14556957 393 15769510805762594489
14565420 104 17749387027397080875
14790565 3 18340485561100375491
14931854 50 18200889426355891840
15064981 194 18198921377360688009
15082195 135 17703794695640732946
15183329 4 17632583729471150393
15188451 53 8430315714468276399
15276724 80 18263078834398381173
1577012 14 18408037420532631903
15840311 113 18187088300189489759
16994733 274 17967810506235274977
20281389 69 18262233318830982729
20511986 3 18336253579589396575
21130935 74 17531249401542036491
21298829 104 18261115183518532900
21424621 283 18334858316271128827
21585482 111 18042122072654941101
22061861 79 14908177543111541239
23081809 10 18410282593739475375
23516275 100 18126552655803713848
23559900 14 17560506387991214873
23576562 1 17845358016661940229
24771293 8 18264479753919857484
312425 54 12035715501326061276
3472631 163 18343864415681822278
34797466 226 17703793626030281087
3918712 181 18337103562086747648
397830 11 16371307592036344875
3986486 107 17988380191279591940
4073 2 18040721368277435611
42767 28 18060140959509936872
4340502 62 15502375612483139026
44249763 50 17988346169872468274
5104073 3 18040429992857795515
5265222 85 17917705842893258263
53794403 172 18118971532104520236
543368 44 18334859420415236575
54583773 228 18410285918940279797
57091435 61 18339919420170999688
5718773 13 10735882755127483852
5758199 1 18259705592948546179
59682541 52 17060624382589009766
6328613 192 18411703162735752941
6712543 237 14418136214555595473
6898599 12 18129655430513951783

>  <PUBCHEM_SHAPE_MULTIPOLES>  (1) 
558.39
23.61
2.9
1.22
12.13
0.41
0.11
18.33
6.29
-1.37
-1
-1.79
0.05
-0.6

>  <PUBCHEM_SHAPE_SELFOVERLAP>  (1) 
1205.234

>  <PUBCHEM_SHAPE_VOLUME>  (1) 
306

>  <PUBCHEM_COORDINATE_TYPE>  (1) 
2
5
10

$$$$
