5665
     RDKit          3D

  9  8  0  0  1  0  0  0  0  0999 V2000
    2.4589   -1.1202   -0.0527 O   0  0  0  0  0  0  0  0  0  0  0  0
    1.9133    0.8595   -1.0276 O   0  0  0  0  0  0  0  0  0  0  0  0
   -2.3980    1.2971   -0.5037 N   0  0  0  0  0  0  0  0  0  0  0  0
   -0.2827    1.1223    0.7656 C   0  0  0  0  0  0  0  0  0  0  0  0
   -1.2538    0.4288   -0.2115 C   0  0  0  0  0  0  0  0  0  0  0  0
    0.9660    0.3164    1.1273 C   0  0  0  0  0  0  0  0  0  0  0  0
   -1.7219   -0.9048    0.3098 C   0  0  0  0  0  0  0  0  0  0  0  0
    1.8097    0.0697   -0.0981 C   0  0  0  0  0  0  0  0  0  0  0  0
   -1.4914   -2.0689   -0.3091 C   0  0  0  0  0  0  0  0  0  0  0  0
  1  8  1  0
  2  8  2  0
  3  5  1  0
  4  5  1  0
  4  6  1  0
  5  7  1  0
  6  8  1  0
  7  9  2  0
M  END
>  <PUBCHEM_COMPOUND_CID>  (1) 
5665

>  <PUBCHEM_CONFORMER_RMSD>  (1) 
0.6

>  <PUBCHEM_CONFORMER_DIVERSEORDER>  (1) 
1
22
34
32
7
20
26
21
35
16
31
10
36
2
33
17
23
29
5
6
28
14
27
9
8
24
3
4
25
19
12
11
30
15
18
13

>  <PUBCHEM_MMFF94_PARTIAL_CHARGES>  (1) 
14
1 -0.65
15 0.15
16 0.36
17 0.36
18 0.15
19 0.15
2 -0.57
20 0.5
3 -0.99
5 0.41
6 0.06
7 -0.29
8 0.66
9 -0.3

>  <PUBCHEM_EFFECTIVE_ROTOR_COUNT>  (1) 
4

>  <PUBCHEM_PHARMACOPHORE_FEATURES>  (1) 
6
1 1 acceptor
1 2 acceptor
1 3 cation
1 3 donor
1 9 hydrophobe
3 1 2 8 anion

>  <PUBCHEM_HEAVY_ATOM_COUNT>  (1) 
9

>  <PUBCHEM_ATOM_DEF_STEREO_COUNT>  (1) 
0

>  <PUBCHEM_ATOM_UDEF_STEREO_COUNT>  (1) 
1

>  <PUBCHEM_BOND_DEF_STEREO_COUNT>  (1) 
0

>  <PUBCHEM_BOND_UDEF_STEREO_COUNT>  (1) 
0

>  <PUBCHEM_ISOTOPIC_ATOM_COUNT>  (1) 
0

>  <PUBCHEM_COMPONENT_COUNT>  (1) 
1

>  <PUBCHEM_CACTVS_TAUTO_COUNT>  (1) 
1

>  <PUBCHEM_CONFORMER_ID>  (1) 
0000162100000001

>  <PUBCHEM_MMFF94_ENERGY>  (1) 
4.5807

>  <PUBCHEM_FEATURE_SELFOVERLAP>  (1) 
30.503

>  <PUBCHEM_SHAPE_FINGERPRINT>  (1) 
12716758 59 18340197514338236377
12897270 3 18045507666413698604
15310529 11 18041010560671352010
20711978 78 16413515760045805627
21040471 1 18338220566983581057
22082395 3 18270401581533251385
23235687 12 18040427811124541500
23552423 10 18260264170108432010
24536 1 18115290289157497382
29004967 10 16916794023553393464

>  <PUBCHEM_SHAPE_MULTIPOLES>  (1) 
168.5
3.32
1.72
0.95
0.65
0.59
-0.07
0.52
0.63
-0.91
0.12
0.24
-0.21
0.1

>  <PUBCHEM_SHAPE_SELFOVERLAP>  (1) 
312.625

>  <PUBCHEM_SHAPE_VOLUME>  (1) 
105.4

>  <PUBCHEM_COORDINATE_TYPE>  (1) 
2
5
10

$$$$
