5675
     RDKit          3D

 29 30  0  0  0  0  0  0  0  0999 V2000
    3.3584    0.0151    0.4504 O   0  0  0  0  0  0  0  0  0  0  0  0
   -0.7904   -2.2167    1.2458 O   0  0  0  0  0  0  0  0  0  0  0  0
   -0.5955    2.5622    1.2898 O   0  0  0  0  0  0  0  0  0  0  0  0
   -2.5356    0.2348    2.7331 O   0  0  0  0  0  0  0  0  0  0  0  0
   -6.0063    0.4265   -2.4924 O   0  0  0  0  0  0  0  0  0  0  0  0
    1.3812    1.2897    0.8700 C   0  0  0  0  0  0  0  0  0  0  0  0
    1.2897   -1.1134    0.8471 C   0  0  0  0  0  0  0  0  0  0  0  0
    2.0221    0.0670    0.7201 C   0  0  0  0  0  0  0  0  0  0  0  0
   -0.7106    0.1735    1.2717 C   0  0  0  0  0  0  0  0  0  0  0  0
   -0.0766   -1.0601    1.1228 C   0  0  0  0  0  0  0  0  0  0  0  0
    0.0217    1.3538    1.1447 C   0  0  0  0  0  0  0  0  0  0  0  0
    2.1736    2.5658    0.7329 C   0  0  0  0  0  0  0  0  0  0  0  0
    1.9697   -2.4357    0.6872 C   0  0  0  0  0  0  0  0  0  0  0  0
   -2.1396    0.2291    1.5606 C   0  0  0  0  0  0  0  0  0  0  0  0
    2.1999    3.0734   -0.6813 C   0  0  0  0  0  0  0  0  0  0  0  0
    1.9615   -2.9288   -0.7374 C   0  0  0  0  0  0  0  0  0  0  0  0
   -3.1685    0.2811    0.4819 C   0  0  0  0  0  0  0  0  0  0  0  0
    3.2728    3.2597   -1.4738 C   0  0  0  0  0  0  0  0  0  0  0  0
    1.9228   -4.2021   -1.1747 C   0  0  0  0  0  0  0  0  0  0  0  0
    4.2420   -0.0307    1.5678 C   0  0  0  0  0  0  0  0  0  0  0  0
   -2.7509    0.2762   -0.8297 C   0  0  0  0  0  0  0  0  0  0  0  0
   -4.4971    0.3322    0.8390 C   0  0  0  0  0  0  0  0  0  0  0  0
    3.2304    3.7726   -2.8852 C   0  0  0  0  0  0  0  0  0  0  0  0
    4.6574    2.9589   -0.9643 C   0  0  0  0  0  0  0  0  0  0  0  0
    1.8915   -5.3438   -0.1936 C   0  0  0  0  0  0  0  0  0  0  0  0
    1.9170   -4.6245   -2.6166 C   0  0  0  0  0  0  0  0  0  0  0  0
   -3.7132    0.3253   -1.8382 C   0  0  0  0  0  0  0  0  0  0  0  0
   -5.4596    0.3811   -0.1695 C   0  0  0  0  0  0  0  0  0  0  0  0
   -5.0676    0.3776   -1.5083 C   0  0  0  0  0  0  0  0  0  0  0  0
  1  8  1  0
  1 20  1  0
  2 10  1  0
  3 11  1  0
  4 14  2  0
  5 29  1  0
  6  8  2  0
  6 11  1  0
  6 12  1  0
  7  8  1  0
  7 10  2  0
  7 13  1  0
  9 10  1  0
  9 11  2  0
  9 14  1  0
 12 15  1  0
 13 16  1  0
 14 17  1  0
 15 18  2  3
 16 19  2  3
 17 21  2  0
 17 22  1  0
 18 23  1  0
 18 24  1  0
 19 25  1  0
 19 26  1  0
 21 27  1  0
 22 28  2  0
 27 29  2  0
 28 29  1  0
M  END
>  <PUBCHEM_COMPOUND_CID>  (1) 
5675

>  <PUBCHEM_CONFORMER_RMSD>  (1) 
0.8

>  <PUBCHEM_CONFORMER_DIVERSEORDER>  (1) 
1
147
105
73
162
124
175
159
137
40
16
180
181
101
139
68
21
49
121
61
134
82
188
18
148
106
120
128
151
85
179
142
186
169
184
116
160
154
88
176
90
60
50
76
43
13
41
192
143
95
91
89
77
127
130
136
59
146
58
26
110
172
161
5
64
80
92
185
114
182
44
168
171
122
129
178
113
65
3
177
30
112
93
62
131
152
173
94
75
150
25
56
42
190
57
34
14
125
193
51
98
17
187
74
174
109
111
86
31
119
158
96
84
104
23
67
133
38
35
100
36
6
166
155
79
47
54
189
135
163
164
126
7
66
72
123
53
83
39
19
27
140
70
132
8
52
87
81
32
167
153
55
138
115
157
103
12
71
102
97
183
144
108
78
28
4
46
191
10
33
156
45
117
107
37
118
48
63
69
24
15
170
2
22
9
20
149
141
29
11
99
165
145

>  <PUBCHEM_MMFF94_PARTIAL_CHARGES>  (1) 
38
1 -0.36
10 0.08
11 0.08
12 0.28
13 0.28
14 0.4
15 -0.29
16 -0.29
17 0.09
18 -0.28
19 -0.28
2 -0.53
20 0.28
21 -0.15
22 -0.15
23 0.14
24 0.14
25 0.14
26 0.14
27 -0.15
28 -0.15
29 0.08
3 -0.53
34 0.15
35 0.15
36 0.45
37 0.45
4 -0.57
41 0.15
42 0.15
5 -0.53
55 0.15
56 0.15
57 0.45
6 -0.14
7 -0.14
8 0.08
9 0.09

>  <PUBCHEM_EFFECTIVE_ROTOR_COUNT>  (1) 
7

>  <PUBCHEM_PHARMACOPHORE_FEATURES>  (1) 
9
1 1 acceptor
1 2 donor
1 3 donor
1 4 acceptor
1 5 donor
3 18 23 24 hydrophobe
3 19 25 26 hydrophobe
6 17 21 22 27 28 29 rings
6 6 7 8 9 10 11 rings

>  <PUBCHEM_HEAVY_ATOM_COUNT>  (1) 
29

>  <PUBCHEM_ATOM_DEF_STEREO_COUNT>  (1) 
0

>  <PUBCHEM_ATOM_UDEF_STEREO_COUNT>  (1) 
0

>  <PUBCHEM_BOND_DEF_STEREO_COUNT>  (1) 
0

>  <PUBCHEM_BOND_UDEF_STEREO_COUNT>  (1) 
0

>  <PUBCHEM_ISOTOPIC_ATOM_COUNT>  (1) 
0

>  <PUBCHEM_COMPONENT_COUNT>  (1) 
1

>  <PUBCHEM_CACTVS_TAUTO_COUNT>  (1) 
26

>  <PUBCHEM_CONFORMER_ID>  (1) 
0000162B00000001

>  <PUBCHEM_MMFF94_ENERGY>  (1) 
94.5875

>  <PUBCHEM_FEATURE_SELFOVERLAP>  (1) 
45.671

>  <PUBCHEM_SHAPE_FINGERPRINT>  (1) 
10794284 68 12958324663353274010
11069576 57 18130211662911487023
11477941 20 17403774071995930606
11796584 16 15051742962678673661
12160290 23 17546735214900549370
13383661 66 16981256376093612575
13583140 156 17167582713064905528
13899415 180 17906447732102593434
13911987 19 18339366382427376568
140371 6 18337114471202426952
14114206 34 17250076630802890538
14739800 52 14635742789380045646
14863182 85 18201428182378304706
1813 80 17912649008016871183
20505436 4 16984949395090146665
20775438 99 17112084618776569844
21033648 29 14274552086210881629
21344244 181 17698753589303849774
22907989 373 17542229402980100301
23559900 14 18410569591589981090
24893989 43 16172204547260675436
25222932 49 16125518420688680783
26353 1 17977391533983116430
2838139 119 17241599713917150477
3057174 1 18267033914966980166
34797466 226 18114169832187431781
352729 6 18339651147633548514
4017518 198 18201440316484284134
4394409 98 18120405209730999550
44802255 64 17245299605816510980
46194498 28 18261097548978557293
5080951 261 17053595432697361564
5081480 168 17970077642992059349
5223283 242 17830158118673935133
59554788 191 18336819918145777954
59554788 248 18193292985891387514

>  <PUBCHEM_SHAPE_MULTIPOLES>  (1) 
567.46
9.59
5.92
2.5
13.13
7.31
-1.17
-5.6
-4.94
-10.75
-4.62
0.42
-0.41
-0.73

>  <PUBCHEM_SHAPE_SELFOVERLAP>  (1) 
1201.073

>  <PUBCHEM_SHAPE_VOLUME>  (1) 
320.5

>  <PUBCHEM_COORDINATE_TYPE>  (1) 
2
5
10

$$$$
