568
     RDKit          3D

 13 15  0  0  0  0  0  0  0  0999 V2000
    0.0001   -1.6238    0.0003 O   0  0  0  0  0  0  0  0  0  0  0  0
    0.7128    0.5224    0.0001 C   0  0  0  0  0  0  0  0  0  0  0  0
   -0.7128    0.5225    0.0002 C   0  0  0  0  0  0  0  0  0  0  0  0
    1.0961   -0.8151    0.0001 C   0  0  0  0  0  0  0  0  0  0  0  0
   -1.0961   -0.8151    0.0002 C   0  0  0  0  0  0  0  0  0  0  0  0
    1.7187    1.5064    0.0003 C   0  0  0  0  0  0  0  0  0  0  0  0
   -1.7187    1.5065    0.0001 C   0  0  0  0  0  0  0  0  0  0  0  0
    2.4208   -1.2488    0.0000 C   0  0  0  0  0  0  0  0  0  0  0  0
   -2.4208   -1.2489   -0.0001 C   0  0  0  0  0  0  0  0  0  0  0  0
    3.0601    1.1005    0.0000 C   0  0  0  0  0  0  0  0  0  0  0  0
   -3.0601    1.1005   -0.0003 C   0  0  0  0  0  0  0  0  0  0  0  0
    3.4022   -0.2535   -0.0007 C   0  0  0  0  0  0  0  0  0  0  0  0
   -3.4023   -0.2536   -0.0003 C   0  0  0  0  0  0  0  0  0  0  0  0
  1  4  1  0
  1  5  1  0
  2  3  1  0
  2  4  2  0
  2  6  1  0
  3  5  2  0
  3  7  1  0
  4  8  1  0
  5  9  1  0
  6 10  2  0
  7 11  2  0
  8 12  2  0
  9 13  2  0
 10 12  1  0
 11 13  1  0
M  END
>  <PUBCHEM_COMPOUND_CID>  (1) 
568

>  <PUBCHEM_CONFORMER_RMSD>  (1) 
0.4

>  <PUBCHEM_CONFORMER_DIVERSEORDER>  (1) 
1

>  <PUBCHEM_MMFF94_PARTIAL_CHARGES>  (1) 
19
1 -0.28
10 -0.15
11 -0.15
12 -0.15
13 -0.15
14 0.15
15 0.15
16 0.15
17 0.15
18 0.15
19 0.15
20 0.15
21 0.15
4 0.14
5 0.14
6 -0.15
7 -0.15
8 -0.15
9 -0.15

>  <PUBCHEM_EFFECTIVE_ROTOR_COUNT>  (1) 
0

>  <PUBCHEM_PHARMACOPHORE_FEATURES>  (1) 
4
1 1 acceptor
5 1 2 3 4 5 rings
6 2 4 6 8 10 12 rings
6 3 5 7 9 11 13 rings

>  <PUBCHEM_HEAVY_ATOM_COUNT>  (1) 
13

>  <PUBCHEM_ATOM_DEF_STEREO_COUNT>  (1) 
0

>  <PUBCHEM_ATOM_UDEF_STEREO_COUNT>  (1) 
0

>  <PUBCHEM_BOND_DEF_STEREO_COUNT>  (1) 
0

>  <PUBCHEM_BOND_UDEF_STEREO_COUNT>  (1) 
0

>  <PUBCHEM_ISOTOPIC_ATOM_COUNT>  (1) 
0

>  <PUBCHEM_COMPONENT_COUNT>  (1) 
1

>  <PUBCHEM_CACTVS_TAUTO_COUNT>  (1) 
1

>  <PUBCHEM_CONFORMER_ID>  (1) 
0000023800000001

>  <PUBCHEM_MMFF94_ENERGY>  (1) 
27.4531

>  <PUBCHEM_FEATURE_SELFOVERLAP>  (1) 
20.499

>  <PUBCHEM_SHAPE_FINGERPRINT>  (1) 
10608611 8 18410570686617042016
10967382 1 18410575076083732807
11132069 177 18411975866814186912
11471102 20 18411413999197688549
12032990 46 18410581686028033731
12491281 212 18339936925835127937
13380535 76 18410854364911865091
14144814 61 18410292501642880288
14325111 11 18410855468723566016
15219456 202 18411702084092105325
15442244 35 18194964037306644106
15536298 74 18343301466313657826
15775835 57 18410580586516418949
16945 1 18410573985151561575
17844478 74 18187374237547387297
18186145 218 18342462499764992580
193761 8 17257653318226783174
19973954 147 18410857659151605729
200 152 18131338722802065749
20201158 50 18412544292819294471
20510252 161 18272373078938483097
20871998 184 18129386054433720439
21267235 1 18410583880756464903
21501502 16 18410855464423129095
2334 1 18410574015226791205
23402539 116 18343290483528446365
23402655 69 18269824351457149413
23463225 33 18335700516376201978
23552423 10 18333732450380840695
23559900 14 18271244920691167262
2748010 2 18410575088963347117
5104073 3 18410575088958053721
528886 8 18411131428999003648
53812653 166 18343015614549274384
57096353 35 18339079422702998269
63268167 104 18411422778100383104
6333449 129 18411416215685623797
69090 78 18343295972897726519
7364860 26 18270117903481125214
8809292 202 18260835916160280387

>  <PUBCHEM_SHAPE_MULTIPOLES>  (1) 
261.66
5.56
1.71
0.61
0
0.05
0
0.43
0
0
0
0
0.01
0

>  <PUBCHEM_SHAPE_SELFOVERLAP>  (1) 
596.375

>  <PUBCHEM_SHAPE_VOLUME>  (1) 
138.7

>  <PUBCHEM_COORDINATE_TYPE>  (1) 
2
5
10

$$$$
