5680
     RDKit          3D

 20 21  0  0  0  0  0  0  0  0999 V2000
    5.2337   -0.7325    1.3557 Cl  0  0  0  0  0  0  0  0  0  0  0  0
   -0.8436    0.8197   -1.3239 S   0  0  0  0  0  0  0  0  0  0  0  0
   -1.5354    2.0975   -1.2821 O   0  0  0  0  0  0  0  0  0  0  0  0
   -0.5180    0.2165   -2.6054 O   0  0  0  0  0  0  0  0  0  0  0  0
   -1.7113   -0.3109   -0.3849 N   0  0  0  0  0  0  0  0  0  0  0  0
   -6.9387   -0.5723    0.0895 N   0  0  0  0  0  0  0  0  0  0  0  0
   -3.3330   -0.7032    1.4224 C   0  0  0  0  0  0  0  0  0  0  0  0
   -2.0369   -0.0086    1.0162 C   0  0  0  0  0  0  0  0  0  0  0  0
    0.6565    0.9730   -0.4211 C   0  0  0  0  0  0  0  0  0  0  0  0
   -4.5244   -0.2751    0.5563 C   0  0  0  0  0  0  0  0  0  0  0  0
    1.6110   -0.0547   -0.3499 C   0  0  0  0  0  0  0  0  0  0  0  0
    2.7944    0.1504    0.3986 C   0  0  0  0  0  0  0  0  0  0  0  0
   -5.8185   -1.0093    0.9138 C   0  0  0  0  0  0  0  0  0  0  0  0
    0.8656    2.1855    0.2366 C   0  0  0  0  0  0  0  0  0  0  0  0
    1.4168   -1.2815   -1.0056 C   0  0  0  0  0  0  0  0  0  0  0  0
    2.9885    1.3774    1.0539 C   0  0  0  0  0  0  0  0  0  0  0  0
    2.0295    2.3873    0.9726 C   0  0  0  0  0  0  0  0  0  0  0  0
    3.7489   -0.8774    0.4694 C   0  0  0  0  0  0  0  0  0  0  0  0
    2.3757   -2.2917   -0.9242 C   0  0  0  0  0  0  0  0  0  0  0  0
    3.5394   -2.0901   -0.1879 C   0  0  0  0  0  0  0  0  0  0  0  0
  1 18  1  0
  2  3  2  0
  2  4  2  0
  2  5  1  0
  2  9  1  0
  5  8  1  0
  6 13  1  0
  7  8  1  0
  7 10  1  0
  9 11  2  0
  9 14  1  0
 10 13  1  0
 11 12  1  0
 11 15  1  0
 12 16  2  0
 12 18  1  0
 14 17  2  0
 15 19  2  0
 16 17  1  0
 18 20  2  0
 19 20  1  0
M  END
>  <PUBCHEM_COMPOUND_CID>  (1) 
5680

>  <PUBCHEM_CONFORMER_RMSD>  (1) 
0.8

>  <PUBCHEM_CONFORMER_DIVERSEORDER>  (1) 
1
28
33
20
38
16
7
35
36
27
34
26
44
14
46
19
9
43
40
4
30
32
49
48
3
39
17
37
8
13
29
47
22
21
5
25
11
2
18
42
15
10
6
45
23
12
24
41
31

>  <PUBCHEM_MMFF94_PARTIAL_CHARGES>  (1) 
25
1 -0.18
13 0.27
14 -0.15
15 -0.15
16 -0.15
17 -0.15
18 0.18
19 -0.15
2 1.45
20 -0.15
27 0.42
3 -0.65
30 0.15
31 0.15
32 0.15
33 0.15
34 0.15
35 0.15
36 0.36
37 0.36
4 -0.65
5 -0.91
6 -0.99
8 0.36
9 -0.01

>  <PUBCHEM_EFFECTIVE_ROTOR_COUNT>  (1) 
6

>  <PUBCHEM_PHARMACOPHORE_FEATURES>  (1) 
7
1 3 acceptor
1 4 acceptor
1 5 donor
1 6 cation
1 6 donor
6 11 12 15 18 19 20 rings
6 9 11 12 14 16 17 rings

>  <PUBCHEM_HEAVY_ATOM_COUNT>  (1) 
20

>  <PUBCHEM_ATOM_DEF_STEREO_COUNT>  (1) 
0

>  <PUBCHEM_ATOM_UDEF_STEREO_COUNT>  (1) 
0

>  <PUBCHEM_BOND_DEF_STEREO_COUNT>  (1) 
0

>  <PUBCHEM_BOND_UDEF_STEREO_COUNT>  (1) 
0

>  <PUBCHEM_ISOTOPIC_ATOM_COUNT>  (1) 
0

>  <PUBCHEM_COMPONENT_COUNT>  (1) 
1

>  <PUBCHEM_CACTVS_TAUTO_COUNT>  (1) 
1

>  <PUBCHEM_CONFORMER_ID>  (1) 
0000163000000001

>  <PUBCHEM_MMFF94_ENERGY>  (1) 
31.7048

>  <PUBCHEM_FEATURE_SELFOVERLAP>  (1) 
35.565

>  <PUBCHEM_SHAPE_FINGERPRINT>  (1) 
10366900 7 18339941384100618107
12251169 10 18059858367562218542
12293681 4 18122616163514941129
12596602 18 16845291635595918875
12617007 42 17240492441593894805
12633257 1 18412541041713986370
12788726 201 14490460960006983389
12892183 10 17560243509436957739
13140716 1 18128521851569145218
13533116 47 18271813436574012355
14251739 40 18201446882803178363
14251764 30 17343527521762369526
14341114 328 17203334450639337531
14790565 3 17471579196943489676
14955137 171 18060707199904061456
15422964 175 18269278958928918654
15527383 91 18411982481053169240
15664445 248 16370731447553117044
15885798 251 17967818254076344677
16752209 62 16226042276301547065
16945 1 18129643237523277916
1813 80 17313109657033120997
20600515 1 16806162319060864037
20715895 44 17127916560515991257
22224240 67 18130499821221326370
23557571 272 16950275217866449604
23559900 14 17749400316352304821
23622692 88 17775286075127861215
2748010 2 17627213569575363940
3004659 81 14634584982287332531
3009799 131 10809343348168380362
31174 14 18412544318747327784
3286 77 18409735044978978417
4325135 7 17603309276191143436
4340502 62 17703792552431239091
7808743 9 13182729355711146250
8272917 22 18272658990589919409
8988823 20 18272089426861408089
9971528 1 18041283266084635933

>  <PUBCHEM_SHAPE_MULTIPOLES>  (1) 
395.61
10.97
2.26
1.6
18.38
0.54
0.6
-5.62
-5.64
-2.11
0.15
0.23
0.1
1.16

>  <PUBCHEM_SHAPE_SELFOVERLAP>  (1) 
808.313

>  <PUBCHEM_SHAPE_VOLUME>  (1) 
229.5

>  <PUBCHEM_COORDINATE_TYPE>  (1) 
2
5
10

$$$$
