5684
     RDKit          2D

 31 34  0  0  0  0  0  0  0  0999 V2000
    0.0000    0.0000    0.0000 O   0  0  0  0  0  0  0  0  0  0  0  0
    0.0000    0.0000    0.0000 O   0  0  0  0  0  0  0  0  0  0  0  0
    0.0000    0.0000    0.0000 N   0  0  0  0  0  0  0  0  0  0  0  0
    0.0000    0.0000    0.0000 N   0  0  0  0  0  0  0  0  0  0  0  0
    0.0000    0.0000    0.0000 N   0  0  0  0  0  0  0  0  0  0  0  0
    0.0000    0.0000    0.0000 N   0  0  0  0  0  0  0  0  0  0  0  0
    0.0000    0.0000    0.0000 C   0  0  0  0  0  0  0  0  0  0  0  0
    0.0000    0.0000    0.0000 C   0  0  0  0  0  0  0  0  0  0  0  0
    0.0000    0.0000    0.0000 C   0  0  0  0  0  0  0  0  0  0  0  0
    0.0000    0.0000    0.0000 C   0  0  0  0  0  0  0  0  0  0  0  0
    0.0000    0.0000    0.0000 C   0  0  0  0  0  0  0  0  0  0  0  0
    0.0000    0.0000    0.0000 C   0  0  0  0  0  0  0  0  0  0  0  0
    0.0000    0.0000    0.0000 C   0  0  0  0  0  0  0  0  0  0  0  0
    0.0000    0.0000    0.0000 C   0  0  0  0  0  0  0  0  0  0  0  0
    0.0000    0.0000    0.0000 C   0  0  0  0  0  0  0  0  0  0  0  0
    0.0000    0.0000    0.0000 C   0  0  0  0  0  0  0  0  0  0  0  0
    0.0000    0.0000    0.0000 C   0  0  0  0  0  0  0  0  0  0  0  0
    0.0000    0.0000    0.0000 C   0  0  0  0  0  0  0  0  0  0  0  0
    0.0000    0.0000    0.0000 C   0  0  0  0  0  0  0  0  0  0  0  0
    0.0000    0.0000    0.0000 C   0  0  0  0  0  0  0  0  0  0  0  0
    0.0000    0.0000    0.0000 C   0  0  0  0  0  0  0  0  0  0  0  0
    0.0000    0.0000    0.0000 C   0  0  0  0  0  0  0  0  0  0  0  0
    0.0000    0.0000    0.0000 C   0  0  0  0  0  0  0  0  0  0  0  0
    0.0000    0.0000    0.0000 C   0  0  0  0  0  0  0  0  0  0  0  0
    0.0000    0.0000    0.0000 C   0  0  0  0  0  0  0  0  0  0  0  0
    0.0000    0.0000    0.0000 C   0  0  0  0  0  0  0  0  0  0  0  0
    0.0000    0.0000    0.0000 C   0  0  0  0  0  0  0  0  0  0  0  0
    0.0000    0.0000    0.0000 C   0  0  0  0  0  0  0  0  0  0  0  0
    0.0000    0.0000    0.0000 C   0  0  0  0  0  0  0  0  0  0  0  0
    0.0000    0.0000    0.0000 C   0  0  0  0  0  0  0  0  0  0  0  0
    0.0000    0.0000    0.0000 C   0  0  0  0  0  0  0  0  0  0  0  0
  1 13  2  0
  2 22  1  0
  2 31  1  0
  3 14  1  0
  3 15  1  0
  3 16  1  0
  4 13  1  0
  4 17  1  0
  4 21  1  0
  5 18  1  0
  5 19  1  0
  5 20  1  0
  6 21  2  0
  6 29  1  0
  7  8  1  0
  7  9  1  0
  7 13  1  0
  8 10  1  0
  9 11  1  0
 10 12  1  0
 11 12  1  0
 14 17  1  0
 15 18  1  0
 16 19  1  0
 20 22  2  0
 20 23  1  0
 21 24  1  0
 22 25  1  0
 23 26  2  0
 24 27  2  0
 25 28  2  0
 26 28  1  0
 27 30  1  0
 29 30  2  0
M  END
>  <PUBCHEM_COMPOUND_CID>  (1) 
5684

>  <PUBCHEM_CONFORMER_RMSD>  (1) 
1

>  <PUBCHEM_CONFORMER_DIVERSEORDER>  (1) 
17
130
157
184
57
191
302
23
291
256
227
304
18
147
44
309
160
264
208
194
172
292
115
63
32
251
21
54
131
36
67
16
178
56
268
96
270
25
124
50
11
240
276
261
186
311
88
196
144
101
110
152
53
107
173
238
74
236
213
48
153
175
174
62
254
150
170
225
59
298
109
93
280
187
55
118
301
52
237
247
132
46
70
297
167
177
78
273
217
192
286
253
246
235
95
19
245
47
129
140
231
307
207
80
299
119
163
143
29
136
117
89
296
279
209
277
133
228
218
162
269
185
259
156
303
205
4
210
171
212
220
266
257
28
38
60
306
281
65
199
9
120
241
82
148
294
189
176
102
15
7
43
81
158
200
155
169
94
125
239
49
202
35
229
99
75
108
24
14
105
195
135
106
168
188
45
41
77
123
122
72
179
288
5
265
271
1
37
159
181
182
2
97
98
151
258
278
214
287
164
85
6
183
211
20
263
66
71
126
193
146
204
91
300
289
40
114
293
69
198
22
139
137
255
203
100
145
86
103
58
219
90
13
111
84
34
290
272
234
92
51
216
61
128
215
308
305
260
244
87
201
248
112
31
142
275
233
282
284
141
267
76
224
252
165
221
295
262
33
30
161
197
249
26
116
12
149
27
242
310
127
68
39
232
79
154
10
250
64
226
243
206
3
222
283
274
138
104
166
42
8
73
230
285
134
190
121
83
113
180
223

>  <PUBCHEM_MMFF94_PARTIAL_CHARGES>  (1) 
34
1 -0.57
13 0.57
14 0.27
15 0.27
16 0.27
17 0.3
18 0.37
19 0.37
2 -0.36
20 0.1
21 0.43
22 0.08
23 -0.15
24 -0.15
25 -0.15
26 -0.15
27 -0.15
28 -0.15
29 0.16
3 -0.81
30 -0.15
31 0.28
4 -0.48
5 -0.84
55 0.15
56 0.15
57 0.15
58 0.15
59 0.15
6 -0.62
60 0.15
61 0.15
62 0.15
7 0.06

>  <PUBCHEM_EFFECTIVE_ROTOR_COUNT>  (1) 
10.4

>  <PUBCHEM_PHARMACOPHORE_FEATURES>  (1) 
9
1 1 acceptor
1 2 acceptor
1 3 cation
1 5 cation
1 6 acceptor
6 20 22 23 25 26 28 rings
6 3 5 15 16 18 19 rings
6 6 21 24 27 29 30 rings
6 7 8 9 10 11 12 rings

>  <PUBCHEM_HEAVY_ATOM_COUNT>  (1) 
31

>  <PUBCHEM_ATOM_DEF_STEREO_COUNT>  (1) 
0

>  <PUBCHEM_ATOM_UDEF_STEREO_COUNT>  (1) 
0

>  <PUBCHEM_BOND_DEF_STEREO_COUNT>  (1) 
0

>  <PUBCHEM_BOND_UDEF_STEREO_COUNT>  (1) 
0

>  <PUBCHEM_ISOTOPIC_ATOM_COUNT>  (1) 
0

>  <PUBCHEM_COMPONENT_COUNT>  (1) 
1

>  <PUBCHEM_CACTVS_TAUTO_COUNT>  (1) 
1

$$$$
