5697
     RDKit          3D

 31 33  0  0  0  0  0  0  0  0999 V2000
   -6.4992    0.6884   -0.0402 O   0  0  0  0  0  0  0  0  0  0  0  0
   -3.6021   -2.9860   -0.4302 O   0  0  0  0  0  0  0  0  0  0  0  0
    4.6811    1.0771   -0.7619 O   0  0  0  0  0  0  0  0  0  0  0  0
    7.1630    1.2086    0.2897 O   0  0  0  0  0  0  0  0  0  0  0  0
   -4.2126    1.0993   -0.1702 N   0  0  0  0  0  0  0  0  0  0  0  0
   -5.0770   -1.1624   -0.2353 N   0  0  0  0  0  0  0  0  0  0  0  0
   -1.4020   -0.9698   -0.4675 N   0  0  0  0  0  0  0  0  0  0  0  0
   -1.7597    1.2261   -0.3255 N   0  0  0  0  0  0  0  0  0  0  0  0
    7.6715   -0.9662   -0.3599 N   0  0  0  0  0  0  0  0  0  0  0  0
   10.4099   -1.5418    2.0975 N   0  0  0  0  0  0  0  0  0  0  0  0
   -2.9457    0.5434   -0.2836 C   0  0  0  0  0  0  0  0  0  0  0  0
   -2.7543   -0.8086   -0.3689 C   0  0  0  0  0  0  0  0  0  0  0  0
   -4.3661    2.5461   -0.0824 C   0  0  0  0  0  0  0  0  0  0  0  0
   -5.3474    0.2506   -0.1407 C   0  0  0  0  0  0  0  0  0  0  0  0
   -6.2325   -2.0527   -0.2081 C   0  0  0  0  0  0  0  0  0  0  0  0
   -3.8021   -1.7773   -0.3523 C   0  0  0  0  0  0  0  0  0  0  0  0
   -4.3345    3.0470    1.3565 C   0  0  0  0  0  0  0  0  0  0  0  0
   -0.8467    0.2833   -0.4369 C   0  0  0  0  0  0  0  0  0  0  0  0
   -6.6002   -2.4834    1.2068 C   0  0  0  0  0  0  0  0  0  0  0  0
    0.5795    0.4886   -0.5214 C   0  0  0  0  0  0  0  0  0  0  0  0
   -4.5160    4.5547    1.4586 C   0  0  0  0  0  0  0  0  0  0  0  0
   -7.7916   -3.4301    1.2427 C   0  0  0  0  0  0  0  0  0  0  0  0
    1.1640    1.5896    0.1045 C   0  0  0  0  0  0  0  0  0  0  0  0
    1.3734   -0.4148   -1.2279 C   0  0  0  0  0  0  0  0  0  0  0  0
    2.5424    1.7873    0.0237 C   0  0  0  0  0  0  0  0  0  0  0  0
    2.7517   -0.2172   -1.3088 C   0  0  0  0  0  0  0  0  0  0  0  0
    3.3362    0.8839   -0.6829 C   0  0  0  0  0  0  0  0  0  0  0  0
    5.4987   -0.0865   -0.8778 C   0  0  0  0  0  0  0  0  0  0  0  0
    6.8549    0.1481   -0.2473 C   0  0  0  0  0  0  0  0  0  0  0  0
    9.0201   -1.0114    0.1568 C   0  0  0  0  0  0  0  0  0  0  0  0
    9.0431   -1.5136    1.5930 C   0  0  0  0  0  0  0  0  0  0  0  0
  1 14  2  0
  2 16  2  0
  3 27  1  0
  3 28  1  0
  4 29  2  0
  5 11  1  0
  5 13  1  0
  5 14  1  0
  6 14  1  0
  6 15  1  0
  6 16  1  0
  7 12  1  0
  7 18  1  0
  8 11  1  0
  8 18  2  0
  9 29  1  0
  9 30  1  0
 10 31  1  0
 11 12  2  0
 12 16  1  0
 13 17  1  0
 15 19  1  0
 17 21  1  0
 18 20  1  0
 19 22  1  0
 20 23  2  0
 20 24  1  0
 23 25  1  0
 24 26  2  0
 25 27  2  0
 26 27  1  0
 28 29  1  0
 30 31  1  0
M  END
>  <PUBCHEM_COMPOUND_CID>  (1) 
5697

>  <PUBCHEM_CONFORMER_RMSD>  (1) 
1

>  <PUBCHEM_CONFORMER_DIVERSEORDER>  (1) 
1
2
41
49
37
4
57
47
20
55
25
36
18
48
43
46
30
24
60
5
13
70
28
50
68
56
64
45
16
35
33
38
11
52
23
10
44
26
6
27
34
62
8
39
42
65
21
66
71
15
54
22
14
29
32
63
69
7
67
61
9
51
59
12
40
58
19
53
3
17
31

>  <PUBCHEM_MMFF94_PARTIAL_CHARGES>  (1) 
35
1 -0.57
10 -0.99
11 0.29
12 -0.24
13 0.3
14 0.69
15 0.3
16 0.71
18 0.13
2 -0.57
20 0.05
23 -0.15
24 -0.15
25 -0.15
26 -0.15
27 0.08
28 0.34
29 0.57
3 -0.36
30 0.3
31 0.27
36 0.27
4 -0.57
47 0.15
48 0.15
49 0.15
5 -0.42
50 0.15
55 0.37
58 0.36
59 0.36
6 -0.42
7 0.03
8 -0.57
9 -0.73

>  <PUBCHEM_EFFECTIVE_ROTOR_COUNT>  (1) 
11

>  <PUBCHEM_PHARMACOPHORE_FEATURES>  (1) 
14
1 1 acceptor
1 10 cation
1 10 donor
1 2 acceptor
1 21 hydrophobe
1 22 hydrophobe
1 3 acceptor
1 4 acceptor
1 7 donor
1 9 donor
3 7 8 18 cation
5 7 8 11 12 18 rings
6 20 23 24 25 26 27 rings
6 5 6 11 12 14 16 rings

>  <PUBCHEM_HEAVY_ATOM_COUNT>  (1) 
31

>  <PUBCHEM_ATOM_DEF_STEREO_COUNT>  (1) 
0

>  <PUBCHEM_ATOM_UDEF_STEREO_COUNT>  (1) 
0

>  <PUBCHEM_BOND_DEF_STEREO_COUNT>  (1) 
0

>  <PUBCHEM_BOND_UDEF_STEREO_COUNT>  (1) 
0

>  <PUBCHEM_ISOTOPIC_ATOM_COUNT>  (1) 
0

>  <PUBCHEM_COMPONENT_COUNT>  (1) 
1

>  <PUBCHEM_CACTVS_TAUTO_COUNT>  (1) 
6

>  <PUBCHEM_CONFORMER_ID>  (1) 
0000164100000001

>  <PUBCHEM_MMFF94_ENERGY>  (1) 
47.7827

>  <PUBCHEM_FEATURE_SELFOVERLAP>  (1) 
71.167

>  <PUBCHEM_SHAPE_FINGERPRINT>  (1) 
10 15 17846495972414920700
100830 39 18341051835063669253
10299344 5 18113336402183809542
10319926 262 18271796938960998296
10411042 1 18126286579269760255
11315181 36 18408046221052548821
11524674 6 15140967270400197281
11719270 70 18131073736553334878
11991303 11 13840278008953965328
12107183 9 17906456528479724971
12236239 1 17822295729476229589
12539765 74 11527953374716529420
13073987 5 18341900662139431990
13383668 254 14908178638396579395
13885169 127 18342177748192484828
15021287 119 17530975669552720260
15183329 4 16081366354733701608
19841028 212 18190458256891805962
2026 5 17749100072722900690
21130935 74 18411140195866323458
21267235 1 18336835294080795951
21315759 40 17894355487940265212
22224240 67 15913606173476631686
23081809 10 18041008353823462748
23522609 53 17970659375064813404
23559900 14 18271521026494962865
23569917 315 17676775361087801946
23569943 247 17386554749225940546
23576562 1 12685389520383301770
23845131 108 17908728142017569713
249057 25 18114758099823894972
25025965 108 18270110353103712191
3383291 50 18335986462304196218
4073 2 18261680367535273606
44389302 135 18116420451250128074
5104073 3 18201168645836241459

>  <PUBCHEM_SHAPE_MULTIPOLES>  (1) 
584.6
28.25
3.69
1.26
63.79
1.82
0.53
-18.71
13.97
-10.19
2.17
1.37
-0.18
-1.83

>  <PUBCHEM_SHAPE_SELFOVERLAP>  (1) 
1229.32

>  <PUBCHEM_SHAPE_VOLUME>  (1) 
329.4

>  <PUBCHEM_COORDINATE_TYPE>  (1) 
2
5
10

$$$$
