570
     RDKit          3D

 16 16  0  0  0  0  0  0  0  0999 V2000
   -1.2044    2.1542   -0.0001 O   0  0  0  0  0  0  0  0  0  0  0  0
    3.8511    1.4497   -0.0016 O   0  0  0  0  0  0  0  0  0  0  0  0
    5.9233   -0.0766    0.0065 O   0  0  0  0  0  0  0  0  0  0  0  0
    4.6025   -1.9397    0.0047 O   0  0  0  0  0  0  0  0  0  0  0  0
   -2.6429    0.1970   -0.0040 C   0  0  0  0  0  0  0  0  0  0  0  0
   -1.2858    0.7743   -0.0108 C   0  0  0  0  0  0  0  0  0  0  0  0
   -3.2639   -0.0594    1.2071 C   0  0  0  0  0  0  0  0  0  0  0  0
   -3.2688   -0.0763   -1.2088 C   0  0  0  0  0  0  0  0  0  0  0  0
   -4.5476   -0.6049    1.2136 C   0  0  0  0  0  0  0  0  0  0  0  0
   -4.5526   -0.6217   -1.2023 C   0  0  0  0  0  0  0  0  0  0  0  0
   -0.1887   -0.0031   -0.0072 C   0  0  0  0  0  0  0  0  0  0  0  0
   -5.1919   -0.8860    0.0089 C   0  0  0  0  0  0  0  0  0  0  0  0
    1.1725    0.4937   -0.0060 C   0  0  0  0  0  0  0  0  0  0  0  0
    2.2375   -0.3198   -0.0024 C   0  0  0  0  0  0  0  0  0  0  0  0
    3.6061    0.2534   -0.0011 C   0  0  0  0  0  0  0  0  0  0  0  0
    4.7535   -0.7348    0.0035 C   0  0  0  0  0  0  0  0  0  0  0  0
  1  6  1  0
  2 15  2  0
  3 16  1  0
  4 16  2  0
  5  6  1  0
  5  7  2  0
  5  8  1  0
  6 11  2  0
  7  9  1  0
  8 10  2  0
  9 12  2  0
 10 12  1  0
 11 13  1  0
 13 14  2  0
 14 15  1  0
 15 16  1  0
M  END
>  <PUBCHEM_COMPOUND_CID>  (1) 
570

>  <PUBCHEM_CONFORMER_RMSD>  (1) 
0.6

>  <PUBCHEM_CONFORMER_DIVERSEORDER>  (1) 
1
10
6
7
2
9
5
8
3
4

>  <PUBCHEM_MMFF94_PARTIAL_CHARGES>  (1) 
26
1 -0.53
10 -0.15
11 -0.15
12 -0.15
13 -0.15
14 -0.14
15 0.56
16 0.72
17 0.15
18 0.15
19 0.15
2 -0.57
20 0.15
21 0.15
22 0.15
23 0.15
24 0.15
25 0.45
26 0.5
3 -0.65
4 -0.57
5 0.03
6 0.05
7 -0.15
8 -0.15
9 -0.15

>  <PUBCHEM_EFFECTIVE_ROTOR_COUNT>  (1) 
4

>  <PUBCHEM_PHARMACOPHORE_FEATURES>  (1) 
6
1 1 donor
1 2 acceptor
1 3 acceptor
1 4 acceptor
3 3 4 16 anion
6 5 7 8 9 10 12 rings

>  <PUBCHEM_HEAVY_ATOM_COUNT>  (1) 
16

>  <PUBCHEM_ATOM_DEF_STEREO_COUNT>  (1) 
0

>  <PUBCHEM_ATOM_UDEF_STEREO_COUNT>  (1) 
0

>  <PUBCHEM_BOND_DEF_STEREO_COUNT>  (1) 
0

>  <PUBCHEM_BOND_UDEF_STEREO_COUNT>  (1) 
2

>  <PUBCHEM_ISOTOPIC_ATOM_COUNT>  (1) 
0

>  <PUBCHEM_COMPONENT_COUNT>  (1) 
1

>  <PUBCHEM_CACTVS_TAUTO_COUNT>  (1) 
4

>  <PUBCHEM_CONFORMER_ID>  (1) 
0000023A00000001

>  <PUBCHEM_MMFF94_ENERGY>  (1) 
38.5728

>  <PUBCHEM_FEATURE_SELFOVERLAP>  (1) 
30.514

>  <PUBCHEM_SHAPE_FINGERPRINT>  (1) 
10014705 185 9943515302302548265
10680689 15 16081092575948229113
10912923 1 17560803263881930528
11089746 13 11314310555582407454
11315181 36 17458067070736427468
12596602 18 16343981416614176018
13167823 11 18272650125793368182
13288520 33 18344146986180921029
13551218 46 17988365875293764255
13760787 5 18341895220474013445
14123238 8 18131914858210191870
1420 363 18260552229449180042
14251718 22 16877948252201149222
14455015 7 18334300859259021763
14528608 73 13912613779148869918
14848160 23 17894628166961096914
15242439 84 17240480316537266468
17834076 25 11818992980773411018
17844677 252 18408045108466154052
17870717 6 17022626355902603035
1813 80 18272103698589918341
19489759 90 16081083783838807925
200 152 18408601452880751413
20281389 69 11024106534299411418
20281475 54 18059570329954451573
20325693 3 15863787301532526987
20645477 70 18334294241379271098
22646028 1 18273213080205007670
2297311 6 16660648453678904103
23175994 123 18113339734756924781
23402539 116 18410854343616214333
23402655 69 10881410833262549568
23466295 7 17899139601121486515
23557571 272 17167859725612526967
23559900 14 17603865645432098032
23596394 208 17240756225632435930
26918003 58 18187085065783482457
312423 11 18338249184451206292
34797466 226 16660656171144577374
351380 3 18202281398969601350
5104073 3 18269550542949329880
573450 72 17203890751740687347
5924683 9 13182439106686098765

>  <PUBCHEM_SHAPE_MULTIPOLES>  (1) 
305.8
13.47
1.31
0.99
9.82
0.22
0
-4.75
0.04
0.81
0
-1.52
-0.12
-0.01

>  <PUBCHEM_SHAPE_SELFOVERLAP>  (1) 
637.48

>  <PUBCHEM_SHAPE_VOLUME>  (1) 
172.3

>  <PUBCHEM_COORDINATE_TYPE>  (1) 
2
5
10

$$$$
