5705
     RDKit          3D

 44 47  0  0  0  0  0  0  0  0999 V2000
    3.6921   -2.0171    1.4927 S   0  0  0  0  0  0  0  0  0  0  0  0
    3.8164    1.7528   -2.2242 S   0  0  0  0  0  0  0  0  0  0  0  0
   -1.4854   -2.8088   -1.2316 O   0  0  0  0  0  0  0  0  0  0  0  0
    0.0331    2.7266    2.2042 O   0  0  0  0  0  0  0  0  0  0  0  0
    4.8018   -1.9289    0.2975 O   0  0  0  0  0  0  0  0  0  0  0  0
    5.0033    0.8318   -1.5833 O   0  0  0  0  0  0  0  0  0  0  0  0
    3.6377   -0.7086    2.1238 O   0  0  0  0  0  0  0  0  0  0  0  0
    3.9592   -3.2123    2.2745 O   0  0  0  0  0  0  0  0  0  0  0  0
    4.3868    3.0362   -2.5961 O   0  0  0  0  0  0  0  0  0  0  0  0
    3.1196    0.9335   -3.2022 O   0  0  0  0  0  0  0  0  0  0  0  0
   -4.5387    2.3265    0.0432 O   0  0  0  0  0  0  0  0  0  0  0  0
    3.6362   -4.6316   -0.9092 O   0  0  0  0  0  0  0  0  0  0  0  0
    2.7729   -5.4042    0.9554 O   0  0  0  0  0  0  0  0  0  0  0  0
    5.2811    2.9337    0.7864 O   0  0  0  0  0  0  0  0  0  0  0  0
    4.4614    4.6611   -0.2924 O   0  0  0  0  0  0  0  0  0  0  0  0
   -0.9512   -0.3504    0.0335 N   0  0  0  0  0  0  0  0  0  0  0  0
   -0.6873    1.0514    0.0706 N   0  0  0  0  0  0  0  0  0  0  0  0
   -2.3133   -0.5118   -0.0014 N   0  0  0  0  0  0  0  0  0  0  0  0
   -1.8111    1.7901    0.0611 N   0  0  0  0  0  0  0  0  0  0  0  0
    2.8071   -4.5612    0.0283 N   0  0  0  0  0  0  0  0  0  0  0  0
    4.3306    3.5260    0.2232 N   0  0  0  0  0  0  0  0  0  0  0  0
   -5.0270    0.0472   -0.0512 N   0  0  0  0  0  0  0  0  0  0  0  0
    0.0009   -1.4198    0.0317 C   0  0  0  0  0  0  0  0  0  0  0  0
    0.5530    1.6656    0.1128 C   0  0  0  0  0  0  0  0  0  0  0  0
    1.2282   -1.2463    0.6714 C   0  0  0  0  0  0  0  0  0  0  0  0
    1.4584    1.4463   -0.9256 C   0  0  0  0  0  0  0  0  0  0  0  0
   -0.2903   -2.6272   -0.6035 C   0  0  0  0  0  0  0  0  0  0  0  0
    0.9012    2.4962    1.1781 C   0  0  0  0  0  0  0  0  0  0  0  0
    2.1646   -2.2804    0.6756 C   0  0  0  0  0  0  0  0  0  0  0  0
    2.7121    2.0574   -0.8981 C   0  0  0  0  0  0  0  0  0  0  0  0
    1.8734   -3.4880    0.0408 C   0  0  0  0  0  0  0  0  0  0  0  0
    3.0603    2.8881    0.1670 C   0  0  0  0  0  0  0  0  0  0  0  0
    0.6458   -3.6613   -0.5987 C   0  0  0  0  0  0  0  0  0  0  0  0
    2.1547    3.1076    1.2051 C   0  0  0  0  0  0  0  0  0  0  0  0
   -2.7479    0.8167    0.0181 C   0  0  0  0  0  0  0  0  0  0  0  0
   -4.1427    1.1441   -0.0068 C   0  0  0  0  0  0  0  0  0  0  0  0
   -1.5548   -2.4480   -2.6096 C   0  0  0  0  0  0  0  0  0  0  0  0
    0.0946    1.8359    3.3157 C   0  0  0  0  0  0  0  0  0  0  0  0
   -6.4445    0.0432   -0.0494 C   0  0  0  0  0  0  0  0  0  0  0  0
   -7.1459    1.2478    0.0019 C   0  0  0  0  0  0  0  0  0  0  0  0
   -7.1379   -1.1662   -0.0972 C   0  0  0  0  0  0  0  0  0  0  0  0
   -8.5410    1.2431    0.0050 C   0  0  0  0  0  0  0  0  0  0  0  0
   -8.5329   -1.1709   -0.0939 C   0  0  0  0  0  0  0  0  0  0  0  0
   -9.2345    0.0338   -0.0432 C   0  0  0  0  0  0  0  0  0  0  0  0
  1  5  1  0
  1  7  2  0
  1  8  2  0
  1 29  1  0
  2  6  1  0
  2  9  2  0
  2 10  2  0
  2 30  1  0
  3 27  1  0
  3 37  1  0
  4 28  1  0
  4 38  1  0
 11 36  2  0
 12 20  1  0
 13 20  2  0
 14 21  1  0
 15 21  2  0
 16 17  1  0
 16 18  2  0
 16 23  1  0
 17 19  1  0
 17 24  1  0
 18 35  1  0
 19 35  2  0
 20 31  1  0
 21 32  1  0
 22 36  1  0
 22 39  1  0
 23 25  2  0
 23 27  1  0
 24 26  2  0
 24 28  1  0
 25 29  1  0
 26 30  1  0
 27 33  2  0
 28 34  2  0
 29 31  2  0
 30 32  2  0
 31 33  1  0
 32 34  1  0
 35 36  1  0
 39 40  2  0
 39 41  1  0
 40 42  1  0
 41 43  2  0
 42 44  2  0
 43 44  1  0
M  CHG  5  12  -1  14  -1  16   1  20   1  21   1
M  END
>  <PUBCHEM_COMPOUND_CID>  (1) 
5705

>  <PUBCHEM_CONFORMER_RMSD>  (1) 
1.2

>  <PUBCHEM_CONFORMER_DIVERSEORDER>  (1) 
1
5
8
3
4
10
7
6
9
2
11

>  <PUBCHEM_MMFF94_PARTIAL_CHARGES>  (1) 
56
1 1.49
10 -0.65
11 -0.57
12 -0.52
13 -0.52
14 -0.52
15 -0.52
16 0.16
17 0.85
18 -0.18
19 -0.71
2 1.49
20 0.91
21 0.91
22 -0.55
23 0.39
24 -0.02
25 -0.15
26 -0.15
27 0.08
28 0.08
29 -0.01
3 -0.36
30 -0.01
31 0.13
32 0.13
33 -0.15
34 -0.15
35 0.43
36 0.72
37 0.28
38 0.28
39 0.12
4 -0.36
40 -0.15
41 -0.15
42 -0.15
43 -0.15
44 -0.15
45 0.15
46 0.15
47 0.15
48 0.15
49 0.37
5 -0.68
56 0.5
57 0.5
58 0.15
59 0.15
6 -0.68
60 0.15
61 0.15
62 0.15
7 -0.65
8 -0.65
9 -0.65

>  <PUBCHEM_EFFECTIVE_ROTOR_COUNT>  (1) 
11

>  <PUBCHEM_PHARMACOPHORE_FEATURES>  (1) 
23
1 10 acceptor
1 11 acceptor
1 12 acceptor
1 12 anion
1 13 acceptor
1 14 acceptor
1 14 anion
1 15 acceptor
1 22 donor
1 3 acceptor
1 4 acceptor
1 5 acceptor
1 6 acceptor
1 7 acceptor
1 8 acceptor
1 9 acceptor
3 18 19 35 cation
4 1 5 7 8 anion
4 2 6 9 10 anion
5 16 17 18 19 35 rings
6 23 25 27 29 31 33 rings
6 24 26 28 30 32 34 rings
6 39 40 41 42 43 44 rings

>  <PUBCHEM_HEAVY_ATOM_COUNT>  (1) 
44

>  <PUBCHEM_ATOM_DEF_STEREO_COUNT>  (1) 
0

>  <PUBCHEM_ATOM_UDEF_STEREO_COUNT>  (1) 
0

>  <PUBCHEM_BOND_DEF_STEREO_COUNT>  (1) 
0

>  <PUBCHEM_BOND_UDEF_STEREO_COUNT>  (1) 
0

>  <PUBCHEM_ISOTOPIC_ATOM_COUNT>  (1) 
0

>  <PUBCHEM_COMPONENT_COUNT>  (1) 
1

>  <PUBCHEM_CACTVS_TAUTO_COUNT>  (1) 
2

>  <PUBCHEM_CONFORMER_ID>  (1) 
0000164900000001

>  <PUBCHEM_MMFF94_ENERGY>  (1) 
169.4229

>  <PUBCHEM_FEATURE_SELFOVERLAP>  (1) 
117.03

>  <PUBCHEM_SHAPE_FINGERPRINT>  (1) 
10165383 225 18339078319224353153
10675989 125 18341332283817223428
10721379 63 18411423881901599311
11135926 11 18338222878213978989
12522641 126 18334017181317594455
12977781 61 17895778282484730475
14028597 1 17846505832821537369
140371 6 17694504737388340845
14955137 171 18128811959150818507
15324884 4 17548098201075642634
15927050 60 18199463453974056847
19309040 13 15939243640362332604
19319366 153 18341330097435880669
21583282 1 18335422413323418101
23523766 6 18193839232506224975
23559900 14 18267008468077061401
27425 322 18050009088514620100
45266715 3 18272102616864587460
469060 322 17541105264474293930
513532 50 17203607111799818257
5265222 85 17907020934164146729
9831232 110 18262231102712533395
9896288 288 16544078513706128577

>  <PUBCHEM_SHAPE_MULTIPOLES>  (1) 
802.03
17.42
6.22
2.11
53.53
4.69
-0.19
-4.45
-1.53
-11.88
0.43
-3.31
-0.65
-2.65

>  <PUBCHEM_SHAPE_SELFOVERLAP>  (1) 
1719.935

>  <PUBCHEM_SHAPE_VOLUME>  (1) 
445.1

>  <PUBCHEM_COORDINATE_TYPE>  (1) 
2
5
10

$$$$
