5706
     RDKit          3D

 14 14  0  0  1  0  0  0  0  0999 V2000
    4.8617   -1.3520   -0.6878 Cl  0  0  0  0  0  0  0  0  0  0  0  0
    1.3452    0.4747    0.0337 N   0  0  0  0  0  0  0  0  0  0  0  0
    0.4725   -0.6984    0.0623 C   0  0  0  0  0  0  0  0  0  0  0  0
    2.7411    0.0779    0.2154 C   0  0  0  0  0  0  0  0  0  0  0  0
   -0.9640   -0.3362   -0.1815 C   0  0  0  0  0  0  0  0  0  0  0  0
    0.9478    1.4327    1.0647 C   0  0  0  0  0  0  0  0  0  0  0  0
   -1.9751   -0.8730    0.6083 C   0  0  0  0  0  0  0  0  0  0  0  0
    3.1694   -0.8488   -0.9120 C   0  0  0  0  0  0  0  0  0  0  0  0
    1.8444    2.6591    1.0496 C   0  0  0  0  0  0  0  0  0  0  0  0
   -1.2657    0.5477   -1.2124 C   0  0  0  0  0  0  0  0  0  0  0  0
   -3.3030   -0.5223    0.3645 C   0  0  0  0  0  0  0  0  0  0  0  0
   -1.6684   -1.8232    1.7190 C   0  0  0  0  0  0  0  0  0  0  0  0
   -2.5935    0.8985   -1.4561 C   0  0  0  0  0  0  0  0  0  0  0  0
   -3.6122    0.3634   -0.6677 C   0  0  0  0  0  0  0  0  0  0  0  0
  1  8  1  0
  2  3  1  0
  2  4  1  0
  2  6  1  0
  3  5  1  0
  4  8  1  0
  5  7  2  0
  5 10  1  0
  6  9  1  0
  7 11  1  0
  7 12  1  0
 10 13  2  0
 11 14  2  0
 13 14  1  0
M  END
>  <PUBCHEM_COMPOUND_CID>  (1) 
5706

>  <PUBCHEM_CONFORMER_RMSD>  (1) 
0.6

>  <PUBCHEM_CONFORMER_DIVERSEORDER>  (1) 
6
38
26
17
44
40
36
25
3
16
11
43
21
27
45
23
9
35
42
24
31
39
22
7
29
2
32
20
14
8
4
30
19
1
12
18
41
34
28
33
13
37
15
10
5

>  <PUBCHEM_MMFF94_PARTIAL_CHARGES>  (1) 
17
1 -0.29
10 -0.15
11 -0.15
12 0.14
13 -0.15
14 -0.15
2 -0.81
26 0.15
27 0.15
3 0.41
31 0.15
32 0.15
4 0.27
5 -0.14
6 0.27
7 -0.14
8 0.29

>  <PUBCHEM_EFFECTIVE_ROTOR_COUNT>  (1) 
5

>  <PUBCHEM_PHARMACOPHORE_FEATURES>  (1) 
2
1 2 cation
6 5 7 10 11 13 14 rings

>  <PUBCHEM_HEAVY_ATOM_COUNT>  (1) 
14

>  <PUBCHEM_ATOM_DEF_STEREO_COUNT>  (1) 
0

>  <PUBCHEM_ATOM_UDEF_STEREO_COUNT>  (1) 
0

>  <PUBCHEM_BOND_DEF_STEREO_COUNT>  (1) 
0

>  <PUBCHEM_BOND_UDEF_STEREO_COUNT>  (1) 
0

>  <PUBCHEM_ISOTOPIC_ATOM_COUNT>  (1) 
0

>  <PUBCHEM_COMPONENT_COUNT>  (1) 
1

>  <PUBCHEM_CACTVS_TAUTO_COUNT>  (1) 
1

>  <PUBCHEM_CONFORMER_ID>  (1) 
0000164A00000006

>  <PUBCHEM_MMFF94_ENERGY>  (1) 
34.5273

>  <PUBCHEM_FEATURE_SELFOVERLAP>  (1) 
10.148

>  <PUBCHEM_SHAPE_FINGERPRINT>  (1) 
10465860 250 18338793425758883002
12186901 62 17385725768449564999
124424 183 18411700963332663374
12916754 54 18130782421447664047
12932764 1 18188198883947483851
13296909 8 14907903717360782778
13538477 17 16153981447826080835
15219456 202 18337949120460211344
15375462 478 12895061904122775506
15669948 3 16950279641529607979
16945 1 18269255920734730039
17041 50 18412539907863426576
17357990 137 15983725392058539433
17804303 29 18259706704891408163
1813 80 17274280369849878460
18186145 218 18336532868343435365
19049666 15 18335693923290348384
20325693 3 17531257127380832887
20361792 2 17775006756678433284
20645464 45 18116975862258622409
20645476 183 15213301941420759907
20645477 70 18202003218501949246
20653085 51 18201709674603644477
20671657 53 18201725024737606656
20711985 327 17060340708620776180
20715346 28 18263641942943396841
21061003 4 18270697414648819138
21069387 34 17275095145908492774
22094290 60 17603592923624922214
23175994 123 18343028752790721284
23402539 116 17774157890905247526
23493267 7 16225767389635805097
23526113 38 18410293592902469522
23557571 272 17751360809555737672
23559900 14 18041276668249815998
23598294 1 16732982029119225545
2748010 2 18189611829313786709
3286 77 18272092742291395487
6049 1 18262243342546232025
6992083 37 16774083955313427804
74978 22 18060135496063641838
77492 1 16271930457999520001
81228 2 17912654505901915072
88987 49 17168687743519700141

>  <PUBCHEM_SHAPE_MULTIPOLES>  (1) 
285
7.05
1.93
1.42
5.08
1
0.1
-2.42
-2.14
1.16
0.92
-0.54
0.01
1.81

>  <PUBCHEM_SHAPE_SELFOVERLAP>  (1) 
561.37

>  <PUBCHEM_SHAPE_VOLUME>  (1) 
172

>  <PUBCHEM_COORDINATE_TYPE>  (1) 
2
5
10

$$$$
