5711
     RDKit          3D

 18 19  0  0  1  0  0  0  0  0999 V2000
   -0.8301   -1.5604   -0.7419 O   0  0  0  0  0  0  0  0  0  0  0  0
    5.5465    1.3613   -0.7827 N   0  0  0  0  0  0  0  0  0  0  0  0
   -1.6323    0.3326    0.4024 N   0  0  0  0  0  0  0  0  0  0  0  0
   -5.7764    0.1224   -0.1795 N   0  0  0  0  0  0  0  0  0  0  0  0
    3.6171   -0.0003   -0.1716 C   0  0  0  0  0  0  0  0  0  0  0  0
    3.0331   -0.9553    0.8781 C   0  0  0  0  0  0  0  0  0  0  0  0
    2.7173    1.2297   -0.3518 C   0  0  0  0  0  0  0  0  0  0  0  0
    0.7048   -0.1236    0.3580 C   0  0  0  0  0  0  0  0  0  0  0  0
    1.5968   -1.3512    0.5425 C   0  0  0  0  0  0  0  0  0  0  0  0
    1.2805    0.8338   -0.6857 C   0  0  0  0  0  0  0  0  0  0  0  0
    5.0349    0.4202    0.2116 C   0  0  0  0  0  0  0  0  0  0  0  0
   -0.6671   -0.5499   -0.0657 C   0  0  0  0  0  0  0  0  0  0  0  0
    5.9543   -0.7923    0.3174 C   0  0  0  0  0  0  0  0  0  0  0  0
   -3.0319    0.2615    0.2060 C   0  0  0  0  0  0  0  0  0  0  0  0
   -3.8431    1.2372    0.7498 C   0  0  0  0  0  0  0  0  0  0  0  0
   -3.5613   -0.7820   -0.5261 C   0  0  0  0  0  0  0  0  0  0  0  0
   -5.2061    1.1227    0.5289 C   0  0  0  0  0  0  0  0  0  0  0  0
   -4.9370   -0.8063   -0.6897 C   0  0  0  0  0  0  0  0  0  0  0  0
  1 12  2  0
  2 11  1  0
  3 12  1  0
  3 14  1  0
  4 17  2  0
  4 18  1  0
  5  6  1  0
  5  7  1  0
  5 11  1  0
  6  9  1  0
  7 10  1  0
  8  9  1  0
  8 10  1  0
  8 12  1  0
 11 13  1  0
 14 15  2  0
 14 16  1  0
 15 17  1  0
 16 18  2  0
M  END
>  <PUBCHEM_COMPOUND_CID>  (1) 
5711

>  <PUBCHEM_CONFORMER_RMSD>  (1) 
0.6

>  <PUBCHEM_CONFORMER_DIVERSEORDER>  (1) 
1
53
27
45
62
25
54
52
40
60
31
17
46
49
9
61
58
55
7
56
34
3
37
50
13
24
11
29
63
41
57
26
65
28
36
2
10
32
22
64
48
38
51
19
4
59
39
30
21
23
18
20
33
12
16
47
42
43
44
6
8
15
14
35
5

>  <PUBCHEM_MMFF94_PARTIAL_CHARGES>  (1) 
19
1 -0.57
11 0.27
12 0.57
14 0.12
15 -0.15
16 -0.15
17 0.16
18 0.16
2 -0.99
3 -0.55
33 0.36
34 0.36
35 0.37
36 0.15
37 0.15
38 0.15
39 0.15
4 -0.62
8 0.06

>  <PUBCHEM_EFFECTIVE_ROTOR_COUNT>  (1) 
5.2

>  <PUBCHEM_PHARMACOPHORE_FEATURES>  (1) 
7
1 1 acceptor
1 2 cation
1 2 donor
1 3 donor
1 4 acceptor
6 4 14 15 16 17 18 rings
6 5 6 7 8 9 10 rings

>  <PUBCHEM_HEAVY_ATOM_COUNT>  (1) 
18

>  <PUBCHEM_ATOM_DEF_STEREO_COUNT>  (1) 
0

>  <PUBCHEM_ATOM_UDEF_STEREO_COUNT>  (1) 
1

>  <PUBCHEM_BOND_DEF_STEREO_COUNT>  (1) 
0

>  <PUBCHEM_BOND_UDEF_STEREO_COUNT>  (1) 
0

>  <PUBCHEM_ISOTOPIC_ATOM_COUNT>  (1) 
0

>  <PUBCHEM_COMPONENT_COUNT>  (1) 
1

>  <PUBCHEM_CACTVS_TAUTO_COUNT>  (1) 
3

>  <PUBCHEM_CONFORMER_ID>  (1) 
0000164F00000001

>  <PUBCHEM_MMFF94_ENERGY>  (1) 
39.3803

>  <PUBCHEM_FEATURE_SELFOVERLAP>  (1) 
35.52

>  <PUBCHEM_SHAPE_FINGERPRINT>  (1) 
10354089 29 18187086148051957016
10912923 1 18409725141006115547
11089746 13 18342172289220414856
11287383 113 15625936573154541682
12107183 9 17618221706878639273
12236239 1 18411136939399846247
12507557 5 17967537895764835093
12916748 109 18202009819412703257
13533116 47 16515955974817090840
14123238 8 18410854364911507808
1420 363 15719112439835277010
14251718 22 17989204867026319587
14386348 63 15791732988158503889
14528608 73 18411981390379480268
14573314 32 16917075434089861292
15048467 5 18412544332170416888
17834072 33 18342455962972227204
17834076 25 18412261731226277626
18785283 64 15720256035297588860
19489759 90 17847061077872114865
200 152 18410571795208721185
20279233 1 15864073152664142187
20281389 69 18410290306904503776
20645477 70 17676759869272068482
21033648 29 16660910162826014725
21054139 6 18340759438116928967
21267235 1 18411425024669043467
21641784 216 17023478434527748188
2297311 6 16917072170373645865
23402539 116 17918269852996511805
23402655 69 18411698789889210071
23536379 177 18059857246908044266
23557571 272 16773803567143077265
23559900 14 17489581311545051961
26918003 58 17022626373029607841
2916195 48 17560792256091890792
29717793 49 18272655632479232750
300161 21 18410005520860928977
3004659 81 18130229264399771470
34797466 226 16916792941559667000
3545911 37 18334576850074009883
4214541 1 18342174466789776881
42630746 31 18335421236555541242
42788 4 18413107260057917624
4340502 62 14996279228481900720
474 4 18041001794764705964
4990 188 17418098714933370662
5104073 3 17968938716543950904
542803 24 18342739619597216857
54446538 1 18413106165005144753
7495541 125 16558743576553283338

>  <PUBCHEM_SHAPE_MULTIPOLES>  (1) 
349.62
14.42
1.39
0.87
0.01
0.01
-0.01
2.16
0.13
-0.24
0.05
0.05
0
-1.36

>  <PUBCHEM_SHAPE_SELFOVERLAP>  (1) 
723.344

>  <PUBCHEM_SHAPE_VOLUME>  (1) 
197.2

>  <PUBCHEM_COORDINATE_TYPE>  (1) 
2
5
10

$$$$
