5714
     RDKit          3D

 26 27  0  0  0  0  0  0  0  0999 V2000
    4.6405    2.1368    1.4506 O   0  0  0  0  0  0  0  0  0  0  0  0
   -4.5448    2.4172   -1.1401 O   0  0  0  0  0  0  0  0  0  0  0  0
    6.4662    1.6115   -0.5786 O   0  0  0  0  0  0  0  0  0  0  0  0
   -6.8553    1.1393   -0.2713 O   0  0  0  0  0  0  0  0  0  0  0  0
   -0.0421   -2.6727   -0.0213 N   0  0  0  0  0  0  0  0  0  0  0  0
    1.0359   -1.7314   -0.3225 C   0  0  0  0  0  0  0  0  0  0  0  0
   -1.3422   -2.0739   -0.3211 C   0  0  0  0  0  0  0  0  0  0  0  0
    2.2857   -2.0486    0.4995 C   0  0  0  0  0  0  0  0  0  0  0  0
   -1.7813   -1.1289    0.7980 C   0  0  0  0  0  0  0  0  0  0  0  0
    3.3981   -1.0711    0.2148 C   0  0  0  0  0  0  0  0  0  0  0  0
   -3.1315   -0.5216    0.5117 C   0  0  0  0  0  0  0  0  0  0  0  0
    0.1361   -3.9124   -0.7763 C   0  0  0  0  0  0  0  0  0  0  0  0
    3.5112    0.0964    0.9696 C   0  0  0  0  0  0  0  0  0  0  0  0
   -3.2211    0.6811   -0.1893 C   0  0  0  0  0  0  0  0  0  0  0  0
    4.3142   -1.3347   -0.8035 C   0  0  0  0  0  0  0  0  0  0  0  0
   -4.2910   -1.1628    0.9476 C   0  0  0  0  0  0  0  0  0  0  0  0
    4.5405    1.0003    0.7065 C   0  0  0  0  0  0  0  0  0  0  0  0
   -4.4702    1.2425   -0.4545 C   0  0  0  0  0  0  0  0  0  0  0  0
    5.3434   -0.4307   -1.0669 C   0  0  0  0  0  0  0  0  0  0  0  0
   -5.5401   -0.6012    0.6826 C   0  0  0  0  0  0  0  0  0  0  0  0
    5.4565    0.7368   -0.3118 C   0  0  0  0  0  0  0  0  0  0  0  0
   -5.6297    0.6013   -0.0185 C   0  0  0  0  0  0  0  0  0  0  0  0
    3.6642    2.3309    2.4721 C   0  0  0  0  0  0  0  0  0  0  0  0
   -3.3129    3.0077   -1.5501 C   0  0  0  0  0  0  0  0  0  0  0  0
    7.3596    1.2672   -1.6357 C   0  0  0  0  0  0  0  0  0  0  0  0
   -7.9902    0.4210    0.2088 C   0  0  0  0  0  0  0  0  0  0  0  0
  1 17  1  0
  1 23  1  0
  2 18  1  0
  2 24  1  0
  3 21  1  0
  3 25  1  0
  4 22  1  0
  4 26  1  0
  5  6  1  0
  5  7  1  0
  5 12  1  0
  6  8  1  0
  7  9  1  0
  8 10  1  0
  9 11  1  0
 10 13  2  0
 10 15  1  0
 11 14  2  0
 11 16  1  0
 13 17  1  0
 14 18  1  0
 15 19  2  0
 16 20  2  0
 17 21  2  0
 18 22  2  0
 19 21  1  0
 20 22  1  0
M  END
>  <PUBCHEM_COMPOUND_CID>  (1) 
5714

>  <PUBCHEM_CONFORMER_RMSD>  (1) 
1

>  <PUBCHEM_CONFORMER_DIVERSEORDER>  (1) 
1
22
17
164
157
48
36
152
8
108
81
118
131
37
112
31
25
172
153
91
162
40
9
117
21
143
166
55
65
124
27
123
96
171
158
104
150
161
163
56
147
59
64
69
53
68
7
138
32
67
113
100
58
80
73
115
66
97
10
33
61
99
127
130
110
148
114
75
169
51
93
62
71
95
105
43
3
14
140
82
126
154
11
6
144
142
15
132
30
19
133
156
12
134
76
47
136
109
63
122
42
35
90
135
79
24
28
39
119
41
83
168
102
23
44
120
13
94
116
84
92
121
111
52
170
2
85
20
145
16
54
70
98
5
38
103
137
46
146
74
159
125
49
60
128
86
155
26
165
129
139
4
88
106
18
167
101
151
57
29
78
160
141
34
149
77
45
72
89
107
173
87
50

>  <PUBCHEM_MMFF94_PARTIAL_CHARGES>  (1) 
32
1 -0.36
10 -0.14
11 -0.14
12 0.27
13 -0.15
14 -0.15
15 -0.15
16 -0.15
17 0.08
18 0.08
19 -0.15
2 -0.36
20 -0.15
21 0.08
22 0.08
23 0.28
24 0.28
25 0.28
26 0.28
3 -0.36
38 0.15
39 0.15
4 -0.36
40 0.15
41 0.15
42 0.15
43 0.15
5 -0.81
6 0.27
7 0.27
8 0.14
9 0.14

>  <PUBCHEM_EFFECTIVE_ROTOR_COUNT>  (1) 
10

>  <PUBCHEM_PHARMACOPHORE_FEATURES>  (1) 
7
1 1 acceptor
1 2 acceptor
1 3 acceptor
1 4 acceptor
1 5 cation
6 10 13 15 17 19 21 rings
6 11 14 16 18 20 22 rings

>  <PUBCHEM_HEAVY_ATOM_COUNT>  (1) 
26

>  <PUBCHEM_ATOM_DEF_STEREO_COUNT>  (1) 
0

>  <PUBCHEM_ATOM_UDEF_STEREO_COUNT>  (1) 
0

>  <PUBCHEM_BOND_DEF_STEREO_COUNT>  (1) 
0

>  <PUBCHEM_BOND_UDEF_STEREO_COUNT>  (1) 
0

>  <PUBCHEM_ISOTOPIC_ATOM_COUNT>  (1) 
0

>  <PUBCHEM_COMPONENT_COUNT>  (1) 
1

>  <PUBCHEM_CACTVS_TAUTO_COUNT>  (1) 
1

>  <PUBCHEM_CONFORMER_ID>  (1) 
0000165200000001

>  <PUBCHEM_MMFF94_ENERGY>  (1) 
102.8727

>  <PUBCHEM_FEATURE_SELFOVERLAP>  (1) 
35.531

>  <PUBCHEM_SHAPE_FINGERPRINT>  (1) 
10 15 17967819357619163299
11135609 149 16842205148012363262
11135609 99 10592044636225544148
11991303 11 17275097362681895719
12633257 1 15574721321717806526
13402501 40 18410855451654609625
13911987 19 18060143128648191107
14216079 64 9079115558004681083
14528608 73 18273210889751022987
14739800 52 17968648333304083667
14931854 50 17988657285146554008
15183329 4 16845579707726454062
15575132 122 18407759227068736399
15961568 22 18186524280657349437
21033648 29 18339354270930201962
21049683 118 18262219110357430722
221357 26 17846786191633939776
2838139 119 18339066125505673046
3004659 81 11887952146939612226
34797466 226 18059860515716091759
3918712 181 18259982686621408596
44249763 50 18199737193223777346
44317340 157 17417807391575804683
508706 21 18267574891746369426
53794403 172 18194681690526191800
5911458 16 17314245513265305508
59682541 52 17346047692955282310
613672 6 8358265838802882842
7808743 9 18334858376669761118

>  <PUBCHEM_SHAPE_MULTIPOLES>  (1) 
506.61
20.49
3.4
1.45
5.73
1.08
0.36
-13.08
-3.09
-0.44
-0.63
-1.72
-1.08
2.34

>  <PUBCHEM_SHAPE_SELFOVERLAP>  (1) 
1047.929

>  <PUBCHEM_SHAPE_VOLUME>  (1) 
292.8

>  <PUBCHEM_COORDINATE_TYPE>  (1) 
2
5
10

$$$$
