5715
     RDKit          3D

 26 27  0  0  0  0  0  0  0  0999 V2000
    4.7394    2.2587    1.3722 O   0  0  0  0  0  0  0  0  0  0  0  0
   -4.6351    2.1960   -1.4355 O   0  0  0  0  0  0  0  0  0  0  0  0
    6.9253    1.1103    0.0956 O   0  0  0  0  0  0  0  0  0  0  0  0
   -6.5606    1.6148    0.4833 O   0  0  0  0  0  0  0  0  0  0  0  0
    0.0245   -2.6932    0.0624 N   0  0  0  0  0  0  0  0  0  0  0  0
    1.3820   -2.1276    0.3681 C   0  0  0  0  0  0  0  0  0  0  0  0
   -1.0763   -1.7333    0.4136 C   0  0  0  0  0  0  0  0  0  0  0  0
    1.7450   -1.0481   -0.6460 C   0  0  0  0  0  0  0  0  0  0  0  0
   -2.3027   -1.9958   -0.4538 C   0  0  0  0  0  0  0  0  0  0  0  0
   -0.1799   -4.0391    0.6972 C   0  0  0  0  0  0  0  0  0  0  0  0
    3.1242   -0.4701   -0.4464 C   0  0  0  0  0  0  0  0  0  0  0  0
   -3.4360   -1.0311   -0.2064 C   0  0  0  0  0  0  0  0  0  0  0  0
    3.3026    0.6402    0.3788 C   0  0  0  0  0  0  0  0  0  0  0  0
   -3.5178    0.1521   -0.9405 C   0  0  0  0  0  0  0  0  0  0  0  0
    4.2212   -1.0464   -1.0869 C   0  0  0  0  0  0  0  0  0  0  0  0
   -4.4023   -1.3226    0.7564 C   0  0  0  0  0  0  0  0  0  0  0  0
    4.5779    1.1743    0.5637 C   0  0  0  0  0  0  0  0  0  0  0  0
   -4.5659    1.0438   -0.7120 C   0  0  0  0  0  0  0  0  0  0  0  0
    5.4965   -0.5121   -0.9023 C   0  0  0  0  0  0  0  0  0  0  0  0
   -5.4502   -0.4308    0.9852 C   0  0  0  0  0  0  0  0  0  0  0  0
    5.6749    0.5981   -0.0770 C   0  0  0  0  0  0  0  0  0  0  0  0
   -5.5322    0.7522    0.2509 C   0  0  0  0  0  0  0  0  0  0  0  0
    3.5673    2.7872    1.9895 C   0  0  0  0  0  0  0  0  0  0  0  0
   -3.6081    2.4184   -2.3999 C   0  0  0  0  0  0  0  0  0  0  0  0
    7.9920    0.4625   -0.5949 C   0  0  0  0  0  0  0  0  0  0  0  0
   -7.5057    1.2420    1.4844 C   0  0  0  0  0  0  0  0  0  0  0  0
  1 17  1  0
  1 23  1  0
  2 18  1  0
  2 24  1  0
  3 21  1  0
  3 25  1  0
  4 22  1  0
  4 26  1  0
  5  6  1  0
  5  7  1  0
  5 10  1  0
  6  8  1  0
  7  9  1  0
  8 11  1  0
  9 12  1  0
 11 13  2  0
 11 15  1  0
 12 14  2  0
 12 16  1  0
 13 17  1  0
 14 18  1  0
 15 19  2  0
 16 20  2  0
 17 21  2  0
 18 22  2  0
 19 21  1  0
 20 22  1  0
M  CHG  1   5   1
M  END
>  <PUBCHEM_COMPOUND_CID>  (1) 
5715

>  <PUBCHEM_CONFORMER_RMSD>  (1) 
1

>  <PUBCHEM_CONFORMER_DIVERSEORDER>  (1) 
1
37
99
171
30
75
154
59
60
25
130
98
159
43
124
23
38
127
138
32
61
122
68
113
74
71
156
112
45
162
63
150
10
42
48
169
137
41
29
91
168
58
62
80
39
90
79
120
92
157
11
140
35
54
27
24
47
123
9
132
64
144
82
95
16
160
97
161
111
15
145
158
136
8
4
17
108
165
164
119
83
149
18
88
21
131
33
163
12
57
66
151
133
28
19
73
26
20
49
78
114
51
152
55
172
126
167
146
107
87
7
3
52
31
115
94
153
109
53
84
103
22
100
46
96
102
65
81
34
89
121
129
173
155
67
166
76
147
135
139
148
14
143
117
2
36
105
69
142
125
72
44
40
77
50
170
6
116
86
118
134
128
101
5
13
85
106
110
141
56
93
70
104

>  <PUBCHEM_MMFF94_PARTIAL_CHARGES>  (1) 
33
1 -0.36
10 0.5
11 -0.14
12 -0.14
13 -0.15
14 -0.15
15 -0.15
16 -0.15
17 0.08
18 0.08
19 -0.15
2 -0.36
20 -0.15
21 0.08
22 0.08
23 0.28
24 0.28
25 0.28
26 0.28
27 0.45
3 -0.36
39 0.15
4 -0.36
40 0.15
41 0.15
42 0.15
43 0.15
44 0.15
5 -0.96
6 0.5
7 0.5
8 0.14
9 0.14

>  <PUBCHEM_EFFECTIVE_ROTOR_COUNT>  (1) 
10

>  <PUBCHEM_PHARMACOPHORE_FEATURES>  (1) 
8
1 1 acceptor
1 2 acceptor
1 3 acceptor
1 4 acceptor
1 5 cation
1 5 donor
6 11 13 15 17 19 21 rings
6 12 14 16 18 20 22 rings

>  <PUBCHEM_HEAVY_ATOM_COUNT>  (1) 
26

>  <PUBCHEM_ATOM_DEF_STEREO_COUNT>  (1) 
0

>  <PUBCHEM_ATOM_UDEF_STEREO_COUNT>  (1) 
0

>  <PUBCHEM_BOND_DEF_STEREO_COUNT>  (1) 
0

>  <PUBCHEM_BOND_UDEF_STEREO_COUNT>  (1) 
0

>  <PUBCHEM_ISOTOPIC_ATOM_COUNT>  (1) 
0

>  <PUBCHEM_COMPONENT_COUNT>  (1) 
1

>  <PUBCHEM_CACTVS_TAUTO_COUNT>  (1) 
1

>  <PUBCHEM_CONFORMER_ID>  (1) 
0000165300000001

>  <PUBCHEM_MMFF94_ENERGY>  (1) 
107.5661

>  <PUBCHEM_FEATURE_SELFOVERLAP>  (1) 
40.605

>  <PUBCHEM_SHAPE_FINGERPRINT>  (1) 
10 15 17895197684198939203
10369192 42 18201726150172227447
12633257 1 15792018899879109843
12769317 202 18343292652555749346
13402501 40 18411418427393652420
15183329 4 17632300064230105794
16067690 210 17313376868060295388
21033648 29 18337668715309899466
21223535 225 17560814173262919416
21307412 95 11383820551483454133
21756936 100 18335700580590643887
23559900 14 17988925621908074538
2838139 119 18059572528930422862
312425 54 11675140541411510839
3459 39 18263064622161317306
508706 21 18263912401223478775
5104073 3 18186805747308389531
5385378 56 18261115127895337666
59682541 35 18114758083745779627
613672 6 10015577311809514823

>  <PUBCHEM_SHAPE_MULTIPOLES>  (1) 
506.61
20.93
3.36
1.51
4.91
1.55
0.18
-13.78
-1.86
-0.84
-0.66
-0.9
-1.26
2.6

>  <PUBCHEM_SHAPE_SELFOVERLAP>  (1) 
1043.375

>  <PUBCHEM_SHAPE_VOLUME>  (1) 
293.6

>  <PUBCHEM_COORDINATE_TYPE>  (1) 
2
5
10

$$$$
