5718
     RDKit          3D

 15 16  0  0  1  0  0  0  0  0999 V2000
   -1.6507    0.2679    0.5232 O   0  0  0  0  0  0  0  0  0  0  0  0
   -3.9572    1.8458    0.8465 O   0  0  0  0  0  0  0  0  0  0  0  0
    1.6018   -2.1852    0.9249 O   0  0  0  0  0  0  0  0  0  0  0  0
    0.5873   -0.2831    0.1016 N   0  0  0  0  0  0  0  0  0  0  0  0
    2.9780   -0.4765    0.3434 N   0  0  0  0  0  0  0  0  0  0  0  0
    4.3825    1.2787   -0.2526 N   0  0  0  0  0  0  0  0  0  0  0  0
   -0.7446   -0.8023    0.2146 C   0  0  0  0  0  0  0  0  0  0  0  0
   -1.2404   -1.4523   -1.0657 C   0  0  0  0  0  0  0  0  0  0  0  0
   -2.7240   -1.1875   -0.9948 C   0  0  0  0  0  0  0  0  0  0  0  0
   -2.7523    0.2088   -0.3984 C   0  0  0  0  0  0  0  0  0  0  0  0
   -4.0454    0.5317    0.3245 C   0  0  0  0  0  0  0  0  0  0  0  0
    0.7593    0.9994   -0.3923 C   0  0  0  0  0  0  0  0  0  0  0  0
    1.7218   -1.0421    0.4803 C   0  0  0  0  0  0  0  0  0  0  0  0
    1.9585    1.5615   -0.5305 C   0  0  0  0  0  0  0  0  0  0  0  0
    3.1252    0.7352   -0.1246 C   0  0  0  0  0  0  0  0  0  0  0  0
  1  7  1  0
  1 10  1  0
  2 11  1  0
  3 13  2  0
  4  7  1  0
  4 12  1  0
  4 13  1  0
  5 13  1  0
  5 15  2  0
  6 15  1  0
  7  8  1  0
  8  9  1  0
  9 10  1  0
 10 11  1  0
 12 14  2  0
 14 15  1  0
M  END
>  <PUBCHEM_COMPOUND_CID>  (1) 
5718

>  <PUBCHEM_CONFORMER_RMSD>  (1) 
0.6

>  <PUBCHEM_CONFORMER_DIVERSEORDER>  (1) 
1
31
14
4
35
9
24
28
27
21
26
23
6
16
34
7
19
30
2
10
33
29
22
8
5
3
12
13
11
17
32
20
15
25
18

>  <PUBCHEM_MMFF94_PARTIAL_CHARGES>  (1) 
18
1 -0.56
10 0.28
11 0.28
12 -0.04
13 0.84
14 -0.14
15 0.49
2 -0.68
24 0.15
25 0.15
26 0.4
27 0.4
28 0.4
3 -0.57
4 -0.47
5 -0.66
6 -0.85
7 0.58

>  <PUBCHEM_EFFECTIVE_ROTOR_COUNT>  (1) 
3

>  <PUBCHEM_PHARMACOPHORE_FEATURES>  (1) 
8
1 1 acceptor
1 2 acceptor
1 2 donor
1 3 acceptor
1 5 donor
1 6 donor
5 1 7 8 9 10 rings
6 4 5 12 13 14 15 rings

>  <PUBCHEM_HEAVY_ATOM_COUNT>  (1) 
15

>  <PUBCHEM_ATOM_DEF_STEREO_COUNT>  (1) 
0

>  <PUBCHEM_ATOM_UDEF_STEREO_COUNT>  (1) 
2

>  <PUBCHEM_BOND_DEF_STEREO_COUNT>  (1) 
0

>  <PUBCHEM_BOND_UDEF_STEREO_COUNT>  (1) 
0

>  <PUBCHEM_ISOTOPIC_ATOM_COUNT>  (1) 
0

>  <PUBCHEM_COMPONENT_COUNT>  (1) 
1

>  <PUBCHEM_CACTVS_TAUTO_COUNT>  (1) 
3

>  <PUBCHEM_CONFORMER_ID>  (1) 
0000165600000001

>  <PUBCHEM_MMFF94_ENERGY>  (1) 
38.789

>  <PUBCHEM_FEATURE_SELFOVERLAP>  (1) 
40.645

>  <PUBCHEM_SHAPE_FINGERPRINT>  (1) 
10465860 228 18337394842077155816
10980938 120 18261106353155026774
11031198 65 17968101923301276270
11471102 20 18259696796391164036
11769659 78 9007060153740671541
12346645 44 18409729586001672460
12491281 212 18410856594052321051
12500047 106 17489866059466125222
12932764 1 17774715467501198971
14144814 61 18408598167230692047
15279307 12 18411414042279749943
15442244 35 18193834838601102578
15669948 3 17988914600668506591
15775835 57 18412547621577210941
16945 1 18114453513659162686
17844478 74 16877939412905240381
18186145 218 18187361052013651950
19422 9 18412538825368417135
201361 129 18408322172595392858
20233049 118 17846777382023025969
20279233 1 15936683818257214083
20645476 183 18273212027948933895
20645477 70 17896299364516765511
22854114 111 18333452036340277353
23402539 116 17561080306479194237
23402655 69 18409721863961912405
23557571 272 17274542156021082113
23559900 14 17203892972803073912
23598291 2 18341036441895333079
25 1 18187081775944106586
474 4 18187366587894407796
528886 8 18188483692019068346
53748568 43 18341610451220509055
63268167 104 18334285474712294270
633830 44 18335989756928149396
7364860 26 18341049610555082750
77492 1 18341601625168184623
7832392 63 18341892999965352308
88987 49 17417511592935993719

>  <PUBCHEM_SHAPE_MULTIPOLES>  (1) 
276.14
7.07
1.84
0.92
0.6
0.17
-0.07
-3.21
0.36
0
0.15
0.33
0.17
-1.3

>  <PUBCHEM_SHAPE_SELFOVERLAP>  (1) 
577.786

>  <PUBCHEM_SHAPE_VOLUME>  (1) 
155.1

>  <PUBCHEM_COORDINATE_TYPE>  (1) 
2
5
10

$$$$
