5729
     RDKit          3D

 16 16  0  0  1  0  0  0  0  0999 V2000
   -1.8004    1.7923    0.3770 F   0  0  0  0  0  0  0  0  0  0  0  0
   -2.5270    0.2651    1.7469 F   0  0  0  0  0  0  0  0  0  0  0  0
   -3.8280    1.0147    0.1669 F   0  0  0  0  0  0  0  0  0  0  0  0
   -2.8706   -1.5667   -0.2446 O   0  0  0  0  0  0  0  0  0  0  0  0
   -0.3460   -1.9546    0.2805 O   0  0  0  0  0  0  0  0  0  0  0  0
    0.3105    0.1962   -0.3670 N   0  0  0  0  0  0  0  0  0  0  0  0
   -2.0487   -0.4219   -0.4723 C   0  0  0  0  0  0  0  0  0  0  0  0
   -0.6016   -0.8281   -0.1400 C   0  0  0  0  0  0  0  0  0  0  0  0
   -2.5527    0.6734    0.4573 C   0  0  0  0  0  0  0  0  0  0  0  0
   -2.1927   -0.0216   -1.9407 C   0  0  0  0  0  0  0  0  0  0  0  0
    1.7117    0.1685   -0.1698 C   0  0  0  0  0  0  0  0  0  0  0  0
    2.4584    1.2994   -0.4553 C   0  0  0  0  0  0  0  0  0  0  0  0
    2.3065   -0.9887    0.3050 C   0  0  0  0  0  0  0  0  0  0  0  0
    3.8394    1.2726   -0.2607 C   0  0  0  0  0  0  0  0  0  0  0  0
    3.6874   -1.0156    0.4997 C   0  0  0  0  0  0  0  0  0  0  0  0
    4.4539    0.1151    0.2169 C   0  0  0  0  0  0  0  0  0  0  0  0
  1  9  1  0
  2  9  1  0
  3  9  1  0
  4  7  1  0
  5  8  2  0
  6  8  1  0
  6 11  1  0
  7  8  1  0
  7  9  1  0
  7 10  1  0
 11 12  2  0
 11 13  1  0
 12 14  1  0
 13 15  2  0
 14 16  2  0
 15 16  1  0
M  END
>  <PUBCHEM_COMPOUND_CID>  (1) 
5729

>  <PUBCHEM_CONFORMER_RMSD>  (1) 
0.6

>  <PUBCHEM_CONFORMER_DIVERSEORDER>  (1) 
2
16
4
7
13
18
11
9
3
17
15
12
8
14
10
5
6
1

>  <PUBCHEM_MMFF94_PARTIAL_CHARGES>  (1) 
22
1 -0.34
11 0.12
12 -0.15
13 -0.15
14 -0.15
15 -0.15
16 -0.15
2 -0.34
20 0.37
21 0.4
22 0.15
23 0.15
24 0.15
25 0.15
26 0.15
3 -0.34
4 -0.68
5 -0.57
6 -0.55
7 0.34
8 0.57
9 1.02

>  <PUBCHEM_EFFECTIVE_ROTOR_COUNT>  (1) 
4

>  <PUBCHEM_PHARMACOPHORE_FEATURES>  (1) 
5
1 4 acceptor
1 4 donor
1 5 acceptor
1 6 donor
6 11 12 13 14 15 16 rings

>  <PUBCHEM_HEAVY_ATOM_COUNT>  (1) 
16

>  <PUBCHEM_ATOM_DEF_STEREO_COUNT>  (1) 
0

>  <PUBCHEM_ATOM_UDEF_STEREO_COUNT>  (1) 
1

>  <PUBCHEM_BOND_DEF_STEREO_COUNT>  (1) 
0

>  <PUBCHEM_BOND_UDEF_STEREO_COUNT>  (1) 
0

>  <PUBCHEM_ISOTOPIC_ATOM_COUNT>  (1) 
0

>  <PUBCHEM_COMPONENT_COUNT>  (1) 
1

>  <PUBCHEM_CACTVS_TAUTO_COUNT>  (1) 
2

>  <PUBCHEM_CONFORMER_ID>  (1) 
0000166100000002

>  <PUBCHEM_MMFF94_ENERGY>  (1) 
36.9572

>  <PUBCHEM_FEATURE_SELFOVERLAP>  (1) 
25.383

>  <PUBCHEM_SHAPE_FINGERPRINT>  (1) 
10922523 26 17845660239870887518
11132069 177 18343299249868108936
12162725 195 18341891913633837222
12251169 10 18335422357156461348
12916754 54 18187078507205164014
12932764 1 17458619008652138614
13024252 1 13334730241808905279
13296908 3 16515678940583323366
14004511 7 18131636655856051626
14144814 61 18410853274469843066
14325111 11 18409448102704117582
15309172 13 18187082845164343810
15442244 35 18266176133052411186
15653759 3 16370724811997449420
15775835 57 18343867697057909353
17844478 74 17022903436879570860
18186145 218 18334290955607678190
19422 9 18410855482051638102
200 152 18339631352139927791
20112054 13 18114183003707591421
20279233 1 16225758627712623618
20645477 56 16200156486490522705
20645477 70 17968923211617566142
20715346 28 17240479204436168630
2306618 200 18187071854490733277
23402539 116 18060127786935111975
23557571 272 15840970278370378131
23559900 14 18131631176073874386
3248919 1 18271800233549138662
5104073 3 18408601491925672714
74978 22 18337952397926134716

>  <PUBCHEM_SHAPE_MULTIPOLES>  (1) 
290.73
7.6
1.57
1.08
3.55
0.12
0.16
-1.14
-0.59
0.03
-0.1
-1.02
-0.11
-0.61

>  <PUBCHEM_SHAPE_SELFOVERLAP>  (1) 
609.89

>  <PUBCHEM_SHAPE_VOLUME>  (1) 
164.3

>  <PUBCHEM_COORDINATE_TYPE>  (1) 
2
5
10

$$$$
