5731
     RDKit          3D

 21 23  0  0  1  0  0  0  0  0999 V2000
   -5.1297    1.1893   -0.0383 O   0  0  0  0  0  0  0  0  0  0  0  0
   -4.1435    2.6956   -1.4570 O   0  0  0  0  0  0  0  0  0  0  0  0
   -2.9420    0.9624   -0.4738 N   0  0  0  0  0  0  0  0  0  0  0  0
    2.3436   -2.9466   -0.7812 N   0  0  0  0  0  0  0  0  0  0  0  0
    4.0650    2.5614    0.2197 N   0  0  0  0  0  0  0  0  0  0  0  0
   -3.2720   -0.1972    0.2932 C   0  0  0  0  0  0  0  0  0  0  0  0
   -2.2445   -0.5240    1.3587 C   0  0  0  0  0  0  0  0  0  0  0  0
   -1.0529   -1.2286    0.7998 C   0  0  0  0  0  0  0  0  0  0  0  0
    1.1616   -1.1527   -0.1794 C   0  0  0  0  0  0  0  0  0  0  0  0
    2.4101   -0.7289   -0.7149 C   0  0  0  0  0  0  0  0  0  0  0  0
   -4.6301    0.1754    0.8511 C   0  0  0  0  0  0  0  0  0  0  0  0
    1.1455   -2.5481   -0.2323 C   0  0  0  0  0  0  0  0  0  0  0  0
    0.0403   -0.4810    0.3471 C   0  0  0  0  0  0  0  0  0  0  0  0
    2.8769    0.6646   -0.8602 C   0  0  0  0  0  0  0  0  0  0  0  0
   -1.0412   -2.6205    0.7345 C   0  0  0  0  0  0  0  0  0  0  0  0
    3.6399    1.1746    0.3762 C   0  0  0  0  0  0  0  0  0  0  0  0
    3.1144   -1.8543   -1.0759 C   0  0  0  0  0  0  0  0  0  0  0  0
    0.0599   -3.3084    0.2167 C   0  0  0  0  0  0  0  0  0  0  0  0
   -4.0665    1.7168   -0.7281 C   0  0  0  0  0  0  0  0  0  0  0  0
    4.7463    3.0301    1.4274 C   0  0  0  0  0  0  0  0  0  0  0  0
    2.9189    3.4201   -0.0830 C   0  0  0  0  0  0  0  0  0  0  0  0
  1 11  1  0
  1 19  1  0
  2 19  2  0
  3  6  1  0
  3 19  1  0
  4 12  1  0
  4 17  1  0
  5 16  1  0
  5 20  1  0
  5 21  1  0
  6  7  1  0
  6 11  1  0
  7  8  1  0
  8 13  2  0
  8 15  1  0
  9 10  1  0
  9 12  2  0
  9 13  1  0
 10 14  1  0
 10 17  2  0
 12 18  1  0
 14 16  1  0
 15 18  2  0
M  END
>  <PUBCHEM_COMPOUND_CID>  (1) 
5731

>  <PUBCHEM_CONFORMER_RMSD>  (1) 
0.8

>  <PUBCHEM_CONFORMER_DIVERSEORDER>  (1) 
1
76
86
84
29
21
82
88
100
91
96
38
55
99
79
95
54
31
19
44
98
20
93
74
77
63
78
35
68
87
37
71
75
83
97
13
90
45
73
102
48
61
41
81
50
103
43
62
17
53
11
15
18
14
101
46
70
42
40
16
30
80
12
67
36
94
23
39
25
9
34
33
26
65
7
51
56
64
59
5
92
58
49
57
2
28
4
52
72
89
8
6
22
32
69
3
66
10
60
27
24
47
85

>  <PUBCHEM_MMFF94_PARTIAL_CHARGES>  (1) 
26
1 -0.43
10 -0.18
11 0.28
12 -0.15
13 -0.15
14 0.18
15 -0.15
16 0.27
17 -0.3
18 -0.15
19 0.78
2 -0.57
20 0.27
21 0.27
27 0.15
3 -0.73
30 0.37
31 0.15
34 0.15
35 0.15
36 0.27
4 0.03
5 -0.81
6 0.3
7 0.14
8 -0.14

>  <PUBCHEM_EFFECTIVE_ROTOR_COUNT>  (1) 
5.8

>  <PUBCHEM_PHARMACOPHORE_FEATURES>  (1) 
8
1 2 acceptor
1 3 donor
1 4 cation
1 4 donor
1 5 cation
5 1 3 6 11 19 rings
5 4 9 10 12 17 rings
6 8 9 12 13 15 18 rings

>  <PUBCHEM_HEAVY_ATOM_COUNT>  (1) 
21

>  <PUBCHEM_ATOM_DEF_STEREO_COUNT>  (1) 
0

>  <PUBCHEM_ATOM_UDEF_STEREO_COUNT>  (1) 
1

>  <PUBCHEM_BOND_DEF_STEREO_COUNT>  (1) 
0

>  <PUBCHEM_BOND_UDEF_STEREO_COUNT>  (1) 
0

>  <PUBCHEM_ISOTOPIC_ATOM_COUNT>  (1) 
0

>  <PUBCHEM_COMPONENT_COUNT>  (1) 
1

>  <PUBCHEM_CACTVS_TAUTO_COUNT>  (1) 
2

>  <PUBCHEM_CONFORMER_ID>  (1) 
0000166300000001

>  <PUBCHEM_MMFF94_ENERGY>  (1) 
42.8822

>  <PUBCHEM_FEATURE_SELFOVERLAP>  (1) 
40.688

>  <PUBCHEM_SHAPE_FINGERPRINT>  (1) 
10670039 82 17689174713213148812
10871710 139 16893723215855136132
11370993 70 18410574032507276992
11725454 13 18113896082649039882
12100795 323 18118401980169082764
12107183 9 18335967762907282424
12403259 415 18337124422346433987
12549972 3 17677915473067099298
12730499 353 18117292376127290131
12769317 202 18343578547143686352
13034934 17 18262532501688752147
13134695 92 18051413968211928678
13402501 40 18334295340553419020
13965767 371 18114169865866811180
14251764 38 18194114355458192476
14466204 15 18046059359632597970
14468879 13 18188219808938291273
14848178 96 18413394236819604680
14932701 244 16697214000702340364
14957384 54 18263635333474220216
17980427 23 18127664124962487994
18186145 218 18268445550432002691
20567600 299 18050849918509034877
20621476 13 18410857642225281932
20645477 56 18336277824310627843
21304303 282 17342910936547174406
21388113 180 18409447028815379996
22122407 14 17768841696678015641
22892500 29 18337677390928014334
23227448 37 18267869565225951165
23559900 14 18272376334914446978
238918 7 18263624243626588324
283562 15 17473279678160928998
3187 122 17610910371224116347
43658 37 18411983567801448227
4371632 12 14545345518053867824
474 4 18343022194264981594
495365 180 18272367564379725330
57124632 79 18411132537522552906
5969126 39 17408539338290236550
633830 44 17773618060491709819
7399639 24 18263375814338996491
7471813 234 17487615226183663722
7808743 9 17900559057547018372
9862522 239 18124312972133291960
9981440 41 18196368337184024802

>  <PUBCHEM_SHAPE_MULTIPOLES>  (1) 
405.49
9.79
4.43
1.17
4.51
0.27
-0.06
11
-0.3
-3.42
0.26
0.03
0.33
2.88

>  <PUBCHEM_SHAPE_SELFOVERLAP>  (1) 
867.085

>  <PUBCHEM_SHAPE_VOLUME>  (1) 
228.9

>  <PUBCHEM_COORDINATE_TYPE>  (1) 
2
5
10

$$$$
