5732
     RDKit          3D

 23 25  0  0  0  0  0  0  0  0999 V2000
   -0.3553   -1.9444   -1.4582 O   0  0  0  0  0  0  0  0  0  0  0  0
   -1.8657    0.5312    0.2029 N   0  0  0  0  0  0  0  0  0  0  0  0
   -0.4996    2.2015   -0.3847 N   0  0  0  0  0  0  0  0  0  0  0  0
    0.1982   -3.6172    0.0469 N   0  0  0  0  0  0  0  0  0  0  0  0
   -0.5870    0.0650    0.3721 C   0  0  0  0  0  0  0  0  0  0  0  0
    0.2307    1.1077    0.0050 C   0  0  0  0  0  0  0  0  0  0  0  0
   -1.7599    1.8388   -0.2599 C   0  0  0  0  0  0  0  0  0  0  0  0
   -0.2761   -1.2962    0.8546 C   0  0  0  0  0  0  0  0  0  0  0  0
    1.6614    1.0782    0.0175 C   0  0  0  0  0  0  0  0  0  0  0  0
   -3.0792   -0.1132    0.4274 C   0  0  0  0  0  0  0  0  0  0  0  0
   -4.2303    0.5443    0.1910 C   0  0  0  0  0  0  0  0  0  0  0  0
   -2.9766    2.5357   -0.5105 C   0  0  0  0  0  0  0  0  0  0  0  0
   -0.1508   -2.3047   -0.2956 C   0  0  0  0  0  0  0  0  0  0  0  0
   -4.1557    1.9207   -0.2964 C   0  0  0  0  0  0  0  0  0  0  0  0
    2.3652    0.6615   -1.1154 C   0  0  0  0  0  0  0  0  0  0  0  0
    2.3619    1.4660    1.1627 C   0  0  0  0  0  0  0  0  0  0  0  0
   -5.5857   -0.0511    0.3980 C   0  0  0  0  0  0  0  0  0  0  0  0
    4.4554    1.0202    0.0420 C   0  0  0  0  0  0  0  0  0  0  0  0
    3.7598    0.6324   -1.1032 C   0  0  0  0  0  0  0  0  0  0  0  0
    3.7564    1.4371    1.1748 C   0  0  0  0  0  0  0  0  0  0  0  0
    0.3496   -4.6739   -0.9509 C   0  0  0  0  0  0  0  0  0  0  0  0
    0.4369   -4.0288    1.4251 C   0  0  0  0  0  0  0  0  0  0  0  0
    5.9463    0.9893    0.0551 C   0  0  0  0  0  0  0  0  0  0  0  0
  1 13  2  0
  2  5  1  0
  2  7  1  0
  2 10  1  0
  3  6  1  0
  3  7  2  0
  4 13  1  0
  4 21  1  0
  4 22  1  0
  5  6  2  0
  5  8  1  0
  6  9  1  0
  7 12  1  0
  8 13  1  0
  9 15  2  0
  9 16  1  0
 10 11  2  0
 11 14  1  0
 11 17  1  0
 12 14  2  0
 15 19  1  0
 16 20  2  0
 18 19  2  0
 18 20  1  0
 18 23  1  0
M  END
>  <PUBCHEM_COMPOUND_CID>  (1) 
5732

>  <PUBCHEM_CONFORMER_RMSD>  (1) 
0.6

>  <PUBCHEM_CONFORMER_DIVERSEORDER>  (1) 
1
23
16
15
9
21
7
17
5
20
8
10
18
13
6
19
14
22
2
4
12
11
3

>  <PUBCHEM_MMFF94_PARTIAL_CHARGES>  (1) 
30
1 -0.57
10 -0.18
11 -0.14
12 -0.11
13 0.57
14 -0.15
15 -0.15
16 -0.15
17 0.14
18 -0.14
19 -0.15
2 0.33
20 -0.15
21 0.3
22 0.3
23 0.14
26 0.15
27 0.15
28 0.15
29 0.15
3 -0.57
30 0.15
34 0.15
35 0.15
4 -0.66
5 -0.33
6 0.17
7 0.14
8 0.24
9 0.05

>  <PUBCHEM_EFFECTIVE_ROTOR_COUNT>  (1) 
4

>  <PUBCHEM_PHARMACOPHORE_FEATURES>  (1) 
5
1 1 acceptor
3 2 3 7 cation
5 2 3 5 6 7 rings
6 2 7 10 11 12 14 rings
6 9 15 16 18 19 20 rings

>  <PUBCHEM_HEAVY_ATOM_COUNT>  (1) 
23

>  <PUBCHEM_ATOM_DEF_STEREO_COUNT>  (1) 
0

>  <PUBCHEM_ATOM_UDEF_STEREO_COUNT>  (1) 
0

>  <PUBCHEM_BOND_DEF_STEREO_COUNT>  (1) 
0

>  <PUBCHEM_BOND_UDEF_STEREO_COUNT>  (1) 
0

>  <PUBCHEM_ISOTOPIC_ATOM_COUNT>  (1) 
0

>  <PUBCHEM_COMPONENT_COUNT>  (1) 
1

>  <PUBCHEM_CACTVS_TAUTO_COUNT>  (1) 
1

>  <PUBCHEM_CONFORMER_ID>  (1) 
0000166400000001

>  <PUBCHEM_MMFF94_ENERGY>  (1) 
58.3681

>  <PUBCHEM_FEATURE_SELFOVERLAP>  (1) 
25.487

>  <PUBCHEM_SHAPE_FINGERPRINT>  (1) 
11488393 25 18196104252261071427
116883 192 17621318365377710271
11963148 33 18187925140566943803
12236239 1 17168142343188337320
12500047 106 18340203085665322952
12553582 1 17112422667416021322
12592029 89 18410576141362320651
12788726 201 17758122874870640594
12839892 36 18335687322215706563
13004483 165 17549810531780992342
13257819 37 18189921818657666374
133893 2 17904778682025194600
13540713 4 17899141512629306933
14863182 85 18261971690771598599
14866123 147 18339637970505682786
15042514 8 18119253002295094523
15927050 60 18411980269720966742
18681886 176 18260546770509589984
19591789 44 18411699867936784671
20028762 73 18199190779612136967
20197701 30 18410853248352029206
20567600 347 18334581217781768187
20602899 9 18272941543561028978
20642791 13 17622710329823289562
20905425 154 17978796709542779156
21033648 29 18270948124759796296
22224240 67 18343022229205053233
22956985 138 17825381890880336947
23366157 5 17826520954940100921
23402539 116 18341325669261697708
23558518 356 17831851722667590160
23559900 14 17833263121819396491
23728640 28 18336546139771346226
238918 7 18341065106459846931
283562 15 18343306924854043113
3298306 158 18339359648213633366
3383291 50 18272092635466742246
3729539 64 18128551362237039518
3759504 43 18334016133250335854
43471831 8 18336264539987142329
465052 167 17604442906749267601
474229 33 18408042935586891129
5265222 85 18337401517453463620
5385378 56 18268156361947054529
59755656 215 18408603639710273141
59755656 520 18410568518069689838
6138700 20 18193844730723772758
6669772 16 18273217465593990606
69090 78 18272650190091251052
7364860 26 18123466073138480115
81228 2 17837194249344875395

>  <PUBCHEM_SHAPE_MULTIPOLES>  (1) 
452.52
9.19
4.46
1.13
1.57
8.26
-0.02
-7.33
-0.54
-0.28
0.3
0.61
0.46
0.55

>  <PUBCHEM_SHAPE_SELFOVERLAP>  (1) 
977.285

>  <PUBCHEM_SHAPE_VOLUME>  (1) 
252.4

>  <PUBCHEM_COORDINATE_TYPE>  (1) 
2
5
10

$$$$
