5735
     RDKit          3D

 27 30  0  0  1  0  0  0  0  0999 V2000
   -6.1898   -2.9779   -0.1663 Cl  0  0  0  0  0  0  0  0  0  0  0  0
    0.2421   -0.5863    0.6291 O   0  0  0  0  0  0  0  0  0  0  0  0
    1.6032   -0.3113    2.4453 O   0  0  0  0  0  0  0  0  0  0  0  0
   -2.2506    2.2600   -1.6816 O   0  0  0  0  0  0  0  0  0  0  0  0
    2.3878   -1.4185    0.5590 N   0  0  0  0  0  0  0  0  0  0  0  0
    4.6166   -2.1171   -1.0905 N   0  0  0  0  0  0  0  0  0  0  0  0
   -1.6669    0.7157    0.0321 N   0  0  0  0  0  0  0  0  0  0  0  0
    1.4003    2.2058    1.2531 N   0  0  0  0  0  0  0  0  0  0  0  0
    0.1700    3.6541   -0.8779 N   0  0  0  0  0  0  0  0  0  0  0  0
   -3.7378    0.0719   -0.9109 N   0  0  0  0  0  0  0  0  0  0  0  0
    2.1697   -1.9219   -0.7987 C   0  0  0  0  0  0  0  0  0  0  0  0
    3.6616   -1.7992    1.1635 C   0  0  0  0  0  0  0  0  0  0  0  0
    3.3711   -1.6221   -1.6962 C   0  0  0  0  0  0  0  0  0  0  0  0
    4.8304   -1.4976    0.2261 C   0  0  0  0  0  0  0  0  0  0  0  0
   -0.5266    0.5785    0.9512 C   0  0  0  0  0  0  0  0  0  0  0  0
    1.4241   -0.7355    1.3050 C   0  0  0  0  0  0  0  0  0  0  0  0
    5.7545   -1.8567   -1.9711 C   0  0  0  0  0  0  0  0  0  0  0  0
    0.2723    1.8068    0.6557 C   0  0  0  0  0  0  0  0  0  0  0  0
   -0.3032    2.5153   -0.3685 C   0  0  0  0  0  0  0  0  0  0  0  0
   -1.5268    1.8495   -0.7927 C   0  0  0  0  0  0  0  0  0  0  0  0
   -2.7453   -0.1614   -0.0166 C   0  0  0  0  0  0  0  0  0  0  0  0
   -2.7446   -1.2384    0.8617 C   0  0  0  0  0  0  0  0  0  0  0  0
    1.9103    3.3594    0.7584 C   0  0  0  0  0  0  0  0  0  0  0  0
    1.3111    4.0649   -0.2810 C   0  0  0  0  0  0  0  0  0  0  0  0
   -3.8178   -2.1215    0.8201 C   0  0  0  0  0  0  0  0  0  0  0  0
   -4.7643   -0.8077   -0.9222 C   0  0  0  0  0  0  0  0  0  0  0  0
   -4.8512   -1.9091   -0.0859 C   0  0  0  0  0  0  0  0  0  0  0  0
  1 27  1  0
  2 15  1  0
  2 16  1  0
  3 16  2  0
  4 20  2  0
  5 11  1  0
  5 12  1  0
  5 16  1  0
  6 13  1  0
  6 14  1  0
  6 17  1  0
  7 15  1  0
  7 20  1  0
  7 21  1  0
  8 18  2  0
  8 23  1  0
  9 19  2  0
  9 24  1  0
 10 21  2  0
 10 26  1  0
 11 13  1  0
 12 14  1  0
 15 18  1  0
 18 19  1  0
 19 20  1  0
 21 22  1  0
 22 25  2  0
 23 24  2  0
 25 27  1  0
 26 27  2  0
M  END
>  <PUBCHEM_COMPOUND_CID>  (1) 
5735

>  <PUBCHEM_CONFORMER_RMSD>  (1) 
0.8

>  <PUBCHEM_CONFORMER_DIVERSEORDER>  (1) 
1
24
23
32
36
31
22
5
19
29
21
28
35
15
18
13
9
27
16
30
33
26
11
8
25
12
17
7
3
6
20
2
4
34
10
14

>  <PUBCHEM_MMFF94_PARTIAL_CHARGES>  (1) 
32
1 -0.18
10 -0.62
11 0.3
12 0.3
13 0.27
14 0.27
15 0.72
16 0.78
17 0.27
18 0.17
19 0.4
2 -0.43
20 0.54
21 0.43
22 -0.15
23 0.16
24 0.16
25 -0.15
26 0.16
27 0.18
3 -0.57
4 -0.57
40 0.15
41 0.15
42 0.15
43 0.15
44 0.15
5 -0.66
6 -0.81
7 -0.48
8 -0.62
9 -0.62

>  <PUBCHEM_EFFECTIVE_ROTOR_COUNT>  (1) 
5.6

>  <PUBCHEM_PHARMACOPHORE_FEATURES>  (1) 
9
1 3 acceptor
1 4 acceptor
1 6 cation
1 8 acceptor
1 9 acceptor
5 7 15 18 19 20 rings
6 10 21 22 25 26 27 rings
6 5 6 11 12 13 14 rings
6 8 9 18 19 23 24 rings

>  <PUBCHEM_HEAVY_ATOM_COUNT>  (1) 
27

>  <PUBCHEM_ATOM_DEF_STEREO_COUNT>  (1) 
0

>  <PUBCHEM_ATOM_UDEF_STEREO_COUNT>  (1) 
1

>  <PUBCHEM_BOND_DEF_STEREO_COUNT>  (1) 
0

>  <PUBCHEM_BOND_UDEF_STEREO_COUNT>  (1) 
0

>  <PUBCHEM_ISOTOPIC_ATOM_COUNT>  (1) 
0

>  <PUBCHEM_COMPONENT_COUNT>  (1) 
1

>  <PUBCHEM_CACTVS_TAUTO_COUNT>  (1) 
1

>  <PUBCHEM_CONFORMER_ID>  (1) 
0000166700000001

>  <PUBCHEM_MMFF94_ENERGY>  (1) 
76.2212

>  <PUBCHEM_FEATURE_SELFOVERLAP>  (1) 
45.797

>  <PUBCHEM_SHAPE_FINGERPRINT>  (1) 
11477941 20 18195550129340383828
11488393 25 18193286405964254656
11578080 2 16156758745193750925
11640471 11 16883022283783899264
12422481 6 17981572126527059696
12553582 1 18334858264800060939
12788726 201 17972882462303764001
13009979 54 18060149738639341737
133893 2 18121526757960439593
13533116 47 18056479676680497083
13757389 114 17910130022524971545
14251740 57 18198339757501539651
14251757 5 18190744124717291581
14251764 30 18202290177677617398
14739800 52 11386628750940515023
14790565 3 17545596751756656944
15324884 4 17985799615206645616
15475509 8 18198341746155462621
17357779 13 18200297841132607383
17492 54 18190478236403673548
1813 80 18342742909537170234
19319366 153 17099181906049323601
20028762 73 17113540874820158967
20645477 70 18192139619953152635
20693207 138 18041265652297174159
21344244 246 18195538201852341708
22182313 1 18266433516988223264
2260408 40 18130793411920718067
23557571 272 18126564518749615442
23559900 14 18337661010418170929
255183 451 18339928237812945295
4017518 198 17693386946828724684
4280585 95 18408878529948367602
46194498 28 18264201594705053543
469060 322 18269573657994311738
59755656 215 18045780345334693365
621550 5 17917712349420084514
6669772 16 17908711970742864156
6823239 73 18335409197376718803
9709674 26 18044083778114472683

>  <PUBCHEM_SHAPE_MULTIPOLES>  (1) 
510.02
10.84
4.61
1.62
5.36
4.56
-0.04
-14.64
3.68
-2.07
0.92
-1.43
-0.33
1.79

>  <PUBCHEM_SHAPE_SELFOVERLAP>  (1) 
1102.013

>  <PUBCHEM_SHAPE_VOLUME>  (1) 
280.8

>  <PUBCHEM_COORDINATE_TYPE>  (1) 
2
5
10

$$$$
