5744
     RDKit          3D

 29 32  0  0  1  0  0  0  0  0999 V2000
    2.4179   -0.9643   -1.8757 O   0  0  0  0  0  0  0  0  0  0  0  0
   -0.4958    1.4436    1.7184 O   0  0  0  0  0  0  0  0  0  0  0  0
    4.5126   -1.7582    0.5056 O   0  0  0  0  0  0  0  0  0  0  0  0
    5.4448    0.7433   -0.1830 O   0  0  0  0  0  0  0  0  0  0  0  0
   -6.8343    1.3871   -1.3814 O   0  0  0  0  0  0  0  0  0  0  0  0
    5.1426    3.0336   -0.2073 O   0  0  0  0  0  0  0  0  0  0  0  0
    1.1914   -0.6984    0.2386 C   0  0  0  0  0  0  0  0  0  0  0  0
    0.0570   -1.6172   -0.2648 C   0  0  0  0  0  0  0  0  0  0  0  0
   -1.3157   -1.2877    0.3409 C   0  0  0  0  0  0  0  0  0  0  0  0
   -1.6903    0.1840   -0.0303 C   0  0  0  0  0  0  0  0  0  0  0  0
    2.3932   -1.3456   -0.5034 C   0  0  0  0  0  0  0  0  0  0  0  0
    0.8371    0.7440   -0.1775 C   0  0  0  0  0  0  0  0  0  0  0  0
   -3.1410    0.5922    0.4557 C   0  0  0  0  0  0  0  0  0  0  0  0
   -0.5540    1.1944    0.3211 C   0  0  0  0  0  0  0  0  0  0  0  0
    0.6282   -3.0202   -0.0772 C   0  0  0  0  0  0  0  0  0  0  0  0
    2.1289   -2.8654   -0.4010 C   0  0  0  0  0  0  0  0  0  0  0  0
   -2.3809   -2.2600   -0.1901 C   0  0  0  0  0  0  0  0  0  0  0  0
    1.4182   -0.7885    1.7732 C   0  0  0  0  0  0  0  0  0  0  0  0
   -4.1423   -0.4832    0.0122 C   0  0  0  0  0  0  0  0  0  0  0  0
   -3.7702   -1.9124    0.3226 C   0  0  0  0  0  0  0  0  0  0  0  0
   -3.5022    1.9574   -0.1991 C   0  0  0  0  0  0  0  0  0  0  0  0
   -3.2648    0.7238    1.9906 C   0  0  0  0  0  0  0  0  0  0  0  0
    3.7309   -0.9329    0.0354 C   0  0  0  0  0  0  0  0  0  0  0  0
   -4.9865    2.2824   -0.1489 C   0  0  0  0  0  0  0  0  0  0  0  0
   -5.3152   -0.2195   -0.5875 C   0  0  0  0  0  0  0  0  0  0  0  0
   -5.7833    1.1721   -0.7813 C   0  0  0  0  0  0  0  0  0  0  0  0
    4.0550    0.5442   -0.0340 C   0  0  0  0  0  0  0  0  0  0  0  0
    5.8647    2.0471   -0.2582 C   0  0  0  0  0  0  0  0  0  0  0  0
    7.3541    2.1044   -0.4135 C   0  0  0  0  0  0  0  0  0  0  0  0
  1 11  1  0
  2 14  1  0
  3 23  2  0
  4 27  1  0
  4 28  1  0
  5 26  2  0
  6 28  2  0
  7  8  1  0
  7 11  1  0
  7 12  1  0
  7 18  1  0
  8  9  1  0
  8 15  1  0
  9 10  1  0
  9 17  1  0
 10 13  1  0
 10 14  1  0
 11 16  1  0
 11 23  1  0
 12 14  1  0
 13 19  1  0
 13 21  1  0
 13 22  1  0
 15 16  1  0
 17 20  1  0
 19 20  1  0
 19 25  2  0
 21 24  1  0
 23 27  1  0
 24 26  1  0
 25 26  1  0
 28 29  1  0
M  END
>  <PUBCHEM_COMPOUND_CID>  (1) 
5744

>  <PUBCHEM_CONFORMER_RMSD>  (1) 
0.8

>  <PUBCHEM_CONFORMER_DIVERSEORDER>  (1) 
1
13
4
17
15
12
10
6
9
5
14
11
7
16
8
2
3

>  <PUBCHEM_MMFF94_PARTIAL_CHARGES>  (1) 
21
1 -0.68
11 0.34
13 0.14
14 0.28
19 -0.28
2 -0.68
20 0.14
23 0.45
24 0.06
25 -0.14
26 0.49
27 0.34
28 0.66
29 0.06
3 -0.57
4 -0.43
5 -0.57
52 0.4
55 0.4
56 0.15
6 -0.57

>  <PUBCHEM_EFFECTIVE_ROTOR_COUNT>  (1) 
5.8

>  <PUBCHEM_PHARMACOPHORE_FEATURES>  (1) 
11
1 1 acceptor
1 1 donor
1 2 acceptor
1 2 donor
1 3 acceptor
1 5 acceptor
1 6 acceptor
5 7 8 11 15 16 rings
6 13 19 21 24 25 26 rings
6 7 8 9 10 12 14 rings
6 9 10 13 17 19 20 rings

>  <PUBCHEM_HEAVY_ATOM_COUNT>  (1) 
29

>  <PUBCHEM_ATOM_DEF_STEREO_COUNT>  (1) 
7

>  <PUBCHEM_ATOM_UDEF_STEREO_COUNT>  (1) 
0

>  <PUBCHEM_BOND_DEF_STEREO_COUNT>  (1) 
0

>  <PUBCHEM_BOND_UDEF_STEREO_COUNT>  (1) 
0

>  <PUBCHEM_ISOTOPIC_ATOM_COUNT>  (1) 
0

>  <PUBCHEM_COMPONENT_COUNT>  (1) 
1

>  <PUBCHEM_CACTVS_TAUTO_COUNT>  (1) 
10

>  <PUBCHEM_CONFORMER_ID>  (1) 
0000167000000001

>  <PUBCHEM_MMFF94_ENERGY>  (1) 
91.0002

>  <PUBCHEM_FEATURE_SELFOVERLAP>  (1) 
55.915

>  <PUBCHEM_SHAPE_FINGERPRINT>  (1) 
10 15 18113903779351785889
10366900 7 17203607081977822515
10498660 4 18341057332436555131
10675989 125 17903353711204246921
10835480 77 18335698330401775141
10906281 52 17917723349147840203
11135609 187 18341048528576836713
11578080 2 17532068549808461236
11961588 58 18334287657062069923
12236239 1 17967530159911751603
12293681 160 18059860584023631538
12422481 6 17385722521623231308
12788726 201 17560522785527862025
13224815 77 18272374114162842091
13631057 29 18129380569923994023
13690498 29 17630039601605093879
13911987 19 17918277571031448807
14117953 113 18407762547717507284
14251764 30 10879994657463804308
14528608 73 18412826880472025372
14767858 380 18131344224302101285
14787075 74 18202002148464001674
14790565 3 18338801220934627620
14931854 50 18060146448826813184
15196674 1 18410857646309116258
15788980 27 17240772743944585915
15961568 22 18187081750101249436
17492 54 18202284719090032688
17980427 23 17531250620847920574
18608769 82 18409169944323504475
200 152 17489013857141406575
20511986 3 18187072962381233903
20715895 44 18409166619353958172
21033648 144 18114173134210375439
21033650 10 15051187704526467834
21304253 335 18187368757211199238
21315764 268 18115300073272709972
22950370 63 9727630618105525554
23522609 53 17631466592094735937
23559900 14 18198345048632268550
2838139 119 18116428146944564237
3004659 81 18264205799045850810
335352 9 18338797806805373542
34797466 226 18059864951746986413
34934 24 18408601452896829031
350125 39 18341335599700300531
4073 2 17967537908612918226
4340502 62 16950572026103013611
465052 167 8502655922171163018
5104073 3 18187090528771049427
59755656 215 18412542132693948412
9981440 41 18261682574827042362

>  <PUBCHEM_SHAPE_MULTIPOLES>  (1) 
561.59
14.78
3.14
1.17
7.6
0.41
-0.34
-12.45
4
2
0.34
-0.58
-0.11
0.12

>  <PUBCHEM_SHAPE_SELFOVERLAP>  (1) 
1201.4

>  <PUBCHEM_SHAPE_VOLUME>  (1) 
306.9

>  <PUBCHEM_COORDINATE_TYPE>  (1) 
2
5
10

$$$$
