5749
     RDKit          3D

 25 26  0  0  1  0  0  0  0  0999 V2000
    2.2981    0.5146    1.9018 O   0  0  0  0  0  0  0  0  0  0  0  0
   -0.6056   -0.5514    0.0813 O   0  0  0  0  0  0  0  0  0  0  0  0
   -0.3139    0.1400    2.2604 O   0  0  0  0  0  0  0  0  0  0  0  0
   -4.2761   -0.1695   -0.2597 N   0  0  0  0  0  0  0  0  0  0  0  0
    1.6582    1.3110   -0.2435 C   0  0  0  0  0  0  0  0  0  0  0  0
    0.9626    2.5430    0.3513 C   0  0  0  0  0  0  0  0  0  0  0  0
    3.1172    1.6260   -0.5997 C   0  0  0  0  0  0  0  0  0  0  0  0
    1.5815    0.1296    0.7219 C   0  0  0  0  0  0  0  0  0  0  0  0
    1.0722    3.7533   -0.5731 C   0  0  0  0  0  0  0  0  0  0  0  0
    3.2232    2.8381   -1.5224 C   0  0  0  0  0  0  0  0  0  0  0  0
    2.5232    4.0581   -0.9319 C   0  0  0  0  0  0  0  0  0  0  0  0
    2.2006   -1.1809    0.2444 C   0  0  0  0  0  0  0  0  0  0  0  0
   -2.8421    0.0621   -0.5664 C   0  0  0  0  0  0  0  0  0  0  0  0
    0.1231   -0.0799    1.1372 C   0  0  0  0  0  0  0  0  0  0  0  0
   -4.6548   -1.6366   -0.5037 C   0  0  0  0  0  0  0  0  0  0  0  0
   -4.5805    0.1648    1.2068 C   0  0  0  0  0  0  0  0  0  0  0  0
   -1.9900   -0.7970    0.3469 C   0  0  0  0  0  0  0  0  0  0  0  0
   -5.1711    0.7083   -1.1452 C   0  0  0  0  0  0  0  0  0  0  0  0
    2.1272   -1.5371   -1.1023 C   0  0  0  0  0  0  0  0  0  0  0  0
    2.8404   -2.0225    1.1544 C   0  0  0  0  0  0  0  0  0  0  0  0
   -4.4373   -1.9714   -1.9631 C   0  0  0  0  0  0  0  0  0  0  0  0
   -4.2888    1.6286    1.4551 C   0  0  0  0  0  0  0  0  0  0  0  0
    2.6933   -2.7348   -1.5389 C   0  0  0  0  0  0  0  0  0  0  0  0
    3.4065   -3.2202    0.7177 C   0  0  0  0  0  0  0  0  0  0  0  0
    3.3329   -3.5763   -0.6290 C   0  0  0  0  0  0  0  0  0  0  0  0
  1  8  1  0
  2 14  1  0
  2 17  1  0
  3 14  2  0
  4 13  1  0
  4 15  1  0
  4 16  1  0
  4 18  1  0
  5  6  1  0
  5  7  1  0
  5  8  1  0
  6  9  1  0
  7 10  1  0
  8 12  1  0
  8 14  1  0
  9 11  1  0
 10 11  1  0
 12 19  2  0
 12 20  1  0
 13 17  1  0
 15 21  1  0
 16 22  1  0
 19 23  1  0
 20 24  2  0
 23 25  2  0
 24 25  1  0
M  CHG  1   4   1
M  END
>  <PUBCHEM_COMPOUND_CID>  (1) 
5749

>  <PUBCHEM_CONFORMER_RMSD>  (1) 
1

>  <PUBCHEM_CONFORMER_DIVERSEORDER>  (1) 
1
157
265
67
176
282
269
145
270
183
252
146
276
68
39
121
263
118
114
160
70
201
200
186
246
233
257
253
271
112
131
138
129
247
206
86
102
40
190
197
235
73
124
77
199
218
130
96
35
87
92
107
127
223
198
80
93
181
103
91
55
192
151
139
238
79
237
172
69
31
277
76
34
97
161
78
36
166
58
173
116
165
287
262
226
211
123
100
47
222
266
255
268
136
12
215
94
189
213
272
90
184
27
286
106
158
256
204
258
132
64
37
152
167
2
290
104
220
142
41
275
110
135
289
147
221
19
9
98
274
88
17
195
144
24
164
32
6
283
216
115
227
60
219
273
212
254
278
52
279
205
8
48
155
133
251
243
111
13
82
180
71
182
21
193
259
85
250
236
95
261
171
25
280
249
117
168
178
141
162
207
140
84
42
177
120
30
43
159
59
214
126
230
125
234
7
288
66
202
187
148
26
62
83
217
224
285
225
81
149
101
74
228
46
18
210
49
54
128
229
23
28
29
240
154
196
11
248
281
20
38
44
99
22
105
260
194
156
170
209
61
208
143
113
203
267
245
109
150
72
33
134
174
53
5
242
56
284
241
153
179
10
122
163
137
89
14
188
185
51
50
16
3
108
264
239
15
232
175
4
75
231
119
65
244
57
63
45
191
169

>  <PUBCHEM_MMFF94_PARTIAL_CHARGES>  (1) 
23
1 -0.68
12 -0.14
13 0.5
14 0.66
15 0.5
16 0.5
17 0.28
18 0.5
19 -0.15
2 -0.43
20 -0.15
23 -0.15
24 -0.15
25 -0.15
3 -0.57
4 -1.01
48 0.4
49 0.15
50 0.15
57 0.15
58 0.15
59 0.15
8 0.48

>  <PUBCHEM_EFFECTIVE_ROTOR_COUNT>  (1) 
10.2

>  <PUBCHEM_PHARMACOPHORE_FEATURES>  (1) 
6
1 1 acceptor
1 1 donor
1 3 acceptor
1 4 cation
6 12 19 20 23 24 25 rings
6 5 6 7 9 10 11 rings

>  <PUBCHEM_HEAVY_ATOM_COUNT>  (1) 
25

>  <PUBCHEM_ATOM_DEF_STEREO_COUNT>  (1) 
0

>  <PUBCHEM_ATOM_UDEF_STEREO_COUNT>  (1) 
1

>  <PUBCHEM_BOND_DEF_STEREO_COUNT>  (1) 
0

>  <PUBCHEM_BOND_UDEF_STEREO_COUNT>  (1) 
0

>  <PUBCHEM_ISOTOPIC_ATOM_COUNT>  (1) 
0

>  <PUBCHEM_COMPONENT_COUNT>  (1) 
1

>  <PUBCHEM_CACTVS_TAUTO_COUNT>  (1) 
1

>  <PUBCHEM_CONFORMER_ID>  (1) 
0000167500000001

>  <PUBCHEM_MMFF94_ENERGY>  (1) 
75.3423

>  <PUBCHEM_FEATURE_SELFOVERLAP>  (1) 
30.454

>  <PUBCHEM_SHAPE_FINGERPRINT>  (1) 
10906281 52 18188224156089143080
10940486 97 18202003183593695247
11265709 11 18192436264680902490
116883 192 18195525887706336940
12617007 42 18336261228546193042
12730499 353 18117006683043976963
12788726 201 17756153280441987066
13004483 165 18048020892756452738
13009979 54 18059021566415276505
13533116 47 18411981399687034507
13681431 1 18410019806054011392
13899415 180 18191296096528666610
14004458 79 17760375392391893678
14556957 393 17612632980187003062
15163728 17 17680454408808883908
15842332 3 18202291324918317961
17492 89 18343016723025967767
17539 30 17688306790273632142
17818456 19 17701830877710886929
1813 80 18196375823000576826
20626108 58 18272075068264245275
21033648 144 17753320160883412925
21304303 282 17190634193669481532
21860390 5 18261105300977762596
2255824 54 18410294713546289034
23419403 2 17268872864189878762
23559900 14 18342165666407464851
238 59 18265341787956848714
26353 1 18195264217008373534
3060560 45 18194117645540206980
312423 11 18342460352940831523
312425 83 18334563647581919389
340366 18 18198906916453689797
376196 1 17752757210882732849
38695281 34 18194122043739653052
46194498 28 18334287678547547327
5081480 168 18116733845151806741
5281201 14 18334573530132894407
5969126 39 18048321038277648478
633830 44 18040711451292303043
7471813 234 18117847607876826310
9841814 1 18114177489301971186
9925002 15 17831883256518015596
9981440 41 17904758126438635137

>  <PUBCHEM_SHAPE_MULTIPOLES>  (1) 
491.9
9.75
4.73
1.75
15.41
1.99
-0.21
-3.01
2.12
-7.13
1.87
0.46
-0.2
-1.94

>  <PUBCHEM_SHAPE_SELFOVERLAP>  (1) 
1003.589

>  <PUBCHEM_SHAPE_VOLUME>  (1) 
284

>  <PUBCHEM_COORDINATE_TYPE>  (1) 
2
5
10

$$$$
