5758
     RDKit          3D

 11 11  0  0  0  0  0  0  0  0999 V2000
    0.3483    2.7304    0.0274 Cl  0  0  0  0  0  0  0  0  0  0  0  0
    0.3505   -2.7299    0.0278 Cl  0  0  0  0  0  0  0  0  0  0  0  0
    2.2215   -0.0001   -1.2034 O   0  0  0  0  0  0  0  0  0  0  0  0
    2.3844    0.0009    1.0638 O   0  0  0  0  0  0  0  0  0  0  0  0
    0.2288    0.0002    0.0259 C   0  0  0  0  0  0  0  0  0  0  0  0
   -0.4690    1.2079    0.0161 C   0  0  0  0  0  0  0  0  0  0  0  0
   -0.4680   -1.2080    0.0161 C   0  0  0  0  0  0  0  0  0  0  0  0
   -1.8638    1.2074   -0.0035 C   0  0  0  0  0  0  0  0  0  0  0  0
   -1.8627   -1.2087   -0.0036 C   0  0  0  0  0  0  0  0  0  0  0  0
   -2.5606   -0.0010   -0.0134 C   0  0  0  0  0  0  0  0  0  0  0  0
    1.6906    0.0009    0.0470 C   0  0  0  0  0  0  0  0  0  0  0  0
  1  6  1  0
  2  7  1  0
  3 11  1  0
  4 11  2  0
  5  6  2  0
  5  7  1  0
  5 11  1  0
  6  8  1  0
  7  9  2  0
  8 10  2  0
  9 10  1  0
M  END
>  <PUBCHEM_COMPOUND_CID>  (1) 
5758

>  <PUBCHEM_CONFORMER_RMSD>  (1) 
0.4

>  <PUBCHEM_CONFORMER_DIVERSEORDER>  (1) 
1

>  <PUBCHEM_MMFF94_PARTIAL_CHARGES>  (1) 
15
1 -0.18
10 -0.15
11 0.63
12 0.15
13 0.15
14 0.15
15 0.5
2 -0.18
3 -0.65
4 -0.57
5 0.09
6 0.18
7 0.18
8 -0.15
9 -0.15

>  <PUBCHEM_EFFECTIVE_ROTOR_COUNT>  (1) 
1

>  <PUBCHEM_PHARMACOPHORE_FEATURES>  (1) 
4
1 3 acceptor
1 4 acceptor
3 3 4 11 anion
6 5 6 7 8 9 10 rings

>  <PUBCHEM_HEAVY_ATOM_COUNT>  (1) 
11

>  <PUBCHEM_ATOM_DEF_STEREO_COUNT>  (1) 
0

>  <PUBCHEM_ATOM_UDEF_STEREO_COUNT>  (1) 
0

>  <PUBCHEM_BOND_DEF_STEREO_COUNT>  (1) 
0

>  <PUBCHEM_BOND_UDEF_STEREO_COUNT>  (1) 
0

>  <PUBCHEM_ISOTOPIC_ATOM_COUNT>  (1) 
0

>  <PUBCHEM_COMPONENT_COUNT>  (1) 
1

>  <PUBCHEM_CACTVS_TAUTO_COUNT>  (1) 
1

>  <PUBCHEM_CONFORMER_ID>  (1) 
0000167E00000001

>  <PUBCHEM_MMFF94_ENERGY>  (1) 
31.1707

>  <PUBCHEM_FEATURE_SELFOVERLAP>  (1) 
20.355

>  <PUBCHEM_SHAPE_FINGERPRINT>  (1) 
12423570 1 17605551050749488429
12524768 44 17907866450052219639
161256 15 17981331088313973031
16945 1 18410575085106158091
18185500 45 18409445860678389515
193761 8 17618220611640924473
21040471 1 18266459810809222401
23552423 10 18045791082747619703
23559900 14 18199756856607367262
241688 4 18050576135902913531
2748010 2 18411698785557215559
4369600 1 18410866468271831444
5084963 1 17988091096265512875
66348 1 18268711602096250615

>  <PUBCHEM_SHAPE_MULTIPOLES>  (1) 
218.38
2.92
2.69
0.78
0.01
0
-0.04
0
0.01
0.1
0.04
0.38
0
0

>  <PUBCHEM_SHAPE_SELFOVERLAP>  (1) 
442.844

>  <PUBCHEM_SHAPE_VOLUME>  (1) 
129.1

>  <PUBCHEM_COORDINATE_TYPE>  (1) 
2
5
10

$$$$
