5765
     RDKit          3D

 11 11  0  0  0  0  0  0  0  0999 V2000
   -0.0105   -2.3468    0.1489 Cl  0  0  0  0  0  0  0  0  0  0  0  0
   -3.0621   -1.3443    0.1379 Cl  0  0  0  0  0  0  0  0  0  0  0  0
    2.7148    0.4422    0.9868 O   0  0  0  0  0  0  0  0  0  0  0  0
    2.5680   -0.8391   -0.8851 O   0  0  0  0  0  0  0  0  0  0  0  0
    0.6229    0.2773   -0.0518 C   0  0  0  0  0  0  0  0  0  0  0  0
   -0.4064   -0.6601    0.0352 C   0  0  0  0  0  0  0  0  0  0  0  0
    0.3225    1.6364   -0.1431 C   0  0  0  0  0  0  0  0  0  0  0  0
   -1.7360   -0.2384    0.0311 C   0  0  0  0  0  0  0  0  0  0  0  0
   -1.0071    2.0581   -0.1473 C   0  0  0  0  0  0  0  0  0  0  0  0
   -2.0363    1.1207   -0.0602 C   0  0  0  0  0  0  0  0  0  0  0  0
    2.0302   -0.1058   -0.0524 C   0  0  0  0  0  0  0  0  0  0  0  0
  1  6  1  0
  2  8  1  0
  3 11  1  0
  4 11  2  0
  5  6  2  0
  5  7  1  0
  5 11  1  0
  6  8  1  0
  7  9  2  0
  8 10  2  0
  9 10  1  0
M  END
>  <PUBCHEM_COMPOUND_CID>  (1) 
5765

>  <PUBCHEM_CONFORMER_RMSD>  (1) 
0.4

>  <PUBCHEM_CONFORMER_DIVERSEORDER>  (1) 
1
2

>  <PUBCHEM_MMFF94_PARTIAL_CHARGES>  (1) 
15
1 -0.18
10 -0.15
11 0.63
12 0.15
13 0.15
14 0.15
15 0.5
2 -0.18
3 -0.65
4 -0.57
5 0.09
6 0.18
7 -0.15
8 0.18
9 -0.15

>  <PUBCHEM_EFFECTIVE_ROTOR_COUNT>  (1) 
1

>  <PUBCHEM_PHARMACOPHORE_FEATURES>  (1) 
4
1 3 acceptor
1 4 acceptor
3 3 4 11 anion
6 5 6 7 8 9 10 rings

>  <PUBCHEM_HEAVY_ATOM_COUNT>  (1) 
11

>  <PUBCHEM_ATOM_DEF_STEREO_COUNT>  (1) 
0

>  <PUBCHEM_ATOM_UDEF_STEREO_COUNT>  (1) 
0

>  <PUBCHEM_BOND_DEF_STEREO_COUNT>  (1) 
0

>  <PUBCHEM_BOND_UDEF_STEREO_COUNT>  (1) 
0

>  <PUBCHEM_ISOTOPIC_ATOM_COUNT>  (1) 
0

>  <PUBCHEM_COMPONENT_COUNT>  (1) 
1

>  <PUBCHEM_CACTVS_TAUTO_COUNT>  (1) 
1

>  <PUBCHEM_CONFORMER_ID>  (1) 
0000168500000001

>  <PUBCHEM_MMFF94_ENERGY>  (1) 
31.2673

>  <PUBCHEM_FEATURE_SELFOVERLAP>  (1) 
20.355

>  <PUBCHEM_SHAPE_FINGERPRINT>  (1) 
10857977 72 18411409639842923353
11206711 2 18334575733245259357
12423570 1 17916582175609364279
12524768 44 18195810901509116234
12716758 59 18266741272811340908
12897270 3 18338797801771219653
13380535 21 18051146799760029523
16945 1 18264488382282009133
193761 8 17977382729368984251
20871998 184 18343299288179858486
20871998 22 18340214088854577127
21040471 1 18048315539822392380
23402539 116 18269254911132890814
23552423 10 18189061901706624638
23559900 14 17911243815762922174
241688 4 18410578396362640649
2748010 2 18411135822776966717
369184 2 16486969583421736521
5084963 1 18273224096437438843
5255222 1 18050007683985758932
53812654 25 17983573288923231063
66348 1 18194401087200287367

>  <PUBCHEM_SHAPE_MULTIPOLES>  (1) 
218.38
3.71
2.24
0.73
0.25
0.11
-0.02
0.91
-0.17
-0.73
0.05
0.28
0.03
0.26

>  <PUBCHEM_SHAPE_SELFOVERLAP>  (1) 
442.543

>  <PUBCHEM_SHAPE_VOLUME>  (1) 
129

>  <PUBCHEM_COORDINATE_TYPE>  (1) 
2
5
10

$$$$
