5774
     RDKit          3D

 28 31  0  0  1  0  0  0  0  0999 V2000
    0.6378   -0.9423   -0.2212 S   0  0  0  0  0  0  0  0  0  0  0  0
    4.8563   -1.1451    1.9258 S   0  0  0  0  0  0  0  0  0  0  0  0
    0.5821    3.7048   -0.0583 O   0  0  0  0  0  0  0  0  0  0  0  0
   -3.0609    2.8883    0.3072 O   0  0  0  0  0  0  0  0  0  0  0  0
   -1.8199    2.8320    2.2272 O   0  0  0  0  0  0  0  0  0  0  0  0
    3.9746    0.6651   -2.3504 O   0  0  0  0  0  0  0  0  0  0  0  0
   -0.3163    1.5323   -0.2422 N   0  0  0  0  0  0  0  0  0  0  0  0
    2.7297    1.2897   -0.4942 N   0  0  0  0  0  0  0  0  0  0  0  0
   -4.0583   -1.0818    0.4351 N   0  0  0  0  0  0  0  0  0  0  0  0
    0.3247    0.5856   -1.1339 C   0  0  0  0  0  0  0  0  0  0  0  0
    1.4915    1.5964   -1.2088 C   0  0  0  0  0  0  0  0  0  0  0  0
    0.5441    2.5550   -0.4291 C   0  0  0  0  0  0  0  0  0  0  0  0
   -1.4360    1.2686    0.4783 C   0  0  0  0  0  0  0  0  0  0  0  0
   -1.8800    0.0009    0.6402 C   0  0  0  0  0  0  0  0  0  0  0  0
   -1.1318   -1.2271    0.1275 C   0  0  0  0  0  0  0  0  0  0  0  0
   -3.1556   -0.3741    1.3563 C   0  0  0  0  0  0  0  0  0  0  0  0
   -2.1038    2.4075    1.1251 C   0  0  0  0  0  0  0  0  0  0  0  0
    3.8825    0.8436   -1.1369 C   0  0  0  0  0  0  0  0  0  0  0  0
    5.0485    0.6056   -0.1984 C   0  0  0  0  0  0  0  0  0  0  0  0
   -3.9688   -2.4111    0.3547 C   0  0  0  0  0  0  0  0  0  0  0  0
   -4.9269   -0.3634   -0.2796 C   0  0  0  0  0  0  0  0  0  0  0  0
    5.0229   -0.8245    0.2638 C   0  0  0  0  0  0  0  0  0  0  0  0
   -4.8078   -3.1052   -0.5054 C   0  0  0  0  0  0  0  0  0  0  0  0
   -5.7903   -1.0043   -1.1566 C   0  0  0  0  0  0  0  0  0  0  0  0
   -5.7268   -2.3900   -1.2672 C   0  0  0  0  0  0  0  0  0  0  0  0
    5.1201   -1.9489   -0.5001 C   0  0  0  0  0  0  0  0  0  0  0  0
    5.0559   -3.1253    0.3014 C   0  0  0  0  0  0  0  0  0  0  0  0
    4.9128   -2.8323    1.6397 C   0  0  0  0  0  0  0  0  0  0  0  0
  1 10  1  0
  1 15  1  0
  2 22  1  0
  2 28  1  0
  3 12  2  0
  4 17  1  0
  5 17  2  0
  6 18  2  0
  7 10  1  0
  7 12  1  0
  7 13  1  0
  8 11  1  0
  8 18  1  0
  9 16  1  0
  9 20  2  0
  9 21  1  0
 10 11  1  0
 11 12  1  0
 13 14  2  0
 13 17  1  0
 14 15  1  0
 14 16  1  0
 18 19  1  0
 19 22  1  0
 20 23  1  0
 21 24  2  0
 22 26  2  0
 23 25  2  0
 24 25  1  0
 26 27  1  0
 27 28  2  0
M  CHG  1   9   1
M  END
>  <PUBCHEM_COMPOUND_CID>  (1) 
5774

>  <PUBCHEM_CONFORMER_RMSD>  (1) 
1

>  <PUBCHEM_CONFORMER_DIVERSEORDER>  (1) 
2
20
16
33
36
21
7
37
13
49
48
58
42
4
55
47
43
57
34
39
56
50
18
51
44
9
31
14
3
6
40
22
54
41
17
52
32
24
12
28
53
26
46
45
1
29
35
19
5
15
11
38
25
10
23
8
27
30

>  <PUBCHEM_MMFF94_PARTIAL_CHARGES>  (1) 
38
1 -0.45
10 0.44
11 0.28
12 0.58
13 0.12
14 -0.28
15 0.37
16 0.63
17 0.71
18 0.57
19 0.24
2 -0.08
20 0.21
21 0.21
22 -0.14
23 -0.15
24 -0.15
25 -0.15
26 -0.15
27 -0.15
28 -0.11
3 -0.57
33 0.37
38 0.15
39 0.15
4 -0.65
40 0.5
41 0.15
42 0.15
43 0.15
44 0.15
45 0.15
46 0.15
5 -0.57
6 -0.57
7 -0.39
8 -0.65
9 -0.21

>  <PUBCHEM_EFFECTIVE_ROTOR_COUNT>  (1) 
7.6

>  <PUBCHEM_PHARMACOPHORE_FEATURES>  (1) 
10
1 3 acceptor
1 4 acceptor
1 5 acceptor
1 6 acceptor
1 8 donor
3 4 5 17 anion
4 7 10 11 12 rings
5 2 22 26 27 28 rings
6 1 7 10 13 14 15 rings
6 9 20 21 23 24 25 rings

>  <PUBCHEM_HEAVY_ATOM_COUNT>  (1) 
28

>  <PUBCHEM_ATOM_DEF_STEREO_COUNT>  (1) 
2

>  <PUBCHEM_ATOM_UDEF_STEREO_COUNT>  (1) 
0

>  <PUBCHEM_BOND_DEF_STEREO_COUNT>  (1) 
0

>  <PUBCHEM_BOND_UDEF_STEREO_COUNT>  (1) 
0

>  <PUBCHEM_ISOTOPIC_ATOM_COUNT>  (1) 
0

>  <PUBCHEM_COMPONENT_COUNT>  (1) 
1

>  <PUBCHEM_CACTVS_TAUTO_COUNT>  (1) 
2

>  <PUBCHEM_CONFORMER_ID>  (1) 
0000168E00000002

>  <PUBCHEM_MMFF94_ENERGY>  (1) 
75.2593

>  <PUBCHEM_FEATURE_SELFOVERLAP>  (1) 
51.064

>  <PUBCHEM_SHAPE_FINGERPRINT>  (1) 
10622 236 18335697234821338386
12422481 6 17632579322819387822
12788726 201 18271538592578296670
12839892 36 17917717898101677759
13533116 47 18409728482738513330
13692114 37 17838898131749632549
13782708 43 17059517144473500110
13885169 86 9583517637606235527
14068700 675 18341606027841725699
14347332 77 18408601461744888831
14429115 67 18335419067385923734
146900 427 11743850169893022078
14784336 7 18338795722922951482
14848178 5 18409443695978280362
14950920 106 14189033140833089951
15183329 4 16877932863085544439
15250474 111 18335709334107902798
15420108 30 17689154513612508457
17349148 13 18339933691824837799
17857418 61 18409167714264747806
18222031 100 18408318882967293074
19958102 18 17968366914510126791
21033648 29 16199873852173595520
21458453 9 15194427810296099574
21703447 108 18269834384063422496
21728266 224 18341896290100088133
23559900 14 18266173014753511329
3004659 81 17967530190651645382
314194 84 18262246619780391218
3886686 26 17552644651671307794
437795 70 15719664368845154262
5085150 59 18131063797909321447
56633871 153 17974853865652582482

>  <PUBCHEM_SHAPE_MULTIPOLES>  (1) 
545.51
14.27
4.07
1.61
1.23
0.75
0.21
-13.88
-1.21
-0.63
0.68
0.79
0.27
-3.21

>  <PUBCHEM_SHAPE_SELFOVERLAP>  (1) 
1155.52

>  <PUBCHEM_SHAPE_VOLUME>  (1) 
307.4

>  <PUBCHEM_COORDINATE_TYPE>  (1) 
2
5
10

$$$$
