5787
     RDKit          3D

 11 11  0  0  0  0  0  0  0  0999 V2000
    0.8939   -2.4568    0.2294 Cl  0  0  0  0  0  0  0  0  0  0  0  0
   -3.8663    0.0414    0.0043 Cl  0  0  0  0  0  0  0  0  0  0  0  0
    2.5648    1.1378    0.9383 O   0  0  0  0  0  0  0  0  0  0  0  0
    2.8374   -0.1725   -0.8990 O   0  0  0  0  0  0  0  0  0  0  0  0
    0.6397    0.2443   -0.0504 C   0  0  0  0  0  0  0  0  0  0  0  0
   -0.0016   -0.9874    0.0817 C   0  0  0  0  0  0  0  0  0  0  0  0
   -0.1125    1.4134   -0.1655 C   0  0  0  0  0  0  0  0  0  0  0  0
   -1.3949   -1.0500    0.0987 C   0  0  0  0  0  0  0  0  0  0  0  0
   -1.5059    1.3508   -0.1486 C   0  0  0  0  0  0  0  0  0  0  0  0
   -2.1471    0.1191   -0.0165 C   0  0  0  0  0  0  0  0  0  0  0  0
    2.0927    0.3600   -0.0725 C   0  0  0  0  0  0  0  0  0  0  0  0
  1  6  1  0
  2 10  1  0
  3 11  1  0
  4 11  2  0
  5  6  2  0
  5  7  1  0
  5 11  1  0
  6  8  1  0
  7  9  2  0
  8 10  2  0
  9 10  1  0
M  END
>  <PUBCHEM_COMPOUND_CID>  (1) 
5787

>  <PUBCHEM_CONFORMER_RMSD>  (1) 
0.4

>  <PUBCHEM_CONFORMER_DIVERSEORDER>  (1) 
1
2

>  <PUBCHEM_MMFF94_PARTIAL_CHARGES>  (1) 
15
1 -0.18
10 0.18
11 0.63
12 0.15
13 0.15
14 0.15
15 0.5
2 -0.18
3 -0.65
4 -0.57
5 0.09
6 0.18
7 -0.15
8 -0.15
9 -0.15

>  <PUBCHEM_EFFECTIVE_ROTOR_COUNT>  (1) 
1

>  <PUBCHEM_PHARMACOPHORE_FEATURES>  (1) 
4
1 3 acceptor
1 4 acceptor
3 3 4 11 anion
6 5 6 7 8 9 10 rings

>  <PUBCHEM_HEAVY_ATOM_COUNT>  (1) 
11

>  <PUBCHEM_ATOM_DEF_STEREO_COUNT>  (1) 
0

>  <PUBCHEM_ATOM_UDEF_STEREO_COUNT>  (1) 
0

>  <PUBCHEM_BOND_DEF_STEREO_COUNT>  (1) 
0

>  <PUBCHEM_BOND_UDEF_STEREO_COUNT>  (1) 
0

>  <PUBCHEM_ISOTOPIC_ATOM_COUNT>  (1) 
0

>  <PUBCHEM_COMPONENT_COUNT>  (1) 
1

>  <PUBCHEM_CACTVS_TAUTO_COUNT>  (1) 
1

>  <PUBCHEM_CONFORMER_ID>  (1) 
0000169B00000001

>  <PUBCHEM_MMFF94_ENERGY>  (1) 
29.2368

>  <PUBCHEM_FEATURE_SELFOVERLAP>  (1) 
20.355

>  <PUBCHEM_SHAPE_FINGERPRINT>  (1) 
10219947 1 18334859437283784745
12032990 46 18410022060811816207
12897270 3 18410012117719738109
13380535 21 18120947105100775765
13380535 76 18334573551354906595
14325111 11 18411699898196585133
161256 15 18266460914568474791
16945 1 18335419075759346645
19021347 11 18335703801810308335
193761 8 17904762176650459429
20588541 1 18334019397589089083
20645476 183 17531822375352747566
20645477 70 18265889165087193047
21040471 1 18408323302256116174
21501502 16 18121220874805625289
23235685 24 18260547835544590501
23402655 69 18265877083597488365
23552423 10 17972040240818662963
23559900 14 18341339976783795092
2748010 2 18048036564848697533
369184 2 16988847206406850017
5084963 1 18343311365749291820
528886 8 18409728490948659339
53812653 166 18341608248118362721
68250623 7 18050855416309617211
7364860 26 18198337360345143162

>  <PUBCHEM_SHAPE_MULTIPOLES>  (1) 
218.38
4.47
1.89
0.73
2.08
0.95
0.01
-0.6
-0.09
-0.61
0.16
-0.28
-0.06
0.19

>  <PUBCHEM_SHAPE_SELFOVERLAP>  (1) 
442.049

>  <PUBCHEM_SHAPE_VOLUME>  (1) 
129.5

>  <PUBCHEM_COORDINATE_TYPE>  (1) 
2
5
10

$$$$
