5799
     RDKit          3D

 15 18  0  0  0  0  0  0  0  0999 V2000
    2.7929    0.9512   -0.0364 N   0  0  0  0  0  0  0  0  0  0  0  0
   -1.7694    2.0735    0.0708 N   0  0  0  0  0  0  0  0  0  0  0  0
   -0.4622   -2.4384   -0.0705 N   0  0  0  0  0  0  0  0  0  0  0  0
    0.5187    1.5402    0.0168 N   0  0  0  0  0  0  0  0  0  0  0  0
    1.1860   -0.7635   -0.0553 N   0  0  0  0  0  0  0  0  0  0  0  0
   -1.1435   -0.1904   -0.0010 N   0  0  0  0  0  0  0  0  0  0  0  0
    3.8086    0.1287   -0.7061 C   0  0  0  0  0  0  0  0  0  0  0  0
    3.7889    0.2394    0.7749 C   0  0  0  0  0  0  0  0  0  0  0  0
   -3.0575    1.7890    0.7163 C   0  0  0  0  0  0  0  0  0  0  0  0
   -2.9741    1.9416   -0.7588 C   0  0  0  0  0  0  0  0  0  0  0  0
   -1.7131   -2.8915   -0.6922 C   0  0  0  0  0  0  0  0  0  0  0  0
   -1.5363   -2.9661    0.7806 C   0  0  0  0  0  0  0  0  0  0  0  0
    1.4315    0.5563   -0.0245 C   0  0  0  0  0  0  0  0  0  0  0  0
   -0.7472    1.0923    0.0265 C   0  0  0  0  0  0  0  0  0  0  0  0
   -0.1231   -1.0623   -0.0410 C   0  0  0  0  0  0  0  0  0  0  0  0
  1  7  1  0
  1  8  1  0
  1 13  1  0
  2  9  1  0
  2 10  1  0
  2 14  1  0
  3 11  1  0
  3 12  1  0
  3 15  1  0
  4 13  2  0
  4 14  1  0
  5 13  1  0
  5 15  2  0
  6 14  2  0
  6 15  1  0
  7  8  1  0
  9 10  1  0
 11 12  1  0
M  END
>  <PUBCHEM_COMPOUND_CID>  (1) 
5799

>  <PUBCHEM_CONFORMER_RMSD>  (1) 
0.6

>  <PUBCHEM_CONFORMER_DIVERSEORDER>  (1) 
1
3
2

>  <PUBCHEM_MMFF94_PARTIAL_CHARGES>  (1) 
27
1 -0.44
10 -0.03
11 -0.03
12 -0.03
13 0.72
14 0.72
15 0.72
16 0.1
17 0.1
18 0.1
19 0.1
2 -0.44
20 0.1
21 0.1
22 0.1
23 0.1
24 0.1
25 0.1
26 0.1
27 0.1
3 -0.44
4 -0.62
5 -0.62
6 -0.62
7 -0.03
8 -0.03
9 -0.03

>  <PUBCHEM_EFFECTIVE_ROTOR_COUNT>  (1) 
4.8

>  <PUBCHEM_PHARMACOPHORE_FEATURES>  (1) 
4
4 1 4 5 13 cation
4 2 4 6 14 cation
4 3 5 6 15 cation
6 4 5 6 13 14 15 rings

>  <PUBCHEM_HEAVY_ATOM_COUNT>  (1) 
15

>  <PUBCHEM_ATOM_DEF_STEREO_COUNT>  (1) 
0

>  <PUBCHEM_ATOM_UDEF_STEREO_COUNT>  (1) 
0

>  <PUBCHEM_BOND_DEF_STEREO_COUNT>  (1) 
0

>  <PUBCHEM_BOND_UDEF_STEREO_COUNT>  (1) 
0

>  <PUBCHEM_ISOTOPIC_ATOM_COUNT>  (1) 
0

>  <PUBCHEM_COMPONENT_COUNT>  (1) 
1

>  <PUBCHEM_CACTVS_TAUTO_COUNT>  (1) 
1

>  <PUBCHEM_CONFORMER_ID>  (1) 
000016A700000001

>  <PUBCHEM_MMFF94_ENERGY>  (1) 
86.2721

>  <PUBCHEM_FEATURE_SELFOVERLAP>  (1) 
20.427

>  <PUBCHEM_SHAPE_FINGERPRINT>  (1) 
1 1 18049162163912670271
11322862 65 18338526252527558678
11357001 24 18263082265681423163
116883 192 18197782304441190655
12138202 97 18411144619102052230
12532896 13 18340205193739787558
12553582 1 17834682977893983142
12759256 9 17617652160050700811
13052359 8 18335695053178015867
13140716 1 18050570943366749491
13380535 76 18342172215957934054
14178000 15 17476638050116492495
14178000 22 18265315249364846432
14178342 30 18263346119087462666
15042514 8 18408325488294405706
15309172 13 18337676295716686785
15502708 68 18049721819536647537
15885798 251 18048884288203553907
15906896 17 18343013415320297143
16945 1 18410575136355660798
18186145 218 18127695933062631132
19021347 4 18338800018069296363
193761 8 18122626329554493285
20097449 115 17833553774766659459
201361 129 17624989235323812513
20510252 161 18198343047034304576
20524608 308 18413110575883602342
20645476 183 18114479876479571196
20645477 70 17904194824909824661
20711985 344 18265884937926731154
20711985 365 18265894850848055934
20871998 184 18128824216691861622
21041028 32 17831311853784125443
21160774 45 18408600388229937717
21499 59 18265326214558797749
21524375 3 18264485100747335169
2334 1 18338798909946771295
23402539 116 18270953661335922887
23419403 2 16986296438531097939
23530152 11 18267303140665255263
23557571 272 18199478825851666268
23558518 356 18116433841912949520
23559900 14 18272373045617701652
257057 1 17764863989186997407
2748010 2 18193855759561030551
3071541 236 18336817650028018274
3091708 16 9055603605107987049
3250762 1 17983565583557301712
33824 294 18192999210613513825
352729 6 18412268336991642748
458136 41 18051432672641001993
474229 33 18409731747092889481
54173680 148 18265897036954981875
58779409 54 18268134521547685367
58779409 8 18409735032136463255
633830 44 17986394382136085540
68521 5 18193560184106583871
7364860 26 17619629081735895957
81228 2 18265046023507828419
81539 233 18045499712408832837
8272917 22 17835520423729106045

>  <PUBCHEM_SHAPE_MULTIPOLES>  (1) 
278.81
5.43
3.35
0.82
4.76
2.69
-0.01
-2.7
-0.03
-3.89
-0.02
-0.07
0.07
0.03

>  <PUBCHEM_SHAPE_SELFOVERLAP>  (1) 
588.587

>  <PUBCHEM_SHAPE_VOLUME>  (1) 
148

>  <PUBCHEM_COORDINATE_TYPE>  (1) 
2
5
10

$$$$
