58
     RDKit          3D

  7  6  0  0  0  0  0  0  0  0999 V2000
   -0.3863   -1.4867   -0.0143 O   0  0  0  0  0  0  0  0  0  0  0  0
    2.0404   -0.7885    0.0063 O   0  0  0  0  0  0  0  0  0  0  0  0
    1.4358    1.4245   -0.0151 O   0  0  0  0  0  0  0  0  0  0  0  0
   -1.3299    0.7615    0.0021 C   0  0  0  0  0  0  0  0  0  0  0  0
   -2.7090    0.1263    0.0042 C   0  0  0  0  0  0  0  0  0  0  0  0
   -0.2316   -0.2747    0.0017 C   0  0  0  0  0  0  0  0  0  0  0  0
    1.1805    0.2377    0.0151 C   0  0  0  0  0  0  0  0  0  0  0  0
  1  6  2  0
  2  7  1  0
  3  7  2  0
  4  5  1  0
  4  6  1  0
  6  7  1  0
M  END
>  <PUBCHEM_COMPOUND_CID>  (1) 
58

>  <PUBCHEM_CONFORMER_RMSD>  (1) 
0.4

>  <PUBCHEM_CONFORMER_DIVERSEORDER>  (1) 
1
4
2
3

>  <PUBCHEM_MMFF94_PARTIAL_CHARGES>  (1) 
7
1 -0.57
13 0.5
2 -0.65
3 -0.57
4 0.06
6 0.51
7 0.72

>  <PUBCHEM_EFFECTIVE_ROTOR_COUNT>  (1) 
2

>  <PUBCHEM_PHARMACOPHORE_FEATURES>  (1) 
5
1 1 acceptor
1 2 acceptor
1 3 acceptor
1 5 hydrophobe
3 2 3 7 anion

>  <PUBCHEM_HEAVY_ATOM_COUNT>  (1) 
7

>  <PUBCHEM_ATOM_DEF_STEREO_COUNT>  (1) 
0

>  <PUBCHEM_ATOM_UDEF_STEREO_COUNT>  (1) 
0

>  <PUBCHEM_BOND_DEF_STEREO_COUNT>  (1) 
0

>  <PUBCHEM_BOND_UDEF_STEREO_COUNT>  (1) 
0

>  <PUBCHEM_ISOTOPIC_ATOM_COUNT>  (1) 
0

>  <PUBCHEM_COMPONENT_COUNT>  (1) 
1

>  <PUBCHEM_CACTVS_TAUTO_COUNT>  (1) 
2

>  <PUBCHEM_CONFORMER_ID>  (1) 
0000003A00000001

>  <PUBCHEM_MMFF94_ENERGY>  (1) 
5.6256

>  <PUBCHEM_FEATURE_SELFOVERLAP>  (1) 
25.441

>  <PUBCHEM_SHAPE_FINGERPRINT>  (1) 
20096714 4 18410292527365276113
21040471 1 18338797926230442441
24536 1 18266162014977872972
29004967 10 18338238137388742922
5084963 1 18272367547015116361
5460574 1 9223225252131621481

>  <PUBCHEM_SHAPE_MULTIPOLES>  (1) 
126.45
3.01
1.25
0.57
1.14
0.05
0
-0.22
0.01
-0.33
-0.01
0.05
-0.01
-0.01

>  <PUBCHEM_SHAPE_SELFOVERLAP>  (1) 
237.141

>  <PUBCHEM_SHAPE_VOLUME>  (1) 
78.5

>  <PUBCHEM_COORDINATE_TYPE>  (1) 
2
5
10

$$$$
