5801
     RDKit          3D

  8  8  0  0  0  0  0  0  0  0999 V2000
    1.7478   -1.4366    0.0000 O   0  0  0  0  0  0  0  0  0  0  0  0
    1.8523    1.3755    0.0004 N   0  0  0  0  0  0  0  0  0  0  0  0
    0.6223    0.6822   -0.0004 C   0  0  0  0  0  0  0  0  0  0  0  0
    0.5932   -0.7123   -0.0001 C   0  0  0  0  0  0  0  0  0  0  0  0
   -0.5709    1.4047   -0.0002 C   0  0  0  0  0  0  0  0  0  0  0  0
   -0.6291   -1.3844    0.0000 C   0  0  0  0  0  0  0  0  0  0  0  0
   -1.7932    0.7327    0.0001 C   0  0  0  0  0  0  0  0  0  0  0  0
   -1.8223   -0.6618    0.0002 C   0  0  0  0  0  0  0  0  0  0  0  0
  1  4  1  0
  2  3  1  0
  3  4  2  0
  3  5  1  0
  4  6  1  0
  5  7  2  0
  6  8  2  0
  7  8  1  0
M  END
>  <PUBCHEM_COMPOUND_CID>  (1) 
5801

>  <PUBCHEM_CONFORMER_RMSD>  (1) 
0.4

>  <PUBCHEM_CONFORMER_DIVERSEORDER>  (1) 
1

>  <PUBCHEM_MMFF94_PARTIAL_CHARGES>  (1) 
15
1 -0.53
10 0.15
11 0.15
12 0.15
13 0.4
14 0.4
15 0.45
2 -0.9
3 0.1
4 0.08
5 -0.15
6 -0.15
7 -0.15
8 -0.15
9 0.15

>  <PUBCHEM_EFFECTIVE_ROTOR_COUNT>  (1) 
0

>  <PUBCHEM_PHARMACOPHORE_FEATURES>  (1) 
4
1 1 donor
1 2 cation
1 2 donor
6 3 4 5 6 7 8 rings

>  <PUBCHEM_HEAVY_ATOM_COUNT>  (1) 
8

>  <PUBCHEM_ATOM_DEF_STEREO_COUNT>  (1) 
0

>  <PUBCHEM_ATOM_UDEF_STEREO_COUNT>  (1) 
0

>  <PUBCHEM_BOND_DEF_STEREO_COUNT>  (1) 
0

>  <PUBCHEM_BOND_UDEF_STEREO_COUNT>  (1) 
0

>  <PUBCHEM_ISOTOPIC_ATOM_COUNT>  (1) 
0

>  <PUBCHEM_COMPONENT_COUNT>  (1) 
1

>  <PUBCHEM_CACTVS_TAUTO_COUNT>  (1) 
7

>  <PUBCHEM_CONFORMER_ID>  (1) 
000016A900000001

>  <PUBCHEM_MMFF94_ENERGY>  (1) 
28.7446

>  <PUBCHEM_FEATURE_SELFOVERLAP>  (1) 
20.301

>  <PUBCHEM_SHAPE_FINGERPRINT>  (1) 
16714656 1 17905612451178459468
18185500 45 18196087978608205367
21040471 1 18338516442764101925
23552423 10 18333454261249413806
2748010 2 18410012130678441069
29004967 10 18116721900821051113

>  <PUBCHEM_SHAPE_MULTIPOLES>  (1) 
153.79
2.29
1.76
0.59
0.1
0.05
0
-0.07
0
0.33
0
-0.04
0
0

>  <PUBCHEM_SHAPE_SELFOVERLAP>  (1) 
320.073

>  <PUBCHEM_SHAPE_VOLUME>  (1) 
87.8

>  <PUBCHEM_COORDINATE_TYPE>  (1) 
2
5
10

$$$$
