5803
     RDKit          3D

 21 22  0  0  0  0  0  0  0  0999 V2000
   -0.0582   -1.5293   -3.0542 I   0  0  0  0  0  0  0  0  0  0  0  0
   -0.0571   -1.5441    3.0487 I   0  0  0  0  0  0  0  0  0  0  0  0
   -2.1506    3.4111    0.0099 I   0  0  0  0  0  0  0  0  0  0  0  0
   -1.0775   -1.8737   -0.0034 O   0  0  0  0  0  0  0  0  0  0  0  0
    5.5765    1.9127    0.0527 O   0  0  0  0  0  0  0  0  0  0  0  0
   -5.0649    1.9348    0.0070 O   0  0  0  0  0  0  0  0  0  0  0  0
    3.3177    2.1177   -0.0643 O   0  0  0  0  0  0  0  0  0  0  0  0
    2.8673   -0.5669   -0.0009 C   0  0  0  0  0  0  0  0  0  0  0  0
    0.2193   -1.4444   -0.0026 C   0  0  0  0  0  0  0  0  0  0  0  0
    4.2831   -0.0977   -0.0001 C   0  0  0  0  0  0  0  0  0  0  0  0
    2.2052   -0.7836   -1.2094 C   0  0  0  0  0  0  0  0  0  0  0  0
    2.2056   -0.7892    1.2067 C   0  0  0  0  0  0  0  0  0  0  0  0
    0.8810   -1.2224   -1.2102 C   0  0  0  0  0  0  0  0  0  0  0  0
    0.8815   -1.2279    1.2059 C   0  0  0  0  0  0  0  0  0  0  0  0
   -2.0692   -0.9105   -0.0009 C   0  0  0  0  0  0  0  0  0  0  0  0
   -1.7133    0.4273    0.0024 C   0  0  0  0  0  0  0  0  0  0  0  0
   -3.3957   -1.3067   -0.0016 C   0  0  0  0  0  0  0  0  0  0  0  0
    4.3166    1.4122    0.0035 C   0  0  0  0  0  0  0  0  0  0  0  0
   -2.7144    1.3987    0.0051 C   0  0  0  0  0  0  0  0  0  0  0  0
   -4.3968   -0.3353    0.0012 C   0  0  0  0  0  0  0  0  0  0  0  0
   -4.0561    1.0174    0.0044 C   0  0  0  0  0  0  0  0  0  0  0  0
  1 13  1  0
  2 14  1  0
  3 19  1  0
  4  9  1  0
  4 15  1  0
  5 18  1  0
  6 21  1  0
  7 18  2  0
  8 10  1  0
  8 11  2  0
  8 12  1  0
  9 13  2  0
  9 14  1  0
 10 18  1  0
 11 13  1  0
 12 14  2  0
 15 16  2  0
 15 17  1  0
 16 19  1  0
 17 20  2  0
 19 21  2  0
 20 21  1  0
M  END
>  <PUBCHEM_COMPOUND_CID>  (1) 
5803

>  <PUBCHEM_CONFORMER_RMSD>  (1) 
0.6

>  <PUBCHEM_CONFORMER_DIVERSEORDER>  (1) 
1
20
4
26
31
7
25
33
10
9
6
18
28
24
5
17
27
22
8
16
2
32
30
23
3
15
14
12
29
19
11
13
21

>  <PUBCHEM_MMFF94_PARTIAL_CHARGES>  (1) 
28
1 -0.08
10 0.2
11 -0.15
12 -0.15
13 0.08
14 0.08
15 0.08
16 -0.15
17 -0.15
18 0.66
19 0.08
2 -0.08
20 -0.15
21 0.08
24 0.15
25 0.15
26 0.15
27 0.15
28 0.15
29 0.5
3 -0.08
30 0.45
4 -0.17
5 -0.65
6 -0.53
7 -0.57
8 -0.14
9 0.08

>  <PUBCHEM_EFFECTIVE_ROTOR_COUNT>  (1) 
4

>  <PUBCHEM_PHARMACOPHORE_FEATURES>  (1) 
10
1 1 hydrophobe
1 2 hydrophobe
1 3 hydrophobe
1 4 acceptor
1 5 acceptor
1 6 donor
1 7 acceptor
3 5 7 18 anion
6 15 16 17 19 20 21 rings
6 8 9 11 12 13 14 rings

>  <PUBCHEM_HEAVY_ATOM_COUNT>  (1) 
21

>  <PUBCHEM_ATOM_DEF_STEREO_COUNT>  (1) 
0

>  <PUBCHEM_ATOM_UDEF_STEREO_COUNT>  (1) 
0

>  <PUBCHEM_BOND_DEF_STEREO_COUNT>  (1) 
0

>  <PUBCHEM_BOND_UDEF_STEREO_COUNT>  (1) 
0

>  <PUBCHEM_ISOTOPIC_ATOM_COUNT>  (1) 
0

>  <PUBCHEM_COMPONENT_COUNT>  (1) 
1

>  <PUBCHEM_CACTVS_TAUTO_COUNT>  (1) 
3

>  <PUBCHEM_CONFORMER_ID>  (1) 
000016AB00000001

>  <PUBCHEM_MMFF94_ENERGY>  (1) 
63.3769

>  <PUBCHEM_FEATURE_SELFOVERLAP>  (1) 
50.804

>  <PUBCHEM_SHAPE_FINGERPRINT>  (1) 
10165383 225 17275111656158559959
10498660 4 18338797819336463941
11640471 11 17678185897446033359
11796584 16 8502389826939686784
12539773 59 14889927131754235756
12596602 18 17023182777315928120
12969540 114 16486968531576755186
133893 2 17200548176495419342
13911987 19 16558754546242596582
13965767 371 17174623749506590637
14178342 30 16660938711763800979
14341114 328 18333165068031953585
14739800 52 18337372934150969968
14787075 74 17752204152486641523
14790565 3 17909554952822915073
14957384 54 17756134601502421105
15163728 17 18198647517281826748
15209294 21 17894625985265487938
15961568 22 18411421708691132037
19930381 70 16105288793669029884
21652331 79 18409729577406826897
21756936 100 18339070618753231412
23114952 82 17559687122362506191
23227448 37 18341331213905675637
23557571 272 18272094898623746263
23559900 14 18127413349831526999
238 59 16269085845678349549
2748010 2 14978251760297720294
2838139 119 18342451599686926828
3060560 45 15840971287740485759
3472631 163 18338515240748382781
351380 180 18409448094267235208
392239 28 17895769520307912425
4340502 62 17023195868993067713
44802255 64 17914914256121890276
46194498 28 17701829782325246205
474 4 17822294629938175580
5104073 3 18114184090735186275
56616090 13 18410288155347181328
568465 68 13407085768552802595
7097593 13 17102262686001203475
7288768 16 17462839114932459360
7808743 9 18412541003064347481
9981440 41 18334577988098289530

>  <PUBCHEM_SHAPE_MULTIPOLES>  (1) 
444.5
8.76
3
2.28
2.1
2.85
-0.01
6.64
0.05
-0.82
0.01
0.58
-2.27
0

>  <PUBCHEM_SHAPE_SELFOVERLAP>  (1) 
890.509

>  <PUBCHEM_SHAPE_VOLUME>  (1) 
270.9

>  <PUBCHEM_COORDINATE_TYPE>  (1) 
2
5
10

$$$$
