5814
     RDKit          3D

 12 12  0  0  1  0  0  0  0  0999 V2000
    2.3620    0.0641    1.5270 O   0  0  0  0  0  0  0  0  0  0  0  0
   -2.1948    2.0744    0.0532 O   0  0  0  0  0  0  0  0  0  0  0  0
   -3.6370   -0.2840   -0.2318 O   0  0  0  0  0  0  0  0  0  0  0  0
    4.1411    0.3267   -0.7242 N   0  0  0  0  0  0  0  0  0  0  0  0
    1.9843   -0.4405    0.2390 C   0  0  0  0  0  0  0  0  0  0  0  0
    0.4989   -0.3959    0.1148 C   0  0  0  0  0  0  0  0  0  0  0  0
    2.6873    0.3837   -0.8579 C   0  0  0  0  0  0  0  0  0  0  0  0
   -0.1665    0.8298    0.1420 C   0  0  0  0  0  0  0  0  0  0  0  0
   -0.2250   -1.5796   -0.0280 C   0  0  0  0  0  0  0  0  0  0  0  0
   -1.5561    0.8715    0.0262 C   0  0  0  0  0  0  0  0  0  0  0  0
   -1.6144   -1.5379   -0.1437 C   0  0  0  0  0  0  0  0  0  0  0  0
   -2.2799   -0.3123   -0.1166 C   0  0  0  0  0  0  0  0  0  0  0  0
  1  5  1  0
  2 10  1  0
  3 12  1  0
  4  7  1  0
  5  6  1  0
  5  7  1  0
  6  8  2  0
  6  9  1  0
  8 10  1  0
  9 11  2  0
 10 12  2  0
 11 12  1  0
M  END
>  <PUBCHEM_COMPOUND_CID>  (1) 
5814

>  <PUBCHEM_CONFORMER_RMSD>  (1) 
0.6

>  <PUBCHEM_CONFORMER_DIVERSEORDER>  (1) 
2
9
7
3
5
4
8
6
1

>  <PUBCHEM_MMFF94_PARTIAL_CHARGES>  (1) 
20
1 -0.68
10 0.08
11 -0.15
12 0.08
16 0.15
17 0.15
18 0.15
19 0.4
2 -0.53
20 0.36
21 0.36
22 0.45
23 0.45
3 -0.53
4 -0.99
5 0.42
6 -0.14
7 0.27
8 -0.15
9 -0.15

>  <PUBCHEM_EFFECTIVE_ROTOR_COUNT>  (1) 
2

>  <PUBCHEM_PHARMACOPHORE_FEATURES>  (1) 
7
1 1 acceptor
1 1 donor
1 2 donor
1 3 donor
1 4 cation
1 4 donor
6 6 8 9 10 11 12 rings

>  <PUBCHEM_HEAVY_ATOM_COUNT>  (1) 
12

>  <PUBCHEM_ATOM_DEF_STEREO_COUNT>  (1) 
1

>  <PUBCHEM_ATOM_UDEF_STEREO_COUNT>  (1) 
0

>  <PUBCHEM_BOND_DEF_STEREO_COUNT>  (1) 
0

>  <PUBCHEM_BOND_UDEF_STEREO_COUNT>  (1) 
0

>  <PUBCHEM_ISOTOPIC_ATOM_COUNT>  (1) 
0

>  <PUBCHEM_COMPONENT_COUNT>  (1) 
1

>  <PUBCHEM_CACTVS_TAUTO_COUNT>  (1) 
10

>  <PUBCHEM_CONFORMER_ID>  (1) 
000016B600000002

>  <PUBCHEM_MMFF94_ENERGY>  (1) 
24.2642

>  <PUBCHEM_FEATURE_SELFOVERLAP>  (1) 
35.529

>  <PUBCHEM_SHAPE_FINGERPRINT>  (1) 
11206711 2 18340476807920116077
12716758 59 18343864398644351722
12897270 3 18412265068531956614
12932764 1 17703501142894219518
13024252 1 17894916264856544663
13380535 21 18055926398412677121
13538477 17 18114174293635468370
14325111 11 18337956688398035836
14993402 34 18259704514368247877
15310529 11 16805311202307622575
15775835 57 17968098603354938012
16945 1 18412536635161618067
20201158 50 17632587054134748166
20645464 45 17702929431355129802
20645476 183 17894630400154563471
21040471 1 18340200769992063827
21501502 16 18196935474434893543
23235685 24 18410572885703250471
23402539 116 18341325660523557094
23402655 69 18196915697134012445
23552423 10 18190740821539553923
23559900 14 18059014974537372918
2748010 2 18123751959321059903
369184 2 17775555447029331843
5084963 1 18131073731334869418
53812653 8 18335422356982433483
77492 1 17822004316034697394
8030462 33 18409720759944359310

>  <PUBCHEM_SHAPE_MULTIPOLES>  (1) 
224.37
5.32
1.51
0.86
2.72
0.14
0.17
0.76
-0.96
-1.08
-0.02
0.66
0.02
-0.22

>  <PUBCHEM_SHAPE_SELFOVERLAP>  (1) 
463.887

>  <PUBCHEM_SHAPE_VOLUME>  (1) 
129

>  <PUBCHEM_COORDINATE_TYPE>  (1) 
2
5
10

$$$$
