5823
     RDKit          3D

 16 16  0  0  0  0  0  0  0  0999 V2000
    2.1082    1.2803   -0.4193 O   0  0  0  0  0  0  0  0  0  0  0  0
   -5.1333   -0.6739    0.2322 O   0  0  0  0  0  0  0  0  0  0  0  0
   -4.7089    1.4738    0.0202 O   0  0  0  0  0  0  0  0  0  0  0  0
    1.1578   -0.8280   -0.1508 N   0  0  0  0  0  0  0  0  0  0  0  0
   -4.3308    0.2806    0.0990 N   0  0  0  0  0  0  0  0  0  0  0  0
    3.4193   -0.6021   -0.3092 N   0  0  0  0  0  0  0  0  0  0  0  0
    5.7063   -0.6176    0.1338 N   0  0  0  0  0  0  0  0  0  0  0  0
    4.5527    1.2694    0.6943 N   0  0  0  0  0  0  0  0  0  0  0  0
   -0.2267   -0.5483   -0.0876 C   0  0  0  0  0  0  0  0  0  0  0  0
   -1.1244   -1.5936    0.0595 C   0  0  0  0  0  0  0  0  0  0  0  0
   -0.6583    0.7655   -0.1741 C   0  0  0  0  0  0  0  0  0  0  0  0
   -2.9403   -0.0003    0.0358 C   0  0  0  0  0  0  0  0  0  0  0  0
   -2.4903   -1.3177    0.1215 C   0  0  0  0  0  0  0  0  0  0  0  0
   -2.0243    1.0413   -0.1118 C   0  0  0  0  0  0  0  0  0  0  0  0
    2.2110    0.0637   -0.2924 C   0  0  0  0  0  0  0  0  0  0  0  0
    4.4819    0.0070    0.1489 C   0  0  0  0  0  0  0  0  0  0  0  0
  1 15  2  0
  2  5  1  0
  3  5  2  0
  4  9  1  0
  4 15  1  0
  5 12  1  0
  6 15  1  0
  6 16  2  3
  7 16  1  0
  8 16  1  0
  9 10  2  0
  9 11  1  0
 10 13  1  0
 11 14  2  0
 12 13  2  0
 12 14  1  0
M  CHG  2   2  -1   5   1
M  END
>  <PUBCHEM_COMPOUND_CID>  (1) 
5823

>  <PUBCHEM_CONFORMER_RMSD>  (1) 
0.6

>  <PUBCHEM_CONFORMER_DIVERSEORDER>  (1) 
1
8
15
10
16
6
17
7
11
12
4
9
5
3
13
2
14

>  <PUBCHEM_MMFF94_PARTIAL_CHARGES>  (1) 
25
1 -0.57
10 -0.15
11 -0.15
12 0.13
13 -0.15
14 -0.15
15 0.84
16 0.55
17 0.15
18 0.15
19 0.15
2 -0.52
20 0.15
21 0.37
22 0.4
23 0.4
24 0.4
25 0.4
3 -0.52
4 -0.55
5 0.91
6 -0.66
7 -0.85
8 -0.85
9 0.12

>  <PUBCHEM_EFFECTIVE_ROTOR_COUNT>  (1) 
4

>  <PUBCHEM_PHARMACOPHORE_FEATURES>  (1) 
9
1 1 acceptor
1 2 acceptor
1 2 anion
1 3 acceptor
1 4 donor
1 6 donor
1 7 donor
1 8 donor
6 9 10 11 12 13 14 rings

>  <PUBCHEM_HEAVY_ATOM_COUNT>  (1) 
16

>  <PUBCHEM_ATOM_DEF_STEREO_COUNT>  (1) 
0

>  <PUBCHEM_ATOM_UDEF_STEREO_COUNT>  (1) 
0

>  <PUBCHEM_BOND_DEF_STEREO_COUNT>  (1) 
0

>  <PUBCHEM_BOND_UDEF_STEREO_COUNT>  (1) 
0

>  <PUBCHEM_ISOTOPIC_ATOM_COUNT>  (1) 
0

>  <PUBCHEM_COMPONENT_COUNT>  (1) 
1

>  <PUBCHEM_CACTVS_TAUTO_COUNT>  (1) 
5

>  <PUBCHEM_CONFORMER_ID>  (1) 
000016BF00000001

>  <PUBCHEM_MMFF94_ENERGY>  (1) 
54.8693

>  <PUBCHEM_FEATURE_SELFOVERLAP>  (1) 
45.937

>  <PUBCHEM_SHAPE_FINGERPRINT>  (1) 
10014705 185 18341609343319159693
11132069 177 18410578391988344045
11401426 45 18413106160820564047
114248 4 9583517620668439670
12119455 92 17561362876640540294
12236239 1 17748828505770581994
12251169 10 18333732429185566246
13214271 11 18413388748347019207
13380535 76 18410579478594542559
13675066 3 18334580165282386178
14123238 8 18408323293613414614
14943859 89 18131349713301771927
15042514 8 18263931106334281555
15048467 5 14549026451223946083
15196674 1 18410293657121088012
15375358 24 18202567276066133934
17802600 8 18408602565114004252
18522853 276 18412827984199661400
187816 3 13183018519064171975
200 152 17704069594700617111
20279233 1 17988652895304940134
20645477 56 18411702084108027166
20645477 70 17346326938643623278
21267235 1 18335430074864811947
23402539 116 18343294864706344157
23559900 14 18342458145432954414
351380 180 18273493477144985592
3545911 37 18411703179614941838
366044 4 18410293605771637867
42 15 18187364329063103530
4214541 1 18410293613986636293
42788 4 18413389834509339242
5104073 3 18337109072481264082
5374978 207 18412258446198782072
542803 24 16343706538416522778
6430166 295 18335421253249724061
69090 78 18342736329684176695

>  <PUBCHEM_SHAPE_MULTIPOLES>  (1) 
286.76
11.19
1.4
0.63
5.61
0.02
0.01
1.17
1.37
-0.57
0.03
0.15
0.03
0.25

>  <PUBCHEM_SHAPE_SELFOVERLAP>  (1) 
601.638

>  <PUBCHEM_SHAPE_VOLUME>  (1) 
160

>  <PUBCHEM_COORDINATE_TYPE>  (1) 
2
5
10

$$$$
