5832
     RDKit          3D

 25 28  0  0  1  0  0  0  0  0999 V2000
    3.9268   -0.5148   -0.5887 O   0  0  0  0  0  0  0  0  0  0  0  0
   -6.2540   -0.8932    1.3735 O   0  0  0  0  0  0  0  0  0  0  0  0
    5.4254    0.2102    1.0130 O   0  0  0  0  0  0  0  0  0  0  0  0
    1.4885   -0.1514   -0.5764 C   0  0  0  0  0  0  0  0  0  0  0  0
    0.6380    0.8936    0.1810 C   0  0  0  0  0  0  0  0  0  0  0  0
   -0.7574    1.0734   -0.4224 C   0  0  0  0  0  0  0  0  0  0  0  0
   -1.5080   -0.3018   -0.3778 C   0  0  0  0  0  0  0  0  0  0  0  0
    2.8424   -0.0182    0.1847 C   0  0  0  0  0  0  0  0  0  0  0  0
    0.7676   -1.5097   -0.4935 C   0  0  0  0  0  0  0  0  0  0  0  0
    1.5591    2.1073    0.2712 C   0  0  0  0  0  0  0  0  0  0  0  0
   -0.6760   -1.4325   -1.0253 C   0  0  0  0  0  0  0  0  0  0  0  0
   -2.9156   -0.1302   -1.0102 C   0  0  0  0  0  0  0  0  0  0  0  0
    2.9785    1.5142    0.3869 C   0  0  0  0  0  0  0  0  0  0  0  0
   -1.5628    2.1725    0.2994 C   0  0  0  0  0  0  0  0  0  0  0  0
    1.7064    0.1929   -2.0798 C   0  0  0  0  0  0  0  0  0  0  0  0
   -2.9904    2.2859   -0.2436 C   0  0  0  0  0  0  0  0  0  0  0  0
   -3.6464    0.9319   -0.2077 C   0  0  0  0  0  0  0  0  0  0  0  0
   -3.7607   -1.4060   -1.1449 C   0  0  0  0  0  0  0  0  0  0  0  0
    2.8530   -0.7052    1.4913 C   0  0  0  0  0  0  0  0  0  0  0  0
   -4.4008   -1.8235    0.1674 C   0  0  0  0  0  0  0  0  0  0  0  0
   -4.7281    0.6949    0.5496 C   0  0  0  0  0  0  0  0  0  0  0  0
   -5.2302   -0.6901    0.7243 C   0  0  0  0  0  0  0  0  0  0  0  0
    5.1723   -0.3330   -0.0537 C   0  0  0  0  0  0  0  0  0  0  0  0
    2.8621   -1.2639    2.5538 C   0  0  0  0  0  0  0  0  0  0  0  0
    6.2102   -0.9033   -0.9723 C   0  0  0  0  0  0  0  0  0  0  0  0
  1  8  1  0
  1 23  1  0
  2 22  2  0
  3 23  2  0
  4  5  1  0
  4  8  1  0
  4  9  1  0
  4 15  1  0
  5  6  1  0
  5 10  1  0
  6  7  1  0
  6 14  1  0
  7 11  1  0
  7 12  1  0
  8 13  1  0
  8 19  1  0
  9 11  1  0
 10 13  1  0
 12 17  1  0
 12 18  1  0
 14 16  1  0
 16 17  1  0
 17 21  2  0
 18 20  1  0
 19 24  3  0
 20 22  1  0
 21 22  1  0
 23 25  1  0
M  END
>  <PUBCHEM_COMPOUND_CID>  (1) 
5832

>  <PUBCHEM_CONFORMER_RMSD>  (1) 
0.8

>  <PUBCHEM_CONFORMER_DIVERSEORDER>  (1) 
1
2

>  <PUBCHEM_MMFF94_PARTIAL_CHARGES>  (1) 
16
1 -0.43
12 0.14
16 0.14
17 -0.28
19 -0.2
2 -0.57
20 0.06
21 -0.14
22 0.49
23 0.66
24 -0.18
25 0.06
3 -0.57
49 0.15
50 0.18
8 0.48

>  <PUBCHEM_EFFECTIVE_ROTOR_COUNT>  (1) 
3.8

>  <PUBCHEM_PHARMACOPHORE_FEATURES>  (1) 
7
1 2 acceptor
1 24 hydrophobe
1 3 acceptor
5 4 5 8 10 13 rings
6 12 17 18 20 21 22 rings
6 4 5 6 7 9 11 rings
6 6 7 12 14 16 17 rings

>  <PUBCHEM_HEAVY_ATOM_COUNT>  (1) 
25

>  <PUBCHEM_ATOM_DEF_STEREO_COUNT>  (1) 
6

>  <PUBCHEM_ATOM_UDEF_STEREO_COUNT>  (1) 
0

>  <PUBCHEM_BOND_DEF_STEREO_COUNT>  (1) 
0

>  <PUBCHEM_BOND_UDEF_STEREO_COUNT>  (1) 
0

>  <PUBCHEM_ISOTOPIC_ATOM_COUNT>  (1) 
0

>  <PUBCHEM_COMPONENT_COUNT>  (1) 
1

>  <PUBCHEM_CACTVS_TAUTO_COUNT>  (1) 
8

>  <PUBCHEM_CONFORMER_ID>  (1) 
000016C800000001

>  <PUBCHEM_MMFF94_ENERGY>  (1) 
71.5507

>  <PUBCHEM_FEATURE_SELFOVERLAP>  (1) 
35.634

>  <PUBCHEM_SHAPE_FINGERPRINT>  (1) 
10 15 18343011221251392040
10366900 7 17385725802751397984
10675989 125 16829242871909593689
11089746 13 14764346024956793339
11421498 54 17676486099740765568
11595378 159 18335127657764599320
12035758 1 17632285762590357826
12107183 9 17248347107522913585
12166972 35 17530972413972427236
12236239 1 17967818215289633948
12403259 415 17775559828064850440
12553582 1 18410562994625624239
12596602 18 18040997332457131544
12633257 1 17917990620419887025
12788726 201 18336263436270569369
13140716 1 18198904910382332575
13224815 77 18411415133533336725
13583140 156 17896017932594774885
14178342 30 18127695928888976809
14341114 176 18273498970265816744
14955137 171 18272938228041825128
15196674 1 18271523186325137413
15209289 33 18335420175228873827
15537594 2 18040149634757093635
15788980 27 18410008840796795959
1601671 61 18342736282855949462
17138139 8 17532085188554503355
17349148 13 17603588529836370481
1813 80 17822297859452824533
18927931 339 18412546513887040751
200 152 16008466529750313565
20028762 73 18058725939669895767
20261772 1 18273214222761305999
20715895 44 11023563375634327339
21033648 29 17202748324530632536
21150785 3 17023195950370709758
21267235 1 18411990160438850820
21521721 280 17385733542973327828
22122407 14 14333137403145498443
22182313 1 17916875594906125357
23402539 116 18060411421847569972
23522609 53 18121814752539977292
23557571 272 18060422382968346205
23559900 14 18131346363422440588
2838139 119 13901911064771915795
335352 9 18343584027854213701
350125 39 18342742935423278380
351380 3 18333449854781831755
4340502 62 17458059387625302810
465052 167 18335707156095208195
474 4 12679175046397669412
5104073 3 18200870776705521017
5265222 85 17917153905441316406
57724786 102 15912749705062550098
59755656 215 18341615871506335623

>  <PUBCHEM_SHAPE_MULTIPOLES>  (1) 
496.88
12.49
2.02
1.51
0.3
0.72
0.43
-3.85
2.41
-1.26
0.08
0.93
-0.59
0.05

>  <PUBCHEM_SHAPE_SELFOVERLAP>  (1) 
1067.114

>  <PUBCHEM_SHAPE_VOLUME>  (1) 
270.5

>  <PUBCHEM_COORDINATE_TYPE>  (1) 
2
5
10

$$$$
