584
     RDKit          3D

 14 15  0  0  1  0  0  0  0  0999 V2000
    0.4517   -0.9316   -0.4640 O   0  0  0  0  0  0  0  0  0  0  0  0
    2.2332   -0.0596   -1.7141 O   0  0  0  0  0  0  0  0  0  0  0  0
    1.8539   -0.1923    1.7993 O   0  0  0  0  0  0  0  0  0  0  0  0
    3.5999   -0.6743    0.4154 O   0  0  0  0  0  0  0  0  0  0  0  0
    1.4874    0.0523   -0.5080 C   0  0  0  0  0  0  0  0  0  0  0  0
   -1.1892    0.8056    0.0097 C   0  0  0  0  0  0  0  0  0  0  0  0
   -0.8309   -0.5256   -0.2196 C   0  0  0  0  0  0  0  0  0  0  0  0
    1.0910    1.4775   -0.2588 C   0  0  0  0  0  0  0  0  0  0  0  0
   -0.1694    1.8413   -0.0108 C   0  0  0  0  0  0  0  0  0  0  0  0
   -2.5294    1.1262    0.2553 C   0  0  0  0  0  0  0  0  0  0  0  0
   -1.8046   -1.5275   -0.2028 C   0  0  0  0  0  0  0  0  0  0  0  0
    2.4448   -0.3134    0.5855 C   0  0  0  0  0  0  0  0  0  0  0  0
   -3.5004    0.1237    0.2710 C   0  0  0  0  0  0  0  0  0  0  0  0
   -3.1380   -1.2022    0.0418 C   0  0  0  0  0  0  0  0  0  0  0  0
  1  5  1  0
  1  7  1  0
  2  5  1  0
  3 12  1  0
  4 12  2  0
  5  8  1  0
  5 12  1  0
  6  7  2  0
  6  9  1  0
  6 10  1  0
  7 11  1  0
  8  9  2  0
 10 13  2  0
 11 14  2  0
 13 14  1  0
M  END
>  <PUBCHEM_COMPOUND_CID>  (1) 
584

>  <PUBCHEM_CONFORMER_RMSD>  (1) 
0.6

>  <PUBCHEM_CONFORMER_DIVERSEORDER>  (1) 
1
2

>  <PUBCHEM_MMFF94_PARTIAL_CHARGES>  (1) 
22
1 -0.36
10 -0.15
11 -0.15
12 0.66
13 -0.15
14 -0.15
15 0.15
16 0.15
17 0.15
18 0.15
19 0.15
2 -0.68
20 0.15
21 0.4
22 0.5
3 -0.65
4 -0.57
5 0.76
6 0.03
7 0.08
8 -0.29
9 -0.18

>  <PUBCHEM_EFFECTIVE_ROTOR_COUNT>  (1) 
1.4

>  <PUBCHEM_PHARMACOPHORE_FEATURES>  (1) 
8
1 1 acceptor
1 2 acceptor
1 2 donor
1 3 acceptor
1 4 acceptor
3 3 4 12 anion
6 1 5 6 7 8 9 rings
6 6 7 10 11 13 14 rings

>  <PUBCHEM_HEAVY_ATOM_COUNT>  (1) 
14

>  <PUBCHEM_ATOM_DEF_STEREO_COUNT>  (1) 
0

>  <PUBCHEM_ATOM_UDEF_STEREO_COUNT>  (1) 
1

>  <PUBCHEM_BOND_DEF_STEREO_COUNT>  (1) 
0

>  <PUBCHEM_BOND_UDEF_STEREO_COUNT>  (1) 
0

>  <PUBCHEM_ISOTOPIC_ATOM_COUNT>  (1) 
0

>  <PUBCHEM_COMPONENT_COUNT>  (1) 
1

>  <PUBCHEM_CACTVS_TAUTO_COUNT>  (1) 
1

>  <PUBCHEM_CONFORMER_ID>  (1) 
0000024800000001

>  <PUBCHEM_MMFF94_ENERGY>  (1) 
34.0496

>  <PUBCHEM_FEATURE_SELFOVERLAP>  (1) 
40.739

>  <PUBCHEM_SHAPE_FINGERPRINT>  (1) 
10130415 120 18334012808982559097
10857977 72 18272085006970866793
11578080 2 17533187921460505260
12251169 10 18341608235011882177
12382932 28 18343584006110065689
12696612 119 18341047539995620197
12932764 1 17967535700841225277
13172582 1 18411420600878959457
13538477 17 18186806915095783951
13581323 91 18411132524231572786
14144814 61 18409169930620535075
15219456 202 17561366145490447494
15375462 189 17967811630624669594
15775835 57 18113343019910800093
16945 1 18412833460509648277
17804303 29 18272652303489343834
17990270 104 18270971274606212069
1813 80 17241891969989559442
18175812 5 17703782635113862460
18186145 218 12829483762114015399
19049666 15 17273425958419032952
19422 9 17967542276119637707
20361792 2 17749100106258835197
20559304 39 18335703870519008219
20645464 45 17632574942216079859
20653091 64 18116149050762498336
20715346 28 17632863027052383813
21501502 16 18268151040440252925
21501925 9 18269265923655618059
22445834 79 18041552551232088843
232386 152 18408040731920404814
23402539 116 18201143387634642853
23402655 69 8285936610233780059
23419403 2 16763038395045832909
23463225 33 18408041796993068903
23552423 10 17973167519684223477
23559900 14 18128546968601326070
2748010 2 18269276936036356093
5084963 1 17917726715858920207
53812653 166 18131070381508259499
7364860 26 18127130998771151880
74978 22 18262798591992446143
77492 1 17822017492725316710

>  <PUBCHEM_SHAPE_MULTIPOLES>  (1) 
264.64
5.12
1.57
1.02
0.38
0.36
-0.06
-1.27
-0.66
0.56
0.05
-0.82
-0.09
-0.26

>  <PUBCHEM_SHAPE_SELFOVERLAP>  (1) 
580.025

>  <PUBCHEM_SHAPE_VOLUME>  (1) 
141.8

>  <PUBCHEM_COORDINATE_TYPE>  (1) 
2
5
10

$$$$
