5845
     RDKit          3D

 24 30  0  0  0  0  0  0  0  0999 V2000
   -1.3731   -0.8177    0.3849 P   0  0  0  0  0  0  0  0  0  0  0  0
   -0.2005    1.4381   -0.6322 P   0  0  0  0  0  0  0  0  0  0  0  0
    1.3492   -0.6209    0.2788 P   0  0  0  0  0  0  0  0  0  0  0  0
   -2.3467   -0.2018    1.5632 N   0  0  0  0  0  0  0  0  0  0  0  0
   -2.0675   -2.1953   -0.1962 N   0  0  0  0  0  0  0  0  0  0  0  0
    0.1010    2.1005   -2.1119 N   0  0  0  0  0  0  0  0  0  0  0  0
   -0.8528    2.6017    0.3350 N   0  0  0  0  0  0  0  0  0  0  0  0
    2.6578   -0.8519    1.2537 N   0  0  0  0  0  0  0  0  0  0  0  0
    1.5995   -1.4292   -1.1352 N   0  0  0  0  0  0  0  0  0  0  0  0
   -1.2474    0.2370   -0.8168 N   0  0  0  0  0  0  0  0  0  0  0  0
    0.0501   -1.1929    1.0229 N   0  0  0  0  0  0  0  0  0  0  0  0
    1.1908    0.9486   -0.0016 N   0  0  0  0  0  0  0  0  0  0  0  0
   -2.6285   -1.0763    2.6942 C   0  0  0  0  0  0  0  0  0  0  0  0
   -1.7127    0.1038    2.8394 C   0  0  0  0  0  0  0  0  0  0  0  0
   -3.1195   -2.0219   -1.1895 C   0  0  0  0  0  0  0  0  0  0  0  0
   -1.7673   -2.5434   -1.5792 C   0  0  0  0  0  0  0  0  0  0  0  0
    0.2837    1.1663   -3.2153 C   0  0  0  0  0  0  0  0  0  0  0  0
   -0.9627    1.9947   -3.1025 C   0  0  0  0  0  0  0  0  0  0  0  0
   -0.2218    2.7993    1.6337 C   0  0  0  0  0  0  0  0  0  0  0  0
   -0.0537    3.8043    0.5319 C   0  0  0  0  0  0  0  0  0  0  0  0
    3.5206    0.3023    1.4712 C   0  0  0  0  0  0  0  0  0  0  0  0
    2.6173   -0.2031    2.5579 C   0  0  0  0  0  0  0  0  0  0  0  0
    2.9849   -1.5894   -1.5583 C   0  0  0  0  0  0  0  0  0  0  0  0
    2.1992   -2.7529   -1.0280 C   0  0  0  0  0  0  0  0  0  0  0  0
  1  4  1  0
  1  5  1  0
  1 10  2  0
  1 11  1  0
  2  6  1  0
  2  7  1  0
  2 10  1  0
  2 12  2  0
  3  8  1  0
  3  9  1  0
  3 11  2  0
  3 12  1  0
  4 13  1  0
  4 14  1  0
  5 15  1  0
  5 16  1  0
  6 17  1  0
  6 18  1  0
  7 19  1  0
  7 20  1  0
  8 21  1  0
  8 22  1  0
  9 23  1  0
  9 24  1  0
 13 14  1  0
 15 16  1  0
 17 18  1  0
 19 20  1  0
 21 22  1  0
 23 24  1  0
M  END
>  <PUBCHEM_COMPOUND_CID>  (1) 
5845

>  <PUBCHEM_CONFORMER_RMSD>  (1) 
1

>  <PUBCHEM_CONFORMER_DIVERSEORDER>  (1) 
1
4
5
3
2

>  <PUBCHEM_MMFF94_PARTIAL_CHARGES>  (1) 
48
1 1.17
10 -0.64
11 -0.64
12 -0.64
13 -0.04
14 -0.04
15 -0.04
16 -0.04
17 -0.04
18 -0.04
19 -0.04
2 1.17
20 -0.04
21 -0.04
22 -0.04
23 -0.04
24 -0.04
25 0.1
26 0.1
27 0.1
28 0.1
29 0.1
3 1.17
30 0.1
31 0.1
32 0.1
33 0.1
34 0.1
35 0.1
36 0.1
37 0.1
38 0.1
39 0.1
4 -0.58
40 0.1
41 0.1
42 0.1
43 0.1
44 0.1
45 0.1
46 0.1
47 0.1
48 0.1
5 -0.58
6 -0.58
7 -0.58
8 -0.58
9 -0.58

>  <PUBCHEM_EFFECTIVE_ROTOR_COUNT>  (1) 
9.6

>  <PUBCHEM_PHARMACOPHORE_FEATURES>  (1) 
1
6 1 2 3 10 11 12 rings

>  <PUBCHEM_HEAVY_ATOM_COUNT>  (1) 
24

>  <PUBCHEM_ATOM_DEF_STEREO_COUNT>  (1) 
0

>  <PUBCHEM_ATOM_UDEF_STEREO_COUNT>  (1) 
0

>  <PUBCHEM_BOND_DEF_STEREO_COUNT>  (1) 
0

>  <PUBCHEM_BOND_UDEF_STEREO_COUNT>  (1) 
0

>  <PUBCHEM_ISOTOPIC_ATOM_COUNT>  (1) 
0

>  <PUBCHEM_COMPONENT_COUNT>  (1) 
1

>  <PUBCHEM_CACTVS_TAUTO_COUNT>  (1) 
1

>  <PUBCHEM_CONFORMER_ID>  (1) 
000016D500000001

>  <PUBCHEM_MMFF94_ENERGY>  (1) 
61.331

>  <PUBCHEM_FEATURE_SELFOVERLAP>  (1) 
5.074

>  <PUBCHEM_SHAPE_FINGERPRINT>  (1) 
11578080 2 12291530741936803475
12654903 92 13552285096595252258
133893 2 11013878919739280997
13681431 1 12284302405880846173
16945 1 10428051651311987820
22889148 1 11346081523249354743
229495 10 11302806029838772509
23419403 2 10153539911741777661
238 59 16456284125166897181
35225 105 8309970756598787892
394222 165 10806255742907078543
5845 1 15767204081938697496
81228 2 18042686096138318543

>  <PUBCHEM_SHAPE_MULTIPOLES>  (1) 
460.63
4.11
3.7
3.45
1.54
1.66
-0.86
-3.08
1.98
-0.47
-1.18
-0.84
1.15
0.41

>  <PUBCHEM_SHAPE_SELFOVERLAP>  (1) 
920.004

>  <PUBCHEM_SHAPE_VOLUME>  (1) 
277.4

>  <PUBCHEM_COORDINATE_TYPE>  (1) 
2
5
10

$$$$
