5854
     RDKit          3D

 27 31  0  0  1  0  0  0  0  0999 V2000
   -2.6479    2.6380    1.9070 O   0  0  0  0  0  0  0  0  0  0  0  0
    5.8886   -1.7317    1.0122 O   0  0  0  0  0  0  0  0  0  0  0  0
   -5.6850   -2.2070   -0.6728 O   0  0  0  0  0  0  0  0  0  0  0  0
   -3.6098   -0.4156    0.0927 N   0  0  0  0  0  0  0  0  0  0  0  0
   -0.4654    0.3665    0.0370 C   0  0  0  0  0  0  0  0  0  0  0  0
    1.0405    0.1234    0.4372 C   0  0  0  0  0  0  0  0  0  0  0  0
    2.0343    0.7142   -0.6205 C   0  0  0  0  0  0  0  0  0  0  0  0
    3.4593    0.4840   -0.1096 C   0  0  0  0  0  0  0  0  0  0  0  0
   -0.6409    1.9045   -0.1648 C   0  0  0  0  0  0  0  0  0  0  0  0
    3.7716   -1.0189    0.0481 C   0  0  0  0  0  0  0  0  0  0  0  0
    1.3797   -1.3489    0.7972 C   0  0  0  0  0  0  0  0  0  0  0  0
    1.7543    2.1989   -0.8879 C   0  0  0  0  0  0  0  0  0  0  0  0
   -1.4113   -0.0707    1.1988 C   0  0  0  0  0  0  0  0  0  0  0  0
    0.2920    2.4610   -1.2463 C   0  0  0  0  0  0  0  0  0  0  0  0
    2.8644   -1.5740    1.1416 C   0  0  0  0  0  0  0  0  0  0  0  0
   -2.1030    2.3144   -0.4077 C   0  0  0  0  0  0  0  0  0  0  0  0
    4.6475    1.0326   -0.8915 C   0  0  0  0  0  0  0  0  0  0  0  0
   -2.8840    0.3804    1.0803 C   0  0  0  0  0  0  0  0  0  0  0  0
   -0.8121   -0.4356   -1.2428 C   0  0  0  0  0  0  0  0  0  0  0  0
   -3.0044    1.8753    0.7503 C   0  0  0  0  0  0  0  0  0  0  0  0
    5.2475   -0.9004    0.3833 C   0  0  0  0  0  0  0  0  0  0  0  0
    5.8454    0.3726   -0.1925 C   0  0  0  0  0  0  0  0  0  0  0  0
    3.6806   -1.8654   -1.2351 C   0  0  0  0  0  0  0  0  0  0  0  0
   -5.0079    0.0259   -0.0077 C   0  0  0  0  0  0  0  0  0  0  0  0
   -3.5563   -1.8442    0.4326 C   0  0  0  0  0  0  0  0  0  0  0  0
   -5.7481   -0.8268   -1.0343 C   0  0  0  0  0  0  0  0  0  0  0  0
   -4.3299   -2.6525   -0.6050 C   0  0  0  0  0  0  0  0  0  0  0  0
  1 20  1  0
  2 21  2  0
  3 26  1  0
  3 27  1  0
  4 18  1  0
  4 24  1  0
  4 25  1  0
  5  6  1  0
  5  9  1  0
  5 13  1  0
  5 19  1  0
  6  7  1  0
  6 11  1  0
  7  8  1  0
  7 12  1  0
  8 10  1  0
  8 17  1  0
  9 14  1  0
  9 16  1  0
 10 15  1  0
 10 21  1  0
 10 23  1  0
 11 15  1  0
 12 14  1  0
 13 18  1  0
 16 20  1  0
 17 22  1  0
 18 20  1  0
 21 22  1  0
 24 26  1  0
 25 27  1  0
M  END
>  <PUBCHEM_COMPOUND_CID>  (1) 
5854

>  <PUBCHEM_CONFORMER_RMSD>  (1) 
0.8

>  <PUBCHEM_CONFORMER_DIVERSEORDER>  (1) 
1
3
2

>  <PUBCHEM_MMFF94_PARTIAL_CHARGES>  (1) 
14
1 -0.68
10 0.06
18 0.27
2 -0.57
20 0.28
21 0.45
22 0.06
24 0.27
25 0.27
26 0.28
27 0.28
3 -0.56
4 -0.81
56 0.4

>  <PUBCHEM_EFFECTIVE_ROTOR_COUNT>  (1) 
4.2

>  <PUBCHEM_PHARMACOPHORE_FEATURES>  (1) 
10
1 1 acceptor
1 1 donor
1 2 acceptor
1 3 acceptor
1 4 cation
5 8 10 17 21 22 rings
6 3 4 24 25 26 27 rings
6 5 6 7 9 12 14 rings
6 5 9 13 16 18 20 rings
6 6 7 8 10 11 15 rings

>  <PUBCHEM_HEAVY_ATOM_COUNT>  (1) 
27

>  <PUBCHEM_ATOM_DEF_STEREO_COUNT>  (1) 
8

>  <PUBCHEM_ATOM_UDEF_STEREO_COUNT>  (1) 
0

>  <PUBCHEM_BOND_DEF_STEREO_COUNT>  (1) 
0

>  <PUBCHEM_BOND_UDEF_STEREO_COUNT>  (1) 
0

>  <PUBCHEM_ISOTOPIC_ATOM_COUNT>  (1) 
0

>  <PUBCHEM_COMPONENT_COUNT>  (1) 
1

>  <PUBCHEM_CACTVS_TAUTO_COUNT>  (1) 
2

>  <PUBCHEM_CONFORMER_ID>  (1) 
000016DE00000001

>  <PUBCHEM_MMFF94_ENERGY>  (1) 
90.5492

>  <PUBCHEM_FEATURE_SELFOVERLAP>  (1) 
50.839

>  <PUBCHEM_SHAPE_FINGERPRINT>  (1) 
10369192 42 17271135934219945112
10447042 23 17894628154471879258
10622 236 18264469772342443595
11135609 187 17825955003158884284
11135609 201 17202183305421216312
11552529 35 18201439134149283641
11578080 2 18269815623567386169
12107183 9 17691129236274110554
12166972 35 17968096494932067359
12236239 1 18413108368069789678
12516196 113 18410008866255402081
12553582 1 17896056376614867832
12596602 18 17917996075075949600
12788726 201 18341609300781080331
13224815 77 18335421219159108320
13583140 156 16558176108288913872
13782708 43 17346328055345741334
13862211 1 18260545615526695858
14068700 675 18342733053045947601
1454969 45 18261678181703031460
14787075 74 18335709368625981264
15183329 4 18113886157908065991
15196674 1 18187649055620421960
15250474 111 18409726231817571466
15420108 30 17834116338727276265
15788980 27 14273747252231300682
17349148 13 18409454708274128585
17357779 13 17095239233108180541
17857418 61 18410293622581826150
1813 80 17604448309512073612
18222031 100 18333725836447813640
18681886 176 18340762762167908250
19141452 34 18266184937234636761
200 152 18335701667564652305
20028762 73 18409162182996360354
20511986 3 18261943085709086953
20775438 99 16686231082797320103
21033648 29 16056589898850723698
21267235 1 18261402126014659930
21756936 100 8358257034230663025
22393880 68 17677319641313498739
23402539 116 18407757032119051207
23557571 272 17775292625280412041
23559900 14 18263637523759912841
23622692 118 18410853274396334477
24771293 8 18336831983231521820
25147074 1 18337409200475287741
2871803 45 17894630340515053616
3004659 81 18334848468264501291
3009799 131 17822284708321083317
339767 52 18412539933670355223
34797466 226 17274830185761763536
350125 39 18341894112430512304
4015057 19 17604157024709206685
4098825 35 17967245426130464781
4325135 7 18409167719097584070
4340502 62 16559029381558810894
439807 62 18191305095335108031
46194498 28 17096922693259138063
463206 1 18125721433892218527
474113 269 16806703128974846690
497634 4 18341898458932245037
5104073 3 18409451345847817872
5283173 99 17677038045703268549
5924683 9 18341333310145361849
67856867 119 18339363088134712933
6913067 236 17313376842838188932
7471813 234 18340766052302903797
7495541 125 17560797762434961120
9709674 26 18188784855258051138
9849439 229 16624359965468186697

>  <PUBCHEM_SHAPE_MULTIPOLES>  (1) 
533.06
12.91
2.82
1.28
1.25
0.5
0.13
-7.25
-1.15
-1.62
-0.22
-0.3
0.14
-1.83

>  <PUBCHEM_SHAPE_SELFOVERLAP>  (1) 
1136.676

>  <PUBCHEM_SHAPE_VOLUME>  (1) 
293.9

>  <PUBCHEM_COORDINATE_TYPE>  (1) 
2
5
10

$$$$
