5855
     RDKit          3D

 23 26  0  0  1  0  0  0  0  0999 V2000
    5.1938   -1.1704   -0.3004 O   0  0  0  0  0  0  0  0  0  0  0  0
   -4.8283   -0.6589   -1.2359 O   0  0  0  0  0  0  0  0  0  0  0  0
   -0.1778   -0.3117   -0.0272 C   0  0  0  0  0  0  0  0  0  0  0  0
    0.7105    0.9679   -0.1961 C   0  0  0  0  0  0  0  0  0  0  0  0
   -1.6165   -0.0504   -0.5480 C   0  0  0  0  0  0  0  0  0  0  0  0
    2.0936    0.6676    0.3961 C   0  0  0  0  0  0  0  0  0  0  0  0
    2.7957   -0.5306   -0.2850 C   0  0  0  0  0  0  0  0  0  0  0  0
   -2.1780    1.1366    0.2630 C   0  0  0  0  0  0  0  0  0  0  0  0
    0.4896   -1.5786   -0.6064 C   0  0  0  0  0  0  0  0  0  0  0  0
    1.9217   -1.7825   -0.0755 C   0  0  0  0  0  0  0  0  0  0  0  0
    4.1764   -0.5010    0.4413 C   0  0  0  0  0  0  0  0  0  0  0  0
    0.0607    2.2127    0.4499 C   0  0  0  0  0  0  0  0  0  0  0  0
    3.1520    1.7642    0.3702 C   0  0  0  0  0  0  0  0  0  0  0  0
   -2.6570   -1.1330   -0.1855 C   0  0  0  0  0  0  0  0  0  0  0  0
   -1.4032    2.4231    0.0324 C   0  0  0  0  0  0  0  0  0  0  0  0
    4.4863    1.0170    0.5530 C   0  0  0  0  0  0  0  0  0  0  0  0
   -3.6688    1.1298   -0.0496 C   0  0  0  0  0  0  0  0  0  0  0  0
   -4.0139   -0.3780   -0.1062 C   0  0  0  0  0  0  0  0  0  0  0  0
   -1.6253    0.1746   -2.0822 C   0  0  0  0  0  0  0  0  0  0  0  0
    3.0051   -0.3302   -1.8155 C   0  0  0  0  0  0  0  0  0  0  0  0
    4.1964   -1.1515    1.8306 C   0  0  0  0  0  0  0  0  0  0  0  0
   -4.7544   -0.7902    1.0978 C   0  0  0  0  0  0  0  0  0  0  0  0
   -5.3586   -1.1263    2.0791 C   0  0  0  0  0  0  0  0  0  0  0  0
  1 11  1  0
  2 18  1  0
  3  4  1  0
  3  5  1  0
  3  9  1  0
  4  6  1  0
  4 12  1  0
  5  8  1  0
  5 14  1  0
  5 19  1  0
  6  7  1  0
  6 13  1  0
  7 10  1  0
  7 11  1  0
  7 20  1  0
  8 15  1  0
  8 17  1  0
  9 10  1  0
 11 16  1  0
 11 21  1  0
 12 15  1  0
 13 16  1  0
 14 18  1  0
 17 18  1  0
 18 22  1  0
 22 23  3  0
M  END
>  <PUBCHEM_COMPOUND_CID>  (1) 
5855

>  <PUBCHEM_CONFORMER_RMSD>  (1) 
0.6

>  <PUBCHEM_CONFORMER_DIVERSEORDER>  (1) 
1

>  <PUBCHEM_MMFF94_PARTIAL_CHARGES>  (1) 
9
1 -0.68
11 0.28
18 0.48
2 -0.68
22 -0.2
23 -0.18
53 0.4
54 0.4
55 0.18

>  <PUBCHEM_EFFECTIVE_ROTOR_COUNT>  (1) 
2

>  <PUBCHEM_PHARMACOPHORE_FEATURES>  (1) 
9
1 1 acceptor
1 1 donor
1 2 acceptor
1 2 donor
1 23 hydrophobe
5 5 8 14 17 18 rings
5 6 7 11 13 16 rings
6 3 4 5 8 12 15 rings
6 3 4 6 7 9 10 rings

>  <PUBCHEM_HEAVY_ATOM_COUNT>  (1) 
23

>  <PUBCHEM_ATOM_DEF_STEREO_COUNT>  (1) 
8

>  <PUBCHEM_ATOM_UDEF_STEREO_COUNT>  (1) 
0

>  <PUBCHEM_BOND_DEF_STEREO_COUNT>  (1) 
0

>  <PUBCHEM_BOND_UDEF_STEREO_COUNT>  (1) 
0

>  <PUBCHEM_ISOTOPIC_ATOM_COUNT>  (1) 
0

>  <PUBCHEM_COMPONENT_COUNT>  (1) 
1

>  <PUBCHEM_CACTVS_TAUTO_COUNT>  (1) 
1

>  <PUBCHEM_CONFORMER_ID>  (1) 
000016DF00000001

>  <PUBCHEM_MMFF94_ENERGY>  (1) 
96.7453

>  <PUBCHEM_FEATURE_SELFOVERLAP>  (1) 
45.805

>  <PUBCHEM_SHAPE_FINGERPRINT>  (1) 
10366900 7 18187368709908750714
11132069 177 17989480814385362695
11552529 35 16128079166058396343
11578080 2 17098893829227915550
11796584 16 17095511869052856075
12236239 1 17894634717313620582
12403814 3 17846208960687366765
12553582 1 18341338850726818911
12596602 18 17822281371859612112
12633257 1 18342182206373955691
128620 24 18113058233403410853
13103583 49 18266764487980112227
13140716 1 18198061584784558331
13224815 77 18342449327131905308
13544653 18 18334015016885841061
13583140 156 17749930233411721702
13675066 3 17846772992835272920
13862211 1 18413099567692739559
14178342 30 18055350232913731016
14223421 5 18268430135535505381
14252887 29 17917436406087041542
14341114 176 18409171021589701138
14341114 328 17989490757419334099
14787075 74 18200871889175981049
14790565 3 17762902469244814256
15196674 1 18342172258812908136
15209294 21 16917078745936856243
15788980 27 18411416202531787503
16945 1 18270120080844700724
17349148 13 18040157296804201850
17492 89 18263360292079372802
1813 80 17894641361227302669
18785283 64 18046355394422250429
19141452 34 17632295700733308871
19862831 5 11818995171032717149
200 152 18113896048494957847
20028762 73 18130224990586176103
20261772 1 18131064948295690630
20739085 24 18341065089147920649
21267235 1 18413114952297073406
22182313 1 17916027849855562093
23184049 59 18060144262397757069
23402539 116 18272358767933054607
23557571 272 18060422370041122916
23559900 14 18056759819626268374
26918003 58 18186519900033131235
2838139 119 13829304762781441299
2871803 45 18409722950351124724
296302 2 11743834776698246396
312423 11 18335150764952688020
3286 77 18114178627373384636
3472631 163 13901914388828734723
350125 39 18342175557965158448
392239 28 18410296942882112723
4340502 62 17386001823741849320
465052 167 18334017185807831234
5104073 3 18410853226909192832
7064713 232 16917066680925458679
7495541 125 17604154825600931461
8272917 22 13758088354672172172
9709674 26 18341897355088635870

>  <PUBCHEM_SHAPE_MULTIPOLES>  (1) 
461.59
10.72
2
1.48
2.74
0.76
0.08
-3.62
-3.54
-0.25
-0.35
0.56
-0.45
0.56

>  <PUBCHEM_SHAPE_SELFOVERLAP>  (1) 
986.73

>  <PUBCHEM_SHAPE_VOLUME>  (1) 
257.4

>  <PUBCHEM_COORDINATE_TYPE>  (1) 
2
5
10

$$$$
