5857
     RDKit          3D

 21 24  0  0  1  0  0  0  0  0999 V2000
   -4.3951    0.6611   -0.7757 O   0  0  0  0  0  0  0  0  0  0  0  0
   -1.1718   -0.7871    0.1757 C   0  0  0  0  0  0  0  0  0  0  0  0
   -1.9657    0.2742   -0.6188 C   0  0  0  0  0  0  0  0  0  0  0  0
    0.2558   -0.9741   -0.3452 C   0  0  0  0  0  0  0  0  0  0  0  0
    1.0180    0.3914   -0.2409 C   0  0  0  0  0  0  0  0  0  0  0  0
   -1.2393    1.6237   -0.4731 C   0  0  0  0  0  0  0  0  0  0  0  0
   -3.3647    0.1447    0.0563 C   0  0  0  0  0  0  0  0  0  0  0  0
   -2.1076   -1.9931    0.1950 C   0  0  0  0  0  0  0  0  0  0  0  0
    0.2331    1.5400   -0.9177 C   0  0  0  0  0  0  0  0  0  0  0  0
    2.4609    0.2168   -0.7960 C   0  0  0  0  0  0  0  0  0  0  0  0
   -3.5264   -1.3885    0.2301 C   0  0  0  0  0  0  0  0  0  0  0  0
    1.0039   -2.0870    0.4135 C   0  0  0  0  0  0  0  0  0  0  0  0
   -2.0936   -0.0491   -2.1370 C   0  0  0  0  0  0  0  0  0  0  0  0
    3.1325   -0.8803    0.0151 C   0  0  0  0  0  0  0  0  0  0  0  0
    2.4532   -2.2197   -0.0581 C   0  0  0  0  0  0  0  0  0  0  0  0
    3.3188    1.4973   -0.8395 C   0  0  0  0  0  0  0  0  0  0  0  0
    3.9306    1.8292    0.5163 C   0  0  0  0  0  0  0  0  0  0  0  0
   -3.4498    0.8157    1.3686 C   0  0  0  0  0  0  0  0  0  0  0  0
    4.2026   -0.6631    0.7986 C   0  0  0  0  0  0  0  0  0  0  0  0
    4.8241    0.6863    0.9974 C   0  0  0  0  0  0  0  0  0  0  0  0
   -3.5194    1.3616    2.4354 C   0  0  0  0  0  0  0  0  0  0  0  0
  1  7  1  0
  2  3  1  0
  2  4  1  0
  2  8  1  0
  3  6  1  0
  3  7  1  0
  3 13  1  0
  4  5  1  0
  4 12  1  0
  5  9  1  0
  5 10  1  0
  6  9  1  0
  7 11  1  0
  7 18  1  0
  8 11  1  0
 10 14  1  0
 10 16  1  0
 12 15  1  0
 14 15  1  0
 14 19  2  0
 16 17  1  0
 17 20  1  0
 18 21  3  0
 19 20  1  0
M  END
>  <PUBCHEM_COMPOUND_CID>  (1) 
5857

>  <PUBCHEM_CONFORMER_RMSD>  (1) 
0.6

>  <PUBCHEM_CONFORMER_DIVERSEORDER>  (1) 
1

>  <PUBCHEM_MMFF94_PARTIAL_CHARGES>  (1) 
12
1 -0.68
10 0.14
14 -0.28
15 0.14
18 -0.2
19 -0.29
20 0.14
21 -0.18
45 0.4
46 0.15
49 0.18
7 0.48

>  <PUBCHEM_EFFECTIVE_ROTOR_COUNT>  (1) 
2

>  <PUBCHEM_PHARMACOPHORE_FEATURES>  (1) 
7
1 1 acceptor
1 1 donor
1 21 hydrophobe
5 2 3 7 8 11 rings
6 10 14 16 17 19 20 rings
6 2 3 4 5 6 9 rings
6 4 5 10 12 14 15 rings

>  <PUBCHEM_HEAVY_ATOM_COUNT>  (1) 
21

>  <PUBCHEM_ATOM_DEF_STEREO_COUNT>  (1) 
6

>  <PUBCHEM_ATOM_UDEF_STEREO_COUNT>  (1) 
0

>  <PUBCHEM_BOND_DEF_STEREO_COUNT>  (1) 
0

>  <PUBCHEM_BOND_UDEF_STEREO_COUNT>  (1) 
0

>  <PUBCHEM_ISOTOPIC_ATOM_COUNT>  (1) 
0

>  <PUBCHEM_COMPONENT_COUNT>  (1) 
1

>  <PUBCHEM_CACTVS_TAUTO_COUNT>  (1) 
1

>  <PUBCHEM_CONFORMER_ID>  (1) 
000016E100000001

>  <PUBCHEM_MMFF94_ENERGY>  (1) 
58.0822

>  <PUBCHEM_FEATURE_SELFOVERLAP>  (1) 
35.628

>  <PUBCHEM_SHAPE_FINGERPRINT>  (1) 
10646746 165 17489877003148348920
10967382 1 18334574629349194590
11132069 177 18260266356236034734
11552529 35 18128814325182270730
11640471 11 17774732965034237995
11796584 16 14779264185610846280
12173636 292 17989209239614601231
12236239 1 18060413591438978959
12390115 104 18123482828444783356
12403814 3 17385438839027704503
12553582 1 18188505617452919100
12633257 1 18410009897496056930
12644460 14 17531822358563275092
12670546 56 17988644056061739233
12892183 10 18271823301918511075
13140716 1 18262241139317614928
13224815 77 18409167731533982502
13675066 3 17530684303276147976
14178342 30 18338243755211448754
14223421 5 18336262341095775158
14289901 80 17749107811572686372
14739800 52 17274525565090049914
14787075 74 17769654531373909225
14790565 3 17973173004606186228
15163728 17 15625119524878841377
15196674 1 18334292102005276006
15209294 21 18201444661672194241
15309172 13 18335146371174627667
15375358 24 18113610171208359045
15536298 74 18411983550885329830
15788980 27 17167857573691525124
16945 1 18334580092257386398
17349148 13 18262502780304229150
1813 80 16950290615065385743
18186145 218 18410580574116684070
19862831 5 9943813295987288302
200 152 18270668879276611895
20739085 24 18187944866950202996
21069387 34 7781503802911981497
21267235 1 18333739026007965062
22182313 1 17896595089935943342
22854114 59 18408884053154633418
23402539 116 18335406998168996246
23559900 14 18335977593723444758
2748010 2 17899133815108370551
296302 2 18272085028419355494
3472631 163 17059784295634460657
34934 24 18335973216687468719
350125 39 18334293167895773740
474 4 18341610451679328032
5104073 3 18407761443034731714
633830 44 18202288026325555404
7364860 26 18340765932455399630
9709674 26 18335139786884579598

>  <PUBCHEM_SHAPE_MULTIPOLES>  (1) 
426.3
8.76
2.16
1.48
2.87
0.54
-0.24
-2.03
-2.78
0.61
-0.25
-1.3
-0.62
-0.58

>  <PUBCHEM_SHAPE_SELFOVERLAP>  (1) 
911.528

>  <PUBCHEM_SHAPE_VOLUME>  (1) 
233.4

>  <PUBCHEM_COORDINATE_TYPE>  (1) 
2
5
10

$$$$
