5858
     RDKit          3D

 22 25  0  0  1  0  0  0  0  0999 V2000
   -4.6685    0.8751   -0.6935 O   0  0  0  0  0  0  0  0  0  0  0  0
    6.0773    0.1811    1.0226 O   0  0  0  0  0  0  0  0  0  0  0  0
   -2.2343    0.4752   -0.4998 C   0  0  0  0  0  0  0  0  0  0  0  0
   -1.4790   -0.7486    0.0635 C   0  0  0  0  0  0  0  0  0  0  0  0
   -0.0329   -0.8374   -0.4350 C   0  0  0  0  0  0  0  0  0  0  0  0
    0.7330    0.4475   -0.0035 C   0  0  0  0  0  0  0  0  0  0  0  0
   -3.6622    0.2197    0.0750 C   0  0  0  0  0  0  0  0  0  0  0  0
   -1.5033    1.7388   -0.0172 C   0  0  0  0  0  0  0  0  0  0  0  0
   -2.4215   -1.9122   -0.2250 C   0  0  0  0  0  0  0  0  0  0  0  0
   -0.0180    1.7365   -0.4226 C   0  0  0  0  0  0  0  0  0  0  0  0
   -3.8331   -1.3157   -0.0721 C   0  0  0  0  0  0  0  0  0  0  0  0
    2.2060    0.4213   -0.5149 C   0  0  0  0  0  0  0  0  0  0  0  0
    0.6859   -2.0780    0.1109 C   0  0  0  0  0  0  0  0  0  0  0  0
   -2.3002    0.5026   -2.0549 C   0  0  0  0  0  0  0  0  0  0  0  0
   -3.8779    0.6445    1.5329 C   0  0  0  0  0  0  0  0  0  0  0  0
    2.1142   -2.1504   -0.4176 C   0  0  0  0  0  0  0  0  0  0  0  0
    2.8925   -0.8872   -0.1447 C   0  0  0  0  0  0  0  0  0  0  0  0
    2.9824    1.6447    0.0146 C   0  0  0  0  0  0  0  0  0  0  0  0
    4.4831    1.5116   -0.1749 C   0  0  0  0  0  0  0  0  0  0  0  0
   -5.2558    0.2480    2.0190 C   0  0  0  0  0  0  0  0  0  0  0  0
    4.1345   -0.9643    0.3593 C   0  0  0  0  0  0  0  0  0  0  0  0
    4.9778    0.2473    0.4779 C   0  0  0  0  0  0  0  0  0  0  0  0
  1  7  1  0
  2 22  2  0
  3  4  1  0
  3  7  1  0
  3  8  1  0
  3 14  1  0
  4  5  1  0
  4  9  1  0
  5  6  1  0
  5 13  1  0
  6 10  1  0
  6 12  1  0
  7 11  1  0
  7 15  1  0
  8 10  1  0
  9 11  1  0
 12 17  1  0
 12 18  1  0
 13 16  1  0
 15 20  1  0
 16 17  1  0
 17 21  2  0
 18 19  1  0
 19 22  1  0
 21 22  1  0
M  END
>  <PUBCHEM_COMPOUND_CID>  (1) 
5858

>  <PUBCHEM_CONFORMER_RMSD>  (1) 
0.6

>  <PUBCHEM_CONFORMER_DIVERSEORDER>  (1) 
1

>  <PUBCHEM_MMFF94_PARTIAL_CHARGES>  (1) 
11
1 -0.68
12 0.14
16 0.14
17 -0.28
19 0.06
2 -0.57
21 -0.14
22 0.49
46 0.4
52 0.15
7 0.28

>  <PUBCHEM_EFFECTIVE_ROTOR_COUNT>  (1) 
2.8

>  <PUBCHEM_PHARMACOPHORE_FEATURES>  (1) 
8
1 1 acceptor
1 1 donor
1 2 acceptor
1 20 hydrophobe
5 3 4 7 9 11 rings
6 12 17 18 19 21 22 rings
6 3 4 5 6 8 10 rings
6 5 6 12 13 16 17 rings

>  <PUBCHEM_HEAVY_ATOM_COUNT>  (1) 
22

>  <PUBCHEM_ATOM_DEF_STEREO_COUNT>  (1) 
6

>  <PUBCHEM_ATOM_UDEF_STEREO_COUNT>  (1) 
0

>  <PUBCHEM_BOND_DEF_STEREO_COUNT>  (1) 
0

>  <PUBCHEM_BOND_UDEF_STEREO_COUNT>  (1) 
0

>  <PUBCHEM_ISOTOPIC_ATOM_COUNT>  (1) 
0

>  <PUBCHEM_COMPONENT_COUNT>  (1) 
1

>  <PUBCHEM_CACTVS_TAUTO_COUNT>  (1) 
8

>  <PUBCHEM_CONFORMER_ID>  (1) 
000016E200000001

>  <PUBCHEM_MMFF94_ENERGY>  (1) 
70.1343

>  <PUBCHEM_FEATURE_SELFOVERLAP>  (1) 
40.69

>  <PUBCHEM_SHAPE_FINGERPRINT>  (1) 
10 15 18186801400653305184
10493431 412 18343028787314230411
10967382 1 18410572868834578710
11089746 13 17060331929206703952
11132069 177 18408323284928703527
11578080 2 16662878125626376350
12236239 1 17632293445996518047
12403259 415 18334570253157614036
12403814 3 17822007618912001637
12507557 5 18333443249106332116
12553582 1 18337965527293363037
12596602 18 17775297040828572171
12633257 1 18408888463938340538
12788726 201 16557921004490490435
13140716 1 18266464384844001793
13214271 11 18342453755538534911
13224815 77 18411981368814966638
13675066 3 17894916217432419991
14341114 176 18408605834264403610
14341114 328 18272376398921744212
14790565 3 18194128644962553548
15163728 17 15050632391784027915
15188451 53 15647339692661173259
15196674 1 18409727395890228446
15209294 21 17988651778639661097
15536298 74 18343586213923865350
15788980 27 17676203584885908708
15880784 105 13839991023170008094
16945 1 18338514119112948551
17349148 13 18187080668048233596
1813 80 17386018268564879869
18186145 218 18411700980786728966
18785283 64 17970082229568874637
19050596 39 18411982481359150292
200 152 18272640269064749423
21033648 29 18041824177912547892
21267235 1 18409454712506182142
21421861 104 18116148875054137138
21623110 236 18337956812936542413
21637258 2 15719685359077770859
22182313 1 18116149974138126679
22854114 59 18408604755731642590
23402539 116 18339068372021235702
23559900 14 18340483375236581598
25147074 1 18195817486258379869
26918003 58 17748544835675362041
296302 2 18273215296065403526
335352 9 18409727331196596636
34797466 226 15410613739325427200
34934 24 18410847733825180183
350125 39 18268712886745445099
3633792 109 18270673161712271429
3680242 22 18408885105843829034
474 4 18413107273185523114
5104073 3 18338795740640585904
542803 24 17418094317192814608
59755656 215 18338800018602442902
633830 44 17988928907267892692
7495541 125 16226342494056517228
9709674 26 18410578379209567398

>  <PUBCHEM_SHAPE_MULTIPOLES>  (1) 
441.01
11.01
2.02
1.23
4.64
0.49
-0.09
-1.73
-4.3
0.54
0.19
-1.53
-0.24
-0.13

>  <PUBCHEM_SHAPE_SELFOVERLAP>  (1) 
941.681

>  <PUBCHEM_SHAPE_VOLUME>  (1) 
242.9

>  <PUBCHEM_COORDINATE_TYPE>  (1) 
2
5
10

$$$$
