5861
     RDKit          3D

 22 24  0  0  1  0  0  0  0  0999 V2000
   -0.1970    1.5561   -0.4527 O   0  0  0  0  0  0  0  0  0  0  0  0
    0.8909    1.5129    1.5767 O   0  0  0  0  0  0  0  0  0  0  0  0
    4.2578    2.0940   -1.1965 O   0  0  0  0  0  0  0  0  0  0  0  0
   -3.5084   -0.9051   -0.5397 N   0  0  0  0  0  0  0  0  0  0  0  0
   -3.8498    0.5995   -0.5636 C   0  0  0  0  0  0  0  0  0  0  0  0
   -2.7046   -0.9758    0.7756 C   0  0  0  0  0  0  0  0  0  0  0  0
   -4.3129    0.8663    0.8783 C   0  0  0  0  0  0  0  0  0  0  0  0
   -3.5693   -0.1559    1.7475 C   0  0  0  0  0  0  0  0  0  0  0  0
   -2.5810    1.4117   -0.8789 C   0  0  0  0  0  0  0  0  0  0  0  0
   -1.3338   -0.3039    0.5794 C   0  0  0  0  0  0  0  0  0  0  0  0
   -1.4393    1.1577    0.1176 C   0  0  0  0  0  0  0  0  0  0  0  0
   -2.7648   -1.4131   -1.7734 C   0  0  0  0  0  0  0  0  0  0  0  0
   -4.7846   -1.7663   -0.4615 C   0  0  0  0  0  0  0  0  0  0  0  0
    0.9016    1.4250    0.3556 C   0  0  0  0  0  0  0  0  0  0  0  0
    2.1402    1.1588   -0.4950 C   0  0  0  0  0  0  0  0  0  0  0  0
    3.1521    2.3007   -0.3227 C   0  0  0  0  0  0  0  0  0  0  0  0
    2.7417   -0.2011   -0.1777 C   0  0  0  0  0  0  0  0  0  0  0  0
    3.6987   -0.2939    0.8132 C   0  0  0  0  0  0  0  0  0  0  0  0
    2.3134   -1.3041   -0.8890 C   0  0  0  0  0  0  0  0  0  0  0  0
    4.2505   -1.5413    1.1046 C   0  0  0  0  0  0  0  0  0  0  0  0
    2.8650   -2.5517   -0.5974 C   0  0  0  0  0  0  0  0  0  0  0  0
    3.8336   -2.6702    0.3995 C   0  0  0  0  0  0  0  0  0  0  0  0
  1 11  1  0
  1 14  1  0
  2 14  2  0
  3 16  1  0
  4  5  1  0
  4  6  1  0
  4 12  1  0
  4 13  1  0
  5  7  1  0
  5  9  1  0
  6  8  1  0
  6 10  1  0
  7  8  1  0
  9 11  1  0
 10 11  1  0
 14 15  1  0
 15 16  1  0
 15 17  1  0
 17 18  2  0
 17 19  1  0
 18 20  1  0
 19 21  2  0
 20 22  2  0
 21 22  1  0
M  CHG  1   4   1
M  END
>  <PUBCHEM_COMPOUND_CID>  (1) 
5861

>  <PUBCHEM_CONFORMER_RMSD>  (1) 
0.8

>  <PUBCHEM_CONFORMER_DIVERSEORDER>  (1) 
1
32
71
99
57
37
81
12
39
89
70
93
63
17
43
69
87
64
23
65
38
79
96
47
84
15
28
97
56
46
2
48
78
16
42
74
66
35
51
100
59
94
76
14
33
26
34
101
82
88
8
45
25
3
53
90
30
54
72
13
80
60
41
6
83
92
98
5
95
102
86
67
4
91
7
75
22
9
68
40
29
55
18
11
62
44
52
50
49
20
58
85
36
21
73
61
19
31
10
27
24
77

>  <PUBCHEM_MMFF94_PARTIAL_CHARGES>  (1) 
24
1 -0.43
11 0.28
12 0.5
13 0.5
14 0.66
15 0.2
16 0.28
17 -0.14
18 -0.15
19 -0.15
2 -0.57
20 -0.15
21 -0.15
22 -0.15
3 -0.68
4 -1.01
43 0.15
44 0.15
45 0.4
46 0.15
47 0.15
48 0.15
5 0.5
6 0.5

>  <PUBCHEM_EFFECTIVE_ROTOR_COUNT>  (1) 
6.2

>  <PUBCHEM_PHARMACOPHORE_FEATURES>  (1) 
6
1 2 acceptor
1 3 acceptor
1 3 donor
1 4 cation
6 17 18 19 20 21 22 rings
8 4 5 6 7 8 9 10 11 rings

>  <PUBCHEM_HEAVY_ATOM_COUNT>  (1) 
22

>  <PUBCHEM_ATOM_DEF_STEREO_COUNT>  (1) 
0

>  <PUBCHEM_ATOM_UDEF_STEREO_COUNT>  (1) 
3

>  <PUBCHEM_BOND_DEF_STEREO_COUNT>  (1) 
0

>  <PUBCHEM_BOND_UDEF_STEREO_COUNT>  (1) 
0

>  <PUBCHEM_ISOTOPIC_ATOM_COUNT>  (1) 
0

>  <PUBCHEM_COMPONENT_COUNT>  (1) 
1

>  <PUBCHEM_CACTVS_TAUTO_COUNT>  (1) 
1

>  <PUBCHEM_CONFORMER_ID>  (1) 
000016E500000001

>  <PUBCHEM_MMFF94_ENERGY>  (1) 
78.3106

>  <PUBCHEM_FEATURE_SELFOVERLAP>  (1) 
30.446

>  <PUBCHEM_SHAPE_FINGERPRINT>  (1) 
10062212 137 18272645740906084967
10366900 7 18267871764070176961
10369192 42 17026871733469501900
10616163 171 18266182927089572614
11405975 8 18334859359864019481
11595378 159 16128660717034907730
12107183 9 18053393093536795041
12363563 72 18262243205429135794
12422481 6 17837804156730041937
12506688 2 18272367525687914520
12553582 1 17846787316361606441
12596599 1 17917159303334829679
12596602 18 17060333063172989818
12633257 1 18270688571342883095
12788726 201 17845393075403980440
13224815 77 18341613732548863462
13533116 47 18343020038756011675
13544653 18 18340764837043177146
13583140 156 17489005137593385785
14251757 17 17821738233904278354
14848160 33 18335420145190645498
15375462 189 18202286934855248696
15537594 2 18341909492639755982
15788980 27 18113614556143179754
17492 89 18410854347816892311
17818456 19 17914907430533048873
1813 80 17895202090719594109
18186145 218 16515405161702892424
19078846 21 17489595536550966216
19141452 34 18342456994207509395
19862831 5 15574714681444834689
20281475 54 18342176661148988457
20626108 58 18261939766163636586
20645477 70 18261107491353047714
20681651 13 17988927829167518491
21054139 6 18125719230515395652
21250096 35 18201149958370239650
212916 134 16342873031894585865
21421861 104 18270138819882036896
221490 88 18260555502440976530
22393880 68 18201443644097371444
2255824 54 18126848424377810960
23503953 91 18202285762566463033
23559900 14 18337665313796157416
3004659 81 18335420140863639908
392239 28 17630581523878318178
463206 1 18198332043381586559
4921388 177 16370739114481151603
5104073 3 18412267242133568745
5161694 15 17749384828331061431
5281201 14 17458347433279685484
5309563 4 17400649719163449523
633830 44 17675920984918092393
7064713 232 17489020466141806227
9709674 26 18260551129710692546

>  <PUBCHEM_SHAPE_MULTIPOLES>  (1) 
430.16
10.18
2.71
1.37
1.45
0.34
0.11
3.25
0.4
-2.71
-0.5
0.55
0.11
-1.04

>  <PUBCHEM_SHAPE_SELFOVERLAP>  (1) 
904.242

>  <PUBCHEM_SHAPE_VOLUME>  (1) 
243.3

>  <PUBCHEM_COORDINATE_TYPE>  (1) 
2
5
10

$$$$
