5874
     RDKit          3D

 30 33  0  0  1  0  0  0  0  0999 V2000
    4.0501    1.0273    1.7514 O   0  0  0  0  0  0  0  0  0  0  0  0
   -2.6174    2.7100   -0.4606 O   0  0  0  0  0  0  0  0  0  0  0  0
   -4.7852    1.4774    1.3935 O   0  0  0  0  0  0  0  0  0  0  0  0
    1.2093   -0.3468   -0.0062 N   0  0  0  0  0  0  0  0  0  0  0  0
   -2.4287    0.3662   -0.4975 N   0  0  0  0  0  0  0  0  0  0  0  0
    4.0645    0.2728    0.5305 C   0  0  0  0  0  0  0  0  0  0  0  0
    3.4341   -1.1174    0.7776 C   0  0  0  0  0  0  0  0  0  0  0  0
    3.1991    1.0293   -0.5018 C   0  0  0  0  0  0  0  0  0  0  0  0
    1.9268   -1.0581    1.0565 C   0  0  0  0  0  0  0  0  0  0  0  0
    1.7063    1.0256   -0.1521 C   0  0  0  0  0  0  0  0  0  0  0  0
   -0.2294   -0.3459    0.2577 C   0  0  0  0  0  0  0  0  0  0  0  0
    5.5410    0.1329    0.1560 C   0  0  0  0  0  0  0  0  0  0  0  0
   -1.0283    0.3378   -0.8592 C   0  0  0  0  0  0  0  0  0  0  0  0
   -0.8598   -0.3357   -2.2191 C   0  0  0  0  0  0  0  0  0  0  0  0
    6.0089    0.6705   -1.0421 C   0  0  0  0  0  0  0  0  0  0  0  0
    6.4162   -0.5320    1.0134 C   0  0  0  0  0  0  0  0  0  0  0  0
   -3.1409   -0.8953   -0.3072 C   0  0  0  0  0  0  0  0  0  0  0  0
    7.3552    0.5426   -1.3837 C   0  0  0  0  0  0  0  0  0  0  0  0
    7.7625   -0.6597    0.6718 C   0  0  0  0  0  0  0  0  0  0  0  0
   -3.1347    1.6000   -0.3214 C   0  0  0  0  0  0  0  0  0  0  0  0
    8.2321   -0.1224   -0.5267 C   0  0  0  0  0  0  0  0  0  0  0  0
   -3.7510   -1.4468   -1.3942 C   0  0  0  0  0  0  0  0  0  0  0  0
   -3.1475   -1.4337    0.9451 C   0  0  0  0  0  0  0  0  0  0  0  0
   -4.5428    1.4973    0.0770 C   0  0  0  0  0  0  0  0  0  0  0  0
   -4.4319   -2.6505   -1.2117 C   0  0  0  0  0  0  0  0  0  0  0  0
   -3.8283   -2.6373    1.1275 C   0  0  0  0  0  0  0  0  0  0  0  0
   -5.6553    1.4183   -0.6777 C   0  0  0  0  0  0  0  0  0  0  0  0
   -4.4705   -3.2458    0.0491 C   0  0  0  0  0  0  0  0  0  0  0  0
   -6.7177    1.3398    0.2541 C   0  0  0  0  0  0  0  0  0  0  0  0
   -6.1365    1.3797    1.5000 C   0  0  0  0  0  0  0  0  0  0  0  0
  1  6  1  0
  2 20  2  0
  3 24  1  0
  3 30  1  0
  4  9  1  0
  4 10  1  0
  4 11  1  0
  5 13  1  0
  5 17  1  0
  5 20  1  0
  6  7  1  0
  6  8  1  0
  6 12  1  0
  7  9  1  0
  8 10  1  0
 11 13  1  0
 12 15  2  0
 12 16  1  0
 13 14  1  0
 15 18  1  0
 16 19  2  0
 17 22  2  0
 17 23  1  0
 18 21  2  0
 19 21  1  0
 20 24  1  0
 22 25  1  0
 23 26  2  0
 24 27  2  0
 25 28  2  0
 26 28  1  0
 27 29  1  0
 29 30  2  0
M  END
>  <PUBCHEM_COMPOUND_CID>  (1) 
5874

>  <PUBCHEM_CONFORMER_RMSD>  (1) 
1

>  <PUBCHEM_CONFORMER_DIVERSEORDER>  (1) 
1
52
87
48
63
127
97
70
59
21
128
46
86
121
37
98
91
103
108
84
110
45
71
129
120
81
89
88
51
66
18
126
30
28
39
41
77
23
33
25
73
69
82
65
57
115
99
4
64
94
62
79
47
53
20
107
122
104
60
10
22
76
68
113
9
74
35
55
90
56
118
85
31
67
101
111
119
125
116
49
80
27
75
83
105
124
50
19
34
12
95
92
16
106
36
15
7
17
72
54
78
102
44
32
117
5
96
100
13
93
6
114
58
43
109
8
40
112
123
61
29
14
38
11
42
26
2
3
24

>  <PUBCHEM_MMFF94_PARTIAL_CHARGES>  (1) 
41
1 -0.68
10 0.27
11 0.27
12 -0.14
13 0.3
15 -0.15
16 -0.15
17 0.12
18 -0.15
19 -0.15
2 -0.57
20 0.71
21 -0.15
22 -0.15
23 -0.15
24 0.05
25 -0.15
26 -0.15
27 -0.15
28 -0.15
29 -0.15
3 -0.28
30 -0.01
4 -0.81
42 0.4
46 0.15
47 0.15
48 0.15
49 0.15
5 -0.48
50 0.15
51 0.15
52 0.15
53 0.15
54 0.15
55 0.15
56 0.15
57 0.15
58 0.15
6 0.42
9 0.27

>  <PUBCHEM_EFFECTIVE_ROTOR_COUNT>  (1) 
8.2

>  <PUBCHEM_PHARMACOPHORE_FEATURES>  (1) 
9
1 1 acceptor
1 1 donor
1 2 acceptor
1 3 acceptor
1 4 cation
5 3 24 27 29 30 rings
6 12 15 16 18 19 21 rings
6 17 22 23 25 26 28 rings
6 4 6 7 8 9 10 rings

>  <PUBCHEM_HEAVY_ATOM_COUNT>  (1) 
30

>  <PUBCHEM_ATOM_DEF_STEREO_COUNT>  (1) 
0

>  <PUBCHEM_ATOM_UDEF_STEREO_COUNT>  (1) 
1

>  <PUBCHEM_BOND_DEF_STEREO_COUNT>  (1) 
0

>  <PUBCHEM_BOND_UDEF_STEREO_COUNT>  (1) 
0

>  <PUBCHEM_ISOTOPIC_ATOM_COUNT>  (1) 
0

>  <PUBCHEM_COMPONENT_COUNT>  (1) 
1

>  <PUBCHEM_CACTVS_TAUTO_COUNT>  (1) 
1

>  <PUBCHEM_CONFORMER_ID>  (1) 
000016F200000001

>  <PUBCHEM_MMFF94_ENERGY>  (1) 
106.5902

>  <PUBCHEM_FEATURE_SELFOVERLAP>  (1) 
45.673

>  <PUBCHEM_SHAPE_FINGERPRINT>  (1) 
10 15 17676211251365725977
10290309 65 18193553364067477615
10299344 5 18113338609417106930
11135926 11 17603576414193097546
11315181 36 18334009536159645871
11545043 162 17988921206190823986
12616971 3 17168148957041665670
13782708 43 17845653789110135758
13914758 101 14979960229188258200
14849402 71 17968949707614045020
14856354 85 18335704961419732782
15131766 46 15866354764178236973
15142383 8 17561081389765364600
15183329 4 17385718106961118674
15361156 5 18260833725668553660
15537594 2 17676202455298986794
1577012 14 18113900477349941252
15799311 1 18187653487784150058
17093844 174 17917988395152145570
17844677 252 18130222774192172472
17980427 23 17967821577874779735
18927931 339 18340205288577585199
21033648 29 17774705554938044618
21236236 1 18409447016288693651
21927370 108 18264772229046187215
220451 1 18186515497644316650
2303208 19 17846500361760805198
23081809 10 18113894983944572106
23516275 137 18117858615810058818
23522609 53 17969525787055429012
23559900 14 18412818101384948505
25269216 80 18190765178610476062
397830 11 17559662023153766730
4073 2 18334577962539546858
484985 159 17603867866858930651
4918590 53 16916778626122128450
497634 4 17967244317237923614
5028188 123 18335430088709635038
504579 68 18261384576788981382
5104073 3 18339918324358305464
59755656 520 16443068304865320433
6086070 43 18060694013689851122
6691757 9 18342181064492728339

>  <PUBCHEM_SHAPE_MULTIPOLES>  (1) 
589.82
21.85
2.49
1.48
31.68
1.25
0.18
-2.37
-1.13
-6
-0.08
-0.21
0.13
-1.43

>  <PUBCHEM_SHAPE_SELFOVERLAP>  (1) 
1274.451

>  <PUBCHEM_SHAPE_VOLUME>  (1) 
322.4

>  <PUBCHEM_COORDINATE_TYPE>  (1) 
2
5
10

$$$$
