5879
     RDKit          3D

 21 24  0  0  1  0  0  0  0  0999 V2000
    4.6642    0.0428   -1.7290 O   0  0  0  0  0  0  0  0  0  0  0  0
   -4.9263   -1.1113   -0.8075 O   0  0  0  0  0  0  0  0  0  0  0  0
    0.2167   -0.4415   -0.1778 C   0  0  0  0  0  0  0  0  0  0  0  0
    1.6936   -0.4171    0.3659 C   0  0  0  0  0  0  0  0  0  0  0  0
   -0.6115    0.7866    0.3292 C   0  0  0  0  0  0  0  0  0  0  0  0
   -2.0104    0.7044   -0.2885 C   0  0  0  0  0  0  0  0  0  0  0  0
    2.3242    0.9469   -0.0628 C   0  0  0  0  0  0  0  0  0  0  0  0
   -2.7487   -0.5806    0.1393 C   0  0  0  0  0  0  0  0  0  0  0  0
   -0.5300   -1.7853    0.0453 C   0  0  0  0  0  0  0  0  0  0  0  0
    0.0853    2.1096   -0.0158 C   0  0  0  0  0  0  0  0  0  0  0  0
   -1.9912   -1.7702   -0.4414 C   0  0  0  0  0  0  0  0  0  0  0  0
    1.5336    2.1491    0.4672 C   0  0  0  0  0  0  0  0  0  0  0  0
    2.5356   -1.5513   -0.2839 C   0  0  0  0  0  0  0  0  0  0  0  0
   -3.0210    1.8178   -0.0356 C   0  0  0  0  0  0  0  0  0  0  0  0
    3.8160    1.0562    0.2960 C   0  0  0  0  0  0  0  0  0  0  0  0
    1.7161   -0.6111    1.9040 C   0  0  0  0  0  0  0  0  0  0  0  0
   -4.1014   -0.2701   -0.4759 C   0  0  0  0  0  0  0  0  0  0  0  0
    4.0351   -1.4593    0.0275 C   0  0  0  0  0  0  0  0  0  0  0  0
   -4.3223    1.2283   -0.5997 C   0  0  0  0  0  0  0  0  0  0  0  0
    4.6260   -0.0926   -0.3083 C   0  0  0  0  0  0  0  0  0  0  0  0
   -2.9837   -0.7514    1.6516 C   0  0  0  0  0  0  0  0  0  0  0  0
  1 20  1  0
  2 17  2  0
  3  4  1  0
  3  5  1  0
  3  9  1  0
  4  7  1  0
  4 13  1  0
  4 16  1  0
  5  6  1  0
  5 10  1  0
  6  8  1  0
  6 14  1  0
  7 12  1  0
  7 15  1  0
  8 11  1  0
  8 17  1  0
  8 21  1  0
  9 11  1  0
 10 12  1  0
 13 18  1  0
 14 19  1  0
 15 20  1  0
 17 19  1  0
 18 20  1  0
M  END
>  <PUBCHEM_COMPOUND_CID>  (1) 
5879

>  <PUBCHEM_CONFORMER_RMSD>  (1) 
0.6

>  <PUBCHEM_CONFORMER_DIVERSEORDER>  (1) 
1

>  <PUBCHEM_MMFF94_PARTIAL_CHARGES>  (1) 
7
1 -0.68
17 0.45
19 0.06
2 -0.57
20 0.28
51 0.4
8 0.06

>  <PUBCHEM_EFFECTIVE_ROTOR_COUNT>  (1) 
2

>  <PUBCHEM_PHARMACOPHORE_FEATURES>  (1) 
7
1 1 acceptor
1 1 donor
1 2 acceptor
5 6 8 14 17 19 rings
6 3 4 5 7 10 12 rings
6 3 5 6 8 9 11 rings
6 4 7 13 15 18 20 rings

>  <PUBCHEM_HEAVY_ATOM_COUNT>  (1) 
21

>  <PUBCHEM_ATOM_DEF_STEREO_COUNT>  (1) 
7

>  <PUBCHEM_ATOM_UDEF_STEREO_COUNT>  (1) 
0

>  <PUBCHEM_BOND_DEF_STEREO_COUNT>  (1) 
0

>  <PUBCHEM_BOND_UDEF_STEREO_COUNT>  (1) 
0

>  <PUBCHEM_ISOTOPIC_ATOM_COUNT>  (1) 
0

>  <PUBCHEM_COMPONENT_COUNT>  (1) 
1

>  <PUBCHEM_CACTVS_TAUTO_COUNT>  (1) 
2

>  <PUBCHEM_CONFORMER_ID>  (1) 
000016F700000001

>  <PUBCHEM_MMFF94_ENERGY>  (1) 
66.9933

>  <PUBCHEM_FEATURE_SELFOVERLAP>  (1) 
35.614

>  <PUBCHEM_SHAPE_FINGERPRINT>  (1) 
10366900 7 17967811673948849707
10498660 4 18336540530185315869
10759866 29 17895193243049774360
10967382 1 18411696599455785128
11132069 177 18341043099273548080
11471102 20 18411979187182472788
12011746 2 18408881832872871589
12236239 1 17967247577466130378
12403259 226 18341885351209035217
12403259 415 18271799134232774177
12553582 1 18341903982518325792
12788726 201 18194116313794890569
13140716 1 17834395996367896009
13221675 6 18408039636745870946
13224815 77 18060697290607446514
14790565 3 17908430151778873081
15099037 51 18411415086183091093
15163728 17 16010971127845882503
15196674 1 18411696573686130773
15309172 13 18343589542386408547
15375358 24 18411415116079154418
15536298 74 18271802462489517576
15788980 27 18409168788233204226
15848702 151 17489317364540729870
1601671 61 18410010996686080340
16752209 62 18339071606010400537
16945 1 18265898144935036656
17349148 13 17489871548439610607
17804303 29 18413670223017871941
1813 80 13758357786576253216
18186145 218 18059863873984572826
19591789 44 18339075986808587486
19862831 5 18335420153569330064
200 152 17917706916212620917
20645477 70 18338791324887002516
20871999 31 18408606954554483662
21029758 11 18343579642360262185
21267235 1 18412269436461176438
21637258 2 15912772679217142934
221357 26 18412820292266642861
221490 88 18265055910443441979
23175994 123 17132119039078571824
23402539 116 18342450409774744478
23493267 7 18040719155809433203
23559900 14 18272923951444030256
2748010 2 18409722971894786225
2871803 45 18333726922853006188
296302 2 14996284725322419344
3004659 81 18261111812760469814
335352 9 18267582407764960500
34934 24 18410848885044934616
350125 39 18411421688028333985
4214541 1 18411979139806126221
4280585 95 17406279833057341078
4340502 62 16298394517627455249
474 4 17240772830207734212
4921388 177 16226341390445056059
4990 188 18202284688887936052
5104073 3 18411134718907055905
633830 44 17530686519917239582
69090 78 18343578564244278151
7364860 26 18199743811947826152
74978 22 18340763840304776699
9709674 26 18337668745358923899
9981440 41 17325488203963626040

>  <PUBCHEM_SHAPE_MULTIPOLES>  (1) 
420.43
9.17
2.1
1.12
0.31
0.43
0.31
-0.68
-2.44
-0.2
0
0.24
-0.21
0.15

>  <PUBCHEM_SHAPE_SELFOVERLAP>  (1) 
896.36

>  <PUBCHEM_SHAPE_VOLUME>  (1) 
232.4

>  <PUBCHEM_COORDINATE_TYPE>  (1) 
2
5
10

$$$$
