5882
     RDKit          3D

 19 22  0  0  1  0  0  0  0  0999 V2000
   -4.6357   -1.1518   -0.3066 O   0  0  0  0  0  0  0  0  0  0  0  0
   -1.6828    0.6790   -0.3087 C   0  0  0  0  0  0  0  0  0  0  0  0
   -2.3432   -0.5858    0.2792 C   0  0  0  0  0  0  0  0  0  0  0  0
   -0.2127    0.7741    0.0955 C   0  0  0  0  0  0  0  0  0  0  0  0
    0.5388   -0.4537   -0.5071 C   0  0  0  0  0  0  0  0  0  0  0  0
   -1.6739   -1.8000   -0.3552 C   0  0  0  0  0  0  0  0  0  0  0  0
   -2.6488    1.8035    0.0467 C   0  0  0  0  0  0  0  0  0  0  0  0
   -0.1516   -1.7893   -0.1148 C   0  0  0  0  0  0  0  0  0  0  0  0
    0.4576    2.0573   -0.3973 C   0  0  0  0  0  0  0  0  0  0  0  0
   -3.7741   -0.2991   -0.1388 C   0  0  0  0  0  0  0  0  0  0  0  0
   -4.0175    1.1931   -0.2910 C   0  0  0  0  0  0  0  0  0  0  0  0
   -2.3487   -0.6948    1.8153 C   0  0  0  0  0  0  0  0  0  0  0  0
    2.0343   -0.3860   -0.2112 C   0  0  0  0  0  0  0  0  0  0  0  0
    1.8787    2.1434    0.1520 C   0  0  0  0  0  0  0  0  0  0  0  0
    2.6566    0.8536    0.0543 C   0  0  0  0  0  0  0  0  0  0  0  0
    2.8431   -1.5341   -0.2825 C   0  0  0  0  0  0  0  0  0  0  0  0
    4.0419    0.9057    0.2895 C   0  0  0  0  0  0  0  0  0  0  0  0
    4.2195   -1.4669   -0.0548 C   0  0  0  0  0  0  0  0  0  0  0  0
    4.8185   -0.2480    0.2356 C   0  0  0  0  0  0  0  0  0  0  0  0
  1 10  2  0
  2  3  1  0
  2  4  1  0
  2  7  1  0
  3  6  1  0
  3 10  1  0
  3 12  1  0
  4  5  1  0
  4  9  1  0
  5  8  1  0
  5 13  1  0
  6  8  1  0
  7 11  1  0
  9 14  1  0
 10 11  1  0
 13 15  2  0
 13 16  1  0
 14 15  1  0
 15 17  1  0
 16 18  2  0
 17 19  2  0
 18 19  1  0
M  END
>  <PUBCHEM_COMPOUND_CID>  (1) 
5882

>  <PUBCHEM_CONFORMER_RMSD>  (1) 
0.6

>  <PUBCHEM_CONFORMER_DIVERSEORDER>  (1) 
1

>  <PUBCHEM_MMFF94_PARTIAL_CHARGES>  (1) 
16
1 -0.57
10 0.45
11 0.06
13 -0.14
14 0.14
15 -0.14
16 -0.15
17 -0.15
18 -0.15
19 -0.15
3 0.06
38 0.15
39 0.15
40 0.15
41 0.15
5 0.14

>  <PUBCHEM_EFFECTIVE_ROTOR_COUNT>  (1) 
1.2

>  <PUBCHEM_PHARMACOPHORE_FEATURES>  (1) 
5
1 1 acceptor
5 2 3 7 10 11 rings
6 13 15 16 17 18 19 rings
6 2 3 4 5 6 8 rings
6 4 5 9 13 14 15 rings

>  <PUBCHEM_HEAVY_ATOM_COUNT>  (1) 
19

>  <PUBCHEM_ATOM_DEF_STEREO_COUNT>  (1) 
4

>  <PUBCHEM_ATOM_UDEF_STEREO_COUNT>  (1) 
0

>  <PUBCHEM_BOND_DEF_STEREO_COUNT>  (1) 
0

>  <PUBCHEM_BOND_UDEF_STEREO_COUNT>  (1) 
0

>  <PUBCHEM_ISOTOPIC_ATOM_COUNT>  (1) 
0

>  <PUBCHEM_COMPONENT_COUNT>  (1) 
1

>  <PUBCHEM_CACTVS_TAUTO_COUNT>  (1) 
2

>  <PUBCHEM_CONFORMER_ID>  (1) 
000016FA00000001

>  <PUBCHEM_MMFF94_ENERGY>  (1) 
58.9487

>  <PUBCHEM_FEATURE_SELFOVERLAP>  (1) 
25.471

>  <PUBCHEM_SHAPE_FINGERPRINT>  (1) 
10062212 137 18272363166443860607
10366900 7 17967535674844678682
10608611 8 18411416228365141596
10967382 1 18411418436115196052
11132069 177 18341890788521197650
11471102 20 18411697699405230420
11615757 297 17703793625993234416
12011746 2 18409728435003237020
12236239 1 17561082518877520255
12251169 10 18341612646259741206
12403259 226 18340198687334248053
12403260 363 18412821408783929973
124424 183 18187366527659000282
128620 24 12103845665741846978
13140716 1 18194974156376460523
13296908 3 18334580139765712018
13675066 3 18333734636740740562
14115302 16 17240773899142939494
14866123 147 17191234024470046546
15099037 51 18409164385738680309
15196674 1 18411417297795927260
15309172 13 18271815617752812043
15375358 24 18411417289395870734
15442244 35 18411981351719473932
15536298 74 18343300370875477292
15848702 151 17917436363005727374
16945 1 18266469878091284012
17349148 13 17846498144750520087
17492 89 18340204210235397222
17802600 8 18411978083033051333
17804303 29 18411140233750818060
1813 80 17385441012518715092
18186145 218 18060150816169775558
19591789 44 18338514123656095382
200 152 17988637506610951309
20028762 73 18130221670397088895
20510252 161 18272933786808167017
20645477 70 18341331115617540326
21029758 11 18342171155069616609
21267235 1 18411426107127519614
21279426 13 18120088377517773637
221490 88 18263650726035459602
22854114 59 17989202659787604496
23184049 59 18413112748920626854
23402539 116 18342449344712487045
23463225 33 18410012139421486380
23559900 14 18413384337273252664
2748010 2 18339086977619069380
296302 2 18409169909050863468
3286 77 18410290341395883773
335352 9 18267303136111780005
34934 24 18410567388656801354
350125 39 18411703184263609777
351380 180 18410290315710241823
4214541 1 18411417284847832253
474 4 17168996754217827644
4921388 177 16009043812062258673
5104073 3 18411981347155436665
69090 78 18343016705196751767
7364860 26 18269273633238439640
8809292 202 18259990352994879280
9709674 26 18410296934096901271

>  <PUBCHEM_SHAPE_MULTIPOLES>  (1) 
385.14
8.63
2.18
0.85
1.95
0.37
0.3
-1.04
0.25
0.12
-0.15
-0.41
-0.13
0.3

>  <PUBCHEM_SHAPE_SELFOVERLAP>  (1) 
843.067

>  <PUBCHEM_SHAPE_VOLUME>  (1) 
208.5

>  <PUBCHEM_COORDINATE_TYPE>  (1) 
2
5
10

$$$$
