5888
     RDKit          3D

 19 22  0  0  1  0  0  0  0  0999 V2000
   -5.5981    0.0420   -0.4067 O   0  0  0  0  0  0  0  0  0  0  0  0
    2.8941   -0.7676   -0.2016 C   0  0  0  0  0  0  0  0  0  0  0  0
    2.2790    0.5296    0.3567 C   0  0  0  0  0  0  0  0  0  0  0  0
    0.8121    0.6853   -0.0440 C   0  0  0  0  0  0  0  0  0  0  0  0
    0.0029   -0.5047    0.5552 C   0  0  0  0  0  0  0  0  0  0  0  0
    2.1427   -1.9538    0.4114 C   0  0  0  0  0  0  0  0  0  0  0  0
    4.3458   -0.6013    0.2709 C   0  0  0  0  0  0  0  0  0  0  0  0
    3.2817    1.6030   -0.0483 C   0  0  0  0  0  0  0  0  0  0  0  0
    0.6265   -1.8676    0.1501 C   0  0  0  0  0  0  0  0  0  0  0  0
    4.6432    0.8970    0.0728 C   0  0  0  0  0  0  0  0  0  0  0  0
    0.2035    1.9993    0.4489 C   0  0  0  0  0  0  0  0  0  0  0  0
    2.8853   -0.8848   -1.7448 C   0  0  0  0  0  0  0  0  0  0  0  0
   -1.4883   -0.3635    0.2621 C   0  0  0  0  0  0  0  0  0  0  0  0
   -1.2099    2.1547   -0.1045 C   0  0  0  0  0  0  0  0  0  0  0  0
   -2.0497    0.9046   -0.0050 C   0  0  0  0  0  0  0  0  0  0  0  0
   -2.3526   -1.4701    0.3374 C   0  0  0  0  0  0  0  0  0  0  0  0
   -3.4310    1.0240   -0.2396 C   0  0  0  0  0  0  0  0  0  0  0  0
   -3.7242   -1.3359    0.1111 C   0  0  0  0  0  0  0  0  0  0  0  0
   -4.2631   -0.0900   -0.1822 C   0  0  0  0  0  0  0  0  0  0  0  0
  1 19  1  0
  2  3  1  0
  2  6  1  0
  2  7  1  0
  2 12  1  0
  3  4  1  0
  3  8  1  0
  4  5  1  0
  4 11  1  0
  5  9  1  0
  5 13  1  0
  6  9  1  0
  7 10  1  0
  8 10  1  0
 11 14  1  0
 13 15  2  0
 13 16  1  0
 14 15  1  0
 15 17  1  0
 16 18  2  0
 17 19  2  0
 18 19  1  0
M  END
>  <PUBCHEM_COMPOUND_CID>  (1) 
5888

>  <PUBCHEM_CONFORMER_RMSD>  (1) 
0.6

>  <PUBCHEM_CONFORMER_DIVERSEORDER>  (1) 
1

>  <PUBCHEM_MMFF94_PARTIAL_CHARGES>  (1) 
13
1 -0.53
13 -0.14
14 0.14
15 -0.14
16 -0.15
17 -0.15
18 -0.15
19 0.08
40 0.15
41 0.15
42 0.15
43 0.45
5 0.14

>  <PUBCHEM_EFFECTIVE_ROTOR_COUNT>  (1) 
1.4

>  <PUBCHEM_PHARMACOPHORE_FEATURES>  (1) 
5
1 1 donor
5 2 3 7 8 10 rings
6 13 15 16 17 18 19 rings
6 2 3 4 5 6 9 rings
6 4 5 11 13 14 15 rings

>  <PUBCHEM_HEAVY_ATOM_COUNT>  (1) 
19

>  <PUBCHEM_ATOM_DEF_STEREO_COUNT>  (1) 
4

>  <PUBCHEM_ATOM_UDEF_STEREO_COUNT>  (1) 
0

>  <PUBCHEM_BOND_DEF_STEREO_COUNT>  (1) 
0

>  <PUBCHEM_BOND_UDEF_STEREO_COUNT>  (1) 
0

>  <PUBCHEM_ISOTOPIC_ATOM_COUNT>  (1) 
0

>  <PUBCHEM_COMPONENT_COUNT>  (1) 
1

>  <PUBCHEM_CACTVS_TAUTO_COUNT>  (1) 
9

>  <PUBCHEM_CONFORMER_ID>  (1) 
0000170000000001

>  <PUBCHEM_MMFF94_ENERGY>  (1) 
61.7502

>  <PUBCHEM_FEATURE_SELFOVERLAP>  (1) 
25.47

>  <PUBCHEM_SHAPE_FINGERPRINT>  (1) 
10498660 4 18407761417296575772
10608611 8 18408882910503681977
10616163 171 18411982446857117031
10646746 165 18408041793046248292
10967382 1 18410011048119868122
11132069 177 18409727378383305208
11471102 20 18410853274047875928
11578080 2 16735501968157792646
11806522 49 18411980303720975973
12236239 1 17704072893704881931
12403259 226 18264201423122684884
12596599 1 17988380233369245863
128620 24 18343581841256572910
13140716 1 18193001632516035665
13224815 77 18409735053510877658
14115302 16 17967822668695998671
14178342 30 18051965923248954320
14252887 29 17846504720603861046
14787075 74 18269553995580996912
14790565 3 17763184636143808753
15196674 1 18409729573122071403
15375358 24 18409166636069486747
15442244 35 18048877399128401354
15536298 74 18341895190414322176
15635459 17 18201445752683545222
15848702 151 17774731887203200783
16945 1 18194409896341676912
17492 89 18264486191622530274
18186145 218 18410581643247010004
19141452 34 18130790096680913367
192875 21 16950288390478152156
200 152 18060416924069908337
20279233 1 18408327687222689618
20510252 161 18272090439899177561
20645477 70 18201439155529421582
21029758 11 18342173384432021529
21267235 1 18410300198403882579
21421861 104 17969778571054074850
21501502 16 18194120720240658832
21618674 68 18272093785942113772
221490 88 18192153913272251371
23402539 116 18339916112798079742
23402655 69 18412539882357250093
23557571 272 18272656701514814404
23559900 14 18268425742322213426
2748010 2 18265619968503687449
2871803 45 18409729538931131542
296302 2 18342740744862791664
335352 9 18409446964289819079
34934 24 18411131463512021523
351380 180 18409164424620200210
3545911 37 18334858320228251947
4028521 119 18260824874147099589
4072396 5 18335123290067741674
4214541 1 18410009901511669785
474 4 17386013892088156830
495365 180 17489013985494800760
4990 188 18273500052407541550
5104073 3 18410011009486301313
537710 114 18410295821647578545
543358 83 18340772537587229481
58051976 378 18411982477122504172
59755656 215 18336831897047098990
69090 78 18343580758903936118
7364860 26 18198903801975230993
8809292 202 18260551160081607347
9709674 26 18339929225022199358

>  <PUBCHEM_SHAPE_MULTIPOLES>  (1) 
385.14
9.07
2.11
0.85
3.86
0.22
0.26
-0.22
1.01
-0.28
-0.15
-0.46
-0.15
0.32

>  <PUBCHEM_SHAPE_SELFOVERLAP>  (1) 
838.792

>  <PUBCHEM_SHAPE_VOLUME>  (1) 
210.4

>  <PUBCHEM_COORDINATE_TYPE>  (1) 
2
5
10

$$$$
