5889
     RDKit          3D

 22 26  0  0  0  0  0  0  0  0999 V2000
    1.4395   -0.1801   -0.0002 C   0  0  0  0  0  0  0  0  0  0  0  0
   -1.4395    0.1802   -0.0006 C   0  0  0  0  0  0  0  0  0  0  0  0
    0.8652    1.1086   -0.0006 C   0  0  0  0  0  0  0  0  0  0  0  0
   -0.8652   -1.1084   -0.0007 C   0  0  0  0  0  0  0  0  0  0  0  0
    2.8747   -0.3149    0.0001 C   0  0  0  0  0  0  0  0  0  0  0  0
   -2.8747    0.3150   -0.0002 C   0  0  0  0  0  0  0  0  0  0  0  0
    0.5350   -1.2679   -0.0006 C   0  0  0  0  0  0  0  0  0  0  0  0
   -0.5351    1.2681   -0.0008 C   0  0  0  0  0  0  0  0  0  0  0  0
    3.6793    0.8540    0.0002 C   0  0  0  0  0  0  0  0  0  0  0  0
   -3.6792   -0.8539   -0.0001 C   0  0  0  0  0  0  0  0  0  0  0  0
    1.6903    2.2376   -0.0008 C   0  0  0  0  0  0  0  0  0  0  0  0
   -1.6903   -2.2376   -0.0008 C   0  0  0  0  0  0  0  0  0  0  0  0
    3.0756    2.1131   -0.0003 C   0  0  0  0  0  0  0  0  0  0  0  0
   -3.0755   -2.1130   -0.0003 C   0  0  0  0  0  0  0  0  0  0  0  0
    3.5591   -1.5565    0.0006 C   0  0  0  0  0  0  0  0  0  0  0  0
   -3.5591    1.5565    0.0003 C   0  0  0  0  0  0  0  0  0  0  0  0
    5.0815    0.7587    0.0006 C   0  0  0  0  0  0  0  0  0  0  0  0
   -5.0815   -0.7588    0.0006 C   0  0  0  0  0  0  0  0  0  0  0  0
    4.9543   -1.6378    0.0009 C   0  0  0  0  0  0  0  0  0  0  0  0
   -4.9544    1.6377    0.0010 C   0  0  0  0  0  0  0  0  0  0  0  0
    5.7158   -0.4796    0.0008 C   0  0  0  0  0  0  0  0  0  0  0  0
   -5.7158    0.4794    0.0012 C   0  0  0  0  0  0  0  0  0  0  0  0
  1  3  1  0
  1  5  1  0
  1  7  2  0
  2  4  2  0
  2  6  1  0
  2  8  1  0
  3  8  2  0
  3 11  1  0
  4  7  1  0
  4 12  1  0
  5  9  2  0
  5 15  1  0
  6 10  2  0
  6 16  1  0
  9 13  1  0
  9 17  1  0
 10 14  1  0
 10 18  1  0
 11 13  2  0
 12 14  2  0
 15 19  2  0
 16 20  2  0
 17 21  2  0
 18 22  2  0
 19 21  1  0
 20 22  1  0
M  END
>  <PUBCHEM_COMPOUND_CID>  (1) 
5889

>  <PUBCHEM_CONFORMER_RMSD>  (1) 
0.6

>  <PUBCHEM_CONFORMER_DIVERSEORDER>  (1) 
1

>  <PUBCHEM_MMFF94_PARTIAL_CHARGES>  (1) 
28
11 -0.15
12 -0.15
13 -0.15
14 -0.15
15 -0.15
16 -0.15
17 -0.15
18 -0.15
19 -0.15
20 -0.15
21 -0.15
22 -0.15
23 0.15
24 0.15
25 0.15
26 0.15
27 0.15
28 0.15
29 0.15
30 0.15
31 0.15
32 0.15
33 0.15
34 0.15
35 0.15
36 0.15
7 -0.15
8 -0.15

>  <PUBCHEM_EFFECTIVE_ROTOR_COUNT>  (1) 
0

>  <PUBCHEM_PHARMACOPHORE_FEATURES>  (1) 
5
6 1 2 3 4 7 8 rings
6 1 3 5 9 11 13 rings
6 2 4 6 10 12 14 rings
6 5 9 15 17 19 21 rings
6 6 10 16 18 20 22 rings

>  <PUBCHEM_HEAVY_ATOM_COUNT>  (1) 
22

>  <PUBCHEM_ATOM_DEF_STEREO_COUNT>  (1) 
0

>  <PUBCHEM_ATOM_UDEF_STEREO_COUNT>  (1) 
0

>  <PUBCHEM_BOND_DEF_STEREO_COUNT>  (1) 
0

>  <PUBCHEM_BOND_UDEF_STEREO_COUNT>  (1) 
0

>  <PUBCHEM_ISOTOPIC_ATOM_COUNT>  (1) 
0

>  <PUBCHEM_COMPONENT_COUNT>  (1) 
1

>  <PUBCHEM_CACTVS_TAUTO_COUNT>  (1) 
1

>  <PUBCHEM_CONFORMER_ID>  (1) 
0000170100000001

>  <PUBCHEM_MMFF94_ENERGY>  (1) 
81.9809

>  <PUBCHEM_FEATURE_SELFOVERLAP>  (1) 
25.469

>  <PUBCHEM_SHAPE_FINGERPRINT>  (1) 
10411042 1 17473826122106619147
10616163 171 18340207521633602678
10906281 52 18270420320390836390
11405975 8 18410575119022817617
11578080 2 17058070345578656314
12107183 9 17762338015729949760
12236239 1 18410856559639789601
12403259 415 18260539018198784869
12788726 201 17846510196587528384
13140716 1 18410574019511189753
13167823 11 18409728490816894387
13402501 40 18410855438653325527
13533116 47 17704072846476436082
13862211 1 18410570665194797162
14341114 176 18410580590869350137
14790565 3 18409453548475040809
14866123 147 17407126461151681730
15042514 8 18192998338809538363
15099037 51 18410575063193523711
15183329 4 18410575067483209741
15196674 1 18410574010921254917
15256400 18 18411138017558255669
15442244 35 18410856568425013440
15536298 74 18341049709201790736
15788980 27 18261114079669323569
1601671 61 18411418397639773430
16087824 20 18265616481328886013
17349148 13 17917714595234403009
17492 89 18192714672650381491
17844677 252 18337962276161128385
1813 80 17022901263731809372
18681886 176 18272364304578539194
19141452 34 18410855477308226071
19591789 44 18264487295449282077
200 152 17988923379402044915
21033648 29 17895458281197810301
21033650 10 16127280847132714336
21065198 57 18338799038616305712
21133410 127 17753880912125920133
21133410 171 17117137240212131902
21236236 1 18413107282282197679
21267235 1 18410019848550367347
21279426 13 18266459806392910295
21421861 104 17895462619457430530
21859007 373 17897701233125957085
221490 88 18263932214224171826
23402539 116 18273208699375308813
23559900 14 18342452677501925400
3004659 81 18333453119526558886
335352 9 18410855434358358461
34797466 226 17418100961639356644
34934 24 18411414034148328906
350125 39 18409450271663004837
3545911 37 18412546521933623400
3680242 22 18261670355750359474
4017518 198 17275108310928235622
404807 14 16693039820777549974
4073 2 18041565853299764058
4214541 1 18410856568493591685
460360 51 18195553452590009059
495365 180 17417800790638150448
5104073 3 18410575114727850905
543358 83 18408887330562911450
559249 180 18410007710925303114
59755656 215 18410293566752617399
6138700 20 18337675192221405826
6328613 192 18334866043139029004
633830 44 17458623475122675488
7226269 152 17917996027689112097
77779 3 18409730702682619907
9709674 26 18264210394586692859
9981440 41 17326615207323642464
9996256 80 18412546548437001003

>  <PUBCHEM_SHAPE_MULTIPOLES>  (1) 
452.75
12.7
2.35
0.62
0
0
0
0
-0.01
0
0
0
0
0

>  <PUBCHEM_SHAPE_SELFOVERLAP>  (1) 
1052.041

>  <PUBCHEM_SHAPE_VOLUME>  (1) 
208.7

>  <PUBCHEM_COORDINATE_TYPE>  (1) 
2
5
10

$$$$
