589
     RDKit          3D

 10  9  0  0  0  0  0  0  0  0999 V2000
   -3.6585    0.7941   -0.2782 O   0  0  0  0  0  0  0  0  0  0  0  0
   -2.7153   -1.2776   -0.1081 O   0  0  0  0  0  0  0  0  0  0  0  0
    2.1428    0.0147   -0.0844 N   0  0  0  0  0  0  0  0  0  0  0  0
    1.0618    0.3837    0.9212 C   0  0  0  0  0  0  0  0  0  0  0  0
    1.7677    0.5590   -1.4554 C   0  0  0  0  0  0  0  0  0  0  0  0
    3.4702    0.6161    0.3544 C   0  0  0  0  0  0  0  0  0  0  0  0
    2.2718   -1.5000   -0.1581 C   0  0  0  0  0  0  0  0  0  0  0  0
   -0.2793   -0.1716    0.5608 C   0  0  0  0  0  0  0  0  0  0  0  0
   -1.3502    0.5937    0.3101 C   0  0  0  0  0  0  0  0  0  0  0  0
   -2.7110   -0.0121   -0.0623 C   0  0  0  0  0  0  0  0  0  0  0  0
  1 10  1  0
  2 10  2  0
  3  4  1  0
  3  5  1  0
  3  6  1  0
  3  7  1  0
  4  8  1  0
  8  9  2  0
  9 10  1  0
M  CHG  2   1  -1   3   1
M  END
>  <PUBCHEM_COMPOUND_CID>  (1) 
589

>  <PUBCHEM_CONFORMER_RMSD>  (1) 
0.6

>  <PUBCHEM_CONFORMER_DIVERSEORDER>  (1) 
2
4
1
3

>  <PUBCHEM_MMFF94_PARTIAL_CHARGES>  (1) 
12
1 -0.9
10 1.05
2 -0.9
22 0.15
23 0.15
3 -1.01
4 0.64
5 0.5
6 0.5
7 0.5
8 -0.29
9 -0.4

>  <PUBCHEM_EFFECTIVE_ROTOR_COUNT>  (1) 
3

>  <PUBCHEM_PHARMACOPHORE_FEATURES>  (1) 
4
1 1 acceptor
1 2 acceptor
1 3 cation
3 1 2 10 anion

>  <PUBCHEM_HEAVY_ATOM_COUNT>  (1) 
10

>  <PUBCHEM_ATOM_DEF_STEREO_COUNT>  (1) 
0

>  <PUBCHEM_ATOM_UDEF_STEREO_COUNT>  (1) 
0

>  <PUBCHEM_BOND_DEF_STEREO_COUNT>  (1) 
0

>  <PUBCHEM_BOND_UDEF_STEREO_COUNT>  (1) 
1

>  <PUBCHEM_ISOTOPIC_ATOM_COUNT>  (1) 
0

>  <PUBCHEM_COMPONENT_COUNT>  (1) 
1

>  <PUBCHEM_CACTVS_TAUTO_COUNT>  (1) 
1

>  <PUBCHEM_CONFORMER_ID>  (1) 
0000024D00000002

>  <PUBCHEM_MMFF94_ENERGY>  (1) 
24.4992

>  <PUBCHEM_FEATURE_SELFOVERLAP>  (1) 
20.352

>  <PUBCHEM_SHAPE_FINGERPRINT>  (1) 
11062470 55 18131349713101305456
12897270 3 18342741822904883785
12932764 1 18202005447215091323
14325111 11 18411417310670273211
14390081 3 15574714711794390317
15310529 11 18201998811221652044
15775835 57 18272088300973574975
190213 19 18040437676965081121
20201158 50 17060340716693765791
20279233 1 18060700602248875139
20645477 70 17988078889963397687
20711985 344 16986058711854107952
21028194 46 13695588857974243497
23402539 116 17968083240425543188
23552423 10 18261112937392996555
29004967 10 15985109604241350954
3248919 1 17894354401339808891

>  <PUBCHEM_SHAPE_MULTIPOLES>  (1) 
189.08
5.9
1.14
0.98
2.55
0.43
-0.22
-0.32
-0.47
-0.18
-0.06
-0.5
-0.17
0.04

>  <PUBCHEM_SHAPE_SELFOVERLAP>  (1) 
349.796

>  <PUBCHEM_SHAPE_VOLUME>  (1) 
121.1

>  <PUBCHEM_COORDINATE_TYPE>  (1) 
2
5
10

$$$$
