5895
     RDKit          3D

 15 17  0  0  0  0  0  0  0  0999 V2000
    4.7802   -1.0550    0.0177 O   0  0  0  0  0  0  0  0  0  0  0  0
    4.1523    0.1633   -0.0052 N   0  0  0  0  0  0  0  0  0  0  0  0
   -0.4941   -1.7644   -0.0043 C   0  0  0  0  0  0  0  0  0  0  0  0
    0.5744   -0.6911   -0.0042 C   0  0  0  0  0  0  0  0  0  0  0  0
   -0.0148    0.5933   -0.0016 C   0  0  0  0  0  0  0  0  0  0  0  0
   -1.7626   -0.9373   -0.0016 C   0  0  0  0  0  0  0  0  0  0  0  0
   -1.4540    0.4416    0.0000 C   0  0  0  0  0  0  0  0  0  0  0  0
    1.9483   -0.8564   -0.0058 C   0  0  0  0  0  0  0  0  0  0  0  0
    0.7761    1.7300   -0.0003 C   0  0  0  0  0  0  0  0  0  0  0  0
   -3.0720   -1.3851    0.0000 C   0  0  0  0  0  0  0  0  0  0  0  0
   -2.4644    1.3887    0.0032 C   0  0  0  0  0  0  0  0  0  0  0  0
    2.7453    0.2898   -0.0044 C   0  0  0  0  0  0  0  0  0  0  0  0
    2.1652    1.5701   -0.0014 C   0  0  0  0  0  0  0  0  0  0  0  0
   -4.0903   -0.4302    0.0032 C   0  0  0  0  0  0  0  0  0  0  0  0
   -3.7897    0.9428    0.0047 C   0  0  0  0  0  0  0  0  0  0  0  0
  1  2  1  0
  2 12  1  0
  3  4  1  0
  3  6  1  0
  4  5  2  0
  4  8  1  0
  5  7  1  0
  5  9  1  0
  6  7  2  0
  6 10  1  0
  7 11  1  0
  8 12  2  0
  9 13  2  0
 10 14  2  0
 11 15  2  0
 12 13  1  0
 14 15  1  0
M  END
>  <PUBCHEM_COMPOUND_CID>  (1) 
5895

>  <PUBCHEM_CONFORMER_RMSD>  (1) 
0.6

>  <PUBCHEM_CONFORMER_DIVERSEORDER>  (1) 
1

>  <PUBCHEM_MMFF94_PARTIAL_CHARGES>  (1) 
22
1 -0.38
10 -0.15
11 -0.15
12 0.1
13 -0.15
14 -0.15
15 -0.15
18 0.15
19 0.15
2 -0.52
20 0.15
21 0.15
22 0.15
23 0.15
24 0.15
25 0.4
26 0.4
3 0.29
4 -0.14
6 -0.14
8 -0.15
9 -0.15

>  <PUBCHEM_EFFECTIVE_ROTOR_COUNT>  (1) 
1.2

>  <PUBCHEM_PHARMACOPHORE_FEATURES>  (1) 
4
1 1 anion
5 3 4 5 6 7 rings
6 4 5 8 9 12 13 rings
6 6 7 10 11 14 15 rings

>  <PUBCHEM_HEAVY_ATOM_COUNT>  (1) 
15

>  <PUBCHEM_ATOM_DEF_STEREO_COUNT>  (1) 
0

>  <PUBCHEM_ATOM_UDEF_STEREO_COUNT>  (1) 
0

>  <PUBCHEM_BOND_DEF_STEREO_COUNT>  (1) 
0

>  <PUBCHEM_BOND_UDEF_STEREO_COUNT>  (1) 
0

>  <PUBCHEM_ISOTOPIC_ATOM_COUNT>  (1) 
0

>  <PUBCHEM_COMPONENT_COUNT>  (1) 
1

>  <PUBCHEM_CACTVS_TAUTO_COUNT>  (1) 
1

>  <PUBCHEM_CONFORMER_ID>  (1) 
0000170700000001

>  <PUBCHEM_MMFF94_ENERGY>  (1) 
55.1829

>  <PUBCHEM_FEATURE_SELFOVERLAP>  (1) 
20.462

>  <PUBCHEM_SHAPE_FINGERPRINT>  (1) 
10062212 137 18412819187974854831
10608611 8 18411415154813345097
10967382 1 18410573972562071783
11132069 177 18411694396095468288
11401426 45 18341889697298785106
11471102 20 18411133662360989516
12032990 46 18410296929748894082
12251169 10 18409450284631841497
12403259 226 18340198700145271001
13140716 1 18339368560307780513
13221675 6 18409165523662413923
13288520 33 18412547583344466062
13380535 76 18411420609416438863
13675066 3 18272647978399111714
13690532 89 18410292514490813290
13862211 1 18410568466461834858
14115302 16 17967825963299989582
14144814 61 18410009948803477641
14325111 11 18410856598600710181
14790565 3 15677755057919167044
15196674 1 18410575119038816933
15309172 13 18341621425299735219
15375462 189 18040428854933437626
15442244 35 18410575097812004264
15536298 74 18342455993221913480
15775835 57 18260831479653852369
16945 1 18194401323460268933
17802600 8 18411132558844642093
17804303 29 18411985775351237412
18186145 218 17967806180427215023
18522853 276 18342175578753913432
200 152 17988917895034737213
21267235 1 18410301323775004315
21501502 16 18267025140179924029
221490 88 18191594248710192690
23402539 116 18272643537128627709
23402655 69 18269825442463258085
23463225 33 18408322185490785700
23559900 14 18343862226124129584
2748010 2 18338516447354435973
335352 9 18337954493527420573
474 4 16734680903671023076
5104073 3 18411419552542969273
528886 8 18411132532821468473
53812653 166 18412823581662835448
54173680 148 18120376716111328907
69090 78 18201716288473537335
7364860 26 18268711602017766007
8809292 202 18261115226621082451
9709674 26 18340211881094077350
9981440 41 17254555418620723328

>  <PUBCHEM_SHAPE_MULTIPOLES>  (1) 
297.84
7.38
1.78
0.6
2.84
0.1
0
-0.74
0.02
-0.16
0
-0.05
0.01
-0.01

>  <PUBCHEM_SHAPE_SELFOVERLAP>  (1) 
666.579

>  <PUBCHEM_SHAPE_VOLUME>  (1) 
160.4

>  <PUBCHEM_COORDINATE_TYPE>  (1) 
2
5
10

$$$$
