5898
     RDKit          3D

 13 14  0  0  1  0  0  0  0  0999 V2000
    2.0855   -1.9958    0.9714 O   0  0  0  0  0  0  0  0  0  0  0  0
   -3.1500   -1.1927   -0.2158 O   0  0  0  0  0  0  0  0  0  0  0  0
   -2.9706    1.4390    0.3102 O   0  0  0  0  0  0  0  0  0  0  0  0
    1.8115    0.9869   -0.0509 N   0  0  0  0  0  0  0  0  0  0  0  0
    1.7507   -1.3643   -0.2602 C   0  0  0  0  0  0  0  0  0  0  0  0
    2.6589   -0.1366   -0.4481 C   0  0  0  0  0  0  0  0  0  0  0  0
    0.3615   -0.7916   -0.1754 C   0  0  0  0  0  0  0  0  0  0  0  0
    0.4748    0.6446    0.0031 C   0  0  0  0  0  0  0  0  0  0  0  0
   -0.7940   -1.4544   -0.2670 C   0  0  0  0  0  0  0  0  0  0  0  0
   -0.6025    1.4225    0.1656 C   0  0  0  0  0  0  0  0  0  0  0  0
    2.3626    2.3235   -0.0400 C   0  0  0  0  0  0  0  0  0  0  0  0
   -2.0442   -0.6813   -0.1294 C   0  0  0  0  0  0  0  0  0  0  0  0
   -1.9440    0.8003    0.1364 C   0  0  0  0  0  0  0  0  0  0  0  0
  1  5  1  0
  2 12  2  0
  3 13  2  0
  4  6  1  0
  4  8  1  0
  4 11  1  0
  5  6  1  0
  5  7  1  0
  7  8  1  0
  7  9  2  0
  8 10  2  0
  9 12  1  0
 10 13  1  0
 12 13  1  0
M  END
>  <PUBCHEM_COMPOUND_CID>  (1) 
5898

>  <PUBCHEM_CONFORMER_RMSD>  (1) 
0.4

>  <PUBCHEM_CONFORMER_DIVERSEORDER>  (1) 
2
1

>  <PUBCHEM_MMFF94_PARTIAL_CHARGES>  (1) 
16
1 -0.68
10 -0.14
11 0.37
12 0.56
13 0.56
17 0.15
18 0.15
2 -0.57
22 0.4
3 -0.57
4 -0.84
5 0.42
6 0.37
7 -0.14
8 0.1
9 -0.14

>  <PUBCHEM_EFFECTIVE_ROTOR_COUNT>  (1) 
0.6

>  <PUBCHEM_PHARMACOPHORE_FEATURES>  (1) 
7
1 1 acceptor
1 1 donor
1 2 acceptor
1 3 acceptor
1 4 cation
5 4 5 6 7 8 rings
6 7 8 9 10 12 13 rings

>  <PUBCHEM_HEAVY_ATOM_COUNT>  (1) 
13

>  <PUBCHEM_ATOM_DEF_STEREO_COUNT>  (1) 
0

>  <PUBCHEM_ATOM_UDEF_STEREO_COUNT>  (1) 
1

>  <PUBCHEM_BOND_DEF_STEREO_COUNT>  (1) 
0

>  <PUBCHEM_BOND_UDEF_STEREO_COUNT>  (1) 
0

>  <PUBCHEM_ISOTOPIC_ATOM_COUNT>  (1) 
0

>  <PUBCHEM_COMPONENT_COUNT>  (1) 
1

>  <PUBCHEM_CACTVS_TAUTO_COUNT>  (1) 
1

>  <PUBCHEM_CONFORMER_ID>  (1) 
0000170A00000002

>  <PUBCHEM_MMFF94_ENERGY>  (1) 
30.7214

>  <PUBCHEM_FEATURE_SELFOVERLAP>  (1) 
35.616

>  <PUBCHEM_SHAPE_FINGERPRINT>  (1) 
12202030 40 16154005559556274803
12696612 119 18410292476089302222
12932764 1 18114750330332868693
13380535 76 18123470746448188924
14325111 11 18412830213171721437
15775835 57 18335713693035361300
16945 1 18196656181306538749
17990270 104 18342743970515411814
193761 8 18411701010345019597
19973954 147 18412830178848640005
20645477 70 18341328981113954263
20653091 64 18408317774707228370
21501502 16 18411981356014415181
21524375 3 18124314067535010404
2334 1 18412544340322371589
23463225 33 18337954493564304439
23552423 10 18408044030386631877
23559900 14 18271821120845596092
2748010 2 18412265042830757173
353137 74 18267864067578329725
5084963 1 18060704987152099530
528886 8 18341049610090456337
57177213 63 18262523726759647916
63268167 104 18336552594690246120
7364860 26 18343584045023117092
8030462 33 18334862739871029527

>  <PUBCHEM_SHAPE_MULTIPOLES>  (1) 
244.94
4.29
2.24
0.69
1.34
0.32
-0.04
0.41
0.05
-0.82
-0.22
-0.16
-0.14
-0.4

>  <PUBCHEM_SHAPE_SELFOVERLAP>  (1) 
527.615

>  <PUBCHEM_SHAPE_VOLUME>  (1) 
137.6

>  <PUBCHEM_COORDINATE_TYPE>  (1) 
2
5
10

$$$$
