5907
     RDKit          3D

 22 21  0  0  0  0  0  0  0  0999 V2000
   -1.6719    1.5271   -1.8308 O   0  0  0  0  0  0  0  0  0  0  0  0
   -0.2917    0.1953   -0.5557 N   0  0  0  0  0  0  0  0  0  0  0  0
   -2.5609    0.6230    0.0919 N   0  0  0  0  0  0  0  0  0  0  0  0
    3.1637    1.5765   -0.2360 N   0  0  0  0  0  0  0  0  0  0  0  0
   -0.2053   -1.0709    0.1685 C   0  0  0  0  0  0  0  0  0  0  0  0
    0.9815    0.7610   -0.9800 C   0  0  0  0  0  0  0  0  0  0  0  0
    0.4508   -2.1735   -0.6592 C   0  0  0  0  0  0  0  0  0  0  0  0
   -3.9657    0.6345   -0.3103 C   0  0  0  0  0  0  0  0  0  0  0  0
   -2.3186    0.3895    1.5088 C   0  0  0  0  0  0  0  0  0  0  0  0
   -1.5173    0.8231   -0.8240 C   0  0  0  0  0  0  0  0  0  0  0  0
    0.5462   -3.5445    0.0396 C   0  0  0  0  0  0  0  0  0  0  0  0
    1.8858    1.0382    0.2120 C   0  0  0  0  0  0  0  0  0  0  0  0
   -4.3466    1.9939   -0.8834 C   0  0  0  0  0  0  0  0  0  0  0  0
   -4.2394   -0.4820   -1.3096 C   0  0  0  0  0  0  0  0  0  0  0  0
   -2.8469   -0.9794    1.9178 C   0  0  0  0  0  0  0  0  0  0  0  0
   -2.9452    1.4963    2.3479 C   0  0  0  0  0  0  0  0  0  0  0  0
    1.3721   -3.4140    1.3223 C   0  0  0  0  0  0  0  0  0  0  0  0
    1.1589   -4.6180   -0.8608 C   0  0  0  0  0  0  0  0  0  0  0  0
    4.0257    0.5065   -0.7420 C   0  0  0  0  0  0  0  0  0  0  0  0
    3.8317    2.2940    0.8516 C   0  0  0  0  0  0  0  0  0  0  0  0
    5.3356    1.0622   -1.2744 C   0  0  0  0  0  0  0  0  0  0  0  0
    4.1576    1.3613    2.0058 C   0  0  0  0  0  0  0  0  0  0  0  0
  1 10  2  0
  2  5  1  0
  2  6  1  0
  2 10  1  0
  3  8  1  0
  3  9  1  0
  3 10  1  0
  4 12  1  0
  4 19  1  0
  4 20  1  0
  5  7  1  0
  6 12  1  0
  7 11  1  0
  8 13  1  0
  8 14  1  0
  9 15  1  0
  9 16  1  0
 11 17  1  0
 11 18  1  0
 19 21  1  0
 20 22  1  0
M  END
>  <PUBCHEM_COMPOUND_CID>  (1) 
5907

>  <PUBCHEM_CONFORMER_RMSD>  (1) 
1

>  <PUBCHEM_CONFORMER_DIVERSEORDER>  (1) 
1
3
46
51
33
43
9
52
10
36
45
26
37
42
50
28
7
15
17
34
27
40
49
6
16
41
23
32
21
25
48
12
31
24
22
20
38
18
35
4
2
11
47
8
44
39
13
14
30
29
19
5

>  <PUBCHEM_MMFF94_PARTIAL_CHARGES>  (1) 
12
1 -0.57
10 0.69
12 0.27
19 0.27
2 -0.66
20 0.27
3 -0.66
4 -0.81
5 0.3
6 0.3
8 0.3
9 0.3

>  <PUBCHEM_EFFECTIVE_ROTOR_COUNT>  (1) 
12

>  <PUBCHEM_PHARMACOPHORE_FEATURES>  (1) 
5
1 1 acceptor
1 4 cation
3 11 17 18 hydrophobe
3 8 13 14 hydrophobe
3 9 15 16 hydrophobe

>  <PUBCHEM_HEAVY_ATOM_COUNT>  (1) 
22

>  <PUBCHEM_ATOM_DEF_STEREO_COUNT>  (1) 
0

>  <PUBCHEM_ATOM_UDEF_STEREO_COUNT>  (1) 
0

>  <PUBCHEM_BOND_DEF_STEREO_COUNT>  (1) 
0

>  <PUBCHEM_BOND_UDEF_STEREO_COUNT>  (1) 
0

>  <PUBCHEM_ISOTOPIC_ATOM_COUNT>  (1) 
0

>  <PUBCHEM_COMPONENT_COUNT>  (1) 
1

>  <PUBCHEM_CACTVS_TAUTO_COUNT>  (1) 
1

>  <PUBCHEM_CONFORMER_ID>  (1) 
0000171300000001

>  <PUBCHEM_MMFF94_ENERGY>  (1) 
58.3261

>  <PUBCHEM_FEATURE_SELFOVERLAP>  (1) 
25.372

>  <PUBCHEM_SHAPE_FINGERPRINT>  (1) 
10906281 52 17531250526517460805
121448 382 18058158604395829275
12160290 23 17905910410297992846
12549972 3 17462307741483347841
12592029 89 18335972108385342211
12633257 1 16733255781434034424
12788726 201 17615119319163161426
12839892 36 18261938743729558155
13533116 47 18268996376140828617
13583140 156 16371287869241008212
13681431 1 17906453225645073594
14178342 30 18119000020553061635
14251757 17 13542462055765673250
14787075 74 17628906022496620157
15309172 13 18337399321770457808
1813 80 17267229007827440958
18186145 218 18131357422952989828
18915476 22 18265061240862008955
20101258 96 17045428865542778846
20197701 30 18341038718095910134
20600515 1 16392331546712061069
21033648 29 18340481265965027976
22182313 1 17604729767899570107
23559900 14 17024325023667949478
23598288 3 16733805589330413964
2748010 2 17532959137659013315
314173 85 8286212642779836612
3286 77 10519690225123539469
35225 105 18051683631912193602
3729539 64 18194987157817751782
495365 180 18337664205261980917
59755656 520 18129961051595937103
633830 44 17917447413988390696
7615 1 17629761176323506089
81228 2 17760925538879208094
9981440 41 18410563003389710793

>  <PUBCHEM_SHAPE_MULTIPOLES>  (1) 
431.94
9.01
4.13
1.95
3.34
7.16
-0.91
-7.61
0.79
2.78
-0.09
-0.68
-0.56
0.51

>  <PUBCHEM_SHAPE_SELFOVERLAP>  (1) 
814.346

>  <PUBCHEM_SHAPE_VOLUME>  (1) 
270.3

>  <PUBCHEM_COORDINATE_TYPE>  (1) 
2
5
10

$$$$
