5921
     RDKit          3D

  7  6  0  0  0  0  0  0  0  0999 V2000
   -0.5757   -1.8312    0.1623 O   0  0  0  0  0  0  0  0  0  0  0  0
    0.0634    0.1748    0.0722 N   0  0  0  0  0  0  0  0  0  0  0  0
    0.1196   -1.0247   -0.4669 N   0  0  0  0  0  0  0  0  0  0  0  0
    1.3021    0.9300   -0.1387 C   0  0  0  0  0  0  0  0  0  0  0  0
   -1.0824    0.9792   -0.3748 C   0  0  0  0  0  0  0  0  0  0  0  0
    2.5115    0.1467    0.3431 C   0  0  0  0  0  0  0  0  0  0  0  0
   -2.3385    0.6252    0.4028 C   0  0  0  0  0  0  0  0  0  0  0  0
  1  3  2  0
  2  3  1  0
  2  4  1  0
  2  5  1  0
  4  6  1  0
  5  7  1  0
M  END
>  <PUBCHEM_COMPOUND_CID>  (1) 
5921

>  <PUBCHEM_CONFORMER_RMSD>  (1) 
0.4

>  <PUBCHEM_CONFORMER_DIVERSEORDER>  (1) 
1
33
10
17
39
36
15
49
40
23
31
29
19
45
11
2
16
51
21
48
18
26
22
32
20
27
41
25
3
47
50
24
30
13
6
28
38
37
42
35
46
44
7
14
9
4
5
43
8
12
34

>  <PUBCHEM_MMFF94_PARTIAL_CHARGES>  (1) 
5
1 -0.16
2 -0.36
3 -0.01
4 0.27
5 0.27

>  <PUBCHEM_EFFECTIVE_ROTOR_COUNT>  (1) 
3

>  <PUBCHEM_PHARMACOPHORE_FEATURES>  (1) 
0

>  <PUBCHEM_HEAVY_ATOM_COUNT>  (1) 
7

>  <PUBCHEM_ATOM_DEF_STEREO_COUNT>  (1) 
0

>  <PUBCHEM_ATOM_UDEF_STEREO_COUNT>  (1) 
0

>  <PUBCHEM_BOND_DEF_STEREO_COUNT>  (1) 
0

>  <PUBCHEM_BOND_UDEF_STEREO_COUNT>  (1) 
0

>  <PUBCHEM_ISOTOPIC_ATOM_COUNT>  (1) 
0

>  <PUBCHEM_COMPONENT_COUNT>  (1) 
1

>  <PUBCHEM_CACTVS_TAUTO_COUNT>  (1) 
1

>  <PUBCHEM_CONFORMER_ID>  (1) 
0000172100000001

>  <PUBCHEM_MMFF94_ENERGY>  (1) 
7.3206

>  <PUBCHEM_FEATURE_SELFOVERLAP>  (1) 
0

>  <PUBCHEM_SHAPE_FINGERPRINT>  (1) 
16714656 1 18335422374130842644
20096714 4 18412260636146987924
21040471 1 18411985753908049484
29004967 10 18191314788210462713

>  <PUBCHEM_SHAPE_MULTIPOLES>  (1) 
128.23
2.97
1.44
0.68
0.43
0.72
0
-0.85
-0.59
-0.26
0.06
-0.03
-0.04
0

>  <PUBCHEM_SHAPE_SELFOVERLAP>  (1) 
226.961

>  <PUBCHEM_SHAPE_VOLUME>  (1) 
85.4

>  <PUBCHEM_COORDINATE_TYPE>  (1) 
2
5
10

$$$$
