5929
     RDKit          3D

 11 11  0  0  1  0  0  0  0  0999 V2000
   -3.2656    0.1381    0.0329 N   0  0  0  0  0  0  0  0  0  0  0  0
   -3.5043   -1.2355   -0.2604 N   0  0  0  0  0  0  0  0  0  0  0  0
   -1.8632    0.2768    0.4363 C   0  0  0  0  0  0  0  0  0  0  0  0
   -0.9500   -0.2361   -0.6922 C   0  0  0  0  0  0  0  0  0  0  0  0
    0.5206   -0.1725   -0.3561 C   0  0  0  0  0  0  0  0  0  0  0  0
   -1.6038    1.7441    0.7783 C   0  0  0  0  0  0  0  0  0  0  0  0
    1.2393    0.9712   -0.6659 C   0  0  0  0  0  0  0  0  0  0  0  0
    1.1251   -1.2592    0.2558 C   0  0  0  0  0  0  0  0  0  0  0  0
    2.5979    1.0297   -0.3556 C   0  0  0  0  0  0  0  0  0  0  0  0
    2.4837   -1.2006    0.5663 C   0  0  0  0  0  0  0  0  0  0  0  0
    3.2202   -0.0560    0.2606 C   0  0  0  0  0  0  0  0  0  0  0  0
  1  2  1  0
  1  3  1  0
  3  4  1  0
  3  6  1  0
  4  5  1  0
  5  7  2  0
  5  8  1  0
  7  9  1  0
  8 10  2  0
  9 11  2  0
 10 11  1  0
M  END
>  <PUBCHEM_COMPOUND_CID>  (1) 
5929

>  <PUBCHEM_CONFORMER_RMSD>  (1) 
0.6

>  <PUBCHEM_CONFORMER_DIVERSEORDER>  (1) 
1
13
2
14
5
8
4
10
3
11
7
9
6
12

>  <PUBCHEM_MMFF94_PARTIAL_CHARGES>  (1) 
18
1 -0.63
10 -0.15
11 -0.15
18 0.36
19 0.15
2 -0.72
20 0.15
21 0.15
22 0.15
23 0.15
24 0.36
25 0.36
3 0.27
4 0.14
5 -0.14
7 -0.15
8 -0.15
9 -0.15

>  <PUBCHEM_EFFECTIVE_ROTOR_COUNT>  (1) 
3

>  <PUBCHEM_PHARMACOPHORE_FEATURES>  (1) 
3
1 1 donor
1 2 donor
6 5 7 8 9 10 11 rings

>  <PUBCHEM_HEAVY_ATOM_COUNT>  (1) 
11

>  <PUBCHEM_ATOM_DEF_STEREO_COUNT>  (1) 
0

>  <PUBCHEM_ATOM_UDEF_STEREO_COUNT>  (1) 
1

>  <PUBCHEM_BOND_DEF_STEREO_COUNT>  (1) 
0

>  <PUBCHEM_BOND_UDEF_STEREO_COUNT>  (1) 
0

>  <PUBCHEM_ISOTOPIC_ATOM_COUNT>  (1) 
0

>  <PUBCHEM_COMPONENT_COUNT>  (1) 
1

>  <PUBCHEM_CACTVS_TAUTO_COUNT>  (1) 
1

>  <PUBCHEM_CONFORMER_ID>  (1) 
0000172900000001

>  <PUBCHEM_MMFF94_ENERGY>  (1) 
20.3906

>  <PUBCHEM_FEATURE_SELFOVERLAP>  (1) 
16.556

>  <PUBCHEM_SHAPE_FINGERPRINT>  (1) 
10219947 1 17676489462451933356
10857977 72 17346881165328178273
11062470 55 14201114621880252878
12932764 1 18041850493165971157
14144814 61 18410575063193523698
14325111 11 18408604768431908725
15775835 57 18272660025566430616
16945 1 18041007228146008344
177051 138 18413670210038005063
200 152 18338785780495530791
20201158 50 17603303743429351402
20279233 1 15791734109113404112
20645477 70 18187075127477676871
20653091 64 18334013857081192912
20871998 22 18048593725503319082
22802520 49 14619414917374721936
29004967 10 17386009425506889060
3248919 1 18131068173831804783
5084963 1 18260264144428123516
57812782 119 17603300475069865787
581208 293 18040713697106459526

>  <PUBCHEM_SHAPE_MULTIPOLES>  (1) 
216.41
5.4
1.49
0.84
2.11
0.15
-0.01
-0.73
-0.35
0.09
-0.18
-0.01
0.1
-0.69

>  <PUBCHEM_SHAPE_SELFOVERLAP>  (1) 
434.823

>  <PUBCHEM_SHAPE_VOLUME>  (1) 
127.7

>  <PUBCHEM_COORDINATE_TYPE>  (1) 
2
5
10

$$$$
