5934
     RDKit          3D

 18 19  0  0  0  0  0  0  0  0999 V2000
    5.0339    0.1265   -0.1859 N   0  0  0  0  0  0  0  0  0  0  0  0
   -0.5027   -0.1120    0.6109 N   0  0  0  0  0  0  0  0  0  0  0  0
   -1.0889   -0.2429   -0.4892 N   0  0  0  0  0  0  0  0  0  0  0  0
    3.6390    0.0668    0.0147 C   0  0  0  0  0  0  0  0  0  0  0  0
    2.8822    1.2385    0.0067 C   0  0  0  0  0  0  0  0  0  0  0  0
    3.0163   -1.1643    0.2210 C   0  0  0  0  0  0  0  0  0  0  0  0
    0.8871   -0.0514    0.4107 C   0  0  0  0  0  0  0  0  0  0  0  0
    1.5028    1.1791    0.2054 C   0  0  0  0  0  0  0  0  0  0  0  0
    1.6370   -1.2235    0.4195 C   0  0  0  0  0  0  0  0  0  0  0  0
    5.7857    1.2938    0.2297 C   0  0  0  0  0  0  0  0  0  0  0  0
    5.7356   -0.9845   -0.7976 C   0  0  0  0  0  0  0  0  0  0  0  0
   -4.6093    0.8068   -0.0972 C   0  0  0  0  0  0  0  0  0  0  0  0
   -2.4720   -0.3033   -0.2892 C   0  0  0  0  0  0  0  0  0  0  0  0
   -3.2299    0.8677   -0.2964 C   0  0  0  0  0  0  0  0  0  0  0  0
   -5.2305   -0.4249    0.1090 C   0  0  0  0  0  0  0  0  0  0  0  0
   -3.0934   -1.5350   -0.0829 C   0  0  0  0  0  0  0  0  0  0  0  0
   -4.4726   -1.5958    0.1162 C   0  0  0  0  0  0  0  0  0  0  0  0
   -5.4204    2.0584   -0.1053 C   0  0  0  0  0  0  0  0  0  0  0  0
  1  4  1  0
  1 10  1  0
  1 11  1  0
  2  3  2  0
  2  7  1  0
  3 13  1  0
  4  5  2  0
  4  6  1  0
  5  8  1  0
  6  9  2  0
  7  8  2  0
  7  9  1  0
 12 14  2  0
 12 15  1  0
 12 18  1  0
 13 14  1  0
 13 16  2  0
 15 17  2  0
 16 17  1  0
M  END
>  <PUBCHEM_COMPOUND_CID>  (1) 
5934

>  <PUBCHEM_CONFORMER_RMSD>  (1) 
0.6

>  <PUBCHEM_CONFORMER_DIVERSEORDER>  (1) 
1
5
3
8
6
4
2
7

>  <PUBCHEM_MMFF94_PARTIAL_CHARGES>  (1) 
26
1 -0.84
10 0.37
11 0.37
12 -0.14
13 0.18
14 -0.15
15 -0.15
16 -0.15
17 -0.15
18 0.14
19 0.15
2 -0.18
20 0.15
21 0.15
22 0.15
29 0.15
3 -0.18
30 0.15
31 0.15
32 0.15
4 0.1
5 -0.15
6 -0.15
7 0.18
8 -0.15
9 -0.15

>  <PUBCHEM_EFFECTIVE_ROTOR_COUNT>  (1) 
3

>  <PUBCHEM_PHARMACOPHORE_FEATURES>  (1) 
3
1 1 cation
6 12 13 14 15 16 17 rings
6 4 5 6 7 8 9 rings

>  <PUBCHEM_HEAVY_ATOM_COUNT>  (1) 
18

>  <PUBCHEM_ATOM_DEF_STEREO_COUNT>  (1) 
0

>  <PUBCHEM_ATOM_UDEF_STEREO_COUNT>  (1) 
0

>  <PUBCHEM_BOND_DEF_STEREO_COUNT>  (1) 
0

>  <PUBCHEM_BOND_UDEF_STEREO_COUNT>  (1) 
0

>  <PUBCHEM_ISOTOPIC_ATOM_COUNT>  (1) 
0

>  <PUBCHEM_COMPONENT_COUNT>  (1) 
1

>  <PUBCHEM_CACTVS_TAUTO_COUNT>  (1) 
1

>  <PUBCHEM_CONFORMER_ID>  (1) 
0000172E00000001

>  <PUBCHEM_MMFF94_ENERGY>  (1) 
64.1981

>  <PUBCHEM_FEATURE_SELFOVERLAP>  (1) 
15.223

>  <PUBCHEM_SHAPE_FINGERPRINT>  (1) 
10595046 47 18335701692896690727
11287383 113 18410856598774510754
11858739 19 17703514303259434358
12107183 9 17760080718711592473
12236239 1 18131353011720402920
13073987 5 18333448729442410659
13167823 11 18410290341438191879
13533116 47 14620524381253931102
13760787 19 18409444774157522563
14251731 8 18342176652780398493
14251764 18 18272936029529843777
14341114 176 18411705386948342725
15048467 5 18335701628514613141
15183329 4 18341615863089980048
15196674 1 18410009939991925362
15778101 99 18411140191560871713
15788980 27 17418091031157756821
17834072 33 18412544335958754614
17834072 8 18272932696023506741
17844677 252 18411707616152803689
200 152 18202565094085493555
20281389 69 18187080620661590789
20621476 66 18130514016267867097
20645477 56 18334856083373314565
20645477 70 18271528602869916846
20681677 155 18334293167231005731
21267235 1 18336552698439504083
21709351 56 18335696173963929653
220451 1 17530685390135242682
2297311 6 18412269436930382581
23402539 116 18334009505862610156
23402655 69 18410290302566864090
23536379 177 18410855456255187808
23559900 14 18271799150985525073
2916195 48 18340761658809875080
29717793 49 17489593320954054380
300161 21 18260259737955130127
3004659 81 18336549331396374502
34797466 226 17917438669656327308
3545911 37 18410292502138804289
4073 2 18113623421219897498
4214541 1 18410573985715960049
42788 4 18410855468960760966
4463277 17 18411982468664288832
4990 188 18342182167639914446
5104073 3 18334290955291044419
542803 24 17022904549054476246
59755656 520 16805045107740765939
6327066 14 18044366129534115597
633830 44 18188203307879739278
77779 3 18409448098572706547

>  <PUBCHEM_SHAPE_MULTIPOLES>  (1) 
355.49
14.91
1.72
0.71
3.05
0.19
-0.02
2.25
-1.39
-1.11
0.01
0.2
-0.05
0.44

>  <PUBCHEM_SHAPE_SELFOVERLAP>  (1) 
752.732

>  <PUBCHEM_SHAPE_VOLUME>  (1) 
201.6

>  <PUBCHEM_COORDINATE_TYPE>  (1) 
2
5
10

$$$$
