594
     RDKit          3D

  7  6  0  0  1  0  0  0  0  0999 V2000
    1.9760   -0.9107   -0.9628 S   0  0  0  0  0  0  0  0  0  0  0  0
   -1.4422   -1.2519    0.5781 O   0  0  0  0  0  0  0  0  0  0  0  0
   -1.5785    0.3574   -1.0131 O   0  0  0  0  0  0  0  0  0  0  0  0
    0.5091    1.8031    0.0804 N   0  0  0  0  0  0  0  0  0  0  0  0
    0.1743    0.5237    0.6543 C   0  0  0  0  0  0  0  0  0  0  0  0
    1.3878   -0.4086    0.6888 C   0  0  0  0  0  0  0  0  0  0  0  0
   -1.0265   -0.1130   -0.0256 C   0  0  0  0  0  0  0  0  0  0  0  0
  1  6  1  0
  2  7  1  0
  3  7  2  0
  4  5  1  0
  5  6  1  0
  5  7  1  0
M  END
>  <PUBCHEM_COMPOUND_CID>  (1) 
594

>  <PUBCHEM_CONFORMER_RMSD>  (1) 
0.4

>  <PUBCHEM_CONFORMER_DIVERSEORDER>  (1) 
1
7
9
8
4
3
10
2
6
11
5

>  <PUBCHEM_MMFF94_PARTIAL_CHARGES>  (1) 
11
1 -0.41
11 0.36
12 0.36
13 0.18
14 0.5
2 -0.65
3 -0.57
4 -0.99
5 0.33
6 0.23
7 0.66

>  <PUBCHEM_EFFECTIVE_ROTOR_COUNT>  (1) 
2

>  <PUBCHEM_PHARMACOPHORE_FEATURES>  (1) 
5
1 2 acceptor
1 3 acceptor
1 4 cation
1 4 donor
3 2 3 7 anion

>  <PUBCHEM_HEAVY_ATOM_COUNT>  (1) 
7

>  <PUBCHEM_ATOM_DEF_STEREO_COUNT>  (1) 
0

>  <PUBCHEM_ATOM_UDEF_STEREO_COUNT>  (1) 
1

>  <PUBCHEM_BOND_DEF_STEREO_COUNT>  (1) 
0

>  <PUBCHEM_BOND_UDEF_STEREO_COUNT>  (1) 
0

>  <PUBCHEM_ISOTOPIC_ATOM_COUNT>  (1) 
0

>  <PUBCHEM_COMPONENT_COUNT>  (1) 
1

>  <PUBCHEM_CACTVS_TAUTO_COUNT>  (1) 
1

>  <PUBCHEM_CONFORMER_ID>  (1) 
0000025200000001

>  <PUBCHEM_MMFF94_ENERGY>  (1) 
7.2123

>  <PUBCHEM_FEATURE_SELFOVERLAP>  (1) 
25.431

>  <PUBCHEM_SHAPE_FINGERPRINT>  (1) 
137420 1 15823066956410464072
139733 1 11386375837152755234
16714656 1 17981624666482150064
20711978 78 18057045928640472079
21040471 1 17751617893565953585
24536 1 18272081746895465009
29004967 10 18273218612001650242
5943 1 9791597120917798192

>  <PUBCHEM_SHAPE_MULTIPOLES>  (1) 
131.19
2.33
1.38
1.04
0.75
0.46
-0.09
-0.92
-0.54
-0.03
0.02
0.03
-0.12
0.31

>  <PUBCHEM_SHAPE_SELFOVERLAP>  (1) 
231.824

>  <PUBCHEM_SHAPE_VOLUME>  (1) 
87.1

>  <PUBCHEM_COORDINATE_TYPE>  (1) 
2
5
10

$$$$
