5945
     RDKit          3D

 19 20  0  0  0  0  0  0  0  0999 V2000
   -1.5689   -1.8967    0.0187 Si  0  0  0  0  0  4  0  0  0  0  0  0
    1.5961   -1.8631   -0.1533 Si  0  0  0  0  0  4  0  0  0  0  0  0
   -0.0081   -2.1602   -0.5202 O   0  0  0  0  0  0  0  0  0  0  0  0
   -1.7817   -0.0121    0.0741 C   0  0  0  0  0  0  0  0  0  0  0  0
    1.7778    0.0249   -0.1183 C   0  0  0  0  0  0  0  0  0  0  0  0
   -1.8619   -2.6616    1.7042 C   0  0  0  0  0  0  0  0  0  0  0  0
   -2.8218   -2.6183   -1.1818 C   0  0  0  0  0  0  0  0  0  0  0  0
    2.0842   -2.6178    1.4920 C   0  0  0  0  0  0  0  0  0  0  0  0
    2.7265   -2.5694   -1.4784 C   0  0  0  0  0  0  0  0  0  0  0  0
   -1.4908    0.6548    1.2448 C   0  0  0  0  0  0  0  0  0  0  0  0
    2.2231    0.6280    1.0386 C   0  0  0  0  0  0  0  0  0  0  0  0
   -2.2208    0.6398   -1.0583 C   0  0  0  0  0  0  0  0  0  0  0  0
    1.4607    0.7437   -1.2511 C   0  0  0  0  0  0  0  0  0  0  0  0
   -1.6465    2.0405    1.2848 C   0  0  0  0  0  0  0  0  0  0  0  0
    2.3576    2.0161    1.0637 C   0  0  0  0  0  0  0  0  0  0  0  0
   -2.3761    2.0255   -1.0183 C   0  0  0  0  0  0  0  0  0  0  0  0
    1.5955    2.1318   -1.2259 C   0  0  0  0  0  0  0  0  0  0  0  0
   -2.0889    2.7258    0.1533 C   0  0  0  0  0  0  0  0  0  0  0  0
    2.0441    2.7681   -0.0685 C   0  0  0  0  0  0  0  0  0  0  0  0
  1  3  1  0
  1  4  1  0
  1  6  1  0
  1  7  1  0
  2  3  1  0
  2  5  1  0
  2  8  1  0
  2  9  1  0
  4 10  2  0
  4 12  1  0
  5 11  2  0
  5 13  1  0
 10 14  1  0
 11 15  1  0
 12 16  2  0
 13 17  2  0
 14 18  2  0
 15 19  2  0
 16 18  1  0
 17 19  1  0
M  END
>  <PUBCHEM_COMPOUND_CID>  (1) 
5945

>  <PUBCHEM_CONFORMER_RMSD>  (1) 
0.6

>  <PUBCHEM_CONFORMER_DIVERSEORDER>  (1) 
2
7
11
15
17
9
8
4
1
6
10
5
13
3
12
16
14

>  <PUBCHEM_MMFF94_PARTIAL_CHARGES>  (1) 
29
1 0.68
10 -0.15
11 -0.15
12 -0.15
13 -0.15
14 -0.15
15 -0.15
16 -0.15
17 -0.15
18 -0.15
19 -0.15
2 0.68
3 -0.59
32 0.15
33 0.15
34 0.15
35 0.15
36 0.15
37 0.15
38 0.15
39 0.15
4 -0.22
40 0.15
41 0.15
5 -0.22
6 -0.08
7 -0.08
8 -0.08
9 -0.08

>  <PUBCHEM_EFFECTIVE_ROTOR_COUNT>  (1) 
4

>  <PUBCHEM_PHARMACOPHORE_FEATURES>  (1) 
2
6 4 10 12 14 16 18 rings
6 5 11 13 15 17 19 rings

>  <PUBCHEM_HEAVY_ATOM_COUNT>  (1) 
19

>  <PUBCHEM_ATOM_DEF_STEREO_COUNT>  (1) 
0

>  <PUBCHEM_ATOM_UDEF_STEREO_COUNT>  (1) 
0

>  <PUBCHEM_BOND_DEF_STEREO_COUNT>  (1) 
0

>  <PUBCHEM_BOND_UDEF_STEREO_COUNT>  (1) 
0

>  <PUBCHEM_ISOTOPIC_ATOM_COUNT>  (1) 
0

>  <PUBCHEM_COMPONENT_COUNT>  (1) 
1

>  <PUBCHEM_CACTVS_TAUTO_COUNT>  (1) 
1

>  <PUBCHEM_CONFORMER_ID>  (1) 
0000173900000002

>  <PUBCHEM_MMFF94_ENERGY>  (1) 
31.1936

>  <PUBCHEM_FEATURE_SELFOVERLAP>  (1) 
10.149

>  <PUBCHEM_SHAPE_FINGERPRINT>  (1) 
12156800 1 15824014808321573599
12654903 92 18122622751872596409
128993 33 18266486293477700056
13132413 78 18339089181533462606
13140716 1 18265057027145469163
13544592 271 17904194081437383531
1420 336 18268706117407507711
14223421 5 18338802315776891126
14251751 93 18190762966944573668
14251757 17 17841189677559213396
14713325 29 16960185266976246924
16945 1 18410851062092206703
18219364 16 17829621556482647401
20600515 1 17976815381632971438
20715895 44 17972845221349209719
20905425 154 18341887549657232678
2334 1 17906177600054675647
23402539 116 17481143827260283044
23419403 2 16827200266797806379
23558518 356 18408599275432494171
238 59 18118960291979343309
2748010 2 18267026042038601570
2818148 4 17977709464341970478
3060560 45 17762880084032412461
350125 39 18339658792300716759
484985 159 15396349650556302613
589210 1 18410853261141972447
70251023 43 18341906215770568327
81228 2 18335990869292978217

>  <PUBCHEM_SHAPE_MULTIPOLES>  (1) 
421.57
4.49
4.45
1.63
0.04
0.08
0.17
0.17
-0.39
0
0.1
-0.05
0.39
0.17

>  <PUBCHEM_SHAPE_SELFOVERLAP>  (1) 
842.349

>  <PUBCHEM_SHAPE_VOLUME>  (1) 
249.3

>  <PUBCHEM_COORDINATE_TYPE>  (1) 
2
5
10

$$$$
