5964
     RDKit          3D

 11 11  0  0  0  0  0  0  0  0999 V2000
   -2.0458    0.0000    0.0963 N   0  0  0  0  0  0  0  0  0  0  0  0
   -1.0223   -0.0003   -1.0300 C   0  0  0  0  0  0  0  0  0  0  0  0
   -1.8560    1.2428    0.9540 C   0  0  0  0  0  0  0  0  0  0  0  0
   -3.4488    0.0000   -0.4934 C   0  0  0  0  0  0  0  0  0  0  0  0
   -1.8563   -1.2424    0.9546 C   0  0  0  0  0  0  0  0  0  0  0  0
    0.3945   -0.0003   -0.5368 C   0  0  0  0  0  0  0  0  0  0  0  0
    1.0448    1.2079   -0.3102 C   0  0  0  0  0  0  0  0  0  0  0  0
    1.0450   -1.2082   -0.3101 C   0  0  0  0  0  0  0  0  0  0  0  0
    2.3621    1.2081    0.1486 C   0  0  0  0  0  0  0  0  0  0  0  0
    2.3622   -1.2079    0.1488 C   0  0  0  0  0  0  0  0  0  0  0  0
    3.0207    0.0003    0.3781 C   0  0  0  0  0  0  0  0  0  0  0  0
  1  2  1  0
  1  3  1  0
  1  4  1  0
  1  5  1  0
  2  6  1  0
  6  7  2  0
  6  8  1  0
  7  9  1  0
  8 10  2  0
  9 11  2  0
 10 11  1  0
M  CHG  1   1   1
M  END
>  <PUBCHEM_COMPOUND_CID>  (1) 
5964

>  <PUBCHEM_CONFORMER_RMSD>  (1) 
0.4

>  <PUBCHEM_CONFORMER_DIVERSEORDER>  (1) 
1

>  <PUBCHEM_MMFF94_PARTIAL_CHARGES>  (1) 
16
1 -1.01
10 -0.15
11 -0.15
2 0.65
23 0.15
24 0.15
25 0.15
26 0.15
27 0.15
3 0.5
4 0.5
5 0.5
6 -0.14
7 -0.15
8 -0.15
9 -0.15

>  <PUBCHEM_EFFECTIVE_ROTOR_COUNT>  (1) 
2

>  <PUBCHEM_PHARMACOPHORE_FEATURES>  (1) 
2
1 1 cation
6 6 7 8 9 10 11 rings

>  <PUBCHEM_HEAVY_ATOM_COUNT>  (1) 
11

>  <PUBCHEM_ATOM_DEF_STEREO_COUNT>  (1) 
0

>  <PUBCHEM_ATOM_UDEF_STEREO_COUNT>  (1) 
0

>  <PUBCHEM_BOND_DEF_STEREO_COUNT>  (1) 
0

>  <PUBCHEM_BOND_UDEF_STEREO_COUNT>  (1) 
0

>  <PUBCHEM_ISOTOPIC_ATOM_COUNT>  (1) 
0

>  <PUBCHEM_COMPONENT_COUNT>  (1) 
1

>  <PUBCHEM_CACTVS_TAUTO_COUNT>  (1) 
1

>  <PUBCHEM_CONFORMER_ID>  (1) 
0000174C00000001

>  <PUBCHEM_MMFF94_ENERGY>  (1) 
37.7917

>  <PUBCHEM_FEATURE_SELFOVERLAP>  (1) 
10.148

>  <PUBCHEM_SHAPE_FINGERPRINT>  (1) 
10219947 1 18409727365809542180
10857977 72 17967529116397800006
12932764 1 16950279607095737102
14325111 11 18410571824793528829
15775835 57 17418373618546853960
16945 1 18410583880814123414
19973954 147 18412554201303526249
20201158 50 18333447629645932931
20279233 1 17748541545772572234
20281407 28 17313387794651528138
20871998 22 18055353527243609998
21028194 46 16559030476042007734
22802520 49 11671243885097915898
23402539 116 18114727301298424709
29004967 10 18260828181234987580
3248919 1 18408889541948744908
369184 2 18410292514833678689
5084963 1 18408037420437354988
57812782 119 18261104184386420399
8030462 33 18342748415679832628

>  <PUBCHEM_SHAPE_MULTIPOLES>  (1) 
221.39
4.85
1.44
0.96
1.01
0
-0.04
0
-0.41
-0.37
-0.23
0.42
0
0

>  <PUBCHEM_SHAPE_SELFOVERLAP>  (1) 
442.402

>  <PUBCHEM_SHAPE_VOLUME>  (1) 
132.9

>  <PUBCHEM_COORDINATE_TYPE>  (1) 
2
5
10

$$$$
