5969
     RDKit          3D

 21 22  0  0  0  0  0  0  0  0999 V2000
   -7.5077   -2.4582    0.3021 O   0  0  0  0  0  0  0  0  0  0  0  0
    7.5063   -2.4580   -0.3020 O   0  0  0  0  0  0  0  0  0  0  0  0
   -2.4289    1.2361   -0.1578 N   0  0  0  0  0  0  0  0  0  0  0  0
    2.4425    1.2251    0.1584 N   0  0  0  0  0  0  0  0  0  0  0  0
   -6.4374   -1.6510    0.6964 N   0  0  0  0  0  0  0  0  0  0  0  0
    6.4359   -1.6511   -0.6963 N   0  0  0  0  0  0  0  0  0  0  0  0
   -0.0007    1.2368    0.0001 C   0  0  0  0  0  0  0  0  0  0  0  0
   -1.2531    2.0991   -0.0872 C   0  0  0  0  0  0  0  0  0  0  0  0
    1.2516    2.0992    0.0869 C   0  0  0  0  0  0  0  0  0  0  0  0
   -2.8729    0.8462   -1.3604 C   0  0  0  0  0  0  0  0  0  0  0  0
    2.8716    0.8469    1.3603 C   0  0  0  0  0  0  0  0  0  0  0  0
   -3.0250    0.8621    0.9826 C   0  0  0  0  0  0  0  0  0  0  0  0
    3.0233    0.8618   -0.9828 C   0  0  0  0  0  0  0  0  0  0  0  0
   -3.9878    0.0260   -1.4579 C   0  0  0  0  0  0  0  0  0  0  0  0
    3.9866    0.0266    1.4578 C   0  0  0  0  0  0  0  0  0  0  0  0
   -4.1440    0.0424    0.9460 C   0  0  0  0  0  0  0  0  0  0  0  0
    4.1424    0.0423   -0.9462 C   0  0  0  0  0  0  0  0  0  0  0  0
   -4.6270   -0.3778   -0.2896 C   0  0  0  0  0  0  0  0  0  0  0  0
    4.6257   -0.3775    0.2896 C   0  0  0  0  0  0  0  0  0  0  0  0
   -5.7966   -1.2387   -0.3601 C   0  0  0  0  0  0  0  0  0  0  0  0
    5.7953   -1.2384    0.3602 C   0  0  0  0  0  0  0  0  0  0  0  0
  1  5  1  0
  2  6  1  0
  3  8  1  0
  3 10  2  0
  3 12  1  0
  4  9  1  0
  4 11  2  0
  4 13  1  0
  5 20  2  0
  6 21  2  0
  7  8  1  0
  7  9  1  0
 10 14  1  0
 11 15  1  0
 12 16  2  0
 13 17  2  0
 14 18  2  0
 15 19  2  0
 16 18  1  0
 17 19  1  0
 18 20  1  0
 19 21  1  0
M  CHG  2   3   1   4   1
M  END
>  <PUBCHEM_COMPOUND_CID>  (1) 
5969

>  <PUBCHEM_CONFORMER_RMSD>  (1) 
0.8

>  <PUBCHEM_CONFORMER_DIVERSEORDER>  (1) 
1
4
5
6
7
2
8
10
3
9

>  <PUBCHEM_MMFF94_PARTIAL_CHARGES>  (1) 
32
1 -0.34
10 0.21
11 0.21
12 0.21
13 0.21
14 -0.15
15 -0.15
16 -0.15
17 -0.15
18 0.09
19 0.09
2 -0.34
20 0.3
21 0.3
28 0.15
29 0.15
3 -0.21
30 0.15
31 0.15
32 0.15
33 0.15
34 0.15
35 0.15
36 0.06
37 0.06
38 0.4
39 0.4
4 -0.21
5 -0.51
6 -0.51
8 0.49
9 0.49

>  <PUBCHEM_EFFECTIVE_ROTOR_COUNT>  (1) 
6

>  <PUBCHEM_PHARMACOPHORE_FEATURES>  (1) 
6
1 1 anion
1 2 anion
1 5 acceptor
1 6 acceptor
6 3 10 12 14 16 18 rings
6 4 11 13 15 17 19 rings

>  <PUBCHEM_HEAVY_ATOM_COUNT>  (1) 
21

>  <PUBCHEM_ATOM_DEF_STEREO_COUNT>  (1) 
0

>  <PUBCHEM_ATOM_UDEF_STEREO_COUNT>  (1) 
0

>  <PUBCHEM_BOND_DEF_STEREO_COUNT>  (1) 
0

>  <PUBCHEM_BOND_UDEF_STEREO_COUNT>  (1) 
2

>  <PUBCHEM_ISOTOPIC_ATOM_COUNT>  (1) 
0

>  <PUBCHEM_COMPONENT_COUNT>  (1) 
1

>  <PUBCHEM_CACTVS_TAUTO_COUNT>  (1) 
3

>  <PUBCHEM_CONFORMER_ID>  (1) 
0000175100000001

>  <PUBCHEM_MMFF94_ENERGY>  (1) 
51.8662

>  <PUBCHEM_FEATURE_SELFOVERLAP>  (1) 
30.446

>  <PUBCHEM_SHAPE_FINGERPRINT>  (1) 
10498660 4 11458423526843514301
10693767 8 17386561333769910458
10740516 88 17986970552991037238
11545043 162 18059285457954593864
11796584 16 18053099515769212724
12166972 35 18040156231567968908
12403259 118 12391217362051744233
12596602 18 17846777403856396520
12778500 126 11095888134450587846
13533116 47 18269555112589239257
13668630 136 18260547826896841387
13685833 64 18412544322942016496
13955234 65 18057032722001932448
14123256 34 18408887338651796507
1420 369 18411978070201169857
14251764 30 18410856559639809063
14341114 328 14979950419293329320
14428016 167 18341044207671458095
14849402 71 16127792189697844496
14931854 50 17385719179806404275
15183329 4 15646766773693005288
15188451 53 17775278379084712245
15238133 3 12535339139071194848
15575132 122 12180384848475688063
17780758 139 17346314851988440944
17870717 6 17385722487458514905
193927 3 18410292510175240680
19784866 240 18333733550705118165
20281389 69 9799686009136317740
20526848 3 9295288343659369866
20567600 247 18188490164915079130
20621476 21 18261395598192228627
21033648 29 11383833800508074537
21095086 4 18410580586517062051
21307412 95 17676489510435714899
21585483 132 17461146661901077514
22765269 38 8790887384522417033
23402655 69 14273739512974929292
23522609 53 18122380996691291812
23559900 14 16660929988184458837
3004659 81 17821725048254711696
3472631 163 8142083165142065529
351380 3 18410572885639894821
465052 167 18340771528153889997
5104073 3 15697421360194262243
559249 180 18343019961488791757
5718773 13 18411136935105320674
5924683 9 14763766642580421621
59682541 52 13840529745139261696
636775 8 18200039431201499766
7970288 3 18410855460128642502
960060 61 16081080480919617952

>  <PUBCHEM_SHAPE_MULTIPOLES>  (1) 
400.51
19.42
2.21
1.26
0.02
0.64
0
19.57
0
0
0
0
-0.12
0.97

>  <PUBCHEM_SHAPE_SELFOVERLAP>  (1) 
839.21

>  <PUBCHEM_SHAPE_VOLUME>  (1) 
227.1

>  <PUBCHEM_COORDINATE_TYPE>  (1) 
2
5
10

$$$$
