5980
     RDKit          3D

 21 25  0  0  1  0  0  0  0  0999 V2000
    1.8309    1.0045    1.1758 O   0  0  0  0  0  0  0  0  0  0  0  0
    2.0967    2.9507   -0.6073 O   0  0  0  0  0  0  0  0  0  0  0  0
    4.0451   -0.8137    0.7378 O   0  0  0  0  0  0  0  0  0  0  0  0
   -3.3062   -0.7374    0.4473 N   0  0  0  0  0  0  0  0  0  0  0  0
   -0.5073    0.5735    0.6660 C   0  0  0  0  0  0  0  0  0  0  0  0
   -1.4701    0.6530   -0.5079 C   0  0  0  0  0  0  0  0  0  0  0  0
   -2.1088   -0.7863   -0.3947 C   0  0  0  0  0  0  0  0  0  0  0  0
    0.5687    1.6658    0.8157 C   0  0  0  0  0  0  0  0  0  0  0  0
   -1.4015    0.3301    1.9524 C   0  0  0  0  0  0  0  0  0  0  0  0
    0.4425   -0.5684    0.2754 C   0  0  0  0  0  0  0  0  0  0  0  0
   -1.2688   -1.8433   -1.1424 C   0  0  0  0  0  0  0  0  0  0  0  0
   -2.9733    0.1399    1.6352 C   0  0  0  0  0  0  0  0  0  0  0  0
    0.1569   -1.6816   -0.5596 C   0  0  0  0  0  0  0  0  0  0  0  0
    0.7402    2.5422   -0.4572 C   0  0  0  0  0  0  0  0  0  0  0  0
   -0.7974    1.0873   -1.7842 C   0  0  0  0  0  0  0  0  0  0  0  0
    1.7280   -0.2533    0.6451 C   0  0  0  0  0  0  0  0  0  0  0  0
    0.2318    1.9493   -1.7488 C   0  0  0  0  0  0  0  0  0  0  0  0
   -4.4893   -0.2923   -0.2702 C   0  0  0  0  0  0  0  0  0  0  0  0
    1.2063   -2.5457   -0.8619 C   0  0  0  0  0  0  0  0  0  0  0  0
    2.7743   -1.1069    0.3633 C   0  0  0  0  0  0  0  0  0  0  0  0
    2.5011   -2.2673   -0.3798 C   0  0  0  0  0  0  0  0  0  0  0  0
  1  8  1  0
  1 16  1  0
  2 14  1  0
  3 20  1  0
  4  7  1  0
  4 12  1  0
  4 18  1  0
  5  6  1  0
  5  8  1  0
  5  9  1  0
  5 10  1  0
  6  7  1  0
  6 15  1  0
  7 11  1  0
  8 14  1  0
  9 12  1  0
 10 13  2  0
 10 16  1  0
 11 13  1  0
 13 19  1  0
 14 17  1  0
 15 17  2  0
 16 20  2  0
 19 21  2  0
 20 21  1  0
M  END
>  <PUBCHEM_COMPOUND_CID>  (1) 
5980

>  <PUBCHEM_CONFORMER_RMSD>  (1) 
0.6

>  <PUBCHEM_CONFORMER_DIVERSEORDER>  (1) 
1

>  <PUBCHEM_MMFF94_PARTIAL_CHARGES>  (1) 
26
1 -0.36
10 -0.14
11 0.14
12 0.27
13 -0.14
14 0.42
15 -0.29
16 0.08
17 -0.29
18 0.27
19 -0.15
2 -0.68
20 0.08
21 -0.15
3 -0.53
32 0.15
33 0.15
37 0.15
38 0.15
39 0.4
4 -0.81
40 0.45
5 0.14
6 0.14
7 0.27
8 0.28

>  <PUBCHEM_EFFECTIVE_ROTOR_COUNT>  (1) 
1.2

>  <PUBCHEM_PHARMACOPHORE_FEATURES>  (1) 
10
1 1 acceptor
1 2 acceptor
1 2 donor
1 3 donor
1 4 cation
5 1 5 8 10 16 rings
6 10 13 16 19 20 21 rings
6 4 5 6 7 9 12 rings
6 5 6 7 10 11 13 rings
6 5 6 8 14 15 17 rings

>  <PUBCHEM_HEAVY_ATOM_COUNT>  (1) 
21

>  <PUBCHEM_ATOM_DEF_STEREO_COUNT>  (1) 
5

>  <PUBCHEM_ATOM_UDEF_STEREO_COUNT>  (1) 
0

>  <PUBCHEM_BOND_DEF_STEREO_COUNT>  (1) 
0

>  <PUBCHEM_BOND_UDEF_STEREO_COUNT>  (1) 
0

>  <PUBCHEM_ISOTOPIC_ATOM_COUNT>  (1) 
0

>  <PUBCHEM_COMPONENT_COUNT>  (1) 
1

>  <PUBCHEM_CACTVS_TAUTO_COUNT>  (1) 
3

>  <PUBCHEM_CONFORMER_ID>  (1) 
0000175C00000001

>  <PUBCHEM_MMFF94_ENERGY>  (1) 
136.662

>  <PUBCHEM_FEATURE_SELFOVERLAP>  (1) 
52.206

>  <PUBCHEM_SHAPE_FINGERPRINT>  (1) 
10863032 1 18120655987864151503
10948715 1 17905335374290614021
12011746 2 18201440233655954935
12035758 1 18118959192409881513
12403814 3 18335411340554998994
12423570 1 10325324198419319525
12592029 89 17827373381299554669
13132413 78 17845938433381885641
13140716 1 18199737219014836282
13172582 1 18412819200912465322
13681431 1 18042427801195232157
141345 1 11310344479127020429
14142880 1 18055344743702842632
14181834 199 18335994158905624197
144361 1 17684621591900185004
14817 1 8994430467410150644
14955137 171 18198932320831973834
15375462 478 17132110208989749411
15881359 60 18125125343364024986
16945 1 18201145607478678251
17357779 13 18265598910664098973
1813 80 18264224533624254150
19868273 325 18189900816140857846
20600515 1 17459773448300080639
21330990 113 17618518583787687037
22182313 1 18192687034883647020
2334 1 17910664694202264638
23419403 2 17983827061313461865
23557571 272 18043813078867647222
2748010 2 17982724173925865086
576247 118 17969805006609163169
5845 1 12563167292432434205
7364860 26 18337394953830993861
81228 2 17610076567526443977
84936 31 18337118980596522284

>  <PUBCHEM_SHAPE_MULTIPOLES>  (1) 
409.58
4.88
2.76
1.58
1.87
0.8
-0.04
-2.02
-1.2
-1.89
1.16
0.53
0.48
-0.1

>  <PUBCHEM_SHAPE_SELFOVERLAP>  (1) 
923.447

>  <PUBCHEM_SHAPE_VOLUME>  (1) 
213.8

>  <PUBCHEM_COORDINATE_TYPE>  (1) 
2
5
10

$$$$
