6005
     RDKit          3D

 20 23  0  0  1  0  0  0  0  0999 V2000
    2.7577   -1.8892    0.5407 O   0  0  0  0  0  0  0  0  0  0  0  0
    4.8778   -0.2391    0.4097 O   0  0  0  0  0  0  0  0  0  0  0  0
   -2.7275    1.6804   -0.0774 N   0  0  0  0  0  0  0  0  0  0  0  0
   -1.3737    1.1473    0.2256 C   0  0  0  0  0  0  0  0  0  0  0  0
   -1.2651   -0.3657    0.0082 C   0  0  0  0  0  0  0  0  0  0  0  0
   -0.2863    1.8505   -0.6184 C   0  0  0  0  0  0  0  0  0  0  0  0
   -2.4274   -1.1613   -0.0121 C   0  0  0  0  0  0  0  0  0  0  0  0
   -3.7467    0.8881    0.6293 C   0  0  0  0  0  0  0  0  0  0  0  0
   -3.7897   -0.5308    0.0701 C   0  0  0  0  0  0  0  0  0  0  0  0
    0.0162   -0.9626   -0.1079 C   0  0  0  0  0  0  0  0  0  0  0  0
    1.0853    1.2772   -0.3404 C   0  0  0  0  0  0  0  0  0  0  0  0
    1.2238   -0.1054   -0.0907 C   0  0  0  0  0  0  0  0  0  0  0  0
   -2.8681    3.0896    0.3047 C   0  0  0  0  0  0  0  0  0  0  0  0
   -2.3218   -2.5455   -0.1778 C   0  0  0  0  0  0  0  0  0  0  0  0
    0.0823   -2.3582   -0.2706 C   0  0  0  0  0  0  0  0  0  0  0  0
    2.2101    2.1156   -0.3745 C   0  0  0  0  0  0  0  0  0  0  0  0
    2.5161   -0.5971    0.1660 C   0  0  0  0  0  0  0  0  0  0  0  0
   -1.0726   -3.1405   -0.3032 C   0  0  0  0  0  0  0  0  0  0  0  0
    3.6308    0.2464    0.1472 C   0  0  0  0  0  0  0  0  0  0  0  0
    3.4789    1.6002   -0.1286 C   0  0  0  0  0  0  0  0  0  0  0  0
  1 17  1  0
  2 19  1  0
  3  4  1  0
  3  8  1  0
  3 13  1  0
  4  5  1  0
  4  6  1  0
  5  7  2  0
  5 10  1  0
  6 11  1  0
  7  9  1  0
  7 14  1  0
  8  9  1  0
 10 12  1  0
 10 15  2  0
 11 12  2  0
 11 16  1  0
 12 17  1  0
 14 18  2  0
 15 18  1  0
 16 20  2  0
 17 19  2  0
 19 20  1  0
M  END
>  <PUBCHEM_COMPOUND_CID>  (1) 
6005

>  <PUBCHEM_CONFORMER_RMSD>  (1) 
0.6

>  <PUBCHEM_CONFORMER_DIVERSEORDER>  (1) 
1

>  <PUBCHEM_MMFF94_PARTIAL_CHARGES>  (1) 
25
1 -0.53
11 -0.14
13 0.27
14 -0.15
15 -0.15
16 -0.15
17 0.08
18 -0.15
19 0.08
2 -0.53
20 -0.15
3 -0.81
31 0.15
32 0.15
33 0.15
34 0.15
35 0.15
36 0.45
37 0.45
4 0.41
5 -0.14
6 0.14
7 -0.14
8 0.27
9 0.14

>  <PUBCHEM_EFFECTIVE_ROTOR_COUNT>  (1) 
0.8

>  <PUBCHEM_PHARMACOPHORE_FEATURES>  (1) 
7
1 1 donor
1 2 donor
1 3 cation
6 11 12 16 17 19 20 rings
6 3 4 5 7 8 9 rings
6 4 5 6 10 11 12 rings
6 5 7 10 14 15 18 rings

>  <PUBCHEM_HEAVY_ATOM_COUNT>  (1) 
20

>  <PUBCHEM_ATOM_DEF_STEREO_COUNT>  (1) 
1

>  <PUBCHEM_ATOM_UDEF_STEREO_COUNT>  (1) 
0

>  <PUBCHEM_BOND_DEF_STEREO_COUNT>  (1) 
0

>  <PUBCHEM_BOND_UDEF_STEREO_COUNT>  (1) 
0

>  <PUBCHEM_ISOTOPIC_ATOM_COUNT>  (1) 
0

>  <PUBCHEM_COMPONENT_COUNT>  (1) 
1

>  <PUBCHEM_CACTVS_TAUTO_COUNT>  (1) 
18

>  <PUBCHEM_CONFORMER_ID>  (1) 
0000177500000001

>  <PUBCHEM_MMFF94_ENERGY>  (1) 
65.2339

>  <PUBCHEM_FEATURE_SELFOVERLAP>  (1) 
35.616

>  <PUBCHEM_SHAPE_FINGERPRINT>  (1) 
10319926 262 18199445802222453664
10411042 1 17691124159670992318
10493431 412 18341335479140873657
10616163 171 18339083816718642966
10967382 1 18410293596833153935
11132069 177 18411415120358290976
11370993 70 18339919299579709513
11578080 2 17201349930513444219
12173636 292 18413103970223972789
12251169 10 18409167705595464576
12390115 104 18200892672475689024
12403260 363 18339069394371209831
12553582 1 17834962249267348455
13140716 1 18193561296576973147
13544592 145 18057897853074263150
13583140 156 17240478083523726233
138480 1 17186160864913473999
14081887 123 18055620961565833992
14178342 30 18265880510400589386
14223421 5 18269556220410895112
14790565 3 17835255445790377052
15042514 8 18266182906010660811
15196674 1 18337954613749503246
15256400 18 18411983520683148666
15309172 13 18410299073106516393
15442244 35 18409445903844489730
15536298 74 18341051921294707348
16110190 28 18192132812752489666
16752209 62 18412537734477989135
16945 1 18338797952005410623
17492 89 18337391664097717346
17804303 29 18341336681684048636
1813 80 17168144491141029350
19591789 44 18050290262990838222
20261772 1 18338530740894710627
20510252 161 18272938215141060257
20739085 24 17760110426879734656
20775438 99 16042479114988004191
21267235 1 18337117864000217474
21501502 16 18265052607967149084
21524375 3 18334860480839395065
21731228 192 18339934705669150331
23184049 29 18195812001078824996
23184049 59 18335143042215984747
2334 1 18410295813136654917
23402539 116 18200588215846103551
23463225 33 18407760330674936092
23559900 14 18201157754405989608
238 59 17104771797268825005
25147074 1 18114460184687937252
2748010 2 17328582826235345799
3091708 16 8982702698710478041
335352 9 18410292501880328902
34934 24 18263637518989879802
350125 39 18410296904169377657
352729 6 18411989087061023671
5104073 3 18337952415153510008
54173680 148 18194122047517727119
58807428 26 18266465317136715891
6438718 38 17845660377462977743
69090 78 18411135848789408945
6992083 37 18260553337445507453
7064713 232 18342453699408788432
7097593 13 18189039937634581650
7364860 26 17908708323998559607
7471813 234 17481128425296985599
7832392 63 18410574007037770272
90525 40 18411982455526179487
9709674 26 18342745147505353526
9862522 239 18191009132599615021

>  <PUBCHEM_SHAPE_MULTIPOLES>  (1) 
394.87
6.85
3.38
0.7
3.62
0.4
0.01
-1.4
-1.07
-2.04
0.21
0
-0.04
-0.64

>  <PUBCHEM_SHAPE_SELFOVERLAP>  (1) 
883.324

>  <PUBCHEM_SHAPE_VOLUME>  (1) 
208.2

>  <PUBCHEM_COORDINATE_TYPE>  (1) 
2
5
10

$$$$
