6008
     RDKit          3D

 23 24  0  0  0  0  0  0  0  0999 V2000
    1.0859    0.6438   -0.0915 S   0  0  0  0  0  0  0  0  0  0  0  0
    0.1458   -1.7675    0.3125 O   0  0  0  0  0  0  0  0  0  0  0  0
    5.0219   -0.3208    0.2025 N   0  0  0  0  0  0  0  0  0  0  0  0
   -1.5034   -0.1361   -0.0113 N   0  0  0  0  0  0  0  0  0  0  0  0
    3.8274    0.4959   -0.0099 C   0  0  0  0  0  0  0  0  0  0  0  0
    5.0520   -1.4376   -0.7411 C   0  0  0  0  0  0  0  0  0  0  0  0
    6.2288    0.4943    0.0684 C   0  0  0  0  0  0  0  0  0  0  0  0
    2.5783   -0.3579    0.1699 C   0  0  0  0  0  0  0  0  0  0  0  0
    6.2552   -2.3321   -0.4949 C   0  0  0  0  0  0  0  0  0  0  0  0
    6.2146    1.6605    1.0421 C   0  0  0  0  0  0  0  0  0  0  0  0
   -0.1729   -0.5946    0.1296 C   0  0  0  0  0  0  0  0  0  0  0  0
   -1.8463    1.2553   -0.1181 C   0  0  0  0  0  0  0  0  0  0  0  0
   -2.5962   -1.0807    0.0581 C   0  0  0  0  0  0  0  0  0  0  0  0
   -2.0054    1.9818    1.0378 C   0  0  0  0  0  0  0  0  0  0  0  0
   -3.7713   -0.6688    0.6300 C   0  0  0  0  0  0  0  0  0  0  0  0
   -1.9995    1.7988   -1.3712 C   0  0  0  0  0  0  0  0  0  0  0  0
   -2.3988   -2.3369   -0.4521 C   0  0  0  0  0  0  0  0  0  0  0  0
   -2.3379    3.3325    0.9346 C   0  0  0  0  0  0  0  0  0  0  0  0
   -4.8256   -1.5795    0.6968 C   0  0  0  0  0  0  0  0  0  0  0  0
   -2.3319    3.1496   -1.4745 C   0  0  0  0  0  0  0  0  0  0  0  0
   -3.4532   -3.2476   -0.3853 C   0  0  0  0  0  0  0  0  0  0  0  0
   -2.5010    3.9164   -0.3215 C   0  0  0  0  0  0  0  0  0  0  0  0
   -4.6667   -2.8688    0.1891 C   0  0  0  0  0  0  0  0  0  0  0  0
  1  8  1  0
  1 11  1  0
  2 11  2  0
  3  5  1  0
  3  6  1  0
  3  7  1  0
  4 11  1  0
  4 12  1  0
  4 13  1  0
  5  8  1  0
  6  9  1  0
  7 10  1  0
 12 14  2  0
 12 16  1  0
 13 15  2  0
 13 17  1  0
 14 18  1  0
 15 19  1  0
 16 20  2  0
 17 21  2  0
 18 22  2  0
 19 23  2  0
 20 22  1  0
 21 23  1  0
M  END
>  <PUBCHEM_COMPOUND_CID>  (1) 
6008

>  <PUBCHEM_CONFORMER_RMSD>  (1) 
1

>  <PUBCHEM_CONFORMER_DIVERSEORDER>  (1) 
1
48
6
44
17
19
53
12
42
22
5
65
30
16
39
34
2
25
23
46
45
43
59
51
63
21
7
58
20
10
11
54
4
57
35
60
24
8
37
50
3
52
15
33
28
41
14
29
47
62
31
61
18
56
9
32
55
13
64
38
36
26
27
49
40

>  <PUBCHEM_MMFF94_PARTIAL_CHARGES>  (1) 
31
1 -0.37
11 0.77
12 0.12
13 0.12
14 -0.15
15 -0.15
16 -0.15
17 -0.15
18 -0.15
19 -0.15
2 -0.57
20 -0.15
21 -0.15
22 -0.15
23 -0.15
3 -0.81
38 0.15
39 0.15
4 -0.29
40 0.15
41 0.15
42 0.15
43 0.15
44 0.15
45 0.15
46 0.15
47 0.15
5 0.27
6 0.27
7 0.27
8 0.23

>  <PUBCHEM_EFFECTIVE_ROTOR_COUNT>  (1) 
9

>  <PUBCHEM_PHARMACOPHORE_FEATURES>  (1) 
3
1 3 cation
6 12 14 16 18 20 22 rings
6 13 15 17 19 21 23 rings

>  <PUBCHEM_HEAVY_ATOM_COUNT>  (1) 
23

>  <PUBCHEM_ATOM_DEF_STEREO_COUNT>  (1) 
0

>  <PUBCHEM_ATOM_UDEF_STEREO_COUNT>  (1) 
0

>  <PUBCHEM_BOND_DEF_STEREO_COUNT>  (1) 
0

>  <PUBCHEM_BOND_UDEF_STEREO_COUNT>  (1) 
0

>  <PUBCHEM_ISOTOPIC_ATOM_COUNT>  (1) 
0

>  <PUBCHEM_COMPONENT_COUNT>  (1) 
1

>  <PUBCHEM_CACTVS_TAUTO_COUNT>  (1) 
1

>  <PUBCHEM_CONFORMER_ID>  (1) 
0000177800000001

>  <PUBCHEM_MMFF94_ENERGY>  (1) 
95.902

>  <PUBCHEM_FEATURE_SELFOVERLAP>  (1) 
15.223

>  <PUBCHEM_SHAPE_FINGERPRINT>  (1) 
10411042 1 18193839469309564275
10764073 3 17703525337146897849
11045515 52 18188768495753864429
11056379 131 18408888408125137390
11101153 10 18116721901265001020
11405975 8 18339640015621375738
11545043 162 18342454795379569338
11809386 21 18260544485892677746
12107183 9 17831010235716622170
12403259 226 18341610460074187728
13073987 5 18408599246106390090
13257819 101 14188478975015911843
14251751 93 18408884001778614778
14347332 77 18409167723091935974
14508225 48 18338786944584746445
14713325 29 18340491062642030793
14955137 171 18191883429655226923
15042514 8 18410299125110217571
15131766 46 15552169333030134584
15230672 131 17903927652254000262
16087824 20 18336543825781252565
17844677 252 18411424995142076232
1813 80 18194418890314587263
21236236 1 18410575059088590384
21304253 13 18270967959603824193
2132832 1 17894915186841243012
21426921 1 18409446972853548548
2297311 6 18340777025859825566
23402539 116 18337669823274727255
23559900 14 18340476859085391473
283562 15 18334290981082349427
350125 39 18410578409174111608
4214541 1 18411702041775428588
4409770 3 18335412444946988005
497634 4 17988373627893810672
5104073 3 18341889650803290306
59755656 520 18194683661963354813
7399639 24 18057311998054866880

>  <PUBCHEM_SHAPE_MULTIPOLES>  (1) 
461.35
13.9
4.51
1.03
28.8
2.06
-0.13
-6.52
1.26
-6.26
-0.58
-0.31
0.62
1.5

>  <PUBCHEM_SHAPE_SELFOVERLAP>  (1) 
945.018

>  <PUBCHEM_SHAPE_VOLUME>  (1) 
268.1

>  <PUBCHEM_COORDINATE_TYPE>  (1) 
2
5
10

$$$$
