601
     RDKit          3D

 11 10  0  0  1  0  0  0  0  0999 V2000
   -1.3544    1.2495    1.0222 O   0  0  0  0  0  0  0  0  0  0  0  0
    3.3046   -0.2556    0.9831 O   0  0  0  0  0  0  0  0  0  0  0  0
    2.4185   -1.4231   -0.7530 O   0  0  0  0  0  0  0  0  0  0  0  0
    0.0376   -0.0318   -0.3209 N   0  0  0  0  0  0  0  0  0  0  0  0
   -3.5262    0.4033   -0.4517 N   0  0  0  0  0  0  0  0  0  0  0  0
    1.2836    0.5737    0.0886 C   0  0  0  0  0  0  0  0  0  0  0  0
   -2.3405   -0.4483   -0.4029 C   0  0  0  0  0  0  0  0  0  0  0  0
   -1.1931    0.3621    0.1869 C   0  0  0  0  0  0  0  0  0  0  0  0
    1.6179    1.7370   -0.8351 C   0  0  0  0  0  0  0  0  0  0  0  0
   -2.6110   -1.6803    0.4518 C   0  0  0  0  0  0  0  0  0  0  0  0
    2.3628   -0.4864    0.0309 C   0  0  0  0  0  0  0  0  0  0  0  0
  1  8  2  0
  2 11  1  0
  3 11  2  0
  4  6  1  0
  4  8  1  0
  5  7  1  0
  6  9  1  0
  6 11  1  0
  7  8  1  0
  7 10  1  0
M  END
>  <PUBCHEM_COMPOUND_CID>  (1) 
601

>  <PUBCHEM_CONFORMER_RMSD>  (1) 
0.6

>  <PUBCHEM_CONFORMER_DIVERSEORDER>  (1) 
8
44
41
48
27
55
35
45
50
54
1
12
13
21
49
53
58
52
3
17
37
47
51
40
36
42
34
22
24
14
11
9
18
26
43
25
39
7
31
5
33
30
56
6
28
19
46
10
29
15
32
38
2
20
57
23
4
16

>  <PUBCHEM_MMFF94_PARTIAL_CHARGES>  (1) 
13
1 -0.57
11 0.66
14 0.37
2 -0.65
21 0.36
22 0.36
23 0.5
3 -0.57
4 -0.73
5 -0.99
6 0.36
7 0.33
8 0.57

>  <PUBCHEM_EFFECTIVE_ROTOR_COUNT>  (1) 
4

>  <PUBCHEM_PHARMACOPHORE_FEATURES>  (1) 
7
1 1 acceptor
1 2 acceptor
1 3 acceptor
1 4 donor
1 5 cation
1 5 donor
3 2 3 11 anion

>  <PUBCHEM_HEAVY_ATOM_COUNT>  (1) 
11

>  <PUBCHEM_ATOM_DEF_STEREO_COUNT>  (1) 
0

>  <PUBCHEM_ATOM_UDEF_STEREO_COUNT>  (1) 
2

>  <PUBCHEM_BOND_DEF_STEREO_COUNT>  (1) 
0

>  <PUBCHEM_BOND_UDEF_STEREO_COUNT>  (1) 
0

>  <PUBCHEM_ISOTOPIC_ATOM_COUNT>  (1) 
0

>  <PUBCHEM_COMPONENT_COUNT>  (1) 
1

>  <PUBCHEM_CACTVS_TAUTO_COUNT>  (1) 
2

>  <PUBCHEM_CONFORMER_ID>  (1) 
0000025900000008

>  <PUBCHEM_MMFF94_ENERGY>  (1) 
12.3022

>  <PUBCHEM_FEATURE_SELFOVERLAP>  (1) 
35.578

>  <PUBCHEM_SHAPE_FINGERPRINT>  (1) 
10130415 120 18413388743962316113
11062470 55 17703782613807882985
12932741 1 16443638994091572785
12932764 1 17095235934646928853
14325111 11 18261110832937778885
15775835 57 17385722491204986090
20201158 50 18411415111668441351
20653085 51 17676489441220073309
20653091 64 18334018328163441928
23552423 10 18334016128876331695
3248919 1 18341898497628765341
369184 2 16773793671511708763
8030462 33 18060430113550685364
9939556 21 18186801409084789173

>  <PUBCHEM_SHAPE_MULTIPOLES>  (1) 
198.8
5.37
1.55
0.9
0.9
0
-0.08
-1.31
-0.04
-0.14
0.12
-0.19
0.07
-0.07

>  <PUBCHEM_SHAPE_SELFOVERLAP>  (1) 
377.833

>  <PUBCHEM_SHAPE_VOLUME>  (1) 
122.8

>  <PUBCHEM_COORDINATE_TYPE>  (1) 
2
5
10

$$$$
