6022
     RDKit          2D

 27 29  0  0  1  0  0  0  0  0999 V2000
    0.0000    0.0000    0.0000 P   0  0  0  0  0  0  0  0  0  0  0  0
    0.0000    0.0000    0.0000 P   0  0  0  0  0  0  0  0  0  0  0  0
    0.0000    0.0000    0.0000 O   0  0  0  0  0  0  0  0  0  0  0  0
    0.0000    0.0000    0.0000 O   0  0  0  0  0  0  0  0  0  0  0  0
    0.0000    0.0000    0.0000 O   0  0  0  0  0  0  0  0  0  0  0  0
    0.0000    0.0000    0.0000 O   0  0  0  0  0  0  0  0  0  0  0  0
    0.0000    0.0000    0.0000 O   0  0  0  0  0  0  0  0  0  0  0  0
    0.0000    0.0000    0.0000 O   0  0  0  0  0  0  0  0  0  0  0  0
    0.0000    0.0000    0.0000 O   0  0  0  0  0  0  0  0  0  0  0  0
    0.0000    0.0000    0.0000 O   0  0  0  0  0  0  0  0  0  0  0  0
    0.0000    0.0000    0.0000 O   0  0  0  0  0  0  0  0  0  0  0  0
    0.0000    0.0000    0.0000 O   0  0  0  0  0  0  0  0  0  0  0  0
    0.0000    0.0000    0.0000 N   0  0  0  0  0  0  0  0  0  0  0  0
    0.0000    0.0000    0.0000 N   0  0  0  0  0  0  0  0  0  0  0  0
    0.0000    0.0000    0.0000 N   0  0  0  0  0  0  0  0  0  0  0  0
    0.0000    0.0000    0.0000 N   0  0  0  0  0  0  0  0  0  0  0  0
    0.0000    0.0000    0.0000 N   0  0  0  0  0  0  0  0  0  0  0  0
    0.0000    0.0000    0.0000 C   0  0  0  0  0  0  0  0  0  0  0  0
    0.0000    0.0000    0.0000 C   0  0  0  0  0  0  0  0  0  0  0  0
    0.0000    0.0000    0.0000 C   0  0  0  0  0  0  0  0  0  0  0  0
    0.0000    0.0000    0.0000 C   0  0  0  0  0  0  0  0  0  0  0  0
    0.0000    0.0000    0.0000 C   0  0  0  0  0  0  0  0  0  0  0  0
    0.0000    0.0000    0.0000 C   0  0  0  0  0  0  0  0  0  0  0  0
    0.0000    0.0000    0.0000 C   0  0  0  0  0  0  0  0  0  0  0  0
    0.0000    0.0000    0.0000 C   0  0  0  0  0  0  0  0  0  0  0  0
    0.0000    0.0000    0.0000 C   0  0  0  0  0  0  0  0  0  0  0  0
    0.0000    0.0000    0.0000 C   0  0  0  0  0  0  0  0  0  0  0  0
  1  6  1  0
  1  7  1  0
  1  8  1  0
  1  9  2  0
  2  7  1  0
  2 10  1  0
  2 11  1  0
  2 12  2  0
  3 20  1  0
  3 21  1  0
  4 18  1  0
  5 19  1  0
  6 22  1  0
 13 20  1  0
 13 23  1  0
 13 24  1  0
 14 24  2  0
 14 25  1  0
 15 23  1  0
 15 27  2  0
 16 26  2  0
 16 27  1  0
 17 26  1  0
 18 19  1  0
 18 20  1  0
 19 21  1  0
 21 22  1  0
 23 25  2  0
 25 26  1  0
M  END
>  <PUBCHEM_COMPOUND_CID>  (1) 
6022

>  <PUBCHEM_CONFORMER_RMSD>  (1) 
0.8

>  <PUBCHEM_CONFORMER_DIVERSEORDER>  (1) 
18
124
374
67
65
340
182
307
273
287
208
276
214
354
89
110
293
216
244
256
341
28
297
235
330
12
33
261
242
271
266
203
128
192
328
49
220
84
79
151
316
156
168
365
80
329
29
290
186
291
136
333
222
296
8
73
57
100
249
202
258
25
305
304
233
292
142
243
150
51
37
360
106
135
75
45
269
93
164
60
56
326
232
379
264
201
245
4
99
34
323
97
337
265
219
213
194
166
115
163
324
206
22
134
301
143
207
113
270
212
14
155
175
339
63
148
107
338
159
351
246
191
302
196
48
378
250
180
171
53
231
278
237
19
176
141
123
229
76
218
377
7
165
226
306
251
11
126
130
209
369
88
263
149
36
211
82
185
167
366
334
31
66
44
173
268
332
300
58
376
131
200
116
121
13
78
373
272
288
275
234
160
303
39
315
358
38
24
236
52
350
199
96
299
190
283
20
68
205
344
114
215
26
86
274
122
108
147
62
139
335
183
336
50
257
240
23
325
46
41
153
17
357
221
259
133
349
129
352
81
70
125
225
198
281
345
239
21
132
35
317
55
184
228
47
372
59
224
90
170
146
223
74
71
103
383
87
255
230
169
248
127
172
15
32
178
112
193
241
370
162
111
144
318
342
381
197
102
154
138
321
137
30
277
364
353
109
189
294
177
83
157
368
119
253
117
343
254
320
27
5
331
64
3
314
104
145
346
118
6
85
16
279
371
252
362
286
158
247
308
43
382
217
298
42
311
92
262
91
375
187
120
2
77
289
210
69
280
174
9
295
1
367
105
204
95
284
161
356
313
348
101
282
359
260
195
140
188
227
72
98
361
238
312
285
380
61
40
181
152
179
54
355
267
309
94
319
10
347
363
322
327
310

>  <PUBCHEM_MMFF94_PARTIAL_CHARGES>  (1) 
36
1 1.51
10 -0.77
11 -0.77
12 -0.7
13 0.05
14 -0.57
15 -0.57
16 -0.62
17 -0.9
18 0.28
19 0.28
2 1.51
20 0.54
21 0.28
22 0.28
23 0.11
24 0.04
25 0.23
26 0.41
27 0.47
3 -0.56
34 0.4
35 0.4
36 0.15
37 0.15
38 0.4
39 0.4
4 -0.68
40 0.5
41 0.5
42 0.5
5 -0.68
6 -0.55
7 -0.54
8 -0.77
9 -0.7

>  <PUBCHEM_EFFECTIVE_ROTOR_COUNT>  (1) 
7

>  <PUBCHEM_PHARMACOPHORE_FEATURES>  (1) 
19
1 10 acceptor
1 11 acceptor
1 12 acceptor
1 17 cation
1 17 donor
1 3 acceptor
1 4 acceptor
1 4 donor
1 5 acceptor
1 5 donor
1 8 acceptor
1 9 acceptor
3 13 14 24 cation
3 13 15 23 cation
3 15 16 27 cation
4 2 10 11 12 anion
5 13 14 23 24 25 rings
5 3 18 19 20 21 rings
6 15 16 23 25 26 27 rings

>  <PUBCHEM_HEAVY_ATOM_COUNT>  (1) 
27

>  <PUBCHEM_ATOM_DEF_STEREO_COUNT>  (1) 
4

>  <PUBCHEM_ATOM_UDEF_STEREO_COUNT>  (1) 
0

>  <PUBCHEM_BOND_DEF_STEREO_COUNT>  (1) 
0

>  <PUBCHEM_BOND_UDEF_STEREO_COUNT>  (1) 
0

>  <PUBCHEM_ISOTOPIC_ATOM_COUNT>  (1) 
0

>  <PUBCHEM_COMPONENT_COUNT>  (1) 
1

>  <PUBCHEM_CACTVS_TAUTO_COUNT>  (1) 
3

$$$$
