6032
     RDKit          3D

 33 35  0  0  1  0  0  0  0  0999 V2000
    2.6158   -0.8606    0.3488 O   0  0  0  0  0  0  0  0  0  0  0  0
   -2.1404   -0.3285    0.6532 O   0  0  0  0  0  0  0  0  0  0  0  0
    0.2751    0.6181   -0.5143 O   0  0  0  0  0  0  0  0  0  0  0  0
    3.2182    0.6506   -1.3734 O   0  0  0  0  0  0  0  0  0  0  0  0
   -3.6284    0.0878   -1.1448 O   0  0  0  0  0  0  0  0  0  0  0  0
    5.1483   -1.9865    0.2597 O   0  0  0  0  0  0  0  0  0  0  0  0
   -1.9784    2.4268    1.1601 O   0  0  0  0  0  0  0  0  0  0  0  0
    5.0873    2.7920    0.9699 O   0  0  0  0  0  0  0  0  0  0  0  0
   -4.7726    3.1470    1.3816 O   0  0  0  0  0  0  0  0  0  0  0  0
   -6.5056    0.8850    1.0174 O   0  0  0  0  0  0  0  0  0  0  0  0
    1.7377    2.9213   -1.6756 O   0  0  0  0  0  0  0  0  0  0  0  0
    2.3350   -3.7306    0.1661 N   0  0  0  0  0  0  0  0  0  0  0  0
   -2.5087   -3.2045    0.5095 N   0  0  0  0  0  0  0  0  0  0  0  0
    6.7496    0.4162    0.8898 N   0  0  0  0  0  0  0  0  0  0  0  0
   -5.3156   -2.0059   -1.9602 N   0  0  0  0  0  0  0  0  0  0  0  0
    1.3893   -1.4734   -0.0582 C   0  0  0  0  0  0  0  0  0  0  0  0
   -1.1390   -1.2016    0.1224 C   0  0  0  0  0  0  0  0  0  0  0  0
    0.2307   -0.5435    0.3201 C   0  0  0  0  0  0  0  0  0  0  0  0
    1.2777   -2.8343    0.6420 C   0  0  0  0  0  0  0  0  0  0  0  0
   -1.2282   -2.5646    0.8212 C   0  0  0  0  0  0  0  0  0  0  0  0
   -0.0847   -3.4853    0.3864 C   0  0  0  0  0  0  0  0  0  0  0  0
    3.4677   -0.6189   -0.7695 C   0  0  0  0  0  0  0  0  0  0  0  0
   -2.5788    0.6099   -0.3275 C   0  0  0  0  0  0  0  0  0  0  0  0
    4.9362   -0.7186   -0.3510 C   0  0  0  0  0  0  0  0  0  0  0  0
    5.3099    0.4224    0.6045 C   0  0  0  0  0  0  0  0  0  0  0  0
   -2.9935    1.9489    0.2847 C   0  0  0  0  0  0  0  0  0  0  0  0
    4.9158    1.7742   -0.0134 C   0  0  0  0  0  0  0  0  0  0  0  0
   -4.3101    1.8355    1.0505 C   0  0  0  0  0  0  0  0  0  0  0  0
    3.4556    1.7549   -0.4934 C   0  0  0  0  0  0  0  0  0  0  0  0
   -5.3760    1.1539    0.1901 C   0  0  0  0  0  0  0  0  0  0  0  0
   -4.8439   -0.1477   -0.4248 C   0  0  0  0  0  0  0  0  0  0  0  0
   -5.8337   -0.7622   -1.4107 C   0  0  0  0  0  0  0  0  0  0  0  0
    3.0876    3.0221   -1.2611 C   0  0  0  0  0  0  0  0  0  0  0  0
  1 16  1  0
  1 22  1  0
  2 17  1  0
  2 23  1  0
  3 18  1  0
  4 22  1  0
  4 29  1  0
  5 23  1  0
  5 31  1  0
  6 24  1  0
  7 26  1  0
  8 27  1  0
  9 28  1  0
 10 30  1  0
 11 33  1  0
 12 19  1  0
 13 20  1  0
 14 25  1  0
 15 32  1  0
 16 18  1  0
 16 19  1  0
 17 18  1  0
 17 20  1  0
 19 21  1  0
 20 21  1  0
 22 24  1  0
 23 26  1  0
 24 25  1  0
 25 27  1  0
 26 28  1  0
 27 29  1  0
 28 30  1  0
 29 33  1  0
 30 31  1  0
 31 32  1  0
M  END
>  <PUBCHEM_COMPOUND_CID>  (1) 
6032

>  <PUBCHEM_CONFORMER_RMSD>  (1) 
1

>  <PUBCHEM_CONFORMER_DIVERSEORDER>  (1) 
1
59
46
21
98
102
116
58
67
72
110
45
115
75
56
79
81
15
44
69
78
111
29
105
106
17
38
101
80
39
108
70
42
24
85
104
89
35
23
2
60
84
103
49
26
113
52
66
25
11
82
77
18
61
13
7
37
54
87
53
99
33
114
88
71
31
40
65
96
43
94
100
14
19
90
95
83
76
64
6
30
3
57
97
10
107
109
32
12
51
55
86
73
74
41
47
48
112
63
34
4
9
5
50
16
92
8
68
22
27
36
20
93
28
62
91

>  <PUBCHEM_MMFF94_PARTIAL_CHARGES>  (1) 
47
1 -0.56
10 -0.68
11 -0.68
12 -0.99
13 -0.99
14 -0.99
15 -0.99
16 0.28
17 0.28
18 0.28
19 0.27
2 -0.56
20 0.27
22 0.56
23 0.56
24 0.28
25 0.27
26 0.28
27 0.28
28 0.28
29 0.28
3 -0.68
30 0.28
31 0.28
32 0.27
33 0.28
4 -0.56
49 0.36
5 -0.56
50 0.36
51 0.36
52 0.36
55 0.4
6 -0.68
60 0.36
61 0.36
62 0.4
63 0.4
64 0.4
65 0.4
66 0.4
67 0.36
68 0.36
69 0.4
7 -0.68
8 -0.68
9 -0.68

>  <PUBCHEM_EFFECTIVE_ROTOR_COUNT>  (1) 
9.6

>  <PUBCHEM_PHARMACOPHORE_FEATURES>  (1) 
29
1 1 acceptor
1 10 acceptor
1 10 donor
1 11 acceptor
1 11 donor
1 12 cation
1 12 donor
1 13 cation
1 13 donor
1 14 cation
1 14 donor
1 15 cation
1 15 donor
1 2 acceptor
1 3 acceptor
1 3 donor
1 4 acceptor
1 5 acceptor
1 6 acceptor
1 6 donor
1 7 acceptor
1 7 donor
1 8 acceptor
1 8 donor
1 9 acceptor
1 9 donor
6 16 17 18 19 20 21 rings
6 4 22 24 25 27 29 rings
6 5 23 26 28 30 31 rings

>  <PUBCHEM_HEAVY_ATOM_COUNT>  (1) 
33

>  <PUBCHEM_ATOM_DEF_STEREO_COUNT>  (1) 
15

>  <PUBCHEM_ATOM_UDEF_STEREO_COUNT>  (1) 
0

>  <PUBCHEM_BOND_DEF_STEREO_COUNT>  (1) 
0

>  <PUBCHEM_BOND_UDEF_STEREO_COUNT>  (1) 
0

>  <PUBCHEM_ISOTOPIC_ATOM_COUNT>  (1) 
0

>  <PUBCHEM_COMPONENT_COUNT>  (1) 
1

>  <PUBCHEM_CACTVS_TAUTO_COUNT>  (1) 
1

>  <PUBCHEM_CONFORMER_ID>  (1) 
0000179000000001

>  <PUBCHEM_MMFF94_ENERGY>  (1) 
80.0992

>  <PUBCHEM_FEATURE_SELFOVERLAP>  (1) 
147.312

>  <PUBCHEM_SHAPE_FINGERPRINT>  (1) 
10439779 11 18410568471094159464
10595046 47 18272365361061502487
1100329 8 18336270119070635880
11135609 187 18335132142254191245
12107183 9 18333723625288521962
12166972 35 18412826872098764912
12236239 1 18202279178302593823
12633257 1 18114180865315246148
12788726 201 17686917415344977726
13140716 1 18188499076597275180
14251764 38 18339647853367284052
14394314 77 18341899588762696369
14767858 380 18340756157188825743
14784336 7 18270954782338412329
14790565 3 18268435642263899153
15461852 350 17775285019436260142
19319366 153 18341046337932525407
19377110 9 18412258411765333715
20028762 73 18341608205474963494
20511986 3 18271516512537017605
20715895 44 18409166619179806848
21033648 144 18186515535750364038
21033648 29 18130212866330310130
21033650 10 17630074639847982504
23559900 14 18410577314437167622
23569917 315 18335420175214193194
24771293 8 18412257342661445872
2838139 119 18411418388628300539
335352 9 18335138701054127238
3633792 109 18262503837588773765
3680242 22 18187926128118160330
474 4 18335425638268901905
5104073 3 18187642553134739298
513532 50 18130233666804365598
6371009 1 18335693962013892108
9981440 41 18335706065469233083

>  <PUBCHEM_SHAPE_MULTIPOLES>  (1) 
594.64
14.97
4.23
1.27
1.97
1.25
-0.32
-6.42
0.24
-0.84
0.58
0.95
-0.45
-2.13

>  <PUBCHEM_SHAPE_SELFOVERLAP>  (1) 
1223.849

>  <PUBCHEM_SHAPE_VOLUME>  (1) 
335.4

>  <PUBCHEM_COORDINATE_TYPE>  (1) 
2
5
10

$$$$
