6035
     RDKit          3D

 17 18  0  0  1  0  0  0  0  0999 V2000
   -2.5786   -2.8681    0.3447 Br  0  0  0  0  0  0  0  0  0  0  0  0
    1.6056   -0.1757   -0.9970 O   0  0  0  0  0  0  0  0  0  0  0  0
    3.8459    1.5745    0.1390 O   0  0  0  0  0  0  0  0  0  0  0  0
    2.2796   -2.8695   -0.6188 O   0  0  0  0  0  0  0  0  0  0  0  0
   -1.1161    2.8585   -0.3635 O   0  0  0  0  0  0  0  0  0  0  0  0
   -4.3622   -0.3434    0.2171 O   0  0  0  0  0  0  0  0  0  0  0  0
   -0.4344    0.6328   -0.1847 N   0  0  0  0  0  0  0  0  0  0  0  0
   -2.7223    1.2469   -0.0743 N   0  0  0  0  0  0  0  0  0  0  0  0
    3.0479    0.5552    0.7370 C   0  0  0  0  0  0  0  0  0  0  0  0
    0.9646    0.9152   -0.3207 C   0  0  0  0  0  0  0  0  0  0  0  0
    1.6632    1.0917    1.0177 C   0  0  0  0  0  0  0  0  0  0  0  0
    2.7890   -0.5574   -0.2693 C   0  0  0  0  0  0  0  0  0  0  0  0
    2.5189   -1.9030    0.3914 C   0  0  0  0  0  0  0  0  0  0  0  0
   -1.3949    1.6663   -0.2190 C   0  0  0  0  0  0  0  0  0  0  0  0
   -0.8302   -0.6883   -0.0166 C   0  0  0  0  0  0  0  0  0  0  0  0
   -2.1012   -1.0816    0.1214 C   0  0  0  0  0  0  0  0  0  0  0  0
   -3.1749   -0.0541    0.0957 C   0  0  0  0  0  0  0  0  0  0  0  0
  1 16  1  0
  2 10  1  0
  2 12  1  0
  3  9  1  0
  4 13  1  0
  5 14  2  0
  6 17  2  0
  7 10  1  0
  7 14  1  0
  7 15  1  0
  8 14  1  0
  8 17  1  0
  9 11  1  0
  9 12  1  0
 10 11  1  0
 12 13  1  0
 15 16  2  0
 16 17  1  0
M  END
>  <PUBCHEM_COMPOUND_CID>  (1) 
6035

>  <PUBCHEM_CONFORMER_RMSD>  (1) 
0.6

>  <PUBCHEM_CONFORMER_DIVERSEORDER>  (1) 
1
10
14
12
7
8
9
2
4
15
5
13
11
6
3

>  <PUBCHEM_MMFF94_PARTIAL_CHARGES>  (1) 
20
1 -0.11
10 0.58
12 0.28
13 0.28
14 0.69
15 -0.04
16 0.12
17 0.62
2 -0.56
25 0.4
26 0.15
27 0.37
28 0.4
3 -0.68
4 -0.68
5 -0.57
6 -0.57
7 -0.47
8 -0.49
9 0.28

>  <PUBCHEM_EFFECTIVE_ROTOR_COUNT>  (1) 
3

>  <PUBCHEM_PHARMACOPHORE_FEATURES>  (1) 
11
1 1 hydrophobe
1 2 acceptor
1 3 acceptor
1 3 donor
1 4 acceptor
1 4 donor
1 5 acceptor
1 6 acceptor
1 8 donor
5 2 9 10 11 12 rings
6 7 8 14 15 16 17 rings

>  <PUBCHEM_HEAVY_ATOM_COUNT>  (1) 
17

>  <PUBCHEM_ATOM_DEF_STEREO_COUNT>  (1) 
3

>  <PUBCHEM_ATOM_UDEF_STEREO_COUNT>  (1) 
0

>  <PUBCHEM_BOND_DEF_STEREO_COUNT>  (1) 
0

>  <PUBCHEM_BOND_UDEF_STEREO_COUNT>  (1) 
0

>  <PUBCHEM_ISOTOPIC_ATOM_COUNT>  (1) 
0

>  <PUBCHEM_COMPONENT_COUNT>  (1) 
1

>  <PUBCHEM_CACTVS_TAUTO_COUNT>  (1) 
3

>  <PUBCHEM_CONFORMER_ID>  (1) 
0000179300000001

>  <PUBCHEM_MMFF94_ENERGY>  (1) 
41.7254

>  <PUBCHEM_FEATURE_SELFOVERLAP>  (1) 
55.827

>  <PUBCHEM_SHAPE_FINGERPRINT>  (1) 
10366900 7 18130497638866126457
10608611 8 18339636750687062528
10616163 171 18337955713298509010
10618630 7 18334295374749100527
10922523 26 18260547779815543287
10967382 1 18410292531792144679
12382932 28 18338234972045532971
12500047 106 18336540525826908597
12553582 1 17975429210792267187
12932764 1 17632282484886849500
13140716 1 18194960979068649793
14178342 30 18267297819206251891
14223421 5 18411979161280923666
14252887 29 18335993042298549403
15219456 202 18342171137836869972
15375358 24 18336258037337999931
15375462 6 18411698785784315764
16945 1 18409450288589419629
17804303 29 18267309716175945358
17834074 16 18411700967511534154
19049666 15 18198054785856506032
19107657 46 18337953509990803159
19784866 170 18339642364314709688
20510252 161 18341048523917937569
20645477 70 18271520914456210671
21501502 16 18341331085204511904
23184049 29 18337386024641328298
2334 1 17833270096561162773
23402539 116 18115014342273247176
23559900 14 18410851041129242076
2748010 2 18191302667828467349
3312278 4 18338519754183731403
34934 24 18337385041262603023
58051976 378 18410855495031466236
69090 78 18342733031666205943
7364860 26 18342176631553637822
81228 2 18260554398524105385
8809292 202 18408606959013338594
9709674 26 18411982425287640430

>  <PUBCHEM_SHAPE_MULTIPOLES>  (1) 
316.49
6.4
2.93
0.8
0.77
1.11
0.05
1.01
0.73
0.51
-0.19
-0.32
0.04
0.61

>  <PUBCHEM_SHAPE_SELFOVERLAP>  (1) 
651.211

>  <PUBCHEM_SHAPE_VOLUME>  (1) 
185.1

>  <PUBCHEM_COORDINATE_TYPE>  (1) 
2
5
10

$$$$
