6038
     RDKit          3D

 11 12  0  0  0  0  0  0  0  0999 V2000
   -3.3368   -0.7550    0.0003 O   0  0  0  0  0  0  0  0  0  0  0  0
   -1.0632   -1.1195   -0.0003 N   0  0  0  0  0  0  0  0  0  0  0  0
    0.2483   -0.6110   -0.0002 C   0  0  0  0  0  0  0  0  0  0  0  0
    0.4491    0.7744    0.0000 C   0  0  0  0  0  0  0  0  0  0  0  0
   -0.7146    1.6574    0.0000 C   0  0  0  0  0  0  0  0  0  0  0  0
    1.3345   -1.4880    0.0000 C   0  0  0  0  0  0  0  0  0  0  0  0
    1.7525    1.2795   -0.0001 C   0  0  0  0  0  0  0  0  0  0  0  0
   -2.1880   -0.3177    0.0000 C   0  0  0  0  0  0  0  0  0  0  0  0
   -1.9535    1.1522    0.0000 C   0  0  0  0  0  0  0  0  0  0  0  0
    2.6316   -0.9761    0.0003 C   0  0  0  0  0  0  0  0  0  0  0  0
    2.8402    0.4037    0.0000 C   0  0  0  0  0  0  0  0  0  0  0  0
  1  8  2  0
  2  3  1  0
  2  8  1  0
  3  4  2  0
  3  6  1  0
  4  5  1  0
  4  7  1  0
  5  9  2  0
  6 10  2  0
  7 11  2  0
  8  9  1  0
 10 11  1  0
M  END
>  <PUBCHEM_COMPOUND_CID>  (1) 
6038

>  <PUBCHEM_CONFORMER_RMSD>  (1) 
0.4

>  <PUBCHEM_CONFORMER_DIVERSEORDER>  (1) 
1

>  <PUBCHEM_MMFF94_PARTIAL_CHARGES>  (1) 
18
1 -0.57
10 -0.15
11 -0.15
12 0.37
13 0.15
14 0.15
15 0.15
16 0.15
17 0.15
18 0.15
2 -0.55
3 0.12
4 0.03
5 -0.18
6 -0.15
7 -0.15
8 0.62
9 -0.14

>  <PUBCHEM_EFFECTIVE_ROTOR_COUNT>  (1) 
0

>  <PUBCHEM_PHARMACOPHORE_FEATURES>  (1) 
4
1 1 acceptor
1 2 donor
6 2 3 4 5 8 9 rings
6 3 4 6 7 10 11 rings

>  <PUBCHEM_HEAVY_ATOM_COUNT>  (1) 
11

>  <PUBCHEM_ATOM_DEF_STEREO_COUNT>  (1) 
0

>  <PUBCHEM_ATOM_UDEF_STEREO_COUNT>  (1) 
0

>  <PUBCHEM_BOND_DEF_STEREO_COUNT>  (1) 
0

>  <PUBCHEM_BOND_UDEF_STEREO_COUNT>  (1) 
0

>  <PUBCHEM_ISOTOPIC_ATOM_COUNT>  (1) 
0

>  <PUBCHEM_COMPONENT_COUNT>  (1) 
1

>  <PUBCHEM_CACTVS_TAUTO_COUNT>  (1) 
2

>  <PUBCHEM_CONFORMER_ID>  (1) 
0000179600000001

>  <PUBCHEM_MMFF94_ENERGY>  (1) 
28.2147

>  <PUBCHEM_FEATURE_SELFOVERLAP>  (1) 
20.323

>  <PUBCHEM_SHAPE_FINGERPRINT>  (1) 
10857977 72 18411407415012856352
11206711 2 18335986371924318332
12032990 46 18410300223989050443
12897270 3 18410009931417886572
12932764 1 17346589781513782076
14128692 85 18411986823455016076
14325111 11 18410575067620639104
16945 1 18410575114859790244
17844478 74 18113627789348940321
17990270 104 18339925900891416638
193761 8 17834395614131474503
19973954 147 18339362955064131540
20201158 50 18408321094516539923
21040471 1 18410575085074613504
21501502 16 18338238158932235504
23402655 69 18268131086407578013
23463225 33 18335700503586291122
23552423 10 18261115136352591118
23559900 14 17406273232082919046
241688 4 18263363594645108840
2748010 2 18338796693590607476
369184 2 18411417276247231209
5084963 1 18343584027474060888
528886 8 18339639052789221538

>  <PUBCHEM_SHAPE_MULTIPOLES>  (1) 
215.52
4.22
1.69
0.6
0.75
0.18
0
-0.68
0
-0.05
0
-0.04
0.02
0

>  <PUBCHEM_SHAPE_SELFOVERLAP>  (1) 
470.659

>  <PUBCHEM_SHAPE_VOLUME>  (1) 
116.4

>  <PUBCHEM_COORDINATE_TYPE>  (1) 
2
5
10

$$$$
