6064
     RDKit          3D

 32 36  0  0  1  0  0  0  0  0999 V2000
    1.6203   -0.7900   -1.6806 O   0  0  0  0  0  0  0  0  0  0  0  0
   -1.3954    1.1475    2.1156 O   0  0  0  0  0  0  0  0  0  0  0  0
    3.5577   -2.0717    0.5963 O   0  0  0  0  0  0  0  0  0  0  0  0
   -7.1203    1.9505   -1.8542 O   0  0  0  0  0  0  0  0  0  0  0  0
    4.6827    0.4464    0.3776 N   0  0  0  0  0  0  0  0  0  0  0  0
    7.1409    1.4936   -0.7265 N   0  0  0  0  0  0  0  0  0  0  0  0
    0.2974   -0.8038    0.3927 C   0  0  0  0  0  0  0  0  0  0  0  0
   -0.8445   -1.5775   -0.3029 C   0  0  0  0  0  0  0  0  0  0  0  0
   -2.2331   -1.2824    0.2835 C   0  0  0  0  0  0  0  0  0  0  0  0
   -2.5328    0.2499    0.1236 C   0  0  0  0  0  0  0  0  0  0  0  0
    1.5087   -1.3818   -0.3896 C   0  0  0  0  0  0  0  0  0  0  0  0
    0.0212    0.7008    0.1998 C   0  0  0  0  0  0  0  0  0  0  0  0
   -0.3396   -3.0179   -0.3159 C   0  0  0  0  0  0  0  0  0  0  0  0
   -1.3776    1.1315    0.6952 C   0  0  0  0  0  0  0  0  0  0  0  0
   -3.9922    0.6254    0.5997 C   0  0  0  0  0  0  0  0  0  0  0  0
    1.1809   -2.8848   -0.5408 C   0  0  0  0  0  0  0  0  0  0  0  0
   -3.3053   -2.1354   -0.4184 C   0  0  0  0  0  0  0  0  0  0  0  0
    0.4413   -1.1474    1.9013 C   0  0  0  0  0  0  0  0  0  0  0  0
   -4.7154   -1.7845    0.0394 C   0  0  0  0  0  0  0  0  0  0  0  0
   -4.9652   -0.3078   -0.1295 C   0  0  0  0  0  0  0  0  0  0  0  0
    2.8416   -1.1329    0.2499 C   0  0  0  0  0  0  0  0  0  0  0  0
   -4.2190    0.4638    2.1199 C   0  0  0  0  0  0  0  0  0  0  0  0
   -4.2855    2.0841    0.2798 C   0  0  0  0  0  0  0  0  0  0  0  0
   -5.9635    0.1227   -0.9168 C   0  0  0  0  0  0  0  0  0  0  0  0
    3.2274    0.3213    0.4292 C   0  0  0  0  0  0  0  0  0  0  0  0
   -5.2763    2.5192   -0.5045 C   0  0  0  0  0  0  0  0  0  0  0  0
   -6.1961    1.5630   -1.1474 C   0  0  0  0  0  0  0  0  0  0  0  0
    5.2013   -0.0265   -0.9118 C   0  0  0  0  0  0  0  0  0  0  0  0
    5.0955    1.8346    0.6175 C   0  0  0  0  0  0  0  0  0  0  0  0
    6.7270    0.1061   -0.9681 C   0  0  0  0  0  0  0  0  0  0  0  0
    6.6215    1.9667    0.5626 C   0  0  0  0  0  0  0  0  0  0  0  0
    8.5964    1.6174   -0.7765 C   0  0  0  0  0  0  0  0  0  0  0  0
  1 11  1  0
  2 14  1  0
  3 21  2  0
  4 27  2  0
  5 25  1  0
  5 28  1  0
  5 29  1  0
  6 30  1  0
  6 31  1  0
  6 32  1  0
  7  8  1  0
  7 11  1  0
  7 12  1  0
  7 18  1  0
  8  9  1  0
  8 13  1  0
  9 10  1  0
  9 17  1  0
 10 14  1  0
 10 15  1  0
 11 16  1  0
 11 21  1  0
 12 14  1  0
 13 16  1  0
 15 20  1  0
 15 22  1  0
 15 23  1  0
 17 19  1  0
 19 20  1  0
 20 24  2  0
 21 25  1  0
 23 26  2  0
 24 27  1  0
 26 27  1  0
 28 30  1  0
 29 31  1  0
M  END
>  <PUBCHEM_COMPOUND_CID>  (1) 
6064

>  <PUBCHEM_CONFORMER_RMSD>  (1) 
0.8

>  <PUBCHEM_CONFORMER_DIVERSEORDER>  (1) 
1
12
13
22
15
2
17
20
10
16
14
11
4
6
3
7
19
21
9
5
8
18

>  <PUBCHEM_MMFF94_PARTIAL_CHARGES>  (1) 
27
1 -0.68
11 0.34
14 0.28
15 0.28
19 0.14
2 -0.68
20 -0.28
21 0.45
23 -0.29
24 -0.14
25 0.33
26 -0.14
27 0.54
28 0.27
29 0.27
3 -0.57
30 0.27
31 0.27
32 0.27
4 -0.57
5 -0.81
53 0.15
54 0.4
55 0.4
56 0.15
59 0.15
6 -0.81

>  <PUBCHEM_EFFECTIVE_ROTOR_COUNT>  (1) 
5.6

>  <PUBCHEM_PHARMACOPHORE_FEATURES>  (1) 
13
1 1 acceptor
1 1 donor
1 2 acceptor
1 2 donor
1 3 acceptor
1 4 acceptor
1 5 cation
1 6 cation
5 7 8 11 13 16 rings
6 15 20 23 24 26 27 rings
6 5 6 28 29 30 31 rings
6 7 8 9 10 12 14 rings
6 9 10 15 17 19 20 rings

>  <PUBCHEM_HEAVY_ATOM_COUNT>  (1) 
32

>  <PUBCHEM_ATOM_DEF_STEREO_COUNT>  (1) 
7

>  <PUBCHEM_ATOM_UDEF_STEREO_COUNT>  (1) 
0

>  <PUBCHEM_BOND_DEF_STEREO_COUNT>  (1) 
0

>  <PUBCHEM_BOND_UDEF_STEREO_COUNT>  (1) 
0

>  <PUBCHEM_ISOTOPIC_ATOM_COUNT>  (1) 
0

>  <PUBCHEM_COMPONENT_COUNT>  (1) 
1

>  <PUBCHEM_CACTVS_TAUTO_COUNT>  (1) 
6

>  <PUBCHEM_CONFORMER_ID>  (1) 
000017B000000001

>  <PUBCHEM_MMFF94_ENERGY>  (1) 
104.1699

>  <PUBCHEM_FEATURE_SELFOVERLAP>  (1) 
66.074

>  <PUBCHEM_SHAPE_FINGERPRINT>  (1) 
10 15 18187086157011072571
10076449 9 18272652390248506763
10190206 1 18059868263826641920
10290309 65 18341339932964729559
10366900 7 17203320092547946971
10411042 1 17691406734476192695
10554248 39 18265880385414670950
10669705 176 18413394241889525430
10670039 82 17560808706106953840
10835480 77 18335978688824067381
10906281 52 17846223186204535459
11007060 377 18336548334056464666
11135926 11 18202008698489789403
11578080 2 17823683188512126253
11961588 58 18335973187160605355
11991303 11 17060051609866386310
12013929 112 18189921837224971628
12236239 1 18113333107005331970
12422481 6 17530684298949682508
12838862 33 18341036489931374408
13150687 139 18272093773078597262
13673619 4 11959723872159212457
13685833 64 9799689311839593788
13690498 29 17702374247061925879
13726171 33 18339649936869573945
13782708 43 12607396685152741684
13911987 19 18131630076156032149
14028597 1 14346065387328192069
14251764 30 12175618473325373693
14767858 380 17846492617312414641
14931854 50 17917991663590843296
15064986 266 18342181021621955601
15183329 4 18131919256567842096
15289351 153 18131350788124816592
15510800 12 10519707838779639724
15575132 122 18410857672041600492
1577012 14 18333447664875901474
15961568 22 18259703376287116212
16994733 274 17894906330339083544
17492 54 18202279195281853801
17980427 23 17603873324822749766
18608769 82 18410854379147207571
18681886 176 18270958054776184824
19427546 20 18338795727835402399
20511986 3 18260537910107498887
20567600 254 18412262839802717020
21033648 29 17240486883774585010
21279426 13 18272940414496488638
21424621 283 18040151807725318882
22122407 14 17095538322015349716
23559900 14 18059284470138405385
23569914 152 16909197218454649029
23569943 247 11742194267608244348
25269216 80 16343696635261603853
2838139 119 18410855507974416244
3103668 31 17842545525409952215
34797466 226 17917716790199964535
4058900 60 18335707109025070306
4073 2 18040438797524869226
465052 167 8646483054958625570
5080951 261 15213301989045260995
5104073 3 18261115132142462443
999808 66 9727632808401891533

>  <PUBCHEM_SHAPE_MULTIPOLES>  (1) 
625.11
19.3
2.87
1.4
23.17
0.81
-0.34
-15.79
7.07
-0.91
0.38
-0.97
-0.33
0.71

>  <PUBCHEM_SHAPE_SELFOVERLAP>  (1) 
1342.632

>  <PUBCHEM_SHAPE_VOLUME>  (1) 
341.5

>  <PUBCHEM_COORDINATE_TYPE>  (1) 
2
5
10

$$$$
