6067
     RDKit          3D

 23 24  0  0  1  0  0  0  0  0999 V2000
    2.5025    2.7668    0.8119 S   0  0  0  0  0  0  0  0  0  0  0  0
    2.9203    0.0869    1.6399 O   0  0  0  0  0  0  0  0  0  0  0  0
   -0.3859   -0.1242    0.2409 O   0  0  0  0  0  0  0  0  0  0  0  0
    0.3898   -0.3721    2.3966 O   0  0  0  0  0  0  0  0  0  0  0  0
   -4.0767   -0.3848    0.0250 N   0  0  0  0  0  0  0  0  0  0  0  0
    2.3259   -1.1603   -0.2991 C   0  0  0  0  0  0  0  0  0  0  0  0
    2.3170   -2.4874    0.4530 C   0  0  0  0  0  0  0  0  0  0  0  0
    3.7526   -1.1003   -0.8358 C   0  0  0  0  0  0  0  0  0  0  0  0
    1.9651    0.0267    0.5768 C   0  0  0  0  0  0  0  0  0  0  0  0
    3.1146   -3.4255   -0.4469 C   0  0  0  0  0  0  0  0  0  0  0  0
    4.0472   -2.5334   -1.2681 C   0  0  0  0  0  0  0  0  0  0  0  0
   -2.6851   -0.2261   -0.4676 C   0  0  0  0  0  0  0  0  0  0  0  0
    1.9990    1.4024   -0.0921 C   0  0  0  0  0  0  0  0  0  0  0  0
    0.5839   -0.1788    1.2021 C   0  0  0  0  0  0  0  0  0  0  0  0
   -4.4150    0.6979    1.0587 C   0  0  0  0  0  0  0  0  0  0  0  0
   -5.0799   -0.2716   -1.1310 C   0  0  0  0  0  0  0  0  0  0  0  0
   -1.7268   -0.3127    0.7039 C   0  0  0  0  0  0  0  0  0  0  0  0
   -4.2663   -1.7553    0.6892 C   0  0  0  0  0  0  0  0  0  0  0  0
    1.6666    1.7344   -1.3871 C   0  0  0  0  0  0  0  0  0  0  0  0
   -4.2360    2.0618    0.4285 C   0  0  0  0  0  0  0  0  0  0  0  0
   -4.8172   -1.3783   -2.1288 C   0  0  0  0  0  0  0  0  0  0  0  0
    1.8275    3.1272   -1.6405 C   0  0  0  0  0  0  0  0  0  0  0  0
    2.2766    3.8067   -0.5296 C   0  0  0  0  0  0  0  0  0  0  0  0
  1 13  1  0
  1 23  1  0
  2  9  1  0
  3 14  1  0
  3 17  1  0
  4 14  2  0
  5 12  1  0
  5 15  1  0
  5 16  1  0
  5 18  1  0
  6  7  1  0
  6  8  1  0
  6  9  1  0
  7 10  1  0
  8 11  1  0
  9 13  1  0
  9 14  1  0
 10 11  1  0
 12 17  1  0
 13 19  2  0
 15 20  1  0
 16 21  1  0
 19 22  1  0
 22 23  2  0
M  CHG  1   5   1
M  END
>  <PUBCHEM_COMPOUND_CID>  (1) 
6067

>  <PUBCHEM_CONFORMER_RMSD>  (1) 
1

>  <PUBCHEM_CONFORMER_DIVERSEORDER>  (1) 
1
359
286
164
183
69
423
251
343
27
335
188
279
319
213
114
435
314
300
53
177
401
161
318
134
193
136
328
295
41
324
304
427
195
239
125
437
124
129
381
379
152
35
375
157
302
101
400
22
345
285
23
341
122
64
361
150
202
42
430
220
434
13
407
294
109
358
158
198
371
275
155
140
216
121
234
252
316
79
245
100
253
89
387
180
25
317
336
296
85
43
297
176
372
263
363
159
169
98
329
395
376
185
61
250
132
393
273
269
370
44
406
178
199
203
233
187
128
205
191
225
104
350
5
65
417
113
103
163
348
142
383
149
366
338
105
281
309
170
99
9
91
385
66
15
260
421
292
346
301
276
405
368
117
196
241
84
210
97
290
153
143
271
217
325
365
333
307
133
354
384
313
67
287
380
425
236
356
21
224
146
173
420
194
96
218
240
367
303
222
229
4
151
331
172
340
355
119
207
392
92
382
433
323
249
268
422
369
94
362
154
315
282
148
221
394
130
364
351
231
219
272
131
80
232
82
62
211
175
411
179
235
102
342
215
59
75
90
352
139
118
166
190
63
408
77
49
330
339
135
24
106
86
288
332
373
192
120
14
256
353
289
51
181
209
38
244
409
243
432
277
73
264
378
83
107
52
93
397
162
248
48
278
267
36
415
321
197
298
257
17
308
223
280
165
414
399
30
28
39
88
206
55
398
237
182
56
386
228
262
349
78
34
426
242
428
326
87
388
360
186
11
71
431
322
19
270
76
230
47
145
283
402
26
137
320
81
265
374
123
116
391
156
110
261
147
311
68
144
33
413
312
32
403
291
16
200
306
424
212
208
412
58
204
334
112
226
37
201
127
167
344
45
18
284
174
347
111
247
254
126
258
7
54
72
46
74
299
171
214
327
70
138
310
50
12
419
357
40
436
3
108
6
184
246
337
418
57
160
377
410
404
8
238
10
266
60
20
29
2
305
389
115
227
168
141
429
255
390
189
274
95
293
259
31
416
396

>  <PUBCHEM_MMFF94_PARTIAL_CHARGES>  (1) 
20
1 -0.08
12 0.5
13 -0.14
14 0.66
15 0.5
16 0.5
17 0.28
18 0.5
19 -0.15
2 -0.68
22 -0.15
23 -0.11
3 -0.43
4 -0.57
44 0.4
45 0.15
5 -1.01
52 0.15
53 0.15
9 0.52

>  <PUBCHEM_EFFECTIVE_ROTOR_COUNT>  (1) 
10

>  <PUBCHEM_PHARMACOPHORE_FEATURES>  (1) 
6
1 2 acceptor
1 2 donor
1 4 acceptor
1 5 cation
5 1 13 19 22 23 rings
5 6 7 8 10 11 rings

>  <PUBCHEM_HEAVY_ATOM_COUNT>  (1) 
23

>  <PUBCHEM_ATOM_DEF_STEREO_COUNT>  (1) 
0

>  <PUBCHEM_ATOM_UDEF_STEREO_COUNT>  (1) 
1

>  <PUBCHEM_BOND_DEF_STEREO_COUNT>  (1) 
0

>  <PUBCHEM_BOND_UDEF_STEREO_COUNT>  (1) 
0

>  <PUBCHEM_ISOTOPIC_ATOM_COUNT>  (1) 
0

>  <PUBCHEM_COMPONENT_COUNT>  (1) 
1

>  <PUBCHEM_CACTVS_TAUTO_COUNT>  (1) 
1

>  <PUBCHEM_CONFORMER_ID>  (1) 
000017B300000001

>  <PUBCHEM_MMFF94_ENERGY>  (1) 
60.822

>  <PUBCHEM_FEATURE_SELFOVERLAP>  (1) 
30.454

>  <PUBCHEM_SHAPE_FINGERPRINT>  (1) 
10906281 52 18114479915583117736
11315621 136 18268987755561918807
11578080 2 17770768028106447816
11796584 16 17418098654793493583
12596599 1 18113335332330790427
12788726 201 17612038075270554274
13004483 165 18050849914652216086
13009979 54 17988094278878503729
13134695 92 18334867073788287438
13533116 47 18412826919717516287
13899415 180 18263353695003960702
14251757 5 17684089080369948389
15210252 30 17605293791283722220
15502722 9 18338527459365642322
15806764 133 17967814903912228933
17492 89 18410862087890940787
17539 30 17760087316060920582
17818456 19 17701548311812645361
1813 80 18337388215190778322
18186145 218 17894351094594766753
20626108 58 18129935681013590910
20645477 70 18261672683411344279
21304303 282 17049056682794085092
21503847 285 18187934941206941897
21860390 5 18260826037793418212
22149856 69 18126294267077279867
2255824 54 18411704304870142542
23419403 2 17555985041416630600
23559900 14 18410571790892960307
238 59 18191042281299253570
25222932 49 16197872925525767175
266924 78 17979112484386908802
3060560 45 18337954601523926150
312423 11 18272657865835846123
46194498 28 18260553350509556135
474 4 17969216918339259129
5281201 14 18408891737093751559
5912855 24 18128266786531480035
6287921 2 18189345721930475973
633830 44 18260550022315849673
6443956 14 18411427176737809076
7471813 234 18201162074536408464
81228 2 17755320976405014344
9709674 26 18409731789779344723
9841814 1 18040991822145810424
9971528 1 18340202999196141528
9981440 41 17977951511767207680

>  <PUBCHEM_SHAPE_MULTIPOLES>  (1) 
454.59
10.18
4.02
1.72
14.79
1.59
0.05
-3.61
2.68
-5.56
1.28
0.39
0.05
-0.53

>  <PUBCHEM_SHAPE_SELFOVERLAP>  (1) 
913.43

>  <PUBCHEM_SHAPE_VOLUME>  (1) 
271.1

>  <PUBCHEM_COORDINATE_TYPE>  (1) 
2
5
10

$$$$
