607
     RDKit          3D

 14 13  0  0  1  0  0  0  0  0999 V2000
    1.3289    0.5411    1.7522 O   0  0  0  0  0  0  0  0  0  0  0  0
   -1.3438    0.1505    1.8225 O   0  0  0  0  0  0  0  0  0  0  0  0
    1.6118    1.5325   -0.8516 O   0  0  0  0  0  0  0  0  0  0  0  0
   -1.5767   -1.7476   -0.3010 O   0  0  0  0  0  0  0  0  0  0  0  0
    3.2292   -1.6065   -0.2659 O   0  0  0  0  0  0  0  0  0  0  0  0
   -3.1987    1.4053   -0.7748 O   0  0  0  0  0  0  0  0  0  0  0  0
    3.9978    0.5218   -0.3672 O   0  0  0  0  0  0  0  0  0  0  0  0
   -4.0245   -0.6340   -0.2042 O   0  0  0  0  0  0  0  0  0  0  0  0
    0.7312   -0.1198    0.6250 C   0  0  0  0  0  0  0  0  0  0  0  0
   -0.7329    0.3534    0.5404 C   0  0  0  0  0  0  0  0  0  0  0  0
    1.6100    0.1233   -0.6085 C   0  0  0  0  0  0  0  0  0  0  0  0
   -1.6219   -0.3437   -0.4999 C   0  0  0  0  0  0  0  0  0  0  0  0
    3.0633   -0.2687   -0.4093 C   0  0  0  0  0  0  0  0  0  0  0  0
   -3.0737    0.0923   -0.4578 C   0  0  0  0  0  0  0  0  0  0  0  0
  1  9  1  0
  2 10  1  0
  3 11  1  0
  4 12  1  0
  5 13  1  0
  6 14  1  0
  7 13  2  0
  8 14  2  0
  9 10  1  0
  9 11  1  0
 10 12  1  0
 11 13  1  0
 12 14  1  0
M  END
>  <PUBCHEM_COMPOUND_CID>  (1) 
607

>  <PUBCHEM_CONFORMER_RMSD>  (1) 
0.6

>  <PUBCHEM_CONFORMER_DIVERSEORDER>  (1) 
6
254
75
264
30
132
161
186
40
13
217
183
50
243
137
9
177
240
118
42
86
24
226
208
257
22
108
64
196
4
252
238
104
8
194
29
44
192
253
157
188
268
12
260
65
61
231
269
134
2
57
244
152
114
247
68
251
109
236
237
126
69
82
56
232
83
25
91
246
11
155
115
199
149
179
125
204
165
191
60
38
249
154
207
210
218
37
211
5
230
173
185
113
99
135
23
153
116
67
205
139
224
117
85
213
128
255
170
93
160
206
223
16
79
222
131
259
17
195
212
144
92
27
225
256
265
202
18
51
124
200
33
96
81
94
214
140
141
102
19
221
151
97
248
66
258
163
184
209
70
77
169
73
78
156
89
190
215
48
127
262
227
90
216
219
187
142
229
107
39
58
176
239
158
34
20
233
148
129
130
182
54
31
49
87
261
197
167
119
45
112
242
193
150
80
189
147
100
266
228
122
55
106
52
98
84
220
36
41
111
172
95
178
1
145
21
267
76
198
263
241
110
171
35
201
14
88
26
180
74
103
146
250
47
15
32
203
235
136
159
123
62
174
63
168
10
3
164
105
71
53
166
101
43
234
7
46
143
59
138
72
120
175
245
133
121
162
181
28

>  <PUBCHEM_MMFF94_PARTIAL_CHARGES>  (1) 
20
1 -0.68
10 0.28
11 0.34
12 0.34
13 0.66
14 0.66
19 0.4
2 -0.68
20 0.4
21 0.4
22 0.4
23 0.5
24 0.5
3 -0.68
4 -0.68
5 -0.65
6 -0.65
7 -0.57
8 -0.57
9 0.28

>  <PUBCHEM_EFFECTIVE_ROTOR_COUNT>  (1) 
5

>  <PUBCHEM_PHARMACOPHORE_FEATURES>  (1) 
14
1 1 acceptor
1 1 donor
1 2 acceptor
1 2 donor
1 3 acceptor
1 3 donor
1 4 acceptor
1 4 donor
1 5 acceptor
1 6 acceptor
1 7 acceptor
1 8 acceptor
3 5 7 13 anion
3 6 8 14 anion

>  <PUBCHEM_HEAVY_ATOM_COUNT>  (1) 
14

>  <PUBCHEM_ATOM_DEF_STEREO_COUNT>  (1) 
0

>  <PUBCHEM_ATOM_UDEF_STEREO_COUNT>  (1) 
4

>  <PUBCHEM_BOND_DEF_STEREO_COUNT>  (1) 
0

>  <PUBCHEM_BOND_UDEF_STEREO_COUNT>  (1) 
0

>  <PUBCHEM_ISOTOPIC_ATOM_COUNT>  (1) 
0

>  <PUBCHEM_COMPONENT_COUNT>  (1) 
1

>  <PUBCHEM_CACTVS_TAUTO_COUNT>  (1) 
1

>  <PUBCHEM_CONFORMER_ID>  (1) 
0000025F00000006

>  <PUBCHEM_MMFF94_ENERGY>  (1) 
17.9402

>  <PUBCHEM_FEATURE_SELFOVERLAP>  (1) 
71.213

>  <PUBCHEM_SHAPE_FINGERPRINT>  (1) 
10130415 120 16917068884296409491
11031198 65 15936407819047210394
11062470 55 17917993879941238740
11132069 177 13262684767609510942
12932764 1 17917137381953035215
13380535 76 15068339020772847017
13549 16 18263642879082698158
13705890 14 18409450280400327222
14115302 16 18131075981950551767
14943859 89 18113336401466293699
15775835 57 14490190531148002968
16945 1 16272208587080610679
17834072 14 16558739079648613032
20201158 50 16988564606190899671
20281407 28 15267344011171655166
20645477 70 18335422314450076782
20653085 51 18186805777093026229
20671657 53 17561368374483678008
20711985 327 14476960107646637072
21119208 17 18335421274471320646
23402539 116 18335129882446895604
23559900 14 17917426519747617770
81228 2 16127558993451501579
93112 12 18335702779512795910
9939556 21 18335703891909332143

>  <PUBCHEM_SHAPE_MULTIPOLES>  (1) 
241.16
6.45
1.25
1.19
0.03
0.26
0.54
0.55
-1.74
-0.06
-0.2
0.05
-0.35
0.07

>  <PUBCHEM_SHAPE_SELFOVERLAP>  (1) 
473.626

>  <PUBCHEM_SHAPE_VOLUME>  (1) 
142.7

>  <PUBCHEM_COORDINATE_TYPE>  (1) 
2
5
10

$$$$
