6080
     RDKit          3D

 18 18  0  0  1  0  0  0  0  0999 V2000
   -0.9130    0.0886   -2.1066 O   0  0  0  0  0  0  0  0  0  0  0  0
   -0.0839   -2.0053   -0.2032 O   0  0  0  0  0  0  0  0  0  0  0  0
    4.0758    1.5974    0.1314 O   0  0  0  0  0  0  0  0  0  0  0  0
   -3.0287    0.8847   -0.3636 N   0  0  0  0  0  0  0  0  0  0  0  0
   -1.7399    0.4191    0.1636 C   0  0  0  0  0  0  0  0  0  0  0  0
   -0.6211    0.7228   -0.8583 C   0  0  0  0  0  0  0  0  0  0  0  0
   -4.1066    0.5372    0.5458 C   0  0  0  0  0  0  0  0  0  0  0  0
    0.7449    0.2321   -0.4281 C   0  0  0  0  0  0  0  0  0  0  0  0
   -1.5060    1.1038    1.5115 C   0  0  0  0  0  0  0  0  0  0  0  0
   -4.1801   -0.9767    0.7250 C   0  0  0  0  0  0  0  0  0  0  0  0
   -5.4228    1.0899    0.0083 C   0  0  0  0  0  0  0  0  0  0  0  0
    0.9358   -1.1051   -0.1249 C   0  0  0  0  0  0  0  0  0  0  0  0
    1.7813    1.1471   -0.3477 C   0  0  0  0  0  0  0  0  0  0  0  0
    3.0461    0.7114    0.0477 C   0  0  0  0  0  0  0  0  0  0  0  0
    2.2007   -1.5407    0.2703 C   0  0  0  0  0  0  0  0  0  0  0  0
    3.2558   -0.6323    0.3567 C   0  0  0  0  0  0  0  0  0  0  0  0
    0.2192   -3.3583    0.1306 C   0  0  0  0  0  0  0  0  0  0  0  0
    5.3424    1.0841    0.5415 C   0  0  0  0  0  0  0  0  0  0  0  0
  1  6  1  0
  2 12  1  0
  2 17  1  0
  3 14  1  0
  3 18  1  0
  4  5  1  0
  4  7  1  0
  5  6  1  0
  5  9  1  0
  6  8  1  0
  7 10  1  0
  7 11  1  0
  8 12  2  0
  8 13  1  0
 12 15  1  0
 13 14  2  0
 14 16  1  0
 15 16  2  0
M  END
>  <PUBCHEM_COMPOUND_CID>  (1) 
6080

>  <PUBCHEM_CONFORMER_RMSD>  (1) 
0.8

>  <PUBCHEM_CONFORMER_DIVERSEORDER>  (1) 
2
36
18
43
26
30
40
27
6
16
37
41
31
29
42
39
33
15
28
5
38
7
23
20
13
25
1
32
19
24
8
34
22
3
11
10
12
17
4
21
35
14
9

>  <PUBCHEM_MMFF94_PARTIAL_CHARGES>  (1) 
20
1 -0.68
12 0.08
13 -0.15
14 0.08
15 -0.15
16 -0.15
17 0.28
18 0.28
2 -0.36
21 0.36
3 -0.36
32 0.15
33 0.4
34 0.15
35 0.15
4 -0.9
5 0.27
6 0.42
7 0.27
8 -0.14

>  <PUBCHEM_EFFECTIVE_ROTOR_COUNT>  (1) 
6

>  <PUBCHEM_PHARMACOPHORE_FEATURES>  (1) 
8
1 1 acceptor
1 1 donor
1 2 acceptor
1 3 acceptor
1 4 cation
1 4 donor
3 7 10 11 hydrophobe
6 8 12 13 14 15 16 rings

>  <PUBCHEM_HEAVY_ATOM_COUNT>  (1) 
18

>  <PUBCHEM_ATOM_DEF_STEREO_COUNT>  (1) 
0

>  <PUBCHEM_ATOM_UDEF_STEREO_COUNT>  (1) 
2

>  <PUBCHEM_BOND_DEF_STEREO_COUNT>  (1) 
0

>  <PUBCHEM_BOND_UDEF_STEREO_COUNT>  (1) 
0

>  <PUBCHEM_ISOTOPIC_ATOM_COUNT>  (1) 
0

>  <PUBCHEM_COMPONENT_COUNT>  (1) 
1

>  <PUBCHEM_CACTVS_TAUTO_COUNT>  (1) 
1

>  <PUBCHEM_CONFORMER_ID>  (1) 
000017C000000002

>  <PUBCHEM_MMFF94_ENERGY>  (1) 
58.324

>  <PUBCHEM_FEATURE_SELFOVERLAP>  (1) 
40.6

>  <PUBCHEM_SHAPE_FINGERPRINT>  (1) 
10493431 412 18337951298404087296
11132069 177 18113903766588209411
11370993 70 18335421249297784699
12119455 92 18186795894109469076
12236239 1 17918270935301929037
12251169 10 18040999569939913676
12596602 18 17702966759765355979
14341114 328 18060707173812485171
14787075 74 18130222787029536531
14943859 89 17060340747011776828
15196674 1 18409731763930302563
15207287 21 17385447617772065379
15219456 202 17968650515152731445
15295992 7 17702375346678424944
15309172 13 18335417963404898116
15342168 16 18335423521209215196
15375358 24 18187087218047361939
16945 1 18122632647477278790
200 152 18343861104968834105
204376 136 18410857680679020866
20645477 70 18263361404723399631
21524375 3 18130790053451489912
22079108 93 18272083958856564856
22224240 67 18410570721345578049
22854114 59 18408044008933121761
23402539 116 18131064974039192132
23532345 42 17313112951072596007
23557571 272 14906459087973134190
23559900 14 18336827468444628243
25147074 1 17825384352745169532
26918003 58 18335139778499990305
2748010 2 17971737897165404884
296302 2 18341897372811687441
33824 294 18335140843393533667
4340502 62 18411985771388443227
474 4 18272369802084359176
474229 33 18339080496740597587
5104073 3 18261962838891487993
5486654 2 18341618156544701729
57426455 19 18202288038730357361
59755656 520 18411414042680377982
633830 44 18131075887556346765
81228 2 17757816098468403466
8272917 22 18269278963207957797

>  <PUBCHEM_SHAPE_MULTIPOLES>  (1) 
347.84
9.28
2.25
1.07
3
2.32
-0.22
-4.7
2.19
-0.82
0.18
0.44
-0.19
0.16

>  <PUBCHEM_SHAPE_SELFOVERLAP>  (1) 
702.839

>  <PUBCHEM_SHAPE_VOLUME>  (1) 
205.6

>  <PUBCHEM_COORDINATE_TYPE>  (1) 
2
5
10

$$$$
