609
     RDKit          3D

 16 16  0  0  1  0  0  0  0  0999 V2000
   -3.7203    0.2125    0.0379 P   0  0  0  0  0  0  0  0  0  0  0  0
    0.4725    0.9984   -0.1935 O   0  0  0  0  0  0  0  0  0  0  0  0
    0.8871   -2.5927    0.3821 O   0  0  0  0  0  0  0  0  0  0  0  0
    3.5315   -1.7305   -0.5316 O   0  0  0  0  0  0  0  0  0  0  0  0
    1.9509    2.8008   -0.2208 O   0  0  0  0  0  0  0  0  0  0  0  0
   -2.1414    0.3407    0.3754 O   0  0  0  0  0  0  0  0  0  0  0  0
   -4.0894   -1.2936    0.4967 O   0  0  0  0  0  0  0  0  0  0  0  0
   -3.7396    0.1247   -1.5767 O   0  0  0  0  0  0  0  0  0  0  0  0
   -4.5829    1.2915    0.6244 O   0  0  0  0  0  0  0  0  0  0  0  0
    4.1434    0.9899    0.4167 N   0  0  0  0  0  0  0  0  0  0  0  0
    1.1767   -1.3236   -0.1985 C   0  0  0  0  0  0  0  0  0  0  0  0
    2.6021   -0.9047    0.1719 C   0  0  0  0  0  0  0  0  0  0  0  0
    2.8678    0.5517   -0.2149 C   0  0  0  0  0  0  0  0  0  0  0  0
    0.1592   -0.3000    0.3121 C   0  0  0  0  0  0  0  0  0  0  0  0
    1.7405    1.4730    0.2594 C   0  0  0  0  0  0  0  0  0  0  0  0
   -1.2580   -0.6381   -0.1406 C   0  0  0  0  0  0  0  0  0  0  0  0
  1  6  1  0
  1  7  1  0
  1  8  1  0
  1  9  2  0
  2 14  1  0
  2 15  1  0
  3 11  1  0
  4 12  1  0
  5 15  1  0
  6 16  1  0
 10 13  1  0
 11 12  1  0
 11 14  1  0
 12 13  1  0
 13 15  1  0
 14 16  1  0
M  END
>  <PUBCHEM_COMPOUND_CID>  (1) 
609

>  <PUBCHEM_CONFORMER_RMSD>  (1) 
0.6

>  <PUBCHEM_CONFORMER_DIVERSEORDER>  (1) 
1
332
342
83
54
374
323
322
339
341
190
396
330
372
113
380
362
108
370
230
7
348
139
140
279
361
181
311
123
295
355
383
375
245
9
57
409
193
404
157
294
381
168
227
401
259
13
356
63
317
154
343
400
160
368
288
27
61
17
351
11
321
86
299
402
34
386
385
216
371
208
397
260
186
365
349
37
333
377
156
327
60
207
340
158
315
239
117
336
80
392
199
277
66
248
291
222
369
165
403
310
318
280
56
97
103
20
304
135
290
58
353
407
254
234
149
286
262
143
389
191
379
146
121
48
287
162
173
363
25
256
87
174
233
388
182
74
406
59
215
153
258
62
344
257
337
364
29
228
405
357
175
145
399
166
376
138
306
67
203
367
151
15
284
53
130
155
312
338
212
197
238
88
79
218
378
134
305
269
209
293
224
170
350
114
253
347
235
334
99
221
360
185
289
229
72
309
147
101
18
21
382
225
346
240
241
266
91
31
292
301
373
32
326
390
5
354
96
352
202
169
76
319
210
345
283
263
265
141
395
303
316
255
73
217
328
95
41
137
273
78
271
408
171
36
8
398
111
132
223
180
167
296
314
24
297
124
131
331
219
324
161
33
35
194
244
237
243
250
164
206
26
281
104
172
112
192
127
249
100
358
89
179
159
268
118
298
55
183
184
14
64
71
82
276
359
44
120
129
136
189
195
102
12
187
10
176
220
75
52
307
242
47
128
213
152
261
77
23
274
125
366
22
325
384
200
94
320
116
393
107
232
246
43
68
148
313
394
163
2
188
282
28
226
92
275
267
119
391
272
19
105
201
45
142
270
214
84
278
16
126
178
110
196
329
40
38
3
252
6
308
42
30
98
85
46
115
70
65
204
150
302
198
211
50
93
247
49
387
4
90
122
81
51
285
236
335
133
205
251
231
69
177
264
109
300
106
39
144

>  <PUBCHEM_MMFF94_PARTIAL_CHARGES>  (1) 
23
1 1.51
10 -0.99
11 0.28
12 0.28
13 0.27
14 0.28
15 0.56
16 0.28
2 -0.56
24 0.36
25 0.36
26 0.4
27 0.4
28 0.4
29 0.5
3 -0.68
30 0.5
4 -0.68
5 -0.68
6 -0.55
7 -0.77
8 -0.77
9 -0.7

>  <PUBCHEM_EFFECTIVE_ROTOR_COUNT>  (1) 
4.2

>  <PUBCHEM_PHARMACOPHORE_FEATURES>  (1) 
14
1 10 cation
1 10 donor
1 2 acceptor
1 3 acceptor
1 3 donor
1 4 acceptor
1 4 donor
1 5 acceptor
1 5 donor
1 7 acceptor
1 8 acceptor
1 9 acceptor
4 1 7 8 9 anion
6 2 11 12 13 14 15 rings

>  <PUBCHEM_HEAVY_ATOM_COUNT>  (1) 
16

>  <PUBCHEM_ATOM_DEF_STEREO_COUNT>  (1) 
0

>  <PUBCHEM_ATOM_UDEF_STEREO_COUNT>  (1) 
5

>  <PUBCHEM_BOND_DEF_STEREO_COUNT>  (1) 
0

>  <PUBCHEM_BOND_UDEF_STEREO_COUNT>  (1) 
0

>  <PUBCHEM_ISOTOPIC_ATOM_COUNT>  (1) 
0

>  <PUBCHEM_COMPONENT_COUNT>  (1) 
1

>  <PUBCHEM_CACTVS_TAUTO_COUNT>  (1) 
1

>  <PUBCHEM_CONFORMER_ID>  (1) 
0000026100000001

>  <PUBCHEM_MMFF94_ENERGY>  (1) 
-3.6571

>  <PUBCHEM_FEATURE_SELFOVERLAP>  (1) 
71.136

>  <PUBCHEM_SHAPE_FINGERPRINT>  (1) 
10608611 8 18334574663877692301
10980938 120 18409446964379567490
11471102 20 18410007719493878901
12932764 1 17458621190732798019
13922767 16 18410290337148356544
14144814 61 18412826871892529801
14251717 144 18411132537127082646
14325111 11 18410857693896225705
15219456 202 18334577958022662875
15442244 35 18052823550607841017
15501101 241 18187367605722185132
15536298 74 18272653432949568210
18186145 218 18260829276362120211
200 152 18201148932521817863
20606313 2 18410573981209937708
20645477 56 17894625917142078077
20645477 70 18271523104968743847
21639500 275 18339069492881274701
221490 88 18337118963517204635
22854114 111 18410856572704046025
23402539 116 17704068503768614700
23402655 69 18272368655222323189
23557571 272 17385436644716193069
23598291 2 18130776859290825791
25 1 18408041818599910578
2748010 2 18263935512637885066
3060560 45 18412542098376083598
474 4 18409449219343101001
5104073 3 18411421700374919835
58051976 378 18341330110484533575
633830 44 18342179955473118911
84936 182 17986950945504812552

>  <PUBCHEM_SHAPE_MULTIPOLES>  (1) 
281.19
8.11
2.18
0.79
7.09
0.12
0.18
1.1
-0.05
-1.68
-0.08
0.52
0
0.11

>  <PUBCHEM_SHAPE_SELFOVERLAP>  (1) 
545.905

>  <PUBCHEM_SHAPE_VOLUME>  (1) 
171

>  <PUBCHEM_COORDINATE_TYPE>  (1) 
2
5
10

$$$$
