6092
     RDKit          3D

 14 15  0  0  0  0  0  0  0  0999 V2000
    1.8946   -1.9544    0.3378 N   0  0  0  0  0  0  0  0  0  0  0  0
   -3.5376    0.1149   -0.3184 N   0  0  0  0  0  0  0  0  0  0  0  0
    0.1393   -0.8364   -0.4342 C   0  0  0  0  0  0  0  0  0  0  0  0
   -1.2161   -0.5244   -0.9316 C   0  0  0  0  0  0  0  0  0  0  0  0
    1.2077    0.0852   -0.2499 C   0  0  0  0  0  0  0  0  0  0  0  0
   -2.2002   -0.1606    0.1952 C   0  0  0  0  0  0  0  0  0  0  0  0
    2.2969   -0.6418    0.2352 C   0  0  0  0  0  0  0  0  0  0  0  0
    0.5922   -2.0819   -0.0646 C   0  0  0  0  0  0  0  0  0  0  0  0
    1.3530    1.4724   -0.4495 C   0  0  0  0  0  0  0  0  0  0  0  0
    3.5293   -0.0486    0.5316 C   0  0  0  0  0  0  0  0  0  0  0  0
   -4.4514    0.4459    0.7656 C   0  0  0  0  0  0  0  0  0  0  0  0
    2.5798    2.0795   -0.1573 C   0  0  0  0  0  0  0  0  0  0  0  0
    3.6499    1.3287    0.3257 C   0  0  0  0  0  0  0  0  0  0  0  0
   -5.8373    0.7214    0.2145 C   0  0  0  0  0  0  0  0  0  0  0  0
  1  7  1  0
  1  8  1  0
  2  6  1  0
  2 11  1  0
  3  4  1  0
  3  5  1  0
  3  8  2  0
  4  6  1  0
  5  7  2  0
  5  9  1  0
  7 10  1  0
  9 12  2  0
 10 13  2  0
 11 14  1  0
 12 13  1  0
M  END
>  <PUBCHEM_COMPOUND_CID>  (1) 
6092

>  <PUBCHEM_CONFORMER_RMSD>  (1) 
0.6

>  <PUBCHEM_CONFORMER_DIVERSEORDER>  (1) 
1
26
21
31
8
29
5
3
22
30
23
10
18
25
17
13
12
20
28
15
24
9
14
7
6
2
4
16
19
27
11

>  <PUBCHEM_MMFF94_PARTIAL_CHARGES>  (1) 
19
1 0.03
10 -0.15
11 0.27
12 -0.15
13 -0.15
19 0.15
2 -0.9
20 0.27
21 0.36
22 0.15
23 0.15
26 0.15
27 0.15
3 -0.18
4 0.18
6 0.27
7 -0.15
8 -0.3
9 -0.15

>  <PUBCHEM_EFFECTIVE_ROTOR_COUNT>  (1) 
4

>  <PUBCHEM_PHARMACOPHORE_FEATURES>  (1) 
6
1 1 cation
1 1 donor
1 2 cation
1 2 donor
5 1 3 5 7 8 rings
6 5 7 9 10 12 13 rings

>  <PUBCHEM_HEAVY_ATOM_COUNT>  (1) 
14

>  <PUBCHEM_ATOM_DEF_STEREO_COUNT>  (1) 
0

>  <PUBCHEM_ATOM_UDEF_STEREO_COUNT>  (1) 
0

>  <PUBCHEM_BOND_DEF_STEREO_COUNT>  (1) 
0

>  <PUBCHEM_BOND_UDEF_STEREO_COUNT>  (1) 
0

>  <PUBCHEM_ISOTOPIC_ATOM_COUNT>  (1) 
0

>  <PUBCHEM_COMPONENT_COUNT>  (1) 
1

>  <PUBCHEM_CACTVS_TAUTO_COUNT>  (1) 
1

>  <PUBCHEM_CONFORMER_ID>  (1) 
000017CC00000001

>  <PUBCHEM_MMFF94_ENERGY>  (1) 
10.4182

>  <PUBCHEM_FEATURE_SELFOVERLAP>  (1) 
30.538

>  <PUBCHEM_SHAPE_FINGERPRINT>  (1) 
10354089 29 18411141333515464993
10465860 228 18341617001082357110
10498660 4 15410345334519482211
10980938 120 18410289211660995326
11471102 20 18410008823289885516
12251169 10 18333731321163241959
12346645 6 18341613693952375094
13167372 99 18199190577986070481
15342168 16 18189902083214616157
15775835 57 18201719595482232521
15906896 17 17912640508208235526
16945 1 18190159313691413910
18186145 218 18412258458661645390
19784866 9 18412543210540186377
20157964 124 18339075992084489989
20233049 118 17346878940113236745
20645477 70 18339641140602529759
212847 35 18131631192394212576
21524375 3 18270396216960674279
21637258 2 14562793444841999744
23402539 116 16343695543221390028
23402655 69 18201716296894478589
23557571 272 15122646172423004703
276578 36 18412263964878277278
2838139 119 15768344284651269216
293599 30 18336550533802640188
449060 62 18342177769408721857
474 4 18410576223061741961
633830 44 18342176725689374132
7364860 26 18272092643338654606
76465 3 10159162514006860900
8272917 22 18341335492104812231
9999458 23 18186241740713293950

>  <PUBCHEM_SHAPE_MULTIPOLES>  (1) 
278.15
9.02
1.91
0.8
15.53
0.2
-0.03
-4.19
2.1
-1.75
-0.03
0.13
0
-0.35

>  <PUBCHEM_SHAPE_SELFOVERLAP>  (1) 
583.697

>  <PUBCHEM_SHAPE_VOLUME>  (1) 
159

>  <PUBCHEM_COORDINATE_TYPE>  (1) 
2
5
10

$$$$
