6098
     RDKit          3D

 29 32  0  0  1  0  0  0  0  0999 V2000
    2.4820   -1.6358    2.4795 Cl  0  0  0  0  0  0  0  0  0  0  0  0
   -1.2813    1.0013   -1.5678 S   0  0  0  0  0  0  0  0  0  0  0  0
   -1.6354    0.0439    2.7183 O   0  0  0  0  0  0  0  0  0  0  0  0
   -5.3256   -0.9998   -0.1037 O   0  0  0  0  0  0  0  0  0  0  0  0
   -5.0798    0.8265    1.2380 O   0  0  0  0  0  0  0  0  0  0  0  0
    1.5874    2.8423   -0.3839 O   0  0  0  0  0  0  0  0  0  0  0  0
    5.0382    0.4232   -0.5387 O   0  0  0  0  0  0  0  0  0  0  0  0
   -2.4799    0.9999    0.7325 N   0  0  0  0  0  0  0  0  0  0  0  0
    0.6972    1.0620    0.7791 N   0  0  0  0  0  0  0  0  0  0  0  0
    4.3554   -0.7869   -0.5155 N   0  0  0  0  0  0  0  0  0  0  0  0
   -1.5978    1.9060   -0.0088 C   0  0  0  0  0  0  0  0  0  0  0  0
   -2.9663    0.2107   -1.4961 C   0  0  0  0  0  0  0  0  0  0  0  0
   -3.1886   -0.0378    0.0113 C   0  0  0  0  0  0  0  0  0  0  0  0
   -0.5710    1.7234    1.1171 C   0  0  0  0  0  0  0  0  0  0  0  0
   -1.6120    0.7885    1.7646 C   0  0  0  0  0  0  0  0  0  0  0  0
   -3.9699    1.1793   -2.1367 C   0  0  0  0  0  0  0  0  0  0  0  0
   -2.9330   -1.1030   -2.2791 C   0  0  0  0  0  0  0  0  0  0  0  0
   -4.6135    0.0047    0.4631 C   0  0  0  0  0  0  0  0  0  0  0  0
    1.7032    1.6910    0.0352 C   0  0  0  0  0  0  0  0  0  0  0  0
    2.9261    0.9104   -0.1954 C   0  0  0  0  0  0  0  0  0  0  0  0
    3.0774   -0.4588   -0.3056 C   0  0  0  0  0  0  0  0  0  0  0  0
    4.1580    1.4381   -0.3435 C   0  0  0  0  0  0  0  0  0  0  0  0
    2.0690   -1.4828   -0.2228 C   0  0  0  0  0  0  0  0  0  0  0  0
    4.7215    2.7951   -0.3398 C   0  0  0  0  0  0  0  0  0  0  0  0
    1.7242   -2.0809    0.9894 C   0  0  0  0  0  0  0  0  0  0  0  0
    1.4292   -1.8727   -1.3994 C   0  0  0  0  0  0  0  0  0  0  0  0
    0.7401   -3.0688    1.0248 C   0  0  0  0  0  0  0  0  0  0  0  0
    0.4449   -2.8604   -1.3641 C   0  0  0  0  0  0  0  0  0  0  0  0
    0.1004   -3.4584   -0.1519 C   0  0  0  0  0  0  0  0  0  0  0  0
  1 25  1  0
  2 11  1  0
  2 12  1  0
  3 15  2  0
  4 18  1  0
  5 18  2  0
  6 19  2  0
  7 10  1  0
  7 22  1  0
  8 11  1  0
  8 13  1  0
  8 15  1  0
  9 14  1  0
  9 19  1  0
 10 21  2  0
 11 14  1  0
 12 13  1  0
 12 16  1  0
 12 17  1  0
 13 18  1  0
 14 15  1  0
 19 20  1  0
 20 21  1  0
 20 22  2  0
 21 23  1  0
 22 24  1  0
 23 25  2  0
 23 26  1  0
 25 27  1  0
 26 28  2  0
 27 29  2  0
 28 29  1  0
M  END
>  <PUBCHEM_COMPOUND_CID>  (1) 
6098

>  <PUBCHEM_CONFORMER_RMSD>  (1) 
0.8

>  <PUBCHEM_CONFORMER_DIVERSEORDER>  (1) 
5
34
31
47
38
25
50
54
19
44
41
42
49
11
35
6
48
26
15
43
36
28
46
39
27
23
37
53
45
7
8
52
40
20
51
32
33
9
16
3
29
18
24
4
1
30
2
22
12
13
21
14
10
17

>  <PUBCHEM_MMFF94_PARTIAL_CHARGES>  (1) 
33
1 -0.18
10 -0.41
11 0.44
12 0.23
13 0.36
14 0.28
15 0.58
18 0.66
19 0.72
2 -0.45
20 -0.09
21 0.23
22 -0.04
23 0.05
24 0.18
25 0.18
26 -0.15
27 -0.15
28 -0.15
29 -0.15
3 -0.57
39 0.37
4 -0.65
40 0.5
44 0.15
45 0.15
46 0.15
47 0.15
5 -0.57
6 -0.57
7 -0.02
8 -0.59
9 -0.65

>  <PUBCHEM_EFFECTIVE_ROTOR_COUNT>  (1) 
5.8

>  <PUBCHEM_PHARMACOPHORE_FEATURES>  (1) 
12
1 10 acceptor
1 3 acceptor
1 4 acceptor
1 5 acceptor
1 6 acceptor
1 9 donor
3 12 16 17 hydrophobe
3 4 5 18 anion
4 8 11 14 15 rings
5 7 10 20 21 22 rings
6 23 25 26 27 28 29 rings
7 2 8 11 12 13 14 15 rings

>  <PUBCHEM_HEAVY_ATOM_COUNT>  (1) 
29

>  <PUBCHEM_ATOM_DEF_STEREO_COUNT>  (1) 
3

>  <PUBCHEM_ATOM_UDEF_STEREO_COUNT>  (1) 
0

>  <PUBCHEM_BOND_DEF_STEREO_COUNT>  (1) 
0

>  <PUBCHEM_BOND_UDEF_STEREO_COUNT>  (1) 
0

>  <PUBCHEM_ISOTOPIC_ATOM_COUNT>  (1) 
0

>  <PUBCHEM_COMPONENT_COUNT>  (1) 
1

>  <PUBCHEM_CACTVS_TAUTO_COUNT>  (1) 
2

>  <PUBCHEM_CONFORMER_ID>  (1) 
000017D200000005

>  <PUBCHEM_MMFF94_ENERGY>  (1) 
75.0456

>  <PUBCHEM_FEATURE_SELFOVERLAP>  (1) 
64.687

>  <PUBCHEM_SHAPE_FINGERPRINT>  (1) 
11421498 54 17560533806271187459
11578080 2 16589729841511748254
12156800 1 17614319913737439551
12236239 1 17775012292527832936
12553582 1 17988912358700787569
12788726 201 17273417171523127201
13009979 54 17414718666314735354
13224815 77 18410290268228354711
13583140 156 17313383483063798800
13911987 19 18043270087701532532
14251764 3 17676203602007690765
14787075 74 18271243923641621791
15183329 4 17987784221913082565
16752209 62 17202750506827991501
17138139 8 17700111473321371551
17492 54 18266164192405135663
17980427 23 17828739786954088018
21421861 104 18196102044800296905
22393880 68 18263359209752291364
23557571 272 16443356333920166193
23559900 14 17769661893174916079
238 59 18335135384437060552
35225 105 17619663570265267615
3797600 57 18272366477510601287
4340502 62 18338252530483541451
4409770 3 15390586439979332073
463206 1 18271525390007038637
469060 322 16951959776727564623
6287921 2 17630608920768051086
6669772 16 18408326605888132030

>  <PUBCHEM_SHAPE_MULTIPOLES>  (1) 
558.24
9.06
3.42
2.07
2.68
1.63
0.48
-3.49
-1.21
-2.79
-0.19
1.41
0.5
-0.75

>  <PUBCHEM_SHAPE_SELFOVERLAP>  (1) 
1196.02

>  <PUBCHEM_SHAPE_VOLUME>  (1) 
313.6

>  <PUBCHEM_COORDINATE_TYPE>  (1) 
2
5
10

$$$$
