6103
     RDKit          3D

 11 12  0  0  0  0  0  0  0  0999 V2000
    3.7866    0.8199   -0.0016 Cl  0  0  0  0  0  0  0  0  0  0  0  0
   -1.7258   -0.9971   -0.0001 O   0  0  0  0  0  0  0  0  0  0  0  0
   -1.4260    1.2494    0.0004 N   0  0  0  0  0  0  0  0  0  0  0  0
   -3.6308    0.2874   -0.0012 N   0  0  0  0  0  0  0  0  0  0  0  0
   -0.2030    0.6235    0.0004 C   0  0  0  0  0  0  0  0  0  0  0  0
   -0.3825   -0.7519    0.0001 C   0  0  0  0  0  0  0  0  0  0  0  0
    1.1020    1.1366    0.0008 C   0  0  0  0  0  0  0  0  0  0  0  0
    0.6471   -1.6848    0.0000 C   0  0  0  0  0  0  0  0  0  0  0  0
   -2.2784    0.2482    0.0003 C   0  0  0  0  0  0  0  0  0  0  0  0
    2.1682    0.2255    0.0006 C   0  0  0  0  0  0  0  0  0  0  0  0
    1.9427   -1.1566    0.0003 C   0  0  0  0  0  0  0  0  0  0  0  0
  1 10  1  0
  2  6  1  0
  2  9  1  0
  3  5  1  0
  3  9  2  0
  4  9  1  0
  5  6  2  0
  5  7  1  0
  6  8  1  0
  7 10  2  0
  8 11  2  0
 10 11  1  0
M  END
>  <PUBCHEM_COMPOUND_CID>  (1) 
6103

>  <PUBCHEM_CONFORMER_RMSD>  (1) 
0.4

>  <PUBCHEM_CONFORMER_DIVERSEORDER>  (1) 
1

>  <PUBCHEM_MMFF94_PARTIAL_CHARGES>  (1) 
16
1 -0.18
10 0.18
11 -0.15
12 0.15
13 0.15
14 0.15
15 0.4
16 0.4
2 -0.28
3 -0.57
4 -0.88
5 0.23
6 0.14
7 -0.15
8 -0.15
9 0.56

>  <PUBCHEM_EFFECTIVE_ROTOR_COUNT>  (1) 
0

>  <PUBCHEM_PHARMACOPHORE_FEATURES>  (1) 
4
1 4 donor
3 3 4 9 cation
5 2 3 5 6 9 rings
6 5 6 7 8 10 11 rings

>  <PUBCHEM_HEAVY_ATOM_COUNT>  (1) 
11

>  <PUBCHEM_ATOM_DEF_STEREO_COUNT>  (1) 
0

>  <PUBCHEM_ATOM_UDEF_STEREO_COUNT>  (1) 
0

>  <PUBCHEM_BOND_DEF_STEREO_COUNT>  (1) 
0

>  <PUBCHEM_BOND_UDEF_STEREO_COUNT>  (1) 
0

>  <PUBCHEM_ISOTOPIC_ATOM_COUNT>  (1) 
0

>  <PUBCHEM_COMPONENT_COUNT>  (1) 
1

>  <PUBCHEM_CACTVS_TAUTO_COUNT>  (1) 
2

>  <PUBCHEM_CONFORMER_ID>  (1) 
000017D700000001

>  <PUBCHEM_MMFF94_ENERGY>  (1) 
16.67

>  <PUBCHEM_FEATURE_SELFOVERLAP>  (1) 
20.415

>  <PUBCHEM_SHAPE_FINGERPRINT>  (1) 
10219947 1 18260550021767470044
11471102 20 18410569548867082861
12897270 3 18411138030353201036
12932764 1 14045453397876864469
13380535 76 18409729577570376730
14325111 11 18410573972329995680
15775835 57 18342177782145820244
16945 1 18410855464438966336
193761 8 17834395618711362852
20645477 70 18267860597719748951
20871998 184 18056766652592435542
21040471 1 18338799017468640226
23235685 24 18409724084354418016
23402655 69 18341317904667390197
23463225 33 18334008363997375858
23552423 10 18191589653079523878
2748010 2 18193275182972071388
369184 2 16153421770500627864
5084963 1 18272088249407372818
528886 8 18411132562965367314
53812653 166 18343297106726901288
7364860 26 18270680845039810254

>  <PUBCHEM_SHAPE_MULTIPOLES>  (1) 
212.41
4.9
1.49
0.6
0.04
0.36
0
-1.36
0
0.35
0
0.07
0
0

>  <PUBCHEM_SHAPE_SELFOVERLAP>  (1) 
459.503

>  <PUBCHEM_SHAPE_VOLUME>  (1) 
119.9

>  <PUBCHEM_COORDINATE_TYPE>  (1) 
2
5
10

$$$$
