6127
     RDKit          3D

 21 23  0  0  0  0  0  0  0  0999 V2000
   -3.6762   -0.0188    0.1242 N   0  0  0  0  0  0  0  0  0  0  0  0
   -2.8261    1.2512    0.2943 C   0  0  0  0  0  0  0  0  0  0  0  0
   -2.8122   -1.2754    0.3199 C   0  0  0  0  0  0  0  0  0  0  0  0
   -1.6103    1.2508   -0.6291 C   0  0  0  0  0  0  0  0  0  0  0  0
   -1.5966   -1.2806   -0.6035 C   0  0  0  0  0  0  0  0  0  0  0  0
   -0.8083   -0.0090   -0.4618 C   0  0  0  0  0  0  0  0  0  0  0  0
   -4.3864   -0.0365   -1.2285 C   0  0  0  0  0  0  0  0  0  0  0  0
   -4.7605   -0.0137    1.2090 C   0  0  0  0  0  0  0  0  0  0  0  0
    0.5034    0.0008   -0.1845 C   0  0  0  0  0  0  0  0  0  0  0  0
    1.1869   -1.2646   -0.0424 C   0  0  0  0  0  0  0  0  0  0  0  0
    1.1673    1.2765   -0.0413 C   0  0  0  0  0  0  0  0  0  0  0  0
    1.2708   -1.8859    1.2090 C   0  0  0  0  0  0  0  0  0  0  0  0
    1.7424    1.9028   -1.1532 C   0  0  0  0  0  0  0  0  0  0  0  0
    1.7716   -1.8811   -1.1546 C   0  0  0  0  0  0  0  0  0  0  0  0
    1.2418    1.8981    1.2105 C   0  0  0  0  0  0  0  0  0  0  0  0
    1.9307   -3.1070    1.3464 C   0  0  0  0  0  0  0  0  0  0  0  0
    2.3834    3.1338   -1.0150 C   0  0  0  0  0  0  0  0  0  0  0  0
    2.4313   -3.1024   -1.0171 C   0  0  0  0  0  0  0  0  0  0  0  0
    1.8828    3.1293    1.3486 C   0  0  0  0  0  0  0  0  0  0  0  0
    2.5108   -3.7153    0.2334 C   0  0  0  0  0  0  0  0  0  0  0  0
    2.4536    3.7470    0.2357 C   0  0  0  0  0  0  0  0  0  0  0  0
  1  2  1  0
  1  3  1  0
  1  7  1  0
  1  8  1  0
  2  4  1  0
  3  5  1  0
  4  6  1  0
  5  6  1  0
  6  9  2  3
  9 10  1  0
  9 11  1  0
 10 12  2  0
 10 14  1  0
 11 13  2  0
 11 15  1  0
 12 16  1  0
 13 17  1  0
 14 18  2  0
 15 19  2  0
 16 20  2  0
 17 21  2  0
 18 20  1  0
 19 21  1  0
M  CHG  1   1   1
M  END
>  <PUBCHEM_COMPOUND_CID>  (1) 
6127

>  <PUBCHEM_CONFORMER_RMSD>  (1) 
0.6

>  <PUBCHEM_CONFORMER_DIVERSEORDER>  (1) 
1

>  <PUBCHEM_MMFF94_PARTIAL_CHARGES>  (1) 
31
1 -1.01
10 0.03
11 0.03
12 -0.15
13 -0.15
14 -0.15
15 -0.15
16 -0.15
17 -0.15
18 -0.15
19 -0.15
2 0.5
20 -0.15
21 -0.15
3 0.5
36 0.15
37 0.15
38 0.15
39 0.15
4 0.14
40 0.15
41 0.15
42 0.15
43 0.15
44 0.15
45 0.15
5 0.14
6 -0.28
7 0.5
8 0.5
9 -0.06

>  <PUBCHEM_EFFECTIVE_ROTOR_COUNT>  (1) 
3

>  <PUBCHEM_PHARMACOPHORE_FEATURES>  (1) 
4
1 1 cation
6 1 2 3 4 5 6 rings
6 10 12 14 16 18 20 rings
6 11 13 15 17 19 21 rings

>  <PUBCHEM_HEAVY_ATOM_COUNT>  (1) 
21

>  <PUBCHEM_ATOM_DEF_STEREO_COUNT>  (1) 
0

>  <PUBCHEM_ATOM_UDEF_STEREO_COUNT>  (1) 
0

>  <PUBCHEM_BOND_DEF_STEREO_COUNT>  (1) 
0

>  <PUBCHEM_BOND_UDEF_STEREO_COUNT>  (1) 
0

>  <PUBCHEM_ISOTOPIC_ATOM_COUNT>  (1) 
0

>  <PUBCHEM_COMPONENT_COUNT>  (1) 
1

>  <PUBCHEM_CACTVS_TAUTO_COUNT>  (1) 
1

>  <PUBCHEM_CONFORMER_ID>  (1) 
000017EF00000001

>  <PUBCHEM_MMFF94_ENERGY>  (1) 
75.9088

>  <PUBCHEM_FEATURE_SELFOVERLAP>  (1) 
20.297

>  <PUBCHEM_SHAPE_FINGERPRINT>  (1) 
10162869 55 17407402435084032561
11578080 2 17242437340176959468
121448 382 17622142986223878301
12160290 23 16971660426820801150
12532896 13 17908986852506613412
12549972 3 17894917274691058297
12553582 1 18121223069545034687
12707595 3 18263646160876081727
12788726 201 17182771078780390067
13134695 92 18267574715700040519
13140716 1 18266457800722310608
13149001 5 17684057229040031541
133893 2 18193526021931521431
13533116 47 18411428319700211787
136203 1 17330553146840617626
13681431 1 18339918199930457510
13878862 14 18338508644132809765
13955234 65 18410864282497377449
14022347 108 17621061771309861279
14178342 30 18120380015025448659
14223421 5 18335986458382657567
14787075 74 18260838051307730318
14955137 171 18342739615898420274
15042514 8 17039510765538159882
15309172 13 18047748496997434917
15842332 3 17846494847012130919
15906896 17 17326607502309776002
16752209 62 16966313501701196710
17868525 174 18192717731178669593
1813 80 18055920896280477031
19591789 44 18122911090439239102
20510252 161 17259328978495838218
20567600 347 18121497114011701291
20600515 1 17693945093995365252
21120745 212 17764609628950658918
21304303 282 17046783957461682492
21524375 3 18124590044552428244
21731228 192 18049717717885221000
22112679 90 17837232380117153268
2255824 54 18410858758816357439
22907989 373 17401205569566709166
22956985 138 18114729517180536850
23366157 5 18334576845509939301
23419403 2 17681515244197864156
23557571 272 17907291053806307614
23558518 356 17834947956075071510
23559900 14 18335129861605009471
2748010 2 17979050718330238692
283562 15 17620751026342330159
3091708 16 9327516111954022498
31174 14 18408887309045811975
4175511 71 18197221338931263363
43471831 8 18194115454806023439
4409770 3 17181084423653702221
458136 41 18265348367936683329
58807428 26 18194956572485010144
6049 1 17967534532910781821
6138700 20 18410581669971563758
633830 44 17914909857374303933
6442390 28 17906749342011860913
6786 2 17976278029362556106
70251023 43 18338790110271126735
7364860 26 18413670214264101806
7615 1 17846773001968533061
81228 2 17404577771470381124
84936 182 18271815682235422001
90316 7 17762616192240588683
9841814 1 18335417907507435803
9981440 41 18122613118609228681

>  <PUBCHEM_SHAPE_MULTIPOLES>  (1) 
427.19
6.27
4.98
1.36
9.98
0.16
-0.13
-0.19
-0.21
-7.74
-0.59
-0.22
0
0

>  <PUBCHEM_SHAPE_SELFOVERLAP>  (1) 
914.157

>  <PUBCHEM_SHAPE_VOLUME>  (1) 
237

>  <PUBCHEM_COORDINATE_TYPE>  (1) 
2
5
10

$$$$
