6142
     RDKit          3D

 11 11  0  0  0  0  0  0  0  0999 V2000
    2.8237    1.0872    0.0002 O   0  0  0  0  0  0  0  0  0  0  0  0
    1.3807   -0.7747   -0.0003 N   0  0  0  0  0  0  0  0  0  0  0  0
    3.6773   -1.0323    0.0003 N   0  0  0  0  0  0  0  0  0  0  0  0
   -2.2968   -0.4558   -0.0001 C   0  0  0  0  0  0  0  0  0  0  0  0
    0.1064   -0.2065   -0.0002 C   0  0  0  0  0  0  0  0  0  0  0  0
   -1.0233   -1.0250   -0.0002 C   0  0  0  0  0  0  0  0  0  0  0  0
   -2.4407    0.9317    0.0000 C   0  0  0  0  0  0  0  0  0  0  0  0
   -0.0377    1.1810   -0.0001 C   0  0  0  0  0  0  0  0  0  0  0  0
   -1.3112    1.7501    0.0001 C   0  0  0  0  0  0  0  0  0  0  0  0
   -3.5047   -1.3307    0.0004 C   0  0  0  0  0  0  0  0  0  0  0  0
    2.6263   -0.1251    0.0000 C   0  0  0  0  0  0  0  0  0  0  0  0
  1 11  2  0
  2  5  1  0
  2 11  1  0
  3 11  1  0
  4  6  2  0
  4  7  1  0
  4 10  1  0
  5  6  1  0
  5  8  2  0
  7  9  2  0
  8  9  1  0
M  END
>  <PUBCHEM_COMPOUND_CID>  (1) 
6142

>  <PUBCHEM_CONFORMER_RMSD>  (1) 
0.4

>  <PUBCHEM_CONFORMER_DIVERSEORDER>  (1) 
1
13
20
19
3
18
17
4
14
11
9
10
2
21
22
16
15
12
7
8
5
6

>  <PUBCHEM_MMFF94_PARTIAL_CHARGES>  (1) 
18
1 -0.57
10 0.14
11 0.69
12 0.15
13 0.15
14 0.15
15 0.15
19 0.37
2 -0.55
20 0.37
21 0.37
3 -0.8
4 -0.14
5 0.12
6 -0.15
7 -0.15
8 -0.15
9 -0.15

>  <PUBCHEM_EFFECTIVE_ROTOR_COUNT>  (1) 
2

>  <PUBCHEM_PHARMACOPHORE_FEATURES>  (1) 
4
1 1 acceptor
1 2 donor
1 3 donor
6 4 5 6 7 8 9 rings

>  <PUBCHEM_HEAVY_ATOM_COUNT>  (1) 
11

>  <PUBCHEM_ATOM_DEF_STEREO_COUNT>  (1) 
0

>  <PUBCHEM_ATOM_UDEF_STEREO_COUNT>  (1) 
0

>  <PUBCHEM_BOND_DEF_STEREO_COUNT>  (1) 
0

>  <PUBCHEM_BOND_UDEF_STEREO_COUNT>  (1) 
0

>  <PUBCHEM_ISOTOPIC_ATOM_COUNT>  (1) 
0

>  <PUBCHEM_COMPONENT_COUNT>  (1) 
1

>  <PUBCHEM_CACTVS_TAUTO_COUNT>  (1) 
3

>  <PUBCHEM_CONFORMER_ID>  (1) 
000017FE00000001

>  <PUBCHEM_MMFF94_ENERGY>  (1) 
30.3066

>  <PUBCHEM_FEATURE_SELFOVERLAP>  (1) 
20.346

>  <PUBCHEM_SHAPE_FINGERPRINT>  (1) 
10857977 72 18340758321203242737
12032990 46 18409735096735162435
12897270 3 18410572859991358436
12932764 1 17531524274446610728
13024252 1 17095812035927412513
14128692 85 18337675325196086877
14325111 11 18410573976783199044
16945 1 18194402195402069957
19973954 147 18412265000013134700
20201158 50 18271806770273013790
20871998 184 18202003226843762527
23402539 116 18341039783385008199
23552423 10 18260550008840214178
25610 137 18336269053902883213
2748010 2 18339350959415860573
3248919 1 17561085752613399644
369184 2 18334857195015392193
6333449 129 18341047419926284141

>  <PUBCHEM_SHAPE_MULTIPOLES>  (1) 
210.54
5.5
1.62
0.59
2.76
0.38
0
-1.8
0
-0.61
0
-0.07
0.01
0

>  <PUBCHEM_SHAPE_SELFOVERLAP>  (1) 
434.375

>  <PUBCHEM_SHAPE_VOLUME>  (1) 
120.9

>  <PUBCHEM_COORDINATE_TYPE>  (1) 
2
5
10

$$$$
