615
     RDKit          3D

 14 13  0  0  1  0  0  0  0  0999 V2000
    3.3357   -0.4025   -0.0286 P   0  0  0  0  0  0  0  0  0  0  0  0
   -2.5626    1.8548    0.3073 O   0  0  0  0  0  0  0  0  0  0  0  0
   -2.3309   -0.4292   -1.3991 O   0  0  0  0  0  0  0  0  0  0  0  0
    2.0220    0.5270   -0.2226 O   0  0  0  0  0  0  0  0  0  0  0  0
   -4.1284   -2.0295   -0.0149 O   0  0  0  0  0  0  0  0  0  0  0  0
   -0.0794    2.1381   -0.5727 O   0  0  0  0  0  0  0  0  0  0  0  0
    2.8559   -1.8565   -0.5489 O   0  0  0  0  0  0  0  0  0  0  0  0
    3.4163   -0.5897    1.5757 O   0  0  0  0  0  0  0  0  0  0  0  0
    4.5853    0.1278   -0.6683 O   0  0  0  0  0  0  0  0  0  0  0  0
   -1.6871    0.7768    0.6047 C   0  0  0  0  0  0  0  0  0  0  0  0
   -2.2577   -0.5227    0.0261 C   0  0  0  0  0  0  0  0  0  0  0  0
   -0.2998    1.1027    0.0564 C   0  0  0  0  0  0  0  0  0  0  0  0
   -3.6708   -0.7985    0.5365 C   0  0  0  0  0  0  0  0  0  0  0  0
    0.8016    0.1015    0.3485 C   0  0  0  0  0  0  0  0  0  0  0  0
  1  4  1  0
  1  7  1  0
  1  8  1  0
  1  9  2  0
  2 10  1  0
  3 11  1  0
  4 14  1  0
  5 13  1  0
  6 12  2  0
 10 11  1  0
 10 12  1  0
 11 13  1  0
 12 14  1  0
M  END
>  <PUBCHEM_COMPOUND_CID>  (1) 
615

>  <PUBCHEM_CONFORMER_RMSD>  (1) 
0.8

>  <PUBCHEM_CONFORMER_DIVERSEORDER>  (1) 
1
287
215
532
436
336
211
110
714
42
465
7
135
757
508
675
344
348
137
722
19
368
616
25
485
779
513
151
543
80
8
269
124
278
218
666
101
188
65
217
360
9
366
59
66
77
648
693
322
752
649
406
5
329
208
505
2
785
158
371
100
457
544
6
63
314
160
332
138
710
205
143
375
472
418
36
455
162
282
18
234
241
601
194
730
157
382
120
438
34
405
400
548
38
794
206
122
751
305
777
70
723
459
186
98
558
470
672
26
141
661
156
29
561
306
253
153
111
60
399
15
384
150
663
236
294
198
463
631
171
14
203
190
527
584
450
84
349
664
130
608
93
73
21
497
633
116
133
686
280
435
414
86
391
727
87
481
692
447
266
316
53
388
451
79
223
651
576
780
247
140
610
364
129
319
342
149
530

>  <PUBCHEM_MMFF94_PARTIAL_CHARGES>  (1) 
19
1 1.51
10 0.34
11 0.28
12 0.45
13 0.28
14 0.34
2 -0.68
21 0.4
22 0.4
23 0.4
24 0.5
25 0.5
3 -0.68
4 -0.55
5 -0.68
6 -0.57
7 -0.77
8 -0.77
9 -0.7

>  <PUBCHEM_EFFECTIVE_ROTOR_COUNT>  (1) 
6

>  <PUBCHEM_PHARMACOPHORE_FEATURES>  (1) 
11
1 2 acceptor
1 2 donor
1 3 acceptor
1 3 donor
1 5 acceptor
1 5 donor
1 6 acceptor
1 7 acceptor
1 8 acceptor
1 9 acceptor
4 1 7 8 9 anion

>  <PUBCHEM_HEAVY_ATOM_COUNT>  (1) 
14

>  <PUBCHEM_ATOM_DEF_STEREO_COUNT>  (1) 
0

>  <PUBCHEM_ATOM_UDEF_STEREO_COUNT>  (1) 
2

>  <PUBCHEM_BOND_DEF_STEREO_COUNT>  (1) 
0

>  <PUBCHEM_BOND_UDEF_STEREO_COUNT>  (1) 
0

>  <PUBCHEM_ISOTOPIC_ATOM_COUNT>  (1) 
0

>  <PUBCHEM_COMPONENT_COUNT>  (1) 
1

>  <PUBCHEM_CACTVS_TAUTO_COUNT>  (1) 
8

>  <PUBCHEM_CONFORMER_ID>  (1) 
0000026700000001

>  <PUBCHEM_MMFF94_ENERGY>  (1) 
-16.6576

>  <PUBCHEM_FEATURE_SELFOVERLAP>  (1) 
55.884

>  <PUBCHEM_SHAPE_FINGERPRINT>  (1) 
10618630 7 18411423894823638790
12932764 1 17346309380532038034
13296908 3 18342460288014967214
14123260 362 9295288382387909299
14251710 61 18342463646489735502
18186145 218 16877952594412994632
19107657 162 18342173358266422754
200 152 17385721392078109832
20281407 28 18344145877815582146
20281475 54 18409730621415871066
20645477 70 18118679066332307407
20671657 53 18040428932200767341
20871998 184 18131352968950260117
20871999 31 18113896057248533445
21061003 4 16773795904794638769
22485316 2 18408887325740338953
22959321 94 18340198686906915363
23402539 116 18114180796811748052
23532345 42 18339354262282329368
449060 23 18409449193589037059
58051976 100 18340772559020160317

>  <PUBCHEM_SHAPE_MULTIPOLES>  (1) 
245.01
7.98
1.8
0.97
3.11
0.17
0.07
-3.89
0.12
-1.16
-0.18
0.29
-0.11
-0.19

>  <PUBCHEM_SHAPE_SELFOVERLAP>  (1) 
456.569

>  <PUBCHEM_SHAPE_VOLUME>  (1) 
153.2

>  <PUBCHEM_COORDINATE_TYPE>  (1) 
2
5
10

$$$$
