6154
     RDKit          3D

 27 29  0  0  0  0  0  0  0  0999 V2000
    6.8718   -3.4972    0.0858 F   0  0  0  0  0  0  0  0  0  0  0  0
    4.9297    2.4393   -0.5008 O   0  0  0  0  0  0  0  0  0  0  0  0
   -0.0263    1.6037    0.4672 N   0  0  0  0  0  0  0  0  0  0  0  0
   -2.3395   -0.0911   -0.3335 C   0  0  0  0  0  0  0  0  0  0  0  0
   -5.2782   -0.7537   -0.5222 C   0  0  0  0  0  0  0  0  0  0  0  0
   -2.8799   -1.5430   -0.3341 C   0  0  0  0  0  0  0  0  0  0  0  0
   -3.3618    0.8160   -1.0673 C   0  0  0  0  0  0  0  0  0  0  0  0
   -4.2980   -1.6654    0.2231 C   0  0  0  0  0  0  0  0  0  0  0  0
   -4.7872    0.6977   -0.5243 C   0  0  0  0  0  0  0  0  0  0  0  0
   -2.0803    0.3840    1.1186 C   0  0  0  0  0  0  0  0  0  0  0  0
   -0.9820   -0.0712   -1.0795 C   0  0  0  0  0  0  0  0  0  0  0  0
   -6.6758   -0.8507    0.0867 C   0  0  0  0  0  0  0  0  0  0  0  0
   -1.2981    1.6997    1.1924 C   0  0  0  0  0  0  0  0  0  0  0  0
   -0.2390    1.2608   -0.9433 C   0  0  0  0  0  0  0  0  0  0  0  0
   -7.6503    0.0371   -0.7052 C   0  0  0  0  0  0  0  0  0  0  0  0
   -7.1644   -2.3080    0.0362 C   0  0  0  0  0  0  0  0  0  0  0  0
   -6.6385   -0.3801    1.5505 C   0  0  0  0  0  0  0  0  0  0  0  0
    0.7276    2.8517    0.5843 C   0  0  0  0  0  0  0  0  0  0  0  0
    2.0999    2.7045   -0.0759 C   0  0  0  0  0  0  0  0  0  0  0  0
    2.9360    1.5928    0.5639 C   0  0  0  0  0  0  0  0  0  0  0  0
    4.3360    1.4759   -0.0223 C   0  0  0  0  0  0  0  0  0  0  0  0
    5.0137    0.1486    0.0071 C   0  0  0  0  0  0  0  0  0  0  0  0
    4.7146   -0.7238    1.0297 C   0  0  0  0  0  0  0  0  0  0  0  0
    5.9129   -0.1570   -0.9902 C   0  0  0  0  0  0  0  0  0  0  0  0
    5.3478   -1.9665    1.0565 C   0  0  0  0  0  0  0  0  0  0  0  0
    6.5459   -1.3997   -0.9634 C   0  0  0  0  0  0  0  0  0  0  0  0
    6.2634   -2.3044    0.0599 C   0  0  0  0  0  0  0  0  0  0  0  0
  1 27  1  0
  2 21  2  0
  3 13  1  0
  3 14  1  0
  3 18  1  0
  4  6  1  0
  4  7  1  0
  4 10  1  0
  4 11  1  0
  5  8  1  0
  5  9  1  0
  5 12  1  0
  6  8  1  0
  7  9  1  0
 10 13  1  0
 11 14  1  0
 12 15  1  0
 12 16  1  0
 12 17  1  0
 18 19  1  0
 19 20  1  0
 20 21  1  0
 21 22  1  0
 22 23  2  0
 22 24  1  0
 23 25  1  0
 24 26  2  0
 25 27  2  0
 26 27  1  0
M  END
>  <PUBCHEM_COMPOUND_CID>  (1) 
6154

>  <PUBCHEM_CONFORMER_RMSD>  (1) 
1

>  <PUBCHEM_CONFORMER_DIVERSEORDER>  (1) 
1
46
11
85
56
48
90
60
71
3
52
99
66
12
19
13
49
83
45
2
77
42
27
86
17
40
30
69
28
53
87
102
24
15
96
74
68
61
110
25
6
47
67
21
100
103
18
108
55
35
101
7
37
109
65
80
95
16
51
58
82
107
79
34
14
97
31
43
10
91
93
84
75
81
76
89
36
106
23
9
38
92
98
54
39
62
41
63
50
78
44
70
22
64
20
73
111
59
26
5
4
104
94
32
88
29
72
33
57
8
105

>  <PUBCHEM_MMFF94_PARTIAL_CHARGES>  (1) 
18
1 -0.19
13 0.27
14 0.27
18 0.27
2 -0.57
20 0.06
21 0.42
22 0.09
23 -0.15
24 -0.15
25 -0.15
26 -0.15
27 0.19
3 -0.81
60 0.15
61 0.15
62 0.15
63 0.15

>  <PUBCHEM_EFFECTIVE_ROTOR_COUNT>  (1) 
8

>  <PUBCHEM_PHARMACOPHORE_FEATURES>  (1) 
6
1 2 acceptor
1 3 cation
4 12 15 16 17 hydrophobe
6 22 23 24 25 26 27 rings
6 3 4 10 11 13 14 rings
6 4 5 6 7 8 9 rings

>  <PUBCHEM_HEAVY_ATOM_COUNT>  (1) 
27

>  <PUBCHEM_ATOM_DEF_STEREO_COUNT>  (1) 
0

>  <PUBCHEM_ATOM_UDEF_STEREO_COUNT>  (1) 
0

>  <PUBCHEM_BOND_DEF_STEREO_COUNT>  (1) 
0

>  <PUBCHEM_BOND_UDEF_STEREO_COUNT>  (1) 
0

>  <PUBCHEM_ISOTOPIC_ATOM_COUNT>  (1) 
0

>  <PUBCHEM_COMPONENT_COUNT>  (1) 
1

>  <PUBCHEM_CACTVS_TAUTO_COUNT>  (1) 
2

>  <PUBCHEM_CONFORMER_ID>  (1) 
0000180A00000001

>  <PUBCHEM_MMFF94_ENERGY>  (1) 
70.3691

>  <PUBCHEM_FEATURE_SELFOVERLAP>  (1) 
30.448

>  <PUBCHEM_SHAPE_FINGERPRINT>  (1) 
10 15 11600001063704524822
10258705 36 18041293161605982443
10673678 19 8214151762949690872
10917259 128 16414367654894666441
11211813 74 9006792973222977487
11273773 46 18337387128453328319
117089 54 17983586208966612702
11991303 11 17462558412528038981
12166972 35 18260270746035678468
12539765 74 12324504413096663161
12592606 108 18342737442682158055
12633257 1 15410604926601161920
12821665 9 8430306927777565745
13073987 5 18343018908520827616
13533116 47 18341330084762287072
1361 4 18265614458240462299
13673619 4 18187080654699563076
13685833 64 18411417319513538672
13782708 43 18336822087261952767
13911987 19 12757151255756871781
13914758 101 18343867697881004617
14216079 64 18342174457820177183
14347424 109 17846213384503954808
14420673 8 18409730651612920035
15183329 4 18409166614921769321
15352257 5 18261111898127020307
15475509 8 17167858656403430285
15510800 12 17916308243418503166
15685185 35 8862354532554024682
16120349 21 18271814458385988081
17134984 74 17676205776068446530
1979834 28 17060344011534913254
19841028 212 18409164390572120842
20105231 36 17095246930406792243
20567600 234 11600006574121322049
208703 8 18338794491217214650
21130935 74 18270680995410924235
21150785 3 12540697046332705329
21279426 13 18334565820287140845
21344244 181 18113339729924076554
21365058 113 17530689835569274245
21639891 77 17417811686839144081
21641784 216 14779812846086761517
21682296 61 18408605872908442851
22223350 30 17272556485604166731
23522609 53 18125470672216520969
23559900 14 18265046006892805817
23569943 247 18335700486364971843
23929065 36 15410629030094485985
270888 7 8790589417636141818
2838139 119 9943541686302459129
3004659 81 18261109678024346196
3014965 18 18410852196327894677
328310 630 10881670288031994511
3383291 50 18341889697310218379
3472631 163 11241975871687082944
34797466 226 16732985374925370292
3680242 22 18343026609433417342
397830 11 11455602244842653037
4073 2 18047471411434960144
439807 62 18260267421899815398
445580 126 8502376603537067156
46194498 28 17458341996321003372
465052 167 18343865528590035500
5085150 59 16271923874521804711
5104073 3 16342849009831353421
513202 73 18335989675203081337
5372103 7 15358844360767963972
54039377 194 18339927005616338670
56633871 153 18060129925865956654
6697151 62 18129357389474203805
6712543 237 15267338492449982158
6898599 12 11386668324426139720
7970288 3 18339640015658935414

>  <PUBCHEM_SHAPE_MULTIPOLES>  (1) 
537.52
22.53
3.04
1.17
2.48
0.2
0.14
16.81
-0.76
-4.79
0.35
0.27
-0.05
-0.14

>  <PUBCHEM_SHAPE_SELFOVERLAP>  (1) 
1115.829

>  <PUBCHEM_SHAPE_VOLUME>  (1) 
308.9

>  <PUBCHEM_COORDINATE_TYPE>  (1) 
2
5
10

$$$$
