6158
     RDKit          3D

 23 25  0  0  0  0  0  0  0  0999 V2000
    5.8374    3.0835   -0.4028 F   0  0  0  0  0  0  0  0  0  0  0  0
    3.3289   -2.4607    1.1220 O   0  0  0  0  0  0  0  0  0  0  0  0
   -1.4057   -1.5303   -0.5850 N   0  0  0  0  0  0  0  0  0  0  0  0
   -3.6344    0.4379   -0.4291 C   0  0  0  0  0  0  0  0  0  0  0  0
   -4.8295   -0.2527    0.2806 C   0  0  0  0  0  0  0  0  0  0  0  0
   -4.0611    1.8724   -0.8326 C   0  0  0  0  0  0  0  0  0  0  0  0
   -2.3751    0.4877    0.4727 C   0  0  0  0  0  0  0  0  0  0  0  0
   -3.2574   -0.3427   -1.7131 C   0  0  0  0  0  0  0  0  0  0  0  0
   -5.4072    0.5614    1.4393 C   0  0  0  0  0  0  0  0  0  0  0  0
   -4.6243    2.6891    0.3295 C   0  0  0  0  0  0  0  0  0  0  0  0
   -1.7348   -0.8872    0.6919 C   0  0  0  0  0  0  0  0  0  0  0  0
   -2.5976   -1.6940   -1.4246 C   0  0  0  0  0  0  0  0  0  0  0  0
   -5.7863    1.9723    1.0061 C   0  0  0  0  0  0  0  0  0  0  0  0
   -0.7556   -2.8206   -0.3582 C   0  0  0  0  0  0  0  0  0  0  0  0
    0.5473   -2.6270    0.4201 C   0  0  0  0  0  0  0  0  0  0  0  0
    1.5400   -1.7291   -0.3234 C   0  0  0  0  0  0  0  0  0  0  0  0
    2.8754   -1.5823    0.3923 C   0  0  0  0  0  0  0  0  0  0  0  0
    3.6662   -0.3365    0.1798 C   0  0  0  0  0  0  0  0  0  0  0  0
    3.5541    0.3203   -1.0250 C   0  0  0  0  0  0  0  0  0  0  0  0
    4.4796    0.1113    1.1967 C   0  0  0  0  0  0  0  0  0  0  0  0
    4.2939    1.4859   -1.2236 C   0  0  0  0  0  0  0  0  0  0  0  0
    5.2195    1.2770    0.9984 C   0  0  0  0  0  0  0  0  0  0  0  0
    5.1267    1.9644   -0.2119 C   0  0  0  0  0  0  0  0  0  0  0  0
  1 23  1  0
  2 17  2  0
  3 11  1  0
  3 12  1  0
  3 14  1  0
  4  5  1  0
  4  6  1  0
  4  7  1  0
  4  8  1  0
  5  9  1  0
  6 10  1  0
  7 11  1  0
  8 12  1  0
  9 13  1  0
 10 13  1  0
 14 15  1  0
 15 16  1  0
 16 17  1  0
 17 18  1  0
 18 19  2  0
 18 20  1  0
 19 21  1  0
 20 22  2  0
 21 23  2  0
 22 23  1  0
M  END
>  <PUBCHEM_COMPOUND_CID>  (1) 
6158

>  <PUBCHEM_CONFORMER_RMSD>  (1) 
0.8

>  <PUBCHEM_CONFORMER_DIVERSEORDER>  (1) 
1
124
78
116
3
185
165
181
89
152
19
191
163
196
154
173
14
101
47
184
21
169
72
187
94
82
12
69
13
16
200
87
129
153
44
20
179
105
114
199
68
61
119
135
55
80
57
178
186
157
51
192
95
27
115
113
141
183
189
100
42
37
22
60
125
122
148
195
17
35
71
66
97
26
182
64
77
150
109
34
49
177
43
166
63
91
112
92
67
41
170
103
2
110
190
98
56
172
50
70
155
46
142
62
83
9
108
145
147
193
88
197
8
54
84
198
136
121
6
10
79
45
48
7
90
126
171
127
33
74
175
133
53
52
194
4
118
40
65
111
76
15
151
123
59
29
39
18
130
128
23
5
28
85
132
146
168
176
137
117
99
36
96
120
167
32
188
24
73
102
30
138
156
180
25
164
106
160
139
140
174
107
149
86
104
81
143
144
162
93
38
31
159
158
75
134
11
161
131
58

>  <PUBCHEM_MMFF94_PARTIAL_CHARGES>  (1) 
18
1 -0.19
11 0.27
12 0.27
14 0.27
16 0.06
17 0.42
18 0.09
19 -0.15
2 -0.57
20 -0.15
21 -0.15
22 -0.15
23 0.19
3 -0.81
48 0.15
49 0.15
50 0.15
51 0.15

>  <PUBCHEM_EFFECTIVE_ROTOR_COUNT>  (1) 
7

>  <PUBCHEM_PHARMACOPHORE_FEATURES>  (1) 
5
1 2 acceptor
1 3 cation
6 18 19 20 21 22 23 rings
6 3 4 7 8 11 12 rings
6 4 5 6 9 10 13 rings

>  <PUBCHEM_HEAVY_ATOM_COUNT>  (1) 
23

>  <PUBCHEM_ATOM_DEF_STEREO_COUNT>  (1) 
0

>  <PUBCHEM_ATOM_UDEF_STEREO_COUNT>  (1) 
0

>  <PUBCHEM_BOND_DEF_STEREO_COUNT>  (1) 
0

>  <PUBCHEM_BOND_UDEF_STEREO_COUNT>  (1) 
0

>  <PUBCHEM_ISOTOPIC_ATOM_COUNT>  (1) 
0

>  <PUBCHEM_COMPONENT_COUNT>  (1) 
1

>  <PUBCHEM_CACTVS_TAUTO_COUNT>  (1) 
2

>  <PUBCHEM_CONFORMER_ID>  (1) 
0000180E00000001

>  <PUBCHEM_MMFF94_ENERGY>  (1) 
44.2299

>  <PUBCHEM_FEATURE_SELFOVERLAP>  (1) 
25.373

>  <PUBCHEM_SHAPE_FINGERPRINT>  (1) 
10042902 136 8718560445117817432
10498660 4 17775284988928565650
11135609 201 18339079409828801706
11720765 8 17631185091632661710
12107183 9 18261938697265854570
12422481 6 17677618553662486933
12616971 3 18341603763998893323
12633257 1 15575002822595858510
12760667 363 9079123249858604419
12788726 201 17632303324073711752
12925494 130 17901663761869941461
13103583 49 11170184303043225366
13398642 44 17532671219804422812
13583140 156 16515670122841832943
13828863 39 18411143524222962583
1420 369 8286201647663552306
14251764 38 18120937209264296501
14251764 75 18411705395660006088
14429114 114 18412824655547993865
14790565 3 18200036131933230713
14840074 17 17968101949182233692
14848178 5 8286197227962765863
14849402 71 18262238790514583282
14910302 57 11311766221082595003
14950920 106 17458903717675861819
15052358 14 10879720815335062707
15163728 17 17846787290681552015
15188451 53 12901541381874137731
15342168 16 18411702050112565095
15475509 8 13758076252161298635
17810953 82 18337391535253148060
17834072 32 18410576214629835446
18222031 100 8214138551503564394
20403669 9 8502381039637026904
21120745 212 18057315309754714567
21302155 148 18411703183967872945
21365058 113 17338175004421389303
21401589 2 18187082900940851355
21864079 5 18410853235425130782
22849339 104 15123207958878159093
235170 7 15985105249476893748
23559900 14 17488744450353703894
245318 6 17896336863849860444
249057 25 18269533027371758342
270888 7 18412828001453390136
2838139 119 18201429333608965928
312425 54 12179835096091143294
3472631 163 18202845439712691341
34797466 226 15410314655262274019
3680242 22 18408881811514255136
38570 142 18262816124407891798
437795 70 14261360098577641395
44062 13 10375882857069029499
474 4 18334289842768432954
5104073 3 18187086113935202147
550186 72 18412545423393063161
57307002 182 16806174404813687308
57724786 102 18408319965414979178
6034566 193 18342747333727693833
633830 44 18341328898924338055
636775 72 17835798978619289472
7288768 16 18040719207307271474
7808743 9 18340203093690859202
7970288 3 9295022253783456472
960060 61 12751231510859211818

>  <PUBCHEM_SHAPE_MULTIPOLES>  (1) 
455.21
15.25
3.3
1.36
3.19
0.06
0.16
-13.52
-2.53
1.28
0.07
-0.38
-0.01
-1.72

>  <PUBCHEM_SHAPE_SELFOVERLAP>  (1) 
948.101

>  <PUBCHEM_SHAPE_VOLUME>  (1) 
258.3

>  <PUBCHEM_COORDINATE_TYPE>  (1) 
2
5
10

$$$$
