6160
     RDKit          3D

 21 23  0  0  1  0  0  0  0  0999 V2000
    7.0229   -1.3844    0.8467 F   0  0  0  0  0  0  0  0  0  0  0  0
    1.7378    0.5275   -1.9401 O   0  0  0  0  0  0  0  0  0  0  0  0
   -2.1572    0.4286   -0.0102 N   0  0  0  0  0  0  0  0  0  0  0  0
   -4.2835   -0.4530    0.2483 C   0  0  0  0  0  0  0  0  0  0  0  0
   -5.2129   -1.4752    0.8986 C   0  0  0  0  0  0  0  0  0  0  0  0
   -4.8786   -0.3480   -1.1670 C   0  0  0  0  0  0  0  0  0  0  0  0
   -4.2725    0.9152    0.9549 C   0  0  0  0  0  0  0  0  0  0  0  0
   -2.8119   -0.8527    0.2569 C   0  0  0  0  0  0  0  0  0  0  0  0
   -6.6015   -1.0857    0.4052 C   0  0  0  0  0  0  0  0  0  0  0  0
   -6.3913   -0.4427   -0.9655 C   0  0  0  0  0  0  0  0  0  0  0  0
   -2.8227    1.3979    0.8634 C   0  0  0  0  0  0  0  0  0  0  0  0
   -0.7192    0.3778    0.2049 C   0  0  0  0  0  0  0  0  0  0  0  0
   -0.0920    1.7424   -0.0872 C   0  0  0  0  0  0  0  0  0  0  0  0
    1.4248    1.7414    0.1221 C   0  0  0  0  0  0  0  0  0  0  0  0
    2.1645    0.8035   -0.8215 C   0  0  0  0  0  0  0  0  0  0  0  0
    3.4617    0.2194   -0.3760 C   0  0  0  0  0  0  0  0  0  0  0  0
    4.2483    0.9420    0.4929 C   0  0  0  0  0  0  0  0  0  0  0  0
    3.8252   -1.0214   -0.8499 C   0  0  0  0  0  0  0  0  0  0  0  0
    5.4620    0.3953    0.9097 C   0  0  0  0  0  0  0  0  0  0  0  0
    5.0388   -1.5682   -0.4331 C   0  0  0  0  0  0  0  0  0  0  0  0
    5.8573   -0.8598    0.4468 C   0  0  0  0  0  0  0  0  0  0  0  0
  1 21  1  0
  2 15  2  0
  3  8  1  0
  3 11  1  0
  3 12  1  0
  4  5  1  0
  4  6  1  0
  4  7  1  0
  4  8  1  0
  5  9  1  0
  6 10  1  0
  7 11  1  0
  9 10  1  0
 12 13  1  0
 13 14  1  0
 14 15  1  0
 15 16  1  0
 16 17  2  0
 16 18  1  0
 17 19  1  0
 18 20  2  0
 19 21  2  0
 20 21  1  0
M  END
>  <PUBCHEM_COMPOUND_CID>  (1) 
6160

>  <PUBCHEM_CONFORMER_RMSD>  (1) 
0.8

>  <PUBCHEM_CONFORMER_DIVERSEORDER>  (1) 
1
161
56
3
192
85
9
79
36
51
2
193
137
90
93
102
172
83
25
178
86
89
130
176
46
40
164
117
88
183
113
119
168
37
77
190
134
95
69
170
145
101
20
48
186
180
29
146
91
118
30
191
7
11
17
8
173
124
121
114
80
34
18
144
99
152
199
162
97
182
141
112
175
44
62
105
12
72
107
104
32
16
76
167
58
14
184
123
153
28
5
23
196
110
157
151
185
41
52
92
158
103
159
155
181
122
131
188
171
166
133
65
125
198
94
143
187
165
120
111
87
31
81
197
45
115
140
163
174
59
106
126
38
148
47
35
74
4
142
13
50
63
160
54
195
19
189
139
132
24
138
128
26
60
57
136
78
15
147
64
169
21
10
149
71
177
127
73
27
116
108
150
135
61
42
179
66
194
75
129
53
156
49
109
67
33
82
96
6
100
84
154
55
70
22
68
43
39
98

>  <PUBCHEM_MMFF94_PARTIAL_CHARGES>  (1) 
18
1 -0.19
11 0.27
12 0.27
14 0.06
15 0.42
16 0.09
17 -0.15
18 -0.15
19 -0.15
2 -0.57
20 -0.15
21 0.19
3 -0.81
42 0.15
43 0.15
44 0.15
45 0.15
8 0.27

>  <PUBCHEM_EFFECTIVE_ROTOR_COUNT>  (1) 
6.6

>  <PUBCHEM_PHARMACOPHORE_FEATURES>  (1) 
5
1 2 acceptor
1 3 cation
5 3 4 7 8 11 rings
5 4 5 6 9 10 rings
6 16 17 18 19 20 21 rings

>  <PUBCHEM_HEAVY_ATOM_COUNT>  (1) 
21

>  <PUBCHEM_ATOM_DEF_STEREO_COUNT>  (1) 
0

>  <PUBCHEM_ATOM_UDEF_STEREO_COUNT>  (1) 
0

>  <PUBCHEM_BOND_DEF_STEREO_COUNT>  (1) 
0

>  <PUBCHEM_BOND_UDEF_STEREO_COUNT>  (1) 
0

>  <PUBCHEM_ISOTOPIC_ATOM_COUNT>  (1) 
0

>  <PUBCHEM_COMPONENT_COUNT>  (1) 
1

>  <PUBCHEM_CACTVS_TAUTO_COUNT>  (1) 
2

>  <PUBCHEM_CONFORMER_ID>  (1) 
0000181000000001

>  <PUBCHEM_MMFF94_ENERGY>  (1) 
50.6559

>  <PUBCHEM_FEATURE_SELFOVERLAP>  (1) 
25.39

>  <PUBCHEM_SHAPE_FINGERPRINT>  (1) 
10 15 12103844566525573055
10354089 29 13470689256761277800
10378564 45 13045940209943571188
10447042 23 18411135853158340052
10613725 11 14923940145870066724
106641 1 17060330851676087218
10670039 82 12180113268206861279
10753850 27 18261111872066728513
11315181 36 18335423486870257305
11724838 91 15626213646064262444
11796584 16 17894628183998567635
11858739 19 18333730225640548541
12166972 35 17894916260472212365
12516196 113 17917993884078223440
12555020 224 18187363255548392899
12596602 18 15482675662648496735
12623949 98 17773889601794965790
12670543 26 14490188297765145412
13177829 20 16056871459848248210
13533116 47 18271807968606079184
13668630 136 17821729446454203947
13685833 64 18335704961651535795
13862211 1 18334576832614598402
13914758 101 18335135359384934917
14211702 104 18338808904584277571
14251751 18 18338518659257630515
14251752 14 17095514085429741781
14251764 18 18272651260207825928
14251764 75 14618794986749516602
14341114 328 14979959176662664820
14528608 73 7853571279564285705
14848160 23 18408881845372709701
14933364 13 8646770010403088121
15183329 4 13767923503330718780
15188451 53 18411415098878192768
15706992 2 15553871305413614986
15716309 27 17775002392754238027
17834072 8 16081087082199721853
17857418 61 18131350834456833495
1813 80 17894636941848509900
18222031 100 17530966874086918748
19377110 9 16128660751573974033
19489759 90 18187364316384007973
19784866 240 18113622287163635221
20028762 73 18343582928379996254
2026 5 18261108587177442059
20281389 69 10087645883588743595
21304304 249 18411419497410572486
21315764 119 16081082649988930779
21623969 137 18201719544111553910
21637258 2 17967810518945609720
22061861 79 17603865619762209471
22079108 93 13973962121009911908
221357 26 13190334677967617902
2215653 11 15285358431177066088
22224240 67 16415473866112364462
23081809 10 18410303505312675940
23198884 109 14707206617669600383
23402539 116 18343021078011659085
23402655 69 11818997391968931984
23559900 14 18263359360382497953
25122255 55 18261966222983202067
29717793 49 17530685411588843684
3004659 81 17530684325146616916
312425 54 17987529121111412714
3383291 50 18409171038860294075
3472631 163 8646480821654636314
351380 3 18113336401677465962
3545911 37 8574716801722117161
4340502 62 15554449591745352788
44062 13 17168714153764526171
465052 167 18342740711357556852
5104073 3 16701191767451766035
559249 180 18409167684774742905
5718773 13 18189048708353581906
59682541 35 16773788247147706506
59682541 52 15140949677849765707
59755656 215 17749101175916967875
67856867 119 17417243385456372953
8988823 20 18201155542165574824
960060 61 15502377829123729680

>  <PUBCHEM_SHAPE_MULTIPOLES>  (1) 
414.05
18.83
1.66
1.16
0.84
0.15
-0.27
-9.32
2.85
0.59
0.18
-0.14
-0.04
-0.13

>  <PUBCHEM_SHAPE_SELFOVERLAP>  (1) 
874.365

>  <PUBCHEM_SHAPE_VOLUME>  (1) 
236.5

>  <PUBCHEM_COORDINATE_TYPE>  (1) 
2
5
10

$$$$
