6161
     RDKit          3D

 22 24  0  0  0  0  0  0  0  0999 V2000
   -6.4819    2.4028    0.4301 F   0  0  0  0  0  0  0  0  0  0  0  0
   -2.6052   -2.1850   -1.3806 O   0  0  0  0  0  0  0  0  0  0  0  0
    1.7524   -1.0417    0.7689 N   0  0  0  0  0  0  0  0  0  0  0  0
    4.0628    0.7139    0.1988 C   0  0  0  0  0  0  0  0  0  0  0  0
    4.6279    2.1398    0.0943 C   0  0  0  0  0  0  0  0  0  0  0  0
    5.3047   -0.1202   -0.1660 C   0  0  0  0  0  0  0  0  0  0  0  0
    2.9002    0.4987   -0.7964 C   0  0  0  0  0  0  0  0  0  0  0  0
    3.5561    0.4163    1.6189 C   0  0  0  0  0  0  0  0  0  0  0  0
    5.5438    2.1139   -1.1254 C   0  0  0  0  0  0  0  0  0  0  0  0
    6.0032    0.6647   -1.2750 C   0  0  0  0  0  0  0  0  0  0  0  0
    2.2099   -0.8574   -0.6134 C   0  0  0  0  0  0  0  0  0  0  0  0
    2.8694   -0.9478    1.7167 C   0  0  0  0  0  0  0  0  0  0  0  0
    1.0621   -2.3228    0.9144 C   0  0  0  0  0  0  0  0  0  0  0  0
   -0.1655   -2.3687    0.0024 C   0  0  0  0  0  0  0  0  0  0  0  0
   -1.1700   -1.2587    0.3242 C   0  0  0  0  0  0  0  0  0  0  0  0
   -2.4370   -1.3278   -0.5165 C   0  0  0  0  0  0  0  0  0  0  0  0
   -3.5170   -0.3317   -0.2637 C   0  0  0  0  0  0  0  0  0  0  0  0
   -3.3279    0.6129    0.7201 C   0  0  0  0  0  0  0  0  0  0  0  0
   -4.6637   -0.3930   -1.0237 C   0  0  0  0  0  0  0  0  0  0  0  0
   -4.3384    1.5449    0.9565 C   0  0  0  0  0  0  0  0  0  0  0  0
   -5.6742    0.5390   -0.7874 C   0  0  0  0  0  0  0  0  0  0  0  0
   -5.5116    1.5081    0.2027 C   0  0  0  0  0  0  0  0  0  0  0  0
  1 22  1  0
  2 16  2  0
  3 11  1  0
  3 12  1  0
  3 13  1  0
  4  5  1  0
  4  6  1  0
  4  7  1  0
  4  8  1  0
  5  9  1  0
  6 10  1  0
  7 11  1  0
  8 12  1  0
  9 10  1  0
 13 14  1  0
 14 15  1  0
 15 16  1  0
 16 17  1  0
 17 18  2  0
 17 19  1  0
 18 20  1  0
 19 21  2  0
 20 22  2  0
 21 22  1  0
M  END
>  <PUBCHEM_COMPOUND_CID>  (1) 
6161

>  <PUBCHEM_CONFORMER_RMSD>  (1) 
0.8

>  <PUBCHEM_CONFORMER_DIVERSEORDER>  (1) 
1
35
6
142
57
150
36
137
13
119
163
165
22
47
90
48
82
4
161
160
99
94
115
132
122
21
103
85
54
156
12
97
3
129
123
55
28
149
87
162
145
159
56
16
154
71
72
105
153
157
38
102
164
117
158
67
68
2
124
84
26
33
148
40
136
139
147
60
92
75
91
126
79
143
121
152
41
29
66
109
44
11
128
108
151
76
39
74
81
113
80
101
125
8
61
111
77
32
114
144
135
98
100
89
62
31
96
93
140
51
112
52
34
78
65
83
88
7
138
46
49
9
20
120
118
50
27
37
43
127
131
45
5
30
53
64
134
14
110
15
104
155
107
18
42
69
73
63
23
166
86
130
141
59
95
106
17
58
70
133
19
24
10
25
146
116

>  <PUBCHEM_MMFF94_PARTIAL_CHARGES>  (1) 
18
1 -0.19
11 0.27
12 0.27
13 0.27
15 0.06
16 0.42
17 0.09
18 -0.15
19 -0.15
2 -0.57
20 -0.15
21 -0.15
22 0.19
3 -0.81
45 0.15
46 0.15
47 0.15
48 0.15

>  <PUBCHEM_EFFECTIVE_ROTOR_COUNT>  (1) 
6.8

>  <PUBCHEM_PHARMACOPHORE_FEATURES>  (1) 
5
1 2 acceptor
1 3 cation
5 4 5 6 9 10 rings
6 17 18 19 20 21 22 rings
6 3 4 7 8 11 12 rings

>  <PUBCHEM_HEAVY_ATOM_COUNT>  (1) 
22

>  <PUBCHEM_ATOM_DEF_STEREO_COUNT>  (1) 
0

>  <PUBCHEM_ATOM_UDEF_STEREO_COUNT>  (1) 
0

>  <PUBCHEM_BOND_DEF_STEREO_COUNT>  (1) 
0

>  <PUBCHEM_BOND_UDEF_STEREO_COUNT>  (1) 
0

>  <PUBCHEM_ISOTOPIC_ATOM_COUNT>  (1) 
0

>  <PUBCHEM_COMPONENT_COUNT>  (1) 
1

>  <PUBCHEM_CACTVS_TAUTO_COUNT>  (1) 
2

>  <PUBCHEM_CONFORMER_ID>  (1) 
0000181100000001

>  <PUBCHEM_MMFF94_ENERGY>  (1) 
47.7191

>  <PUBCHEM_FEATURE_SELFOVERLAP>  (1) 
25.377

>  <PUBCHEM_SHAPE_FINGERPRINT>  (1) 
10378564 45 17846782888867223486
10498660 4 17917989469152328867
10622 236 12894257018667040764
10670039 82 18271808999377098592
10753850 27 10663817473272039439
11056379 131 18198901607722112359
12390115 104 18188216497450576923
12596602 18 17748828535645605513
12633257 1 15502669229511502483
12788726 201 17703231689863598993
12892183 10 14346058803253654834
13885169 86 17968668240630799588
1420 369 8790885198473688859
14251764 75 18042132101503465668
14257110 125 18410576184586306319
14341114 176 15357695267083114766
14341114 328 17822285786584780131
14347332 77 10159699101498440107
14528608 73 18413384349883724545
14840074 17 18040437698060480357
14848178 5 10663825165315879864
15019793 15 9652141457358958509
15183329 4 17060346197267240098
15238133 3 18340475743110825994
15342168 16 18334008380903341135
15575132 122 18335136445758830157
17780758 139 11314297369700629503
1813 80 10231758928397161970
19784866 240 11024109849961169627
1979834 28 13479413816903107945
21298829 104 18336547110872428813
21315763 87 7853576799024743708
22061861 79 14620792712728719609
22393880 68 16630237091103894798
23389318 12 14333142888657414196
23559900 14 16774071882186843155
245318 6 17823151183592714853
270888 7 18408041822800120781
2838139 119 18343299275310858700
312425 54 12468901075226011380
314194 84 10591761021516285174
3472631 163 18341895194999453165
34797466 226 16199572706262155683
3729539 64 14405194932589546965
38570 142 18261403234491047798
439807 62 11239699904446500357
474 4 18261106361877291667
5104073 3 17386277822598321682
54583773 228 18411693281008139581
57724786 102 18113335293470447282
59682541 52 16702025223288540972
6328613 192 18189625007144415628
633830 44 18335415798984688670
6438161 24 9294995848740875313
7288768 16 17894916234902803915
76465 3 10015866483125331907
7808743 9 18410572920089427507
7970288 3 9799689290333673965
960060 61 13038896755288034027

>  <PUBCHEM_SHAPE_MULTIPOLES>  (1) 
434.63
16.52
2.5
1.35
5.57
0.15
0.17
-12.78
-2.81
0.57
0.09
-0.69
0.1
-2.01

>  <PUBCHEM_SHAPE_SELFOVERLAP>  (1) 
911.956

>  <PUBCHEM_SHAPE_VOLUME>  (1) 
246.9

>  <PUBCHEM_COORDINATE_TYPE>  (1) 
2
5
10

$$$$
