6162
     RDKit          3D

 11 11  0  0  1  0  0  0  0  0999 V2000
    1.7772   -1.8378    0.0913 O   0  0  0  0  0  0  0  0  0  0  0  0
   -2.7281   -1.0737   -0.3891 O   0  0  0  0  0  0  0  0  0  0  0  0
   -0.4735   -1.4133   -0.1016 N   0  0  0  0  0  0  0  0  0  0  0  0
    1.0186    0.3804    0.6821 C   0  0  0  0  0  0  0  0  0  0  0  0
   -0.0285    1.2981    0.0547 C   0  0  0  0  0  0  0  0  0  0  0  0
   -1.4255    0.7972    0.4155 C   0  0  0  0  0  0  0  0  0  0  0  0
    2.4282    0.8881    0.3907 C   0  0  0  0  0  0  0  0  0  0  0  0
    0.8393   -1.0461    0.1852 C   0  0  0  0  0  0  0  0  0  0  0  0
   -1.6235   -0.6277   -0.0794 C   0  0  0  0  0  0  0  0  0  0  0  0
   -2.4965    1.7260   -0.1503 C   0  0  0  0  0  0  0  0  0  0  0  0
    2.7124    0.9088   -1.0990 C   0  0  0  0  0  0  0  0  0  0  0  0
  1  8  2  0
  2  9  2  0
  3  8  1  0
  3  9  1  0
  4  5  1  0
  4  7  1  0
  4  8  1  0
  5  6  1  0
  6  9  1  0
  6 10  1  0
  7 11  1  0
M  END
>  <PUBCHEM_COMPOUND_CID>  (1) 
6162

>  <PUBCHEM_CONFORMER_RMSD>  (1) 
0.4

>  <PUBCHEM_CONFORMER_DIVERSEORDER>  (1) 
1
12
15
9
6
8
2
4
11
3
16
13
10
7
14
17
5

>  <PUBCHEM_MMFF94_PARTIAL_CHARGES>  (1) 
8
1 -0.57
2 -0.57
21 0.37
3 -0.49
4 0.06
6 0.06
8 0.57
9 0.57

>  <PUBCHEM_EFFECTIVE_ROTOR_COUNT>  (1) 
1.8

>  <PUBCHEM_PHARMACOPHORE_FEATURES>  (1) 
5
1 1 acceptor
1 11 hydrophobe
1 2 acceptor
1 3 donor
6 3 4 5 6 8 9 rings

>  <PUBCHEM_HEAVY_ATOM_COUNT>  (1) 
11

>  <PUBCHEM_ATOM_DEF_STEREO_COUNT>  (1) 
0

>  <PUBCHEM_ATOM_UDEF_STEREO_COUNT>  (1) 
2

>  <PUBCHEM_BOND_DEF_STEREO_COUNT>  (1) 
0

>  <PUBCHEM_BOND_UDEF_STEREO_COUNT>  (1) 
0

>  <PUBCHEM_ISOTOPIC_ATOM_COUNT>  (1) 
0

>  <PUBCHEM_COMPONENT_COUNT>  (1) 
1

>  <PUBCHEM_CACTVS_TAUTO_COUNT>  (1) 
3

>  <PUBCHEM_CONFORMER_ID>  (1) 
0000181200000001

>  <PUBCHEM_MMFF94_ENERGY>  (1) 
18.6042

>  <PUBCHEM_FEATURE_SELFOVERLAP>  (1) 
25.371

>  <PUBCHEM_SHAPE_FINGERPRINT>  (1) 
11206711 2 18339920523597708549
12897270 3 18339078310306513509
13380535 21 18339936926072387601
14128692 85 18270121180567344394
15775835 57 18410582759849134980
16945 1 18266738159012824947
21040471 1 18411976953504203368
21501502 16 18410853218376863843
23552423 10 18334854961585139971
23559900 14 18201446870530394740
2748010 2 18339922623673003799
5084963 1 18058738046854855824
57177213 63 18260553346130069022

>  <PUBCHEM_SHAPE_MULTIPOLES>  (1) 
209.66
3.89
1.88
0.81
0.07
0.28
-0.07
-0.87
-0.73
0.26
-0.09
-0.33
-0.15
-0.27

>  <PUBCHEM_SHAPE_SELFOVERLAP>  (1) 
419.23

>  <PUBCHEM_SHAPE_VOLUME>  (1) 
122.9

>  <PUBCHEM_COORDINATE_TYPE>  (1) 
2
5
10

$$$$
