6179
     RDKit          3D

 10 10  0  0  1  0  0  0  0  0999 V2000
    2.3489    0.6219   -0.0660 N   0  0  0  0  0  0  0  0  0  0  0  0
    2.0328    1.5323    0.9799 N   0  0  0  0  0  0  0  0  0  0  0  0
    1.5144   -0.5793    0.1206 C   0  0  0  0  0  0  0  0  0  0  0  0
    0.0563   -0.2739    0.0466 C   0  0  0  0  0  0  0  0  0  0  0  0
    1.9473   -1.6469   -0.9006 C   0  0  0  0  0  0  0  0  0  0  0  0
   -0.4028    0.7358   -0.7992 C   0  0  0  0  0  0  0  0  0  0  0  0
   -0.8481   -0.9977    0.8235 C   0  0  0  0  0  0  0  0  0  0  0  0
   -1.7663    1.0218   -0.8681 C   0  0  0  0  0  0  0  0  0  0  0  0
   -2.2117   -0.7119    0.7546 C   0  0  0  0  0  0  0  0  0  0  0  0
   -2.6707    0.2979   -0.0913 C   0  0  0  0  0  0  0  0  0  0  0  0
  1  2  1  0
  1  3  1  0
  3  4  1  0
  3  5  1  0
  4  6  2  0
  4  7  1  0
  6  8  1  0
  7  9  2  0
  8 10  2  0
  9 10  1  0
M  END
>  <PUBCHEM_COMPOUND_CID>  (1) 
6179

>  <PUBCHEM_CONFORMER_RMSD>  (1) 
0.4

>  <PUBCHEM_CONFORMER_DIVERSEORDER>  (1) 
1
7
4
8
6
2
3
5

>  <PUBCHEM_MMFF94_PARTIAL_CHARGES>  (1) 
17
1 -0.63
10 -0.15
15 0.15
16 0.15
17 0.36
18 0.15
19 0.15
2 -0.72
20 0.15
21 0.36
22 0.36
3 0.41
4 -0.14
6 -0.15
7 -0.15
8 -0.15
9 -0.15

>  <PUBCHEM_EFFECTIVE_ROTOR_COUNT>  (1) 
2

>  <PUBCHEM_PHARMACOPHORE_FEATURES>  (1) 
3
1 1 donor
1 2 donor
6 4 6 7 8 9 10 rings

>  <PUBCHEM_HEAVY_ATOM_COUNT>  (1) 
10

>  <PUBCHEM_ATOM_DEF_STEREO_COUNT>  (1) 
0

>  <PUBCHEM_ATOM_UDEF_STEREO_COUNT>  (1) 
1

>  <PUBCHEM_BOND_DEF_STEREO_COUNT>  (1) 
0

>  <PUBCHEM_BOND_UDEF_STEREO_COUNT>  (1) 
0

>  <PUBCHEM_ISOTOPIC_ATOM_COUNT>  (1) 
0

>  <PUBCHEM_COMPONENT_COUNT>  (1) 
1

>  <PUBCHEM_CACTVS_TAUTO_COUNT>  (1) 
1

>  <PUBCHEM_CONFORMER_ID>  (1) 
0000182300000001

>  <PUBCHEM_MMFF94_ENERGY>  (1) 
22.6426

>  <PUBCHEM_FEATURE_SELFOVERLAP>  (1) 
16.566

>  <PUBCHEM_SHAPE_FINGERPRINT>  (1) 
10857977 72 17894914082991916505
12423570 1 9558038573129940381
12524768 44 18335139786778558447
12716758 59 17895195437630570939
12932741 1 18335702702298375471
12932764 1 18412550902900641591
15310529 11 17418372485007712539
16945 1 17458067053867560703
19973954 147 18410857620528710989
20201158 50 18338798905688928702
20645464 45 18334288764615032097
20711978 78 18202003200831196638
21040471 1 17459748116783318511
23211744 41 18335974371896449850
23552423 10 17240773843224183075
2748010 2 18186804660396144239
29004967 10 18131070377071101086
369184 2 15068611717042125773
5084963 1 18041287551802484423

>  <PUBCHEM_SHAPE_MULTIPOLES>  (1) 
195.83
3.69
1.47
1.04
0.06
0.02
0.01
0.12
-0.01
-0.5
-0.03
-0.15
0.04
0.97

>  <PUBCHEM_SHAPE_SELFOVERLAP>  (1) 
396.676

>  <PUBCHEM_SHAPE_VOLUME>  (1) 
114.9

>  <PUBCHEM_COORDINATE_TYPE>  (1) 
2
5
10

$$$$
