618
     RDKit          2D

 16 15  0  0  1  0  0  0  0  0999 V2000
    0.0000    0.0000    0.0000 P   0  0  0  0  0  0  0  0  0  0  0  0
    0.0000    0.0000    0.0000 O   0  0  0  0  0  0  0  0  0  0  0  0
    0.0000    0.0000    0.0000 O   0  0  0  0  0  0  0  0  0  0  0  0
    0.0000    0.0000    0.0000 O   0  0  0  0  0  0  0  0  0  0  0  0
    0.0000    0.0000    0.0000 O   0  0  0  0  0  0  0  0  0  0  0  0
    0.0000    0.0000    0.0000 O   0  0  0  0  0  0  0  0  0  0  0  0
    0.0000    0.0000    0.0000 O   0  0  0  0  0  0  0  0  0  0  0  0
    0.0000    0.0000    0.0000 O   0  0  0  0  0  0  0  0  0  0  0  0
    0.0000    0.0000    0.0000 O   0  0  0  0  0  0  0  0  0  0  0  0
    0.0000    0.0000    0.0000 O   0  0  0  0  0  0  0  0  0  0  0  0
    0.0000    0.0000    0.0000 C   0  0  0  0  0  0  0  0  0  0  0  0
    0.0000    0.0000    0.0000 C   0  0  0  0  0  0  0  0  0  0  0  0
    0.0000    0.0000    0.0000 C   0  0  0  0  0  0  0  0  0  0  0  0
    0.0000    0.0000    0.0000 C   0  0  0  0  0  0  0  0  0  0  0  0
    0.0000    0.0000    0.0000 C   0  0  0  0  0  0  0  0  0  0  0  0
    0.0000    0.0000    0.0000 C   0  0  0  0  0  0  0  0  0  0  0  0
  1  6  1  0
  1  8  1  0
  1  9  1  0
  1 10  2  0
  2 11  1  0
  3 12  1  0
  4 13  1  0
  5 14  1  0
  6 15  1  0
  7 16  1  0
 11 12  1  0
 11 13  1  0
 12 14  1  0
 13 15  1  0
 14 16  1  0
M  END
>  <PUBCHEM_COMPOUND_CID>  (1) 
618

>  <PUBCHEM_CONFORMER_RMSD>  (1) 
0.8

>  <PUBCHEM_CONFORMER_DIVERSEORDER>  (1) 
46
127
80
367
366
304
196
349
285
229
139
270
355
15
175
33
29
361
263
343
308
298
122
320
153
73
342
377
25
3
86
236
72
204
8
379
82
237
274
13
49
245
134
251
212
221
168
340
169
293
373
167
365
113
240
181
376
228
154
53
172
85
271
184
148
183
10
324
303
14
353
23
260
262
147
91
5
194
120
246
17
57
9
71
244
360
146
31
363
150
326
18
297
205
94
357
296
218
199
164
100
89
301
264
208
144
282
136
22
79
170
157
6
132
104
295
117
2
331
119
345
45
163
56
141
54
334
101
140
283
368
65
201
179
93
338
162
159
280
233
40
336
388
66
369
268
386
64
32
387
128
61
21
346
115
288
328
219
305
103
190
380
88
185
187
76
259
30
138
200
382
186
37
223
68
289
47
337
166
60
383
267
209
249
171
130
258
266
327
217
131
256
272
137
110
197
48
220
39
35
202
176
335
286
74
182
87
255
315
227
302
278
339
362
27
112
19
12
307
98
107
70
239
265
26
381
317
125
50
206
359
52
109
161
370
16
333
312
207
250
306
124
215
28
1
121
269
192
92
34
300
173
180
292
105
332
211
257
235
114
241
135
318
24
191
311
59
90
234
51
11
330
214
152
69
291
188
156
116
350
177
44
78
277
299
352
62
225
149
118
321
232
242
374
348
310
158
253
63
178
133
97
4
290
254
323
108
385
36
155
7
347
325
351
43
129
248
281
329
341
294
41
224
96
75
193
261
222
189
38
106
230
102
356
123
174
145
83
195
313
276
55
309
77
20
231
216
210
319
314
243
42
111
354
238
99
67
143
151
126
364
198
213
142
165
372
81
378
252
84
371
287
284
279
322
344
275
58
203
160
273
247
226
375
358
316
95
384

>  <PUBCHEM_MMFF94_PARTIAL_CHARGES>  (1) 
23
1 1.51
10 -0.7
11 0.28
12 0.28
13 0.28
14 0.28
15 0.28
16 0.28
2 -0.68
25 0.4
26 0.4
27 0.4
28 0.4
29 0.4
3 -0.68
30 0.5
31 0.5
4 -0.68
5 -0.68
6 -0.55
7 -0.68
8 -0.77
9 -0.77

>  <PUBCHEM_EFFECTIVE_ROTOR_COUNT>  (1) 
7

>  <PUBCHEM_PHARMACOPHORE_FEATURES>  (1) 
14
1 10 acceptor
1 2 acceptor
1 2 donor
1 3 acceptor
1 3 donor
1 4 acceptor
1 4 donor
1 5 acceptor
1 5 donor
1 7 acceptor
1 7 donor
1 8 acceptor
1 9 acceptor
4 1 8 9 10 anion

>  <PUBCHEM_HEAVY_ATOM_COUNT>  (1) 
16

>  <PUBCHEM_ATOM_DEF_STEREO_COUNT>  (1) 
0

>  <PUBCHEM_ATOM_UDEF_STEREO_COUNT>  (1) 
4

>  <PUBCHEM_BOND_DEF_STEREO_COUNT>  (1) 
0

>  <PUBCHEM_BOND_UDEF_STEREO_COUNT>  (1) 
0

>  <PUBCHEM_ISOTOPIC_ATOM_COUNT>  (1) 
0

>  <PUBCHEM_COMPONENT_COUNT>  (1) 
1

>  <PUBCHEM_CACTVS_TAUTO_COUNT>  (1) 
1

$$$$
