6181
     RDKit          3D

 15 15  0  0  1  0  0  0  0  0999 V2000
    2.1500    3.2414   -0.3235 I   0  0  0  0  0  0  0  0  0  0  0  0
    3.4177   -2.6488    0.6481 I   0  0  0  0  0  0  0  0  0  0  0  0
   -2.1917    1.1341    1.4567 O   0  0  0  0  0  0  0  0  0  0  0  0
    3.7870    0.5584    0.4428 O   0  0  0  0  0  0  0  0  0  0  0  0
   -3.9114    1.1193   -0.0312 O   0  0  0  0  0  0  0  0  0  0  0  0
   -3.6301   -1.6345   -0.1605 N   0  0  0  0  0  0  0  0  0  0  0  0
   -1.4882   -0.8195   -1.0282 C   0  0  0  0  0  0  0  0  0  0  0  0
   -2.4514   -0.8299    0.1666 C   0  0  0  0  0  0  0  0  0  0  0  0
   -0.0757   -0.4506   -0.6344 C   0  0  0  0  0  0  0  0  0  0  0  0
    0.8077   -1.4514   -0.2662 C   0  0  0  0  0  0  0  0  0  0  0  0
    0.3055    0.8805   -0.6504 C   0  0  0  0  0  0  0  0  0  0  0  0
   -2.9498    0.5662    0.4834 C   0  0  0  0  0  0  0  0  0  0  0  0
    1.6086    1.2209   -0.2872 C   0  0  0  0  0  0  0  0  0  0  0  0
    2.1106   -1.1110    0.0972 C   0  0  0  0  0  0  0  0  0  0  0  0
    2.5110    0.2251    0.0868 C   0  0  0  0  0  0  0  0  0  0  0  0
  1 13  1  0
  2 14  1  0
  3 12  1  0
  4 15  1  0
  5 12  2  0
  6  8  1  0
  7  8  1  0
  7  9  1  0
  8 12  1  0
  9 10  2  0
  9 11  1  0
 10 14  1  0
 11 13  2  0
 13 15  1  0
 14 15  2  0
M  END
>  <PUBCHEM_COMPOUND_CID>  (1) 
6181

>  <PUBCHEM_CONFORMER_RMSD>  (1) 
0.6

>  <PUBCHEM_CONFORMER_DIVERSEORDER>  (1) 
1
7
4
5
10
3
8
2
6
9

>  <PUBCHEM_MMFF94_PARTIAL_CHARGES>  (1) 
21
1 -0.08
10 -0.15
11 -0.15
12 0.66
13 0.08
14 0.08
15 0.08
19 0.15
2 -0.08
20 0.15
21 0.36
22 0.36
23 0.5
24 0.45
3 -0.65
4 -0.53
5 -0.57
6 -0.99
7 0.14
8 0.33
9 -0.14

>  <PUBCHEM_EFFECTIVE_ROTOR_COUNT>  (1) 
3

>  <PUBCHEM_PHARMACOPHORE_FEATURES>  (1) 
9
1 1 hydrophobe
1 2 hydrophobe
1 3 acceptor
1 4 donor
1 5 acceptor
1 6 cation
1 6 donor
3 3 5 12 anion
6 9 10 11 13 14 15 rings

>  <PUBCHEM_HEAVY_ATOM_COUNT>  (1) 
15

>  <PUBCHEM_ATOM_DEF_STEREO_COUNT>  (1) 
0

>  <PUBCHEM_ATOM_UDEF_STEREO_COUNT>  (1) 
1

>  <PUBCHEM_BOND_DEF_STEREO_COUNT>  (1) 
0

>  <PUBCHEM_BOND_UDEF_STEREO_COUNT>  (1) 
0

>  <PUBCHEM_ISOTOPIC_ATOM_COUNT>  (1) 
0

>  <PUBCHEM_COMPONENT_COUNT>  (1) 
1

>  <PUBCHEM_CACTVS_TAUTO_COUNT>  (1) 
2

>  <PUBCHEM_CONFORMER_ID>  (1) 
0000182500000001

>  <PUBCHEM_MMFF94_ENERGY>  (1) 
29.9814

>  <PUBCHEM_FEATURE_SELFOVERLAP>  (1) 
45.726

>  <PUBCHEM_SHAPE_FINGERPRINT>  (1) 
10980938 120 18411140242609641518
11357001 24 17614552649841681090
11471102 22 18187372055334690354
12251169 10 18410294713719849183
12553582 1 18119238468426893226
12696612 119 18411141333314992076
13140716 1 17975685410112540778
13533116 47 18334015025523833195
14144814 61 18412544305772820151
14178342 30 18196350732239665634
14790565 3 18263369256166950724
15375462 189 17823697452178079162
15375462 478 18059850610819659467
15442244 35 18339080376169906610
15501101 241 18113616781316144990
15775835 57 18202289112556720161
16945 1 18263630900962241638
17041 49 18338801096021827978
17492 89 18411419531480536923
192875 21 18200583684439419001
200 152 18272075146158849151
201361 129 18338803432737432996
20233049 118 17489588969925408384
20510252 161 17042049533649749608
20559304 39 18342178920322774652
20671657 1 18337676429224228222
20871998 22 18124313801326419318
21041028 32 18192144889846408700
21524375 3 17982740971616942780
21665062 11 18338813212024772192
22445834 79 18411134761915016590
2255824 54 18263083374294545340
22854114 111 18267306606461386805
23557571 272 14979955921536344949
23559900 14 18411974758902749483
23598291 2 18129928049363193078
2748010 2 16758311173783162798
305870 269 18265898140877770980
3091708 16 9791338499884133856
4175511 71 18266470806104822310
474 4 18192428791174134688
6992083 37 18198348346786752667
7097593 13 18411138017473827218
7364860 26 18339645641611906084

>  <PUBCHEM_SHAPE_MULTIPOLES>  (1) 
309.98
6.61
3.26
0.95
3.9
1.67
-0.1
-1.84
-1.41
-3.64
-0.11
0.26
0.03
-0.83

>  <PUBCHEM_SHAPE_SELFOVERLAP>  (1) 
599.828

>  <PUBCHEM_SHAPE_VOLUME>  (1) 
193.9

>  <PUBCHEM_COORDINATE_TYPE>  (1) 
2
5
10

$$$$
