6183
     RDKit          3D

 11 11  0  0  1  0  0  0  0  0999 V2000
   -3.2459    0.1678   -0.0920 N   0  0  0  0  0  0  0  0  0  0  0  0
   -4.0532    0.9345    0.7998 N   0  0  0  0  0  0  0  0  0  0  0  0
   -0.8851   -0.3964   -0.6581 C   0  0  0  0  0  0  0  0  0  0  0  0
   -1.8462    0.3747    0.2689 C   0  0  0  0  0  0  0  0  0  0  0  0
    0.5618   -0.1153   -0.2805 C   0  0  0  0  0  0  0  0  0  0  0  0
   -1.1576   -1.9061   -0.6744 C   0  0  0  0  0  0  0  0  0  0  0  0
    1.1760    1.0133   -0.7843 C   0  0  0  0  0  0  0  0  0  0  0  0
    1.2174   -0.9975    0.5543 C   0  0  0  0  0  0  0  0  0  0  0  0
    2.5026    1.2708   -0.4383 C   0  0  0  0  0  0  0  0  0  0  0  0
    2.5438   -0.7399    0.9004 C   0  0  0  0  0  0  0  0  0  0  0  0
    3.1864    0.3942    0.4042 C   0  0  0  0  0  0  0  0  0  0  0  0
  1  2  1  0
  1  4  1  0
  3  4  1  0
  3  5  1  0
  3  6  1  0
  5  7  2  0
  5  8  1  0
  7  9  1  0
  8 10  2  0
  9 11  2  0
 10 11  1  0
M  END
>  <PUBCHEM_COMPOUND_CID>  (1) 
6183

>  <PUBCHEM_CONFORMER_RMSD>  (1) 
0.6

>  <PUBCHEM_CONFORMER_DIVERSEORDER>  (1) 
1
10
13
9
12
4
5
8
6
7
3
11
2

>  <PUBCHEM_MMFF94_PARTIAL_CHARGES>  (1) 
18
1 -0.63
10 -0.15
11 -0.15
18 0.15
19 0.15
2 -0.72
20 0.36
21 0.15
22 0.15
23 0.15
24 0.36
25 0.36
3 0.14
4 0.27
5 -0.14
7 -0.15
8 -0.15
9 -0.15

>  <PUBCHEM_EFFECTIVE_ROTOR_COUNT>  (1) 
3

>  <PUBCHEM_PHARMACOPHORE_FEATURES>  (1) 
4
1 1 donor
1 2 donor
1 6 hydrophobe
6 5 7 8 9 10 11 rings

>  <PUBCHEM_HEAVY_ATOM_COUNT>  (1) 
11

>  <PUBCHEM_ATOM_DEF_STEREO_COUNT>  (1) 
0

>  <PUBCHEM_ATOM_UDEF_STEREO_COUNT>  (1) 
1

>  <PUBCHEM_BOND_DEF_STEREO_COUNT>  (1) 
0

>  <PUBCHEM_BOND_UDEF_STEREO_COUNT>  (1) 
0

>  <PUBCHEM_ISOTOPIC_ATOM_COUNT>  (1) 
0

>  <PUBCHEM_COMPONENT_COUNT>  (1) 
1

>  <PUBCHEM_CACTVS_TAUTO_COUNT>  (1) 
1

>  <PUBCHEM_CONFORMER_ID>  (1) 
0000182700000001

>  <PUBCHEM_MMFF94_ENERGY>  (1) 
24.8664

>  <PUBCHEM_FEATURE_SELFOVERLAP>  (1) 
21.625

>  <PUBCHEM_SHAPE_FINGERPRINT>  (1) 
10219947 1 18261108543488114471
10465860 228 17913783725638804441
10980938 120 18260264148738863100
12138202 97 15554437548108512989
12251169 10 18186523202593885051
12932764 1 17967802869128814286
14325111 11 18413108364112432559
15775835 57 18411140268010342528
15906896 17 18128532850527391903
16945 1 18188472632536348918
17844478 74 16732976509769648460
18186145 218 13973970895928524359
20281407 28 13695585538128040961
20871998 22 17973998458580933666
23402539 116 17060048229373662541
2748010 2 17686315600411836614
276578 36 18130795520723448131
29004967 10 17022892450543092468

>  <PUBCHEM_SHAPE_MULTIPOLES>  (1) 
216.41
5.53
1.45
0.94
3.7
0.37
0.01
-1.85
1.62
0.03
-0.19
0
0.04
-0.86

>  <PUBCHEM_SHAPE_SELFOVERLAP>  (1) 
435.461

>  <PUBCHEM_SHAPE_VOLUME>  (1) 
126.8

>  <PUBCHEM_COORDINATE_TYPE>  (1) 
2
5
10

$$$$
