6188
     RDKit          3D

 33 36  0  0  1  0  0  0  0  0999 V2000
   -5.4426   -0.4464   -0.1080 N   0  0  0  0  0  0  0  0  0  0  0  0
    5.8193   -0.3036   -0.1688 N   0  0  0  0  0  0  0  0  0  0  0  0
   -2.9539   -0.0915    0.1429 C   0  0  0  0  0  0  0  0  0  0  0  0
   -2.0773    1.0769   -0.3598 C   0  0  0  0  0  0  0  0  0  0  0  0
   -0.6691    1.0726    0.2462 C   0  0  0  0  0  0  0  0  0  0  0  0
    0.0297   -0.2706   -0.1366 C   0  0  0  0  0  0  0  0  0  0  0  0
    1.5128   -0.3481    0.3893 C   0  0  0  0  0  0  0  0  0  0  0  0
   -4.2502    0.2587   -0.6119 C   0  0  0  0  0  0  0  0  0  0  0  0
    2.2787    0.9169   -0.1057 C   0  0  0  0  0  0  0  0  0  0  0  0
   -2.2869   -1.4045   -0.2897 C   0  0  0  0  0  0  0  0  0  0  0  0
   -0.8420   -1.5025    0.2333 C   0  0  0  0  0  0  0  0  0  0  0  0
   -2.9693    2.3033   -0.1693 C   0  0  0  0  0  0  0  0  0  0  0  0
    0.1502    2.2759   -0.2365 C   0  0  0  0  0  0  0  0  0  0  0  0
   -4.3929    1.7816   -0.4523 C   0  0  0  0  0  0  0  0  0  0  0  0
    1.5861    2.2318    0.2748 C   0  0  0  0  0  0  0  0  0  0  0  0
    2.2168   -1.6159   -0.1948 C   0  0  0  0  0  0  0  0  0  0  0  0
    3.7580    0.9410    0.3290 C   0  0  0  0  0  0  0  0  0  0  0  0
    4.4136   -0.4425    0.3016 C   0  0  0  0  0  0  0  0  0  0  0  0
   -3.1720   -0.0977    1.6785 C   0  0  0  0  0  0  0  0  0  0  0  0
    3.6836   -1.4219   -0.6029 C   0  0  0  0  0  0  0  0  0  0  0  0
    1.5319   -0.4405    1.9381 C   0  0  0  0  0  0  0  0  0  0  0  0
   -5.1280   -1.9212    0.1970 C   0  0  0  0  0  0  0  0  0  0  0  0
   -5.9633    0.1997    1.1876 C   0  0  0  0  0  0  0  0  0  0  0  0
   -6.5839   -0.4143   -1.1393 C   0  0  0  0  0  0  0  0  0  0  0  0
    5.8717   -0.2717   -1.6993 C   0  0  0  0  0  0  0  0  0  0  0  0
    6.4372    0.9924    0.3645 C   0  0  0  0  0  0  0  0  0  0  0  0
    6.6670   -1.4818    0.3203 C   0  0  0  0  0  0  0  0  0  0  0  0
   -4.6591   -2.6029   -1.0697 C   0  0  0  0  0  0  0  0  0  0  0  0
   -7.1840   -0.5559    1.6654 C   0  0  0  0  0  0  0  0  0  0  0  0
   -6.9548    1.0239   -1.4275 C   0  0  0  0  0  0  0  0  0  0  0  0
    5.0634    0.9050   -2.2010 C   0  0  0  0  0  0  0  0  0  0  0  0
    6.4219    0.9660    1.8773 C   0  0  0  0  0  0  0  0  0  0  0  0
    8.0873   -1.3124   -0.1728 C   0  0  0  0  0  0  0  0  0  0  0  0
  1  8  1  0
  1 22  1  0
  1 23  1  0
  1 24  1  0
  2 18  1  0
  2 25  1  0
  2 26  1  0
  2 27  1  0
  3  4  1  0
  3  8  1  0
  3 10  1  0
  3 19  1  0
  4  5  1  0
  4 12  1  0
  5  6  1  0
  5 13  1  0
  6  7  1  0
  6 11  1  0
  7  9  1  0
  7 16  1  0
  7 21  1  0
  8 14  1  0
  9 15  1  0
  9 17  1  0
 10 11  1  0
 12 14  1  0
 13 15  1  0
 16 20  1  0
 17 18  1  0
 18 20  1  0
 22 28  1  0
 23 29  1  0
 24 30  1  0
 25 31  1  0
 26 32  1  0
 27 33  1  0
M  CHG  2   1   1   2   1
M  END
>  <PUBCHEM_COMPOUND_CID>  (1) 
6188

>  <PUBCHEM_CONFORMER_RMSD>  (1) 
1

>  <PUBCHEM_CONFORMER_DIVERSEORDER>  (1) 
1
100
72
17
40
98
102
19
42
26
18
101
85
41
21
73
47
36
20
25
96
37
6
87
44
45
39
7
99
30
52
43
88
86
38
48
29
89
75
49
27
76
84
31
50
67
53
32
95
58
28
46
68
51
33
71
57
82
66
62
4
70
2
60
69
3
59
5
56
61
16
78
83
64
77
97
11
54
80
15
55
79
90
8
74
81
94
12
63
23
9
93
65
24
13
92
10
91
14
34
35
22

>  <PUBCHEM_MMFF94_PARTIAL_CHARGES>  (1) 
10
1 -1.01
18 0.5
2 -1.01
22 0.5
23 0.5
24 0.5
25 0.5
26 0.5
27 0.5
8 0.5

>  <PUBCHEM_EFFECTIVE_ROTOR_COUNT>  (1) 
10.2

>  <PUBCHEM_PHARMACOPHORE_FEATURES>  (1) 
6
1 1 cation
1 2 cation
5 3 4 8 12 14 rings
6 3 4 5 6 10 11 rings
6 5 6 7 9 13 15 rings
6 7 9 16 17 18 20 rings

>  <PUBCHEM_HEAVY_ATOM_COUNT>  (1) 
33

>  <PUBCHEM_ATOM_DEF_STEREO_COUNT>  (1) 
3

>  <PUBCHEM_ATOM_UDEF_STEREO_COUNT>  (1) 
5

>  <PUBCHEM_BOND_DEF_STEREO_COUNT>  (1) 
0

>  <PUBCHEM_BOND_UDEF_STEREO_COUNT>  (1) 
0

>  <PUBCHEM_ISOTOPIC_ATOM_COUNT>  (1) 
0

>  <PUBCHEM_COMPONENT_COUNT>  (1) 
1

>  <PUBCHEM_CACTVS_TAUTO_COUNT>  (1) 
1

>  <PUBCHEM_CONFORMER_ID>  (1) 
0000182C00000001

>  <PUBCHEM_MMFF94_ENERGY>  (1) 
231.7892

>  <PUBCHEM_FEATURE_SELFOVERLAP>  (1) 
30.54

>  <PUBCHEM_SHAPE_FINGERPRINT>  (1) 
10 15 18335976558821047264
11135926 11 18412260602146387783
11315181 36 17968100811084172509
11524674 6 16630525150524017951
11578080 2 13613144109180703313
11646440 116 18341900696626050520
11719270 70 18334572422074043242
11963148 33 18410848859387174046
11991303 11 15285650931672820210
12011746 2 18334853914013870957
12107698 1 18409168822397919689
12166972 35 17822015315604562364
12516196 113 18202281411786054808
12788726 201 18261949644615246009
13533116 47 13973977476219557084
13685833 64 18413672413303337528
13782708 43 17847060012483283934
13811026 1 18341887498101482268
13914758 101 15864063235183846060
14068700 675 18273214214034728265
14251764 18 17489868249778120072
14294032 229 17533211969146172916
14849402 71 17774718791970086488
14856354 85 18409452509805151167
15082195 135 18262534671259530212
15131766 46 16155701166096486750
15183329 4 18411135831308833406
15352257 5 18273215283433995310
15361156 5 18261680376056331391
15439362 3 17170129276864462804
15849732 13 18272083911595951276
16087824 20 18265048043441229061
18603816 31 17060324237511186279
18608769 82 17676780867894576179
18681886 176 18340476850785392849
19319366 153 17749103396600196474
19958102 18 18060143115278064487
20105231 36 18261121768294410227
21130935 74 18131632309460658386
21267235 1 18408046207987902464
21521721 280 17704068534492379426
21781051 124 17895489110467526554
21792961 116 18114460059125953222
22149856 69 18340781355102639896
23198884 109 15574713595419527917
23522609 53 18121250703164611909
23559900 14 18269546290673652601
23569943 247 17558845978835732038
24771293 8 18200589315268424232
24771750 20 17827375567491286876
249057 3 18411696608984736357
3004659 81 18040152916654997636
3178227 256 18334023804246556395
335352 9 18410571794755086375
3383291 50 18260831522672676139
34797466 226 17418095434237992748
350125 39 18342458170485314113
3633792 109 18131345294229012233
397830 11 16987702662485092114
4073 2 18260550051890692530
4093350 32 16558754529447953072
4325135 7 18260548905244746014
4340502 62 14979955861881660908
5104073 3 18339359639417834704
59755656 215 18410853244104612783
59755656 520 16805322214762564979

>  <PUBCHEM_SHAPE_MULTIPOLES>  (1) 
669.16
21.15
2.19
1.49
7.29
0.12
0.1
-4.15
-1.08
-0.84
-0.33
0.18
0.07
0.49

>  <PUBCHEM_SHAPE_SELFOVERLAP>  (1) 
1381.41

>  <PUBCHEM_SHAPE_VOLUME>  (1) 
378.3

>  <PUBCHEM_COORDINATE_TYPE>  (1) 
2
5
10

$$$$
