619
     RDKit          3D

 10  9  0  0  1  0  0  0  0  0999 V2000
   -1.0843   -0.3810   -1.3668 O   0  0  0  0  0  0  0  0  0  0  0  0
   -0.3892    1.9368    0.1585 O   0  0  0  0  0  0  0  0  0  0  0  0
   -3.4208   -0.9669    0.0136 O   0  0  0  0  0  0  0  0  0  0  0  0
    2.0089    1.0908   -0.5861 O   0  0  0  0  0  0  0  0  0  0  0  0
    3.2387   -1.2059    0.0032 O   0  0  0  0  0  0  0  0  0  0  0  0
   -1.0944   -0.3693    0.0633 C   0  0  0  0  0  0  0  0  0  0  0  0
   -0.0501    0.6247    0.5834 C   0  0  0  0  0  0  0  0  0  0  0  0
   -2.5070    0.0091    0.5045 C   0  0  0  0  0  0  0  0  0  0  0  0
    1.3609    0.2989    0.0992 C   0  0  0  0  0  0  0  0  0  0  0  0
    1.9373   -1.0372    0.5272 C   0  0  0  0  0  0  0  0  0  0  0  0
  1  6  1  0
  2  7  1  0
  3  8  1  0
  4  9  2  0
  5 10  1  0
  6  7  1  0
  6  8  1  0
  7  9  1  0
  9 10  1  0
M  END
>  <PUBCHEM_COMPOUND_CID>  (1) 
619

>  <PUBCHEM_CONFORMER_RMSD>  (1) 
0.6

>  <PUBCHEM_CONFORMER_DIVERSEORDER>  (1) 
1
87
144
90
39
133
37
118
120
113
15
132
123
30
77
108
125
96
13
21
74
52
3
7
8
97
106
26
128
81
50
102
44
114
109
104
61
23
140
2
138
136
45
27
20
130
55
53
16
131
68
80
103
6
92
101
59
139
40
11
35
117
84
24
135
60
126
142
62
85
9
42
66
33
93
47
89
57
110
5
88
129
22
56
95
121
32
75
70
12
28
116
91
137
38
98
124
51
69
122
34
64
72
17
112
25
127
46
83
65
78
76
63
79
10
29
105
99
111
94
4
48
71
134
100
14
67
49
18
82
43
119
73
143
86
107
36
31
19
54
115
141
41
58

>  <PUBCHEM_MMFF94_PARTIAL_CHARGES>  (1) 
14
1 -0.68
10 0.34
17 0.4
18 0.4
19 0.4
2 -0.68
20 0.4
3 -0.68
4 -0.57
5 -0.68
6 0.28
7 0.34
8 0.28
9 0.45

>  <PUBCHEM_EFFECTIVE_ROTOR_COUNT>  (1) 
4

>  <PUBCHEM_PHARMACOPHORE_FEATURES>  (1) 
9
1 1 acceptor
1 1 donor
1 2 acceptor
1 2 donor
1 3 acceptor
1 3 donor
1 4 acceptor
1 5 acceptor
1 5 donor

>  <PUBCHEM_HEAVY_ATOM_COUNT>  (1) 
10

>  <PUBCHEM_ATOM_DEF_STEREO_COUNT>  (1) 
0

>  <PUBCHEM_ATOM_UDEF_STEREO_COUNT>  (1) 
2

>  <PUBCHEM_BOND_DEF_STEREO_COUNT>  (1) 
0

>  <PUBCHEM_BOND_UDEF_STEREO_COUNT>  (1) 
0

>  <PUBCHEM_ISOTOPIC_ATOM_COUNT>  (1) 
0

>  <PUBCHEM_COMPONENT_COUNT>  (1) 
1

>  <PUBCHEM_CACTVS_TAUTO_COUNT>  (1) 
5

>  <PUBCHEM_CONFORMER_ID>  (1) 
0000026B00000001

>  <PUBCHEM_MMFF94_ENERGY>  (1) 
7.142

>  <PUBCHEM_FEATURE_SELFOVERLAP>  (1) 
45.705

>  <PUBCHEM_SHAPE_FINGERPRINT>  (1) 
12897270 3 15719391737232089019
12932764 1 17845934138535824217
14128692 85 18409452457848402570
15310529 11 18409166644754425317
20201158 50 18113056025780165362
20871998 184 17987794082149717044
21293036 1 13045954503183503115
23552333 60 18343308093152965704
23552423 10 18260269620411075832
29004967 10 18261955253341030057

>  <PUBCHEM_SHAPE_MULTIPOLES>  (1) 
176.45
4.39
1.38
0.85
0.58
0.42
0.16
-2.04
-0.1
-0.37
-0.04
0.13
-0.03
-0.28

>  <PUBCHEM_SHAPE_SELFOVERLAP>  (1) 
332.031

>  <PUBCHEM_SHAPE_VOLUME>  (1) 
108.9

>  <PUBCHEM_COORDINATE_TYPE>  (1) 
2
5
10

$$$$
