6190
     RDKit          3D

 31 34  0  0  1  0  0  0  0  0999 V2000
   -4.4709   -0.9636    0.2703 N   0  0  0  0  0  0  0  0  0  0  0  0
    4.4305   -1.4279    0.2748 N   0  0  0  0  0  0  0  0  0  0  0  0
   -2.6391    0.7188   -0.1667 C   0  0  0  0  0  0  0  0  0  0  0  0
   -1.6166    0.8214   -1.3227 C   0  0  0  0  0  0  0  0  0  0  0  0
   -0.3277    1.5950   -0.9649 C   0  0  0  0  0  0  0  0  0  0  0  0
    0.3298    1.1086    0.3558 C   0  0  0  0  0  0  0  0  0  0  0  0
    1.6492    1.9036    0.6979 C   0  0  0  0  0  0  0  0  0  0  0  0
   -3.5942   -0.3469   -0.7445 C   0  0  0  0  0  0  0  0  0  0  0  0
    2.6222    1.8600   -0.5276 C   0  0  0  0  0  0  0  0  0  0  0  0
   -1.9453    0.2764    1.1425 C   0  0  0  0  0  0  0  0  0  0  0  0
   -0.7149    1.1157    1.4902 C   0  0  0  0  0  0  0  0  0  0  0  0
   -1.4155   -0.6385   -1.7783 C   0  0  0  0  0  0  0  0  0  0  0  0
    0.6621    1.5891   -2.1393 C   0  0  0  0  0  0  0  0  0  0  0  0
   -2.6942   -1.3910   -1.3957 C   0  0  0  0  0  0  0  0  0  0  0  0
    1.9469    2.3453   -1.8203 C   0  0  0  0  0  0  0  0  0  0  0  0
    2.3895    1.3168    1.9373 C   0  0  0  0  0  0  0  0  0  0  0  0
    3.2505    0.4640   -0.7422 C   0  0  0  0  0  0  0  0  0  0  0  0
   -3.3846    2.0457    0.0530 C   0  0  0  0  0  0  0  0  0  0  0  0
    3.9351   -0.0471    0.5202 C   0  0  0  0  0  0  0  0  0  0  0  0
    2.9870   -0.0689    1.7110 C   0  0  0  0  0  0  0  0  0  0  0  0
    1.3362    3.3822    1.0492 C   0  0  0  0  0  0  0  0  0  0  0  0
   -5.3733   -2.0384   -0.3582 C   0  0  0  0  0  0  0  0  0  0  0  0
   -5.3797    0.0877    0.9288 C   0  0  0  0  0  0  0  0  0  0  0  0
   -3.6451   -1.6333    1.3812 C   0  0  0  0  0  0  0  0  0  0  0  0
    3.2637   -2.3763   -0.0275 C   0  0  0  0  0  0  0  0  0  0  0  0
    5.3920   -1.4539   -0.9198 C   0  0  0  0  0  0  0  0  0  0  0  0
    5.1769   -1.9622    1.5035 C   0  0  0  0  0  0  0  0  0  0  0  0
   -6.2561   -1.3972   -1.4064 C   0  0  0  0  0  0  0  0  0  0  0  0
   -6.2776   -0.5923    1.9389 C   0  0  0  0  0  0  0  0  0  0  0  0
    3.8058   -3.7626   -0.2991 C   0  0  0  0  0  0  0  0  0  0  0  0
    6.5577   -0.5303   -0.6413 C   0  0  0  0  0  0  0  0  0  0  0  0
  1  8  1  0
  1 22  1  0
  1 23  1  0
  1 24  1  0
  2 19  1  0
  2 25  1  0
  2 26  1  0
  2 27  1  0
  3  4  1  0
  3  8  1  0
  3 10  1  0
  3 18  1  0
  4  5  1  0
  4 12  1  0
  5  6  1  0
  5 13  1  0
  6  7  1  0
  6 11  1  0
  7  9  1  0
  7 16  1  0
  7 21  1  0
  8 14  1  0
  9 15  1  0
  9 17  1  0
 10 11  1  0
 12 14  1  0
 13 15  1  0
 16 20  1  0
 17 19  1  0
 19 20  1  0
 22 28  1  0
 23 29  1  0
 25 30  1  0
 26 31  1  0
M  CHG  2   1   1   2   1
M  END
>  <PUBCHEM_COMPOUND_CID>  (1) 
6190

>  <PUBCHEM_CONFORMER_RMSD>  (1) 
1

>  <PUBCHEM_CONFORMER_DIVERSEORDER>  (1) 
3
13
15
22
2
12
23
9
21
1
19
10
16
8
7
14
4
24
20
6
18
5
11
17

>  <PUBCHEM_MMFF94_PARTIAL_CHARGES>  (1) 
10
1 -1.01
19 0.5
2 -1.01
22 0.5
23 0.5
24 0.5
25 0.5
26 0.5
27 0.5
8 0.5

>  <PUBCHEM_EFFECTIVE_ROTOR_COUNT>  (1) 
8.2

>  <PUBCHEM_PHARMACOPHORE_FEATURES>  (1) 
6
1 1 cation
1 2 cation
5 3 4 8 12 14 rings
6 3 4 5 6 10 11 rings
6 5 6 7 9 13 15 rings
6 7 9 16 17 19 20 rings

>  <PUBCHEM_HEAVY_ATOM_COUNT>  (1) 
31

>  <PUBCHEM_ATOM_DEF_STEREO_COUNT>  (1) 
5

>  <PUBCHEM_ATOM_UDEF_STEREO_COUNT>  (1) 
3

>  <PUBCHEM_BOND_DEF_STEREO_COUNT>  (1) 
0

>  <PUBCHEM_BOND_UDEF_STEREO_COUNT>  (1) 
0

>  <PUBCHEM_ISOTOPIC_ATOM_COUNT>  (1) 
0

>  <PUBCHEM_COMPONENT_COUNT>  (1) 
1

>  <PUBCHEM_CACTVS_TAUTO_COUNT>  (1) 
1

>  <PUBCHEM_CONFORMER_ID>  (1) 
0000182E00000003

>  <PUBCHEM_MMFF94_ENERGY>  (1) 
177.0261

>  <PUBCHEM_FEATURE_SELFOVERLAP>  (1) 
30.679

>  <PUBCHEM_SHAPE_FINGERPRINT>  (1) 
10319926 262 16773806904437810399
10498660 4 11746937559999556020
10692045 39 13829862292006021884
10928967 22 18263627520623377058
117089 54 18265619788322101554
11961588 58 12612760146107490352
11991303 11 17830457180777701949
12107183 9 18131080290541371233
12422481 6 15985110682478829545
12553582 1 18201145573709608358
12596602 18 16917065594140873706
12633257 1 16774076288854826644
13103583 49 17346875641947572718
13402501 40 18259707804567099306
13533116 47 18341045337072711621
13583140 156 17702923925065196568
13911987 19 16807041825979845262
13914758 101 18272926125709740677
14705955 166 15123239762684120658
15082195 135 11097855246093037441
15475509 35 18200873006252879443
15484559 13 13130436909538785811
15537594 2 18202563952194405286
15664445 248 15285639962104423196
17857418 61 18413668028542661359
1813 80 18186795864255902780
19315092 285 17774154755595257467
20567600 254 12031788032954222562
20775530 9 18267015056014094094
21033648 29 14189310265756638859
21421861 104 18131356340446982552
21521721 280 18339928242445405360
21792934 111 14548476734444974307
22907989 373 13262676998488575885
23559900 14 17968376857280132909
239999 70 17096083730989725548
25222932 49 17268903980901104895
2838139 119 8646769980175306414
345986 75 18058726901525571034
3472631 163 9151175359217942699
34797466 226 16951123019152111357
3737641 26 18128538168139866510
376196 1 15795971824570053260
3886686 26 17268931082313703059
392239 28 11959729356626967882
439807 62 17386003931785171794
46194498 28 17676492782530329332
463206 1 18340204197350144522
474113 269 17845923122710082655
484985 159 17474668352429002862
5104073 3 17488751215438131459
57724786 102 12319156440110488066
6086070 43 17989197145503887597
6823239 73 17095800022519030177
7097593 13 17845076532135062244
7970288 3 18340482279645783962
86090 222 17894635885223700275

>  <PUBCHEM_SHAPE_MULTIPOLES>  (1) 
628
13.97
3.2
1.98
5.16
0.52
0.03
10.97
1.49
-2.84
-0.11
0.49
-0.36
-0.41

>  <PUBCHEM_SHAPE_SELFOVERLAP>  (1) 
1294.67

>  <PUBCHEM_SHAPE_VOLUME>  (1) 
358.7

>  <PUBCHEM_COORDINATE_TYPE>  (1) 
2
5
10

$$$$
