6193
     RDKit          3D

 27 30  0  0  1  0  0  0  0  0999 V2000
    5.2232    0.7004   -0.3587 N   0  0  0  0  0  0  0  0  0  0  0  0
   -5.7024    0.4082   -0.4083 N   0  0  0  0  0  0  0  0  0  0  0  0
    3.0415   -0.1661    0.5716 C   0  0  0  0  0  0  0  0  0  0  0  0
    2.1541   -1.3542    0.1287 C   0  0  0  0  0  0  0  0  0  0  0  0
    0.6676   -1.2255    0.5321 C   0  0  0  0  0  0  0  0  0  0  0  0
    0.0533    0.1466    0.1507 C   0  0  0  0  0  0  0  0  0  0  0  0
   -1.4685    0.2670    0.5496 C   0  0  0  0  0  0  0  0  0  0  0  0
    4.3147   -0.4578   -0.2504 C   0  0  0  0  0  0  0  0  0  0  0  0
   -2.2351   -0.9544   -0.0416 C   0  0  0  0  0  0  0  0  0  0  0  0
    2.3743    1.1834    0.2132 C   0  0  0  0  0  0  0  0  0  0  0  0
    0.9298    1.2883    0.7033 C   0  0  0  0  0  0  0  0  0  0  0  0
    2.4272   -1.4833   -1.3841 C   0  0  0  0  0  0  0  0  0  0  0  0
   -0.1618   -2.3904   -0.0284 C   0  0  0  0  0  0  0  0  0  0  0  0
    3.8216   -0.8955   -1.6247 C   0  0  0  0  0  0  0  0  0  0  0  0
   -1.6292   -2.3006    0.3736 C   0  0  0  0  0  0  0  0  0  0  0  0
   -2.0688    1.5768   -0.0595 C   0  0  0  0  0  0  0  0  0  0  0  0
   -3.7476   -0.9271    0.2565 C   0  0  0  0  0  0  0  0  0  0  0  0
    3.3517   -0.2197    2.0771 C   0  0  0  0  0  0  0  0  0  0  0  0
   -4.3439    0.4820    0.1960 C   0  0  0  0  0  0  0  0  0  0  0  0
   -1.6248    0.3265    2.0929 C   0  0  0  0  0  0  0  0  0  0  0  0
   -3.4935    1.4468   -0.6146 C   0  0  0  0  0  0  0  0  0  0  0  0
    4.5148    1.9002   -1.0096 C   0  0  0  0  0  0  0  0  0  0  0  0
    6.4542    0.3597   -1.2150 C   0  0  0  0  0  0  0  0  0  0  0  0
    5.7218    1.1440    1.0267 C   0  0  0  0  0  0  0  0  0  0  0  0
   -6.5895   -0.5569    0.3838 C   0  0  0  0  0  0  0  0  0  0  0  0
   -5.6188   -0.0870   -1.8553 C   0  0  0  0  0  0  0  0  0  0  0  0
   -6.3658    1.7887   -0.4059 C   0  0  0  0  0  0  0  0  0  0  0  0
  1  8  1  0
  1 22  1  0
  1 23  1  0
  1 24  1  0
  2 19  1  0
  2 25  1  0
  2 26  1  0
  2 27  1  0
  3  4  1  0
  3  8  1  0
  3 10  1  0
  3 18  1  0
  4  5  1  0
  4 12  1  0
  5  6  1  0
  5 13  1  0
  6  7  1  0
  6 11  1  0
  7  9  1  0
  7 16  1  0
  7 20  1  0
  8 14  1  0
  9 15  1  0
  9 17  1  0
 10 11  1  0
 12 14  1  0
 13 15  1  0
 16 21  1  0
 17 19  1  0
 19 21  1  0
M  CHG  2   1   1   2   1
M  END
>  <PUBCHEM_COMPOUND_CID>  (1) 
6193

>  <PUBCHEM_CONFORMER_RMSD>  (1) 
0.8

>  <PUBCHEM_CONFORMER_DIVERSEORDER>  (1) 
3
2
5
4
1
6

>  <PUBCHEM_MMFF94_PARTIAL_CHARGES>  (1) 
10
1 -1.01
19 0.5
2 -1.01
22 0.5
23 0.5
24 0.5
25 0.5
26 0.5
27 0.5
8 0.5

>  <PUBCHEM_EFFECTIVE_ROTOR_COUNT>  (1) 
4.2

>  <PUBCHEM_PHARMACOPHORE_FEATURES>  (1) 
6
1 1 cation
1 2 cation
5 3 4 8 12 14 rings
6 3 4 5 6 10 11 rings
6 5 6 7 9 13 15 rings
6 7 9 16 17 19 21 rings

>  <PUBCHEM_HEAVY_ATOM_COUNT>  (1) 
27

>  <PUBCHEM_ATOM_DEF_STEREO_COUNT>  (1) 
6

>  <PUBCHEM_ATOM_UDEF_STEREO_COUNT>  (1) 
2

>  <PUBCHEM_BOND_DEF_STEREO_COUNT>  (1) 
0

>  <PUBCHEM_BOND_UDEF_STEREO_COUNT>  (1) 
0

>  <PUBCHEM_ISOTOPIC_ATOM_COUNT>  (1) 
0

>  <PUBCHEM_COMPONENT_COUNT>  (1) 
1

>  <PUBCHEM_CACTVS_TAUTO_COUNT>  (1) 
1

>  <PUBCHEM_CONFORMER_ID>  (1) 
0000183100000003

>  <PUBCHEM_MMFF94_ENERGY>  (1) 
161.6751

>  <PUBCHEM_FEATURE_SELFOVERLAP>  (1) 
30.642

>  <PUBCHEM_SHAPE_FINGERPRINT>  (1) 
10366900 7 17274827960662658634
10498660 4 18410299111908772106
10554248 39 17824241745094110623
10591671 39 18187092771092188943
10670039 82 18336834087327289852
10906281 52 18261123937094262081
11488393 25 17701271222066733015
11578080 2 16341995809887917154
11961588 58 18260267473196478990
12011746 2 18202850954635237430
12107698 1 15913332390069202832
12236239 1 17240480303763180011
12403259 415 18342733044472006425
12516196 113 17917991685160638313
12596602 18 16660362597302977193
12730499 353 18060422412948909558
12788726 201 18272651195224550737
13402501 40 18412544322931577293
13533116 47 16988565662837451790
13583140 156 17168153355172845721
13685833 64 10447928365094918412
13782708 43 12751228204167209349
14251764 30 13398620689182317733
14341114 176 9151172056456754894
14528608 73 18413666903176677933
14790565 3 18409736140549703177
14849402 71 13335035931759023502
15131766 46 15865494954691081278
15183329 4 18334573530106741349
15238133 3 15936415532977363990
15475509 35 11455619712959741684
15788980 27 17895198814023232042
17349148 13 18131630071328328187
173720 79 17822003207669624906
18222031 100 13326564151484668379
18335252 98 18409175428490514579
18608769 82 18338521958188276267
200 152 17346880039983436827
20715895 44 18334295357448172220
21033650 10 17678757625980454668
21285901 2 18338519633888055628
21637258 2 13183019596736927246
22122407 14 15647350618625743837
221357 26 17489591138889219464
22149856 69 18340223916567958707
23227448 37 18336832003782432430
23503953 91 14707215447837543730
23516275 137 15625405505123869751
23559900 14 17916579976486220200
23569914 152 16478819758867118373
23622692 88 14273459179979341786
2838139 119 17967523571769354621
3004659 81 18336829693797135930
335352 9 18410296913513303358
3472631 163 18187932819650898748
34797466 226 18341902899991518565
350125 39 18408885131445158529
3545911 37 18342741823184432554
4058900 60 18187652353759738419
4325135 7 18342739615360330733
495365 180 17274811494016424178
5104073 3 18114748110446596699
53794403 172 18191870230424576340
542803 24 17312821580338183089
59682541 52 16988843830557222668
59755656 215 18342459231532016870
59755656 520 16515682268750741075

>  <PUBCHEM_SHAPE_MULTIPOLES>  (1) 
545.69
15.27
1.99
1.48
6.77
0.38
0.13
-5.34
-4.36
0.2
-0.18
-0.75
0.01
0.52

>  <PUBCHEM_SHAPE_SELFOVERLAP>  (1) 
1133.088

>  <PUBCHEM_SHAPE_VOLUME>  (1) 
312.1

>  <PUBCHEM_COORDINATE_TYPE>  (1) 
2
5
10

$$$$
