6195
     RDKit          3D

 12 13  0  0  0  0  0  0  0  0999 V2000
   -3.2735   -1.3610   -0.2964 O   0  0  0  0  0  0  0  0  0  0  0  0
    0.1449   -0.3138    0.0477 C   0  0  0  0  0  0  0  0  0  0  0  0
    0.9370    0.8568   -0.0233 C   0  0  0  0  0  0  0  0  0  0  0  0
   -1.2535   -0.1945    0.1002 C   0  0  0  0  0  0  0  0  0  0  0  0
    0.7745   -1.5690    0.0640 C   0  0  0  0  0  0  0  0  0  0  0  0
    0.3075    2.1122   -0.0399 C   0  0  0  0  0  0  0  0  0  0  0  0
    2.3353    0.7377   -0.0760 C   0  0  0  0  0  0  0  0  0  0  0  0
   -1.8622    1.0609    0.0832 C   0  0  0  0  0  0  0  0  0  0  0  0
   -1.0831    2.2121    0.0130 C   0  0  0  0  0  0  0  0  0  0  0  0
    2.1651   -1.6687    0.0113 C   0  0  0  0  0  0  0  0  0  0  0  0
    2.9441   -0.5175   -0.0585 C   0  0  0  0  0  0  0  0  0  0  0  0
   -2.1361   -1.3552    0.1746 C   0  0  0  0  0  0  0  0  0  0  0  0
  1 12  2  0
  2  3  1  0
  2  4  2  0
  2  5  1  0
  3  6  2  0
  3  7  1  0
  4  8  1  0
  4 12  1  0
  5 10  2  0
  6  9  1  0
  7 11  2  0
  8  9  2  0
 10 11  1  0
M  END
>  <PUBCHEM_COMPOUND_CID>  (1) 
6195

>  <PUBCHEM_CONFORMER_RMSD>  (1) 
0.4

>  <PUBCHEM_CONFORMER_DIVERSEORDER>  (1) 
1
2
3

>  <PUBCHEM_MMFF94_PARTIAL_CHARGES>  (1) 
18
1 -0.57
10 -0.15
11 -0.15
12 0.42
13 0.15
14 0.15
15 0.15
16 0.15
17 0.15
18 0.15
19 0.15
20 0.06
4 0.09
5 -0.15
6 -0.15
7 -0.15
8 -0.15
9 -0.15

>  <PUBCHEM_EFFECTIVE_ROTOR_COUNT>  (1) 
1

>  <PUBCHEM_PHARMACOPHORE_FEATURES>  (1) 
3
1 1 acceptor
6 2 3 4 6 8 9 rings
6 2 3 5 7 10 11 rings

>  <PUBCHEM_HEAVY_ATOM_COUNT>  (1) 
12

>  <PUBCHEM_ATOM_DEF_STEREO_COUNT>  (1) 
0

>  <PUBCHEM_ATOM_UDEF_STEREO_COUNT>  (1) 
0

>  <PUBCHEM_BOND_DEF_STEREO_COUNT>  (1) 
0

>  <PUBCHEM_BOND_UDEF_STEREO_COUNT>  (1) 
0

>  <PUBCHEM_ISOTOPIC_ATOM_COUNT>  (1) 
0

>  <PUBCHEM_COMPONENT_COUNT>  (1) 
1

>  <PUBCHEM_CACTVS_TAUTO_COUNT>  (1) 
1

>  <PUBCHEM_CONFORMER_ID>  (1) 
0000183300000001

>  <PUBCHEM_MMFF94_ENERGY>  (1) 
38.5644

>  <PUBCHEM_FEATURE_SELFOVERLAP>  (1) 
15.249

>  <PUBCHEM_SHAPE_FINGERPRINT>  (1) 
10967382 1 18122344845971465130
11206711 2 18408047303199191052
12524768 44 18051981324489935374
161256 15 18341610472832423928
16945 1 18122344575604900748
193761 8 18410575067504802449
19973954 147 18338801100501268628
20201158 50 18262514913544843627
20645477 70 17977092793724023223
20871998 184 18129941178576563015
21040471 1 17905891366549762520
21501502 16 18337394837982596520
2334 1 18410014338075372762
23388829 49 18269268135194536437
23552423 10 18260835860530985340
23559900 14 17622728610249548542
241688 4 18409449163292196544
2748010 2 18411416198321203292
5084963 1 18201443609563273730
528886 8 18338794503289129312

>  <PUBCHEM_SHAPE_MULTIPOLES>  (1) 
241.09
3.93
2.36
0.62
0.09
0.55
0.01
-1.62
-0.18
-0.7
-0.02
0
0
-0.09

>  <PUBCHEM_SHAPE_SELFOVERLAP>  (1) 
531.226

>  <PUBCHEM_SHAPE_VOLUME>  (1) 
130.4

>  <PUBCHEM_COORDINATE_TYPE>  (1) 
2
5
10

$$$$
