6196
     RDKit          3D

 28 31  0  0  1  0  0  0  0  0999 V2000
    1.6788    1.4919    0.3527 S   0  0  0  0  0  0  0  0  0  0  0  0
    1.7832   -2.7264   -0.8387 O   0  0  0  0  0  0  0  0  0  0  0  0
    5.9270   -0.3228    0.5727 O   0  0  0  0  0  0  0  0  0  0  0  0
    4.9512    0.9267   -1.0651 O   0  0  0  0  0  0  0  0  0  0  0  0
   -1.2134   -2.4582   -1.4958 O   0  0  0  0  0  0  0  0  0  0  0  0
   -4.2840   -1.7120    1.2969 O   0  0  0  0  0  0  0  0  0  0  0  0
    2.7720   -0.5847   -0.8205 N   0  0  0  0  0  0  0  0  0  0  0  0
   -0.4168   -0.4137   -0.7885 N   0  0  0  0  0  0  0  0  0  0  0  0
   -4.2350   -0.3278    1.1841 N   0  0  0  0  0  0  0  0  0  0  0  0
    1.9302    0.5509   -1.1996 C   0  0  0  0  0  0  0  0  0  0  0  0
    2.7935    0.3961    1.3632 C   0  0  0  0  0  0  0  0  0  0  0  0
    3.5919   -0.4710    0.3639 C   0  0  0  0  0  0  0  0  0  0  0  0
    0.8348   -0.4678   -1.5559 C   0  0  0  0  0  0  0  0  0  0  0  0
    1.8275   -1.5381   -1.0621 C   0  0  0  0  0  0  0  0  0  0  0  0
    3.6715    1.2696    2.2651 C   0  0  0  0  0  0  0  0  0  0  0  0
    1.8931   -0.4839    2.2465 C   0  0  0  0  0  0  0  0  0  0  0  0
    4.8677    0.1332   -0.1393 C   0  0  0  0  0  0  0  0  0  0  0  0
   -1.3677   -1.4413   -0.8201 C   0  0  0  0  0  0  0  0  0  0  0  0
   -2.5547   -1.2551    0.0251 C   0  0  0  0  0  0  0  0  0  0  0  0
   -3.1763   -0.0816    0.4073 C   0  0  0  0  0  0  0  0  0  0  0  0
   -3.2605   -2.2557    0.5899 C   0  0  0  0  0  0  0  0  0  0  0  0
   -2.8196    1.2728    0.0740 C   0  0  0  0  0  0  0  0  0  0  0  0
   -3.1673   -3.7220    0.6045 C   0  0  0  0  0  0  0  0  0  0  0  0
   -3.3531    1.8711   -1.0653 C   0  0  0  0  0  0  0  0  0  0  0  0
   -1.9419    1.9800    0.8925 C   0  0  0  0  0  0  0  0  0  0  0  0
   -3.0073    3.1834   -1.3877 C   0  0  0  0  0  0  0  0  0  0  0  0
   -1.5960    3.2924    0.5701 C   0  0  0  0  0  0  0  0  0  0  0  0
   -2.1287    3.8941   -0.5699 C   0  0  0  0  0  0  0  0  0  0  0  0
  1 10  1  0
  1 11  1  0
  2 14  2  0
  3 17  1  0
  4 17  2  0
  5 18  2  0
  6  9  1  0
  6 21  1  0
  7 10  1  0
  7 12  1  0
  7 14  1  0
  8 13  1  0
  8 18  1  0
  9 20  2  0
 10 13  1  0
 11 12  1  0
 11 15  1  0
 11 16  1  0
 12 17  1  0
 13 14  1  0
 18 19  1  0
 19 20  1  0
 19 21  2  0
 20 22  1  0
 21 23  1  0
 22 24  2  0
 22 25  1  0
 24 26  1  0
 25 27  2  0
 26 28  2  0
 27 28  1  0
M  END
>  <PUBCHEM_COMPOUND_CID>  (1) 
6196

>  <PUBCHEM_CONFORMER_RMSD>  (1) 
0.8

>  <PUBCHEM_CONFORMER_DIVERSEORDER>  (1) 
2
27
7
13
12
20
18
9
3
8
5
26
17
21
16
4
15
19
22
25
10
28
1
23
24
6
11
14

>  <PUBCHEM_MMFF94_PARTIAL_CHARGES>  (1) 
33
1 -0.45
10 0.44
11 0.23
12 0.36
13 0.28
14 0.58
17 0.66
18 0.72
19 -0.09
2 -0.57
20 0.23
21 -0.04
22 0.05
23 0.18
24 -0.15
25 -0.15
26 -0.15
27 -0.15
28 -0.15
3 -0.65
38 0.37
39 0.5
4 -0.57
43 0.15
44 0.15
45 0.15
46 0.15
47 0.15
5 -0.57
6 -0.02
7 -0.59
8 -0.65
9 -0.41

>  <PUBCHEM_EFFECTIVE_ROTOR_COUNT>  (1) 
5.8

>  <PUBCHEM_PHARMACOPHORE_FEATURES>  (1) 
12
1 2 acceptor
1 3 acceptor
1 4 acceptor
1 5 acceptor
1 8 donor
1 9 acceptor
3 11 15 16 hydrophobe
3 3 4 17 anion
4 7 10 13 14 rings
5 6 9 19 20 21 rings
6 22 24 25 26 27 28 rings
7 1 7 10 11 12 13 14 rings

>  <PUBCHEM_HEAVY_ATOM_COUNT>  (1) 
28

>  <PUBCHEM_ATOM_DEF_STEREO_COUNT>  (1) 
3

>  <PUBCHEM_ATOM_UDEF_STEREO_COUNT>  (1) 
0

>  <PUBCHEM_BOND_DEF_STEREO_COUNT>  (1) 
0

>  <PUBCHEM_BOND_UDEF_STEREO_COUNT>  (1) 
0

>  <PUBCHEM_ISOTOPIC_ATOM_COUNT>  (1) 
0

>  <PUBCHEM_COMPONENT_COUNT>  (1) 
1

>  <PUBCHEM_CACTVS_TAUTO_COUNT>  (1) 
2

>  <PUBCHEM_CONFORMER_ID>  (1) 
0000183400000002

>  <PUBCHEM_MMFF94_ENERGY>  (1) 
74.9271

>  <PUBCHEM_FEATURE_SELFOVERLAP>  (1) 
64.918

>  <PUBCHEM_SHAPE_FINGERPRINT>  (1) 
10165383 225 17186204918514582501
10366900 7 18059564754944911705
11370993 70 18122059797772154453
11552529 35 18187638107120744822
11595378 159 18259979388164892760
12077114 3 18340198609607767749
12156800 1 13961395755498065397
12553582 1 18265338489770228887
12596602 18 17458348584568154384
12633257 1 18341908423609384257
12788726 201 18113903779757870321
13140716 1 18198067069568363573
13402501 40 18201999906797262145
13583140 156 18272076180902835314
13726171 33 18340221729839664000
14081887 123 18410573981199492235
14178342 30 18260553281584656310
14251751 93 18408887313246009120
14363568 33 17907588277911251705
14856354 85 18264782124086640558
16988056 13 11157901615900724979
17974551 9 17826800226678444739
19315092 285 16663149962305701426
20511986 3 16950832622727252940
21033648 29 17988349391309132112
22182313 1 17988093183957177590
22956985 138 17181658905716061219
23366157 5 17323531060733898455
23557571 272 18411140233993359177
23559900 14 18267027158730046934
238 59 17130120045255989252
3117164 225 18046899391017330146
3187 122 18336826493893318313
35225 105 18043788941019646313
3524813 1 17846502547139432427
3886686 26 17610046876861340859
4409770 3 18334007281850292269
469060 322 18265356026005466275
508706 21 18341050726871695917
57091435 65 17978232982295995588
57124632 79 17254265731856446413
6287921 2 17411049956346527473
84936 182 17258492246031825773
90316 7 18336271236358062947
9981440 41 17841957114520029795

>  <PUBCHEM_SHAPE_MULTIPOLES>  (1) 
535.79
9.41
3.98
1.73
8.05
0.86
0.44
-0.25
1.82
-5.87
-0.43
0.82
0.02
1.67

>  <PUBCHEM_SHAPE_SELFOVERLAP>  (1) 
1157.023

>  <PUBCHEM_SHAPE_VOLUME>  (1) 
297.2

>  <PUBCHEM_COORDINATE_TYPE>  (1) 
2
5
10

$$$$
