6199
     RDKit          3D

 14 16  0  0  0  0  0  0  0  0999 V2000
    2.9562   -1.2927    0.0011 O   0  0  0  0  0  0  0  0  0  0  0  0
   -1.8801   -1.1512    0.0000 O   0  0  0  0  0  0  0  0  0  0  0  0
   -4.1639   -0.9775   -0.0002 O   0  0  0  0  0  0  0  0  0  0  0  0
    1.8819    0.6951   -0.0007 C   0  0  0  0  0  0  0  0  0  0  0  0
   -0.5324    0.8778   -0.0005 C   0  0  0  0  0  0  0  0  0  0  0  0
    1.7343   -0.6889   -0.0004 C   0  0  0  0  0  0  0  0  0  0  0  0
   -0.6169   -0.5144   -0.0007 C   0  0  0  0  0  0  0  0  0  0  0  0
    0.7259    1.5003   -0.0009 C   0  0  0  0  0  0  0  0  0  0  0  0
    0.5065   -1.3461   -0.0010 C   0  0  0  0  0  0  0  0  0  0  0  0
    3.2819    0.9333    0.0000 C   0  0  0  0  0  0  0  0  0  0  0  0
   -1.7627    1.6537    0.0006 C   0  0  0  0  0  0  0  0  0  0  0  0
    3.8860   -0.3024    0.0011 C   0  0  0  0  0  0  0  0  0  0  0  0
   -2.9489    1.0410    0.0011 C   0  0  0  0  0  0  0  0  0  0  0  0
   -3.0678   -0.4280    0.0006 C   0  0  0  0  0  0  0  0  0  0  0  0
  1  6  1  0
  1 12  1  0
  2  7  1  0
  2 14  1  0
  3 14  2  0
  4  6  2  0
  4  8  1  0
  4 10  1  0
  5  7  1  0
  5  8  2  0
  5 11  1  0
  6  9  1  0
  7  9  2  0
 10 12  2  0
 11 13  2  0
 13 14  1  0
M  END
>  <PUBCHEM_COMPOUND_CID>  (1) 
6199

>  <PUBCHEM_CONFORMER_RMSD>  (1) 
0.4

>  <PUBCHEM_CONFORMER_DIVERSEORDER>  (1) 
1

>  <PUBCHEM_MMFF94_PARTIAL_CHARGES>  (1) 
19
1 -0.28
10 -0.15
11 -0.18
12 -0.01
13 -0.14
14 0.71
15 0.15
16 0.15
17 0.15
18 0.15
19 0.15
2 -0.23
20 0.15
3 -0.57
5 0.03
6 0.14
7 0.08
8 -0.15
9 -0.15

>  <PUBCHEM_EFFECTIVE_ROTOR_COUNT>  (1) 
0

>  <PUBCHEM_PHARMACOPHORE_FEATURES>  (1) 
5
1 1 acceptor
1 3 acceptor
5 1 4 6 10 12 rings
6 2 5 7 11 13 14 rings
6 4 5 6 7 8 9 rings

>  <PUBCHEM_HEAVY_ATOM_COUNT>  (1) 
14

>  <PUBCHEM_ATOM_DEF_STEREO_COUNT>  (1) 
0

>  <PUBCHEM_ATOM_UDEF_STEREO_COUNT>  (1) 
0

>  <PUBCHEM_BOND_DEF_STEREO_COUNT>  (1) 
0

>  <PUBCHEM_BOND_UDEF_STEREO_COUNT>  (1) 
0

>  <PUBCHEM_ISOTOPIC_ATOM_COUNT>  (1) 
0

>  <PUBCHEM_COMPONENT_COUNT>  (1) 
1

>  <PUBCHEM_CACTVS_TAUTO_COUNT>  (1) 
1

>  <PUBCHEM_CONFORMER_ID>  (1) 
0000183700000001

>  <PUBCHEM_MMFF94_ENERGY>  (1) 
35.1529

>  <PUBCHEM_FEATURE_SELFOVERLAP>  (1) 
25.503

>  <PUBCHEM_SHAPE_FINGERPRINT>  (1) 
10608611 8 18411132520026698424
10967382 1 18338799030058032582
11132069 177 18411413986349852784
11471102 20 18410006662963533693
11543360 7 15647345181249614087
11769659 78 18409443665728587699
11806522 49 18338232777612487799
12032990 46 18412549786288116462
12932764 1 17274811463387143716
13221675 6 18411417323513028943
13296908 3 18412827949734194190
13380535 76 18409449184862173138
14144814 61 18410573968019080856
14325111 11 18410856538254877216
15196674 1 18410856546760266372
15219456 202 18059018271980239806
15442244 35 18122343484788735250
15536298 74 18343021099396447936
16945 1 18338517546480863812
17844478 74 18186806872277999229
18186145 218 18187645756552444590
18522853 276 18413106169083639433
193761 8 17617940227517309216
19422 9 18410297982110892072
200 152 18131340921973053309
20201158 50 18409730659791170667
20510252 161 18272933799661498449
20645477 70 18339919321001818303
21267235 1 18410583880814506670
21501502 16 18337955580080247624
21501925 9 18409157814554671010
23402539 116 18341884199529734439
23402655 69 18340758253053686285
23463225 33 18336264557267153732
23559900 14 18269550538707232674
2748010 2 18339360755982756492
2871803 45 18334288769337514087
3312278 4 18340487768407694865
474 4 16951700288447948244
5104073 3 18411136913640670920
528886 8 18411131420588456112
53812653 166 18272363217952047208
57096353 35 18409450331602266644
69090 78 18201996655237941807
7364860 26 18268711795555116304
8809292 202 18187932836530509731
9709674 26 18410862053051251926

>  <PUBCHEM_SHAPE_MULTIPOLES>  (1) 
270.51
6.39
1.64
0.6
0.45
0.18
0
-0.9
0
0.27
0
-0.02
0.02
0

>  <PUBCHEM_SHAPE_SELFOVERLAP>  (1) 
613.75

>  <PUBCHEM_SHAPE_VOLUME>  (1) 
142.4

>  <PUBCHEM_COORDINATE_TYPE>  (1) 
2
5
10

$$$$
