620
     RDKit          2D

 26 28  0  0  1  0  0  0  0  0999 V2000
    0.0000    0.0000    0.0000 P   0  0  0  0  0  0  0  0  0  0  0  0
    0.0000    0.0000    0.0000 P   0  0  0  0  0  0  0  0  0  0  0  0
    0.0000    0.0000    0.0000 O   0  0  0  0  0  0  0  0  0  0  0  0
    0.0000    0.0000    0.0000 O   0  0  0  0  0  0  0  0  0  0  0  0
    0.0000    0.0000    0.0000 O   0  0  0  0  0  0  0  0  0  0  0  0
    0.0000    0.0000    0.0000 O   0  0  0  0  0  0  0  0  0  0  0  0
    0.0000    0.0000    0.0000 O   0  0  0  0  0  0  0  0  0  0  0  0
    0.0000    0.0000    0.0000 O   0  0  0  0  0  0  0  0  0  0  0  0
    0.0000    0.0000    0.0000 O   0  0  0  0  0  0  0  0  0  0  0  0
    0.0000    0.0000    0.0000 O   0  0  0  0  0  0  0  0  0  0  0  0
    0.0000    0.0000    0.0000 O   0  0  0  0  0  0  0  0  0  0  0  0
    0.0000    0.0000    0.0000 N   0  0  0  0  0  0  0  0  0  0  0  0
    0.0000    0.0000    0.0000 N   0  0  0  0  0  0  0  0  0  0  0  0
    0.0000    0.0000    0.0000 N   0  0  0  0  0  0  0  0  0  0  0  0
    0.0000    0.0000    0.0000 N   0  0  0  0  0  0  0  0  0  0  0  0
    0.0000    0.0000    0.0000 N   0  0  0  0  0  0  0  0  0  0  0  0
    0.0000    0.0000    0.0000 C   0  0  0  0  0  0  0  0  0  0  0  0
    0.0000    0.0000    0.0000 C   0  0  0  0  0  0  0  0  0  0  0  0
    0.0000    0.0000    0.0000 C   0  0  0  0  0  0  0  0  0  0  0  0
    0.0000    0.0000    0.0000 C   0  0  0  0  0  0  0  0  0  0  0  0
    0.0000    0.0000    0.0000 C   0  0  0  0  0  0  0  0  0  0  0  0
    0.0000    0.0000    0.0000 C   0  0  0  0  0  0  0  0  0  0  0  0
    0.0000    0.0000    0.0000 C   0  0  0  0  0  0  0  0  0  0  0  0
    0.0000    0.0000    0.0000 C   0  0  0  0  0  0  0  0  0  0  0  0
    0.0000    0.0000    0.0000 C   0  0  0  0  0  0  0  0  0  0  0  0
    0.0000    0.0000    0.0000 C   0  0  0  0  0  0  0  0  0  0  0  0
  1  5  1  0
  1  6  1  0
  1  7  1  0
  1  8  2  0
  2  6  1  0
  2  9  1  0
  2 10  1  0
  2 11  2  0
  3 18  1  0
  3 19  1  0
  4 17  1  0
  5 21  1  0
 12 19  1  0
 12 22  1  0
 12 23  1  0
 13 23  2  0
 13 24  1  0
 14 22  1  0
 14 26  2  0
 15 25  2  0
 15 26  1  0
 16 25  1  0
 17 18  1  0
 17 20  1  0
 18 21  1  0
 19 20  1  0
 22 24  2  0
 24 25  1  0
M  END
>  <PUBCHEM_COMPOUND_CID>  (1) 
620

>  <PUBCHEM_CONFORMER_RMSD>  (1) 
1

>  <PUBCHEM_CONFORMER_DIVERSEORDER>  (1) 
49
285
469
113
25
35
323
28
377
119
140
290
320
209
88
347
1
260
284
230
69
423
6
233
314
123
301
165
413
289
117
77
65
438
157
245
114
238
86
14
107
172
19
459
447
237
390
312
310
329
227
26
131
155
183
125
379
59
374
121
152
393
56
73
195
143
4
153
279
20
124
391
161
179
239
67
222
38
356
267
207
394
275
118
262
263
39
321
141
422
223
451
199
201
148
257
68
224
93
34
187
234
139
362
325
47
266
151
259
200
9
214
359
419
351
303
3
133
208
12
412
220
309
402
461
91
83
43
163
15
23
228
168
472
167
71
448
188
147
398
430
212
366
145
405
270
22
397
74
248
401
403
66
61
308
40
288
112
404
16
376
294
90
203
128
177
126
360
29
252
408
129
7
274
475
395
316
342
171
89
55
368
82
109
334
250
164
81
229
283
176
70
445
415
202
232
463
277
10
158
45
53
193
144
253
13
317
436
21
211
249
110
138
72
154
63
369
348
304
79
241
150
375
332
476
345
427
298
324
2
278
190
453
60
429
442
460
17
160
217
370
378
149
36
18
352
8
287
64
306
116
343
454
457
339
261
115
44
300
97
50
353
449
264
48
286
297
305
170
431
330
11
268
105
426
108
346
462
455
349
130
380
137
175
104
372
194
281
31
185
396
400
296
122
96
136
240
37
103
363
322
410
182
243
51
292
384
46
446
94
80
424
338
33
373
226
299
432
272
282
344
111
213
142
458
95
399
414
251
269
210
420
295
134
258
357
421
355
41
99
471
235
162
435
335
416
174
216
354
341
206
307
32
5
433
440
428
434
205
76
361
386
84
473
336
313
383
371
255
452
78
470
407
196
254
276
57
27
218
315
106
365
327
293
319
146
385
387
333
465
388
443
75
467
24
328
101
441
411
244
256
280
337
173
181
468
85
127
367
189
204
42
192
58
100
311
456
92
242
265
191
159
62
221
156
318
439
350
302
120
417
52
215
166
225
219
132
54
406
87
326
197
178
247
186
425
291
437
30
474
392
102
389
271
135
198
418
381
382
169
273
98
409
466
184
180
358
246
331
231
340
450
236
364
464
444

>  <PUBCHEM_MMFF94_PARTIAL_CHARGES>  (1) 
33
1 1.51
10 -0.77
11 -0.7
12 0.05
13 -0.57
14 -0.57
15 -0.62
16 -0.9
17 0.28
18 0.28
19 0.54
2 1.51
21 0.28
22 0.11
23 0.04
24 0.23
25 0.41
26 0.47
3 -0.56
34 0.4
35 0.15
36 0.15
37 0.4
38 0.4
39 0.5
4 -0.68
40 0.5
41 0.5
5 -0.55
6 -0.54
7 -0.77
8 -0.7
9 -0.77

>  <PUBCHEM_EFFECTIVE_ROTOR_COUNT>  (1) 
7

>  <PUBCHEM_PHARMACOPHORE_FEATURES>  (1) 
17
1 10 acceptor
1 11 acceptor
1 16 cation
1 16 donor
1 3 acceptor
1 4 acceptor
1 4 donor
1 7 acceptor
1 8 acceptor
1 9 acceptor
3 12 13 23 cation
3 12 14 22 cation
3 14 15 26 cation
4 2 9 10 11 anion
5 12 13 22 23 24 rings
5 3 17 18 19 20 rings
6 14 15 22 24 25 26 rings

>  <PUBCHEM_HEAVY_ATOM_COUNT>  (1) 
26

>  <PUBCHEM_ATOM_DEF_STEREO_COUNT>  (1) 
0

>  <PUBCHEM_ATOM_UDEF_STEREO_COUNT>  (1) 
3

>  <PUBCHEM_BOND_DEF_STEREO_COUNT>  (1) 
0

>  <PUBCHEM_BOND_UDEF_STEREO_COUNT>  (1) 
0

>  <PUBCHEM_ISOTOPIC_ATOM_COUNT>  (1) 
0

>  <PUBCHEM_COMPONENT_COUNT>  (1) 
1

>  <PUBCHEM_CACTVS_TAUTO_COUNT>  (1) 
3

$$$$
