6208
     RDKit          3D

  9  9  0  0  0  0  0  0  0  0999 V2000
   -0.0052    0.8950    0.0002 O   0  0  0  0  0  0  0  0  0  0  0  0
    2.2547    0.7564   -0.0002 O   0  0  0  0  0  0  0  0  0  0  0  0
   -3.4646    0.0316   -0.0006 O   0  0  0  0  0  0  0  0  0  0  0  0
    1.1026    0.1082   -0.0002 C   0  0  0  0  0  0  0  0  0  0  0  0
   -1.0761    0.0584    0.0003 C   0  0  0  0  0  0  0  0  0  0  0  0
    0.7508   -1.2215   -0.0001 C   0  0  0  0  0  0  0  0  0  0  0  0
   -0.6642   -1.2539    0.0003 C   0  0  0  0  0  0  0  0  0  0  0  0
    3.4776   -0.0132    0.0000 C   0  0  0  0  0  0  0  0  0  0  0  0
   -2.3756    0.6389    0.0004 C   0  0  0  0  0  0  0  0  0  0  0  0
  1  4  1  0
  1  5  1  0
  2  4  1  0
  2  8  1  0
  3  9  2  0
  4  6  2  0
  5  7  2  0
  5  9  1  0
  6  7  1  0
M  END
>  <PUBCHEM_COMPOUND_CID>  (1) 
6208

>  <PUBCHEM_CONFORMER_RMSD>  (1) 
0.4

>  <PUBCHEM_CONFORMER_DIVERSEORDER>  (1) 
1
3
6
7
5
8
4
2

>  <PUBCHEM_MMFF94_PARTIAL_CHARGES>  (1) 
12
1 -0.28
10 0.15
11 0.15
15 0.06
2 -0.34
3 -0.57
4 0.2
5 0.05
6 -0.15
7 -0.15
8 0.28
9 0.59

>  <PUBCHEM_EFFECTIVE_ROTOR_COUNT>  (1) 
2

>  <PUBCHEM_PHARMACOPHORE_FEATURES>  (1) 
4
1 1 acceptor
1 2 acceptor
1 3 acceptor
5 1 4 5 6 7 rings

>  <PUBCHEM_HEAVY_ATOM_COUNT>  (1) 
9

>  <PUBCHEM_ATOM_DEF_STEREO_COUNT>  (1) 
0

>  <PUBCHEM_ATOM_UDEF_STEREO_COUNT>  (1) 
0

>  <PUBCHEM_BOND_DEF_STEREO_COUNT>  (1) 
0

>  <PUBCHEM_BOND_UDEF_STEREO_COUNT>  (1) 
0

>  <PUBCHEM_ISOTOPIC_ATOM_COUNT>  (1) 
0

>  <PUBCHEM_COMPONENT_COUNT>  (1) 
1

>  <PUBCHEM_CACTVS_TAUTO_COUNT>  (1) 
1

>  <PUBCHEM_CONFORMER_ID>  (1) 
0000184000000001

>  <PUBCHEM_MMFF94_ENERGY>  (1) 
8.1206

>  <PUBCHEM_FEATURE_SELFOVERLAP>  (1) 
20.357

>  <PUBCHEM_SHAPE_FINGERPRINT>  (1) 
10219947 1 18040437685038083605
11062470 55 12103845657078000880
14325111 11 18410855460133501504
14390081 3 18343862208211030833
21040471 1 18410856581125298978
23235685 24 18410852161609161192
23402655 69 18196073466747675781
23552423 10 18116151254555409902
29004967 10 17967540038589330649

>  <PUBCHEM_SHAPE_MULTIPOLES>  (1) 
167.61
4.68
1.13
0.58
0.38
0.3
0
-0.9
0
0.02
0
0.01
0.02
0

>  <PUBCHEM_SHAPE_SELFOVERLAP>  (1) 
345.228

>  <PUBCHEM_SHAPE_VOLUME>  (1) 
97.7

>  <PUBCHEM_COORDINATE_TYPE>  (1) 
2
5
10

$$$$
