621
     RDKit          2D

 22 24  0  0  1  0  0  0  0  0999 V2000
    0.0000    0.0000    0.0000 P   0  0  0  0  0  0  0  0  0  0  0  0
    0.0000    0.0000    0.0000 O   0  0  0  0  0  0  0  0  0  0  0  0
    0.0000    0.0000    0.0000 O   0  0  0  0  0  0  0  0  0  0  0  0
    0.0000    0.0000    0.0000 O   0  0  0  0  0  0  0  0  0  0  0  0
    0.0000    0.0000    0.0000 O   0  0  0  0  0  0  0  0  0  0  0  0
    0.0000    0.0000    0.0000 O   0  0  0  0  0  0  0  0  0  0  0  0
    0.0000    0.0000    0.0000 O   0  0  0  0  0  0  0  0  0  0  0  0
    0.0000    0.0000    0.0000 N   0  0  0  0  0  0  0  0  0  0  0  0
    0.0000    0.0000    0.0000 N   0  0  0  0  0  0  0  0  0  0  0  0
    0.0000    0.0000    0.0000 N   0  0  0  0  0  0  0  0  0  0  0  0
    0.0000    0.0000    0.0000 N   0  0  0  0  0  0  0  0  0  0  0  0
    0.0000    0.0000    0.0000 N   0  0  0  0  0  0  0  0  0  0  0  0
    0.0000    0.0000    0.0000 C   0  0  0  0  0  0  0  0  0  0  0  0
    0.0000    0.0000    0.0000 C   0  0  0  0  0  0  0  0  0  0  0  0
    0.0000    0.0000    0.0000 C   0  0  0  0  0  0  0  0  0  0  0  0
    0.0000    0.0000    0.0000 C   0  0  0  0  0  0  0  0  0  0  0  0
    0.0000    0.0000    0.0000 C   0  0  0  0  0  0  0  0  0  0  0  0
    0.0000    0.0000    0.0000 C   0  0  0  0  0  0  0  0  0  0  0  0
    0.0000    0.0000    0.0000 C   0  0  0  0  0  0  0  0  0  0  0  0
    0.0000    0.0000    0.0000 C   0  0  0  0  0  0  0  0  0  0  0  0
    0.0000    0.0000    0.0000 C   0  0  0  0  0  0  0  0  0  0  0  0
    0.0000    0.0000    0.0000 C   0  0  0  0  0  0  0  0  0  0  0  0
  1  4  1  0
  1  5  1  0
  1  6  1  0
  1  7  2  0
  2 14  1  0
  2 15  1  0
  3 13  1  0
  4 17  1  0
  8 14  1  0
  8 18  1  0
  8 19  1  0
  9 19  2  0
  9 20  1  0
 10 18  1  0
 10 22  2  0
 11 21  2  0
 11 22  1  0
 12 21  1  0
 13 15  1  0
 13 16  1  0
 14 16  1  0
 15 17  1  0
 18 20  2  0
 20 21  1  0
M  END
>  <PUBCHEM_COMPOUND_CID>  (1) 
621

>  <PUBCHEM_CONFORMER_RMSD>  (1) 
0.8

>  <PUBCHEM_CONFORMER_DIVERSEORDER>  (1) 
18
22
132
139
51
19
28
3
135
79
41
77
138
94
47
74
67
12
66
40
117
26
116
6
24
75
1
61
60
133
142
95
90
115
49
35
89
20
16
71
93
108
44
123
124
17
5
11
92
106
91
53
46
21
55
136
7
73
32
59
102
27
130
38
103
23
84
50
141
4
87
68
127
25
122
104
131
128
96
43
72
140
144
10
145
88
52
143
64
45
111
15
37
137
42
99
121
81
112
29
14
97
58
2
30
119
114
39
113
56
118
70
34
33
54
9
57
120
82
100
8
78
36
31
76
101
80
107
126
98
13
69
62
110
86
63
48
85
83
105
125
129
134
65
109

>  <PUBCHEM_MMFF94_PARTIAL_CHARGES>  (1) 
28
1 1.51
10 -0.57
11 -0.62
12 -0.9
13 0.28
14 0.54
15 0.28
17 0.28
18 0.11
19 0.04
2 -0.56
20 0.23
21 0.41
22 0.47
3 -0.68
30 0.4
31 0.15
32 0.15
33 0.4
34 0.4
35 0.5
36 0.5
4 -0.55
5 -0.77
6 -0.77
7 -0.7
8 0.05
9 -0.57

>  <PUBCHEM_EFFECTIVE_ROTOR_COUNT>  (1) 
5

>  <PUBCHEM_PHARMACOPHORE_FEATURES>  (1) 
15
1 12 cation
1 12 donor
1 2 acceptor
1 3 acceptor
1 3 donor
1 5 acceptor
1 6 acceptor
1 7 acceptor
3 10 11 22 cation
3 8 10 18 cation
3 8 9 19 cation
4 1 5 6 7 anion
5 2 13 14 15 16 rings
5 8 9 18 19 20 rings
6 10 11 18 20 21 22 rings

>  <PUBCHEM_HEAVY_ATOM_COUNT>  (1) 
22

>  <PUBCHEM_ATOM_DEF_STEREO_COUNT>  (1) 
0

>  <PUBCHEM_ATOM_UDEF_STEREO_COUNT>  (1) 
3

>  <PUBCHEM_BOND_DEF_STEREO_COUNT>  (1) 
0

>  <PUBCHEM_BOND_UDEF_STEREO_COUNT>  (1) 
0

>  <PUBCHEM_ISOTOPIC_ATOM_COUNT>  (1) 
0

>  <PUBCHEM_COMPONENT_COUNT>  (1) 
1

>  <PUBCHEM_CACTVS_TAUTO_COUNT>  (1) 
3

$$$$
