6213
     RDKit          3D

  5  4  0  0  0  0  0  0  0  0999 V2000
    0.0000   -0.1567    0.0002 S   0  0  0  0  0  0  0  0  0  0  0  0
   -0.0001   -0.8716   -1.2611 O   0  0  0  0  0  0  0  0  0  0  0  0
    0.0000   -0.8687    1.2630 O   0  0  0  0  0  0  0  0  0  0  0  0
   -1.3899    0.9487   -0.0010 C   0  0  0  0  0  0  0  0  0  0  0  0
    1.3901    0.9484   -0.0011 C   0  0  0  0  0  0  0  0  0  0  0  0
  1  2  2  0
  1  3  2  0
  1  4  1  0
  1  5  1  0
M  END
>  <PUBCHEM_COMPOUND_CID>  (1) 
6213

>  <PUBCHEM_CONFORMER_RMSD>  (1) 
0.4

>  <PUBCHEM_CONFORMER_DIVERSEORDER>  (1) 
1

>  <PUBCHEM_MMFF94_PARTIAL_CHARGES>  (1) 
5
1 1.09
2 -0.65
3 -0.65
4 0.11
5 0.11

>  <PUBCHEM_EFFECTIVE_ROTOR_COUNT>  (1) 
0

>  <PUBCHEM_PHARMACOPHORE_FEATURES>  (1) 
2
1 2 acceptor
1 3 acceptor

>  <PUBCHEM_HEAVY_ATOM_COUNT>  (1) 
5

>  <PUBCHEM_ATOM_DEF_STEREO_COUNT>  (1) 
0

>  <PUBCHEM_ATOM_UDEF_STEREO_COUNT>  (1) 
0

>  <PUBCHEM_BOND_DEF_STEREO_COUNT>  (1) 
0

>  <PUBCHEM_BOND_UDEF_STEREO_COUNT>  (1) 
0

>  <PUBCHEM_ISOTOPIC_ATOM_COUNT>  (1) 
0

>  <PUBCHEM_COMPONENT_COUNT>  (1) 
1

>  <PUBCHEM_CACTVS_TAUTO_COUNT>  (1) 
1

>  <PUBCHEM_CONFORMER_ID>  (1) 
0000184500000001

>  <PUBCHEM_MMFF94_ENERGY>  (1) 
4.8984

>  <PUBCHEM_FEATURE_SELFOVERLAP>  (1) 
10.166

>  <PUBCHEM_SHAPE_FINGERPRINT>  (1) 
139733 1 9187342685785400928
20096714 4 18410849945432767520
21015797 1 17835756938307049829
5943 1 17401704953508010336

>  <PUBCHEM_SHAPE_MULTIPOLES>  (1) 
95.01
1.43
1.22
1.09
0
0.07
0
0.74
0
0
0
0
-0.45
0

>  <PUBCHEM_SHAPE_SELFOVERLAP>  (1) 
154.289

>  <PUBCHEM_SHAPE_VOLUME>  (1) 
67.6

>  <PUBCHEM_COORDINATE_TYPE>  (1) 
2
5
10

$$$$
