6216
     RDKit          3D

 34 37  0  0  1  0  0  0  0  0999 V2000
   -2.1122   -0.3216    1.2332 F   0  0  0  0  0  0  0  0  0  0  0  0
    2.2022    0.3247    1.5057 O   0  0  0  0  0  0  0  0  0  0  0  0
    2.7566    2.8015    0.6969 O   0  0  0  0  0  0  0  0  0  0  0  0
   -1.1054   -2.2675   -1.6316 O   0  0  0  0  0  0  0  0  0  0  0  0
    4.3587    0.3861   -0.9576 O   0  0  0  0  0  0  0  0  0  0  0  0
    4.9381   -2.0491    0.1975 O   0  0  0  0  0  0  0  0  0  0  0  0
   -6.9175   -0.7410    1.9016 O   0  0  0  0  0  0  0  0  0  0  0  0
    2.2456    4.6842   -0.5406 O   0  0  0  0  0  0  0  0  0  0  0  0
    4.3141   -4.2274    0.6483 O   0  0  0  0  0  0  0  0  0  0  0  0
    0.9200   -0.0902   -0.5455 C   0  0  0  0  0  0  0  0  0  0  0  0
   -0.0559    1.0465   -0.1652 C   0  0  0  0  0  0  0  0  0  0  0  0
   -1.4746    0.8375   -0.7149 C   0  0  0  0  0  0  0  0  0  0  0  0
   -2.0574   -0.5009   -0.1417 C   0  0  0  0  0  0  0  0  0  0  0  0
    2.2204    0.4765    0.0902 C   0  0  0  0  0  0  0  0  0  0  0  0
    0.3744   -1.3901    0.0783 C   0  0  0  0  0  0  0  0  0  0  0  0
    0.7007    2.3243   -0.5374 C   0  0  0  0  0  0  0  0  0  0  0  0
   -1.0827   -1.7027   -0.3310 C   0  0  0  0  0  0  0  0  0  0  0  0
    2.1867    1.9730   -0.3054 C   0  0  0  0  0  0  0  0  0  0  0  0
   -3.5522   -0.7336   -0.5968 C   0  0  0  0  0  0  0  0  0  0  0  0
   -2.3709    2.0355   -0.3490 C   0  0  0  0  0  0  0  0  0  0  0  0
    1.1258   -0.2501   -2.0775 C   0  0  0  0  0  0  0  0  0  0  0  0
   -3.8199    1.8253   -0.7715 C   0  0  0  0  0  0  0  0  0  0  0  0
   -4.3451    0.5243   -0.2199 C   0  0  0  0  0  0  0  0  0  0  0  0
    3.4761   -0.2163   -0.3485 C   0  0  0  0  0  0  0  0  0  0  0  0
   -3.7334   -0.9672   -2.1140 C   0  0  0  0  0  0  0  0  0  0  0  0
   -4.1227   -1.9678    0.0866 C   0  0  0  0  0  0  0  0  0  0  0  0
   -5.4205    0.5158    0.5833 C   0  0  0  0  0  0  0  0  0  0  0  0
    3.5883   -1.6852    0.0003 C   0  0  0  0  0  0  0  0  0  0  0  0
   -5.1922   -1.9825    0.8881 C   0  0  0  0  0  0  0  0  0  0  0  0
   -5.9252   -0.7374    1.1809 C   0  0  0  0  0  0  0  0  0  0  0  0
    2.7197    4.1471    0.4513 C   0  0  0  0  0  0  0  0  0  0  0  0
    3.3522    4.8920    1.5876 C   0  0  0  0  0  0  0  0  0  0  0  0
    5.1698   -3.3622    0.5202 C   0  0  0  0  0  0  0  0  0  0  0  0
    6.6386   -3.6015    0.6980 C   0  0  0  0  0  0  0  0  0  0  0  0
  1 13  1  0
  2 14  1  0
  3 18  1  0
  3 31  1  0
  4 17  1  0
  5 24  2  0
  6 28  1  0
  6 33  1  0
  7 30  2  0
  8 31  2  0
  9 33  2  0
 10 11  1  0
 10 14  1  0
 10 15  1  0
 10 21  1  0
 11 12  1  0
 11 16  1  0
 12 13  1  0
 12 20  1  0
 13 17  1  0
 13 19  1  0
 14 18  1  0
 14 24  1  0
 15 17  1  0
 16 18  1  0
 19 23  1  0
 19 25  1  0
 19 26  1  0
 20 22  1  0
 22 23  1  0
 23 27  2  0
 24 28  1  0
 26 29  2  0
 27 30  1  0
 29 30  1  0
 31 32  1  0
 33 34  1  0
M  END
>  <PUBCHEM_COMPOUND_CID>  (1) 
6216

>  <PUBCHEM_CONFORMER_RMSD>  (1) 
1

>  <PUBCHEM_CONFORMER_DIVERSEORDER>  (1) 
1
5
4
6
8
9
7
3
2
10

>  <PUBCHEM_MMFF94_PARTIAL_CHARGES>  (1) 
31
1 -0.34
13 0.34
14 0.34
17 0.28
18 0.28
19 0.28
2 -0.68
22 0.14
23 -0.28
24 0.45
26 -0.29
27 -0.14
28 0.34
29 -0.14
3 -0.43
30 0.54
31 0.66
32 0.06
33 0.66
34 0.06
4 -0.68
5 -0.57
53 0.15
54 0.4
55 0.4
56 0.15
59 0.15
6 -0.43
7 -0.57
8 -0.57
9 -0.57

>  <PUBCHEM_EFFECTIVE_ROTOR_COUNT>  (1) 
7.4

>  <PUBCHEM_PHARMACOPHORE_FEATURES>  (1) 
12
1 2 acceptor
1 2 donor
1 4 acceptor
1 4 donor
1 5 acceptor
1 7 acceptor
1 8 acceptor
1 9 acceptor
5 10 11 14 16 18 rings
6 10 11 12 13 15 17 rings
6 12 13 19 20 22 23 rings
6 19 23 26 27 29 30 rings

>  <PUBCHEM_HEAVY_ATOM_COUNT>  (1) 
34

>  <PUBCHEM_ATOM_DEF_STEREO_COUNT>  (1) 
8

>  <PUBCHEM_ATOM_UDEF_STEREO_COUNT>  (1) 
0

>  <PUBCHEM_BOND_DEF_STEREO_COUNT>  (1) 
0

>  <PUBCHEM_BOND_UDEF_STEREO_COUNT>  (1) 
0

>  <PUBCHEM_ISOTOPIC_ATOM_COUNT>  (1) 
0

>  <PUBCHEM_COMPONENT_COUNT>  (1) 
1

>  <PUBCHEM_CACTVS_TAUTO_COUNT>  (1) 
6

>  <PUBCHEM_CONFORMER_ID>  (1) 
0000184800000001

>  <PUBCHEM_MMFF94_ENERGY>  (1) 
108.6507

>  <PUBCHEM_FEATURE_SELFOVERLAP>  (1) 
60.999

>  <PUBCHEM_SHAPE_FINGERPRINT>  (1) 
10074138 170 17548962370355933600
11135926 11 18336818810476342644
11331351 85 17702949124186194574
11456790 92 18267596715282452769
12107183 9 18269283365824022721
12166972 35 17749401325411559782
12342043 65 17895205406539939027
12403259 226 18334854983076021853
12403259 415 18261954154425806629
12422481 6 18059016073332004871
12516196 113 18338796711572752074
12633257 1 17346877853692518023
13140716 1 18194966467999826622
13224815 77 18337386166802679477
13533116 47 18334299798671196515
13540713 4 18187631514789707157
13540713 5 17844799476990968687
13757389 114 16750731746254375228
13782708 43 17530684281754573274
13955234 65 18340486789487610472
14341114 176 18260272945190795755
14347424 109 18341343262270356913
14394314 77 18267018354695988546
14849402 71 18337962289146516904
14955137 171 18337672997118246490
15042514 8 18050847715723275996
15927050 60 18052541260036165806
16992752 21 18194410988303373526
17349148 13 17775287166297623679
17492 89 18337105769630852727
17980427 26 18125988606811852820
18393751 57 17619056678665750649
21033648 29 17558523868882471499
21049683 271 18334867117329194012
21130935 74 18265061396277833123
21267235 1 18261682458572800394
21716022 299 18042990717606340068
21796203 349 18268455493571502218
21987483 16 18194970875787026331
22182313 1 18042103497010796757
23522609 53 17975170644875857565
23559900 14 18410281506526849297
32027 91 18335974316304903131
335352 9 18265046930131193085
3383291 50 18187081719878521978
350125 39 18339933713247446389
376196 1 17125924601681170048
3886686 26 16607159094157975250
4409770 3 17686329872604550876
463206 1 18335700503687498866
5104073 3 18341613676793481880
5385378 56 18268712890930084736
6058803 2 17915167138625968495
6086070 43 18194098764906022597
6679774 75 17972022903191166032
6697151 62 18193812912824692188
79837 15 17258204698166238664
9981440 41 17761761167721573768

>  <PUBCHEM_SHAPE_MULTIPOLES>  (1) 
645.48
13.44
5.18
1.42
4.28
4.06
0.18
-10.72
-5.49
-11.07
-1.69
0.97
-0.04
0.36

>  <PUBCHEM_SHAPE_SELFOVERLAP>  (1) 
1391.652

>  <PUBCHEM_SHAPE_VOLUME>  (1) 
354.1

>  <PUBCHEM_COORDINATE_TYPE>  (1) 
2
5
10

$$$$
