6217
     RDKit          3D

 27 31  0  0  1  0  0  0  0  0999 V2000
    6.1835   -0.2597    1.0315 O   0  0  0  0  0  0  0  0  0  0  0  0
   -4.5351   -0.7638   -1.0140 O   0  0  0  0  0  0  0  0  0  0  0  0
    4.0265    0.6735    0.3532 C   0  0  0  0  0  0  0  0  0  0  0  0
    3.3569   -0.7088    0.5535 C   0  0  0  0  0  0  0  0  0  0  0  0
    1.8174   -0.6620    0.7015 C   0  0  0  0  0  0  0  0  0  0  0  0
    1.1114    0.1798   -0.3908 C   0  0  0  0  0  0  0  0  0  0  0  0
    5.4598    0.2522   -0.0966 C   0  0  0  0  0  0  0  0  0  0  0  0
    3.2814    1.4786   -0.7404 C   0  0  0  0  0  0  0  0  0  0  0  0
    3.8897   -1.5517   -0.6225 C   0  0  0  0  0  0  0  0  0  0  0  0
   -0.4508    0.2498   -0.1551 C   0  0  0  0  0  0  0  0  0  0  0  0
    1.7733    1.5671   -0.5123 C   0  0  0  0  0  0  0  0  0  0  0  0
    5.2169   -0.9188   -1.0595 C   0  0  0  0  0  0  0  0  0  0  0  0
    1.2243   -2.0792    0.7970 C   0  0  0  0  0  0  0  0  0  0  0  0
    4.0481    1.4745    1.6696 C   0  0  0  0  0  0  0  0  0  0  0  0
   -1.0145   -1.1491    0.1236 C   0  0  0  0  0  0  0  0  0  0  0  0
   -1.1363    0.8120   -1.4348 C   0  0  0  0  0  0  0  0  0  0  0  0
    6.3088    1.3557   -0.7217 C   0  0  0  0  0  0  0  0  0  0  0  0
   -0.2515   -2.1611    0.5693 C   0  0  0  0  0  0  0  0  0  0  0  0
   -0.8049    1.1575    1.0518 C   0  0  0  0  0  0  0  0  0  0  0  0
   -2.6694    0.7833   -1.3749 C   0  0  0  0  0  0  0  0  0  0  0  0
   -2.4283   -1.3752   -0.1415 C   0  0  0  0  0  0  0  0  0  0  0  0
   -3.1964   -0.4996   -0.8040 C   0  0  0  0  0  0  0  0  0  0  0  0
   -5.3413    0.2355   -0.4235 C   0  0  0  0  0  0  0  0  0  0  0  0
   -5.1570    0.2648    1.0847 C   0  0  0  0  0  0  0  0  0  0  0  0
   -6.8228   -0.0726   -0.5712 C   0  0  0  0  0  0  0  0  0  0  0  0
   -6.4053    0.9743    1.5939 C   0  0  0  0  0  0  0  0  0  0  0  0
   -7.4844    0.7429    0.5331 C   0  0  0  0  0  0  0  0  0  0  0  0
  1  7  1  0
  2 22  1  0
  2 23  1  0
  3  4  1  0
  3  7  1  0
  3  8  1  0
  3 14  1  0
  4  5  1  0
  4  9  1  0
  5  6  1  0
  5 13  1  0
  6 10  1  0
  6 11  1  0
  7 12  1  0
  7 17  1  0
  8 11  1  0
  9 12  1  0
 10 15  1  0
 10 16  1  0
 10 19  1  0
 13 18  1  0
 15 18  2  0
 15 21  1  0
 16 20  1  0
 20 22  1  0
 21 22  2  0
 23 24  1  0
 23 25  1  0
 24 26  1  0
 25 27  1  0
 26 27  1  0
M  END
>  <PUBCHEM_COMPOUND_CID>  (1) 
6217

>  <PUBCHEM_CONFORMER_RMSD>  (1) 
0.8

>  <PUBCHEM_CONFORMER_DIVERSEORDER>  (1) 
1
20
19
16
5
29
28
11
23
12
9
18
25
27
21
14
4
17
8
26
30
7
15
3
24
31
10
22
2
13
6

>  <PUBCHEM_MMFF94_PARTIAL_CHARGES>  (1) 
14
1 -0.68
10 0.14
13 0.14
15 -0.14
18 -0.29
2 -0.36
20 0.14
21 -0.15
22 -0.06
23 0.28
49 0.15
53 0.4
56 0.15
7 0.28

>  <PUBCHEM_EFFECTIVE_ROTOR_COUNT>  (1) 
4.6

>  <PUBCHEM_PHARMACOPHORE_FEATURES>  (1) 
8
1 1 acceptor
1 1 donor
1 2 acceptor
5 23 24 25 26 27 rings
5 3 4 7 9 12 rings
6 10 15 16 20 21 22 rings
6 3 4 5 6 8 11 rings
6 5 6 10 13 15 18 rings

>  <PUBCHEM_HEAVY_ATOM_COUNT>  (1) 
27

>  <PUBCHEM_ATOM_DEF_STEREO_COUNT>  (1) 
3

>  <PUBCHEM_ATOM_UDEF_STEREO_COUNT>  (1) 
3

>  <PUBCHEM_BOND_DEF_STEREO_COUNT>  (1) 
0

>  <PUBCHEM_BOND_UDEF_STEREO_COUNT>  (1) 
0

>  <PUBCHEM_ISOTOPIC_ATOM_COUNT>  (1) 
0

>  <PUBCHEM_COMPONENT_COUNT>  (1) 
1

>  <PUBCHEM_CACTVS_TAUTO_COUNT>  (1) 
1

>  <PUBCHEM_CONFORMER_ID>  (1) 
0000184900000001

>  <PUBCHEM_MMFF94_ENERGY>  (1) 
88.7853

>  <PUBCHEM_FEATURE_SELFOVERLAP>  (1) 
40.793

>  <PUBCHEM_SHAPE_FINGERPRINT>  (1) 
10 15 17313105267323316909
106641 1 13479139016415961118
10906281 52 18339377339152218678
11089746 13 17989486338219883081
11135609 127 15769197449433530008
11488393 25 18120088373471687243
11578080 2 17984694791147670520
11646440 116 18335136492634075072
11796584 16 16056878056986594086
11963148 33 16515683368568604011
12236239 1 18131913750303782339
12403259 415 18261380161620934884
12592029 89 17822003190405255978
12596602 18 18131912676788857531
12730499 353 18113902632817473090
12778500 126 17775291521130724144
12788726 201 18271524199911149929
12916748 109 17967812726094576388
13533116 47 18130790019139438814
13914758 101 16702030746357896673
14251752 14 15841554050594028911
14251764 18 18202565090565882357
14464042 87 18202568354219210353
14840074 17 18260830401933683071
14849402 71 18337396062065106997
14856354 85 17632858664177994895
14955137 171 17386296484131320661
15142383 8 16486972873709596200
15183329 4 16630531717634059459
15461852 350 17561074810308198677
15475509 8 18270696285140992364
15788980 27 16415477172952280687
15840311 113 18343585153399655113
18222031 100 8862947177842043895
18608769 82 18113622321491809627
21033648 29 18339354296842534714
21267235 1 17968093076396679170
21521721 280 18187368757090197616
21623969 137 17822015302645501659
21781051 124 17023482875186626874
221357 26 18130787841712215576
22224240 67 17967534580245281235
23198884 109 17346598578303188503
23522609 53 18264510488305180421
23536379 177 17275386499626481943
23559900 14 18269551809933370688
23569914 2 16625127549175375289
23569943 247 18124599678043877843
23576562 1 14260765357366342129
24771293 8 18267572688935165804
3004659 81 14549019892619000166
3009799 131 11455890244000896459
3178227 256 17821733840026438520
335352 9 18334012813525693382
34797466 226 14562539457440010318
350125 39 18259703414862330068
3633792 109 18337380562534620095
3680242 22 18114452410158659538
38695281 34 18202566172539828639
4073 2 18342457105423641030
4093350 32 17846783970598128286
4340502 62 18334012791528649639
439807 62 8573838267159474153
465052 167 16660361472211260912
5104073 3 18042962266978255272
5283173 99 13038640509218440403
53794403 172 17897450707999962796
5385378 56 18335981978299940186
542803 24 18131630092808439229
5758199 1 18409451384407343547
59682541 35 17530971319362258937
59755656 215 18334013860949106695
59755656 520 18413385454260369815
6328613 192 17846499240526538473
7226269 152 18131636677647854273
7495541 125 15213307442851600261
8988823 20 10809349948984761038

>  <PUBCHEM_SHAPE_MULTIPOLES>  (1) 
543.91
17.37
1.77
1.34
15.13
0.48
0.15
-4.41
1.53
-1.24
0.17
0.33
-0.3
-0.39

>  <PUBCHEM_SHAPE_SELFOVERLAP>  (1) 
1168.3

>  <PUBCHEM_SHAPE_VOLUME>  (1) 
300.1

>  <PUBCHEM_COORDINATE_TYPE>  (1) 
2
5
10

$$$$
