623
     RDKit          3D

 24 25  0  0  1  0  0  0  0  0999 V2000
    4.1339    0.9884    0.0198 P   0  0  0  0  0  0  0  0  0  0  0  0
    4.4452   -1.9362    0.0821 P   0  0  0  0  0  0  0  0  0  0  0  0
   -0.8180    0.2727    0.6119 O   0  0  0  0  0  0  0  0  0  0  0  0
    0.1425    3.0351   -0.0895 O   0  0  0  0  0  0  0  0  0  0  0  0
    2.5991    0.9236   -0.4868 O   0  0  0  0  0  0  0  0  0  0  0  0
   -4.6455    1.7006    0.8997 O   0  0  0  0  0  0  0  0  0  0  0  0
    4.3950   -0.4489    0.7123 O   0  0  0  0  0  0  0  0  0  0  0  0
    4.1018    2.0055    1.2775 O   0  0  0  0  0  0  0  0  0  0  0  0
    5.1310    1.3495   -1.0429 O   0  0  0  0  0  0  0  0  0  0  0  0
    4.9128   -2.8483    1.3317 O   0  0  0  0  0  0  0  0  0  0  0  0
    5.7528   -1.8956   -0.8668 O   0  0  0  0  0  0  0  0  0  0  0  0
    3.1778   -2.3739   -0.5907 O   0  0  0  0  0  0  0  0  0  0  0  0
   -3.1085    0.1583    0.1345 N   0  0  0  0  0  0  0  0  0  0  0  0
   -5.4642   -0.3368    0.3246 N   0  0  0  0  0  0  0  0  0  0  0  0
   -6.2964   -2.4269   -0.2647 N   0  0  0  0  0  0  0  0  0  0  0  0
   -0.1595    1.9340   -0.9378 C   0  0  0  0  0  0  0  0  0  0  0  0
    0.2382    0.6046   -0.3092 C   0  0  0  0  0  0  0  0  0  0  0  0
   -1.6616    1.7869   -1.0216 C   0  0  0  0  0  0  0  0  0  0  0  0
   -1.9823    1.0368    0.2636 C   0  0  0  0  0  0  0  0  0  0  0  0
    1.5653    0.5924    0.4264 C   0  0  0  0  0  0  0  0  0  0  0  0
   -2.8999   -1.1292   -0.3380 C   0  0  0  0  0  0  0  0  0  0  0  0
   -4.4244    0.5649    0.4753 C   0  0  0  0  0  0  0  0  0  0  0  0
   -3.8860   -2.0113   -0.4889 C   0  0  0  0  0  0  0  0  0  0  0  0
   -5.2491   -1.5463   -0.1225 C   0  0  0  0  0  0  0  0  0  0  0  0
  1  5  1  0
  1  7  1  0
  1  8  1  0
  1  9  2  0
  2  7  1  0
  2 10  1  0
  2 11  1  0
  2 12  2  0
  3 17  1  0
  3 19  1  0
  4 16  1  0
  5 20  1  0
  6 22  2  0
 13 19  1  0
 13 21  1  0
 13 22  1  0
 14 22  1  0
 14 24  2  0
 15 24  1  0
 16 17  1  0
 16 18  1  0
 17 20  1  0
 18 19  1  0
 21 23  2  0
 23 24  1  0
M  END
>  <PUBCHEM_COMPOUND_CID>  (1) 
623

>  <PUBCHEM_CONFORMER_RMSD>  (1) 
1

>  <PUBCHEM_CONFORMER_DIVERSEORDER>  (1) 
7
278
419
363
12
335
909
403
66
74
663
914
305
521
901
773
948
933
1020
19
895
127
37
258
210
86
766
453
94
691
150
961
383
33
25
260
552
373
749
705
184
1011
468
144
797
83
851
359
618
344
592
830
560
203
763
610
1026
622
994
24
725
52
953
815
231
241
301
67
251
750
185
1046
171
439
971
227
963
103
709
410
733
813
30
884
890
950
445
418
57
888
458
844
323
51
132
767
59
423
881
401
155
803
175
956
348
874
14
284
541
353
186
237
26
780
259
829
917
108
261
687
274
153
481
804
492
8
378
436
1083
833
191
608
448
1074
632
193
397
619
531
23
823
106
998
728
360
703
351
53
1057
60
320
245
533
76
739
413
923
62
529
55
974
34
43
814
984
885
420
730
281
358
1029
798
433
239
177
56
1005
983
535
398
676
152
75
242
265
704
591
90
1019
930
404
104
379
371
520
1007
820
523
964
162
992
101
188
747
405
115
22
682
268
668
41
49
429
16
81
1036
46
3
208
451
512
131
729
154
772
244
21
9
694
276
253
862
711
638
505
424
524
662
778
572
222
932
111
167
462
63
289
5
1038
283
791
73
2
116
1056
555
1022
537
65
640
322
247
142
331
484
564
613
843
257
120
946
831
1080
442
201
238
61
169
95
32
465
409
990
463
148
212
530
28
1015
282
495
4
367
919
834
605
689
722
557
147
160
88
340
140
92
997
710
38
354
324
217
472
679
80
82
612
6
671
112
1021
1
380
196
110
911

>  <PUBCHEM_MMFF94_PARTIAL_CHARGES>  (1) 
31
1 1.51
10 -0.77
11 -0.77
12 -0.7
13 -0.47
14 -0.66
15 -0.85
16 0.28
17 0.28
19 0.58
2 1.51
20 0.28
21 -0.04
22 0.84
23 -0.14
24 0.49
3 -0.56
32 0.4
33 0.15
34 0.15
35 0.5
36 0.4
37 0.4
38 0.5
39 0.5
4 -0.68
5 -0.55
6 -0.57
7 -0.54
8 -0.77
9 -0.7

>  <PUBCHEM_EFFECTIVE_ROTOR_COUNT>  (1) 
7

>  <PUBCHEM_PHARMACOPHORE_FEATURES>  (1) 
14
1 10 acceptor
1 11 acceptor
1 12 acceptor
1 14 donor
1 15 donor
1 3 acceptor
1 4 acceptor
1 4 donor
1 6 acceptor
1 8 acceptor
1 9 acceptor
4 2 10 11 12 anion
5 3 16 17 18 19 rings
6 13 14 21 22 23 24 rings

>  <PUBCHEM_HEAVY_ATOM_COUNT>  (1) 
24

>  <PUBCHEM_ATOM_DEF_STEREO_COUNT>  (1) 
0

>  <PUBCHEM_ATOM_UDEF_STEREO_COUNT>  (1) 
3

>  <PUBCHEM_BOND_DEF_STEREO_COUNT>  (1) 
0

>  <PUBCHEM_BOND_UDEF_STEREO_COUNT>  (1) 
0

>  <PUBCHEM_ISOTOPIC_ATOM_COUNT>  (1) 
0

>  <PUBCHEM_COMPONENT_COUNT>  (1) 
1

>  <PUBCHEM_CACTVS_TAUTO_COUNT>  (1) 
3

>  <PUBCHEM_CONFORMER_ID>  (1) 
0000026F00000007

>  <PUBCHEM_MMFF94_ENERGY>  (1) 
4.8198

>  <PUBCHEM_FEATURE_SELFOVERLAP>  (1) 
71.145

>  <PUBCHEM_SHAPE_FINGERPRINT>  (1) 
10595046 47 18410859901135363089
12107183 9 18197506116912379337
12236239 1 18335421305269483409
12596602 18 17560805458615584994
13073987 5 18343020016795742369
13150687 139 17824284785720955348
13167823 11 18413670218506483898
13533116 47 18342175613139837282
13551218 46 18411982464374875719
1420 369 18408602560887472230
14211702 104 18261960760048838115
14251740 57 18413672405219974102
14251751 18 18337945680782322634
14347332 77 18114457847697830660
15196674 1 18411700984786478767
15880784 105 18343024384513608539
17492 89 18264484001879694814
17844677 252 18202289133942288905
17857418 61 18409727335750344594
1813 80 17676204684350194277
19141452 34 18412266104056885789
20281475 54 18410012139005092740
21267235 1 18265622164213274259
220451 1 18340497728526447089
22950370 63 18409451383790346693
23522609 53 18048068249129272484
23559900 14 18342170077017118296
239999 70 17988932219035915356
3004659 81 18334296448844592838
312425 54 18343866602099621417
314194 84 18335426823853903593
34797466 226 12829493619005885627
465052 167 18131356306435124982
5104073 3 18272936016122742057
559249 180 18410855435218363479
9981440 41 16894831541204579801

>  <PUBCHEM_SHAPE_MULTIPOLES>  (1) 
427.97
14.85
3.12
0.97
0.29
0.81
0.04
9.69
0.89
-1.5
-0.1
-0.64
-0.11
-0.71

>  <PUBCHEM_SHAPE_SELFOVERLAP>  (1) 
858.608

>  <PUBCHEM_SHAPE_VOLUME>  (1) 
252.7

>  <PUBCHEM_COORDINATE_TYPE>  (1) 
2
5
10

$$$$
