6256
     RDKit          3D

 20 21  0  0  1  0  0  0  0  0999 V2000
   -1.7980    2.5059   -0.1315 F   0  0  0  0  0  0  0  0  0  0  0  0
   -3.3132    1.4566   -1.2959 F   0  0  0  0  0  0  0  0  0  0  0  0
   -3.4855    1.5611    0.8746 F   0  0  0  0  0  0  0  0  0  0  0  0
    2.0134    0.2723    1.0117 O   0  0  0  0  0  0  0  0  0  0  0  0
    4.6217   -0.7561   -0.2179 O   0  0  0  0  0  0  0  0  0  0  0  0
    1.9123    3.0581    0.7242 O   0  0  0  0  0  0  0  0  0  0  0  0
    0.2161   -3.3724    0.3045 O   0  0  0  0  0  0  0  0  0  0  0  0
   -3.7940   -1.1605   -0.1134 O   0  0  0  0  0  0  0  0  0  0  0  0
    0.2561   -1.0406    0.1976 N   0  0  0  0  0  0  0  0  0  0  0  0
   -1.7768   -2.2566    0.0954 N   0  0  0  0  0  0  0  0  0  0  0  0
    1.6815   -0.9309    0.3043 C   0  0  0  0  0  0  0  0  0  0  0  0
    3.5607    0.0224   -0.7672 C   0  0  0  0  0  0  0  0  0  0  0  0
    2.3707   -0.8655   -1.0489 C   0  0  0  0  0  0  0  0  0  0  0  0
    3.0293    0.9881    0.2829 C   0  0  0  0  0  0  0  0  0  0  0  0
    2.3847    2.2275   -0.3240 C   0  0  0  0  0  0  0  0  0  0  0  0
   -0.4911    0.1247    0.0838 C   0  0  0  0  0  0  0  0  0  0  0  0
   -0.3825   -2.2992    0.2067 C   0  0  0  0  0  0  0  0  0  0  0  0
   -1.8251    0.1620   -0.0227 C   0  0  0  0  0  0  0  0  0  0  0  0
   -2.5700   -1.1251   -0.0199 C   0  0  0  0  0  0  0  0  0  0  0  0
   -2.6103    1.4283   -0.1442 C   0  0  0  0  0  0  0  0  0  0  0  0
  1 20  1  0
  2 20  1  0
  3 20  1  0
  4 11  1  0
  4 14  1  0
  5 12  1  0
  6 15  1  0
  7 17  2  0
  8 19  2  0
  9 11  1  0
  9 16  1  0
  9 17  1  0
 10 17  1  0
 10 19  1  0
 11 13  1  0
 12 13  1  0
 12 14  1  0
 14 15  1  0
 16 18  2  0
 18 19  1  0
 18 20  1  0
M  END
>  <PUBCHEM_COMPOUND_CID>  (1) 
6256

>  <PUBCHEM_CONFORMER_RMSD>  (1) 
0.6

>  <PUBCHEM_CONFORMER_DIVERSEORDER>  (1) 
1
7
15
12
9
4
10
14
13
11
5
8
6
3
2

>  <PUBCHEM_MMFF94_PARTIAL_CHARGES>  (1) 
23
1 -0.34
10 -0.49
11 0.58
12 0.28
14 0.28
15 0.28
16 -0.04
17 0.69
18 -0.12
19 0.62
2 -0.34
20 1.16
28 0.15
29 0.4
3 -0.34
30 0.37
31 0.4
4 -0.56
5 -0.68
6 -0.68
7 -0.57
8 -0.57
9 -0.47

>  <PUBCHEM_EFFECTIVE_ROTOR_COUNT>  (1) 
4

>  <PUBCHEM_PHARMACOPHORE_FEATURES>  (1) 
10
1 10 donor
1 4 acceptor
1 5 acceptor
1 5 donor
1 6 acceptor
1 6 donor
1 7 acceptor
1 8 acceptor
5 4 11 12 13 14 rings
6 9 10 16 17 18 19 rings

>  <PUBCHEM_HEAVY_ATOM_COUNT>  (1) 
20

>  <PUBCHEM_ATOM_DEF_STEREO_COUNT>  (1) 
3

>  <PUBCHEM_ATOM_UDEF_STEREO_COUNT>  (1) 
0

>  <PUBCHEM_BOND_DEF_STEREO_COUNT>  (1) 
0

>  <PUBCHEM_BOND_UDEF_STEREO_COUNT>  (1) 
0

>  <PUBCHEM_ISOTOPIC_ATOM_COUNT>  (1) 
0

>  <PUBCHEM_COMPONENT_COUNT>  (1) 
1

>  <PUBCHEM_CACTVS_TAUTO_COUNT>  (1) 
3

>  <PUBCHEM_CONFORMER_ID>  (1) 
0000187000000001

>  <PUBCHEM_MMFF94_ENERGY>  (1) 
40.2333

>  <PUBCHEM_FEATURE_SELFOVERLAP>  (1) 
50.753

>  <PUBCHEM_SHAPE_FINGERPRINT>  (1) 
10498660 4 18334852797201256357
10608611 8 18340487888835330720
10967382 1 18194120707360985978
11578080 2 13325717415820674306
12173636 292 18337669823121441423
12403259 226 18410574015401020478
12403260 363 18339352058837824054
13140716 1 18410577292519330289
15442244 35 18408884045023673778
15775835 57 18114184090460794348
16945 1 18266172829942894699
17802600 8 18410008875008880060
18186145 218 18342178838649733328
18219364 16 18335145237224315569
19591789 44 18338519750268812611
20233049 118 18262237721067083172
20510252 161 18340207513322827331
21501502 16 18339648965779468988
21524375 3 18261112950114530371
23114952 82 17986135086944712092
2334 1 18337669840401712385
23402539 116 18271240526617707742
23557571 272 17832997422199496398
23558518 356 18263085585675130130
23559900 14 18342174527046042970
238 59 17685174362976476557
25 1 18266464208818953166
2748010 2 18337105773825287909
3084891 72 18268148652644300998
350125 39 18337398226511443481
7364860 26 18050285868991569367
74978 22 18410009961841301768
7832392 63 18341051800582169800
81228 2 17974289021175465379
9709674 26 18269840989685661166
9925002 15 15033717989975176238

>  <PUBCHEM_SHAPE_MULTIPOLES>  (1) 
350.46
6.65
3.15
0.85
0.98
0.11
-0.09
1.52
-0.82
-0.61
0.34
0.12
0.16
0.45

>  <PUBCHEM_SHAPE_SELFOVERLAP>  (1) 
745.134

>  <PUBCHEM_SHAPE_VOLUME>  (1) 
195.8

>  <PUBCHEM_COORDINATE_TYPE>  (1) 
2
5
10

$$$$
