6257
     RDKit          2D

 16 17  0  0  1  0  0  0  0  0999 V2000
    0.0000    0.0000    0.0000 O   0  0  0  0  0  0  0  0  0  0  0  0
    0.0000    0.0000    0.0000 O   0  0  0  0  0  0  0  0  0  0  0  0
    0.0000    0.0000    0.0000 O   0  0  0  0  0  0  0  0  0  0  0  0
    0.0000    0.0000    0.0000 O   0  0  0  0  0  0  0  0  0  0  0  0
    0.0000    0.0000    0.0000 N   0  0  0  0  0  0  0  0  0  0  0  0
    0.0000    0.0000    0.0000 C   0  0  0  0  0  0  0  0  0  0  0  0
    0.0000    0.0000    0.0000 C   0  0  0  0  0  0  0  0  0  0  0  0
    0.0000    0.0000    0.0000 C   0  0  0  0  0  0  0  0  0  0  0  0
    0.0000    0.0000    0.0000 C   0  0  0  0  0  0  0  0  0  0  0  0
    0.0000    0.0000    0.0000 C   0  0  0  0  0  0  0  0  0  0  0  0
    0.0000    0.0000    0.0000 C   0  0  0  0  0  0  0  0  0  0  0  0
    0.0000    0.0000    0.0000 C   0  0  0  0  0  0  0  0  0  0  0  0
    0.0000    0.0000    0.0000 C   0  0  0  0  0  0  0  0  0  0  0  0
    0.0000    0.0000    0.0000 C   0  0  0  0  0  0  0  0  0  0  0  0
    0.0000    0.0000    0.0000 C   0  0  0  0  0  0  0  0  0  0  0  0
    0.0000    0.0000    0.0000 C   0  0  0  0  0  0  0  0  0  0  0  0
  1  6  1  0
  1  9  1  0
  2  8  1  0
  2 10  1  0
  3  9  2  0
  4 11  1  0
  4 16  1  0
  5  7  1  0
  5  9  1  0
  6  7  1  0
  6  8  1  0
 10 11  2  0
 10 12  1  0
 11 13  1  0
 12 14  2  0
 13 15  2  0
 14 15  1  0
M  END
>  <PUBCHEM_COMPOUND_CID>  (1) 
6257

>  <PUBCHEM_CONFORMER_RMSD>  (1) 
0.6

>  <PUBCHEM_CONFORMER_DIVERSEORDER>  (1) 
138
75
96
131
43
126
84
99
91
82
129
97
133
123
127
134
114
3
98
68
55
147
108
102
9
113
136
85
69
125
143
95
130
122
132
60
140
119
112
4
116
24
86
118
141
142
89
74
45
137
58
18
88
79
146
103
48
63
29
80
144
148
8
109
17
13
139
31
115
44
62
57
78
128
23
111
76
72
117
107
26
120
5
90
38
87
121
34
22
93
104
145
100
19
92
101
71
41
15
51
106
32
81
135
25
110
7
83
65
42
11
73
56
54
39
40
105
94
53
67
37
21
20
10
14
64
52
70
27
77
2
46
28
61
59
66
1
49
50
6
33
124
16
30
12
36
47
35

>  <PUBCHEM_MMFF94_PARTIAL_CHARGES>  (1) 
21
1 -0.43
10 0.08
11 0.08
12 -0.15
13 -0.15
14 -0.15
15 -0.15
16 0.28
2 -0.36
22 0.37
23 0.15
24 0.15
25 0.15
26 0.15
3 -0.57
4 -0.36
5 -0.73
6 0.28
7 0.3
8 0.28
9 0.78

>  <PUBCHEM_EFFECTIVE_ROTOR_COUNT>  (1) 
4.8

>  <PUBCHEM_PHARMACOPHORE_FEATURES>  (1) 
6
1 2 acceptor
1 3 acceptor
1 4 acceptor
1 5 donor
5 1 5 6 7 9 rings
6 10 11 12 13 14 15 rings

>  <PUBCHEM_HEAVY_ATOM_COUNT>  (1) 
16

>  <PUBCHEM_ATOM_DEF_STEREO_COUNT>  (1) 
0

>  <PUBCHEM_ATOM_UDEF_STEREO_COUNT>  (1) 
1

>  <PUBCHEM_BOND_DEF_STEREO_COUNT>  (1) 
0

>  <PUBCHEM_BOND_UDEF_STEREO_COUNT>  (1) 
0

>  <PUBCHEM_ISOTOPIC_ATOM_COUNT>  (1) 
0

>  <PUBCHEM_COMPONENT_COUNT>  (1) 
1

>  <PUBCHEM_CACTVS_TAUTO_COUNT>  (1) 
2

$$$$
