6266
     RDKit          3D

 23 25  0  0  1  0  0  0  0  0999 V2000
   -1.9672   -2.8693   -0.0412 Cl  0  0  0  0  0  0  0  0  0  0  0  0
    0.0069    0.0584   -0.6457 O   0  0  0  0  0  0  0  0  0  0  0  0
    1.5375   -0.2525   -2.3478 O   0  0  0  0  0  0  0  0  0  0  0  0
   -5.0778    2.0616    0.0089 O   0  0  0  0  0  0  0  0  0  0  0  0
   -5.9227    0.1493    1.2077 O   0  0  0  0  0  0  0  0  0  0  0  0
    2.8435   -0.5397    0.7559 C   0  0  0  0  0  0  0  0  0  0  0  0
    3.6773    0.0254   -0.3564 C   0  0  0  0  0  0  0  0  0  0  0  0
    2.2691    0.4727   -0.1716 C   0  0  0  0  0  0  0  0  0  0  0  0
    2.4317   -1.9693    0.6443 C   0  0  0  0  0  0  0  0  0  0  0  0
    3.0875   -0.0986    2.1608 C   0  0  0  0  0  0  0  0  0  0  0  0
    4.7387    0.9789   -0.0700 C   0  0  0  0  0  0  0  0  0  0  0  0
    1.2594    0.0502   -1.1954 C   0  0  0  0  0  0  0  0  0  0  0  0
    6.0154    0.7138    0.2672 C   0  0  0  0  0  0  0  0  0  0  0  0
    6.9959    1.8221    0.5329 C   0  0  0  0  0  0  0  0  0  0  0  0
    6.5716   -0.6749    0.4073 C   0  0  0  0  0  0  0  0  0  0  0  0
   -1.0522   -0.3236   -1.5125 C   0  0  0  0  0  0  0  0  0  0  0  0
   -2.3466   -0.2628   -0.7655 C   0  0  0  0  0  0  0  0  0  0  0  0
   -3.0588    0.9388   -0.7802 C   0  0  0  0  0  0  0  0  0  0  0  0
   -2.8394   -1.3785   -0.0660 C   0  0  0  0  0  0  0  0  0  0  0  0
   -4.2518    0.9846   -0.0882 C   0  0  0  0  0  0  0  0  0  0  0  0
   -4.0503   -1.3053    0.6270 C   0  0  0  0  0  0  0  0  0  0  0  0
   -4.7341   -0.1073    0.5965 C   0  0  0  0  0  0  0  0  0  0  0  0
   -6.1338    1.5257    0.8321 C   0  0  0  0  0  0  0  0  0  0  0  0
  1 19  1  0
  2 12  1  0
  2 16  1  0
  3 12  2  0
  4 20  1  0
  4 23  1  0
  5 22  1  0
  5 23  1  0
  6  7  1  0
  6  8  1  0
  6  9  1  0
  6 10  1  0
  7  8  1  0
  7 11  1  0
  8 12  1  0
 11 13  2  3
 13 14  1  0
 13 15  1  0
 16 17  1  0
 17 18  1  0
 17 19  2  0
 18 20  2  0
 19 21  1  0
 20 22  1  0
 21 22  2  0
M  END
>  <PUBCHEM_COMPOUND_CID>  (1) 
6266

>  <PUBCHEM_CONFORMER_RMSD>  (1) 
0.8

>  <PUBCHEM_CONFORMER_DIVERSEORDER>  (1) 
1
407
92
186
192
164
216
296
328
285
396
90
272
93
34
393
43
190
240
17
425
82
21
295
146
100
262
436
33
3
235
402
353
336
377
62
338
73
39
363
168
59
347
339
119
20
431
79
60
337
64
111
374
56
116
225
215
187
315
69
345
6
434
199
264
104
102
144
284
311
23
432
124
237
418
4
319
415
179
178
208
29
430
352
317
341
401
149
159
52
343
362
67
331
129
107
76
371
182
223
5
299
120
269
38
45
381
270
318
35
309
30
383
183
143
329
422
142
126
411
83
403
84
263
91
125
157
303
413
87
351
369
234
361
8
101
375
261
41
277
50
385
175
97
106
386
135
359
323
207
7
61
140
435
365
109
9
255
55
427
16
156
333
280
304
294
308
219
354
71
243
113
241
259
28
340
118
99
346
292
63
205
227
211
404
334
172
230
242
291
202
197
160
322
247
127
399
65
12
332
188
121
27
344
231
414
254
388
410
233
201
355
170
167
22
305
166
244
330
147
409
173
105
245
314
13
368
220
95
366
267
165
15
212
131
81
204
394
356
53
348
246
114
290
134
283
408
324
2
57
301
297
58
224
395
226
325
32
293
24
96
158
372
80
18
163
217
44
77
37
251
428
390
288
88
145
268
214
420
266
137
25
189
198
378
68
276
279
72
438
74
26
260
392
320
11
391
258
103
174
271
281
98
49
358
248
310
112
321
327
326
70
36
373
117
122
195
123
367
115
14
382
108
193
257
379
302
136
286
273
389
154
138
405
180
150
152
66
48
171
232
229
380
250
153
162
185
203
397
191
10
85
184
128
249
300
306
236
110
253
228
429
313
364
46
350
130
40
298
75
194
289
51
155
218
181
54
419
256
78
342
47
239
423
360
19
384
316
169
312
398
177
265
210
139
161
349
357
94
370
221
376
89
424
307
416
238
278
406
421
335
433
287
31
42
222
437
141
209
151
274
200
417
176
132
133
213
426
86
206
400
282
252
148
387
196
275
412

>  <PUBCHEM_MMFF94_PARTIAL_CHARGES>  (1) 
28
1 -0.18
10 0.09
11 -0.19
12 0.72
13 -0.28
14 0.14
15 0.14
16 0.42
17 -0.14
18 -0.15
19 0.18
2 -0.43
20 0.08
21 -0.15
22 0.08
23 0.56
24 0.1
25 0.1
3 -0.57
32 0.15
4 -0.36
41 0.15
42 0.15
5 -0.36
6 -0.19
7 -0.06
8 -0.1
9 0.09

>  <PUBCHEM_EFFECTIVE_ROTOR_COUNT>  (1) 
6.2

>  <PUBCHEM_PHARMACOPHORE_FEATURES>  (1) 
7
1 3 acceptor
1 4 acceptor
1 5 acceptor
3 13 14 15 hydrophobe
3 6 9 10 hydrophobe
5 4 5 20 22 23 rings
6 17 18 19 20 21 22 rings

>  <PUBCHEM_HEAVY_ATOM_COUNT>  (1) 
23

>  <PUBCHEM_ATOM_DEF_STEREO_COUNT>  (1) 
0

>  <PUBCHEM_ATOM_UDEF_STEREO_COUNT>  (1) 
2

>  <PUBCHEM_BOND_DEF_STEREO_COUNT>  (1) 
0

>  <PUBCHEM_BOND_UDEF_STEREO_COUNT>  (1) 
0

>  <PUBCHEM_ISOTOPIC_ATOM_COUNT>  (1) 
0

>  <PUBCHEM_COMPONENT_COUNT>  (1) 
1

>  <PUBCHEM_CACTVS_TAUTO_COUNT>  (1) 
1

>  <PUBCHEM_CONFORMER_ID>  (1) 
0000187A00000001

>  <PUBCHEM_MMFF94_ENERGY>  (1) 
51.4118

>  <PUBCHEM_FEATURE_SELFOVERLAP>  (1) 
35.677

>  <PUBCHEM_SHAPE_FINGERPRINT>  (1) 
10 15 18410298029223819513
11089746 13 15697994137301817360
11315181 36 18188206610746415887
11963148 33 14851598904266921344
12166972 35 12103841276269933930
12236239 1 18040436602959474068
12596602 18 18260548917818626105
12616971 3 17095243661483187390
12633257 1 18409719681970663745
12778500 126 18341896234734895034
12788726 201 17560522785538366353
13668630 136 12324232855072825088
14251751 18 11386375845595256817
14251764 18 18187367644973021931
14341114 176 18408322177396885820
14848160 23 11891327664948382324
14849402 71 17751085919571800084
14863182 85 16081370714094443754
14933364 13 18411420631424005764
15183329 4 12391522975082197228
15238133 3 18410584989037538172
15348495 7 18341046432458300720
15537594 2 16950558883144573426
16110190 28 18187367652982915972
1813 80 15792022134158244023
18335252 98 16272210808744540551
20281389 69 17988922288617872200
20681677 155 18411698807364705746
21033648 29 17489294335137130834
21521721 280 17022910099118002660
21623969 137 14851604371295941144
21709351 56 15482662524380221316
21756936 100 18272363217735736862
22224240 67 17822288020204936386
22393880 68 12679455357654371317
23559900 14 18196959711193841271
2838139 119 16415477130050230185
29717793 49 10447930590019976528
300161 21 18187077347774769797
3737641 26 17096073681172227106
4340502 62 18334294258733005754
465052 167 14056993924353172000
474 4 15626502796131628927
5104073 3 18040994012209957346
542803 24 18060699493936277332
56616090 284 9871743599037508197
5758199 1 17821729477326083344
59682541 35 15791731941078553204
6328613 192 16486970761034281528
7226269 152 18202847634620587585

>  <PUBCHEM_SHAPE_MULTIPOLES>  (1) 
451.72
17.11
1.95
1.42
7.95
0.76
0.15
-8.09
-6.09
-1.31
-0.26
0.25
0.05
-0.29

>  <PUBCHEM_SHAPE_SELFOVERLAP>  (1) 
952.402

>  <PUBCHEM_SHAPE_VOLUME>  (1) 
257.9

>  <PUBCHEM_COORDINATE_TYPE>  (1) 
2
5
10

$$$$
