6275
     RDKit          3D

  8  8  0  0  0  0  0  0  0  0999 V2000
    2.3541    0.9026   -0.0006 O   0  0  0  0  0  0  0  0  0  0  0  0
   -2.2352    1.0595   -0.0015 O   0  0  0  0  0  0  0  0  0  0  0  0
    0.0459    1.0058    0.0013 N   0  0  0  0  0  0  0  0  0  0  0  0
    1.1240   -1.0475   -0.0005 N   0  0  0  0  0  0  0  0  0  0  0  0
   -1.2348   -0.9981    0.0008 N   0  0  0  0  0  0  0  0  0  0  0  0
    1.2649    0.3312    0.0003 C   0  0  0  0  0  0  0  0  0  0  0  0
   -1.2054    0.3841    0.0007 C   0  0  0  0  0  0  0  0  0  0  0  0
   -0.1136   -1.6375   -0.0004 C   0  0  0  0  0  0  0  0  0  0  0  0
  1  6  2  0
  2  7  2  0
  3  6  1  0
  3  7  1  0
  4  6  1  0
  4  8  1  0
  5  7  1  0
  5  8  2  0
M  END
>  <PUBCHEM_COMPOUND_CID>  (1) 
6275

>  <PUBCHEM_CONFORMER_RMSD>  (1) 
0.4

>  <PUBCHEM_CONFORMER_DIVERSEORDER>  (1) 
1

>  <PUBCHEM_MMFF94_PARTIAL_CHARGES>  (1) 
11
1 -0.57
10 0.37
11 0.06
2 -0.57
3 -0.49
4 -0.49
5 -0.66
6 0.69
7 0.84
8 0.45
9 0.37

>  <PUBCHEM_EFFECTIVE_ROTOR_COUNT>  (1) 
0

>  <PUBCHEM_PHARMACOPHORE_FEATURES>  (1) 
6
1 1 acceptor
1 2 acceptor
1 3 donor
1 4 donor
1 5 donor
6 3 4 5 6 7 8 rings

>  <PUBCHEM_HEAVY_ATOM_COUNT>  (1) 
8

>  <PUBCHEM_ATOM_DEF_STEREO_COUNT>  (1) 
0

>  <PUBCHEM_ATOM_UDEF_STEREO_COUNT>  (1) 
0

>  <PUBCHEM_BOND_DEF_STEREO_COUNT>  (1) 
0

>  <PUBCHEM_BOND_UDEF_STEREO_COUNT>  (1) 
0

>  <PUBCHEM_ISOTOPIC_ATOM_COUNT>  (1) 
0

>  <PUBCHEM_COMPONENT_COUNT>  (1) 
1

>  <PUBCHEM_CACTVS_TAUTO_COUNT>  (1) 
5

>  <PUBCHEM_CONFORMER_ID>  (1) 
0000188300000001

>  <PUBCHEM_MMFF94_ENERGY>  (1) 
14.7524

>  <PUBCHEM_FEATURE_SELFOVERLAP>  (1) 
30.567

>  <PUBCHEM_SHAPE_FINGERPRINT>  (1) 
16714656 1 18122631810069373918
18185500 45 17041763660320358430
20096714 4 18338798914120386803
21040471 1 18410855464502321824
23552423 10 18260551173198565518
29004967 10 18042136357641592849

>  <PUBCHEM_SHAPE_MULTIPOLES>  (1) 
137.95
2.45
1.55
0.55
0.22
0.47
0
-1
0
-0.12
0
0
0.02
0

>  <PUBCHEM_SHAPE_SELFOVERLAP>  (1) 
284.14

>  <PUBCHEM_SHAPE_VOLUME>  (1) 
77.5

>  <PUBCHEM_COORDINATE_TYPE>  (1) 
2
5
10

$$$$
