629
     RDKit          3D

 30 31  0  0  1  0  0  0  0  0999 V2000
    2.2256    1.4155   -0.0414 O   0  0  0  0  0  0  0  0  0  0  0  0
   -2.5387    3.0758   -1.0982 O   0  0  0  0  0  0  0  0  0  0  0  0
    1.3947    4.8678   -0.1582 O   0  0  0  0  0  0  0  0  0  0  0  0
    2.2221    3.5500    1.5075 O   0  0  0  0  0  0  0  0  0  0  0  0
    4.6681   -1.2632   -1.1483 O   0  0  0  0  0  0  0  0  0  0  0  0
    3.0521   -4.2721    1.9468 O   0  0  0  0  0  0  0  0  0  0  0  0
   -0.6660    2.2525    0.0051 N   0  0  0  0  0  0  0  0  0  0  0  0
    2.5591   -0.8724   -0.2224 N   0  0  0  0  0  0  0  0  0  0  0  0
   -3.4498    0.8779    2.9554 N   0  0  0  0  0  0  0  0  0  0  0  0
   -3.6102   -2.2848   -0.1507 N   0  0  0  0  0  0  0  0  0  0  0  0
    3.8614   -2.7609    0.3926 N   0  0  0  0  0  0  0  0  0  0  0  0
   -1.7766   -2.0078   -1.6131 N   0  0  0  0  0  0  0  0  0  0  0  0
   -3.5356   -3.3229   -2.3326 N   0  0  0  0  0  0  0  0  0  0  0  0
    0.2566    2.3595   -1.1002 C   0  0  0  0  0  0  0  0  0  0  0  0
    1.7041    2.5937   -0.6485 C   0  0  0  0  0  0  0  0  0  0  0  0
    2.3462    0.3360   -0.9731 C   0  0  0  0  0  0  0  0  0  0  0  0
   -2.7269    0.9556    1.6827 C   0  0  0  0  0  0  0  0  0  0  0  0
   -2.7646    2.4147    1.2000 C   0  0  0  0  0  0  0  0  0  0  0  0
    0.1576    1.0848   -1.8851 C   0  0  0  0  0  0  0  0  0  0  0  0
   -3.3537    0.0024    0.6458 C   0  0  0  0  0  0  0  0  0  0  0  0
    1.1285    0.1613   -1.8368 C   0  0  0  0  0  0  0  0  0  0  0  0
   -1.9964    2.6238   -0.0920 C   0  0  0  0  0  0  0  0  0  0  0  0
   -2.9872   -1.4667    0.8640 C   0  0  0  0  0  0  0  0  0  0  0  0
    1.8140    3.6894    0.3642 C   0  0  0  0  0  0  0  0  0  0  0  0
    3.7598   -1.6003   -0.3860 C   0  0  0  0  0  0  0  0  0  0  0  0
    1.5841   -1.3192    0.6601 C   0  0  0  0  0  0  0  0  0  0  0  0
   -4.9298   -2.8413    0.1775 C   0  0  0  0  0  0  0  0  0  0  0  0
    1.6952   -2.4275    1.3955 C   0  0  0  0  0  0  0  0  0  0  0  0
   -3.0119   -2.5743   -1.3954 C   0  0  0  0  0  0  0  0  0  0  0  0
    2.9184   -3.2474    1.2848 C   0  0  0  0  0  0  0  0  0  0  0  0
  1 15  1  0
  1 16  1  0
  2 22  2  0
  3 24  1  0
  4 24  2  0
  5 25  2  0
  6 30  2  0
  7 14  1  0
  7 22  1  0
  8 16  1  0
  8 25  1  0
  8 26  1  0
  9 17  1  0
 10 23  1  0
 10 27  1  0
 10 29  1  0
 11 25  1  0
 11 30  1  0
 12 29  1  0
 13 29  2  0
 14 15  1  0
 14 19  1  0
 15 24  1  0
 16 21  1  0
 17 18  1  0
 17 20  1  0
 18 22  1  0
 19 21  2  0
 20 23  1  0
 26 28  2  0
 28 30  1  0
M  END
>  <PUBCHEM_COMPOUND_CID>  (1) 
629

>  <PUBCHEM_CONFORMER_RMSD>  (1) 
1.2

>  <PUBCHEM_CONFORMER_DIVERSEORDER>  (1) 
1
153
84
311
209
94
251
102
131
201
143
280
52
308
7
326
88
24
344
43
224
304
77
45
190
277
115
86
347
33
324
132
38
118
8
58
349
256
253
55
184
167
17
53
342
168
119
333
142
188
54
112
282
127
147
20
111
268
233
230
159
351
57
5
42
154
123
130
315
181
303
158
170
128
337
171
157
56
322
150
104
71
300
331
64
117
91
191
13
225
80
75
34
215
212
121
90
348
278
46
294
114
195
100
295
289
200
236
129
301
74
217
137
247
279
169
96
329
81
3
30
49
97
145
298
241
41
194
70
183
314
134
135
108
219
156
189
214
28
175
109
146
259
160
199
95
39
220
244
261
255
179
257
92
240
232
151
218
345
10
243
29
155
172
36
206
235
274
144
23
174
63
202
284
113
222
288
226
221
193
330
103
85
246
164
82
306
138
286
291
325
299
32
93
180
60
101
292
213
149
67
350
245
87
163
27
48
229
40
313
2
198
98
15
264
316
133
139
107
110
290
242
69
318
16
296
339
106
262
68
47
338
276
76
321
239
328
89
12
216
207
187
305
237
267
263
62
35
116
72
205
66
309
273
283
152
227
307
340
332
18
136
178
165
260
59
285
265
78
334
341
258
51
44
50
73
140
124
120
275
210
141
192
266
99
287
173
185
343
14
346
61
79
250
161
271
272
26
327
148
203
336
238
11
19
211
281
252
162
166
125
248
293
335
204
196
31
176
320
9
22
126
186
177
234
231
323
302
270
105
122
269
37
228
83
310
319
21
223
297
182
4
312
65
249
197
254
317
208
6
25

>  <PUBCHEM_MMFF94_PARTIAL_CHARGES>  (1) 
41
1 -0.56
10 -0.79
11 -0.49
12 -0.85
13 -0.85
14 0.44
15 0.34
16 0.72
17 0.27
18 0.06
19 -0.29
2 -0.57
21 -0.29
22 0.57
23 0.37
24 0.66
25 0.69
26 -0.04
27 0.37
28 -0.14
29 0.55
3 -0.65
30 0.62
37 0.15
38 0.37
4 -0.57
41 0.15
44 0.36
45 0.36
46 0.15
5 -0.57
50 0.37
51 0.15
52 0.5
53 0.4
54 0.4
55 0.4
6 -0.57
7 -0.73
8 -0.47
9 -0.99

>  <PUBCHEM_EFFECTIVE_ROTOR_COUNT>  (1) 
10.8

>  <PUBCHEM_PHARMACOPHORE_FEATURES>  (1) 
16
1 1 acceptor
1 11 donor
1 12 donor
1 13 donor
1 2 acceptor
1 3 acceptor
1 4 acceptor
1 5 acceptor
1 6 acceptor
1 7 donor
1 9 cation
1 9 donor
3 3 4 24 anion
4 10 12 13 29 cation
6 1 14 15 16 19 21 rings
6 8 11 25 26 28 30 rings

>  <PUBCHEM_HEAVY_ATOM_COUNT>  (1) 
30

>  <PUBCHEM_ATOM_DEF_STEREO_COUNT>  (1) 
0

>  <PUBCHEM_ATOM_UDEF_STEREO_COUNT>  (1) 
4

>  <PUBCHEM_BOND_DEF_STEREO_COUNT>  (1) 
0

>  <PUBCHEM_BOND_UDEF_STEREO_COUNT>  (1) 
0

>  <PUBCHEM_ISOTOPIC_ATOM_COUNT>  (1) 
0

>  <PUBCHEM_COMPONENT_COUNT>  (1) 
1

>  <PUBCHEM_CACTVS_TAUTO_COUNT>  (1) 
6

>  <PUBCHEM_CONFORMER_ID>  (1) 
0000027500000001

>  <PUBCHEM_MMFF94_ENERGY>  (1) 
54.4981

>  <PUBCHEM_FEATURE_SELFOVERLAP>  (1) 
81.313

>  <PUBCHEM_SHAPE_FINGERPRINT>  (1) 
11552529 35 18200870678063807906
12156800 1 16383315268392445239
12633257 1 17986415333424106529
12788726 201 17547290000069321680
13004483 165 17828207593024511872
14787075 74 18264226802232162892
19026451 147 17840576325774988455
19319366 153 17827682219412792044
20600515 1 17630624331369002760
20775438 99 17903592498648319845
20775530 9 18341330071850913859
3797600 57 17058104443224473977
7097593 13 18410865334279314709

>  <PUBCHEM_SHAPE_MULTIPOLES>  (1) 
547.3
7.96
6.33
2.09
3.07
1.67
-0.19
-7.37
-0.82
-2.19
-1.06
1.14
-0.71
-2.74

>  <PUBCHEM_SHAPE_SELFOVERLAP>  (1) 
1129.221

>  <PUBCHEM_SHAPE_VOLUME>  (1) 
308.8

>  <PUBCHEM_COORDINATE_TYPE>  (1) 
2
5
10

$$$$
