6291
     RDKit          3D

 23 26  0  0  1  0  0  0  0  0999 V2000
   -4.9057    0.9012   -1.1250 O   0  0  0  0  0  0  0  0  0  0  0  0
    5.9913   -0.0683   -0.1179 O   0  0  0  0  0  0  0  0  0  0  0  0
   -2.5327    0.4318   -0.5894 C   0  0  0  0  0  0  0  0  0  0  0  0
   -1.9058   -0.7710    0.1517 C   0  0  0  0  0  0  0  0  0  0  0  0
   -0.4064   -0.9117   -0.1214 C   0  0  0  0  0  0  0  0  0  0  0  0
   -4.0343    0.2399   -0.2179 C   0  0  0  0  0  0  0  0  0  0  0  0
    0.3199    0.3749    0.3741 C   0  0  0  0  0  0  0  0  0  0  0  0
   -1.8437    1.7137   -0.0884 C   0  0  0  0  0  0  0  0  0  0  0  0
   -2.8297   -1.9319   -0.2077 C   0  0  0  0  0  0  0  0  0  0  0  0
   -0.3116    1.6493   -0.2460 C   0  0  0  0  0  0  0  0  0  0  0  0
   -4.2283   -1.2939   -0.3393 C   0  0  0  0  0  0  0  0  0  0  0  0
    0.2044   -2.1277    0.5789 C   0  0  0  0  0  0  0  0  0  0  0  0
   -2.3711    0.3661   -2.1373 C   0  0  0  0  0  0  0  0  0  0  0  0
    1.8326    0.2564    0.2064 C   0  0  0  0  0  0  0  0  0  0  0  0
    1.6583   -2.2967    0.1488 C   0  0  0  0  0  0  0  0  0  0  0  0
    2.4502   -1.0120    0.1435 C   0  0  0  0  0  0  0  0  0  0  0  0
   -4.3708    0.6793    1.1507 C   0  0  0  0  0  0  0  0  0  0  0  0
    2.6557    1.3966    0.1998 C   0  0  0  0  0  0  0  0  0  0  0  0
    3.8479   -1.1057    0.0222 C   0  0  0  0  0  0  0  0  0  0  0  0
    4.0438    1.2889    0.0890 C   0  0  0  0  0  0  0  0  0  0  0  0
    4.6399    0.0383   -0.0054 C   0  0  0  0  0  0  0  0  0  0  0  0
   -4.6445    1.0362    2.2637 C   0  0  0  0  0  0  0  0  0  0  0  0
    6.7404    1.1464   -0.1330 C   0  0  0  0  0  0  0  0  0  0  0  0
  1  6  1  0
  2 21  1  0
  2 23  1  0
  3  4  1  0
  3  6  1  0
  3  8  1  0
  3 13  1  0
  4  5  1  0
  4  9  1  0
  5  7  1  0
  5 12  1  0
  6 11  1  0
  6 17  1  0
  7 10  1  0
  7 14  1  0
  8 10  1  0
  9 11  1  0
 12 15  1  0
 14 16  2  0
 14 18  1  0
 15 16  1  0
 16 19  1  0
 17 22  3  0
 18 20  2  0
 19 21  2  0
 20 21  1  0
M  END
>  <PUBCHEM_COMPOUND_CID>  (1) 
6291

>  <PUBCHEM_CONFORMER_RMSD>  (1) 
0.6

>  <PUBCHEM_CONFORMER_DIVERSEORDER>  (1) 
1

>  <PUBCHEM_MMFF94_PARTIAL_CHARGES>  (1) 
19
1 -0.68
14 -0.14
15 0.14
16 -0.14
17 -0.2
18 -0.15
19 -0.15
2 -0.36
20 -0.15
21 0.08
22 -0.18
23 0.28
42 0.4
43 0.15
44 0.15
45 0.15
46 0.18
6 0.48
7 0.14

>  <PUBCHEM_EFFECTIVE_ROTOR_COUNT>  (1) 
2.4

>  <PUBCHEM_PHARMACOPHORE_FEATURES>  (1) 
8
1 1 acceptor
1 1 donor
1 2 acceptor
1 22 hydrophobe
5 3 4 6 9 11 rings
6 14 16 18 19 20 21 rings
6 3 4 5 7 8 10 rings
6 5 7 12 14 15 16 rings

>  <PUBCHEM_HEAVY_ATOM_COUNT>  (1) 
23

>  <PUBCHEM_ATOM_DEF_STEREO_COUNT>  (1) 
5

>  <PUBCHEM_ATOM_UDEF_STEREO_COUNT>  (1) 
0

>  <PUBCHEM_BOND_DEF_STEREO_COUNT>  (1) 
0

>  <PUBCHEM_BOND_UDEF_STEREO_COUNT>  (1) 
0

>  <PUBCHEM_ISOTOPIC_ATOM_COUNT>  (1) 
0

>  <PUBCHEM_COMPONENT_COUNT>  (1) 
1

>  <PUBCHEM_CACTVS_TAUTO_COUNT>  (1) 
1

>  <PUBCHEM_CONFORMER_ID>  (1) 
0000189300000001

>  <PUBCHEM_MMFF94_ENERGY>  (1) 
87.6501

>  <PUBCHEM_FEATURE_SELFOVERLAP>  (1) 
40.689

>  <PUBCHEM_SHAPE_FINGERPRINT>  (1) 
10 15 17603586361563915664
10411042 1 17615409594169938658
10906281 52 18268448948309854700
11315181 36 17917991706487703640
11578080 2 17025136441716227623
11796584 16 14908184132055513276
12236239 1 17704073984568585312
12403259 415 18335691780624251228
12403814 3 17603300441142715919
12644460 14 18260545580977229314
12788726 201 16988009262603415857
128620 24 17458063750694818758
13140716 1 18264779929141645513
13224815 77 18409163307475159003
14341114 328 18342458123240712786
14765038 42 18270415926549765248
14790565 3 18339085981524753784
15163728 17 15481005419377343721
15183329 4 18410012109931838510
15196674 1 18409445899333361534
15209289 33 18413671331034785105
15788980 27 17748824120245073376
1601671 61 18413389830652163490
16945 1 18265602196129677859
17844677 252 16128655279796370880
18186145 218 18409724067306352750
19489759 90 15195566793015729817
200 152 17847059995556180418
21033648 29 17968079937422243156
21236236 1 18338236080200128587
21267235 1 18338239374761687487
21756936 100 17846787291161125489
23198884 109 17132117939487640464
23402539 116 18411130368579938086
23402655 69 18202002140364768326
23522609 53 18195274233094510864
23536379 177 16558753399612922408
23559900 14 18341886455015740984
3004659 81 18261110748014664746
335352 9 18410008840559471284
34934 24 18335976485373891119
350125 39 18409166632439560268
3545911 37 18408884044390625622
3680242 22 18335698300563766858
4340502 62 16298386855985879106
5104073 3 18411134779543123658
542803 24 17632578249478015464
59755656 215 18409167680411360030
633830 44 18130785689738298084
9709674 26 18410295808894928806

>  <PUBCHEM_SHAPE_MULTIPOLES>  (1) 
461.59
12.31
2.04
1.2
11.77
0.7
-0.04
-3.55
-0.76
0.02
-0.17
-2.02
-0.36
-0.53

>  <PUBCHEM_SHAPE_SELFOVERLAP>  (1) 
1000.428

>  <PUBCHEM_SHAPE_VOLUME>  (1) 
252

>  <PUBCHEM_COORDINATE_TYPE>  (1) 
2
5
10

$$$$
