6299
     RDKit          3D

 29 32  0  0  1  0  0  0  0  0999 V2000
    5.2336    0.3572   -0.6120 N   0  0  0  0  0  0  0  0  0  0  0  0
   -5.6848    0.5292   -0.1471 N   0  0  0  0  0  0  0  0  0  0  0  0
    3.0694   -0.2871    0.5182 C   0  0  0  0  0  0  0  0  0  0  0  0
    2.1184   -1.4835    0.2746 C   0  0  0  0  0  0  0  0  0  0  0  0
    0.6590   -1.2400    0.7218 C   0  0  0  0  0  0  0  0  0  0  0  0
    0.0777    0.0960    0.1904 C   0  0  0  0  0  0  0  0  0  0  0  0
   -1.4173    0.3322    0.6358 C   0  0  0  0  0  0  0  0  0  0  0  0
    4.2895   -0.7372   -0.3128 C   0  0  0  0  0  0  0  0  0  0  0  0
   -2.2563   -0.9216    0.2444 C   0  0  0  0  0  0  0  0  0  0  0  0
    2.4356    1.0319    0.0148 C   0  0  0  0  0  0  0  0  0  0  0  0
    1.0215    1.2612    0.5493 C   0  0  0  0  0  0  0  0  0  0  0  0
    2.3125   -1.8193   -1.2185 C   0  0  0  0  0  0  0  0  0  0  0  0
   -0.2389   -2.4312    0.3561 C   0  0  0  0  0  0  0  0  0  0  0  0
    3.7142   -1.3279   -1.5948 C   0  0  0  0  0  0  0  0  0  0  0  0
   -1.6808   -2.2273    0.8063 C   0  0  0  0  0  0  0  0  0  0  0  0
   -1.9980    1.5765   -0.1136 C   0  0  0  0  0  0  0  0  0  0  0  0
   -3.7503   -0.7911    0.6018 C   0  0  0  0  0  0  0  0  0  0  0  0
    3.4504   -0.1582    2.0028 C   0  0  0  0  0  0  0  0  0  0  0  0
   -4.2967    0.6225    0.3825 C   0  0  0  0  0  0  0  0  0  0  0  0
   -3.4520    1.4367   -0.5842 C   0  0  0  0  0  0  0  0  0  0  0  0
   -1.4959    0.5981    2.1632 C   0  0  0  0  0  0  0  0  0  0  0  0
    5.8151    0.9550    0.6800 C   0  0  0  0  0  0  0  0  0  0  0  0
    4.5388    1.4917   -1.3836 C   0  0  0  0  0  0  0  0  0  0  0  0
    6.4080   -0.1441   -1.4688 C   0  0  0  0  0  0  0  0  0  0  0  0
   -5.6904   -0.1524   -1.5188 C   0  0  0  0  0  0  0  0  0  0  0  0
   -6.2959    1.9255   -0.2977 C   0  0  0  0  0  0  0  0  0  0  0  0
   -6.5671   -0.2862    0.8029 C   0  0  0  0  0  0  0  0  0  0  0  0
    6.7958    2.0511    0.3246 C   0  0  0  0  0  0  0  0  0  0  0  0
   -7.1150   -0.2576   -2.0173 C   0  0  0  0  0  0  0  0  0  0  0  0
  1  8  1  0
  1 22  1  0
  1 23  1  0
  1 24  1  0
  2 19  1  0
  2 25  1  0
  2 26  1  0
  2 27  1  0
  3  4  1  0
  3  8  1  0
  3 10  1  0
  3 18  1  0
  4  5  1  0
  4 12  1  0
  5  6  1  0
  5 13  1  0
  6  7  1  0
  6 11  1  0
  7  9  1  0
  7 16  1  0
  7 21  1  0
  8 14  1  0
  9 15  1  0
  9 17  1  0
 10 11  1  0
 12 14  1  0
 13 15  1  0
 16 20  1  0
 17 19  1  0
 19 20  1  0
 22 28  1  0
 25 29  1  0
M  CHG  2   1   1   2   1
M  END
>  <PUBCHEM_COMPOUND_CID>  (1) 
6299

>  <PUBCHEM_CONFORMER_RMSD>  (1) 
0.8

>  <PUBCHEM_CONFORMER_DIVERSEORDER>  (1) 
1
4
12
2
7
3
5
6
11
9
10
8

>  <PUBCHEM_MMFF94_PARTIAL_CHARGES>  (1) 
10
1 -1.01
19 0.5
2 -1.01
22 0.5
23 0.5
24 0.5
25 0.5
26 0.5
27 0.5
8 0.5

>  <PUBCHEM_EFFECTIVE_ROTOR_COUNT>  (1) 
6.2

>  <PUBCHEM_PHARMACOPHORE_FEATURES>  (1) 
6
1 1 cation
1 2 cation
5 3 4 8 12 14 rings
6 3 4 5 6 10 11 rings
6 5 6 7 9 13 15 rings
6 7 9 16 17 19 20 rings

>  <PUBCHEM_HEAVY_ATOM_COUNT>  (1) 
29

>  <PUBCHEM_ATOM_DEF_STEREO_COUNT>  (1) 
6

>  <PUBCHEM_ATOM_UDEF_STEREO_COUNT>  (1) 
2

>  <PUBCHEM_BOND_DEF_STEREO_COUNT>  (1) 
0

>  <PUBCHEM_BOND_UDEF_STEREO_COUNT>  (1) 
0

>  <PUBCHEM_ISOTOPIC_ATOM_COUNT>  (1) 
0

>  <PUBCHEM_COMPONENT_COUNT>  (1) 
1

>  <PUBCHEM_CACTVS_TAUTO_COUNT>  (1) 
1

>  <PUBCHEM_CONFORMER_ID>  (1) 
0000189B00000001

>  <PUBCHEM_MMFF94_ENERGY>  (1) 
173.4274

>  <PUBCHEM_FEATURE_SELFOVERLAP>  (1) 
30.642

>  <PUBCHEM_SHAPE_FINGERPRINT>  (1) 
10 15 18114181986496954152
10366900 7 17418097620033436138
10498660 4 18409175398266870818
10554248 39 17822278059654297606
10692045 39 13623525727702534593
10693767 8 17273710762982479462
10906281 52 18339656589045693753
11135609 187 18272652329127279177
117089 54 8284556791856188360
11961588 58 18259982686531113890
12011746 2 18272094889796181350
12107698 1 16271932605699745528
12166972 35 13039185922535367386
12236239 1 14548737304850160131
12516196 113 18131351907903758657
12596602 18 15410607117018691147
12730499 353 18202006516836449994
12788726 201 18341895130401318985
12838862 33 18262501680671613276
13402501 40 18410013242848422624
13533116 47 17417814993836807934
13668630 136 16056883524168673253
13673619 4 12751238103454812594
13685833 64 10015866470746481364
13782708 43 13686294660657695701
14251764 30 14261343678954487253
14341114 176 9727631700658706878
14347424 109 12468638344224935558
14528608 73 18412822465482917839
14767858 380 18412256247259877175
14840074 17 16630528423146594045
14856354 85 16271928242819840365
15131766 46 15359409539377239326
15142383 8 15357967958883301990
15183329 4 18186518791784096781
15238133 3 15357704088919755926
15537594 2 13254793503874644205
173720 79 17530678801534006770
1813 80 13830125070689620435
18608769 82 18337397153450556595
200 152 17561083588197776555
20511986 3 17022894679235577946
20715895 44 18334298695254887612
21150785 3 17560798861630265861
220451 1 17132116832082468871
22122407 14 14924240295581041221
221357 26 17704076162159404072
23081809 10 18339636746903402179
23516275 137 16199334060768835431
23522609 53 16342605953147365008
23559900 14 18130503153509351776
23569943 247 17129880321957628774
24771293 8 18410571807862437044
24771750 20 17903650909576732981
2838139 119 17676199169976131045
300161 21 17531242867973112275
3103668 31 17982164827472222207
335352 9 18410298004630240326
3472631 163 18187087290961605308
34797466 226 18272940413900389772
3633792 109 18343302548566867017
53794403 172 18190745421428838452
59755656 215 18411702075834558084
59755656 520 15936410073736236371

>  <PUBCHEM_SHAPE_MULTIPOLES>  (1) 
586.84
17.59
2.06
1.6
7.44
0.33
-0.11
-6.65
-6.49
-0.6
-0.03
0.09
0.13
0.59

>  <PUBCHEM_SHAPE_SELFOVERLAP>  (1) 
1213.598

>  <PUBCHEM_SHAPE_VOLUME>  (1) 
335.6

>  <PUBCHEM_COORDINATE_TYPE>  (1) 
2
5
10

$$$$
