6307
     RDKit          3D

 18 19  0  0  1  0  0  0  0  0999 V2000
    2.7841   -2.5336    0.0216 Cl  0  0  0  0  0  0  0  0  0  0  0  0
    3.3595    0.6208   -0.3827 S   0  0  0  0  0  0  0  0  0  0  0  0
   -1.4819    2.6229    0.4573 O   0  0  0  0  0  0  0  0  0  0  0  0
    4.0995   -0.4646   -1.0194 O   0  0  0  0  0  0  0  0  0  0  0  0
    3.1469    1.8811   -1.0858 O   0  0  0  0  0  0  0  0  0  0  0  0
   -2.1396   -1.3896    0.6887 N   0  0  0  0  0  0  0  0  0  0  0  0
   -2.9567    0.8666    0.6173 N   0  0  0  0  0  0  0  0  0  0  0  0
    4.1277    0.9642    1.1166 N   0  0  0  0  0  0  0  0  0  0  0  0
   -3.2742   -0.5358    0.3980 C   0  0  0  0  0  0  0  0  0  0  0  0
   -0.8566   -0.9257    0.4362 C   0  0  0  0  0  0  0  0  0  0  0  0
   -3.7495   -0.7698   -1.0323 C   0  0  0  0  0  0  0  0  0  0  0  0
   -0.5950    0.4436    0.2767 C   0  0  0  0  0  0  0  0  0  0  0  0
   -1.7014    1.4160    0.4419 C   0  0  0  0  0  0  0  0  0  0  0  0
    0.7024    0.9041    0.0238 C   0  0  0  0  0  0  0  0  0  0  0  0
    1.7539   -0.0060   -0.0646 C   0  0  0  0  0  0  0  0  0  0  0  0
    0.2181   -1.8221    0.3634 C   0  0  0  0  0  0  0  0  0  0  0  0
    1.5135   -1.3668    0.1092 C   0  0  0  0  0  0  0  0  0  0  0  0
   -4.9505    0.0948   -1.3661 C   0  0  0  0  0  0  0  0  0  0  0  0
  1 17  1  0
  2  4  2  0
  2  5  2  0
  2  8  1  0
  2 15  1  0
  3 13  2  0
  6  9  1  0
  6 10  1  0
  7  9  1  0
  7 13  1  0
  9 11  1  0
 10 12  2  0
 10 16  1  0
 11 18  1  0
 12 13  1  0
 12 14  1  0
 14 15  2  0
 15 17  1  0
 16 17  2  0
M  END
>  <PUBCHEM_COMPOUND_CID>  (1) 
6307

>  <PUBCHEM_CONFORMER_RMSD>  (1) 
0.6

>  <PUBCHEM_CONFORMER_DIVERSEORDER>  (1) 
1
2
4
6
5
3

>  <PUBCHEM_MMFF94_PARTIAL_CHARGES>  (1) 
22
1 -0.18
10 0.1
12 0.09
13 0.54
14 -0.15
15 -0.01
16 -0.15
17 0.18
2 1.45
20 0.4
23 0.37
24 0.15
25 0.15
29 0.42
3 -0.57
30 0.42
4 -0.65
5 -0.65
6 -0.87
7 -0.73
8 -0.98
9 0.67

>  <PUBCHEM_EFFECTIVE_ROTOR_COUNT>  (1) 
2.6

>  <PUBCHEM_PHARMACOPHORE_FEATURES>  (1) 
10
1 18 hydrophobe
1 3 acceptor
1 4 acceptor
1 5 acceptor
1 6 cation
1 6 donor
1 7 donor
1 8 donor
6 10 12 14 15 16 17 rings
6 6 7 9 10 12 13 rings

>  <PUBCHEM_HEAVY_ATOM_COUNT>  (1) 
18

>  <PUBCHEM_ATOM_DEF_STEREO_COUNT>  (1) 
0

>  <PUBCHEM_ATOM_UDEF_STEREO_COUNT>  (1) 
1

>  <PUBCHEM_BOND_DEF_STEREO_COUNT>  (1) 
0

>  <PUBCHEM_BOND_UDEF_STEREO_COUNT>  (1) 
0

>  <PUBCHEM_ISOTOPIC_ATOM_COUNT>  (1) 
0

>  <PUBCHEM_COMPONENT_COUNT>  (1) 
1

>  <PUBCHEM_CACTVS_TAUTO_COUNT>  (1) 
3

>  <PUBCHEM_CONFORMER_ID>  (1) 
000018A300000001

>  <PUBCHEM_MMFF94_ENERGY>  (1) 
40.2692

>  <PUBCHEM_FEATURE_SELFOVERLAP>  (1) 
50.82

>  <PUBCHEM_SHAPE_FINGERPRINT>  (1) 
10498660 4 18263652916780166412
10756046 5 18266457594716848277
10967382 1 18409738390853531922
11132069 177 18410011074053306184
11471102 20 18335421262019234110
11543360 7 16343426192979313570
12403260 363 18411413995419893768
13140716 1 18050854617208252448
13380535 76 18335422395779889002
13675066 3 11674871187138275767
14250199 8 18335987458714723551
14576447 43 18129647738417415591
15442244 35 18121224177725387210
15536298 74 18341898446421779042
16945 1 18338243755274576930
17349148 13 18262782021924404170
17959699 21 18114174190978207757
18186145 218 18261401017950202606
192875 21 18262507105220238786
200 152 18343578542990669509
20645477 70 18337107874080613735
21501502 16 18268434533587265218
231179 274 17458339753878095046
2334 1 18337679607135965330
23402539 116 18340759433562777692
23402655 69 18339634560854673893
23493267 7 17458340888076385737
23557571 272 17489297547514361258
23558518 356 18262529069735588867
23559900 14 18409450293496277602
25147074 1 18267870471279486426
2748010 2 18264499403173235506
2871803 45 18412823577415269461
34934 24 18341603858656738531
352729 6 18191600833248699650
4028521 119 18334856117273980735
4072396 5 18189596341820044722
5104073 3 18338522932765609915
57005193 9 18335975445522313555
57096353 35 18412831291192338039
58051976 378 18411140238314563894
69090 78 17917992810626465262
7364860 26 18269840831093806394
9709674 26 18340216189051737662

>  <PUBCHEM_SHAPE_MULTIPOLES>  (1) 
343.6
8.06
2.25
1.02
1.93
0.06
-0.2
-0.45
-2.59
-1.08
0.21
0.27
-0.11
-0.31

>  <PUBCHEM_SHAPE_SELFOVERLAP>  (1) 
710.372

>  <PUBCHEM_SHAPE_VOLUME>  (1) 
198.6

>  <PUBCHEM_COORDINATE_TYPE>  (1) 
2
5
10

$$$$
