6309
     RDKit          3D

 30 31  0  0  0  0  0  0  0  0999 V2000
   -5.2979    0.7470    1.2736 O   0  0  0  0  0  0  0  0  0  0  0  0
    5.2976    0.7393   -1.2750 O   0  0  0  0  0  0  0  0  0  0  0  0
   -7.8672   -3.0758    0.0941 O   0  0  0  0  0  0  0  0  0  0  0  0
    7.8983   -3.0639   -0.0898 O   0  0  0  0  0  0  0  0  0  0  0  0
   -7.2817    0.6097    0.0115 N   0  0  0  0  0  0  0  0  0  0  0  0
    7.2781    0.6159   -0.0064 N   0  0  0  0  0  0  0  0  0  0  0  0
   -7.8012   -0.7415   -0.4612 C   0  0  0  0  0  0  0  0  0  0  0  0
    7.8085   -0.7309    0.4671 C   0  0  0  0  0  0  0  0  0  0  0  0
   -5.7671    0.5182    0.1626 C   0  0  0  0  0  0  0  0  0  0  0  0
    5.7650    0.5103   -0.1633 C   0  0  0  0  0  0  0  0  0  0  0  0
   -7.6496    1.6767   -1.0226 C   0  0  0  0  0  0  0  0  0  0  0  0
   -7.9369    0.9891    1.3346 C   0  0  0  0  0  0  0  0  0  0  0  0
    7.9348    1.0025   -1.3267 C   0  0  0  0  0  0  0  0  0  0  0  0
    7.6321    1.6853    1.0300 C   0  0  0  0  0  0  0  0  0  0  0  0
   -4.9129    0.1604   -1.0390 C   0  0  0  0  0  0  0  0  0  0  0  0
    4.8949    0.1428    1.0316 C   0  0  0  0  0  0  0  0  0  0  0  0
   -7.4165   -1.8061    0.5472 C   0  0  0  0  0  0  0  0  0  0  0  0
    7.4375   -1.7982   -0.5436 C   0  0  0  0  0  0  0  0  0  0  0  0
   -3.4384    0.1579   -0.7285 C   0  0  0  0  0  0  0  0  0  0  0  0
    3.4357    0.1456    0.7243 C   0  0  0  0  0  0  0  0  0  0  0  0
   -0.7089    0.1527   -0.1520 C   0  0  0  0  0  0  0  0  0  0  0  0
    0.7063    0.1502    0.1479 C   0  0  0  0  0  0  0  0  0  0  0  0
   -2.6902    1.3247   -0.8854 C   0  0  0  0  0  0  0  0  0  0  0  0
    2.6895    1.3121    0.8921 C   0  0  0  0  0  0  0  0  0  0  0  0
   -2.8217   -1.0115   -0.2834 C   0  0  0  0  0  0  0  0  0  0  0  0
    2.8172   -1.0187    0.2685 C   0  0  0  0  0  0  0  0  0  0  0  0
   -1.3255    1.3221   -0.5971 C   0  0  0  0  0  0  0  0  0  0  0  0
    1.3248    1.3144    0.6038 C   0  0  0  0  0  0  0  0  0  0  0  0
   -1.4570   -1.0141    0.0047 C   0  0  0  0  0  0  0  0  0  0  0  0
    1.4525   -1.0164   -0.0196 C   0  0  0  0  0  0  0  0  0  0  0  0
  1  9  2  0
  2 10  2  0
  3 17  1  0
  4 18  1  0
  5  7  1  0
  5  9  1  0
  5 11  1  0
  5 12  1  0
  6  8  1  0
  6 10  1  0
  6 13  1  0
  6 14  1  0
  7 17  1  0
  8 18  1  0
  9 15  1  0
 10 16  1  0
 15 19  1  0
 16 20  1  0
 19 23  2  0
 19 25  1  0
 20 24  2  0
 20 26  1  0
 21 22  1  0
 21 27  2  0
 21 29  1  0
 22 28  2  0
 22 30  1  0
 23 27  1  0
 24 28  1  0
 25 29  2  0
 26 30  2  0
M  CHG  2   5   1   6   1
M  END
>  <PUBCHEM_COMPOUND_CID>  (1) 
6309

>  <PUBCHEM_CONFORMER_RMSD>  (1) 
1.2

>  <PUBCHEM_CONFORMER_DIVERSEORDER>  (1) 
1
8
34
41
15
4
7
38
46
33
27
21
31
40
35
20
9
6
42
19
36
45
43
18
17
26
44
25
30
11
5
37
39
28
23
10
22
12
29
24
13
16
32
2
14
3

>  <PUBCHEM_MMFF94_PARTIAL_CHARGES>  (1) 
38
1 -0.57
10 0.9
11 0.5
12 0.5
13 0.5
14 0.5
15 0.2
16 0.2
17 0.28
18 0.28
19 -0.14
2 -0.57
20 -0.14
23 -0.15
24 -0.15
25 -0.15
26 -0.15
27 -0.15
28 -0.15
29 -0.15
3 -0.68
30 -0.15
4 -0.68
5 -0.91
55 0.15
56 0.15
57 0.15
58 0.15
59 0.15
6 -0.91
60 0.15
61 0.15
62 0.15
63 0.4
64 0.4
7 0.5
8 0.5
9 0.9

>  <PUBCHEM_EFFECTIVE_ROTOR_COUNT>  (1) 
11

>  <PUBCHEM_PHARMACOPHORE_FEATURES>  (1) 
8
1 1 acceptor
1 2 acceptor
1 3 acceptor
1 3 donor
1 4 acceptor
1 4 donor
6 19 21 23 25 27 29 rings
6 20 22 24 26 28 30 rings

>  <PUBCHEM_HEAVY_ATOM_COUNT>  (1) 
30

>  <PUBCHEM_ATOM_DEF_STEREO_COUNT>  (1) 
0

>  <PUBCHEM_ATOM_UDEF_STEREO_COUNT>  (1) 
0

>  <PUBCHEM_BOND_DEF_STEREO_COUNT>  (1) 
0

>  <PUBCHEM_BOND_UDEF_STEREO_COUNT>  (1) 
0

>  <PUBCHEM_ISOTOPIC_ATOM_COUNT>  (1) 
0

>  <PUBCHEM_COMPONENT_COUNT>  (1) 
1

>  <PUBCHEM_CACTVS_TAUTO_COUNT>  (1) 
1

>  <PUBCHEM_CONFORMER_ID>  (1) 
000018A500000001

>  <PUBCHEM_MMFF94_ENERGY>  (1) 
97.6243

>  <PUBCHEM_FEATURE_SELFOVERLAP>  (1) 
40.598

>  <PUBCHEM_SHAPE_FINGERPRINT>  (1) 
10 15 17676486146526294729
10299344 5 18410856563934776352
106641 1 15719114673076112325
11181472 205 14404921197001264224
11315181 36 18410855474289638297
12082328 90 18411979161686962983
12089408 11 18410573989446444428
13914758 101 15410899543507645193
14118638 360 15647324204597672456
14251764 18 18409727378652310907
14251764 46 18410856563934821833
15183329 4 15913332376973115056
15301273 46 18413386540375048384
15461852 350 18187365454713982231
15840311 113 17749111119415137692
15849732 13 15863789499701396135
18335252 98 18261114080360783931
18608769 82 18409448107157639183
21267235 1 18410572885645357956
21781051 124 18411705404661669974
21792934 111 18059282194459560960
21792961 116 18340480050551923964
22224240 67 17967810569926100330
23559900 14 18199455722895585592
249057 3 16200145525581216741
2835820 82 18125723392772352334
335352 9 18271804648427424340
34797466 226 17894633652467732052
4325135 7 17385723603543376596
4339292 15 14476661054624714909
4625314 4 18260266352447612741
59682541 35 18113619018830790241
59755656 520 14189565339501478781

>  <PUBCHEM_SHAPE_MULTIPOLES>  (1) 
583.95
30.96
2.07
1.12
0.14
1.4
0
5.03
-0.03
-0.01
0
-0.01
-0.37
0.68

>  <PUBCHEM_SHAPE_SELFOVERLAP>  (1) 
1204.638

>  <PUBCHEM_SHAPE_VOLUME>  (1) 
336.7

>  <PUBCHEM_COORDINATE_TYPE>  (1) 
2
5
10

$$$$
