6313
     RDKit          3D

 14 14  0  0  0  0  0  0  0  0999 V2000
    1.3639   -2.3024    1.1355 Cl  0  0  0  0  0  0  0  0  0  0  0  0
   -1.0624    0.1427    0.0029 N   0  0  0  0  0  0  0  0  0  0  0  0
   -3.1256    0.7184    0.9404 N   0  0  0  0  0  0  0  0  0  0  0  0
   -3.1047   -0.7358   -0.8883 N   0  0  0  0  0  0  0  0  0  0  0  0
   -0.0933   -0.4742   -0.8746 C   0  0  0  0  0  0  0  0  0  0  0  0
    1.3151   -0.1188   -0.4948 C   0  0  0  0  0  0  0  0  0  0  0  0
    2.0409   -0.8925    0.4056 C   0  0  0  0  0  0  0  0  0  0  0  0
    1.8827    1.0148   -1.0691 C   0  0  0  0  0  0  0  0  0  0  0  0
   -2.4462   -0.0009   -0.0341 C   0  0  0  0  0  0  0  0  0  0  0  0
    3.3466   -0.5292    0.7353 C   0  0  0  0  0  0  0  0  0  0  0  0
    3.1884    1.3780   -0.7396 C   0  0  0  0  0  0  0  0  0  0  0  0
    3.9203    0.6061    0.1627 C   0  0  0  0  0  0  0  0  0  0  0  0
   -2.6693    1.9684    1.5035 C   0  0  0  0  0  0  0  0  0  0  0  0
   -4.5565   -0.7746   -0.7855 C   0  0  0  0  0  0  0  0  0  0  0  0
  1  7  1  0
  2  5  1  0
  2  9  1  0
  3  9  1  0
  3 13  1  0
  4  9  2  0
  4 14  1  0
  5  6  1  0
  6  7  2  0
  6  8  1  0
  7 10  1  0
  8 11  2  0
 10 12  2  0
 11 12  1  0
M  END
>  <PUBCHEM_COMPOUND_CID>  (1) 
6313

>  <PUBCHEM_CONFORMER_RMSD>  (1) 
0.6

>  <PUBCHEM_CONFORMER_DIVERSEORDER>  (1) 
1
65
39
45
56
43
38
60
76
47
44
18
20
32
64
33
70
68
10
16
75
30
67
63
50
11
54
13
19
53
40
57
15
34
6
62
51
48
36
24
55
31
25
12
26
22
72
69
14
7
74
41
37
46
27
9
23
35
71
4
66
29
52
28
59
5
3
8
2
73
58
49
42
17
61
21

>  <PUBCHEM_MMFF94_PARTIAL_CHARGES>  (1) 
20
1 -0.18
10 -0.15
11 -0.15
12 -0.15
13 0.37
14 0.25
17 0.4
18 0.15
19 0.15
2 -0.82
20 0.15
21 0.15
22 0.4
3 -0.82
4 -0.7
5 0.51
6 -0.14
7 0.18
8 -0.15
9 0.55

>  <PUBCHEM_EFFECTIVE_ROTOR_COUNT>  (1) 
4

>  <PUBCHEM_PHARMACOPHORE_FEATURES>  (1) 
4
1 2 donor
1 3 donor
4 2 3 4 9 cation
6 6 7 8 10 11 12 rings

>  <PUBCHEM_HEAVY_ATOM_COUNT>  (1) 
14

>  <PUBCHEM_ATOM_DEF_STEREO_COUNT>  (1) 
0

>  <PUBCHEM_ATOM_UDEF_STEREO_COUNT>  (1) 
0

>  <PUBCHEM_BOND_DEF_STEREO_COUNT>  (1) 
0

>  <PUBCHEM_BOND_UDEF_STEREO_COUNT>  (1) 
0

>  <PUBCHEM_ISOTOPIC_ATOM_COUNT>  (1) 
0

>  <PUBCHEM_COMPONENT_COUNT>  (1) 
1

>  <PUBCHEM_CACTVS_TAUTO_COUNT>  (1) 
2

>  <PUBCHEM_CONFORMER_ID>  (1) 
000018A900000001

>  <PUBCHEM_MMFF94_ENERGY>  (1) 
40.8018

>  <PUBCHEM_FEATURE_SELFOVERLAP>  (1) 
20.34

>  <PUBCHEM_SHAPE_FINGERPRINT>  (1) 
10219947 1 17749105599933404966
10465860 228 18267877085803357248
10498660 4 17418097576967932913
10980938 120 18187080642225708302
11471102 22 17458063751037807464
11615757 297 18334856134089905004
12162725 195 18413110562819313349
124424 183 15574707002032688477
12500047 106 13262387878185117969
12932764 1 18188781526273041053
14144814 61 18260831487990559909
14251717 144 18113610192636105814
15375358 24 16226041193611027391
15775835 57 18271814492550482592
18186145 218 18260275144018638766
19422 9 18271807891264837118
200 152 18335975446070823055
201361 129 18339086982193566090
20279233 1 16370725928683691043
204376 136 17895480353071056678
20645477 70 17458614601741633226
22485316 2 12324238377931061148
23048698 100 18334009505915292735
23402539 116 17846206791839483503
23557571 272 16845299340724776705
23559900 14 13840261477661433770
23598291 2 18339367340109650926
3268164 11 17132106936367406589
33824 294 17749098998337010698
581208 293 18040710377144368446
633830 44 18264509363307851436
7615 1 18340200778850978345
77492 1 18412544305709289222

>  <PUBCHEM_SHAPE_MULTIPOLES>  (1) 
275.04
7.89
1.78
1.27
4.8
0.37
0.25
-0.9
-0.16
-0.51
0.66
0.68
-0.25
-1.77

>  <PUBCHEM_SHAPE_SELFOVERLAP>  (1) 
545.008

>  <PUBCHEM_SHAPE_VOLUME>  (1) 
163.7

>  <PUBCHEM_COORDINATE_TYPE>  (1) 
2
5
10

$$$$
