6328
     RDKit          3D

  2  1  0  0  0  0  0  0  0  0999 V2000
    1.0559    0.0000    0.0000 I   0  0  0  0  0  0  0  0  0  0  0  0
   -1.0559    0.0000    0.0000 C   0  0  0  0  0  0  0  0  0  0  0  0
  1  2  1  0
M  END
>  <PUBCHEM_COMPOUND_CID>  (1) 
6328

>  <PUBCHEM_CONFORMER_RMSD>  (1) 
0.4

>  <PUBCHEM_CONFORMER_DIVERSEORDER>  (1) 
1

>  <PUBCHEM_MMFF94_PARTIAL_CHARGES>  (1) 
2
1 -0.19
2 0.19

>  <PUBCHEM_EFFECTIVE_ROTOR_COUNT>  (1) 
0

>  <PUBCHEM_PHARMACOPHORE_FEATURES>  (1) 
1
1 1 hydrophobe

>  <PUBCHEM_HEAVY_ATOM_COUNT>  (1) 
2

>  <PUBCHEM_ATOM_DEF_STEREO_COUNT>  (1) 
0

>  <PUBCHEM_ATOM_UDEF_STEREO_COUNT>  (1) 
0

>  <PUBCHEM_BOND_DEF_STEREO_COUNT>  (1) 
0

>  <PUBCHEM_BOND_UDEF_STEREO_COUNT>  (1) 
0

>  <PUBCHEM_ISOTOPIC_ATOM_COUNT>  (1) 
0

>  <PUBCHEM_COMPONENT_COUNT>  (1) 
1

>  <PUBCHEM_CACTVS_TAUTO_COUNT>  (1) 
1

>  <PUBCHEM_CONFORMER_ID>  (1) 
000018B800000001

>  <PUBCHEM_MMFF94_ENERGY>  (1) 
0.1057

>  <PUBCHEM_FEATURE_SELFOVERLAP>  (1) 
5.074

>  <PUBCHEM_SHAPE_FINGERPRINT>  (1) 
139733 1 18338799017389466980
21015797 1 18122623031156149412

>  <PUBCHEM_SHAPE_MULTIPOLES>  (1) 
53.09
1.81
0.75
0.75
0.17
0
0
0
0
-0.11
0
-0.11
0
0

>  <PUBCHEM_SHAPE_SELFOVERLAP>  (1) 
61.131

>  <PUBCHEM_SHAPE_VOLUME>  (1) 
47.8

>  <PUBCHEM_COORDINATE_TYPE>  (1) 
2
5
10

$$$$
