6337
     RDKit          3D

  3  2  0  0  0  0  0  0  0  0999 V2000
    1.4165    0.2652    0.0000 Cl  0  0  0  0  0  0  0  0  0  0  0  0
   -0.1260   -0.6165    0.0000 C   0  0  0  0  0  0  0  0  0  0  0  0
   -1.2905    0.3513    0.0000 C   0  0  0  0  0  0  0  0  0  0  0  0
  1  2  1  0
  2  3  1  0
M  END
>  <PUBCHEM_COMPOUND_CID>  (1) 
6337

>  <PUBCHEM_CONFORMER_RMSD>  (1) 
0.4

>  <PUBCHEM_CONFORMER_DIVERSEORDER>  (1) 
1

>  <PUBCHEM_MMFF94_PARTIAL_CHARGES>  (1) 
2
1 -0.29
2 0.29

>  <PUBCHEM_EFFECTIVE_ROTOR_COUNT>  (1) 
0

>  <PUBCHEM_PHARMACOPHORE_FEATURES>  (1) 
0

>  <PUBCHEM_HEAVY_ATOM_COUNT>  (1) 
3

>  <PUBCHEM_ATOM_DEF_STEREO_COUNT>  (1) 
0

>  <PUBCHEM_ATOM_UDEF_STEREO_COUNT>  (1) 
0

>  <PUBCHEM_BOND_DEF_STEREO_COUNT>  (1) 
0

>  <PUBCHEM_BOND_UDEF_STEREO_COUNT>  (1) 
0

>  <PUBCHEM_ISOTOPIC_ATOM_COUNT>  (1) 
0

>  <PUBCHEM_COMPONENT_COUNT>  (1) 
1

>  <PUBCHEM_CACTVS_TAUTO_COUNT>  (1) 
1

>  <PUBCHEM_CONFORMER_ID>  (1) 
000018C100000001

>  <PUBCHEM_MMFF94_ENERGY>  (1) 
-2.1527

>  <PUBCHEM_FEATURE_SELFOVERLAP>  (1) 
0

>  <PUBCHEM_SHAPE_FINGERPRINT>  (1) 
139733 1 18410856551060462948
21015797 1 18047757279994090959

>  <PUBCHEM_SHAPE_MULTIPOLES>  (1) 
63.61
1.88
0.82
0.63
0.22
0.05
0
-0.36
0
-0.03
0
0.02
0
0

>  <PUBCHEM_SHAPE_SELFOVERLAP>  (1) 
90.326

>  <PUBCHEM_SHAPE_VOLUME>  (1) 
49.7

>  <PUBCHEM_COORDINATE_TYPE>  (1) 
2
5
10

$$$$
