634
     RDKit          3D

 13 13  0  0  1  0  0  0  0  0999 V2000
    2.4811    0.2945    0.2397 P   0  0  0  0  0  0  0  0  0  0  0  0
   -0.7106    0.5598   -0.6881 O   0  0  0  0  0  0  0  0  0  0  0  0
    1.0972   -0.5336    0.3448 O   0  0  0  0  0  0  0  0  0  0  0  0
   -1.5452   -1.4740    1.4065 O   0  0  0  0  0  0  0  0  0  0  0  0
   -2.8512    2.2311   -0.0150 O   0  0  0  0  0  0  0  0  0  0  0  0
    2.0110    1.7755   -0.2082 O   0  0  0  0  0  0  0  0  0  0  0  0
    3.1533   -0.3044   -1.1035 O   0  0  0  0  0  0  0  0  0  0  0  0
    3.3499    0.2395    1.4622 O   0  0  0  0  0  0  0  0  0  0  0  0
   -1.8267   -1.4098    0.0139 C   0  0  0  0  0  0  0  0  0  0  0  0
   -2.0256    0.0297   -0.4395 C   0  0  0  0  0  0  0  0  0  0  0  0
   -0.6001   -1.8102   -0.7779 C   0  0  0  0  0  0  0  0  0  0  0  0
    0.2208   -0.5280   -0.7763 C   0  0  0  0  0  0  0  0  0  0  0  0
   -2.7539    0.9299    0.5415 C   0  0  0  0  0  0  0  0  0  0  0  0
  1  3  1  0
  1  6  1  0
  1  7  1  0
  1  8  2  0
  2 10  1  0
  2 12  1  0
  3 12  1  0
  4  9  1  0
  5 13  1  0
  9 10  1  0
  9 11  1  0
 10 13  1  0
 11 12  1  0
M  END
>  <PUBCHEM_COMPOUND_CID>  (1) 
634

>  <PUBCHEM_CONFORMER_RMSD>  (1) 
0.6

>  <PUBCHEM_CONFORMER_DIVERSEORDER>  (1) 
1
23
5
7
10
6
19
14
33
34
22
17
9
11
3
27
31
26
8
20
29
21
24
28
12
15
18
2
32
16
13
25
4
30

>  <PUBCHEM_MMFF94_PARTIAL_CHARGES>  (1) 
16
1 1.51
10 0.28
12 0.56
13 0.28
2 -0.56
21 0.4
22 0.4
23 0.5
24 0.5
3 -0.55
4 -0.68
5 -0.68
6 -0.77
7 -0.77
8 -0.7
9 0.28

>  <PUBCHEM_EFFECTIVE_ROTOR_COUNT>  (1) 
4

>  <PUBCHEM_PHARMACOPHORE_FEATURES>  (1) 
10
1 2 acceptor
1 4 acceptor
1 4 donor
1 5 acceptor
1 5 donor
1 6 acceptor
1 7 acceptor
1 8 acceptor
4 1 6 7 8 anion
5 2 9 10 11 12 rings

>  <PUBCHEM_HEAVY_ATOM_COUNT>  (1) 
13

>  <PUBCHEM_ATOM_DEF_STEREO_COUNT>  (1) 
0

>  <PUBCHEM_ATOM_UDEF_STEREO_COUNT>  (1) 
3

>  <PUBCHEM_BOND_DEF_STEREO_COUNT>  (1) 
0

>  <PUBCHEM_BOND_UDEF_STEREO_COUNT>  (1) 
0

>  <PUBCHEM_ISOTOPIC_ATOM_COUNT>  (1) 
0

>  <PUBCHEM_COMPONENT_COUNT>  (1) 
1

>  <PUBCHEM_CACTVS_TAUTO_COUNT>  (1) 
1

>  <PUBCHEM_CONFORMER_ID>  (1) 
0000027A00000001

>  <PUBCHEM_MMFF94_ENERGY>  (1) 
-7.4037

>  <PUBCHEM_FEATURE_SELFOVERLAP>  (1) 
50.789

>  <PUBCHEM_SHAPE_FINGERPRINT>  (1) 
11127187 94 8862950480613872643
12251169 10 18260544528351265808
12696612 119 18190736630031131804
12932764 1 17022618697812046286
13024252 1 11963652405772968247
13764800 53 18341621425009494081
13839132 238 18267877098735770983
14648413 74 18341059587726934932
15076042 46 18263368147347112287
15775835 57 18260269620474606580
16945 1 18409448106962350039
18186145 218 17703793565658015685
19973954 147 18340490087663576484
20281407 28 8574423240607208877
20645464 45 18060132167675100830
20653085 51 17275107189265718123
20715346 28 17917433159223660438
21028194 46 17989489606236158581
21524375 3 18265891372241096285
23402539 116 18200014262133709471
2748010 2 18271537398540601759
305870 269 18267860580043831875
3248919 1 18336258037522752782
369184 2 17386552686887276351
5084963 1 17632019748673116366

>  <PUBCHEM_SHAPE_MULTIPOLES>  (1) 
230.3
4.99
1.86
1.1
2.73
0.36
0.27
1.93
0.8
-1.31
-0.09
0.37
-0.22
0.26

>  <PUBCHEM_SHAPE_SELFOVERLAP>  (1) 
444.953

>  <PUBCHEM_SHAPE_VOLUME>  (1) 
140.9

>  <PUBCHEM_COORDINATE_TYPE>  (1) 
2
5
10

$$$$
