6341
     RDKit          3D

  3  2  0  0  0  0  0  0  0  0999 V2000
    1.2133   -0.2902    0.0000 N   0  0  0  0  0  0  0  0  0  0  0  0
    0.0295    0.5602    0.0000 C   0  0  0  0  0  0  0  0  0  0  0  0
   -1.2428   -0.2700    0.0000 C   0  0  0  0  0  0  0  0  0  0  0  0
  1  2  1  0
  2  3  1  0
M  END
>  <PUBCHEM_COMPOUND_CID>  (1) 
6341

>  <PUBCHEM_CONFORMER_RMSD>  (1) 
0.4

>  <PUBCHEM_CONFORMER_DIVERSEORDER>  (1) 
1

>  <PUBCHEM_MMFF94_PARTIAL_CHARGES>  (1) 
4
1 -0.99
10 0.36
2 0.27
9 0.36

>  <PUBCHEM_EFFECTIVE_ROTOR_COUNT>  (1) 
0

>  <PUBCHEM_PHARMACOPHORE_FEATURES>  (1) 
2
1 1 cation
1 1 donor

>  <PUBCHEM_HEAVY_ATOM_COUNT>  (1) 
3

>  <PUBCHEM_ATOM_DEF_STEREO_COUNT>  (1) 
0

>  <PUBCHEM_ATOM_UDEF_STEREO_COUNT>  (1) 
0

>  <PUBCHEM_BOND_DEF_STEREO_COUNT>  (1) 
0

>  <PUBCHEM_BOND_UDEF_STEREO_COUNT>  (1) 
0

>  <PUBCHEM_ISOTOPIC_ATOM_COUNT>  (1) 
0

>  <PUBCHEM_COMPONENT_COUNT>  (1) 
1

>  <PUBCHEM_CACTVS_TAUTO_COUNT>  (1) 
1

>  <PUBCHEM_CONFORMER_ID>  (1) 
000018C500000001

>  <PUBCHEM_MMFF94_ENERGY>  (1) 
-5.7146

>  <PUBCHEM_FEATURE_SELFOVERLAP>  (1) 
10.148

>  <PUBCHEM_SHAPE_FINGERPRINT>  (1) 
139733 1 17906453581858242756
20096714 4 9007057971797318214
21015797 1 18197214973626128933

>  <PUBCHEM_SHAPE_MULTIPOLES>  (1) 
56.76
1.54
0.75
0.59
0.05
0.07
0
-0.28
0
0
0
0.04
0.01
0

>  <PUBCHEM_SHAPE_SELFOVERLAP>  (1) 
85.189

>  <PUBCHEM_SHAPE_VOLUME>  (1) 
42.4

>  <PUBCHEM_COORDINATE_TYPE>  (1) 
2
5
10

$$$$
