6343
     RDKit          3D

  3  2  0  0  0  0  0  0  0  0999 V2000
    1.4415   -0.2624    0.0000 S   0  0  0  0  0  0  0  0  0  0  0  0
   -0.1420    0.6214    0.0000 C   0  0  0  0  0  0  0  0  0  0  0  0
   -1.2995   -0.3590    0.0000 C   0  0  0  0  0  0  0  0  0  0  0  0
  1  2  1  0
  2  3  1  0
M  END
>  <PUBCHEM_COMPOUND_CID>  (1) 
6343

>  <PUBCHEM_CONFORMER_RMSD>  (1) 
0.4

>  <PUBCHEM_CONFORMER_DIVERSEORDER>  (1) 
1

>  <PUBCHEM_MMFF94_PARTIAL_CHARGES>  (1) 
3
1 -0.41
2 0.23
9 0.18

>  <PUBCHEM_EFFECTIVE_ROTOR_COUNT>  (1) 
0

>  <PUBCHEM_PHARMACOPHORE_FEATURES>  (1) 
0

>  <PUBCHEM_HEAVY_ATOM_COUNT>  (1) 
3

>  <PUBCHEM_ATOM_DEF_STEREO_COUNT>  (1) 
0

>  <PUBCHEM_ATOM_UDEF_STEREO_COUNT>  (1) 
0

>  <PUBCHEM_BOND_DEF_STEREO_COUNT>  (1) 
0

>  <PUBCHEM_BOND_UDEF_STEREO_COUNT>  (1) 
0

>  <PUBCHEM_ISOTOPIC_ATOM_COUNT>  (1) 
0

>  <PUBCHEM_COMPONENT_COUNT>  (1) 
1

>  <PUBCHEM_CACTVS_TAUTO_COUNT>  (1) 
1

>  <PUBCHEM_CONFORMER_ID>  (1) 
000018C700000001

>  <PUBCHEM_MMFF94_ENERGY>  (1) 
-0.2523

>  <PUBCHEM_FEATURE_SELFOVERLAP>  (1) 
0

>  <PUBCHEM_SHAPE_FINGERPRINT>  (1) 
139733 1 18050568439210963397
20096714 4 9439402436650349622
21015797 1 18052818340596128973

>  <PUBCHEM_SHAPE_MULTIPOLES>  (1) 
65.59
1.95
0.83
0.64
0.23
0.04
0
-0.37
0
-0.03
0
0.04
-0.01
0

>  <PUBCHEM_SHAPE_SELFOVERLAP>  (1) 
92.594

>  <PUBCHEM_SHAPE_VOLUME>  (1) 
51.5

>  <PUBCHEM_COORDINATE_TYPE>  (1) 
2
5
10

$$$$
