6350
     RDKit          3D

  3  2  0  0  0  0  0  0  0  0999 V2000
   -1.1165    0.2412    0.0000 O   0  0  0  0  0  0  0  0  0  0  0  0
    0.0540   -0.5212    0.0000 N   0  0  0  0  0  0  0  0  0  0  0  0
    1.0624    0.2800    0.0000 C   0  0  0  0  0  0  0  0  0  0  0  0
  1  2  1  0
  2  3  2  0
M  END
>  <PUBCHEM_COMPOUND_CID>  (1) 
6350

>  <PUBCHEM_CONFORMER_RMSD>  (1) 
0.4

>  <PUBCHEM_CONFORMER_DIVERSEORDER>  (1) 
1

>  <PUBCHEM_MMFF94_PARTIAL_CHARGES>  (1) 
6
1 -0.34
2 -0.51
3 0.33
4 0.06
5 0.06
6 0.4

>  <PUBCHEM_EFFECTIVE_ROTOR_COUNT>  (1) 
0

>  <PUBCHEM_PHARMACOPHORE_FEATURES>  (1) 
2
1 1 anion
1 2 acceptor

>  <PUBCHEM_HEAVY_ATOM_COUNT>  (1) 
3

>  <PUBCHEM_ATOM_DEF_STEREO_COUNT>  (1) 
0

>  <PUBCHEM_ATOM_UDEF_STEREO_COUNT>  (1) 
0

>  <PUBCHEM_BOND_DEF_STEREO_COUNT>  (1) 
0

>  <PUBCHEM_BOND_UDEF_STEREO_COUNT>  (1) 
0

>  <PUBCHEM_ISOTOPIC_ATOM_COUNT>  (1) 
0

>  <PUBCHEM_COMPONENT_COUNT>  (1) 
1

>  <PUBCHEM_CACTVS_TAUTO_COUNT>  (1) 
2

>  <PUBCHEM_CONFORMER_ID>  (1) 
000018CE00000001

>  <PUBCHEM_MMFF94_ENERGY>  (1) 
1.2368

>  <PUBCHEM_FEATURE_SELFOVERLAP>  (1) 
10.148

>  <PUBCHEM_SHAPE_FINGERPRINT>  (1) 
139733 1 18410856581199184484
21015797 1 18192430998560003838

>  <PUBCHEM_SHAPE_MULTIPOLES>  (1) 
50.89
1.35
0.68
0.55
0.05
0.02
0
-0.2
0
-0.03
0
-0.05
-0.01
0

>  <PUBCHEM_SHAPE_SELFOVERLAP>  (1) 
79.723

>  <PUBCHEM_SHAPE_VOLUME>  (1) 
37

>  <PUBCHEM_COORDINATE_TYPE>  (1) 
2
5
10

$$$$
