636
     RDKit          2D

 18 20  0  0  1  0  0  0  0  0999 V2000
    0.0000    0.0000    0.0000 O   0  0  0  0  0  0  0  0  0  0  0  0
    0.0000    0.0000    0.0000 O   0  0  0  0  0  0  0  0  0  0  0  0
    0.0000    0.0000    0.0000 O   0  0  0  0  0  0  0  0  0  0  0  0
    0.0000    0.0000    0.0000 N   0  0  0  0  0  0  0  0  0  0  0  0
    0.0000    0.0000    0.0000 N   0  0  0  0  0  0  0  0  0  0  0  0
    0.0000    0.0000    0.0000 N   0  0  0  0  0  0  0  0  0  0  0  0
    0.0000    0.0000    0.0000 N   0  0  0  0  0  0  0  0  0  0  0  0
    0.0000    0.0000    0.0000 N   0  0  0  0  0  0  0  0  0  0  0  0
    0.0000    0.0000    0.0000 C   0  0  0  0  0  0  0  0  0  0  0  0
    0.0000    0.0000    0.0000 C   0  0  0  0  0  0  0  0  0  0  0  0
    0.0000    0.0000    0.0000 C   0  0  0  0  0  0  0  0  0  0  0  0
    0.0000    0.0000    0.0000 C   0  0  0  0  0  0  0  0  0  0  0  0
    0.0000    0.0000    0.0000 C   0  0  0  0  0  0  0  0  0  0  0  0
    0.0000    0.0000    0.0000 C   0  0  0  0  0  0  0  0  0  0  0  0
    0.0000    0.0000    0.0000 C   0  0  0  0  0  0  0  0  0  0  0  0
    0.0000    0.0000    0.0000 C   0  0  0  0  0  0  0  0  0  0  0  0
    0.0000    0.0000    0.0000 C   0  0  0  0  0  0  0  0  0  0  0  0
    0.0000    0.0000    0.0000 C   0  0  0  0  0  0  0  0  0  0  0  0
  1  9  1  0
  1 12  1  0
  2 10  1  0
  3 13  1  0
  4  9  1  0
  4 14  1  0
  4 15  1  0
  5 15  2  0
  5 16  1  0
  6 14  1  0
  6 18  2  0
  7 17  2  0
  7 18  1  0
  8 17  1  0
  9 11  1  0
 10 11  1  0
 10 12  1  0
 12 13  1  0
 14 16  2  0
 16 17  1  0
M  END
>  <PUBCHEM_COMPOUND_CID>  (1) 
636

>  <PUBCHEM_CONFORMER_RMSD>  (1) 
0.6

>  <PUBCHEM_CONFORMER_DIVERSEORDER>  (1) 
17
8
34
72
23
3
69
58
15
7
25
32
39
65
10
43
62
50
35
19
12
6
44
73
46
37
61
2
28
42
49
20
56
68
48
21
64
67
14
1
13
57
30
26
5
24
18
70
40
47
63
22
41
54
27
60
36
9
4
29
11
52
53
66
38
51
31
55
59
16
33
71
45

>  <PUBCHEM_MMFF94_PARTIAL_CHARGES>  (1) 
23
1 -0.56
10 0.28
12 0.28
13 0.28
14 0.11
15 0.04
16 0.23
17 0.41
18 0.47
2 -0.68
26 0.15
27 0.4
28 0.4
29 0.15
3 -0.68
30 0.4
31 0.4
4 0.05
5 -0.57
6 -0.57
7 -0.62
8 -0.9
9 0.54

>  <PUBCHEM_EFFECTIVE_ROTOR_COUNT>  (1) 
3

>  <PUBCHEM_PHARMACOPHORE_FEATURES>  (1) 
13
1 1 acceptor
1 2 acceptor
1 2 donor
1 3 acceptor
1 3 donor
1 8 cation
1 8 donor
3 4 5 15 cation
3 4 6 14 cation
3 6 7 18 cation
5 1 9 10 11 12 rings
5 4 5 14 15 16 rings
6 6 7 14 16 17 18 rings

>  <PUBCHEM_HEAVY_ATOM_COUNT>  (1) 
18

>  <PUBCHEM_ATOM_DEF_STEREO_COUNT>  (1) 
0

>  <PUBCHEM_ATOM_UDEF_STEREO_COUNT>  (1) 
3

>  <PUBCHEM_BOND_DEF_STEREO_COUNT>  (1) 
0

>  <PUBCHEM_BOND_UDEF_STEREO_COUNT>  (1) 
0

>  <PUBCHEM_ISOTOPIC_ATOM_COUNT>  (1) 
0

>  <PUBCHEM_COMPONENT_COUNT>  (1) 
1

>  <PUBCHEM_CACTVS_TAUTO_COUNT>  (1) 
3

$$$$
