6363
     RDKit          3D

  4  3  0  0  0  0  0  0  0  0999 V2000
   -0.1164    1.3888   -0.1236 N   0  0  0  0  0  0  0  0  0  0  0  0
    0.0019    0.0143    0.3611 C   0  0  0  0  0  0  0  0  0  0  0  0
    1.3114   -0.6051   -0.1193 C   0  0  0  0  0  0  0  0  0  0  0  0
   -1.1969   -0.7981   -0.1181 C   0  0  0  0  0  0  0  0  0  0  0  0
  1  2  1  0
  2  3  1  0
  2  4  1  0
M  END
>  <PUBCHEM_COMPOUND_CID>  (1) 
6363

>  <PUBCHEM_CONFORMER_RMSD>  (1) 
0.4

>  <PUBCHEM_CONFORMER_DIVERSEORDER>  (1) 
1

>  <PUBCHEM_MMFF94_PARTIAL_CHARGES>  (1) 
4
1 -0.99
12 0.36
13 0.36
2 0.27

>  <PUBCHEM_EFFECTIVE_ROTOR_COUNT>  (1) 
0

>  <PUBCHEM_PHARMACOPHORE_FEATURES>  (1) 
3
1 1 cation
1 1 donor
3 2 3 4 hydrophobe

>  <PUBCHEM_HEAVY_ATOM_COUNT>  (1) 
4

>  <PUBCHEM_ATOM_DEF_STEREO_COUNT>  (1) 
0

>  <PUBCHEM_ATOM_UDEF_STEREO_COUNT>  (1) 
0

>  <PUBCHEM_BOND_DEF_STEREO_COUNT>  (1) 
0

>  <PUBCHEM_BOND_UDEF_STEREO_COUNT>  (1) 
0

>  <PUBCHEM_ISOTOPIC_ATOM_COUNT>  (1) 
0

>  <PUBCHEM_COMPONENT_COUNT>  (1) 
1

>  <PUBCHEM_CACTVS_TAUTO_COUNT>  (1) 
1

>  <PUBCHEM_CONFORMER_ID>  (1) 
000018DB00000001

>  <PUBCHEM_MMFF94_ENERGY>  (1) 
-5.6468

>  <PUBCHEM_FEATURE_SELFOVERLAP>  (1) 
15.223

>  <PUBCHEM_SHAPE_FINGERPRINT>  (1) 
139733 1 8790891778173935434
20096714 4 17183903008921445365
21015797 1 9798534824276916602
5943 1 11932023695004990610

>  <PUBCHEM_SHAPE_MULTIPOLES>  (1) 
77.34
1.44
1.24
0.64
0.04
0.44
0.02
-0.55
-0.09
-0.03
-0.09
0
-0.02
0

>  <PUBCHEM_SHAPE_SELFOVERLAP>  (1) 
125.392

>  <PUBCHEM_SHAPE_VOLUME>  (1) 
55.2

>  <PUBCHEM_COORDINATE_TYPE>  (1) 
2
5
10

$$$$
