6376
     RDKit          3D

  4  3  0  0  0  0  0  0  0  0999 V2000
    1.6319   -0.9407   -0.1581 Cl  0  0  0  0  0  0  0  0  0  0  0  0
   -1.6275   -0.9479   -0.1581 Cl  0  0  0  0  0  0  0  0  0  0  0  0
   -0.0002    0.0911    0.5081 Si  0  0  0  0  0  4  0  0  0  0  0  0
   -0.0042    1.7975   -0.1919 C   0  0  0  0  0  0  0  0  0  0  0  0
  1  3  1  0
  2  3  1  0
  3  4  1  0
M  END
>  <PUBCHEM_COMPOUND_CID>  (1) 
6376

>  <PUBCHEM_CONFORMER_RMSD>  (1) 
0.4

>  <PUBCHEM_CONFORMER_DIVERSEORDER>  (1) 
1

>  <PUBCHEM_MMFF94_PARTIAL_CHARGES>  (1) 
5
1 -0.37
2 -0.37
3 1.02
4 -0.08
5 -0.2

>  <PUBCHEM_EFFECTIVE_ROTOR_COUNT>  (1) 
0

>  <PUBCHEM_PHARMACOPHORE_FEATURES>  (1) 
0

>  <PUBCHEM_HEAVY_ATOM_COUNT>  (1) 
4

>  <PUBCHEM_ATOM_DEF_STEREO_COUNT>  (1) 
0

>  <PUBCHEM_ATOM_UDEF_STEREO_COUNT>  (1) 
0

>  <PUBCHEM_BOND_DEF_STEREO_COUNT>  (1) 
0

>  <PUBCHEM_BOND_UDEF_STEREO_COUNT>  (1) 
0

>  <PUBCHEM_ISOTOPIC_ATOM_COUNT>  (1) 
0

>  <PUBCHEM_COMPONENT_COUNT>  (1) 
1

>  <PUBCHEM_CACTVS_TAUTO_COUNT>  (1) 
1

>  <PUBCHEM_CONFORMER_ID>  (1) 
000018E800000001

>  <PUBCHEM_MMFF94_ENERGY>  (1) 
0.1207

>  <PUBCHEM_FEATURE_SELFOVERLAP>  (1) 
0

>  <PUBCHEM_SHAPE_FINGERPRINT>  (1) 
139733 1 8574713502781142882
16714656 1 18122915217691677521
20096714 4 17109304439237949809
21040471 1 17401482650522557632
29004967 10 18336829796121899322
5943 1 16159863589920859912

>  <PUBCHEM_SHAPE_MULTIPOLES>  (1) 
104.27
1.9
1.78
0.86
0
0.82
0.16
-1.06
-0.21
0
-0.23
0
0.02
0

>  <PUBCHEM_SHAPE_SELFOVERLAP>  (1) 
148.99

>  <PUBCHEM_SHAPE_VOLUME>  (1) 
80.3

>  <PUBCHEM_COORDINATE_TYPE>  (1) 
2
5
10

$$$$
