6378
     RDKit          3D

  4  4  0  0  1  0  0  0  0  0999 V2000
    0.7791   -0.7557    0.1088 O   0  0  0  0  0  0  0  0  0  0  0  0
   -0.2134    0.0628   -0.4947 C   0  0  0  0  0  0  0  0  0  0  0  0
    0.9769    0.6632    0.1608 C   0  0  0  0  0  0  0  0  0  0  0  0
   -1.5426    0.0296    0.2252 C   0  0  0  0  0  0  0  0  0  0  0  0
  1  2  1  0
  1  3  1  0
  2  3  1  0
  2  4  1  0
M  END
>  <PUBCHEM_COMPOUND_CID>  (1) 
6378

>  <PUBCHEM_CONFORMER_RMSD>  (1) 
0.4

>  <PUBCHEM_CONFORMER_DIVERSEORDER>  (1) 
1
2

>  <PUBCHEM_MMFF94_PARTIAL_CHARGES>  (1) 
7
1 -0.3
2 -0.05
3 -0.05
4 0.09
5 0.1
6 0.1
7 0.1

>  <PUBCHEM_EFFECTIVE_ROTOR_COUNT>  (1) 
0.6

>  <PUBCHEM_PHARMACOPHORE_FEATURES>  (1) 
1
1 1 acceptor

>  <PUBCHEM_HEAVY_ATOM_COUNT>  (1) 
4

>  <PUBCHEM_ATOM_DEF_STEREO_COUNT>  (1) 
0

>  <PUBCHEM_ATOM_UDEF_STEREO_COUNT>  (1) 
1

>  <PUBCHEM_BOND_DEF_STEREO_COUNT>  (1) 
0

>  <PUBCHEM_BOND_UDEF_STEREO_COUNT>  (1) 
0

>  <PUBCHEM_ISOTOPIC_ATOM_COUNT>  (1) 
0

>  <PUBCHEM_COMPONENT_COUNT>  (1) 
1

>  <PUBCHEM_CACTVS_TAUTO_COUNT>  (1) 
1

>  <PUBCHEM_CONFORMER_ID>  (1) 
000018EA00000001

>  <PUBCHEM_MMFF94_ENERGY>  (1) 
4.6477

>  <PUBCHEM_FEATURE_SELFOVERLAP>  (1) 
5.074

>  <PUBCHEM_SHAPE_FINGERPRINT>  (1) 
139733 1 10591456422145443778
20096714 4 17988644167614922361
21015797 1 10440415397525623660
5943 1 12857469833228082228

>  <PUBCHEM_SHAPE_MULTIPOLES>  (1) 
76.45
1.62
0.82
0.68
0.51
0.01
-0.04
-0.13
0.19
-0.18
0.03
0.04
-0.02
-0.01

>  <PUBCHEM_SHAPE_SELFOVERLAP>  (1) 
135.549

>  <PUBCHEM_SHAPE_VOLUME>  (1) 
51.7

>  <PUBCHEM_COORDINATE_TYPE>  (1) 
2
5
10

$$$$
