6396
     RDKit          3D

  5  4  0  0  0  0  0  0  0  0999 V2000
    0.0001   -0.0001    0.0001 Si  0  0  0  0  0  4  0  0  0  0  0  0
   -0.9231   -0.1714   -1.6233 C   0  0  0  0  0  0  0  0  0  0  0  0
    0.8883    1.6510    0.0427 C   0  0  0  0  0  0  0  0  0  0  0  0
    1.2519   -1.3874    0.1568 C   0  0  0  0  0  0  0  0  0  0  0  0
   -1.2172   -0.0922    1.4236 C   0  0  0  0  0  0  0  0  0  0  0  0
  1  2  1  0
  1  3  1  0
  1  4  1  0
  1  5  1  0
M  END
>  <PUBCHEM_COMPOUND_CID>  (1) 
6396

>  <PUBCHEM_CONFORMER_RMSD>  (1) 
0.4

>  <PUBCHEM_CONFORMER_DIVERSEORDER>  (1) 
1

>  <PUBCHEM_MMFF94_PARTIAL_CHARGES>  (1) 
5
1 0.32
2 -0.08
3 -0.08
4 -0.08
5 -0.08

>  <PUBCHEM_EFFECTIVE_ROTOR_COUNT>  (1) 
0

>  <PUBCHEM_PHARMACOPHORE_FEATURES>  (1) 
0

>  <PUBCHEM_HEAVY_ATOM_COUNT>  (1) 
5

>  <PUBCHEM_ATOM_DEF_STEREO_COUNT>  (1) 
0

>  <PUBCHEM_ATOM_UDEF_STEREO_COUNT>  (1) 
0

>  <PUBCHEM_BOND_DEF_STEREO_COUNT>  (1) 
0

>  <PUBCHEM_BOND_UDEF_STEREO_COUNT>  (1) 
0

>  <PUBCHEM_ISOTOPIC_ATOM_COUNT>  (1) 
0

>  <PUBCHEM_COMPONENT_COUNT>  (1) 
1

>  <PUBCHEM_CACTVS_TAUTO_COUNT>  (1) 
1

>  <PUBCHEM_CONFORMER_ID>  (1) 
000018FC00000001

>  <PUBCHEM_MMFF94_ENERGY>  (1) 
-0.1918

>  <PUBCHEM_FEATURE_SELFOVERLAP>  (1) 
0

>  <PUBCHEM_SHAPE_FINGERPRINT>  (1) 
29004967 10 14613195379390987052
5943 1 15730725356946063360

>  <PUBCHEM_SHAPE_MULTIPOLES>  (1) 
121.11
1.52
1.52
1.52
0.06
0.01
0.38
-0.06
-0.25
-0.83
-0.13
0.77
0.05
0.17

>  <PUBCHEM_SHAPE_SELFOVERLAP>  (1) 
188.289

>  <PUBCHEM_SHAPE_VOLUME>  (1) 
87.5

>  <PUBCHEM_COORDINATE_TYPE>  (1) 
2
5
10

$$$$
