6398
     RDKit          3D

  5  4  0  0  0  0  0  0  0  0999 V2000
   -1.6261   -1.1532    0.0004 Cl  0  0  0  0  0  0  0  0  0  0  0  0
    1.6266   -1.1525    0.0027 Cl  0  0  0  0  0  0  0  0  0  0  0  0
   -0.0001    0.0936   -0.0001 Si  0  0  0  0  0  4  0  0  0  0  0  0
    0.0010    1.1038   -1.5414 C   0  0  0  0  0  0  0  0  0  0  0  0
   -0.0014    1.1083    1.5385 C   0  0  0  0  0  0  0  0  0  0  0  0
  1  3  1  0
  2  3  1  0
  3  4  1  0
  3  5  1  0
M  END
>  <PUBCHEM_COMPOUND_CID>  (1) 
6398

>  <PUBCHEM_CONFORMER_RMSD>  (1) 
0.4

>  <PUBCHEM_CONFORMER_DIVERSEORDER>  (1) 
1

>  <PUBCHEM_MMFF94_PARTIAL_CHARGES>  (1) 
5
1 -0.37
2 -0.37
3 0.9
4 -0.08
5 -0.08

>  <PUBCHEM_EFFECTIVE_ROTOR_COUNT>  (1) 
0

>  <PUBCHEM_PHARMACOPHORE_FEATURES>  (1) 
0

>  <PUBCHEM_HEAVY_ATOM_COUNT>  (1) 
5

>  <PUBCHEM_ATOM_DEF_STEREO_COUNT>  (1) 
0

>  <PUBCHEM_ATOM_UDEF_STEREO_COUNT>  (1) 
0

>  <PUBCHEM_BOND_DEF_STEREO_COUNT>  (1) 
0

>  <PUBCHEM_BOND_UDEF_STEREO_COUNT>  (1) 
0

>  <PUBCHEM_ISOTOPIC_ATOM_COUNT>  (1) 
0

>  <PUBCHEM_COMPONENT_COUNT>  (1) 
1

>  <PUBCHEM_CACTVS_TAUTO_COUNT>  (1) 
1

>  <PUBCHEM_CONFORMER_ID>  (1) 
000018FE00000001

>  <PUBCHEM_MMFF94_ENERGY>  (1) 
-0.1962

>  <PUBCHEM_FEATURE_SELFOVERLAP>  (1) 
0

>  <PUBCHEM_SHAPE_FINGERPRINT>  (1) 
137420 1 9187320991926635877
29004967 10 11389692956349075569
5943 1 12492083582107405349

>  <PUBCHEM_SHAPE_MULTIPOLES>  (1) 
124.85
1.68
1.61
1.51
0
0.06
0
1.08
0
0
0
0
-0.88
0

>  <PUBCHEM_SHAPE_SELFOVERLAP>  (1) 
188.326

>  <PUBCHEM_SHAPE_VOLUME>  (1) 
92.2

>  <PUBCHEM_COORDINATE_TYPE>  (1) 
2
5
10

$$$$
