64
     RDKit          3D

 10 10  0  0  1  0  0  0  0  0999 V2000
   -3.0253   -0.8729    0.2927 Cl  0  0  0  0  0  0  0  0  0  0  0  0
    3.0300    0.8754    0.2841 Cl  0  0  0  0  0  0  0  0  0  0  0  0
   -1.6401    1.6232   -0.9613 O   0  0  0  0  0  0  0  0  0  0  0  0
    1.6229   -1.6420   -0.9571 O   0  0  0  0  0  0  0  0  0  0  0  0
   -1.0635    1.0510    0.2115 C   0  0  0  0  0  0  0  0  0  0  0  0
    1.0676   -1.0457    0.2136 C   0  0  0  0  0  0  0  0  0  0  0  0
   -1.3556   -0.4240    0.2292 C   0  0  0  0  0  0  0  0  0  0  0  0
    1.3597    0.4294    0.2275 C   0  0  0  0  0  0  0  0  0  0  0  0
    0.4067    1.3735    0.2281 C   0  0  0  0  0  0  0  0  0  0  0  0
   -0.4025   -1.3681    0.2317 C   0  0  0  0  0  0  0  0  0  0  0  0
  1  7  1  0
  2  8  1  0
  3  5  1  0
  4  6  1  0
  5  7  1  0
  5  9  1  0
  6  8  1  0
  6 10  1  0
  7 10  2  0
  8  9  2  0
M  END
>  <PUBCHEM_COMPOUND_CID>  (1) 
64

>  <PUBCHEM_CONFORMER_RMSD>  (1) 
0.4

>  <PUBCHEM_CONFORMER_DIVERSEORDER>  (1) 
2
1
3

>  <PUBCHEM_MMFF94_PARTIAL_CHARGES>  (1) 
12
1 -0.14
10 -0.29
13 0.15
14 0.15
15 0.4
16 0.4
2 -0.14
3 -0.68
4 -0.68
5 0.56
6 0.56
9 -0.29

>  <PUBCHEM_EFFECTIVE_ROTOR_COUNT>  (1) 
0.4

>  <PUBCHEM_PHARMACOPHORE_FEATURES>  (1) 
5
1 3 acceptor
1 3 donor
1 4 acceptor
1 4 donor
6 5 6 7 8 9 10 rings

>  <PUBCHEM_HEAVY_ATOM_COUNT>  (1) 
10

>  <PUBCHEM_ATOM_DEF_STEREO_COUNT>  (1) 
0

>  <PUBCHEM_ATOM_UDEF_STEREO_COUNT>  (1) 
2

>  <PUBCHEM_BOND_DEF_STEREO_COUNT>  (1) 
0

>  <PUBCHEM_BOND_UDEF_STEREO_COUNT>  (1) 
0

>  <PUBCHEM_ISOTOPIC_ATOM_COUNT>  (1) 
0

>  <PUBCHEM_COMPONENT_COUNT>  (1) 
1

>  <PUBCHEM_CACTVS_TAUTO_COUNT>  (1) 
1

>  <PUBCHEM_CONFORMER_ID>  (1) 
0000004000000002

>  <PUBCHEM_MMFF94_ENERGY>  (1) 
4.0415

>  <PUBCHEM_FEATURE_SELFOVERLAP>  (1) 
25.371

>  <PUBCHEM_SHAPE_FINGERPRINT>  (1) 
12423570 1 14598270973801771177
161256 15 18339654368584661111
16945 1 18338516464127967346
18185500 45 15386971292996411290
20201158 50 18410572924553212827
20588541 1 18339086015499110555
20711978 78 17704077256816726295
21040471 1 17685772428466178593
23235685 24 18341609386131728264
23402655 69 18340469103360665013
23552423 10 18261681354755253058
241688 4 18265625277093860416
2748010 2 18338517426200641607
29004967 10 18338241564978406115
5084963 1 18410011074095530272

>  <PUBCHEM_SHAPE_MULTIPOLES>  (1) 
197.8
3.76
1.81
0.79
0.01
0.01
0.09
-0.01
-0.3
0
0.35
0
0
0.49

>  <PUBCHEM_SHAPE_SELFOVERLAP>  (1) 
384.457

>  <PUBCHEM_SHAPE_VOLUME>  (1) 
121.1

>  <PUBCHEM_COORDINATE_TYPE>  (1) 
2
5
10

$$$$
