6401
     RDKit          3D

  6  5  0  0  0  0  0  0  0  0999 V2000
    2.0935   -0.1980   -0.9402 Br  0  0  0  0  0  0  0  0  0  0  0  0
   -2.5110   -0.0259   -0.1848 Br  0  0  0  0  0  0  0  0  0  0  0  0
    0.3288   -1.2846    1.2581 Cl  0  0  0  0  0  0  0  0  0  0  0  0
    0.4299    1.6063    0.8217 Cl  0  0  0  0  0  0  0  0  0  0  0  0
    0.3926    0.0084    0.0327 C   0  0  0  0  0  0  0  0  0  0  0  0
   -0.7338   -0.1063   -0.9875 C   0  0  0  0  0  0  0  0  0  0  0  0
  1  5  1  0
  2  6  1  0
  3  5  1  0
  4  5  1  0
  5  6  1  0
M  END
>  <PUBCHEM_COMPOUND_CID>  (1) 
6401

>  <PUBCHEM_CONFORMER_RMSD>  (1) 
0.4

>  <PUBCHEM_CONFORMER_DIVERSEORDER>  (1) 
1
2
3

>  <PUBCHEM_MMFF94_PARTIAL_CHARGES>  (1) 
6
1 -0.23
2 -0.23
3 -0.29
4 -0.29
5 0.81
6 0.23

>  <PUBCHEM_EFFECTIVE_ROTOR_COUNT>  (1) 
1

>  <PUBCHEM_PHARMACOPHORE_FEATURES>  (1) 
2
1 1 hydrophobe
1 2 hydrophobe

>  <PUBCHEM_HEAVY_ATOM_COUNT>  (1) 
6

>  <PUBCHEM_ATOM_DEF_STEREO_COUNT>  (1) 
0

>  <PUBCHEM_ATOM_UDEF_STEREO_COUNT>  (1) 
0

>  <PUBCHEM_BOND_DEF_STEREO_COUNT>  (1) 
0

>  <PUBCHEM_BOND_UDEF_STEREO_COUNT>  (1) 
0

>  <PUBCHEM_ISOTOPIC_ATOM_COUNT>  (1) 
0

>  <PUBCHEM_COMPONENT_COUNT>  (1) 
1

>  <PUBCHEM_CACTVS_TAUTO_COUNT>  (1) 
1

>  <PUBCHEM_CONFORMER_ID>  (1) 
0000190100000001

>  <PUBCHEM_MMFF94_ENERGY>  (1) 
6.0629

>  <PUBCHEM_FEATURE_SELFOVERLAP>  (1) 
10.149

>  <PUBCHEM_SHAPE_FINGERPRINT>  (1) 
137420 1 11551005240596297932
16714656 1 17560528282874782925
20096714 4 17843950675378196717
21040471 1 17603863467851790099
23552333 60 17824541859743010713
24536 1 17272822515851464399
29004967 10 17917719010539963214
5943 1 13512914274001222728

>  <PUBCHEM_SHAPE_MULTIPOLES>  (1) 
139.1
2.86
1.36
1.35
1.15
0.8
-0.46
-0.5
0.97
-0.29
-0.29
-0.25
-0.42
0.05

>  <PUBCHEM_SHAPE_SELFOVERLAP>  (1) 
207.441

>  <PUBCHEM_SHAPE_VOLUME>  (1) 
104.5

>  <PUBCHEM_COORDINATE_TYPE>  (1) 
2
5
10

$$$$
