641
     RDKit          2D

 13 12  0  0  1  0  0  0  0  0999 V2000
    0.0000    0.0000    0.0000 P   0  0  0  0  0  0  0  0  0  0  0  0
    0.0000    0.0000    0.0000 O   0  0  0  0  0  0  0  0  0  0  0  0
    0.0000    0.0000    0.0000 O   0  0  0  0  0  0  0  0  0  0  0  0
    0.0000    0.0000    0.0000 O   0  0  0  0  0  0  0  0  0  0  0  0
    0.0000    0.0000    0.0000 O   0  0  0  0  0  0  0  0  0  0  0  0
    0.0000    0.0000    0.0000 O   0  0  0  0  0  0  0  0  0  0  0  0
    0.0000    0.0000    0.0000 O   0  0  0  0  0  0  0  0  0  0  0  0
    0.0000    0.0000    0.0000 O   0  0  0  0  0  0  0  0  0  0  0  0
    0.0000    0.0000    0.0000 C   0  0  0  0  0  0  0  0  0  0  0  0
    0.0000    0.0000    0.0000 C   0  0  0  0  0  0  0  0  0  0  0  0
    0.0000    0.0000    0.0000 C   0  0  0  0  0  0  0  0  0  0  0  0
    0.0000    0.0000    0.0000 C   0  0  0  0  0  0  0  0  0  0  0  0
    0.0000    0.0000    0.0000 C   0  0  0  0  0  0  0  0  0  0  0  0
  1  2  1  0
  1  6  1  0
  1  7  1  0
  1  8  2  0
  2 11  1  0
  3  9  1  0
  4 10  1  0
  5 12  2  0
  9 10  1  0
  9 11  1  0
 10 12  1  0
 12 13  1  0
M  END
>  <PUBCHEM_COMPOUND_CID>  (1) 
641

>  <PUBCHEM_CONFORMER_RMSD>  (1) 
0.6

>  <PUBCHEM_CONFORMER_DIVERSEORDER>  (1) 
30
231
96
190
218
117
206
34
228
221
122
32
211
184
26
65
201
27
153
105
40
233
49
222
235
207
178
41
176
48
148
98
189
89
200
94
198
213
234
120
2
217
13
37
45
203
191
220
145
12
196
51
229
78
226
166
209
127
197
128
158
174
212
133
66
163
181
185
194
84
225
138
167
82
186
111
59
109
22
88
149
156
188
135
21
6
165
75
36
31
9
100
236
33
219
61
210
29
216
227
172
157
81
115
131
179
4
161
86
95
154
230
180
24
125
38
182
164
44
107
143
17
159
237
39
205
99
223
76
116
193
42
64
104
151
170
175
136
20
169
123
18
134
192
147
171
140
130
14
137
214
62
68
58
199
183
87
162
224
150
19
57
60
90
141
72
195
215
187
121
177
71
28
112
110
132
118
108
119
173
102
155
35
43
124
80
52
69
126
47
10
16
208
142
56
85
11
92
1
7
8
54
77
74
168
53
113
204
83
3
67
97
103
232
202
93
91
152
25
146
55
129
79
114
5
50
160
23
70
73
63
46
101
144
15
106
139

>  <PUBCHEM_MMFF94_PARTIAL_CHARGES>  (1) 
17
1 1.51
10 0.34
11 0.28
12 0.45
13 0.06
18 0.4
2 -0.55
22 0.4
23 0.5
24 0.5
3 -0.68
4 -0.68
5 -0.57
6 -0.77
7 -0.77
8 -0.7
9 0.28

>  <PUBCHEM_EFFECTIVE_ROTOR_COUNT>  (1) 
5

>  <PUBCHEM_PHARMACOPHORE_FEATURES>  (1) 
9
1 3 acceptor
1 3 donor
1 4 acceptor
1 4 donor
1 5 acceptor
1 6 acceptor
1 7 acceptor
1 8 acceptor
4 1 6 7 8 anion

>  <PUBCHEM_HEAVY_ATOM_COUNT>  (1) 
13

>  <PUBCHEM_ATOM_DEF_STEREO_COUNT>  (1) 
0

>  <PUBCHEM_ATOM_UDEF_STEREO_COUNT>  (1) 
2

>  <PUBCHEM_BOND_DEF_STEREO_COUNT>  (1) 
0

>  <PUBCHEM_BOND_UDEF_STEREO_COUNT>  (1) 
0

>  <PUBCHEM_ISOTOPIC_ATOM_COUNT>  (1) 
0

>  <PUBCHEM_COMPONENT_COUNT>  (1) 
1

>  <PUBCHEM_CACTVS_TAUTO_COUNT>  (1) 
7

$$$$
