6410
     RDKit          3D

  6  5  0  0  0  0  0  0  0  0999 V2000
    0.7057   -0.0003    0.9104 O   0  0  0  0  0  0  0  0  0  0  0  0
    1.9032    0.0003    0.0902 O   0  0  0  0  0  0  0  0  0  0  0  0
   -0.3771    0.0000   -0.0207 C   0  0  0  0  0  0  0  0  0  0  0  0
   -0.2733   -1.2542   -0.8874 C   0  0  0  0  0  0  0  0  0  0  0  0
   -1.6753   -0.0085    0.7835 C   0  0  0  0  0  0  0  0  0  0  0  0
   -0.2831    1.2627   -0.8760 C   0  0  0  0  0  0  0  0  0  0  0  0
  1  2  1  0
  1  3  1  0
  3  4  1  0
  3  5  1  0
  3  6  1  0
M  END
>  <PUBCHEM_COMPOUND_CID>  (1) 
6410

>  <PUBCHEM_CONFORMER_RMSD>  (1) 
0.4

>  <PUBCHEM_CONFORMER_DIVERSEORDER>  (1) 
1

>  <PUBCHEM_MMFF94_PARTIAL_CHARGES>  (1) 
4
1 -0.28
16 0.4
2 -0.4
3 0.28

>  <PUBCHEM_EFFECTIVE_ROTOR_COUNT>  (1) 
1

>  <PUBCHEM_PHARMACOPHORE_FEATURES>  (1) 
1
4 3 4 5 6 hydrophobe

>  <PUBCHEM_HEAVY_ATOM_COUNT>  (1) 
6

>  <PUBCHEM_ATOM_DEF_STEREO_COUNT>  (1) 
0

>  <PUBCHEM_ATOM_UDEF_STEREO_COUNT>  (1) 
0

>  <PUBCHEM_BOND_DEF_STEREO_COUNT>  (1) 
0

>  <PUBCHEM_BOND_UDEF_STEREO_COUNT>  (1) 
0

>  <PUBCHEM_ISOTOPIC_ATOM_COUNT>  (1) 
0

>  <PUBCHEM_COMPONENT_COUNT>  (1) 
1

>  <PUBCHEM_CACTVS_TAUTO_COUNT>  (1) 
1

>  <PUBCHEM_CONFORMER_ID>  (1) 
0000190A00000001

>  <PUBCHEM_MMFF94_ENERGY>  (1) 
10.8599

>  <PUBCHEM_FEATURE_SELFOVERLAP>  (1) 
5.074

>  <PUBCHEM_SHAPE_FINGERPRINT>  (1) 
139733 1 15123515782861778601
16714656 1 18410862061719710268
20096714 4 15769776827451955675
21015797 1 13613656610136768881
24536 1 16879601844506004024
29004967 10 17603871147216307921
5943 1 12136781016871305885

>  <PUBCHEM_SHAPE_MULTIPOLES>  (1) 
111.74
1.68
1.17
1.09
0.25
0.01
-0.07
0
0.56
-0.09
-0.51
-0.08
0
0

>  <PUBCHEM_SHAPE_SELFOVERLAP>  (1) 
197.386

>  <PUBCHEM_SHAPE_VOLUME>  (1) 
75.7

>  <PUBCHEM_COORDINATE_TYPE>  (1) 
2
5
10

$$$$
