6412
     RDKit          3D

  6  5  0  0  0  0  0  0  0  0999 V2000
    0.4518    0.0210   -0.1134 S   0  0  0  0  0  0  0  0  0  0  0  0
   -0.9594   -0.0417    0.7111 O   0  0  0  0  0  0  0  0  0  0  0  0
    1.5789   -0.2322    1.0385 O   0  0  0  0  0  0  0  0  0  0  0  0
    0.4844   -1.1162   -1.0142 O   0  0  0  0  0  0  0  0  0  0  0  0
    0.6351    1.3649   -0.6292 O   0  0  0  0  0  0  0  0  0  0  0  0
   -2.1910    0.0042    0.0070 C   0  0  0  0  0  0  0  0  0  0  0  0
  1  2  1  0
  1  3  1  0
  1  4  2  0
  1  5  2  0
  2  6  1  0
M  END
>  <PUBCHEM_COMPOUND_CID>  (1) 
6412

>  <PUBCHEM_CONFORMER_RMSD>  (1) 
0.4

>  <PUBCHEM_CONFORMER_DIVERSEORDER>  (1) 
1

>  <PUBCHEM_MMFF94_PARTIAL_CHARGES>  (1) 
7
1 1.67
10 0.5
2 -0.46
3 -0.68
4 -0.65
5 -0.65
6 0.28

>  <PUBCHEM_EFFECTIVE_ROTOR_COUNT>  (1) 
1

>  <PUBCHEM_PHARMACOPHORE_FEATURES>  (1) 
4
1 3 acceptor
1 4 acceptor
1 5 acceptor
4 1 3 4 5 anion

>  <PUBCHEM_HEAVY_ATOM_COUNT>  (1) 
6

>  <PUBCHEM_ATOM_DEF_STEREO_COUNT>  (1) 
0

>  <PUBCHEM_ATOM_UDEF_STEREO_COUNT>  (1) 
0

>  <PUBCHEM_BOND_DEF_STEREO_COUNT>  (1) 
0

>  <PUBCHEM_BOND_UDEF_STEREO_COUNT>  (1) 
0

>  <PUBCHEM_ISOTOPIC_ATOM_COUNT>  (1) 
0

>  <PUBCHEM_COMPONENT_COUNT>  (1) 
1

>  <PUBCHEM_CACTVS_TAUTO_COUNT>  (1) 
1

>  <PUBCHEM_CONFORMER_ID>  (1) 
0000190C00000001

>  <PUBCHEM_MMFF94_ENERGY>  (1) 
1.9643

>  <PUBCHEM_FEATURE_SELFOVERLAP>  (1) 
20.356

>  <PUBCHEM_SHAPE_FINGERPRINT>  (1) 
139733 1 14836110096181097178
20096714 4 18045796833655997101
24536 1 18269294437953967955
29004967 10 17749658628132577512
5943 1 11443735511937813972

>  <PUBCHEM_SHAPE_MULTIPOLES>  (1) 
103.85
2.13
1.01
0.99
1.28
0.17
-0.03
-0.05
-0.39
-0.28
0.33
-0.29
-0.13
-0.05

>  <PUBCHEM_SHAPE_SELFOVERLAP>  (1) 
175.098

>  <PUBCHEM_SHAPE_VOLUME>  (1) 
71.1

>  <PUBCHEM_COORDINATE_TYPE>  (1) 
2
5
10

$$$$
