6414
     RDKit          3D

  7  6  0  0  0  0  0  0  0  0999 V2000
   -1.0685    0.0144    1.8976 Br  0  0  0  0  0  0  0  0  0  0  0  0
   -1.0374    1.7119   -0.8626 Br  0  0  0  0  0  0  0  0  0  0  0  0
   -1.3886   -1.4791   -0.9293 Br  0  0  0  0  0  0  0  0  0  0  0  0
    1.5939    1.0339   -0.0130 O   0  0  0  0  0  0  0  0  0  0  0  0
    1.4818   -1.2314   -0.0698 O   0  0  0  0  0  0  0  0  0  0  0  0
   -0.5576    0.0243    0.0074 C   0  0  0  0  0  0  0  0  0  0  0  0
    0.9765   -0.0739   -0.0302 C   0  0  0  0  0  0  0  0  0  0  0  0
  1  6  1  0
  2  6  1  0
  3  6  1  0
  4  7  1  0
  5  7  2  0
  6  7  1  0
M  CHG  1   4  -1
M  END
>  <PUBCHEM_COMPOUND_CID>  (1) 
6414

>  <PUBCHEM_CONFORMER_RMSD>  (1) 
0.4

>  <PUBCHEM_CONFORMER_DIVERSEORDER>  (1) 
1

>  <PUBCHEM_MMFF94_PARTIAL_CHARGES>  (1) 
7
1 -0.23
2 -0.23
3 -0.23
4 -0.9
5 -0.9
6 0.58
7 0.91

>  <PUBCHEM_EFFECTIVE_ROTOR_COUNT>  (1) 
1

>  <PUBCHEM_PHARMACOPHORE_FEATURES>  (1) 
7
1 1 hydrophobe
1 2 hydrophobe
1 3 hydrophobe
1 4 acceptor
1 5 acceptor
3 4 5 7 anion
4 1 2 3 6 hydrophobe

>  <PUBCHEM_HEAVY_ATOM_COUNT>  (1) 
7

>  <PUBCHEM_ATOM_DEF_STEREO_COUNT>  (1) 
0

>  <PUBCHEM_ATOM_UDEF_STEREO_COUNT>  (1) 
0

>  <PUBCHEM_BOND_DEF_STEREO_COUNT>  (1) 
0

>  <PUBCHEM_BOND_UDEF_STEREO_COUNT>  (1) 
0

>  <PUBCHEM_ISOTOPIC_ATOM_COUNT>  (1) 
0

>  <PUBCHEM_COMPONENT_COUNT>  (1) 
1

>  <PUBCHEM_CACTVS_TAUTO_COUNT>  (1) 
1

>  <PUBCHEM_CONFORMER_ID>  (1) 
0000190E00000001

>  <PUBCHEM_MMFF94_ENERGY>  (1) 
12.6651

>  <PUBCHEM_FEATURE_SELFOVERLAP>  (1) 
36.515

>  <PUBCHEM_SHAPE_FINGERPRINT>  (1) 
137420 1 10342792955519367073
18185500 45 17983577691201542455
21040471 1 17978771442287229860
23552333 60 18271518818454193083
24536 1 17603308158703139660
29004967 10 18044931526726708195
5084963 1 15766994960091623929
5943 1 16235833302481480961

>  <PUBCHEM_SHAPE_MULTIPOLES>  (1) 
150.15
1.96
1.81
1.57
0.52
0.46
1.03
-0.41
-0.24
-0.37
-0.77
-0.84
0.05
-0.13

>  <PUBCHEM_SHAPE_SELFOVERLAP>  (1) 
243.46

>  <PUBCHEM_SHAPE_VOLUME>  (1) 
107.2

>  <PUBCHEM_COORDINATE_TYPE>  (1) 
2
5
10

$$$$
