6415
     RDKit          3D

  7  6  0  0  0  0  0  0  0  0999 V2000
    1.2614    1.8308   -0.0660 Br  0  0  0  0  0  0  0  0  0  0  0  0
    1.1655   -0.9072    1.6114 Br  0  0  0  0  0  0  0  0  0  0  0  0
    1.0598   -1.0245   -1.5977 Br  0  0  0  0  0  0  0  0  0  0  0  0
   -1.5250   -1.1300    0.0514 O   0  0  0  0  0  0  0  0  0  0  0  0
   -1.5978    1.1277    0.0025 O   0  0  0  0  0  0  0  0  0  0  0  0
    0.5728    0.0059   -0.0139 C   0  0  0  0  0  0  0  0  0  0  0  0
   -0.9367    0.0973    0.0123 C   0  0  0  0  0  0  0  0  0  0  0  0
  1  6  1  0
  2  6  1  0
  3  6  1  0
  4  7  1  0
  5  7  2  0
  6  7  1  0
M  END
>  <PUBCHEM_COMPOUND_CID>  (1) 
6415

>  <PUBCHEM_CONFORMER_RMSD>  (1) 
0.4

>  <PUBCHEM_CONFORMER_DIVERSEORDER>  (1) 
1

>  <PUBCHEM_MMFF94_PARTIAL_CHARGES>  (1) 
8
1 -0.23
2 -0.23
3 -0.23
4 -0.65
5 -0.57
6 0.75
7 0.66
8 0.5

>  <PUBCHEM_EFFECTIVE_ROTOR_COUNT>  (1) 
1

>  <PUBCHEM_PHARMACOPHORE_FEATURES>  (1) 
7
1 1 hydrophobe
1 2 hydrophobe
1 3 hydrophobe
1 4 acceptor
1 5 acceptor
3 4 5 7 anion
4 1 2 3 6 hydrophobe

>  <PUBCHEM_HEAVY_ATOM_COUNT>  (1) 
7

>  <PUBCHEM_ATOM_DEF_STEREO_COUNT>  (1) 
0

>  <PUBCHEM_ATOM_UDEF_STEREO_COUNT>  (1) 
0

>  <PUBCHEM_BOND_DEF_STEREO_COUNT>  (1) 
0

>  <PUBCHEM_BOND_UDEF_STEREO_COUNT>  (1) 
0

>  <PUBCHEM_ISOTOPIC_ATOM_COUNT>  (1) 
0

>  <PUBCHEM_COMPONENT_COUNT>  (1) 
1

>  <PUBCHEM_CACTVS_TAUTO_COUNT>  (1) 
1

>  <PUBCHEM_CONFORMER_ID>  (1) 
0000190F00000001

>  <PUBCHEM_MMFF94_ENERGY>  (1) 
11.7555

>  <PUBCHEM_FEATURE_SELFOVERLAP>  (1) 
36.514

>  <PUBCHEM_SHAPE_FINGERPRINT>  (1) 
137420 1 13262672677197581290
23211744 25 17825704206726561414
24536 1 18131068212481319969
29004967 10 17843147851411558310
5084963 1 18046908452907525636
5943 1 14094762568935360374

>  <PUBCHEM_SHAPE_MULTIPOLES>  (1) 
150.15
1.95
1.83
1.56
0.66
0.63
-0.01
0.28
-0.11
-0.54
0.13
-0.79
-0.94
-0.05

>  <PUBCHEM_SHAPE_SELFOVERLAP>  (1) 
243.217

>  <PUBCHEM_SHAPE_VOLUME>  (1) 
107.5

>  <PUBCHEM_COORDINATE_TYPE>  (1) 
2
5
10

$$$$
