6424
     RDKit          3D

  8  7  0  0  0  0  0  0  0  0999 V2000
    1.4624    1.7019    0.6676 Br  0  0  0  0  0  0  0  0  0  0  0  0
    1.3791   -0.2453   -1.8936 Br  0  0  0  0  0  0  0  0  0  0  0  0
    1.4693   -1.4672    1.0824 Br  0  0  0  0  0  0  0  0  0  0  0  0
   -1.2405    0.1218    1.3928 O   0  0  0  0  0  0  0  0  0  0  0  0
   -0.8294   -0.0013    0.0201 C   0  0  0  0  0  0  0  0  0  0  0  0
    0.7286   -0.0041   -0.0431 C   0  0  0  0  0  0  0  0  0  0  0  0
   -1.4851   -1.2912   -0.5133 C   0  0  0  0  0  0  0  0  0  0  0  0
   -1.4843    1.1854   -0.7130 C   0  0  0  0  0  0  0  0  0  0  0  0
  1  6  1  0
  2  6  1  0
  3  6  1  0
  4  5  1  0
  5  6  1  0
  5  7  1  0
  5  8  1  0
M  END
>  <PUBCHEM_COMPOUND_CID>  (1) 
6424

>  <PUBCHEM_CONFORMER_RMSD>  (1) 
0.4

>  <PUBCHEM_CONFORMER_DIVERSEORDER>  (1) 
1

>  <PUBCHEM_MMFF94_PARTIAL_CHARGES>  (1) 
7
1 -0.23
15 0.4
2 -0.23
3 -0.23
4 -0.68
5 0.28
6 0.69

>  <PUBCHEM_EFFECTIVE_ROTOR_COUNT>  (1) 
1

>  <PUBCHEM_PHARMACOPHORE_FEATURES>  (1) 
7
1 1 hydrophobe
1 2 hydrophobe
1 3 hydrophobe
1 4 acceptor
1 4 donor
3 5 7 8 hydrophobe
4 1 2 3 6 hydrophobe

>  <PUBCHEM_HEAVY_ATOM_COUNT>  (1) 
8

>  <PUBCHEM_ATOM_DEF_STEREO_COUNT>  (1) 
0

>  <PUBCHEM_ATOM_UDEF_STEREO_COUNT>  (1) 
0

>  <PUBCHEM_BOND_DEF_STEREO_COUNT>  (1) 
0

>  <PUBCHEM_BOND_UDEF_STEREO_COUNT>  (1) 
0

>  <PUBCHEM_ISOTOPIC_ATOM_COUNT>  (1) 
0

>  <PUBCHEM_COMPONENT_COUNT>  (1) 
1

>  <PUBCHEM_CACTVS_TAUTO_COUNT>  (1) 
1

>  <PUBCHEM_CONFORMER_ID>  (1) 
0000191800000001

>  <PUBCHEM_MMFF94_ENERGY>  (1) 
19.5514

>  <PUBCHEM_FEATURE_SELFOVERLAP>  (1) 
36.486

>  <PUBCHEM_SHAPE_FINGERPRINT>  (1) 
12423570 1 12859371146398890335
137420 1 12407188657587609165
16945 1 17336737285345027004
23211744 25 18191893290303480702
23211744 41 17982161524509443080
24536 1 17489870427257876309
29004967 10 17826782930923712299
5084963 1 18054501684625174976
68250623 7 18051938606935009581

>  <PUBCHEM_SHAPE_MULTIPOLES>  (1) 
176.59
2.34
1.78
1.68
0.31
0.13
0.72
0
-0.09
-0.51
-0.43
-0.59
-0.14
-0.01

>  <PUBCHEM_SHAPE_SELFOVERLAP>  (1) 
286.575

>  <PUBCHEM_SHAPE_VOLUME>  (1) 
127.7

>  <PUBCHEM_COORDINATE_TYPE>  (1) 
2
5
10

$$$$
