6425
     RDKit          3D

  8  7  0  0  0  0  0  0  0  0999 V2000
    1.1992    0.6585    1.2039 O   0  0  0  0  0  0  0  0  0  0  0  0
   -1.1992   -0.6585    1.2040 O   0  0  0  0  0  0  0  0  0  0  0  0
    0.7814    0.0208   -0.0143 C   0  0  0  0  0  0  0  0  0  0  0  0
   -0.7813   -0.0207   -0.0143 C   0  0  0  0  0  0  0  0  0  0  0  0
    1.4102   -1.3821   -0.0143 C   0  0  0  0  0  0  0  0  0  0  0  0
    1.3676    0.8359   -1.1753 C   0  0  0  0  0  0  0  0  0  0  0  0
   -1.4103    1.3821   -0.0143 C   0  0  0  0  0  0  0  0  0  0  0  0
   -1.3675   -0.8359   -1.1754 C   0  0  0  0  0  0  0  0  0  0  0  0
  1  3  1  0
  2  4  1  0
  3  4  1  0
  3  5  1  0
  3  6  1  0
  4  7  1  0
  4  8  1  0
M  END
>  <PUBCHEM_COMPOUND_CID>  (1) 
6425

>  <PUBCHEM_CONFORMER_RMSD>  (1) 
0.4

>  <PUBCHEM_CONFORMER_DIVERSEORDER>  (1) 
1
2
3

>  <PUBCHEM_MMFF94_PARTIAL_CHARGES>  (1) 
6
1 -0.68
2 -0.68
21 0.4
22 0.4
3 0.28
4 0.28

>  <PUBCHEM_EFFECTIVE_ROTOR_COUNT>  (1) 
1

>  <PUBCHEM_PHARMACOPHORE_FEATURES>  (1) 
6
1 1 acceptor
1 1 donor
1 2 acceptor
1 2 donor
3 3 5 6 hydrophobe
3 4 7 8 hydrophobe

>  <PUBCHEM_HEAVY_ATOM_COUNT>  (1) 
8

>  <PUBCHEM_ATOM_DEF_STEREO_COUNT>  (1) 
0

>  <PUBCHEM_ATOM_UDEF_STEREO_COUNT>  (1) 
0

>  <PUBCHEM_BOND_DEF_STEREO_COUNT>  (1) 
0

>  <PUBCHEM_BOND_UDEF_STEREO_COUNT>  (1) 
0

>  <PUBCHEM_ISOTOPIC_ATOM_COUNT>  (1) 
0

>  <PUBCHEM_COMPONENT_COUNT>  (1) 
1

>  <PUBCHEM_CACTVS_TAUTO_COUNT>  (1) 
1

>  <PUBCHEM_CONFORMER_ID>  (1) 
0000191900000001

>  <PUBCHEM_MMFF94_ENERGY>  (1) 
24.1462

>  <PUBCHEM_FEATURE_SELFOVERLAP>  (1) 
30.489

>  <PUBCHEM_SHAPE_FINGERPRINT>  (1) 
137420 1 15593082891044526772
21040471 1 18057321695542414325
24536 1 18040995154592019180
29004967 10 18044957876234823443
5084963 1 18119249450504814013
5943 1 12084402357614813660

>  <PUBCHEM_SHAPE_MULTIPOLES>  (1) 
152.9
2.08
1.37
1.23
0
0
-0.01
0
-0.13
0
-0.12
0
0
-0.18

>  <PUBCHEM_SHAPE_SELFOVERLAP>  (1) 
282.598

>  <PUBCHEM_SHAPE_VOLUME>  (1) 
99.1

>  <PUBCHEM_COORDINATE_TYPE>  (1) 
2
5
10

$$$$
