6426
     RDKit          3D

  8  7  0  0  0  0  0  0  0  0999 V2000
   -1.2210   -1.0834    1.4119 Cl  0  0  0  0  0  0  0  0  0  0  0  0
   -1.2467   -0.9240   -1.5040 Cl  0  0  0  0  0  0  0  0  0  0  0  0
   -1.5977    1.4715    0.0927 Cl  0  0  0  0  0  0  0  0  0  0  0  0
    1.7679   -1.3248   -0.0061 Cl  0  0  0  0  0  0  0  0  0  0  0  0
    1.1224    0.9060   -1.0837 F   0  0  0  0  0  0  0  0  0  0  0  0
    1.1223    0.8965    1.0902 F   0  0  0  0  0  0  0  0  0  0  0  0
   -0.7289   -0.0992   -0.0010 C   0  0  0  0  0  0  0  0  0  0  0  0
    0.7816    0.1574    0.0000 C   0  0  0  0  0  0  0  0  0  0  0  0
  1  7  1  0
  2  7  1  0
  3  7  1  0
  4  8  1  0
  5  8  1  0
  6  8  1  0
  7  8  1  0
M  END
>  <PUBCHEM_COMPOUND_CID>  (1) 
6426

>  <PUBCHEM_CONFORMER_RMSD>  (1) 
0.4

>  <PUBCHEM_CONFORMER_DIVERSEORDER>  (1) 
1

>  <PUBCHEM_MMFF94_PARTIAL_CHARGES>  (1) 
8
1 -0.29
2 -0.29
3 -0.29
4 -0.29
5 -0.34
6 -0.34
7 0.87
8 0.97

>  <PUBCHEM_EFFECTIVE_ROTOR_COUNT>  (1) 
1

>  <PUBCHEM_PHARMACOPHORE_FEATURES>  (1) 
0

>  <PUBCHEM_HEAVY_ATOM_COUNT>  (1) 
8

>  <PUBCHEM_ATOM_DEF_STEREO_COUNT>  (1) 
0

>  <PUBCHEM_ATOM_UDEF_STEREO_COUNT>  (1) 
0

>  <PUBCHEM_BOND_DEF_STEREO_COUNT>  (1) 
0

>  <PUBCHEM_BOND_UDEF_STEREO_COUNT>  (1) 
0

>  <PUBCHEM_ISOTOPIC_ATOM_COUNT>  (1) 
0

>  <PUBCHEM_COMPONENT_COUNT>  (1) 
1

>  <PUBCHEM_CACTVS_TAUTO_COUNT>  (1) 
1

>  <PUBCHEM_CONFORMER_ID>  (1) 
0000191A00000001

>  <PUBCHEM_MMFF94_ENERGY>  (1) 
5.3321

>  <PUBCHEM_FEATURE_SELFOVERLAP>  (1) 
0

>  <PUBCHEM_SHAPE_FINGERPRINT>  (1) 
12423570 1 13000557450283716783
137420 1 13768500832724026903
21040471 1 18042129751950249489
23552333 60 17344615166089186759
24536 1 18113613529624870912
29004967 10 17828509168221015515
5084963 1 18191589649122205673

>  <PUBCHEM_SHAPE_MULTIPOLES>  (1) 
157.57
2.23
1.56
1.42
0.48
0.02
-0.08
0
0.01
-0.25
0.07
-0.38
-0.46
-0.03

>  <PUBCHEM_SHAPE_SELFOVERLAP>  (1) 
265.168

>  <PUBCHEM_SHAPE_VOLUME>  (1) 
109.3

>  <PUBCHEM_COORDINATE_TYPE>  (1) 
2
5
10

$$$$
