6427
     RDKit          3D

  8  7  0  0  0  0  0  0  0  0999 V2000
    1.6543    1.4304    0.1270 Cl  0  0  0  0  0  0  0  0  0  0  0  0
    1.3247   -1.0483   -1.3602 Cl  0  0  0  0  0  0  0  0  0  0  0  0
   -1.3241    1.0495   -1.3597 Cl  0  0  0  0  0  0  0  0  0  0  0  0
   -1.6545   -1.4305    0.1257 Cl  0  0  0  0  0  0  0  0  0  0  0  0
    1.0804   -0.8227    1.1778 F   0  0  0  0  0  0  0  0  0  0  0  0
   -1.0809    0.8218    1.1782 F   0  0  0  0  0  0  0  0  0  0  0  0
    0.7584   -0.1170    0.0557 C   0  0  0  0  0  0  0  0  0  0  0  0
   -0.7584    0.1168    0.0556 C   0  0  0  0  0  0  0  0  0  0  0  0
  1  7  1  0
  2  7  1  0
  3  8  1  0
  4  8  1  0
  5  7  1  0
  6  8  1  0
  7  8  1  0
M  END
>  <PUBCHEM_COMPOUND_CID>  (1) 
6427

>  <PUBCHEM_CONFORMER_RMSD>  (1) 
0.4

>  <PUBCHEM_CONFORMER_DIVERSEORDER>  (1) 
1
2
3

>  <PUBCHEM_MMFF94_PARTIAL_CHARGES>  (1) 
8
1 -0.29
2 -0.29
3 -0.29
4 -0.29
5 -0.34
6 -0.34
7 0.92
8 0.92

>  <PUBCHEM_EFFECTIVE_ROTOR_COUNT>  (1) 
1

>  <PUBCHEM_PHARMACOPHORE_FEATURES>  (1) 
0

>  <PUBCHEM_HEAVY_ATOM_COUNT>  (1) 
8

>  <PUBCHEM_ATOM_DEF_STEREO_COUNT>  (1) 
0

>  <PUBCHEM_ATOM_UDEF_STEREO_COUNT>  (1) 
0

>  <PUBCHEM_BOND_DEF_STEREO_COUNT>  (1) 
0

>  <PUBCHEM_BOND_UDEF_STEREO_COUNT>  (1) 
0

>  <PUBCHEM_ISOTOPIC_ATOM_COUNT>  (1) 
0

>  <PUBCHEM_COMPONENT_COUNT>  (1) 
1

>  <PUBCHEM_CACTVS_TAUTO_COUNT>  (1) 
1

>  <PUBCHEM_CONFORMER_ID>  (1) 
0000191B00000001

>  <PUBCHEM_MMFF94_ENERGY>  (1) 
4.9408

>  <PUBCHEM_FEATURE_SELFOVERLAP>  (1) 
0

>  <PUBCHEM_SHAPE_FINGERPRINT>  (1) 
137420 1 14321884223377319517
16714656 1 17554894651787629276
20711978 78 17632307786412505479
21040471 1 17532922810218903877
24536 1 18131346375848237408
29004967 10 17700429240518525099
5084963 1 18191022515865363332
5943 1 11809921859705071970

>  <PUBCHEM_SHAPE_MULTIPOLES>  (1) 
157.57
2.26
1.61
1.36
0
0
0.26
0
0.01
0
0.27
0
0
0.44

>  <PUBCHEM_SHAPE_SELFOVERLAP>  (1) 
264.854

>  <PUBCHEM_SHAPE_VOLUME>  (1) 
109.6

>  <PUBCHEM_COORDINATE_TYPE>  (1) 
2
5
10

$$$$
