643
     RDKit          3D

 15 15  0  0  1  0  0  0  0  0999 V2000
    3.9776   -2.4196   -0.2570 O   0  0  0  0  0  0  0  0  0  0  0  0
   -6.4070    0.0806   -0.6330 O   0  0  0  0  0  0  0  0  0  0  0  0
   -5.3228   -0.7501    1.1803 O   0  0  0  0  0  0  0  0  0  0  0  0
    2.5180   -0.8180    0.6453 N   0  0  0  0  0  0  0  0  0  0  0  0
    4.1644   -0.1282   -0.7303 N   0  0  0  0  0  0  0  0  0  0  0  0
    2.2767    0.5992    0.4646 C   0  0  0  0  0  0  0  0  0  0  0  0
    3.5431    1.0929   -0.2587 C   0  0  0  0  0  0  0  0  0  0  0  0
    1.0254    0.8169   -0.3721 C   0  0  0  0  0  0  0  0  0  0  0  0
   -0.2557    0.3254    0.3052 C   0  0  0  0  0  0  0  0  0  0  0  0
   -1.5089    0.5218   -0.5516 C   0  0  0  0  0  0  0  0  0  0  0  0
    4.4843    1.8322    0.6858 C   0  0  0  0  0  0  0  0  0  0  0  0
    3.5995   -1.2632   -0.1296 C   0  0  0  0  0  0  0  0  0  0  0  0
   -2.7643    0.0473    0.1889 C   0  0  0  0  0  0  0  0  0  0  0  0
   -4.0402    0.2657   -0.6249 C   0  0  0  0  0  0  0  0  0  0  0  0
   -5.2900   -0.2028    0.0870 C   0  0  0  0  0  0  0  0  0  0  0  0
  1 12  2  0
  2 15  1  0
  3 15  2  0
  4  6  1  0
  4 12  1  0
  5  7  1  0
  5 12  1  0
  6  7  1  0
  6  8  1  0
  7 11  1  0
  8  9  1  0
  9 10  1  0
 10 13  1  0
 13 14  1  0
 14 15  1  0
M  END
>  <PUBCHEM_COMPOUND_CID>  (1) 
643

>  <PUBCHEM_CONFORMER_RMSD>  (1) 
0.8

>  <PUBCHEM_CONFORMER_DIVERSEORDER>  (1) 
3
112
11
68
84
119
81
124
116
14
94
91
129
74
46
80
117
99
127
7
108
109
63
90
6
9
123
64
23
21
128
115
82
42
52
22
5
103
98
113
76
122
75
41
71
125
121
16
31
120
101
48
44
50
88
27
86
49
45
33
28
95
32
1
60
105
114
62
10
111
70
106
100
93
4
2
69
92
47
97
126
30
37
87
102
89
104
54
55
13
107
29
39
56
58
12
77
67
85
96
57
53
110
25
59
34
66
19
78
18
118
26
8
79
36
15
73
40
35
24
17
83
38
72
20
65
43
51
61

>  <PUBCHEM_MMFF94_PARTIAL_CHARGES>  (1) 
13
1 -0.57
12 0.69
14 0.06
15 0.66
2 -0.65
22 0.37
23 0.37
3 -0.57
33 0.5
4 -0.73
5 -0.73
6 0.3
7 0.3

>  <PUBCHEM_EFFECTIVE_ROTOR_COUNT>  (1) 
6.8

>  <PUBCHEM_PHARMACOPHORE_FEATURES>  (1) 
8
1 1 acceptor
1 2 acceptor
1 3 acceptor
1 4 donor
1 5 donor
3 2 3 15 anion
5 4 5 6 7 12 rings
5 8 9 10 13 14 hydrophobe

>  <PUBCHEM_HEAVY_ATOM_COUNT>  (1) 
15

>  <PUBCHEM_ATOM_DEF_STEREO_COUNT>  (1) 
0

>  <PUBCHEM_ATOM_UDEF_STEREO_COUNT>  (1) 
2

>  <PUBCHEM_BOND_DEF_STEREO_COUNT>  (1) 
0

>  <PUBCHEM_BOND_UDEF_STEREO_COUNT>  (1) 
0

>  <PUBCHEM_ISOTOPIC_ATOM_COUNT>  (1) 
0

>  <PUBCHEM_COMPONENT_COUNT>  (1) 
1

>  <PUBCHEM_CACTVS_TAUTO_COUNT>  (1) 
3

>  <PUBCHEM_CONFORMER_ID>  (1) 
0000028300000003

>  <PUBCHEM_MMFF94_ENERGY>  (1) 
19.1544

>  <PUBCHEM_FEATURE_SELFOVERLAP>  (1) 
40.716

>  <PUBCHEM_SHAPE_FINGERPRINT>  (1) 
10912923 1 17418093239335299881
11287383 113 17749108932622590497
11858739 19 18411134697991420471
12730499 353 18337679710684639872
13167823 11 18343017787881827791
13533116 47 18273215278985813187
13955234 65 18343015606333691522
14123238 8 18113335332204241741
14251718 22 17095248046507464141
14252887 29 18333732424890865216
14455015 7 18335145271810627979
14573314 32 18041276587167819933
15242433 33 18343300396492365407
15477762 27 18339081489410565582
17834072 33 18343863333571453693
17834076 25 15554451816306582309
17844677 252 18341336621681509757
20279233 1 17312824883268481744
20645477 70 18410855421848333942
212847 35 12247680478663765474
220451 1 18130793390931119063
2215653 11 18259980462487108399
22224240 67 18267855246491191496
22485316 2 18341610451499791453
23402539 116 13912592884438605079
23532345 1 18340205305963195488
23557571 272 17530962453980067628
239999 70 18113620088557072130
2871803 45 17968376758116102986
300161 21 18059848506512492357
33824 294 18407757037004881802
42630746 31 18412541025018893922
42788 4 18412262848545684381
465052 167 18201725045748440799
4990 188 17821729420541689307
5104073 3 18337951190792918633
522135 26 18342737412321604396
5374978 207 16415474948074753968
542803 24 16917072178710476625
57483677 66 18341893013472694631
6025842 7 18341895199700589254
90127 26 18114466673782206257

>  <PUBCHEM_SHAPE_MULTIPOLES>  (1) 
281.12
14.13
1.51
0.86
18.5
0.59
0.07
1.28
0.17
-3.04
0.06
0.3
-0.02
0.77

>  <PUBCHEM_SHAPE_SELFOVERLAP>  (1) 
549.373

>  <PUBCHEM_SHAPE_VOLUME>  (1) 
169.8

>  <PUBCHEM_COORDINATE_TYPE>  (1) 
2
5
10

$$$$
