6438
     RDKit          3D

 12 13  0  0  1  0  0  0  0  0999 V2000
   -3.0624   -0.8474    0.1610 Br  0  0  0  0  0  0  0  0  0  0  0  0
   -1.4734    1.9489    0.1927 O   0  0  0  0  0  0  0  0  0  0  0  0
    1.1062   -0.4214    0.4903 C   0  0  0  0  0  0  0  0  0  0  0  0
    0.5477    0.7001   -0.4341 C   0  0  0  0  0  0  0  0  0  0  0  0
   -0.1567   -1.3171    0.2699 C   0  0  0  0  0  0  0  0  0  0  0  0
    0.2381   -0.0332   -1.7580 C   0  0  0  0  0  0  0  0  0  0  0  0
   -0.1878   -1.4376   -1.2796 C   0  0  0  0  0  0  0  0  0  0  0  0
   -1.3011   -0.4111    0.7809 C   0  0  0  0  0  0  0  0  0  0  0  0
   -0.8423    0.9030    0.1899 C   0  0  0  0  0  0  0  0  0  0  0  0
    2.4256   -1.0622    0.0131 C   0  0  0  0  0  0  0  0  0  0  0  0
    1.3445    0.0143    1.9521 C   0  0  0  0  0  0  0  0  0  0  0  0
    1.3616    1.9635   -0.5782 C   0  0  0  0  0  0  0  0  0  0  0  0
  1  8  1  0
  2  9  2  0
  3  4  1  0
  3  5  1  0
  3 10  1  0
  3 11  1  0
  4  6  1  0
  4  9  1  0
  4 12  1  0
  5  7  1  0
  5  8  1  0
  6  7  1  0
  8  9  1  0
M  END
>  <PUBCHEM_COMPOUND_CID>  (1) 
6438

>  <PUBCHEM_CONFORMER_RMSD>  (1) 
0.4

>  <PUBCHEM_CONFORMER_DIVERSEORDER>  (1) 
4
1
2
3

>  <PUBCHEM_MMFF94_PARTIAL_CHARGES>  (1) 
5
1 -0.23
2 -0.57
4 0.06
8 0.29
9 0.45

>  <PUBCHEM_EFFECTIVE_ROTOR_COUNT>  (1) 
0.8

>  <PUBCHEM_PHARMACOPHORE_FEATURES>  (1) 
4
1 1 hydrophobe
1 2 acceptor
3 3 10 11 hydrophobe
7 3 4 5 6 7 8 9 rings

>  <PUBCHEM_HEAVY_ATOM_COUNT>  (1) 
12

>  <PUBCHEM_ATOM_DEF_STEREO_COUNT>  (1) 
0

>  <PUBCHEM_ATOM_UDEF_STEREO_COUNT>  (1) 
3

>  <PUBCHEM_BOND_DEF_STEREO_COUNT>  (1) 
0

>  <PUBCHEM_BOND_UDEF_STEREO_COUNT>  (1) 
0

>  <PUBCHEM_ISOTOPIC_ATOM_COUNT>  (1) 
0

>  <PUBCHEM_COMPONENT_COUNT>  (1) 
1

>  <PUBCHEM_CACTVS_TAUTO_COUNT>  (1) 
2

>  <PUBCHEM_CONFORMER_ID>  (1) 
0000192600000004

>  <PUBCHEM_MMFF94_ENERGY>  (1) 
53.5306

>  <PUBCHEM_FEATURE_SELFOVERLAP>  (1) 
20.297

>  <PUBCHEM_SHAPE_FINGERPRINT>  (1) 
10702982 57 17691412227273886910
12423570 1 13534304460733500026
13024252 1 15799836238716052290
137420 1 9971197028060962638
14817 1 11541747438800584620
15557651 10 17417539140792699480
16945 1 18189635971404078810
2748010 2 17183356019172244429
5084963 1 18202567267391790235
528886 8 17771089346908940429
68250623 7 18261976066979224220

>  <PUBCHEM_SHAPE_MULTIPOLES>  (1) 
247.03
2.9
1.78
1.46
1.81
0.68
-0.01
-0.5
-0.47
-0.28
0.21
-0.42
-0.21
-0.25

>  <PUBCHEM_SHAPE_SELFOVERLAP>  (1) 
511.55

>  <PUBCHEM_SHAPE_VOLUME>  (1) 
149.4

>  <PUBCHEM_COORDINATE_TYPE>  (1) 
2
5
10

$$$$
