6441
     RDKit          3D

  8  7  0  0  0  0  0  0  0  0999 V2000
    0.4747   -1.4509    0.4925 F   0  0  0  0  0  0  0  0  0  0  0  0
    0.2214   -0.2970   -1.3413 F   0  0  0  0  0  0  0  0  0  0  0  0
   -2.0794   -0.6916    0.0133 F   0  0  0  0  0  0  0  0  0  0  0  0
   -1.4974    1.4043   -0.0761 F   0  0  0  0  0  0  0  0  0  0  0  0
    2.5456    0.2891   -0.0321 O   0  0  0  0  0  0  0  0  0  0  0  0
    0.2097   -0.2095    0.0130 C   0  0  0  0  0  0  0  0  0  0  0  0
    1.2943    0.7487    0.4644 C   0  0  0  0  0  0  0  0  0  0  0  0
   -1.1691    0.2070    0.4663 C   0  0  0  0  0  0  0  0  0  0  0  0
  1  6  1  0
  2  6  1  0
  3  8  1  0
  4  8  1  0
  5  7  1  0
  6  7  1  0
  6  8  1  0
M  END
>  <PUBCHEM_COMPOUND_CID>  (1) 
6441

>  <PUBCHEM_CONFORMER_RMSD>  (1) 
0.4

>  <PUBCHEM_CONFORMER_DIVERSEORDER>  (1) 
1
3
4
6
8
9
2
7
5

>  <PUBCHEM_MMFF94_PARTIAL_CHARGES>  (1) 
9
1 -0.34
12 0.4
2 -0.34
3 -0.34
4 -0.34
5 -0.68
6 0.68
7 0.28
8 0.68

>  <PUBCHEM_EFFECTIVE_ROTOR_COUNT>  (1) 
2

>  <PUBCHEM_PHARMACOPHORE_FEATURES>  (1) 
2
1 5 acceptor
1 5 donor

>  <PUBCHEM_HEAVY_ATOM_COUNT>  (1) 
8

>  <PUBCHEM_ATOM_DEF_STEREO_COUNT>  (1) 
0

>  <PUBCHEM_ATOM_UDEF_STEREO_COUNT>  (1) 
0

>  <PUBCHEM_BOND_DEF_STEREO_COUNT>  (1) 
0

>  <PUBCHEM_BOND_UDEF_STEREO_COUNT>  (1) 
0

>  <PUBCHEM_ISOTOPIC_ATOM_COUNT>  (1) 
0

>  <PUBCHEM_COMPONENT_COUNT>  (1) 
1

>  <PUBCHEM_CACTVS_TAUTO_COUNT>  (1) 
1

>  <PUBCHEM_CONFORMER_ID>  (1) 
0000192900000001

>  <PUBCHEM_MMFF94_ENERGY>  (1) 
2.511

>  <PUBCHEM_FEATURE_SELFOVERLAP>  (1) 
10.148

>  <PUBCHEM_SHAPE_FINGERPRINT>  (1) 
16714656 1 17916866949031293836
20096714 4 18343579633743771968
21040471 1 18409446947168062944
29004967 10 16343436067161894098
5084963 1 18272936063182960336
5943 1 14113347055460024790

>  <PUBCHEM_SHAPE_MULTIPOLES>  (1) 
129.67
2.46
1.13
0.81
0.52
0.01
-0.17
0.34
0.09
-0.2
0.1
0.05
-0.09
0.06

>  <PUBCHEM_SHAPE_SELFOVERLAP>  (1) 
248.216

>  <PUBCHEM_SHAPE_VOLUME>  (1) 
79.6

>  <PUBCHEM_COORDINATE_TYPE>  (1) 
2
5
10

$$$$
