6443
     RDKit          3D

  9  8  0  0  1  0  0  0  0  0999 V2000
    0.4720   -1.6569   -1.1497 Cl  0  0  0  0  0  0  0  0  0  0  0  0
   -0.1919   -1.1940    1.6402 Cl  0  0  0  0  0  0  0  0  0  0  0  0
   -1.7239    1.6859    0.6867 Cl  0  0  0  0  0  0  0  0  0  0  0  0
    2.4194   -0.0634    0.6350 O   0  0  0  0  0  0  0  0  0  0  0  0
    1.4967    1.2398   -1.0749 O   0  0  0  0  0  0  0  0  0  0  0  0
    0.0422   -0.3665    0.0509 C   0  0  0  0  0  0  0  0  0  0  0  0
   -1.2690    0.3327   -0.4119 C   0  0  0  0  0  0  0  0  0  0  0  0
    1.2455    0.6022    0.1743 C   0  0  0  0  0  0  0  0  0  0  0  0
   -2.4910   -0.5799   -0.5507 C   0  0  0  0  0  0  0  0  0  0  0  0
  1  6  1  0
  2  6  1  0
  3  7  1  0
  4  8  1  0
  5  8  1  0
  6  7  1  0
  6  8  1  0
  7  9  1  0
M  END
>  <PUBCHEM_COMPOUND_CID>  (1) 
6443

>  <PUBCHEM_CONFORMER_RMSD>  (1) 
0.4

>  <PUBCHEM_CONFORMER_DIVERSEORDER>  (1) 
1
12
4
13
15
7
5
2
14
8
3
11
9
16
10
6

>  <PUBCHEM_MMFF94_PARTIAL_CHARGES>  (1) 
10
1 -0.29
15 0.4
16 0.4
2 -0.29
3 -0.29
4 -0.68
5 -0.68
6 0.58
7 0.29
8 0.56

>  <PUBCHEM_EFFECTIVE_ROTOR_COUNT>  (1) 
2

>  <PUBCHEM_PHARMACOPHORE_FEATURES>  (1) 
4
1 4 acceptor
1 4 donor
1 5 acceptor
1 5 donor

>  <PUBCHEM_HEAVY_ATOM_COUNT>  (1) 
9

>  <PUBCHEM_ATOM_DEF_STEREO_COUNT>  (1) 
0

>  <PUBCHEM_ATOM_UDEF_STEREO_COUNT>  (1) 
1

>  <PUBCHEM_BOND_DEF_STEREO_COUNT>  (1) 
0

>  <PUBCHEM_BOND_UDEF_STEREO_COUNT>  (1) 
0

>  <PUBCHEM_ISOTOPIC_ATOM_COUNT>  (1) 
0

>  <PUBCHEM_COMPONENT_COUNT>  (1) 
1

>  <PUBCHEM_CACTVS_TAUTO_COUNT>  (1) 
1

>  <PUBCHEM_CONFORMER_ID>  (1) 
0000192B00000001

>  <PUBCHEM_MMFF94_ENERGY>  (1) 
10.0798

>  <PUBCHEM_FEATURE_SELFOVERLAP>  (1) 
20.382

>  <PUBCHEM_SHAPE_FINGERPRINT>  (1) 
12423570 1 18196097629231005320
12897270 3 18131346432031030621
137420 1 14214713544837968599
16945 1 18409724092780828815
20653085 51 18059590069698295968
21040471 1 18201441367437364364
23552423 10 18269844120679773367
24536 1 18262819413656286981
29004967 10 13758076362864966479
5084963 1 18187916296357933085
5943 1 8055493141162602386
68250623 7 18267298729554773530

>  <PUBCHEM_SHAPE_MULTIPOLES>  (1) 
179.09
2.75
1.72
1.35
0.38
0.04
0.46
-0.59
-0.19
0.23
-0.21
-0.21
0.35
-0.25

>  <PUBCHEM_SHAPE_SELFOVERLAP>  (1) 
306.764

>  <PUBCHEM_SHAPE_VOLUME>  (1) 
121.8

>  <PUBCHEM_COORDINATE_TYPE>  (1) 
2
5
10

$$$$
