6445
     RDKit          3D

 23 27  0  0  1  0  0  0  0  0999 V2000
   -1.6461   -0.9162    1.3169 O   0  0  0  0  0  0  0  0  0  0  0  0
    2.6354   -1.5450   -0.1053 O   0  0  0  0  0  0  0  0  0  0  0  0
   -1.8205   -2.9441   -0.4927 O   0  0  0  0  0  0  0  0  0  0  0  0
   -3.9639    0.7782    0.7831 O   0  0  0  0  0  0  0  0  0  0  0  0
    3.2861    1.1263    0.4608 N   0  0  0  0  0  0  0  0  0  0  0  0
    0.6262   -0.4416    0.6559 C   0  0  0  0  0  0  0  0  0  0  0  0
    1.6365   -0.5876   -0.4740 C   0  0  0  0  0  0  0  0  0  0  0  0
    2.1961    0.9003   -0.5002 C   0  0  0  0  0  0  0  0  0  0  0  0
   -0.4020   -1.5556    0.8858 C   0  0  0  0  0  0  0  0  0  0  0  0
    1.4256   -0.0080    1.9638 C   0  0  0  0  0  0  0  0  0  0  0  0
   -0.3805    0.6030    0.1734 C   0  0  0  0  0  0  0  0  0  0  0  0
    1.0048   -1.1732   -1.7524 C   0  0  0  0  0  0  0  0  0  0  0  0
    1.2687    1.8300   -1.3436 C   0  0  0  0  0  0  0  0  0  0  0  0
    2.9700    0.3936    1.7364 C   0  0  0  0  0  0  0  0  0  0  0  0
   -0.1526    1.6549   -0.7476 C   0  0  0  0  0  0  0  0  0  0  0  0
    0.3311   -2.5138   -1.4403 C   0  0  0  0  0  0  0  0  0  0  0  0
   -0.7373   -2.3674   -0.3748 C   0  0  0  0  0  0  0  0  0  0  0  0
   -1.6356    0.2818    0.6407 C   0  0  0  0  0  0  0  0  0  0  0  0
    4.6132    0.8711   -0.0617 C   0  0  0  0  0  0  0  0  0  0  0  0
   -1.2443    2.4480   -1.0861 C   0  0  0  0  0  0  0  0  0  0  0  0
   -2.7205    1.0702    0.3264 C   0  0  0  0  0  0  0  0  0  0  0  0
   -2.5131    2.1643   -0.5337 C   0  0  0  0  0  0  0  0  0  0  0  0
   -4.7773   -0.0691   -0.0306 C   0  0  0  0  0  0  0  0  0  0  0  0
  1  9  1  0
  1 18  1  0
  2  7  1  0
  3 17  2  0
  4 21  1  0
  4 23  1  0
  5  8  1  0
  5 14  1  0
  5 19  1  0
  6  7  1  0
  6  9  1  0
  6 10  1  0
  6 11  1  0
  7  8  1  0
  7 12  1  0
  8 13  1  0
  9 17  1  0
 10 14  1  0
 11 15  2  0
 11 18  1  0
 12 16  1  0
 13 15  1  0
 15 20  1  0
 16 17  1  0
 18 21  2  0
 20 22  2  0
 21 22  1  0
M  END
>  <PUBCHEM_COMPOUND_CID>  (1) 
6445

>  <PUBCHEM_CONFORMER_RMSD>  (1) 
0.6

>  <PUBCHEM_CONFORMER_DIVERSEORDER>  (1) 
1

>  <PUBCHEM_MMFF94_PARTIAL_CHARGES>  (1) 
24
1 -0.36
11 -0.14
13 0.14
14 0.27
15 -0.14
16 0.06
17 0.45
18 0.08
19 0.27
2 -0.68
20 -0.15
21 0.08
22 -0.15
23 0.28
3 -0.57
36 0.4
4 -0.36
40 0.15
41 0.15
5 -0.81
6 0.14
7 0.28
8 0.27
9 0.34

>  <PUBCHEM_EFFECTIVE_ROTOR_COUNT>  (1) 
2.4

>  <PUBCHEM_PHARMACOPHORE_FEATURES>  (1) 
11
1 1 acceptor
1 2 acceptor
1 2 donor
1 3 acceptor
1 4 acceptor
1 5 cation
5 1 6 9 11 18 rings
6 11 15 18 20 21 22 rings
6 5 6 7 8 10 14 rings
6 6 7 8 11 13 15 rings
6 6 7 9 12 16 17 rings

>  <PUBCHEM_HEAVY_ATOM_COUNT>  (1) 
23

>  <PUBCHEM_ATOM_DEF_STEREO_COUNT>  (1) 
4

>  <PUBCHEM_ATOM_UDEF_STEREO_COUNT>  (1) 
0

>  <PUBCHEM_BOND_DEF_STEREO_COUNT>  (1) 
0

>  <PUBCHEM_BOND_UDEF_STEREO_COUNT>  (1) 
0

>  <PUBCHEM_ISOTOPIC_ATOM_COUNT>  (1) 
0

>  <PUBCHEM_COMPONENT_COUNT>  (1) 
1

>  <PUBCHEM_CACTVS_TAUTO_COUNT>  (1) 
3

>  <PUBCHEM_CONFORMER_ID>  (1) 
0000192D00000001

>  <PUBCHEM_MMFF94_ENERGY>  (1) 
145.3211

>  <PUBCHEM_FEATURE_SELFOVERLAP>  (1) 
57.233

>  <PUBCHEM_SHAPE_FINGERPRINT>  (1) 
10165383 225 18201728357410910016
10863032 1 17489297594616466086
10871710 139 17688318197575434540
10906281 52 18042139695448840789
10948715 1 18272932721687808812
11578080 2 17558543875209511848
12011746 2 18333169462020952132
12035758 1 18197778800259800922
12423570 1 8235367720476111594
13140716 1 18045510956327524985
13172582 1 18334577966343689017
13583140 156 16878223155994071745
144361 1 18267884936676630595
15852999 172 18202567275923838786
15881359 60 18190718921553643709
16945 1 18041577900234499476
17357779 13 17557122202284988415
17492 54 18189897698511670181
1813 80 15213859278289652186
20691752 17 17677911028018416729
20905425 154 17611182654786073411
22112679 90 18048601704897842644
22182313 1 18190748535479847613
2334 1 17612889491980221381
23388829 49 17688585383074261412
23402539 116 18336539512525726735
23419403 2 17121674550873187194
23559900 14 18044371617905330190
238 59 17908963436329000869
2748010 2 18045225942371375157
3286 77 17774156790881812763
34934 24 18041842938376922412
427121 178 18131917052669416035
4340502 62 17775290473717736651
484985 159 14351934430183772784
495365 180 17838031738061625453
5845 1 9639084829164632379
69090 78 18410575093300551337
81228 2 17909800439407951786
84936 31 17414703281261398231

>  <PUBCHEM_SHAPE_MULTIPOLES>  (1) 
444.87
5.83
2.73
1.53
1.28
1.01
0.16
-2.11
1.2
0.94
-1.26
-0.64
0.18
0.24

>  <PUBCHEM_SHAPE_SELFOVERLAP>  (1) 
996.28

>  <PUBCHEM_SHAPE_VOLUME>  (1) 
234

>  <PUBCHEM_COORDINATE_TYPE>  (1) 
2
5
10

$$$$
