6449
     RDKit          3D

 23 27  0  0  1  0  0  0  0  0999 V2000
    1.2637   -1.2984   -0.9936 O   0  0  0  0  0  0  0  0  0  0  0  0
    0.9848   -3.3794    0.6279 O   0  0  0  0  0  0  0  0  0  0  0  0
    3.6796    0.0691   -0.1605 O   0  0  0  0  0  0  0  0  0  0  0  0
   -3.5627    1.2621   -0.6692 N   0  0  0  0  0  0  0  0  0  0  0  0
   -1.0148   -0.5006   -0.7015 C   0  0  0  0  0  0  0  0  0  0  0  0
   -2.1122   -0.4911    0.3504 C   0  0  0  0  0  0  0  0  0  0  0  0
   -2.4846    1.0421    0.2975 C   0  0  0  0  0  0  0  0  0  0  0  0
   -0.1250   -1.7516   -0.8312 C   0  0  0  0  0  0  0  0  0  0  0  0
   -1.6937   -0.0161   -2.0498 C   0  0  0  0  0  0  0  0  0  0  0  0
    0.0572    0.4274   -0.1114 C   0  0  0  0  0  0  0  0  0  0  0  0
   -1.5776    1.8815    1.2220 C   0  0  0  0  0  0  0  0  0  0  0  0
   -3.2388    0.4241   -1.8877 C   0  0  0  0  0  0  0  0  0  0  0  0
   -0.1386    1.5131    0.7837 C   0  0  0  0  0  0  0  0  0  0  0  0
   -0.2568   -2.7303    0.3698 C   0  0  0  0  0  0  0  0  0  0  0  0
   -1.6805   -1.1237    1.6479 C   0  0  0  0  0  0  0  0  0  0  0  0
    1.3077   -0.0817   -0.3673 C   0  0  0  0  0  0  0  0  0  0  0  0
   -0.8122   -2.1481    1.6469 C   0  0  0  0  0  0  0  0  0  0  0  0
    0.9954    2.1570    1.2725 C   0  0  0  0  0  0  0  0  0  0  0  0
   -4.8813    0.9826   -0.1253 C   0  0  0  0  0  0  0  0  0  0  0  0
    2.4392    0.5539    0.0999 C   0  0  0  0  0  0  0  0  0  0  0  0
    2.2747    1.6901    0.9094 C   0  0  0  0  0  0  0  0  0  0  0  0
    4.7558    1.0083   -0.1885 C   0  0  0  0  0  0  0  0  0  0  0  0
    5.8206    0.5098   -1.1421 C   0  0  0  0  0  0  0  0  0  0  0  0
  1  8  1  0
  1 16  1  0
  2 14  1  0
  3 20  1  0
  3 22  1  0
  4  7  1  0
  4 12  1  0
  4 19  1  0
  5  6  1  0
  5  8  1  0
  5  9  1  0
  5 10  1  0
  6  7  1  0
  6 15  1  0
  7 11  1  0
  8 14  1  0
  9 12  1  0
 10 13  2  0
 10 16  1  0
 11 13  1  0
 13 18  1  0
 14 17  1  0
 15 17  2  0
 16 20  2  0
 18 21  2  0
 20 21  1  0
 22 23  1  0
M  END
>  <PUBCHEM_COMPOUND_CID>  (1) 
6449

>  <PUBCHEM_CONFORMER_RMSD>  (1) 
0.6

>  <PUBCHEM_CONFORMER_DIVERSEORDER>  (1) 
1
2
4
3

>  <PUBCHEM_MMFF94_PARTIAL_CHARGES>  (1) 
26
1 -0.36
10 -0.14
11 0.14
12 0.27
13 -0.14
14 0.42
15 -0.29
16 0.08
17 -0.29
18 -0.15
19 0.27
2 -0.68
20 0.08
21 -0.15
22 0.28
3 -0.36
34 0.15
35 0.15
36 0.15
4 -0.81
40 0.15
41 0.4
5 0.14
6 0.14
7 0.27
8 0.28

>  <PUBCHEM_EFFECTIVE_ROTOR_COUNT>  (1) 
3.2

>  <PUBCHEM_PHARMACOPHORE_FEATURES>  (1) 
10
1 1 acceptor
1 2 acceptor
1 2 donor
1 3 acceptor
1 4 cation
5 1 5 8 10 16 rings
6 10 13 16 18 20 21 rings
6 4 5 6 7 9 12 rings
6 5 6 7 10 11 13 rings
6 5 6 8 14 15 17 rings

>  <PUBCHEM_HEAVY_ATOM_COUNT>  (1) 
23

>  <PUBCHEM_ATOM_DEF_STEREO_COUNT>  (1) 
5

>  <PUBCHEM_ATOM_UDEF_STEREO_COUNT>  (1) 
0

>  <PUBCHEM_BOND_DEF_STEREO_COUNT>  (1) 
0

>  <PUBCHEM_BOND_UDEF_STEREO_COUNT>  (1) 
0

>  <PUBCHEM_ISOTOPIC_ATOM_COUNT>  (1) 
0

>  <PUBCHEM_COMPONENT_COUNT>  (1) 
1

>  <PUBCHEM_CACTVS_TAUTO_COUNT>  (1) 
1

>  <PUBCHEM_CONFORMER_ID>  (1) 
0000193100000001

>  <PUBCHEM_MMFF94_ENERGY>  (1) 
146.5611

>  <PUBCHEM_FEATURE_SELFOVERLAP>  (1) 
52.208

>  <PUBCHEM_SHAPE_FINGERPRINT>  (1) 
10165383 225 18260269633618075621
107951 10 17530971293355325602
10863032 1 18187074053471719355
10948715 1 18041274379222157625
11315181 36 18343024415712769172
11578080 2 17680140786387344445
12011746 2 18342745113066389652
12592029 89 17386277680273556906
12714826 92 18043818804053739130
12788726 201 18201442411705800704
13140716 1 18200018672553439009
13464514 151 18267581313018051473
13583140 156 17240495735971461048
14787075 74 18341332292596555389
15163728 17 17532642434780643517
15852999 172 18040714740820624179
16945 1 17917713500191854785
17980427 23 14707204388682229991
18186145 218 18268972310954045285
19765921 60 18336533924836565023
200 152 14979955886823575028
20645476 183 18113897199556801192
20905425 154 17912642402151350617
22112679 90 17554597405907253171
22907989 373 17971192779298914303
23419403 2 17681301887313258651
23493267 7 18186800318147401832
23559900 14 18271526494605275328
25 1 18411973642274367629
2748010 2 17769651232950068672
34934 24 18059014948182325025
350125 39 18191876827562005063
3759504 43 18259987101947287602
4340502 62 18187373074012131369
474 4 18410012113572892597
5845 1 11692134322800625587
59755656 520 18334293171320504591
598444 67 18266746963669596570
70251023 43 17693932299762953366
81228 2 17537985254069507891

>  <PUBCHEM_SHAPE_MULTIPOLES>  (1) 
450.74
7.29
2.64
1.61
7.76
1.83
0.23
-3.79
3
-0.13
-1.21
-0.81
0.12
0.49

>  <PUBCHEM_SHAPE_SELFOVERLAP>  (1) 
999.854

>  <PUBCHEM_SHAPE_VOLUME>  (1) 
240.1

>  <PUBCHEM_COORDINATE_TYPE>  (1) 
2
5
10

$$$$
