6462
     RDKit          3D

 22 22  0  0  0  0  0  0  0  0999 V2000
   -1.3511   -0.7522    0.1121 O   0  0  0  0  0  0  0  0  0  0  0  0
    4.7480    0.3343    0.9268 O   0  0  0  0  0  0  0  0  0  0  0  0
   -0.6554   -2.9377   -0.0842 O   0  0  0  0  0  0  0  0  0  0  0  0
   -5.8963    0.9133   -0.2215 N   0  0  0  0  0  0  0  0  0  0  0  0
   -5.0682   -0.2859   -0.2584 C   0  0  0  0  0  0  0  0  0  0  0  0
   -3.6033    0.0751   -0.0345 C   0  0  0  0  0  0  0  0  0  0  0  0
   -7.1554    0.6930   -0.9353 C   0  0  0  0  0  0  0  0  0  0  0  0
   -6.1606    1.3151    1.1613 C   0  0  0  0  0  0  0  0  0  0  0  0
   -2.7096   -1.1565   -0.0894 C   0  0  0  0  0  0  0  0  0  0  0  0
   -6.9047    0.2747   -2.3742 C   0  0  0  0  0  0  0  0  0  0  0  0
   -6.9673    2.6015    1.2145 C   0  0  0  0  0  0  0  0  0  0  0  0
    6.7000    1.2690   -0.0979 C   0  0  0  0  0  0  0  0  0  0  0  0
    7.7452    1.1140   -1.1989 C   0  0  0  0  0  0  0  0  0  0  0  0
    5.6985    0.1229   -0.1082 C   0  0  0  0  0  0  0  0  0  0  0  0
   -0.4032   -1.7386    0.0939 C   0  0  0  0  0  0  0  0  0  0  0  0
    0.9312   -1.2022    0.3106 C   0  0  0  0  0  0  0  0  0  0  0  0
    3.4907   -0.1727    0.7249 C   0  0  0  0  0  0  0  0  0  0  0  0
    8.7176    2.2826   -1.2126 C   0  0  0  0  0  0  0  0  0  0  0  0
    2.0376   -1.8345   -0.2568 C   0  0  0  0  0  0  0  0  0  0  0  0
    1.1047   -0.0550    1.0850 C   0  0  0  0  0  0  0  0  0  0  0  0
    3.3172   -1.3198   -0.0497 C   0  0  0  0  0  0  0  0  0  0  0  0
    2.3844    0.4596    1.2923 C   0  0  0  0  0  0  0  0  0  0  0  0
  1  9  1  0
  1 15  1  0
  2 14  1  0
  2 17  1  0
  3 15  2  0
  4  5  1  0
  4  7  1  0
  4  8  1  0
  5  6  1  0
  6  9  1  0
  7 10  1  0
  8 11  1  0
 12 13  1  0
 12 14  1  0
 13 18  1  0
 15 16  1  0
 16 19  2  0
 16 20  1  0
 17 21  2  0
 17 22  1  0
 19 21  1  0
 20 22  2  0
M  END
>  <PUBCHEM_COMPOUND_CID>  (1) 
6462

>  <PUBCHEM_CONFORMER_RMSD>  (1) 
1

>  <PUBCHEM_CONFORMER_DIVERSEORDER>  (1) 
10
90
24
38
71
74
88
41
106
28
51
79
67
42
14
66
30
12
93
102
99
18
91
94
105
57
40
63
73
45
36
69
56
103
19
27
92
47
4
2
13
16
98
89
96
39
17
62
53
101
21
55
6
22
77
5
32
64
37
87
61
72
100
20
11
52
48
75
44
95
58
15
84
59
25
104
26
83
8
46
49
76
9
1
78
85
23
82
54
81
60
3
7
29
80
65
43
68
50
70
34
31
33
97
35
86

>  <PUBCHEM_MMFF94_PARTIAL_CHARGES>  (1) 
20
1 -0.43
14 0.28
15 0.63
16 0.09
17 0.08
19 -0.15
2 -0.36
20 -0.15
21 -0.15
22 -0.15
3 -0.57
4 -0.81
48 0.15
49 0.15
5 0.27
50 0.15
51 0.15
7 0.27
8 0.27
9 0.28

>  <PUBCHEM_EFFECTIVE_ROTOR_COUNT>  (1) 
12

>  <PUBCHEM_PHARMACOPHORE_FEATURES>  (1) 
5
1 18 hydrophobe
1 2 acceptor
1 3 acceptor
1 4 cation
6 16 17 19 20 21 22 rings

>  <PUBCHEM_HEAVY_ATOM_COUNT>  (1) 
22

>  <PUBCHEM_ATOM_DEF_STEREO_COUNT>  (1) 
0

>  <PUBCHEM_ATOM_UDEF_STEREO_COUNT>  (1) 
0

>  <PUBCHEM_BOND_DEF_STEREO_COUNT>  (1) 
0

>  <PUBCHEM_BOND_UDEF_STEREO_COUNT>  (1) 
0

>  <PUBCHEM_ISOTOPIC_ATOM_COUNT>  (1) 
0

>  <PUBCHEM_COMPONENT_COUNT>  (1) 
1

>  <PUBCHEM_CACTVS_TAUTO_COUNT>  (1) 
1

>  <PUBCHEM_CONFORMER_ID>  (1) 
0000193E0000000A

>  <PUBCHEM_MMFF94_ENERGY>  (1) 
45.9418

>  <PUBCHEM_FEATURE_SELFOVERLAP>  (1) 
25.371

>  <PUBCHEM_SHAPE_FINGERPRINT>  (1) 
10 15 17240481403485726245
10554248 39 18337094684394368726
106641 1 17312827104351928291
10693767 8 16415205525457226342
10816530 90 18335976584665327504
11386260 185 16845289497440976656
12596602 18 14418142781718579557
13668630 136 14549017693099918068
14251757 52 17967812760918694148
14528608 73 17988630875608915499
14931854 50 17632578227591865744
15048467 5 18260829328360605230
15183329 4 16702306736682670786
15188451 53 11095892553776716882
15475509 35 10303541559625468468
15510800 12 11527677439762360356
15690457 1 10952055533590151484
15706992 2 16733277824250247948
1577012 14 18131347471787584731
17093844 174 15068619380171045813
1768 4 18261402156580870345
1818759 1 11240007784660392876
18335252 114 18410008845672343420
190975 80 10953745525679308710
2026 5 12463307881747255732
20526848 3 18335143102736001396
20621476 66 18261397788809717452
20735858 18 12468351367352848824
21637258 2 10735878361344434562
22224240 67 14923941267041115416
22288116 15 17917702557143018015
23081809 10 18130777911885198139
23402655 69 17989198235971796235
23576562 1 17986102135412785420
3711267 37 17822019722331250868
4073 2 18335706031584579411
465052 167 9223229667801334554
5104073 3 12613336222113627223
5283384 27 17894621548759281759
5718773 13 9439401315637687120
59682541 35 12252185212690198476
59682541 52 16773804671461050494
9689198 14 17530966886792270948
9953998 17 14490470910771163129

>  <PUBCHEM_SHAPE_MULTIPOLES>  (1) 
430.16
25.67
2.3
1.39
5.97
0.11
0.47
-23.86
9.77
0.24
-0.06
-1.53
-0.61
-2.53

>  <PUBCHEM_SHAPE_SELFOVERLAP>  (1) 
849.09

>  <PUBCHEM_SHAPE_VOLUME>  (1) 
258.6

>  <PUBCHEM_COORDINATE_TYPE>  (1) 
2
5
10

$$$$
