6463
     RDKit          3D

 17 18  0  0  0  0  0  0  0  0999 V2000
   -0.0133    1.1148   -1.8491 O   0  0  0  0  0  0  0  0  0  0  0  0
   -0.0401    1.8963    1.6857 O   0  0  0  0  0  0  0  0  0  0  0  0
    0.1838    3.1444   -0.1893 O   0  0  0  0  0  0  0  0  0  0  0  0
   -0.0310    0.7095   -0.4615 C   0  0  0  0  0  0  0  0  0  0  0  0
   -1.2874   -0.0627   -0.2389 C   0  0  0  0  0  0  0  0  0  0  0  0
    1.2923   -0.0465   -0.1550 C   0  0  0  0  0  0  0  0  0  0  0  0
    0.0658    2.0445    0.3381 C   0  0  0  0  0  0  0  0  0  0  0  0
   -1.2924   -1.4482   -0.4008 C   0  0  0  0  0  0  0  0  0  0  0  0
    1.4817   -0.5041    1.1165 C   0  0  0  0  0  0  0  0  0  0  0  0
   -2.4574    0.6003    0.1317 C   0  0  0  0  0  0  0  0  0  0  0  0
    2.1829   -0.2066   -1.1764 C   0  0  0  0  0  0  0  0  0  0  0  0
   -2.4673   -2.1706   -0.1925 C   0  0  0  0  0  0  0  0  0  0  0  0
    2.6688   -1.1826    1.3916 C   0  0  0  0  0  0  0  0  0  0  0  0
   -3.6323   -0.1222    0.3400 C   0  0  0  0  0  0  0  0  0  0  0  0
    3.3701   -0.8853   -0.9011 C   0  0  0  0  0  0  0  0  0  0  0  0
   -3.6371   -1.5077    0.1780 C   0  0  0  0  0  0  0  0  0  0  0  0
    3.6130   -1.3733    0.3829 C   0  0  0  0  0  0  0  0  0  0  0  0
  1  4  1  0
  2  7  1  0
  3  7  2  0
  4  5  1  0
  4  6  1  0
  4  7  1  0
  5  8  2  0
  5 10  1  0
  6  9  2  0
  6 11  1  0
  8 12  1  0
  9 13  1  0
 10 14  2  0
 11 15  2  0
 12 16  2  0
 13 17  2  0
 14 16  1  0
 15 17  1  0
M  END
>  <PUBCHEM_COMPOUND_CID>  (1) 
6463

>  <PUBCHEM_CONFORMER_RMSD>  (1) 
0.6

>  <PUBCHEM_CONFORMER_DIVERSEORDER>  (1) 
1
5
6
4
2
3
7

>  <PUBCHEM_MMFF94_PARTIAL_CHARGES>  (1) 
29
1 -0.68
10 -0.15
11 -0.15
12 -0.15
13 -0.15
14 -0.15
15 -0.15
16 -0.15
17 -0.15
18 0.15
19 0.15
2 -0.65
20 0.15
21 0.15
22 0.4
23 0.15
24 0.15
25 0.15
26 0.15
27 0.15
28 0.15
29 0.5
3 -0.57
4 0.63
5 -0.14
6 -0.14
7 0.66
8 -0.15
9 -0.15

>  <PUBCHEM_EFFECTIVE_ROTOR_COUNT>  (1) 
3

>  <PUBCHEM_PHARMACOPHORE_FEATURES>  (1) 
7
1 1 acceptor
1 1 donor
1 2 acceptor
1 3 acceptor
3 2 3 7 anion
6 5 8 10 12 14 16 rings
6 6 9 11 13 15 17 rings

>  <PUBCHEM_HEAVY_ATOM_COUNT>  (1) 
17

>  <PUBCHEM_ATOM_DEF_STEREO_COUNT>  (1) 
0

>  <PUBCHEM_ATOM_UDEF_STEREO_COUNT>  (1) 
0

>  <PUBCHEM_BOND_DEF_STEREO_COUNT>  (1) 
0

>  <PUBCHEM_BOND_UDEF_STEREO_COUNT>  (1) 
0

>  <PUBCHEM_ISOTOPIC_ATOM_COUNT>  (1) 
0

>  <PUBCHEM_COMPONENT_COUNT>  (1) 
1

>  <PUBCHEM_CACTVS_TAUTO_COUNT>  (1) 
1

>  <PUBCHEM_CONFORMER_ID>  (1) 
0000193F00000001

>  <PUBCHEM_MMFF94_ENERGY>  (1) 
55.9532

>  <PUBCHEM_FEATURE_SELFOVERLAP>  (1) 
35.59

>  <PUBCHEM_SHAPE_FINGERPRINT>  (1) 
10130415 120 18410298020892263271
10618630 7 18336546027886152254
11578080 2 17968636290263778220
12382932 28 18343017753153006115
12553582 1 18409166619037713211
12714826 92 18187359887818954431
13083527 12 17338399686944843183
13538477 17 18117839898051547748
14787075 74 18115865377448165608
14817 1 11302577559027145900
15375462 175 18198913504480049094
15375462 189 18187089450755376139
15848700 24 18201711847556338231
16752209 62 18192141595184499685
16945 1 18265609896821234973
17804303 29 18411140255700434035
17844478 74 17346312640512429666
18186145 218 13190341236134498814
19049666 15 17128464103751560982
19422 9 18041005028827710983
200 152 17167866318609034250
20361792 2 18408877460311483391
20510252 161 18198903608906878784
20559304 39 18198346362817810339
20600515 1 18272661112156317468
20645477 70 18050843618420200927
21296965 67 18411136939505354305
21501502 16 18056482987709463095
21731516 1 18260540164838787099
22112679 90 18267047005790096404
2255824 54 18045223992461328607
23184049 29 18198338670642425847
232386 152 18411421738855648879
23419403 2 16618072176227234343
23557571 272 18343022160480086954
23559900 14 18200880552736940542
2748010 2 18268972306431964652
465052 167 18188506773617182523
5902787 121 18411135878564296043
7364860 26 18054512675251085597
74978 22 18338515378081853967
77492 1 17895767196561851350
81228 2 18128827330305865240

>  <PUBCHEM_SHAPE_MULTIPOLES>  (1) 
332.24
5.68
2.39
1.27
0.55
1.42
-0.03
-3.95
-0.35
0.54
-0.21
-0.76
0.2
-0.31

>  <PUBCHEM_SHAPE_SELFOVERLAP>  (1) 
723.801

>  <PUBCHEM_SHAPE_VOLUME>  (1) 
179.4

>  <PUBCHEM_COORDINATE_TYPE>  (1) 
2
5
10

$$$$
