6472
     RDKit          3D

 21 22  0  0  0  0  0  0  0  0999 V2000
    0.3261   -0.4716    0.1006 O   0  0  0  0  0  0  0  0  0  0  0  0
   -0.5326   -1.7815   -1.5974 O   0  0  0  0  0  0  0  0  0  0  0  0
    3.9956   -0.1140    0.0117 N   0  0  0  0  0  0  0  0  0  0  0  0
   -2.0020   -0.7894    0.0493 C   0  0  0  0  0  0  0  0  0  0  0  0
   -3.1128   -1.5861   -0.6621 C   0  0  0  0  0  0  0  0  0  0  0  0
   -2.0455   -1.4185    1.4554 C   0  0  0  0  0  0  0  0  0  0  0  0
   -3.0111   -3.0102   -0.1212 C   0  0  0  0  0  0  0  0  0  0  0  0
   -2.3224   -2.9034    1.2337 C   0  0  0  0  0  0  0  0  0  0  0  0
   -2.2054    0.7201    0.0316 C   0  0  0  0  0  0  0  0  0  0  0  0
   -0.6688   -1.0882   -0.5985 C   0  0  0  0  0  0  0  0  0  0  0  0
   -1.7571    1.4981    1.0998 C   0  0  0  0  0  0  0  0  0  0  0  0
   -2.8410    1.3265   -1.0527 C   0  0  0  0  0  0  0  0  0  0  0  0
    1.6493   -0.6722   -0.4064 C   0  0  0  0  0  0  0  0  0  0  0  0
   -1.9439    2.8804    1.0835 C   0  0  0  0  0  0  0  0  0  0  0  0
   -3.0276    2.7088   -1.0690 C   0  0  0  0  0  0  0  0  0  0  0  0
    2.6312    0.0764    0.4807 C   0  0  0  0  0  0  0  0  0  0  0  0
   -2.5791    3.4856   -0.0010 C   0  0  0  0  0  0  0  0  0  0  0  0
    4.9461    0.5725    0.8901 C   0  0  0  0  0  0  0  0  0  0  0  0
    4.1424    0.3659   -1.3646 C   0  0  0  0  0  0  0  0  0  0  0  0
    4.8133    0.0914    2.3252 C   0  0  0  0  0  0  0  0  0  0  0  0
    5.5452    0.1094   -1.8888 C   0  0  0  0  0  0  0  0  0  0  0  0
  1 10  1  0
  1 13  1  0
  2 10  2  0
  3 16  1  0
  3 18  1  0
  3 19  1  0
  4  5  1  0
  4  6  1  0
  4  9  1  0
  4 10  1  0
  5  7  1  0
  6  8  1  0
  7  8  1  0
  9 11  2  0
  9 12  1  0
 11 14  1  0
 12 15  2  0
 13 16  1  0
 14 17  2  0
 15 17  1  0
 18 20  1  0
 19 21  1  0
M  END
>  <PUBCHEM_COMPOUND_CID>  (1) 
6472

>  <PUBCHEM_CONFORMER_RMSD>  (1) 
1

>  <PUBCHEM_CONFORMER_DIVERSEORDER>  (1) 
1
18
67
42
23
65
53
20
62
7
70
59
27
45
33
81
24
52
61
31
2
37
63
69
17
30
77
15
86
79
32
55
84
57
41
46
47
64
14
51
16
60
76
25
10
11
38
54
56
19
78
49
40
21
5
43
28
3
68
58
39
4
73
74
29
13
72
48
22
80
50
82
9
85
12
6
66
44
26
71
35
83
8
34
75
36

>  <PUBCHEM_MMFF94_PARTIAL_CHARGES>  (1) 
20
1 -0.43
10 0.66
11 -0.15
12 -0.15
13 0.28
14 -0.15
15 -0.15
16 0.27
17 -0.15
18 0.27
19 0.27
2 -0.57
3 -0.81
30 0.15
31 0.15
34 0.15
35 0.15
38 0.15
4 0.2
9 -0.14

>  <PUBCHEM_EFFECTIVE_ROTOR_COUNT>  (1) 
9

>  <PUBCHEM_PHARMACOPHORE_FEATURES>  (1) 
4
1 2 acceptor
1 3 cation
5 4 5 6 7 8 rings
6 9 11 12 14 15 17 rings

>  <PUBCHEM_HEAVY_ATOM_COUNT>  (1) 
21

>  <PUBCHEM_ATOM_DEF_STEREO_COUNT>  (1) 
0

>  <PUBCHEM_ATOM_UDEF_STEREO_COUNT>  (1) 
0

>  <PUBCHEM_BOND_DEF_STEREO_COUNT>  (1) 
0

>  <PUBCHEM_BOND_UDEF_STEREO_COUNT>  (1) 
0

>  <PUBCHEM_ISOTOPIC_ATOM_COUNT>  (1) 
0

>  <PUBCHEM_COMPONENT_COUNT>  (1) 
1

>  <PUBCHEM_CACTVS_TAUTO_COUNT>  (1) 
1

>  <PUBCHEM_CONFORMER_ID>  (1) 
0000194800000001

>  <PUBCHEM_MMFF94_ENERGY>  (1) 
48.9389

>  <PUBCHEM_FEATURE_SELFOVERLAP>  (1) 
20.297

>  <PUBCHEM_SHAPE_FINGERPRINT>  (1) 
10670039 82 18193570076366449964
11545043 162 18272376365332126238
11552529 35 16154578482856598992
12035758 1 18340495547431952747
12788726 201 18261109712025700691
13583140 156 18060128839492327250
14468879 13 17988072305635796126
15806764 133 17846228778009556640
173720 79 18042953299329296273
17844677 252 18410579530946033116
18186145 218 17418383502000071702
19765921 60 17981593876352449441
20681651 13 16298669490171216824
21033648 29 17775562044652928312
21065201 7 18342178860847431710
21304303 282 18046876365586217719
21401589 2 18270960120787628657
21524375 3 17980193093995496197
21864079 5 18040727982553172044
22907989 373 18413113882961207877
22956985 138 16748181978346295082
2297311 6 18268446778681860342
2306618 200 18060424629104334531
23419403 2 14832136551832922807
23503958 25 18272375299879433112
23557571 272 18342752818047496822
341906 21 18410847755737918520
474 4 17762899862373037353
497634 4 16056601014083731990
6049 1 17846224384099439032
7615 1 17748827440761240916
81228 2 18265357091431973467
9981440 41 18200014149847543491

>  <PUBCHEM_SHAPE_MULTIPOLES>  (1) 
415.45
9.81
3.55
1.74
19.37
1.07
0.24
1.35
-0.6
-6.77
0.36
1.88
-0.02
0.37

>  <PUBCHEM_SHAPE_SELFOVERLAP>  (1) 
854.43

>  <PUBCHEM_SHAPE_VOLUME>  (1) 
241.4

>  <PUBCHEM_COORDINATE_TYPE>  (1) 
2
5
10

$$$$
