6475
     RDKit          3D

 21 22  0  0  1  0  0  0  0  0999 V2000
   -4.6705   -3.0006   -0.7160 Cl  0  0  0  0  0  0  0  0  0  0  0  0
    1.2506   -0.2272   -0.1240 O   0  0  0  0  0  0  0  0  0  0  0  0
    3.8560   -1.3236   -0.2954 N   0  0  0  0  0  0  0  0  0  0  0  0
    0.1535    0.3225    0.5927 C   0  0  0  0  0  0  0  0  0  0  0  0
   -1.0773   -0.5265    0.2584 C   0  0  0  0  0  0  0  0  0  0  0  0
   -0.0565    1.7883    0.1922 C   0  0  0  0  0  0  0  0  0  0  0  0
    0.6019    0.2649    2.0667 C   0  0  0  0  0  0  0  0  0  0  0  0
    1.4726   -1.5873    0.2246 C   0  0  0  0  0  0  0  0  0  0  0  0
    2.6551   -2.1100   -0.5753 C   0  0  0  0  0  0  0  0  0  0  0  0
   -1.4860   -0.6034   -1.0521 C   0  0  0  0  0  0  0  0  0  0  0  0
   -1.7245   -1.1769    1.2827 C   0  0  0  0  0  0  0  0  0  0  0  0
   -1.0955    2.4814    0.7654 C   0  0  0  0  0  0  0  0  0  0  0  0
    0.8033    2.3472   -0.7225 C   0  0  0  0  0  0  0  0  0  0  0  0
   -2.6072   -1.3754   -1.3562 C   0  0  0  0  0  0  0  0  0  0  0  0
   -2.8456   -1.9491    0.9786 C   0  0  0  0  0  0  0  0  0  0  0  0
   -1.2864    3.8143    0.4015 C   0  0  0  0  0  0  0  0  0  0  0  0
    0.6124    3.6801   -1.0863 C   0  0  0  0  0  0  0  0  0  0  0  0
   -3.2871   -2.0484   -0.3409 C   0  0  0  0  0  0  0  0  0  0  0  0
   -0.4326    4.4138   -0.5242 C   0  0  0  0  0  0  0  0  0  0  0  0
    4.9799   -1.8037   -1.0985 C   0  0  0  0  0  0  0  0  0  0  0  0
    4.1839   -1.3806    1.1286 C   0  0  0  0  0  0  0  0  0  0  0  0
  1 18  1  0
  2  4  1  0
  2  8  1  0
  3  9  1  0
  3 20  1  0
  3 21  1  0
  4  5  1  0
  4  6  1  0
  4  7  1  0
  5 10  2  0
  5 11  1  0
  6 12  2  0
  6 13  1  0
  8  9  1  0
 10 14  1  0
 11 15  2  0
 12 16  1  0
 13 17  2  0
 14 18  2  0
 15 18  1  0
 16 19  2  0
 17 19  1  0
M  END
>  <PUBCHEM_COMPOUND_CID>  (1) 
6475

>  <PUBCHEM_CONFORMER_RMSD>  (1) 
0.8

>  <PUBCHEM_CONFORMER_DIVERSEORDER>  (1) 
3
14
24
44
38
43
36
7
16
34
19
32
41
42
46
37
29
2
10
8
31
13
11
27
33
39
45
35
18
26
1
40
21
23
25
28
30
17
20
9
12
15
4
22
6
5

>  <PUBCHEM_MMFF94_PARTIAL_CHARGES>  (1) 
29
1 -0.18
10 -0.15
11 -0.15
12 -0.15
13 -0.15
14 -0.15
15 -0.15
16 -0.15
17 -0.15
18 0.18
19 -0.15
2 -0.56
20 0.27
21 0.27
29 0.15
3 -0.81
30 0.15
31 0.15
32 0.15
33 0.15
34 0.15
35 0.15
36 0.15
37 0.15
4 0.57
5 -0.14
6 -0.14
8 0.28
9 0.27

>  <PUBCHEM_EFFECTIVE_ROTOR_COUNT>  (1) 
6

>  <PUBCHEM_PHARMACOPHORE_FEATURES>  (1) 
4
1 2 acceptor
1 3 cation
6 5 10 11 14 15 18 rings
6 6 12 13 16 17 19 rings

>  <PUBCHEM_HEAVY_ATOM_COUNT>  (1) 
21

>  <PUBCHEM_ATOM_DEF_STEREO_COUNT>  (1) 
0

>  <PUBCHEM_ATOM_UDEF_STEREO_COUNT>  (1) 
1

>  <PUBCHEM_BOND_DEF_STEREO_COUNT>  (1) 
0

>  <PUBCHEM_BOND_UDEF_STEREO_COUNT>  (1) 
0

>  <PUBCHEM_ISOTOPIC_ATOM_COUNT>  (1) 
0

>  <PUBCHEM_COMPONENT_COUNT>  (1) 
1

>  <PUBCHEM_CACTVS_TAUTO_COUNT>  (1) 
1

>  <PUBCHEM_CONFORMER_ID>  (1) 
0000194B00000003

>  <PUBCHEM_MMFF94_ENERGY>  (1) 
77.3546

>  <PUBCHEM_FEATURE_SELFOVERLAP>  (1) 
20.297

>  <PUBCHEM_SHAPE_FINGERPRINT>  (1) 
10670039 82 18335155194050362652
10871710 139 18192459449024961196
11045515 52 18334576849588791534
11101153 10 18335994138438531948
11265709 11 18410581690433874819
11488393 25 17614008812102817986
11578080 2 17632001009741445208
11833330 49 18336543811455920961
121448 382 17619037578734772932
12173636 292 17617653259568019396
12553582 1 18337122223413414458
12730499 353 17543355307915607411
12788726 201 18190459350820621275
13004483 165 18339068311691791802
13009979 54 17916042290079001675
13681431 1 18265327489831391849
13899415 180 18268125695664510439
13911987 19 17828226598718793412
13955234 65 17834114521892637475
14508225 48 18411415103072855588
14955137 171 17905876334217176096
15131766 46 15218147476474783254
15842332 3 17627813108202848787
17357779 13 18129639942439531654
17539 30 18339637815680326359
1813 80 18201173129655849070
18915476 22 17686629347852229587
19591789 44 16896529186682293274
20101258 96 18265072287633750640
20600515 1 17899661761110075689
21041028 32 18336281097207381265
21285901 2 17986105206741319503
21304303 282 17324599377328349692
21344244 246 17908146830339875406
21452121 199 18338792437367687946
21524375 3 17328023166327145480
22620623 9 18127976312975428350
23114952 82 17973153226143669895
23227448 37 18193566567092708620
23419403 2 17915433125781622473
23557571 272 18337654353081634362
23558518 356 17899976028548024970
23559900 14 18124867109220848187
23566358 27 17835800068881197151
3057174 1 17112126344225231044
3060560 45 17619062176333996629
3187 122 18192966345318160328
3729539 64 17685802485112060260
458136 41 17472992073837891419
6442390 28 17692528910297541561
6669772 16 16901865623228770790
7364860 26 18049436247387866359
81228 2 18265604394947172945
9925002 15 18265352645476482941

>  <PUBCHEM_SHAPE_MULTIPOLES>  (1) 
423.19
6.66
5.36
1.42
1.36
7.56
0.32
-10.86
-1.73
0.51
-1.24
0.06
-0.18
-0.39

>  <PUBCHEM_SHAPE_SELFOVERLAP>  (1) 
884.139

>  <PUBCHEM_SHAPE_VOLUME>  (1) 
243.9

>  <PUBCHEM_COORDINATE_TYPE>  (1) 
2
5
10

$$$$
