6479
     RDKit          3D

 11 11  0  0  0  0  0  0  0  0999 V2000
   -2.2995   -1.9104    0.0014 Br  0  0  0  0  0  0  0  0  0  0  0  0
    3.1506   -0.1054   -0.0013 Br  0  0  0  0  0  0  0  0  0  0  0  0
    0.9463    2.2298    0.0028 O   0  0  0  0  0  0  0  0  0  0  0  0
    0.8778   -2.3743    0.0009 O   0  0  0  0  0  0  0  0  0  0  0  0
   -0.8266   -0.7588    0.0002 N   0  0  0  0  0  0  0  0  0  0  0  0
    1.2876   -0.0768   -0.0001 N   0  0  0  0  0  0  0  0  0  0  0  0
   -0.9486    0.6879   -0.0008 C   0  0  0  0  0  0  0  0  0  0  0  0
    0.5369    1.0755    0.0008 C   0  0  0  0  0  0  0  0  0  0  0  0
   -1.6106    1.2199   -1.2697 C   0  0  0  0  0  0  0  0  0  0  0  0
   -1.6130    1.2222    1.2659 C   0  0  0  0  0  0  0  0  0  0  0  0
    0.4992   -1.2096   -0.0001 C   0  0  0  0  0  0  0  0  0  0  0  0
  1  5  1  0
  2  6  1  0
  3  8  2  0
  4 11  2  0
  5  7  1  0
  5 11  1  0
  6  8  1  0
  6 11  1  0
  7  8  1  0
  7  9  1  0
  7 10  1  0
M  END
>  <PUBCHEM_COMPOUND_CID>  (1) 
6479

>  <PUBCHEM_CONFORMER_RMSD>  (1) 
0.4

>  <PUBCHEM_CONFORMER_DIVERSEORDER>  (1) 
1

>  <PUBCHEM_MMFF94_PARTIAL_CHARGES>  (1) 
9
1 0.01
11 0.69
2 0.01
3 -0.57
4 -0.57
5 -0.37
6 -0.13
7 0.36
8 0.57

>  <PUBCHEM_EFFECTIVE_ROTOR_COUNT>  (1) 
0.6

>  <PUBCHEM_PHARMACOPHORE_FEATURES>  (1) 
4
1 3 acceptor
1 4 acceptor
3 7 9 10 hydrophobe
5 5 6 7 8 11 rings

>  <PUBCHEM_HEAVY_ATOM_COUNT>  (1) 
11

>  <PUBCHEM_ATOM_DEF_STEREO_COUNT>  (1) 
0

>  <PUBCHEM_ATOM_UDEF_STEREO_COUNT>  (1) 
0

>  <PUBCHEM_BOND_DEF_STEREO_COUNT>  (1) 
0

>  <PUBCHEM_BOND_UDEF_STEREO_COUNT>  (1) 
0

>  <PUBCHEM_ISOTOPIC_ATOM_COUNT>  (1) 
0

>  <PUBCHEM_COMPONENT_COUNT>  (1) 
1

>  <PUBCHEM_CACTVS_TAUTO_COUNT>  (1) 
1

>  <PUBCHEM_CONFORMER_ID>  (1) 
0000194F00000001

>  <PUBCHEM_MMFF94_ENERGY>  (1) 
21.4301

>  <PUBCHEM_FEATURE_SELFOVERLAP>  (1) 
20.297

>  <PUBCHEM_SHAPE_FINGERPRINT>  (1) 
11206711 2 18335699481051921694
12138202 97 17750497508434010263
12423570 1 14391598641950689533
13024252 1 15864076450850982560
14617773 55 17843702177149595211
161256 15 18048311433954749428
16945 1 18410856529733462433
21040471 1 18194402191001536160
23552423 10 18117558646296949052
2748010 2 18265603462992114492
5084963 1 18335982081415454480

>  <PUBCHEM_SHAPE_MULTIPOLES>  (1) 
216.56
3.4
2.39
0.92
1.75
0.41
0
0.97
0
-0.6
0
-0.45
-0.41
0

>  <PUBCHEM_SHAPE_SELFOVERLAP>  (1) 
414.015

>  <PUBCHEM_SHAPE_VOLUME>  (1) 
139.5

>  <PUBCHEM_COORDINATE_TYPE>  (1) 
2
5
10

$$$$
