6481
     RDKit          3D

 18 18  0  0  1  0  0  0  0  0999 V2000
   -2.4310    0.9405    0.4692 N   0  0  0  0  0  0  0  0  0  0  0  0
   -1.0634   -1.3509    2.1879 N   0  0  0  0  0  0  0  0  0  0  0  0
    0.1179   -0.8540   -0.1341 C   0  0  0  0  0  0  0  0  0  0  0  0
   -0.9842   -0.3270   -1.1287 C   0  0  0  0  0  0  0  0  0  0  0  0
    0.7067   -2.2305   -0.6734 C   0  0  0  0  0  0  0  0  0  0  0  0
   -1.6863    1.0123   -0.7864 C   0  0  0  0  0  0  0  0  0  0  0  0
    1.2642    0.1786   -0.0340 C   0  0  0  0  0  0  0  0  0  0  0  0
    1.7831   -2.8355    0.2479 C   0  0  0  0  0  0  0  0  0  0  0  0
   -0.3584   -3.3065   -0.9498 C   0  0  0  0  0  0  0  0  0  0  0  0
   -2.6456    1.4042   -1.9139 C   0  0  0  0  0  0  0  0  0  0  0  0
   -0.5426   -1.1248    1.1750 C   0  0  0  0  0  0  0  0  0  0  0  0
    1.5416    0.7140    1.1942 C   0  0  0  0  0  0  0  0  0  0  0  0
    1.9397    0.5020   -1.1792 C   0  0  0  0  0  0  0  0  0  0  0  0
   -3.4966   -0.0573    0.3761 C   0  0  0  0  0  0  0  0  0  0  0  0
   -2.9862    2.2498    0.8110 C   0  0  0  0  0  0  0  0  0  0  0  0
    2.5757    1.6458    1.2844 C   0  0  0  0  0  0  0  0  0  0  0  0
    2.9738    1.4338   -1.0890 C   0  0  0  0  0  0  0  0  0  0  0  0
    3.2918    2.0056    0.1428 C   0  0  0  0  0  0  0  0  0  0  0  0
  1  6  1  0
  1 14  1  0
  1 15  1  0
  2 11  3  0
  3  4  1  0
  3  5  1  0
  3  7  1  0
  3 11  1  0
  4  6  1  0
  5  8  1  0
  5  9  1  0
  6 10  1  0
  7 12  2  0
  7 13  1  0
 12 16  1  0
 13 17  2  0
 16 18  2  0
 17 18  1  0
M  END
>  <PUBCHEM_COMPOUND_CID>  (1) 
6481

>  <PUBCHEM_CONFORMER_RMSD>  (1) 
0.6

>  <PUBCHEM_CONFORMER_DIVERSEORDER>  (1) 
1
19
37
34
8
14
40
11
31
16
28
2
5
41
46
30
22
25
3
35
13
27
38
15
44
21
26
4
9
45
23
39
10
24
17
6
36
12
42
20
18
43
7
32
33
29

>  <PUBCHEM_MMFF94_PARTIAL_CHARGES>  (1) 
18
1 -0.81
11 0.36
12 -0.15
13 -0.15
14 0.27
15 0.27
16 -0.15
17 -0.15
18 -0.15
2 -0.56
3 0.34
32 0.15
33 0.15
40 0.15
41 0.15
42 0.15
6 0.27
7 -0.14

>  <PUBCHEM_EFFECTIVE_ROTOR_COUNT>  (1) 
5

>  <PUBCHEM_PHARMACOPHORE_FEATURES>  (1) 
4
1 1 cation
1 2 acceptor
3 5 8 9 hydrophobe
6 7 12 13 16 17 18 rings

>  <PUBCHEM_HEAVY_ATOM_COUNT>  (1) 
18

>  <PUBCHEM_ATOM_DEF_STEREO_COUNT>  (1) 
0

>  <PUBCHEM_ATOM_UDEF_STEREO_COUNT>  (1) 
2

>  <PUBCHEM_BOND_DEF_STEREO_COUNT>  (1) 
0

>  <PUBCHEM_BOND_UDEF_STEREO_COUNT>  (1) 
0

>  <PUBCHEM_ISOTOPIC_ATOM_COUNT>  (1) 
0

>  <PUBCHEM_COMPONENT_COUNT>  (1) 
1

>  <PUBCHEM_CACTVS_TAUTO_COUNT>  (1) 
1

>  <PUBCHEM_CONFORMER_ID>  (1) 
0000195100000001

>  <PUBCHEM_MMFF94_ENERGY>  (1) 
62.5391

>  <PUBCHEM_FEATURE_SELFOVERLAP>  (1) 
20.297

>  <PUBCHEM_SHAPE_FINGERPRINT>  (1) 
10165383 225 18052292671054133256
11132069 177 18188495795284537001
11578080 2 14431737065868912692
13132413 78 17624131594974027860
13134695 92 17906157461132509430
13294875 104 18131343082193981688
13538477 17 16879349119945686796
13681431 1 17836359354873521838
13764800 53 18263652937901717968
14181834 199 18055613046035981318
14648413 74 18051125896233334317
14787075 74 14717941462981564262
14817 1 9340460679522482355
14955137 171 18057046796303558878
15309172 13 18337109063580456213
15490181 7 18269849760024853062
15852999 172 18114449119960327429
15906896 17 17824245210504710634
16945 1 18050845520372742614
18186145 218 18272652354981732276
18785283 64 18189072940141645460
18981168 100 18188769427461314893
19765921 60 17632572768688295945
19837323 101 18268424818503051860
20510252 161 17762884859898862892
20511035 2 18260550022052488514
20600515 1 16824706853751833062
20711985 344 17764022863161078862
21041028 32 17619355303272365280
21296965 12 18261385693459112415
21501502 16 18337399240419390755
21524375 3 18334289889991564984
21947302 44 18336553707160531483
22112679 90 16897113001528894366
23419403 2 17180592027233683794
23557571 272 17477204298731566644
25 1 17917444128507045284
2748010 2 18336557074436140094
305870 269 18342167835054479128
3250762 1 18189635893973959147
350125 39 18411419501130292863
6442390 28 18199205034175672747
7364860 26 18197498415666186743
81228 2 17762051447154374310

>  <PUBCHEM_SHAPE_MULTIPOLES>  (1) 
360.47
4.91
3.22
1.67
0.92
2.48
0.15
-4.18
-0.03
-0.72
-0.18
0.42
-0.15
0.23

>  <PUBCHEM_SHAPE_SELFOVERLAP>  (1) 
729.862

>  <PUBCHEM_SHAPE_VOLUME>  (1) 
209.7

>  <PUBCHEM_COORDINATE_TYPE>  (1) 
2
5
10

$$$$
