6485
     RDKit          3D

 16 17  0  0  0  0  0  0  0  0999 V2000
    0.7598    2.3810    0.0444 O   0  0  0  0  0  0  0  0  0  0  0  0
   -1.3035    0.5391   -0.7131 C   0  0  0  0  0  0  0  0  0  0  0  0
   -2.2575   -0.6327   -1.0958 C   0  0  0  0  0  0  0  0  0  0  0  0
   -2.0016    1.3131    0.4452 C   0  0  0  0  0  0  0  0  0  0  0  0
   -2.6107   -1.5415    0.0856 C   0  0  0  0  0  0  0  0  0  0  0  0
   -2.3186    0.4213    1.6470 C   0  0  0  0  0  0  0  0  0  0  0  0
   -3.2038   -0.7535    1.2478 C   0  0  0  0  0  0  0  0  0  0  0  0
    0.1377    0.1100   -0.3610 C   0  0  0  0  0  0  0  0  0  0  0  0
   -1.1997    1.4790   -1.9366 C   0  0  0  0  0  0  0  0  0  0  0  0
    1.0906    1.0586   -0.0013 C   0  0  0  0  0  0  0  0  0  0  0  0
    0.4703   -1.2407   -0.4083 C   0  0  0  0  0  0  0  0  0  0  0  0
    2.3876    0.6530    0.3135 C   0  0  0  0  0  0  0  0  0  0  0  0
    1.7670   -1.6464   -0.0935 C   0  0  0  0  0  0  0  0  0  0  0  0
    2.7257   -0.6996    0.2674 C   0  0  0  0  0  0  0  0  0  0  0  0
    3.4278    1.6515    0.7027 C   0  0  0  0  0  0  0  0  0  0  0  0
    2.1291   -3.0923   -0.1441 C   0  0  0  0  0  0  0  0  0  0  0  0
  1 10  1  0
  2  3  1  0
  2  4  1  0
  2  8  1  0
  2  9  1  0
  3  5  1  0
  4  6  1  0
  5  7  1  0
  6  7  1  0
  8 10  2  0
  8 11  1  0
 10 12  1  0
 11 13  2  0
 12 14  2  0
 12 15  1  0
 13 14  1  0
 13 16  1  0
M  END
>  <PUBCHEM_COMPOUND_CID>  (1) 
6485

>  <PUBCHEM_CONFORMER_RMSD>  (1) 
0.6

>  <PUBCHEM_CONFORMER_DIVERSEORDER>  (1) 
1
4
5
3
2

>  <PUBCHEM_MMFF94_PARTIAL_CHARGES>  (1) 
13
1 -0.53
10 0.08
11 -0.15
12 -0.14
13 -0.14
14 -0.15
15 0.14
16 0.14
2 0.14
30 0.15
31 0.15
38 0.45
8 -0.14

>  <PUBCHEM_EFFECTIVE_ROTOR_COUNT>  (1) 
2.2

>  <PUBCHEM_PHARMACOPHORE_FEATURES>  (1) 
3
1 1 donor
6 2 3 4 5 6 7 rings
6 8 10 11 12 13 14 rings

>  <PUBCHEM_HEAVY_ATOM_COUNT>  (1) 
16

>  <PUBCHEM_ATOM_DEF_STEREO_COUNT>  (1) 
0

>  <PUBCHEM_ATOM_UDEF_STEREO_COUNT>  (1) 
0

>  <PUBCHEM_BOND_DEF_STEREO_COUNT>  (1) 
0

>  <PUBCHEM_BOND_UDEF_STEREO_COUNT>  (1) 
0

>  <PUBCHEM_ISOTOPIC_ATOM_COUNT>  (1) 
0

>  <PUBCHEM_COMPONENT_COUNT>  (1) 
1

>  <PUBCHEM_CACTVS_TAUTO_COUNT>  (1) 
3

>  <PUBCHEM_CONFORMER_ID>  (1) 
0000195500000001

>  <PUBCHEM_MMFF94_ENERGY>  (1) 
50.5325

>  <PUBCHEM_FEATURE_SELFOVERLAP>  (1) 
15.223

>  <PUBCHEM_SHAPE_FINGERPRINT>  (1) 
11132069 177 18264201581566632266
11471102 22 18410578366234559578
12202030 40 17531531975122739994
12251169 10 18272377416813188843
12382932 28 18341894052232151672
12553582 1 17765433149980179166
12696612 119 18341341045080502116
13140716 1 18266735779727745066
13294875 104 11886844826649654014
13693222 15 18187077382007862202
13764800 53 15123521310869979427
14178342 30 18413101771079242264
14787075 74 16765336498711863169
15207287 21 17823407369812061555
15219456 202 18334569131558830125
15309172 13 18267864063436310824
15775835 57 17560529502761487809
16945 1 18338801233444827335
17844478 74 18186523202251156116
18380122 1 18259700116411426812
19049666 15 17971746679629609286
19591789 44 18411704326840955190
200 152 18058713819244922263
201361 129 18131081436849122640
21061003 4 18412542136930562088
21069387 34 12685080501722572608
21501502 16 18411978022908835943
22445834 79 18271534164546161763
22721475 48 18187093844559738723
23236772 104 17632012078030070825
2334 1 18411131420615024758
23388829 49 18198901594619905933
23557571 272 17313104124862101212
25 1 16820226884992717509
2748010 2 18337660915570155614
458136 41 18338814402342077450
568465 68 18193006030161548849
576247 118 17242485795950538803
5845 1 17749117677286736485
598444 67 17610351432933458535
77492 1 17346309388874065893
81228 2 17458907020648455413
8809292 202 17973724671147140270

>  <PUBCHEM_SHAPE_MULTIPOLES>  (1) 
323.4
5.01
2.54
1.31
0.47
0.95
0.14
0.51
-1.61
1.68
0.17
-1.1
-0.37
0.56

>  <PUBCHEM_SHAPE_SELFOVERLAP>  (1) 
677.561

>  <PUBCHEM_SHAPE_VOLUME>  (1) 
184.1

>  <PUBCHEM_COORDINATE_TYPE>  (1) 
2
5
10

$$$$
