6486
     RDKit          2D

 31 34  0  0  0  0  0  0  0  0999 V2000
    0.0000    0.0000    0.0000 O   0  0  0  0  0  0  0  0  0  0  0  0
    0.0000    0.0000    0.0000 O   0  0  0  0  0  0  0  0  0  0  0  0
    0.0000    0.0000    0.0000 C   0  0  0  0  0  0  0  0  0  0  0  0
    0.0000    0.0000    0.0000 C   0  0  0  0  0  0  0  0  0  0  0  0
    0.0000    0.0000    0.0000 C   0  0  0  0  0  0  0  0  0  0  0  0
    0.0000    0.0000    0.0000 C   0  0  0  0  0  0  0  0  0  0  0  0
    0.0000    0.0000    0.0000 C   0  0  0  0  0  0  0  0  0  0  0  0
    0.0000    0.0000    0.0000 C   0  0  0  0  0  0  0  0  0  0  0  0
    0.0000    0.0000    0.0000 C   0  0  0  0  0  0  0  0  0  0  0  0
    0.0000    0.0000    0.0000 C   0  0  0  0  0  0  0  0  0  0  0  0
    0.0000    0.0000    0.0000 C   0  0  0  0  0  0  0  0  0  0  0  0
    0.0000    0.0000    0.0000 C   0  0  0  0  0  0  0  0  0  0  0  0
    0.0000    0.0000    0.0000 C   0  0  0  0  0  0  0  0  0  0  0  0
    0.0000    0.0000    0.0000 C   0  0  0  0  0  0  0  0  0  0  0  0
    0.0000    0.0000    0.0000 C   0  0  0  0  0  0  0  0  0  0  0  0
    0.0000    0.0000    0.0000 C   0  0  0  0  0  0  0  0  0  0  0  0
    0.0000    0.0000    0.0000 C   0  0  0  0  0  0  0  0  0  0  0  0
    0.0000    0.0000    0.0000 C   0  0  0  0  0  0  0  0  0  0  0  0
    0.0000    0.0000    0.0000 C   0  0  0  0  0  0  0  0  0  0  0  0
    0.0000    0.0000    0.0000 C   0  0  0  0  0  0  0  0  0  0  0  0
    0.0000    0.0000    0.0000 C   0  0  0  0  0  0  0  0  0  0  0  0
    0.0000    0.0000    0.0000 C   0  0  0  0  0  0  0  0  0  0  0  0
    0.0000    0.0000    0.0000 C   0  0  0  0  0  0  0  0  0  0  0  0
    0.0000    0.0000    0.0000 C   0  0  0  0  0  0  0  0  0  0  0  0
    0.0000    0.0000    0.0000 C   0  0  0  0  0  0  0  0  0  0  0  0
    0.0000    0.0000    0.0000 C   0  0  0  0  0  0  0  0  0  0  0  0
    0.0000    0.0000    0.0000 C   0  0  0  0  0  0  0  0  0  0  0  0
    0.0000    0.0000    0.0000 C   0  0  0  0  0  0  0  0  0  0  0  0
    0.0000    0.0000    0.0000 C   0  0  0  0  0  0  0  0  0  0  0  0
    0.0000    0.0000    0.0000 C   0  0  0  0  0  0  0  0  0  0  0  0
    0.0000    0.0000    0.0000 C   0  0  0  0  0  0  0  0  0  0  0  0
  1 19  1  0
  2 20  1  0
  3  5  1  0
  3  6  1  0
  3 15  1  0
  3 17  1  0
  4  7  1  0
  4  8  1  0
  4 16  1  0
  4 18  1  0
  5  9  1  0
  6 10  1  0
  7 11  1  0
  8 12  1  0
  9 13  1  0
 10 13  1  0
 11 14  1  0
 12 14  1  0
 15 19  2  0
 15 21  1  0
 16 20  2  0
 16 22  1  0
 19 23  1  0
 20 24  1  0
 21 26  2  0
 22 27  2  0
 23 25  1  0
 23 28  2  0
 24 25  1  0
 24 29  2  0
 26 28  1  0
 26 30  1  0
 27 29  1  0
 27 31  1  0
M  END
>  <PUBCHEM_COMPOUND_CID>  (1) 
6486

>  <PUBCHEM_CONFORMER_RMSD>  (1) 
0.8

>  <PUBCHEM_CONFORMER_DIVERSEORDER>  (1) 
11
221
130
184
164
227
183
163
186
122
25
23
82
47
73
19
200
213
29
1
67
91
179
85
79
166
27
87
28
22
237
106
94
228
174
65
199
207
205
109
5
33
14
176
98
121
171
105
101
232
134
218
132
88
83
215
156
180
136
41
222
3
203
144
162
194
148
21
66
46
216
187
235
149
32
195
229
44
137
223
152
155
135
190
206
119
60
169
143
57
117
112
77
159
96
127
49
208
35
81
214
125
54
99
240
225
80
219
233
202
167
18
210
241
97
201
170
118
70
234
193
196
150
145
138
128
16
238
157
6
140
24
2
197
182
172
178
76
62
220
52
42
100
90
12
86
7
37
161
120
64
15
160
181
211
173
103
131
236
192
141
204
58
34
95
9
224
55
226
38
39
146
8
56
188
43
154
74
151
158
114
31
110
189
231
239
75
30
36
129
69
153
139
48
177
116
63
53
198
124
209
78
71
168
51
68
61
93
89
59
20
165
4
108
123
147
72
212
84
17
175
45
50
217
104
92
126
185
13
40
115
107
133
111
113
10
191
142
102
230
26

>  <PUBCHEM_MMFF94_PARTIAL_CHARGES>  (1) 
25
1 -0.53
15 -0.14
16 -0.14
19 0.08
2 -0.53
20 0.08
21 -0.15
22 -0.15
23 -0.14
24 -0.14
25 0.29
26 -0.14
27 -0.14
28 -0.15
29 -0.15
3 0.14
30 0.14
31 0.14
4 0.14
58 0.15
59 0.15
62 0.15
63 0.15
64 0.45
65 0.45

>  <PUBCHEM_EFFECTIVE_ROTOR_COUNT>  (1) 
6.4

>  <PUBCHEM_PHARMACOPHORE_FEATURES>  (1) 
6
1 1 donor
1 2 donor
6 15 19 21 23 26 28 rings
6 16 20 22 24 27 29 rings
6 3 5 6 9 10 13 rings
6 4 7 8 11 12 14 rings

>  <PUBCHEM_HEAVY_ATOM_COUNT>  (1) 
31

>  <PUBCHEM_ATOM_DEF_STEREO_COUNT>  (1) 
0

>  <PUBCHEM_ATOM_UDEF_STEREO_COUNT>  (1) 
0

>  <PUBCHEM_BOND_DEF_STEREO_COUNT>  (1) 
0

>  <PUBCHEM_BOND_UDEF_STEREO_COUNT>  (1) 
0

>  <PUBCHEM_ISOTOPIC_ATOM_COUNT>  (1) 
0

>  <PUBCHEM_COMPONENT_COUNT>  (1) 
1

>  <PUBCHEM_CACTVS_TAUTO_COUNT>  (1) 
5

$$$$
