6487
     RDKit          3D

 36 40  0  0  0  0  0  0  0  0999 V2000
   -1.7979    1.3163   -1.7514 Si  0  0  0  0  0  4  0  0  0  0  0  0
    1.3109    1.7943   -1.4991 Si  0  0  0  0  0  4  0  0  0  0  0  0
   -1.3100   -1.7960   -1.4967 Si  0  0  0  0  0  4  0  0  0  0  0  0
    1.7989   -1.3185   -1.7496 Si  0  0  0  0  0  4  0  0  0  0  0  0
   -0.3180    1.7760   -1.1320 O   0  0  0  0  0  0  0  0  0  0  0  0
   -1.7881   -0.3167   -2.1144 O   0  0  0  0  0  0  0  0  0  0  0  0
    1.7892    0.3141   -2.1141 O   0  0  0  0  0  0  0  0  0  0  0  0
    0.3188   -1.7775   -1.1298 O   0  0  0  0  0  0  0  0  0  0  0  0
   -3.0670    1.5280   -0.3691 C   0  0  0  0  0  0  0  0  0  0  0  0
    2.2254    1.9877    0.1418 C   0  0  0  0  0  0  0  0  0  0  0  0
   -2.2262   -1.9863    0.1437 C   0  0  0  0  0  0  0  0  0  0  0  0
    3.0679   -1.5296   -0.3672 C   0  0  0  0  0  0  0  0  0  0  0  0
   -2.2909    2.3504   -3.2222 C   0  0  0  0  0  0  0  0  0  0  0  0
    1.7277    3.1898   -2.6638 C   0  0  0  0  0  0  0  0  0  0  0  0
   -1.7277   -3.1938   -2.6585 C   0  0  0  0  0  0  0  0  0  0  0  0
    2.2924   -2.3538   -3.2193 C   0  0  0  0  0  0  0  0  0  0  0  0
   -4.4285    1.1863   -0.5579 C   0  0  0  0  0  0  0  0  0  0  0  0
    3.4901    2.6218    0.2124 C   0  0  0  0  0  0  0  0  0  0  0  0
   -3.4911   -2.6196    0.2139 C   0  0  0  0  0  0  0  0  0  0  0  0
    4.4295   -1.1883   -0.5560 C   0  0  0  0  0  0  0  0  0  0  0  0
   -2.7003    2.0348    0.9016 C   0  0  0  0  0  0  0  0  0  0  0  0
    1.6781    1.5059    1.3561 C   0  0  0  0  0  0  0  0  0  0  0  0
   -1.6795   -1.5029    1.3575 C   0  0  0  0  0  0  0  0  0  0  0  0
    2.7012   -2.0356    0.9040 C   0  0  0  0  0  0  0  0  0  0  0  0
   -5.3667    1.3419    0.4624 C   0  0  0  0  0  0  0  0  0  0  0  0
    4.1662    2.7655    1.4239 C   0  0  0  0  0  0  0  0  0  0  0  0
   -4.1683   -2.7612    1.4251 C   0  0  0  0  0  0  0  0  0  0  0  0
    5.3676   -1.3434    0.4645 C   0  0  0  0  0  0  0  0  0  0  0  0
   -3.6386    2.1904    1.9220 C   0  0  0  0  0  0  0  0  0  0  0  0
    2.3543    1.6497    2.5677 C   0  0  0  0  0  0  0  0  0  0  0  0
   -2.3569   -1.6445    2.5688 C   0  0  0  0  0  0  0  0  0  0  0  0
    3.6394   -2.1907    1.9245 C   0  0  0  0  0  0  0  0  0  0  0  0
   -4.9718    1.8440    1.7025 C   0  0  0  0  0  0  0  0  0  0  0  0
    3.5984    2.2796    2.6016 C   0  0  0  0  0  0  0  0  0  0  0  0
   -3.6013   -2.2736    2.6025 C   0  0  0  0  0  0  0  0  0  0  0  0
    4.9727   -1.8446    1.7047 C   0  0  0  0  0  0  0  0  0  0  0  0
  1  5  1  0
  1  6  1  0
  1  9  1  0
  1 13  1  0
  2  5  1  0
  2  7  1  0
  2 10  1  0
  2 14  1  0
  3  6  1  0
  3  8  1  0
  3 11  1  0
  3 15  1  0
  4  7  1  0
  4  8  1  0
  4 12  1  0
  4 16  1  0
  9 17  2  0
  9 21  1  0
 10 18  2  0
 10 22  1  0
 11 19  2  0
 11 23  1  0
 12 20  2  0
 12 24  1  0
 17 25  1  0
 18 26  1  0
 19 27  1  0
 20 28  1  0
 21 29  2  0
 22 30  2  0
 23 31  2  0
 24 32  2  0
 25 33  2  0
 26 34  2  0
 27 35  2  0
 28 36  2  0
 29 33  1  0
 30 34  1  0
 31 35  1  0
 32 36  1  0
M  END
>  <PUBCHEM_COMPOUND_CID>  (1) 
6487

>  <PUBCHEM_CONFORMER_RMSD>  (1) 
0.8

>  <PUBCHEM_CONFORMER_DIVERSEORDER>  (1) 
1
5
2
4
3

>  <PUBCHEM_MMFF94_PARTIAL_CHARGES>  (1) 
56
1 0.9
10 -0.22
11 -0.22
12 -0.22
13 -0.08
14 -0.08
15 -0.08
16 -0.08
17 -0.15
18 -0.15
19 -0.15
2 0.9
20 -0.15
21 -0.15
22 -0.15
23 -0.15
24 -0.15
25 -0.15
26 -0.15
27 -0.15
28 -0.15
29 -0.15
3 0.9
30 -0.15
31 -0.15
32 -0.15
33 -0.15
34 -0.15
35 -0.15
36 -0.15
4 0.9
49 0.15
5 -0.59
50 0.15
51 0.15
52 0.15
53 0.15
54 0.15
55 0.15
56 0.15
57 0.15
58 0.15
59 0.15
6 -0.59
60 0.15
61 0.15
62 0.15
63 0.15
64 0.15
65 0.15
66 0.15
67 0.15
68 0.15
7 -0.59
8 -0.59
9 -0.22

>  <PUBCHEM_EFFECTIVE_ROTOR_COUNT>  (1) 
5.6

>  <PUBCHEM_PHARMACOPHORE_FEATURES>  (1) 
4
6 10 18 22 26 30 34 rings
6 11 19 23 27 31 35 rings
6 12 20 24 28 32 36 rings
6 9 17 21 25 29 33 rings

>  <PUBCHEM_HEAVY_ATOM_COUNT>  (1) 
36

>  <PUBCHEM_ATOM_DEF_STEREO_COUNT>  (1) 
0

>  <PUBCHEM_ATOM_UDEF_STEREO_COUNT>  (1) 
0

>  <PUBCHEM_BOND_DEF_STEREO_COUNT>  (1) 
0

>  <PUBCHEM_BOND_UDEF_STEREO_COUNT>  (1) 
0

>  <PUBCHEM_ISOTOPIC_ATOM_COUNT>  (1) 
0

>  <PUBCHEM_COMPONENT_COUNT>  (1) 
1

>  <PUBCHEM_CACTVS_TAUTO_COUNT>  (1) 
1

>  <PUBCHEM_CONFORMER_ID>  (1) 
0000195700000001

>  <PUBCHEM_MMFF94_ENERGY>  (1) 
53.5346

>  <PUBCHEM_FEATURE_SELFOVERLAP>  (1) 
20.3

>  <PUBCHEM_SHAPE_FINGERPRINT>  (1) 
11578080 2 18270974538697266337
12107698 1 18410572920184854115
12422481 6 18410856606884429829
12633257 1 18338798909767286899
13140716 1 18410575084663079429
13965767 371 17985842650768824422
15444296 121 18128265493434932128
17974551 9 18410573950791713056
20764821 26 17988641930021383177
21033648 29 17774724151830626006
2818148 4 17677067800930544670
3459 110 18411701014656051714
35225 105 18187916228081723867

>  <PUBCHEM_SHAPE_MULTIPOLES>  (1) 
790.24
9.99
4.52
3.63
0
0
0.59
0
-6.47
-0.01
0.11
0
0
1.18

>  <PUBCHEM_SHAPE_SELFOVERLAP>  (1) 
1627.804

>  <PUBCHEM_SHAPE_VOLUME>  (1) 
451.3

>  <PUBCHEM_COORDINATE_TYPE>  (1) 
2
5
10

$$$$
