6492
     RDKit          3D

 10 12  0  0  1  0  0  0  0  0999 V2000
   -0.3690   -0.7864   -0.6074 C   0  0  0  0  0  0  0  0  0  0  0  0
   -0.3638    0.7825   -0.6149 C   0  0  0  0  0  0  0  0  0  0  0  0
    0.8360   -1.1170    0.3157 C   0  0  0  0  0  0  0  0  0  0  0  0
    0.8379    1.1209    0.3036 C   0  0  0  0  0  0  0  0  0  0  0  0
    0.7789    0.0061    1.3576 C   0  0  0  0  0  0  0  0  0  0  0  0
   -1.7391   -1.2150   -0.0636 C   0  0  0  0  0  0  0  0  0  0  0  0
    2.0868   -0.6730   -0.4123 C   0  0  0  0  0  0  0  0  0  0  0  0
    2.0876    0.6692   -0.4196 C   0  0  0  0  0  0  0  0  0  0  0  0
   -1.7069    1.1435   -0.0709 C   0  0  0  0  0  0  0  0  0  0  0  0
   -2.4485    0.0692    0.2119 C   0  0  0  0  0  0  0  0  0  0  0  0
  1  2  1  0
  1  3  1  0
  1  6  1  0
  2  4  1  0
  2  9  1  0
  3  5  1  0
  3  7  1  0
  4  5  1  0
  4  8  1  0
  6 10  1  0
  7  8  2  0
  9 10  2  0
M  END
>  <PUBCHEM_COMPOUND_CID>  (1) 
6492

>  <PUBCHEM_CONFORMER_RMSD>  (1) 
0.4

>  <PUBCHEM_CONFORMER_DIVERSEORDER>  (1) 
1
3
2

>  <PUBCHEM_MMFF94_PARTIAL_CHARGES>  (1) 
12
10 -0.29
19 0.15
2 0.14
20 0.15
21 0.15
22 0.15
3 0.14
4 0.14
6 0.14
7 -0.29
8 -0.29
9 -0.29

>  <PUBCHEM_EFFECTIVE_ROTOR_COUNT>  (1) 
0.4

>  <PUBCHEM_PHARMACOPHORE_FEATURES>  (1) 
2
5 1 2 6 9 10 rings
7 1 2 3 4 5 7 8 rings

>  <PUBCHEM_HEAVY_ATOM_COUNT>  (1) 
10

>  <PUBCHEM_ATOM_DEF_STEREO_COUNT>  (1) 
0

>  <PUBCHEM_ATOM_UDEF_STEREO_COUNT>  (1) 
4

>  <PUBCHEM_BOND_DEF_STEREO_COUNT>  (1) 
0

>  <PUBCHEM_BOND_UDEF_STEREO_COUNT>  (1) 
0

>  <PUBCHEM_ISOTOPIC_ATOM_COUNT>  (1) 
0

>  <PUBCHEM_COMPONENT_COUNT>  (1) 
1

>  <PUBCHEM_CACTVS_TAUTO_COUNT>  (1) 
1

>  <PUBCHEM_CONFORMER_ID>  (1) 
0000195C00000001

>  <PUBCHEM_MMFF94_ENERGY>  (1) 
42.3336

>  <PUBCHEM_FEATURE_SELFOVERLAP>  (1) 
10.237

>  <PUBCHEM_SHAPE_FINGERPRINT>  (1) 
12423570 1 11222447209115897738
13024252 1 16951431904130095854
16945 1 18410579461266415116
21040471 1 18340196384877920797
21922407 69 16660912331599706945
23552423 10 18261114066895431862
241688 4 18265049309247571537
2748010 2 18267301117640622405
29004967 10 16487259863329297878
369184 2 8646768872083787021
5084963 1 18202561774318379611
528886 8 18410576188627916580

>  <PUBCHEM_SHAPE_MULTIPOLES>  (1) 
205.8
2.91
1.36
0.93
0.52
0.03
0.2
-0.01
-0.17
0.13
-0.05
-0.19
0
0

>  <PUBCHEM_SHAPE_SELFOVERLAP>  (1) 
461.907

>  <PUBCHEM_SHAPE_VOLUME>  (1) 
109.4

>  <PUBCHEM_COORDINATE_TYPE>  (1) 
2
5
10

$$$$
