6495
     RDKit          3D

  7  6  0  0  0  0  0  0  0  0999 V2000
    0.9183   -0.3501   -0.7674 O   0  0  0  0  0  0  0  0  0  0  0  0
   -0.9395   -0.3281    0.7641 O   0  0  0  0  0  0  0  0  0  0  0  0
    0.0000    0.4446    0.0001 C   0  0  0  0  0  0  0  0  0  0  0  0
    0.7482    1.3347    1.0019 C   0  0  0  0  0  0  0  0  0  0  0  0
   -0.7237    1.3592   -0.9978 C   0  0  0  0  0  0  0  0  0  0  0  0
    1.7395   -1.2317   -0.0145 C   0  0  0  0  0  0  0  0  0  0  0  0
   -1.7428   -1.2285    0.0137 C   0  0  0  0  0  0  0  0  0  0  0  0
  1  3  1  0
  1  6  1  0
  2  3  1  0
  2  7  1  0
  3  4  1  0
  3  5  1  0
M  END
>  <PUBCHEM_COMPOUND_CID>  (1) 
6495

>  <PUBCHEM_CONFORMER_RMSD>  (1) 
0.4

>  <PUBCHEM_CONFORMER_DIVERSEORDER>  (1) 
1
3
5
2
4

>  <PUBCHEM_MMFF94_PARTIAL_CHARGES>  (1) 
5
1 -0.56
2 -0.56
3 0.56
6 0.28
7 0.28

>  <PUBCHEM_EFFECTIVE_ROTOR_COUNT>  (1) 
2

>  <PUBCHEM_PHARMACOPHORE_FEATURES>  (1) 
3
1 1 acceptor
1 2 acceptor
3 3 4 5 hydrophobe

>  <PUBCHEM_HEAVY_ATOM_COUNT>  (1) 
7

>  <PUBCHEM_ATOM_DEF_STEREO_COUNT>  (1) 
0

>  <PUBCHEM_ATOM_UDEF_STEREO_COUNT>  (1) 
0

>  <PUBCHEM_BOND_DEF_STEREO_COUNT>  (1) 
0

>  <PUBCHEM_BOND_UDEF_STEREO_COUNT>  (1) 
0

>  <PUBCHEM_ISOTOPIC_ATOM_COUNT>  (1) 
0

>  <PUBCHEM_COMPONENT_COUNT>  (1) 
1

>  <PUBCHEM_CACTVS_TAUTO_COUNT>  (1) 
1

>  <PUBCHEM_CONFORMER_ID>  (1) 
0000195F00000001

>  <PUBCHEM_MMFF94_ENERGY>  (1) 
20.9581

>  <PUBCHEM_FEATURE_SELFOVERLAP>  (1) 
15.254

>  <PUBCHEM_SHAPE_FINGERPRINT>  (1) 
137420 1 11262012705243987394
21040471 1 17538557708442507940
23552449 11 18129945705598875203
29004967 10 17751946810545707211
5943 1 11488070058236960160

>  <PUBCHEM_SHAPE_MULTIPOLES>  (1) 
132.32
1.9
1.68
1.03
0.01
0.12
0
-0.97
-0.01
0
0.01
0
0.31
0.47

>  <PUBCHEM_SHAPE_SELFOVERLAP>  (1) 
234.887

>  <PUBCHEM_SHAPE_VOLUME>  (1) 
88.1

>  <PUBCHEM_COORDINATE_TYPE>  (1) 
2
5
10

$$$$
