6510
     RDKit          3D

  9  8  0  0  0  0  0  0  0  0999 V2000
    0.2304   -2.4330   -0.1754 O   0  0  0  0  0  0  0  0  0  0  0  0
   -2.4238   -0.2910    0.2118 O   0  0  0  0  0  0  0  0  0  0  0  0
   -0.3705    2.4349   -0.1684 O   0  0  0  0  0  0  0  0  0  0  0  0
    0.0049    0.0016   -0.0123 C   0  0  0  0  0  0  0  0  0  0  0  0
    1.2644    0.1400    0.8948 C   0  0  0  0  0  0  0  0  0  0  0  0
    0.1094   -1.2380   -0.9359 C   0  0  0  0  0  0  0  0  0  0  0  0
   -1.2113   -0.1537    0.9424 C   0  0  0  0  0  0  0  0  0  0  0  0
   -0.1956    1.2413   -0.9206 C   0  0  0  0  0  0  0  0  0  0  0  0
    2.5920    0.2980    0.1636 C   0  0  0  0  0  0  0  0  0  0  0  0
  1  6  1  0
  2  7  1  0
  3  8  1  0
  4  5  1  0
  4  6  1  0
  4  7  1  0
  4  8  1  0
  5  9  1  0
M  END
>  <PUBCHEM_COMPOUND_CID>  (1) 
6510

>  <PUBCHEM_CONFORMER_RMSD>  (1) 
0.6

>  <PUBCHEM_CONFORMER_DIVERSEORDER>  (1) 
1
11
7
4
10
12
2
6
3
14
8
9
13
5

>  <PUBCHEM_MMFF94_PARTIAL_CHARGES>  (1) 
9
1 -0.68
2 -0.68
21 0.4
22 0.4
23 0.4
3 -0.68
6 0.28
7 0.28
8 0.28

>  <PUBCHEM_EFFECTIVE_ROTOR_COUNT>  (1) 
4

>  <PUBCHEM_PHARMACOPHORE_FEATURES>  (1) 
7
1 1 acceptor
1 1 donor
1 2 acceptor
1 2 donor
1 3 acceptor
1 3 donor
1 9 hydrophobe

>  <PUBCHEM_HEAVY_ATOM_COUNT>  (1) 
9

>  <PUBCHEM_ATOM_DEF_STEREO_COUNT>  (1) 
0

>  <PUBCHEM_ATOM_UDEF_STEREO_COUNT>  (1) 
0

>  <PUBCHEM_BOND_DEF_STEREO_COUNT>  (1) 
0

>  <PUBCHEM_BOND_UDEF_STEREO_COUNT>  (1) 
0

>  <PUBCHEM_ISOTOPIC_ATOM_COUNT>  (1) 
0

>  <PUBCHEM_COMPONENT_COUNT>  (1) 
1

>  <PUBCHEM_CACTVS_TAUTO_COUNT>  (1) 
1

>  <PUBCHEM_CONFORMER_ID>  (1) 
0000196E00000001

>  <PUBCHEM_MMFF94_ENERGY>  (1) 
22.1832

>  <PUBCHEM_FEATURE_SELFOVERLAP>  (1) 
35.522

>  <PUBCHEM_SHAPE_FINGERPRINT>  (1) 
10219947 1 18410299137636378011
12423570 1 9041242028838841090
137420 1 8281755372890945425
14993402 34 18266741466069058239
16714656 1 18410855494814986768
21040471 1 18200602525964834034
29004967 10 17749387121822537568
5084963 1 18059571360910158906
5943 1 12150380644082416780
68250623 7 17826785937237295882

>  <PUBCHEM_SHAPE_MULTIPOLES>  (1) 
167.61
2.32
2.02
1.02
0.58
0.02
-0.01
0.02
0.58
-0.2
-0.54
-0.04
-0.01
0.04

>  <PUBCHEM_SHAPE_SELFOVERLAP>  (1) 
306.376

>  <PUBCHEM_SHAPE_VOLUME>  (1) 
105.9

>  <PUBCHEM_COORDINATE_TYPE>  (1) 
2
5
10

$$$$
