6515
     RDKit          3D

 12 11  0  0  0  0  0  0  0  0999 V2000
    0.0062    0.2621    0.1814 Si  0  0  0  0  0  4  0  0  0  0  0  0
   -0.0198   -1.2892    0.8205 O   0  0  0  0  0  0  0  0  0  0  0  0
    1.3738    0.4466   -0.7714 O   0  0  0  0  0  0  0  0  0  0  0  0
   -1.3560    0.4717   -0.7751 O   0  0  0  0  0  0  0  0  0  0  0  0
    0.0048    1.5118    1.5842 C   0  0  0  0  0  0  0  0  0  0  0  0
    0.0272    2.9752    1.1622 C   0  0  0  0  0  0  0  0  0  0  0  0
   -0.0230   -2.4051   -0.0589 C   0  0  0  0  0  0  0  0  0  0  0  0
    2.6600    0.2929   -0.1890 C   0  0  0  0  0  0  0  0  0  0  0  0
   -2.6455    0.3336   -0.1959 C   0  0  0  0  0  0  0  0  0  0  0  0
   -0.0477   -3.6782    0.7599 C   0  0  0  0  0  0  0  0  0  0  0  0
    3.7130    0.5086   -1.2550 C   0  0  0  0  0  0  0  0  0  0  0  0
   -3.6931    0.5700   -1.2628 C   0  0  0  0  0  0  0  0  0  0  0  0
  1  2  1  0
  1  3  1  0
  1  4  1  0
  1  5  1  0
  2  7  1  0
  3  8  1  0
  4  9  1  0
  5  6  1  0
  7 10  1  0
  8 11  1  0
  9 12  1  0
M  END
>  <PUBCHEM_COMPOUND_CID>  (1) 
6515

>  <PUBCHEM_CONFORMER_RMSD>  (1) 
0.8

>  <PUBCHEM_CONFORMER_DIVERSEORDER>  (1) 
1
20
5
21
23
26
19
18
3
25
24
17
27
28
15
11
14
2
13
22
16
6
10
7
8
12
4
9

>  <PUBCHEM_MMFF94_PARTIAL_CHARGES>  (1) 
8
1 0.97
2 -0.58
3 -0.58
4 -0.58
5 -0.08
7 0.28
8 0.28
9 0.28

>  <PUBCHEM_EFFECTIVE_ROTOR_COUNT>  (1) 
7

>  <PUBCHEM_PHARMACOPHORE_FEATURES>  (1) 
0

>  <PUBCHEM_HEAVY_ATOM_COUNT>  (1) 
12

>  <PUBCHEM_ATOM_DEF_STEREO_COUNT>  (1) 
0

>  <PUBCHEM_ATOM_UDEF_STEREO_COUNT>  (1) 
0

>  <PUBCHEM_BOND_DEF_STEREO_COUNT>  (1) 
0

>  <PUBCHEM_BOND_UDEF_STEREO_COUNT>  (1) 
0

>  <PUBCHEM_ISOTOPIC_ATOM_COUNT>  (1) 
0

>  <PUBCHEM_COMPONENT_COUNT>  (1) 
1

>  <PUBCHEM_CACTVS_TAUTO_COUNT>  (1) 
1

>  <PUBCHEM_CONFORMER_ID>  (1) 
0000197300000001

>  <PUBCHEM_MMFF94_ENERGY>  (1) 
2.9494

>  <PUBCHEM_FEATURE_SELFOVERLAP>  (1) 
0

>  <PUBCHEM_SHAPE_FINGERPRINT>  (1) 
12138202 97 18262811773215708766
12423570 1 9070894251296238432
13380536 167 17694223261931446025
13380536 261 18055633919276229400
13380536 55 17835820594249920264
14817 1 15762142703419194635
14943834 7 17693381035892629345
15279308 132 18338790233965042937
16945 1 18408886234813598412
18186145 218 18411702097024967420
187816 3 18342461439187671492
20511035 2 17049318318831695680
20645476 183 18040719207613018334
20711985 344 17683514413798321730
22802520 49 17691967485009686551
228727 97 18200880560709813192
23382010 3 18265325286502821229
23402539 116 18130514046010540244
23419403 2 17415002649314580794
23526113 38 18272088331027575772
23552423 10 17978510828066830935
23559900 14 18341617066562141900
2748010 2 17256808326240272479
298252 57 17530963609310412988
3250762 1 17764585821224334945
353137 74 18199474259499531629
4369600 1 18272643537234271985
68419 9 17554049831504397272
76951 1 18058145302602402699
81228 2 17469313095083335307

>  <PUBCHEM_SHAPE_MULTIPOLES>  (1) 
247.56
4.32
3.38
1.4
0.09
2.95
-0.08
-1.53
3.4
-0.07
-2
0
-0.5
0.05

>  <PUBCHEM_SHAPE_SELFOVERLAP>  (1) 
436.475

>  <PUBCHEM_SHAPE_VOLUME>  (1) 
162.8

>  <PUBCHEM_COORDINATE_TYPE>  (1) 
2
5
10

$$$$
