652
     RDKit          3D

 13 12  0  0  1  0  0  0  0  0999 V2000
   -5.6411   -0.2109    0.4325 O   0  0  0  0  0  0  0  0  0  0  0  0
   -4.4222   -0.5186   -1.4640 O   0  0  0  0  0  0  0  0  0  0  0  0
    3.2310    1.6447   -0.8856 N   0  0  0  0  0  0  0  0  0  0  0  0
    3.5102   -1.6762    0.8692 N   0  0  0  0  0  0  0  0  0  0  0  0
    3.1498    0.6831    0.2192 C   0  0  0  0  0  0  0  0  0  0  0  0
    1.7575    0.7695    0.8910 C   0  0  0  0  0  0  0  0  0  0  0  0
    0.5278    0.3670    0.0634 C   0  0  0  0  0  0  0  0  0  0  0  0
    3.5407   -0.7392   -0.2601 C   0  0  0  0  0  0  0  0  0  0  0  0
   -0.8022    0.4295    0.8153 C   0  0  0  0  0  0  0  0  0  0  0  0
   -1.9795    0.1246   -0.1187 C   0  0  0  0  0  0  0  0  0  0  0  0
    4.9367   -0.7947   -0.8919 C   0  0  0  0  0  0  0  0  0  0  0  0
   -3.3232    0.1441    0.6102 C   0  0  0  0  0  0  0  0  0  0  0  0
   -4.4855   -0.2228   -0.2803 C   0  0  0  0  0  0  0  0  0  0  0  0
  1 13  1  0
  2 13  2  0
  3  5  1  0
  4  8  1  0
  5  6  1  0
  5  8  1  0
  6  7  1  0
  7  9  1  0
  8 11  1  0
  9 10  1  0
 10 12  1  0
 12 13  1  0
M  END
>  <PUBCHEM_COMPOUND_CID>  (1) 
652

>  <PUBCHEM_CONFORMER_RMSD>  (1) 
0.8

>  <PUBCHEM_CONFORMER_DIVERSEORDER>  (1) 
2
134
60
171
245
132
202
1
68
207
152
162
100
177
80
238
41
213
206
20
247
13
236
102
223
246
165
78
4
214
42
195
55
196
111
137
23
182
220
45
172
31
180
154
12
84
237
3
240
148
164
189
239
21
81
62
82
218
75
221
161
219
117
188
185
169
228
173
85
44
87
243
216
226
199
96
97
187
242
51
232
151
124
112
131
106
210
224
6
58
227
203
205
37
36
71
72
159
64
142
217
46
146
26
38
230
24
170
83
201
157
141
32
127
192
28
79
193
143
198
168
40
184
73
129
50
110
53
225
122
234
108
99
39
200
27
135
229
235
95
17
191
56
139
63
18
91
69
209
114
77
233
101
155
156
48
30
181
16
22
104
194
215
123
109
126
105
231
163
35
15
14
174
130
92
150
212
10
49
33
211
76
138
47
9
222
52
34
244
149
7
183
54
66
241
74
136
208
59
93
98
5
94
11
125
88
166
175
103
89
57
65
176
133
121
116
67
179
119
145
43
144
140
19
160
8
147
61
29
153
86
120
90
167
128
186
190
178
107
70
115
113
25
118
197
204
158

>  <PUBCHEM_MMFF94_PARTIAL_CHARGES>  (1) 
13
1 -0.65
12 0.06
13 0.66
2 -0.57
27 0.36
28 0.36
3 -0.99
31 0.36
32 0.36
33 0.5
4 -0.99
5 0.27
8 0.27

>  <PUBCHEM_EFFECTIVE_ROTOR_COUNT>  (1) 
7

>  <PUBCHEM_PHARMACOPHORE_FEATURES>  (1) 
8
1 1 acceptor
1 2 acceptor
1 3 cation
1 3 donor
1 4 cation
1 4 donor
3 1 2 13 anion
5 6 7 9 10 12 hydrophobe

>  <PUBCHEM_HEAVY_ATOM_COUNT>  (1) 
13

>  <PUBCHEM_ATOM_DEF_STEREO_COUNT>  (1) 
0

>  <PUBCHEM_ATOM_UDEF_STEREO_COUNT>  (1) 
2

>  <PUBCHEM_BOND_DEF_STEREO_COUNT>  (1) 
0

>  <PUBCHEM_BOND_UDEF_STEREO_COUNT>  (1) 
0

>  <PUBCHEM_ISOTOPIC_ATOM_COUNT>  (1) 
0

>  <PUBCHEM_COMPONENT_COUNT>  (1) 
1

>  <PUBCHEM_CACTVS_TAUTO_COUNT>  (1) 
1

>  <PUBCHEM_CONFORMER_ID>  (1) 
0000028C00000002

>  <PUBCHEM_MMFF94_ENERGY>  (1) 
0.9613

>  <PUBCHEM_FEATURE_SELFOVERLAP>  (1) 
40.651

>  <PUBCHEM_SHAPE_FINGERPRINT>  (1) 
114248 4 17022625277522647395
11987891 27 17989202659592555533
13167823 11 18060416936944377679
13675066 3 13686301279233869377
13690532 89 17846499227087462289
14123238 8 11674878901105072697
14251717 144 18412262809479768938
14251718 22 16081377370749991339
14252887 29 13901915500956218964
14455015 7 18341621420994250963
15242439 84 17458067070688772873
15477762 27 18335704906339193682
177051 138 17703790301825645264
17834072 33 18040719198796113359
17834076 25 13695587758467844921
18186145 218 17385443232589720705
20369508 70 18130782374065880304
20645477 70 18334861606226640034
21354914 88 17703792500532467522
22485316 2 17632291311197474225
22646028 1 17418372510803961509
23402539 116 16415476035218730097
23402655 69 15864069862397361786
23590187 173 14851601077129650204
23590187 198 17275387590574607407
23590187 302 18113338605022055768
23596394 208 17531239513714618738
26918003 58 14189575230457050755
3060560 45 17967819353772673110
32948 21 17313658244209722324
351380 3 18130788949391882263
42 15 16128656340394621683
4990 188 17095241410440146162
522135 26 18333168366867283240
5374978 207 13039188104141330906
573450 72 17489870419205979731

>  <PUBCHEM_SHAPE_MULTIPOLES>  (1) 
245.83
12.29
1.19
1.05
8.88
0.03
-0.07
3.97
-1.57
-1.22
-0.05
-0.34
0.07
-0.83

>  <PUBCHEM_SHAPE_SELFOVERLAP>  (1) 
451.801

>  <PUBCHEM_SHAPE_VOLUME>  (1) 
155.8

>  <PUBCHEM_COORDINATE_TYPE>  (1) 
2
5
10

$$$$
