6521
     RDKit          3D

 17 18  0  0  0  0  0  0  0  0999 V2000
   -0.6156    0.3154    0.4102 O   0  0  0  0  0  0  0  0  0  0  0  0
    0.3728    0.6318   -0.6118 O   0  0  0  0  0  0  0  0  0  0  0  0
   -1.9621    1.9093   -0.6341 O   0  0  0  0  0  0  0  0  0  0  0  0
    1.7706    1.2198    1.1614 O   0  0  0  0  0  0  0  0  0  0  0  0
   -1.7987    2.6950    0.5756 O   0  0  0  0  0  0  0  0  0  0  0  0
   -1.8810    0.5521   -0.2053 C   0  0  0  0  0  0  0  0  0  0  0  0
    1.6360    0.3947    0.0051 C   0  0  0  0  0  0  0  0  0  0  0  0
   -2.0458   -0.3486   -1.4359 C   0  0  0  0  0  0  0  0  0  0  0  0
   -2.9826    0.2708    0.8246 C   0  0  0  0  0  0  0  0  0  0  0  0
    1.7282   -1.0730    0.4420 C   0  0  0  0  0  0  0  0  0  0  0  0
    2.7348    0.7283   -1.0120 C   0  0  0  0  0  0  0  0  0  0  0  0
   -2.1226   -1.8285   -1.0648 C   0  0  0  0  0  0  0  0  0  0  0  0
   -3.0636   -1.2090    1.1970 C   0  0  0  0  0  0  0  0  0  0  0  0
    3.1210   -1.4388    0.9534 C   0  0  0  0  0  0  0  0  0  0  0  0
    4.1277    0.3667   -0.4997 C   0  0  0  0  0  0  0  0  0  0  0  0
   -3.2212   -2.0910   -0.0384 C   0  0  0  0  0  0  0  0  0  0  0  0
    4.2021   -1.0950   -0.0673 C   0  0  0  0  0  0  0  0  0  0  0  0
  1  2  1  0
  1  6  1  0
  2  7  1  0
  3  5  1  0
  3  6  1  0
  4  7  1  0
  6  8  1  0
  6  9  1  0
  7 10  1  0
  7 11  1  0
  8 12  1  0
  9 13  1  0
 10 14  1  0
 11 15  1  0
 12 16  1  0
 13 16  1  0
 14 17  1  0
 15 17  1  0
M  END
>  <PUBCHEM_COMPOUND_CID>  (1) 
6521

>  <PUBCHEM_CONFORMER_RMSD>  (1) 
0.8

>  <PUBCHEM_CONFORMER_DIVERSEORDER>  (1) 
4
8
24
16
2
21
3
6
23
11
14
5
17
1
19
7
20
22
15
13
12
18
9
10

>  <PUBCHEM_MMFF94_PARTIAL_CHARGES>  (1) 
9
1 -0.28
2 -0.28
3 -0.28
38 0.4
39 0.4
4 -0.68
5 -0.4
6 0.56
7 0.56

>  <PUBCHEM_EFFECTIVE_ROTOR_COUNT>  (1) 
6.4

>  <PUBCHEM_PHARMACOPHORE_FEATURES>  (1) 
4
1 4 acceptor
1 4 donor
6 6 8 9 12 13 16 rings
6 7 10 11 14 15 17 rings

>  <PUBCHEM_HEAVY_ATOM_COUNT>  (1) 
17

>  <PUBCHEM_ATOM_DEF_STEREO_COUNT>  (1) 
0

>  <PUBCHEM_ATOM_UDEF_STEREO_COUNT>  (1) 
0

>  <PUBCHEM_BOND_DEF_STEREO_COUNT>  (1) 
0

>  <PUBCHEM_BOND_UDEF_STEREO_COUNT>  (1) 
0

>  <PUBCHEM_ISOTOPIC_ATOM_COUNT>  (1) 
0

>  <PUBCHEM_COMPONENT_COUNT>  (1) 
1

>  <PUBCHEM_CACTVS_TAUTO_COUNT>  (1) 
1

>  <PUBCHEM_CONFORMER_ID>  (1) 
0000197900000004

>  <PUBCHEM_MMFF94_ENERGY>  (1) 
19.4002

>  <PUBCHEM_FEATURE_SELFOVERLAP>  (1) 
20.297

>  <PUBCHEM_SHAPE_FINGERPRINT>  (1) 
10062212 137 18189326888636409930
10616163 171 18409732828866134862
10618630 7 18262519307275210423
11357001 24 18410860923775150249
12500047 106 18196643008652651176
12553582 1 18340484581436602543
12633257 1 17560534974819166563
128620 24 16588025748860237718
12932764 1 18272367589964821752
13024252 1 17457781189724384911
13296908 3 18340760537342992276
14289901 80 18410291432681502232
14965852 173 18409727331249363136
15239191 94 18411139160146299850
15375462 189 18339368555643496018
16752209 62 18269819970189463615
16945 1 18130783430205646740
18186145 218 17418373602057964120
19050596 39 18334297565366992496
19422 9 18334018268023233294
200 152 18187361077625355951
20281475 54 18261669273471263386
20291156 8 18337954613876383191
20442098 301 18412543202156298022
21524375 3 17836075677011624405
22646028 28 18408601491472523918
23402539 116 16805600340191616284
23559900 14 18410282636430393216
27216 239 11527950084154070903
2871803 45 18040992985665728947
3082319 5 18114181917413109988
58051976 100 18334860467901791420
6049 1 18202272628519886488
633830 44 15575006001145892924
74978 22 18271233950479659776
83771 10 18334862765820116251
90525 40 18339359656529378351

>  <PUBCHEM_SHAPE_MULTIPOLES>  (1) 
320.51
7.4
2.12
1.2
4.54
0.44
-0.08
-2.45
0.18
-1.37
0.18
-0.39
-0.11
-0.54

>  <PUBCHEM_SHAPE_SELFOVERLAP>  (1) 
643.878

>  <PUBCHEM_SHAPE_VOLUME>  (1) 
185.5

>  <PUBCHEM_COORDINATE_TYPE>  (1) 
2
5
10

$$$$
