6525
     RDKit          3D

  9  9  0  0  0  0  0  0  0  0999 V2000
    1.4561    1.6921    0.0005 O   0  0  0  0  0  0  0  0  0  0  0  0
    0.5892    0.5567    0.0001 C   0  0  0  0  0  0  0  0  0  0  0  0
   -0.2800    0.6091   -1.2665 C   0  0  0  0  0  0  0  0  0  0  0  0
   -0.2798    0.6083    1.2668 C   0  0  0  0  0  0  0  0  0  0  0  0
   -1.4028   -0.4284   -1.2637 C   0  0  0  0  0  0  0  0  0  0  0  0
   -1.4027   -0.4292    1.2634 C   0  0  0  0  0  0  0  0  0  0  0  0
   -2.2527   -0.3331    0.0000 C   0  0  0  0  0  0  0  0  0  0  0  0
    1.4398   -0.6476   -0.0003 C   0  0  0  0  0  0  0  0  0  0  0  0
    2.1327   -1.6279   -0.0004 C   0  0  0  0  0  0  0  0  0  0  0  0
  1  2  1  0
  2  3  1  0
  2  4  1  0
  2  8  1  0
  3  5  1  0
  4  6  1  0
  5  7  1  0
  6  7  1  0
  8  9  3  0
M  END
>  <PUBCHEM_COMPOUND_CID>  (1) 
6525

>  <PUBCHEM_CONFORMER_RMSD>  (1) 
0.4

>  <PUBCHEM_CONFORMER_DIVERSEORDER>  (1) 
1
2
4
3

>  <PUBCHEM_MMFF94_PARTIAL_CHARGES>  (1) 
6
1 -0.68
2 0.48
20 0.4
21 0.18
8 -0.2
9 -0.18

>  <PUBCHEM_EFFECTIVE_ROTOR_COUNT>  (1) 
1.2

>  <PUBCHEM_PHARMACOPHORE_FEATURES>  (1) 
4
1 1 acceptor
1 1 donor
1 9 hydrophobe
6 2 3 4 5 6 7 rings

>  <PUBCHEM_HEAVY_ATOM_COUNT>  (1) 
9

>  <PUBCHEM_ATOM_DEF_STEREO_COUNT>  (1) 
0

>  <PUBCHEM_ATOM_UDEF_STEREO_COUNT>  (1) 
0

>  <PUBCHEM_BOND_DEF_STEREO_COUNT>  (1) 
0

>  <PUBCHEM_BOND_UDEF_STEREO_COUNT>  (1) 
0

>  <PUBCHEM_ISOTOPIC_ATOM_COUNT>  (1) 
0

>  <PUBCHEM_COMPONENT_COUNT>  (1) 
1

>  <PUBCHEM_CACTVS_TAUTO_COUNT>  (1) 
1

>  <PUBCHEM_CONFORMER_ID>  (1) 
0000197D00000001

>  <PUBCHEM_MMFF94_ENERGY>  (1) 
7.5538

>  <PUBCHEM_FEATURE_SELFOVERLAP>  (1) 
20.297

>  <PUBCHEM_SHAPE_FINGERPRINT>  (1) 
12423570 1 12614961286596971799
13024252 1 17027426673044807210
137420 1 13149404103218528640
16945 1 18338797921930083461
18185500 45 17560791177865227415
19837323 101 15070043130662488694
20653091 64 16483847120991785551
21922407 69 18058738029664365667
23552333 60 17917144017508734759
29004967 10 18408036299624879626
369184 2 15193851468697608342
5084963 1 15625125060685392965
54338 74 14546157841891759767

>  <PUBCHEM_SHAPE_MULTIPOLES>  (1) 
179.35
2.63
1.36
1.34
0.23
0.17
0
-1.09
0
0.84
0
-0.6
0.05
0

>  <PUBCHEM_SHAPE_SELFOVERLAP>  (1) 
353.256

>  <PUBCHEM_SHAPE_VOLUME>  (1) 
105.8

>  <PUBCHEM_COORDINATE_TYPE>  (1) 
2
5
10

$$$$
