6527
     RDKit          3D

 26 28  0  0  0  0  0  0  0  0999 V2000
   -0.0043   -0.0034   -0.4936 P   0  0  0  0  0  0  0  0  0  0  0  0
    1.4277   -0.3138    0.1981 O   0  0  0  0  0  0  0  0  0  0  0  0
   -0.9893   -1.0823    0.1992 O   0  0  0  0  0  0  0  0  0  0  0  0
   -0.4462    1.3893    0.1988 O   0  0  0  0  0  0  0  0  0  0  0  0
   -0.0042   -0.0034   -1.9967 O   0  0  0  0  0  0  0  0  0  0  0  0
    2.1492   -1.4572    0.0297 C   0  0  0  0  0  0  0  0  0  0  0  0
   -2.3464   -1.1289    0.0288 C   0  0  0  0  0  0  0  0  0  0  0  0
    0.1921    2.5878    0.0285 C   0  0  0  0  0  0  0  0  0  0  0  0
    3.3756   -1.6282    0.6720 C   0  0  0  0  0  0  0  0  0  0  0  0
   -3.1073   -2.1007    0.6723 C   0  0  0  0  0  0  0  0  0  0  0  0
   -0.2691    3.7328    0.6718 C   0  0  0  0  0  0  0  0  0  0  0  0
    1.6484   -2.4635   -0.7963 C   0  0  0  0  0  0  0  0  0  0  0  0
   -2.9560   -0.1894   -0.7979 C   0  0  0  0  0  0  0  0  0  0  0  0
    1.3108    2.6459   -0.7979 C   0  0  0  0  0  0  0  0  0  0  0  0
    4.1009   -2.8055    0.4884 C   0  0  0  0  0  0  0  0  0  0  0  0
   -4.4895   -2.1333    0.4876 C   0  0  0  0  0  0  0  0  0  0  0  0
    0.3940    4.9460    0.4871 C   0  0  0  0  0  0  0  0  0  0  0  0
    3.9274   -0.5618    1.5598 C   0  0  0  0  0  0  0  0  0  0  0  0
   -2.4656   -3.1141    1.5616 C   0  0  0  0  0  0  0  0  0  0  0  0
   -1.4677    3.6840    1.5607 C   0  0  0  0  0  0  0  0  0  0  0  0
    2.3736   -3.6409   -0.9798 C   0  0  0  0  0  0  0  0  0  0  0  0
   -4.3383   -0.2220   -0.9824 C   0  0  0  0  0  0  0  0  0  0  0  0
    1.9739    3.8591   -0.9824 C   0  0  0  0  0  0  0  0  0  0  0  0
    3.5998   -3.8118   -0.3375 C   0  0  0  0  0  0  0  0  0  0  0  0
   -5.1050   -1.1939   -0.3398 C   0  0  0  0  0  0  0  0  0  0  0  0
    1.5155    5.0091   -0.3401 C   0  0  0  0  0  0  0  0  0  0  0  0
  1  2  1  0
  1  3  1  0
  1  4  1  0
  1  5  2  0
  2  6  1  0
  3  7  1  0
  4  8  1  0
  6  9  2  0
  6 12  1  0
  7 10  2  0
  7 13  1  0
  8 11  2  0
  8 14  1  0
  9 15  1  0
  9 18  1  0
 10 16  1  0
 10 19  1  0
 11 17  1  0
 11 20  1  0
 12 21  2  0
 13 22  2  0
 14 23  2  0
 15 24  2  0
 16 25  2  0
 17 26  2  0
 21 24  1  0
 22 25  1  0
 23 26  1  0
M  END
>  <PUBCHEM_COMPOUND_CID>  (1) 
6527

>  <PUBCHEM_CONFORMER_RMSD>  (1) 
0.8

>  <PUBCHEM_CONFORMER_DIVERSEORDER>  (1) 
1
5
64
39
17
26
31
27
67
24
47
48
57
51
34
52
38
63
36
58
23
40
44
65
4
66
43
53
55
15
3
46
29
14
32
69
33
41
2
60
68
35
16
12
56
45
71
61
25
21
13
8
72
62
59
37
11
22
20
9
28
42
7
70
19
10
18
54
49
50
30
6

>  <PUBCHEM_MMFF94_PARTIAL_CHARGES>  (1) 
38
1 1.51
10 -0.14
11 -0.14
12 -0.15
13 -0.15
14 -0.15
15 -0.15
16 -0.15
17 -0.15
18 0.14
19 0.14
2 -0.35
20 0.14
21 -0.15
22 -0.15
23 -0.15
24 -0.15
25 -0.15
26 -0.15
27 0.15
28 0.15
29 0.15
3 -0.35
30 0.15
31 0.15
32 0.15
4 -0.35
42 0.15
43 0.15
44 0.15
45 0.15
46 0.15
47 0.15
5 -0.7
6 0.08
7 0.08
8 0.08
9 -0.14

>  <PUBCHEM_EFFECTIVE_ROTOR_COUNT>  (1) 
6

>  <PUBCHEM_PHARMACOPHORE_FEATURES>  (1) 
4
1 5 acceptor
6 6 9 12 15 21 24 rings
6 7 10 13 16 22 25 rings
6 8 11 14 17 23 26 rings

>  <PUBCHEM_HEAVY_ATOM_COUNT>  (1) 
26

>  <PUBCHEM_ATOM_DEF_STEREO_COUNT>  (1) 
0

>  <PUBCHEM_ATOM_UDEF_STEREO_COUNT>  (1) 
0

>  <PUBCHEM_BOND_DEF_STEREO_COUNT>  (1) 
0

>  <PUBCHEM_BOND_UDEF_STEREO_COUNT>  (1) 
0

>  <PUBCHEM_ISOTOPIC_ATOM_COUNT>  (1) 
0

>  <PUBCHEM_COMPONENT_COUNT>  (1) 
1

>  <PUBCHEM_CACTVS_TAUTO_COUNT>  (1) 
1

>  <PUBCHEM_CONFORMER_ID>  (1) 
0000197F00000001

>  <PUBCHEM_MMFF94_ENERGY>  (1) 
70.9888

>  <PUBCHEM_FEATURE_SELFOVERLAP>  (1) 
20.298

>  <PUBCHEM_SHAPE_FINGERPRINT>  (1) 
10074138 170 17760070835659522043
1100329 8 18266180531136482113
11062273 19 18193838369074763204
11578080 2 15481295737085282625
12553582 1 18266479653532230411
12788726 201 18047184159548128706
13004483 165 18268416945828524459
13540713 4 17483943893141775082
13757389 114 17330019905613833422
138480 1 18410856585409593406
140371 6 18410575088958053065
14178342 30 17831287303946552130
14866123 147 17401485944773874259
14955137 171 18266177413047610898
15230672 131 17541943535276356316
15664445 248 18270419264356428846
15775530 1 17899383597748725405
15927050 60 17474108082830696748
19591789 44 16681759862346917263
20600515 1 17897142668459855198
20642791 13 18198051474357482499
21120745 212 18195546808903590444
21796203 349 18119843366998951538
23419403 2 17679834219546493574
23558518 356 17762054346252245446
23559900 14 18336821008998749619
255183 313 17550680915361365921
3187 122 18193532533592435792
3298306 158 17904205080721735828
38695281 34 17906167709119870904
6004065 56 18339624729548751319
6442390 28 16969429513607298980
6669772 16 17765453315072647980
6679774 75 17755563186838139656
7399639 24 17541953426158160355
77188 2 18410856533869986004
7808743 9 17688882939126044198
81228 2 18194401087073550528
9777508 108 17619906158708280778
9925002 15 18121518855300080492
9981440 41 17617371123397940891

>  <PUBCHEM_SHAPE_MULTIPOLES>  (1) 
515.44
7.68
7.64
1.31
5.36
9.69
-0.08
-9.76
-0.62
-5.35
-0.62
0
0
0.01

>  <PUBCHEM_SHAPE_SELFOVERLAP>  (1) 
1095.104

>  <PUBCHEM_SHAPE_VOLUME>  (1) 
287.7

>  <PUBCHEM_COORDINATE_TYPE>  (1) 
2
5
10

$$$$
