6530
     RDKit          3D

 35 37  0  0  0  0  0  0  0  0999 V2000
    0.0005    0.0031   -0.1796 P   0  0  0  0  0  0  0  0  0  0  0  0
   -1.4561    0.1175    0.5130 O   0  0  0  0  0  0  0  0  0  0  0  0
    0.6300   -1.3147    0.5141 O   0  0  0  0  0  0  0  0  0  0  0  0
    0.8261    1.2155    0.5110 O   0  0  0  0  0  0  0  0  0  0  0  0
    0.0004    0.0022   -1.6828 O   0  0  0  0  0  0  0  0  0  0  0  0
   -5.6714   -3.5676   -0.1826 C   0  0  0  0  0  0  0  0  0  0  0  0
    5.9285   -3.1238   -0.1824 C   0  0  0  0  0  0  0  0  0  0  0  0
   -0.2625    6.7073   -0.1865 C   0  0  0  0  0  0  0  0  0  0  0  0
   -4.5572   -2.5938    0.0016 C   0  0  0  0  0  0  0  0  0  0  0  0
    4.5282   -2.6455    0.0020 C   0  0  0  0  0  0  0  0  0  0  0  0
    0.0340    5.2105    0.0040 C   0  0  0  0  0  0  0  0  0  0  0  0
   -5.3579   -4.7764   -1.1256 C   0  0  0  0  0  0  0  0  0  0  0  0
   -6.0990   -4.2024    1.1771 C   0  0  0  0  0  0  0  0  0  0  0  0
   -6.9296   -2.8784   -0.7960 C   0  0  0  0  0  0  0  0  0  0  0  0
    5.9603   -4.5588   -0.7943 C   0  0  0  0  0  0  0  0  0  0  0  0
    6.8183   -2.2491   -1.1269 C   0  0  0  0  0  0  0  0  0  0  0  0
    6.6928   -3.1754    1.1769 C   0  0  0  0  0  0  0  0  0  0  0  0
   -1.4581    6.9936   -1.1230 C   0  0  0  0  0  0  0  0  0  0  0  0
   -0.5889    7.3503    1.1789 C   0  0  0  0  0  0  0  0  0  0  0  0
    0.9715    7.4078   -0.7955 C   0  0  0  0  0  0  0  0  0  0  0  0
   -3.3399   -2.7960   -0.6490 C   0  0  0  0  0  0  0  0  0  0  0  0
    4.0944   -1.4909   -0.6497 C   0  0  0  0  0  0  0  0  0  0  0  0
   -0.7584    4.3018   -0.6513 C   0  0  0  0  0  0  0  0  0  0  0  0
   -4.7322   -1.4806    0.8236 C   0  0  0  0  0  0  0  0  0  0  0  0
    3.6521   -3.3528    0.8252 C   0  0  0  0  0  0  0  0  0  0  0  0
    1.0775    4.8521    0.8195 C   0  0  0  0  0  0  0  0  0  0  0  0
   -2.4783   -0.7765    0.3435 C   0  0  0  0  0  0  0  0  0  0  0  0
    1.9152   -1.7533    0.3443 C   0  0  0  0  0  0  0  0  0  0  0  0
    0.5633    2.5401    0.3420 C   0  0  0  0  0  0  0  0  0  0  0  0
   -2.2977   -1.8848   -0.4775 C   0  0  0  0  0  0  0  0  0  0  0  0
    2.7844   -1.0437   -0.4779 C   0  0  0  0  0  0  0  0  0  0  0  0
   -0.4892    2.9440   -0.4793 C   0  0  0  0  0  0  0  0  0  0  0  0
   -3.6899   -0.5695    0.9949 C   0  0  0  0  0  0  0  0  0  0  0  0
    2.3420   -2.9055    0.9968 C   0  0  0  0  0  0  0  0  0  0  0  0
    1.3467    3.4941    0.9913 C   0  0  0  0  0  0  0  0  0  0  0  0
  1  2  1  0
  1  3  1  0
  1  4  1  0
  1  5  2  0
  2 27  1  0
  3 28  1  0
  4 29  1  0
  6  9  1  0
  6 12  1  0
  6 13  1  0
  6 14  1  0
  7 10  1  0
  7 15  1  0
  7 16  1  0
  7 17  1  0
  8 11  1  0
  8 18  1  0
  8 19  1  0
  8 20  1  0
  9 21  2  0
  9 24  1  0
 10 22  2  0
 10 25  1  0
 11 23  2  0
 11 26  1  0
 21 30  1  0
 22 31  1  0
 23 32  1  0
 24 33  2  0
 25 34  2  0
 26 35  2  0
 27 30  2  0
 27 33  1  0
 28 31  2  0
 28 34  1  0
 29 32  2  0
 29 35  1  0
M  END
>  <PUBCHEM_COMPOUND_CID>  (1) 
6530

>  <PUBCHEM_CONFORMER_RMSD>  (1) 
1

>  <PUBCHEM_CONFORMER_DIVERSEORDER>  (1) 
1
5
8
7
2
4
9
10
3
6

>  <PUBCHEM_MMFF94_PARTIAL_CHARGES>  (1) 
38
1 1.51
10 -0.14
11 -0.14
2 -0.35
21 -0.15
22 -0.15
23 -0.15
24 -0.15
25 -0.15
26 -0.15
27 0.08
28 0.08
29 0.08
3 -0.35
30 -0.15
31 -0.15
32 -0.15
33 -0.15
34 -0.15
35 -0.15
4 -0.35
5 -0.7
6 0.14
63 0.15
64 0.15
65 0.15
66 0.15
67 0.15
68 0.15
69 0.15
7 0.14
70 0.15
71 0.15
72 0.15
73 0.15
74 0.15
8 0.14
9 -0.14

>  <PUBCHEM_EFFECTIVE_ROTOR_COUNT>  (1) 
9

>  <PUBCHEM_PHARMACOPHORE_FEATURES>  (1) 
7
1 5 acceptor
4 6 12 13 14 hydrophobe
4 7 15 16 17 hydrophobe
4 8 18 19 20 hydrophobe
6 10 22 25 28 31 34 rings
6 11 23 26 29 32 35 rings
6 9 21 24 27 30 33 rings

>  <PUBCHEM_HEAVY_ATOM_COUNT>  (1) 
35

>  <PUBCHEM_ATOM_DEF_STEREO_COUNT>  (1) 
0

>  <PUBCHEM_ATOM_UDEF_STEREO_COUNT>  (1) 
0

>  <PUBCHEM_BOND_DEF_STEREO_COUNT>  (1) 
0

>  <PUBCHEM_BOND_UDEF_STEREO_COUNT>  (1) 
0

>  <PUBCHEM_ISOTOPIC_ATOM_COUNT>  (1) 
0

>  <PUBCHEM_COMPONENT_COUNT>  (1) 
1

>  <PUBCHEM_CACTVS_TAUTO_COUNT>  (1) 
1

>  <PUBCHEM_CONFORMER_ID>  (1) 
0000198200000001

>  <PUBCHEM_MMFF94_ENERGY>  (1) 
123.8907

>  <PUBCHEM_FEATURE_SELFOVERLAP>  (1) 
35.522

>  <PUBCHEM_SHAPE_FINGERPRINT>  (1) 
10010297 198 17622444261211879127
10290309 65 17403749843282916683
10319688 45 18339081471592380155
10411042 1 18411136935126692570
11062273 19 18411138081887644644
11062273 23 18047467820752266473
11763715 3 18265355970165980134
12440610 7 17693657013976197526
12522641 68 17400082972473690974
12758862 56 18335421258173193115
12788726 201 18045499716318938658
13248334 5 18122344850245287948
13540713 5 17914910957677209683
13835254 42 18410291381474567626
13955234 65 17977671132223071051
14068700 675 18333734585723937854
14190465 44 17690539907427914762
14394314 77 18410863148299535203
15064981 194 18048328752001359276
15198563 99 18340488850787154190
15347591 1 18122625227120015863
15400415 2 17186157016886702825
15705408 1 18266740375136803446
15979999 66 18411133670977259028
15980000 95 18410860962060707708
16090146 7 16759438173286575554
16114785 44 17765145077785476037
18365409 1 17904486203437561588
18393751 57 17185039363169960184
19302320 297 18269016228234351009
21796203 349 17976860671842218619
23559900 14 18265327494960614603
23729398 52 18120385508098936948
23729417 116 18410576184195884326
23929065 36 18193822757638996666
24771750 20 17612879609497538820
25019877 29 17181667173422903916
255183 451 18342739662821937287
3103668 31 18192994816608892461
32027 91 18264768934369109851
3388396 114 18119559698105842452
3504750 166 18047749296310316786
3534868 343 18334873718599093350
3627633 1 18338517421910955638
4058900 60 17474963494144747201
4409770 3 18048599214191721089
44426701 196 17540772451990618669
504843 32 17688312283299647932
5219985 13 17185310946810081740
563151 97 17115218729749080391
6058803 2 17913781784862842875
6673363 416 18338814360136515606
6695519 79 16967482837129776195
6697151 62 18193248950008854967
6700243 42 17842308911703491926
6898599 12 17904490606480055484
77188 2 18410575114727856583
9981440 41 17256532920152546000

>  <PUBCHEM_SHAPE_MULTIPOLES>  (1) 
700.66
14.26
14.21
1.19
2.26
38.35
-0.01
-38.73
-1.14
-2.22
-1.12
0
0
0

>  <PUBCHEM_SHAPE_SELFOVERLAP>  (1) 
1468.189

>  <PUBCHEM_SHAPE_VOLUME>  (1) 
403.8

>  <PUBCHEM_COORDINATE_TYPE>  (1) 
2
5
10

$$$$
