6559
     RDKit          3D

  5  4  0  0  0  0  0  0  0  0999 V2000
    2.0388    0.0000   -0.1402 N   0  0  0  0  0  0  0  0  0  0  0  0
   -0.5408    0.0000    0.3923 C   0  0  0  0  0  0  0  0  0  0  0  0
   -1.2001    1.2558   -0.1725 C   0  0  0  0  0  0  0  0  0  0  0  0
   -1.1999   -1.2558   -0.1725 C   0  0  0  0  0  0  0  0  0  0  0  0
    0.9020    0.0002    0.0930 C   0  0  0  0  0  0  0  0  0  0  0  0
  1  5  3  0
  2  3  1  0
  2  4  1  0
  2  5  1  0
M  END
>  <PUBCHEM_COMPOUND_CID>  (1) 
6559

>  <PUBCHEM_CONFORMER_RMSD>  (1) 
0.4

>  <PUBCHEM_CONFORMER_DIVERSEORDER>  (1) 
1

>  <PUBCHEM_MMFF94_PARTIAL_CHARGES>  (1) 
3
1 -0.56
2 0.2
5 0.36

>  <PUBCHEM_EFFECTIVE_ROTOR_COUNT>  (1) 
0

>  <PUBCHEM_PHARMACOPHORE_FEATURES>  (1) 
2
1 1 acceptor
3 2 3 4 hydrophobe

>  <PUBCHEM_HEAVY_ATOM_COUNT>  (1) 
5

>  <PUBCHEM_ATOM_DEF_STEREO_COUNT>  (1) 
0

>  <PUBCHEM_ATOM_UDEF_STEREO_COUNT>  (1) 
0

>  <PUBCHEM_BOND_DEF_STEREO_COUNT>  (1) 
0

>  <PUBCHEM_BOND_UDEF_STEREO_COUNT>  (1) 
0

>  <PUBCHEM_ISOTOPIC_ATOM_COUNT>  (1) 
0

>  <PUBCHEM_COMPONENT_COUNT>  (1) 
1

>  <PUBCHEM_CACTVS_TAUTO_COUNT>  (1) 
1

>  <PUBCHEM_CONFORMER_ID>  (1) 
0000199F00000001

>  <PUBCHEM_MMFF94_ENERGY>  (1) 
0.8075

>  <PUBCHEM_FEATURE_SELFOVERLAP>  (1) 
10.148

>  <PUBCHEM_SHAPE_FINGERPRINT>  (1) 
139733 1 8645956354492272003
16714656 1 18410860962250286861
20096714 4 18117279155447630952
21015797 1 9871745823366272131
21040471 1 18194678172604422441
24536 1 17346884429339760560
29004967 10 17976260462730200187
5943 1 11836744145058649553

>  <PUBCHEM_SHAPE_MULTIPOLES>  (1) 
97.92
2.09
1.26
0.65
1.1
0
-0.02
0
0.18
-0.76
0.11
-0.05
0
0

>  <PUBCHEM_SHAPE_SELFOVERLAP>  (1) 
170.66

>  <PUBCHEM_SHAPE_VOLUME>  (1) 
64

>  <PUBCHEM_COORDINATE_TYPE>  (1) 
2
5
10

$$$$
