6563
     RDKit          3D

  5  4  0  0  1  0  0  0  0  0999 V2000
   -0.6696    1.6172    0.1282 Cl  0  0  0  0  0  0  0  0  0  0  0  0
   -0.4716   -0.0941   -0.3569 C   0  0  0  0  0  0  0  0  0  0  0  0
    0.7907   -0.7006    0.2672 C   0  0  0  0  0  0  0  0  0  0  0  0
   -1.7163   -0.8703    0.0565 C   0  0  0  0  0  0  0  0  0  0  0  0
    2.0668    0.0478   -0.0952 C   0  0  0  0  0  0  0  0  0  0  0  0
  1  2  1  0
  2  3  1  0
  2  4  1  0
  3  5  1  0
M  END
>  <PUBCHEM_COMPOUND_CID>  (1) 
6563

>  <PUBCHEM_CONFORMER_RMSD>  (1) 
0.4

>  <PUBCHEM_CONFORMER_DIVERSEORDER>  (1) 
1
4
5
6
3
2

>  <PUBCHEM_MMFF94_PARTIAL_CHARGES>  (1) 
2
1 -0.29
2 0.29

>  <PUBCHEM_EFFECTIVE_ROTOR_COUNT>  (1) 
1

>  <PUBCHEM_PHARMACOPHORE_FEATURES>  (1) 
1
1 5 hydrophobe

>  <PUBCHEM_HEAVY_ATOM_COUNT>  (1) 
5

>  <PUBCHEM_ATOM_DEF_STEREO_COUNT>  (1) 
0

>  <PUBCHEM_ATOM_UDEF_STEREO_COUNT>  (1) 
1

>  <PUBCHEM_BOND_DEF_STEREO_COUNT>  (1) 
0

>  <PUBCHEM_BOND_UDEF_STEREO_COUNT>  (1) 
0

>  <PUBCHEM_ISOTOPIC_ATOM_COUNT>  (1) 
0

>  <PUBCHEM_COMPONENT_COUNT>  (1) 
1

>  <PUBCHEM_CACTVS_TAUTO_COUNT>  (1) 
1

>  <PUBCHEM_CONFORMER_ID>  (1) 
000019A300000001

>  <PUBCHEM_MMFF94_ENERGY>  (1) 
0.3144

>  <PUBCHEM_FEATURE_SELFOVERLAP>  (1) 
5.074

>  <PUBCHEM_SHAPE_FINGERPRINT>  (1) 
139733 1 9439135255298374335
16714656 1 18343869939104606438
20096714 4 17978229353116591472
21015797 1 9799393555790590751
21040471 1 17907295455588220504
24536 1 18266161843279524902
29004967 10 18337675342070137459
5460574 1 9871479720040811390
5943 1 15674853527783879253

>  <PUBCHEM_SHAPE_MULTIPOLES>  (1) 
104.77
2.3
1.43
0.67
0.82
0.64
0
-0.39
-0.02
-0.58
0.1
0
0
-0.05

>  <PUBCHEM_SHAPE_SELFOVERLAP>  (1) 
168.503

>  <PUBCHEM_SHAPE_VOLUME>  (1) 
75.2

>  <PUBCHEM_COORDINATE_TYPE>  (1) 
2
5
10

$$$$
