6566
     RDKit          3D

  5  4  0  0  1  0  0  0  0  0999 V2000
    0.6151    1.6196    0.1318 Cl  0  0  0  0  0  0  0  0  0  0  0  0
   -1.9540    0.0294   -0.1193 O   0  0  0  0  0  0  0  0  0  0  0  0
    0.4421   -0.0971   -0.3530 C   0  0  0  0  0  0  0  0  0  0  0  0
   -0.8025   -0.6960    0.2944 C   0  0  0  0  0  0  0  0  0  0  0  0
    1.6993   -0.8559    0.0460 C   0  0  0  0  0  0  0  0  0  0  0  0
  1  3  1  0
  2  4  1  0
  3  4  1  0
  3  5  1  0
M  END
>  <PUBCHEM_COMPOUND_CID>  (1) 
6566

>  <PUBCHEM_CONFORMER_RMSD>  (1) 
0.4

>  <PUBCHEM_CONFORMER_DIVERSEORDER>  (1) 
1
3
6
4
5
2

>  <PUBCHEM_MMFF94_PARTIAL_CHARGES>  (1) 
5
1 -0.29
12 0.4
2 -0.68
3 0.29
4 0.28

>  <PUBCHEM_EFFECTIVE_ROTOR_COUNT>  (1) 
1

>  <PUBCHEM_PHARMACOPHORE_FEATURES>  (1) 
2
1 2 acceptor
1 2 donor

>  <PUBCHEM_HEAVY_ATOM_COUNT>  (1) 
5

>  <PUBCHEM_ATOM_DEF_STEREO_COUNT>  (1) 
0

>  <PUBCHEM_ATOM_UDEF_STEREO_COUNT>  (1) 
1

>  <PUBCHEM_BOND_DEF_STEREO_COUNT>  (1) 
0

>  <PUBCHEM_BOND_UDEF_STEREO_COUNT>  (1) 
0

>  <PUBCHEM_ISOTOPIC_ATOM_COUNT>  (1) 
0

>  <PUBCHEM_COMPONENT_COUNT>  (1) 
1

>  <PUBCHEM_CACTVS_TAUTO_COUNT>  (1) 
1

>  <PUBCHEM_CONFORMER_ID>  (1) 
000019A600000001

>  <PUBCHEM_MMFF94_ENERGY>  (1) 
2.664

>  <PUBCHEM_FEATURE_SELFOVERLAP>  (1) 
10.148

>  <PUBCHEM_SHAPE_FINGERPRINT>  (1) 
139733 1 9439109949393270814
16714656 1 18197506125354204590
20096714 4 18125445468740837345
21015797 1 9940938055647577270
24536 1 17096647810529757215
29004967 10 18410578366171314386
5943 1 11425831339500717236

>  <PUBCHEM_SHAPE_MULTIPOLES>  (1) 
98.9
2.02
1.46
0.66
0.59
0.68
-0.01
-0.44
0.01
-0.53
-0.11
-0.03
0
0.05

>  <PUBCHEM_SHAPE_SELFOVERLAP>  (1) 
160.442

>  <PUBCHEM_SHAPE_VOLUME>  (1) 
70.2

>  <PUBCHEM_COORDINATE_TYPE>  (1) 
2
5
10

$$$$
