6567
     RDKit          3D

  5  4  0  0  1  0  0  0  0  0999 V2000
   -1.6322   -0.8219   -0.0419 N   0  0  0  0  0  0  0  0  0  0  0  0
    2.0029    0.0783    0.0955 N   0  0  0  0  0  0  0  0  0  0  0  0
   -0.4703   -0.0147    0.3401 C   0  0  0  0  0  0  0  0  0  0  0  0
    0.7920   -0.6603   -0.2508 C   0  0  0  0  0  0  0  0  0  0  0  0
   -0.6925    1.4186   -0.1428 C   0  0  0  0  0  0  0  0  0  0  0  0
  1  3  1  0
  2  4  1  0
  3  4  1  0
  3  5  1  0
M  END
>  <PUBCHEM_COMPOUND_CID>  (1) 
6567

>  <PUBCHEM_CONFORMER_RMSD>  (1) 
0.4

>  <PUBCHEM_CONFORMER_DIVERSEORDER>  (1) 
2
5
6
4
1
3

>  <PUBCHEM_MMFF94_PARTIAL_CHARGES>  (1) 
8
1 -0.99
12 0.36
13 0.36
14 0.36
15 0.36
2 -0.99
3 0.27
4 0.27

>  <PUBCHEM_EFFECTIVE_ROTOR_COUNT>  (1) 
1

>  <PUBCHEM_PHARMACOPHORE_FEATURES>  (1) 
4
1 1 cation
1 1 donor
1 2 cation
1 2 donor

>  <PUBCHEM_HEAVY_ATOM_COUNT>  (1) 
5

>  <PUBCHEM_ATOM_DEF_STEREO_COUNT>  (1) 
0

>  <PUBCHEM_ATOM_UDEF_STEREO_COUNT>  (1) 
1

>  <PUBCHEM_BOND_DEF_STEREO_COUNT>  (1) 
0

>  <PUBCHEM_BOND_UDEF_STEREO_COUNT>  (1) 
0

>  <PUBCHEM_ISOTOPIC_ATOM_COUNT>  (1) 
0

>  <PUBCHEM_COMPONENT_COUNT>  (1) 
1

>  <PUBCHEM_CACTVS_TAUTO_COUNT>  (1) 
1

>  <PUBCHEM_CONFORMER_ID>  (1) 
000019A700000002

>  <PUBCHEM_MMFF94_ENERGY>  (1) 
-6.4476

>  <PUBCHEM_FEATURE_SELFOVERLAP>  (1) 
20.297

>  <PUBCHEM_SHAPE_FINGERPRINT>  (1) 
139733 1 9150904861982591683
16714656 1 18342746264117384726
20096714 4 17904766570254375128
21015797 1 9799392421982469683
21040471 1 17977104552600135300
24536 1 17345189991663831874
29004967 10 18264215866548958451
5943 1 10210699295153401301

>  <PUBCHEM_SHAPE_MULTIPOLES>  (1) 
92.94
2
1.23
0.63
0.76
0.3
0
-0.13
0.01
-0.49
-0.08
-0.01
0.01
0.06

>  <PUBCHEM_SHAPE_SELFOVERLAP>  (1) 
155.898

>  <PUBCHEM_SHAPE_VOLUME>  (1) 
63.1

>  <PUBCHEM_COORDINATE_TYPE>  (1) 
2
5
10

$$$$
