6573
     RDKit          3D

  5  4  0  0  0  0  0  0  0  0999 V2000
    1.1173   -1.4576   -0.3085 Cl  0  0  0  0  0  0  0  0  0  0  0  0
    1.1172    1.4576   -0.3086 Cl  0  0  0  0  0  0  0  0  0  0  0  0
   -0.9864    0.0000    0.6912 C   0  0  0  0  0  0  0  0  0  0  0  0
    0.5363    0.0001    0.5338 C   0  0  0  0  0  0  0  0  0  0  0  0
   -1.7845   -0.0001   -0.6080 C   0  0  0  0  0  0  0  0  0  0  0  0
  1  4  1  0
  2  4  1  0
  3  4  1  0
  3  5  1  0
M  END
>  <PUBCHEM_COMPOUND_CID>  (1) 
6573

>  <PUBCHEM_CONFORMER_RMSD>  (1) 
0.4

>  <PUBCHEM_CONFORMER_DIVERSEORDER>  (1) 
1
2
3

>  <PUBCHEM_MMFF94_PARTIAL_CHARGES>  (1) 
3
1 -0.29
2 -0.29
4 0.58

>  <PUBCHEM_EFFECTIVE_ROTOR_COUNT>  (1) 
1

>  <PUBCHEM_PHARMACOPHORE_FEATURES>  (1) 
1
1 5 hydrophobe

>  <PUBCHEM_HEAVY_ATOM_COUNT>  (1) 
5

>  <PUBCHEM_ATOM_DEF_STEREO_COUNT>  (1) 
0

>  <PUBCHEM_ATOM_UDEF_STEREO_COUNT>  (1) 
0

>  <PUBCHEM_BOND_DEF_STEREO_COUNT>  (1) 
0

>  <PUBCHEM_BOND_UDEF_STEREO_COUNT>  (1) 
0

>  <PUBCHEM_ISOTOPIC_ATOM_COUNT>  (1) 
0

>  <PUBCHEM_COMPONENT_COUNT>  (1) 
1

>  <PUBCHEM_CACTVS_TAUTO_COUNT>  (1) 
1

>  <PUBCHEM_CONFORMER_ID>  (1) 
000019AD00000001

>  <PUBCHEM_MMFF94_ENERGY>  (1) 
0.1498

>  <PUBCHEM_FEATURE_SELFOVERLAP>  (1) 
5.074

>  <PUBCHEM_SHAPE_FINGERPRINT>  (1) 
139733 1 7996811290781197274
16714656 1 17258789113653951208
20096714 4 17970060265016172400
24536 1 18409726261966049913
29004967 10 18265340516499018098
5943 1 15021385841382048320

>  <PUBCHEM_SHAPE_MULTIPOLES>  (1) 
106.64
2.01
1.53
0.89
0.77
0
0.03
0
-0.37
-0.98
-0.26
0.15
0
0

>  <PUBCHEM_SHAPE_SELFOVERLAP>  (1) 
165.529

>  <PUBCHEM_SHAPE_VOLUME>  (1) 
76.1

>  <PUBCHEM_COORDINATE_TYPE>  (1) 
2
5
10

$$$$
