6577
     RDKit          3D

  5  4  0  0  0  0  0  0  0  0999 V2000
   -2.2058   -0.0907   -0.0071 Cl  0  0  0  0  0  0  0  0  0  0  0  0
    2.0560   -0.5854   -0.0058 Cl  0  0  0  0  0  0  0  0  0  0  0  0
    0.2811    1.3779    0.0024 O   0  0  0  0  0  0  0  0  0  0  0  0
   -0.6147   -0.8701    0.0088 C   0  0  0  0  0  0  0  0  0  0  0  0
    0.4834    0.1682    0.0018 C   0  0  0  0  0  0  0  0  0  0  0  0
  1  4  1  0
  2  5  1  0
  3  5  2  0
  4  5  1  0
M  END
>  <PUBCHEM_COMPOUND_CID>  (1) 
6577

>  <PUBCHEM_CONFORMER_RMSD>  (1) 
0.4

>  <PUBCHEM_CONFORMER_DIVERSEORDER>  (1) 
1
4
5
2
3
6

>  <PUBCHEM_MMFF94_PARTIAL_CHARGES>  (1) 
5
1 -0.29
2 -0.21
3 -0.57
4 0.35
5 0.72

>  <PUBCHEM_EFFECTIVE_ROTOR_COUNT>  (1) 
1

>  <PUBCHEM_PHARMACOPHORE_FEATURES>  (1) 
0

>  <PUBCHEM_HEAVY_ATOM_COUNT>  (1) 
5

>  <PUBCHEM_ATOM_DEF_STEREO_COUNT>  (1) 
0

>  <PUBCHEM_ATOM_UDEF_STEREO_COUNT>  (1) 
0

>  <PUBCHEM_BOND_DEF_STEREO_COUNT>  (1) 
0

>  <PUBCHEM_BOND_UDEF_STEREO_COUNT>  (1) 
0

>  <PUBCHEM_ISOTOPIC_ATOM_COUNT>  (1) 
0

>  <PUBCHEM_COMPONENT_COUNT>  (1) 
1

>  <PUBCHEM_CACTVS_TAUTO_COUNT>  (1) 
1

>  <PUBCHEM_CONFORMER_ID>  (1) 
000019B100000001

>  <PUBCHEM_MMFF94_ENERGY>  (1) 
3.7836

>  <PUBCHEM_FEATURE_SELFOVERLAP>  (1) 
0

>  <PUBCHEM_SHAPE_FINGERPRINT>  (1) 
139733 1 9223228546456011490
16714656 1 18339364063165687494
20096714 4 18266742565876078345
21015797 1 9581502224138718698
29004967 10 18408326592095732466
5460574 1 9295289438912875651
5943 1 8987602573321477248

>  <PUBCHEM_SHAPE_MULTIPOLES>  (1) 
100.77
2.78
1.12
0.61
0.33
0.26
0
-0.54
0.01
-0.1
0
0.01
-0.03
0

>  <PUBCHEM_SHAPE_SELFOVERLAP>  (1) 
162.358

>  <PUBCHEM_SHAPE_VOLUME>  (1) 
71.1

>  <PUBCHEM_COORDINATE_TYPE>  (1) 
2
5
10

$$$$
