6578
     RDKit          3D

  5  4  0  0  0  0  0  0  0  0999 V2000
    0.5255    1.3061   -0.0035 O   0  0  0  0  0  0  0  0  0  0  0  0
    1.6731   -0.6866    0.0086 N   0  0  0  0  0  0  0  0  0  0  0  0
   -0.7300   -0.7681   -0.0130 C   0  0  0  0  0  0  0  0  0  0  0  0
   -1.9952    0.0701    0.0104 C   0  0  0  0  0  0  0  0  0  0  0  0
    0.5266    0.0785   -0.0026 C   0  0  0  0  0  0  0  0  0  0  0  0
  1  5  2  0
  2  5  1  0
  3  4  1  0
  3  5  1  0
M  END
>  <PUBCHEM_COMPOUND_CID>  (1) 
6578

>  <PUBCHEM_CONFORMER_RMSD>  (1) 
0.4

>  <PUBCHEM_CONFORMER_DIVERSEORDER>  (1) 
1
4
2
3

>  <PUBCHEM_MMFF94_PARTIAL_CHARGES>  (1) 
6
1 -0.57
11 0.37
12 0.37
2 -0.8
3 0.06
5 0.57

>  <PUBCHEM_EFFECTIVE_ROTOR_COUNT>  (1) 
1

>  <PUBCHEM_PHARMACOPHORE_FEATURES>  (1) 
3
1 1 acceptor
1 2 donor
1 4 hydrophobe

>  <PUBCHEM_HEAVY_ATOM_COUNT>  (1) 
5

>  <PUBCHEM_ATOM_DEF_STEREO_COUNT>  (1) 
0

>  <PUBCHEM_ATOM_UDEF_STEREO_COUNT>  (1) 
0

>  <PUBCHEM_BOND_DEF_STEREO_COUNT>  (1) 
0

>  <PUBCHEM_BOND_UDEF_STEREO_COUNT>  (1) 
0

>  <PUBCHEM_ISOTOPIC_ATOM_COUNT>  (1) 
0

>  <PUBCHEM_COMPONENT_COUNT>  (1) 
1

>  <PUBCHEM_CACTVS_TAUTO_COUNT>  (1) 
2

>  <PUBCHEM_CONFORMER_ID>  (1) 
000019B200000001

>  <PUBCHEM_MMFF94_ENERGY>  (1) 
3.0322

>  <PUBCHEM_FEATURE_SELFOVERLAP>  (1) 
15.223

>  <PUBCHEM_SHAPE_FINGERPRINT>  (1) 
139733 1 9295279547645300034
16714656 1 18268155266387365942
20096714 4 18339364196420365417
21015797 1 8932239508393746902
29004967 10 18335425646822010850
5460574 1 9223230749721545283
5943 1 9563774145445160576

>  <PUBCHEM_SHAPE_MULTIPOLES>  (1) 
92.05
2.15
1.06
0.58
0.57
0.21
0
-0.22
-0.01
-0.2
0
0.04
-0.01
0

>  <PUBCHEM_SHAPE_SELFOVERLAP>  (1) 
161.115

>  <PUBCHEM_SHAPE_VOLUME>  (1) 
61.1

>  <PUBCHEM_COORDINATE_TYPE>  (1) 
2
5
10

$$$$
