6589
     RDKit          3D

  6  5  0  0  0  0  0  0  0  0999 V2000
    0.7182    0.2945   -0.3661 C   0  0  0  0  0  0  0  0  0  0  0  0
   -0.7182   -0.2944   -0.3659 C   0  0  0  0  0  0  0  0  0  0  0  0
    1.0257    1.1919    0.8359 C   0  0  0  0  0  0  0  0  0  0  0  0
    1.7804   -0.8053   -0.4699 C   0  0  0  0  0  0  0  0  0  0  0  0
   -1.0254   -1.1919    0.8359 C   0  0  0  0  0  0  0  0  0  0  0  0
   -1.7806    0.8052   -0.4698 C   0  0  0  0  0  0  0  0  0  0  0  0
  1  2  1  0
  1  3  1  0
  1  4  1  0
  2  5  1  0
  2  6  1  0
M  END
>  <PUBCHEM_COMPOUND_CID>  (1) 
6589

>  <PUBCHEM_CONFORMER_RMSD>  (1) 
0.4

>  <PUBCHEM_CONFORMER_DIVERSEORDER>  (1) 
1
2
3

>  <PUBCHEM_MMFF94_PARTIAL_CHARGES>  (1) 
0

>  <PUBCHEM_EFFECTIVE_ROTOR_COUNT>  (1) 
1

>  <PUBCHEM_PHARMACOPHORE_FEATURES>  (1) 
2
3 1 3 4 hydrophobe
3 2 5 6 hydrophobe

>  <PUBCHEM_HEAVY_ATOM_COUNT>  (1) 
6

>  <PUBCHEM_ATOM_DEF_STEREO_COUNT>  (1) 
0

>  <PUBCHEM_ATOM_UDEF_STEREO_COUNT>  (1) 
0

>  <PUBCHEM_BOND_DEF_STEREO_COUNT>  (1) 
0

>  <PUBCHEM_BOND_UDEF_STEREO_COUNT>  (1) 
0

>  <PUBCHEM_ISOTOPIC_ATOM_COUNT>  (1) 
0

>  <PUBCHEM_COMPONENT_COUNT>  (1) 
1

>  <PUBCHEM_CACTVS_TAUTO_COUNT>  (1) 
1

>  <PUBCHEM_CONFORMER_ID>  (1) 
000019BD00000001

>  <PUBCHEM_MMFF94_ENERGY>  (1) 
6.4127

>  <PUBCHEM_FEATURE_SELFOVERLAP>  (1) 
10.182

>  <PUBCHEM_SHAPE_FINGERPRINT>  (1) 
137420 1 14210207548903878447
16714656 1 17531538572250223695
20096714 4 18341602690404418173
21040471 1 17895747405347166253
24536 1 18042116725187677885
29004967 10 18060424577569916894
5943 1 16099473149988438040

>  <PUBCHEM_SHAPE_MULTIPOLES>  (1) 
123.48
2.2
1.33
0.97
0
0
0.14
0
-0.27
0
0.28
0
0
0.54

>  <PUBCHEM_SHAPE_SELFOVERLAP>  (1) 
212.669

>  <PUBCHEM_SHAPE_VOLUME>  (1) 
85.1

>  <PUBCHEM_COORDINATE_TYPE>  (1) 
2
5
10

$$$$
