6593
     RDKit          3D

  6  5  0  0  0  0  0  0  0  0999 V2000
    1.4867   -1.4626    0.0883 Cl  0  0  0  0  0  0  0  0  0  0  0  0
    1.4928    1.4589    0.0913 Cl  0  0  0  0  0  0  0  0  0  0  0  0
   -2.0839    0.0001    0.8845 Cl  0  0  0  0  0  0  0  0  0  0  0  0
   -0.7804    0.0024   -1.4199 O   0  0  0  0  0  0  0  0  0  0  0  0
    0.6004   -0.0005    0.5486 C   0  0  0  0  0  0  0  0  0  0  0  0
   -0.7156    0.0017   -0.1929 C   0  0  0  0  0  0  0  0  0  0  0  0
  1  5  1  0
  2  5  1  0
  3  6  1  0
  4  6  2  0
  5  6  1  0
M  END
>  <PUBCHEM_COMPOUND_CID>  (1) 
6593

>  <PUBCHEM_CONFORMER_RMSD>  (1) 
0.4

>  <PUBCHEM_CONFORMER_DIVERSEORDER>  (1) 
1
5
2
4
3
6

>  <PUBCHEM_MMFF94_PARTIAL_CHARGES>  (1) 
6
1 -0.29
2 -0.29
3 -0.21
4 -0.57
5 0.64
6 0.72

>  <PUBCHEM_EFFECTIVE_ROTOR_COUNT>  (1) 
1

>  <PUBCHEM_PHARMACOPHORE_FEATURES>  (1) 
0

>  <PUBCHEM_HEAVY_ATOM_COUNT>  (1) 
6

>  <PUBCHEM_ATOM_DEF_STEREO_COUNT>  (1) 
0

>  <PUBCHEM_ATOM_UDEF_STEREO_COUNT>  (1) 
0

>  <PUBCHEM_BOND_DEF_STEREO_COUNT>  (1) 
0

>  <PUBCHEM_BOND_UDEF_STEREO_COUNT>  (1) 
0

>  <PUBCHEM_ISOTOPIC_ATOM_COUNT>  (1) 
0

>  <PUBCHEM_COMPONENT_COUNT>  (1) 
1

>  <PUBCHEM_CACTVS_TAUTO_COUNT>  (1) 
1

>  <PUBCHEM_CONFORMER_ID>  (1) 
000019C100000001

>  <PUBCHEM_MMFF94_ENERGY>  (1) 
5.5503

>  <PUBCHEM_FEATURE_SELFOVERLAP>  (1) 
0

>  <PUBCHEM_SHAPE_FINGERPRINT>  (1) 
137420 1 13937261367893907792
20096714 4 17917156116305215185
24536 1 18264468672502774337
29004967 10 18265052440336921642
5943 1 17631146663441723942

>  <PUBCHEM_SHAPE_MULTIPOLES>  (1) 
123.22
2.44
1.4
1.05
0.85
0
-0.29
0
0.57
-1.13
0.1
0.36
0
0

>  <PUBCHEM_SHAPE_SELFOVERLAP>  (1) 
200.461

>  <PUBCHEM_SHAPE_VOLUME>  (1) 
86.5

>  <PUBCHEM_COORDINATE_TYPE>  (1) 
2
5
10

$$$$
