6606
     RDKit          3D

 31 34  0  0  1  0  0  0  0  0999 V2000
   -5.2586    2.2273    1.2416 O   0  0  0  0  0  0  0  0  0  0  0  0
    1.5726   -1.0702    0.3182 C   0  0  0  0  0  0  0  0  0  0  0  0
    0.5406   -1.7214   -0.6656 C   0  0  0  0  0  0  0  0  0  0  0  0
    2.8875   -1.7689   -0.1041 C   0  0  0  0  0  0  0  0  0  0  0  0
   -2.5006    0.5954    0.3507 C   0  0  0  0  0  0  0  0  0  0  0  0
   -0.8678   -1.2415   -0.3348 C   0  0  0  0  0  0  0  0  0  0  0  0
   -3.5871   -0.3054   -0.3343 C   0  0  0  0  0  0  0  0  0  0  0  0
   -1.0721    0.0417    0.0659 C   0  0  0  0  0  0  0  0  0  0  0  0
    0.9083   -3.2110   -0.5005 C   0  0  0  0  0  0  0  0  0  0  0  0
    1.5358    0.4447    0.1184 C   0  0  0  0  0  0  0  0  0  0  0  0
    2.4477   -3.2285   -0.3713 C   0  0  0  0  0  0  0  0  0  0  0  0
    0.1086    0.9978    0.3195 C   0  0  0  0  0  0  0  0  0  0  0  0
   -5.0881    0.1565   -0.1471 C   0  0  0  0  0  0  0  0  0  0  0  0
   -1.9837   -2.2355   -0.5396 C   0  0  0  0  0  0  0  0  0  0  0  0
   -3.3458   -1.7871   -0.0188 C   0  0  0  0  0  0  0  0  0  0  0  0
   -2.6608    2.0419   -0.2118 C   0  0  0  0  0  0  0  0  0  0  0  0
    4.0606   -1.6752    0.8644 C   0  0  0  0  0  0  0  0  0  0  0  0
    1.2805   -1.3729    1.8234 C   0  0  0  0  0  0  0  0  0  0  0  0
    0.7411   -1.3683   -2.1725 C   0  0  0  0  0  0  0  0  0  0  0  0
   -5.2010    1.7135   -0.0856 C   0  0  0  0  0  0  0  0  0  0  0  0
   -4.0368    2.3936   -0.7936 C   0  0  0  0  0  0  0  0  0  0  0  0
   -2.6231    0.6091    1.8944 C   0  0  0  0  0  0  0  0  0  0  0  0
   -5.8709   -0.3034   -1.4124 C   0  0  0  0  0  0  0  0  0  0  0  0
   -5.7945   -0.5109    1.0526 C   0  0  0  0  0  0  0  0  0  0  0  0
    4.5089   -0.2185    1.1106 C   0  0  0  0  0  0  0  0  0  0  0  0
    5.2427   -2.4904    0.3275 C   0  0  0  0  0  0  0  0  0  0  0  0
    4.9271    0.5601   -0.1446 C   0  0  0  0  0  0  0  0  0  0  0  0
    5.2954    1.9869    0.1532 C   0  0  0  0  0  0  0  0  0  0  0  0
    4.7968    3.1113   -0.3951 C   0  0  0  0  0  0  0  0  0  0  0  0
    5.2992    4.4597    0.0498 C   0  0  0  0  0  0  0  0  0  0  0  0
    3.7373    3.1698   -1.4583 C   0  0  0  0  0  0  0  0  0  0  0  0
  1 20  1  0
  2  3  1  0
  2  4  1  0
  2 10  1  0
  2 18  1  0
  3  6  1  0
  3  9  1  0
  3 19  1  0
  4 11  1  0
  4 17  1  0
  5  7  1  0
  5  8  1  0
  5 16  1  0
  5 22  1  0
  6  8  2  0
  6 14  1  0
  7 13  1  0
  7 15  1  0
  8 12  1  0
  9 11  1  0
 10 12  1  0
 13 20  1  0
 13 23  1  0
 13 24  1  0
 14 15  1  0
 16 21  1  0
 17 25  1  0
 17 26  1  0
 20 21  1  0
 25 27  1  0
 27 28  1  0
 28 29  2  3
 29 30  1  0
 29 31  1  0
M  END
>  <PUBCHEM_COMPOUND_CID>  (1) 
6606

>  <PUBCHEM_CONFORMER_RMSD>  (1) 
0.8

>  <PUBCHEM_CONFORMER_DIVERSEORDER>  (1) 
1
15
5
2
8
9
7
10
16
4
13
3
14
11
12
6

>  <PUBCHEM_MMFF94_PARTIAL_CHARGES>  (1) 
15
1 -0.68
12 0.14
14 0.14
20 0.28
27 0.14
28 -0.29
29 -0.28
3 0.14
30 0.14
31 0.14
5 0.14
6 -0.28
72 0.4
75 0.15
8 -0.28

>  <PUBCHEM_EFFECTIVE_ROTOR_COUNT>  (1) 
6.2

>  <PUBCHEM_PHARMACOPHORE_FEATURES>  (1) 
10
1 1 acceptor
1 1 donor
1 26 hydrophobe
3 13 23 24 hydrophobe
3 29 30 31 hydrophobe
4 17 25 27 28 hydrophobe
5 2 3 4 9 11 rings
6 2 3 6 8 10 12 rings
6 5 6 7 8 14 15 rings
6 5 7 13 16 20 21 rings

>  <PUBCHEM_HEAVY_ATOM_COUNT>  (1) 
31

>  <PUBCHEM_ATOM_DEF_STEREO_COUNT>  (1) 
6

>  <PUBCHEM_ATOM_UDEF_STEREO_COUNT>  (1) 
1

>  <PUBCHEM_BOND_DEF_STEREO_COUNT>  (1) 
0

>  <PUBCHEM_BOND_UDEF_STEREO_COUNT>  (1) 
0

>  <PUBCHEM_ISOTOPIC_ATOM_COUNT>  (1) 
0

>  <PUBCHEM_COMPONENT_COUNT>  (1) 
1

>  <PUBCHEM_CACTVS_TAUTO_COUNT>  (1) 
1

>  <PUBCHEM_CONFORMER_ID>  (1) 
000019CE00000001

>  <PUBCHEM_MMFF94_ENERGY>  (1) 
122.4484

>  <PUBCHEM_FEATURE_SELFOVERLAP>  (1) 
50.848

>  <PUBCHEM_SHAPE_FINGERPRINT>  (1) 
10673678 19 18342178886142546936
10763959 59 18337957779810281116
10906281 52 17988374723501042683
11578080 2 17169245097209837469
12166972 35 18269834229596801066
12403259 118 18337940187292050880
12422481 6 17676198091744466548
12788726 201 17346044368117923393
13224815 77 17560231406926239215
13583140 156 17896330120682269994
13617811 41 17762320810143949357
14705955 166 16154249660255635652
14790565 3 18340206418190595084
14849402 71 18259987072694951780
15082195 135 18269536334633031381
15196674 1 18199463273569397871
17349148 13 17916859119865361723
17844677 252 18337113358489580441
18681886 176 18340761534577791186
21033648 144 18187075195743051364
21033648 29 17985524690197519195
21315763 129 18262795147391900856
21315764 268 18261104128303926036
21859007 373 17169820086558483101
22149856 69 18131639967787897643
23522609 53 17846235357815104281
23559900 14 18058159531887596130
23569914 2 17246341821658230533
245318 6 17897176916825135860
2838139 119 18411134762168263372
3298306 158 18271243949459099352
3411729 13 18335422395885325340
34797466 226 18130797766853940926
3493558 16 18410015399159745832
350125 39 18269837674076247817
397830 11 17750243646034297331
4340502 62 17603584166371319738
474 4 18334574676994631530
5104073 3 18261402122210251601
53794403 172 18410579500691494748
550186 72 18050286165713012903
6034566 193 18267879434871289688
6036956 94 16675845112982760492
6086070 43 17826491294075647198
67856867 119 18408885109547874324
7288768 16 17679295524011890304
9981440 41 18190467244986218627

>  <PUBCHEM_SHAPE_MULTIPOLES>  (1) 
632.1
14
4.3
1.35
3.33
2.36
-0.02
8.98
-0.76
-6.62
0.83
0.39
-0.1
-1.13

>  <PUBCHEM_SHAPE_SELFOVERLAP>  (1) 
1317.481

>  <PUBCHEM_SHAPE_VOLUME>  (1) 
359.1

>  <PUBCHEM_COORDINATE_TYPE>  (1) 
2
5
10

$$$$
