6608
     RDKit          3D

 15 15  0  0  1  0  0  0  0  0999 V2000
   -3.8732    0.1397   -1.1506 O   0  0  0  0  0  0  0  0  0  0  0  0
    1.1673    0.8893   -0.1773 C   0  0  0  0  0  0  0  0  0  0  0  0
    2.5639    0.6683    0.5226 C   0  0  0  0  0  0  0  0  0  0  0  0
    0.1924   -0.2584    0.2952 C   0  0  0  0  0  0  0  0  0  0  0  0
    3.1201   -0.7530    0.2941 C   0  0  0  0  0  0  0  0  0  0  0  0
    2.1312   -1.8386    0.7073 C   0  0  0  0  0  0  0  0  0  0  0  0
    0.7995   -1.6318    0.0328 C   0  0  0  0  0  0  0  0  0  0  0  0
    0.5892    2.2589    0.2581 C   0  0  0  0  0  0  0  0  0  0  0  0
    1.3090    0.9115   -1.7182 C   0  0  0  0  0  0  0  0  0  0  0  0
    3.6473    1.6866    0.1423 C   0  0  0  0  0  0  0  0  0  0  0  0
   -1.2223   -0.1200   -0.2001 C   0  0  0  0  0  0  0  0  0  0  0  0
    0.2597   -2.6050   -0.7199 C   0  0  0  0  0  0  0  0  0  0  0  0
   -2.2717    0.0646    0.6114 C   0  0  0  0  0  0  0  0  0  0  0  0
   -3.6475    0.1919    0.0565 C   0  0  0  0  0  0  0  0  0  0  0  0
   -4.7650    0.3961    1.0456 C   0  0  0  0  0  0  0  0  0  0  0  0
  1 14  2  0
  2  3  1  0
  2  4  1  0
  2  8  1  0
  2  9  1  0
  3  5  1  0
  3 10  1  0
  4  7  1  0
  4 11  1  0
  5  6  1  0
  6  7  1  0
  7 12  2  0
 11 13  2  0
 13 14  1  0
 14 15  1  0
M  END
>  <PUBCHEM_COMPOUND_CID>  (1) 
6608

>  <PUBCHEM_CONFORMER_RMSD>  (1) 
0.6

>  <PUBCHEM_CONFORMER_DIVERSEORDER>  (1) 
6
3
5
9
16
14
15
8
11
13
4
12
1
10
7
2

>  <PUBCHEM_MMFF94_PARTIAL_CHARGES>  (1) 
13
1 -0.57
11 -0.29
12 -0.3
13 -0.14
14 0.49
15 0.06
31 0.15
32 0.15
33 0.15
34 0.15
4 0.28
6 0.14
7 -0.28

>  <PUBCHEM_EFFECTIVE_ROTOR_COUNT>  (1) 
3

>  <PUBCHEM_PHARMACOPHORE_FEATURES>  (1) 
3
1 1 acceptor
3 2 8 9 hydrophobe
6 2 3 4 5 6 7 rings

>  <PUBCHEM_HEAVY_ATOM_COUNT>  (1) 
15

>  <PUBCHEM_ATOM_DEF_STEREO_COUNT>  (1) 
2

>  <PUBCHEM_ATOM_UDEF_STEREO_COUNT>  (1) 
0

>  <PUBCHEM_BOND_DEF_STEREO_COUNT>  (1) 
0

>  <PUBCHEM_BOND_UDEF_STEREO_COUNT>  (1) 
1

>  <PUBCHEM_ISOTOPIC_ATOM_COUNT>  (1) 
0

>  <PUBCHEM_COMPONENT_COUNT>  (1) 
1

>  <PUBCHEM_CACTVS_TAUTO_COUNT>  (1) 
5

>  <PUBCHEM_CONFORMER_ID>  (1) 
000019D000000006

>  <PUBCHEM_MMFF94_ENERGY>  (1) 
36.0917

>  <PUBCHEM_FEATURE_SELFOVERLAP>  (1) 
15.223

>  <PUBCHEM_SHAPE_FINGERPRINT>  (1) 
10219947 1 18410008819031899898
10980938 120 18411132532768675314
11471102 20 18409161108420215857
12346645 6 18410575076241968906
13134695 92 18261660489740760781
14251717 144 18340477902904654711
14993402 34 18342175583333561366
15219456 202 18040429967393231397
15501101 241 18261388914716297916
15775835 57 18340487867028158893
16945 1 17894630366105528798
18186145 218 18272091616735761269
20511035 2 18044102469210634490
20559304 39 18270408191704009433
20645477 70 18337380544642951375
20871998 22 18052822446748868438
21524375 3 18192150605988982807
21639500 275 18339347652375250389
21730867 7 18408884031706151299
22854114 111 18410015450814865281
23184049 59 18408882927693853850
23402539 116 17703790344538318028
23419403 2 17680121029300139398
2748010 2 18338528554930774202
276578 36 18411986887868911002
3060560 45 18272936002911071574
449060 62 18410576188722907832
633830 44 18060147547879161021
7364860 26 18200319818369575639
77492 1 17775275058937725455
81228 2 17257369644311291203
81539 233 18187082871071128746
8272917 22 18270968938486874703

>  <PUBCHEM_SHAPE_MULTIPOLES>  (1) 
302.82
6.84
2.22
1.08
8.3
0.72
-0.33
-1.87
1.34
-1.83
-0.11
0.2
-0.08
-0.31

>  <PUBCHEM_SHAPE_SELFOVERLAP>  (1) 
600.015

>  <PUBCHEM_SHAPE_VOLUME>  (1) 
179.8

>  <PUBCHEM_COORDINATE_TYPE>  (1) 
2
5
10

$$$$
