6610
     RDKit          3D

 18 18  0  0  0  0  0  0  0  0999 V2000
   -1.6204    2.2350    0.1501 O   0  0  0  0  0  0  0  0  0  0  0  0
    1.5959   -2.2445    0.1235 O   0  0  0  0  0  0  0  0  0  0  0  0
   -2.8825   -0.3280    0.1419 C   0  0  0  0  0  0  0  0  0  0  0  0
    2.8571    0.3182    0.1366 C   0  0  0  0  0  0  0  0  0  0  0  0
   -1.3534   -0.1463    0.1390 C   0  0  0  0  0  0  0  0  0  0  0  0
    1.3746    0.1419    0.1355 C   0  0  0  0  0  0  0  0  0  0  0  0
   -3.5367    0.3614   -1.0951 C   0  0  0  0  0  0  0  0  0  0  0  0
    3.5548   -0.3519   -1.1094 C   0  0  0  0  0  0  0  0  0  0  0  0
   -3.4508    0.3388    1.4198 C   0  0  0  0  0  0  0  0  0  0  0  0
   -3.3358   -1.8073    0.1851 C   0  0  0  0  0  0  0  0  0  0  0  0
    3.3570    1.8025    0.1951 C   0  0  0  0  0  0  0  0  0  0  0  0
    3.4752   -0.3570    1.4058 C   0  0  0  0  0  0  0  0  0  0  0  0
   -0.8333    1.1229    0.1445 C   0  0  0  0  0  0  0  0  0  0  0  0
    0.8084   -1.1328    0.1300 C   0  0  0  0  0  0  0  0  0  0  0  0
   -0.5788   -1.2796    0.1319 C   0  0  0  0  0  0  0  0  0  0  0  0
    0.5538    1.2697    0.1430 C   0  0  0  0  0  0  0  0  0  0  0  0
   -5.0508    0.2042   -1.2029 C   0  0  0  0  0  0  0  0  0  0  0  0
    5.0657   -0.1472   -1.1745 C   0  0  0  0  0  0  0  0  0  0  0  0
  1 13  1  0
  2 14  1  0
  3  5  1  0
  3  7  1  0
  3  9  1  0
  3 10  1  0
  4  6  1  0
  4  8  1  0
  4 11  1  0
  4 12  1  0
  5 13  2  0
  5 15  1  0
  6 14  1  0
  6 16  2  0
  7 17  1  0
  8 18  1  0
 13 16  1  0
 14 15  2  0
M  END
>  <PUBCHEM_COMPOUND_CID>  (1) 
6610

>  <PUBCHEM_CONFORMER_RMSD>  (1) 
0.6

>  <PUBCHEM_CONFORMER_DIVERSEORDER>  (1) 
8
10
2
9
3
5
6
11
1
4
7

>  <PUBCHEM_MMFF94_PARTIAL_CHARGES>  (1) 
14
1 -0.53
13 0.08
14 0.08
15 -0.15
16 -0.15
2 -0.53
3 0.14
35 0.15
36 0.15
4 0.14
43 0.45
44 0.45
5 -0.14
6 -0.14

>  <PUBCHEM_EFFECTIVE_ROTOR_COUNT>  (1) 
4

>  <PUBCHEM_PHARMACOPHORE_FEATURES>  (1) 
7
1 1 donor
1 17 hydrophobe
1 18 hydrophobe
1 2 donor
3 3 9 10 hydrophobe
3 4 11 12 hydrophobe
6 5 6 13 14 15 16 rings

>  <PUBCHEM_HEAVY_ATOM_COUNT>  (1) 
18

>  <PUBCHEM_ATOM_DEF_STEREO_COUNT>  (1) 
0

>  <PUBCHEM_ATOM_UDEF_STEREO_COUNT>  (1) 
0

>  <PUBCHEM_BOND_DEF_STEREO_COUNT>  (1) 
0

>  <PUBCHEM_BOND_UDEF_STEREO_COUNT>  (1) 
0

>  <PUBCHEM_ISOTOPIC_ATOM_COUNT>  (1) 
0

>  <PUBCHEM_COMPONENT_COUNT>  (1) 
1

>  <PUBCHEM_CACTVS_TAUTO_COUNT>  (1) 
4

>  <PUBCHEM_CONFORMER_ID>  (1) 
000019D200000008

>  <PUBCHEM_MMFF94_ENERGY>  (1) 
74.3684

>  <PUBCHEM_FEATURE_SELFOVERLAP>  (1) 
35.539

>  <PUBCHEM_SHAPE_FINGERPRINT>  (1) 
10366900 7 18412825780675444203
10498660 4 18335702779729261916
10756046 5 18122626054644372998
11132069 177 18341607144116478354
11471102 20 18411414024983420380
12032990 46 18341339992813683515
12553582 1 18410578379108924993
12670546 56 15769775749457453211
13140716 1 18266741466053214787
13221675 6 18412826893235659714
13224815 77 18410856589709835586
13296908 3 18272656787076491702
13538477 17 18041277768347240098
13583140 156 17022904574924818833
13760787 19 17240199945377921531
13760787 5 18333736788456078266
14911166 2 18411136943694813821
14993402 34 18410855477308037548
15196674 1 18338799025731403808
15309172 13 18411423916477914499
15375358 24 18261384551377587273
15536298 74 18200879577552588696
15848700 24 18202280307974087492
15848702 151 17418384570792489260
16752209 62 18338792321335180976
16945 1 18410856546760162627
18186145 218 18410577313962251624
19026448 5 15719386261037821930
19422 9 17346885554315425220
19784866 240 15410630146706984468
200 152 17561080302357949365
20279233 1 18334009484799327635
20281475 54 18413110549934489627
20645476 183 17458914846015564754
20645477 70 18411694361741316646
20871999 31 18339938038843710708
21267235 1 18340781423943448267
21501502 16 18122906434399115737
21637258 2 15697991903734129710
2334 1 17978508972487900457
23402539 116 18410007762886741718
23402655 69 18408602539486268143
23493267 7 17385726902231104497
23557571 272 17022913349901427743
23559900 14 18341897433094307820
25147074 1 18122626054639065803
2748010 2 18122625230010613091
2871803 45 18412824676926929724
296302 2 14996285824881532868
3312278 4 18408041823221925627
34934 24 18410281524107534651
4028521 119 18408319990799388461
4072396 5 18263059081352844922
4990 188 18060147530920695054
5104073 3 18410574032396092424
58051976 378 18412265017240295006
633830 44 18273220806561172332
69090 78 17703788141499469046
9709674 26 18340202982069279679

>  <PUBCHEM_SHAPE_MULTIPOLES>  (1) 
358.69
9.13
1.77
1.15
0.15
0.01
0.02
-0.08
2.64
-0.01
-0.17
-0.01
-0.01
0.24

>  <PUBCHEM_SHAPE_SELFOVERLAP>  (1) 
735.811

>  <PUBCHEM_SHAPE_VOLUME>  (1) 
208.2

>  <PUBCHEM_COORDINATE_TYPE>  (1) 
2
5
10

$$$$
