6612
     RDKit          3D

 17 17  0  0  1  0  0  0  0  0999 V2000
   -2.0297   -0.1951    1.5917 O   0  0  0  0  0  0  0  0  0  0  0  0
    2.5648    1.2027   -0.2784 C   0  0  0  0  0  0  0  0  0  0  0  0
    1.7130   -0.0787   -0.5887 C   0  0  0  0  0  0  0  0  0  0  0  0
    3.2368    1.0484    1.1065 C   0  0  0  0  0  0  0  0  0  0  0  0
    4.1029   -0.2096    1.2167 C   0  0  0  0  0  0  0  0  0  0  0  0
    2.4845   -1.3652   -0.3239 C   0  0  0  0  0  0  0  0  0  0  0  0
    3.6433    1.3928   -1.3738 C   0  0  0  0  0  0  0  0  0  0  0  0
    1.7014    2.4830   -0.2775 C   0  0  0  0  0  0  0  0  0  0  0  0
    3.5519   -1.4020    0.4939 C   0  0  0  0  0  0  0  0  0  0  0  0
    0.4085   -0.1179    0.1644 C   0  0  0  0  0  0  0  0  0  0  0  0
    2.0056   -2.6000   -1.0364 C   0  0  0  0  0  0  0  0  0  0  0  0
   -0.7885   -0.1136   -0.4359 C   0  0  0  0  0  0  0  0  0  0  0  0
   -2.0462   -0.1545    0.3644 C   0  0  0  0  0  0  0  0  0  0  0  0
   -3.3332   -0.1447   -0.4432 C   0  0  0  0  0  0  0  0  0  0  0  0
   -4.5760   -0.2195    0.4433 C   0  0  0  0  0  0  0  0  0  0  0  0
   -5.8315   -0.2156   -0.3770 C   0  0  0  0  0  0  0  0  0  0  0  0
   -6.8076    0.6895   -0.2460 C   0  0  0  0  0  0  0  0  0  0  0  0
  1 13  2  0
  2  3  1  0
  2  4  1  0
  2  7  1  0
  2  8  1  0
  3  6  1  0
  3 10  1  0
  4  5  1  0
  5  9  1  0
  6  9  2  0
  6 11  1  0
 10 12  2  0
 12 13  1  0
 13 14  1  0
 14 15  1  0
 15 16  1  0
 16 17  2  0
M  END
>  <PUBCHEM_COMPOUND_CID>  (1) 
6612

>  <PUBCHEM_CONFORMER_RMSD>  (1) 
0.8

>  <PUBCHEM_CONFORMER_DIVERSEORDER>  (1) 
2
66
94
98
11
93
39
13
12
67
106
117
115
55
111
22
51
28
88
20
52
48
43
42
26
14
31
34
49
1
81
61
59
18
25
72
27
82
6
83
118
120
58
119
74
68
70
33
21
30
65
36
54
32
113
57
121
110
102
91
104
71
114
86
75
4
17
90
7
40
89
107
19
29
73
109
87
35
50
97
112
44
5
46
45
100
38
95
41
79
24
8
80
69
96
62
56
23
3
116
92
16
78
77
105
63
60
99
10
76
47
15
64
103
9
108
84
85
37
53
101

>  <PUBCHEM_MMFF94_PARTIAL_CHARGES>  (1) 
19
1 -0.57
10 -0.29
11 0.14
12 -0.14
13 0.49
14 0.06
15 0.14
16 -0.29
17 -0.3
29 0.15
3 0.28
30 0.15
34 0.15
39 0.15
40 0.15
41 0.15
5 0.14
6 -0.28
9 -0.29

>  <PUBCHEM_EFFECTIVE_ROTOR_COUNT>  (1) 
5.8

>  <PUBCHEM_PHARMACOPHORE_FEATURES>  (1) 
4
1 1 acceptor
1 17 hydrophobe
3 2 7 8 hydrophobe
6 2 3 4 5 6 9 rings

>  <PUBCHEM_HEAVY_ATOM_COUNT>  (1) 
17

>  <PUBCHEM_ATOM_DEF_STEREO_COUNT>  (1) 
0

>  <PUBCHEM_ATOM_UDEF_STEREO_COUNT>  (1) 
1

>  <PUBCHEM_BOND_DEF_STEREO_COUNT>  (1) 
0

>  <PUBCHEM_BOND_UDEF_STEREO_COUNT>  (1) 
1

>  <PUBCHEM_ISOTOPIC_ATOM_COUNT>  (1) 
0

>  <PUBCHEM_COMPONENT_COUNT>  (1) 
1

>  <PUBCHEM_CACTVS_TAUTO_COUNT>  (1) 
5

>  <PUBCHEM_CONFORMER_ID>  (1) 
000019D400000002

>  <PUBCHEM_MMFF94_ENERGY>  (1) 
26.4227

>  <PUBCHEM_FEATURE_SELFOVERLAP>  (1) 
20.297

>  <PUBCHEM_SHAPE_FINGERPRINT>  (1) 
11287383 113 18334295392635968523
11954058 11 16127542453949488230
12236239 1 17632573851479035663
12346645 6 18410858784991998820
12916748 109 16660645150933663933
13167372 99 18340488860073478945
13533116 47 17917429778921322839
13836976 161 18343866614958493550
17834072 33 18343017831237663247
17844677 252 17749113279762522973
20157964 124 18413106161195084447
20281389 69 18130510731124151465
20369508 70 17749382637934832794
20559304 39 18272656727426926080
20645477 70 18408888416836527855
212847 35 18113617902118226469
21285901 2 18187364281823764773
220451 1 18059582403941243407
22224240 67 18130774682148867714
22289505 5 18334295361896328357
23402539 116 18333723638015271839
23559900 14 17458634427284031471
300161 21 17846771919526082743
3060560 45 18271256005568943268
351380 180 18261107478921982393
42630746 31 18342454824885495887
4340502 62 18273210915710808799
495365 180 18270113638309425816
5104073 3 18113903805728199625
522135 26 18335140894758749540
5374978 207 18273211989246398025
7164475 11 18057894554128117929
8272917 22 18411704287405190206
9999458 23 17022900168858078786

>  <PUBCHEM_SHAPE_MULTIPOLES>  (1) 
343.98
12.34
1.92
1.16
26.03
0.12
0.13
-1.22
0.18
-2.73
-0.6
-0.85
-0.02
-0.06

>  <PUBCHEM_SHAPE_SELFOVERLAP>  (1) 
680.077

>  <PUBCHEM_SHAPE_VOLUME>  (1) 
203.6

>  <PUBCHEM_COORDINATE_TYPE>  (1) 
2
5
10

$$$$
