6619
     RDKit          3D

 21 22  0  0  0  0  0  0  0  0999 V2000
    4.5842   -0.3194    2.0483 Cl  0  0  0  0  0  0  0  0  0  0  0  0
   -4.5680   -0.2219   -2.0598 Cl  0  0  0  0  0  0  0  0  0  0  0  0
    2.7677    2.0354   -2.5048 Cl  0  0  0  0  0  0  0  0  0  0  0  0
   -2.7422    1.9494    2.5799 Cl  0  0  0  0  0  0  0  0  0  0  0  0
    4.6968    1.5407   -0.2824 O   0  0  0  0  0  0  0  0  0  0  0  0
   -4.6733    1.5481    0.3403 O   0  0  0  0  0  0  0  0  0  0  0  0
    0.0054   -1.5915   -0.0310 C   0  0  0  0  0  0  0  0  0  0  0  0
    1.2438   -0.7632   -0.0968 C   0  0  0  0  0  0  0  0  0  0  0  0
   -1.2907   -0.7202    0.0713 C   0  0  0  0  0  0  0  0  0  0  0  0
   -0.0863   -2.5837    1.1891 C   0  0  0  0  0  0  0  0  0  0  0  0
   -0.0267   -2.5402   -1.2805 C   0  0  0  0  0  0  0  0  0  0  0  0
    1.4202    0.1464   -1.1393 C   0  0  0  0  0  0  0  0  0  0  0  0
   -1.4025    0.1086    1.1431 C   0  0  0  0  0  0  0  0  0  0  0  0
    2.2267   -0.8996    0.8835 C   0  0  0  0  0  0  0  0  0  0  0  0
   -2.2131   -0.8560   -0.9182 C   0  0  0  0  0  0  0  0  0  0  0  0
    3.3862   -0.1267    0.8211 C   0  0  0  0  0  0  0  0  0  0  0  0
   -3.3695   -0.0812   -0.8262 C   0  0  0  0  0  0  0  0  0  0  0  0
    2.5796    0.9196   -1.2018 C   0  0  0  0  0  0  0  0  0  0  0  0
   -2.5587    0.8835    1.2352 C   0  0  0  0  0  0  0  0  0  0  0  0
    3.5626    0.7831   -0.2215 C   0  0  0  0  0  0  0  0  0  0  0  0
   -3.5422    0.7888    0.2505 C   0  0  0  0  0  0  0  0  0  0  0  0
  1 16  1  0
  2 17  1  0
  3 18  1  0
  4 19  1  0
  5 20  1  0
  6 21  1  0
  7  8  1  0
  7  9  1  0
  7 10  1  0
  7 11  1  0
  8 12  2  0
  8 14  1  0
  9 13  2  0
  9 15  1  0
 12 18  1  0
 13 19  1  0
 14 16  2  0
 15 17  2  0
 16 20  1  0
 17 21  1  0
 18 20  2  0
 19 21  2  0
M  END
>  <PUBCHEM_COMPOUND_CID>  (1) 
6619

>  <PUBCHEM_CONFORMER_RMSD>  (1) 
0.6

>  <PUBCHEM_CONFORMER_DIVERSEORDER>  (1) 
1
3
5
4
2

>  <PUBCHEM_MMFF94_PARTIAL_CHARGES>  (1) 
25
1 -0.18
12 -0.15
13 -0.15
14 -0.15
15 -0.15
16 0.18
17 0.18
18 0.18
19 0.18
2 -0.18
20 0.08
21 0.08
28 0.15
29 0.15
3 -0.18
30 0.15
31 0.15
32 0.45
33 0.45
4 -0.18
5 -0.53
6 -0.53
7 0.29
8 -0.14
9 -0.14

>  <PUBCHEM_EFFECTIVE_ROTOR_COUNT>  (1) 
2

>  <PUBCHEM_PHARMACOPHORE_FEATURES>  (1) 
5
1 5 donor
1 6 donor
3 7 10 11 hydrophobe
6 8 12 14 16 18 20 rings
6 9 13 15 17 19 21 rings

>  <PUBCHEM_HEAVY_ATOM_COUNT>  (1) 
21

>  <PUBCHEM_ATOM_DEF_STEREO_COUNT>  (1) 
0

>  <PUBCHEM_ATOM_UDEF_STEREO_COUNT>  (1) 
0

>  <PUBCHEM_BOND_DEF_STEREO_COUNT>  (1) 
0

>  <PUBCHEM_BOND_UDEF_STEREO_COUNT>  (1) 
0

>  <PUBCHEM_ISOTOPIC_ATOM_COUNT>  (1) 
0

>  <PUBCHEM_COMPONENT_COUNT>  (1) 
1

>  <PUBCHEM_CACTVS_TAUTO_COUNT>  (1) 
3

>  <PUBCHEM_CONFORMER_ID>  (1) 
000019DB00000001

>  <PUBCHEM_MMFF94_ENERGY>  (1) 
69.6414

>  <PUBCHEM_FEATURE_SELFOVERLAP>  (1) 
25.371

>  <PUBCHEM_SHAPE_FINGERPRINT>  (1) 
10498660 4 17489582325706005201
10646746 165 17561362855545466376
11045977 3 15719386213809031784
11370993 144 15647043863676898924
11582403 64 15576365062022058959
11640471 11 18410859862474921454
121448 382 17703780449160742415
12156800 1 12387548471917656972
12166972 35 18335126613976821980
12403259 327 15068610587365617056
12507557 5 17821722840820694333
12507560 40 15936411143219976639
12633257 1 16370732525558629873
12670546 177 15698278919139770585
12788726 201 17977099385966299842
12892183 10 15719388417111449832
13583140 156 16733272342853794905
13965767 371 17910399385435003488
14251757 17 15697730202718595864
14739800 52 17915159434267127080
15295992 7 16588020191320263125
15342168 16 18261692406175630293
15653759 3 15285360621568214988
16945 1 17968098564515810654
16988056 13 15106091474532201057
17349148 13 18411135839899014838
17804303 29 13912606013589380011
1813 80 17761783857939592998
18186145 218 18260271823703262847
192875 21 18410845568871596957
19433438 38 15554455093419253524
19765921 60 18411702046017895611
19784866 135 12469178135403440528
20291156 8 9007056842236548737
20715895 44 17827628163740940485
21033650 10 17488206870935136232
21065199 12 15719683142104771992
21475661 188 16516509037471103221
21524375 3 18411141333167565091
21713013 43 14692571026608025981
21864079 5 18338253607845735844
22149856 69 18129682807489629859
22393880 68 16271657702154807804
22907989 373 17912385399903301527
23114952 82 14979684260291042768
23175994 123 16733814290733714602
23184049 59 17748819713925223398
23402539 116 17489007323583656250
23419403 2 15388003507040303578
235170 7 15482669086979602945
23526113 38 14261068719269188431
23557571 272 16630237095704400779
23559900 14 16486976142184957462
2838139 119 17630321068540697176
3323516 105 14045733859146438943
3472631 163 17775000180941669553
351380 180 17023171726433251085
4340502 62 18187658951551951379
469060 322 18058466438093388011
474 4 18336552616302336691
57724786 102 17531259343615795060
633830 44 18338527339185893791
9981440 41 18130500937791796362

>  <PUBCHEM_SHAPE_MULTIPOLES>  (1) 
427.91
8.89
2.31
2.22
0.23
0.03
-0.6
0.06
4.4
0.06
1.02
-0.09
-0.04
2.45

>  <PUBCHEM_SHAPE_SELFOVERLAP>  (1) 
889.202

>  <PUBCHEM_SHAPE_VOLUME>  (1) 
250.6

>  <PUBCHEM_COORDINATE_TYPE>  (1) 
2
5
10

$$$$
