6621
     RDKit          3D

 16 17  0  0  0  0  0  0  0  0999 V2000
    4.9773   -1.5556   -0.0031 Cl  0  0  0  0  0  0  0  0  0  0  0  0
   -0.5014    1.4656   -0.0015 S   0  0  0  0  0  0  0  0  0  0  0  0
   -0.6117    2.1870   -1.2617 O   0  0  0  0  0  0  0  0  0  0  0  0
   -0.5270    2.1996    1.2570 O   0  0  0  0  0  0  0  0  0  0  0  0
    1.0518    0.6112   -0.0022 C   0  0  0  0  0  0  0  0  0  0  0  0
   -1.7847    0.2817    0.0015 C   0  0  0  0  0  0  0  0  0  0  0  0
    1.6380    0.2863   -1.2101 C   0  0  0  0  0  0  0  0  0  0  0  0
    1.6398    0.2883    1.2058 C   0  0  0  0  0  0  0  0  0  0  0  0
   -2.2961   -0.1897    1.2107 C   0  0  0  0  0  0  0  0  0  0  0  0
   -2.2985   -0.1930   -1.2054 C   0  0  0  0  0  0  0  0  0  0  0  0
    2.8593   -0.3874   -1.2104 C   0  0  0  0  0  0  0  0  0  0  0  0
    2.8612   -0.3854    1.2056 C   0  0  0  0  0  0  0  0  0  0  0  0
   -3.3209   -1.1358    1.2131 C   0  0  0  0  0  0  0  0  0  0  0  0
   -3.3235   -1.1392   -1.2029 C   0  0  0  0  0  0  0  0  0  0  0  0
    3.4711   -0.7232   -0.0026 C   0  0  0  0  0  0  0  0  0  0  0  0
   -3.8346   -1.6105    0.0064 C   0  0  0  0  0  0  0  0  0  0  0  0
  1 15  1  0
  2  3  2  0
  2  4  2  0
  2  5  1  0
  2  6  1  0
  5  7  2  0
  5  8  1  0
  6  9  2  0
  6 10  1  0
  7 11  1  0
  8 12  2  0
  9 13  1  0
 10 14  2  0
 11 15  2  0
 12 15  1  0
 13 16  2  0
 14 16  1  0
M  END
>  <PUBCHEM_COMPOUND_CID>  (1) 
6621

>  <PUBCHEM_CONFORMER_RMSD>  (1) 
0.6

>  <PUBCHEM_CONFORMER_DIVERSEORDER>  (1) 
1

>  <PUBCHEM_MMFF94_PARTIAL_CHARGES>  (1) 
25
1 -0.18
10 -0.15
11 -0.15
12 -0.15
13 -0.15
14 -0.15
15 0.18
16 -0.15
17 0.15
18 0.15
19 0.15
2 1.32
20 0.15
21 0.15
22 0.15
23 0.15
24 0.15
25 0.15
3 -0.65
4 -0.65
5 -0.01
6 -0.01
7 -0.15
8 -0.15
9 -0.15

>  <PUBCHEM_EFFECTIVE_ROTOR_COUNT>  (1) 
2

>  <PUBCHEM_PHARMACOPHORE_FEATURES>  (1) 
4
1 3 acceptor
1 4 acceptor
6 5 7 8 11 12 15 rings
6 6 9 10 13 14 16 rings

>  <PUBCHEM_HEAVY_ATOM_COUNT>  (1) 
16

>  <PUBCHEM_ATOM_DEF_STEREO_COUNT>  (1) 
0

>  <PUBCHEM_ATOM_UDEF_STEREO_COUNT>  (1) 
0

>  <PUBCHEM_BOND_DEF_STEREO_COUNT>  (1) 
0

>  <PUBCHEM_BOND_UDEF_STEREO_COUNT>  (1) 
0

>  <PUBCHEM_ISOTOPIC_ATOM_COUNT>  (1) 
0

>  <PUBCHEM_COMPONENT_COUNT>  (1) 
1

>  <PUBCHEM_CACTVS_TAUTO_COUNT>  (1) 
1

>  <PUBCHEM_CONFORMER_ID>  (1) 
000019DD00000001

>  <PUBCHEM_MMFF94_ENERGY>  (1) 
26.6366

>  <PUBCHEM_FEATURE_SELFOVERLAP>  (1) 
20.315

>  <PUBCHEM_SHAPE_FINGERPRINT>  (1) 
10498660 4 10881671434329644471
10618630 7 18412829092132282294
11046707 91 18413107242973234326
11127187 94 17458058283607892675
11543360 7 15719396165332957942
11578080 2 18410564119913395957
11640471 11 9655301358748562437
12251169 10 15841555188549424127
12363563 72 18410853286959313931
12507560 40 14261363430976376710
12633257 1 16343706546917286875
12707595 3 18187925139901206947
12892183 10 15267073531432892423
13296908 3 18411693318227540393
13675066 3 13398628347203932006
13705890 14 17458347459450240198
14123260 362 8142078762816651330
15209294 21 12822999903759709358
16752209 62 18114731651567675075
16945 1 15574712529861508497
17844478 74 17418092088115525880
1813 80 18341347655040666676
18186145 218 15285360634506013837
19862831 5 16805321089274904126
200 152 17458348528807367542
20361792 2 18337109059512088901
20645477 70 18191012616155553015
20671657 53 17822010917193787700
20871999 31 15864066594418106795
21061003 4 17774995791236757328
21713013 43 16805889601490958059
21731516 1 18410860987946361013
22646028 28 18407760335070422442
22926399 65 10809348828019226894
231179 274 9727638302049976966
23402539 116 18113903719707507598
23402655 69 14851875929066701030
23557571 272 18266732498805624228
23559900 14 18041266717464939576
25 1 12973877074844151348
27216 239 11743832582223490631
3082319 5 15574707010759902883
3286 77 17346590911132600010
4028521 119 12540689332023250823
465052 167 18118138072341751059
7097593 13 15482680056389082190
81228 2 18269837515036442017
83771 10 18342179981037155024

>  <PUBCHEM_SHAPE_MULTIPOLES>  (1) 
323.25
7.82
1.8
1.5
3.77
0.66
0
-6.08
0
-0.53
0
-0.31
0.09
0.01

>  <PUBCHEM_SHAPE_SELFOVERLAP>  (1) 
673.551

>  <PUBCHEM_SHAPE_VOLUME>  (1) 
184.1

>  <PUBCHEM_COORDINATE_TYPE>  (1) 
2
5
10

$$$$
