6622
     RDKit          3D

 20 21  0  0  0  0  0  0  0  0999 V2000
    1.4492   -1.7866    0.1041 S   0  0  0  0  0  0  0  0  0  0  0  0
    1.7280   -2.5794   -1.0851 O   0  0  0  0  0  0  0  0  0  0  0  0
    1.5148   -2.4087    1.4202 O   0  0  0  0  0  0  0  0  0  0  0  0
   -6.1561    2.2300   -0.4898 O   0  0  0  0  0  0  0  0  0  0  0  0
   -4.1128    0.2674   -0.3488 N   0  0  0  0  0  0  0  0  0  0  0  0
    5.1854    2.8367   -0.0502 N   0  0  0  0  0  0  0  0  0  0  0  0
   -0.2091   -1.1745   -0.0310 C   0  0  0  0  0  0  0  0  0  0  0  0
    2.5460   -0.4290    0.0587 C   0  0  0  0  0  0  0  0  0  0  0  0
   -2.7937   -0.2206   -0.2411 C   0  0  0  0  0  0  0  0  0  0  0  0
   -0.9004   -0.8509    1.1207 C   0  0  0  0  0  0  0  0  0  0  0  0
   -0.7726   -1.0348   -1.2849 C   0  0  0  0  0  0  0  0  0  0  0  0
   -2.2052   -0.3694    1.0146 C   0  0  0  0  0  0  0  0  0  0  0  0
   -2.0773   -0.5533   -1.3909 C   0  0  0  0  0  0  0  0  0  0  0  0
    2.9200    0.2054    1.2434 C   0  0  0  0  0  0  0  0  0  0  0  0
    3.0484    0.0215   -1.1622 C   0  0  0  0  0  0  0  0  0  0  0  0
   -4.9025    0.6280    0.7875 C   0  0  0  0  0  0  0  0  0  0  0  0
    3.7962    1.2901    1.2073 C   0  0  0  0  0  0  0  0  0  0  0  0
    3.9247    1.1062   -1.1982 C   0  0  0  0  0  0  0  0  0  0  0  0
    4.2985    1.7405   -0.0134 C   0  0  0  0  0  0  0  0  0  0  0  0
   -6.2814    1.0814    0.3393 C   0  0  0  0  0  0  0  0  0  0  0  0
  1  2  2  0
  1  3  2  0
  1  7  1  0
  1  8  1  0
  4 20  1  0
  5  9  1  0
  5 16  1  0
  6 19  1  0
  7 10  2  0
  7 11  1  0
  8 14  2  0
  8 15  1  0
  9 12  2  0
  9 13  1  0
 10 12  1  0
 11 13  2  0
 14 17  1  0
 15 18  2  0
 16 20  1  0
 17 19  2  0
 18 19  1  0
M  END
>  <PUBCHEM_COMPOUND_CID>  (1) 
6622

>  <PUBCHEM_CONFORMER_RMSD>  (1) 
0.8

>  <PUBCHEM_CONFORMER_DIVERSEORDER>  (1) 
1
3
2
4

>  <PUBCHEM_MMFF94_PARTIAL_CHARGES>  (1) 
32
1 1.32
10 -0.15
11 -0.15
12 -0.15
13 -0.15
14 -0.15
15 -0.15
16 0.37
17 -0.15
18 -0.15
19 0.1
2 -0.65
20 0.28
21 0.15
22 0.15
23 0.15
24 0.15
25 0.15
26 0.15
27 0.4
3 -0.65
30 0.15
31 0.15
34 0.4
35 0.4
36 0.4
4 -0.68
5 -0.87
6 -0.9
7 -0.01
8 -0.01
9 0.1

>  <PUBCHEM_EFFECTIVE_ROTOR_COUNT>  (1) 
5

>  <PUBCHEM_PHARMACOPHORE_FEATURES>  (1) 
10
1 2 acceptor
1 3 acceptor
1 4 acceptor
1 4 donor
1 5 cation
1 5 donor
1 6 cation
1 6 donor
6 7 9 10 11 12 13 rings
6 8 14 15 17 18 19 rings

>  <PUBCHEM_HEAVY_ATOM_COUNT>  (1) 
20

>  <PUBCHEM_ATOM_DEF_STEREO_COUNT>  (1) 
0

>  <PUBCHEM_ATOM_UDEF_STEREO_COUNT>  (1) 
0

>  <PUBCHEM_BOND_DEF_STEREO_COUNT>  (1) 
0

>  <PUBCHEM_BOND_UDEF_STEREO_COUNT>  (1) 
0

>  <PUBCHEM_ISOTOPIC_ATOM_COUNT>  (1) 
0

>  <PUBCHEM_COMPONENT_COUNT>  (1) 
1

>  <PUBCHEM_CACTVS_TAUTO_COUNT>  (1) 
1

>  <PUBCHEM_CONFORMER_ID>  (1) 
000019DE00000001

>  <PUBCHEM_MMFF94_ENERGY>  (1) 
54.9093

>  <PUBCHEM_FEATURE_SELFOVERLAP>  (1) 
50.766

>  <PUBCHEM_SHAPE_FINGERPRINT>  (1) 
10498660 4 17775004621636634024
10670039 82 17131280056194082337
11069576 57 13469867878753218964
11796584 16 9079107848628451717
12363563 72 10015598211315614090
12633257 1 16153990265299208308
12730499 353 18341907285248449827
12892183 10 15141501615913085292
12895836 83 17703506696371296973
13675066 3 13623524667235969803
13955234 65 18188774912150824635
14123256 34 8646496244824745408
14170010 4 18270679762876954154
1420 369 11458422431848204729
14251751 18 9151174234084483665
14251764 30 12252723878703726648
14251764 38 18121779426940220281
14251764 75 17679598997157957740
14341114 328 16298672797196047780
14366163 111 17775847912890468153
14461889 52 18040726891852876059
14528608 73 17917707998760767869
14774955 27 18413669102268641677
14848178 5 8646767781563468493
15188451 53 12252177502754526825
15210252 30 18341615949148602072
15342168 16 18409448111119959567
16752209 62 15051459258587686171
17349148 13 12252189545948053681
1813 80 17627239957581150774
18222031 100 10015588306730652388
193927 3 7997972405399167409
19784866 240 9151179761570022529
19784866 34 18410009970130673082
20361792 2 10015598215690040626
20369508 70 11600001025039574934
20567600 234 17749114409270271933
20626108 58 9943534007069985382
21344244 181 12031490117713927805
21618674 25 18186804681776217283
23559900 14 17459485376422973539
270888 7 18338797939569629096
2838139 119 18413100671525864413
3472631 163 18201157757825452316
34797466 226 18201728319394046493
4028521 119 17703232926739891096
4340502 62 18113905953138280131
4463277 69 9727630600914970603
465052 167 8862938398871226249
474 4 18410576214302865880
495365 180 18187929417768359499
4990 188 13254504337281119827
5104073 3 17894630357531672667
5374978 207 15213024834283175983
56616090 13 18341047510025587033
5718773 13 10159435184332705068
57724786 102 18187361082432208172
59682541 52 16988298503514364020
633830 44 18410852192085727030
76465 3 9223239545772259067
7808743 9 18265894851196572720
7970288 3 9006794080660116024
960060 61 13470684866925088225

>  <PUBCHEM_SHAPE_MULTIPOLES>  (1) 
387.87
12.33
2.39
1.39
14.21
0.13
0
12.36
0
-1.86
0.05
-0.48
-0.28
-0.01

>  <PUBCHEM_SHAPE_SELFOVERLAP>  (1) 
808.826

>  <PUBCHEM_SHAPE_VOLUME>  (1) 
219.5

>  <PUBCHEM_COORDINATE_TYPE>  (1) 
2
5
10

$$$$
