6624
     RDKit          3D

 17 18  0  0  0  0  0  0  0  0999 V2000
    5.0011   -1.9104   -0.1354 Cl  0  0  0  0  0  0  0  0  0  0  0  0
   -4.9871   -1.9211    0.0902 Cl  0  0  0  0  0  0  0  0  0  0  0  0
   -0.0565    2.2375    1.2099 O   0  0  0  0  0  0  0  0  0  0  0  0
    0.0043    1.4117    0.0131 C   0  0  0  0  0  0  0  0  0  0  0  0
    1.2464    0.5868   -0.0244 C   0  0  0  0  0  0  0  0  0  0  0  0
   -1.2835    0.5528    0.0336 C   0  0  0  0  0  0  0  0  0  0  0  0
    0.0185    2.4681   -1.1295 C   0  0  0  0  0  0  0  0  0  0  0  0
    1.4690   -0.2908   -1.0853 C   0  0  0  0  0  0  0  0  0  0  0  0
   -1.4577   -0.3164    1.0746 C   0  0  0  0  0  0  0  0  0  0  0  0
    2.1849    0.6924    1.0022 C   0  0  0  0  0  0  0  0  0  0  0  0
   -2.1752    0.7102   -0.9913 C   0  0  0  0  0  0  0  0  0  0  0  0
    2.6302   -1.0630   -1.1197 C   0  0  0  0  0  0  0  0  0  0  0  0
   -2.6176   -1.0911    1.0924 C   0  0  0  0  0  0  0  0  0  0  0  0
    3.3461   -0.0797    0.9678 C   0  0  0  0  0  0  0  0  0  0  0  0
   -3.3352   -0.0644   -0.9735 C   0  0  0  0  0  0  0  0  0  0  0  0
    3.5688   -0.9574   -0.0933 C   0  0  0  0  0  0  0  0  0  0  0  0
   -3.5564   -0.9651    0.0685 C   0  0  0  0  0  0  0  0  0  0  0  0
  1 16  1  0
  2 17  1  0
  3  4  1  0
  4  5  1  0
  4  6  1  0
  4  7  1  0
  5  8  2  0
  5 10  1  0
  6  9  2  0
  6 11  1  0
  8 12  1  0
  9 13  1  0
 10 14  2  0
 11 15  2  0
 12 16  2  0
 13 17  2  0
 14 16  1  0
 15 17  1  0
M  END
>  <PUBCHEM_COMPOUND_CID>  (1) 
6624

>  <PUBCHEM_CONFORMER_RMSD>  (1) 
0.6

>  <PUBCHEM_CONFORMER_DIVERSEORDER>  (1) 
1
4
3
2

>  <PUBCHEM_MMFF94_PARTIAL_CHARGES>  (1) 
25
1 -0.18
10 -0.15
11 -0.15
12 -0.15
13 -0.15
14 -0.15
15 -0.15
16 0.18
17 0.18
2 -0.18
21 0.15
22 0.15
23 0.15
24 0.15
25 0.4
26 0.15
27 0.15
28 0.15
29 0.15
3 -0.68
4 0.57
5 -0.14
6 -0.14
8 -0.15
9 -0.15

>  <PUBCHEM_EFFECTIVE_ROTOR_COUNT>  (1) 
2

>  <PUBCHEM_PHARMACOPHORE_FEATURES>  (1) 
4
1 3 acceptor
1 3 donor
6 5 8 10 12 14 16 rings
6 6 9 11 13 15 17 rings

>  <PUBCHEM_HEAVY_ATOM_COUNT>  (1) 
17

>  <PUBCHEM_ATOM_DEF_STEREO_COUNT>  (1) 
0

>  <PUBCHEM_ATOM_UDEF_STEREO_COUNT>  (1) 
0

>  <PUBCHEM_BOND_DEF_STEREO_COUNT>  (1) 
0

>  <PUBCHEM_BOND_UDEF_STEREO_COUNT>  (1) 
0

>  <PUBCHEM_ISOTOPIC_ATOM_COUNT>  (1) 
0

>  <PUBCHEM_COMPONENT_COUNT>  (1) 
1

>  <PUBCHEM_CACTVS_TAUTO_COUNT>  (1) 
1

>  <PUBCHEM_CONFORMER_ID>  (1) 
000019E000000001

>  <PUBCHEM_MMFF94_ENERGY>  (1) 
54.4991

>  <PUBCHEM_FEATURE_SELFOVERLAP>  (1) 
20.297

>  <PUBCHEM_SHAPE_FINGERPRINT>  (1) 
10465860 71 17530966882022569628
10618630 7 18413111645266980094
11046707 91 18339362968202331990
11471102 22 17775563126710282408
11543360 7 16443354186462794646
12032990 46 18410572889940117391
12251169 10 15698282209079223703
12363563 72 18408610261690006895
12507560 40 14548470067700571946
12633257 1 15626220242807260659
12892183 10 15625954096537096471
13296908 3 18410852165888271748
13544653 18 18343860022014596404
13693222 15 17846492608880423764
14115302 16 17022902397508209915
14252887 29 18340766043554369688
14341114 328 15123507055372649715
15422964 175 18272942595875794463
15775835 57 9151174233625404653
15848700 24 18335980947417598235
16752209 62 17458333140034537291
16945 1 17895750690802332541
1813 80 18341629108732457964
18186145 218 11674876658831567752
19050596 39 15626219138974168407
19141452 34 18342738568180010239
193927 3 18411147934516559262
19784866 240 18412552032930798959
19862831 5 15936412247031930754
200 152 18272928302060959750
20281475 54 18411144631691632596
20361792 2 18335708255717566853
20374829 77 18334572412861330499
20645476 183 15719393940698089867
20645477 70 18044654437328442147
20671657 53 18187652413599052052
20871998 22 18410855494562091009
20871999 31 17603588516951416759
21296965 67 18410291428085860905
21731228 192 12247678262038875164
231179 274 8718834188494232982
23402539 116 18334854970264576558
23402655 69 13406790017104975438
23403322 49 18335138648549311154
23526113 38 18115027531838433601
23557571 272 17894901962494545708
23559900 14 18187918444590582904
25 1 11458421323725348516
26918003 58 17775283854978246947
27216 239 10375570612709044991
276578 36 11527955542920146188
2916195 48 8358246030461647582
3060560 45 12396560967040121457
3082319 5 15719111361656177710
31174 14 17846206783302510728
3286 77 17846497032723242746
4028521 119 11674879991510249623
463206 1 18259982703949250363
5104073 3 18059569127912404602
7364860 26 18046067330759973109
76465 3 18410570686627650006
7808743 9 10519686909124216682
81228 2 18265621965653651569
83771 10 18412830187311948023
90316 7 15123514696509574211
9709674 26 18043531831545471179

>  <PUBCHEM_SHAPE_MULTIPOLES>  (1) 
347.72
8.48
2.13
1.27
0.1
0.65
0.04
-7.72
-0.36
-0.1
-0.13
0.09
0.2
0.73

>  <PUBCHEM_SHAPE_SELFOVERLAP>  (1) 
732.063

>  <PUBCHEM_SHAPE_VOLUME>  (1) 
199.1

>  <PUBCHEM_COORDINATE_TYPE>  (1) 
2
5
10

$$$$
