6625
     RDKit          3D

 17 18  0  0  0  0  0  0  0  0999 V2000
    5.0790    2.0149    0.0041 Cl  0  0  0  0  0  0  0  0  0  0  0  0
   -5.0684    2.0230   -0.0043 Cl  0  0  0  0  0  0  0  0  0  0  0  0
    0.0024   -1.6419    0.0000 S   0  0  0  0  0  0  0  0  0  0  0  0
    0.0236   -2.3729   -1.2592 O   0  0  0  0  0  0  0  0  0  0  0  0
   -0.0612   -2.3721    1.2596 O   0  0  0  0  0  0  0  0  0  0  0  0
    1.4200   -0.6229    0.0014 C   0  0  0  0  0  0  0  0  0  0  0  0
   -1.4354   -0.6049   -0.0013 C   0  0  0  0  0  0  0  0  0  0  0  0
    1.9853   -0.2158    1.2096 C   0  0  0  0  0  0  0  0  0  0  0  0
   -1.9782   -0.2127   -1.2096 C   0  0  0  0  0  0  0  0  0  0  0  0
    1.9865   -0.2148   -1.2063 C   0  0  0  0  0  0  0  0  0  0  0  0
   -1.9794   -0.2115    1.2063 C   0  0  0  0  0  0  0  0  0  0  0  0
    3.1170    0.5996    1.2105 C   0  0  0  0  0  0  0  0  0  0  0  0
   -3.1086    0.6045   -1.2106 C   0  0  0  0  0  0  0  0  0  0  0  0
    3.1183    0.6006   -1.2056 C   0  0  0  0  0  0  0  0  0  0  0  0
   -3.1099    0.6057    1.2055 C   0  0  0  0  0  0  0  0  0  0  0  0
    3.6836    1.0077    0.0029 C   0  0  0  0  0  0  0  0  0  0  0  0
   -3.6746    1.0136   -0.0031 C   0  0  0  0  0  0  0  0  0  0  0  0
  1 16  1  0
  2 17  1  0
  3  4  2  0
  3  5  2  0
  3  6  1  0
  3  7  1  0
  6  8  2  0
  6 10  1  0
  7  9  2  0
  7 11  1  0
  8 12  1  0
  9 13  1  0
 10 14  2  0
 11 15  2  0
 12 16  2  0
 13 17  2  0
 14 16  1  0
 15 17  1  0
M  END
>  <PUBCHEM_COMPOUND_CID>  (1) 
6625

>  <PUBCHEM_CONFORMER_RMSD>  (1) 
0.6

>  <PUBCHEM_CONFORMER_DIVERSEORDER>  (1) 
1

>  <PUBCHEM_MMFF94_PARTIAL_CHARGES>  (1) 
25
1 -0.18
10 -0.15
11 -0.15
12 -0.15
13 -0.15
14 -0.15
15 -0.15
16 0.18
17 0.18
18 0.15
19 0.15
2 -0.18
20 0.15
21 0.15
22 0.15
23 0.15
24 0.15
25 0.15
3 1.32
4 -0.65
5 -0.65
6 -0.01
7 -0.01
8 -0.15
9 -0.15

>  <PUBCHEM_EFFECTIVE_ROTOR_COUNT>  (1) 
2

>  <PUBCHEM_PHARMACOPHORE_FEATURES>  (1) 
4
1 4 acceptor
1 5 acceptor
6 6 8 10 12 14 16 rings
6 7 9 11 13 15 17 rings

>  <PUBCHEM_HEAVY_ATOM_COUNT>  (1) 
17

>  <PUBCHEM_ATOM_DEF_STEREO_COUNT>  (1) 
0

>  <PUBCHEM_ATOM_UDEF_STEREO_COUNT>  (1) 
0

>  <PUBCHEM_BOND_DEF_STEREO_COUNT>  (1) 
0

>  <PUBCHEM_BOND_UDEF_STEREO_COUNT>  (1) 
0

>  <PUBCHEM_ISOTOPIC_ATOM_COUNT>  (1) 
0

>  <PUBCHEM_COMPONENT_COUNT>  (1) 
1

>  <PUBCHEM_CACTVS_TAUTO_COUNT>  (1) 
1

>  <PUBCHEM_CONFORMER_ID>  (1) 
000019E100000001

>  <PUBCHEM_MMFF94_ENERGY>  (1) 
27.4031

>  <PUBCHEM_FEATURE_SELFOVERLAP>  (1) 
20.315

>  <PUBCHEM_SHAPE_FINGERPRINT>  (1) 
10498660 4 18131911546616755777
10618630 7 8718834197215821888
11046707 91 8718558207002181392
11640471 11 18338497699421411590
122479 349 18336549420983616896
12251169 10 15719111361656086766
12507560 40 16515675611672464980
12633257 1 15647060386168445968
12892183 10 15647324200239466573
13296908 3 8935002542438770670
13544653 18 8574713485922968606
13764800 53 18338529624066252003
1420 369 8718834197290305096
14251764 38 17765424736355810256
14252887 29 8502360114498358150
14341114 328 16226341381512690765
15061688 2 18410573985151464133
15342168 16 18409166589257564645
15775835 57 18410848867353368934
1741750 31 18335985371603074418
17834072 32 18410292557667982688
1798214 55 18408608045555564421
1813 80 17409935725951068414
18186145 218 17917440816918221110
193927 3 9295288378008740621
19765921 60 18341323410430387099
19784866 240 9439399142848452409
19862831 5 16343702127458761865
20112054 13 18260831509534150100
20361792 2 9655573011145753195
20645477 56 18057896938040292546
20671657 53 11887956562033948618
20871999 31 16629949023900660221
21065199 12 15719384006175047936
21524375 3 18410851062087367179
21618674 25 18041282067688468705
21713013 43 14261343682928110165
21731228 192 17748544857182009650
21731516 1 9223230771085689931
21756936 100 17025176261133287388
231179 274 18411983533394230616
23402539 116 17988921185043320568
23402655 69 16988850462166296296
23403322 49 10663830662673928892
23500284 214 18337113457489956640
23557571 272 17773314745316317574
23559900 14 17169567198720433283
25 1 17632309964187784058
270888 7 18410572885640739296
27216 239 18115029726593030401
2838139 119 18198901612433797696
3082319 5 15698002924535898948
3472631 163 18343580754894260477
4028521 119 17775566442093063473
465052 167 9727052305629482713
474 4 18413388713686606753
633830 44 18411416172477644159
7097593 13 16008742507232072160
76465 3 8862936178499695449
7808743 9 18337391655470489044
81228 2 17902800991272490522
83771 10 8646771109809292274
90316 7 14923947817224977071

>  <PUBCHEM_SHAPE_MULTIPOLES>  (1) 
345.7
9.06
2.07
1.45
0.08
0.53
0
-8.74
0
-0.01
0
0
0.23
0.02

>  <PUBCHEM_SHAPE_SELFOVERLAP>  (1) 
712.466

>  <PUBCHEM_SHAPE_VOLUME>  (1) 
200.2

>  <PUBCHEM_COORDINATE_TYPE>  (1) 
2
5
10

$$$$
