6627
     RDKit          3D

 15 16  0  0  0  0  0  0  0  0999 V2000
    0.0690    2.5153   -1.6279 Cl  0  0  0  0  0  0  0  0  0  0  0  0
    0.0154    2.4558    1.6748 Cl  0  0  0  0  0  0  0  0  0  0  0  0
    0.0277    1.3170   -0.0012 Si  0  0  0  0  0  4  0  0  0  0  0  0
   -1.5282    0.2924    0.0442 C   0  0  0  0  0  0  0  0  0  0  0  0
    1.5159    0.2545   -0.0491 C   0  0  0  0  0  0  0  0  0  0  0  0
   -1.7464   -0.5978    1.0960 C   0  0  0  0  0  0  0  0  0  0  0  0
    1.4852   -1.0209   -0.6551 C   0  0  0  0  0  0  0  0  0  0  0  0
   -2.4745    0.4151   -0.9733 C   0  0  0  0  0  0  0  0  0  0  0  0
    2.7373    0.6793    0.5190 C   0  0  0  0  0  0  0  0  0  0  0  0
   -2.9106   -1.3653    1.1299 C   0  0  0  0  0  0  0  0  0  0  0  0
    2.6197   -1.8317   -0.6912 C   0  0  0  0  0  0  0  0  0  0  0  0
   -3.6387   -0.3524   -0.9391 C   0  0  0  0  0  0  0  0  0  0  0  0
    3.8719   -0.1315    0.4828 C   0  0  0  0  0  0  0  0  0  0  0  0
   -3.8567   -1.2427    0.1125 C   0  0  0  0  0  0  0  0  0  0  0  0
    3.8130   -1.3870   -0.1223 C   0  0  0  0  0  0  0  0  0  0  0  0
  1  3  1  0
  2  3  1  0
  3  4  1  0
  3  5  1  0
  4  6  2  0
  4  8  1  0
  5  7  2  0
  5  9  1  0
  6 10  1  0
  7 11  1  0
  8 12  2  0
  9 13  2  0
 10 14  2  0
 11 15  2  0
 12 14  1  0
 13 15  1  0
M  END
>  <PUBCHEM_COMPOUND_CID>  (1) 
6627

>  <PUBCHEM_CONFORMER_RMSD>  (1) 
0.6

>  <PUBCHEM_CONFORMER_DIVERSEORDER>  (1) 
1
3
2

>  <PUBCHEM_MMFF94_PARTIAL_CHARGES>  (1) 
25
1 -0.37
10 -0.15
11 -0.15
12 -0.15
13 -0.15
14 -0.15
15 -0.15
16 0.15
17 0.15
18 0.15
19 0.15
2 -0.37
20 0.15
21 0.15
22 0.15
23 0.15
24 0.15
25 0.15
3 1.18
4 -0.22
5 -0.22
6 -0.15
7 -0.15
8 -0.15
9 -0.15

>  <PUBCHEM_EFFECTIVE_ROTOR_COUNT>  (1) 
2

>  <PUBCHEM_PHARMACOPHORE_FEATURES>  (1) 
2
6 4 6 8 10 12 14 rings
6 5 7 9 11 13 15 rings

>  <PUBCHEM_HEAVY_ATOM_COUNT>  (1) 
15

>  <PUBCHEM_ATOM_DEF_STEREO_COUNT>  (1) 
0

>  <PUBCHEM_ATOM_UDEF_STEREO_COUNT>  (1) 
0

>  <PUBCHEM_BOND_DEF_STEREO_COUNT>  (1) 
0

>  <PUBCHEM_BOND_UDEF_STEREO_COUNT>  (1) 
0

>  <PUBCHEM_ISOTOPIC_ATOM_COUNT>  (1) 
0

>  <PUBCHEM_COMPONENT_COUNT>  (1) 
1

>  <PUBCHEM_CACTVS_TAUTO_COUNT>  (1) 
1

>  <PUBCHEM_CONFORMER_ID>  (1) 
000019E300000001

>  <PUBCHEM_MMFF94_ENERGY>  (1) 
37.1772

>  <PUBCHEM_FEATURE_SELFOVERLAP>  (1) 
10.149

>  <PUBCHEM_SHAPE_FINGERPRINT>  (1) 
10465860 71 17385725802629779829
10618630 7 18341898463300740446
11543360 7 16588316007150628910
116883 192 18260827060016993453
12363563 72 18259991474018461482
12506688 2 18340491152688676978
13134695 92 18200869681853272409
13296908 3 18407760334922534526
13544653 18 18342738515801138836
14386348 63 18335138700051852523
14817 1 10849630033050054644
15375358 24 18335129903905816463
15501101 241 18343016735377580240
15775835 57 9367345929101906648
16945 1 18201718513166369704
17357779 13 18410846646887068772
17834072 14 18333726922858196628
18186145 218 11386365928726500386
200 152 18060411409247647183
20201158 50 18408039615218527211
20645477 70 18044370759007082991
20671657 53 18040156227294061140
20711985 344 18043525010631087225
20871999 31 17749107768686206877
21061003 4 18201999949551632929
21296965 67 18272930514148517337
22721475 48 18409453587103008936
23382010 3 14129349540853513116
23402539 116 18113888334680894950
23419403 2 18125973105515959616
23526113 38 18337652166685142361
23557571 272 18113890542410623516
23559900 14 18114170896854089066
276578 36 12319741353967212420
298252 57 11386367058229500880
305870 269 11671789225780492620
3082319 5 14851607691057792554
568465 68 18341049730439211650
7364860 26 17972324181096357685
74978 22 12180145184498740110
77492 1 16486971847001370337
81228 2 18117284652984976148
84936 31 18123185972414829940
8809292 202 18193558852919682766

>  <PUBCHEM_SHAPE_MULTIPOLES>  (1) 
330.65
6.67
2.38
1.39
0.24
1.13
0.07
-4.57
-0.04
0.42
-0.05
-0.47
0.68
0.71

>  <PUBCHEM_SHAPE_SELFOVERLAP>  (1) 
671.837

>  <PUBCHEM_SHAPE_VOLUME>  (1) 
193

>  <PUBCHEM_COORDINATE_TYPE>  (1) 
2
5
10

$$$$
