6628
     RDKit          3D

 14 14  0  0  0  0  0  0  0  0999 V2000
    1.2060   -0.8773   -0.3840 S   0  0  0  0  0  0  0  0  0  0  0  0
    1.5137   -0.8563   -1.8087 O   0  0  0  0  0  0  0  0  0  0  0  0
    1.4189   -2.1028    0.3771 O   0  0  0  0  0  0  0  0  0  0  0  0
    3.8954    1.5665   -0.1882 O   0  0  0  0  0  0  0  0  0  0  0  0
    2.0578    0.4120    0.4073 N   0  0  0  0  0  0  0  0  0  0  0  0
    3.5004    0.4310    0.0983 N   0  0  0  0  0  0  0  0  0  0  0  0
   -0.4625   -0.3904   -0.2197 C   0  0  0  0  0  0  0  0  0  0  0  0
   -1.3642   -1.2103    0.4588 C   0  0  0  0  0  0  0  0  0  0  0  0
   -0.8942    0.8180   -0.7668 C   0  0  0  0  0  0  0  0  0  0  0  0
   -3.1291    0.3861    0.0431 C   0  0  0  0  0  0  0  0  0  0  0  0
   -2.6975   -0.8222    0.5901 C   0  0  0  0  0  0  0  0  0  0  0  0
   -2.2275    1.2062   -0.6354 C   0  0  0  0  0  0  0  0  0  0  0  0
    1.7373    0.6378    1.8443 C   0  0  0  0  0  0  0  0  0  0  0  0
   -4.5546    0.8017    0.1838 C   0  0  0  0  0  0  0  0  0  0  0  0
  1  2  2  0
  1  3  2  0
  1  5  1  0
  1  7  1  0
  4  6  2  0
  5  6  1  0
  5 13  1  0
  7  8  2  0
  7  9  1  0
  8 11  1  0
  9 12  2  0
 10 11  2  0
 10 12  1  0
 10 14  1  0
M  END
>  <PUBCHEM_COMPOUND_CID>  (1) 
6628

>  <PUBCHEM_CONFORMER_RMSD>  (1) 
0.6

>  <PUBCHEM_CONFORMER_DIVERSEORDER>  (1) 
1
2
13
6
4
9
12
14
11
10
8
5
7
3

>  <PUBCHEM_MMFF94_PARTIAL_CHARGES>  (1) 
18
1 1.45
10 -0.14
11 -0.15
12 -0.15
13 0.36
14 0.14
15 0.15
16 0.15
17 0.15
18 0.15
2 -0.65
3 -0.65
4 -0.16
5 -0.39
6 0.06
7 -0.01
8 -0.15
9 -0.15

>  <PUBCHEM_EFFECTIVE_ROTOR_COUNT>  (1) 
3

>  <PUBCHEM_PHARMACOPHORE_FEATURES>  (1) 
3
1 2 acceptor
1 3 acceptor
6 7 8 9 10 11 12 rings

>  <PUBCHEM_HEAVY_ATOM_COUNT>  (1) 
14

>  <PUBCHEM_ATOM_DEF_STEREO_COUNT>  (1) 
0

>  <PUBCHEM_ATOM_UDEF_STEREO_COUNT>  (1) 
0

>  <PUBCHEM_BOND_DEF_STEREO_COUNT>  (1) 
0

>  <PUBCHEM_BOND_UDEF_STEREO_COUNT>  (1) 
0

>  <PUBCHEM_ISOTOPIC_ATOM_COUNT>  (1) 
0

>  <PUBCHEM_COMPONENT_COUNT>  (1) 
1

>  <PUBCHEM_CACTVS_TAUTO_COUNT>  (1) 
1

>  <PUBCHEM_CONFORMER_ID>  (1) 
000019E400000001

>  <PUBCHEM_MMFF94_ENERGY>  (1) 
21.9177

>  <PUBCHEM_FEATURE_SELFOVERLAP>  (1) 
15.241

>  <PUBCHEM_SHAPE_FINGERPRINT>  (1) 
10608611 8 18262796268093580629
107287 299 18131070432852779118
10857977 72 18187085053204483531
11031198 65 17775568632573590900
11132069 177 18113616823880877661
12251169 10 17530682129959542260
12326174 3 17846217687913505030
12382932 28 18114183042647075355
12932764 1 17917698094270660741
13214271 11 18336264643203468559
15219456 202 18411422790995925230
15775835 57 18272649064719986303
16945 1 18339060679718971017
18186145 218 18198908011670434653
19786989 88 18060134293662755271
20510252 161 18261954034161518681
20528008 55 18409726245023498885
20645464 45 18411983555164284287
20711983 171 18335699503038278764
21119208 17 14764349344576421721
21501502 16 18340474612944147971
23557571 272 18270125729037996131
23559900 14 18335139735117904454
25 1 17703792530824053080
2748010 2 17679865904031912823
3060560 45 16630520730812551196
449060 50 18409172112622306889
449060 62 18342175544626186073
53812653 166 18411700984744001505
7364860 26 18265333906750460942
8030462 33 14692570988074613599

>  <PUBCHEM_SHAPE_MULTIPOLES>  (1) 
264.39
6.51
1.54
1.2
1.27
0.32
0.1
-2.77
0.61
-0.52
0
-0.65
-0.03
0.49

>  <PUBCHEM_SHAPE_SELFOVERLAP>  (1) 
523.572

>  <PUBCHEM_SHAPE_VOLUME>  (1) 
158.6

>  <PUBCHEM_COORDINATE_TYPE>  (1) 
2
5
10

$$$$
