663
     RDKit          3D

 12 11  0  0  1  0  0  0  0  0999 V2000
    2.3169   -2.5972    0.0142 S   0  0  0  0  0  0  0  0  0  0  0  0
    4.0461    1.9460   -1.1345 S   0  0  0  0  0  0  0  0  0  0  0  0
   -3.8875    1.1499    0.9327 O   0  0  0  0  0  0  0  0  0  0  0  0
   -5.1069   -0.0907   -0.5740 N   0  0  0  0  0  0  0  0  0  0  0  0
    1.0899   -0.1217    0.3558 C   0  0  0  0  0  0  0  0  0  0  0  0
    2.3901   -0.7743   -0.1563 C   0  0  0  0  0  0  0  0  0  0  0  0
   -0.1786   -0.6248   -0.3467 C   0  0  0  0  0  0  0  0  0  0  0  0
   -1.4274    0.0730    0.2036 C   0  0  0  0  0  0  0  0  0  0  0  0
    3.6038   -0.1999    0.6060 C   0  0  0  0  0  0  0  0  0  0  0  0
   -2.7071   -0.3887   -0.4918 C   0  0  0  0  0  0  0  0  0  0  0  0
    3.8020    1.3189    0.5527 C   0  0  0  0  0  0  0  0  0  0  0  0
   -3.9412    0.3095    0.0381 C   0  0  0  0  0  0  0  0  0  0  0  0
  1  6  1  0
  2 11  1  0
  3 12  2  0
  4 12  1  0
  5  6  1  0
  5  7  1  0
  6  9  1  0
  7  8  1  0
  8 10  1  0
  9 11  1  0
 10 12  1  0
M  END
>  <PUBCHEM_COMPOUND_CID>  (1) 
663

>  <PUBCHEM_CONFORMER_RMSD>  (1) 
0.8

>  <PUBCHEM_CONFORMER_DIVERSEORDER>  (1) 
1
208
246
239
240
17
119
49
207
10
225
16
252
94
167
130
99
245
29
46
230
11
203
32
129
146
248
58
69
247
123
2
92
229
194
198
33
74
82
150
213
56
227
171
152
85
7
103
174
234
81
23
97
66
134
201
223
112
100
80
87
218
172
235
45
136
20
43
114
253
95
212
109
53
254
233
251
98
34
116
47
67
96
30
57
236
3
238
139
231
226
149
5
31
78
184
151
18
204
217
101
214
159
121
48
108
169
138
75
4
148
224
25
133
190
241
135
175
250
36
15
65
237
140
64
243
13
144
242
117
89
127
63
142
40
55
206
177
93
76
143
72
70
153
41
110
106
137
42
183
88
51
154
59
228
132
12
105
145
232
28
52
62
22
115
102
83
156
202
147
126
222
37
50
77
155
124
249
120
176
35
179
178
79
197
39
21
168
73
107
141
26
205
200
195
90
113
38
86
91
131
158
84
6
9
125
191
199
24
173
128
180
19
71
165
122
14
181
182
196
68
162
193
118
219
170
111
60
8
166
164
192
104
27
185
189
244
188
157
186
220
187
54
160
163
61
210
215
216
221
161
44
209
211

>  <PUBCHEM_MMFF94_PARTIAL_CHARGES>  (1) 
12
1 -0.41
10 0.06
11 0.23
12 0.57
2 -0.41
26 0.18
27 0.18
28 0.37
29 0.37
3 -0.57
4 -0.8
6 0.23

>  <PUBCHEM_EFFECTIVE_ROTOR_COUNT>  (1) 
7

>  <PUBCHEM_PHARMACOPHORE_FEATURES>  (1) 
3
1 3 acceptor
1 4 donor
4 5 7 8 10 hydrophobe

>  <PUBCHEM_HEAVY_ATOM_COUNT>  (1) 
12

>  <PUBCHEM_ATOM_DEF_STEREO_COUNT>  (1) 
0

>  <PUBCHEM_ATOM_UDEF_STEREO_COUNT>  (1) 
1

>  <PUBCHEM_BOND_DEF_STEREO_COUNT>  (1) 
0

>  <PUBCHEM_BOND_UDEF_STEREO_COUNT>  (1) 
0

>  <PUBCHEM_ISOTOPIC_ATOM_COUNT>  (1) 
0

>  <PUBCHEM_COMPONENT_COUNT>  (1) 
1

>  <PUBCHEM_CACTVS_TAUTO_COUNT>  (1) 
2

>  <PUBCHEM_CONFORMER_ID>  (1) 
0000029700000001

>  <PUBCHEM_MMFF94_ENERGY>  (1) 
16.0852

>  <PUBCHEM_FEATURE_SELFOVERLAP>  (1) 
15.223

>  <PUBCHEM_SHAPE_FINGERPRINT>  (1) 
10912923 1 18131067109154896483
12346645 6 18410290298889296214
12616999 72 18272370880031154754
13675066 3 14851596683056379146
14123238 8 18410571808072491509
14123260 362 18200888347554073417
14251764 75 17463715421125690660
14252887 29 17749112153578939851
14415576 193 18410576180338662412
14774955 27 18042405897131314396
15342168 16 18042408104881453316
17834072 33 18341325686773421463
18186145 218 18336828589262508174
20279233 1 17095525071972156187
20645477 70 18272368620599250206
20828058 21 16559030497748926661
2255824 54 18338519625736301606
23048698 100 18271806783216041995
23380061 81 18410577249648550978
23532345 1 18334579031395176346
3060560 45 16845854607429975180
32948 21 12103579549636960411
449060 50 18333734628240580591
449060 62 18410013251944616524
474 4 18261394494174389772
4990 188 16272214106472405652
81539 233 18408039624225219246

>  <PUBCHEM_SHAPE_MULTIPOLES>  (1) 
243.8
10.29
2.01
0.92
9.55
0.79
-0.04
-4.43
-0.41
-3.06
-0.3
-0.29
-0.27
-0.81

>  <PUBCHEM_SHAPE_SELFOVERLAP>  (1) 
428.315

>  <PUBCHEM_SHAPE_VOLUME>  (1) 
161.6

>  <PUBCHEM_COORDINATE_TYPE>  (1) 
2
5
10

$$$$
