6630
     RDKit          3D

 11 11  0  0  0  0  0  0  0  0999 V2000
    1.3765   -0.0040   -0.4566 S   0  0  0  0  0  0  0  0  0  0  0  0
    2.0586    0.0027    1.0343 O   0  0  0  0  0  0  0  0  0  0  0  0
    1.6867   -1.2712   -1.1014 O   0  0  0  0  0  0  0  0  0  0  0  0
    1.7182    1.2591   -1.0961 O   0  0  0  0  0  0  0  0  0  0  0  0
   -0.3442   -0.0007   -0.1601 C   0  0  0  0  0  0  0  0  0  0  0  0
   -1.0303    1.2086   -0.0475 C   0  0  0  0  0  0  0  0  0  0  0  0
   -1.0328   -1.2075   -0.0353 C   0  0  0  0  0  0  0  0  0  0  0  0
   -2.4048    1.2113    0.1899 C   0  0  0  0  0  0  0  0  0  0  0  0
   -2.4074   -1.2047    0.2020 C   0  0  0  0  0  0  0  0  0  0  0  0
   -3.0933    0.0047    0.3146 C   0  0  0  0  0  0  0  0  0  0  0  0
    3.4727    0.0017    1.1564 C   0  0  0  0  0  0  0  0  0  0  0  0
  1  2  1  0
  1  3  2  0
  1  4  2  0
  1  5  1  0
  2 11  1  0
  5  6  2  0
  5  7  1  0
  6  8  1  0
  7  9  2  0
  8 10  2  0
  9 10  1  0
M  END
>  <PUBCHEM_COMPOUND_CID>  (1) 
6630

>  <PUBCHEM_CONFORMER_RMSD>  (1) 
0.4

>  <PUBCHEM_CONFORMER_DIVERSEORDER>  (1) 
1
2
3

>  <PUBCHEM_MMFF94_PARTIAL_CHARGES>  (1) 
16
1 1.49
10 -0.15
11 0.28
12 0.15
13 0.15
14 0.15
15 0.15
16 0.15
2 -0.46
3 -0.65
4 -0.65
5 -0.01
6 -0.15
7 -0.15
8 -0.15
9 -0.15

>  <PUBCHEM_EFFECTIVE_ROTOR_COUNT>  (1) 
2

>  <PUBCHEM_PHARMACOPHORE_FEATURES>  (1) 
3
1 3 acceptor
1 4 acceptor
6 5 6 7 8 9 10 rings

>  <PUBCHEM_HEAVY_ATOM_COUNT>  (1) 
11

>  <PUBCHEM_ATOM_DEF_STEREO_COUNT>  (1) 
0

>  <PUBCHEM_ATOM_UDEF_STEREO_COUNT>  (1) 
0

>  <PUBCHEM_BOND_DEF_STEREO_COUNT>  (1) 
0

>  <PUBCHEM_BOND_UDEF_STEREO_COUNT>  (1) 
0

>  <PUBCHEM_ISOTOPIC_ATOM_COUNT>  (1) 
0

>  <PUBCHEM_COMPONENT_COUNT>  (1) 
1

>  <PUBCHEM_CACTVS_TAUTO_COUNT>  (1) 
1

>  <PUBCHEM_CONFORMER_ID>  (1) 
000019E600000001

>  <PUBCHEM_MMFF94_ENERGY>  (1) 
14.5302

>  <PUBCHEM_FEATURE_SELFOVERLAP>  (1) 
15.24

>  <PUBCHEM_SHAPE_FINGERPRINT>  (1) 
10857977 72 18342741853301905779
12716758 59 18270407075012434323
12932764 1 17203338801150934631
15219456 202 17917429787574138682
16945 1 18272660094638971173
20201158 50 17988921167309277835
20645464 45 17775283867625518699
20871998 184 18129379461516450631
21040471 1 18339370639008453061
23402539 116 18270099285040042277
23552423 10 18334307452292342439
2748010 2 18122354475762857751
3248919 1 18411142437269208661
369184 2 17132114615562793923
5084963 1 18198639751875362775

>  <PUBCHEM_SHAPE_MULTIPOLES>  (1) 
212.62
4.93
1.39
1.01
1.43
0
0
-0.01
-1.53
-0.53
0.21
0.86
0
0

>  <PUBCHEM_SHAPE_SELFOVERLAP>  (1) 
422.59

>  <PUBCHEM_SHAPE_VOLUME>  (1) 
126.5

>  <PUBCHEM_COORDINATE_TYPE>  (1) 
2
5
10

$$$$
