6631
     RDKit          3D

 14 14  0  0  0  0  0  0  0  0999 V2000
    1.4914   -0.5854    0.0177 O   0  0  0  0  0  0  0  0  0  0  0  0
    3.6865    0.1346    0.0034 O   0  0  0  0  0  0  0  0  0  0  0  0
   -0.4880    0.7723   -0.0287 C   0  0  0  0  0  0  0  0  0  0  0  0
   -1.0275    0.0373   -1.2623 C   0  0  0  0  0  0  0  0  0  0  0  0
   -1.0354    0.1467    1.2604 C   0  0  0  0  0  0  0  0  0  0  0  0
   -3.1020   -0.6411    0.0245 C   0  0  0  0  0  0  0  0  0  0  0  0
    1.0394    0.7688   -0.0238 C   0  0  0  0  0  0  0  0  0  0  0  0
   -2.5543   -0.0161   -1.2649 C   0  0  0  0  0  0  0  0  0  0  0  0
   -2.5621    0.0936    1.2581 C   0  0  0  0  0  0  0  0  0  0  0  0
   -4.6294   -0.6363    0.0199 C   0  0  0  0  0  0  0  0  0  0  0  0
    1.5825    1.4999    1.2034 C   0  0  0  0  0  0  0  0  0  0  0  0
    1.5826    1.3958   -1.3063 C   0  0  0  0  0  0  0  0  0  0  0  0
    2.8456   -0.7539    0.0268 C   0  0  0  0  0  0  0  0  0  0  0  0
    3.1709   -2.2162    0.0716 C   0  0  0  0  0  0  0  0  0  0  0  0
  1  7  1  0
  1 13  1  0
  2 13  2  0
  3  4  1  0
  3  5  1  0
  3  7  1  0
  4  8  1  0
  5  9  1  0
  6  8  1  0
  6  9  1  0
  6 10  1  0
  7 11  1  0
  7 12  1  0
 13 14  1  0
M  END
>  <PUBCHEM_COMPOUND_CID>  (1) 
6631

>  <PUBCHEM_CONFORMER_RMSD>  (1) 
0.6

>  <PUBCHEM_CONFORMER_DIVERSEORDER>  (1) 
1
12
9
5
13
14
15
6
16
11
2
10
4
8
3
7

>  <PUBCHEM_MMFF94_PARTIAL_CHARGES>  (1) 
5
1 -0.43
13 0.66
14 0.06
2 -0.57
7 0.28

>  <PUBCHEM_EFFECTIVE_ROTOR_COUNT>  (1) 
4.2

>  <PUBCHEM_PHARMACOPHORE_FEATURES>  (1) 
3
1 2 acceptor
3 7 11 12 hydrophobe
6 3 4 5 6 8 9 rings

>  <PUBCHEM_HEAVY_ATOM_COUNT>  (1) 
14

>  <PUBCHEM_ATOM_DEF_STEREO_COUNT>  (1) 
0

>  <PUBCHEM_ATOM_UDEF_STEREO_COUNT>  (1) 
0

>  <PUBCHEM_BOND_DEF_STEREO_COUNT>  (1) 
0

>  <PUBCHEM_BOND_UDEF_STEREO_COUNT>  (1) 
0

>  <PUBCHEM_ISOTOPIC_ATOM_COUNT>  (1) 
0

>  <PUBCHEM_COMPONENT_COUNT>  (1) 
1

>  <PUBCHEM_CACTVS_TAUTO_COUNT>  (1) 
1

>  <PUBCHEM_CONFORMER_ID>  (1) 
000019E700000001

>  <PUBCHEM_MMFF94_ENERGY>  (1) 
32.5726

>  <PUBCHEM_FEATURE_SELFOVERLAP>  (1) 
15.223

>  <PUBCHEM_SHAPE_FINGERPRINT>  (1) 
10130415 120 17131832105562210147
10465860 71 16009040457518986615
11769659 78 18341328907497837306
12251169 10 16702297966390958016
12382932 28 15195283153217103623
12932764 1 18059857311290563565
13296908 3 18188486874463390038
13538477 17 17274537762491130165
13581323 91 16200432463882694491
13705890 14 17894910707316504782
14144814 61 17561085795388921330
14251717 144 18408605863733387538
14344429 50 17703794759901815920
14350558 41 18410295821652730022
15219456 202 17241055429869972060
15375462 189 18059850666960176442
15477762 27 18259987089030802310
16945 1 18200295706702555764
1813 80 18199204901363775694
18186145 218 16660635289614736973
19784866 240 18412269402275628455
200 152 18410008831885094731
20201158 50 17749111088432318746
20279233 1 17530686515295127434
20281407 28 18335703819032063774
20361792 2 18342736282592302844
20388701 513 15841559526651009905
20523700 14 14129057040985657337
20559304 39 17346607382194848012
20645477 70 18113900489644460491
20671657 53 18041002787139294478
20711985 344 17023736793563248437
20871999 31 16950572017043599862
21501925 9 16845574227400808401
21524375 3 16698067226242391520
22445834 79 17989205932162599103
22485316 2 18410853265669093807
2255824 54 18129943511065726680
22802520 49 16877953749448097177
232386 152 17418094333982306700
23402539 116 16081356449901041222
23526113 38 17748828492769616530
23557571 272 16227191390200721641
25 1 9079107865338666570
2748010 2 15648760321787408105
3286 77 18413105078499367851
4072396 5 16917353593995410495
4990 188 17240199945900043747
528886 8 11891335356913042960
7364860 26 17896044419468620724
77492 1 17775005703984203597
81228 2 17606112875822866244
90316 7 16917068811223872337

>  <PUBCHEM_SHAPE_MULTIPOLES>  (1) 
276.37
6.7
1.49
1.31
2.78
0.39
-0.04
2.93
0.11
-1.66
0.04
0.43
-0.37
-0.08

>  <PUBCHEM_SHAPE_SELFOVERLAP>  (1) 
547.504

>  <PUBCHEM_SHAPE_VOLUME>  (1) 
163.7

>  <PUBCHEM_COORDINATE_TYPE>  (1) 
2
5
10

$$$$
