6632
     RDKit          3D

 14 14  0  0  1  0  0  0  0  0999 V2000
    0.9031   -0.7565    0.6959 O   0  0  0  0  0  0  0  0  0  0  0  0
    2.1444   -1.0420   -1.2315 O   0  0  0  0  0  0  0  0  0  0  0  0
    0.2352    0.3639    0.1068 C   0  0  0  0  0  0  0  0  0  0  0  0
   -0.7429    0.9363    1.1506 C   0  0  0  0  0  0  0  0  0  0  0  0
    1.2953    1.4135   -0.2387 C   0  0  0  0  0  0  0  0  0  0  0  0
   -1.9929    0.0650    1.2814 C   0  0  0  0  0  0  0  0  0  0  0  0
   -2.7388   -0.0401   -0.0601 C   0  0  0  0  0  0  0  0  0  0  0  0
   -0.4722   -0.1168   -1.1350 C   0  0  0  0  0  0  0  0  0  0  0  0
   -1.8010   -0.2770   -1.2158 C   0  0  0  0  0  0  0  0  0  0  0  0
    0.6559    2.6028   -0.9487 C   0  0  0  0  0  0  0  0  0  0  0  0
    2.0275    1.8661    1.0210 C   0  0  0  0  0  0  0  0  0  0  0  0
   -3.7989   -1.1394    0.0153 C   0  0  0  0  0  0  0  0  0  0  0  0
    1.8360   -1.3638   -0.0920 C   0  0  0  0  0  0  0  0  0  0  0  0
    2.4494   -2.5119    0.6508 C   0  0  0  0  0  0  0  0  0  0  0  0
  1  3  1  0
  1 13  1  0
  2 13  2  0
  3  4  1  0
  3  5  1  0
  3  8  1  0
  4  6  1  0
  5 10  1  0
  5 11  1  0
  6  7  1  0
  7  9  1  0
  7 12  1  0
  8  9  2  0
 13 14  1  0
M  END
>  <PUBCHEM_COMPOUND_CID>  (1) 
6632

>  <PUBCHEM_CONFORMER_RMSD>  (1) 
0.6

>  <PUBCHEM_CONFORMER_DIVERSEORDER>  (1) 
1
9
3
8
12
7
10
6
5
4
11
2

>  <PUBCHEM_MMFF94_PARTIAL_CHARGES>  (1) 
10
1 -0.43
13 0.66
14 0.06
2 -0.57
21 0.15
22 0.15
3 0.42
7 0.14
8 -0.29
9 -0.29

>  <PUBCHEM_EFFECTIVE_ROTOR_COUNT>  (1) 
3.8

>  <PUBCHEM_PHARMACOPHORE_FEATURES>  (1) 
3
1 2 acceptor
3 5 10 11 hydrophobe
6 3 4 6 7 8 9 rings

>  <PUBCHEM_HEAVY_ATOM_COUNT>  (1) 
14

>  <PUBCHEM_ATOM_DEF_STEREO_COUNT>  (1) 
0

>  <PUBCHEM_ATOM_UDEF_STEREO_COUNT>  (1) 
2

>  <PUBCHEM_BOND_DEF_STEREO_COUNT>  (1) 
0

>  <PUBCHEM_BOND_UDEF_STEREO_COUNT>  (1) 
0

>  <PUBCHEM_ISOTOPIC_ATOM_COUNT>  (1) 
0

>  <PUBCHEM_COMPONENT_COUNT>  (1) 
1

>  <PUBCHEM_CACTVS_TAUTO_COUNT>  (1) 
1

>  <PUBCHEM_CONFORMER_ID>  (1) 
000019E800000001

>  <PUBCHEM_MMFF94_ENERGY>  (1) 
32.5604

>  <PUBCHEM_FEATURE_SELFOVERLAP>  (1) 
15.223

>  <PUBCHEM_SHAPE_FINGERPRINT>  (1) 
1 1 18193831776458478892
12202030 40 17604164687004300571
12326174 3 18187351173346252104
12423570 1 11075293670680039584
13024252 1 16738070371147675994
13380536 127 16988297442472389873
14817 1 8491609927252145053
15906896 17 17178286187914548705
16945 1 18189905381865244665
19786989 88 17898281968791430933
20361792 2 18339077064739929407
20559304 39 17561370594976345715
20645477 70 18342736356213824263
20653091 64 18342747320447185395
21061003 4 18266452118575919698
22344851 341 18124592243655090814
23419403 2 16376860035562618602
23526113 38 17458350705986729651
23552423 10 18340493356307541045
23728640 28 16533399459771263034
2748010 2 18263624208891790437
305870 269 18198615717075324800
3250762 1 18120631566796813584
528862 383 18342735273201148119
7364860 26 17917434267130030896
81228 2 17691122639262339584

>  <PUBCHEM_SHAPE_MULTIPOLES>  (1) 
276.37
4.28
2.39
1.32
3.31
0.1
0.02
-2.04
-0.32
-2.43
-0.02
0.06
0.19
-0.08

>  <PUBCHEM_SHAPE_SELFOVERLAP>  (1) 
554.839

>  <PUBCHEM_SHAPE_VOLUME>  (1) 
161.6

>  <PUBCHEM_COORDINATE_TYPE>  (1) 
2
5
10

$$$$
