6636
     RDKit          3D

 17 18  0  0  0  0  0  0  0  0999 V2000
    6.0721    0.0499    0.1205 Cl  0  0  0  0  0  0  0  0  0  0  0  0
   -0.7624   -0.3795   -0.8038 S   0  0  0  0  0  0  0  0  0  0  0  0
    0.2082    0.1843    0.3907 O   0  0  0  0  0  0  0  0  0  0  0  0
   -0.6250   -1.8206   -0.8904 O   0  0  0  0  0  0  0  0  0  0  0  0
   -0.5914    0.4751   -1.9640 O   0  0  0  0  0  0  0  0  0  0  0  0
   -2.4006   -0.0949   -0.2057 C   0  0  0  0  0  0  0  0  0  0  0  0
    1.5674    0.1532    0.3279 C   0  0  0  0  0  0  0  0  0  0  0  0
   -3.0265    1.1061   -0.4932 C   0  0  0  0  0  0  0  0  0  0  0  0
   -3.0287   -1.0779    0.5400 C   0  0  0  0  0  0  0  0  0  0  0  0
   -4.3195    1.3310   -0.0206 C   0  0  0  0  0  0  0  0  0  0  0  0
   -4.3218   -0.8529    1.0124 C   0  0  0  0  0  0  0  0  0  0  0  0
    2.2318   -1.0662    0.1977 C   0  0  0  0  0  0  0  0  0  0  0  0
    2.2960    1.3408    0.3939 C   0  0  0  0  0  0  0  0  0  0  0  0
   -4.9670    0.3516    0.7321 C   0  0  0  0  0  0  0  0  0  0  0  0
    3.6248   -1.0982    0.1335 C   0  0  0  0  0  0  0  0  0  0  0  0
    3.6891    1.3090    0.3297 C   0  0  0  0  0  0  0  0  0  0  0  0
    4.3535    0.0894    0.1995 C   0  0  0  0  0  0  0  0  0  0  0  0
  1 17  1  0
  2  3  1  0
  2  4  2  0
  2  5  2  0
  2  6  1  0
  3  7  1  0
  6  8  2  0
  6  9  1  0
  7 12  2  0
  7 13  1  0
  8 10  1  0
  9 11  2  0
 10 14  2  0
 11 14  1  0
 12 15  1  0
 13 16  2  0
 15 17  2  0
 16 17  1  0
M  END
>  <PUBCHEM_COMPOUND_CID>  (1) 
6636

>  <PUBCHEM_CONFORMER_RMSD>  (1) 
0.6

>  <PUBCHEM_CONFORMER_DIVERSEORDER>  (1) 
1
2
3
4

>  <PUBCHEM_MMFF94_PARTIAL_CHARGES>  (1) 
26
1 -0.18
10 -0.15
11 -0.15
12 -0.15
13 -0.15
14 -0.15
15 -0.15
16 -0.15
17 0.18
18 0.15
19 0.15
2 1.49
20 0.15
21 0.15
22 0.15
23 0.15
24 0.15
25 0.15
26 0.15
3 -0.27
4 -0.65
5 -0.65
6 -0.01
7 0.08
8 -0.15
9 -0.15

>  <PUBCHEM_EFFECTIVE_ROTOR_COUNT>  (1) 
3

>  <PUBCHEM_PHARMACOPHORE_FEATURES>  (1) 
4
1 4 acceptor
1 5 acceptor
6 6 8 9 10 11 14 rings
6 7 12 13 15 16 17 rings

>  <PUBCHEM_HEAVY_ATOM_COUNT>  (1) 
17

>  <PUBCHEM_ATOM_DEF_STEREO_COUNT>  (1) 
0

>  <PUBCHEM_ATOM_UDEF_STEREO_COUNT>  (1) 
0

>  <PUBCHEM_BOND_DEF_STEREO_COUNT>  (1) 
0

>  <PUBCHEM_BOND_UDEF_STEREO_COUNT>  (1) 
0

>  <PUBCHEM_ISOTOPIC_ATOM_COUNT>  (1) 
0

>  <PUBCHEM_COMPONENT_COUNT>  (1) 
1

>  <PUBCHEM_CACTVS_TAUTO_COUNT>  (1) 
1

>  <PUBCHEM_CONFORMER_ID>  (1) 
000019EC00000001

>  <PUBCHEM_MMFF94_ENERGY>  (1) 
36.6955

>  <PUBCHEM_FEATURE_SELFOVERLAP>  (1) 
20.314

>  <PUBCHEM_SHAPE_FINGERPRINT>  (1) 
10354089 29 18342459244548813592
11089746 13 16200424780676741370
11401426 45 12751240306952110312
12107183 9 17688306789978207761
12236239 1 17418374696979206090
12251169 10 18187086169859076869
12507557 5 18131353024811286889
12507560 40 18407760326691224613
128620 24 13912321270258497618
13675066 3 18272647969777515632
1420 363 12612753502067201880
14341114 176 18335709320848344281
14943859 89 17418373609978057151
1813 80 15864076446529856351
18186145 218 12319740258687235039
18222031 100 16371004156675720831
187816 3 11600005453076854791
204376 136 17917713496203102823
20645477 70 18130224844308731318
21033648 29 18271509936414631897
21065199 12 18334859415787680649
22854114 59 18410576188744071651
23402539 116 13182740329473633802
23557571 272 17168140109746607036
23559900 14 18333728022517731881
3545911 37 18411138030384992553
42 15 18333452044882602833
4214541 1 18408323289476826489
5104073 3 18341323509230277810
542803 24 17676490549073423288
633830 44 17489035872521345453
7495541 125 17458065997606533048
77779 3 18407478864309233185
8272917 22 17988368052783894471

>  <PUBCHEM_SHAPE_MULTIPOLES>  (1) 
337.96
11.93
1.44
1.02
4.53
0.04
0.32
-1.33
-2.91
-0.22
0.02
-0.57
0.02
0.46

>  <PUBCHEM_SHAPE_SELFOVERLAP>  (1) 
702.282

>  <PUBCHEM_SHAPE_VOLUME>  (1) 
192.8

>  <PUBCHEM_COORDINATE_TYPE>  (1) 
2
5
10

$$$$
