6639
     RDKit          3D

 14 14  0  0  0  0  0  0  0  0999 V2000
    3.7270    2.4622    0.2041 Cl  0  0  0  0  0  0  0  0  0  0  0  0
    0.9452   -1.1497    0.2993 S   0  0  0  0  0  0  0  0  0  0  0  0
    1.9457    0.0266   -0.2517 O   0  0  0  0  0  0  0  0  0  0  0  0
    1.1779   -1.3240    1.7253 O   0  0  0  0  0  0  0  0  0  0  0  0
    1.0558   -2.2775   -0.6157 O   0  0  0  0  0  0  0  0  0  0  0  0
   -0.6604   -0.4848    0.1311 C   0  0  0  0  0  0  0  0  0  0  0  0
   -3.2260    0.5776   -0.1380 C   0  0  0  0  0  0  0  0  0  0  0  0
   -1.2282    0.2406    1.1785 C   0  0  0  0  0  0  0  0  0  0  0  0
   -1.3754   -0.6790   -1.0508 C   0  0  0  0  0  0  0  0  0  0  0  0
   -2.5110    0.7716    1.0441 C   0  0  0  0  0  0  0  0  0  0  0  0
   -2.6581   -0.1477   -1.1854 C   0  0  0  0  0  0  0  0  0  0  0  0
    3.3481   -0.1924   -0.2539 C   0  0  0  0  0  0  0  0  0  0  0  0
   -4.5974    1.1455   -0.2817 C   0  0  0  0  0  0  0  0  0  0  0  0
    4.0568    1.0311   -0.8051 C   0  0  0  0  0  0  0  0  0  0  0  0
  1 14  1  0
  2  3  1  0
  2  4  2  0
  2  5  2  0
  2  6  1  0
  3 12  1  0
  6  8  2  0
  6  9  1  0
  7 10  2  0
  7 11  1  0
  7 13  1  0
  8 10  1  0
  9 11  2  0
 12 14  1  0
M  END
>  <PUBCHEM_COMPOUND_CID>  (1) 
6639

>  <PUBCHEM_CONFORMER_RMSD>  (1) 
0.6

>  <PUBCHEM_CONFORMER_DIVERSEORDER>  (1) 
1
11
9
5
12
6
4
8
10
7
3
2

>  <PUBCHEM_MMFF94_PARTIAL_CHARGES>  (1) 
18
1 -0.29
10 -0.15
11 -0.15
12 0.28
13 0.14
14 0.29
15 0.15
16 0.15
17 0.15
18 0.15
2 1.49
3 -0.46
4 -0.65
5 -0.65
6 -0.01
7 -0.14
8 -0.15
9 -0.15

>  <PUBCHEM_EFFECTIVE_ROTOR_COUNT>  (1) 
4

>  <PUBCHEM_PHARMACOPHORE_FEATURES>  (1) 
3
1 4 acceptor
1 5 acceptor
6 6 7 8 9 10 11 rings

>  <PUBCHEM_HEAVY_ATOM_COUNT>  (1) 
14

>  <PUBCHEM_ATOM_DEF_STEREO_COUNT>  (1) 
0

>  <PUBCHEM_ATOM_UDEF_STEREO_COUNT>  (1) 
0

>  <PUBCHEM_BOND_DEF_STEREO_COUNT>  (1) 
0

>  <PUBCHEM_BOND_UDEF_STEREO_COUNT>  (1) 
0

>  <PUBCHEM_ISOTOPIC_ATOM_COUNT>  (1) 
0

>  <PUBCHEM_COMPONENT_COUNT>  (1) 
1

>  <PUBCHEM_CACTVS_TAUTO_COUNT>  (1) 
1

>  <PUBCHEM_CONFORMER_ID>  (1) 
000019EF00000001

>  <PUBCHEM_MMFF94_ENERGY>  (1) 
16.1742

>  <PUBCHEM_FEATURE_SELFOVERLAP>  (1) 
15.24

>  <PUBCHEM_SHAPE_FINGERPRINT>  (1) 
10465860 71 15985106322860093064
10618630 7 9871486313253434644
11127187 94 15123514726263036997
11132069 177 15141250884554840051
11543360 7 17346319349093350420
122479 349 18115874177699115308
12251169 10 13912327901666923206
12633257 1 15502374564622121964
12892183 10 13479122523805153532
14123255 52 18411418418698157948
14993402 34 17775000159640483781
15219456 202 16443621290304891995
15342168 16 18187653551855173492
15775835 57 18408322207092320380
16945 1 15912470296076137407
170605 34 18334580113843135282
1813 80 17766278670322364774
18186145 218 18341622542107185716
19786989 88 18262509291506532391
20112054 13 17968098667958866924
20645464 45 16660650639548167211
20645476 183 18059849554769395159
20871999 31 17345744321813063087
21119208 17 17704076183349306356
21499 59 18412266159569733350
21524375 3 18335140912381860218
22079108 93 18260555566870787025
22926399 37 18341896294500829833
231179 274 18259984842810372892
23382010 3 17846214526991258610
23403322 49 12894807899772870364
23500284 214 18041563658444783768
23557571 272 17095825251531252659
23598291 2 17414453700944013854
25 1 18408324393346685892
2748010 2 16413193526267520183
474 4 18409731793989785768
8030462 33 17417521407215774867
81228 2 17100324650791864922
9981440 41 17767673220707125904

>  <PUBCHEM_SHAPE_MULTIPOLES>  (1) 
276.22
7.84
1.88
1.23
1.36
0.19
0.25
5.51
-1.68
1.74
0.06
-0.28
-0.2
-0.34

>  <PUBCHEM_SHAPE_SELFOVERLAP>  (1) 
538.296

>  <PUBCHEM_SHAPE_VOLUME>  (1) 
167.7

>  <PUBCHEM_COORDINATE_TYPE>  (1) 
2
5
10

$$$$
