6642
     RDKit          3D

 14 14  0  0  0  0  0  0  0  0999 V2000
   -0.1607   -1.1911   -0.0136 S   0  0  0  0  0  0  0  0  0  0  0  0
    1.0375   -0.0801    0.0085 O   0  0  0  0  0  0  0  0  0  0  0  0
   -0.1526   -1.9215    1.2389 O   0  0  0  0  0  0  0  0  0  0  0  0
   -0.1089   -1.8771   -1.2909 O   0  0  0  0  0  0  0  0  0  0  0  0
    3.3061    0.6854    0.0294 C   0  0  0  0  0  0  0  0  0  0  0  0
    2.3862   -0.5271    0.0069 C   0  0  0  0  0  0  0  0  0  0  0  0
    4.7765    0.2776    0.0129 C   0  0  0  0  0  0  0  0  0  0  0  0
   -1.6402   -0.2286   -0.0045 C   0  0  0  0  0  0  0  0  0  0  0  0
    5.6912    1.4917   -0.0081 C   0  0  0  0  0  0  0  0  0  0  0  0
   -2.2041    0.1602   -1.2088 C   0  0  0  0  0  0  0  0  0  0  0  0
   -2.2135    0.1227    1.2070 C   0  0  0  0  0  0  0  0  0  0  0  0
   -3.3729    0.9212   -1.2016 C   0  0  0  0  0  0  0  0  0  0  0  0
   -3.3825    0.8837    1.2141 C   0  0  0  0  0  0  0  0  0  0  0  0
   -3.9622    1.2830    0.0097 C   0  0  0  0  0  0  0  0  0  0  0  0
  1  2  1  0
  1  3  2  0
  1  4  2  0
  1  8  1  0
  2  6  1  0
  5  6  1  0
  5  7  1  0
  7  9  1  0
  8 10  2  0
  8 11  1  0
 10 12  1  0
 11 13  2  0
 12 14  2  0
 13 14  1  0
M  END
>  <PUBCHEM_COMPOUND_CID>  (1) 
6642

>  <PUBCHEM_CONFORMER_RMSD>  (1) 
0.6

>  <PUBCHEM_CONFORMER_DIVERSEORDER>  (1) 
1
17
16
10
6
18
12
4
15
7
9
11
5
14
8
2
3
13

>  <PUBCHEM_MMFF94_PARTIAL_CHARGES>  (1) 
16
1 1.49
10 -0.15
11 -0.15
12 -0.15
13 -0.15
14 -0.15
2 -0.46
24 0.15
25 0.15
26 0.15
27 0.15
28 0.15
3 -0.65
4 -0.65
6 0.28
8 -0.01

>  <PUBCHEM_EFFECTIVE_ROTOR_COUNT>  (1) 
5

>  <PUBCHEM_PHARMACOPHORE_FEATURES>  (1) 
4
1 3 acceptor
1 4 acceptor
1 9 hydrophobe
6 8 10 11 12 13 14 rings

>  <PUBCHEM_HEAVY_ATOM_COUNT>  (1) 
14

>  <PUBCHEM_ATOM_DEF_STEREO_COUNT>  (1) 
0

>  <PUBCHEM_ATOM_UDEF_STEREO_COUNT>  (1) 
0

>  <PUBCHEM_BOND_DEF_STEREO_COUNT>  (1) 
0

>  <PUBCHEM_BOND_UDEF_STEREO_COUNT>  (1) 
0

>  <PUBCHEM_ISOTOPIC_ATOM_COUNT>  (1) 
0

>  <PUBCHEM_COMPONENT_COUNT>  (1) 
1

>  <PUBCHEM_CACTVS_TAUTO_COUNT>  (1) 
1

>  <PUBCHEM_CONFORMER_ID>  (1) 
000019F200000001

>  <PUBCHEM_MMFF94_ENERGY>  (1) 
11.3752

>  <PUBCHEM_FEATURE_SELFOVERLAP>  (1) 
20.314

>  <PUBCHEM_SHAPE_FINGERPRINT>  (1) 
10014705 185 18339637958047444516
10465860 71 14548729591036226939
11046707 91 8070031060262238992
11089746 13 17703503372974010280
11127187 94 13686293574099398565
11543360 7 15554160450157183152
122479 349 18336549408251689354
12251169 10 15502380014808519711
12507560 40 16877938283144244450
12892183 10 16153705384355396864
13675066 3 17240482507656266200
14123255 352 18409166627959768860
14123260 362 18202569496685635992
1420 369 8286207158428775376
15775835 57 18411976944882483789
167882 2 17774171098135807942
17870717 6 13686305685606837156
18186145 218 18340774749664250350
193927 3 9511179698410393944
19784866 240 8502357937498929017
200 152 9727637198290568828
20112054 13 18186803569321411748
20300324 65 16702300161119473665
20325693 3 15482672373172779905
20374829 77 11167942437467646884
204376 136 18261111863519193274
20645476 183 16917060049617156445
20645477 56 18040433317726217716
20645477 70 17846229839124994102
20871999 31 14476962264026168121
21499 59 18201719522446767671
21524375 3 18410855473087131151
21650355 55 15285650906134922405
22926399 37 18272084964169211737
23402539 116 17418374679936759736
23402655 69 17275108288793443192
23403322 49 11455893554983098212
23500284 214 18408890650361537362
23559900 14 16299797404080831922
27216 239 17894633673125163465
57265010 4 15647053763371041177
633830 44 18270405966636786262
83771 10 7925910378891582606
90316 7 14129340637771346751

>  <PUBCHEM_SHAPE_MULTIPOLES>  (1) 
274.35
9.88
1.59
1.21
13.89
0.49
0.01
-6.95
-0.07
0.18
0.01
-1.24
0.12
0.02

>  <PUBCHEM_SHAPE_SELFOVERLAP>  (1) 
537.146

>  <PUBCHEM_SHAPE_VOLUME>  (1) 
164.8

>  <PUBCHEM_COORDINATE_TYPE>  (1) 
2
5
10

$$$$
