6643
     RDKit          3D

 12 12  0  0  0  0  0  0  0  0999 V2000
    3.8741    0.1649   -0.1615 O   0  0  0  0  0  0  0  0  0  0  0  0
   -1.7313   -0.2973    0.2823 C   0  0  0  0  0  0  0  0  0  0  0  0
   -2.4422    1.0312   -0.1215 C   0  0  0  0  0  0  0  0  0  0  0  0
   -0.2014   -0.1714    0.1613 C   0  0  0  0  0  0  0  0  0  0  0  0
   -2.0808   -0.5986    1.7615 C   0  0  0  0  0  0  0  0  0  0  0  0
   -2.3306   -1.4560   -0.5506 C   0  0  0  0  0  0  0  0  0  0  0  0
   -2.1538    1.5193   -1.5383 C   0  0  0  0  0  0  0  0  0  0  0  0
    0.4295    0.8001    0.8947 C   0  0  0  0  0  0  0  0  0  0  0  0
    0.4567   -1.0368   -0.6743 C   0  0  0  0  0  0  0  0  0  0  0  0
    1.8154    0.9144    0.7849 C   0  0  0  0  0  0  0  0  0  0  0  0
    1.8425   -0.9228   -0.7841 C   0  0  0  0  0  0  0  0  0  0  0  0
    2.5220    0.0528   -0.0544 C   0  0  0  0  0  0  0  0  0  0  0  0
  1 12  1  0
  2  3  1  0
  2  4  1  0
  2  5  1  0
  2  6  1  0
  3  7  1  0
  4  8  2  0
  4  9  1  0
  8 10  1  0
  9 11  2  0
 10 12  2  0
 11 12  1  0
M  END
>  <PUBCHEM_COMPOUND_CID>  (1) 
6643

>  <PUBCHEM_CONFORMER_RMSD>  (1) 
0.6

>  <PUBCHEM_CONFORMER_DIVERSEORDER>  (1) 
1
3
2
4

>  <PUBCHEM_MMFF94_PARTIAL_CHARGES>  (1) 
13
1 -0.53
10 -0.15
11 -0.15
12 0.08
2 0.14
24 0.15
25 0.15
26 0.15
27 0.15
28 0.45
4 -0.14
8 -0.15
9 -0.15

>  <PUBCHEM_EFFECTIVE_ROTOR_COUNT>  (1) 
2

>  <PUBCHEM_PHARMACOPHORE_FEATURES>  (1) 
4
1 1 donor
1 7 hydrophobe
3 2 5 6 hydrophobe
6 4 8 9 10 11 12 rings

>  <PUBCHEM_HEAVY_ATOM_COUNT>  (1) 
12

>  <PUBCHEM_ATOM_DEF_STEREO_COUNT>  (1) 
0

>  <PUBCHEM_ATOM_UDEF_STEREO_COUNT>  (1) 
0

>  <PUBCHEM_BOND_DEF_STEREO_COUNT>  (1) 
0

>  <PUBCHEM_BOND_UDEF_STEREO_COUNT>  (1) 
0

>  <PUBCHEM_ISOTOPIC_ATOM_COUNT>  (1) 
0

>  <PUBCHEM_COMPONENT_COUNT>  (1) 
1

>  <PUBCHEM_CACTVS_TAUTO_COUNT>  (1) 
2

>  <PUBCHEM_CONFORMER_ID>  (1) 
000019F300000001

>  <PUBCHEM_MMFF94_ENERGY>  (1) 
38.1439

>  <PUBCHEM_FEATURE_SELFOVERLAP>  (1) 
20.298

>  <PUBCHEM_SHAPE_FINGERPRINT>  (1) 
12138202 97 18263349335516885263
124424 183 18263352625625364034
12716758 59 17750238010620356115
12932764 1 18409732867604775490
13024252 1 17022902363380398139
13839132 238 17823972338495096381
15775835 57 18413109450475615767
16945 1 17989492887770527338
17844478 74 18336281114302789563
18534176 82 18259701198885681621
19837323 101 17604151419997827321
200 152 16917058997466323511
20201158 50 18201999902159150086
21524375 3 17608352555280812829
22802520 49 18043820774990008343
23402539 116 17821721763148055871
23402655 69 17845644829882111789
25 1 18055913187040877901
2748010 2 17773304841395818472
305870 269 16662321793900578673
3248919 1 17167575003624761218
369184 2 18411139129965244035
5084963 1 18200308960623465218
528886 8 17703793595707027674
63268167 104 17775005656887321490
8030462 33 17531232980995242195

>  <PUBCHEM_SHAPE_MULTIPOLES>  (1) 
241.09
4.66
1.41
1.33
2.63
0.04
0.18
0.35
-0.43
-0.75
-0.36
-0.79
0.12
0.77

>  <PUBCHEM_SHAPE_SELFOVERLAP>  (1) 
492.899

>  <PUBCHEM_SHAPE_VOLUME>  (1) 
141.6

>  <PUBCHEM_COORDINATE_TYPE>  (1) 
2
5
10

$$$$
