6648
     RDKit          3D

 20 21  0  0  1  0  0  0  0  0999 V2000
    0.7328   -0.4757   -0.1650 O   0  0  0  0  0  0  0  0  0  0  0  0
    1.4482   -0.3407    2.0224 O   0  0  0  0  0  0  0  0  0  0  0  0
   -2.8584    0.4875   -0.4636 N   0  0  0  0  0  0  0  0  0  0  0  0
   -2.7886   -0.8793   -1.1213 C   0  0  0  0  0  0  0  0  0  0  0  0
   -2.7201    0.0026    1.1078 C   0  0  0  0  0  0  0  0  0  0  0  0
   -3.8001   -1.7092   -0.2803 C   0  0  0  0  0  0  0  0  0  0  0  0
   -3.9587   -0.9546    1.0737 C   0  0  0  0  0  0  0  0  0  0  0  0
   -1.3166   -1.3808   -1.0226 C   0  0  0  0  0  0  0  0  0  0  0  0
   -1.1643   -0.0259    1.2775 C   0  0  0  0  0  0  0  0  0  0  0  0
   -0.5060   -1.0497    0.2776 C   0  0  0  0  0  0  0  0  0  0  0  0
   -4.2152    1.1970   -0.7463 C   0  0  0  0  0  0  0  0  0  0  0  0
   -1.8355    1.5149   -0.9851 C   0  0  0  0  0  0  0  0  0  0  0  0
    1.6200   -0.1695    0.8212 C   0  0  0  0  0  0  0  0  0  0  0  0
    2.8910    0.4306    0.2403 C   0  0  0  0  0  0  0  0  0  0  0  0
    2.5935    1.7462   -0.5019 C   0  0  0  0  0  0  0  0  0  0  0  0
    3.6020   -0.5709   -0.6880 C   0  0  0  0  0  0  0  0  0  0  0  0
    1.9574    2.8044    0.4045 C   0  0  0  0  0  0  0  0  0  0  0  0
    3.9909   -1.8671    0.0296 C   0  0  0  0  0  0  0  0  0  0  0  0
    1.6565    4.0830   -0.3622 C   0  0  0  0  0  0  0  0  0  0  0  0
    4.6712   -2.8430   -0.9182 C   0  0  0  0  0  0  0  0  0  0  0  0
  1 10  1  0
  1 13  1  0
  2 13  2  0
  3  4  1  0
  3  5  1  0
  3 11  1  0
  3 12  1  0
  4  6  1  0
  4  8  1  0
  5  7  1  0
  5  9  1  0
  6  7  1  0
  8 10  1  0
  9 10  1  0
 13 14  1  0
 14 15  1  0
 14 16  1  0
 15 17  1  0
 16 18  1  0
 17 19  1  0
 18 20  1  0
M  CHG  1   3   1
M  END
>  <PUBCHEM_COMPOUND_CID>  (1) 
6648

>  <PUBCHEM_CONFORMER_RMSD>  (1) 
0.8

>  <PUBCHEM_CONFORMER_DIVERSEORDER>  (1) 
1
13
45
27
60
25
19
20
52
48
44
24
34
30
41
14
35
54
29
57
15
7
18
28
31
26
46
50
49
47
23
37
55
39
38
51
11
6
16
33
17
36
32
2
53
3
21
4
12
43
42
59
58
40
9
5
56
10
8
22

>  <PUBCHEM_MMFF94_PARTIAL_CHARGES>  (1) 
10
1 -0.43
10 0.28
11 0.5
12 0.5
13 0.66
14 0.06
2 -0.57
3 -1.01
4 0.5
5 0.5

>  <PUBCHEM_EFFECTIVE_ROTOR_COUNT>  (1) 
8.2

>  <PUBCHEM_PHARMACOPHORE_FEATURES>  (1) 
6
1 19 hydrophobe
1 2 acceptor
1 20 hydrophobe
1 3 cation
5 14 15 16 17 18 hydrophobe
8 3 4 5 6 7 8 9 10 rings

>  <PUBCHEM_HEAVY_ATOM_COUNT>  (1) 
20

>  <PUBCHEM_ATOM_DEF_STEREO_COUNT>  (1) 
2

>  <PUBCHEM_ATOM_UDEF_STEREO_COUNT>  (1) 
0

>  <PUBCHEM_BOND_DEF_STEREO_COUNT>  (1) 
0

>  <PUBCHEM_BOND_UDEF_STEREO_COUNT>  (1) 
0

>  <PUBCHEM_ISOTOPIC_ATOM_COUNT>  (1) 
0

>  <PUBCHEM_COMPONENT_COUNT>  (1) 
1

>  <PUBCHEM_CACTVS_TAUTO_COUNT>  (1) 
1

>  <PUBCHEM_CONFORMER_ID>  (1) 
000019F800000001

>  <PUBCHEM_MMFF94_ENERGY>  (1) 
87.3308

>  <PUBCHEM_FEATURE_SELFOVERLAP>  (1) 
30.446

>  <PUBCHEM_SHAPE_FINGERPRINT>  (1) 
10062212 137 17489587822853057623
10366900 7 17530683221118508587
10498660 4 14996285829282554214
11578080 2 17701240448968260208
116883 192 18196656181934202052
12403259 226 18334295370290642079
12623949 98 18052846880997728767
12788726 201 17974854965475433530
12916754 54 18411982498692325063
13009979 54 17845671265188950112
13134695 92 18410573977189589212
13899415 180 18337378362931290814
14115302 16 17561084730326813131
14250199 8 18337106894527078045
14251757 5 17974852761729968884
14866123 147 17330276065863877298
15238133 3 17606383359556019672
15806764 133 18260551117084428917
17041 50 18335978679880542272
17492 89 18340767147345874359
1813 80 18128836165744722302
18186145 218 18272374195429461058
18335252 114 18267010666926692237
19078846 21 18041824126551840232
19930381 70 17977100485630447197
20339313 130 18412263913602530866
20671657 53 18342185431878271774
21524375 3 17542495485316735872
221357 26 18334295344552584357
2255824 54 18269842068012466254
23557571 272 17170122692431053915
23559900 14 18411974767323781507
23566358 27 18267309922286993822
296302 2 10159693581900975087
474 4 17976819014853712904
5281201 14 18408888455306207870
6049 1 18040438831857551145
6287921 2 18044381757801091509
633830 44 17821728338215406903
7364860 26 18339921649164008844
74978 22 18410853304281737882
9709674 26 18335983180763961307
9971528 1 18342732997422258818
9981440 41 17691678313800001752

>  <PUBCHEM_SHAPE_MULTIPOLES>  (1) 
394.87
8.57
3.28
1.32
0.46
3.04
0.33
-4.34
-1.42
3.93
-0.86
-0.42
-0.18
0.73

>  <PUBCHEM_SHAPE_SELFOVERLAP>  (1) 
775.468

>  <PUBCHEM_SHAPE_VOLUME>  (1) 
237.2

>  <PUBCHEM_COORDINATE_TYPE>  (1) 
2
5
10

$$$$
