6651
     RDKit          3D

 12 12  0  0  0  0  0  0  0  0999 V2000
    2.2639    0.0032   -1.4341 O   0  0  0  0  0  0  0  0  0  0  0  0
   -2.1918    0.0553   -1.4299 O   0  0  0  0  0  0  0  0  0  0  0  0
   -0.7440    0.0040    0.4845 C   0  0  0  0  0  0  0  0  0  0  0  0
    2.1977   -0.0040   -0.0050 C   0  0  0  0  0  0  0  0  0  0  0  0
   -0.0114    1.2631    0.0050 C   0  0  0  0  0  0  0  0  0  0  0  0
   -0.0160   -1.2626    0.0181 C   0  0  0  0  0  0  0  0  0  0  0  0
    1.4555    1.2637    0.4417 C   0  0  0  0  0  0  0  0  0  0  0  0
    1.4501   -1.2648    0.4560 C   0  0  0  0  0  0  0  0  0  0  0  0
   -2.1919    0.0040   -0.0027 C   0  0  0  0  0  0  0  0  0  0  0  0
    3.6314    0.0003    0.5284 C   0  0  0  0  0  0  0  0  0  0  0  0
   -2.9455    1.2232    0.5272 C   0  0  0  0  0  0  0  0  0  0  0  0
   -2.8981   -1.2854    0.4110 C   0  0  0  0  0  0  0  0  0  0  0  0
  1  4  1  0
  2  9  1  0
  3  5  1  0
  3  6  1  0
  3  9  1  0
  4  7  1  0
  4  8  1  0
  4 10  1  0
  5  7  1  0
  6  8  1  0
  9 11  1  0
  9 12  1  0
M  END
>  <PUBCHEM_COMPOUND_CID>  (1) 
6651

>  <PUBCHEM_CONFORMER_RMSD>  (1) 
0.6

>  <PUBCHEM_CONFORMER_DIVERSEORDER>  (1) 
1
2
4
3

>  <PUBCHEM_MMFF94_PARTIAL_CHARGES>  (1) 
6
1 -0.68
2 -0.68
31 0.4
32 0.4
4 0.28
9 0.28

>  <PUBCHEM_EFFECTIVE_ROTOR_COUNT>  (1) 
2.2

>  <PUBCHEM_PHARMACOPHORE_FEATURES>  (1) 
6
1 1 acceptor
1 1 donor
1 2 acceptor
1 2 donor
3 9 11 12 hydrophobe
6 3 4 5 6 7 8 rings

>  <PUBCHEM_HEAVY_ATOM_COUNT>  (1) 
12

>  <PUBCHEM_ATOM_DEF_STEREO_COUNT>  (1) 
0

>  <PUBCHEM_ATOM_UDEF_STEREO_COUNT>  (1) 
0

>  <PUBCHEM_BOND_DEF_STEREO_COUNT>  (1) 
0

>  <PUBCHEM_BOND_UDEF_STEREO_COUNT>  (1) 
0

>  <PUBCHEM_ISOTOPIC_ATOM_COUNT>  (1) 
0

>  <PUBCHEM_COMPONENT_COUNT>  (1) 
1

>  <PUBCHEM_CACTVS_TAUTO_COUNT>  (1) 
1

>  <PUBCHEM_CONFORMER_ID>  (1) 
000019FB00000001

>  <PUBCHEM_MMFF94_ENERGY>  (1) 
31.9083

>  <PUBCHEM_FEATURE_SELFOVERLAP>  (1) 
30.446

>  <PUBCHEM_SHAPE_FINGERPRINT>  (1) 
12032990 46 18411706486829521570
12897270 3 18409727365624932203
12932764 1 17240480295067646376
13296908 3 17989212529274323510
14325111 11 18410575106280450840
15775835 57 18335422348234217424
16945 1 18409167696910487096
17844478 74 17531258218645261321
18186145 218 18333454244349158556
20201158 50 18335134289141408739
21028194 46 18040432226245452626
23235685 24 18407758123024842280
23380061 330 18343012315871764666
23402539 116 18060410301488794180
23402655 69 18269258077230851853
23552423 10 18335142046010529337
23559900 14 18412550908276770702
2748010 2 18194118757503933904
3248919 1 17458348554276523667
369184 2 18334855004787715219
5084963 1 17676765465381845907
528886 8 18411415081677140353
53812653 166 18341891874726054200
57812782 119 17676479579457995490
8030462 33 18411975849882094567

>  <PUBCHEM_SHAPE_MULTIPOLES>  (1) 
235.22
5.13
1.44
0.97
0.42
0.02
0.32
-0.01
-0.31
-0.4
-0.22
0.02
-0.01
-0.02

>  <PUBCHEM_SHAPE_SELFOVERLAP>  (1) 
464.779

>  <PUBCHEM_SHAPE_VOLUME>  (1) 
140.6

>  <PUBCHEM_COORDINATE_TYPE>  (1) 
2
5
10

$$$$
