6652
     RDKit          3D

 15 15  0  0  1  0  0  0  0  0999 V2000
    3.0082    2.5480    0.2007 O   0  0  0  0  0  0  0  0  0  0  0  0
   -3.0672    0.2156    0.0717 C   0  0  0  0  0  0  0  0  0  0  0  0
   -1.5638   -0.0934   -0.0216 C   0  0  0  0  0  0  0  0  0  0  0  0
    2.5770   -0.9434   -0.2777 C   0  0  0  0  0  0  0  0  0  0  0  0
    1.1187   -0.6447   -0.1874 C   0  0  0  0  0  0  0  0  0  0  0  0
   -3.8758   -0.9485   -0.5406 C   0  0  0  0  0  0  0  0  0  0  0  0
   -3.3800    1.5140   -0.7033 C   0  0  0  0  0  0  0  0  0  0  0  0
   -3.5761    0.4137    1.5176 C   0  0  0  0  0  0  0  0  0  0  0  0
   -1.0138   -0.2852   -1.2643 C   0  0  0  0  0  0  0  0  0  0  0  0
   -0.8401   -0.1631    1.1425 C   0  0  0  0  0  0  0  0  0  0  0  0
    0.3500   -0.5655   -1.3486 C   0  0  0  0  0  0  0  0  0  0  0  0
    0.5236   -0.4434    1.0581 C   0  0  0  0  0  0  0  0  0  0  0  0
    3.4916    0.1645    0.3052 C   0  0  0  0  0  0  0  0  0  0  0  0
    2.9248   -2.2775    0.4166 C   0  0  0  0  0  0  0  0  0  0  0  0
    3.3229    1.5089   -0.3689 C   0  0  0  0  0  0  0  0  0  0  0  0
  1 15  2  0
  2  3  1  0
  2  6  1  0
  2  7  1  0
  2  8  1  0
  3  9  2  0
  3 10  1  0
  4  5  1  0
  4 13  1  0
  4 14  1  0
  5 11  2  0
  5 12  1  0
  9 11  1  0
 10 12  2  0
 13 15  1  0
M  END
>  <PUBCHEM_COMPOUND_CID>  (1) 
6652

>  <PUBCHEM_CONFORMER_RMSD>  (1) 
0.6

>  <PUBCHEM_CONFORMER_DIVERSEORDER>  (1) 
2
15
10
1
9
13
6
7
3
12
5
4
14
8
11

>  <PUBCHEM_MMFF94_PARTIAL_CHARGES>  (1) 
16
1 -0.57
10 -0.15
11 -0.15
12 -0.15
13 0.06
15 0.45
2 0.14
26 0.15
27 0.15
28 0.15
29 0.15
3 -0.14
35 0.06
4 0.14
5 -0.14
9 -0.15

>  <PUBCHEM_EFFECTIVE_ROTOR_COUNT>  (1) 
4

>  <PUBCHEM_PHARMACOPHORE_FEATURES>  (1) 
4
1 1 acceptor
1 14 hydrophobe
4 2 6 7 8 hydrophobe
6 3 5 9 10 11 12 rings

>  <PUBCHEM_HEAVY_ATOM_COUNT>  (1) 
15

>  <PUBCHEM_ATOM_DEF_STEREO_COUNT>  (1) 
0

>  <PUBCHEM_ATOM_UDEF_STEREO_COUNT>  (1) 
1

>  <PUBCHEM_BOND_DEF_STEREO_COUNT>  (1) 
0

>  <PUBCHEM_BOND_UDEF_STEREO_COUNT>  (1) 
0

>  <PUBCHEM_ISOTOPIC_ATOM_COUNT>  (1) 
0

>  <PUBCHEM_COMPONENT_COUNT>  (1) 
1

>  <PUBCHEM_CACTVS_TAUTO_COUNT>  (1) 
2

>  <PUBCHEM_CONFORMER_ID>  (1) 
000019FC00000002

>  <PUBCHEM_MMFF94_ENERGY>  (1) 
46.2621

>  <PUBCHEM_FEATURE_SELFOVERLAP>  (1) 
20.297

>  <PUBCHEM_SHAPE_FINGERPRINT>  (1) 
10366900 7 18113343032890575924
10465860 71 15267069189268377088
10608611 8 18260827077075185605
10980938 120 18410292536356221836
11132069 177 16008749095817509179
11543360 7 18412255168906736935
11615757 297 18272374178249475000
12932764 1 18335431127321664751
13296908 3 17167871833041158643
13538477 17 17560787853914176270
13675066 3 17676778569812343141
13760787 19 18202566172391660903
14178342 30 16225768489242521609
14289901 80 18409444795531931059
15375462 6 18409728473657916511
15775835 57 18129383855484239684
16945 1 18057894536853017159
1813 80 17842568336408145342
18186145 218 18271813380111676710
19026448 4 18187649063761833771
19026448 5 18343301444538439859
19422 9 18131069320614784219
20233049 118 16988841666331457864
20645476 183 17846214496778983302
20645477 70 18264200327299713943
21524375 3 18199186385564758572
22096605 113 18410292557677973664
2255824 54 18412547583402897510
22854114 111 18412825815441572032
22892500 29 18261391114003265086
23559900 14 18339635638369719298
2748010 2 15503812743148018735
3248919 1 17560800979244373511
3286 77 18040992887266421022
474 4 18265331892563617504
633830 44 17774453684954730879
77492 1 17917989468883374462
81228 2 16154542052632407293

>  <PUBCHEM_SHAPE_MULTIPOLES>  (1) 
302.82
7.36
1.79
1.25
1.34
0.61
-0.08
1.38
-0.47
-1.99
0
0.73
-0.07
-0.17

>  <PUBCHEM_SHAPE_SELFOVERLAP>  (1) 
615.194

>  <PUBCHEM_SHAPE_VOLUME>  (1) 
177.4

>  <PUBCHEM_COORDINATE_TYPE>  (1) 
2
5
10

$$$$
