6655
     RDKit          3D

  7  6  0  0  1  0  0  0  0  0999 V2000
    0.5921   -2.3083   -0.1224 Br  0  0  0  0  0  0  0  0  0  0  0  0
    1.3625    1.2443   -0.9119 O   0  0  0  0  0  0  0  0  0  0  0  0
    1.1221    0.5903    1.2457 O   0  0  0  0  0  0  0  0  0  0  0  0
   -1.5369   -0.3953    0.2285 C   0  0  0  0  0  0  0  0  0  0  0  0
   -0.1743   -0.5450   -0.4382 C   0  0  0  0  0  0  0  0  0  0  0  0
   -2.1936    0.9480   -0.0640 C   0  0  0  0  0  0  0  0  0  0  0  0
    0.8282    0.4661    0.0623 C   0  0  0  0  0  0  0  0  0  0  0  0
  1  5  1  0
  2  7  1  0
  3  7  2  0
  4  5  1  0
  4  6  1  0
  5  7  1  0
M  END
>  <PUBCHEM_COMPOUND_CID>  (1) 
6655

>  <PUBCHEM_CONFORMER_RMSD>  (1) 
0.4

>  <PUBCHEM_CONFORMER_DIVERSEORDER>  (1) 
1
8
6
5
10
3
4
9
2
7

>  <PUBCHEM_MMFF94_PARTIAL_CHARGES>  (1) 
6
1 -0.23
14 0.5
2 -0.65
3 -0.57
5 0.29
7 0.66

>  <PUBCHEM_EFFECTIVE_ROTOR_COUNT>  (1) 
2

>  <PUBCHEM_PHARMACOPHORE_FEATURES>  (1) 
5
1 1 hydrophobe
1 2 acceptor
1 3 acceptor
1 6 hydrophobe
3 2 3 7 anion

>  <PUBCHEM_HEAVY_ATOM_COUNT>  (1) 
7

>  <PUBCHEM_ATOM_DEF_STEREO_COUNT>  (1) 
0

>  <PUBCHEM_ATOM_UDEF_STEREO_COUNT>  (1) 
1

>  <PUBCHEM_BOND_DEF_STEREO_COUNT>  (1) 
0

>  <PUBCHEM_BOND_UDEF_STEREO_COUNT>  (1) 
0

>  <PUBCHEM_ISOTOPIC_ATOM_COUNT>  (1) 
0

>  <PUBCHEM_COMPONENT_COUNT>  (1) 
1

>  <PUBCHEM_CACTVS_TAUTO_COUNT>  (1) 
1

>  <PUBCHEM_CONFORMER_ID>  (1) 
000019FF00000001

>  <PUBCHEM_MMFF94_ENERGY>  (1) 
6.1164

>  <PUBCHEM_FEATURE_SELFOVERLAP>  (1) 
25.431

>  <PUBCHEM_SHAPE_FINGERPRINT>  (1) 
137420 1 9885219599535547903
16714656 1 17761794144121632887
20096714 4 18188213224711513797
20653091 64 18122920737004351427
21040471 1 18268709574739863575
23552449 1 17330842833599840236
24536 1 18260544511545838925
29004967 10 17900835846191974267
5084963 1 18129108972944334959
5943 1 17047156266685762146

>  <PUBCHEM_SHAPE_MULTIPOLES>  (1) 
138.26
2.3
1.92
0.9
1.06
0.34
-0.1
-1.18
0.04
-0.84
0.13
-0.15
0.31
0.08

>  <PUBCHEM_SHAPE_SELFOVERLAP>  (1) 
239.728

>  <PUBCHEM_SHAPE_VOLUME>  (1) 
93.7

>  <PUBCHEM_COORDINATE_TYPE>  (1) 
2
5
10

$$$$
