6662
     RDKit          3D

 21 22  0  0  0  0  0  0  0  0999 V2000
   -0.3297   -1.0048    1.2641 S   0  0  0  0  0  0  0  0  0  0  0  0
    1.3157    1.3039   -0.9103 O   0  0  0  0  0  0  0  0  0  0  0  0
    0.1869   -0.1602    2.3338 O   0  0  0  0  0  0  0  0  0  0  0  0
   -0.6592   -2.3974    1.5432 O   0  0  0  0  0  0  0  0  0  0  0  0
    0.0885   -3.0020   -1.0661 O   0  0  0  0  0  0  0  0  0  0  0  0
    0.7429   -0.9715   -0.0922 N   0  0  0  0  0  0  0  0  0  0  0  0
    2.3860    2.1878   -0.8449 N   0  0  0  0  0  0  0  0  0  0  0  0
   -5.1577    1.7265   -0.8775 N   0  0  0  0  0  0  0  0  0  0  0  0
    1.6466    0.1938   -0.2343 C   0  0  0  0  0  0  0  0  0  0  0  0
   -1.7477   -0.2031    0.6357 C   0  0  0  0  0  0  0  0  0  0  0  0
    2.8910    0.2781    0.2888 C   0  0  0  0  0  0  0  0  0  0  0  0
    3.3147    1.5533   -0.1239 C   0  0  0  0  0  0  0  0  0  0  0  0
    0.8132   -2.0092   -1.0956 C   0  0  0  0  0  0  0  0  0  0  0  0
   -2.7507   -0.9463    0.0134 C   0  0  0  0  0  0  0  0  0  0  0  0
   -1.8769    1.1807    0.7547 C   0  0  0  0  0  0  0  0  0  0  0  0
    3.6331   -0.7085    1.0918 C   0  0  0  0  0  0  0  0  0  0  0  0
   -3.8830   -0.3056   -0.4898 C   0  0  0  0  0  0  0  0  0  0  0  0
   -3.0093    1.8213    0.2517 C   0  0  0  0  0  0  0  0  0  0  0  0
   -4.0124    1.0781   -0.3705 C   0  0  0  0  0  0  0  0  0  0  0  0
    4.6031    2.2134    0.1454 C   0  0  0  0  0  0  0  0  0  0  0  0
    1.8047   -1.8284   -2.2173 C   0  0  0  0  0  0  0  0  0  0  0  0
  1  3  2  0
  1  4  2  0
  1  6  1  0
  1 10  1  0
  2  7  1  0
  2  9  1  0
  5 13  2  0
  6  9  1  0
  6 13  1  0
  7 12  2  0
  8 19  1  0
  9 11  2  0
 10 14  2  0
 10 15  1  0
 11 12  1  0
 11 16  1  0
 12 20  1  0
 13 21  1  0
 14 17  1  0
 15 18  2  0
 17 19  2  0
 18 19  1  0
M  END
>  <PUBCHEM_COMPOUND_CID>  (1) 
6662

>  <PUBCHEM_CONFORMER_RMSD>  (1) 
0.6

>  <PUBCHEM_CONFORMER_DIVERSEORDER>  (1) 
1
19
33
11
28
32
8
35
23
31
20
7
30
25
34
24
22
4
21
10
3
14
18
29
17
9
26
16
15
27
13
6
5
12
2

>  <PUBCHEM_MMFF94_PARTIAL_CHARGES>  (1) 
27
1 1.45
10 -0.01
11 -0.18
12 0.11
13 0.75
14 -0.15
15 -0.15
16 0.18
17 -0.15
18 -0.15
19 0.1
2 -0.02
20 0.18
21 0.06
22 0.15
23 0.15
27 0.15
28 0.15
3 -0.65
35 0.4
36 0.4
4 -0.65
5 -0.57
6 -0.52
7 -0.41
8 -0.9
9 0.29

>  <PUBCHEM_EFFECTIVE_ROTOR_COUNT>  (1) 
4

>  <PUBCHEM_PHARMACOPHORE_FEATURES>  (1) 
8
1 3 acceptor
1 4 acceptor
1 5 acceptor
1 7 acceptor
1 8 cation
1 8 donor
5 2 7 9 11 12 rings
6 10 14 15 17 18 19 rings

>  <PUBCHEM_HEAVY_ATOM_COUNT>  (1) 
21

>  <PUBCHEM_ATOM_DEF_STEREO_COUNT>  (1) 
0

>  <PUBCHEM_ATOM_UDEF_STEREO_COUNT>  (1) 
0

>  <PUBCHEM_BOND_DEF_STEREO_COUNT>  (1) 
0

>  <PUBCHEM_BOND_UDEF_STEREO_COUNT>  (1) 
0

>  <PUBCHEM_ISOTOPIC_ATOM_COUNT>  (1) 
0

>  <PUBCHEM_COMPONENT_COUNT>  (1) 
1

>  <PUBCHEM_CACTVS_TAUTO_COUNT>  (1) 
1

>  <PUBCHEM_CONFORMER_ID>  (1) 
00001A0600000001

>  <PUBCHEM_MMFF94_ENERGY>  (1) 
48.1379

>  <PUBCHEM_FEATURE_SELFOVERLAP>  (1) 
40.619

>  <PUBCHEM_SHAPE_FINGERPRINT>  (1) 
10764073 3 15435619709016739072
10871710 139 16537084571791962388
11370993 70 18272085006722927693
12011746 2 18336834074663719566
12077114 3 18266185113644371732
12633257 1 17749658624212163306
12788726 201 17903344150217117618
13103583 49 11603092821978013733
14181834 199 17630329636377531534
14250199 8 18197789799628347469
15061688 2 18334292093225463281
15852999 172 18342465845729308066
16945 1 17983593904676736907
17492 54 18125147497285223887
17492 89 18335138730101455882
18186145 218 18263096447937455129
192875 21 18341325613390154152
20671657 53 17483971379977168391
20715895 44 18192702359480245397
21033648 29 15864337013885234269
21524375 3 18408321120191307249
21947302 44 18338807723087904350
22182313 1 18195555733244458798
23402539 116 18336537304738567029
23419403 2 16187726236993135522
23557571 272 18116736168824162907
23559900 14 18199467666724966262
2871803 45 12535630457480445097
298252 57 18341047522878918434
34934 24 18187922941426986968
4280585 95 17340140952818454302
474 4 18334294228130080257
5262128 65 17913784816460199517
83771 10 10375871883221489361
9981440 41 18336543927504532058
9999458 23 17022901220718650576

>  <PUBCHEM_SHAPE_MULTIPOLES>  (1) 
397.6
7.91
2.76
1.57
3.14
0.72
0.2
-6.07
-1.29
-0.95
-0.82
-0.42
0.83
0.47

>  <PUBCHEM_SHAPE_SELFOVERLAP>  (1) 
826.112

>  <PUBCHEM_SHAPE_VOLUME>  (1) 
227.9

>  <PUBCHEM_COORDINATE_TYPE>  (1) 
2
5
10

$$$$
