6675
     RDKit          3D

 35 38  0  0  1  0  0  0  0  0999 V2000
   -6.6381    2.6058   -0.0939 S   0  0  0  0  0  0  0  0  0  0  0  0
    1.0939   -0.9040   -2.0644 O   0  0  0  0  0  0  0  0  0  0  0  0
    2.4583    2.2590    1.2092 O   0  0  0  0  0  0  0  0  0  0  0  0
    5.8628    3.1997   -2.2641 O   0  0  0  0  0  0  0  0  0  0  0  0
   -5.8064   -1.9982    0.5794 O   0  0  0  0  0  0  0  0  0  0  0  0
   -7.3042    3.4949    1.1004 O   0  0  0  0  0  0  0  0  0  0  0  0
   -7.0700    3.1419   -1.3716 O   0  0  0  0  0  0  0  0  0  0  0  0
   -5.2333    2.3988    0.2071 O   0  0  0  0  0  0  0  0  0  0  0  0
   -5.8613   -0.2685   -0.9712 N   0  0  0  0  0  0  0  0  0  0  0  0
    0.7797   -1.6430    0.2650 C   0  0  0  0  0  0  0  0  0  0  0  0
    1.1620   -0.2810    0.8904 C   0  0  0  0  0  0  0  0  0  0  0  0
    2.6583   -0.1683    1.2221 C   0  0  0  0  0  0  0  0  0  0  0  0
    3.4856   -0.3600   -0.0936 C   0  0  0  0  0  0  0  0  0  0  0  0
    5.0375   -0.2580    0.1737 C   0  0  0  0  0  0  0  0  0  0  0  0
   -0.7527   -1.4308    0.1469 C   0  0  0  0  0  0  0  0  0  0  0  0
    1.5446   -1.8155   -1.0629 C   0  0  0  0  0  0  0  0  0  0  0  0
    3.0662   -1.6458   -0.8670 C   0  0  0  0  0  0  0  0  0  0  0  0
    5.3550    1.1123    0.8601 C   0  0  0  0  0  0  0  0  0  0  0  0
    0.1505   -0.1064    2.0223 C   0  0  0  0  0  0  0  0  0  0  0  0
    3.0006    1.1569    1.9305 C   0  0  0  0  0  0  0  0  0  0  0  0
   -1.1359   -0.7594    1.4858 C   0  0  0  0  0  0  0  0  0  0  0  0
    4.5074    1.3444    2.1272 C   0  0  0  0  0  0  0  0  0  0  0  0
    5.8794   -0.3682   -1.1321 C   0  0  0  0  0  0  0  0  0  0  0  0
    1.0983   -2.8553    1.1827 C   0  0  0  0  0  0  0  0  0  0  0  0
   -1.5863   -2.6677   -0.1557 C   0  0  0  0  0  0  0  0  0  0  0  0
    5.2479    2.3089   -0.1090 C   0  0  0  0  0  0  0  0  0  0  0  0
    5.5271   -1.4123    1.0891 C   0  0  0  0  0  0  0  0  0  0  0  0
    5.7252    0.8185   -2.0734 C   0  0  0  0  0  0  0  0  0  0  0  0
    6.0886    2.1173   -1.3673 C   0  0  0  0  0  0  0  0  0  0  0  0
   -3.0724   -2.4914    0.2171 C   0  0  0  0  0  0  0  0  0  0  0  0
   -1.4748   -3.0242   -1.6426 C   0  0  0  0  0  0  0  0  0  0  0  0
   -3.7691   -1.3852   -0.5760 C   0  0  0  0  0  0  0  0  0  0  0  0
   -5.2475   -1.2767   -0.2421 C   0  0  0  0  0  0  0  0  0  0  0  0
   -7.2635    0.0563   -0.8442 C   0  0  0  0  0  0  0  0  0  0  0  0
   -7.5137    1.1053    0.2222 C   0  0  0  0  0  0  0  0  0  0  0  0
  1  6  1  0
  1  7  2  0
  1  8  2  0
  1 35  1  0
  2 16  1  0
  3 20  1  0
  4 29  1  0
  5 33  2  0
  9 33  1  0
  9 34  1  0
 10 11  1  0
 10 15  1  0
 10 16  1  0
 10 24  1  0
 11 12  1  0
 11 19  1  0
 12 13  1  0
 12 20  1  0
 13 14  1  0
 13 17  1  0
 14 18  1  0
 14 23  1  0
 14 27  1  0
 15 21  1  0
 15 25  1  0
 16 17  1  0
 18 22  1  0
 18 26  1  0
 19 21  1  0
 20 22  1  0
 23 28  1  0
 25 30  1  0
 25 31  1  0
 26 29  1  0
 28 29  1  0
 30 32  1  0
 32 33  1  0
 34 35  1  0
M  END
>  <PUBCHEM_COMPOUND_CID>  (1) 
6675

>  <PUBCHEM_CONFORMER_RMSD>  (1) 
1

>  <PUBCHEM_CONFORMER_DIVERSEORDER>  (1) 
3
10
61
16
19
14
76
11
64
50
42
20
33
47
38
25
63
74
2
66
77
30
56
69
58
6
48
36
17
26
13
27
54
21
29
79
71
32
23
41
18
35
8
28
52
51
39
34
80
43
65
68
78
57
40
49
15
72
22
55
31
9
4
53
75
46
12
62
73
67
37
7
5
1
45
60
24
44
59
70

>  <PUBCHEM_MMFF94_PARTIAL_CHARGES>  (1) 
21
1 1.38
16 0.28
2 -0.68
20 0.28
29 0.28
3 -0.68
32 0.06
33 0.57
34 0.3
35 0.11
4 -0.68
5 -0.57
6 -0.68
65 0.4
68 0.4
7 -0.65
72 0.4
75 0.37
8 -0.65
80 0.5
9 -0.73

>  <PUBCHEM_EFFECTIVE_ROTOR_COUNT>  (1) 
10.2

>  <PUBCHEM_PHARMACOPHORE_FEATURES>  (1) 
17
1 2 acceptor
1 2 donor
1 3 acceptor
1 3 donor
1 31 hydrophobe
1 4 acceptor
1 4 donor
1 5 acceptor
1 6 acceptor
1 7 acceptor
1 8 acceptor
1 9 donor
4 1 6 7 8 anion
5 10 11 15 19 21 rings
6 10 11 12 13 16 17 rings
6 12 13 14 18 20 22 rings
6 14 18 23 26 28 29 rings

>  <PUBCHEM_HEAVY_ATOM_COUNT>  (1) 
35

>  <PUBCHEM_ATOM_DEF_STEREO_COUNT>  (1) 
11

>  <PUBCHEM_ATOM_UDEF_STEREO_COUNT>  (1) 
0

>  <PUBCHEM_BOND_DEF_STEREO_COUNT>  (1) 
0

>  <PUBCHEM_BOND_UDEF_STEREO_COUNT>  (1) 
0

>  <PUBCHEM_ISOTOPIC_ATOM_COUNT>  (1) 
0

>  <PUBCHEM_COMPONENT_COUNT>  (1) 
1

>  <PUBCHEM_CACTVS_TAUTO_COUNT>  (1) 
2

>  <PUBCHEM_CONFORMER_ID>  (1) 
00001A1300000003

>  <PUBCHEM_MMFF94_ENERGY>  (1) 
106.844

>  <PUBCHEM_FEATURE_SELFOVERLAP>  (1) 
86.45

>  <PUBCHEM_SHAPE_FINGERPRINT>  (1) 
10190206 1 17918004870552040448
10554248 39 18340194233163376358
11475781 23 17917421038863095816
1200032 147 17603591863580233900
12717326 120 8790610342538369840
13782708 43 10087649186466268503
13944108 23 17768811962508251801
14347329 18 18270950281502343611
14664723 55 18339930303871757285
15082195 135 18272660064701287976
15183329 4 17060342941782503547
15475509 35 10159431885976377676
15510800 12 10159396770746070373
15840311 113 17894628158345107391
16728433 281 18271254845638727209
16992727 255 18413673499919702345
16994733 274 18186801430274919056
20691028 202 18408881828736172757
20715895 44 18060132163190476506
21033648 29 18337663243258249066
21424621 283 18187085048936397019
21792965 106 18272083903170320504
21859007 373 18129928036039908672
22122407 14 17750243671340292541
22149856 69 12901815070033280799
23559900 14 16772119262054538010
23569914 152 17056979363550143470
255183 313 14490193838779282531
2838139 119 18201426000582800183
3418910 222 18042413607277696381
3918712 181 18333444357371931981
4058900 60 18411422782913146635
4093350 32 17458341962209047730
4144715 1 18188217610095202115
4173938 188 16443633497994411131
5718773 13 9799687091768600893
6328613 192 18333733550145689333
9962374 69 12463579465793409244
9980921 221 17774460320685231937

>  <PUBCHEM_SHAPE_MULTIPOLES>  (1) 
678.07
20.99
3.82
1.95
30.63
1.59
0.16
19.29
5.52
4.01
0.68
-2.63
0.58
-1.08

>  <PUBCHEM_SHAPE_SELFOVERLAP>  (1) 
1397.667

>  <PUBCHEM_SHAPE_VOLUME>  (1) 
392.4

>  <PUBCHEM_COORDINATE_TYPE>  (1) 
2
5
10

$$$$
