6676
     RDKit          3D

 29 32  0  0  1  0  0  0  0  0999 V2000
   -0.6045    0.9535   -1.7236 O   0  0  0  0  0  0  0  0  0  0  0  0
    1.7320    0.9282    2.4144 O   0  0  0  0  0  0  0  0  0  0  0  0
    5.0935    3.2641   -0.3753 O   0  0  0  0  0  0  0  0  0  0  0  0
   -6.3475    2.8561    0.2358 O   0  0  0  0  0  0  0  0  0  0  0  0
   -7.1803    0.8046    0.7402 O   0  0  0  0  0  0  0  0  0  0  0  0
   -0.9978   -1.0466   -0.3395 C   0  0  0  0  0  0  0  0  0  0  0  0
   -0.2263   -0.5124    0.8901 C   0  0  0  0  0  0  0  0  0  0  0  0
    1.2574   -0.9127    0.8919 C   0  0  0  0  0  0  0  0  0  0  0  0
    1.9362   -0.3504   -0.4025 C   0  0  0  0  0  0  0  0  0  0  0  0
    3.4673   -0.7267   -0.4682 C   0  0  0  0  0  0  0  0  0  0  0  0
   -2.4166   -0.5380    0.0282 C   0  0  0  0  0  0  0  0  0  0  0  0
   -0.3741   -0.4511   -1.6180 C   0  0  0  0  0  0  0  0  0  0  0  0
    1.1430   -0.7256   -1.6900 C   0  0  0  0  0  0  0  0  0  0  0  0
    4.1818   -0.2143    0.8267 C   0  0  0  0  0  0  0  0  0  0  0  0
   -1.0955   -0.9352    2.0736 C   0  0  0  0  0  0  0  0  0  0  0  0
    1.9843   -0.4523    2.1705 C   0  0  0  0  0  0  0  0  0  0  0  0
   -2.5359   -0.8398    1.5399 C   0  0  0  0  0  0  0  0  0  0  0  0
    3.4923   -0.7115    2.1133 C   0  0  0  0  0  0  0  0  0  0  0  0
    4.1830   -0.1132   -1.7082 C   0  0  0  0  0  0  0  0  0  0  0  0
   -0.9810   -2.5958   -0.4540 C   0  0  0  0  0  0  0  0  0  0  0  0
   -3.5716   -1.1076   -0.7829 C   0  0  0  0  0  0  0  0  0  0  0  0
    4.3613    1.3185    0.8474 C   0  0  0  0  0  0  0  0  0  0  0  0
    3.6641   -2.2622   -0.5854 C   0  0  0  0  0  0  0  0  0  0  0  0
    4.3160    1.4028   -1.6624 C   0  0  0  0  0  0  0  0  0  0  0  0
    5.0558    1.8413   -0.4062 C   0  0  0  0  0  0  0  0  0  0  0  0
   -4.9114   -0.5404   -0.2705 C   0  0  0  0  0  0  0  0  0  0  0  0
   -3.3585   -0.8208   -2.2730 C   0  0  0  0  0  0  0  0  0  0  0  0
   -4.9841    0.9877   -0.2965 C   0  0  0  0  0  0  0  0  0  0  0  0
   -6.2829    1.4997    0.2845 C   0  0  0  0  0  0  0  0  0  0  0  0
  1 12  1  0
  2 16  1  0
  3 25  1  0
  4 29  1  0
  5 29  2  0
  6  7  1  0
  6 11  1  0
  6 12  1  0
  6 20  1  0
  7  8  1  0
  7 15  1  0
  8  9  1  0
  8 16  1  0
  9 10  1  0
  9 13  1  0
 10 14  1  0
 10 19  1  0
 10 23  1  0
 11 17  1  0
 11 21  1  0
 12 13  1  0
 14 18  1  0
 14 22  1  0
 15 17  1  0
 16 18  1  0
 19 24  1  0
 21 26  1  0
 21 27  1  0
 22 25  1  0
 24 25  1  0
 26 28  1  0
 28 29  1  0
M  END
>  <PUBCHEM_COMPOUND_CID>  (1) 
6676

>  <PUBCHEM_CONFORMER_RMSD>  (1) 
0.8

>  <PUBCHEM_CONFORMER_DIVERSEORDER>  (1) 
6
9
8
11
5
10
7
2
12
1
3
4
13

>  <PUBCHEM_MMFF94_PARTIAL_CHARGES>  (1) 
14
1 -0.68
12 0.28
16 0.28
2 -0.68
25 0.28
28 0.06
29 0.66
3 -0.68
4 -0.65
5 -0.57
59 0.4
62 0.4
66 0.4
69 0.5

>  <PUBCHEM_EFFECTIVE_ROTOR_COUNT>  (1) 
6.2

>  <PUBCHEM_PHARMACOPHORE_FEATURES>  (1) 
14
1 1 acceptor
1 1 donor
1 2 acceptor
1 2 donor
1 27 hydrophobe
1 3 acceptor
1 3 donor
1 4 acceptor
1 5 acceptor
3 4 5 29 anion
5 6 7 11 15 17 rings
6 10 14 19 22 24 25 rings
6 6 7 8 9 12 13 rings
6 8 9 10 14 16 18 rings

>  <PUBCHEM_HEAVY_ATOM_COUNT>  (1) 
29

>  <PUBCHEM_ATOM_DEF_STEREO_COUNT>  (1) 
10

>  <PUBCHEM_ATOM_UDEF_STEREO_COUNT>  (1) 
1

>  <PUBCHEM_BOND_DEF_STEREO_COUNT>  (1) 
0

>  <PUBCHEM_BOND_UDEF_STEREO_COUNT>  (1) 
0

>  <PUBCHEM_ISOTOPIC_ATOM_COUNT>  (1) 
0

>  <PUBCHEM_COMPONENT_COUNT>  (1) 
1

>  <PUBCHEM_CACTVS_TAUTO_COUNT>  (1) 
1

>  <PUBCHEM_CONFORMER_ID>  (1) 
00001A1400000006

>  <PUBCHEM_MMFF94_ENERGY>  (1) 
105.6399

>  <PUBCHEM_FEATURE_SELFOVERLAP>  (1) 
71.226

>  <PUBCHEM_SHAPE_FINGERPRINT>  (1) 
10 15 14851889187672675581
10554248 39 17987788602119601335
10693767 8 13829856768330400485
11135609 201 18114740542234614241
11578080 2 18337678623683523330
11954058 11 9439136355432760872
12011746 2 16487260988589526458
12236239 1 18041000618634548935
12403259 415 17274819211977864979
12422481 6 14996546417880218288
12596602 18 17894915131333423129
12633257 1 14851887010256267810
12892183 10 14923935709686061567
13140716 1 15648194060055466774
13224815 77 16732978782340435362
13533116 47 17458622268432258842
13955234 65 17531235111647668626
14931854 50 16128392509930066364
15163728 17 18271531909894033561
15183329 4 16128655224473225795
15188451 53 7997971254669640033
15238133 3 18201425996297967106
15475509 35 10809340065990953372
15840311 113 18261396599151691365
17349148 13 11671791510602678687
18222031 100 13110965322740530058
19377110 9 15068623811865054323
1979834 28 15936410022307534602
20775438 99 13181862927690138372
21033648 29 18273208733724588851
21267235 1 15502654841487489242
21521239 73 13542454355195233845
21623969 137 14417855834663389825
21641784 216 16558762178431507825
21792934 111 16081633510099589117
22122407 14 18336553818798851537
22149856 69 15792021018036367597
2215653 11 14979961380086428125
22393880 68 16271917264071126703
23559900 14 15195282083839072058
23569914 152 14042117359819915865
23569914 2 17836035166701351041
2838139 119 18411132550144288661
29717793 49 13110963119712269307
3004659 81 17703229520968436822
34797466 226 18130518538229535143
34934 24 17458626773905732102
3680242 22 16370718262410011476
392239 28 16443338827396051869
4058900 60 17846232033114966231
4340502 62 15863789499917420883
465052 167 11602822402046447836
5104073 3 16805323335542859296
57724786 102 18334855021904410924
59682541 52 15482391946157748237
59755656 215 16200436849318630041
633830 44 18408598150061905087
960060 61 16845299366868814820

>  <PUBCHEM_SHAPE_MULTIPOLES>  (1) 
567.46
13.69
2.25
2.2
15.98
1.24
-0.26
10.2
-1.1
-0.75
0.01
-0.82
-0.37
-0.95

>  <PUBCHEM_SHAPE_SELFOVERLAP>  (1) 
1190.568

>  <PUBCHEM_SHAPE_VOLUME>  (1) 
316.6

>  <PUBCHEM_COORDINATE_TYPE>  (1) 
2
5
10

$$$$
