6679
     RDKit          3D

 26 29  0  0  0  0  0  0  0  0999 V2000
    3.3584   -3.7745    0.1066 Cl  0  0  0  0  0  0  0  0  0  0  0  0
   -0.1098    1.5940    0.0757 O   0  0  0  0  0  0  0  0  0  0  0  0
    4.4200   -1.2332   -0.0486 O   0  0  0  0  0  0  0  0  0  0  0  0
   -3.0774   -2.0695   -0.7764 O   0  0  0  0  0  0  0  0  0  0  0  0
   -1.5985   -0.5485    0.2352 N   0  0  0  0  0  0  0  0  0  0  0  0
    0.8626   -0.5669    0.1099 C   0  0  0  0  0  0  0  0  0  0  0  0
    2.0438   -1.3110    0.0778 C   0  0  0  0  0  0  0  0  0  0  0  0
    2.2143    1.5854   -0.0424 C   0  0  0  0  0  0  0  0  0  0  0  0
    3.3955    0.8412   -0.0748 C   0  0  0  0  0  0  0  0  0  0  0  0
   -0.3723   -1.2206    0.1984 C   0  0  0  0  0  0  0  0  0  0  0  0
    0.9047    0.9086    0.0513 C   0  0  0  0  0  0  0  0  0  0  0  0
    3.3535   -0.6342   -0.0160 C   0  0  0  0  0  0  0  0  0  0  0  0
    1.9902   -2.7088    0.1348 C   0  0  0  0  0  0  0  0  0  0  0  0
   -0.4213   -2.6137    0.2547 C   0  0  0  0  0  0  0  0  0  0  0  0
    2.2679    2.9832   -0.0986 C   0  0  0  0  0  0  0  0  0  0  0  0
    4.6305    1.4949   -0.1634 C   0  0  0  0  0  0  0  0  0  0  0  0
    0.7575   -3.3563    0.2231 C   0  0  0  0  0  0  0  0  0  0  0  0
    3.5006    3.6306   -0.1868 C   0  0  0  0  0  0  0  0  0  0  0  0
    4.6794    2.8881   -0.2190 C   0  0  0  0  0  0  0  0  0  0  0  0
   -2.8373   -0.9946   -0.2372 C   0  0  0  0  0  0  0  0  0  0  0  0
   -3.9602   -0.0333   -0.0793 C   0  0  0  0  0  0  0  0  0  0  0  0
   -5.0212   -0.1001   -0.9578 C   0  0  0  0  0  0  0  0  0  0  0  0
   -3.9043    0.8933    0.9405 C   0  0  0  0  0  0  0  0  0  0  0  0
   -6.0750    0.8018   -0.8097 C   0  0  0  0  0  0  0  0  0  0  0  0
   -4.9582    1.7949    1.0885 C   0  0  0  0  0  0  0  0  0  0  0  0
   -6.0436    1.7491    0.2135 C   0  0  0  0  0  0  0  0  0  0  0  0
  1 13  1  0
  2 11  2  0
  3 12  2  0
  4 20  2  0
  5 10  1  0
  5 20  1  0
  6  7  2  0
  6 10  1  0
  6 11  1  0
  7 12  1  0
  7 13  1  0
  8  9  2  0
  8 11  1  0
  8 15  1  0
  9 12  1  0
  9 16  1  0
 10 14  2  0
 13 17  2  0
 14 17  1  0
 15 18  2  0
 16 19  2  0
 18 19  1  0
 20 21  1  0
 21 22  2  0
 21 23  1  0
 22 24  1  0
 23 25  2  0
 24 26  2  0
 25 26  1  0
M  END
>  <PUBCHEM_COMPOUND_CID>  (1) 
6679

>  <PUBCHEM_CONFORMER_RMSD>  (1) 
0.6

>  <PUBCHEM_CONFORMER_DIVERSEORDER>  (1) 
2
4
3
1

>  <PUBCHEM_MMFF94_PARTIAL_CHARGES>  (1) 
38
1 -0.18
10 0.12
11 0.4
12 0.4
13 0.18
14 -0.15
15 -0.15
16 -0.15
17 -0.15
18 -0.15
19 -0.15
2 -0.57
20 0.54
21 0.09
22 -0.15
23 -0.15
24 -0.15
25 -0.15
26 -0.15
27 0.15
28 0.15
29 0.15
3 -0.57
30 0.15
31 0.37
32 0.15
33 0.15
34 0.15
35 0.15
36 0.15
37 0.15
38 0.15
4 -0.57
5 -0.55
6 0.09
7 0.09
8 0.09
9 0.09

>  <PUBCHEM_EFFECTIVE_ROTOR_COUNT>  (1) 
3

>  <PUBCHEM_PHARMACOPHORE_FEATURES>  (1) 
8
1 2 acceptor
1 3 acceptor
1 4 acceptor
1 5 donor
6 21 22 23 24 25 26 rings
6 6 7 10 13 14 17 rings
6 6 7 8 9 11 12 rings
6 8 9 15 16 18 19 rings

>  <PUBCHEM_HEAVY_ATOM_COUNT>  (1) 
26

>  <PUBCHEM_ATOM_DEF_STEREO_COUNT>  (1) 
0

>  <PUBCHEM_ATOM_UDEF_STEREO_COUNT>  (1) 
0

>  <PUBCHEM_BOND_DEF_STEREO_COUNT>  (1) 
0

>  <PUBCHEM_BOND_UDEF_STEREO_COUNT>  (1) 
0

>  <PUBCHEM_ISOTOPIC_ATOM_COUNT>  (1) 
0

>  <PUBCHEM_COMPONENT_COUNT>  (1) 
1

>  <PUBCHEM_CACTVS_TAUTO_COUNT>  (1) 
4

>  <PUBCHEM_CONFORMER_ID>  (1) 
00001A1700000002

>  <PUBCHEM_MMFF94_ENERGY>  (1) 
95.0577

>  <PUBCHEM_FEATURE_SELFOVERLAP>  (1) 
40.64

>  <PUBCHEM_SHAPE_FINGERPRINT>  (1) 
10411042 1 17905325126884345618
10483366 6 18339094701009725334
10595046 47 18342452665160069591
10675989 125 18411139143177784816
10693767 8 18130511817170882398
10906281 52 18335994133774175666
10937287 8 18193839468871344108
1100329 8 18409445895550402738
11578080 2 13624971671830412252
12107183 9 17838061399369405873
12236239 1 17988355958857413715
12293681 160 17916876844931844000
12730499 353 18335427884848190099
12769317 202 18411691106256345841
12788726 201 17346328042571732681
13140716 1 18262517117279759226
13590594 115 17977953384134856978
138480 1 18193839241449411794
13878862 14 18117256109191315037
14739800 52 17702929409690552312
14790565 3 18265338480880159732
14848178 96 18410853304260755881
15081414 286 18267588996276733022
15196674 1 18410574028238430079
15475509 8 17698746717361691166
15664445 248 18056491542815644030
1601671 61 18409448046822251782
16087824 20 17473829424825427177
18608769 82 18123472937182450363
19301679 30 17326323334295022682
20028762 73 18201155451797143078
20157964 124 18410009919308620069
20511986 3 18059841845313901105
20612939 158 18410854322452445335
20715895 44 18410851092642631968
20739085 24 18186806880768025708
21033648 144 18261103093786546167
21120745 212 16092879052403326259
21279426 13 18269287897135800084
21421861 104 18115015308693669298
22122407 14 18194978336002450449
22393880 68 18129382759771324021
23559900 14 18413106165353356386
23845131 108 18187364363555412843
23929065 36 17408783871935657306
245318 6 17824557484919196893
24771293 8 18200016366915838202
283562 15 17976535341149451131
335352 9 18410013260977591628
34797466 226 15267048281747057107
350125 39 18408322173218151396
3680242 22 18334287631229177490
397830 11 18115326518541490113
4058900 60 18115313401046456218
4073 2 18187369852850183979
474 4 18409728469684819531
5104073 3 18187643647575952755
543358 83 18412545388146685738
550186 72 16105293191843213436
57724786 102 18340211765847099385
6034566 193 17827377762087575836
633830 44 18413386561670732054
6443956 14 18337676295995897878
8272917 22 18411700971880367598
9981440 41 18193552504662809275

>  <PUBCHEM_SHAPE_MULTIPOLES>  (1) 
514.35
12.46
4.47
0.79
16.52
0.98
0.02
-8
-0.98
-6.18
0.11
0.78
-0.08
-0.98

>  <PUBCHEM_SHAPE_SELFOVERLAP>  (1) 
1154.247

>  <PUBCHEM_SHAPE_VOLUME>  (1) 
270.1

>  <PUBCHEM_COORDINATE_TYPE>  (1) 
2
5
10

$$$$
