6682
     RDKit          3D

 19 21  0  0  0  0  0  0  0  0999 V2000
    1.7882   -2.9929   -0.0004 O   0  0  0  0  0  0  0  0  0  0  0  0
   -0.3445    2.6357   -0.0010 O   0  0  0  0  0  0  0  0  0  0  0  0
   -0.7783   -2.6899    0.0010 O   0  0  0  0  0  0  0  0  0  0  0  0
    4.4587    0.9071    0.0007 O   0  0  0  0  0  0  0  0  0  0  0  0
    2.2518    2.5566    0.0015 N   0  0  0  0  0  0  0  0  0  0  0  0
    0.8004    0.5591   -0.0006 C   0  0  0  0  0  0  0  0  0  0  0  0
    0.6830   -0.8325   -0.0007 C   0  0  0  0  0  0  0  0  0  0  0  0
   -1.7367    0.7730   -0.0005 C   0  0  0  0  0  0  0  0  0  0  0  0
   -1.8540   -0.6185   -0.0003 C   0  0  0  0  0  0  0  0  0  0  0  0
   -0.4052    1.4126   -0.0008 C   0  0  0  0  0  0  0  0  0  0  0  0
   -0.6485   -1.4721   -0.0002 C   0  0  0  0  0  0  0  0  0  0  0  0
    2.0683    1.1528    0.0000 C   0  0  0  0  0  0  0  0  0  0  0  0
    1.8335   -1.6302   -0.0005 C   0  0  0  0  0  0  0  0  0  0  0  0
    3.2122    0.3540    0.0003 C   0  0  0  0  0  0  0  0  0  0  0  0
    3.0950   -1.0345    0.0000 C   0  0  0  0  0  0  0  0  0  0  0  0
   -2.8873    1.5707   -0.0002 C   0  0  0  0  0  0  0  0  0  0  0  0
   -3.1219   -1.2123    0.0003 C   0  0  0  0  0  0  0  0  0  0  0  0
   -4.1488    0.9750    0.0006 C   0  0  0  0  0  0  0  0  0  0  0  0
   -4.2659   -0.4136    0.0008 C   0  0  0  0  0  0  0  0  0  0  0  0
  1 13  1  0
  2 10  2  0
  3 11  2  0
  4 14  1  0
  5 12  1  0
  6  7  2  0
  6 10  1  0
  6 12  1  0
  7 11  1  0
  7 13  1  0
  8  9  2  0
  8 10  1  0
  8 16  1  0
  9 11  1  0
  9 17  1  0
 12 14  2  0
 13 15  2  0
 14 15  1  0
 16 18  2  0
 17 19  2  0
 18 19  1  0
M  END
>  <PUBCHEM_COMPOUND_CID>  (1) 
6682

>  <PUBCHEM_CONFORMER_RMSD>  (1) 
0.4

>  <PUBCHEM_CONFORMER_DIVERSEORDER>  (1) 
1

>  <PUBCHEM_MMFF94_PARTIAL_CHARGES>  (1) 
28
1 -0.53
10 0.4
11 0.4
12 0.1
13 0.08
14 0.08
15 -0.15
16 -0.15
17 -0.15
18 -0.15
19 -0.15
2 -0.57
20 0.15
21 0.15
22 0.15
23 0.15
24 0.15
25 0.4
26 0.4
27 0.45
28 0.45
3 -0.57
4 -0.53
5 -0.9
6 0.09
7 0.09
8 0.09
9 0.09

>  <PUBCHEM_EFFECTIVE_ROTOR_COUNT>  (1) 
0

>  <PUBCHEM_PHARMACOPHORE_FEATURES>  (1) 
9
1 1 donor
1 2 acceptor
1 3 acceptor
1 4 donor
1 5 cation
1 5 donor
6 6 7 12 13 14 15 rings
6 6 7 8 9 10 11 rings
6 8 9 16 17 18 19 rings

>  <PUBCHEM_HEAVY_ATOM_COUNT>  (1) 
19

>  <PUBCHEM_ATOM_DEF_STEREO_COUNT>  (1) 
0

>  <PUBCHEM_ATOM_UDEF_STEREO_COUNT>  (1) 
0

>  <PUBCHEM_BOND_DEF_STEREO_COUNT>  (1) 
0

>  <PUBCHEM_BOND_UDEF_STEREO_COUNT>  (1) 
0

>  <PUBCHEM_ISOTOPIC_ATOM_COUNT>  (1) 
0

>  <PUBCHEM_COMPONENT_COUNT>  (1) 
1

>  <PUBCHEM_CACTVS_TAUTO_COUNT>  (1) 
30

>  <PUBCHEM_CONFORMER_ID>  (1) 
00001A1A00000001

>  <PUBCHEM_MMFF94_ENERGY>  (1) 
73.2214

>  <PUBCHEM_FEATURE_SELFOVERLAP>  (1) 
45.718

>  <PUBCHEM_SHAPE_FINGERPRINT>  (1) 
10411042 1 17690280404729430123
10608611 8 18408882910835978421
10616163 171 18339081609000029175
10967382 1 18410855442953573862
10980938 120 18409730646911543530
11132069 177 18412257337495865329
11471102 20 18410570669441986534
12011746 2 18410857654951447980
13140716 1 18266453394391904632
13221675 6 18410575093263608526
13380535 76 18409729586096968834
138480 1 18050286968819610722
13897977 150 18410290294256588837
14790565 3 18338247066916778564
15196674 1 18410573963687196647
15230672 131 13434922753982352643
15442244 35 18123470475342977435
15536298 74 18342739581058666198
16945 1 18410856559850903078
18186145 218 18342182111578369245
193761 8 17762056944596234725
19591789 44 18338801229123784975
200 152 18131061654625421917
20510252 161 18272090465679491841
20645477 70 18340200779114891559
21267235 1 18410583898057594935
21421861 104 17897722059289733762
21501502 16 18267867185629459299
221490 88 18337118860311395387
2334 1 18410857706411888367
23402539 116 18343293794932413782
23463225 33 18409449159197500573
23559900 14 18341610353011176518
238 59 17829847085194242941
2748010 2 18410013208778581319
335352 9 17906170646861339453
34934 24 18411411800411900631
350125 39 18121787385033792425
5104073 3 18410292480120558875
53812653 166 18341891904711619320
69090 78 18412822512490291663
7364860 26 18341050709929489014
9709674 26 18411142441395968439

>  <PUBCHEM_SHAPE_MULTIPOLES>  (1) 
362.55
6.83
2.77
0.59
1.51
0.42
0
-0.97
0
-0.89
0
0.04
0
0

>  <PUBCHEM_SHAPE_SELFOVERLAP>  (1) 
826.113

>  <PUBCHEM_SHAPE_VOLUME>  (1) 
186.6

>  <PUBCHEM_COORDINATE_TYPE>  (1) 
2
5
10

$$$$
