6689
     RDKit          3D

 33 36  0  0  0  0  0  0  0  0999 V2000
    0.3482   -3.8595    0.5717 S   0  0  0  0  0  0  0  0  0  0  0  0
    4.9265    0.1639   -1.6171 S   0  0  0  0  0  0  0  0  0  0  0  0
   -1.4933    2.6271    0.5259 O   0  0  0  0  0  0  0  0  0  0  0  0
   -4.4571   -1.6740   -0.5969 O   0  0  0  0  0  0  0  0  0  0  0  0
    0.4606   -4.3707   -0.9752 O   0  0  0  0  0  0  0  0  0  0  0  0
    1.7038   -3.6662    1.0590 O   0  0  0  0  0  0  0  0  0  0  0  0
   -0.5808   -4.7288    1.2726 O   0  0  0  0  0  0  0  0  0  0  0  0
    5.8542   -0.9692   -0.8931 O   0  0  0  0  0  0  0  0  0  0  0  0
    3.9313   -0.5407   -2.4091 O   0  0  0  0  0  0  0  0  0  0  0  0
    5.8043    1.1484   -2.2269 O   0  0  0  0  0  0  0  0  0  0  0  0
    0.6382    1.2032    1.0136 N   0  0  0  0  0  0  0  0  0  0  0  0
   -2.4956   -3.3080   -0.1727 N   0  0  0  0  0  0  0  0  0  0  0  0
    6.1629    2.0225    0.4599 N   0  0  0  0  0  0  0  0  0  0  0  0
   -1.5510    0.2648    0.3433 C   0  0  0  0  0  0  0  0  0  0  0  0
   -2.3248   -0.8600    0.0497 C   0  0  0  0  0  0  0  0  0  0  0  0
   -0.2066    0.1130    0.7030 C   0  0  0  0  0  0  0  0  0  0  0  0
   -1.7539   -2.1367    0.1155 C   0  0  0  0  0  0  0  0  0  0  0  0
   -0.4136   -2.2835    0.4741 C   0  0  0  0  0  0  0  0  0  0  0  0
   -2.1405    1.6177    0.2772 C   0  0  0  0  0  0  0  0  0  0  0  0
   -3.5604    1.7635   -0.1028 C   0  0  0  0  0  0  0  0  0  0  0  0
   -4.3343    0.6387   -0.3961 C   0  0  0  0  0  0  0  0  0  0  0  0
   -3.7448   -0.7142   -0.3307 C   0  0  0  0  0  0  0  0  0  0  0  0
    0.3583   -1.1611    0.7673 C   0  0  0  0  0  0  0  0  0  0  0  0
    2.0223    1.4044    0.8693 C   0  0  0  0  0  0  0  0  0  0  0  0
   -4.1313    3.0402   -0.1684 C   0  0  0  0  0  0  0  0  0  0  0  0
   -5.6790    0.7905   -0.7552 C   0  0  0  0  0  0  0  0  0  0  0  0
    2.7195    0.7739   -0.1642 C   0  0  0  0  0  0  0  0  0  0  0  0
    4.0927    0.9737   -0.3071 C   0  0  0  0  0  0  0  0  0  0  0  0
   -5.4717    3.1870   -0.5265 C   0  0  0  0  0  0  0  0  0  0  0  0
   -6.2438    2.0646   -0.8195 C   0  0  0  0  0  0  0  0  0  0  0  0
    2.7068    2.2358    1.7593 C   0  0  0  0  0  0  0  0  0  0  0  0
    4.7729    1.8043    0.5833 C   0  0  0  0  0  0  0  0  0  0  0  0
    4.0800    2.4354    1.6165 C   0  0  0  0  0  0  0  0  0  0  0  0
  1  5  1  0
  1  6  2  0
  1  7  2  0
  1 18  1  0
  2  8  1  0
  2  9  2  0
  2 10  2  0
  2 28  1  0
  3 19  2  0
  4 22  2  0
 11 16  1  0
 11 24  1  0
 12 17  1  0
 13 32  1  0
 14 15  1  0
 14 16  2  0
 14 19  1  0
 15 17  2  0
 15 22  1  0
 16 23  1  0
 17 18  1  0
 18 23  2  0
 19 20  1  0
 20 21  2  0
 20 25  1  0
 21 22  1  0
 21 26  1  0
 24 27  2  0
 24 31  1  0
 25 29  2  0
 26 30  2  0
 27 28  1  0
 28 32  2  0
 29 30  1  0
 31 33  2  0
 32 33  1  0
M  END
>  <PUBCHEM_COMPOUND_CID>  (1) 
6689

>  <PUBCHEM_CONFORMER_RMSD>  (1) 
0.8

>  <PUBCHEM_CONFORMER_DIVERSEORDER>  (1) 
1
13
6
3
5
14
8
9
11
7
4
2
12
10

>  <PUBCHEM_MMFF94_PARTIAL_CHARGES>  (1) 
48
1 1.49
10 -0.65
11 -0.6
12 -0.9
13 -0.9
14 0.09
15 0.09
16 0.1
17 0.1
18 -0.01
19 0.4
2 1.49
20 0.09
21 0.09
22 0.4
23 -0.15
24 0.1
25 -0.15
26 -0.15
27 -0.15
28 -0.01
29 -0.15
3 -0.57
30 -0.15
31 -0.15
32 0.1
33 -0.15
34 0.15
35 0.4
36 0.15
37 0.15
38 0.4
39 0.4
4 -0.57
40 0.15
41 0.15
42 0.15
43 0.15
44 0.15
45 0.5
46 0.4
47 0.4
48 0.5
5 -0.68
6 -0.65
7 -0.65
8 -0.68
9 -0.65

>  <PUBCHEM_EFFECTIVE_ROTOR_COUNT>  (1) 
4

>  <PUBCHEM_PHARMACOPHORE_FEATURES>  (1) 
20
1 10 acceptor
1 11 cation
1 11 donor
1 12 cation
1 12 donor
1 13 cation
1 13 donor
1 3 acceptor
1 4 acceptor
1 5 acceptor
1 6 acceptor
1 7 acceptor
1 8 acceptor
1 9 acceptor
4 1 5 6 7 anion
4 2 8 9 10 anion
6 14 15 16 17 18 23 rings
6 14 15 19 20 21 22 rings
6 20 21 25 26 29 30 rings
6 24 27 28 31 32 33 rings

>  <PUBCHEM_HEAVY_ATOM_COUNT>  (1) 
33

>  <PUBCHEM_ATOM_DEF_STEREO_COUNT>  (1) 
0

>  <PUBCHEM_ATOM_UDEF_STEREO_COUNT>  (1) 
0

>  <PUBCHEM_BOND_DEF_STEREO_COUNT>  (1) 
0

>  <PUBCHEM_BOND_UDEF_STEREO_COUNT>  (1) 
0

>  <PUBCHEM_ISOTOPIC_ATOM_COUNT>  (1) 
0

>  <PUBCHEM_COMPONENT_COUNT>  (1) 
1

>  <PUBCHEM_CACTVS_TAUTO_COUNT>  (1) 
9

>  <PUBCHEM_CONFORMER_ID>  (1) 
00001A2100000001

>  <PUBCHEM_MMFF94_ENERGY>  (1) 
126.6039

>  <PUBCHEM_FEATURE_SELFOVERLAP>  (1) 
101.657

>  <PUBCHEM_SHAPE_FINGERPRINT>  (1) 
10190108 129 18264784310741673203
10411042 1 17544468017872583963
10675989 125 18268994181180802192
10721379 63 18052820247661958891
107951 10 18411420630833259951
12422481 6 17023735711115101261
12788726 201 17610347416843761258
13140716 1 18265604391617517867
13617811 41 18188770694845627111
138480 1 17763450726425248243
14068700 675 17692254037413818462
14114211 68 18263661579755621629
14790565 3 18410285887820785409
14840074 17 17167868560302791469
14931854 50 18270136608569861886
15183329 4 18131073692897006688
15230672 131 18335697235844497906
15351339 4 18198059171223850656
15664445 248 17695629550442124423
15721738 15 18129114342281748950
15775530 1 17265236044391740993
15927050 60 18412818085012616415
19958102 18 18335976536855210486
20642791 178 18190735345498528019
21033648 29 18340197591806631192
21033650 10 17897734395142500842
21133410 230 17900578758388464531
21279426 13 18343023272470512844
21796203 349 17332275016884675555
22393880 68 18343016683806031997
23366157 5 17899689068960763611
23559900 14 18201718500603734696
3298306 158 18342457015239617646
4015057 19 17275108370419077200
4058900 60 18187653440302061683
5085150 59 18343014459725778646
508706 21 18268434723072566198
5265222 85 18336272356664746941
5283173 99 18341330093283578288
59755656 215 18339357466228146981
6669772 16 18271801307227516190
9709674 26 18055918942523492178
9981440 41 18334289886203078611

>  <PUBCHEM_SHAPE_MULTIPOLES>  (1) 
624.93
13.6
5.15
1.45
3.05
6.46
0.48
-12.65
6.09
-1.64
-1.34
2.47
-0.18
1.38

>  <PUBCHEM_SHAPE_SELFOVERLAP>  (1) 
1373.999

>  <PUBCHEM_SHAPE_VOLUME>  (1) 
336.8

>  <PUBCHEM_COORDINATE_TYPE>  (1) 
2
5
10

$$$$
