669
     RDKit          3D

 11 10  0  0  1  0  0  0  0  0999 V2000
   -2.1766   -0.1517    0.2207 P   0  0  0  0  0  0  0  0  0  0  0  0
   -0.6000    0.1935    0.3000 O   0  0  0  0  0  0  0  0  0  0  0  0
    1.6302    1.9091    0.1611 O   0  0  0  0  0  0  0  0  0  0  0  0
    2.7304   -0.2644    1.2443 O   0  0  0  0  0  0  0  0  0  0  0  0
   -2.2477   -1.3946   -0.8114 O   0  0  0  0  0  0  0  0  0  0  0  0
   -2.7681    1.0819   -0.6414 O   0  0  0  0  0  0  0  0  0  0  0  0
   -2.8459   -0.3782    1.5448 O   0  0  0  0  0  0  0  0  0  0  0  0
    1.5645    0.7283   -0.6230 C   0  0  0  0  0  0  0  0  0  0  0  0
    0.1028    0.4212   -0.9168 C   0  0  0  0  0  0  0  0  0  0  0  0
    2.2612   -0.4088    0.1151 C   0  0  0  0  0  0  0  0  0  0  0  0
    2.3491   -1.7363   -0.5934 C   0  0  0  0  0  0  0  0  0  0  0  0
  1  2  1  0
  1  5  1  0
  1  6  1  0
  1  7  2  0
  2  9  1  0
  3  8  1  0
  4 10  2  0
  8  9  1  0
  8 10  1  0
 10 11  1  0
M  END
>  <PUBCHEM_COMPOUND_CID>  (1) 
669

>  <PUBCHEM_CONFORMER_RMSD>  (1) 
0.6

>  <PUBCHEM_CONFORMER_DIVERSEORDER>  (1) 
9
45
51
31
14
48
46
22
10
40
7
33
26
49
28
42
3
23
47
24
44
19
5
30
16
35
50
1
20
32
41
37
13
43
39
27
21
12
25
17
29
38
6
34
4
36
2
15
11
18
8

>  <PUBCHEM_MMFF94_PARTIAL_CHARGES>  (1) 
14
1 1.51
10 0.45
11 0.06
18 0.4
19 0.5
2 -0.55
20 0.5
3 -0.68
4 -0.57
5 -0.77
6 -0.77
7 -0.7
8 0.34
9 0.28

>  <PUBCHEM_EFFECTIVE_ROTOR_COUNT>  (1) 
4

>  <PUBCHEM_PHARMACOPHORE_FEATURES>  (1) 
7
1 3 acceptor
1 3 donor
1 4 acceptor
1 5 acceptor
1 6 acceptor
1 7 acceptor
4 1 5 6 7 anion

>  <PUBCHEM_HEAVY_ATOM_COUNT>  (1) 
11

>  <PUBCHEM_ATOM_DEF_STEREO_COUNT>  (1) 
0

>  <PUBCHEM_ATOM_UDEF_STEREO_COUNT>  (1) 
1

>  <PUBCHEM_BOND_DEF_STEREO_COUNT>  (1) 
0

>  <PUBCHEM_BOND_UDEF_STEREO_COUNT>  (1) 
0

>  <PUBCHEM_ISOTOPIC_ATOM_COUNT>  (1) 
0

>  <PUBCHEM_COMPONENT_COUNT>  (1) 
1

>  <PUBCHEM_CACTVS_TAUTO_COUNT>  (1) 
5

>  <PUBCHEM_CONFORMER_ID>  (1) 
0000029D00000009

>  <PUBCHEM_MMFF94_ENERGY>  (1) 
-22.8153

>  <PUBCHEM_FEATURE_SELFOVERLAP>  (1) 
35.567

>  <PUBCHEM_SHAPE_FINGERPRINT>  (1) 
12932764 1 18339370763383299629
18342897 137 18336542707902332247
20711983 138 18120374250746918178
20711985 344 17608650509888509764
21028194 46 11383819468391761134
230 275 13110970794687023154
29004967 10 18411132503157584884
3248919 1 17240759639925383005

>  <PUBCHEM_SHAPE_MULTIPOLES>  (1) 
195.01
4.9
1.51
1.13
1.61
0.02
-0.25
-0.96
-0.86
-0.62
0.29
0.23
-0.12
0.23

>  <PUBCHEM_SHAPE_SELFOVERLAP>  (1) 
355.576

>  <PUBCHEM_SHAPE_VOLUME>  (1) 
124.7

>  <PUBCHEM_COORDINATE_TYPE>  (1) 
2
5
10

$$$$
