6699
     RDKit          3D

 30 34  0  0  0  0  0  0  0  0999 V2000
   -3.7462   -0.3275   -0.8464 O   0  0  0  0  0  0  0  0  0  0  0  0
    3.7463    0.3261   -0.8469 O   0  0  0  0  0  0  0  0  0  0  0  0
   -1.7743   -1.9984   -0.8462 O   0  0  0  0  0  0  0  0  0  0  0  0
    1.7741    1.9976   -0.8482 O   0  0  0  0  0  0  0  0  0  0  0  0
   -1.4121    0.3370   -0.8473 C   0  0  0  0  0  0  0  0  0  0  0  0
    1.4122   -0.3382   -0.8471 C   0  0  0  0  0  0  0  0  0  0  0  0
   -0.4743    1.3718   -0.8481 C   0  0  0  0  0  0  0  0  0  0  0  0
    0.4744   -1.3729   -0.8466 C   0  0  0  0  0  0  0  0  0  0  0  0
   -0.9721   -1.0730   -0.8462 C   0  0  0  0  0  0  0  0  0  0  0  0
    0.9721    1.0720   -0.8478 C   0  0  0  0  0  0  0  0  0  0  0  0
   -2.7802    0.6347   -0.8478 C   0  0  0  0  0  0  0  0  0  0  0  0
    2.7802   -0.6359   -0.8468 C   0  0  0  0  0  0  0  0  0  0  0  0
   -0.9045    2.7041   -0.8490 C   0  0  0  0  0  0  0  0  0  0  0  0
    0.9045   -2.7052   -0.8464 C   0  0  0  0  0  0  0  0  0  0  0  0
   -3.2045    1.9637   -0.8488 C   0  0  0  0  0  0  0  0  0  0  0  0
    3.2045   -1.9650   -0.8464 C   0  0  0  0  0  0  0  0  0  0  0  0
   -2.2687    2.9962   -0.8492 C   0  0  0  0  0  0  0  0  0  0  0  0
    2.2688   -2.9974   -0.8461 C   0  0  0  0  0  0  0  0  0  0  0  0
   -4.6332   -0.3442    0.2155 C   0  0  0  0  0  0  0  0  0  0  0  0
    4.6332    0.3444    0.2151 C   0  0  0  0  0  0  0  0  0  0  0  0
   -4.1474   -0.2011    1.5031 C   0  0  0  0  0  0  0  0  0  0  0  0
    4.1473    0.2033    1.5028 C   0  0  0  0  0  0  0  0  0  0  0  0
   -5.9840   -0.5051   -0.0369 C   0  0  0  0  0  0  0  0  0  0  0  0
    5.9841    0.5048   -0.0374 C   0  0  0  0  0  0  0  0  0  0  0  0
   -5.0418   -0.2194    2.5733 C   0  0  0  0  0  0  0  0  0  0  0  0
    5.0417    0.2232    2.5731 C   0  0  0  0  0  0  0  0  0  0  0  0
   -6.8784   -0.5233    1.0333 C   0  0  0  0  0  0  0  0  0  0  0  0
    6.8785    0.5245    1.0328 C   0  0  0  0  0  0  0  0  0  0  0  0
   -6.4074   -0.3804    2.3384 C   0  0  0  0  0  0  0  0  0  0  0  0
    6.4072    0.3835    2.3381 C   0  0  0  0  0  0  0  0  0  0  0  0
  1 11  1  0
  1 19  1  0
  2 12  1  0
  2 20  1  0
  3  9  2  0
  4 10  2  0
  5  7  2  0
  5  9  1  0
  5 11  1  0
  6  8  2  0
  6 10  1  0
  6 12  1  0
  7 10  1  0
  7 13  1  0
  8  9  1  0
  8 14  1  0
 11 15  2  0
 12 16  2  0
 13 17  2  0
 14 18  2  0
 15 17  1  0
 16 18  1  0
 19 21  2  0
 19 23  1  0
 20 22  2  0
 20 24  1  0
 21 25  1  0
 22 26  1  0
 23 27  2  0
 24 28  2  0
 25 29  2  0
 26 30  2  0
 27 29  1  0
 28 30  1  0
M  END
>  <PUBCHEM_COMPOUND_CID>  (1) 
6699

>  <PUBCHEM_CONFORMER_RMSD>  (1) 
0.8

>  <PUBCHEM_CONFORMER_DIVERSEORDER>  (1) 
1
11
9
6
10
7
5
8
4
2
3

>  <PUBCHEM_MMFF94_PARTIAL_CHARGES>  (1) 
46
1 -0.17
10 0.4
11 0.08
12 0.08
13 -0.15
14 -0.15
15 -0.15
16 -0.15
17 -0.15
18 -0.15
19 0.08
2 -0.17
20 0.08
21 -0.15
22 -0.15
23 -0.15
24 -0.15
25 -0.15
26 -0.15
27 -0.15
28 -0.15
29 -0.15
3 -0.57
30 -0.15
31 0.15
32 0.15
33 0.15
34 0.15
35 0.15
36 0.15
37 0.15
38 0.15
39 0.15
4 -0.57
40 0.15
41 0.15
42 0.15
43 0.15
44 0.15
45 0.15
46 0.15
5 0.09
6 0.09
7 0.09
8 0.09
9 0.4

>  <PUBCHEM_EFFECTIVE_ROTOR_COUNT>  (1) 
4

>  <PUBCHEM_PHARMACOPHORE_FEATURES>  (1) 
9
1 1 acceptor
1 2 acceptor
1 3 acceptor
1 4 acceptor
6 19 21 23 25 27 29 rings
6 20 22 24 26 28 30 rings
6 5 6 7 8 9 10 rings
6 5 7 11 13 15 17 rings
6 6 8 12 14 16 18 rings

>  <PUBCHEM_HEAVY_ATOM_COUNT>  (1) 
30

>  <PUBCHEM_ATOM_DEF_STEREO_COUNT>  (1) 
0

>  <PUBCHEM_ATOM_UDEF_STEREO_COUNT>  (1) 
0

>  <PUBCHEM_BOND_DEF_STEREO_COUNT>  (1) 
0

>  <PUBCHEM_BOND_UDEF_STEREO_COUNT>  (1) 
0

>  <PUBCHEM_ISOTOPIC_ATOM_COUNT>  (1) 
0

>  <PUBCHEM_COMPONENT_COUNT>  (1) 
1

>  <PUBCHEM_CACTVS_TAUTO_COUNT>  (1) 
1

>  <PUBCHEM_CONFORMER_ID>  (1) 
00001A2B00000001

>  <PUBCHEM_MMFF94_ENERGY>  (1) 
114.6257

>  <PUBCHEM_FEATURE_SELFOVERLAP>  (1) 
45.742

>  <PUBCHEM_SHAPE_FINGERPRINT>  (1) 
10 15 18334012822115523652
10074138 170 18192977430413025594
10076449 9 18198925638522491678
10165383 225 18059858389833555650
10693767 8 11458690751245688424
11115154 58 16266535262455069583
11135609 201 16845279549589310578
11135609 99 16515402989193265842
11445158 3 17823134682591601524
11479125 193 14833843010853749746
11578080 2 17915173525785682521
11796584 16 16370724829483351939
12035758 1 18410855490192933120
12403259 415 18201434736688309092
12422481 6 18410856568229724161
12596602 18 17167856453206467832
12895836 83 13614231607478710968
12977781 61 15794235377655581707
13140716 1 18194402418513412510
13540713 4 18122626054639059750
13782708 43 15719388455776659931
14251751 18 16081090402525933747
14739800 52 16773796969994332443
14790565 3 17470754542106491981
15188451 53 16660361484790253411
15475509 35 16805600408325946856
15840311 113 17346050982789233561
16112460 7 18058449970904302192
16728300 4 17314488384242580930
16994733 274 15338827699438428338
17913733 40 18059853939604099062
19611394 137 18113907086867039552
19784866 240 15285358414118561715
1979834 28 18341061756337493639
20511986 3 17988364772420319259
20642791 268 17845669100742184385
20775438 99 12543828596945305393
21033648 29 18337674114352783183
21315764 119 14418126327777989907
21521239 73 12107794055390066481
21756936 100 15769483309339486951
21792934 111 18337107848674033877
21796203 349 18117867561778250297
22122407 14 15913047689566849626
22149856 69 18267604454639140809
2215653 11 10881400920161629620
22182313 1 18266741285664588655
22224240 67 18272928353574342935
23559900 14 18049439245644272350
23569914 2 15407482136867266680
23576562 1 11527646605938220331
2747138 104 18335714844086551155
2838139 119 15267057064559740256
376196 1 17329972613555721269
392239 28 18059564815264345216
4098825 35 15123796175607081132
439807 62 16081661071120947433
465052 167 17748827432134383052
469060 322 18412262856776903417
50009960 94 17534918678071317067
5104073 3 18266459793508008304
5326457 24 15140681384085320018
5385378 56 18060701667981610982
56638632 10 17489010665042443881
613672 6 18114194029548133819

>  <PUBCHEM_SHAPE_MULTIPOLES>  (1) 
593.91
16.38
2.51
2.09
0
0
1.91
-0.01
13.74
0
-1.54
0
0
1.89

>  <PUBCHEM_SHAPE_SELFOVERLAP>  (1) 
1352.485

>  <PUBCHEM_SHAPE_VOLUME>  (1) 
305.4

>  <PUBCHEM_COORDINATE_TYPE>  (1) 
2
5
10

$$$$
