67
     RDKit          3D

 13 12  0  0  1  0  0  0  0  0999 V2000
   -0.2757   -1.0168    1.6046 O   0  0  0  0  0  0  0  0  0  0  0  0
   -0.1465   -1.6184   -1.1631 O   0  0  0  0  0  0  0  0  0  0  0  0
   -2.8146   -0.7804    0.9077 O   0  0  0  0  0  0  0  0  0  0  0  0
   -3.9502    1.0035   -0.7242 O   0  0  0  0  0  0  0  0  0  0  0  0
    2.4479   -1.3870   -0.5269 O   0  0  0  0  0  0  0  0  0  0  0  0
    3.7065    0.7043    0.2658 O   0  0  0  0  0  0  0  0  0  0  0  0
    1.7664    1.9174    0.2492 O   0  0  0  0  0  0  0  0  0  0  0  0
   -0.5383   -0.0380    0.6075 C   0  0  0  0  0  0  0  0  0  0  0  0
    0.2537   -0.3500   -0.6626 C   0  0  0  0  0  0  0  0  0  0  0  0
   -2.0426    0.0013    0.3518 C   0  0  0  0  0  0  0  0  0  0  0  0
    1.7453   -0.3960   -0.3863 C   0  0  0  0  0  0  0  0  0  0  0  0
   -2.5440    1.0694   -0.6019 C   0  0  0  0  0  0  0  0  0  0  0  0
    2.3920    0.8907    0.0784 C   0  0  0  0  0  0  0  0  0  0  0  0
  1  8  1  0
  2  9  1  0
  3 10  2  0
  4 12  1  0
  5 11  2  0
  6 13  1  0
  7 13  2  0
  8  9  1  0
  8 10  1  0
  9 11  1  0
 10 12  1  0
 11 13  1  0
M  END
>  <PUBCHEM_COMPOUND_CID>  (1) 
67

>  <PUBCHEM_CONFORMER_RMSD>  (1) 
0.6

>  <PUBCHEM_CONFORMER_DIVERSEORDER>  (1) 
2
214
63
32
34
182
252
188
170
13
1
46
163
158
161
95
11
31
12
57
87
16
195
67
237
14
210
201
193
54
73
221
241
82
60
121
110
125
129
147
91
21
116
180
242
150
51
38
10
191
108
118
70
218
169
24
219
17
90
37
231
28
264
258
259
223
93
71
232
102
151
175
208
49
263
5
185
260
68
22
203
197
194
25
9
225
18
216
136
168
117
245
207
81
227
159
153
29
62
160
27
74
173
211
111
240
202
253
119
255
206
19
204
39
186
43
106
247
103
143
130
75
164
248
15
235
177
97
30
61
138
215
220
41
256
8
77
4
250
200
98
135
132
238
23
187
45
33
257
44
165
152
85
48
205
40
113
64
26
47
36
172
154
66
196
249
261
53
122
184
228
148
239
126
251
100
120
20
7
59
146
199
84
246
72
230
3
86
79
265
226
107
189
56
80
155
131
89
124
115
140
244
212
94
262
144
183
55
243
234
142
178
167
35
174
92
254
229
83
171
181
236
112
99
96
69
217
58
6
209
101
222
128
134
104
179
198
157
192
141
133
42
145
76
213
190
224
105
78
109
139
50
233
65
114
176
162
52
137
166
156
123
127
88
149

>  <PUBCHEM_MMFF94_PARTIAL_CHARGES>  (1) 
17
1 -0.68
10 0.45
11 0.51
12 0.34
13 0.72
18 0.4
19 0.4
2 -0.68
20 0.4
21 0.5
3 -0.57
4 -0.68
5 -0.57
6 -0.65
7 -0.57
8 0.34
9 0.34

>  <PUBCHEM_EFFECTIVE_ROTOR_COUNT>  (1) 
5

>  <PUBCHEM_PHARMACOPHORE_FEATURES>  (1) 
11
1 1 acceptor
1 1 donor
1 2 acceptor
1 2 donor
1 3 acceptor
1 4 acceptor
1 4 donor
1 5 acceptor
1 6 acceptor
1 7 acceptor
3 6 7 13 anion

>  <PUBCHEM_HEAVY_ATOM_COUNT>  (1) 
13

>  <PUBCHEM_ATOM_DEF_STEREO_COUNT>  (1) 
0

>  <PUBCHEM_ATOM_UDEF_STEREO_COUNT>  (1) 
2

>  <PUBCHEM_BOND_DEF_STEREO_COUNT>  (1) 
0

>  <PUBCHEM_BOND_UDEF_STEREO_COUNT>  (1) 
0

>  <PUBCHEM_ISOTOPIC_ATOM_COUNT>  (1) 
0

>  <PUBCHEM_COMPONENT_COUNT>  (1) 
1

>  <PUBCHEM_CACTVS_TAUTO_COUNT>  (1) 
63

>  <PUBCHEM_CONFORMER_ID>  (1) 
0000004300000002

>  <PUBCHEM_MMFF94_ENERGY>  (1) 
8.8257

>  <PUBCHEM_FEATURE_SELFOVERLAP>  (1) 
55.924

>  <PUBCHEM_SHAPE_FINGERPRINT>  (1) 
12119455 92 18339348704373076276
124424 183 18260543407749864912
12716758 59 18041287586452457731
12932764 1 18335154084740764371
14993402 34 17917435298280787510
15219456 202 18409454673972386443
15775835 57 18059853986632377340
16945 1 18273220802376799358
18186145 218 17917723387053492119
19973954 147 18409739443052259305
20201158 50 18411138026116561280
20606313 2 18342171133447158645
20715346 28 18335994120040045175
21947302 44 18411419483929103572
22096605 113 18272361010117304189
23211744 41 18334867125190972131
23402539 116 18114455777766563951
23402655 69 18200866276197434181
305870 269 17530955848320184259
3248919 1 17131839737481965191
4047638 21 18336830788792087849
5084963 1 18114762476458112207
57812782 119 18334858328976357657
7364860 26 17825375294052669443

>  <PUBCHEM_SHAPE_MULTIPOLES>  (1) 
226.45
5.38
1.5
1.06
1.19
0.13
-0.15
1.91
0.37
-0.4
0.14
0.34
-0.33
0.75

>  <PUBCHEM_SHAPE_SELFOVERLAP>  (1) 
447.232

>  <PUBCHEM_SHAPE_VOLUME>  (1) 
132.7

>  <PUBCHEM_COORDINATE_TYPE>  (1) 
2
5
10

$$$$
