6708
     RDKit          3D

 18 20  0  0  0  0  0  0  0  0999 V2000
   -2.6778    2.7754    0.0002 Cl  0  0  0  0  0  0  0  0  0  0  0  0
    2.6783    2.7753   -0.0006 Cl  0  0  0  0  0  0  0  0  0  0  0  0
    0.0001    2.3222   -0.0013 O   0  0  0  0  0  0  0  0  0  0  0  0
   -0.0002   -3.0190   -0.0011 O   0  0  0  0  0  0  0  0  0  0  0  0
   -1.2730    0.3515   -0.0002 C   0  0  0  0  0  0  0  0  0  0  0  0
    1.2730    0.3515    0.0000 C   0  0  0  0  0  0  0  0  0  0  0  0
   -1.2730   -1.0449   -0.0002 C   0  0  0  0  0  0  0  0  0  0  0  0
    1.2730   -1.0449   -0.0003 C   0  0  0  0  0  0  0  0  0  0  0  0
    0.0000    1.1008   -0.0003 C   0  0  0  0  0  0  0  0  0  0  0  0
   -0.0001   -1.7942   -0.0001 C   0  0  0  0  0  0  0  0  0  0  0  0
   -2.4866    1.0498    0.0001 C   0  0  0  0  0  0  0  0  0  0  0  0
    2.4866    1.0497    0.0008 C   0  0  0  0  0  0  0  0  0  0  0  0
   -2.4865   -1.7431    0.0001 C   0  0  0  0  0  0  0  0  0  0  0  0
    2.4865   -1.7432   -0.0002 C   0  0  0  0  0  0  0  0  0  0  0  0
   -3.6936    0.3501    0.0007 C   0  0  0  0  0  0  0  0  0  0  0  0
    3.6935    0.3499    0.0011 C   0  0  0  0  0  0  0  0  0  0  0  0
   -3.6936   -1.0434    0.0007 C   0  0  0  0  0  0  0  0  0  0  0  0
    3.6935   -1.0436    0.0006 C   0  0  0  0  0  0  0  0  0  0  0  0
  1 11  1  0
  2 12  1  0
  3  9  2  0
  4 10  2  0
  5  7  2  0
  5  9  1  0
  5 11  1  0
  6  8  2  0
  6  9  1  0
  6 12  1  0
  7 10  1  0
  7 13  1  0
  8 10  1  0
  8 14  1  0
 11 15  2  0
 12 16  2  0
 13 17  2  0
 14 18  2  0
 15 17  1  0
 16 18  1  0
M  END
>  <PUBCHEM_COMPOUND_CID>  (1) 
6708

>  <PUBCHEM_CONFORMER_RMSD>  (1) 
0.4

>  <PUBCHEM_CONFORMER_DIVERSEORDER>  (1) 
1

>  <PUBCHEM_MMFF94_PARTIAL_CHARGES>  (1) 
24
1 -0.18
10 0.4
11 0.18
12 0.18
13 -0.15
14 -0.15
15 -0.15
16 -0.15
17 -0.15
18 -0.15
19 0.15
2 -0.18
20 0.15
21 0.15
22 0.15
23 0.15
24 0.15
3 -0.57
4 -0.57
5 0.09
6 0.09
7 0.09
8 0.09
9 0.4

>  <PUBCHEM_EFFECTIVE_ROTOR_COUNT>  (1) 
0

>  <PUBCHEM_PHARMACOPHORE_FEATURES>  (1) 
5
1 3 acceptor
1 4 acceptor
6 5 6 7 8 9 10 rings
6 5 7 11 13 15 17 rings
6 6 8 12 14 16 18 rings

>  <PUBCHEM_HEAVY_ATOM_COUNT>  (1) 
18

>  <PUBCHEM_ATOM_DEF_STEREO_COUNT>  (1) 
0

>  <PUBCHEM_ATOM_UDEF_STEREO_COUNT>  (1) 
0

>  <PUBCHEM_BOND_DEF_STEREO_COUNT>  (1) 
0

>  <PUBCHEM_BOND_UDEF_STEREO_COUNT>  (1) 
0

>  <PUBCHEM_ISOTOPIC_ATOM_COUNT>  (1) 
0

>  <PUBCHEM_COMPONENT_COUNT>  (1) 
1

>  <PUBCHEM_CACTVS_TAUTO_COUNT>  (1) 
1

>  <PUBCHEM_CONFORMER_ID>  (1) 
00001A3400000001

>  <PUBCHEM_MMFF94_ENERGY>  (1) 
61.0644

>  <PUBCHEM_FEATURE_SELFOVERLAP>  (1) 
25.414

>  <PUBCHEM_SHAPE_FINGERPRINT>  (1) 
10062212 137 18265041458005481259
10411042 1 15672667596437964655
10608611 8 18410571790423422721
10616163 171 18411703183777988391
10967382 1 18122625221478856453
1100329 8 16609415282767769288
11132069 177 18411694378926122690
11471102 20 18410288107875590214
12403259 226 18410852165888525092
12403260 363 18410845568818479111
13140716 1 18410856516690318400
13221675 6 18410573989451940034
13897977 150 18410290281202881909
14178342 30 18195516009276411808
14223421 5 18410013281481782393
15196674 1 18410575088958150151
15442244 35 18338234864850393184
15536298 74 18343021120712905456
16945 1 18410573985151561575
18186145 218 18272941492042571864
19591789 44 18410576188469998786
200 152 18131059451301833479
20510252 161 18343584066065723113
21267235 1 18410583880756562338
21501502 16 18410576171295202980
221490 88 18336836376354662010
2334 1 18410855490192939365
23366157 5 18041277755641614496
23402539 116 18343010112543317326
23463225 33 18408885131138742158
23559900 14 18342172267924939352
238 59 17177671625713951661
2748010 2 18410292514475015135
335352 9 17978510832251015878
350125 39 18410298012075767681
5104073 3 18410293618323802593
58051976 378 18412542141183201660
7364860 26 18341332292501837120
7832392 63 18195526986980444976
8809292 202 18261397766723334707
9709674 26 18411986870584079558

>  <PUBCHEM_SHAPE_MULTIPOLES>  (1) 
362.43
6.37
3.15
0.61
0
0.81
0
0.56
0
0
0
0
0.02
0

>  <PUBCHEM_SHAPE_SELFOVERLAP>  (1) 
802.573

>  <PUBCHEM_SHAPE_VOLUME>  (1) 
194.4

>  <PUBCHEM_COORDINATE_TYPE>  (1) 
2
5
10

$$$$
