6714
     RDKit          3D

 23 25  0  0  0  0  0  0  0  0999 V2000
   -3.8257   -0.7423   -0.0588 S   0  0  0  0  0  0  0  0  0  0  0  0
   -1.4109   -2.0550   -0.0432 O   0  0  0  0  0  0  0  0  0  0  0  0
    1.8354    2.1871    0.0136 O   0  0  0  0  0  0  0  0  0  0  0  0
   -3.7581   -1.4428    1.4130 O   0  0  0  0  0  0  0  0  0  0  0  0
   -5.1171   -0.0862   -0.1671 O   0  0  0  0  0  0  0  0  0  0  0  0
   -3.3921   -1.7169   -1.0434 O   0  0  0  0  0  0  0  0  0  0  0  0
    4.4009    1.1203   -1.0647 O   0  0  0  0  0  0  0  0  0  0  0  0
    4.3809    1.1023    1.1304 O   0  0  0  0  0  0  0  0  0  0  0  0
    3.9839    0.6658    0.0256 N   0  0  0  0  0  0  0  0  0  0  0  0
   -1.2236    0.3149   -0.0256 C   0  0  0  0  0  0  0  0  0  0  0  0
   -0.3547    1.4079   -0.0095 C   0  0  0  0  0  0  0  0  0  0  0  0
    1.6383   -0.1766   -0.0029 C   0  0  0  0  0  0  0  0  0  0  0  0
    0.7693   -1.2696   -0.0193 C   0  0  0  0  0  0  0  0  0  0  0  0
   -2.6080    0.5237   -0.0369 C   0  0  0  0  0  0  0  0  0  0  0  0
   -0.6934   -1.0638   -0.0310 C   0  0  0  0  0  0  0  0  0  0  0  0
    1.1081    1.2021    0.0019 C   0  0  0  0  0  0  0  0  0  0  0  0
    3.0227   -0.3854    0.0081 C   0  0  0  0  0  0  0  0  0  0  0  0
   -0.8700    2.7097   -0.0044 C   0  0  0  0  0  0  0  0  0  0  0  0
   -3.1173    1.8225   -0.0324 C   0  0  0  0  0  0  0  0  0  0  0  0
    1.2845   -2.5714   -0.0251 C   0  0  0  0  0  0  0  0  0  0  0  0
   -2.2502    2.9132   -0.0159 C   0  0  0  0  0  0  0  0  0  0  0  0
    3.5320   -1.6843    0.0021 C   0  0  0  0  0  0  0  0  0  0  0  0
    2.6648   -2.7749   -0.0144 C   0  0  0  0  0  0  0  0  0  0  0  0
  1  4  1  0
  1  5  2  0
  1  6  2  0
  1 14  1  0
  2 15  2  0
  3 16  2  0
  7  9  1  0
  8  9  2  0
  9 17  1  0
 10 11  1  0
 10 14  2  0
 10 15  1  0
 11 16  1  0
 11 18  2  0
 12 13  2  0
 12 16  1  0
 12 17  1  0
 13 15  1  0
 13 20  1  0
 14 19  1  0
 17 22  2  0
 18 21  1  0
 19 21  2  0
 20 23  2  0
 22 23  1  0
M  CHG  2   7  -1   9   1
M  END
>  <PUBCHEM_COMPOUND_CID>  (1) 
6714

>  <PUBCHEM_CONFORMER_RMSD>  (1) 
0.6

>  <PUBCHEM_CONFORMER_DIVERSEORDER>  (1) 
1

>  <PUBCHEM_MMFF94_PARTIAL_CHARGES>  (1) 
30
1 1.49
10 0.09
11 0.09
12 0.09
13 0.09
14 -0.01
15 0.4
16 0.4
17 0.13
18 -0.15
19 -0.15
2 -0.57
20 -0.15
21 -0.15
22 -0.15
23 -0.15
24 0.15
25 0.15
26 0.15
27 0.15
28 0.15
29 0.15
3 -0.57
30 0.5
4 -0.68
5 -0.65
6 -0.65
7 -0.52
8 -0.52
9 0.91

>  <PUBCHEM_EFFECTIVE_ROTOR_COUNT>  (1) 
2

>  <PUBCHEM_PHARMACOPHORE_FEATURES>  (1) 
12
1 2 acceptor
1 3 acceptor
1 4 acceptor
1 5 acceptor
1 6 acceptor
1 7 acceptor
1 7 anion
1 8 acceptor
4 1 4 5 6 anion
6 10 11 12 13 15 16 rings
6 10 11 14 18 19 21 rings
6 12 13 17 20 22 23 rings

>  <PUBCHEM_HEAVY_ATOM_COUNT>  (1) 
23

>  <PUBCHEM_ATOM_DEF_STEREO_COUNT>  (1) 
0

>  <PUBCHEM_ATOM_UDEF_STEREO_COUNT>  (1) 
0

>  <PUBCHEM_BOND_DEF_STEREO_COUNT>  (1) 
0

>  <PUBCHEM_BOND_UDEF_STEREO_COUNT>  (1) 
0

>  <PUBCHEM_ISOTOPIC_ATOM_COUNT>  (1) 
0

>  <PUBCHEM_COMPONENT_COUNT>  (1) 
1

>  <PUBCHEM_CACTVS_TAUTO_COUNT>  (1) 
1

>  <PUBCHEM_CONFORMER_ID>  (1) 
00001A3A00000001

>  <PUBCHEM_MMFF94_ENERGY>  (1) 
82.3285

>  <PUBCHEM_FEATURE_SELFOVERLAP>  (1) 
61.151

>  <PUBCHEM_SHAPE_FINGERPRINT>  (1) 
10608611 8 18339358535632292360
10616163 171 18339925900617175118
10670039 82 18261970595792523460
10863032 1 18268709415884277760
10906281 52 18339658750279484645
10967382 1 18410855498935887270
11578080 2 17170099353494105374
12553582 1 18339642355724658087
13140716 1 18050002491512567274
13224815 77 18342170034014262330
14178342 30 18338505336459086512
14223421 5 18339922593550145468
14787075 74 17897171431782438267
14790565 3 18193852662716264389
15196674 1 18338797810260959773
15442244 35 18194399992094623986
15536298 74 18342174419339473278
16945 1 18410855494503730926
17349148 13 18040996245877676722
17492 89 18266177240738080051
19591789 44 17760939836487466535
200 152 18201995547779606791
20510252 161 18342738485847397753
20691752 17 17531536351931524920
20905425 154 18342459205693654478
21267235 1 18339368456859631254
21421861 104 18115583729929218499
21501502 16 18338797788801921550
221490 88 18266466416733148498
2334 1 17689998255362764822
23366157 5 17969509199870372298
23402539 116 18342166821347076671
23558518 356 18187655656452036001
23559900 14 18053375505745950538
23566358 2 18339640036220590741
2748010 2 18195246615921086302
2871803 45 18410008814726370199
335352 9 17906452125790119565
34934 24 18340480153420239927
350125 39 18339080376745049450
352729 6 17981885237773857821
474 4 17749399173922626868
5104073 3 18339079276653005009
7097593 13 17393876258925640826
7364860 26 18126280840665892866
9709674 26 18267026050634252694

>  <PUBCHEM_SHAPE_MULTIPOLES>  (1) 
431.11
8.12
3.22
0.78
0
0.31
-0.06
-0.61
-0.1
0.04
0.02
0.03
-0.08
0.08

>  <PUBCHEM_SHAPE_SELFOVERLAP>  (1) 
961.664

>  <PUBCHEM_SHAPE_VOLUME>  (1) 
229

>  <PUBCHEM_COORDINATE_TYPE>  (1) 
2
5
10

$$$$
