6716
     RDKit          3D

 17 19  0  0  0  0  0  0  0  0999 V2000
    1.9113    1.6177    0.1117 O   0  0  0  0  0  0  0  0  0  0  0  0
   -2.8799    1.9363    0.0698 O   0  0  0  0  0  0  0  0  0  0  0  0
   -0.9548   -2.2821   -0.3113 O   0  0  0  0  0  0  0  0  0  0  0  0
    1.6623   -2.4281   -0.2864 O   0  0  0  0  0  0  0  0  0  0  0  0
    0.5072   -0.3569   -0.1021 C   0  0  0  0  0  0  0  0  0  0  0  0
   -1.8909   -0.0865   -0.1119 C   0  0  0  0  0  0  0  0  0  0  0  0
   -0.7706   -0.9351   -0.1775 C   0  0  0  0  0  0  0  0  0  0  0  0
    0.6733    1.0235    0.0348 C   0  0  0  0  0  0  0  0  0  0  0  0
   -1.6851    1.2822    0.0242 C   0  0  0  0  0  0  0  0  0  0  0  0
   -0.4292    1.8823    0.1016 C   0  0  0  0  0  0  0  0  0  0  0  0
    1.7050   -1.2113   -0.1674 C   0  0  0  0  0  0  0  0  0  0  0  0
   -3.2996   -0.2626   -0.1502 C   0  0  0  0  0  0  0  0  0  0  0  0
    3.0366    0.8133    0.0495 C   0  0  0  0  0  0  0  0  0  0  0  0
    3.0052   -0.5204   -0.0812 C   0  0  0  0  0  0  0  0  0  0  0  0
   -3.8508    0.9924   -0.0364 C   0  0  0  0  0  0  0  0  0  0  0  0
    4.3208    1.5756    0.1430 C   0  0  0  0  0  0  0  0  0  0  0  0
   -1.0607   -3.0404    0.8899 C   0  0  0  0  0  0  0  0  0  0  0  0
  1  8  1  0
  1 13  1  0
  2  9  1  0
  2 15  1  0
  3  7  1  0
  3 17  1  0
  4 11  2  0
  5  7  1  0
  5  8  2  0
  5 11  1  0
  6  7  2  0
  6  9  1  0
  6 12  1  0
  8 10  1  0
  9 10  2  0
 11 14  1  0
 12 15  2  0
 13 14  2  0
 13 16  1  0
M  END
>  <PUBCHEM_COMPOUND_CID>  (1) 
6716

>  <PUBCHEM_CONFORMER_RMSD>  (1) 
0.6

>  <PUBCHEM_CONFORMER_DIVERSEORDER>  (1) 
1

>  <PUBCHEM_MMFF94_PARTIAL_CHARGES>  (1) 
20
1 -0.16
10 -0.15
11 0.47
12 -0.15
13 -0.06
14 -0.14
15 -0.01
16 0.14
17 0.28
18 0.15
19 0.15
2 -0.28
20 0.15
21 0.15
3 -0.36
4 -0.57
5 0.09
7 0.08
8 0.08
9 0.14

>  <PUBCHEM_EFFECTIVE_ROTOR_COUNT>  (1) 
1

>  <PUBCHEM_PHARMACOPHORE_FEATURES>  (1) 
7
1 1 acceptor
1 2 acceptor
1 3 acceptor
1 4 acceptor
5 2 6 9 12 15 rings
6 1 5 8 11 13 14 rings
6 5 6 7 8 9 10 rings

>  <PUBCHEM_HEAVY_ATOM_COUNT>  (1) 
17

>  <PUBCHEM_ATOM_DEF_STEREO_COUNT>  (1) 
0

>  <PUBCHEM_ATOM_UDEF_STEREO_COUNT>  (1) 
0

>  <PUBCHEM_BOND_DEF_STEREO_COUNT>  (1) 
0

>  <PUBCHEM_BOND_UDEF_STEREO_COUNT>  (1) 
0

>  <PUBCHEM_ISOTOPIC_ATOM_COUNT>  (1) 
0

>  <PUBCHEM_COMPONENT_COUNT>  (1) 
1

>  <PUBCHEM_CACTVS_TAUTO_COUNT>  (1) 
3

>  <PUBCHEM_CONFORMER_ID>  (1) 
00001A3C00000001

>  <PUBCHEM_MMFF94_ENERGY>  (1) 
47.1364

>  <PUBCHEM_FEATURE_SELFOVERLAP>  (1) 
35.665

>  <PUBCHEM_SHAPE_FINGERPRINT>  (1) 
10411042 1 16753531588374398703
10608611 8 18338795615575363293
10616163 171 18266180711150094430
10967382 1 18411419479528465837
10980938 120 18411418380217350064
11132069 177 18410850001610136368
11471102 20 18412258406916588669
11680986 33 18410303492723036730
12382932 28 18411701023446238490
12730499 353 17971464106217912013
13140716 1 17978797036171556561
13380535 76 18411416228428295734
13583140 156 16733253646924679713
13897977 150 18339641140175053805
15196674 1 18411981351450474557
15309172 13 18338242574390750577
15442244 35 17981326690188308192
15536298 74 18272651199645715148
16945 1 18337961185007385085
18186145 218 18268714917742645957
193761 8 17834113426369787653
20510252 161 18343867705896082377
20588541 1 18411702114215048076
20602899 9 15985108543310810422
20645476 183 17969241038706392494
20645477 70 18197772199042324829
21267235 1 18340776952692400766
21501502 16 18411692205873364710
2334 1 17618503628447772781
23402539 116 18341038727017874981
23419403 2 15959422560195796569
23463225 33 18337952264355003996
23559900 14 18272092734466793644
25 1 18412260601634074004
2748010 2 18337395928888576037
335352 9 17979355261460251940
5104073 3 18411982446688228440
528886 8 18340481261679726576
53812653 166 18343579655187102880
54173680 148 18120655991853436603
633830 44 18200032816070681229
69090 78 18411976975036971021
7364860 26 18199468771069267782
81228 2 17976247251732460075
8809292 202 18408889563713972186
9709674 26 18342179998533840934

>  <PUBCHEM_SHAPE_MULTIPOLES>  (1) 
326.37
6
2.79
0.66
1.76
1.76
-0.04
-3
-0.03
-0.38
-0.37
-0.04
0.15
0.29

>  <PUBCHEM_SHAPE_SELFOVERLAP>  (1) 
731.658

>  <PUBCHEM_SHAPE_VOLUME>  (1) 
174.8

>  <PUBCHEM_COORDINATE_TYPE>  (1) 
2
5
10

$$$$
