6730
     RDKit          3D

 18 19  0  0  0  0  0  0  0  0999 V2000
    5.0013    2.0955    0.3408 Cl  0  0  0  0  0  0  0  0  0  0  0  0
   -5.0112    2.0810    0.4649 Cl  0  0  0  0  0  0  0  0  0  0  0  0
    1.0683   -3.1896   -0.1704 O   0  0  0  0  0  0  0  0  0  0  0  0
   -0.8762   -2.8146    0.9378 O   0  0  0  0  0  0  0  0  0  0  0  0
   -0.0123   -1.0792   -0.5606 C   0  0  0  0  0  0  0  0  0  0  0  0
    1.2330   -0.2896   -0.3363 C   0  0  0  0  0  0  0  0  0  0  0  0
   -1.2910   -0.2719   -0.2978 C   0  0  0  0  0  0  0  0  0  0  0  0
    1.6834    0.5956   -1.3154 C   0  0  0  0  0  0  0  0  0  0  0  0
   -2.3496   -0.4245   -1.1597 C   0  0  0  0  0  0  0  0  0  0  0  0
    1.9479   -0.4374    0.8525 C   0  0  0  0  0  0  0  0  0  0  0  0
   -1.3217    0.5697    0.7876 C   0  0  0  0  0  0  0  0  0  0  0  0
   -0.0243   -2.4431    0.1428 C   0  0  0  0  0  0  0  0  0  0  0  0
    2.8486    1.3333   -1.1062 C   0  0  0  0  0  0  0  0  0  0  0  0
   -3.5112    0.3101   -0.9216 C   0  0  0  0  0  0  0  0  0  0  0  0
    3.1131    0.3003    1.0620 C   0  0  0  0  0  0  0  0  0  0  0  0
   -2.4833    1.3042    1.0259 C   0  0  0  0  0  0  0  0  0  0  0  0
    3.5635    1.1858    0.0826 C   0  0  0  0  0  0  0  0  0  0  0  0
   -3.5782    1.1744    0.1712 C   0  0  0  0  0  0  0  0  0  0  0  0
  1 17  1  0
  2 18  1  0
  3 12  1  0
  4 12  2  0
  5  6  1  0
  5  7  1  0
  5 12  1  0
  6  8  2  0
  6 10  1  0
  7  9  2  0
  7 11  1  0
  8 13  1  0
  9 14  1  0
 10 15  2  0
 11 16  2  0
 13 17  2  0
 14 18  2  0
 15 17  1  0
 16 18  1  0
M  END
>  <PUBCHEM_COMPOUND_CID>  (1) 
6730

>  <PUBCHEM_CONFORMER_RMSD>  (1) 
0.6

>  <PUBCHEM_CONFORMER_DIVERSEORDER>  (1) 
1
5
2
4
3

>  <PUBCHEM_MMFF94_PARTIAL_CHARGES>  (1) 
27
1 -0.18
10 -0.15
11 -0.15
12 0.66
13 -0.15
14 -0.15
15 -0.15
16 -0.15
17 0.18
18 0.18
2 -0.18
20 0.15
21 0.15
22 0.15
23 0.15
24 0.15
25 0.15
26 0.15
27 0.15
28 0.5
3 -0.65
4 -0.57
5 0.35
6 -0.14
7 -0.14
8 -0.15
9 -0.15

>  <PUBCHEM_EFFECTIVE_ROTOR_COUNT>  (1) 
3

>  <PUBCHEM_PHARMACOPHORE_FEATURES>  (1) 
5
1 3 acceptor
1 4 acceptor
3 3 4 12 anion
6 6 8 10 13 15 17 rings
6 7 9 11 14 16 18 rings

>  <PUBCHEM_HEAVY_ATOM_COUNT>  (1) 
18

>  <PUBCHEM_ATOM_DEF_STEREO_COUNT>  (1) 
0

>  <PUBCHEM_ATOM_UDEF_STEREO_COUNT>  (1) 
0

>  <PUBCHEM_BOND_DEF_STEREO_COUNT>  (1) 
0

>  <PUBCHEM_BOND_UDEF_STEREO_COUNT>  (1) 
0

>  <PUBCHEM_ISOTOPIC_ATOM_COUNT>  (1) 
0

>  <PUBCHEM_COMPONENT_COUNT>  (1) 
1

>  <PUBCHEM_CACTVS_TAUTO_COUNT>  (1) 
1

>  <PUBCHEM_CONFORMER_ID>  (1) 
00001A4A00000001

>  <PUBCHEM_MMFF94_ENERGY>  (1) 
47.9822

>  <PUBCHEM_FEATURE_SELFOVERLAP>  (1) 
25.43

>  <PUBCHEM_SHAPE_FINGERPRINT>  (1) 
10465860 228 18267305335335358791
10498660 4 17917993862793719713
11640471 11 18408318916978624996
12403259 327 16008759012765653241
12633257 1 16081378474282792953
12788726 201 17685506742011248990
12892183 10 16226317127811271140
13140716 1 18334858281605740778
13583140 156 16732976578679197857
13764800 53 18268441289586750106
13965767 371 18114457873104164020
14123255 52 18411140233682415080
14787075 74 18200877404599570547
15309172 13 18186516605175991348
15342168 16 18333739013450000773
15775835 57 18343580724570642897
15906896 17 18267865179843556102
16752209 62 18120929770486448006
16945 1 18115304458376199207
1741750 31 18337954609813251544
1813 80 17479182959514825558
18186145 218 18409730621120459223
18222031 100 8070022238452453017
19765921 60 18343018865918404795
19784866 34 18341612594889315449
20157964 124 18118114772402509901
20361792 2 9295285019496828305
204376 136 18407759252590646033
20510252 161 18124599935841239322
20871999 31 16702008812677718293
21499 59 18410289211850905845
21524375 3 18342455932765141894
21713013 43 14045731664682278165
21731228 192 18259704514352553234
21731516 1 9655578495686880886
2255824 54 18123474877959204159
23184049 59 17967526861687714868
23402539 116 18059568118357965820
23557571 272 17059773446256536941
23558518 356 18187931745582819442
23559900 14 16916504722951156086
305870 269 18410292462998795502
3472631 163 18131350817209282533
394222 165 18197497329530325187
4028521 119 17775568649669518617
4340502 62 18261120630491352459
474 4 18410573942423428329
5104073 3 17897148338629654496
59755656 520 18409728486638030406
6333272 397 18409733975732594601
633830 44 18343300331888469213
6992083 37 17822849922022872412
7364860 26 18056197964530973663
81228 2 17903367244081889098
84936 182 18200028434861134872
9981440 41 18129372856125664546

>  <PUBCHEM_SHAPE_MULTIPOLES>  (1) 
362.43
8.27
2.71
1.19
0.4
2.12
-0.12
-8.44
0.69
-0.14
0.53
-0.06
-0.09
-0.53

>  <PUBCHEM_SHAPE_SELFOVERLAP>  (1) 
764.153

>  <PUBCHEM_SHAPE_VOLUME>  (1) 
205.5

>  <PUBCHEM_COORDINATE_TYPE>  (1) 
2
5
10

$$$$
