6731
     RDKit          3D

 21 24  0  0  0  0  0  0  0  0999 V2000
   -1.2595    0.9863    2.3738 O   0  0  0  0  0  0  0  0  0  0  0  0
   -1.2626    0.9920   -2.3720 O   0  0  0  0  0  0  0  0  0  0  0  0
    0.9589   -0.2152   -0.0009 N   0  0  0  0  0  0  0  0  0  0  0  0
   -0.8109    1.4368    0.0014 C   0  0  0  0  0  0  0  0  0  0  0  0
   -1.5285    0.8335    1.1971 C   0  0  0  0  0  0  0  0  0  0  0  0
   -1.5297    0.8368   -1.1952 C   0  0  0  0  0  0  0  0  0  0  0  0
   -2.6328    0.0120    0.6964 C   0  0  0  0  0  0  0  0  0  0  0  0
   -2.6334    0.0140   -0.6958 C   0  0  0  0  0  0  0  0  0  0  0  0
    0.6432    1.1003    0.0003 C   0  0  0  0  0  0  0  0  0  0  0  0
    1.5738    2.1195    0.0016 C   0  0  0  0  0  0  0  0  0  0  0  0
   -3.5686   -0.6993    1.4216 C   0  0  0  0  0  0  0  0  0  0  0  0
   -3.5701   -0.6951   -1.4221 C   0  0  0  0  0  0  0  0  0  0  0  0
    2.2612   -0.5573   -0.0010 C   0  0  0  0  0  0  0  0  0  0  0  0
    3.2856    0.4125    0.0002 C   0  0  0  0  0  0  0  0  0  0  0  0
    2.9147    1.7638    0.0016 C   0  0  0  0  0  0  0  0  0  0  0  0
   -4.5260   -1.4208    0.7034 C   0  0  0  0  0  0  0  0  0  0  0  0
   -4.5269   -1.4188   -0.7050 C   0  0  0  0  0  0  0  0  0  0  0  0
    2.6302   -1.8997   -0.0024 C   0  0  0  0  0  0  0  0  0  0  0  0
    4.6347    0.0195    0.0003 C   0  0  0  0  0  0  0  0  0  0  0  0
    3.9715   -2.2906   -0.0023 C   0  0  0  0  0  0  0  0  0  0  0  0
    4.9752   -1.3302   -0.0009 C   0  0  0  0  0  0  0  0  0  0  0  0
  1  5  2  0
  2  6  2  0
  3  9  2  0
  3 13  1  0
  4  5  1  0
  4  6  1  0
  4  9  1  0
  5  7  1  0
  6  8  1  0
  7  8  2  0
  7 11  1  0
  8 12  1  0
  9 10  1  0
 10 15  2  0
 11 16  2  0
 12 17  2  0
 13 14  2  0
 13 18  1  0
 14 15  1  0
 14 19  1  0
 16 17  1  0
 18 20  2  0
 19 21  2  0
 20 21  1  0
M  END
>  <PUBCHEM_COMPOUND_CID>  (1) 
6731

>  <PUBCHEM_CONFORMER_RMSD>  (1) 
0.6

>  <PUBCHEM_CONFORMER_DIVERSEORDER>  (1) 
1
6
5
3
4
2

>  <PUBCHEM_MMFF94_PARTIAL_CHARGES>  (1) 
30
1 -0.57
10 -0.15
11 -0.15
12 -0.15
13 0.31
15 -0.15
16 -0.15
17 -0.15
18 -0.15
19 -0.15
2 -0.57
20 -0.15
21 -0.15
23 0.15
24 0.15
25 0.15
26 0.15
27 0.15
28 0.15
29 0.15
3 -0.62
30 0.15
31 0.15
32 0.15
4 0.27
5 0.42
6 0.42
7 0.09
8 0.09
9 0.17

>  <PUBCHEM_EFFECTIVE_ROTOR_COUNT>  (1) 
1.2

>  <PUBCHEM_PHARMACOPHORE_FEATURES>  (1) 
8
1 1 acceptor
1 2 acceptor
1 3 acceptor
1 4 anion
5 4 5 6 7 8 rings
6 13 14 18 19 20 21 rings
6 3 9 10 13 14 15 rings
6 7 8 11 12 16 17 rings

>  <PUBCHEM_HEAVY_ATOM_COUNT>  (1) 
21

>  <PUBCHEM_ATOM_DEF_STEREO_COUNT>  (1) 
0

>  <PUBCHEM_ATOM_UDEF_STEREO_COUNT>  (1) 
0

>  <PUBCHEM_BOND_DEF_STEREO_COUNT>  (1) 
0

>  <PUBCHEM_BOND_UDEF_STEREO_COUNT>  (1) 
0

>  <PUBCHEM_ISOTOPIC_ATOM_COUNT>  (1) 
0

>  <PUBCHEM_COMPONENT_COUNT>  (1) 
1

>  <PUBCHEM_CACTVS_TAUTO_COUNT>  (1) 
3

>  <PUBCHEM_CONFORMER_ID>  (1) 
00001A4B00000001

>  <PUBCHEM_MMFF94_ENERGY>  (1) 
60.7284

>  <PUBCHEM_FEATURE_SELFOVERLAP>  (1) 
40.71

>  <PUBCHEM_SHAPE_FINGERPRINT>  (1) 
10366900 7 17530967973345163434
10764073 3 15948819926878410937
11578080 2 17559082485383456273
12236239 1 17775289390932453233
12363563 72 18040440970914814356
12596599 1 17986968340406807546
12596602 18 17060055998974893074
12633257 1 14261056693107779330
13103583 49 17632027445956351731
13533116 47 18271526519699482243
13544653 18 18408606980630177591
13583140 156 17560791100556011409
13911987 19 17756442804172138812
14341114 328 17632307808119469939
14386348 63 17822010938753149875
14787075 74 17559390477667080640
14849402 71 17202749541198757824
15163728 17 13407616781652033607
15375462 189 17845936337437728097
15475509 35 17768816717106166107
15475509 8 17603857881080345357
15961568 22 16226613026021431692
17357779 13 17894912935929660870
17780758 139 17559390245981530418
1813 80 18200888334679870756
19377110 9 17489011739606596146
19862831 5 13912326780574859908
200 152 18342454850443874265
20028762 73 18059852895948931990
20645477 70 18187926230954918376
20871999 31 16008748009243394693
21033650 10 15936966327893788652
21267235 1 18341338825352952774
21475661 188 11671522061962223779
221490 88 18335138683277840524
22646028 28 18343582927930901342
23557571 272 17313380158131344789
23559900 14 16443342105025882404
23598288 3 17489588909437468505
27216 239 11311470512151417095
2838139 119 9438586552369347851
2871803 45 18040148517870073258
3286 77 18409452509150938492
33382 64 18266182927775478955
392239 28 17273671291958455818
46194498 28 17387127783588375671
4921388 177 16443356351242168139
5104073 3 18269830931262254952
7970288 3 18270680870673016558
90316 7 16988850471051662977
9709674 26 18114463447981711395

>  <PUBCHEM_SHAPE_MULTIPOLES>  (1) 
415.45
9.76
2.08
1.44
2.08
0.23
0
6.13
0
1.52
0
-1.79
-0.33
0

>  <PUBCHEM_SHAPE_SELFOVERLAP>  (1) 
949.046

>  <PUBCHEM_SHAPE_VOLUME>  (1) 
215.7

>  <PUBCHEM_COORDINATE_TYPE>  (1) 
2
5
10

$$$$
