6734
     RDKit          3D

 12 14  0  0  0  0  0  0  0  0999 V2000
    0.0000   -0.1257   -0.0001 C   0  0  0  0  0  0  0  0  0  0  0  0
    0.7768   -2.3652   -0.0005 C   0  0  0  0  0  0  0  0  0  0  0  0
   -0.7766   -2.3653    0.0006 C   0  0  0  0  0  0  0  0  0  0  0  0
    1.1255   -0.9065    0.0001 C   0  0  0  0  0  0  0  0  0  0  0  0
   -1.1254   -0.9065   -0.0001 C   0  0  0  0  0  0  0  0  0  0  0  0
    0.0000    1.2707    0.0000 C   0  0  0  0  0  0  0  0  0  0  0  0
    2.3684   -0.2973   -0.0001 C   0  0  0  0  0  0  0  0  0  0  0  0
   -2.3683   -0.2975   -0.0001 C   0  0  0  0  0  0  0  0  0  0  0  0
    1.2633    1.8908    0.0001 C   0  0  0  0  0  0  0  0  0  0  0  0
   -1.2635    1.8906   -0.0001 C   0  0  0  0  0  0  0  0  0  0  0  0
    2.4332    1.1061    0.0001 C   0  0  0  0  0  0  0  0  0  0  0  0
   -2.4334    1.1059   -0.0001 C   0  0  0  0  0  0  0  0  0  0  0  0
  1  4  1  0
  1  5  2  0
  1  6  1  0
  2  3  1  0
  2  4  1  0
  3  5  1  0
  4  7  2  0
  5  8  1  0
  6  9  1  0
  6 10  2  0
  7 11  1  0
  8 12  2  0
  9 11  2  0
 10 12  1  0
M  END
>  <PUBCHEM_COMPOUND_CID>  (1) 
6734

>  <PUBCHEM_CONFORMER_RMSD>  (1) 
0.4

>  <PUBCHEM_CONFORMER_DIVERSEORDER>  (1) 
1

>  <PUBCHEM_MMFF94_PARTIAL_CHARGES>  (1) 
16
10 -0.15
11 -0.15
12 -0.15
17 0.15
18 0.15
19 0.15
2 0.14
20 0.15
21 0.15
22 0.15
3 0.14
4 -0.14
5 -0.14
7 -0.15
8 -0.15
9 -0.15

>  <PUBCHEM_EFFECTIVE_ROTOR_COUNT>  (1) 
0.4

>  <PUBCHEM_PHARMACOPHORE_FEATURES>  (1) 
3
5 1 2 3 4 5 rings
6 1 4 6 7 9 11 rings
6 1 5 6 8 10 12 rings

>  <PUBCHEM_HEAVY_ATOM_COUNT>  (1) 
12

>  <PUBCHEM_ATOM_DEF_STEREO_COUNT>  (1) 
0

>  <PUBCHEM_ATOM_UDEF_STEREO_COUNT>  (1) 
0

>  <PUBCHEM_BOND_DEF_STEREO_COUNT>  (1) 
0

>  <PUBCHEM_BOND_UDEF_STEREO_COUNT>  (1) 
0

>  <PUBCHEM_ISOTOPIC_ATOM_COUNT>  (1) 
0

>  <PUBCHEM_COMPONENT_COUNT>  (1) 
1

>  <PUBCHEM_CACTVS_TAUTO_COUNT>  (1) 
1

>  <PUBCHEM_CONFORMER_ID>  (1) 
00001A4E00000001

>  <PUBCHEM_MMFF94_ENERGY>  (1) 
41.6952

>  <PUBCHEM_FEATURE_SELFOVERLAP>  (1) 
15.429

>  <PUBCHEM_SHAPE_FINGERPRINT>  (1) 
10967382 1 18410573950886677793
12423570 1 9618655224494687791
13380535 76 18410568491888454946
16945 1 18410573985151477124
193761 8 18410855460133845799
20871998 184 17911808182163461598
21040471 1 18410575132097753152
2334 1 17978228597022823911
23463225 33 18190457165167479626
23552423 10 18120377553513296383
23559900 14 18271255950420086180
241688 4 16897646784211423306
2748010 2 18122627424738966199
2897 32 18410012104655592036
5084963 1 18131070432789410657
528886 8 18411132575739525385
63268167 104 18123753054226561961
66348 1 18410012096060259193

>  <PUBCHEM_SHAPE_MULTIPOLES>  (1) 
246.95
3.12
2.64
0.62
0
0.81
0
-0.89
0
0
0
0
0
0

>  <PUBCHEM_SHAPE_SELFOVERLAP>  (1) 
563.401

>  <PUBCHEM_SHAPE_VOLUME>  (1) 
117

>  <PUBCHEM_COORDINATE_TYPE>  (1) 
2
5
10

$$$$
