6739
     RDKit          3D

 11 11  0  0  0  0  0  0  0  0999 V2000
   -2.8685    0.8073    0.0004 O   0  0  0  0  0  0  0  0  0  0  0  0
   -2.2917   -1.3109   -0.0003 O   0  0  0  0  0  0  0  0  0  0  0  0
   -1.9959   -0.0926    0.0001 N   0  0  0  0  0  0  0  0  0  0  0  0
    0.3851   -0.6824   -0.0001 C   0  0  0  0  0  0  0  0  0  0  0  0
    1.7239   -0.2907    0.0001 C   0  0  0  0  0  0  0  0  0  0  0  0
   -0.6234    0.2811   -0.0002 C   0  0  0  0  0  0  0  0  0  0  0  0
    2.0542    1.0645    0.0001 C   0  0  0  0  0  0  0  0  0  0  0  0
    0.0403   -2.1392    0.0001 C   0  0  0  0  0  0  0  0  0  0  0  0
   -0.2933    1.6363   -0.0002 C   0  0  0  0  0  0  0  0  0  0  0  0
    2.8238   -1.3014    0.0001 C   0  0  0  0  0  0  0  0  0  0  0  0
    1.0455    2.0280   -0.0001 C   0  0  0  0  0  0  0  0  0  0  0  0
  1  3  1  0
  2  3  2  0
  3  6  1  0
  4  5  2  0
  4  6  1  0
  4  8  1  0
  5  7  1  0
  5 10  1  0
  6  9  2  0
  7 11  2  0
  9 11  1  0
M  CHG  2   1  -1   3   1
M  END
>  <PUBCHEM_COMPOUND_CID>  (1) 
6739

>  <PUBCHEM_CONFORMER_RMSD>  (1) 
0.4

>  <PUBCHEM_CONFORMER_DIVERSEORDER>  (1) 
1

>  <PUBCHEM_MMFF94_PARTIAL_CHARGES>  (1) 
14
1 -0.52
10 0.14
11 -0.15
12 0.15
16 0.15
2 -0.52
20 0.15
3 0.91
4 -0.14
5 -0.14
6 0.13
7 -0.15
8 0.14
9 -0.15

>  <PUBCHEM_EFFECTIVE_ROTOR_COUNT>  (1) 
1

>  <PUBCHEM_PHARMACOPHORE_FEATURES>  (1) 
4
1 1 acceptor
1 1 anion
1 2 acceptor
6 4 5 6 7 9 11 rings

>  <PUBCHEM_HEAVY_ATOM_COUNT>  (1) 
11

>  <PUBCHEM_ATOM_DEF_STEREO_COUNT>  (1) 
0

>  <PUBCHEM_ATOM_UDEF_STEREO_COUNT>  (1) 
0

>  <PUBCHEM_BOND_DEF_STEREO_COUNT>  (1) 
0

>  <PUBCHEM_BOND_UDEF_STEREO_COUNT>  (1) 
0

>  <PUBCHEM_ISOTOPIC_ATOM_COUNT>  (1) 
0

>  <PUBCHEM_COMPONENT_COUNT>  (1) 
1

>  <PUBCHEM_CACTVS_TAUTO_COUNT>  (1) 
1

>  <PUBCHEM_CONFORMER_ID>  (1) 
00001A5300000001

>  <PUBCHEM_MMFF94_ENERGY>  (1) 
42.6009

>  <PUBCHEM_FEATURE_SELFOVERLAP>  (1) 
20.379

>  <PUBCHEM_SHAPE_FINGERPRINT>  (1) 
12423570 1 17703221819864741126
13380535 76 18049998093618997722
14128692 85 18411705374327198012
14325111 11 18410856598357935169
16945 1 18266459802145467268
17990270 104 18337109067838220826
18185500 45 18339079263768154195
193761 8 18050568748675319110
21040471 1 18194401323444717504
2334 1 18338799030042201831
23402655 69 18341035355954227797
23552423 10 18334015033585694828
241688 4 18338518513149348528
2748010 2 18410291440743727652
5084963 1 18202282502448979834
528886 8 18411413986265287880
63268167 104 18412549829026916449
66348 1 18266739086725812730

>  <PUBCHEM_SHAPE_MULTIPOLES>  (1) 
209.66
3.45
2.21
0.59
0.86
0
0
-0.54
0
-0.41
0
-0.06
0.01
0

>  <PUBCHEM_SHAPE_SELFOVERLAP>  (1) 
439.419

>  <PUBCHEM_SHAPE_VOLUME>  (1) 
120.5

>  <PUBCHEM_COORDINATE_TYPE>  (1) 
2
5
10

$$$$
