6744
     RDKit          3D

 30 33  0  0  1  0  0  0  0  0999 V2000
    7.2488    2.2988    0.2411 O   0  0  0  0  0  0  0  0  0  0  0  0
   -0.6678   -1.3534   -0.4071 C   0  0  0  0  0  0  0  0  0  0  0  0
    0.4616   -1.9125    0.4808 C   0  0  0  0  0  0  0  0  0  0  0  0
    1.8594   -1.4794    0.0272 C   0  0  0  0  0  0  0  0  0  0  0  0
    1.9436    0.0748    0.0154 C   0  0  0  0  0  0  0  0  0  0  0  0
   -1.8809   -2.0223    0.2844 C   0  0  0  0  0  0  0  0  0  0  0  0
   -0.6274    0.1771   -0.2956 C   0  0  0  0  0  0  0  0  0  0  0  0
    3.3585    0.5739   -0.4841 C   0  0  0  0  0  0  0  0  0  0  0  0
    0.1472   -3.4026    0.5724 C   0  0  0  0  0  0  0  0  0  0  0  0
    0.7429    0.7360   -0.7162 C   0  0  0  0  0  0  0  0  0  0  0  0
   -1.3917   -3.4617    0.5698 C   0  0  0  0  0  0  0  0  0  0  0  0
    2.9368   -2.0603    0.9553 C   0  0  0  0  0  0  0  0  0  0  0  0
   -3.2015   -1.9844   -0.4711 C   0  0  0  0  0  0  0  0  0  0  0  0
   -0.5691   -1.7769   -1.8938 C   0  0  0  0  0  0  0  0  0  0  0  0
    4.4856   -0.2405    0.1663 C   0  0  0  0  0  0  0  0  0  0  0  0
    3.5163    2.0717   -0.0853 C   0  0  0  0  0  0  0  0  0  0  0  0
    4.2704   -1.4000    0.8118 C   0  0  0  0  0  0  0  0  0  0  0  0
    3.4941    0.4357   -2.0197 C   0  0  0  0  0  0  0  0  0  0  0  0
    5.8867    0.3170    0.0653 C   0  0  0  0  0  0  0  0  0  0  0  0
   -3.6088   -0.5223   -0.7505 C   0  0  0  0  0  0  0  0  0  0  0  0
    4.9310    2.6233   -0.2564 C   0  0  0  0  0  0  0  0  0  0  0  0
    5.9490    1.7783    0.5009 C   0  0  0  0  0  0  0  0  0  0  0  0
   -4.2790   -2.7403    0.3138 C   0  0  0  0  0  0  0  0  0  0  0  0
   -3.9019    0.3494    0.4818 C   0  0  0  0  0  0  0  0  0  0  0  0
   -4.4016    1.7904    0.2009 C   0  0  0  0  0  0  0  0  0  0  0  0
   -5.5889    1.8069   -0.8142 C   0  0  0  0  0  0  0  0  0  0  0  0
   -4.7196    2.5240    1.5275 C   0  0  0  0  0  0  0  0  0  0  0  0
   -6.0471    3.2323   -1.1484 C   0  0  0  0  0  0  0  0  0  0  0  0
   -6.7939    0.9701   -0.3759 C   0  0  0  0  0  0  0  0  0  0  0  0
   -3.5527    2.5969    2.5035 C   0  0  0  0  0  0  0  0  0  0  0  0
  1 22  1  0
  2  3  1  0
  2  6  1  0
  2  7  1  0
  2 14  1  0
  3  4  1  0
  3  9  1  0
  4  5  1  0
  4 12  1  0
  5  8  1  0
  5 10  1  0
  6 11  1  0
  6 13  1  0
  7 10  1  0
  8 15  1  0
  8 16  1  0
  8 18  1  0
  9 11  1  0
 12 17  1  0
 13 20  1  0
 13 23  1  0
 15 17  2  0
 15 19  1  0
 16 21  1  0
 19 22  1  0
 20 24  1  0
 21 22  1  0
 24 25  1  0
 25 26  1  0
 25 27  1  0
 26 28  1  0
 26 29  1  0
 27 30  1  0
M  END
>  <PUBCHEM_COMPOUND_CID>  (1) 
6744

>  <PUBCHEM_CONFORMER_RMSD>  (1) 
1

>  <PUBCHEM_CONFORMER_DIVERSEORDER>  (1) 
1
4
5
7
3
6
2

>  <PUBCHEM_MMFF94_PARTIAL_CHARGES>  (1) 
9
1 -0.68
12 0.14
15 -0.28
17 -0.29
19 0.14
22 0.28
51 0.15
68 0.4
8 0.14

>  <PUBCHEM_EFFECTIVE_ROTOR_COUNT>  (1) 
8

>  <PUBCHEM_PHARMACOPHORE_FEATURES>  (1) 
10
1 1 acceptor
1 1 donor
1 23 hydrophobe
1 30 hydrophobe
3 26 28 29 hydrophobe
5 2 3 6 9 11 rings
6 13 20 24 25 26 27 hydrophobe
6 2 3 4 5 7 10 rings
6 4 5 8 12 15 17 rings
6 8 15 16 19 21 22 rings

>  <PUBCHEM_HEAVY_ATOM_COUNT>  (1) 
30

>  <PUBCHEM_ATOM_DEF_STEREO_COUNT>  (1) 
9

>  <PUBCHEM_ATOM_UDEF_STEREO_COUNT>  (1) 
0

>  <PUBCHEM_BOND_DEF_STEREO_COUNT>  (1) 
0

>  <PUBCHEM_BOND_UDEF_STEREO_COUNT>  (1) 
0

>  <PUBCHEM_ISOTOPIC_ATOM_COUNT>  (1) 
0

>  <PUBCHEM_COMPONENT_COUNT>  (1) 
1

>  <PUBCHEM_CACTVS_TAUTO_COUNT>  (1) 
1

>  <PUBCHEM_CONFORMER_ID>  (1) 
00001A5800000001

>  <PUBCHEM_MMFF94_ENERGY>  (1) 
92.6626

>  <PUBCHEM_FEATURE_SELFOVERLAP>  (1) 
50.865

>  <PUBCHEM_SHAPE_FINGERPRINT>  (1) 
10 15 18186523211336891585
10050765 1 18408600340870259627
10411042 1 17544758288800327059
10906281 52 17459197429779087950
11135609 127 17758380891865414837
11135609 187 18338514133137898457
12107183 9 18263071129237816042
12390115 104 18410866476772160094
12422481 6 17240768333065680805
12788726 201 18200879594405495107
12925494 130 18337101375678803585
13073987 5 18334292114916909018
13140716 1 18261107443940161179
13782708 43 13685714106013481109
14394314 77 18340772542595405721
14790565 3 18408603634555228798
14931854 50 18060134294064181713
15064981 113 17274256132816749012
15163728 17 17775015539813018887
15238133 3 18261117404707338172
16112460 7 18410572843017601096
18608769 82 18338800126330072435
20511986 3 18337378388004762361
20715895 44 18336823087398560080
20739085 24 17968104062142209966
21033648 144 18261663814456703693
21033648 29 18129930308314854984
21033650 10 18126591083011929182
21236236 1 18410854408309677799
21279426 13 18342183254403706038
21304253 335 18260550039274497766
21421861 104 17677314049492628026
21756936 100 18340199807882713350
23522609 53 17313958545067698980
23559900 14 18200041616506669814
23569914 2 17270556422508990696
283562 15 18337389465607140331
2838139 119 18410567358649994541
335352 9 18336264553489671134
350125 39 18337110163841163643
3862424 121 12325344358566200112
4073 2 18041281062508074002
4144715 1 18334585658778465642
44802255 64 17273982518057074950
474 4 18337671889533726883
5104073 3 18040428910778977922
6086070 43 17632286921925533992
636775 72 18123745624756865384
7226269 152 18272936037328910016

>  <PUBCHEM_SHAPE_MULTIPOLES>  (1) 
611.52
15.9
4.21
1.4
1.33
0.77
-0.11
-16.05
-0.17
-2.79
-0.9
-0.97
-0.59
-0.71

>  <PUBCHEM_SHAPE_SELFOVERLAP>  (1) 
1260.079

>  <PUBCHEM_SHAPE_VOLUME>  (1) 
351.1

>  <PUBCHEM_COORDINATE_TYPE>  (1) 
2
5
10

$$$$
