6746
     RDKit          3D

 30 33  0  0  1  0  0  0  0  0999 V2000
    8.4147   -0.1505    0.4017 O   0  0  0  0  0  0  0  0  0  0  0  0
   -0.2768    0.5414   -0.2402 C   0  0  0  0  0  0  0  0  0  0  0  0
    0.4460   -0.7299    0.2477 C   0  0  0  0  0  0  0  0  0  0  0  0
    1.8956   -0.8269   -0.2386 C   0  0  0  0  0  0  0  0  0  0  0  0
    2.6888    0.4243    0.2388 C   0  0  0  0  0  0  0  0  0  0  0  0
   -1.6768    0.2787    0.3662 C   0  0  0  0  0  0  0  0  0  0  0  0
    0.4640    1.7488    0.3513 C   0  0  0  0  0  0  0  0  0  0  0  0
    4.1851    0.3904   -0.2719 C   0  0  0  0  0  0  0  0  0  0  0  0
   -0.5235   -1.8550   -0.1014 C   0  0  0  0  0  0  0  0  0  0  0  0
    1.9466    1.7562   -0.0597 C   0  0  0  0  0  0  0  0  0  0  0  0
   -1.9150   -1.2262    0.0988 C   0  0  0  0  0  0  0  0  0  0  0  0
    2.5612   -2.1074    0.2874 C   0  0  0  0  0  0  0  0  0  0  0  0
   -0.3513    0.6719   -1.7819 C   0  0  0  0  0  0  0  0  0  0  0  0
    4.7931   -1.0072   -0.0880 C   0  0  0  0  0  0  0  0  0  0  0  0
   -2.8130    1.1568   -0.1382 C   0  0  0  0  0  0  0  0  0  0  0  0
    5.0082    1.4181    0.5610 C   0  0  0  0  0  0  0  0  0  0  0  0
    4.0519   -2.0978    0.1736 C   0  0  0  0  0  0  0  0  0  0  0  0
    4.2759    0.7573   -1.7728 C   0  0  0  0  0  0  0  0  0  0  0  0
    6.2952   -1.1270   -0.2048 C   0  0  0  0  0  0  0  0  0  0  0  0
    6.5211    1.3121    0.3745 C   0  0  0  0  0  0  0  0  0  0  0  0
    7.0160   -0.1004    0.6645 C   0  0  0  0  0  0  0  0  0  0  0  0
   -2.5261    2.6327    0.1470 C   0  0  0  0  0  0  0  0  0  0  0  0
   -4.1168    0.7505    0.5050 C   0  0  0  0  0  0  0  0  0  0  0  0
   -5.1830    0.3108   -0.1814 C   0  0  0  0  0  0  0  0  0  0  0  0
   -6.4930   -0.0911    0.4648 C   0  0  0  0  0  0  0  0  0  0  0  0
   -6.8474   -1.5891    0.2286 C   0  0  0  0  0  0  0  0  0  0  0  0
   -7.5882    0.8915   -0.0059 C   0  0  0  0  0  0  0  0  0  0  0  0
   -5.8228   -2.5747    0.7996 C   0  0  0  0  0  0  0  0  0  0  0  0
   -7.0745   -1.8885   -1.2597 C   0  0  0  0  0  0  0  0  0  0  0  0
   -7.3552    2.3302    0.4339 C   0  0  0  0  0  0  0  0  0  0  0  0
  1 21  1  0
  2  3  1  0
  2  6  1  0
  2  7  1  0
  2 13  1  0
  3  4  1  0
  3  9  1  0
  4  5  1  0
  4 12  1  0
  5  8  1  0
  5 10  1  0
  6 11  1  0
  6 15  1  0
  7 10  1  0
  8 14  1  0
  8 16  1  0
  8 18  1  0
  9 11  1  0
 12 17  1  0
 14 17  2  0
 14 19  1  0
 15 22  1  0
 15 23  1  0
 16 20  1  0
 19 21  1  0
 20 21  1  0
 23 24  2  0
 24 25  1  0
 25 26  1  0
 25 27  1  0
 26 28  1  0
 26 29  1  0
 27 30  1  0
M  END
>  <PUBCHEM_COMPOUND_CID>  (1) 
6746

>  <PUBCHEM_CONFORMER_RMSD>  (1) 
0.8

>  <PUBCHEM_CONFORMER_DIVERSEORDER>  (1) 
1
18
10
13
19
8
15
17
2
11
16
5
4
12
9
6
7
14
3

>  <PUBCHEM_MMFF94_PARTIAL_CHARGES>  (1) 
15
1 -0.68
12 0.14
14 -0.28
15 0.14
17 -0.29
19 0.14
21 0.28
23 -0.29
24 -0.29
25 0.14
51 0.15
63 0.15
64 0.15
65 0.4
8 0.14

>  <PUBCHEM_EFFECTIVE_ROTOR_COUNT>  (1) 
7

>  <PUBCHEM_PHARMACOPHORE_FEATURES>  (1) 
10
1 1 acceptor
1 1 donor
1 22 hydrophobe
1 30 hydrophobe
3 26 28 29 hydrophobe
4 24 25 26 27 hydrophobe
5 2 3 6 9 11 rings
6 2 3 4 5 7 10 rings
6 4 5 8 12 14 17 rings
6 8 14 16 19 20 21 rings

>  <PUBCHEM_HEAVY_ATOM_COUNT>  (1) 
30

>  <PUBCHEM_ATOM_DEF_STEREO_COUNT>  (1) 
9

>  <PUBCHEM_ATOM_UDEF_STEREO_COUNT>  (1) 
0

>  <PUBCHEM_BOND_DEF_STEREO_COUNT>  (1) 
0

>  <PUBCHEM_BOND_UDEF_STEREO_COUNT>  (1) 
1

>  <PUBCHEM_ISOTOPIC_ATOM_COUNT>  (1) 
0

>  <PUBCHEM_COMPONENT_COUNT>  (1) 
1

>  <PUBCHEM_CACTVS_TAUTO_COUNT>  (1) 
1

>  <PUBCHEM_CONFORMER_ID>  (1) 
00001A5A00000001

>  <PUBCHEM_MMFF94_ENERGY>  (1) 
83.5074

>  <PUBCHEM_FEATURE_SELFOVERLAP>  (1) 
51.118

>  <PUBCHEM_SHAPE_FINGERPRINT>  (1) 
10 15 18261108600261965880
10050765 1 18122907521157820849
11135926 11 18113333099285906803
11578080 2 16700030872610390418
11724838 91 18335417980832979454
11963148 33 18408598175726857035
12166972 35 17894916247666516429
12236239 1 18273495672078943701
12516196 113 18413672409087563025
12838862 33 18338781365374664856
14251764 18 18410012160748558302
14394314 77 18413110533435680769
14849402 71 18130790126271503017
14856354 85 15267058177642156125
15183329 4 15791728616335451147
15849732 13 18202001031709155988
18608769 82 18411416241191761587
18681886 176 18342450474447148027
19315958 150 18057331592270456585
19841028 212 18115304467515312874
20028762 73 18272930531745845871
21130935 74 18343585114048643467
21267235 1 18412831257439416702
22149856 69 18271539614896473755
22224240 67 18334292085278957754
23522609 53 18195278613924339937
23559900 14 18409726296990868393
23569917 315 18335426755489024202
24771293 8 18259988205622521164
335352 9 18410014347804770982
34797466 226 17060342937962244284
350125 39 18411135844199023025
397830 11 16414335923228292355
4073 2 18187372051667776275
4325135 7 18409448076754946343
4340502 62 18409166606505875550
4625314 4 18341332206064265270
5104073 3 18264493879692423272
99344 41 18411418389039724563

>  <PUBCHEM_SHAPE_MULTIPOLES>  (1) 
611.52
22.6
2.52
0.99
9.5
0.25
-0.39
1.69
2.2
2.57
0.24
-0.03
-0.03
-0.38

>  <PUBCHEM_SHAPE_SELFOVERLAP>  (1) 
1265.928

>  <PUBCHEM_SHAPE_VOLUME>  (1) 
349.8

>  <PUBCHEM_COORDINATE_TYPE>  (1) 
2
5
10

$$$$
