6749
     RDKit          3D

 12 13  0  0  0  0  0  0  0  0999 V2000
   -2.5379   -1.6730   -0.0002 O   0  0  0  0  0  0  0  0  0  0  0  0
    2.5378    1.6731   -0.0006 O   0  0  0  0  0  0  0  0  0  0  0  0
   -0.3729   -0.6014    0.0001 C   0  0  0  0  0  0  0  0  0  0  0  0
    0.3730    0.6014    0.0003 C   0  0  0  0  0  0  0  0  0  0  0  0
   -1.7759   -0.5394    0.0000 C   0  0  0  0  0  0  0  0  0  0  0  0
    1.7760    0.5395    0.0002 C   0  0  0  0  0  0  0  0  0  0  0  0
    0.3062   -1.8306    0.0001 C   0  0  0  0  0  0  0  0  0  0  0  0
   -0.3062    1.8306    0.0003 C   0  0  0  0  0  0  0  0  0  0  0  0
   -2.4342    0.6907   -0.0002 C   0  0  0  0  0  0  0  0  0  0  0  0
    2.4342   -0.6907    0.0000 C   0  0  0  0  0  0  0  0  0  0  0  0
    1.7007   -1.8735   -0.0001 C   0  0  0  0  0  0  0  0  0  0  0  0
   -1.7007    1.8734   -0.0001 C   0  0  0  0  0  0  0  0  0  0  0  0
  1  5  1  0
  2  6  1  0
  3  4  1  0
  3  5  2  0
  3  7  1  0
  4  6  1  0
  4  8  2  0
  5  9  1  0
  6 10  2  0
  7 11  2  0
  8 12  1  0
  9 12  2  0
 10 11  1  0
M  END
>  <PUBCHEM_COMPOUND_CID>  (1) 
6749

>  <PUBCHEM_CONFORMER_RMSD>  (1) 
0.4

>  <PUBCHEM_CONFORMER_DIVERSEORDER>  (1) 
1

>  <PUBCHEM_MMFF94_PARTIAL_CHARGES>  (1) 
18
1 -0.53
10 -0.15
11 -0.15
12 -0.15
13 0.15
14 0.15
15 0.15
16 0.15
17 0.15
18 0.15
19 0.45
2 -0.53
20 0.45
5 0.08
6 0.08
7 -0.15
8 -0.15
9 -0.15

>  <PUBCHEM_EFFECTIVE_ROTOR_COUNT>  (1) 
0

>  <PUBCHEM_PHARMACOPHORE_FEATURES>  (1) 
4
1 1 donor
1 2 donor
6 3 4 5 8 9 12 rings
6 3 4 6 7 10 11 rings

>  <PUBCHEM_HEAVY_ATOM_COUNT>  (1) 
12

>  <PUBCHEM_ATOM_DEF_STEREO_COUNT>  (1) 
0

>  <PUBCHEM_ATOM_UDEF_STEREO_COUNT>  (1) 
0

>  <PUBCHEM_BOND_DEF_STEREO_COUNT>  (1) 
0

>  <PUBCHEM_BOND_UDEF_STEREO_COUNT>  (1) 
0

>  <PUBCHEM_ISOTOPIC_ATOM_COUNT>  (1) 
0

>  <PUBCHEM_COMPONENT_COUNT>  (1) 
1

>  <PUBCHEM_CACTVS_TAUTO_COUNT>  (1) 
7

>  <PUBCHEM_CONFORMER_ID>  (1) 
00001A5D00000001

>  <PUBCHEM_MMFF94_ENERGY>  (1) 
37.4009

>  <PUBCHEM_FEATURE_SELFOVERLAP>  (1) 
20.324

>  <PUBCHEM_SHAPE_FINGERPRINT>  (1) 
10967382 1 17762056536611342821
11206711 2 18337397054090867142
12423570 1 15971279641928656959
12524768 44 18337676287115695863
12897270 3 18410573985162007276
16945 1 18194402195175112710
17990270 104 18268147556915970126
193761 8 18410855417178488839
19973954 147 18410856516732327626
21040471 1 18050568439179048544
21501502 16 18410856529580293265
2334 1 18410574032396091398
23552423 10 18334298643076781566
23559900 14 17910679766319062974
241688 4 18409449167703065425
25 1 16819105383327714109
2748010 2 18410855481602998415
5084963 1 18201717301937885738
528886 8 18339074900076093835
66348 1 18338517443380510772
7364860 26 18271524196153771446

>  <PUBCHEM_SHAPE_MULTIPOLES>  (1) 
235.22
3.58
2.31
0.6
0
0
0
0
0
0
0
0
0
0

>  <PUBCHEM_SHAPE_SELFOVERLAP>  (1) 
521.106

>  <PUBCHEM_SHAPE_VOLUME>  (1) 
126.7

>  <PUBCHEM_COORDINATE_TYPE>  (1) 
2
5
10

$$$$
