6752
     RDKit          3D

 16 17  0  0  0  0  0  0  0  0999 V2000
   -2.8112   -0.1255   -0.0762 S   0  0  0  0  0  0  0  0  0  0  0  0
    3.6618   -0.2086    0.0394 O   0  0  0  0  0  0  0  0  0  0  0  0
   -3.0467   -0.7790    1.4006 O   0  0  0  0  0  0  0  0  0  0  0  0
   -3.6920    1.0240   -0.1845 O   0  0  0  0  0  0  0  0  0  0  0  0
   -2.8450   -1.1919   -1.0599 O   0  0  0  0  0  0  0  0  0  0  0  0
    2.6586    2.2309    0.0276 N   0  0  0  0  0  0  0  0  0  0  0  0
   -0.0416   -0.3769   -0.0270 C   0  0  0  0  0  0  0  0  0  0  0  0
    1.2563    0.1868   -0.0023 C   0  0  0  0  0  0  0  0  0  0  0  0
   -1.1592    0.4734   -0.0450 C   0  0  0  0  0  0  0  0  0  0  0  0
    1.3984    1.5840    0.0033 C   0  0  0  0  0  0  0  0  0  0  0  0
   -0.9996    1.8595   -0.0385 C   0  0  0  0  0  0  0  0  0  0  0  0
    2.3740   -0.6633    0.0154 C   0  0  0  0  0  0  0  0  0  0  0  0
   -0.1834   -1.7741   -0.0330 C   0  0  0  0  0  0  0  0  0  0  0  0
    0.2768    2.4138   -0.0147 C   0  0  0  0  0  0  0  0  0  0  0  0
    2.2146   -2.0493    0.0095 C   0  0  0  0  0  0  0  0  0  0  0  0
    0.9382   -2.6036   -0.0148 C   0  0  0  0  0  0  0  0  0  0  0  0
  1  3  1  0
  1  4  2  0
  1  5  2  0
  1  9  1  0
  2 12  1  0
  6 10  1  0
  7  8  1  0
  7  9  2  0
  7 13  1  0
  8 10  2  0
  8 12  1  0
  9 11  1  0
 10 14  1  0
 11 14  2  0
 12 15  2  0
 13 16  2  0
 15 16  1  0
M  END
>  <PUBCHEM_COMPOUND_CID>  (1) 
6752

>  <PUBCHEM_CONFORMER_RMSD>  (1) 
0.6

>  <PUBCHEM_CONFORMER_DIVERSEORDER>  (1) 
1

>  <PUBCHEM_MMFF94_PARTIAL_CHARGES>  (1) 
23
1 1.49
10 0.1
11 -0.15
12 0.08
13 -0.15
14 -0.15
15 -0.15
16 -0.15
17 0.15
18 0.15
19 0.15
2 -0.53
20 0.15
21 0.15
22 0.4
23 0.4
24 0.45
25 0.5
3 -0.68
4 -0.65
5 -0.65
6 -0.9
9 -0.01

>  <PUBCHEM_EFFECTIVE_ROTOR_COUNT>  (1) 
1

>  <PUBCHEM_PHARMACOPHORE_FEATURES>  (1) 
9
1 2 donor
1 3 acceptor
1 4 acceptor
1 5 acceptor
1 6 cation
1 6 donor
4 1 3 4 5 anion
6 7 8 12 13 15 16 rings
6 7 8 9 10 11 14 rings

>  <PUBCHEM_HEAVY_ATOM_COUNT>  (1) 
16

>  <PUBCHEM_ATOM_DEF_STEREO_COUNT>  (1) 
0

>  <PUBCHEM_ATOM_UDEF_STEREO_COUNT>  (1) 
0

>  <PUBCHEM_BOND_DEF_STEREO_COUNT>  (1) 
0

>  <PUBCHEM_BOND_UDEF_STEREO_COUNT>  (1) 
0

>  <PUBCHEM_ISOTOPIC_ATOM_COUNT>  (1) 
0

>  <PUBCHEM_COMPONENT_COUNT>  (1) 
1

>  <PUBCHEM_CACTVS_TAUTO_COUNT>  (1) 
12

>  <PUBCHEM_CONFORMER_ID>  (1) 
00001A6000000001

>  <PUBCHEM_MMFF94_ENERGY>  (1) 
56.4398

>  <PUBCHEM_FEATURE_SELFOVERLAP>  (1) 
45.762

>  <PUBCHEM_SHAPE_FINGERPRINT>  (1) 
10967382 1 18410854326304287956
11132069 177 18271799116773148098
11471102 20 18337666413123039085
11471102 22 18335719250960445483
11578080 2 17271970304452164905
13140716 1 18266458887644708650
13380535 76 18122898987363622274
14251717 144 18339633529535151463
14790565 3 18338253638338041212
15219456 202 18260833730364512649
16945 1 18411138026216671102
193761 8 17906451030747798308
19591789 44 18193848256501253134
20201158 50 18334857165188036995
20645477 70 18411975867399697655
22721475 48 18265897960399109877
2334 1 17978510059410246166
23388829 49 18341045242172091244
23402539 116 18341883066312788262
23463225 33 18410291367745114284
23559900 14 15318003618844701174
2748010 2 18121787393919178030
34934 24 18267012878132592445
528886 8 18411694370325638563
63268167 104 18342739667147916289
7364860 26 18341610399823189644
81228 2 17690002232381122952
8809292 202 18115595833405514531

>  <PUBCHEM_SHAPE_MULTIPOLES>  (1) 
304.66
4.91
2.8
0.74
1.91
0.3
-0.07
-0.41
-0.1
-1.28
0.05
0.44
-0.16
0.04

>  <PUBCHEM_SHAPE_SELFOVERLAP>  (1) 
658.451

>  <PUBCHEM_SHAPE_VOLUME>  (1) 
167.6

>  <PUBCHEM_COORDINATE_TYPE>  (1) 
2
5
10

$$$$
