6753
     RDKit          3D

 19 19  0  0  0  0  0  0  0  0999 V2000
   -2.0010   -1.3559   -0.1973 O   0  0  0  0  0  0  0  0  0  0  0  0
    1.6010   -3.1944   -0.1168 O   0  0  0  0  0  0  0  0  0  0  0  0
   -0.5931   -3.3158   -0.2101 O   0  0  0  0  0  0  0  0  0  0  0  0
    2.5050    2.9744    0.1398 O   0  0  0  0  0  0  0  0  0  0  0  0
    3.7535    1.1636    0.1275 O   0  0  0  0  0  0  0  0  0  0  0  0
    0.4702   -2.6585   -0.1438 N   0  0  0  0  0  0  0  0  0  0  0  0
    2.6356    1.7290    0.1010 N   0  0  0  0  0  0  0  0  0  0  0  0
   -2.2698    1.4648   -0.1073 C   0  0  0  0  0  0  0  0  0  0  0  0
   -0.8955    0.7534   -0.0781 C   0  0  0  0  0  0  0  0  0  0  0  0
   -2.1296    2.8485   -0.7785 C   0  0  0  0  0  0  0  0  0  0  0  0
   -2.7979    1.6448    1.3326 C   0  0  0  0  0  0  0  0  0  0  0  0
   -3.3458    0.6836   -0.8931 C   0  0  0  0  0  0  0  0  0  0  0  0
   -0.8582   -0.6132   -0.1249 C   0  0  0  0  0  0  0  0  0  0  0  0
    0.2185    1.5463   -0.0044 C   0  0  0  0  0  0  0  0  0  0  0  0
    0.3893   -1.2366   -0.0963 C   0  0  0  0  0  0  0  0  0  0  0  0
    1.5514   -0.4686   -0.0214 C   0  0  0  0  0  0  0  0  0  0  0  0
    1.4659    0.9229    0.0247 C   0  0  0  0  0  0  0  0  0  0  0  0
    2.8930   -1.1363    0.0090 C   0  0  0  0  0  0  0  0  0  0  0  0
   -2.5926   -1.7521    1.0372 C   0  0  0  0  0  0  0  0  0  0  0  0
  1 13  1  0
  1 19  1  0
  2  6  1  0
  3  6  2  0
  4  7  1  0
  5  7  2  0
  6 15  1  0
  7 17  1  0
  8  9  1  0
  8 10  1  0
  8 11  1  0
  8 12  1  0
  9 13  2  0
  9 14  1  0
 13 15  1  0
 14 17  2  0
 15 16  2  0
 16 17  1  0
 16 18  1  0
M  CHG  4   2  -1   4  -1   6   1   7   1
M  END
>  <PUBCHEM_COMPOUND_CID>  (1) 
6753

>  <PUBCHEM_CONFORMER_RMSD>  (1) 
0.6

>  <PUBCHEM_CONFORMER_DIVERSEORDER>  (1) 
1
2

>  <PUBCHEM_MMFF94_PARTIAL_CHARGES>  (1) 
17
1 -0.36
13 0.08
14 -0.15
15 0.13
16 -0.14
17 0.13
18 0.14
19 0.28
2 -0.52
29 0.15
3 -0.52
4 -0.52
5 -0.52
6 0.91
7 0.91
8 0.14
9 -0.14

>  <PUBCHEM_EFFECTIVE_ROTOR_COUNT>  (1) 
4

>  <PUBCHEM_PHARMACOPHORE_FEATURES>  (1) 
9
1 1 acceptor
1 2 acceptor
1 2 anion
1 3 acceptor
1 4 acceptor
1 4 anion
1 5 acceptor
4 8 10 11 12 hydrophobe
6 9 13 14 15 16 17 rings

>  <PUBCHEM_HEAVY_ATOM_COUNT>  (1) 
19

>  <PUBCHEM_ATOM_DEF_STEREO_COUNT>  (1) 
0

>  <PUBCHEM_ATOM_UDEF_STEREO_COUNT>  (1) 
0

>  <PUBCHEM_BOND_DEF_STEREO_COUNT>  (1) 
0

>  <PUBCHEM_BOND_UDEF_STEREO_COUNT>  (1) 
0

>  <PUBCHEM_ISOTOPIC_ATOM_COUNT>  (1) 
0

>  <PUBCHEM_COMPONENT_COUNT>  (1) 
1

>  <PUBCHEM_CACTVS_TAUTO_COUNT>  (1) 
1

>  <PUBCHEM_CONFORMER_ID>  (1) 
00001A6100000001

>  <PUBCHEM_MMFF94_ENERGY>  (1) 
129.666

>  <PUBCHEM_FEATURE_SELFOVERLAP>  (1) 
45.863

>  <PUBCHEM_SHAPE_FINGERPRINT>  (1) 
10608611 8 18336544911094181717
10967382 1 18266739073941118172
11680986 33 18338239254069891691
12553582 1 17619917153656149566
12730499 353 17321260109646132653
13140716 1 18410858733109649520
13380535 21 18337967717721317924
13380535 76 18336537253056437233
13897977 150 18410009905690345741
14614273 12 18334570265778576893
14648413 74 18337391517746159970
14790565 3 17760107485249253373
15042514 8 17761211420682327194
15309172 13 18410580616771282641
15490181 8 18337662006455029169
16945 1 18194404394224787501
18186145 218 18271811168430599948
18219364 16 18336832965929329769
193761 8 18410573959413601231
19591789 44 18338809991152422510
19868273 325 17401202773284249990
20510252 161 18126568057238645984
20588541 1 18120096074231146910
20645477 70 18191294984522514349
21041028 32 17186453343306272897
21160774 45 18049719917092780959
21501502 16 18411417306285557057
21524375 3 18335417976173872344
2334 1 18338517546591731068
23402539 116 17982442995032664862
23419403 2 15223156069149554217
23557571 272 17333104512387413396
23559900 14 18339068311870665712
238 59 17757233073679527677
2748010 2 18409453617178316676
31174 14 18048903809209371777
350125 39 18339090366306132720
352729 6 18339075024804225140
589210 1 18410013217220972211
63268167 104 17908699532216432889
7364860 26 18195806275929552340
7832392 63 17621029864024257901
81228 2 17834117824400273320

>  <PUBCHEM_SHAPE_MULTIPOLES>  (1) 
351.7
5
3.76
0.84
0.09
1.02
0.13
-1.96
0.12
-1.37
-0.01
0.71
-0.06
0.5

>  <PUBCHEM_SHAPE_SELFOVERLAP>  (1) 
746.241

>  <PUBCHEM_SHAPE_VOLUME>  (1) 
198.3

>  <PUBCHEM_COORDINATE_TYPE>  (1) 
2
5
10

$$$$
