6759
     RDKit          3D

 27 29  0  0  1  0  0  0  0  0999 V2000
    0.8006    2.0517   -1.5113 O   0  0  0  0  0  0  0  0  0  0  0  0
    2.9514    3.0039    0.0499 O   0  0  0  0  0  0  0  0  0  0  0  0
    4.2155   -0.3501   -0.6636 O   0  0  0  0  0  0  0  0  0  0  0  0
    6.2876    0.6001    0.9053 O   0  0  0  0  0  0  0  0  0  0  0  0
   -5.1081    0.4412   -0.2280 O   0  0  0  0  0  0  0  0  0  0  0  0
   -2.6282    4.2608    0.3914 O   0  0  0  0  0  0  0  0  0  0  0  0
   -0.3116    0.2155    0.3310 N   0  0  0  0  0  0  0  0  0  0  0  0
   -2.8361   -1.0050   -0.0741 N   0  0  0  0  0  0  0  0  0  0  0  0
   -1.4917    2.2892    0.3625 N   0  0  0  0  0  0  0  0  0  0  0  0
   -3.8705    2.3874    0.0845 N   0  0  0  0  0  0  0  0  0  0  0  0
    1.6522    1.1431   -0.8118 C   0  0  0  0  0  0  0  0  0  0  0  0
    1.0072    0.8113    0.5390 C   0  0  0  0  0  0  0  0  0  0  0  0
    3.0519    1.7722   -0.6635 C   0  0  0  0  0  0  0  0  0  0  0  0
    4.0495    0.8611    0.0765 C   0  0  0  0  0  0  0  0  0  0  0  0
   -0.3958   -1.1886    0.2047 C   0  0  0  0  0  0  0  0  0  0  0  0
   -1.4613    0.9932    0.2581 C   0  0  0  0  0  0  0  0  0  0  0  0
   -1.6633   -1.7723    0.0035 C   0  0  0  0  0  0  0  0  0  0  0  0
    0.7202   -2.0441    0.2683 C   0  0  0  0  0  0  0  0  0  0  0  0
   -2.7685    0.2816    0.0412 C   0  0  0  0  0  0  0  0  0  0  0  0
    5.4194    1.5165    0.2458 C   0  0  0  0  0  0  0  0  0  0  0  0
    0.5843   -3.4285    0.1367 C   0  0  0  0  0  0  0  0  0  0  0  0
   -1.7887   -3.1639   -0.1275 C   0  0  0  0  0  0  0  0  0  0  0  0
   -0.6704   -3.9890   -0.0614 C   0  0  0  0  0  0  0  0  0  0  0  0
   -4.0565    1.0322   -0.0518 C   0  0  0  0  0  0  0  0  0  0  0  0
    1.8048   -4.2868    0.2130 C   0  0  0  0  0  0  0  0  0  0  0  0
   -0.8440   -5.4650   -0.2034 C   0  0  0  0  0  0  0  0  0  0  0  0
   -2.6498    3.0324    0.2852 C   0  0  0  0  0  0  0  0  0  0  0  0
  1 11  1  0
  2 13  1  0
  3 14  1  0
  4 20  1  0
  5 24  2  0
  6 27  2  0
  7 12  1  0
  7 15  1  0
  7 16  1  0
  8 17  1  0
  8 19  2  0
  9 16  2  0
  9 27  1  0
 10 24  1  0
 10 27  1  0
 11 12  1  0
 11 13  1  0
 13 14  1  0
 14 20  1  0
 15 17  2  0
 15 18  1  0
 16 19  1  0
 17 22  1  0
 18 21  2  0
 19 24  1  0
 21 23  1  0
 21 25  1  0
 22 23  2  0
 23 26  1  0
M  END
>  <PUBCHEM_COMPOUND_CID>  (1) 
6759

>  <PUBCHEM_CONFORMER_RMSD>  (1) 
0.8

>  <PUBCHEM_CONFORMER_DIVERSEORDER>  (1) 
1
15
10
5
7
14
11
2
13
3
12
4
9
6
8

>  <PUBCHEM_MMFF94_PARTIAL_CHARGES>  (1) 
34
1 -0.68
10 -0.49
11 0.28
12 0.37
13 0.28
14 0.28
15 0.1
16 0.5
17 0.18
18 -0.15
19 0.45
2 -0.68
20 0.28
21 -0.14
22 -0.15
23 -0.14
24 0.63
25 0.14
26 0.14
27 0.84
3 -0.68
33 0.15
36 0.15
37 0.4
38 0.4
39 0.4
4 -0.68
46 0.37
47 0.4
5 -0.57
6 -0.57
7 -0.52
8 -0.63
9 -0.66

>  <PUBCHEM_EFFECTIVE_ROTOR_COUNT>  (1) 
5

>  <PUBCHEM_PHARMACOPHORE_FEATURES>  (1) 
16
1 1 acceptor
1 1 donor
1 10 donor
1 2 acceptor
1 2 donor
1 3 acceptor
1 3 donor
1 4 acceptor
1 4 donor
1 5 acceptor
1 6 acceptor
1 8 acceptor
1 9 donor
6 15 17 18 21 22 23 rings
6 7 8 15 16 17 19 rings
6 9 10 16 19 24 27 rings

>  <PUBCHEM_HEAVY_ATOM_COUNT>  (1) 
27

>  <PUBCHEM_ATOM_DEF_STEREO_COUNT>  (1) 
3

>  <PUBCHEM_ATOM_UDEF_STEREO_COUNT>  (1) 
0

>  <PUBCHEM_BOND_DEF_STEREO_COUNT>  (1) 
0

>  <PUBCHEM_BOND_UDEF_STEREO_COUNT>  (1) 
0

>  <PUBCHEM_ISOTOPIC_ATOM_COUNT>  (1) 
0

>  <PUBCHEM_COMPONENT_COUNT>  (1) 
1

>  <PUBCHEM_CACTVS_TAUTO_COUNT>  (1) 
3

>  <PUBCHEM_CONFORMER_ID>  (1) 
00001A6700000001

>  <PUBCHEM_MMFF94_ENERGY>  (1) 
79.2977

>  <PUBCHEM_FEATURE_SELFOVERLAP>  (1) 
81.324

>  <PUBCHEM_SHAPE_FINGERPRINT>  (1) 
10319926 262 18198888401388182992
10411042 1 17546444939404960482
10940486 97 18189625011333940036
1100329 8 17762625384246224491
11370993 70 18412263930597933084
11513181 2 18201717319456340254
12107183 9 18335408038553428050
12173636 292 18410853295565202996
12422481 6 17753877334559138096
12553582 1 17112429255568747318
12788726 201 17902245738353533502
13140716 1 18193283111550297611
13540713 5 17770210558769139905
138480 1 17545884832413329846
14790565 3 18267022765353133738
14844126 61 18192428791078884538
14866123 147 18410288159916786482
15042514 8 18193279821647800171
15081414 286 17044017092490537579
15230672 131 18336831871973575454
15664445 248 17408532740413042662
15927050 60 18413389817335628599
17818456 19 18263922301603364628
17913733 40 18269015119378109153
19591789 44 18194409012026995235
19930381 70 17977104552758403862
20101258 96 17327755392100891403
20775438 99 16472582775064207775
21478907 32 17762056944660220395
23366157 5 17899985932588887739
23558518 356 17900824065491969392
23559900 14 17691117141561944923
23598288 3 17899709134520332643
23728640 28 18337112387964134818
25147074 1 17842833323200493961
283562 15 18343302548799092689
3091708 16 9050542544374365987
3178227 256 18049176754919512179
352729 6 18264221355596114917
38695281 34 18410008801968237579
463206 1 17038665237197532962
532947 4 18196096547337311166
7364860 26 18121784924265425573
79837 15 18409456902817950387
9709674 26 18199196264158227806
9981440 41 18408888412710041321

>  <PUBCHEM_SHAPE_MULTIPOLES>  (1) 
500.51
8.56
6.56
0.78
10.24
7.25
0.1
-7.39
-0.69
-3.52
-0.09
0.36
-0.19
-0.5

>  <PUBCHEM_SHAPE_SELFOVERLAP>  (1) 
1073.473

>  <PUBCHEM_SHAPE_VOLUME>  (1) 
272.8

>  <PUBCHEM_COORDINATE_TYPE>  (1) 
2
5
10

$$$$
