6770
     RDKit          3D

 24 29  0  0  1  0  0  0  0  0999 V2000
   -4.7064    1.2942    0.3396 O   0  0  0  0  0  0  0  0  0  0  0  0
    4.8065   -2.0317    0.4705 O   0  0  0  0  0  0  0  0  0  0  0  0
   -5.9756   -0.7099   -0.0702 O   0  0  0  0  0  0  0  0  0  0  0  0
    5.9370   -0.0523   -0.3078 O   0  0  0  0  0  0  0  0  0  0  0  0
   -0.3334    1.3785   -0.1312 N   0  0  0  0  0  0  0  0  0  0  0  0
    0.3279    0.1677    0.4140 C   0  0  0  0  0  0  0  0  0  0  0  0
   -0.3642   -1.0629   -0.2239 C   0  0  0  0  0  0  0  0  0  0  0  0
    1.8403    0.1423    0.1900 C   0  0  0  0  0  0  0  0  0  0  0  0
    0.4049    2.5960    0.2138 C   0  0  0  0  0  0  0  0  0  0  0  0
   -1.7232    1.4691    0.3496 C   0  0  0  0  0  0  0  0  0  0  0  0
    1.7552    2.5829   -0.4968 C   0  0  0  0  0  0  0  0  0  0  0  0
   -1.8724   -1.0005   -0.1752 C   0  0  0  0  0  0  0  0  0  0  0  0
   -2.5189    0.2236    0.0691 C   0  0  0  0  0  0  0  0  0  0  0  0
    2.5223    1.3155   -0.2277 C   0  0  0  0  0  0  0  0  0  0  0  0
    2.5848   -1.0202    0.4638 C   0  0  0  0  0  0  0  0  0  0  0  0
   -3.9046    0.2197    0.0947 C   0  0  0  0  0  0  0  0  0  0  0  0
    3.9124    1.3033   -0.4310 C   0  0  0  0  0  0  0  0  0  0  0  0
   -2.6295   -2.1667   -0.4224 C   0  0  0  0  0  0  0  0  0  0  0  0
    3.9507   -0.9933    0.2649 C   0  0  0  0  0  0  0  0  0  0  0  0
    4.5959    0.1349   -0.1756 C   0  0  0  0  0  0  0  0  0  0  0  0
   -4.6333   -0.9250   -0.1369 C   0  0  0  0  0  0  0  0  0  0  0  0
   -4.0252   -2.1334   -0.4019 C   0  0  0  0  0  0  0  0  0  0  0  0
   -6.0143    0.6985    0.2324 C   0  0  0  0  0  0  0  0  0  0  0  0
    6.0631   -1.4302    0.0981 C   0  0  0  0  0  0  0  0  0  0  0  0
  1 16  1  0
  1 23  1  0
  2 19  1  0
  2 24  1  0
  3 21  1  0
  3 23  1  0
  4 20  1  0
  4 24  1  0
  5  6  1  0
  5  9  1  0
  5 10  1  0
  6  7  1  0
  6  8  1  0
  7 12  1  0
  8 14  2  0
  8 15  1  0
  9 11  1  0
 10 13  1  0
 11 14  1  0
 12 13  1  0
 12 18  2  0
 13 16  2  0
 14 17  1  0
 15 19  2  0
 16 21  1  0
 17 20  2  0
 18 22  1  0
 19 20  1  0
 21 22  2  0
M  END
>  <PUBCHEM_COMPOUND_CID>  (1) 
6770

>  <PUBCHEM_CONFORMER_RMSD>  (1) 
0.6

>  <PUBCHEM_CONFORMER_DIVERSEORDER>  (1) 
1
2
3
4
5

>  <PUBCHEM_MMFF94_PARTIAL_CHARGES>  (1) 
28
1 -0.36
10 0.41
11 0.14
12 -0.14
13 -0.14
14 -0.14
15 -0.15
16 0.08
17 -0.15
18 -0.15
19 0.08
2 -0.36
20 0.08
21 0.08
22 -0.15
23 0.56
24 0.56
3 -0.36
34 0.15
35 0.15
36 0.15
37 0.15
4 -0.36
5 -0.81
6 0.41
7 0.14
8 -0.14
9 0.27

>  <PUBCHEM_EFFECTIVE_ROTOR_COUNT>  (1) 
2

>  <PUBCHEM_PHARMACOPHORE_FEATURES>  (1) 
11
1 1 acceptor
1 2 acceptor
1 3 acceptor
1 4 acceptor
1 5 cation
5 1 3 16 21 23 rings
5 2 4 19 20 24 rings
6 12 13 16 18 21 22 rings
6 5 6 7 10 12 13 rings
6 5 6 8 9 11 14 rings
6 8 14 15 17 19 20 rings

>  <PUBCHEM_HEAVY_ATOM_COUNT>  (1) 
24

>  <PUBCHEM_ATOM_DEF_STEREO_COUNT>  (1) 
0

>  <PUBCHEM_ATOM_UDEF_STEREO_COUNT>  (1) 
1

>  <PUBCHEM_BOND_DEF_STEREO_COUNT>  (1) 
0

>  <PUBCHEM_BOND_UDEF_STEREO_COUNT>  (1) 
0

>  <PUBCHEM_ISOTOPIC_ATOM_COUNT>  (1) 
0

>  <PUBCHEM_COMPONENT_COUNT>  (1) 
1

>  <PUBCHEM_CACTVS_TAUTO_COUNT>  (1) 
1

>  <PUBCHEM_CONFORMER_ID>  (1) 
00001A7200000001

>  <PUBCHEM_MMFF94_ENERGY>  (1) 
65.0917

>  <PUBCHEM_FEATURE_SELFOVERLAP>  (1) 
56.199

>  <PUBCHEM_SHAPE_FINGERPRINT>  (1) 
10062212 137 18272649099623141303
10595046 47 18267022936898631005
10622 236 17843100757159274031
10906281 52 18338818752716901230
11135609 187 18044948020056039140
11315181 36 17775288278467235259
11524674 6 16774075163605473303
11578080 2 17273121634216249976
11796584 16 18060143162749317318
12107183 9 17833831564719303587
12166972 35 18201719582829667185
12236239 1 18409168813612520488
12516196 113 18272930531397003832
12553582 1 18263346062609686058
12788726 201 17988096537852459992
13140716 1 18341614871284922265
13167823 11 18410009974457470575
13862211 1 18412261731305515727
14251764 18 18343305881708934211
14341114 176 18410578409015251811
14420673 8 18410859832611201623
15042514 8 18194961838568510840
15099037 51 18411419510052166383
15183329 4 18410009931686957415
15188451 53 15840974690034761591
15196674 1 18410856606900319077
15352361 1 18410855460555501190
15788980 27 18335142011655968275
15927050 60 17766558337296503372
16087824 20 18265615386513152149
17349148 13 17917994996912427405
17492 89 18122342651792439691
17857418 61 18412261740000860882
1813 80 17458058279075653020
18681886 176 18272082842202023746
19141452 34 18342174479347735231
19489759 90 16415482636509481339
200 152 18413388739297999136
20028762 73 18273210911036358678
20612939 158 18186804724467531293
20832881 197 18408604768469007712
21033648 29 17168408450892889173
21236236 1 18340486656444039049
21267235 1 18410018715100805938
21279426 13 18336825282348563765
21792934 111 18340192012659639032
221357 26 18260260850056410397
221490 88 18190747637678630362
22950370 63 18409448089819267630
23402539 116 18343578538453167607
23522609 53 18192462759775651596
23559900 14 18270392905546404329
25147074 1 18338535070364909952
3004659 81 18333450937435142182
335352 9 18411699877175371237
3411729 13 17559382764375556096
345986 75 18189600666994601968
34797466 226 17274829082261201488
350125 39 18410575067483690433
3680242 22 18338525144357437283
4017518 198 17275107215242037758
4073 2 18042127720831736474
4214541 1 18411418427767906461
4463277 17 18410575089295812248
46194498 28 17240483654159593916
465052 167 18341056288785947670
5104073 3 18271529805243904323
559249 180 18412543193866816407
59755656 215 18342181012294121382
59755656 520 17095524002383206499
6138700 20 18409731716300644266
6328613 192 18409733979769625293
633830 44 17458622384480635097
67856867 119 18340485694160283720
7226269 152 17632018551089514793
8863177 126 17896615070625536163
9709674 26 18119248608580389427
9981440 41 17256242073425645048
999808 66 17967828167119632795

>  <PUBCHEM_SHAPE_MULTIPOLES>  (1) 
465.45
13.89
2.45
0.69
0.27
0.5
0
-4.73
-0.05
-0.41
0.14
-0.07
0
-0.97

>  <PUBCHEM_SHAPE_SELFOVERLAP>  (1) 
1066.255

>  <PUBCHEM_SHAPE_VOLUME>  (1) 
239.6

>  <PUBCHEM_COORDINATE_TYPE>  (1) 
2
5
10

$$$$
