6771
     RDKit          3D

 18 20  0  0  0  0  0  0  0  0999 V2000
    4.7882    1.5308    0.0013 Cl  0  0  0  0  0  0  0  0  0  0  0  0
   -0.5199   -2.5921    0.0017 O   0  0  0  0  0  0  0  0  0  0  0  0
   -0.3744    2.7498   -0.0008 O   0  0  0  0  0  0  0  0  0  0  0  0
    2.0826   -2.7806   -0.0012 N   0  0  0  0  0  0  0  0  0  0  0  0
    0.8320   -0.6454   -0.0006 C   0  0  0  0  0  0  0  0  0  0  0  0
    0.8598    0.7508   -0.0004 C   0  0  0  0  0  0  0  0  0  0  0  0
   -1.7135   -0.5948   -0.0003 C   0  0  0  0  0  0  0  0  0  0  0  0
   -1.6858    0.8014   -0.0004 C   0  0  0  0  0  0  0  0  0  0  0  0
   -0.4557   -1.3692   -0.0003 C   0  0  0  0  0  0  0  0  0  0  0  0
   -0.3981    1.5252   -0.0006 C   0  0  0  0  0  0  0  0  0  0  0  0
    2.0314   -1.3676   -0.0005 C   0  0  0  0  0  0  0  0  0  0  0  0
    2.0869    1.4247    0.0003 C   0  0  0  0  0  0  0  0  0  0  0  0
   -2.9407   -1.2687    0.0001 C   0  0  0  0  0  0  0  0  0  0  0  0
   -2.8852    1.5236    0.0000 C   0  0  0  0  0  0  0  0  0  0  0  0
    3.2520   -0.6921    0.0001 C   0  0  0  0  0  0  0  0  0  0  0  0
    3.2798    0.7011    0.0005 C   0  0  0  0  0  0  0  0  0  0  0  0
   -4.1335   -0.5452    0.0007 C   0  0  0  0  0  0  0  0  0  0  0  0
   -4.1059    0.8481    0.0006 C   0  0  0  0  0  0  0  0  0  0  0  0
  1 16  1  0
  2  9  2  0
  3 10  2  0
  4 11  1  0
  5  6  2  0
  5  9  1  0
  5 11  1  0
  6 10  1  0
  6 12  1  0
  7  8  2  0
  7  9  1  0
  7 13  1  0
  8 10  1  0
  8 14  1  0
 11 15  2  0
 12 16  2  0
 13 17  2  0
 14 18  2  0
 15 16  1  0
 17 18  1  0
M  END
>  <PUBCHEM_COMPOUND_CID>  (1) 
6771

>  <PUBCHEM_CONFORMER_RMSD>  (1) 
0.4

>  <PUBCHEM_CONFORMER_DIVERSEORDER>  (1) 
1

>  <PUBCHEM_MMFF94_PARTIAL_CHARGES>  (1) 
26
1 -0.18
10 0.4
11 0.1
12 -0.15
13 -0.15
14 -0.15
15 -0.15
16 0.18
17 -0.15
18 -0.15
19 0.15
2 -0.57
20 0.15
21 0.15
22 0.15
23 0.15
24 0.15
25 0.4
26 0.4
3 -0.57
4 -0.9
5 0.09
6 0.09
7 0.09
8 0.09
9 0.4

>  <PUBCHEM_EFFECTIVE_ROTOR_COUNT>  (1) 
0

>  <PUBCHEM_PHARMACOPHORE_FEATURES>  (1) 
7
1 2 acceptor
1 3 acceptor
1 4 cation
1 4 donor
6 5 6 11 12 15 16 rings
6 5 6 7 8 9 10 rings
6 7 8 13 14 17 18 rings

>  <PUBCHEM_HEAVY_ATOM_COUNT>  (1) 
18

>  <PUBCHEM_ATOM_DEF_STEREO_COUNT>  (1) 
0

>  <PUBCHEM_ATOM_UDEF_STEREO_COUNT>  (1) 
0

>  <PUBCHEM_BOND_DEF_STEREO_COUNT>  (1) 
0

>  <PUBCHEM_BOND_UDEF_STEREO_COUNT>  (1) 
0

>  <PUBCHEM_ISOTOPIC_ATOM_COUNT>  (1) 
0

>  <PUBCHEM_COMPONENT_COUNT>  (1) 
1

>  <PUBCHEM_CACTVS_TAUTO_COUNT>  (1) 
4

>  <PUBCHEM_CONFORMER_ID>  (1) 
00001A7300000001

>  <PUBCHEM_MMFF94_ENERGY>  (1) 
65.2003

>  <PUBCHEM_FEATURE_SELFOVERLAP>  (1) 
35.562

>  <PUBCHEM_SHAPE_FINGERPRINT>  (1) 
10411042 1 16897646789314239303
10608611 8 18337388245139491765
10616163 171 18338519762694914887
10967382 1 18410856546776058151
10980938 120 18409730659859729442
11132069 177 18411414016382955849
11471102 20 18410852157324698084
11578080 2 17024859356559869470
12403814 3 17530957020793664453
13132413 78 18340487858544070373
13140716 1 18265902354319511107
13221675 6 18411136965185493798
13380535 76 18409166644912784730
138480 1 17978228258132520266
14790565 3 18338527455155980452
15196674 1 18410856551055129735
15230672 131 13579320520714933155
15442244 35 18123189000376874738
15536298 74 18342740689292038926
16945 1 18194401314975881351
18186145 218 18341619152823951805
193761 8 17834113048365004421
19591789 44 18267024040615457642
200 152 18131061663231154813
20510252 161 18343867697026553417
20645477 70 18342455894284782647
20739085 24 18120402894052925793
21029758 11 18270958050613287385
21267235 1 18410865347159071719
21421861 104 17970342620571741482
21501502 16 18268431239336812624
221490 88 18337399231639753506
2334 1 18410855464697494147
23366157 5 18041565720224466042
23402539 116 18270954747445365700
23402655 69 18343015580189503493
23463225 33 18409449150602232765
23559900 14 18196928877760817770
2748010 2 18410294687992243495
335352 9 17906171750615174005
34934 24 18411412921387750447
350125 39 18265897956589562664
4409770 3 16239547277036019918
474 4 17458913768168632364
5104073 3 18410012117545639634
537710 114 18410298025023901701
53812653 166 18342454871887263760
58051976 378 18411698781399872788
69090 78 18412822512300413583
7364860 26 18341613655820045110
9709674 26 18410860962034548230

>  <PUBCHEM_SHAPE_MULTIPOLES>  (1) 
355.58
7.37
2.6
0.6
0.83
0.63
0
-1.87
0
0.62
0
0.01
-0.02
0

>  <PUBCHEM_SHAPE_SELFOVERLAP>  (1) 
795.761

>  <PUBCHEM_SHAPE_VOLUME>  (1) 
190

>  <PUBCHEM_COORDINATE_TYPE>  (1) 
2
5
10

$$$$
