6776
     RDKit          3D

 18 20  0  0  0  0  0  0  0  0999 V2000
   -0.3515   -2.6490   -0.0013 O   0  0  0  0  0  0  0  0  0  0  0  0
    0.3512    2.6492   -0.0021 O   0  0  0  0  0  0  0  0  0  0  0  0
   -5.0118   -0.7236    0.0017 O   0  0  0  0  0  0  0  0  0  0  0  0
    5.0117    0.7235    0.0021 O   0  0  0  0  0  0  0  0  0  0  0  0
   -1.3538   -0.5248   -0.0003 C   0  0  0  0  0  0  0  0  0  0  0  0
    1.3538    0.5248   -0.0003 C   0  0  0  0  0  0  0  0  0  0  0  0
   -1.1701    0.8596   -0.0004 C   0  0  0  0  0  0  0  0  0  0  0  0
    1.1702   -0.8596   -0.0006 C   0  0  0  0  0  0  0  0  0  0  0  0
   -0.1904   -1.4349   -0.0003 C   0  0  0  0  0  0  0  0  0  0  0  0
    0.1904    1.4349   -0.0005 C   0  0  0  0  0  0  0  0  0  0  0  0
   -2.6485   -1.0573    0.0000 C   0  0  0  0  0  0  0  0  0  0  0  0
    2.6486    1.0573    0.0004 C   0  0  0  0  0  0  0  0  0  0  0  0
   -2.2813    1.7114    0.0000 C   0  0  0  0  0  0  0  0  0  0  0  0
    2.2813   -1.7114   -0.0005 C   0  0  0  0  0  0  0  0  0  0  0  0
   -3.7531   -0.2049    0.0006 C   0  0  0  0  0  0  0  0  0  0  0  0
    3.7531    0.2048    0.0007 C   0  0  0  0  0  0  0  0  0  0  0  0
   -3.5698    1.1765    0.0006 C   0  0  0  0  0  0  0  0  0  0  0  0
    3.5698   -1.1765    0.0002 C   0  0  0  0  0  0  0  0  0  0  0  0
  1  9  2  0
  2 10  2  0
  3 15  1  0
  4 16  1  0
  5  7  2  0
  5  9  1  0
  5 11  1  0
  6  8  2  0
  6 10  1  0
  6 12  1  0
  7 10  1  0
  7 13  1  0
  8  9  1  0
  8 14  1  0
 11 15  2  0
 12 16  2  0
 13 17  2  0
 14 18  2  0
 15 17  1  0
 16 18  1  0
M  END
>  <PUBCHEM_COMPOUND_CID>  (1) 
6776

>  <PUBCHEM_CONFORMER_RMSD>  (1) 
0.4

>  <PUBCHEM_CONFORMER_DIVERSEORDER>  (1) 
1

>  <PUBCHEM_MMFF94_PARTIAL_CHARGES>  (1) 
26
1 -0.57
10 0.4
11 -0.15
12 -0.15
13 -0.15
14 -0.15
15 0.08
16 0.08
17 -0.15
18 -0.15
19 0.15
2 -0.57
20 0.15
21 0.15
22 0.15
23 0.15
24 0.15
25 0.45
26 0.45
3 -0.53
4 -0.53
5 0.09
6 0.09
7 0.09
8 0.09
9 0.4

>  <PUBCHEM_EFFECTIVE_ROTOR_COUNT>  (1) 
0

>  <PUBCHEM_PHARMACOPHORE_FEATURES>  (1) 
7
1 1 acceptor
1 2 acceptor
1 3 donor
1 4 donor
6 5 6 7 8 9 10 rings
6 5 7 11 13 15 17 rings
6 6 8 12 14 16 18 rings

>  <PUBCHEM_HEAVY_ATOM_COUNT>  (1) 
18

>  <PUBCHEM_ATOM_DEF_STEREO_COUNT>  (1) 
0

>  <PUBCHEM_ATOM_UDEF_STEREO_COUNT>  (1) 
0

>  <PUBCHEM_BOND_DEF_STEREO_COUNT>  (1) 
0

>  <PUBCHEM_BOND_UDEF_STEREO_COUNT>  (1) 
0

>  <PUBCHEM_ISOTOPIC_ATOM_COUNT>  (1) 
0

>  <PUBCHEM_COMPONENT_COUNT>  (1) 
1

>  <PUBCHEM_CACTVS_TAUTO_COUNT>  (1) 
15

>  <PUBCHEM_CONFORMER_ID>  (1) 
00001A7800000001

>  <PUBCHEM_MMFF94_ENERGY>  (1) 
51.9308

>  <PUBCHEM_FEATURE_SELFOVERLAP>  (1) 
35.562

>  <PUBCHEM_SHAPE_FINGERPRINT>  (1) 
10411042 1 15384437207411997957
10608611 8 18338232669906145356
10967382 1 18410575097563850534
11132069 177 18411133606536938128
11471102 20 18410289207434710190
11680986 33 18121499325956756121
11806522 49 18410572907573641343
12011746 2 18410575101842948406
12032990 46 18411422773800049879
12403814 3 17603300457774108389
13140716 1 17978229683644268929
13221675 6 18410573998052320206
13380535 76 18411139147282464518
13862211 1 18410849979750314339
14790565 3 18410583910858652972
15196674 1 18410575041713405957
15230672 131 13146976043298681723
15442244 35 18050285873565825770
15536298 74 18342739577022155270
16945 1 18266459995371470854
18186145 218 18339083666283660636
18522853 276 18412263939076915993
193761 8 17906453586057887751
19591789 44 18338797818851446535
200 152 18202274806621900989
20028762 73 18057888142180444751
20510252 161 18272089353293466192
21029758 11 18342172284772648569
21029758 27 18187935018241903645
21267235 1 18410865351548952086
221490 88 18191590967819623011
2334 1 18410855447243259911
23402539 116 18343012307160601966
23402655 69 18342170029940919285
23463225 33 18336547127244279516
23559900 14 18125153832557559910
2748010 2 18410855421473456271
2871803 45 18335415738654160271
335352 9 18410575110432883135
34934 24 18410567392440208670
350125 39 18410296930366637713
43471831 8 18263078829665654546
474 4 17241336914143570868
5104073 3 18338797814550627282
537710 114 18409735070880897740
53812653 166 18342453755396129424
69090 78 18342454858949692159
7364860 26 18269272537578797528
8809292 202 18187932828172547275
9709674 26 18411424994425255710

>  <PUBCHEM_SHAPE_MULTIPOLES>  (1) 
346.95
7.76
2.24
0.6
0
0
0
0
-0.01
0
0
0
0
0

>  <PUBCHEM_SHAPE_SELFOVERLAP>  (1) 
787.961

>  <PUBCHEM_SHAPE_VOLUME>  (1) 
179.5

>  <PUBCHEM_COORDINATE_TYPE>  (1) 
2
5
10

$$$$
