6778
     RDKit          3D

 24 26  0  0  0  0  0  0  0  0999 V2000
    2.4226    0.6399    0.4518 O   0  0  0  0  0  0  0  0  0  0  0  0
   -2.0307    0.2393    0.6397 O   0  0  0  0  0  0  0  0  0  0  0  0
    0.8538   -0.1662   -1.0730 O   0  0  0  0  0  0  0  0  0  0  0  0
   -1.9432    0.5950   -1.6628 O   0  0  0  0  0  0  0  0  0  0  0  0
    0.5700    1.9814   -0.0765 C   0  0  0  0  0  0  0  0  0  0  0  0
   -0.8183    2.0781   -0.1726 C   0  0  0  0  0  0  0  0  0  0  0  0
    1.3267    3.1076    0.2476 C   0  0  0  0  0  0  0  0  0  0  0  0
   -1.4497    3.3009    0.0555 C   0  0  0  0  0  0  0  0  0  0  0  0
    1.2587    0.7185   -0.3081 C   0  0  0  0  0  0  0  0  0  0  0  0
   -1.6363    0.9201   -0.5088 C   0  0  0  0  0  0  0  0  0  0  0  0
    0.6951    4.3303    0.4756 C   0  0  0  0  0  0  0  0  0  0  0  0
   -0.6930    4.4270    0.3795 C   0  0  0  0  0  0  0  0  0  0  0  0
    3.1364   -0.5490    0.2790 C   0  0  0  0  0  0  0  0  0  0  0  0
   -2.8208   -0.8864    0.3916 C   0  0  0  0  0  0  0  0  0  0  0  0
    4.0976   -0.6059   -0.7054 C   0  0  0  0  0  0  0  0  0  0  0  0
   -2.2007   -2.1024    0.2104 C   0  0  0  0  0  0  0  0  0  0  0  0
    2.8501   -1.6169    1.0997 C   0  0  0  0  0  0  0  0  0  0  0  0
   -4.1884   -0.7349    0.3376 C   0  0  0  0  0  0  0  0  0  0  0  0
    4.8096   -1.7928   -0.8784 C   0  0  0  0  0  0  0  0  0  0  0  0
   -2.9893   -3.2257   -0.0380 C   0  0  0  0  0  0  0  0  0  0  0  0
    3.5622   -2.8039    0.9268 C   0  0  0  0  0  0  0  0  0  0  0  0
   -4.9770   -1.8583    0.0893 C   0  0  0  0  0  0  0  0  0  0  0  0
    4.5420   -2.8917   -0.0622 C   0  0  0  0  0  0  0  0  0  0  0  0
   -4.3774   -3.1038   -0.0985 C   0  0  0  0  0  0  0  0  0  0  0  0
  1  9  1  0
  1 13  1  0
  2 10  1  0
  2 14  1  0
  3  9  2  0
  4 10  2  0
  5  6  1  0
  5  7  2  0
  5  9  1  0
  6  8  2  0
  6 10  1  0
  7 11  1  0
  8 12  1  0
 11 12  2  0
 13 15  2  0
 13 17  1  0
 14 16  2  0
 14 18  1  0
 15 19  1  0
 16 20  1  0
 17 21  2  0
 18 22  2  0
 19 23  2  0
 20 24  2  0
 21 23  1  0
 22 24  1  0
M  END
>  <PUBCHEM_COMPOUND_CID>  (1) 
6778

>  <PUBCHEM_CONFORMER_RMSD>  (1) 
0.8

>  <PUBCHEM_CONFORMER_DIVERSEORDER>  (1) 
1
119
112
71
118
69
116
89
81
18
108
74
131
45
31
28
132
33
67
127
107
128
125
4
3
83
113
109
41
9
14
79
24
133
80
43
100
5
97
124
21
82
134
30
25
105
114
48
73
57
61
7
59
68
90
52
96
88
32
122
53
55
15
56
117
26
101
103
93
99
98
94
86
65
104
63
36
8
58
40
126
2
91
13
121
72
77
64
106
49
85
84
44
102
50
29
78
70
22
95
20
37
27
51
12
87
17
62
110
42
76
47
111
130
16
6
123
120
115
11
54
35
66
75
92
129
39
38
46
19
10
23
60
34

>  <PUBCHEM_MMFF94_PARTIAL_CHARGES>  (1) 
38
1 -0.23
10 0.63
11 -0.15
12 -0.15
13 0.08
14 0.08
15 -0.15
16 -0.15
17 -0.15
18 -0.15
19 -0.15
2 -0.23
20 -0.15
21 -0.15
22 -0.15
23 -0.15
24 -0.15
25 0.15
26 0.15
27 0.15
28 0.15
29 0.15
3 -0.57
30 0.15
31 0.15
32 0.15
33 0.15
34 0.15
35 0.15
36 0.15
37 0.15
38 0.15
4 -0.57
5 0.09
6 0.09
7 -0.15
8 -0.15
9 0.63

>  <PUBCHEM_EFFECTIVE_ROTOR_COUNT>  (1) 
6

>  <PUBCHEM_PHARMACOPHORE_FEATURES>  (1) 
5
1 3 acceptor
1 4 acceptor
6 13 15 17 19 21 23 rings
6 14 16 18 20 22 24 rings
6 5 6 7 8 11 12 rings

>  <PUBCHEM_HEAVY_ATOM_COUNT>  (1) 
24

>  <PUBCHEM_ATOM_DEF_STEREO_COUNT>  (1) 
0

>  <PUBCHEM_ATOM_UDEF_STEREO_COUNT>  (1) 
0

>  <PUBCHEM_BOND_DEF_STEREO_COUNT>  (1) 
0

>  <PUBCHEM_BOND_UDEF_STEREO_COUNT>  (1) 
0

>  <PUBCHEM_ISOTOPIC_ATOM_COUNT>  (1) 
0

>  <PUBCHEM_COMPONENT_COUNT>  (1) 
1

>  <PUBCHEM_CACTVS_TAUTO_COUNT>  (1) 
1

>  <PUBCHEM_CONFORMER_ID>  (1) 
00001A7A00000001

>  <PUBCHEM_MMFF94_ENERGY>  (1) 
91.1339

>  <PUBCHEM_FEATURE_SELFOVERLAP>  (1) 
25.374

>  <PUBCHEM_SHAPE_FINGERPRINT>  (1) 
10411042 1 18411139142739746255
10616163 171 18122064196156450718
107951 10 17478335227670021388
1100329 8 18339365154678809129
11036077 51 17690277110356768400
11056379 131 18124046637169624502
114674 6 17973157610751833114
11552529 35 18191866726168372038
12107183 9 18270415944758068307
12128747 34 15407554704597891955
12293681 25 18120902183943024805
12553582 1 18410007732384438851
12633257 1 18271542943823324571
12788726 201 18262243201028946626
12969540 37 18120372313500227638
12990986 174 18337946775940954354
13004483 165 18410567358127975795
13140716 1 18270961224525794384
13533116 47 18122627425678456603
13631057 29 18408890603670999430
13785724 45 18341629126303087103
138480 1 14951810145661939787
13955234 65 17908992350396893177
14251757 5 18191305979111180429
14787075 74 18188777287715430124
14844126 61 18119527639609829002
14863182 85 17831020500171734780
14866123 147 18196092136653512833
15042514 8 18195251022668632969
15230672 131 17112704692386839126
15250474 111 17900540074034546130
15352361 1 18410293626909065602
15422964 175 18339348781635482400
20291156 8 18408603664747074682
20602899 9 17394143457589081444
20832881 197 18334295379619191547
21133410 62 15888241887080829190
22849339 104 17836946507225911414
23559900 14 18268424823299211723
23728640 28 17905327325474292312
23845131 108 16611939311016303641
3027735 51 17838042715981586287
3091708 16 9281046369544832993
314173 41 18338240469540478547
3421961 26 18267867366155365737
4409770 3 18118684314582065197
463206 1 18261960742331087059
5309563 4 18412262852266184543
613672 6 18267280136557069902
6443956 14 18264205979602691145
7097593 13 18125442157832709671
79837 15 17691969263015143888
9981440 41 17256813286954107664

>  <PUBCHEM_SHAPE_MULTIPOLES>  (1) 
470.43
9.13
5.9
0.94
1
5.29
-0.11
-13.11
-0.25
-0.84
0.96
0.34
-0.14
0

>  <PUBCHEM_SHAPE_SELFOVERLAP>  (1) 
1035.444

>  <PUBCHEM_SHAPE_VOLUME>  (1) 
250.4

>  <PUBCHEM_COORDINATE_TYPE>  (1) 
2
5
10

$$$$
