6786
     RDKit          3D

 24 24  0  0  0  0  0  0  0  0999 V2000
    0.6561    1.8318    0.8151 O   0  0  0  0  0  0  0  0  0  0  0  0
    1.1260   -1.6204    0.5317 O   0  0  0  0  0  0  0  0  0  0  0  0
    2.2661    0.9159    2.1820 O   0  0  0  0  0  0  0  0  0  0  0  0
    3.2863   -2.3503    0.8473 O   0  0  0  0  0  0  0  0  0  0  0  0
   -2.2332    1.9780    0.5895 C   0  0  0  0  0  0  0  0  0  0  0  0
   -1.5292   -2.7150    0.0813 C   0  0  0  0  0  0  0  0  0  0  0  0
   -3.5047    2.6462    0.0588 C   0  0  0  0  0  0  0  0  0  0  0  0
   -3.0548   -2.5863    0.1120 C   0  0  0  0  0  0  0  0  0  0  0  0
   -1.3875    2.8952    1.4715 C   0  0  0  0  0  0  0  0  0  0  0  0
   -0.8794   -2.5702    1.4564 C   0  0  0  0  0  0  0  0  0  0  0  0
   -4.3636    1.7204   -0.8036 C   0  0  0  0  0  0  0  0  0  0  0  0
   -3.7070   -2.7558   -1.2607 C   0  0  0  0  0  0  0  0  0  0  0  0
   -0.1196    2.1988    1.9477 C   0  0  0  0  0  0  0  0  0  0  0  0
    0.6378   -2.6724    1.3710 C   0  0  0  0  0  0  0  0  0  0  0  0
   -5.5744    2.4508   -1.3644 C   0  0  0  0  0  0  0  0  0  0  0  0
   -5.2121   -2.5475   -1.1885 C   0  0  0  0  0  0  0  0  0  0  0  0
    2.5438    0.8674   -0.1856 C   0  0  0  0  0  0  0  0  0  0  0  0
    2.8480   -0.4509   -0.5256 C   0  0  0  0  0  0  0  0  0  0  0  0
    1.8310    1.1939    1.0753 C   0  0  0  0  0  0  0  0  0  0  0  0
    2.4789   -1.5611    0.3429 C   0  0  0  0  0  0  0  0  0  0  0  0
    2.9097    1.9095   -1.0376 C   0  0  0  0  0  0  0  0  0  0  0  0
    3.5180   -0.7268   -1.7176 C   0  0  0  0  0  0  0  0  0  0  0  0
    3.5797    1.6334   -2.2295 C   0  0  0  0  0  0  0  0  0  0  0  0
    3.8839    0.3154   -2.5695 C   0  0  0  0  0  0  0  0  0  0  0  0
  1 13  1  0
  1 19  1  0
  2 14  1  0
  2 20  1  0
  3 19  2  0
  4 20  2  0
  5  7  1  0
  5  9  1  0
  6  8  1  0
  6 10  1  0
  7 11  1  0
  8 12  1  0
  9 13  1  0
 10 14  1  0
 11 15  1  0
 12 16  1  0
 17 18  2  0
 17 19  1  0
 17 21  1  0
 18 20  1  0
 18 22  1  0
 21 23  2  0
 22 24  2  0
 23 24  1  0
M  END
>  <PUBCHEM_COMPOUND_CID>  (1) 
6786

>  <PUBCHEM_CONFORMER_RMSD>  (1) 
1.4

>  <PUBCHEM_CONFORMER_DIVERSEORDER>  (1) 
1
4
11
34
14
52
42
30
6
44
38
26
46
13
3
25
20
2
40
39
36
24
27
32
33
45
22
18
8
35
47
31
49
5
16
37
43
10
50
48
21
29
19
15
17
12
23
28
41
7
9
51

>  <PUBCHEM_MMFF94_PARTIAL_CHARGES>  (1) 
18
1 -0.43
13 0.28
14 0.28
17 0.09
18 0.09
19 0.63
2 -0.43
20 0.63
21 -0.15
22 -0.15
23 -0.15
24 -0.15
3 -0.57
4 -0.57
51 0.15
52 0.15
53 0.15
54 0.15

>  <PUBCHEM_EFFECTIVE_ROTOR_COUNT>  (1) 
14

>  <PUBCHEM_PHARMACOPHORE_FEATURES>  (1) 
7
1 15 hydrophobe
1 16 hydrophobe
1 3 acceptor
1 4 acceptor
4 5 7 9 11 hydrophobe
4 6 8 10 12 hydrophobe
6 17 18 21 22 23 24 rings

>  <PUBCHEM_HEAVY_ATOM_COUNT>  (1) 
24

>  <PUBCHEM_ATOM_DEF_STEREO_COUNT>  (1) 
0

>  <PUBCHEM_ATOM_UDEF_STEREO_COUNT>  (1) 
0

>  <PUBCHEM_BOND_DEF_STEREO_COUNT>  (1) 
0

>  <PUBCHEM_BOND_UDEF_STEREO_COUNT>  (1) 
0

>  <PUBCHEM_ISOTOPIC_ATOM_COUNT>  (1) 
0

>  <PUBCHEM_COMPONENT_COUNT>  (1) 
1

>  <PUBCHEM_CACTVS_TAUTO_COUNT>  (1) 
1

>  <PUBCHEM_CONFORMER_ID>  (1) 
00001A8200000001

>  <PUBCHEM_MMFF94_ENERGY>  (1) 
38.3166

>  <PUBCHEM_FEATURE_SELFOVERLAP>  (1) 
35.523

>  <PUBCHEM_SHAPE_FINGERPRINT>  (1) 
10498660 4 17899701455140302518
10764073 3 17980161311765085874
108634 29 18201427095387666193
12788726 201 18118119401806925165
13617811 41 18115568419563513125
13947920 24 17537734569597642596
14400156 266 18335709309082157966
14537116 161 18271231812598797143
15210252 30 17898853723216981485
17138139 8 18271515412924792789
17357779 13 17911258400505877834
21304303 282 17678465392601550912
21304303 94 18127138459281825925
238 59 18043825177310719241
238918 7 17265513112837487737
24941158 1 15912182395764899899
3052486 1 18335411383309350648
3060560 45 17969233226551543620
338550 245 18261945268000762273
463206 1 18269260280380224009

>  <PUBCHEM_SHAPE_MULTIPOLES>  (1) 
470.43
9.72
4.78
2.24
8.98
1.13
-0.36
-1.2
-7.63
5.63
0.87
-1.58
-0.63
-1.14

>  <PUBCHEM_SHAPE_SELFOVERLAP>  (1) 
931.414

>  <PUBCHEM_SHAPE_VOLUME>  (1) 
279.9

>  <PUBCHEM_COORDINATE_TYPE>  (1) 
2
5
10

$$$$
