6792
     RDKit          3D

 15 16  0  0  0  0  0  0  0  0999 V2000
   -2.5669   -0.0678   -0.0798 S   0  0  0  0  0  0  0  0  0  0  0  0
   -2.8229   -0.7148    1.3967 O   0  0  0  0  0  0  0  0  0  0  0  0
    2.9432    2.0271    0.0384 O   0  0  0  0  0  0  0  0  0  0  0  0
   -3.4178    1.1041   -0.1899 O   0  0  0  0  0  0  0  0  0  0  0  0
   -2.6282   -1.1336   -1.0633 O   0  0  0  0  0  0  0  0  0  0  0  0
    2.5848   -0.7021    0.0256 N   0  0  0  0  0  0  0  0  0  0  0  0
    0.1955   -0.3922   -0.0245 C   0  0  0  0  0  0  0  0  0  0  0  0
   -0.9006    0.4869   -0.0462 C   0  0  0  0  0  0  0  0  0  0  0  0
    1.5126    0.1121    0.0041 C   0  0  0  0  0  0  0  0  0  0  0  0
   -0.6992    1.8641   -0.0397 C   0  0  0  0  0  0  0  0  0  0  0  0
    1.6849    1.4936    0.0098 C   0  0  0  0  0  0  0  0  0  0  0  0
    0.0215   -1.7826   -0.0303 C   0  0  0  0  0  0  0  0  0  0  0  0
    0.5953    2.3677   -0.0118 C   0  0  0  0  0  0  0  0  0  0  0  0
    1.1242   -2.6242   -0.0083 C   0  0  0  0  0  0  0  0  0  0  0  0
    2.3735   -2.0382    0.0190 C   0  0  0  0  0  0  0  0  0  0  0  0
  1  2  1  0
  1  4  2  0
  1  5  2  0
  1  8  1  0
  3 11  1  0
  6  9  2  0
  6 15  1  0
  7  8  1  0
  7  9  1  0
  7 12  2  0
  8 10  2  0
  9 11  1  0
 10 13  1  0
 11 13  2  0
 12 14  1  0
 14 15  2  0
M  END
>  <PUBCHEM_COMPOUND_CID>  (1) 
6792

>  <PUBCHEM_CONFORMER_RMSD>  (1) 
0.4

>  <PUBCHEM_CONFORMER_DIVERSEORDER>  (1) 
1
2
3

>  <PUBCHEM_MMFF94_PARTIAL_CHARGES>  (1) 
21
1 1.49
10 -0.15
11 0.08
12 -0.15
13 -0.15
14 -0.15
15 0.16
16 0.15
17 0.15
18 0.15
19 0.15
2 -0.68
20 0.15
21 0.5
22 0.45
3 -0.53
4 -0.65
5 -0.65
6 -0.62
8 -0.01
9 0.31

>  <PUBCHEM_EFFECTIVE_ROTOR_COUNT>  (1) 
1

>  <PUBCHEM_PHARMACOPHORE_FEATURES>  (1) 
8
1 2 acceptor
1 3 donor
1 4 acceptor
1 5 acceptor
1 6 acceptor
4 1 2 4 5 anion
6 6 7 9 12 14 15 rings
6 7 8 9 10 11 13 rings

>  <PUBCHEM_HEAVY_ATOM_COUNT>  (1) 
15

>  <PUBCHEM_ATOM_DEF_STEREO_COUNT>  (1) 
0

>  <PUBCHEM_ATOM_UDEF_STEREO_COUNT>  (1) 
0

>  <PUBCHEM_BOND_DEF_STEREO_COUNT>  (1) 
0

>  <PUBCHEM_BOND_UDEF_STEREO_COUNT>  (1) 
0

>  <PUBCHEM_ISOTOPIC_ATOM_COUNT>  (1) 
0

>  <PUBCHEM_COMPONENT_COUNT>  (1) 
1

>  <PUBCHEM_CACTVS_TAUTO_COUNT>  (1) 
3

>  <PUBCHEM_CONFORMER_ID>  (1) 
00001A8800000001

>  <PUBCHEM_MMFF94_ENERGY>  (1) 
38.3078

>  <PUBCHEM_FEATURE_SELFOVERLAP>  (1) 
40.683

>  <PUBCHEM_SHAPE_FINGERPRINT>  (1) 
10967382 1 18410854364922063876
11471102 20 18337666417470864333
11471102 22 18263379095303204787
12423570 1 15015104335784513140
13140716 1 18410854343436678257
13380535 76 18194675097866650922
14251717 144 18339632425807710183
14648413 74 18335420127942126601
15219456 202 18261116283377969129
15309172 13 18194125341736459881
15775835 57 18201162173441832549
16945 1 18339923705978447078
17990270 104 18408319960703072707
193761 8 18122623855932788740
19591789 44 18193568984932416630
20201158 50 18263079920829635347
20645477 70 18411411805102572135
20871998 184 17551221870449647262
21501502 16 18411413999519610741
22721475 48 18194124010238322351
2334 1 18338796826718710756
23388829 49 18341037528574305930
23526114 1 18411414033615416751
23552423 10 18410852148861377045
23559900 14 14957997110578097766
2748010 2 18409443674503411580
2897 32 18339077210773806349
54173680 148 17185314244949371490
63268167 104 18342739654173324129
7364860 26 18341891857725467688
81228 2 17618506476016157202
8809292 202 18115596920000585403

>  <PUBCHEM_SHAPE_MULTIPOLES>  (1) 
284.08
4.35
2.86
0.75
2.16
0.22
-0.08
-0.38
-0.08
-1.72
0.05
0.43
-0.17
0.04

>  <PUBCHEM_SHAPE_SELFOVERLAP>  (1) 
612.74

>  <PUBCHEM_SHAPE_VOLUME>  (1) 
156.9

>  <PUBCHEM_COORDINATE_TYPE>  (1) 
2
5
10

$$$$
