6795
     RDKit          3D

 14 16  0  0  0  0  0  0  0  0999 V2000
    1.3674    0.7839   -0.2098 N   0  0  0  0  0  0  0  0  0  0  0  0
   -1.3673    0.7842    0.2094 N   0  0  0  0  0  0  0  0  0  0  0  0
    0.5905    2.0095   -0.4686 C   0  0  0  0  0  0  0  0  0  0  0  0
   -0.5901    2.0096    0.4677 C   0  0  0  0  0  0  0  0  0  0  0  0
    0.7338   -0.4009    0.0147 C   0  0  0  0  0  0  0  0  0  0  0  0
   -0.7337   -0.4007   -0.0159 C   0  0  0  0  0  0  0  0  0  0  0  0
    2.7175    0.8648   -0.2225 C   0  0  0  0  0  0  0  0  0  0  0  0
   -2.7174    0.8647    0.2239 C   0  0  0  0  0  0  0  0  0  0  0  0
    1.5114   -1.5459    0.2574 C   0  0  0  0  0  0  0  0  0  0  0  0
   -1.5117   -1.5457   -0.2584 C   0  0  0  0  0  0  0  0  0  0  0  0
    3.5097   -0.2476    0.0094 C   0  0  0  0  0  0  0  0  0  0  0  0
   -3.5099   -0.2476   -0.0075 C   0  0  0  0  0  0  0  0  0  0  0  0
    2.8986   -1.4643    0.2550 C   0  0  0  0  0  0  0  0  0  0  0  0
   -2.8989   -1.4640   -0.2547 C   0  0  0  0  0  0  0  0  0  0  0  0
  1  3  1  0
  1  5  2  0
  1  7  1  0
  2  4  1  0
  2  6  2  0
  2  8  1  0
  3  4  1  0
  5  6  1  0
  5  9  1  0
  6 10  1  0
  7 11  2  0
  8 12  2  0
  9 13  2  0
 10 14  2  0
 11 13  1  0
 12 14  1  0
M  CHG  2   1   1   2   1
M  END
>  <PUBCHEM_COMPOUND_CID>  (1) 
6795

>  <PUBCHEM_CONFORMER_RMSD>  (1) 
0.4

>  <PUBCHEM_CONFORMER_DIVERSEORDER>  (1) 
1
2

>  <PUBCHEM_MMFF94_PARTIAL_CHARGES>  (1) 
22
1 -0.21
10 -0.15
11 -0.15
12 -0.15
13 -0.15
14 -0.15
19 0.15
2 -0.21
20 0.15
21 0.15
22 0.15
23 0.15
24 0.15
25 0.15
26 0.15
3 0.49
4 0.49
5 0.36
6 0.36
7 0.21
8 0.21
9 -0.15

>  <PUBCHEM_EFFECTIVE_ROTOR_COUNT>  (1) 
0.4

>  <PUBCHEM_PHARMACOPHORE_FEATURES>  (1) 
3
6 1 2 3 4 5 6 rings
6 1 5 7 9 11 13 rings
6 2 6 8 10 12 14 rings

>  <PUBCHEM_HEAVY_ATOM_COUNT>  (1) 
14

>  <PUBCHEM_ATOM_DEF_STEREO_COUNT>  (1) 
0

>  <PUBCHEM_ATOM_UDEF_STEREO_COUNT>  (1) 
0

>  <PUBCHEM_BOND_DEF_STEREO_COUNT>  (1) 
0

>  <PUBCHEM_BOND_UDEF_STEREO_COUNT>  (1) 
0

>  <PUBCHEM_ISOTOPIC_ATOM_COUNT>  (1) 
0

>  <PUBCHEM_COMPONENT_COUNT>  (1) 
1

>  <PUBCHEM_CACTVS_TAUTO_COUNT>  (1) 
1

>  <PUBCHEM_CONFORMER_ID>  (1) 
00001A8B00000001

>  <PUBCHEM_MMFF94_ENERGY>  (1) 
45.272

>  <PUBCHEM_FEATURE_SELFOVERLAP>  (1) 
15.285

>  <PUBCHEM_SHAPE_FINGERPRINT>  (1) 
10130415 120 18409164415713819539
10967382 1 18266458891601870510
11132069 177 18412537691739267378
11471102 20 18336259128412745479
11769659 78 18410568487593494146
11806522 49 18267579302598700127
12032990 46 18410862061493207555
12382932 28 18342457019317969330
13221675 6 18410577283686522862
14144814 61 18411138034711647243
14325111 11 18410856559639822048
14993402 34 18412543202134906863
15196674 1 18410856559639828551
15375462 189 18335706048204577747
15442244 35 18266741264501247626
15536298 74 18343302600132432376
16945 1 18410857659151612228
17844478 74 17749114378778044589
200 152 18271794740375586015
20201158 50 18334856142759155603
20510252 161 18059012757173842032
20559304 39 18338801233344600462
20871998 184 18130785607785766543
21267235 1 18410583885051536131
21501502 16 18410857654867025544
21501925 9 18410282636234935170
22445834 79 18337111172314368603
2334 1 18410575114738607370
23388829 49 18411138056202327452
23402539 116 18271795796457499391
23463225 33 18410012117635426454
23552423 10 18192713573280515925
23559900 14 18272082752629949194
2748010 2 17041483813051759535
3312278 4 18409733984079975099
34934 24 18410846668330119872
5104073 3 18411138038932736435
528886 8 18410569604432684330
53812654 25 18272643562919569207
57096353 35 18337955713329820302
63268167 104 18408042926738389825
7364860 26 18198621236129334208
8809292 202 18187932823455749203

>  <PUBCHEM_SHAPE_MULTIPOLES>  (1) 
278.15
5.44
2.08
0.67
0
0.42
0
-1.49
0
0
0
0
0.04
-0.43

>  <PUBCHEM_SHAPE_SELFOVERLAP>  (1) 
615.342

>  <PUBCHEM_SHAPE_VOLUME>  (1) 
147

>  <PUBCHEM_COORDINATE_TYPE>  (1) 
2
5
10

$$$$
