6806
     RDKit          3D

 16 16  0  0  0  0  0  0  0  0999 V2000
    0.1116    2.7371   -0.5395 I   0  0  0  0  0  0  0  0  0  0  0  0
    2.2131   -3.0096   -0.3102 I   0  0  0  0  0  0  0  0  0  0  0  0
   -3.6136   -2.0293    0.4220 I   0  0  0  0  0  0  0  0  0  0  0  0
   -2.8605    1.5144    1.2656 O   0  0  0  0  0  0  0  0  0  0  0  0
    2.9931    0.6360    1.5682 O   0  0  0  0  0  0  0  0  0  0  0  0
   -3.3256    1.4331   -0.9578 O   0  0  0  0  0  0  0  0  0  0  0  0
    2.1619    0.2430   -0.6010 N   0  0  0  0  0  0  0  0  0  0  0  0
    0.8642   -0.2366   -0.3739 C   0  0  0  0  0  0  0  0  0  0  0  0
   -0.2123    0.6477   -0.3031 C   0  0  0  0  0  0  0  0  0  0  0  0
   -1.5002    0.1618   -0.0769 C   0  0  0  0  0  0  0  0  0  0  0  0
    0.6526   -1.6066   -0.2185 C   0  0  0  0  0  0  0  0  0  0  0  0
   -1.7117   -1.2081    0.0785 C   0  0  0  0  0  0  0  0  0  0  0  0
   -0.6353   -2.0923    0.0077 C   0  0  0  0  0  0  0  0  0  0  0  0
    3.1097    0.6362    0.3469 C   0  0  0  0  0  0  0  0  0  0  0  0
   -2.6368    1.0804   -0.0015 C   0  0  0  0  0  0  0  0  0  0  0  0
    4.3900    1.0928   -0.3064 C   0  0  0  0  0  0  0  0  0  0  0  0
  1  9  1  0
  2 11  1  0
  3 12  1  0
  4 15  1  0
  5 14  2  0
  6 15  2  0
  7  8  1  0
  7 14  1  0
  8  9  2  0
  8 11  1  0
  9 10  1  0
 10 12  2  0
 10 15  1  0
 11 13  2  0
 12 13  1  0
 14 16  1  0
M  END
>  <PUBCHEM_COMPOUND_CID>  (1) 
6806

>  <PUBCHEM_CONFORMER_RMSD>  (1) 
0.6

>  <PUBCHEM_CONFORMER_DIVERSEORDER>  (1) 
2
1

>  <PUBCHEM_MMFF94_PARTIAL_CHARGES>  (1) 
19
1 -0.08
10 0.09
11 0.08
12 0.08
13 -0.15
14 0.57
15 0.63
16 0.06
17 0.15
18 0.37
2 -0.08
22 0.5
3 -0.08
4 -0.65
5 -0.57
6 -0.57
7 -0.55
8 0.12
9 0.08

>  <PUBCHEM_EFFECTIVE_ROTOR_COUNT>  (1) 
3

>  <PUBCHEM_PHARMACOPHORE_FEATURES>  (1) 
9
1 1 hydrophobe
1 2 hydrophobe
1 3 hydrophobe
1 4 acceptor
1 5 acceptor
1 6 acceptor
1 7 donor
3 4 6 15 anion
6 8 9 10 11 12 13 rings

>  <PUBCHEM_HEAVY_ATOM_COUNT>  (1) 
16

>  <PUBCHEM_ATOM_DEF_STEREO_COUNT>  (1) 
0

>  <PUBCHEM_ATOM_UDEF_STEREO_COUNT>  (1) 
0

>  <PUBCHEM_BOND_DEF_STEREO_COUNT>  (1) 
0

>  <PUBCHEM_BOND_UDEF_STEREO_COUNT>  (1) 
0

>  <PUBCHEM_ISOTOPIC_ATOM_COUNT>  (1) 
0

>  <PUBCHEM_COMPONENT_COUNT>  (1) 
1

>  <PUBCHEM_CACTVS_TAUTO_COUNT>  (1) 
2

>  <PUBCHEM_CONFORMER_ID>  (1) 
00001A9600000002

>  <PUBCHEM_MMFF94_ENERGY>  (1) 
72.6329

>  <PUBCHEM_FEATURE_SELFOVERLAP>  (1) 
45.728

>  <PUBCHEM_SHAPE_FINGERPRINT>  (1) 
10967382 1 18337674100787425294
11132069 177 18408316692481191948
11680986 33 18338237055162875551
12382932 28 18335699425175096424
13140716 1 18265340508130960923
13380535 21 18339651048564482758
13380535 76 18410285891651509343
14178342 30 18411706478096960985
14614273 12 18333445456867163679
15219456 202 18412266107951342270
15536298 74 18341896247018923286
16945 1 18265902538919046359
18186145 218 18271251495262503284
20510252 161 18199190766019840136
21501502 16 18340768148036122942
21524375 3 18271516516541438110
22182313 1 18411428288865580151
2334 1 18410015424892515983
23366157 5 18041566836863514366
23388829 49 18267862976762333135
23402539 116 18268986664787515695
23493267 7 16590861217549612757
23559900 14 18338795598959697862
23598294 1 18262507204268087968
2748010 2 18338525148826633823
350125 39 18193284215594743493
43471831 8 18408038537593569346
53812653 166 18343022194075044896
7364860 26 18199185084131944486
81228 2 18262252109123401723
90316 7 18042103449840008712

>  <PUBCHEM_SHAPE_MULTIPOLES>  (1) 
342.49
6.36
3.5
0.97
1.16
0.79
-0.21
-0.06
-0.95
0.05
0.48
0.1
-0.22
0.45

>  <PUBCHEM_SHAPE_SELFOVERLAP>  (1) 
651.018

>  <PUBCHEM_SHAPE_VOLUME>  (1) 
218.8

>  <PUBCHEM_COORDINATE_TYPE>  (1) 
2
5
10

$$$$
