6808
     RDKit          3D

 11 12  0  0  1  0  0  0  0  0999 V2000
    2.5892   -1.3727   -0.1084 O   0  0  0  0  0  0  0  0  0  0  0  0
    0.2087    2.5052    0.5930 O   0  0  0  0  0  0  0  0  0  0  0  0
    1.6772    0.7090    0.4032 N   0  0  0  0  0  0  0  0  0  0  0  0
    0.2673   -0.8395   -0.6097 C   0  0  0  0  0  0  0  0  0  0  0  0
   -0.2749    0.5792   -0.8339 C   0  0  0  0  0  0  0  0  0  0  0  0
   -0.4728   -1.6598    0.4593 C   0  0  0  0  0  0  0  0  0  0  0  0
   -1.7887    0.7483   -0.7618 C   0  0  0  0  0  0  0  0  0  0  0  0
    1.6712   -0.5668   -0.1125 C   0  0  0  0  0  0  0  0  0  0  0  0
    0.5157    1.4065    0.1586 C   0  0  0  0  0  0  0  0  0  0  0  0
   -1.9033   -1.2905    0.6773 C   0  0  0  0  0  0  0  0  0  0  0  0
   -2.4896   -0.2189    0.1348 C   0  0  0  0  0  0  0  0  0  0  0  0
  1  8  2  0
  2  9  2  0
  3  8  1  0
  3  9  1  0
  4  5  1  0
  4  6  1  0
  4  8  1  0
  5  7  1  0
  5  9  1  0
  6 10  1  0
  7 11  1  0
 10 11  2  0
M  END
>  <PUBCHEM_COMPOUND_CID>  (1) 
6808

>  <PUBCHEM_CONFORMER_RMSD>  (1) 
0.4

>  <PUBCHEM_CONFORMER_DIVERSEORDER>  (1) 
1
2
3

>  <PUBCHEM_MMFF94_PARTIAL_CHARGES>  (1) 
14
1 -0.57
10 -0.29
11 -0.29
18 0.37
19 0.15
2 -0.57
20 0.15
3 -0.49
4 0.06
5 0.06
6 0.14
7 0.14
8 0.57
9 0.57

>  <PUBCHEM_EFFECTIVE_ROTOR_COUNT>  (1) 
0.6

>  <PUBCHEM_PHARMACOPHORE_FEATURES>  (1) 
5
1 1 acceptor
1 2 acceptor
1 3 donor
5 3 4 5 8 9 rings
6 4 5 6 7 10 11 rings

>  <PUBCHEM_HEAVY_ATOM_COUNT>  (1) 
11

>  <PUBCHEM_ATOM_DEF_STEREO_COUNT>  (1) 
0

>  <PUBCHEM_ATOM_UDEF_STEREO_COUNT>  (1) 
2

>  <PUBCHEM_BOND_DEF_STEREO_COUNT>  (1) 
0

>  <PUBCHEM_BOND_UDEF_STEREO_COUNT>  (1) 
0

>  <PUBCHEM_ISOTOPIC_ATOM_COUNT>  (1) 
0

>  <PUBCHEM_COMPONENT_COUNT>  (1) 
1

>  <PUBCHEM_CACTVS_TAUTO_COUNT>  (1) 
5

>  <PUBCHEM_CONFORMER_ID>  (1) 
00001A9800000001

>  <PUBCHEM_MMFF94_ENERGY>  (1) 
17.3426

>  <PUBCHEM_FEATURE_SELFOVERLAP>  (1) 
25.55

>  <PUBCHEM_SHAPE_FINGERPRINT>  (1) 
12423570 1 17097789966882391351
13024252 1 12685963345298755718
16945 1 18123189262406614547
18185500 45 15382172212604087783
21040471 1 16896529182234351692
21922407 69 17057824076549259287
23552423 10 17822295716332994246
241688 4 18268710519674990457
2748010 2 18410288116449570628
29004967 10 18342737420690005858
5084963 1 18041000674015521127

>  <PUBCHEM_SHAPE_MULTIPOLES>  (1) 
209.66
2.88
2.02
0.86
0.19
0.59
0.06
-0.87
-0.15
-0.34
-0.41
0.14
0.08
0.46

>  <PUBCHEM_SHAPE_SELFOVERLAP>  (1) 
447.457

>  <PUBCHEM_SHAPE_VOLUME>  (1) 
116

>  <PUBCHEM_COORDINATE_TYPE>  (1) 
2
5
10

$$$$
