6813
     RDKit          3D

 17 18  0  0  0  0  0  0  0  0999 V2000
    0.3595   -0.1115    2.3234 O   0  0  0  0  0  0  0  0  0  0  0  0
   -1.8250   -2.5102   -1.2185 O   0  0  0  0  0  0  0  0  0  0  0  0
   -0.6464   -2.4067    0.7223 O   0  0  0  0  0  0  0  0  0  0  0  0
   -0.9906    0.5275    0.4943 C   0  0  0  0  0  0  0  0  0  0  0  0
   -1.7653   -0.4566   -0.0954 C   0  0  0  0  0  0  0  0  0  0  0  0
    0.3043    0.1898    1.1211 C   0  0  0  0  0  0  0  0  0  0  0  0
    1.5371    0.2165    0.3507 C   0  0  0  0  0  0  0  0  0  0  0  0
   -1.3980    1.8512    0.5183 C   0  0  0  0  0  0  0  0  0  0  0  0
   -2.9835   -0.1075   -0.6785 C   0  0  0  0  0  0  0  0  0  0  0  0
    1.5065    0.5522   -1.0030 C   0  0  0  0  0  0  0  0  0  0  0  0
    2.7506   -0.0930    0.9651 C   0  0  0  0  0  0  0  0  0  0  0  0
   -2.6162    2.2001   -0.0651 C   0  0  0  0  0  0  0  0  0  0  0  0
   -3.4088    1.2209   -0.6634 C   0  0  0  0  0  0  0  0  0  0  0  0
    2.6891    0.5781   -1.7422 C   0  0  0  0  0  0  0  0  0  0  0  0
    3.9332   -0.0669    0.2258 C   0  0  0  0  0  0  0  0  0  0  0  0
   -1.3489   -1.8525   -0.1271 C   0  0  0  0  0  0  0  0  0  0  0  0
    3.9024    0.2686   -1.1278 C   0  0  0  0  0  0  0  0  0  0  0  0
  1  6  2  0
  2 16  1  0
  3 16  2  0
  4  5  2  0
  4  6  1  0
  4  8  1  0
  5  9  1  0
  5 16  1  0
  6  7  1  0
  7 10  2  0
  7 11  1  0
  8 12  2  0
  9 13  2  0
 10 14  1  0
 11 15  2  0
 12 13  1  0
 14 17  2  0
 15 17  1  0
M  END
>  <PUBCHEM_COMPOUND_CID>  (1) 
6813

>  <PUBCHEM_CONFORMER_RMSD>  (1) 
0.6

>  <PUBCHEM_CONFORMER_DIVERSEORDER>  (1) 
1
2

>  <PUBCHEM_MMFF94_PARTIAL_CHARGES>  (1) 
27
1 -0.57
10 -0.15
11 -0.15
12 -0.15
13 -0.15
14 -0.15
15 -0.15
16 0.63
17 -0.15
18 0.15
19 0.15
2 -0.65
20 0.15
21 0.15
22 0.15
23 0.15
24 0.15
25 0.15
26 0.15
27 0.5
3 -0.57
4 0.09
5 0.09
6 0.4
7 0.09
8 -0.15
9 -0.15

>  <PUBCHEM_EFFECTIVE_ROTOR_COUNT>  (1) 
3

>  <PUBCHEM_PHARMACOPHORE_FEATURES>  (1) 
6
1 1 acceptor
1 2 acceptor
1 3 acceptor
3 2 3 16 anion
6 4 5 8 9 12 13 rings
6 7 10 11 14 15 17 rings

>  <PUBCHEM_HEAVY_ATOM_COUNT>  (1) 
17

>  <PUBCHEM_ATOM_DEF_STEREO_COUNT>  (1) 
0

>  <PUBCHEM_ATOM_UDEF_STEREO_COUNT>  (1) 
0

>  <PUBCHEM_BOND_DEF_STEREO_COUNT>  (1) 
0

>  <PUBCHEM_BOND_UDEF_STEREO_COUNT>  (1) 
0

>  <PUBCHEM_ISOTOPIC_ATOM_COUNT>  (1) 
0

>  <PUBCHEM_COMPONENT_COUNT>  (1) 
1

>  <PUBCHEM_CACTVS_TAUTO_COUNT>  (1) 
1

>  <PUBCHEM_CONFORMER_ID>  (1) 
00001A9D00000001

>  <PUBCHEM_MMFF94_ENERGY>  (1) 
60.6927

>  <PUBCHEM_FEATURE_SELFOVERLAP>  (1) 
30.505

>  <PUBCHEM_SHAPE_FINGERPRINT>  (1) 
11370993 70 18343015554556927830
11640471 11 18040718047803023876
12138202 97 18272652328990005590
12202030 40 17202485678632615678
12236239 1 17895188879025670761
12491281 212 18041007240999391644
12500047 106 18342173332949994444
12592029 89 18116442448826814435
14817 1 14505363396516622771
15207287 21 17203032024347887894
15342168 16 15430620444330082686
15375358 24 17418366996129250552
15502708 8 18340770450296407487
15775835 57 17676490527250693860
15852999 172 18059299747173163494
15906896 17 17896056445397752299
16752209 62 18337375115820022375
16945 1 18202004321691008137
18186145 218 17845936225568404232
18534176 82 18131353015952229012
19868273 293 18408604755547013356
20201158 50 17060338517791797028
20279233 1 17561363985253688414
20645476 183 18040150712798776099
20871999 31 18340768251362706053
21524375 3 18041563520763341137
22802520 49 18058728142707529611
23402539 116 18271513226343509373
23419403 2 16772090665323492067
23526113 38 17203599393901856034
23557571 272 18127404768644793728
23559900 14 18130781245011460938
27216 239 13262681507840155518
2748010 2 17910658084590136803
298252 57 18262238811466621641
430814 3 17895195454799682801
474 4 17241616194260332404
74978 22 18261680358591937372
77492 1 17894903014618673056
81228 2 18268988872547989651
8272917 22 16734382686837620745
90525 40 18260550000250364111
9981440 41 17320429312404468152

>  <PUBCHEM_SHAPE_MULTIPOLES>  (1) 
332.24
6.07
2.02
1.49
3.54
0.98
-0.21
-1.66
1.97
-2.17
0.24
0.75
0.06
-0.57

>  <PUBCHEM_SHAPE_SELFOVERLAP>  (1) 
729.142

>  <PUBCHEM_SHAPE_VOLUME>  (1) 
178.7

>  <PUBCHEM_COORDINATE_TYPE>  (1) 
2
5
10

$$$$
