6815
     RDKit          3D

 28 29  0  0  0  0  0  0  0  0999 V2000
   -3.9969   -1.5082   -1.9443 O   0  0  0  0  0  0  0  0  0  0  0  0
    5.0915   -0.8248   -0.1142 O   0  0  0  0  0  0  0  0  0  0  0  0
    0.1183    1.8459   -0.0232 C   0  0  0  0  0  0  0  0  0  0  0  0
   -0.9909    0.9432   -0.5551 C   0  0  0  0  0  0  0  0  0  0  0  0
    1.4665    1.1370   -0.0502 C   0  0  0  0  0  0  0  0  0  0  0  0
   -0.2215    2.4844    1.3483 C   0  0  0  0  0  0  0  0  0  0  0  0
   -3.5051   -1.4525    0.8694 C   0  0  0  0  0  0  0  0  0  0  0  0
    2.7449   -2.3616    0.4273 C   0  0  0  0  0  0  0  0  0  0  0  0
   -2.7248   -0.6371   -0.1085 C   0  0  0  0  0  0  0  0  0  0  0  0
    2.7119   -0.8912    0.1688 C   0  0  0  0  0  0  0  0  0  0  0  0
   -1.7060    0.1947    0.3563 C   0  0  0  0  0  0  0  0  0  0  0  0
    1.4881   -0.2223    0.1892 C   0  0  0  0  0  0  0  0  0  0  0  0
   -1.2473    0.8987   -1.9088 C   0  0  0  0  0  0  0  0  0  0  0  0
    2.6155    1.8556   -0.3089 C   0  0  0  0  0  0  0  0  0  0  0  0
   -1.4796    3.3602    1.2977 C   0  0  0  0  0  0  0  0  0  0  0  0
   -3.0050   -0.7009   -1.4735 C   0  0  0  0  0  0  0  0  0  0  0  0
    3.8877   -0.1867   -0.0905 C   0  0  0  0  0  0  0  0  0  0  0  0
   -2.2661    0.0669   -2.3738 C   0  0  0  0  0  0  0  0  0  0  0  0
    3.8395    1.1867   -0.3294 C   0  0  0  0  0  0  0  0  0  0  0  0
   -3.0083   -1.2114    2.3278 C   0  0  0  0  0  0  0  0  0  0  0  0
   -3.3672   -2.9767    0.5697 C   0  0  0  0  0  0  0  0  0  0  0  0
   -5.0431   -1.1703    0.8997 C   0  0  0  0  0  0  0  0  0  0  0  0
    1.3127   -2.9200    0.6902 C   0  0  0  0  0  0  0  0  0  0  0  0
    3.6180   -2.6954    1.6756 C   0  0  0  0  0  0  0  0  0  0  0  0
    3.3264   -3.2327   -0.7343 C   0  0  0  0  0  0  0  0  0  0  0  0
   -0.4702    1.7114   -2.8915 C   0  0  0  0  0  0  0  0  0  0  0  0
    2.5888    3.3261   -0.5678 C   0  0  0  0  0  0  0  0  0  0  0  0
   -1.7776    3.9809    2.6540 C   0  0  0  0  0  0  0  0  0  0  0  0
  1 16  1  0
  2 17  1  0
  3  4  1  0
  3  5  1  0
  3  6  1  0
  4 11  1  0
  4 13  2  0
  5 12  1  0
  5 14  2  0
  6 15  1  0
  7  9  1  0
  7 20  1  0
  7 21  1  0
  7 22  1  0
  8 10  1  0
  8 23  1  0
  8 24  1  0
  8 25  1  0
  9 11  2  0
  9 16  1  0
 10 12  2  0
 10 17  1  0
 13 18  1  0
 13 26  1  0
 14 19  1  0
 14 27  1  0
 15 28  1  0
 16 18  2  0
 17 19  2  0
M  END
>  <PUBCHEM_COMPOUND_CID>  (1) 
6815

>  <PUBCHEM_CONFORMER_RMSD>  (1) 
0.8

>  <PUBCHEM_CONFORMER_DIVERSEORDER>  (1) 
1
4
5
3
2

>  <PUBCHEM_MMFF94_PARTIAL_CHARGES>  (1) 
25
1 -0.53
10 -0.14
11 -0.15
12 -0.15
13 -0.14
14 -0.14
16 0.08
17 0.08
18 -0.15
19 -0.15
2 -0.53
26 0.14
27 0.14
3 0.29
32 0.15
33 0.15
36 0.15
37 0.15
4 -0.14
5 -0.14
65 0.45
66 0.45
7 0.14
8 0.14
9 -0.14

>  <PUBCHEM_EFFECTIVE_ROTOR_COUNT>  (1) 
6

>  <PUBCHEM_PHARMACOPHORE_FEATURES>  (1) 
7
1 1 donor
1 2 donor
1 28 hydrophobe
4 7 20 21 22 hydrophobe
4 8 23 24 25 hydrophobe
6 4 9 11 13 16 18 rings
6 5 10 12 14 17 19 rings

>  <PUBCHEM_HEAVY_ATOM_COUNT>  (1) 
28

>  <PUBCHEM_ATOM_DEF_STEREO_COUNT>  (1) 
0

>  <PUBCHEM_ATOM_UDEF_STEREO_COUNT>  (1) 
0

>  <PUBCHEM_BOND_DEF_STEREO_COUNT>  (1) 
0

>  <PUBCHEM_BOND_UDEF_STEREO_COUNT>  (1) 
0

>  <PUBCHEM_ISOTOPIC_ATOM_COUNT>  (1) 
0

>  <PUBCHEM_COMPONENT_COUNT>  (1) 
1

>  <PUBCHEM_CACTVS_TAUTO_COUNT>  (1) 
44

>  <PUBCHEM_CONFORMER_ID>  (1) 
00001A9F00000001

>  <PUBCHEM_MMFF94_ENERGY>  (1) 
125.2569

>  <PUBCHEM_FEATURE_SELFOVERLAP>  (1) 
35.522

>  <PUBCHEM_SHAPE_FINGERPRINT>  (1) 
10064457 181 17472428019719081341
10675989 125 16602906226109708364
10764073 3 15875350559688950169
12156800 1 16968080554590152595
12506688 2 18335984263153417339
12553582 1 18272364287003297142
12596602 18 17202766049929520243
12788726 201 18058444314384575289
13140716 1 18122062272195413578
13402501 40 17968099788550017298
13533116 47 18196653124139819123
13544653 18 18262241130901682213
13583140 156 17911246332507716459
13692114 37 17340985382665954385
13911987 19 18048878790946296780
14178342 30 18267581317560906592
14251757 17 17604137177838970083
15274700 242 15736008296034705586
15403338 16 18270693090165177091
20775530 9 18188487969733311278
21285901 2 17604699092916438839
21421861 104 18269576990740798617
23557571 272 17022897982281661063
23559900 14 17531515560073908276
23598288 3 18059586732398294448
238 59 18046312435900789678
345986 75 18342452630267497203
392239 28 17986367079819704528
46194498 28 17025711761782070679
463206 1 18268701895407624911
5486654 36 18119543041552553618
57527585 103 17609787400675425843
6669772 16 18193002741419451644
7097593 13 18195264229782992696
7399639 24 17897434215146054884
9709674 26 18041825251522074511

>  <PUBCHEM_SHAPE_MULTIPOLES>  (1) 
564.49
8.24
4.55
2.26
1.05
1.37
-0.53
-6.04
0.8
1.09
2.36
-2.32
1.15
-1.15

>  <PUBCHEM_SHAPE_SELFOVERLAP>  (1) 
1186.597

>  <PUBCHEM_SHAPE_VOLUME>  (1) 
322.9

>  <PUBCHEM_COORDINATE_TYPE>  (1) 
2
5
10

$$$$
