6821
     RDKit          3D

 19 20  0  0  0  0  0  0  0  0999 V2000
   -0.2933    0.2966   -1.9796 O   0  0  0  0  0  0  0  0  0  0  0  0
   -2.6920   -2.6569    0.9453 O   0  0  0  0  0  0  0  0  0  0  0  0
   -1.3238   -2.2448   -0.8223 O   0  0  0  0  0  0  0  0  0  0  0  0
    0.5579    0.3890    0.2050 N   0  0  0  0  0  0  0  0  0  0  0  0
    1.9521    0.2365    0.0060 C   0  0  0  0  0  0  0  0  0  0  0  0
   -1.8103    0.6129   -0.2447 C   0  0  0  0  0  0  0  0  0  0  0  0
    4.1695    0.0911    0.9059 C   0  0  0  0  0  0  0  0  0  0  0  0
    2.7968    0.2416    1.1027 C   0  0  0  0  0  0  0  0  0  0  0  0
   -2.6143   -0.4660    0.1234 C   0  0  0  0  0  0  0  0  0  0  0  0
   -0.4608    0.4115   -0.7562 C   0  0  0  0  0  0  0  0  0  0  0  0
    2.4379    0.0854   -1.2814 C   0  0  0  0  0  0  0  0  0  0  0  0
   -2.2940    1.9158   -0.1261 C   0  0  0  0  0  0  0  0  0  0  0  0
    4.6764   -0.0623   -0.3845 C   0  0  0  0  0  0  0  0  0  0  0  0
    3.8106   -0.0653   -1.4781 C   0  0  0  0  0  0  0  0  0  0  0  0
   -3.9022   -0.2419    0.6098 C   0  0  0  0  0  0  0  0  0  0  0  0
    5.0950    0.0946    2.0752 C   0  0  0  0  0  0  0  0  0  0  0  0
   -3.5820    2.1399    0.3604 C   0  0  0  0  0  0  0  0  0  0  0  0
   -4.3860    1.0610    0.7281 C   0  0  0  0  0  0  0  0  0  0  0  0
   -2.1374   -1.8384    0.0113 C   0  0  0  0  0  0  0  0  0  0  0  0
  1 10  2  0
  2 19  1  0
  3 19  2  0
  4  5  1  0
  4 10  1  0
  5  8  1  0
  5 11  2  0
  6  9  2  0
  6 10  1  0
  6 12  1  0
  7  8  2  0
  7 13  1  0
  7 16  1  0
  9 15  1  0
  9 19  1  0
 11 14  1  0
 12 17  2  0
 13 14  2  0
 15 18  2  0
 17 18  1  0
M  END
>  <PUBCHEM_COMPOUND_CID>  (1) 
6821

>  <PUBCHEM_CONFORMER_RMSD>  (1) 
0.6

>  <PUBCHEM_CONFORMER_DIVERSEORDER>  (1) 
1
15
9
24
12
26
21
10
8
11
4
13
6
27
30
19
2
23
7
29
14
20
5
16
28
18
25
22
17
3

>  <PUBCHEM_MMFF94_PARTIAL_CHARGES>  (1) 
29
1 -0.57
10 0.54
11 -0.15
12 -0.15
13 -0.15
14 -0.15
15 -0.15
16 0.14
17 -0.15
18 -0.15
19 0.63
2 -0.65
20 0.15
21 0.37
22 0.15
23 0.15
24 0.15
25 0.15
26 0.15
27 0.15
3 -0.57
31 0.15
32 0.5
4 -0.55
5 0.12
6 0.09
7 -0.14
8 -0.15
9 0.09

>  <PUBCHEM_EFFECTIVE_ROTOR_COUNT>  (1) 
4

>  <PUBCHEM_PHARMACOPHORE_FEATURES>  (1) 
7
1 1 acceptor
1 2 acceptor
1 3 acceptor
1 4 donor
3 2 3 19 anion
6 5 7 8 11 13 14 rings
6 6 9 12 15 17 18 rings

>  <PUBCHEM_HEAVY_ATOM_COUNT>  (1) 
19

>  <PUBCHEM_ATOM_DEF_STEREO_COUNT>  (1) 
0

>  <PUBCHEM_ATOM_UDEF_STEREO_COUNT>  (1) 
0

>  <PUBCHEM_BOND_DEF_STEREO_COUNT>  (1) 
0

>  <PUBCHEM_BOND_UDEF_STEREO_COUNT>  (1) 
0

>  <PUBCHEM_ISOTOPIC_ATOM_COUNT>  (1) 
0

>  <PUBCHEM_COMPONENT_COUNT>  (1) 
1

>  <PUBCHEM_CACTVS_TAUTO_COUNT>  (1) 
2

>  <PUBCHEM_CONFORMER_ID>  (1) 
00001AA500000001

>  <PUBCHEM_MMFF94_ENERGY>  (1) 
66.4769

>  <PUBCHEM_FEATURE_SELFOVERLAP>  (1) 
35.58

>  <PUBCHEM_SHAPE_FINGERPRINT>  (1) 
12236239 1 17531253859184871053
12251169 10 18334295361795834853
12346177 29 18341043094946984455
12403814 3 17458343018332905981
12500047 106 18342459214040982854
12553582 1 17167578293828029916
12633257 1 18411425020247670737
13004483 165 17411881157315578239
13583140 156 17846775222108097750
13675066 3 17846497045676741960
14178342 30 18408880741819608074
14420673 8 18120093884299804538
15042514 8 18337683026610908643
15375358 24 17704349961807821960
15375462 189 17385726898147406364
15653759 3 18131073740093719444
17804303 29 18411144666431270089
1813 80 16515976869416565918
18186145 218 15913331290842437084
19050596 39 18040432200813239576
19377110 9 17677049161563920176
200 152 15719387335054088868
20279233 1 17703793621766806350
20281475 54 17821725061524514722
20554085 129 18126262174706818345
20645477 56 18272369763012753096
20645477 70 14562526272211996456
21033648 29 17346590838171059872
21065201 7 18413113848865050678
212916 134 18341047407073160817
23366157 5 17680718317095664261
23402539 116 18342734131520530509
23503953 91 18260544520167649432
23557571 272 18272663315859727292
23559900 14 18200047139907705606
23728640 28 18335143124322036899
27216 239 17489580186564410961
2838139 119 15481004306917744993
474 4 14261361236322006780
495365 180 17202758194655843070
5104073 3 18335986475241176928
573450 72 18187362138371209488
5924683 9 18058717126127510711
602551 16 18410012165254717154
633830 44 13973424464282342580
90127 26 17703789232669153408
9862522 239 18042396933676914509

>  <PUBCHEM_SHAPE_MULTIPOLES>  (1) 
368.42
10.18
1.85
1.49
6.9
0.88
0.02
-1.7
-3.67
-3.09
-0.23
1.83
0.03
0.37

>  <PUBCHEM_SHAPE_SELFOVERLAP>  (1) 
797.599

>  <PUBCHEM_SHAPE_VOLUME>  (1) 
201.4

>  <PUBCHEM_COORDINATE_TYPE>  (1) 
2
5
10

$$$$
