6823
     RDKit          3D

 21 23  0  0  0  0  0  0  0  0999 V2000
   -0.7793   -3.0237    0.3276 O   0  0  0  0  0  0  0  0  0  0  0  0
    0.1519   -0.4294    0.5335 N   0  0  0  0  0  0  0  0  0  0  0  0
    0.7653   -0.3404   -0.5534 N   0  0  0  0  0  0  0  0  0  0  0  0
   -2.1142    0.4036    0.1479 C   0  0  0  0  0  0  0  0  0  0  0  0
   -3.4804    0.1270   -0.0966 C   0  0  0  0  0  0  0  0  0  0  0  0
   -1.2121   -0.6634    0.2895 C   0  0  0  0  0  0  0  0  0  0  0  0
    3.0178   -1.1698   -0.1728 C   0  0  0  0  0  0  0  0  0  0  0  0
    2.1295   -0.1063   -0.3099 C   0  0  0  0  0  0  0  0  0  0  0  0
   -3.9043   -1.2084   -0.1925 C   0  0  0  0  0  0  0  0  0  0  0  0
   -1.6507   -1.9842    0.1911 C   0  0  0  0  0  0  0  0  0  0  0  0
   -1.6902    1.7391    0.2437 C   0  0  0  0  0  0  0  0  0  0  0  0
    3.9340    1.4573    0.0306 C   0  0  0  0  0  0  0  0  0  0  0  0
   -4.3824    1.1941   -0.2383 C   0  0  0  0  0  0  0  0  0  0  0  0
    2.5829    1.2065   -0.2092 C   0  0  0  0  0  0  0  0  0  0  0  0
   -2.9941   -2.2561   -0.0494 C   0  0  0  0  0  0  0  0  0  0  0  0
    4.3687   -0.9189    0.0671 C   0  0  0  0  0  0  0  0  0  0  0  0
    4.8269    0.3945    0.1687 C   0  0  0  0  0  0  0  0  0  0  0  0
   -2.6002    2.7869    0.1003 C   0  0  0  0  0  0  0  0  0  0  0  0
   -3.9437    2.5149   -0.1403 C   0  0  0  0  0  0  0  0  0  0  0  0
    2.5504   -2.5849   -0.2766 C   0  0  0  0  0  0  0  0  0  0  0  0
    4.4243    2.8615    0.1391 C   0  0  0  0  0  0  0  0  0  0  0  0
  1 10  1  0
  2  3  2  0
  2  6  1  0
  3  8  1  0
  4  5  1  0
  4  6  2  0
  4 11  1  0
  5  9  2  0
  5 13  1  0
  6 10  1  0
  7  8  2  0
  7 16  1  0
  7 20  1  0
  8 14  1  0
  9 15  1  0
 10 15  2  0
 11 18  2  0
 12 14  2  0
 12 17  1  0
 12 21  1  0
 13 19  2  0
 16 17  2  0
 18 19  1  0
M  END
>  <PUBCHEM_COMPOUND_CID>  (1) 
6823

>  <PUBCHEM_CONFORMER_RMSD>  (1) 
0.6

>  <PUBCHEM_CONFORMER_DIVERSEORDER>  (1) 
1
4
2
3
6
5

>  <PUBCHEM_MMFF94_PARTIAL_CHARGES>  (1) 
29
1 -0.53
10 0.08
11 -0.15
12 -0.14
13 -0.15
14 -0.15
15 -0.15
16 -0.15
17 -0.15
18 -0.15
19 -0.15
2 -0.18
20 0.14
21 0.14
22 0.15
23 0.15
24 0.15
25 0.15
26 0.15
27 0.15
28 0.15
29 0.15
3 -0.18
30 0.15
37 0.45
6 0.18
7 -0.14
8 0.18
9 -0.15

>  <PUBCHEM_EFFECTIVE_ROTOR_COUNT>  (1) 
2

>  <PUBCHEM_PHARMACOPHORE_FEATURES>  (1) 
4
1 1 donor
6 4 5 11 13 18 19 rings
6 4 5 6 9 10 15 rings
6 7 8 12 14 16 17 rings

>  <PUBCHEM_HEAVY_ATOM_COUNT>  (1) 
21

>  <PUBCHEM_ATOM_DEF_STEREO_COUNT>  (1) 
0

>  <PUBCHEM_ATOM_UDEF_STEREO_COUNT>  (1) 
0

>  <PUBCHEM_BOND_DEF_STEREO_COUNT>  (1) 
0

>  <PUBCHEM_BOND_UDEF_STEREO_COUNT>  (1) 
0

>  <PUBCHEM_ISOTOPIC_ATOM_COUNT>  (1) 
0

>  <PUBCHEM_COMPONENT_COUNT>  (1) 
1

>  <PUBCHEM_CACTVS_TAUTO_COUNT>  (1) 
3

>  <PUBCHEM_CONFORMER_ID>  (1) 
00001AA700000001

>  <PUBCHEM_MMFF94_ENERGY>  (1) 
63.1356

>  <PUBCHEM_FEATURE_SELFOVERLAP>  (1) 
20.324

>  <PUBCHEM_SHAPE_FINGERPRINT>  (1) 
10319926 262 18340189870245892466
10411042 1 17617660303045917883
10608611 8 18411982464105395552
10616163 171 18412265064253066974
10646746 165 18410575080827112564
10670039 82 18190193467398680572
11370993 70 18411134714786375390
11405975 8 18408321064783974594
11595378 159 17749655355320512488
12107183 9 18047463427459613130
12173636 292 18409728456773537599
12403260 363 18339350890421999230
12633257 1 18261946346153721544
13140716 1 18263649467868563371
13583140 156 17774991410691693258
138480 1 17545601154171657058
14251764 38 18342459188298052916
14790565 3 18197786492768241889
15196674 1 18410574002452977420
15420108 30 15466646634657416992
15442244 35 18265614286694783170
17492 89 18410576175585727023
18186145 218 18129112133882139146
20510252 161 18412830204971865459
20645477 56 18335707109156471029
20715895 44 18193832639921439853
21065198 57 18410575076537595382
21709351 56 18413666907761782974
21859007 373 17389080270983597572
22393880 68 18341622533680580406
23227448 37 18412261727189870821
23402539 116 18412256246901200495
23557571 272 18270691964113631596
23558518 356 18187653543175496299
23559900 14 18271524183348393594
245318 6 16666003294324230460
335352 9 18265896861394196510
351380 180 18412260601792530868
3545911 37 18411421687331735460
4214541 1 18410575067720729500
5104073 3 18408323293697818002
67856867 119 18410283731963201280
77779 3 18410856572841228582
9709674 26 18413113844343652470
9981440 41 18263640826521088306

>  <PUBCHEM_SHAPE_MULTIPOLES>  (1) 
416.34
10.22
3.43
0.66
4.99
0.2
0
4.14
-0.29
-0.75
0.1
0.01
-0.01
0.26

>  <PUBCHEM_SHAPE_SELFOVERLAP>  (1) 
919.353

>  <PUBCHEM_SHAPE_VOLUME>  (1) 
225.5

>  <PUBCHEM_COORDINATE_TYPE>  (1) 
2
5
10

$$$$
