6825
     RDKit          3D

 19 21  0  0  0  0  0  0  0  0999 V2000
   -0.2326   -3.0334   -0.2432 O   0  0  0  0  0  0  0  0  0  0  0  0
    0.5587   -0.3994   -0.5179 N   0  0  0  0  0  0  0  0  0  0  0  0
    1.1664   -0.2494    0.5654 N   0  0  0  0  0  0  0  0  0  0  0  0
    2.8106    1.3612    0.1943 N   0  0  0  0  0  0  0  0  0  0  0  0
   -1.7488    0.3212   -0.1520 C   0  0  0  0  0  0  0  0  0  0  0  0
   -3.0983   -0.0214    0.1020 C   0  0  0  0  0  0  0  0  0  0  0  0
   -0.7910   -0.6995   -0.2665 C   0  0  0  0  0  0  0  0  0  0  0  0
   -3.4501   -1.3746    0.2339 C   0  0  0  0  0  0  0  0  0  0  0  0
   -1.3970    1.6744   -0.2840 C   0  0  0  0  0  0  0  0  0  0  0  0
   -1.1583   -2.0387   -0.1328 C   0  0  0  0  0  0  0  0  0  0  0  0
   -4.0562    0.9992    0.2163 C   0  0  0  0  0  0  0  0  0  0  0  0
   -2.4853   -2.3757    0.1169 C   0  0  0  0  0  0  0  0  0  0  0  0
   -2.3617    2.6754   -0.1675 C   0  0  0  0  0  0  0  0  0  0  0  0
   -3.6888    2.3385    0.0822 C   0  0  0  0  0  0  0  0  0  0  0  0
    2.5163    0.0504    0.3135 C   0  0  0  0  0  0  0  0  0  0  0  0
    3.4378   -0.9736    0.2054 C   0  0  0  0  0  0  0  0  0  0  0  0
    4.7611   -0.6269   -0.0440 C   0  0  0  0  0  0  0  0  0  0  0  0
    5.1102    0.7127   -0.1743 C   0  0  0  0  0  0  0  0  0  0  0  0
    4.1068    1.6597   -0.0478 C   0  0  0  0  0  0  0  0  0  0  0  0
  1 10  1  0
  2  3  2  0
  2  7  1  0
  3 15  1  0
  4 15  2  0
  4 19  1  0
  5  6  1  0
  5  7  2  0
  5  9  1  0
  6  8  2  0
  6 11  1  0
  7 10  1  0
  8 12  1  0
  9 13  2  0
 10 12  2  0
 11 14  2  0
 13 14  1  0
 15 16  1  0
 16 17  2  0
 17 18  1  0
 18 19  2  0
M  END
>  <PUBCHEM_COMPOUND_CID>  (1) 
6825

>  <PUBCHEM_CONFORMER_RMSD>  (1) 
0.6

>  <PUBCHEM_CONFORMER_DIVERSEORDER>  (1) 
1
6
4
7
3
5
2

>  <PUBCHEM_MMFF94_PARTIAL_CHARGES>  (1) 
28
1 -0.53
10 0.08
11 -0.15
12 -0.15
13 -0.15
14 -0.15
15 0.49
16 -0.15
17 -0.15
18 -0.15
19 0.16
2 -0.18
20 0.15
21 0.15
22 0.15
23 0.15
24 0.15
25 0.15
26 0.45
27 0.15
28 0.15
29 0.15
3 -0.18
30 0.15
4 -0.62
7 0.18
8 -0.15
9 -0.15

>  <PUBCHEM_EFFECTIVE_ROTOR_COUNT>  (1) 
2

>  <PUBCHEM_PHARMACOPHORE_FEATURES>  (1) 
5
1 1 donor
1 4 acceptor
6 4 15 16 17 18 19 rings
6 5 6 7 8 10 12 rings
6 5 6 9 11 13 14 rings

>  <PUBCHEM_HEAVY_ATOM_COUNT>  (1) 
19

>  <PUBCHEM_ATOM_DEF_STEREO_COUNT>  (1) 
0

>  <PUBCHEM_ATOM_UDEF_STEREO_COUNT>  (1) 
0

>  <PUBCHEM_BOND_DEF_STEREO_COUNT>  (1) 
0

>  <PUBCHEM_BOND_UDEF_STEREO_COUNT>  (1) 
0

>  <PUBCHEM_ISOTOPIC_ATOM_COUNT>  (1) 
0

>  <PUBCHEM_COMPONENT_COUNT>  (1) 
1

>  <PUBCHEM_CACTVS_TAUTO_COUNT>  (1) 
3

>  <PUBCHEM_CONFORMER_ID>  (1) 
00001AA900000001

>  <PUBCHEM_MMFF94_ENERGY>  (1) 
57.064

>  <PUBCHEM_FEATURE_SELFOVERLAP>  (1) 
25.398

>  <PUBCHEM_SHAPE_FINGERPRINT>  (1) 
10319926 262 18340752811657085738
10411042 1 17906453586591677087
10493431 412 18269565953376929137
10608611 8 18341610442952152272
10616163 171 18410856590005682774
11405975 8 18408317775123881994
12107183 9 17902785267881854338
12173636 292 18411131450537156846
12390115 104 18128272111789747785
13140716 1 17832151515990599913
138480 1 17329991292014893859
14251751 93 18409163281895194426
14420673 8 18119811314248812730
14790565 3 18268437832497727913
15042514 8 18265621068628004867
15196674 1 18410573998363725464
15442244 35 18336260150957872690
17834072 32 18338517422064455977
20510252 161 18342178886158091987
20645477 56 18410296886794082820
20645477 70 16845302596958678310
21065198 57 18411418427868191682
21267235 1 18336273443280565858
21524375 3 18272083838745017615
21652331 79 18409167748598021488
2297311 6 18339938115794159518
2306618 200 18202009845388300955
23175994 123 17132122354956802768
23366157 5 17899419692364126099
23402539 116 18270956959960587455
23557571 272 18270973439554637412
23559900 14 18200878353824759982
245318 6 16376648126536037084
2748010 2 17975710398485528503
335352 9 18267021653120225550
3545911 37 18412265025983353072
4214541 1 18410573981336655200
5104073 3 18409445899707642488
559249 180 18337667513152125226
7097593 13 17897989253848767010
7364860 26 17836646323435176719
77779 3 18410012156748925042
9709674 26 18341899588793688574

>  <PUBCHEM_SHAPE_MULTIPOLES>  (1) 
370.2
9.57
2.9
0.66
10.24
0.37
0
-3.22
-0.39
-2.58
0.14
0
0
0.02

>  <PUBCHEM_SHAPE_SELFOVERLAP>  (1) 
823.139

>  <PUBCHEM_SHAPE_VOLUME>  (1) 
196.8

>  <PUBCHEM_COORDINATE_TYPE>  (1) 
2
5
10

$$$$
