6829
     RDKit          3D

 15 16  0  0  0  0  0  0  0  0999 V2000
    1.6950   -2.7798   -0.0005 O   0  0  0  0  0  0  0  0  0  0  0  0
   -0.3567   -1.9988   -0.0001 O   0  0  0  0  0  0  0  0  0  0  0  0
    0.8839   -1.8250   -0.0004 N   0  0  0  0  0  0  0  0  0  0  0  0
    0.5345    0.6102   -0.0003 C   0  0  0  0  0  0  0  0  0  0  0  0
   -0.9041    0.4548    0.0000 C   0  0  0  0  0  0  0  0  0  0  0  0
    1.3906   -0.4940    0.0001 C   0  0  0  0  0  0  0  0  0  0  0  0
    1.0694    1.9006   -0.0002 C   0  0  0  0  0  0  0  0  0  0  0  0
   -1.5977    0.3801   -1.2079 C   0  0  0  0  0  0  0  0  0  0  0  0
   -1.5974    0.3792    1.2082 C   0  0  0  0  0  0  0  0  0  0  0  0
    2.7732   -0.3084    0.0003 C   0  0  0  0  0  0  0  0  0  0  0  0
    2.4520    2.0860    0.0001 C   0  0  0  0  0  0  0  0  0  0  0  0
    3.3037    0.9816    0.0004 C   0  0  0  0  0  0  0  0  0  0  0  0
   -2.9845    0.2300   -1.2078 C   0  0  0  0  0  0  0  0  0  0  0  0
   -2.9842    0.2291    1.2081 C   0  0  0  0  0  0  0  0  0  0  0  0
   -3.6777    0.1545    0.0001 C   0  0  0  0  0  0  0  0  0  0  0  0
  1  3  1  0
  2  3  2  0
  3  6  1  0
  4  5  1  0
  4  6  2  0
  4  7  1  0
  5  8  2  0
  5  9  1  0
  6 10  1  0
  7 11  2  0
  8 13  1  0
  9 14  2  0
 10 12  2  0
 11 12  1  0
 13 15  2  0
 14 15  1  0
M  CHG  2   1  -1   3   1
M  END
>  <PUBCHEM_COMPOUND_CID>  (1) 
6829

>  <PUBCHEM_CONFORMER_RMSD>  (1) 
0.6

>  <PUBCHEM_CONFORMER_DIVERSEORDER>  (1) 
1

>  <PUBCHEM_MMFF94_PARTIAL_CHARGES>  (1) 
22
1 -0.52
10 -0.15
11 -0.15
12 -0.15
13 -0.15
14 -0.15
15 -0.15
16 0.15
17 0.15
18 0.15
19 0.15
2 -0.52
20 0.15
21 0.15
22 0.15
23 0.15
24 0.15
3 0.91
6 0.13
7 -0.15
8 -0.15
9 -0.15

>  <PUBCHEM_EFFECTIVE_ROTOR_COUNT>  (1) 
2

>  <PUBCHEM_PHARMACOPHORE_FEATURES>  (1) 
5
1 1 acceptor
1 1 anion
1 2 acceptor
6 4 6 7 10 11 12 rings
6 5 8 9 13 14 15 rings

>  <PUBCHEM_HEAVY_ATOM_COUNT>  (1) 
15

>  <PUBCHEM_ATOM_DEF_STEREO_COUNT>  (1) 
0

>  <PUBCHEM_ATOM_UDEF_STEREO_COUNT>  (1) 
0

>  <PUBCHEM_BOND_DEF_STEREO_COUNT>  (1) 
0

>  <PUBCHEM_BOND_UDEF_STEREO_COUNT>  (1) 
0

>  <PUBCHEM_ISOTOPIC_ATOM_COUNT>  (1) 
0

>  <PUBCHEM_COMPONENT_COUNT>  (1) 
1

>  <PUBCHEM_CACTVS_TAUTO_COUNT>  (1) 
1

>  <PUBCHEM_CONFORMER_ID>  (1) 
00001AAD00000001

>  <PUBCHEM_MMFF94_ENERGY>  (1) 
58.6253

>  <PUBCHEM_FEATURE_SELFOVERLAP>  (1) 
25.453

>  <PUBCHEM_SHAPE_FINGERPRINT>  (1) 
1 1 18408882962306760972
10219947 1 18407760352239716156
107287 299 18187091654094554868
10980938 120 18411139121306672632
11471102 20 18410007723852377117
12236239 1 17703791418501571173
12326174 3 18187636969012414432
12491281 212 16701758119019253224
13140716 1 18338514274174707608
13380535 76 18336543918893419858
13538477 17 17489861653140909133
13581323 91 14851604388565539113
14251717 144 18411696582370920015
15219456 202 18113335284869917717
15279307 12 18130785689622474679
15309172 13 18336550524495079288
15775835 57 18336546126501224916
16752209 62 16558453237507918053
16945 1 18410575076273727812
18175812 5 17676770958729569485
18186145 218 18343023328089154172
19049666 15 17751353985111186557
19422 9 17704076196160225317
200 152 18272362097086733141
20201158 50 18259984842752220569
204376 136 18265332983522136552
20645477 70 18338506440228394687
21639500 275 18411408536010051821
21730867 7 18334014986225003485
22112679 90 17274816918180317033
22802520 49 17970056747696595693
23236772 104 17775287187819913353
2334 1 18050286169891889964
23557571 272 17240489100441667157
23559900 14 16443338733449863210
25 1 18408882940594761948
2748010 2 18193565690565568726
458136 41 18264227913921531078
474 4 17557973215748083336
528862 383 18410573959418752651
528886 8 18339639035651706312
63268167 104 18342171150674156173
633830 44 18129679584988069876
7364860 26 18342459192808953702
77492 1 17703789210814476037
81228 2 17399791000370146490
8272917 22 18270125604620815325
9981440 41 16265425923731122928

>  <PUBCHEM_SHAPE_MULTIPOLES>  (1) 
291.97
5.39
2.07
1.01
1.54
1.23
0
-1.31
0
-1.87
0
0.93
-0.15
0

>  <PUBCHEM_SHAPE_SELFOVERLAP>  (1) 
640.333

>  <PUBCHEM_SHAPE_VOLUME>  (1) 
157.9

>  <PUBCHEM_COORDINATE_TYPE>  (1) 
2
5
10

$$$$
