6836
     RDKit          3D

 15 17  0  0  0  0  0  0  0  0999 V2000
   -0.0001    1.1622    0.2524 N   0  0  0  0  0  0  0  0  0  0  0  0
   -1.1319    0.3886    0.1474 C   0  0  0  0  0  0  0  0  0  0  0  0
    1.1320    0.3889    0.1475 C   0  0  0  0  0  0  0  0  0  0  0  0
   -0.7153   -0.9308   -0.0311 C   0  0  0  0  0  0  0  0  0  0  0  0
    0.7158   -0.9306   -0.0310 C   0  0  0  0  0  0  0  0  0  0  0  0
   -0.0010    2.5988    0.4465 C   0  0  0  0  0  0  0  0  0  0  0  0
   -2.4814    0.7564    0.1969 C   0  0  0  0  0  0  0  0  0  0  0  0
    2.4814    0.7569    0.1970 C   0  0  0  0  0  0  0  0  0  0  0  0
   -1.6966   -1.9351   -0.1672 C   0  0  0  0  0  0  0  0  0  0  0  0
    1.6971   -1.9349   -0.1671 C   0  0  0  0  0  0  0  0  0  0  0  0
   -0.0007    3.3568   -0.8700 C   0  0  0  0  0  0  0  0  0  0  0  0
   -3.4346   -0.2564    0.0594 C   0  0  0  0  0  0  0  0  0  0  0  0
    3.4347   -0.2555    0.0592 C   0  0  0  0  0  0  0  0  0  0  0  0
   -3.0502   -1.5830   -0.1200 C   0  0  0  0  0  0  0  0  0  0  0  0
    3.0507   -1.5823   -0.1200 C   0  0  0  0  0  0  0  0  0  0  0  0
  1  2  1  0
  1  3  1  0
  1  6  1  0
  2  4  2  0
  2  7  1  0
  3  5  2  0
  3  8  1  0
  4  5  1  0
  4  9  1  0
  5 10  1  0
  6 11  1  0
  7 12  2  0
  8 13  2  0
  9 14  2  0
 10 15  2  0
 12 14  1  0
 13 15  1  0
M  END
>  <PUBCHEM_COMPOUND_CID>  (1) 
6836

>  <PUBCHEM_CONFORMER_RMSD>  (1) 
0.4

>  <PUBCHEM_CONFORMER_DIVERSEORDER>  (1) 
1

>  <PUBCHEM_MMFF94_PARTIAL_CHARGES>  (1) 
20
1 0.05
10 -0.15
12 -0.15
13 -0.15
14 -0.15
15 -0.15
18 0.15
19 0.15
2 -0.15
20 0.15
21 0.15
25 0.15
26 0.15
27 0.15
28 0.15
3 -0.15
6 0.26
7 -0.15
8 -0.15
9 -0.15

>  <PUBCHEM_EFFECTIVE_ROTOR_COUNT>  (1) 
1

>  <PUBCHEM_PHARMACOPHORE_FEATURES>  (1) 
4
1 1 cation
5 1 2 3 4 5 rings
6 2 4 7 9 12 14 rings
6 3 5 8 10 13 15 rings

>  <PUBCHEM_HEAVY_ATOM_COUNT>  (1) 
15

>  <PUBCHEM_ATOM_DEF_STEREO_COUNT>  (1) 
0

>  <PUBCHEM_ATOM_UDEF_STEREO_COUNT>  (1) 
0

>  <PUBCHEM_BOND_DEF_STEREO_COUNT>  (1) 
0

>  <PUBCHEM_BOND_UDEF_STEREO_COUNT>  (1) 
0

>  <PUBCHEM_ISOTOPIC_ATOM_COUNT>  (1) 
0

>  <PUBCHEM_COMPONENT_COUNT>  (1) 
1

>  <PUBCHEM_CACTVS_TAUTO_COUNT>  (1) 
1

>  <PUBCHEM_CONFORMER_ID>  (1) 
00001AB400000001

>  <PUBCHEM_MMFF94_ENERGY>  (1) 
30.6064

>  <PUBCHEM_FEATURE_SELFOVERLAP>  (1) 
20.477

>  <PUBCHEM_SHAPE_FINGERPRINT>  (1) 
10967382 1 18195527214629555410
11132069 177 18343014471950758610
12032990 46 18411987961421272659
12382932 28 18341892978495790818
13132413 78 18340209682023121749
13140716 1 18411982416597323491
14648413 74 18119247522000857001
15490181 7 17472709026491284507
15490181 8 17472690802945047578
16945 1 18342739615275836952
17990270 104 18265893746978371795
193761 8 17474389071853428715
19591789 44 17187859618730848297
19868273 325 18409729555931626644
20510252 161 18127407848204838904
20559304 39 18194687187930524841
20588541 1 18341895164628739578
20645477 70 17904188579964299983
21029758 27 18335151907250101173
21267235 1 18340496615850732206
21501502 16 18196095443530306754
21524375 3 17035012104822544864
221490 88 18048318035699869619
2334 1 18411981394410878890
23402539 116 18270669892382387399
23419403 2 14754976029508948423
23463225 33 18411419514073041354
23552423 10 18051130590595710927
23559900 14 18198337365341678482
2748010 2 18413103965712694974
3071541 12 18050572034104072773
3071541 158 18335416932444299469
34934 24 18411127035231888843
352729 6 17546724850785994528
427121 178 15549988731311126203
528886 8 18341608226548814458
6992083 37 18270696285283332641
7364860 26 18124877025640438505
81228 2 18265906756471208800
8809292 202 18335707130399686314
90316 7 18262500512561744048

>  <PUBCHEM_SHAPE_MULTIPOLES>  (1) 
303.71
4.94
2.97
0.69
0
2.39
-0.04
-2.45
0.08
0
-0.54
0
0.2
0

>  <PUBCHEM_SHAPE_SELFOVERLAP>  (1) 
676.726

>  <PUBCHEM_SHAPE_VOLUME>  (1) 
164.1

>  <PUBCHEM_COORDINATE_TYPE>  (1) 
2
5
10

$$$$
