6839
     RDKit          3D

 14 15  0  0  1  0  0  0  0  0999 V2000
   -0.9293    2.0207    0.9836 O   0  0  0  0  0  0  0  0  0  0  0  0
   -2.9953   -1.6522   -0.9137 O   0  0  0  0  0  0  0  0  0  0  0  0
   -2.2149    0.3933   -0.0907 N   0  0  0  0  0  0  0  0  0  0  0  0
   -0.2706   -0.3115    1.0029 C   0  0  0  0  0  0  0  0  0  0  0  0
   -1.0165   -1.5318    0.4550 C   0  0  0  0  0  0  0  0  0  0  0  0
   -1.1576    0.8628    0.6592 C   0  0  0  0  0  0  0  0  0  0  0  0
    1.0767   -0.1577    0.3823 C   0  0  0  0  0  0  0  0  0  0  0  0
   -2.2004   -0.9700   -0.2819 C   0  0  0  0  0  0  0  0  0  0  0  0
   -3.2386    1.2701   -0.6266 C   0  0  0  0  0  0  0  0  0  0  0  0
    2.1984   -0.7056    1.0051 C   0  0  0  0  0  0  0  0  0  0  0  0
    1.2158    0.5343   -0.8208 C   0  0  0  0  0  0  0  0  0  0  0  0
    3.4587   -0.5614    0.4249 C   0  0  0  0  0  0  0  0  0  0  0  0
    2.4761    0.6784   -1.4011 C   0  0  0  0  0  0  0  0  0  0  0  0
    3.5974    0.1306   -0.7782 C   0  0  0  0  0  0  0  0  0  0  0  0
  1  6  2  0
  2  8  2  0
  3  6  1  0
  3  8  1  0
  3  9  1  0
  4  5  1  0
  4  6  1  0
  4  7  1  0
  5  8  1  0
  7 10  2  0
  7 11  1  0
 10 12  1  0
 11 13  2  0
 12 14  2  0
 13 14  1  0
M  END
>  <PUBCHEM_COMPOUND_CID>  (1) 
6839

>  <PUBCHEM_CONFORMER_RMSD>  (1) 
0.6

>  <PUBCHEM_CONFORMER_DIVERSEORDER>  (1) 
2
1

>  <PUBCHEM_MMFF94_PARTIAL_CHARGES>  (1) 
19
1 -0.57
10 -0.15
11 -0.15
12 -0.15
13 -0.15
14 -0.15
2 -0.57
21 0.15
22 0.15
23 0.15
24 0.15
25 0.15
3 -0.42
4 0.2
5 0.06
6 0.57
7 -0.14
8 0.57
9 0.3

>  <PUBCHEM_EFFECTIVE_ROTOR_COUNT>  (1) 
1.6

>  <PUBCHEM_PHARMACOPHORE_FEATURES>  (1) 
4
1 1 acceptor
1 2 acceptor
5 3 4 5 6 8 rings
6 7 10 11 12 13 14 rings

>  <PUBCHEM_HEAVY_ATOM_COUNT>  (1) 
14

>  <PUBCHEM_ATOM_DEF_STEREO_COUNT>  (1) 
0

>  <PUBCHEM_ATOM_UDEF_STEREO_COUNT>  (1) 
1

>  <PUBCHEM_BOND_DEF_STEREO_COUNT>  (1) 
0

>  <PUBCHEM_BOND_UDEF_STEREO_COUNT>  (1) 
0

>  <PUBCHEM_ISOTOPIC_ATOM_COUNT>  (1) 
0

>  <PUBCHEM_COMPONENT_COUNT>  (1) 
1

>  <PUBCHEM_CACTVS_TAUTO_COUNT>  (1) 
4

>  <PUBCHEM_CONFORMER_ID>  (1) 
00001AB700000002

>  <PUBCHEM_MMFF94_ENERGY>  (1) 
29.1002

>  <PUBCHEM_FEATURE_SELFOVERLAP>  (1) 
20.297

>  <PUBCHEM_SHAPE_FINGERPRINT>  (1) 
11031198 65 15864075351608464618
11127187 94 18131071545555251143
11206711 2 18338507638455633247
12202030 40 16844750667416532518
12251169 10 8286190639614880394
12491281 212 17458067062077732772
12932764 1 18411143558086945896
13024252 1 17967824863804036611
13296908 3 17632292414735063354
14115302 16 18410851036544072541
14144814 61 17821449062609942410
15775835 57 17894918403486494772
16945 1 18131071485188390489
17844478 74 15985110716738081376
18175812 5 16988555823077679176
19868273 293 18409728426545164469
20201158 50 16415479333194230006
20279233 1 16988840566598374654
20645476 183 18259703385003332431
20653085 51 17313107444818995013
20871999 31 18343016731383040295
21061003 4 15410898470003327986
23402539 116 18271799095039829404
23402655 69 17894908499260235924
23557571 272 17988357173747407992
23559900 14 18201993301638487162
25 1 16298103155672828546
2748010 2 16537634327768718129
528886 8 17385720287849632080
57812782 119 17346595249339478766
63268167 104 17530970189532470216
74978 22 17604158107330511434
77492 1 18187080637635316018
8030462 33 18261681449550332850
81228 2 17273991150414299665

>  <PUBCHEM_SHAPE_MULTIPOLES>  (1) 
271.39
5.67
1.55
1.19
1.42
0.02
-0.01
0.23
-1.59
-0.93
0.01
0.05
0.14
-0.91

>  <PUBCHEM_SHAPE_SELFOVERLAP>  (1) 
584.111

>  <PUBCHEM_SHAPE_VOLUME>  (1) 
151.8

>  <PUBCHEM_COORDINATE_TYPE>  (1) 
2
5
10

$$$$
