6847
     RDKit          3D

 13 14  0  0  0  0  0  0  0  0999 V2000
   -2.6371   -1.0136   -1.2011 O   0  0  0  0  0  0  0  0  0  0  0  0
   -2.7600   -1.1259    1.0659 O   0  0  0  0  0  0  0  0  0  0  0  0
    0.2402   -0.1959    0.0176 C   0  0  0  0  0  0  0  0  0  0  0  0
    1.2837    0.7599   -0.0004 C   0  0  0  0  0  0  0  0  0  0  0  0
   -1.0935    0.2438    0.0311 C   0  0  0  0  0  0  0  0  0  0  0  0
    0.9628    2.1272   -0.0047 C   0  0  0  0  0  0  0  0  0  0  0  0
    0.5613   -1.5631    0.0215 C   0  0  0  0  0  0  0  0  0  0  0  0
    2.6175    0.3204   -0.0142 C   0  0  0  0  0  0  0  0  0  0  0  0
   -1.3942    1.6063    0.0271 C   0  0  0  0  0  0  0  0  0  0  0  0
   -0.3679    2.5463    0.0090 C   0  0  0  0  0  0  0  0  0  0  0  0
    1.8920   -1.9819    0.0080 C   0  0  0  0  0  0  0  0  0  0  0  0
    2.9182   -1.0419   -0.0097 C   0  0  0  0  0  0  0  0  0  0  0  0
   -2.2229   -0.6815    0.0500 C   0  0  0  0  0  0  0  0  0  0  0  0
  1 13  1  0
  2 13  2  0
  3  4  1  0
  3  5  2  0
  3  7  1  0
  4  6  2  0
  4  8  1  0
  5  9  1  0
  5 13  1  0
  6 10  1  0
  7 11  2  0
  8 12  2  0
  9 10  2  0
 11 12  1  0
M  END
>  <PUBCHEM_COMPOUND_CID>  (1) 
6847

>  <PUBCHEM_CONFORMER_RMSD>  (1) 
0.4

>  <PUBCHEM_CONFORMER_DIVERSEORDER>  (1) 
1
2
3

>  <PUBCHEM_MMFF94_PARTIAL_CHARGES>  (1) 
19
1 -0.65
10 -0.15
11 -0.15
12 -0.15
13 0.63
14 0.15
15 0.15
16 0.15
17 0.15
18 0.15
19 0.15
2 -0.57
20 0.15
21 0.5
5 0.09
6 -0.15
7 -0.15
8 -0.15
9 -0.15

>  <PUBCHEM_EFFECTIVE_ROTOR_COUNT>  (1) 
1

>  <PUBCHEM_PHARMACOPHORE_FEATURES>  (1) 
5
1 1 acceptor
1 2 acceptor
3 1 2 13 anion
6 3 4 5 6 9 10 rings
6 3 4 7 8 11 12 rings

>  <PUBCHEM_HEAVY_ATOM_COUNT>  (1) 
13

>  <PUBCHEM_ATOM_DEF_STEREO_COUNT>  (1) 
0

>  <PUBCHEM_ATOM_UDEF_STEREO_COUNT>  (1) 
0

>  <PUBCHEM_BOND_DEF_STEREO_COUNT>  (1) 
0

>  <PUBCHEM_BOND_UDEF_STEREO_COUNT>  (1) 
0

>  <PUBCHEM_ISOTOPIC_ATOM_COUNT>  (1) 
0

>  <PUBCHEM_COMPONENT_COUNT>  (1) 
1

>  <PUBCHEM_CACTVS_TAUTO_COUNT>  (1) 
1

>  <PUBCHEM_CONFORMER_ID>  (1) 
00001ABF00000001

>  <PUBCHEM_MMFF94_ENERGY>  (1) 
44.3507

>  <PUBCHEM_FEATURE_SELFOVERLAP>  (1) 
25.456

>  <PUBCHEM_SHAPE_FINGERPRINT>  (1) 
10967382 1 18194403518241311232
11206711 2 18336549330699717828
13140716 1 18266740177958749224
13380535 76 17763456214865925078
16945 1 18338797947868705280
193761 8 18338517434986307120
20201158 50 18334008419404929595
20645476 183 16888675942002880286
20645477 70 18120925377220272431
20871998 184 18055636118383757679
21501502 16 18265895748733545578
22802520 49 17768824065230271686
2334 1 18410575063494243024
23388829 49 18341887541135713676
23419403 2 16748105768520135472
23552423 10 18189342285983045212
23559900 14 17334497100200213830
241688 4 18337953385489330552
2748010 2 18339637850340835916
63268167 104 18125719230214643305
6338986 31 18268686377690427159
81228 2 18192990409381622464
8809292 202 18047478828901534954

>  <PUBCHEM_SHAPE_MULTIPOLES>  (1) 
255.8
3.86
2.51
0.75
0.27
1.06
-0.03
-1.88
-0.01
-0.22
0.02
-0.36
-0.19
0

>  <PUBCHEM_SHAPE_SELFOVERLAP>  (1) 
564.737

>  <PUBCHEM_SHAPE_VOLUME>  (1) 
138.2

>  <PUBCHEM_COORDINATE_TYPE>  (1) 
2
5
10

$$$$
