6852
     RDKit          3D

 21 24  0  0  0  0  0  0  0  0999 V2000
    5.8821   -2.2103    0.4108 O   0  0  0  0  0  0  0  0  0  0  0  0
   -3.5508    1.2978    0.3689 N   0  0  0  0  0  0  0  0  0  0  0  0
    1.9209    1.6130   -0.3745 N   0  0  0  0  0  0  0  0  0  0  0  0
   -1.5739    0.3783   -0.0988 C   0  0  0  0  0  0  0  0  0  0  0  0
   -2.5776   -0.6408   -0.1480 C   0  0  0  0  0  0  0  0  0  0  0  0
   -2.2118    1.5758    0.2259 C   0  0  0  0  0  0  0  0  0  0  0  0
   -3.7995   -0.0362    0.1478 C   0  0  0  0  0  0  0  0  0  0  0  0
   -0.1778    0.3913   -0.3014 C   0  0  0  0  0  0  0  0  0  0  0  0
    0.5230    1.5957   -0.1724 C   0  0  0  0  0  0  0  0  0  0  0  0
   -1.5247    2.7878    0.3587 C   0  0  0  0  0  0  0  0  0  0  0  0
   -2.5579   -2.0254   -0.4180 C   0  0  0  0  0  0  0  0  0  0  0  0
   -0.1426    2.7751    0.1527 C   0  0  0  0  0  0  0  0  0  0  0  0
   -5.0052   -0.7459    0.1876 C   0  0  0  0  0  0  0  0  0  0  0  0
   -3.7555   -2.7484   -0.3822 C   0  0  0  0  0  0  0  0  0  0  0  0
   -4.9601   -2.1160   -0.0838 C   0  0  0  0  0  0  0  0  0  0  0  0
    2.9234    0.6461   -0.1759 C   0  0  0  0  0  0  0  0  0  0  0  0
    4.0641    0.6432   -0.9814 C   0  0  0  0  0  0  0  0  0  0  0  0
    2.7806   -0.3152    0.8272 C   0  0  0  0  0  0  0  0  0  0  0  0
    5.0573   -0.3162   -0.7849 C   0  0  0  0  0  0  0  0  0  0  0  0
    3.7738   -1.2746    1.0239 C   0  0  0  0  0  0  0  0  0  0  0  0
    4.9124   -1.2752    0.2178 C   0  0  0  0  0  0  0  0  0  0  0  0
  1 21  1  0
  2  6  1  0
  2  7  1  0
  3  9  1  0
  3 16  1  0
  4  5  1  0
  4  6  2  0
  4  8  1  0
  5  7  2  0
  5 11  1  0
  6 10  1  0
  7 13  1  0
  8  9  2  0
  9 12  1  0
 10 12  2  0
 11 14  2  0
 13 15  2  0
 14 15  1  0
 16 17  2  0
 16 18  1  0
 17 19  1  0
 18 20  2  0
 19 21  2  0
 20 21  1  0
M  END
>  <PUBCHEM_COMPOUND_CID>  (1) 
6852

>  <PUBCHEM_CONFORMER_RMSD>  (1) 
0.6

>  <PUBCHEM_CONFORMER_DIVERSEORDER>  (1) 
1
3
4
2
7
8
5
6

>  <PUBCHEM_MMFF94_PARTIAL_CHARGES>  (1) 
33
1 -0.53
10 -0.15
11 -0.15
12 -0.15
13 -0.15
14 -0.15
15 -0.15
16 0.1
17 -0.15
18 -0.15
19 -0.15
2 0.03
20 -0.15
21 0.08
22 0.27
23 0.15
24 0.15
25 0.15
26 0.15
27 0.15
28 0.4
29 0.15
3 -0.6
30 0.15
31 0.15
32 0.15
33 0.15
34 0.15
35 0.45
6 -0.15
7 -0.15
8 -0.15
9 0.1

>  <PUBCHEM_EFFECTIVE_ROTOR_COUNT>  (1) 
2

>  <PUBCHEM_PHARMACOPHORE_FEATURES>  (1) 
9
1 1 donor
1 2 cation
1 2 donor
1 3 cation
1 3 donor
5 2 4 5 6 7 rings
6 16 17 18 19 20 21 rings
6 4 6 8 9 10 12 rings
6 5 7 11 13 14 15 rings

>  <PUBCHEM_HEAVY_ATOM_COUNT>  (1) 
21

>  <PUBCHEM_ATOM_DEF_STEREO_COUNT>  (1) 
0

>  <PUBCHEM_ATOM_UDEF_STEREO_COUNT>  (1) 
0

>  <PUBCHEM_BOND_DEF_STEREO_COUNT>  (1) 
0

>  <PUBCHEM_BOND_UDEF_STEREO_COUNT>  (1) 
0

>  <PUBCHEM_ISOTOPIC_ATOM_COUNT>  (1) 
0

>  <PUBCHEM_COMPONENT_COUNT>  (1) 
1

>  <PUBCHEM_CACTVS_TAUTO_COUNT>  (1) 
4

>  <PUBCHEM_CONFORMER_ID>  (1) 
00001AC400000001

>  <PUBCHEM_MMFF94_ENERGY>  (1) 
67.3573

>  <PUBCHEM_FEATURE_SELFOVERLAP>  (1) 
45.852

>  <PUBCHEM_SHAPE_FINGERPRINT>  (1) 
10369192 42 17198795769978070624
10616163 171 18339643339335712678
10622 236 17824242823009810354
11045515 52 18040433295703535005
11046707 91 18411982455341628009
11578080 2 18042101272139096948
12107183 9 18194125105508217960
12174731 88 17539110771883394418
12236239 1 18186243917765801756
12553582 1 18339070583781829663
12555020 224 18410563008075171991
12633257 1 17988656180849407225
12760667 363 18413665807907484455
12788726 201 18339936947310100768
12839892 36 18202565055441831422
12969540 37 17689992758078997837
13167823 11 18334859419956164078
13862211 1 18342455972068889007
13955234 65 17765437939063737513
14251751 18 18342451518166736730
14576447 43 18260832609757746004
14767858 380 18115323301262942644
14866123 147 18341055125741191745
15042514 8 18340208501323898489
15188451 53 16701729571110375383
15196674 1 18410011060978396100
15250474 111 18335136449953408074
15352361 1 18411136965169844934
15537594 2 18335153015135398890
17492 89 18123185981511185911
17804303 29 18272370871262106041
17857418 61 18410290324184333286
1813 80 17822003259045994684
18222031 100 18130783525106332173
19784866 135 18342455941539848977
20281475 54 18408886252178285324
20291156 8 18409728499375134944
20403669 9 18342744034866061855
21033648 29 15698009504552488289
21250096 35 18339359768224674263
21267235 1 18410302436250544835
21857420 4 15688097669264149198
22950370 63 18410015467704551579
2297311 6 18201168688875565876
23366157 5 17976823413090433373
23522609 53 18121535481039699413
23559900 14 18340759446685634521
3004659 81 18113614590893464062
335352 9 18412263952768920245
3421961 26 18269552921612482232
351380 3 18334858328829028530
397830 11 18128515130425648338
4214541 1 18410293575379637292
4409770 3 18118114780560174613
46194498 28 16733824353604622367
463206 1 18335985388498743771
465052 167 18341338889102242127
5104073 3 18202286921986431665
559249 180 18335699391258307227
76465 3 18410854386486727029
7970288 3 18411415158818733775
960060 61 17822012051138941974
9709674 26 18191024714656244227

>  <PUBCHEM_SHAPE_MULTIPOLES>  (1) 
416.34
12.23
3.02
0.82
7.7
0.41
0.01
-9.73
0
-1.66
0.15
0.6
-0.08
-1.15

>  <PUBCHEM_SHAPE_SELFOVERLAP>  (1) 
940.809

>  <PUBCHEM_SHAPE_VOLUME>  (1) 
219.6

>  <PUBCHEM_COORDINATE_TYPE>  (1) 
2
5
10

$$$$
