6871
     RDKit          3D

 15 14  0  0  0  0  0  0  0  0999 V2000
   -1.7355    1.1050   -0.3459 O   0  0  0  0  0  0  0  0  0  0  0  0
   -1.0225   -1.4696    0.3215 O   0  0  0  0  0  0  0  0  0  0  0  0
    2.7729    0.0085    0.1905 O   0  0  0  0  0  0  0  0  0  0  0  0
   -0.5765    2.2842    1.2602 O   0  0  0  0  0  0  0  0  0  0  0  0
    0.9154   -1.7064   -0.9063 O   0  0  0  0  0  0  0  0  0  0  0  0
    0.3954    0.3601    0.2007 C   0  0  0  0  0  0  0  0  0  0  0  0
   -2.8349    2.0145   -0.2308 C   0  0  0  0  0  0  0  0  0  0  0  0
   -1.3808   -2.8251    0.0333 C   0  0  0  0  0  0  0  0  0  0  0  0
    3.8765    0.7876   -0.2407 C   0  0  0  0  0  0  0  0  0  0  0  0
   -0.6719    1.3629    0.4622 C   0  0  0  0  0  0  0  0  0  0  0  0
    0.1539   -1.0464   -0.2150 C   0  0  0  0  0  0  0  0  0  0  0  0
    1.6575    0.7835    0.3634 C   0  0  0  0  0  0  0  0  0  0  0  0
   -3.9276    1.5910   -1.1891 C   0  0  0  0  0  0  0  0  0  0  0  0
   -2.7048   -3.1370    0.6977 C   0  0  0  0  0  0  0  0  0  0  0  0
    5.0829   -0.1127   -0.4014 C   0  0  0  0  0  0  0  0  0  0  0  0
  1  7  1  0
  1 10  1  0
  2  8  1  0
  2 11  1  0
  3  9  1  0
  3 12  1  0
  4 10  2  0
  5 11  2  0
  6 10  1  0
  6 11  1  0
  6 12  2  3
  7 13  1  0
  8 14  1  0
  9 15  1  0
M  END
>  <PUBCHEM_COMPOUND_CID>  (1) 
6871

>  <PUBCHEM_CONFORMER_RMSD>  (1) 
0.8

>  <PUBCHEM_CONFORMER_DIVERSEORDER>  (1) 
1
18
21
57
22
13
67
38
15
14
12
32
36
46
25
74
16
8
42
44
63
4
48
53
78
11
33
51
9
7
52
79
50
24
55
19
28
75
10
70
2
54
59
81
43
62
34
31
80
64
26
82
30
39
35
29
17
47
3
66
77
37
58
41
61
40
23
69
6
20
49
68
45
76
56
5
60
27
72
73
71
65

>  <PUBCHEM_MMFF94_PARTIAL_CHARGES>  (1) 
13
1 -0.43
10 0.71
11 0.71
12 -0.07
2 -0.43
22 0.15
3 -0.36
4 -0.57
5 -0.57
6 0.03
7 0.28
8 0.28
9 0.28

>  <PUBCHEM_EFFECTIVE_ROTOR_COUNT>  (1) 
8

>  <PUBCHEM_PHARMACOPHORE_FEATURES>  (1) 
4
1 3 acceptor
1 4 acceptor
1 5 acceptor
1 6 anion

>  <PUBCHEM_HEAVY_ATOM_COUNT>  (1) 
15

>  <PUBCHEM_ATOM_DEF_STEREO_COUNT>  (1) 
0

>  <PUBCHEM_ATOM_UDEF_STEREO_COUNT>  (1) 
0

>  <PUBCHEM_BOND_DEF_STEREO_COUNT>  (1) 
0

>  <PUBCHEM_BOND_UDEF_STEREO_COUNT>  (1) 
0

>  <PUBCHEM_ISOTOPIC_ATOM_COUNT>  (1) 
0

>  <PUBCHEM_COMPONENT_COUNT>  (1) 
1

>  <PUBCHEM_CACTVS_TAUTO_COUNT>  (1) 
1

>  <PUBCHEM_CONFORMER_ID>  (1) 
00001AD700000001

>  <PUBCHEM_MMFF94_ENERGY>  (1) 
26.3374

>  <PUBCHEM_FEATURE_SELFOVERLAP>  (1) 
20.303

>  <PUBCHEM_SHAPE_FINGERPRINT>  (1) 
12138202 97 18408042887914846583
12555020 224 18195249923652903758
12716301 132 18266719433124252475
13052359 8 18335133198346368067
13380535 76 18270398283172246462
13538477 17 18334285462402392640
13583140 156 17313394408832910848
14993402 34 18335700499323550652
16752209 62 18337942497953197122
187816 3 18201432541369787372
20602899 9 15985095314858992046
20645476 183 18260824873783232516
20645477 70 17767669582907002693
20711985 365 18339082725991784254
20871998 22 17908425002075129146
21339142 51 18412546534966484752
23402539 116 18129935677087901804
23419403 2 17416678261911305531
23526113 38 17417534606071943872
23552423 10 17621313538129855505
23557571 272 18197511803870773292
23559900 14 18272084999172502456
2748010 2 18057030522540287352
3071541 236 18409158896580598034
3250762 1 17981029027607031321
559249 180 18261950761691760498
58051976 100 18408887330900398334
58779409 54 18340479058097883094
68521 5 18263930014900463111

>  <PUBCHEM_SHAPE_MULTIPOLES>  (1) 
279.35
6.93
3.31
0.91
7.53
2.35
0
-1.62
1.89
-4.58
-0.42
-0.37
-0.24
1.02

>  <PUBCHEM_SHAPE_SELFOVERLAP>  (1) 
536.106

>  <PUBCHEM_SHAPE_VOLUME>  (1) 
170.4

>  <PUBCHEM_COORDINATE_TYPE>  (1) 
2
5
10

$$$$
