6874
     RDKit          3D

 15 15  0  0  0  0  0  0  0  0999 V2000
    0.7113   -0.2822    0.0361 O   0  0  0  0  0  0  0  0  0  0  0  0
   -0.0681    1.7289   -0.7684 O   0  0  0  0  0  0  0  0  0  0  0  0
   -2.5317    2.1905    0.2808 O   0  0  0  0  0  0  0  0  0  0  0  0
    4.4793   -0.5773    0.2709 C   0  0  0  0  0  0  0  0  0  0  0  0
    2.9896   -0.9476    0.3546 C   0  0  0  0  0  0  0  0  0  0  0  0
    2.0542    0.1649   -0.1035 C   0  0  0  0  0  0  0  0  0  0  0  0
    4.8431   -0.2084   -1.1692 C   0  0  0  0  0  0  0  0  0  0  0  0
    4.8468    0.5742    1.2077 C   0  0  0  0  0  0  0  0  0  0  0  0
   -0.2546    0.6028   -0.3340 C   0  0  0  0  0  0  0  0  0  0  0  0
   -1.6057    0.0184   -0.1396 C   0  0  0  0  0  0  0  0  0  0  0  0
   -2.6742    0.8406    0.1575 C   0  0  0  0  0  0  0  0  0  0  0  0
   -1.7464   -1.3500   -0.2638 C   0  0  0  0  0  0  0  0  0  0  0  0
   -3.9351    0.2717    0.3375 C   0  0  0  0  0  0  0  0  0  0  0  0
   -3.0073   -1.9187   -0.0835 C   0  0  0  0  0  0  0  0  0  0  0  0
   -4.1015   -1.1078    0.2171 C   0  0  0  0  0  0  0  0  0  0  0  0
  1  6  1  0
  1  9  1  0
  2  9  2  0
  3 11  1  0
  4  5  1  0
  4  7  1  0
  4  8  1  0
  5  6  1  0
  9 10  1  0
 10 11  2  0
 10 12  1  0
 11 13  1  0
 12 14  2  0
 13 15  2  0
 14 15  1  0
M  END
>  <PUBCHEM_COMPOUND_CID>  (1) 
6874

>  <PUBCHEM_CONFORMER_RMSD>  (1) 
0.6

>  <PUBCHEM_CONFORMER_DIVERSEORDER>  (1) 
1
88
102
32
69
83
96
11
75
85
82
27
86
30
50
74
4
104
65
38
24
26
92
87
71
10
39
23
12
76
81
49
15
8
31
34
25
3
79
72
29
53
46
6
93
42
7
45
22
70
62
99
9
55
61
41
28
95
35
60
103
43
67
2
73
5
98
101
77
33
44
36
51
48
63
64
47
21
89
78
80
37
58
59
19
91
97
52
54
56
90
100
17
84
94
16
68
66
14
18
20
13
40
57

>  <PUBCHEM_MMFF94_PARTIAL_CHARGES>  (1) 
16
1 -0.43
10 0.09
11 0.08
12 -0.15
13 -0.15
14 -0.15
15 -0.15
2 -0.57
27 0.15
28 0.15
29 0.15
3 -0.53
30 0.15
31 0.45
6 0.28
9 0.63

>  <PUBCHEM_EFFECTIVE_ROTOR_COUNT>  (1) 
5

>  <PUBCHEM_PHARMACOPHORE_FEATURES>  (1) 
4
1 2 acceptor
1 3 donor
3 4 7 8 hydrophobe
6 10 11 12 13 14 15 rings

>  <PUBCHEM_HEAVY_ATOM_COUNT>  (1) 
15

>  <PUBCHEM_ATOM_DEF_STEREO_COUNT>  (1) 
0

>  <PUBCHEM_ATOM_UDEF_STEREO_COUNT>  (1) 
0

>  <PUBCHEM_BOND_DEF_STEREO_COUNT>  (1) 
0

>  <PUBCHEM_BOND_UDEF_STEREO_COUNT>  (1) 
0

>  <PUBCHEM_ISOTOPIC_ATOM_COUNT>  (1) 
0

>  <PUBCHEM_COMPONENT_COUNT>  (1) 
1

>  <PUBCHEM_CACTVS_TAUTO_COUNT>  (1) 
4

>  <PUBCHEM_CONFORMER_ID>  (1) 
00001ADA00000001

>  <PUBCHEM_MMFF94_ENERGY>  (1) 
34.6692

>  <PUBCHEM_FEATURE_SELFOVERLAP>  (1) 
20.297

>  <PUBCHEM_SHAPE_FINGERPRINT>  (1) 
10680689 15 18412550902905792970
10912923 1 17821731628714120128
11046707 91 18334293179957541255
11128504 68 17749122105883263446
11132069 177 18409445877874095966
12251169 10 18412261739800355348
13167823 11 18261390010408173450
13675066 3 17847058891828732520
15375462 189 17967247585676218186
15536298 74 18339643459668591532
17804303 29 18343023315314625697
17834072 33 18260834834192135332
1813 80 17458350723414382614
19026448 4 17846498123813617130
19050596 39 18187359914089898562
200 152 15285354016108947766
20281475 54 18261390023250500238
204376 136 15697999660608615990
20510252 161 18201720596410073025
20645477 56 18269561546313000841
21267235 1 18336557096222459443
21637258 2 16298676096332143195
22485316 2 18334008376502586498
22646028 1 17822007614553860298
2297311 6 18201170900630625500
23175994 123 16988847172099755800
23402539 116 18272926125308918141
23557571 272 18342468006393055884
23559900 14 18342733061245855896
2838139 119 14044910196742403003
4214541 1 18412262796684180544
449060 50 17632576067602941490
5104073 3 18337677528482850353
573450 72 18261101942345004930
633830 44 12679460915526876576
77779 3 18341895177998899202
90127 26 17418376874612125280

>  <PUBCHEM_SHAPE_MULTIPOLES>  (1) 
291.09
10.45
1.66
0.87
9.86
0.25
-0.01
-1.64
1.24
-1.68
-0.04
0.94
0.07
0.1

>  <PUBCHEM_SHAPE_SELFOVERLAP>  (1) 
593.267

>  <PUBCHEM_SHAPE_VOLUME>  (1) 
169

>  <PUBCHEM_COORDINATE_TYPE>  (1) 
2
5
10

$$$$
