688
     RDKit          3D

 20 21  0  0  1  0  0  0  0  0999 V2000
    4.4288   -1.2447    0.2899 P   0  0  0  0  0  0  0  0  0  0  0  0
    0.3698    0.2234    0.1974 O   0  0  0  0  0  0  0  0  0  0  0  0
    1.2902    3.0831    0.0557 O   0  0  0  0  0  0  0  0  0  0  0  0
    2.9540   -0.7826   -0.1901 O   0  0  0  0  0  0  0  0  0  0  0  0
   -3.2830    1.5306    1.5423 O   0  0  0  0  0  0  0  0  0  0  0  0
    4.6716   -0.4030    1.6492 O   0  0  0  0  0  0  0  0  0  0  0  0
    5.3998   -0.5151   -0.7777 O   0  0  0  0  0  0  0  0  0  0  0  0
    4.6208   -2.7282    0.4107 O   0  0  0  0  0  0  0  0  0  0  0  0
   -5.2049   -2.2103   -0.3437 O   0  0  0  0  0  0  0  0  0  0  0  0
   -1.9716    0.2109    0.1288 N   0  0  0  0  0  0  0  0  0  0  0  0
   -4.2381   -0.3331    0.6027 N   0  0  0  0  0  0  0  0  0  0  0  0
    0.8028    2.2320   -0.9744 C   0  0  0  0  0  0  0  0  0  0  0  0
    1.2572    0.7903   -0.7850 C   0  0  0  0  0  0  0  0  0  0  0  0
   -0.6947    2.0956   -0.8198 C   0  0  0  0  0  0  0  0  0  0  0  0
   -0.8094    1.0390    0.2701 C   0  0  0  0  0  0  0  0  0  0  0  0
    2.6924    0.6046   -0.3288 C   0  0  0  0  0  0  0  0  0  0  0  0
   -3.1660    0.5446    0.8115 C   0  0  0  0  0  0  0  0  0  0  0  0
   -1.9256   -0.9203   -0.6793 C   0  0  0  0  0  0  0  0  0  0  0  0
   -2.9559   -1.7474   -0.8684 C   0  0  0  0  0  0  0  0  0  0  0  0
   -4.2383   -1.4696   -0.1910 C   0  0  0  0  0  0  0  0  0  0  0  0
  1  4  1  0
  1  6  1  0
  1  7  1  0
  1  8  2  0
  2 13  1  0
  2 15  1  0
  3 12  1  0
  4 16  1  0
  5 17  2  0
  9 20  2  0
 10 15  1  0
 10 17  1  0
 10 18  1  0
 11 17  1  0
 11 20  1  0
 12 13  1  0
 12 14  1  0
 13 16  1  0
 14 15  1  0
 18 19  2  0
 19 20  1  0
M  END
>  <PUBCHEM_COMPOUND_CID>  (1) 
688

>  <PUBCHEM_CONFORMER_RMSD>  (1) 
0.8

>  <PUBCHEM_CONFORMER_DIVERSEORDER>  (1) 
1
88
120
27
116
112
99
62
85
2
89
93
44
126
125
49
114
82
92
90
110
8
97
24
109
128
104
57
12
45
18
124
79
117
72
76
119
13
118
47
66
95
61
50
106
121
70
37
5
38
35
102
25
105
51
98
122
86
17
103
60
63
113
54
29
83
75
81
78
71
111
3
52
131
91
129
7
80
42
11
65
64
48
26
21
67
130
53
101
84
30
10
107
108
87
28
59
123
43
31
15
68
69
58
33
32
55
36
127
40
46
96
39
34
16
22
14
20
9
94
100
23
73
115
56
19
4
41
74
77
6

>  <PUBCHEM_MMFF94_PARTIAL_CHARGES>  (1) 
25
1 1.51
10 -0.47
11 -0.49
12 0.28
13 0.28
15 0.58
16 0.28
17 0.69
18 -0.04
19 -0.14
2 -0.56
20 0.62
28 0.4
29 0.15
3 -0.68
30 0.37
31 0.15
32 0.5
33 0.5
4 -0.55
5 -0.57
6 -0.77
7 -0.77
8 -0.7
9 -0.57

>  <PUBCHEM_EFFECTIVE_ROTOR_COUNT>  (1) 
5

>  <PUBCHEM_PHARMACOPHORE_FEATURES>  (1) 
12
1 11 donor
1 2 acceptor
1 3 acceptor
1 3 donor
1 5 acceptor
1 6 acceptor
1 7 acceptor
1 8 acceptor
1 9 acceptor
4 1 6 7 8 anion
5 2 12 13 14 15 rings
6 10 11 17 18 19 20 rings

>  <PUBCHEM_HEAVY_ATOM_COUNT>  (1) 
20

>  <PUBCHEM_ATOM_DEF_STEREO_COUNT>  (1) 
0

>  <PUBCHEM_ATOM_UDEF_STEREO_COUNT>  (1) 
3

>  <PUBCHEM_BOND_DEF_STEREO_COUNT>  (1) 
0

>  <PUBCHEM_BOND_UDEF_STEREO_COUNT>  (1) 
0

>  <PUBCHEM_ISOTOPIC_ATOM_COUNT>  (1) 
0

>  <PUBCHEM_COMPONENT_COUNT>  (1) 
1

>  <PUBCHEM_CACTVS_TAUTO_COUNT>  (1) 
3

>  <PUBCHEM_CONFORMER_ID>  (1) 
000002B000000001

>  <PUBCHEM_MMFF94_ENERGY>  (1) 
11.7959

>  <PUBCHEM_FEATURE_SELFOVERLAP>  (1) 
60.937

>  <PUBCHEM_SHAPE_FINGERPRINT>  (1) 
11045977 3 17418370281657848082
11046707 91 18411135822718918333
11578080 2 18267846411274673033
12553582 1 18335138683251616214
12633257 1 17417823828536875337
12892183 10 17704067378771688722
13533116 47 18268993270663098251
13544653 18 18113621158019603692
13583140 156 16200147651595088592
13828863 39 16627402645254851824
14178342 30 18059590035496481727
1420 369 18408601457355450042
15342168 16 12247388042614407435
15342816 4 18410020931414720582
15415430 10 18410573985336197486
15442244 35 18412552036977846477
15537594 2 18262812765495630538
17780758 139 17987230041533332066
1813 80 18113335314971748764
18222031 100 18410291423896206822
19141452 34 18340489946045635161
19784866 240 18335140925293227103
20281475 54 18410013204710480332
20291156 8 18335419037157433982
204376 136 11959730477497374628
20645477 70 17968934335107563565
21033648 29 15195008197905738072
22079108 93 11527947893799436197
2255824 54 18118974821537285452
22950370 63 18410299077786527590
23402539 116 18187926140765795398
235170 7 15140684652951603218
23557571 272 16342883021735626657
23559900 14 18201715201852235737
25147074 1 18267886010777709365
314194 84 18334304188132989314
3421961 26 18337668736568568212
351380 3 18335422365804924934
5104073 3 18057336170283712147
559249 180 18409728422693536055
56633871 153 18196379121683348211
573450 72 18272375260871247641
76465 3 18335417971773325622
7970288 3 18334571335057440610
9981440 41 17329144083935483297

>  <PUBCHEM_SHAPE_MULTIPOLES>  (1) 
358.52
10.74
2.74
1.09
5.06
0.57
0.23
-9.13
1.71
0.4
-0.32
0.02
0.18
-1.36

>  <PUBCHEM_SHAPE_SELFOVERLAP>  (1) 
733.217

>  <PUBCHEM_SHAPE_VOLUME>  (1) 
208

>  <PUBCHEM_COORDINATE_TYPE>  (1) 
2
5
10

$$$$
