6880
     RDKit          3D

 13 13  0  0  0  0  0  0  0  0999 V2000
    1.6103    0.0300   -0.1816 O   0  0  0  0  0  0  0  0  0  0  0  0
   -1.9253    2.1162   -0.2727 O   0  0  0  0  0  0  0  0  0  0  0  0
    3.9506   -1.4522    0.2515 O   0  0  0  0  0  0  0  0  0  0  0  0
    0.6267    1.9293    0.6439 O   0  0  0  0  0  0  0  0  0  0  0  0
   -0.7359    0.0680    0.1074 C   0  0  0  0  0  0  0  0  0  0  0  0
    2.8903    0.6662   -0.0938 C   0  0  0  0  0  0  0  0  0  0  0  0
   -1.9223    0.7600   -0.1364 C   0  0  0  0  0  0  0  0  0  0  0  0
   -0.7537   -1.3199    0.2450 C   0  0  0  0  0  0  0  0  0  0  0  0
    0.5317    0.7754    0.2235 C   0  0  0  0  0  0  0  0  0  0  0  0
    3.9562   -0.2974   -0.5789 C   0  0  0  0  0  0  0  0  0  0  0  0
   -3.1265    0.0641   -0.2424 C   0  0  0  0  0  0  0  0  0  0  0  0
   -1.9579   -2.0159    0.1390 C   0  0  0  0  0  0  0  0  0  0  0  0
   -3.1443   -1.3237   -0.1045 C   0  0  0  0  0  0  0  0  0  0  0  0
  1  6  1  0
  1  9  1  0
  2  7  1  0
  3 10  1  0
  4  9  2  0
  5  7  2  0
  5  8  1  0
  5  9  1  0
  6 10  1  0
  7 11  1  0
  8 12  2  0
 11 13  2  0
 12 13  1  0
M  END
>  <PUBCHEM_COMPOUND_CID>  (1) 
6880

>  <PUBCHEM_CONFORMER_RMSD>  (1) 
0.6

>  <PUBCHEM_CONFORMER_DIVERSEORDER>  (1) 
1
33
15
32
12
38
25
50
39
24
45
53
52
4
30
28
11
27
51
21
48
49
41
14
2
19
16
7
37
46
44
42
47
17
10
34
40
3
5
35
23
26
43
29
36
18
8
13
6
9
20
31
22

>  <PUBCHEM_MMFF94_PARTIAL_CHARGES>  (1) 
19
1 -0.43
10 0.28
11 -0.15
12 -0.15
13 -0.15
16 0.15
19 0.15
2 -0.53
20 0.15
21 0.15
22 0.45
23 0.4
3 -0.68
4 -0.57
5 0.09
6 0.28
7 0.08
8 -0.15
9 0.63

>  <PUBCHEM_EFFECTIVE_ROTOR_COUNT>  (1) 
4

>  <PUBCHEM_PHARMACOPHORE_FEATURES>  (1) 
5
1 2 donor
1 3 acceptor
1 3 donor
1 4 acceptor
6 5 7 8 11 12 13 rings

>  <PUBCHEM_HEAVY_ATOM_COUNT>  (1) 
13

>  <PUBCHEM_ATOM_DEF_STEREO_COUNT>  (1) 
0

>  <PUBCHEM_ATOM_UDEF_STEREO_COUNT>  (1) 
0

>  <PUBCHEM_BOND_DEF_STEREO_COUNT>  (1) 
0

>  <PUBCHEM_BOND_UDEF_STEREO_COUNT>  (1) 
0

>  <PUBCHEM_ISOTOPIC_ATOM_COUNT>  (1) 
0

>  <PUBCHEM_COMPONENT_COUNT>  (1) 
1

>  <PUBCHEM_CACTVS_TAUTO_COUNT>  (1) 
4

>  <PUBCHEM_CONFORMER_ID>  (1) 
00001AE000000001

>  <PUBCHEM_MMFF94_ENERGY>  (1) 
32.3426

>  <PUBCHEM_FEATURE_SELFOVERLAP>  (1) 
25.371

>  <PUBCHEM_SHAPE_FINGERPRINT>  (1) 
11031198 65 13118268296331247162
11769659 78 18341328997744885078
12032990 46 18264210395177529987
12716758 59 18410288099290943440
13024252 1 17313105276345846187
13296908 3 18272651272828866688
14325111 11 18409449189330869436
14911166 2 18410002248317395797
16945 1 18337660993000866497
17804303 29 18412268358508469319
17870717 6 18269855150393283678
18186145 218 14273460288449870540
20201158 50 18272375282119549158
20281407 28 18339928228658079186
20281475 54 18339931535608862666
20871998 22 17832147495637895355
21061003 4 17418102039201128088
21501502 16 18269000945421775813
23402539 116 18343576340046999749
23403322 49 18343026549741972198
23463225 33 18409450271784161742
23552423 10 18044091495537356173
23559900 14 18413383225335554984
2748010 2 18049431840930690747
7364860 26 18053102010539095896
81228 2 17415859997996823072
8809292 202 18336831982255056034
93112 12 18335142007535139436
9709674 26 18411706478403396694

>  <PUBCHEM_SHAPE_MULTIPOLES>  (1) 
244.06
6.36
1.98
0.67
5.73
0.15
-0.01
-2.23
-0.84
-0.73
0.16
0.08
0.02
0.15

>  <PUBCHEM_SHAPE_SELFOVERLAP>  (1) 
504.337

>  <PUBCHEM_SHAPE_VOLUME>  (1) 
139.2

>  <PUBCHEM_COORDINATE_TYPE>  (1) 
2
5
10

$$$$
