6883
     RDKit          3D

 16 17  0  0  1  0  0  0  0  0999 V2000
    0.5145    0.0895   -1.3888 O   0  0  0  0  0  0  0  0  0  0  0  0
   -0.3832   -1.9992    0.6578 O   0  0  0  0  0  0  0  0  0  0  0  0
    2.8073   -0.4805    0.0688 O   0  0  0  0  0  0  0  0  0  0  0  0
   -2.3832    0.7120   -0.7370 O   0  0  0  0  0  0  0  0  0  0  0  0
    2.9628    1.4233    1.2065 O   0  0  0  0  0  0  0  0  0  0  0  0
   -3.8320   -0.2918    0.6015 O   0  0  0  0  0  0  0  0  0  0  0  0
    4.0491    1.2459   -0.7326 O   0  0  0  0  0  0  0  0  0  0  0  0
   -3.5856    1.9178    0.7696 O   0  0  0  0  0  0  0  0  0  0  0  0
    3.3242    0.8450    0.1809 N   0  0  0  0  0  0  0  0  0  0  0  0
   -3.3492    0.8011    0.3030 N   0  0  0  0  0  0  0  0  0  0  0  0
    0.4452    0.1404    0.0465 C   0  0  0  0  0  0  0  0  0  0  0  0
   -0.7935   -0.6336    0.4528 C   0  0  0  0  0  0  0  0  0  0  0  0
    1.5532   -0.6603    0.6872 C   0  0  0  0  0  0  0  0  0  0  0  0
   -1.6853   -0.5274   -0.7584 C   0  0  0  0  0  0  0  0  0  0  0  0
   -0.6899   -0.5047   -1.9012 C   0  0  0  0  0  0  0  0  0  0  0  0
    1.0455   -2.0775    0.5434 C   0  0  0  0  0  0  0  0  0  0  0  0
  1 11  1  0
  1 15  1  0
  2 12  1  0
  2 16  1  0
  3  9  1  0
  3 13  1  0
  4 10  1  0
  4 14  1  0
  5  9  1  0
  6 10  1  0
  7  9  2  0
  8 10  2  0
 11 12  1  0
 11 13  1  0
 12 14  1  0
 13 16  1  0
 14 15  1  0
M  CHG  4   5  -1   6  -1   9   1  10   1
M  END
>  <PUBCHEM_COMPOUND_CID>  (1) 
6883

>  <PUBCHEM_CONFORMER_RMSD>  (1) 
0.6

>  <PUBCHEM_CONFORMER_DIVERSEORDER>  (1) 
1
9
17
21
16
6
20
4
7
19
2
13
11
5
14
8
15
22
10
18
3
12

>  <PUBCHEM_MMFF94_PARTIAL_CHARGES>  (1) 
16
1 -0.56
10 1.03
11 0.28
12 0.28
13 0.28
14 0.28
15 0.28
16 0.28
2 -0.56
3 -0.27
4 -0.27
5 -0.52
6 -0.52
7 -0.52
8 -0.52
9 1.03

>  <PUBCHEM_EFFECTIVE_ROTOR_COUNT>  (1) 
5.2

>  <PUBCHEM_PHARMACOPHORE_FEATURES>  (1) 
8
1 1 acceptor
1 2 acceptor
1 5 acceptor
1 6 acceptor
1 7 acceptor
1 8 acceptor
5 1 11 12 14 15 rings
5 2 11 12 13 16 rings

>  <PUBCHEM_HEAVY_ATOM_COUNT>  (1) 
16

>  <PUBCHEM_ATOM_DEF_STEREO_COUNT>  (1) 
4

>  <PUBCHEM_ATOM_UDEF_STEREO_COUNT>  (1) 
0

>  <PUBCHEM_BOND_DEF_STEREO_COUNT>  (1) 
0

>  <PUBCHEM_BOND_UDEF_STEREO_COUNT>  (1) 
0

>  <PUBCHEM_ISOTOPIC_ATOM_COUNT>  (1) 
0

>  <PUBCHEM_COMPONENT_COUNT>  (1) 
1

>  <PUBCHEM_CACTVS_TAUTO_COUNT>  (1) 
1

>  <PUBCHEM_CONFORMER_ID>  (1) 
00001AE300000001

>  <PUBCHEM_MMFF94_ENERGY>  (1) 
57.6272

>  <PUBCHEM_FEATURE_SELFOVERLAP>  (1) 
41.458

>  <PUBCHEM_SHAPE_FINGERPRINT>  (1) 
10610426 29 11169915012978176511
10857977 72 16153991236067240847
10922049 32 18201727266241147295
10980938 120 18335976484993855696
11031198 65 18342739619971873702
11132069 177 17240484714842402791
12346645 44 18408039619465878883
12423570 1 14472126796217823231
12491281 212 18272364295534962630
13380535 21 18260266373790788210
13549 16 15913334584818452812
13705890 14 9871452227891657761
14943859 89 18060135457371980338
15309172 13 17894905252344093862
15775835 57 18343864390181063233
16945 1 18048300172498122023
17844478 74 16878219758099836694
18186145 218 18409443661750138222
18380122 1 17095515137306670599
19873495 37 18201718478706411255
201361 129 18340486647326129267
20645476 183 17203320139555158630
20645477 56 16844718875915607120
20653085 51 17632012073729802760
22854114 59 18040997336783584673
232386 152 13695884613938779241
23419403 2 17481198574776570574
23493267 7 17489592255427904231
23559900 14 14563362914281768290
25 1 18413106156583670986
2748010 2 17024853867154146167
276578 36 18335143063864972514
458136 41 18187652366665777946
81228 2 17463399865625138010
9882013 296 17167861984543875409

>  <PUBCHEM_SHAPE_MULTIPOLES>  (1) 
272.36
6.01
1.71
1.26
0.15
0.29
-0.52
-3.87
1.19
-0.24
0.53
0.13
-0.03
-0.38

>  <PUBCHEM_SHAPE_SELFOVERLAP>  (1) 
570.995

>  <PUBCHEM_SHAPE_VOLUME>  (1) 
155

>  <PUBCHEM_COORDINATE_TYPE>  (1) 
2
5
10

$$$$
