6893
     RDKit          3D

  9  9  0  0  0  0  0  0  0  0999 V2000
    2.4172   -0.8529    0.0007 N   0  0  0  0  0  0  0  0  0  0  0  0
   -0.0229   -0.7616   -0.0004 C   0  0  0  0  0  0  0  0  0  0  0  0
   -1.2011   -0.0149    0.0000 C   0  0  0  0  0  0  0  0  0  0  0  0
    1.2128   -0.1147   -0.0006 C   0  0  0  0  0  0  0  0  0  0  0  0
   -1.1435    1.3788    0.0002 C   0  0  0  0  0  0  0  0  0  0  0  0
   -0.0881   -2.2568   -0.0001 C   0  0  0  0  0  0  0  0  0  0  0  0
    1.2704    1.2789   -0.0002 C   0  0  0  0  0  0  0  0  0  0  0  0
   -2.5370   -0.6825    0.0003 C   0  0  0  0  0  0  0  0  0  0  0  0
    0.0923    2.0257    0.0002 C   0  0  0  0  0  0  0  0  0  0  0  0
  1  4  1  0
  2  3  2  0
  2  4  1  0
  2  6  1  0
  3  5  1  0
  3  8  1  0
  4  7  2  0
  5  9  2  0
  7  9  1  0
M  END
>  <PUBCHEM_COMPOUND_CID>  (1) 
6893

>  <PUBCHEM_CONFORMER_RMSD>  (1) 
0.4

>  <PUBCHEM_CONFORMER_DIVERSEORDER>  (1) 
1

>  <PUBCHEM_MMFF94_PARTIAL_CHARGES>  (1) 
14
1 -0.9
10 0.15
14 0.15
18 0.15
19 0.4
2 -0.14
20 0.4
3 -0.14
4 0.1
5 -0.15
6 0.14
7 -0.15
8 0.14
9 -0.15

>  <PUBCHEM_EFFECTIVE_ROTOR_COUNT>  (1) 
0

>  <PUBCHEM_PHARMACOPHORE_FEATURES>  (1) 
3
1 1 cation
1 1 donor
6 2 3 4 5 7 9 rings

>  <PUBCHEM_HEAVY_ATOM_COUNT>  (1) 
9

>  <PUBCHEM_ATOM_DEF_STEREO_COUNT>  (1) 
0

>  <PUBCHEM_ATOM_UDEF_STEREO_COUNT>  (1) 
0

>  <PUBCHEM_BOND_DEF_STEREO_COUNT>  (1) 
0

>  <PUBCHEM_BOND_UDEF_STEREO_COUNT>  (1) 
0

>  <PUBCHEM_ISOTOPIC_ATOM_COUNT>  (1) 
0

>  <PUBCHEM_COMPONENT_COUNT>  (1) 
1

>  <PUBCHEM_CACTVS_TAUTO_COUNT>  (1) 
1

>  <PUBCHEM_CONFORMER_ID>  (1) 
00001AED00000001

>  <PUBCHEM_MMFF94_ENERGY>  (1) 
35.7075

>  <PUBCHEM_FEATURE_SELFOVERLAP>  (1) 
15.223

>  <PUBCHEM_SHAPE_FINGERPRINT>  (1) 
12423570 1 11040330008613090929
16945 1 18050567640405029633
18185500 45 18266739078178030671
193761 8 17762337319992843270
21040471 1 17978228584343877701
23552423 10 17901679171868999758
241688 4 18410856516711456321
2748010 2 18410007732394884405
29004967 10 18263083382473023321
5084963 1 18202563977415140979

>  <PUBCHEM_SHAPE_MULTIPOLES>  (1) 
180.23
2.52
2.23
0.61
0.55
0.17
0
0.38
0
-0.26
0
0.02
-0.01
0

>  <PUBCHEM_SHAPE_SELFOVERLAP>  (1) 
372.114

>  <PUBCHEM_SHAPE_VOLUME>  (1) 
105.2

>  <PUBCHEM_COORDINATE_TYPE>  (1) 
2
5
10

$$$$
