6907
     RDKit          3D

 12 12  0  0  1  0  0  0  0  0999 V2000
   -0.0003    2.8640   -1.2804 Br  0  0  0  0  0  0  0  0  0  0  0  0
   -2.7733    1.6488    0.7179 Br  0  0  0  0  0  0  0  0  0  0  0  0
    2.7729    1.6493    0.7186 Br  0  0  0  0  0  0  0  0  0  0  0  0
   -2.8599   -1.8431    0.1848 Br  0  0  0  0  0  0  0  0  0  0  0  0
    2.8604   -1.8426    0.1840 Br  0  0  0  0  0  0  0  0  0  0  0  0
    0.0000   -1.9234   -1.6283 Cl  0  0  0  0  0  0  0  0  0  0  0  0
   -0.0002    1.3983    0.0622 C   0  0  0  0  0  0  0  0  0  0  0  0
   -1.3046    0.5944   -0.1129 C   0  0  0  0  0  0  0  0  0  0  0  0
    1.3045    0.5947   -0.1129 C   0  0  0  0  0  0  0  0  0  0  0  0
   -1.2442   -0.7805    0.5597 C   0  0  0  0  0  0  0  0  0  0  0  0
    1.2445   -0.7804    0.5595 C   0  0  0  0  0  0  0  0  0  0  0  0
    0.0002   -1.5795    0.1477 C   0  0  0  0  0  0  0  0  0  0  0  0
  1  7  1  0
  2  8  1  0
  3  9  1  0
  4 10  1  0
  5 11  1  0
  6 12  1  0
  7  8  1  0
  7  9  1  0
  8 10  1  0
  9 11  1  0
 10 12  1  0
 11 12  1  0
M  END
>  <PUBCHEM_COMPOUND_CID>  (1) 
6907

>  <PUBCHEM_CONFORMER_RMSD>  (1) 
0.4

>  <PUBCHEM_CONFORMER_DIVERSEORDER>  (1) 
1
10
13
27
35
15
9
19
37
24
6
38
16
18
12
36
28
5
11
8
23
26
32
14
25
22
17
34
2
7
3
33
4
31
29
20
21
30

>  <PUBCHEM_MMFF94_PARTIAL_CHARGES>  (1) 
12
1 -0.23
10 0.23
11 0.23
12 0.29
2 -0.23
3 -0.23
4 -0.23
5 -0.23
6 -0.29
7 0.23
8 0.23
9 0.23

>  <PUBCHEM_EFFECTIVE_ROTOR_COUNT>  (1) 
1.2

>  <PUBCHEM_PHARMACOPHORE_FEATURES>  (1) 
6
1 1 hydrophobe
1 2 hydrophobe
1 3 hydrophobe
1 4 hydrophobe
1 5 hydrophobe
6 7 8 9 10 11 12 rings

>  <PUBCHEM_HEAVY_ATOM_COUNT>  (1) 
12

>  <PUBCHEM_ATOM_DEF_STEREO_COUNT>  (1) 
0

>  <PUBCHEM_ATOM_UDEF_STEREO_COUNT>  (1) 
4

>  <PUBCHEM_BOND_DEF_STEREO_COUNT>  (1) 
0

>  <PUBCHEM_BOND_UDEF_STEREO_COUNT>  (1) 
0

>  <PUBCHEM_ISOTOPIC_ATOM_COUNT>  (1) 
0

>  <PUBCHEM_COMPONENT_COUNT>  (1) 
1

>  <PUBCHEM_CACTVS_TAUTO_COUNT>  (1) 
1

>  <PUBCHEM_CONFORMER_ID>  (1) 
00001AFB00000001

>  <PUBCHEM_MMFF94_ENERGY>  (1) 
29.4059

>  <PUBCHEM_FEATURE_SELFOVERLAP>  (1) 
30.45

>  <PUBCHEM_SHAPE_FINGERPRINT>  (1) 
11132069 177 18196368117855374906
12423570 1 17769395029423595678
12524768 44 18267032656573106497
13140716 1 18410010992248415866
161256 15 18410855482141165962
16945 1 18335133163775464178
193761 8 18410855460128161995
20511035 2 18411709785015946394
20588541 1 18052826840362930915
21501502 16 18411703175040302402
22344851 262 18051685843867485154
2334 1 18409448115309438210
23388829 49 18051123984661664097
23552423 10 18119257396146553011
241688 4 18334011661920375169
2748010 2 18409728460709697911
5255222 1 18120369861232183072
528862 383 17176865000489979001
53812654 25 17551234399090587597
68250623 7 18410298007743779851

>  <PUBCHEM_SHAPE_MULTIPOLES>  (1) 
278.54
4.18
3.39
1.2
0
0.95
-0.44
-0.62
1.43
0
-0.91
0
0.13
0

>  <PUBCHEM_SHAPE_SELFOVERLAP>  (1) 
470.077

>  <PUBCHEM_SHAPE_VOLUME>  (1) 
190.7

>  <PUBCHEM_COORDINATE_TYPE>  (1) 
2
5
10

$$$$
