6910
     RDKit          3D

 18 17  0  0  1  0  0  0  0  0999 V2000
   -1.9656    0.5396   -0.4818 O   0  0  0  0  0  0  0  0  0  0  0  0
    1.9656    0.5397    0.4818 O   0  0  0  0  0  0  0  0  0  0  0  0
    0.9188    2.3681   -1.5444 O   0  0  0  0  0  0  0  0  0  0  0  0
   -0.9189    2.3685    1.5440 O   0  0  0  0  0  0  0  0  0  0  0  0
   -0.3459    0.0706   -2.0544 O   0  0  0  0  0  0  0  0  0  0  0  0
    0.3462    0.0709    2.0545 O   0  0  0  0  0  0  0  0  0  0  0  0
   -0.2203    2.1095   -0.7330 C   0  0  0  0  0  0  0  0  0  0  0  0
    0.2205    2.1097    0.7328 C   0  0  0  0  0  0  0  0  0  0  0  0
   -3.8687   -0.8166    0.0754 C   0  0  0  0  0  0  0  0  0  0  0  0
    3.8686   -0.8166   -0.0754 C   0  0  0  0  0  0  0  0  0  0  0  0
   -2.6290   -0.6880   -0.7983 C   0  0  0  0  0  0  0  0  0  0  0  0
    2.6290   -0.6879    0.7984 C   0  0  0  0  0  0  0  0  0  0  0  0
   -4.6195   -2.1165   -0.1993 C   0  0  0  0  0  0  0  0  0  0  0  0
    4.6193   -2.1166    0.1994 C   0  0  0  0  0  0  0  0  0  0  0  0
   -0.8276    0.7938   -1.1918 C   0  0  0  0  0  0  0  0  0  0  0  0
    0.8277    0.7941    1.1919 C   0  0  0  0  0  0  0  0  0  0  0  0
   -5.8326   -2.2611    0.7055 C   0  0  0  0  0  0  0  0  0  0  0  0
    5.8324   -2.2613   -0.7055 C   0  0  0  0  0  0  0  0  0  0  0  0
  1 11  1  0
  1 15  1  0
  2 12  1  0
  2 16  1  0
  3  7  1  0
  4  8  1  0
  5 15  2  0
  6 16  2  0
  7  8  1  0
  7 15  1  0
  8 16  1  0
  9 11  1  0
  9 13  1  0
 10 12  1  0
 10 14  1  0
 13 17  1  0
 14 18  1  0
M  END
>  <PUBCHEM_COMPOUND_CID>  (1) 
6910

>  <PUBCHEM_CONFORMER_RMSD>  (1) 
1

>  <PUBCHEM_CONFORMER_DIVERSEORDER>  (1) 
1
16
52
4
51
12
64
62
3
8
65
7
54
68
11
40
60
29
18
58
46
17
39
47
71
67
37
63
27
72
5
44
23
57
42
21
66
61
20
38
26
56
55
31
69
30
53
25
22
70
14
24
33
59
36
15
19
43
32
49
9
41
48
2
45
6
13
28
34
10
50
35

>  <PUBCHEM_MMFF94_PARTIAL_CHARGES>  (1) 
14
1 -0.43
11 0.28
12 0.28
15 0.66
16 0.66
2 -0.43
3 -0.68
39 0.4
4 -0.68
40 0.4
5 -0.57
6 -0.57
7 0.34
8 0.34

>  <PUBCHEM_EFFECTIVE_ROTOR_COUNT>  (1) 
11

>  <PUBCHEM_PHARMACOPHORE_FEATURES>  (1) 
8
1 17 hydrophobe
1 18 hydrophobe
1 3 acceptor
1 3 donor
1 4 acceptor
1 4 donor
1 5 acceptor
1 6 acceptor

>  <PUBCHEM_HEAVY_ATOM_COUNT>  (1) 
18

>  <PUBCHEM_ATOM_DEF_STEREO_COUNT>  (1) 
2

>  <PUBCHEM_ATOM_UDEF_STEREO_COUNT>  (1) 
0

>  <PUBCHEM_BOND_DEF_STEREO_COUNT>  (1) 
0

>  <PUBCHEM_BOND_UDEF_STEREO_COUNT>  (1) 
0

>  <PUBCHEM_ISOTOPIC_ATOM_COUNT>  (1) 
0

>  <PUBCHEM_COMPONENT_COUNT>  (1) 
1

>  <PUBCHEM_CACTVS_TAUTO_COUNT>  (1) 
1

>  <PUBCHEM_CONFORMER_ID>  (1) 
00001AFE00000001

>  <PUBCHEM_MMFF94_ENERGY>  (1) 
4.0917

>  <PUBCHEM_FEATURE_SELFOVERLAP>  (1) 
40.613

>  <PUBCHEM_SHAPE_FINGERPRINT>  (1) 
11954058 11 18269270339098913119
13103583 49 17275108353234095083
13135754 10 17488196889267356722
13533116 47 18051689138873013123
13911852 28 18272364274414262519
13911882 115 17026571592780784499
14178000 29 18333730247236821311
14251732 17 10663821888266746294
14251764 30 18410855464424045039
17492 54 14129059222623685439
20388580 30 18260550068880098917
20645477 70 17606385808457511735
20871999 31 17604420813078560343
212916 134 11311767397708175646
21401589 2 8934711253715042487
21403212 168 10951781729039610862
22620623 9 17604413108076036741
23382010 3 14273451474707824745
2838139 119 8286201630362942106
4921388 177 18055070948491380942
58260988 114 17914629267297935042

>  <PUBCHEM_SHAPE_MULTIPOLES>  (1) 
335.22
10.58
3.03
1.57
0
0.36
0
-15.63
0
0
0
0
0.68
0.63

>  <PUBCHEM_SHAPE_SELFOVERLAP>  (1) 
637.155

>  <PUBCHEM_SHAPE_VOLUME>  (1) 
205.7

>  <PUBCHEM_COORDINATE_TYPE>  (1) 
2
5
10

$$$$
