6911
     RDKit          3D

 18 18  0  0  0  0  0  0  0  0999 V2000
   -2.4726    0.1744    0.2581 O   0  0  0  0  0  0  0  0  0  0  0  0
    3.7219   -0.2373    0.5899 O   0  0  0  0  0  0  0  0  0  0  0  0
   -0.9949    2.5937    0.0422 C   0  0  0  0  0  0  0  0  0  0  0  0
   -1.3277   -2.4180    0.0311 C   0  0  0  0  0  0  0  0  0  0  0  0
   -0.3412    1.1966   -0.0865 C   0  0  0  0  0  0  0  0  0  0  0  0
   -0.5242   -1.1648   -0.0872 C   0  0  0  0  0  0  0  0  0  0  0  0
   -1.1304    0.0859    0.0314 C   0  0  0  0  0  0  0  0  0  0  0  0
    1.0083    1.1552   -0.3137 C   0  0  0  0  0  0  0  0  0  0  0  0
    0.8483   -1.2555   -0.3187 C   0  0  0  0  0  0  0  0  0  0  0  0
   -2.0855    2.8582   -1.0190 C   0  0  0  0  0  0  0  0  0  0  0  0
   -1.6630    2.7344    1.4273 C   0  0  0  0  0  0  0  0  0  0  0  0
    0.0782    3.6917   -0.1232 C   0  0  0  0  0  0  0  0  0  0  0  0
   -0.4791   -3.5970    0.6095 C   0  0  0  0  0  0  0  0  0  0  0  0
   -1.8871   -2.8798   -1.3540 C   0  0  0  0  0  0  0  0  0  0  0  0
   -2.5813   -2.3193    0.9659 C   0  0  0  0  0  0  0  0  0  0  0  0
    1.6147   -0.0955   -0.4320 C   0  0  0  0  0  0  0  0  0  0  0  0
    3.0821   -0.1923   -0.6796 C   0  0  0  0  0  0  0  0  0  0  0  0
    5.1336   -0.3307    0.4585 C   0  0  0  0  0  0  0  0  0  0  0  0
  1  7  1  0
  2 17  1  0
  2 18  1  0
  3  5  1  0
  3 10  1  0
  3 11  1  0
  3 12  1  0
  4  6  1  0
  4 13  1  0
  4 14  1  0
  4 15  1  0
  5  7  2  0
  5  8  1  0
  6  7  1  0
  6  9  2  0
  8 16  2  0
  9 16  1  0
 16 17  1  0
M  END
>  <PUBCHEM_COMPOUND_CID>  (1) 
6911

>  <PUBCHEM_CONFORMER_RMSD>  (1) 
0.6

>  <PUBCHEM_CONFORMER_DIVERSEORDER>  (1) 
1
4
3
2
5

>  <PUBCHEM_MMFF94_PARTIAL_CHARGES>  (1) 
15
1 -0.53
16 -0.14
17 0.42
18 0.28
19 0.15
2 -0.56
20 0.15
3 0.14
4 0.14
41 0.45
5 -0.14
6 -0.14
7 0.08
8 -0.15
9 -0.15

>  <PUBCHEM_EFFECTIVE_ROTOR_COUNT>  (1) 
4

>  <PUBCHEM_PHARMACOPHORE_FEATURES>  (1) 
5
1 1 donor
1 2 acceptor
4 3 10 11 12 hydrophobe
4 4 13 14 15 hydrophobe
6 5 6 7 8 9 16 rings

>  <PUBCHEM_HEAVY_ATOM_COUNT>  (1) 
18

>  <PUBCHEM_ATOM_DEF_STEREO_COUNT>  (1) 
0

>  <PUBCHEM_ATOM_UDEF_STEREO_COUNT>  (1) 
0

>  <PUBCHEM_BOND_DEF_STEREO_COUNT>  (1) 
0

>  <PUBCHEM_BOND_UDEF_STEREO_COUNT>  (1) 
0

>  <PUBCHEM_ISOTOPIC_ATOM_COUNT>  (1) 
0

>  <PUBCHEM_COMPONENT_COUNT>  (1) 
1

>  <PUBCHEM_CACTVS_TAUTO_COUNT>  (1) 
2

>  <PUBCHEM_CONFORMER_ID>  (1) 
00001AFF00000001

>  <PUBCHEM_MMFF94_ENERGY>  (1) 
84.1424

>  <PUBCHEM_FEATURE_SELFOVERLAP>  (1) 
25.371

>  <PUBCHEM_SHAPE_FINGERPRINT>  (1) 
10319926 262 18268971156725837538
10411042 1 18194119848690059646
10967382 1 18049450244628261757
1100329 8 18338803428558185603
11357001 24 18408603664968432530
12553582 1 18194694893355613846
12788726 201 18336532881091479730
13140716 1 18267592483784552106
14022347 108 18048914997193424422
14790565 3 18266201481602226389
14817 1 13586376081594815743
15042514 8 18408610240357653802
15490181 7 17763755290555376285
16945 1 18338249196971650206
193761 8 17979080705997919925
19591789 44 17834413227782176270
20510252 161 18341894031026522456
20600515 1 18200329830054095025
21029758 11 18196363942978591871
21041028 32 18193852658636886555
21524375 3 17982724173994248428
21650355 55 18337665421170333442
21731228 192 18050855416277956016
22112679 90 18196108843580408790
23114952 82 17326026942964198047
23184049 29 18337955705220043564
2334 1 17979643655608144630
23366157 5 17395855830826488582
23402539 116 18343010086794294343
23419403 2 17344039009169021529
23557571 272 18270974547978044212
23728640 28 18335976463872895706
257057 1 18123464144671842510
2748010 2 18124877012655089125
305870 269 17760929537440935192
3071541 236 18336257930101051920
3091708 16 9131595234554351954
352729 6 18265620883553377988
43471831 8 18048039566693253354
58807428 26 18049728416901618840
7364860 26 17332537168138466430
81228 2 18341060678337359042
84936 182 17333918760729650040
90316 7 18410298046651426834
9981440 41 17831851361684947128

>  <PUBCHEM_SHAPE_MULTIPOLES>  (1) 
358.69
5
4.87
1.04
7.69
2.78
0.01
-3.97
0.77
-3.07
0.19
-0.43
0.05
-0.22

>  <PUBCHEM_SHAPE_SELFOVERLAP>  (1) 
735.363

>  <PUBCHEM_SHAPE_VOLUME>  (1) 
211.6

>  <PUBCHEM_COORDINATE_TYPE>  (1) 
2
5
10

$$$$
