692
     RDKit          3D

 48 51  0  0  1  0  0  0  0  0999 V2000
    0.0451   -0.4399    1.9596 O   0  0  0  0  0  0  0  0  0  0  0  0
    2.0069    1.4468    3.1450 O   0  0  0  0  0  0  0  0  0  0  0  0
   -0.7191    2.4280    1.1834 O   0  0  0  0  0  0  0  0  0  0  0  0
   -1.8700   -0.7555    3.2057 O   0  0  0  0  0  0  0  0  0  0  0  0
    3.6940    0.8943    1.6832 O   0  0  0  0  0  0  0  0  0  0  0  0
   -0.6958    3.2556    3.3321 O   0  0  0  0  0  0  0  0  0  0  0  0
    3.2228   -3.5811    2.5915 O   0  0  0  0  0  0  0  0  0  0  0  0
   -3.4153    0.0306   -1.4057 O   0  0  0  0  0  0  0  0  0  0  0  0
    0.8768    5.0652   -0.3814 O   0  0  0  0  0  0  0  0  0  0  0  0
    1.8453   -2.2004   -0.8957 O   0  0  0  0  0  0  0  0  0  0  0  0
   -5.8993    0.3436   -2.2534 O   0  0  0  0  0  0  0  0  0  0  0  0
    1.5327    1.2036   -1.1063 O   0  0  0  0  0  0  0  0  0  0  0  0
    2.5225   -3.4088   -3.2885 O   0  0  0  0  0  0  0  0  0  0  0  0
   -8.4197   -0.7907   -2.1830 O   0  0  0  0  0  0  0  0  0  0  0  0
    2.3628    0.3250   -3.5928 O   0  0  0  0  0  0  0  0  0  0  0  0
    2.6697   -1.6134    1.4959 N   0  0  0  0  0  0  0  0  0  0  0  0
   -3.2780   -0.2043    0.8978 N   0  0  0  0  0  0  0  0  0  0  0  0
    1.6787    3.1353    0.6244 N   0  0  0  0  0  0  0  0  0  0  0  0
    2.3251   -0.8554    2.6734 C   0  0  0  0  0  0  0  0  0  0  0  0
   -1.9671    0.3721    1.0505 C   0  0  0  0  0  0  0  0  0  0  0  0
    1.2857    3.4699    1.9702 C   0  0  0  0  0  0  0  0  0  0  0  0
    0.8418   -1.0259    3.0056 C   0  0  0  0  0  0  0  0  0  0  0  0
    2.2411    2.8630    2.9997 C   0  0  0  0  0  0  0  0  0  0  0  0
   -2.0388    1.8685    1.3344 C   0  0  0  0  0  0  0  0  0  0  0  0
   -1.2965   -0.3551    2.2009 C   0  0  0  0  0  0  0  0  0  0  0  0
    2.7596    0.5804    2.4109 C   0  0  0  0  0  0  0  0  0  0  0  0
   -0.1528    3.0548    2.2510 C   0  0  0  0  0  0  0  0  0  0  0  0
    3.0959   -2.9323    1.5564 C   0  0  0  0  0  0  0  0  0  0  0  0
   -3.9023   -0.3288   -0.3370 C   0  0  0  0  0  0  0  0  0  0  0  0
    1.4371    3.9746   -0.4541 C   0  0  0  0  0  0  0  0  0  0  0  0
    3.4379   -3.5652    0.2566 C   0  0  0  0  0  0  0  0  0  0  0  0
   -5.2649   -0.9205   -0.3229 C   0  0  0  0  0  0  0  0  0  0  0  0
    1.8802    3.4733   -1.7806 C   0  0  0  0  0  0  0  0  0  0  0  0
    2.8002   -3.1742   -0.9208 C   0  0  0  0  0  0  0  0  0  0  0  0
   -6.2117   -0.5626   -1.2828 C   0  0  0  0  0  0  0  0  0  0  0  0
    1.9101    2.1063   -2.0568 C   0  0  0  0  0  0  0  0  0  0  0  0
    4.4128   -4.5623    0.2238 C   0  0  0  0  0  0  0  0  0  0  0  0
   -5.5913   -1.8470    0.6673 C   0  0  0  0  0  0  0  0  0  0  0  0
    2.2685    4.3909   -2.7569 C   0  0  0  0  0  0  0  0  0  0  0  0
    3.1372   -3.7806   -2.1310 C   0  0  0  0  0  0  0  0  0  0  0  0
   -7.4852   -1.1310   -1.2521 C   0  0  0  0  0  0  0  0  0  0  0  0
    2.3284    1.6569   -3.3093 C   0  0  0  0  0  0  0  0  0  0  0  0
    4.7498   -5.1686   -0.9862 C   0  0  0  0  0  0  0  0  0  0  0  0
   -6.8646   -2.4154    0.6979 C   0  0  0  0  0  0  0  0  0  0  0  0
    2.6868    3.9415   -4.0092 C   0  0  0  0  0  0  0  0  0  0  0  0
    4.1119   -4.7778   -2.1636 C   0  0  0  0  0  0  0  0  0  0  0  0
   -7.8116   -2.0575   -0.2617 C   0  0  0  0  0  0  0  0  0  0  0  0
    2.7169    2.5745   -4.2855 C   0  0  0  0  0  0  0  0  0  0  0  0
  1 22  1  0
  1 25  1  0
  2 23  1  0
  2 26  1  0
  3 24  1  0
  3 27  1  0
  4 25  2  0
  5 26  2  0
  6 27  2  0
  7 28  2  0
  8 29  2  0
  9 30  2  0
 10 34  1  0
 11 35  1  0
 12 36  1  0
 13 40  1  0
 14 41  1  0
 15 42  1  0
 16 19  1  0
 16 28  1  0
 17 20  1  0
 17 29  1  0
 18 21  1  0
 18 30  1  0
 19 22  1  0
 19 26  1  0
 20 24  1  0
 20 25  1  0
 21 23  1  0
 21 27  1  0
 28 31  1  0
 29 32  1  0
 30 33  1  0
 31 34  2  0
 31 37  1  0
 32 35  2  0
 32 38  1  0
 33 36  2  0
 33 39  1  0
 34 40  1  0
 35 41  1  0
 36 42  1  0
 37 43  2  0
 38 44  2  0
 39 45  2  0
 40 46  2  0
 41 47  2  0
 42 48  2  0
 43 46  1  0
 44 47  1  0
 45 48  1  0
M  END
>  <PUBCHEM_COMPOUND_CID>  (1) 
692

>  <PUBCHEM_CONFORMER_RMSD>  (1) 
1.2

>  <PUBCHEM_CONFORMER_DIVERSEORDER>  (1) 
1
125
142
340
263
105
150
97
192
267
145
216
50
98
169
196
295
77
249
194
73
81
202
134
124
298
144
165
315
221
285
253
264
187
66
354
242
284
243
350
203
120
268
42
345
18
179
205
322
163
193
32
327
308
279
146
148
337
172
335
37
89
138
164
208
310
40
155
152
52
154
261
195
214
167
158
311
121
39
325
227
209
331
156
351
173
302
199
72
215
236
185
273
137
348
74
26
47
328
21
67
318
353
189
200
93
91
62
2
149
210
204
30
41
88
336
296
246
248
60
56
151
344
160
225
55
86
343
239
317
297
139
112
43
220
102
101
323
8
316
84
75
286
313
34
94
224
223
123
182
58
198
278
63
306
110
95
290
293
6
136
326
117
272
118
53
292
190
218
96
245
35
235
127
271
307
115
113
259
338
309
300
324
140
87
23
212
51
175
289
4
211
281
65
176
333
90
334
251
299
233
168
162
312
303
174
184
257
283
228
100
181
14
349
38
141
254
103
16
13
106
188
320
108
332
294
232
122
252
191
116
22
48
355
159
161
186
319
19
170
183
266
25
33
238
143
131
70
304
219
27
213
256
7
129
76
166
45
104
226
280
119
260
82
287
329
201
157
79
44
5
133
269
178
274
130
135
341
250
17
132
57
291
3
288
342
241
276
69
277
92
171
9
206
64
99
10
107
262
114
247
49
244
234
352
147
207
258
347
240
301
153
31
24
111
197
346
177
80
36
83
339
61
282
237
78
46
28
217
85
321
314
255
109
54
265
180
230
270
231
126
12
305
128
275
59
71
222
68
20
330
11
229
29
15

>  <PUBCHEM_MMFF94_PARTIAL_CHARGES>  (1) 
66
1 -0.43
10 -0.53
11 -0.53
12 -0.53
13 -0.53
14 -0.53
15 -0.53
16 -0.73
17 -0.73
18 -0.73
19 0.36
2 -0.43
20 0.36
21 0.36
22 0.28
23 0.28
24 0.28
25 0.66
26 0.66
27 0.66
28 0.54
29 0.54
3 -0.43
30 0.54
31 0.09
32 0.09
33 0.09
34 0.08
35 0.08
36 0.08
37 -0.15
38 -0.15
39 -0.15
4 -0.57
40 0.08
41 0.08
42 0.08
43 -0.15
44 -0.15
45 -0.15
46 -0.15
47 -0.15
48 -0.15
5 -0.57
58 0.37
59 0.37
6 -0.57
60 0.37
61 0.15
62 0.15
63 0.15
64 0.15
65 0.15
66 0.15
67 0.15
68 0.15
69 0.15
7 -0.57
70 0.45
71 0.45
72 0.45
73 0.45
74 0.45
75 0.45
8 -0.57
9 -0.57

>  <PUBCHEM_EFFECTIVE_ROTOR_COUNT>  (1) 
10.8

>  <PUBCHEM_PHARMACOPHORE_FEATURES>  (1) 
18
1 10 donor
1 11 donor
1 12 donor
1 13 donor
1 14 donor
1 15 donor
1 16 donor
1 17 donor
1 18 donor
1 4 acceptor
1 5 acceptor
1 6 acceptor
1 7 acceptor
1 8 acceptor
1 9 acceptor
6 31 34 37 40 43 46 rings
6 32 35 38 41 44 47 rings
6 33 36 39 42 45 48 rings

>  <PUBCHEM_HEAVY_ATOM_COUNT>  (1) 
48

>  <PUBCHEM_ATOM_DEF_STEREO_COUNT>  (1) 
0

>  <PUBCHEM_ATOM_UDEF_STEREO_COUNT>  (1) 
3

>  <PUBCHEM_BOND_DEF_STEREO_COUNT>  (1) 
0

>  <PUBCHEM_BOND_UDEF_STEREO_COUNT>  (1) 
0

>  <PUBCHEM_ISOTOPIC_ATOM_COUNT>  (1) 
0

>  <PUBCHEM_COMPONENT_COUNT>  (1) 
1

>  <PUBCHEM_CACTVS_TAUTO_COUNT>  (1) 
998

>  <PUBCHEM_CONFORMER_ID>  (1) 
000002B400000001

>  <PUBCHEM_MMFF94_ENERGY>  (1) 
122.9922

>  <PUBCHEM_FEATURE_SELFOVERLAP>  (1) 
91.397

>  <PUBCHEM_SHAPE_FINGERPRINT>  (1) 
10462674 125 18264764360117526910
10581848 197 14620502386204415774
10721379 63 17967819366135069375
11093857 51 18265901448292408144
11763715 3 18058185950310159328
12539747 72 16332985479787368425
131258 43 18271255919675359078
13636023 20 18114181865857860342
14918310 93 18189593061119321160
15064981 113 17462310215427287020
15803439 3 17611211607487871916
19315092 285 17916600734869835054
21716022 299 18341902882822263736
21792965 11 15468632382395690014
4066623 53 17968647199976087986
44802255 64 16740619434744794388
508180 173 16951132751036593575

>  <PUBCHEM_SHAPE_MULTIPOLES>  (1) 
884.83
13.97
7.76
4.96
43.81
0.85
-1.1
16.2
-9.4
-14.88
-3.79
-4.92
-3.46
-1.12

>  <PUBCHEM_SHAPE_SELFOVERLAP>  (1) 
1917.257

>  <PUBCHEM_SHAPE_VOLUME>  (1) 
473.6

>  <PUBCHEM_COORDINATE_TYPE>  (1) 
2
5
10

$$$$
