6925
     RDKit          3D

 11 11  0  0  0  0  0  0  0  0999 V2000
    1.7527    0.2658    0.0894 S   0  0  0  0  0  0  0  0  0  0  0  0
    2.2315   -0.2451   -1.3868 O   0  0  0  0  0  0  0  0  0  0  0  0
    2.1634    1.6555    0.2141 O   0  0  0  0  0  0  0  0  0  0  0  0
    2.1680   -0.7242    1.0692 O   0  0  0  0  0  0  0  0  0  0  0  0
    0.0038    0.2258    0.0402 C   0  0  0  0  0  0  0  0  0  0  0  0
   -0.6909   -0.9832    0.0052 C   0  0  0  0  0  0  0  0  0  0  0  0
   -0.6958    1.4325    0.0359 C   0  0  0  0  0  0  0  0  0  0  0  0
   -2.0852   -0.9856   -0.0341 C   0  0  0  0  0  0  0  0  0  0  0  0
    0.0277   -2.2927    0.0085 C   0  0  0  0  0  0  0  0  0  0  0  0
   -2.0901    1.4302   -0.0033 C   0  0  0  0  0  0  0  0  0  0  0  0
   -2.7849    0.2211   -0.0384 C   0  0  0  0  0  0  0  0  0  0  0  0
  1  2  1  0
  1  3  2  0
  1  4  2  0
  1  5  1  0
  5  6  2  0
  5  7  1  0
  6  8  1  0
  6  9  1  0
  7 10  2  0
  8 11  2  0
 10 11  1  0
M  END
>  <PUBCHEM_COMPOUND_CID>  (1) 
6925

>  <PUBCHEM_CONFORMER_RMSD>  (1) 
0.4

>  <PUBCHEM_CONFORMER_DIVERSEORDER>  (1) 
1
3
2

>  <PUBCHEM_MMFF94_PARTIAL_CHARGES>  (1) 
16
1 1.49
10 -0.15
11 -0.15
12 0.15
13 0.15
17 0.15
18 0.15
19 0.5
2 -0.68
3 -0.65
4 -0.65
5 -0.01
6 -0.14
7 -0.15
8 -0.15
9 0.14

>  <PUBCHEM_EFFECTIVE_ROTOR_COUNT>  (1) 
1

>  <PUBCHEM_PHARMACOPHORE_FEATURES>  (1) 
5
1 2 acceptor
1 3 acceptor
1 4 acceptor
4 1 2 3 4 anion
6 5 6 7 8 10 11 rings

>  <PUBCHEM_HEAVY_ATOM_COUNT>  (1) 
11

>  <PUBCHEM_ATOM_DEF_STEREO_COUNT>  (1) 
0

>  <PUBCHEM_ATOM_UDEF_STEREO_COUNT>  (1) 
0

>  <PUBCHEM_BOND_DEF_STEREO_COUNT>  (1) 
0

>  <PUBCHEM_BOND_UDEF_STEREO_COUNT>  (1) 
0

>  <PUBCHEM_ISOTOPIC_ATOM_COUNT>  (1) 
0

>  <PUBCHEM_COMPONENT_COUNT>  (1) 
1

>  <PUBCHEM_CACTVS_TAUTO_COUNT>  (1) 
1

>  <PUBCHEM_CONFORMER_ID>  (1) 
00001B0D00000001

>  <PUBCHEM_MMFF94_ENERGY>  (1) 
20.6113

>  <PUBCHEM_FEATURE_SELFOVERLAP>  (1) 
25.428

>  <PUBCHEM_SHAPE_FINGERPRINT>  (1) 
12423570 1 9652251493855371046
12524768 44 18198909290953361021
12716758 59 18339654433162054078
12897270 3 18410857637961554061
14325111 11 18410571794997964913
15775835 57 18260269620495725044
16945 1 18339923701936557425
18185500 45 17974845382611871234
20645464 45 18131061667009118440
20645476 183 17749681782243585719
20871998 184 17912649304084596255
21040471 1 18338517434927797643
22802520 49 18200053809686129662
23552423 10 18188772876045499765
23559900 14 18127982910794521982
241688 4 17114101067161528787
2748010 2 18338515356358831245
29004967 10 16272205297140936625
369184 2 18334568066575797681
5084963 1 17988648466876893225
66348 1 18409166640438209513

>  <PUBCHEM_SHAPE_MULTIPOLES>  (1) 
212.62
3.61
1.94
0.82
0.05
0.45
0.1
-0.72
0.08
-0.1
-0.08
0.47
0.08
-0.02

>  <PUBCHEM_SHAPE_SELFOVERLAP>  (1) 
430.118

>  <PUBCHEM_SHAPE_VOLUME>  (1) 
124.8

>  <PUBCHEM_COORDINATE_TYPE>  (1) 
2
5
10

$$$$
