6928
     RDKit          3D

 27 28  0  0  0  0  0  0  0  0999 V2000
   -0.8419    2.0025    0.3350 O   0  0  0  0  0  0  0  0  0  0  0  0
    0.8355   -1.9890    0.3632 O   0  0  0  0  0  0  0  0  0  0  0  0
   -3.1976    1.8160   -1.2459 C   0  0  0  0  0  0  0  0  0  0  0  0
    3.1980   -1.8220   -1.2098 C   0  0  0  0  0  0  0  0  0  0  0  0
   -2.7734    0.7243   -0.2497 C   0  0  0  0  0  0  0  0  0  0  0  0
    2.7817   -0.7498   -0.2570 C   0  0  0  0  0  0  0  0  0  0  0  0
   -0.0072    0.0181    2.1917 C   0  0  0  0  0  0  0  0  0  0  0  0
   -1.2509   -0.1092    1.3752 C   0  0  0  0  0  0  0  0  0  0  0  0
    1.2579    0.1372    1.3673 C   0  0  0  0  0  0  0  0  0  0  0  0
   -1.6202    0.8916    0.4764 C   0  0  0  0  0  0  0  0  0  0  0  0
    1.6131   -0.8763    0.4943 C   0  0  0  0  0  0  0  0  0  0  0  0
   -3.5811   -0.3809   -0.1342 C   0  0  0  0  0  0  0  0  0  0  0  0
    3.5768    0.3886   -0.1236 C   0  0  0  0  0  0  0  0  0  0  0  0
   -4.5156    1.4045   -1.9372 C   0  0  0  0  0  0  0  0  0  0  0  0
   -2.0991    1.9990   -2.3154 C   0  0  0  0  0  0  0  0  0  0  0  0
   -3.4356    3.1977   -0.5955 C   0  0  0  0  0  0  0  0  0  0  0  0
    4.5311   -1.4507   -1.9285 C   0  0  0  0  0  0  0  0  0  0  0  0
    2.1163   -2.0499   -2.3097 C   0  0  0  0  0  0  0  0  0  0  0  0
    3.4454   -3.2272   -0.5694 C   0  0  0  0  0  0  0  0  0  0  0  0
   -3.2116   -1.3817    0.7646 C   0  0  0  0  0  0  0  0  0  0  0  0
    3.2034    1.4003    0.7612 C   0  0  0  0  0  0  0  0  0  0  0  0
   -2.0464   -1.2459    1.5191 C   0  0  0  0  0  0  0  0  0  0  0  0
    2.0350    1.2738    1.5124 C   0  0  0  0  0  0  0  0  0  0  0  0
   -4.0630   -2.5962    0.9197 C   0  0  0  0  0  0  0  0  0  0  0  0
    4.0542    2.6168    0.9048 C   0  0  0  0  0  0  0  0  0  0  0  0
   -3.6609   -3.7137   -0.0394 C   0  0  0  0  0  0  0  0  0  0  0  0
    3.6561    3.7222   -0.0697 C   0  0  0  0  0  0  0  0  0  0  0  0
  1 10  1  0
  2 11  1  0
  3  5  1  0
  3 14  1  0
  3 15  1  0
  3 16  1  0
  4  6  1  0
  4 17  1  0
  4 18  1  0
  4 19  1  0
  5 10  2  0
  5 12  1  0
  6 11  2  0
  6 13  1  0
  7  8  1  0
  7  9  1  0
  8 10  1  0
  8 22  2  0
  9 11  1  0
  9 23  2  0
 12 20  2  0
 13 21  2  0
 20 22  1  0
 20 24  1  0
 21 23  1  0
 21 25  1  0
 24 26  1  0
 25 27  1  0
M  END
>  <PUBCHEM_COMPOUND_CID>  (1) 
6928

>  <PUBCHEM_CONFORMER_RMSD>  (1) 
0.8

>  <PUBCHEM_CONFORMER_DIVERSEORDER>  (1) 
1
29
36
21
30
31
19
32
35
27
28
23
24
2
26
12
33
15
5
13
14
34
17
6
18
7
22
10
11
25
37
9
16
8
4
20
3

>  <PUBCHEM_MMFF94_PARTIAL_CHARGES>  (1) 
25
1 -0.53
10 0.08
11 0.08
12 -0.15
13 -0.15
2 -0.53
20 -0.14
21 -0.14
22 -0.15
23 -0.15
24 0.14
25 0.14
3 0.14
30 0.15
31 0.15
4 0.14
5 -0.14
50 0.15
51 0.15
56 0.45
57 0.45
6 -0.14
7 0.29
8 -0.14
9 -0.14

>  <PUBCHEM_EFFECTIVE_ROTOR_COUNT>  (1) 
6

>  <PUBCHEM_PHARMACOPHORE_FEATURES>  (1) 
8
1 1 donor
1 2 donor
1 26 hydrophobe
1 27 hydrophobe
4 3 14 15 16 hydrophobe
4 4 17 18 19 hydrophobe
6 5 8 10 12 20 22 rings
6 6 9 11 13 21 23 rings

>  <PUBCHEM_HEAVY_ATOM_COUNT>  (1) 
27

>  <PUBCHEM_ATOM_DEF_STEREO_COUNT>  (1) 
0

>  <PUBCHEM_ATOM_UDEF_STEREO_COUNT>  (1) 
0

>  <PUBCHEM_BOND_DEF_STEREO_COUNT>  (1) 
0

>  <PUBCHEM_BOND_UDEF_STEREO_COUNT>  (1) 
0

>  <PUBCHEM_ISOTOPIC_ATOM_COUNT>  (1) 
0

>  <PUBCHEM_COMPONENT_COUNT>  (1) 
1

>  <PUBCHEM_CACTVS_TAUTO_COUNT>  (1) 
5

>  <PUBCHEM_CONFORMER_ID>  (1) 
00001B1000000001

>  <PUBCHEM_MMFF94_ENERGY>  (1) 
102.7221

>  <PUBCHEM_FEATURE_SELFOVERLAP>  (1) 
40.598

>  <PUBCHEM_SHAPE_FINGERPRINT>  (1) 
10369192 42 18055075629806176576
10498660 4 17676484991401839685
10675989 125 16898213032932102636
10871710 139 16316971149179817156
11578080 2 18410586079811434053
11621639 254 17547567536592853020
11621639 336 16612512611599276784
11640471 11 15719396113713885033
11759241 127 18192429894758813452
12156800 1 16476588278105275996
12553582 1 17770238058848416442
12788726 201 14997720756412895801
13383661 66 16050954098547091374
13583140 156 18411136892403853918
13911987 19 17843399841781414336
14114206 34 16905286268411609950
14251757 17 18339079289548436210
14659021 117 16903574277737397422
14840074 17 17687469378592883325
14910302 57 18411418414793743107
15961568 22 17752768201841265268
17980427 23 16443618090923430916
1813 80 17971205952713229907
20600515 1 17979613664373880442
20645477 70 17988920059276358502
20693207 138 18341909496982442902
20775438 99 18123435415978517639
21033650 10 17821737117086336120
21285901 2 18266176326178733763
21344244 181 18270102536758157831
21731516 1 15769769130817787704
21756936 100 15575868039394020726
22182313 1 18410575101848229809
22393880 68 18408043992138575810
2260408 40 17692288482829896347
23114952 82 18412830191907784352
23227448 37 18041546031915202277
235170 7 18339361984274766234
23557571 272 18187925131553911129
23559900 14 18339073801028657458
238 59 18129934598929213126
4280585 95 18125156036018162202
46194498 28 18340215171217744174
469060 322 17696450150966437431
5161694 15 18266740186158234763
5252454 2 17605839114385593525
57527585 21 18266442386301847181
5895379 119 17385731283514549508
613672 6 17841435830593856718
621550 34 18268433623054120714
6287921 2 18263376921823289212
633830 44 18123449606793796749
6913067 236 18124304171423822298
7399639 24 18196368336851299256
9709674 26 18411975832602271421

>  <PUBCHEM_SHAPE_MULTIPOLES>  (1) 
543.91
9.43
4.26
2.07
0.02
0.03
0.65
0.07
2.97
0.11
1.01
-0.03
0
3.92

>  <PUBCHEM_SHAPE_SELFOVERLAP>  (1) 
1146.473

>  <PUBCHEM_SHAPE_VOLUME>  (1) 
310.1

>  <PUBCHEM_COORDINATE_TYPE>  (1) 
2
5
10

$$$$
