693
     RDKit          3D

 31 31  0  0  1  0  0  0  0  0999 V2000
    4.9344    1.4231   -0.2864 O   0  0  0  0  0  0  0  0  0  0  0  0
    4.8102    0.5356    0.8322 C   0  0  0  0  0  0  0  0  0  0  0  0
    4.0612    0.2977   -0.4468 C   0  0  0  0  0  0  0  0  0  0  0  0
    4.5092   -0.7050   -1.4672 C   0  0  0  0  0  0  0  0  0  0  0  0
    6.0489   -0.2093    1.1618 C   0  0  0  0  0  0  0  0  0  0  0  0
    4.1185    1.1306    2.0008 C   0  0  0  0  0  0  0  0  0  0  0  0
    4.0586   -2.1340   -1.1456 C   0  0  0  0  0  0  0  0  0  0  0  0
    2.5533   -2.3097   -1.0584 C   0  0  0  0  0  0  0  0  0  0  0  0
    1.9950   -2.7704    0.0781 C   0  0  0  0  0  0  0  0  0  0  0  0
    1.7838   -1.8963   -2.2824 C   0  0  0  0  0  0  0  0  0  0  0  0
    0.5355   -2.9720    0.3804 C   0  0  0  0  0  0  0  0  0  0  0  0
    0.0751   -2.1580    1.5949 C   0  0  0  0  0  0  0  0  0  0  0  0
   -1.4014   -2.3083    1.9107 C   0  0  0  0  0  0  0  0  0  0  0  0
   -2.2097   -1.2314    1.8657 C   0  0  0  0  0  0  0  0  0  0  0  0
   -1.8311   -3.6905    2.3170 C   0  0  0  0  0  0  0  0  0  0  0  0
   -3.6793   -1.1562    2.1717 C   0  0  0  0  0  0  0  0  0  0  0  0
   -4.5484   -1.5315    0.9635 C   0  0  0  0  0  0  0  0  0  0  0  0
   -3.8654    0.2967   -2.4891 C   0  0  0  0  0  0  0  0  0  0  0  0
   -4.4233   -0.5392   -0.1609 C   0  0  0  0  0  0  0  0  0  0  0  0
   -4.0133   -0.7693   -1.4237 C   0  0  0  0  0  0  0  0  0  0  0  0
   -2.4422    0.5019   -3.0272 C   0  0  0  0  0  0  0  0  0  0  0  0
   -0.6340    1.9282   -1.9000 C   0  0  0  0  0  0  0  0  0  0  0  0
   -1.4304    0.8436   -1.9687 C   0  0  0  0  0  0  0  0  0  0  0  0
    0.3810    2.1872   -0.8073 C   0  0  0  0  0  0  0  0  0  0  0  0
   -3.6132   -2.1603   -1.8441 C   0  0  0  0  0  0  0  0  0  0  0  0
    0.1909    3.5339   -0.0949 C   0  0  0  0  0  0  0  0  0  0  0  0
   -0.7010    2.9800   -2.9773 C   0  0  0  0  0  0  0  0  0  0  0  0
   -1.0972    3.6045    0.6787 C   0  0  0  0  0  0  0  0  0  0  0  0
   -1.3216    3.2468    1.9575 C   0  0  0  0  0  0  0  0  0  0  0  0
   -2.6404    3.3449    2.6703 C   0  0  0  0  0  0  0  0  0  0  0  0
   -0.2039    2.6865    2.7968 C   0  0  0  0  0  0  0  0  0  0  0  0
  1  2  1  0
  1  3  1  0
  2  3  1  0
  2  5  1  0
  2  6  1  0
  3  4  1  0
  4  7  1  0
  7  8  1  0
  8  9  2  0
  8 10  1  0
  9 11  1  0
 11 12  1  0
 12 13  1  0
 13 14  2  0
 13 15  1  0
 14 16  1  0
 16 17  1  0
 17 19  1  0
 18 20  1  0
 18 21  1  0
 19 20  2  0
 20 25  1  0
 21 23  1  0
 22 23  2  0
 22 24  1  0
 22 27  1  0
 24 26  1  0
 26 28  1  0
 28 29  2  3
 29 30  1  0
 29 31  1  0
M  END
>  <PUBCHEM_COMPOUND_CID>  (1) 
693

>  <PUBCHEM_CONFORMER_RMSD>  (1) 
2

>  <PUBCHEM_CONFORMER_DIVERSEORDER>  (1) 
1
45
92
26
56
53
46
2
96
87
62
38
25
76
90
73
68
42
77
18
74
16
47
14
106
97
100
60
85
86
61
66
29
57
98
9
15
54
13
103
91
84
94
107
10
71
88
93
39
65
49
32
80
52
72
28
44
69
50
83
48
31
34
41
27
101
79
70
21
105
40
23
59
82
99
108
95
75
37
35
12
78
22
89
109
33
36
3
104
67
64
102
58
19
11
55
8
24
43
51
81
4
30
7
20
17
63
6
5

>  <PUBCHEM_MMFF94_PARTIAL_CHARGES>  (1) 
37
1 -0.3
10 0.14
11 0.14
12 0.14
13 -0.28
14 -0.29
15 0.14
16 0.14
17 0.14
18 0.14
19 -0.29
2 -0.04
20 -0.28
21 0.14
22 -0.28
23 -0.29
24 0.14
25 0.14
26 0.14
27 0.14
28 -0.29
29 -0.28
3 -0.05
30 0.14
31 0.14
32 0.1
4 0.09
43 0.15
5 0.09
51 0.15
6 0.09
61 0.15
64 0.15
7 0.14
75 0.15
8 -0.28
9 -0.29

>  <PUBCHEM_EFFECTIVE_ROTOR_COUNT>  (1) 
15.6

>  <PUBCHEM_PHARMACOPHORE_FEATURES>  (1) 
11
1 1 acceptor
1 10 hydrophobe
1 15 hydrophobe
1 25 hydrophobe
1 27 hydrophobe
3 2 5 6 hydrophobe
3 29 30 31 hydrophobe
4 14 16 17 19 hydrophobe
4 18 20 21 23 hydrophobe
4 22 24 26 28 hydrophobe
4 9 11 12 13 hydrophobe

>  <PUBCHEM_HEAVY_ATOM_COUNT>  (1) 
31

>  <PUBCHEM_ATOM_DEF_STEREO_COUNT>  (1) 
0

>  <PUBCHEM_ATOM_UDEF_STEREO_COUNT>  (1) 
1

>  <PUBCHEM_BOND_DEF_STEREO_COUNT>  (1) 
0

>  <PUBCHEM_BOND_UDEF_STEREO_COUNT>  (1) 
4

>  <PUBCHEM_ISOTOPIC_ATOM_COUNT>  (1) 
0

>  <PUBCHEM_COMPONENT_COUNT>  (1) 
1

>  <PUBCHEM_CACTVS_TAUTO_COUNT>  (1) 
1

>  <PUBCHEM_CONFORMER_ID>  (1) 
000002B500000001

>  <PUBCHEM_MMFF94_ENERGY>  (1) 
32.1345

>  <PUBCHEM_FEATURE_SELFOVERLAP>  (1) 
55.882

>  <PUBCHEM_SHAPE_FINGERPRINT>  (1) 
10838868 49 17026800166350184216
11170278 61 17129865169560064401
12156800 1 17335673693214608213
12467345 10 15913047672434361474
13402501 40 18041273356988513791
13615921 28 18052294866341298407
14251757 17 17821728372691053253
14932701 244 18200582601938556554
150020 26 17759256475695686235
15721738 202 17558249176234731959
161222 619 18124867109078163708
19315092 285 17127033987432953263
20600515 1 18041851712820586593
20764821 26 18117290151075352218
21795232 40 17836079344660487776
3027735 51 18261664866354802289
35225 105 17193179082251743433
392239 28 18200861968260281862
469060 322 17632284701411890440
4742675 86 18341890771372938184
50150288 127 17630060255775395897

>  <PUBCHEM_SHAPE_MULTIPOLES>  (1) 
632.1
10.01
5.2
3.67
10.64
2.18
-0.39
-3.1
-0.02
-1.93
2.4
-2.97
1.19
1.26

>  <PUBCHEM_SHAPE_SELFOVERLAP>  (1) 
1218.111

>  <PUBCHEM_SHAPE_VOLUME>  (1) 
386.4

>  <PUBCHEM_COORDINATE_TYPE>  (1) 
2
5
10

$$$$
