6930
     RDKit          3D

 19 20  0  0  0  0  0  0  0  0999 V2000
    3.6836    1.2355    0.9689 O   0  0  0  0  0  0  0  0  0  0  0  0
   -2.2210   -1.3958   -0.1299 C   0  0  0  0  0  0  0  0  0  0  0  0
   -1.8974    1.6323    0.1746 C   0  0  0  0  0  0  0  0  0  0  0  0
   -3.3593   -0.3762   -0.3564 C   0  0  0  0  0  0  0  0  0  0  0  0
   -3.1945    0.8623    0.5081 C   0  0  0  0  0  0  0  0  0  0  0  0
   -0.8469   -0.7141   -0.1090 C   0  0  0  0  0  0  0  0  0  0  0  0
   -0.6968    0.6869    0.0403 C   0  0  0  0  0  0  0  0  0  0  0  0
   -2.4310   -2.1277    1.2142 C   0  0  0  0  0  0  0  0  0  0  0  0
   -2.3321   -2.4348   -1.2712 C   0  0  0  0  0  0  0  0  0  0  0  0
   -2.0710    2.4038   -1.1525 C   0  0  0  0  0  0  0  0  0  0  0  0
   -1.6962    2.6618    1.3123 C   0  0  0  0  0  0  0  0  0  0  0  0
    0.3167   -1.5101   -0.2038 C   0  0  0  0  0  0  0  0  0  0  0  0
    0.6075    1.2302    0.0261 C   0  0  0  0  0  0  0  0  0  0  0  0
    1.5926   -0.9497   -0.1956 C   0  0  0  0  0  0  0  0  0  0  0  0
    1.7379    0.4233   -0.0887 C   0  0  0  0  0  0  0  0  0  0  0  0
    2.7804   -1.8489   -0.3058 C   0  0  0  0  0  0  0  0  0  0  0  0
    3.0543    1.0472   -0.0899 C   0  0  0  0  0  0  0  0  0  0  0  0
    3.2803   -2.3124    1.0600 C   0  0  0  0  0  0  0  0  0  0  0  0
    3.6929    1.4864   -1.4017 C   0  0  0  0  0  0  0  0  0  0  0  0
  1 17  2  0
  2  4  1  0
  2  6  1  0
  2  8  1  0
  2  9  1  0
  3  5  1  0
  3  7  1  0
  3 10  1  0
  3 11  1  0
  4  5  1  0
  6  7  2  0
  6 12  1  0
  7 13  1  0
 12 14  2  0
 13 15  2  0
 14 15  1  0
 14 16  1  0
 15 17  1  0
 16 18  1  0
 17 19  1  0
M  END
>  <PUBCHEM_COMPOUND_CID>  (1) 
6930

>  <PUBCHEM_CONFORMER_RMSD>  (1) 
0.6

>  <PUBCHEM_CONFORMER_DIVERSEORDER>  (1) 
1
2
4
3

>  <PUBCHEM_MMFF94_PARTIAL_CHARGES>  (1) 
14
1 -0.57
12 -0.15
13 -0.15
14 -0.14
15 0.09
16 0.14
17 0.42
19 0.06
2 0.14
3 0.14
36 0.15
37 0.15
6 -0.14
7 -0.14

>  <PUBCHEM_EFFECTIVE_ROTOR_COUNT>  (1) 
2.8

>  <PUBCHEM_PHARMACOPHORE_FEATURES>  (1) 
6
1 1 acceptor
1 18 hydrophobe
3 2 8 9 hydrophobe
3 3 10 11 hydrophobe
6 2 3 4 5 6 7 rings
6 6 7 12 13 14 15 rings

>  <PUBCHEM_HEAVY_ATOM_COUNT>  (1) 
19

>  <PUBCHEM_ATOM_DEF_STEREO_COUNT>  (1) 
0

>  <PUBCHEM_ATOM_UDEF_STEREO_COUNT>  (1) 
0

>  <PUBCHEM_BOND_DEF_STEREO_COUNT>  (1) 
0

>  <PUBCHEM_BOND_UDEF_STEREO_COUNT>  (1) 
0

>  <PUBCHEM_ISOTOPIC_ATOM_COUNT>  (1) 
0

>  <PUBCHEM_COMPONENT_COUNT>  (1) 
1

>  <PUBCHEM_CACTVS_TAUTO_COUNT>  (1) 
2

>  <PUBCHEM_CONFORMER_ID>  (1) 
00001B1200000001

>  <PUBCHEM_MMFF94_ENERGY>  (1) 
66.9312

>  <PUBCHEM_FEATURE_SELFOVERLAP>  (1) 
30.465

>  <PUBCHEM_SHAPE_FINGERPRINT>  (1) 
10608611 8 18411416176862353388
10616163 171 18411986887853372694
10756046 5 18338241466431535302
10759866 29 18333739022123889436
10967382 1 18412545448323564261
11132069 177 18200594833688982328
11578080 2 17273676845218891483
12173636 292 18129384800292895509
12403814 3 18113057142978090197
12553582 1 18124316270489405271
13027679 85 18199473353936665569
13140716 1 18339081467339623954
13380535 21 18339655468212268508
13583140 156 17387140758125615265
14081887 123 18201707496591125696
14178342 30 18411412921593907840
14223421 5 18410572911678730504
14614273 12 18335133198446659989
14787075 74 17625818645227417528
15196674 1 18411419484472214613
15442244 35 18266457607770808370
15490181 8 17911530800311578877
15536298 74 18342457019919440278
16945 1 18194684988849376982
17492 89 18410007719558221810
17804303 29 18194968435474708254
18186145 218 18196095447593483868
19868273 325 18198621236419146799
20510252 161 18198349657073875728
20525323 117 18410291457976389707
20600515 1 17765994996495731266
21501502 16 18411139108511415502
21524375 3 18050006589217361429
2255824 54 18114188489024705378
23184049 29 18410571764901714234
2334 1 18410857659409977710
23366157 5 17968099694920215686
23388829 49 18195806499252027597
23402539 116 18197211662681214708
23419403 2 16318002181273083883
23463225 33 18337108973623253286
23557571 272 18128552624176306510
23558518 356 18335702689492594843
23559900 14 18339354172183136834
25147074 1 18410012109298699422
2748010 2 18340772559098930766
312423 11 18409456864321753086
3312278 4 18337115690804424219
34934 24 18341607178777059263
350125 39 18266466412073930953
352729 6 18198626523481625047
5104073 3 18411422778559261227
69090 78 18340200783272468095
7097593 13 18119521047115117314
7364860 26 18343302527271151102
74978 22 18265051332277375118
81228 2 18408325510043600713
9709674 26 18412265008418654478

>  <PUBCHEM_SHAPE_MULTIPOLES>  (1) 
385.14
6.32
3.17
1.17
3.62
0.16
0.01
-0.09
-0.04
-0.71
-0.14
-0.04
-0.09
-0.81

>  <PUBCHEM_SHAPE_SELFOVERLAP>  (1) 
806.013

>  <PUBCHEM_SHAPE_VOLUME>  (1) 
220.5

>  <PUBCHEM_COORDINATE_TYPE>  (1) 
2
5
10

$$$$
