6937
     RDKit          3D

 12 12  0  0  0  0  0  0  0  0999 V2000
   -0.4425   -2.1974   -0.0111 O   0  0  0  0  0  0  0  0  0  0  0  0
   -1.9120    0.2523   -0.0006 C   0  0  0  0  0  0  0  0  0  0  0  0
   -0.3753    0.1977   -0.0020 C   0  0  0  0  0  0  0  0  0  0  0  0
   -2.3795    1.7238    0.0052 C   0  0  0  0  0  0  0  0  0  0  0  0
   -2.4560   -0.4583    1.2578 C   0  0  0  0  0  0  0  0  0  0  0  0
   -2.5628   -0.4284   -1.2259 C   0  0  0  0  0  0  0  0  0  0  0  0
    0.2501   -1.0241   -0.0071 C   0  0  0  0  0  0  0  0  0  0  0  0
    0.3048    1.3913    0.0019 C   0  0  0  0  0  0  0  0  0  0  0  0
    1.6446   -1.0556   -0.0084 C   0  0  0  0  0  0  0  0  0  0  0  0
    2.3691    0.1363   -0.0045 C   0  0  0  0  0  0  0  0  0  0  0  0
    1.6993    1.3597    0.0006 C   0  0  0  0  0  0  0  0  0  0  0  0
    3.8600    0.1029   -0.0058 C   0  0  0  0  0  0  0  0  0  0  0  0
  1  7  1  0
  2  3  1  0
  2  4  1  0
  2  5  1  0
  2  6  1  0
  3  7  2  0
  3  8  1  0
  7  9  1  0
  8 11  2  0
  9 10  2  0
 10 11  1  0
 10 12  1  0
M  END
>  <PUBCHEM_COMPOUND_CID>  (1) 
6937

>  <PUBCHEM_CONFORMER_RMSD>  (1) 
0.4

>  <PUBCHEM_CONFORMER_DIVERSEORDER>  (1) 
1
2

>  <PUBCHEM_MMFF94_PARTIAL_CHARGES>  (1) 
13
1 -0.53
10 -0.14
11 -0.15
12 0.14
2 0.14
22 0.15
23 0.15
24 0.15
28 0.45
3 -0.14
7 0.08
8 -0.15
9 -0.15

>  <PUBCHEM_EFFECTIVE_ROTOR_COUNT>  (1) 
1

>  <PUBCHEM_PHARMACOPHORE_FEATURES>  (1) 
3
1 1 donor
4 2 4 5 6 hydrophobe
6 3 7 8 9 10 11 rings

>  <PUBCHEM_HEAVY_ATOM_COUNT>  (1) 
12

>  <PUBCHEM_ATOM_DEF_STEREO_COUNT>  (1) 
0

>  <PUBCHEM_ATOM_UDEF_STEREO_COUNT>  (1) 
0

>  <PUBCHEM_BOND_DEF_STEREO_COUNT>  (1) 
0

>  <PUBCHEM_BOND_UDEF_STEREO_COUNT>  (1) 
0

>  <PUBCHEM_ISOTOPIC_ATOM_COUNT>  (1) 
0

>  <PUBCHEM_COMPONENT_COUNT>  (1) 
1

>  <PUBCHEM_CACTVS_TAUTO_COUNT>  (1) 
9

>  <PUBCHEM_CONFORMER_ID>  (1) 
00001B1900000001

>  <PUBCHEM_MMFF94_ENERGY>  (1) 
45.5292

>  <PUBCHEM_FEATURE_SELFOVERLAP>  (1) 
15.223

>  <PUBCHEM_SHAPE_FINGERPRINT>  (1) 
11206711 2 18410288107902152669
12032990 46 18409740542948762106
12138202 97 17313089865834590935
124424 183 17821997697410934000
12932764 1 17988924465902332728
13024252 1 12901543550938123581
13380535 76 18262516971039679401
14325111 11 18411136918262801764
14993402 34 18409724075869855316
15775835 57 18202283576354424921
16945 1 18410856602826832866
17844478 74 18114758112882206897
193761 8 17762337315966940300
21040471 1 18410575110686161732
23235685 24 18410571773401692184
2334 1 18338798888603667178
23402539 116 18270950323571002621
23402655 69 18196357140510317045
23463225 33 18262515875954874770
23559900 14 18343305860761592628
241688 4 16033515242855915579
25 1 18044644313905903005
2748010 2 18266463096580536334
369184 2 17775565351202804377
5084963 1 18060131080889956985
528886 8 18338230475188296305
53812653 166 18341329998630624712
63268167 104 18272369715788913120

>  <PUBCHEM_SHAPE_MULTIPOLES>  (1) 
241.09
4.75
1.71
0.87
2.25
0.1
-0.01
-0.52
0.05
-0.32
0
-0.66
0.12
0

>  <PUBCHEM_SHAPE_SELFOVERLAP>  (1) 
498.565

>  <PUBCHEM_SHAPE_VOLUME>  (1) 
140.8

>  <PUBCHEM_COORDINATE_TYPE>  (1) 
2
5
10

$$$$
