6942
     RDKit          3D

 10 10  0  0  0  0  0  0  0  0999 V2000
    2.3498    0.3108    1.1187 O   0  0  0  0  0  0  0  0  0  0  0  0
    0.3129   -2.2030    0.0032 N   0  0  0  0  0  0  0  0  0  0  0  0
    2.3850    0.3475   -1.1740 N   0  0  0  0  0  0  0  0  0  0  0  0
    0.2660    0.2388    0.0235 C   0  0  0  0  0  0  0  0  0  0  0  0
   -0.4028   -0.9850    0.0019 C   0  0  0  0  0  0  0  0  0  0  0  0
   -0.4594    1.4302    0.0224 C   0  0  0  0  0  0  0  0  0  0  0  0
   -1.7971   -1.0175   -0.0208 C   0  0  0  0  0  0  0  0  0  0  0  0
   -1.8537    1.3978   -0.0003 C   0  0  0  0  0  0  0  0  0  0  0  0
   -2.5226    0.1739   -0.0220 C   0  0  0  0  0  0  0  0  0  0  0  0
    1.7218    0.3067    0.0474 C   0  0  0  0  0  0  0  0  0  0  0  0
  1 10  2  0
  2  5  1  0
  3 10  1  0
  4  5  2  0
  4  6  1  0
  4 10  1  0
  5  7  1  0
  6  8  2  0
  7  9  2  0
  8  9  1  0
M  END
>  <PUBCHEM_COMPOUND_CID>  (1) 
6942

>  <PUBCHEM_CONFORMER_RMSD>  (1) 
0.4

>  <PUBCHEM_CONFORMER_DIVERSEORDER>  (1) 
1
3
2

>  <PUBCHEM_MMFF94_PARTIAL_CHARGES>  (1) 
18
1 -0.57
10 0.54
11 0.15
12 0.15
13 0.15
14 0.15
15 0.4
16 0.4
17 0.37
18 0.37
2 -0.9
3 -0.8
4 0.09
5 0.1
6 -0.15
7 -0.15
8 -0.15
9 -0.15

>  <PUBCHEM_EFFECTIVE_ROTOR_COUNT>  (1) 
1

>  <PUBCHEM_PHARMACOPHORE_FEATURES>  (1) 
5
1 1 acceptor
1 2 cation
1 2 donor
1 3 donor
6 4 5 6 7 8 9 rings

>  <PUBCHEM_HEAVY_ATOM_COUNT>  (1) 
10

>  <PUBCHEM_ATOM_DEF_STEREO_COUNT>  (1) 
0

>  <PUBCHEM_ATOM_UDEF_STEREO_COUNT>  (1) 
0

>  <PUBCHEM_BOND_DEF_STEREO_COUNT>  (1) 
0

>  <PUBCHEM_BOND_UDEF_STEREO_COUNT>  (1) 
0

>  <PUBCHEM_ISOTOPIC_ATOM_COUNT>  (1) 
0

>  <PUBCHEM_COMPONENT_COUNT>  (1) 
1

>  <PUBCHEM_CACTVS_TAUTO_COUNT>  (1) 
5

>  <PUBCHEM_CONFORMER_ID>  (1) 
00001B1E00000001

>  <PUBCHEM_MMFF94_ENERGY>  (1) 
42.0596

>  <PUBCHEM_FEATURE_SELFOVERLAP>  (1) 
25.371

>  <PUBCHEM_SHAPE_FINGERPRINT>  (1) 
10857977 72 18340761654235040489
12423570 1 17824816750445464969
15310529 11 16732979868508050101
16945 1 18410855469108544969
20645464 45 17988634242282936168
21040471 1 18338797814635119785
23235685 24 18408326566436724373
23552423 10 18189058585955085135
2748010 2 18121502354261913221
29004967 10 16272211907217015360
369184 2 18130776880370029384
5084963 1 18202012031157375868

>  <PUBCHEM_SHAPE_MULTIPOLES>  (1) 
189.96
3.25
1.67
0.8
0.58
0.57
0.02
-0.6
0.07
-0.43
0
0.48
-0.08
-0.02

>  <PUBCHEM_SHAPE_SELFOVERLAP>  (1) 
398.41

>  <PUBCHEM_SHAPE_VOLUME>  (1) 
107.5

>  <PUBCHEM_COORDINATE_TYPE>  (1) 
2
5
10

$$$$
