695
     RDKit          3D

 13 12  0  0  1  0  0  0  0  0999 V2000
    2.5113    0.1299   -0.1154 P   0  0  0  0  0  0  0  0  0  0  0  0
    1.2490   -0.7392   -0.6264 O   0  0  0  0  0  0  0  0  0  0  0  0
   -1.9409   -1.9164    0.6971 O   0  0  0  0  0  0  0  0  0  0  0  0
   -2.8764   -0.2101   -1.2884 O   0  0  0  0  0  0  0  0  0  0  0  0
    3.2316   -0.8340    0.9648 O   0  0  0  0  0  0  0  0  0  0  0  0
    1.8135    1.2626    0.8040 O   0  0  0  0  0  0  0  0  0  0  0  0
   -2.3882    0.9203    1.2610 O   0  0  0  0  0  0  0  0  0  0  0  0
   -1.0733    2.2208   -0.0756 O   0  0  0  0  0  0  0  0  0  0  0  0
    3.4035    0.6562   -1.2014 O   0  0  0  0  0  0  0  0  0  0  0  0
   -1.0365   -1.3662   -0.2625 C   0  0  0  0  0  0  0  0  0  0  0  0
    0.3577   -1.2716    0.3489 C   0  0  0  0  0  0  0  0  0  0  0  0
   -1.5676   -0.0147   -0.7441 C   0  0  0  0  0  0  0  0  0  0  0  0
   -1.6836    1.1626    0.2380 C   0  0  0  0  0  0  0  0  0  0  0  0
  1  2  1  0
  1  5  1  0
  1  6  1  0
  1  9  2  0
  2 11  1  0
  3 10  1  0
  4 12  1  0
  7 13  1  0
  8 13  2  0
 10 11  1  0
 10 12  1  0
 12 13  1  0
M  CHG  1   7  -1
M  END
>  <PUBCHEM_COMPOUND_CID>  (1) 
695

>  <PUBCHEM_CONFORMER_RMSD>  (1) 
0.6

>  <PUBCHEM_CONFORMER_DIVERSEORDER>  (1) 
6
17
129
94
111
117
110
34
19
103
141
31
98
139
87
4
121
15
138
136
13
140
64
125
73
128
36
77
118
37
133
33
112
38
49
3
81
28
134
92
74
43
113
135
124
42
68
39
114
53
35
122
32
101
40
76
123
11
131
45
16
89
93
25
67
99
83
72
46
78
142
50
82
104
96
109
58
29
145
22
57
23
105
132
56
107
24
61
130
108
106
90
127
137
10
60
18
69
143
2
126
52
8
12
84
51
54
27
48
70
119
7
95
65
91
144
9
75
86
21
97
1
85
30
55
116
79
71
44
47
62
115
26
5
88
14
100
66
102
80
63
59
120
20
41

>  <PUBCHEM_MMFF94_PARTIAL_CHARGES>  (1) 
17
1 1.51
10 0.28
11 0.28
12 0.17
13 0.91
18 0.4
19 0.4
2 -0.55
20 0.5
21 0.5
3 -0.68
4 -0.68
5 -0.77
6 -0.77
7 -0.9
8 -0.9
9 -0.7

>  <PUBCHEM_EFFECTIVE_ROTOR_COUNT>  (1) 
5

>  <PUBCHEM_PHARMACOPHORE_FEATURES>  (1) 
11
1 3 acceptor
1 3 donor
1 4 acceptor
1 4 donor
1 5 acceptor
1 6 acceptor
1 7 acceptor
1 8 acceptor
1 9 acceptor
3 7 8 13 anion
4 1 5 6 9 anion

>  <PUBCHEM_HEAVY_ATOM_COUNT>  (1) 
13

>  <PUBCHEM_ATOM_DEF_STEREO_COUNT>  (1) 
0

>  <PUBCHEM_ATOM_UDEF_STEREO_COUNT>  (1) 
2

>  <PUBCHEM_BOND_DEF_STEREO_COUNT>  (1) 
0

>  <PUBCHEM_BOND_UDEF_STEREO_COUNT>  (1) 
0

>  <PUBCHEM_ISOTOPIC_ATOM_COUNT>  (1) 
0

>  <PUBCHEM_COMPONENT_COUNT>  (1) 
1

>  <PUBCHEM_CACTVS_TAUTO_COUNT>  (1) 
1

>  <PUBCHEM_CONFORMER_ID>  (1) 
000002B700000006

>  <PUBCHEM_MMFF94_ENERGY>  (1) 
-10.2466

>  <PUBCHEM_FEATURE_SELFOVERLAP>  (1) 
55.93

>  <PUBCHEM_SHAPE_FINGERPRINT>  (1) 
100427 49 18054503874979127713
12897270 3 18130498721113391623
12932764 1 17131839767747345830
13764800 53 18337124418119928147
15775835 57 18341336578378110152
16945 1 18413107251394175446
19973954 147 18341330093235663712
20653085 51 17274830129251682747
20828058 34 18409166618958092054
21028194 46 18339632356824437222
21524375 3 18196933258421315589
22802520 49 18201456760964163238
23402539 116 18058425716938793991
23557571 272 17842828099823617906
2748010 2 18052529160437520301
305870 269 17975126548377537866
3248919 1 18410571773639290078
369184 2 16370443358437559359
5084963 1 17968084331189156230
66348 1 18341045336687927408
8030462 33 18411976979527253702

>  <PUBCHEM_SHAPE_MULTIPOLES>  (1) 
224.43
4.84
1.84
1.1
3.08
0.2
-0.05
0.43
-0.36
-0.8
0.33
-0.07
0.05
-0.34

>  <PUBCHEM_SHAPE_SELFOVERLAP>  (1) 
419.717

>  <PUBCHEM_SHAPE_VOLUME>  (1) 
140.4

>  <PUBCHEM_COORDINATE_TYPE>  (1) 
2
5
10

$$$$
