6955
     RDKit          3D

 12 12  0  0  0  0  0  0  0  0999 V2000
    2.1770    1.5281    1.4735 Cl  0  0  0  0  0  0  0  0  0  0  0  0
    0.5617   -3.2083    0.5646 Cl  0  0  0  0  0  0  0  0  0  0  0  0
    1.8209    1.5217   -1.1282 O   0  0  0  0  0  0  0  0  0  0  0  0
    1.8076   -1.2697   -0.6945 O   0  0  0  0  0  0  0  0  0  0  0  0
   -0.0816    0.7530   -0.0211 C   0  0  0  0  0  0  0  0  0  0  0  0
   -0.3418   -0.6166   -0.0701 C   0  0  0  0  0  0  0  0  0  0  0  0
   -1.1381    1.6618    0.0411 C   0  0  0  0  0  0  0  0  0  0  0  0
   -1.6585   -1.0772   -0.0569 C   0  0  0  0  0  0  0  0  0  0  0  0
   -2.4546    1.2010    0.0541 C   0  0  0  0  0  0  0  0  0  0  0  0
   -2.7148   -0.1684    0.0051 C   0  0  0  0  0  0  0  0  0  0  0  0
    1.2824    1.2653   -0.0325 C   0  0  0  0  0  0  0  0  0  0  0  0
    0.7398   -1.5908   -0.1351 C   0  0  0  0  0  0  0  0  0  0  0  0
  1 11  1  0
  2 12  1  0
  3 11  2  0
  4 12  2  0
  5  6  2  0
  5  7  1  0
  5 11  1  0
  6  8  1  0
  6 12  1  0
  7  9  2  0
  8 10  2  0
  9 10  1  0
M  END
>  <PUBCHEM_COMPOUND_CID>  (1) 
6955

>  <PUBCHEM_CONFORMER_RMSD>  (1) 
0.6

>  <PUBCHEM_CONFORMER_DIVERSEORDER>  (1) 
1
6
4
5
7
3
8
2

>  <PUBCHEM_MMFF94_PARTIAL_CHARGES>  (1) 
16
1 -0.21
10 -0.15
11 0.69
12 0.69
13 0.15
14 0.15
15 0.15
16 0.15
2 -0.21
3 -0.57
4 -0.57
5 0.09
6 0.09
7 -0.15
8 -0.15
9 -0.15

>  <PUBCHEM_EFFECTIVE_ROTOR_COUNT>  (1) 
2

>  <PUBCHEM_PHARMACOPHORE_FEATURES>  (1) 
1
6 5 6 7 8 9 10 rings

>  <PUBCHEM_HEAVY_ATOM_COUNT>  (1) 
12

>  <PUBCHEM_ATOM_DEF_STEREO_COUNT>  (1) 
0

>  <PUBCHEM_ATOM_UDEF_STEREO_COUNT>  (1) 
0

>  <PUBCHEM_BOND_DEF_STEREO_COUNT>  (1) 
0

>  <PUBCHEM_BOND_UDEF_STEREO_COUNT>  (1) 
0

>  <PUBCHEM_ISOTOPIC_ATOM_COUNT>  (1) 
0

>  <PUBCHEM_COMPONENT_COUNT>  (1) 
1

>  <PUBCHEM_CACTVS_TAUTO_COUNT>  (1) 
1

>  <PUBCHEM_CONFORMER_ID>  (1) 
00001B2B00000001

>  <PUBCHEM_MMFF94_ENERGY>  (1) 
41.0089

>  <PUBCHEM_FEATURE_SELFOVERLAP>  (1) 
5.074

>  <PUBCHEM_SHAPE_FINGERPRINT>  (1) 
12524768 44 17622447142996913823
14817 1 10156363011120122940
16945 1 18118699715970213477
18185500 45 17832434098346472023
193761 8 18338516327137374199
20511035 2 18197213655403705957
20645476 183 17679582512967083524
20871998 184 17335057244779211232
21040471 1 18267024053468815012
22344851 341 18341610399759918955
2334 1 18266744760604639455
23419403 2 17181047109193943412
23552423 10 18336270046288125151
241688 4 17543350453889782939
2748010 2 18337679710342001791
5084963 1 18129115582756832029
53812653 166 18268427932322771024
53812654 25 17691957168561610143
7364860 26 18200589190101929395
81228 2 17547852309739553043

>  <PUBCHEM_SHAPE_MULTIPOLES>  (1) 
238.96
3.19
2.94
0.94
1.07
2.27
0.1
-1.26
0.3
-1.2
0.47
-0.63
-0.26
0.2

>  <PUBCHEM_SHAPE_SELFOVERLAP>  (1) 
484.861

>  <PUBCHEM_SHAPE_VOLUME>  (1) 
136.9

>  <PUBCHEM_COORDINATE_TYPE>  (1) 
2
5
10

$$$$
