6958
     RDKit          3D

 12 12  0  0  0  0  0  0  0  0999 V2000
    0.3970   -2.7477    0.5812 O   0  0  0  0  0  0  0  0  0  0  0  0
    1.7335    1.4607    1.2702 O   0  0  0  0  0  0  0  0  0  0  0  0
    1.9384   -1.4623   -0.5151 O   0  0  0  0  0  0  0  0  0  0  0  0
    1.9699    1.5843   -1.0012 O   0  0  0  0  0  0  0  0  0  0  0  0
   -2.7115   -0.1900   -0.4421 C   0  0  0  0  0  0  0  0  0  0  0  0
   -2.4982    1.1129    0.3148 C   0  0  0  0  0  0  0  0  0  0  0  0
   -1.6283   -1.2085   -0.0856 C   0  0  0  0  0  0  0  0  0  0  0  0
   -1.1306    1.7128   -0.0123 C   0  0  0  0  0  0  0  0  0  0  0  0
   -0.2361   -0.6259   -0.0433 C   0  0  0  0  0  0  0  0  0  0  0  0
   -0.0097    0.7013   -0.0253 C   0  0  0  0  0  0  0  0  0  0  0  0
    0.8378   -1.6343   -0.0348 C   0  0  0  0  0  0  0  0  0  0  0  0
    1.3378    1.2967   -0.0066 C   0  0  0  0  0  0  0  0  0  0  0  0
  1 11  1  0
  2 12  1  0
  3 11  2  0
  4 12  2  0
  5  6  1  0
  5  7  1  0
  6  8  1  0
  7  9  1  0
  8 10  1  0
  9 10  2  0
  9 11  1  0
 10 12  1  0
M  END
>  <PUBCHEM_COMPOUND_CID>  (1) 
6958

>  <PUBCHEM_CONFORMER_RMSD>  (1) 
0.6

>  <PUBCHEM_CONFORMER_DIVERSEORDER>  (1) 
1
2

>  <PUBCHEM_MMFF94_PARTIAL_CHARGES>  (1) 
12
1 -0.65
10 -0.12
11 0.71
12 0.71
2 -0.65
21 0.5
22 0.5
3 -0.57
4 -0.57
7 0.14
8 0.14
9 -0.12

>  <PUBCHEM_EFFECTIVE_ROTOR_COUNT>  (1) 
2.8

>  <PUBCHEM_PHARMACOPHORE_FEATURES>  (1) 
7
1 1 acceptor
1 2 acceptor
1 3 acceptor
1 4 acceptor
3 1 3 11 anion
3 2 4 12 anion
6 5 6 7 8 9 10 rings

>  <PUBCHEM_HEAVY_ATOM_COUNT>  (1) 
12

>  <PUBCHEM_ATOM_DEF_STEREO_COUNT>  (1) 
0

>  <PUBCHEM_ATOM_UDEF_STEREO_COUNT>  (1) 
0

>  <PUBCHEM_BOND_DEF_STEREO_COUNT>  (1) 
0

>  <PUBCHEM_BOND_UDEF_STEREO_COUNT>  (1) 
0

>  <PUBCHEM_ISOTOPIC_ATOM_COUNT>  (1) 
0

>  <PUBCHEM_COMPONENT_COUNT>  (1) 
1

>  <PUBCHEM_CACTVS_TAUTO_COUNT>  (1) 
1

>  <PUBCHEM_CONFORMER_ID>  (1) 
00001B2E00000001

>  <PUBCHEM_MMFF94_ENERGY>  (1) 
21.2224

>  <PUBCHEM_FEATURE_SELFOVERLAP>  (1) 
35.631

>  <PUBCHEM_SHAPE_FINGERPRINT>  (1) 
12423570 1 11102422483807928616
14128692 85 18199751332192455029
161256 15 18338796711044887093
16945 1 18191031097046217663
18185500 45 17905050244291303623
193761 8 18410855426164107807
20511035 2 18197772207337009373
20871998 184 17405709667183185068
21040471 1 18194399120036680980
2334 1 18338517563993250271
23419403 2 15606988577952048759
23552423 10 18336547127513259509
241688 4 17688023111572438961
2748010 2 18337676420381254775
5084963 1 17842574103789113225
66348 1 17979070483790846735
7364860 26 18201715111483472095

>  <PUBCHEM_SHAPE_MULTIPOLES>  (1) 
223.48
3.12
2.53
0.82
1.29
0.81
0.06
-0.53
-0.23
-1.03
0.25
-0.26
-0.2
-0.09

>  <PUBCHEM_SHAPE_SELFOVERLAP>  (1) 
460.721

>  <PUBCHEM_SHAPE_VOLUME>  (1) 
126.7

>  <PUBCHEM_COORDINATE_TYPE>  (1) 
2
5
10

$$$$
