6959
     RDKit          3D

 16 16  0  0  0  0  0  0  0  0999 V2000
    2.4958    0.8889    0.0732 S   0  0  0  0  0  0  0  0  0  0  0  0
    3.0179    0.4455   -1.4096 O   0  0  0  0  0  0  0  0  0  0  0  0
    2.7210    2.3199    0.1960 O   0  0  0  0  0  0  0  0  0  0  0  0
    3.0464   -0.0394    1.0459 O   0  0  0  0  0  0  0  0  0  0  0  0
    0.5206   -2.9514   -0.0108 O   0  0  0  0  0  0  0  0  0  0  0  0
    2.3003   -1.6669    0.0305 O   0  0  0  0  0  0  0  0  0  0  0  0
   -4.1516    1.1107   -0.0109 O   0  0  0  0  0  0  0  0  0  0  0  0
   -3.8788   -1.0674   -0.0444 O   0  0  0  0  0  0  0  0  0  0  0  0
    1.0562   -1.8183    0.0118 N   0  0  0  0  0  0  0  0  0  0  0  0
   -3.4121    0.0970   -0.0188 N   0  0  0  0  0  0  0  0  0  0  0  0
    0.7646    0.6206    0.0441 C   0  0  0  0  0  0  0  0  0  0  0  0
    0.2234   -0.6648    0.0160 C   0  0  0  0  0  0  0  0  0  0  0  0
   -0.0781    1.7321    0.0509 C   0  0  0  0  0  0  0  0  0  0  0  0
   -1.1605   -0.8384   -0.0053 C   0  0  0  0  0  0  0  0  0  0  0  0
   -2.0031    0.2733    0.0016 C   0  0  0  0  0  0  0  0  0  0  0  0
   -1.4619    1.5585    0.0297 C   0  0  0  0  0  0  0  0  0  0  0  0
  1  2  1  0
  1  3  2  0
  1  4  2  0
  1 11  1  0
  5  9  1  0
  6  9  2  0
  7 10  1  0
  8 10  2  0
  9 12  1  0
 10 15  1  0
 11 12  2  0
 11 13  1  0
 12 14  1  0
 13 16  2  0
 14 15  2  0
 15 16  1  0
M  CHG  4   5  -1   7  -1   9   1  10   1
M  END
>  <PUBCHEM_COMPOUND_CID>  (1) 
6959

>  <PUBCHEM_CONFORMER_RMSD>  (1) 
0.6

>  <PUBCHEM_CONFORMER_DIVERSEORDER>  (1) 
1

>  <PUBCHEM_MMFF94_PARTIAL_CHARGES>  (1) 
20
1 1.49
10 0.91
11 -0.01
12 0.13
13 -0.15
14 -0.15
15 0.13
16 -0.15
17 0.15
18 0.15
19 0.15
2 -0.68
20 0.5
3 -0.65
4 -0.65
5 -0.52
6 -0.52
7 -0.52
8 -0.52
9 0.91

>  <PUBCHEM_EFFECTIVE_ROTOR_COUNT>  (1) 
3

>  <PUBCHEM_PHARMACOPHORE_FEATURES>  (1) 
11
1 2 acceptor
1 3 acceptor
1 4 acceptor
1 5 acceptor
1 5 anion
1 6 acceptor
1 7 acceptor
1 7 anion
1 8 acceptor
4 1 2 3 4 anion
6 11 12 13 14 15 16 rings

>  <PUBCHEM_HEAVY_ATOM_COUNT>  (1) 
16

>  <PUBCHEM_ATOM_DEF_STEREO_COUNT>  (1) 
0

>  <PUBCHEM_ATOM_UDEF_STEREO_COUNT>  (1) 
0

>  <PUBCHEM_BOND_DEF_STEREO_COUNT>  (1) 
0

>  <PUBCHEM_BOND_UDEF_STEREO_COUNT>  (1) 
0

>  <PUBCHEM_ISOTOPIC_ATOM_COUNT>  (1) 
0

>  <PUBCHEM_COMPONENT_COUNT>  (1) 
1

>  <PUBCHEM_CACTVS_TAUTO_COUNT>  (1) 
1

>  <PUBCHEM_CONFORMER_ID>  (1) 
00001B2F00000001

>  <PUBCHEM_MMFF94_ENERGY>  (1) 
66.7114

>  <PUBCHEM_FEATURE_SELFOVERLAP>  (1) 
56.201

>  <PUBCHEM_SHAPE_FINGERPRINT>  (1) 
10608611 8 18335978671464973429
10967382 1 18338796831061196305
10980938 120 18410855438964652643
11132069 177 18411129238724022785
11471102 20 18338510846637947749
13380535 76 18335980943249381107
13380536 305 18411423929573682804
13897977 150 18410008862155814981
14178342 30 18124869067266629544
14251717 144 18411692201731241847
14325111 11 18410572924590246473
15219456 202 18262791853241746733
15442244 35 17908706133612847977
15536298 74 18272368629178056778
15775835 57 18341612654733800056
16945 1 18411419483844707545
18186145 218 18342462555684190773
193761 8 17978791207790243697
20559304 39 18337669711731781856
20645476 183 17823429381788322838
20645477 70 18341326687759426831
21501502 16 18194126217915082393
2334 1 17906733953096774241
23402539 116 18272079556895082996
23463225 33 18335133185350566472
23552423 10 18191590744064332211
23559900 14 18266170630603602354
2748010 2 18050009088392559465
3071541 250 18125169229471789486
449060 62 18341897363857762449
4990 188 17988373623472242748
528886 8 18411132575739486440
53812653 166 18343297106373551329
581208 293 18413383245997949633
633830 44 18273219720129963397
7364860 26 18270117890358651638

>  <PUBCHEM_SHAPE_MULTIPOLES>  (1) 
282.07
5.72
2.34
0.73
3.82
0.94
-0.08
-1.11
-0.11
-0.88
0.06
-0.5
-0.06
-0.05

>  <PUBCHEM_SHAPE_SELFOVERLAP>  (1) 
592.158

>  <PUBCHEM_SHAPE_VOLUME>  (1) 
159.8

>  <PUBCHEM_COORDINATE_TYPE>  (1) 
2
5
10

$$$$
