6974
     RDKit          3D

 11 11  0  0  0  0  0  0  0  0999 V2000
    1.8292   -2.0768    0.0001 O   0  0  0  0  0  0  0  0  0  0  0  0
    2.7776   -0.0970   -0.0004 O   0  0  0  0  0  0  0  0  0  0  0  0
    1.7571   -0.8252    0.0000 N   0  0  0  0  0  0  0  0  0  0  0  0
    0.3445    1.1781   -0.0001 C   0  0  0  0  0  0  0  0  0  0  0  0
    0.4744   -0.2108    0.0001 C   0  0  0  0  0  0  0  0  0  0  0  0
   -1.9310   -0.4359   -0.0001 C   0  0  0  0  0  0  0  0  0  0  0  0
   -0.6633   -1.0177    0.0000 C   0  0  0  0  0  0  0  0  0  0  0  0
   -0.9232    1.7599   -0.0002 C   0  0  0  0  0  0  0  0  0  0  0  0
   -2.0611    0.9529   -0.0003 C   0  0  0  0  0  0  0  0  0  0  0  0
    1.5430    2.0715    0.0006 C   0  0  0  0  0  0  0  0  0  0  0  0
   -3.1473   -1.2990    0.0003 C   0  0  0  0  0  0  0  0  0  0  0  0
  1  3  1  0
  2  3  2  0
  3  5  1  0
  4  5  2  0
  4  8  1  0
  4 10  1  0
  5  7  1  0
  6  7  2  0
  6  9  1  0
  6 11  1  0
  8  9  2  0
M  CHG  2   1  -1   3   1
M  END
>  <PUBCHEM_COMPOUND_CID>  (1) 
6974

>  <PUBCHEM_CONFORMER_RMSD>  (1) 
0.4

>  <PUBCHEM_CONFORMER_DIVERSEORDER>  (1) 
1

>  <PUBCHEM_MMFF94_PARTIAL_CHARGES>  (1) 
14
1 -0.52
10 0.14
11 0.14
12 0.15
13 0.15
14 0.15
2 -0.52
3 0.91
4 -0.14
5 0.13
6 -0.14
7 -0.15
8 -0.15
9 -0.15

>  <PUBCHEM_EFFECTIVE_ROTOR_COUNT>  (1) 
1

>  <PUBCHEM_PHARMACOPHORE_FEATURES>  (1) 
4
1 1 acceptor
1 1 anion
1 2 acceptor
6 4 5 6 7 8 9 rings

>  <PUBCHEM_HEAVY_ATOM_COUNT>  (1) 
11

>  <PUBCHEM_ATOM_DEF_STEREO_COUNT>  (1) 
0

>  <PUBCHEM_ATOM_UDEF_STEREO_COUNT>  (1) 
0

>  <PUBCHEM_BOND_DEF_STEREO_COUNT>  (1) 
0

>  <PUBCHEM_BOND_UDEF_STEREO_COUNT>  (1) 
0

>  <PUBCHEM_ISOTOPIC_ATOM_COUNT>  (1) 
0

>  <PUBCHEM_COMPONENT_COUNT>  (1) 
1

>  <PUBCHEM_CACTVS_TAUTO_COUNT>  (1) 
1

>  <PUBCHEM_CONFORMER_ID>  (1) 
00001B3E00000001

>  <PUBCHEM_MMFF94_ENERGY>  (1) 
38.7333

>  <PUBCHEM_FEATURE_SELFOVERLAP>  (1) 
20.379

>  <PUBCHEM_SHAPE_FINGERPRINT>  (1) 
10857977 72 18339629088406975282
11206711 2 18407761421670515245
12423570 1 17463115087739136973
12524768 44 18054791680484444670
14128692 85 18412550919959042069
161256 15 18338517542265258245
16945 1 18410573993794204709
18185500 45 18264490585362549843
193761 8 18410856538397516389
19973954 147 18411138017573995473
20201158 50 18335698381693378195
20645477 70 18268143331317354975
20871998 184 18129940061969598503
20871998 22 18342187647717711591
21040471 1 17762055436967937185
21501502 16 18410296925696851209
23552423 10 18334860536563271541
23559900 14 17693654819596483870
241688 4 18335983082201110377
2748010 2 18268145349202351958
5084963 1 18201438103415206771
528862 383 18119238704132402248

>  <PUBCHEM_SHAPE_MULTIPOLES>  (1) 
209.66
3.73
2.16
0.59
0.97
0.17
0
-1.13
0
-0.73
0
0.05
0.03
0

>  <PUBCHEM_SHAPE_SELFOVERLAP>  (1) 
438.134

>  <PUBCHEM_SHAPE_VOLUME>  (1) 
120.6

>  <PUBCHEM_COORDINATE_TYPE>  (1) 
2
5
10

$$$$
