698
     RDKit          3D

 20 23  0  0  1  0  0  0  0  0999 V2000
   -4.1926   -1.3751   -0.3037 O   0  0  0  0  0  0  0  0  0  0  0  0
    5.1878   -0.4296    1.1167 O   0  0  0  0  0  0  0  0  0  0  0  0
   -1.4604    0.7301    0.5313 C   0  0  0  0  0  0  0  0  0  0  0  0
   -2.0602   -0.6948    0.6642 C   0  0  0  0  0  0  0  0  0  0  0  0
   -0.8076    1.0424   -0.8504 C   0  0  0  0  0  0  0  0  0  0  0  0
    0.0729   -0.1044   -1.3940 C   0  0  0  0  0  0  0  0  0  0  0  0
   -1.2700   -1.7930   -0.0518 C   0  0  0  0  0  0  0  0  0  0  0  0
   -2.6735    1.6486    0.7788 C   0  0  0  0  0  0  0  0  0  0  0  0
   -0.7732   -1.3865   -1.4319 C   0  0  0  0  0  0  0  0  0  0  0  0
    0.0215    2.3362   -0.8430 C   0  0  0  0  0  0  0  0  0  0  0  0
   -3.4531   -0.4784    0.0834 C   0  0  0  0  0  0  0  0  0  0  0  0
   -3.8385    0.9802    0.0538 C   0  0  0  0  0  0  0  0  0  0  0  0
   -2.2477   -1.1004    2.1383 C   0  0  0  0  0  0  0  0  0  0  0  0
    1.4251   -0.1966   -0.6949 C   0  0  0  0  0  0  0  0  0  0  0  0
    1.2406    2.2388    0.0679 C   0  0  0  0  0  0  0  0  0  0  0  0
    1.9747    0.9254   -0.0383 C   0  0  0  0  0  0  0  0  0  0  0  0
    2.1977   -1.3696   -0.7652 C   0  0  0  0  0  0  0  0  0  0  0  0
    3.2354    0.8289    0.5768 C   0  0  0  0  0  0  0  0  0  0  0  0
    3.4523   -1.4497   -0.1574 C   0  0  0  0  0  0  0  0  0  0  0  0
    3.9688   -0.3526    0.5193 C   0  0  0  0  0  0  0  0  0  0  0  0
  1 11  2  0
  2 20  1  0
  3  4  1  0
  3  5  1  0
  3  8  1  0
  4  7  1  0
  4 11  1  0
  4 13  1  0
  5  6  1  0
  5 10  1  0
  6  9  1  0
  6 14  1  0
  7  9  1  0
  8 12  1  0
 10 15  1  0
 11 12  1  0
 14 16  2  0
 14 17  1  0
 15 16  1  0
 16 18  1  0
 17 19  2  0
 18 20  2  0
 19 20  1  0
M  END
>  <PUBCHEM_COMPOUND_CID>  (1) 
698

>  <PUBCHEM_CONFORMER_RMSD>  (1) 
0.6

>  <PUBCHEM_CONFORMER_DIVERSEORDER>  (1) 
3
2
6
14
8
9
15
11
18
4
12
5
13
17
19
10
7
16
1

>  <PUBCHEM_MMFF94_PARTIAL_CHARGES>  (1) 
17
1 -0.57
11 0.45
12 0.06
14 -0.14
15 0.14
16 -0.14
17 -0.15
18 -0.15
19 -0.15
2 -0.53
20 0.08
39 0.15
4 0.06
40 0.15
41 0.15
42 0.45
6 0.14

>  <PUBCHEM_EFFECTIVE_ROTOR_COUNT>  (1) 
1.2

>  <PUBCHEM_PHARMACOPHORE_FEATURES>  (1) 
6
1 1 acceptor
1 2 donor
5 3 4 8 11 12 rings
6 14 16 17 18 19 20 rings
6 3 4 5 6 7 9 rings
6 5 6 10 14 15 16 rings

>  <PUBCHEM_HEAVY_ATOM_COUNT>  (1) 
20

>  <PUBCHEM_ATOM_DEF_STEREO_COUNT>  (1) 
0

>  <PUBCHEM_ATOM_UDEF_STEREO_COUNT>  (1) 
4

>  <PUBCHEM_BOND_DEF_STEREO_COUNT>  (1) 
0

>  <PUBCHEM_BOND_UDEF_STEREO_COUNT>  (1) 
0

>  <PUBCHEM_ISOTOPIC_ATOM_COUNT>  (1) 
0

>  <PUBCHEM_COMPONENT_COUNT>  (1) 
1

>  <PUBCHEM_CACTVS_TAUTO_COUNT>  (1) 
18

>  <PUBCHEM_CONFORMER_ID>  (1) 
000002BA00000003

>  <PUBCHEM_MMFF94_ENERGY>  (1) 
56.2197

>  <PUBCHEM_FEATURE_SELFOVERLAP>  (1) 
30.713

>  <PUBCHEM_SHAPE_FINGERPRINT>  (1) 
10062212 137 18272650173591662551
10366900 7 18333454240075290226
10863032 1 18059013878302347377
1100329 8 14878915582778217648
11132069 177 18340210678597679821
11370993 70 17988920054892038762
11471102 22 18342462538751793156
12011746 2 18342178830165411100
12077114 3 18272088279488000469
12251169 10 18272367598697051286
12382932 28 18342741801788762832
12403260 363 18342735256496130085
12633257 1 18410302405879780256
12892183 10 17846215536192509186
13140716 1 18055065721020471886
13299463 15 8646769984543704636
13994607 96 14907040759984184024
14115302 16 16877949346964174530
14178342 30 18200330814013315713
14223421 5 17828781860031816755
14787075 74 16486677178154327375
14790565 3 17976544141632665660
15309172 13 17418374671067107710
15375462 478 18131350821339959493
16752209 62 14852145352729026663
16945 1 18196671776411957365
17349148 13 18271523199616000503
17492 89 18342180020004052367
1813 80 17603871070555684910
192875 21 18342173410280693213
19784866 170 18411984637812430662
19862831 5 12035446138378749022
200 152 17988632004757851917
20600515 1 17894922810223160980
21033648 29 17274527742353463178
21069387 34 18115307907714855735
21731516 1 14996567359924599115
22854114 59 17632857525336518450
23184049 59 18272934882019299292
23402539 116 18342448249706816565
23419403 2 15620252149768607765
23559900 14 18271807895433015468
24859131 72 18412261705461696590
2748010 2 18126864710740219413
296302 2 18334300889323766828
351380 180 18343299249910131529
474 4 12175621810536022970
5104073 3 18412546534792126433
69090 78 18272365361040319031
7471813 234 16696080404351260447
74978 22 16806179876844601853
81228 2 17973744488057756828
90316 7 18188493454216546844
9709674 26 18411707603231010963

>  <PUBCHEM_SHAPE_MULTIPOLES>  (1) 
399.85
7.32
2.15
1.33
3.53
0.64
0.22
-1.63
2.48
-0.3
-0.21
-0.26
-0.32
0.13

>  <PUBCHEM_SHAPE_SELFOVERLAP>  (1) 
877.826

>  <PUBCHEM_SHAPE_VOLUME>  (1) 
215

>  <PUBCHEM_COORDINATE_TYPE>  (1) 
2
5
10

$$$$
