699
     RDKit          3D

 24 27  0  0  1  0  0  0  0  0999 V2000
    4.8291    0.8398   -0.6910 S   0  0  0  0  0  0  0  0  0  0  0  0
   -5.0064    1.6545    0.4973 O   0  0  0  0  0  0  0  0  0  0  0  0
    4.3126   -0.3527    0.3167 O   0  0  0  0  0  0  0  0  0  0  0  0
    6.4285    0.5535   -0.8469 O   0  0  0  0  0  0  0  0  0  0  0  0
    4.2140    0.6570   -1.9928 O   0  0  0  0  0  0  0  0  0  0  0  0
    4.6814    2.1029    0.0087 O   0  0  0  0  0  0  0  0  0  0  0  0
   -2.3520   -0.2482   -0.8912 C   0  0  0  0  0  0  0  0  0  0  0  0
   -2.7712    1.1357   -0.3280 C   0  0  0  0  0  0  0  0  0  0  0  0
   -2.0891   -1.3445    0.1867 C   0  0  0  0  0  0  0  0  0  0  0  0
   -1.2703   -0.8417    1.3961 C   0  0  0  0  0  0  0  0  0  0  0  0
   -2.0862    1.5289    0.9833 C   0  0  0  0  0  0  0  0  0  0  0  0
   -3.5442   -0.6413   -1.7860 C   0  0  0  0  0  0  0  0  0  0  0  0
   -1.9818    0.3868    1.9839 C   0  0  0  0  0  0  0  0  0  0  0  0
   -1.4025   -2.5948   -0.3850 C   0  0  0  0  0  0  0  0  0  0  0  0
   -4.2775    0.9476   -0.1881 C   0  0  0  0  0  0  0  0  0  0  0  0
   -4.7871   -0.2087   -1.0128 C   0  0  0  0  0  0  0  0  0  0  0  0
   -2.5539    2.2608   -1.3572 C   0  0  0  0  0  0  0  0  0  0  0  0
    0.2148   -0.6893    1.0849 C   0  0  0  0  0  0  0  0  0  0  0  0
    0.0066   -2.3031   -0.8897 C   0  0  0  0  0  0  0  0  0  0  0  0
    0.8064   -1.4091    0.0247 C   0  0  0  0  0  0  0  0  0  0  0  0
    1.0481    0.0974    1.9000 C   0  0  0  0  0  0  0  0  0  0  0  0
    2.1830   -1.2768   -0.2294 C   0  0  0  0  0  0  0  0  0  0  0  0
    2.4155    0.2136    1.6422 C   0  0  0  0  0  0  0  0  0  0  0  0
    2.9823   -0.4684    0.5735 C   0  0  0  0  0  0  0  0  0  0  0  0
  1  3  1  0
  1  4  1  0
  1  5  2  0
  1  6  2  0
  2 15  2  0
  3 24  1  0
  7  8  1  0
  7  9  1  0
  7 12  1  0
  8 11  1  0
  8 15  1  0
  8 17  1  0
  9 10  1  0
  9 14  1  0
 10 13  1  0
 10 18  1  0
 11 13  1  0
 12 16  1  0
 14 19  1  0
 15 16  1  0
 18 20  2  0
 18 21  1  0
 19 20  1  0
 20 22  1  0
 21 23  2  0
 22 24  2  0
 23 24  1  0
M  END
>  <PUBCHEM_COMPOUND_CID>  (1) 
699

>  <PUBCHEM_CONFORMER_RMSD>  (1) 
0.6

>  <PUBCHEM_CONFORMER_DIVERSEORDER>  (1) 
3
13
95
99
21
70
102
19
100
81
62
71
46
36
96
56
25
90
30
45
88
10
63
51
55
34
84
92
27
22
35
85
60
44
26
73
75
83
104
69
48
65
17
7
52
5
47
74
66
103
33
97
59
18
82
89
91
54
98
80
42
61
78
49
79
76
16
37
93
32
2
41
31
43
14
39
105
64
87
28
23
101
29
86
40
20
94
68
15
9
38
4
72
53
50
1
6
67
11
77
24
58
12
57
8

>  <PUBCHEM_MMFF94_PARTIAL_CHARGES>  (1) 
21
1 1.67
10 0.14
15 0.45
16 0.06
18 -0.14
19 0.14
2 -0.57
20 -0.14
21 -0.15
22 -0.15
23 -0.15
24 0.08
3 -0.27
4 -0.68
43 0.15
44 0.15
45 0.15
46 0.5
5 -0.65
6 -0.65
8 0.06

>  <PUBCHEM_EFFECTIVE_ROTOR_COUNT>  (1) 
3.2

>  <PUBCHEM_PHARMACOPHORE_FEATURES>  (1) 
9
1 2 acceptor
1 4 acceptor
1 5 acceptor
1 6 acceptor
4 1 4 5 6 anion
5 7 8 12 15 16 rings
6 18 20 21 22 23 24 rings
6 7 8 9 10 11 13 rings
6 9 10 14 18 19 20 rings

>  <PUBCHEM_HEAVY_ATOM_COUNT>  (1) 
24

>  <PUBCHEM_ATOM_DEF_STEREO_COUNT>  (1) 
0

>  <PUBCHEM_ATOM_UDEF_STEREO_COUNT>  (1) 
4

>  <PUBCHEM_BOND_DEF_STEREO_COUNT>  (1) 
0

>  <PUBCHEM_BOND_UDEF_STEREO_COUNT>  (1) 
0

>  <PUBCHEM_ISOTOPIC_ATOM_COUNT>  (1) 
0

>  <PUBCHEM_COMPONENT_COUNT>  (1) 
1

>  <PUBCHEM_CACTVS_TAUTO_COUNT>  (1) 
2

>  <PUBCHEM_CONFORMER_ID>  (1) 
000002BB00000003

>  <PUBCHEM_MMFF94_ENERGY>  (1) 
63.5348

>  <PUBCHEM_FEATURE_SELFOVERLAP>  (1) 
45.997

>  <PUBCHEM_SHAPE_FINGERPRINT>  (1) 
10 15 14201403798266094900
10498660 4 18412822482283316624
10670039 82 18408884019154059348
10759866 29 18336819814755462794
11370993 144 14490457682899339864
11796584 16 12175622866971585021
11961588 58 18262788674533106035
12251169 10 13262689097153070251
12623949 98 15549646048750692759
12633257 1 15068622729723342900
12670546 177 17632579379123128948
12760667 363 10303815375694450661
12788726 201 17489030340339815697
12824470 246 11743840252971465838
12892183 10 14996558435235694219
13140716 1 12613049309017826990
13544653 18 11239993469059316586
13583140 156 17968104122688555266
13994607 96 17677062329157819405
14251764 30 14907889535753181829
14739800 52 17896299463828664472
14787075 74 17022902376492010827
14840074 17 18040720272691354149
15163728 17 18265900142385213621
15209294 21 15791450452641447282
15463212 79 18187916326613141282
16945 1 17968922108095359667
17349148 13 17702653351142699234
17492 54 18188755228642000893
17780758 139 9871203704547484150
1813 80 11167941398423236994
18186145 218 17773854472798060475
193927 3 12895079543648372884
19784866 240 13470692559343247576
19862831 5 17203605982239217818
200 152 14476959003877218554
20775530 9 12318293335444894292
20871999 31 18273212031858610131
21756936 100 17676491691893342464
21864079 5 17750789948320159893
22079108 93 16660649565584804033
22393880 68 17417801846836133934
22907989 373 18057893626203678346
23114952 82 17986675865792109463
23198884 109 18272373070485529276
23227448 37 17240490246617640933
23366157 5 18049718521340108323
23379529 103 15553589872020020182
23559900 14 16702006613437983642
25 1 17987786411538982755
2748010 2 17270580697215403138
2838139 119 18186799184534784388
3323516 105 17488723650153486971
3472631 163 17533204277175749885
392239 28 16226060989189641417
463206 1 13614229412850883860
474 4 17168145663297537060
5104073 3 14057268732681172893
57527585 21 18118942729942901861

>  <PUBCHEM_SHAPE_MULTIPOLES>  (1) 
468.41
10.59
2.17
1.78
10.72
0.3
-0.24
-5.62
4.51
-0.82
0.51
0.02
-0.26
-0.62

>  <PUBCHEM_SHAPE_SELFOVERLAP>  (1) 
1007.591

>  <PUBCHEM_SHAPE_VOLUME>  (1) 
260.6

>  <PUBCHEM_COORDINATE_TYPE>  (1) 
2
5
10

$$$$
