6997
     RDKit          3D

  9  9  0  0  0  0  0  0  0  0999 V2000
    0.6604   -2.0957    0.1167 O   0  0  0  0  0  0  0  0  0  0  0  0
    0.4758    0.2897    0.2675 C   0  0  0  0  0  0  0  0  0  0  0  0
    1.9381    0.4252    0.5379 C   0  0  0  0  0  0  0  0  0  0  0  0
   -0.0990   -0.9654    0.0680 C   0  0  0  0  0  0  0  0  0  0  0  0
   -0.3168    1.4363    0.2143 C   0  0  0  0  0  0  0  0  0  0  0  0
    2.7514    0.5838   -0.7434 C   0  0  0  0  0  0  0  0  0  0  0  0
   -1.4664   -1.0741   -0.1848 C   0  0  0  0  0  0  0  0  0  0  0  0
   -1.6843    1.3277   -0.0384 C   0  0  0  0  0  0  0  0  0  0  0  0
   -2.2591    0.0725   -0.2380 C   0  0  0  0  0  0  0  0  0  0  0  0
  1  4  1  0
  2  3  1  0
  2  4  2  0
  2  5  1  0
  3  6  1  0
  4  7  1  0
  5  8  2  0
  7  9  2  0
  8  9  1  0
M  END
>  <PUBCHEM_COMPOUND_CID>  (1) 
6997

>  <PUBCHEM_CONFORMER_RMSD>  (1) 
0.4

>  <PUBCHEM_CONFORMER_DIVERSEORDER>  (1) 
2
1
4
3

>  <PUBCHEM_MMFF94_PARTIAL_CHARGES>  (1) 
13
1 -0.53
12 0.15
16 0.15
17 0.15
18 0.15
19 0.45
2 -0.14
3 0.14
4 0.08
5 -0.15
7 -0.15
8 -0.15
9 -0.15

>  <PUBCHEM_EFFECTIVE_ROTOR_COUNT>  (1) 
1

>  <PUBCHEM_PHARMACOPHORE_FEATURES>  (1) 
3
1 1 donor
1 6 hydrophobe
6 2 4 5 7 8 9 rings

>  <PUBCHEM_HEAVY_ATOM_COUNT>  (1) 
9

>  <PUBCHEM_ATOM_DEF_STEREO_COUNT>  (1) 
0

>  <PUBCHEM_ATOM_UDEF_STEREO_COUNT>  (1) 
0

>  <PUBCHEM_BOND_DEF_STEREO_COUNT>  (1) 
0

>  <PUBCHEM_BOND_UDEF_STEREO_COUNT>  (1) 
0

>  <PUBCHEM_ISOTOPIC_ATOM_COUNT>  (1) 
0

>  <PUBCHEM_COMPONENT_COUNT>  (1) 
1

>  <PUBCHEM_CACTVS_TAUTO_COUNT>  (1) 
3

>  <PUBCHEM_CONFORMER_ID>  (1) 
00001B5500000002

>  <PUBCHEM_MMFF94_ENERGY>  (1) 
18.3315

>  <PUBCHEM_FEATURE_SELFOVERLAP>  (1) 
15.223

>  <PUBCHEM_SHAPE_FINGERPRINT>  (1) 
12716758 59 18340491166021991104
12897270 3 18411134740387348244
16714656 1 18338518645987307804
16945 1 18412256251059075897
20645464 45 17916572280353036592
21040471 1 18339634551521096481
23235685 24 18408319986525753797
23552423 10 18263361382641979650
241688 4 15891657343746565523
2748010 2 17906441483246242565
5084963 1 18130791212696982088

>  <PUBCHEM_SHAPE_MULTIPOLES>  (1) 
179.35
3.14
1.71
0.73
1.24
0.49
0.03
-0.64
0.6
-0.28
-0.07
0.22
-0.06
-0.1

>  <PUBCHEM_SHAPE_SELFOVERLAP>  (1) 
367.327

>  <PUBCHEM_SHAPE_VOLUME>  (1) 
104.3

>  <PUBCHEM_COORDINATE_TYPE>  (1) 
2
5
10

$$$$
