7009
     RDKit          3D

 20 21  0  0  0  0  0  0  0  0999 V2000
    3.9438   -1.1560   -0.0852 S   0  0  0  0  0  0  0  0  0  0  0  0
   -3.9443   -1.1527    0.0844 S   0  0  0  0  0  0  0  0  0  0  0  0
   -1.3187    3.1720    0.0272 O   0  0  0  0  0  0  0  0  0  0  0  0
    4.3500   -1.3708    1.4838 O   0  0  0  0  0  0  0  0  0  0  0  0
   -4.3492   -1.3662   -1.4852 O   0  0  0  0  0  0  0  0  0  0  0  0
    3.6877   -2.4763   -0.6421 O   0  0  0  0  0  0  0  0  0  0  0  0
    4.9298   -0.2743   -0.6903 O   0  0  0  0  0  0  0  0  0  0  0  0
   -3.6899   -2.4736    0.6406 O   0  0  0  0  0  0  0  0  0  0  0  0
   -4.9303   -0.2705    0.6890 O   0  0  0  0  0  0  0  0  0  0  0  0
    1.3175    3.2223   -0.0282 N   0  0  0  0  0  0  0  0  0  0  0  0
    0.0007    1.1223    0.0006 C   0  0  0  0  0  0  0  0  0  0  0  0
    0.0001   -0.2930    0.0009 C   0  0  0  0  0  0  0  0  0  0  0  0
    1.2257    1.8086   -0.0262 C   0  0  0  0  0  0  0  0  0  0  0  0
    2.4322   -0.2823   -0.0519 C   0  0  0  0  0  0  0  0  0  0  0  0
    1.2245   -0.9803   -0.0254 C   0  0  0  0  0  0  0  0  0  0  0  0
   -1.2250   -0.9792    0.0274 C   0  0  0  0  0  0  0  0  0  0  0  0
   -2.4321   -0.2803    0.0531 C   0  0  0  0  0  0  0  0  0  0  0  0
   -1.2238    1.8095    0.0268 C   0  0  0  0  0  0  0  0  0  0  0  0
    2.4328    1.1094   -0.0522 C   0  0  0  0  0  0  0  0  0  0  0  0
   -2.4315    1.1115    0.0528 C   0  0  0  0  0  0  0  0  0  0  0  0
  1  4  1  0
  1  6  2  0
  1  7  2  0
  1 14  1  0
  2  5  1  0
  2  8  2  0
  2  9  2  0
  2 17  1  0
  3 18  1  0
 10 13  1  0
 11 12  1  0
 11 13  2  0
 11 18  1  0
 12 15  2  0
 12 16  1  0
 13 19  1  0
 14 15  1  0
 14 19  2  0
 16 17  2  0
 17 20  1  0
 18 20  2  0
M  END
>  <PUBCHEM_COMPOUND_CID>  (1) 
7009

>  <PUBCHEM_CONFORMER_RMSD>  (1) 
0.6

>  <PUBCHEM_CONFORMER_DIVERSEORDER>  (1) 
1
2

>  <PUBCHEM_MMFF94_PARTIAL_CHARGES>  (1) 
27
1 1.49
10 -0.9
13 0.1
14 -0.01
15 -0.15
16 -0.15
17 -0.01
18 0.08
19 -0.15
2 1.49
20 -0.15
21 0.15
22 0.15
23 0.15
24 0.15
25 0.4
26 0.4
27 0.45
28 0.5
29 0.5
3 -0.53
4 -0.68
5 -0.68
6 -0.65
7 -0.65
8 -0.65
9 -0.65

>  <PUBCHEM_EFFECTIVE_ROTOR_COUNT>  (1) 
2

>  <PUBCHEM_PHARMACOPHORE_FEATURES>  (1) 
13
1 10 cation
1 10 donor
1 3 donor
1 4 acceptor
1 5 acceptor
1 6 acceptor
1 7 acceptor
1 8 acceptor
1 9 acceptor
4 1 4 6 7 anion
4 2 5 8 9 anion
6 11 12 13 14 15 19 rings
6 11 12 16 17 18 20 rings

>  <PUBCHEM_HEAVY_ATOM_COUNT>  (1) 
20

>  <PUBCHEM_ATOM_DEF_STEREO_COUNT>  (1) 
0

>  <PUBCHEM_ATOM_UDEF_STEREO_COUNT>  (1) 
0

>  <PUBCHEM_BOND_DEF_STEREO_COUNT>  (1) 
0

>  <PUBCHEM_BOND_UDEF_STEREO_COUNT>  (1) 
0

>  <PUBCHEM_ISOTOPIC_ATOM_COUNT>  (1) 
0

>  <PUBCHEM_COMPONENT_COUNT>  (1) 
1

>  <PUBCHEM_CACTVS_TAUTO_COUNT>  (1) 
17

>  <PUBCHEM_CONFORMER_ID>  (1) 
00001B6100000001

>  <PUBCHEM_MMFF94_ENERGY>  (1) 
52.5403

>  <PUBCHEM_FEATURE_SELFOVERLAP>  (1) 
66.121

>  <PUBCHEM_SHAPE_FINGERPRINT>  (1) 
10319926 262 17979891862908151538
10967382 1 18194684997397230444
10989021 7 18411701010371685672
11543360 7 15647062598071231211
11806522 49 18408042922680662916
12032990 46 18410578387493013990
12553582 1 18410855460133923758
13140716 1 18338799038896225195
138480 1 14807133102844743280
14178342 30 18047740513038178610
15042514 8 18121782725136694608
15196674 1 18410857663446748421
15352361 1 18410857659178167902
15442244 35 18412832404000590465
15536298 74 18270682081420477976
15848700 24 18413666920346075590
16945 1 18410575123333959636
17357779 13 18335406976825983389
17804303 29 18341335508915461664
1813 80 17894922805833105236
18186145 218 17677042555692890955
18222031 100 18272645766375215070
19141452 34 18131635573872790519
200 152 18201715172156476247
20645477 70 18264481965774916343
21029758 11 18411135844209747921
21029758 27 18408892844794536901
21267235 1 18410587179291276771
21296965 67 18411982446941487088
21501502 16 18410865360038906724
21501925 9 18411693296984702194
221490 88 18263651834353371275
22182313 1 18265029449287789476
23366157 5 18042125521560872444
23402539 116 18341325626422495607
23557571 272 18057615274026868918
23559900 14 18337668727910126936
2748010 2 18340193112382243436
3091708 16 8993376761529867785
335352 9 18410577241454430901
5104073 3 18412826893077450593
54173680 148 18194967344431676232
58779409 54 18265038142549334685
7364860 26 18268993262115790336
8809292 202 18260554454379630011
8863177 126 17751940248611828379
9709674 26 18118123804069626867

>  <PUBCHEM_SHAPE_MULTIPOLES>  (1) 
373.22
8.88
2.91
0.83
0.11
1.74
0
-6.54
0
-0.07
0
0
-0.33
-0.16

>  <PUBCHEM_SHAPE_SELFOVERLAP>  (1) 
790.626

>  <PUBCHEM_SHAPE_VOLUME>  (1) 
210.1

>  <PUBCHEM_COORDINATE_TYPE>  (1) 
2
5
10

$$$$
