7011
     RDKit          3D

 12 12  0  0  1  0  0  0  0  0999 V2000
   -1.5267   -1.5885    1.1539 O   0  0  0  0  0  0  0  0  0  0  0  0
   -3.0853   -1.2001   -0.4881 N   0  0  0  0  0  0  0  0  0  0  0  0
   -1.1305    0.2378   -0.4043 C   0  0  0  0  0  0  0  0  0  0  0  0
   -1.6414    1.5615    0.2001 C   0  0  0  0  0  0  0  0  0  0  0  0
    0.3631    0.0376   -0.2118 C   0  0  0  0  0  0  0  0  0  0  0  0
   -1.9067   -0.9426    0.1801 C   0  0  0  0  0  0  0  0  0  0  0  0
   -0.9815    2.7902   -0.4131 C   0  0  0  0  0  0  0  0  0  0  0  0
    0.9607    0.5169    0.9377 C   0  0  0  0  0  0  0  0  0  0  0  0
    1.0829   -0.6180   -1.1917 C   0  0  0  0  0  0  0  0  0  0  0  0
    2.3321    0.3332    1.1142 C   0  0  0  0  0  0  0  0  0  0  0  0
    2.4543   -0.8019   -1.0150 C   0  0  0  0  0  0  0  0  0  0  0  0
    3.0790   -0.3263    0.1379 C   0  0  0  0  0  0  0  0  0  0  0  0
  1  6  2  0
  2  6  1  0
  3  4  1  0
  3  5  1  0
  3  6  1  0
  4  7  1  0
  5  8  2  0
  5  9  1  0
  8 10  1  0
  9 11  2  0
 10 12  2  0
 11 12  1  0
M  END
>  <PUBCHEM_COMPOUND_CID>  (1) 
7011

>  <PUBCHEM_CONFORMER_RMSD>  (1) 
0.6

>  <PUBCHEM_CONFORMER_DIVERSEORDER>  (1) 
3
22
6
16
2
20
19
12
10
7
14
5
21
18
13
15
17
11
4
1
9
8

>  <PUBCHEM_MMFF94_PARTIAL_CHARGES>  (1) 
17
1 -0.57
10 -0.15
11 -0.15
12 -0.15
19 0.15
2 -0.8
20 0.15
21 0.15
22 0.15
23 0.15
24 0.37
25 0.37
3 0.2
5 -0.14
6 0.57
8 -0.15
9 -0.15

>  <PUBCHEM_EFFECTIVE_ROTOR_COUNT>  (1) 
3

>  <PUBCHEM_PHARMACOPHORE_FEATURES>  (1) 
4
1 1 acceptor
1 2 donor
1 7 hydrophobe
6 5 8 9 10 11 12 rings

>  <PUBCHEM_HEAVY_ATOM_COUNT>  (1) 
12

>  <PUBCHEM_ATOM_DEF_STEREO_COUNT>  (1) 
0

>  <PUBCHEM_ATOM_UDEF_STEREO_COUNT>  (1) 
1

>  <PUBCHEM_BOND_DEF_STEREO_COUNT>  (1) 
0

>  <PUBCHEM_BOND_UDEF_STEREO_COUNT>  (1) 
0

>  <PUBCHEM_ISOTOPIC_ATOM_COUNT>  (1) 
0

>  <PUBCHEM_COMPONENT_COUNT>  (1) 
1

>  <PUBCHEM_CACTVS_TAUTO_COUNT>  (1) 
2

>  <PUBCHEM_CONFORMER_ID>  (1) 
00001B6300000003

>  <PUBCHEM_MMFF94_ENERGY>  (1) 
29.2007

>  <PUBCHEM_FEATURE_SELFOVERLAP>  (1) 
20.297

>  <PUBCHEM_SHAPE_FINGERPRINT>  (1) 
1 1 17110160421967318949
12138202 97 18196649592700281804
12423570 1 17844226622589397320
12716758 59 18194686956002245394
13839132 238 18123747561016287332
13898156 1 17531536369000734796
14128692 85 16806165608678648410
15219456 202 17989484095861813008
15490181 7 17832706773146222145
15501101 241 17702948170197130747
16945 1 18334581196137756212
17844478 74 18202284718778620512
18380122 1 18130779101147709152
20711985 344 18336548222571846313
21040471 1 17975697190554024196
21061003 4 17346607352562587314
21501502 16 18342742888310084640
21524375 3 17687748238150879285
21930827 45 18196371424822099472
22802520 49 18128819642419789948
23402539 116 18339907273676198487
23419403 2 14037506320999274598
23559900 14 17768247909007204934
25 1 17266945329553488900
2748010 2 17774714265179348884
276578 36 17829620452528528433
305870 269 17324920357203674236
5084963 1 17561074847786452066
54338 74 18186799184186468653
81228 2 18409172078151993785

>  <PUBCHEM_SHAPE_MULTIPOLES>  (1) 
236.1
4.14
1.95
1.14
1.03
1.19
0.06
-1.1
-0.02
-1.75
-0.13
0.41
-0.15
0.59

>  <PUBCHEM_SHAPE_SELFOVERLAP>  (1) 
483.624

>  <PUBCHEM_SHAPE_VOLUME>  (1) 
135.9

>  <PUBCHEM_COORDINATE_TYPE>  (1) 
2
5
10

$$$$
