7012
     RDKit          3D

 12 12  0  0  1  0  0  0  0  0999 V2000
    3.2149   -0.9179    0.1279 O   0  0  0  0  0  0  0  0  0  0  0  0
    1.3805   -1.9572   -0.7022 O   0  0  0  0  0  0  0  0  0  0  0  0
    1.1186    0.2039    0.4145 C   0  0  0  0  0  0  0  0  0  0  0  0
    1.7033    1.4955   -0.1919 C   0  0  0  0  0  0  0  0  0  0  0  0
   -0.3801    0.0458    0.2036 C   0  0  0  0  0  0  0  0  0  0  0  0
    1.0779    2.7596    0.3846 C   0  0  0  0  0  0  0  0  0  0  0  0
    1.8803   -1.0051   -0.1173 C   0  0  0  0  0  0  0  0  0  0  0  0
   -0.9421    0.5113   -0.9677 C   0  0  0  0  0  0  0  0  0  0  0  0
   -1.1327   -0.5582    1.1903 C   0  0  0  0  0  0  0  0  0  0  0  0
   -2.3159    0.3666   -1.1607 C   0  0  0  0  0  0  0  0  0  0  0  0
   -2.5066   -0.7032    0.9971 C   0  0  0  0  0  0  0  0  0  0  0  0
   -3.0982   -0.2408   -0.1784 C   0  0  0  0  0  0  0  0  0  0  0  0
  1  7  1  0
  2  7  2  0
  3  4  1  0
  3  5  1  0
  3  7  1  0
  4  6  1  0
  5  8  2  0
  5  9  1  0
  8 10  1  0
  9 11  2  0
 10 12  2  0
 11 12  1  0
M  END
>  <PUBCHEM_COMPOUND_CID>  (1) 
7012

>  <PUBCHEM_CONFORMER_RMSD>  (1) 
0.6

>  <PUBCHEM_CONFORMER_DIVERSEORDER>  (1) 
1
14
5
13
3
11
12
4
9
8
6
15
10
2
7

>  <PUBCHEM_MMFF94_PARTIAL_CHARGES>  (1) 
16
1 -0.65
10 -0.15
11 -0.15
12 -0.15
19 0.15
2 -0.57
20 0.15
21 0.15
22 0.15
23 0.15
24 0.5
3 0.2
5 -0.14
7 0.66
8 -0.15
9 -0.15

>  <PUBCHEM_EFFECTIVE_ROTOR_COUNT>  (1) 
3

>  <PUBCHEM_PHARMACOPHORE_FEATURES>  (1) 
5
1 1 acceptor
1 2 acceptor
1 6 hydrophobe
3 1 2 7 anion
6 5 8 9 10 11 12 rings

>  <PUBCHEM_HEAVY_ATOM_COUNT>  (1) 
12

>  <PUBCHEM_ATOM_DEF_STEREO_COUNT>  (1) 
0

>  <PUBCHEM_ATOM_UDEF_STEREO_COUNT>  (1) 
1

>  <PUBCHEM_BOND_DEF_STEREO_COUNT>  (1) 
0

>  <PUBCHEM_BOND_UDEF_STEREO_COUNT>  (1) 
0

>  <PUBCHEM_ISOTOPIC_ATOM_COUNT>  (1) 
0

>  <PUBCHEM_COMPONENT_COUNT>  (1) 
1

>  <PUBCHEM_CACTVS_TAUTO_COUNT>  (1) 
1

>  <PUBCHEM_CONFORMER_ID>  (1) 
00001B6400000001

>  <PUBCHEM_MMFF94_ENERGY>  (1) 
26.0644

>  <PUBCHEM_FEATURE_SELFOVERLAP>  (1) 
25.431

>  <PUBCHEM_SHAPE_FINGERPRINT>  (1) 
1 1 18194402431715214948
10219947 1 18343578534538027714
10465860 250 18041544850914707946
107287 299 18117851103283697420
10857977 72 16951685990227090401
12326174 3 18336816563585869912
12423570 1 13214632020608896025
12524768 44 18114740546603083645
12759256 9 18343020016837764600
13898156 1 16773805817615976809
14648413 74 18335414686224051605
15219456 202 18187364380207176161
16945 1 18341899605656507155
18186145 218 17823115901206056477
18380122 1 17753614842968558337
20201158 50 18334011653325470819
20379382 53 18267610024631591777
20645464 45 17822842199619075705
20711985 344 17691130335933411146
21061003 4 18340494374125262482
23211744 41 17825377737698948713
23559900 14 17750785559712948650
2748010 2 17749668610037473735
29004967 10 18341332197564111818
369184 2 15913037682387916627
5084963 1 17603588530005084629
77492 1 17275107257721515713
81228 2 17834679297090933016

>  <PUBCHEM_SHAPE_MULTIPOLES>  (1) 
235.22
4.2
1.94
1.08
0.85
0.93
0
-0.81
0.1
-1.77
-0.04
0.58
-0.04
0.61

>  <PUBCHEM_SHAPE_SELFOVERLAP>  (1) 
482.609

>  <PUBCHEM_SHAPE_VOLUME>  (1) 
135.2

>  <PUBCHEM_COORDINATE_TYPE>  (1) 
2
5
10

$$$$
