7014
     RDKit          3D

 17 20  0  0  1  0  0  0  0  0999 V2000
   -1.1028    0.7027   -0.2345 N   0  0  0  0  0  0  0  0  0  0  0  0
    1.5035   -0.5001   -0.6146 N   0  0  0  0  0  0  0  0  0  0  0  0
   -0.6101   -1.7574   -0.0534 C   0  0  0  0  0  0  0  0  0  0  0  0
    0.3388   -0.2031    1.6051 C   0  0  0  0  0  0  0  0  0  0  0  0
   -1.5898   -0.6544   -0.5521 C   0  0  0  0  0  0  0  0  0  0  0  0
    1.6849   -0.1895    0.8196 C   0  0  0  0  0  0  0  0  0  0  0  0
   -0.3039   -1.5822    1.4360 C   0  0  0  0  0  0  0  0  0  0  0  0
   -0.6905    0.8651    1.1644 C   0  0  0  0  0  0  0  0  0  0  0  0
    0.7320   -1.7359   -0.8241 C   0  0  0  0  0  0  0  0  0  0  0  0
   -3.0255   -0.8989   -0.0395 C   0  0  0  0  0  0  0  0  0  0  0  0
    2.4252    1.1500    0.9860 C   0  0  0  0  0  0  0  0  0  0  0  0
   -2.0265    1.7476   -0.6852 C   0  0  0  0  0  0  0  0  0  0  0  0
    2.7869   -0.5667   -1.3266 C   0  0  0  0  0  0  0  0  0  0  0  0
   -3.9861    0.1771   -0.5374 C   0  0  0  0  0  0  0  0  0  0  0  0
    3.7637    1.1355    0.2537 C   0  0  0  0  0  0  0  0  0  0  0  0
   -3.4618    1.5654   -0.1926 C   0  0  0  0  0  0  0  0  0  0  0  0
    3.5620    0.7449   -1.2049 C   0  0  0  0  0  0  0  0  0  0  0  0
  1  5  1  0
  1  8  1  0
  1 12  1  0
  2  6  1  0
  2  9  1  0
  2 13  1  0
  3  5  1  0
  3  7  1  0
  3  9  1  0
  4  6  1  0
  4  7  1  0
  4  8  1  0
  5 10  1  0
  6 11  1  0
 10 14  1  0
 11 15  1  0
 12 16  1  0
 13 17  1  0
 14 16  1  0
 15 17  1  0
M  END
>  <PUBCHEM_COMPOUND_CID>  (1) 
7014

>  <PUBCHEM_CONFORMER_RMSD>  (1) 
0.6

>  <PUBCHEM_CONFORMER_DIVERSEORDER>  (1) 
1

>  <PUBCHEM_MMFF94_PARTIAL_CHARGES>  (1) 
8
1 -0.81
12 0.27
13 0.27
2 -0.81
5 0.27
6 0.27
8 0.27
9 0.27

>  <PUBCHEM_EFFECTIVE_ROTOR_COUNT>  (1) 
2.2

>  <PUBCHEM_PHARMACOPHORE_FEATURES>  (1) 
6
1 1 cation
1 2 cation
6 1 3 4 5 7 8 rings
6 1 5 10 12 14 16 rings
6 2 3 4 6 7 9 rings
6 2 6 11 13 15 17 rings

>  <PUBCHEM_HEAVY_ATOM_COUNT>  (1) 
17

>  <PUBCHEM_ATOM_DEF_STEREO_COUNT>  (1) 
4

>  <PUBCHEM_ATOM_UDEF_STEREO_COUNT>  (1) 
0

>  <PUBCHEM_BOND_DEF_STEREO_COUNT>  (1) 
0

>  <PUBCHEM_BOND_UDEF_STEREO_COUNT>  (1) 
0

>  <PUBCHEM_ISOTOPIC_ATOM_COUNT>  (1) 
0

>  <PUBCHEM_COMPONENT_COUNT>  (1) 
1

>  <PUBCHEM_CACTVS_TAUTO_COUNT>  (1) 
1

>  <PUBCHEM_CONFORMER_ID>  (1) 
00001B6600000001

>  <PUBCHEM_MMFF94_ENERGY>  (1) 
17.8365

>  <PUBCHEM_FEATURE_SELFOVERLAP>  (1) 
32.174

>  <PUBCHEM_SHAPE_FINGERPRINT>  (1) 
10498660 4 18336537227777796437
10618630 7 10375870775141117004
10863032 1 18411138013147120511
10948715 1 18261109673090919532
11640471 11 17022905687410785348
11769659 78 11600005452987112324
12138202 97 18341894142690384134
12251169 10 12829213286411269492
12423570 1 15174976616345191482
12491281 212 17530969111279342752
12633257 1 10737272546293680028
12808571 1 17967810539708322163
13299463 15 17918000472742470114
13464513 79 18266457801535200515
13538477 17 17313384599253778410
13764800 53 17822023037464799027
14787075 74 16951980667938518211
14817 1 12860250996298459610
15219456 202 18131069346178534902
15309172 13 14634863163139996208
15775835 57 18113896048405494912
16945 1 18262795297420383195
17357779 13 17556279998090578751
18186145 218 18059861648869675560
18981168 100 17679847229192402149
19868273 293 18335706078474901334
200 152 15625951941032823396
20361792 2 13830127282534233545
21501502 16 18268420240484808131
21524375 3 18260544498397231954
21731516 1 13470687023088211452
22802520 49 18130512946060841494
23114952 82 18057614174140798926
23184049 59 13695863735970741190
23402539 116 18263350525175398806
23419403 2 17835543873875411891
23493267 7 18260833721368591242
23557571 272 18266181827546322283
23559900 14 17989489628639461766
25 1 18272657800767784472
2748010 2 17343213340445622978
276578 36 17603303722091593466
305870 269 17749942259146122810
3323516 105 17846497049681539477
353137 74 17989209213491090448
474 4 17313391118761153685
4990 188 17632291276832461197
7364860 26 18119800314130315595
77492 1 17023175071891092274

>  <PUBCHEM_SHAPE_MULTIPOLES>  (1) 
339.89
6.13
1.83
1.4
0.14
0.13
0.26
-2.73
-1.87
0.51
-0.05
-0.7
0.13
0.42

>  <PUBCHEM_SHAPE_SELFOVERLAP>  (1) 
715.781

>  <PUBCHEM_SHAPE_VOLUME>  (1) 
183.3

>  <PUBCHEM_COORDINATE_TYPE>  (1) 
2
5
10

$$$$
