702
     RDKit          3D

  3  2  0  0  0  0  0  0  0  0999 V2000
   -1.1712    0.2997    0.0000 O   0  0  0  0  0  0  0  0  0  0  0  0
   -0.0463   -0.5665    0.0000 C   0  0  0  0  0  0  0  0  0  0  0  0
    1.2175    0.2668    0.0000 C   0  0  0  0  0  0  0  0  0  0  0  0
  1  2  1  0
  2  3  1  0
M  END
>  <PUBCHEM_COMPOUND_CID>  (1) 
702

>  <PUBCHEM_CONFORMER_RMSD>  (1) 
0.4

>  <PUBCHEM_CONFORMER_DIVERSEORDER>  (1) 
1

>  <PUBCHEM_MMFF94_PARTIAL_CHARGES>  (1) 
3
1 -0.68
2 0.28
9 0.4

>  <PUBCHEM_EFFECTIVE_ROTOR_COUNT>  (1) 
0

>  <PUBCHEM_PHARMACOPHORE_FEATURES>  (1) 
2
1 1 acceptor
1 1 donor

>  <PUBCHEM_HEAVY_ATOM_COUNT>  (1) 
3

>  <PUBCHEM_ATOM_DEF_STEREO_COUNT>  (1) 
0

>  <PUBCHEM_ATOM_UDEF_STEREO_COUNT>  (1) 
0

>  <PUBCHEM_BOND_DEF_STEREO_COUNT>  (1) 
0

>  <PUBCHEM_BOND_UDEF_STEREO_COUNT>  (1) 
0

>  <PUBCHEM_ISOTOPIC_ATOM_COUNT>  (1) 
0

>  <PUBCHEM_COMPONENT_COUNT>  (1) 
1

>  <PUBCHEM_CACTVS_TAUTO_COUNT>  (1) 
1

>  <PUBCHEM_CONFORMER_ID>  (1) 
000002BE00000001

>  <PUBCHEM_MMFF94_ENERGY>  (1) 
-1.3096

>  <PUBCHEM_FEATURE_SELFOVERLAP>  (1) 
10.148

>  <PUBCHEM_SHAPE_FINGERPRINT>  (1) 
139733 1 18410856563987595332
21015797 1 18192151726869919494

>  <PUBCHEM_SHAPE_MULTIPOLES>  (1) 
55.87
1.48
0.75
0.58
0.08
0.07
0
-0.26
0
-0.01
0
0.04
0.01
0

>  <PUBCHEM_SHAPE_SELFOVERLAP>  (1) 
84.621

>  <PUBCHEM_SHAPE_VOLUME>  (1) 
41.5

>  <PUBCHEM_COORDINATE_TYPE>  (1) 
2
5
10

$$$$
