7021
     RDKit          3D

 17 17  0  0  0  0  0  0  0  0999 V2000
    3.3827    0.3336   -0.0290 O   0  0  0  0  0  0  0  0  0  0  0  0
    1.6132    2.4611   -0.1447 O   0  0  0  0  0  0  0  0  0  0  0  0
    2.4099   -2.2595   -0.0127 O   0  0  0  0  0  0  0  0  0  0  0  0
   -5.2769    0.9925    0.3456 O   0  0  0  0  0  0  0  0  0  0  0  0
   -4.9712   -1.1533   -0.3660 O   0  0  0  0  0  0  0  0  0  0  0  0
   -0.7093   -0.3612   -0.1779 C   0  0  0  0  0  0  0  0  0  0  0  0
    2.0393    0.1054   -0.0774 C   0  0  0  0  0  0  0  0  0  0  0  0
    1.1513    1.1795   -0.1357 C   0  0  0  0  0  0  0  0  0  0  0  0
    1.5531   -1.2019   -0.0693 C   0  0  0  0  0  0  0  0  0  0  0  0
   -0.2231    0.9462   -0.1860 C   0  0  0  0  0  0  0  0  0  0  0  0
    0.1788   -1.4352   -0.1195 C   0  0  0  0  0  0  0  0  0  0  0  0
   -2.1423   -0.6044   -0.2303 C   0  0  0  0  0  0  0  0  0  0  0  0
   -3.0995    0.2945    0.0899 C   0  0  0  0  0  0  0  0  0  0  0  0
    4.0705    0.4147   -1.2752 C   0  0  0  0  0  0  0  0  0  0  0  0
    1.7824    3.0978    1.1203 C   0  0  0  0  0  0  0  0  0  0  0  0
    2.7668   -2.7359    1.2834 C   0  0  0  0  0  0  0  0  0  0  0  0
   -4.5256   -0.0738   -0.0155 C   0  0  0  0  0  0  0  0  0  0  0  0
  1  7  1  0
  1 14  1  0
  2  8  1  0
  2 15  1  0
  3  9  1  0
  3 16  1  0
  4 17  1  0
  5 17  2  0
  6 10  2  0
  6 11  1  0
  6 12  1  0
  7  8  2  0
  7  9  1  0
  8 10  1  0
  9 11  2  0
 12 13  2  0
 13 17  1  0
M  END
>  <PUBCHEM_COMPOUND_CID>  (1) 
7021

>  <PUBCHEM_CONFORMER_RMSD>  (1) 
0.6

>  <PUBCHEM_CONFORMER_DIVERSEORDER>  (1) 
3
7
6
5
4
2
1

>  <PUBCHEM_MMFF94_PARTIAL_CHARGES>  (1) 
22
1 -0.36
10 -0.15
11 -0.15
12 -0.18
13 -0.14
14 0.28
15 0.28
16 0.28
17 0.71
18 0.15
19 0.15
2 -0.36
20 0.15
21 0.15
3 -0.36
31 0.5
4 -0.65
5 -0.57
6 0.03
7 0.08
8 0.08
9 0.08

>  <PUBCHEM_EFFECTIVE_ROTOR_COUNT>  (1) 
5

>  <PUBCHEM_PHARMACOPHORE_FEATURES>  (1) 
7
1 1 acceptor
1 2 acceptor
1 3 acceptor
1 4 acceptor
1 5 acceptor
3 4 5 17 anion
6 6 7 8 9 10 11 rings

>  <PUBCHEM_HEAVY_ATOM_COUNT>  (1) 
17

>  <PUBCHEM_ATOM_DEF_STEREO_COUNT>  (1) 
0

>  <PUBCHEM_ATOM_UDEF_STEREO_COUNT>  (1) 
0

>  <PUBCHEM_BOND_DEF_STEREO_COUNT>  (1) 
0

>  <PUBCHEM_BOND_UDEF_STEREO_COUNT>  (1) 
1

>  <PUBCHEM_ISOTOPIC_ATOM_COUNT>  (1) 
0

>  <PUBCHEM_COMPONENT_COUNT>  (1) 
1

>  <PUBCHEM_CACTVS_TAUTO_COUNT>  (1) 
1

>  <PUBCHEM_CONFORMER_ID>  (1) 
00001B6D00000003

>  <PUBCHEM_MMFF94_ENERGY>  (1) 
76.5215

>  <PUBCHEM_FEATURE_SELFOVERLAP>  (1) 
35.588

>  <PUBCHEM_SHAPE_FINGERPRINT>  (1) 
10366900 7 18187932819545396865
10980938 120 18410293592527877534
11471102 20 18409730668333476726
12644460 14 18334299751146812707
13140716 1 18193829577619709944
13533116 47 18334292072721571179
14178342 30 18047178937052097187
14576447 43 18341043129560300687
14911166 2 18340779220851676380
15442244 35 18267586810575962985
16945 1 18337942476493652244
18186145 218 18340482361339235941
19784866 9 18187366532550066522
20559304 39 18411416194031484760
20645477 70 18272654592733176359
21041028 32 18195238919297597640
21501502 16 18191590752548901740
22289505 5 18336541616991507085
2255824 54 18338516460039007748
22854114 111 18339922722705379293
2334 1 17761774366092510436
23402655 69 18411981334972108693
23526113 38 17676210143232424361
23558518 356 17833825358808259894
25 1 18334859462979586286
2748010 2 18122892149802139052
3060560 45 17989492913561703590
3071541 37 18187370930454380398
34934 24 18342737442592311894
474 4 18194395821729053777
4990 188 18059869375505246615
5104073 3 18410294697231116283
54040823 5 18411142424295051642
58807428 26 18051105263411190792
7364860 26 18342454872024257728
81228 2 17401478248334235378
84936 182 17986388004367990697
9999458 23 18335985384298202540

>  <PUBCHEM_SHAPE_MULTIPOLES>  (1) 
320.51
8.44
2.73
0.9
12.53
0.6
-0.09
-0.56
0.61
-3.06
-1.18
-0.79
0.01
-0.59

>  <PUBCHEM_SHAPE_SELFOVERLAP>  (1) 
661.416

>  <PUBCHEM_SHAPE_VOLUME>  (1) 
184.9

>  <PUBCHEM_COORDINATE_TYPE>  (1) 
2
5
10

$$$$
