7031
     RDKit          3D

 20 21  0  0  0  0  0  0  0  0999 V2000
    0.0010   -2.9118   -0.2947 O   0  0  0  0  0  0  0  0  0  0  0  0
    4.9366    1.0245    0.1012 N   0  0  0  0  0  0  0  0  0  0  0  0
   -4.9095    1.1571    0.1138 N   0  0  0  0  0  0  0  0  0  0  0  0
    1.2522   -0.9829   -0.0934 C   0  0  0  0  0  0  0  0  0  0  0  0
   -1.3015   -0.9359   -0.0897 C   0  0  0  0  0  0  0  0  0  0  0  0
    3.6994    0.3505    0.0360 C   0  0  0  0  0  0  0  0  0  0  0  0
   -3.6908    0.4504    0.0452 C   0  0  0  0  0  0  0  0  0  0  0  0
   -0.0240   -1.6769   -0.1604 C   0  0  0  0  0  0  0  0  0  0  0  0
    1.8638   -0.7656    1.1413 C   0  0  0  0  0  0  0  0  0  0  0  0
   -1.2748    0.4404    0.0425 C   0  0  0  0  0  0  0  0  0  0  0  0
    1.8644   -0.5336   -1.2635 C   0  0  0  0  0  0  0  0  0  0  0  0
   -2.4915   -1.6374   -0.1564 C   0  0  0  0  0  0  0  0  0  0  0  0
    3.0873   -0.0989    1.2061 C   0  0  0  0  0  0  0  0  0  0  0  0
   -2.4800    1.1396    0.1107 C   0  0  0  0  0  0  0  0  0  0  0  0
    3.0880    0.1330   -1.1988 C   0  0  0  0  0  0  0  0  0  0  0  0
   -3.6966   -0.9381   -0.0885 C   0  0  0  0  0  0  0  0  0  0  0  0
    5.8803    0.7258    1.1598 C   0  0  0  0  0  0  0  0  0  0  0  0
    5.2863    2.0149   -0.8979 C   0  0  0  0  0  0  0  0  0  0  0  0
   -4.9991    2.5155   -0.3833 C   0  0  0  0  0  0  0  0  0  0  0  0
   -6.0916    0.5292    0.6699 C   0  0  0  0  0  0  0  0  0  0  0  0
  1  8  2  0
  2  6  1  0
  2 17  1  0
  2 18  1  0
  3  7  1  0
  3 19  1  0
  3 20  1  0
  4  8  1  0
  4  9  2  0
  4 11  1  0
  5  8  1  0
  5 10  2  0
  5 12  1  0
  6 13  2  0
  6 15  1  0
  7 14  2  0
  7 16  1  0
  9 13  1  0
 10 14  1  0
 11 15  2  0
 12 16  2  0
M  END
>  <PUBCHEM_COMPOUND_CID>  (1) 
7031

>  <PUBCHEM_CONFORMER_RMSD>  (1) 
0.6

>  <PUBCHEM_CONFORMER_DIVERSEORDER>  (1) 
1
3
2
4
7
5
6
8

>  <PUBCHEM_MMFF94_PARTIAL_CHARGES>  (1) 
28
1 -0.57
10 -0.15
11 -0.15
12 -0.15
13 -0.15
14 -0.15
15 -0.15
16 -0.15
17 0.37
18 0.37
19 0.37
2 -0.84
20 0.37
21 0.15
22 0.15
23 0.15
24 0.15
25 0.15
26 0.15
27 0.15
28 0.15
3 -0.84
4 0.09
5 0.09
6 0.1
7 0.1
8 0.4
9 -0.15

>  <PUBCHEM_EFFECTIVE_ROTOR_COUNT>  (1) 
4

>  <PUBCHEM_PHARMACOPHORE_FEATURES>  (1) 
5
1 1 acceptor
1 2 cation
1 3 cation
6 4 6 9 11 13 15 rings
6 5 7 10 12 14 16 rings

>  <PUBCHEM_HEAVY_ATOM_COUNT>  (1) 
20

>  <PUBCHEM_ATOM_DEF_STEREO_COUNT>  (1) 
0

>  <PUBCHEM_ATOM_UDEF_STEREO_COUNT>  (1) 
0

>  <PUBCHEM_BOND_DEF_STEREO_COUNT>  (1) 
0

>  <PUBCHEM_BOND_UDEF_STEREO_COUNT>  (1) 
0

>  <PUBCHEM_ISOTOPIC_ATOM_COUNT>  (1) 
0

>  <PUBCHEM_COMPONENT_COUNT>  (1) 
1

>  <PUBCHEM_CACTVS_TAUTO_COUNT>  (1) 
1

>  <PUBCHEM_CONFORMER_ID>  (1) 
00001B7700000001

>  <PUBCHEM_MMFF94_ENERGY>  (1) 
94.7806

>  <PUBCHEM_FEATURE_SELFOVERLAP>  (1) 
25.371

>  <PUBCHEM_SHAPE_FINGERPRINT>  (1) 
10 15 18114189661318506473
10354089 29 17603307050833639984
10411042 1 17619065470733181423
10498660 4 18343586217891817361
12107183 9 18262788576635445882
12236239 1 17967810587222124138
12390115 104 18201170900915481691
12403259 118 17749115474279840813
12403259 415 18337394820839676957
12403814 3 17603864486513264293
12596602 18 17240483645174260328
12730499 353 17632584850442245247
12788726 201 17247261189915580666
12892183 10 15936679376786185406
12969540 114 17561072580423508861
13583140 156 16877936162021198319
13685833 64 8358253756896517445
13955234 65 18194410983032537963
14341114 328 17458065975393056128
14739800 52 18122891291358001600
15188451 53 14129352818810359321
15196674 1 18411700971854104071
15238133 3 17386014935718094676
17539 30 17628343084954107791
17980427 23 18114747139446572519
193927 3 7853569140902531265
19784866 170 18409451362800683531
19784866 240 9007056889760744359
20281389 69 18410571786202412728
20374829 77 8790889579340298139
20388580 30 10807928280407822754
20645477 56 18201721769252655491
20645477 70 16773525364699324910
21452121 103 18337390439952163094
21637258 2 10303820843620302532
221357 26 16056884610874630984
23016692 55 8935000390707388024
23402539 116 18272925059740401118
23402655 69 17275386495051939686
23557571 272 17988084520533705655
23559900 14 18202290178209880174
26918003 58 14923944548533350381
270888 7 18409729551732215645
2838139 119 18200864141282137564
2916195 48 18130218358881344272
293599 30 18342739623881569792
29717793 49 11600009851123294624
3472631 163 18411139155656082773
350125 39 18193558852703703798
351380 3 9655579603999855516
3680242 22 18336549317799381504
4028521 119 17989208148386647515
465052 167 11314311633540149128
474 4 17387133276972989644
5104073 3 18116440245967430489
59682541 35 18337680802086414131
59682541 52 16414922924576565572
633830 44 18409444765362178238
76465 3 8286188440876487689
7808743 9 18410854394992207145
9981440 41 18407761434745906059

>  <PUBCHEM_SHAPE_MULTIPOLES>  (1) 
395.76
13.37
2.16
1.06
0.47
0.13
0.03
-9.78
1.85
1.14
-0.4
-1.18
-0.05
-0.27

>  <PUBCHEM_SHAPE_SELFOVERLAP>  (1) 
839.801

>  <PUBCHEM_SHAPE_VOLUME>  (1) 
222.6

>  <PUBCHEM_COORDINATE_TYPE>  (1) 
2
5
10

$$$$
