7036
     RDKit          3D

 14 15  0  0  0  0  0  0  0  0999 V2000
    0.0604   -2.4382   -0.6398 N   0  0  0  0  0  0  0  0  0  0  0  0
    0.0299   -1.2692    0.2728 C   0  0  0  0  0  0  0  0  0  0  0  0
   -1.2332   -0.4807    0.1868 C   0  0  0  0  0  0  0  0  0  0  0  0
    1.2852   -0.4054    0.1044 C   0  0  0  0  0  0  0  0  0  0  0  0
   -1.7061    0.2031    1.3069 C   0  0  0  0  0  0  0  0  0  0  0  0
    2.3833   -0.6855    0.8824 C   0  0  0  0  0  0  0  0  0  0  0  0
   -1.9413   -0.4265   -1.0138 C   0  0  0  0  0  0  0  0  0  0  0  0
    1.2614    0.6135   -0.8180 C   0  0  0  0  0  0  0  0  0  0  0  0
   -2.8872    0.9408    1.2265 C   0  0  0  0  0  0  0  0  0  0  0  0
    3.5256    0.1003    0.7290 C   0  0  0  0  0  0  0  0  0  0  0  0
   -3.1223    0.3112   -1.0941 C   0  0  0  0  0  0  0  0  0  0  0  0
    2.4038    1.3992   -0.9714 C   0  0  0  0  0  0  0  0  0  0  0  0
   -3.5953    0.9949    0.0261 C   0  0  0  0  0  0  0  0  0  0  0  0
    3.5358    1.1425   -0.1978 C   0  0  0  0  0  0  0  0  0  0  0  0
  1  2  1  0
  2  3  1  0
  2  4  1  0
  3  5  2  0
  3  7  1  0
  4  6  2  0
  4  8  1  0
  5  9  1  0
  6 10  1  0
  7 11  2  0
  8 12  2  0
  9 13  2  0
 10 14  2  0
 11 13  1  0
 12 14  1  0
M  END
>  <PUBCHEM_COMPOUND_CID>  (1) 
7036

>  <PUBCHEM_CONFORMER_RMSD>  (1) 
0.6

>  <PUBCHEM_CONFORMER_DIVERSEORDER>  (1) 
1
2

>  <PUBCHEM_MMFF94_PARTIAL_CHARGES>  (1) 
26
1 -0.99
10 -0.15
11 -0.15
12 -0.15
13 -0.15
14 -0.15
16 0.15
17 0.15
18 0.15
19 0.15
2 0.56
20 0.36
21 0.36
22 0.15
23 0.15
24 0.15
25 0.15
26 0.15
27 0.15
3 -0.14
4 -0.14
5 -0.15
6 -0.15
7 -0.15
8 -0.15
9 -0.15

>  <PUBCHEM_EFFECTIVE_ROTOR_COUNT>  (1) 
2

>  <PUBCHEM_PHARMACOPHORE_FEATURES>  (1) 
4
1 1 cation
1 1 donor
6 3 5 7 9 11 13 rings
6 4 6 8 10 12 14 rings

>  <PUBCHEM_HEAVY_ATOM_COUNT>  (1) 
14

>  <PUBCHEM_ATOM_DEF_STEREO_COUNT>  (1) 
0

>  <PUBCHEM_ATOM_UDEF_STEREO_COUNT>  (1) 
0

>  <PUBCHEM_BOND_DEF_STEREO_COUNT>  (1) 
0

>  <PUBCHEM_BOND_UDEF_STEREO_COUNT>  (1) 
0

>  <PUBCHEM_ISOTOPIC_ATOM_COUNT>  (1) 
0

>  <PUBCHEM_COMPONENT_COUNT>  (1) 
1

>  <PUBCHEM_CACTVS_TAUTO_COUNT>  (1) 
1

>  <PUBCHEM_CONFORMER_ID>  (1) 
00001B7C00000001

>  <PUBCHEM_MMFF94_ENERGY>  (1) 
41.7381

>  <PUBCHEM_FEATURE_SELFOVERLAP>  (1) 
20.297

>  <PUBCHEM_SHAPE_FINGERPRINT>  (1) 
10465860 228 18198069070870103897
10618630 7 9079127656410842544
10980938 120 17967809470746690560
11640471 11 18271805696483684553
12251169 10 17095531716006812697
124424 183 16733254673310768728
12491281 212 18411984701841353248
12696612 119 17023197062081424108
12897270 3 14908181945157458104
13299463 15 13973969796074037645
13705890 14 13830131689597953488
13764800 53 18200328704920590579
15219456 202 17022902341388694377
15309172 13 18261111872072087494
15653759 3 15864070961782635869
15775835 57 18410291427869609085
16945 1 17967530138695052986
17804303 29 15068622630374579811
17844478 74 16153703219786656396
18186145 218 18343590615980240732
18522851 12 8214145191544408424
19049666 15 16155095098206639779
19107657 47 17822283570096811937
19107657 9 18341623610973949561
200 152 18114456868630124327
20645464 45 17022905627518580945
20871999 31 15984809455359085525
21524375 3 18409729577496406771
21713013 43 13470683759003289365
21731516 1 8430315710215221137
22169311 14 16153706509494396944
22802520 49 14836137511178958337
23402539 116 17346590868388570840
23557571 272 16056305237219223251
23559900 14 15338840829163669876
305870 269 18271248209596957223
7364860 26 17487341434587285335
74978 22 18340488997026667852
77492 1 18272643528675881795
83771 10 9943807802502512207

>  <PUBCHEM_SHAPE_MULTIPOLES>  (1) 
283.13
6.34
1.54
1.25
0.35
0.52
-0.11
-2.78
-0.57
0.44
0.34
-0.56
-0.08
-0.6

>  <PUBCHEM_SHAPE_SELFOVERLAP>  (1) 
608.812

>  <PUBCHEM_SHAPE_VOLUME>  (1) 
155.9

>  <PUBCHEM_COORDINATE_TYPE>  (1) 
2
5
10

$$$$
