7046
     RDKit          3D

 10 11  0  0  0  0  0  0  0  0999 V2000
    2.4424    0.6532    0.3489 N   0  0  0  0  0  0  0  0  0  0  0  0
    1.2596   -1.4805    0.0772 C   0  0  0  0  0  0  0  0  0  0  0  0
   -0.0350   -0.7107    0.0159 C   0  0  0  0  0  0  0  0  0  0  0  0
    2.4659   -0.6368   -0.3395 C   0  0  0  0  0  0  0  0  0  0  0  0
   -0.0209    0.6952   -0.0180 C   0  0  0  0  0  0  0  0  0  0  0  0
    1.2863    1.4462   -0.0847 C   0  0  0  0  0  0  0  0  0  0  0  0
   -1.2588   -1.3912    0.0517 C   0  0  0  0  0  0  0  0  0  0  0  0
   -1.2333    1.3969   -0.0527 C   0  0  0  0  0  0  0  0  0  0  0  0
   -2.4595   -0.6822    0.0278 C   0  0  0  0  0  0  0  0  0  0  0  0
   -2.4467    0.7099   -0.0267 C   0  0  0  0  0  0  0  0  0  0  0  0
  1  4  1  0
  1  6  1  0
  2  3  1  0
  2  4  1  0
  3  5  2  0
  3  7  1  0
  5  6  1  0
  5  8  1  0
  7  9  2  0
  8 10  2  0
  9 10  1  0
M  END
>  <PUBCHEM_COMPOUND_CID>  (1) 
7046

>  <PUBCHEM_CONFORMER_RMSD>  (1) 
0.4

>  <PUBCHEM_CONFORMER_DIVERSEORDER>  (1) 
1

>  <PUBCHEM_MMFF94_PARTIAL_CHARGES>  (1) 
15
1 -0.9
10 -0.15
17 0.36
18 0.15
19 0.15
2 0.14
20 0.15
21 0.15
3 -0.14
4 0.27
5 -0.14
6 0.41
7 -0.15
8 -0.15
9 -0.15

>  <PUBCHEM_EFFECTIVE_ROTOR_COUNT>  (1) 
0.8

>  <PUBCHEM_PHARMACOPHORE_FEATURES>  (1) 
4
1 1 cation
1 1 donor
6 1 2 3 4 5 6 rings
6 3 5 7 8 9 10 rings

>  <PUBCHEM_HEAVY_ATOM_COUNT>  (1) 
10

>  <PUBCHEM_ATOM_DEF_STEREO_COUNT>  (1) 
0

>  <PUBCHEM_ATOM_UDEF_STEREO_COUNT>  (1) 
0

>  <PUBCHEM_BOND_DEF_STEREO_COUNT>  (1) 
0

>  <PUBCHEM_BOND_UDEF_STEREO_COUNT>  (1) 
0

>  <PUBCHEM_ISOTOPIC_ATOM_COUNT>  (1) 
0

>  <PUBCHEM_COMPONENT_COUNT>  (1) 
1

>  <PUBCHEM_CACTVS_TAUTO_COUNT>  (1) 
1

>  <PUBCHEM_CONFORMER_ID>  (1) 
00001B8600000001

>  <PUBCHEM_MMFF94_ENERGY>  (1) 
19.5875

>  <PUBCHEM_FEATURE_SELFOVERLAP>  (1) 
20.319

>  <PUBCHEM_SHAPE_FINGERPRINT>  (1) 
10857977 72 18337382837638282411
12423570 1 11743830357293242243
12524768 44 18340772520360010871
12897270 3 18410573989462288303
14325111 11 18411136939415917353
16945 1 18409449180519304271
193761 8 15672668377135510479
19973954 147 18411141341746709829
20201158 50 18411979139563507102
21040471 1 18409449150454604668
23402655 69 18268413652348218829
23552423 10 18261395580410595718
241688 4 18263927648394445792
2748010 2 18193839481529321303
29004967 10 18335706065173333186
369184 2 16559029393720688067
5084963 1 18343585152613054609
528886 8 18411414003508467075
66348 1 18266459793513302190

>  <PUBCHEM_SHAPE_MULTIPOLES>  (1) 
200.81
3.58
1.72
0.63
0.15
0.02
-0.01
-0.05
-0.03
0.04
0.01
0.03
0
0.09

>  <PUBCHEM_SHAPE_SELFOVERLAP>  (1) 
425.228

>  <PUBCHEM_SHAPE_VOLUME>  (1) 
109.5

>  <PUBCHEM_COORDINATE_TYPE>  (1) 
2
5
10

$$$$
