7062
     RDKit          3D

 12 12  0  0  0  0  0  0  0  0999 V2000
   -3.1342   -1.4468    0.5036 O   0  0  0  0  0  0  0  0  0  0  0  0
    1.4727   -0.1354   -0.0028 N   0  0  0  0  0  0  0  0  0  0  0  0
    2.4647    0.8713   -0.3236 C   0  0  0  0  0  0  0  0  0  0  0  0
    1.9121   -1.4605    0.3874 C   0  0  0  0  0  0  0  0  0  0  0  0
    0.0978    0.1741   -0.0564 C   0  0  0  0  0  0  0  0  0  0  0  0
    2.8515    1.6730    0.9078 C   0  0  0  0  0  0  0  0  0  0  0  0
    2.0052   -2.3842   -0.8152 C   0  0  0  0  0  0  0  0  0  0  0  0
   -0.8496   -0.8016    0.2540 C   0  0  0  0  0  0  0  0  0  0  0  0
   -0.3147    1.4560   -0.4199 C   0  0  0  0  0  0  0  0  0  0  0  0
   -2.2094   -0.4952    0.2009 C   0  0  0  0  0  0  0  0  0  0  0  0
   -1.6743    1.7624   -0.4732 C   0  0  0  0  0  0  0  0  0  0  0  0
   -2.6217    0.7869   -0.1626 C   0  0  0  0  0  0  0  0  0  0  0  0
  1 10  1  0
  2  3  1  0
  2  4  1  0
  2  5  1  0
  3  6  1  0
  4  7  1  0
  5  8  2  0
  5  9  1  0
  8 10  1  0
  9 11  2  0
 10 12  2  0
 11 12  1  0
M  END
>  <PUBCHEM_COMPOUND_CID>  (1) 
7062

>  <PUBCHEM_CONFORMER_RMSD>  (1) 
0.6

>  <PUBCHEM_CONFORMER_DIVERSEORDER>  (1) 
3
10
14
13
7
5
11
6
12
4
1
2
8
9

>  <PUBCHEM_MMFF94_PARTIAL_CHARGES>  (1) 
15
1 -0.53
10 0.08
11 -0.15
12 -0.15
2 -0.84
23 0.15
24 0.15
25 0.15
26 0.15
27 0.45
3 0.37
4 0.37
5 0.1
8 -0.15
9 -0.15

>  <PUBCHEM_EFFECTIVE_ROTOR_COUNT>  (1) 
3

>  <PUBCHEM_PHARMACOPHORE_FEATURES>  (1) 
3
1 1 donor
1 2 cation
6 5 8 9 10 11 12 rings

>  <PUBCHEM_HEAVY_ATOM_COUNT>  (1) 
12

>  <PUBCHEM_ATOM_DEF_STEREO_COUNT>  (1) 
0

>  <PUBCHEM_ATOM_UDEF_STEREO_COUNT>  (1) 
0

>  <PUBCHEM_BOND_DEF_STEREO_COUNT>  (1) 
0

>  <PUBCHEM_BOND_UDEF_STEREO_COUNT>  (1) 
0

>  <PUBCHEM_ISOTOPIC_ATOM_COUNT>  (1) 
0

>  <PUBCHEM_COMPONENT_COUNT>  (1) 
1

>  <PUBCHEM_CACTVS_TAUTO_COUNT>  (1) 
3

>  <PUBCHEM_CONFORMER_ID>  (1) 
00001B9600000003

>  <PUBCHEM_MMFF94_ENERGY>  (1) 
37.6372

>  <PUBCHEM_FEATURE_SELFOVERLAP>  (1) 
15.223

>  <PUBCHEM_SHAPE_FINGERPRINT>  (1) 
10608611 8 18337666430044847980
107287 299 18342463668249070774
10857977 72 18262231248055645393
12524768 44 18336544919625814725
12716758 59 18188489043485132441
12897270 3 18409450297279516044
12932764 1 17918272073431131293
13380535 21 18338248071658836316
13380535 76 18336817663123936146
14252887 29 18263661708768379099
14648413 74 18268144262754980544
15219456 202 18411697664744883040
161256 15 18410582768481033822
16945 1 18264491852573262909
17990270 104 18340204068722353318
18186145 218 17900246521382692765
18380122 1 18409164454252448016
19973954 147 18338235951287455292
20201158 50 18267862779083009158
20645477 70 18341325613854228487
20871998 184 18266177429652564511
20871998 22 18262533592695224203
21501502 16 18337954493453521644
22802520 49 18338803290739436863
2334 1 18407479959636663279
23552423 10 18041567948668654631
2748010 2 18334576806855240191
369184 2 18410007706899263665
7364860 26 18271241625928777790
81228 2 18041285387582468513

>  <PUBCHEM_SHAPE_MULTIPOLES>  (1) 
236.1
4.61
2.31
0.82
0.53
0.47
0
0.14
0.47
-1.04
-0.16
-0.23
0
0.93

>  <PUBCHEM_SHAPE_SELFOVERLAP>  (1) 
476.052

>  <PUBCHEM_SHAPE_VOLUME>  (1) 
139.6

>  <PUBCHEM_COORDINATE_TYPE>  (1) 
2
5
10

$$$$
