7065
     RDKit          3D

 24 27  0  0  0  0  0  0  0  0999 V2000
    1.1608   -0.8392    0.0699 N   0  0  0  0  0  0  0  0  0  0  0  0
   -1.3106   -0.5800   -0.0725 N   0  0  0  0  0  0  0  0  0  0  0  0
    0.1481    1.4123   -0.0018 N   0  0  0  0  0  0  0  0  0  0  0  0
   -0.1561   -1.4823    0.0017 C   0  0  0  0  0  0  0  0  0  0  0  0
    1.2798    0.5567   -0.3548 C   0  0  0  0  0  0  0  0  0  0  0  0
   -1.1378    0.8115    0.3483 C   0  0  0  0  0  0  0  0  0  0  0  0
    2.3030   -1.6594    0.0999 C   0  0  0  0  0  0  0  0  0  0  0  0
   -2.5983   -1.1452   -0.1011 C   0  0  0  0  0  0  0  0  0  0  0  0
    0.2949    2.8044   -0.0004 C   0  0  0  0  0  0  0  0  0  0  0  0
    2.2639   -2.9488    0.6758 C   0  0  0  0  0  0  0  0  0  0  0  0
   -2.8272   -2.4178   -0.6703 C   0  0  0  0  0  0  0  0  0  0  0  0
    1.2047    3.4540   -0.8713 C   0  0  0  0  0  0  0  0  0  0  0  0
    3.5320   -1.2243   -0.4443 C   0  0  0  0  0  0  0  0  0  0  0  0
   -3.7107   -0.4614    0.4382 C   0  0  0  0  0  0  0  0  0  0  0  0
   -0.4592    3.6280    0.8719 C   0  0  0  0  0  0  0  0  0  0  0  0
    3.3967   -3.7622    0.7059 C   0  0  0  0  0  0  0  0  0  0  0  0
   -4.1043   -2.9782   -0.6988 C   0  0  0  0  0  0  0  0  0  0  0  0
    1.3512    4.8412   -0.8697 C   0  0  0  0  0  0  0  0  0  0  0  0
    4.6647   -2.0377   -0.4144 C   0  0  0  0  0  0  0  0  0  0  0  0
   -4.9877   -1.0218    0.4100 C   0  0  0  0  0  0  0  0  0  0  0  0
   -0.3128    5.0152    0.8733 C   0  0  0  0  0  0  0  0  0  0  0  0
    4.5971   -3.3066    0.1607 C   0  0  0  0  0  0  0  0  0  0  0  0
   -5.1846   -2.2803   -0.1586 C   0  0  0  0  0  0  0  0  0  0  0  0
    0.5924    5.6218    0.0024 C   0  0  0  0  0  0  0  0  0  0  0  0
  1  4  1  0
  1  5  1  0
  1  7  1  0
  2  4  1  0
  2  6  1  0
  2  8  1  0
  3  5  1  0
  3  6  1  0
  3  9  1  0
  7 10  2  0
  7 13  1  0
  8 11  2  0
  8 14  1  0
  9 12  2  0
  9 15  1  0
 10 16  1  0
 11 17  1  0
 12 18  1  0
 13 19  2  0
 14 20  2  0
 15 21  2  0
 16 22  2  0
 17 23  2  0
 18 24  2  0
 19 22  1  0
 20 23  1  0
 21 24  1  0
M  END
>  <PUBCHEM_COMPOUND_CID>  (1) 
7065

>  <PUBCHEM_CONFORMER_RMSD>  (1) 
0.8

>  <PUBCHEM_CONFORMER_DIVERSEORDER>  (1) 
1
7
4
8
2
3
5
6

>  <PUBCHEM_MMFF94_PARTIAL_CHARGES>  (1) 
39
1 -0.84
10 -0.15
11 -0.15
12 -0.15
13 -0.15
14 -0.15
15 -0.15
16 -0.15
17 -0.15
18 -0.15
19 -0.15
2 -0.84
20 -0.15
21 -0.15
22 -0.15
23 -0.15
24 -0.15
3 -0.84
31 0.15
32 0.15
33 0.15
34 0.15
35 0.15
36 0.15
37 0.15
38 0.15
39 0.15
4 0.74
40 0.15
41 0.15
42 0.15
43 0.15
44 0.15
45 0.15
5 0.74
6 0.74
7 0.1
8 0.1
9 0.1

>  <PUBCHEM_EFFECTIVE_ROTOR_COUNT>  (1) 
4.2

>  <PUBCHEM_PHARMACOPHORE_FEATURES>  (1) 
7
1 1 cation
1 2 cation
1 3 cation
6 1 2 3 4 5 6 rings
6 7 10 13 16 19 22 rings
6 8 11 14 17 20 23 rings
6 9 12 15 18 21 24 rings

>  <PUBCHEM_HEAVY_ATOM_COUNT>  (1) 
24

>  <PUBCHEM_ATOM_DEF_STEREO_COUNT>  (1) 
0

>  <PUBCHEM_ATOM_UDEF_STEREO_COUNT>  (1) 
0

>  <PUBCHEM_BOND_DEF_STEREO_COUNT>  (1) 
0

>  <PUBCHEM_BOND_UDEF_STEREO_COUNT>  (1) 
0

>  <PUBCHEM_ISOTOPIC_ATOM_COUNT>  (1) 
0

>  <PUBCHEM_COMPONENT_COUNT>  (1) 
1

>  <PUBCHEM_CACTVS_TAUTO_COUNT>  (1) 
1

>  <PUBCHEM_CONFORMER_ID>  (1) 
00001B9900000001

>  <PUBCHEM_MMFF94_ENERGY>  (1) 
111.0457

>  <PUBCHEM_FEATURE_SELFOVERLAP>  (1) 
35.589

>  <PUBCHEM_SHAPE_FINGERPRINT>  (1) 
10074138 170 17760347916926912906
10411042 1 18410856533944455943
1100329 8 18266465313179955961
11045515 52 18260548879205851879
11056379 131 18051702044716890454
12107183 9 18342189830457481507
12293681 160 18045530709604384078
12553582 1 18410565163395088119
12788726 201 18045780087520793651
13004483 165 18265610983543062499
13140716 1 18339075965359806569
13590594 115 18337681815282243609
138480 1 18410574032401372644
13955234 65 18122349244529971907
15042514 8 18122909728887191907
15230672 131 17398393517625633532
15664445 248 18270981131851945830
15705408 1 18194401314712242597
15927050 60 17330838436307605788
16087824 20 18050006598293365717
17980427 26 17909261726070890773
20600515 1 18129391414510194429
21049683 271 18115602571950538039
21120745 212 18267037072015901396
21796203 349 18048636773549272451
2255824 54 18195527214788272247
23366157 5 18193553595932635275
23558518 356 17757280284176751034
23559900 14 18267856350176681427
23845131 108 17471569310012838979
255183 313 17767134098810523009
283562 15 18189898604586771666
3091708 16 9427405656594708243
4409770 3 17903070037077478981
6058803 2 17985832756045304575
6442390 28 17257090896860541373
6443956 14 18337670922749347244
653340 110 18050556362343637514
6697151 62 18192120821140599087
6700243 42 17771093530687629526
7164475 11 18192435173843858798
77188 2 18410572881344856197
7808743 9 17760936143717665506
79837 15 17473542447725747307
84936 182 17910118250219579761
9777508 108 17763454020501802866
9981440 41 17400917999994339203

>  <PUBCHEM_SHAPE_MULTIPOLES>  (1) 
478.97
8.5
8.48
0.86
4.96
14.68
0
-14.99
0.33
-4.92
-0.34
-0.03
0.27
-1.54

>  <PUBCHEM_SHAPE_SELFOVERLAP>  (1) 
1036.171

>  <PUBCHEM_SHAPE_VOLUME>  (1) 
256

>  <PUBCHEM_COORDINATE_TYPE>  (1) 
2
5
10

$$$$
