7074
     RDKit          3D

 14 15  0  0  0  0  0  0  0  0999 V2000
    3.2703   -2.2239    0.0008 Cl  0  0  0  0  0  0  0  0  0  0  0  0
    4.2264    0.6253   -0.0018 O   0  0  0  0  0  0  0  0  0  0  0  0
    0.0955    0.2014    0.0008 C   0  0  0  0  0  0  0  0  0  0  0  0
   -1.3448    0.0647    0.0000 C   0  0  0  0  0  0  0  0  0  0  0  0
    0.9045   -0.9349    0.0017 C   0  0  0  0  0  0  0  0  0  0  0  0
    0.6749    1.4701   -0.0006 C   0  0  0  0  0  0  0  0  0  0  0  0
   -2.0394    0.0002    1.2079 C   0  0  0  0  0  0  0  0  0  0  0  0
   -2.0388   -0.0030   -1.2081 C   0  0  0  0  0  0  0  0  0  0  0  0
    2.2930   -0.8023    0.0012 C   0  0  0  0  0  0  0  0  0  0  0  0
    2.0634    1.6027   -0.0009 C   0  0  0  0  0  0  0  0  0  0  0  0
    2.8725    0.4665    0.0000 C   0  0  0  0  0  0  0  0  0  0  0  0
   -3.4281   -0.1321    1.2077 C   0  0  0  0  0  0  0  0  0  0  0  0
   -3.4273   -0.1351   -1.2083 C   0  0  0  0  0  0  0  0  0  0  0  0
   -4.1220   -0.1996   -0.0004 C   0  0  0  0  0  0  0  0  0  0  0  0
  1  9  1  0
  2 11  1  0
  3  4  1  0
  3  5  2  0
  3  6  1  0
  4  7  2  0
  4  8  1  0
  5  9  1  0
  6 10  2  0
  7 12  1  0
  8 13  2  0
  9 11  2  0
 10 11  1  0
 12 14  2  0
 13 14  1  0
M  END
>  <PUBCHEM_COMPOUND_CID>  (1) 
7074

>  <PUBCHEM_CONFORMER_RMSD>  (1) 
0.4

>  <PUBCHEM_CONFORMER_DIVERSEORDER>  (1) 
1
2

>  <PUBCHEM_MMFF94_PARTIAL_CHARGES>  (1) 
21
1 -0.18
10 -0.15
11 0.08
12 -0.15
13 -0.15
14 -0.15
15 0.15
16 0.15
17 0.15
18 0.15
19 0.15
2 -0.53
20 0.15
21 0.15
22 0.15
23 0.45
5 -0.15
6 -0.15
7 -0.15
8 -0.15
9 0.18

>  <PUBCHEM_EFFECTIVE_ROTOR_COUNT>  (1) 
1

>  <PUBCHEM_PHARMACOPHORE_FEATURES>  (1) 
3
1 2 donor
6 3 5 6 9 10 11 rings
6 4 7 8 12 13 14 rings

>  <PUBCHEM_HEAVY_ATOM_COUNT>  (1) 
14

>  <PUBCHEM_ATOM_DEF_STEREO_COUNT>  (1) 
0

>  <PUBCHEM_ATOM_UDEF_STEREO_COUNT>  (1) 
0

>  <PUBCHEM_BOND_DEF_STEREO_COUNT>  (1) 
0

>  <PUBCHEM_BOND_UDEF_STEREO_COUNT>  (1) 
0

>  <PUBCHEM_ISOTOPIC_ATOM_COUNT>  (1) 
0

>  <PUBCHEM_COMPONENT_COUNT>  (1) 
1

>  <PUBCHEM_CACTVS_TAUTO_COUNT>  (1) 
3

>  <PUBCHEM_CONFORMER_ID>  (1) 
00001BA200000001

>  <PUBCHEM_MMFF94_ENERGY>  (1) 
41.9137

>  <PUBCHEM_FEATURE_SELFOVERLAP>  (1) 
15.223

>  <PUBCHEM_SHAPE_FINGERPRINT>  (1) 
10219947 1 18413109450517683830
11471102 20 18409166619190213356
12236239 1 17703792530903161225
12932764 1 17775280564764188529
13296908 3 18040998414525119771
13581323 91 15213010579112673161
14144814 61 17989208144244582991
14251717 144 18411978057379571462
14252887 29 18334299764395516530
14576447 43 18129648833127492039
14993402 34 17988923392012737900
15219456 202 17967812743158381247
15309172 13 18412266159543495895
15375462 189 18060702796808293728
15653759 3 17167580509677928009
15775835 57 17561089115593917625
16945 1 18410574015627867236
17844478 74 17967254195673246941
1813 80 17985844648419026366
18175812 5 17603867857429608149
18186145 218 18412547608592036903
19049666 15 17749942246419339797
19422 9 17989489610673830079
200 152 18272082816859234301
20201158 50 18186239532524954339
20279233 1 17748827423138279667
204376 136 18194117641345544144
20645477 70 18337382747428664679
20871998 22 18056203466895808814
21501925 9 18338226064826628122
21639500 275 18268140027717045933
21730867 7 18261112988884864778
2255824 54 18271807968890603732
23402539 116 16009018523358252671
23402655 69 18412538795630544429
23557571 272 16877660162479054580
23559900 14 17022896810030051474
2748010 2 18193828250738618012
474 4 17771894193779419408
581208 293 18411978083375864760
77492 1 17703792530834576453

>  <PUBCHEM_SHAPE_MULTIPOLES>  (1) 
284.11
7.43
1.5
1.04
0.98
0.27
0
1.23
0
-2.04
0
1.14
0.05
0

>  <PUBCHEM_SHAPE_SELFOVERLAP>  (1) 
609.678

>  <PUBCHEM_SHAPE_VOLUME>  (1) 
158.2

>  <PUBCHEM_COORDINATE_TYPE>  (1) 
2
5
10

$$$$
