7079
     RDKit          3D

 20 21  0  0  0  0  0  0  0  0999 V2000
    2.7830   -2.2144   -0.3997 O   0  0  0  0  0  0  0  0  0  0  0  0
   -1.4218    0.9681   -1.3449 O   0  0  0  0  0  0  0  0  0  0  0  0
    0.6781    2.2428    0.8754 O   0  0  0  0  0  0  0  0  0  0  0  0
    1.2807    0.0292    0.3689 N   0  0  0  0  0  0  0  0  0  0  0  0
   -0.9958    0.5456    0.9811 C   0  0  0  0  0  0  0  0  0  0  0  0
    2.6611    0.1345    0.0729 C   0  0  0  0  0  0  0  0  0  0  0  0
   -1.8976    0.5729   -0.2611 C   0  0  0  0  0  0  0  0  0  0  0  0
   -3.2818    0.1374   -0.1671 C   0  0  0  0  0  0  0  0  0  0  0  0
    0.4184    1.0491    0.7491 C   0  0  0  0  0  0  0  0  0  0  0  0
    3.3759   -0.9906   -0.3046 C   0  0  0  0  0  0  0  0  0  0  0  0
    3.2687    1.3762    0.1688 C   0  0  0  0  0  0  0  0  0  0  0  0
    4.7352   -0.8711   -0.5938 C   0  0  0  0  0  0  0  0  0  0  0  0
   -3.7923   -0.3062    1.0530 C   0  0  0  0  0  0  0  0  0  0  0  0
   -4.0990    0.1628   -1.2971 C   0  0  0  0  0  0  0  0  0  0  0  0
    4.6281    1.4956   -0.1204 C   0  0  0  0  0  0  0  0  0  0  0  0
    5.3614    0.3721   -0.5017 C   0  0  0  0  0  0  0  0  0  0  0  0
   -5.1201   -0.7243    1.1429 C   0  0  0  0  0  0  0  0  0  0  0  0
   -5.4267   -0.2552   -1.2072 C   0  0  0  0  0  0  0  0  0  0  0  0
   -5.9372   -0.6989    0.0129 C   0  0  0  0  0  0  0  0  0  0  0  0
    2.7818   -3.0258    0.7727 C   0  0  0  0  0  0  0  0  0  0  0  0
  1 10  1  0
  1 20  1  0
  2  7  2  0
  3  9  2  0
  4  6  1  0
  4  9  1  0
  5  7  1  0
  5  9  1  0
  6 10  2  0
  6 11  1  0
  7  8  1  0
  8 13  2  0
  8 14  1  0
 10 12  1  0
 11 15  2  0
 12 16  2  0
 13 17  1  0
 14 18  2  0
 15 16  1  0
 17 19  2  0
 18 19  1  0
M  END
>  <PUBCHEM_COMPOUND_CID>  (1) 
7079

>  <PUBCHEM_CONFORMER_RMSD>  (1) 
0.8

>  <PUBCHEM_CONFORMER_DIVERSEORDER>  (1) 
1
123
90
6
84
111
125
118
83
122
17
29
45
99
95
55
46
74
110
49
87
127
14
44
93
9
92
38
3
126
39
5
115
16
91
121
103
70
36
19
58
78
57
25
37
113
96
26
108
47
11
33
64
10
80
86
109
67
50
97
27
28
51
102
101
13
54
88
106
23
79
77
120
124
104
53
42
82
65
68
8
31
66
119
32
75
69
61
73
34
105
98
81
116
89
71
60
24
48
63
107
112
62
4
59
94
52
100
21
114
22
15
56
41
35
117
72
85
20
12
2
30
76
43
7
18
40

>  <PUBCHEM_MMFF94_PARTIAL_CHARGES>  (1) 
30
1 -0.36
10 0.08
11 -0.15
12 -0.15
13 -0.15
14 -0.15
15 -0.15
16 -0.15
17 -0.15
18 -0.15
19 -0.15
2 -0.57
20 0.28
23 0.37
24 0.15
25 0.15
26 0.15
27 0.15
28 0.15
29 0.15
3 -0.57
30 0.15
31 0.15
32 0.15
4 -0.55
5 0.12
6 0.12
7 0.42
8 0.09
9 0.57

>  <PUBCHEM_EFFECTIVE_ROTOR_COUNT>  (1) 
6

>  <PUBCHEM_PHARMACOPHORE_FEATURES>  (1) 
7
1 1 acceptor
1 2 acceptor
1 3 acceptor
1 4 donor
1 5 anion
6 6 10 11 12 15 16 rings
6 8 13 14 17 18 19 rings

>  <PUBCHEM_HEAVY_ATOM_COUNT>  (1) 
20

>  <PUBCHEM_ATOM_DEF_STEREO_COUNT>  (1) 
0

>  <PUBCHEM_ATOM_UDEF_STEREO_COUNT>  (1) 
0

>  <PUBCHEM_BOND_DEF_STEREO_COUNT>  (1) 
0

>  <PUBCHEM_BOND_UDEF_STEREO_COUNT>  (1) 
0

>  <PUBCHEM_ISOTOPIC_ATOM_COUNT>  (1) 
0

>  <PUBCHEM_COMPONENT_COUNT>  (1) 
1

>  <PUBCHEM_CACTVS_TAUTO_COUNT>  (1) 
5

>  <PUBCHEM_CONFORMER_ID>  (1) 
00001BA700000001

>  <PUBCHEM_MMFF94_ENERGY>  (1) 
69.3182

>  <PUBCHEM_FEATURE_SELFOVERLAP>  (1) 
35.522

>  <PUBCHEM_SHAPE_FINGERPRINT>  (1) 
10447042 23 18410571769460263214
11287383 113 17822012046548802556
12107183 9 17552653452074550585
12166972 35 12612746917771502638
12236239 1 17203615899445408761
12507557 5 9511460026567299295
12516196 113 17989205966622577561
12553582 1 17703779306340225805
12596602 18 16702300187073907107
12730499 353 18334017220061769226
12788726 201 17489316243665003353
13685833 64 18336551603375785659
14386348 63 18113903775362773515
14573314 32 18187080637978324397
14576447 43 18343584015026917730
14617045 38 18409173229097889775
15183329 4 18130218260751509861
15537594 2 18273493485482096279
15961568 22 16588311647985957340
17134984 74 18338785823535510999
17492 89 18055075363523199662
17844677 252 18411986857989431909
1813 80 17845948380384231437
18222031 100 16630513038742414549
200 152 18272373061658315448
20567600 347 17240199920061948482
20645477 70 18412827954293230382
21033650 10 15431163444186794228
21267235 1 18130516262524550510
21623969 137 18410583906821843395
2215653 11 18335974325427081319
22950370 63 17846501434864312641
23402539 116 11312056535276028377
235170 7 17676764288592709159
23557571 272 17385721378913932317
23559900 14 18262796393143666857
23596394 208 18113893827896794995
239999 70 18343306968293605238
2767999 5 12829487069032994535
2871803 45 18411421692032644240
3004659 81 18334011653742098338
314194 84 18202846560641301795
33824 294 18409449181147259738
345986 75 17774437183658627843
3472631 163 15213311858568649518
34797466 226 17167871876175279351
351380 180 9511462212573777535
351380 3 17704352173652721575
4340502 62 18410569622166369954
46194498 28 17822576117578599941
465052 167 17704076230483053661
573450 72 16272209704573921865
8509985 295 8358257030020234838

>  <PUBCHEM_SHAPE_MULTIPOLES>  (1) 
389
14.12
1.97
1.16
7.78
1.2
-0.07
2.5
-2.43
-2.92
0.42
1.17
-0.04
0.39

>  <PUBCHEM_SHAPE_SELFOVERLAP>  (1) 
827.397

>  <PUBCHEM_SHAPE_VOLUME>  (1) 
215.8

>  <PUBCHEM_COORDINATE_TYPE>  (1) 
2
5
10

$$$$
