7090
     RDKit          3D

 12 13  0  0  1  0  0  0  0  0999 V2000
   -3.7918    1.0784    0.2345 O   0  0  0  0  0  0  0  0  0  0  0  0
   -0.6226   -0.2385   -0.1302 N   0  0  0  0  0  0  0  0  0  0  0  0
   -1.4815    0.8138    0.0557 N   0  0  0  0  0  0  0  0  0  0  0  0
   -1.3441   -1.4915   -0.0341 C   0  0  0  0  0  0  0  0  0  0  0  0
   -2.8044   -1.0878   -0.2175 C   0  0  0  0  0  0  0  0  0  0  0  0
    0.7565   -0.0751   -0.0633 C   0  0  0  0  0  0  0  0  0  0  0  0
   -2.7962    0.3909    0.0647 C   0  0  0  0  0  0  0  0  0  0  0  0
    1.5830   -1.1850    0.1127 C   0  0  0  0  0  0  0  0  0  0  0  0
    1.3137    1.1991   -0.1716 C   0  0  0  0  0  0  0  0  0  0  0  0
    2.9665   -1.0207    0.1806 C   0  0  0  0  0  0  0  0  0  0  0  0
    2.6973    1.3632   -0.1038 C   0  0  0  0  0  0  0  0  0  0  0  0
    3.5236    0.2532    0.0723 C   0  0  0  0  0  0  0  0  0  0  0  0
  1  7  2  0
  2  3  1  0
  2  4  1  0
  2  6  1  0
  3  7  1  0
  4  5  1  0
  5  7  1  0
  6  8  2  0
  6  9  1  0
  8 10  1  0
  9 11  2  0
 10 12  2  0
 11 12  1  0
M  END
>  <PUBCHEM_COMPOUND_CID>  (1) 
7090

>  <PUBCHEM_CONFORMER_RMSD>  (1) 
0.4

>  <PUBCHEM_CONFORMER_DIVERSEORDER>  (1) 
1
2
3

>  <PUBCHEM_MMFF94_PARTIAL_CHARGES>  (1) 
18
1 -0.57
10 -0.15
11 -0.15
12 -0.15
17 0.37
18 0.15
19 0.15
2 -0.49
20 0.15
21 0.15
22 0.15
3 -0.41
4 0.37
5 0.06
6 0.1
7 0.57
8 -0.15
9 -0.15

>  <PUBCHEM_EFFECTIVE_ROTOR_COUNT>  (1) 
1.8

>  <PUBCHEM_PHARMACOPHORE_FEATURES>  (1) 
4
1 1 acceptor
1 3 donor
5 2 3 4 5 7 rings
6 6 8 9 10 11 12 rings

>  <PUBCHEM_HEAVY_ATOM_COUNT>  (1) 
12

>  <PUBCHEM_ATOM_DEF_STEREO_COUNT>  (1) 
0

>  <PUBCHEM_ATOM_UDEF_STEREO_COUNT>  (1) 
0

>  <PUBCHEM_BOND_DEF_STEREO_COUNT>  (1) 
0

>  <PUBCHEM_BOND_UDEF_STEREO_COUNT>  (1) 
0

>  <PUBCHEM_ISOTOPIC_ATOM_COUNT>  (1) 
0

>  <PUBCHEM_COMPONENT_COUNT>  (1) 
1

>  <PUBCHEM_CACTVS_TAUTO_COUNT>  (1) 
3

>  <PUBCHEM_CONFORMER_ID>  (1) 
00001BB200000001

>  <PUBCHEM_MMFF94_ENERGY>  (1) 
40.0923

>  <PUBCHEM_FEATURE_SELFOVERLAP>  (1) 
20.297

>  <PUBCHEM_SHAPE_FINGERPRINT>  (1) 
10130415 120 18410569553088099840
10608611 8 18410852195953400120
11471102 20 18409162186636277428
12162725 195 18411416241186473671
12251169 10 18409448080949647737
12932764 1 17385995161466915870
13380535 76 18411981364446490559
14144814 61 18410009944281663474
14325111 11 18410855490198214125
14897335 6 18412258450013649231
15442244 35 18195246620384865162
15775835 57 18409453591398086684
16945 1 18335977571747279502
17844478 74 17531249426567618765
18186145 218 18261390031334065278
20201158 50 18410855447396513562
20645477 70 18337948995996135975
20871998 184 18129949021561866143
20871998 22 18052255099308196174
21501502 16 18410290358433223926
23402539 116 18131340891934844397
23402655 69 18413101745520610325
23463225 33 18408884023174323390
23552423 10 18261672678831559910
3248919 1 17749951188425199022
5104073 3 18410292531676003682
528886 8 18410288125392985042
57096353 35 18267302229884171726
69090 78 18412538808689389543
7364860 26 18343021039246151150

>  <PUBCHEM_SHAPE_MULTIPOLES>  (1) 
231.12
6.19
1.55
0.61
1.43
0.08
0
-0.86
0.27
-0.04
0
-0.03
0.01
-0.27

>  <PUBCHEM_SHAPE_SELFOVERLAP>  (1) 
491.601

>  <PUBCHEM_SHAPE_VOLUME>  (1) 
129.8

>  <PUBCHEM_COORDINATE_TYPE>  (1) 
2
5
10

$$$$
