7093
     RDKit          3D

 12 12  0  0  1  0  0  0  0  0999 V2000
   -3.9012    1.9066   -0.0693 Cl  0  0  0  0  0  0  0  0  0  0  0  0
   -0.7685   -0.6409    0.0066 N   0  0  0  0  0  0  0  0  0  0  0  0
   -1.8876    0.1456    0.4859 C   0  0  0  0  0  0  0  0  0  0  0  0
   -1.0025   -1.9948   -0.4542 C   0  0  0  0  0  0  0  0  0  0  0  0
    0.5343   -0.0998    0.0013 C   0  0  0  0  0  0  0  0  0  0  0  0
   -2.5174    0.9438   -0.6447 C   0  0  0  0  0  0  0  0  0  0  0  0
   -0.8580   -2.9708    0.6976 C   0  0  0  0  0  0  0  0  0  0  0  0
    1.6071   -0.8690   -0.4493 C   0  0  0  0  0  0  0  0  0  0  0  0
    0.7498    1.2043    0.4470 C   0  0  0  0  0  0  0  0  0  0  0  0
    2.8953   -0.3341   -0.4541 C   0  0  0  0  0  0  0  0  0  0  0  0
    2.0379    1.7392    0.4419 C   0  0  0  0  0  0  0  0  0  0  0  0
    3.1107    0.9700   -0.0088 C   0  0  0  0  0  0  0  0  0  0  0  0
  1  6  1  0
  2  3  1  0
  2  4  1  0
  2  5  1  0
  3  6  1  0
  4  7  1  0
  5  8  2  0
  5  9  1  0
  8 10  1  0
  9 11  2  0
 10 12  2  0
 11 12  1  0
M  END
>  <PUBCHEM_COMPOUND_CID>  (1) 
7093

>  <PUBCHEM_CONFORMER_RMSD>  (1) 
0.6

>  <PUBCHEM_CONFORMER_DIVERSEORDER>  (1) 
6
18
36
29
38
34
12
26
30
16
3
24
37
21
22
40
39
9
32
13
23
31
11
17
5
27
8
20
28
25
7
19
2
14
33
35
4
10
1
15

>  <PUBCHEM_MMFF94_PARTIAL_CHARGES>  (1) 
16
1 -0.29
10 -0.15
11 -0.15
12 -0.15
2 -0.84
22 0.15
23 0.15
24 0.15
25 0.15
26 0.15
3 0.37
4 0.37
5 0.1
6 0.29
8 -0.15
9 -0.15

>  <PUBCHEM_EFFECTIVE_ROTOR_COUNT>  (1) 
4

>  <PUBCHEM_PHARMACOPHORE_FEATURES>  (1) 
2
1 2 cation
6 5 8 9 10 11 12 rings

>  <PUBCHEM_HEAVY_ATOM_COUNT>  (1) 
12

>  <PUBCHEM_ATOM_DEF_STEREO_COUNT>  (1) 
0

>  <PUBCHEM_ATOM_UDEF_STEREO_COUNT>  (1) 
0

>  <PUBCHEM_BOND_DEF_STEREO_COUNT>  (1) 
0

>  <PUBCHEM_BOND_UDEF_STEREO_COUNT>  (1) 
0

>  <PUBCHEM_ISOTOPIC_ATOM_COUNT>  (1) 
0

>  <PUBCHEM_COMPONENT_COUNT>  (1) 
1

>  <PUBCHEM_CACTVS_TAUTO_COUNT>  (1) 
1

>  <PUBCHEM_CONFORMER_ID>  (1) 
00001BB500000006

>  <PUBCHEM_MMFF94_ENERGY>  (1) 
37.9971

>  <PUBCHEM_FEATURE_SELFOVERLAP>  (1) 
10.148

>  <PUBCHEM_SHAPE_FINGERPRINT>  (1) 
1 1 18192146001952957119
10608611 8 18269834379477882360
12138202 97 18409729603297709838
12500047 106 18410009966168034516
12532896 13 18408880746114432447
12716758 59 18410291453802865274
12730499 353 18191025595995406525
13294875 104 18196349473296757234
13380535 21 18268164212920112540
13380535 76 18342171180791759358
14325111 11 18411980252271299077
14648413 74 18269836574485674088
14911166 2 18270971141747069188
15279308 100 18411986866425931092
15775835 57 18336827502894154293
16945 1 18265053715947236166
17844478 74 17906179803605312554
18186145 218 18272092643422985437
19973954 147 18122906692350549388
20511035 2 18200590423137260796
20645476 183 18041860466180421902
20711985 344 18120641694113186075
21501502 16 18338229496241545462
21524375 3 18411132498846819511
23402655 69 18131063788902914893
23559900 14 18342463634817695564
25 1 18269274577877693053
2748010 2 18057330685251667892
3060560 45 18267858389911107285
7364860 26 17977662005427940895
81228 2 18046620385408957035
81539 233 18115869586352481413

>  <PUBCHEM_SHAPE_MULTIPOLES>  (1) 
243.84
5.2
2.66
0.79
1.97
1.83
0.01
-3.78
-0.56
1.24
0.46
0.06
0.09
0.46

>  <PUBCHEM_SHAPE_SELFOVERLAP>  (1) 
478.11

>  <PUBCHEM_SHAPE_VOLUME>  (1) 
147.3

>  <PUBCHEM_COORDINATE_TYPE>  (1) 
2
5
10

$$$$
