7100
     RDKit          3D

 14 14  0  0  0  0  0  0  0  0999 V2000
   -0.9188    1.6110   -0.6838 O   0  0  0  0  0  0  0  0  0  0  0  0
    0.8350   -0.5751   -0.4295 N   0  0  0  0  0  0  0  0  0  0  0  0
    4.0217    0.6835    0.9434 N   0  0  0  0  0  0  0  0  0  0  0  0
   -0.5459   -0.7011   -0.1630 C   0  0  0  0  0  0  0  0  0  0  0  0
   -1.3977    0.3954   -0.2955 C   0  0  0  0  0  0  0  0  0  0  0  0
    1.7503   -1.6664   -0.3101 C   0  0  0  0  0  0  0  0  0  0  0  0
   -1.0563   -1.9367    0.2352 C   0  0  0  0  0  0  0  0  0  0  0  0
   -2.7599    0.2565   -0.0296 C   0  0  0  0  0  0  0  0  0  0  0  0
    3.1694   -1.2258   -0.6532 C   0  0  0  0  0  0  0  0  0  0  0  0
   -2.4186   -2.0755    0.5012 C   0  0  0  0  0  0  0  0  0  0  0  0
   -3.2704   -0.9789    0.3689 C   0  0  0  0  0  0  0  0  0  0  0  0
   -1.0987    2.6972    0.2223 C   0  0  0  0  0  0  0  0  0  0  0  0
    0.0451    3.6746    0.0538 C   0  0  0  0  0  0  0  0  0  0  0  0
    3.6447   -0.1587    0.2398 C   0  0  0  0  0  0  0  0  0  0  0  0
  1  5  1  0
  1 12  1  0
  2  4  1  0
  2  6  1  0
  3 14  3  0
  4  5  2  0
  4  7  1  0
  5  8  1  0
  6  9  1  0
  7 10  2  0
  8 11  2  0
  9 14  1  0
 10 11  1  0
 12 13  1  0
M  END
>  <PUBCHEM_COMPOUND_CID>  (1) 
7100

>  <PUBCHEM_CONFORMER_RMSD>  (1) 
0.6

>  <PUBCHEM_CONFORMER_DIVERSEORDER>  (1) 
1
29
18
72
73
30
65
47
26
79
76
39
75
60
74
33
52
77
80
21
14
42
17
81
34
64
82
45
54
22
48
70
71
38
58
24
19
31
68
10
49
51
32
62
35
41
53
46
12
56
25
13
36
40
50
27
37
69
59
20
78
5
28
63
83
44
23
6
9
57
11
61
66
7
43
8
2
67
55
15
16
4
3

>  <PUBCHEM_MMFF94_PARTIAL_CHARGES>  (1) 
18
1 -0.36
10 -0.15
11 -0.15
12 0.28
14 0.36
17 0.4
18 0.15
19 0.15
2 -0.87
22 0.15
23 0.15
3 -0.56
4 0.1
5 0.08
6 0.37
7 -0.15
8 -0.15
9 0.2

>  <PUBCHEM_EFFECTIVE_ROTOR_COUNT>  (1) 
5

>  <PUBCHEM_PHARMACOPHORE_FEATURES>  (1) 
5
1 1 acceptor
1 2 cation
1 2 donor
1 3 acceptor
6 4 5 7 8 10 11 rings

>  <PUBCHEM_HEAVY_ATOM_COUNT>  (1) 
14

>  <PUBCHEM_ATOM_DEF_STEREO_COUNT>  (1) 
0

>  <PUBCHEM_ATOM_UDEF_STEREO_COUNT>  (1) 
0

>  <PUBCHEM_BOND_DEF_STEREO_COUNT>  (1) 
0

>  <PUBCHEM_BOND_UDEF_STEREO_COUNT>  (1) 
0

>  <PUBCHEM_ISOTOPIC_ATOM_COUNT>  (1) 
0

>  <PUBCHEM_COMPONENT_COUNT>  (1) 
1

>  <PUBCHEM_CACTVS_TAUTO_COUNT>  (1) 
1

>  <PUBCHEM_CONFORMER_ID>  (1) 
00001BBC00000001

>  <PUBCHEM_MMFF94_ENERGY>  (1) 
42.9713

>  <PUBCHEM_FEATURE_SELFOVERLAP>  (1) 
25.371

>  <PUBCHEM_SHAPE_FINGERPRINT>  (1) 
10608611 8 18269836419945901166
11132069 177 18410013247153958859
14022349 108 17905617957373993001
19049666 15 18054230930013513654
20304884 271 17837771123587687940
20510252 161 18339081467170701777
21029758 11 18411414029937627871
21524375 3 17403736653570401221
21650355 55 18335698381477236922
22182937 141 17913213057381700360
2297311 6 18338532893053406870
23402539 116 18342450422749700567
23419403 2 17755835843561280023
23557571 272 18339935839435235974
23559900 14 18337673014815327398
2748010 2 18411701006382524239
6049 1 18058179336530118966
7364860 26 17979080714598098651
81228 2 18190480280280455487
84936 182 16896221825853917476

>  <PUBCHEM_SHAPE_MULTIPOLES>  (1) 
272.28
5.77
3.41
0.77
5.47
3.92
0.03
-2.03
1.03
-1.07
0.17
0.24
-0.01
0.72

>  <PUBCHEM_SHAPE_SELFOVERLAP>  (1) 
547.264

>  <PUBCHEM_SHAPE_VOLUME>  (1) 
158

>  <PUBCHEM_COORDINATE_TYPE>  (1) 
2
5
10

$$$$
