7113
     RDKit          3D

 15 16  0  0  0  0  0  0  0  0999 V2000
    4.5186   -1.1274    0.0006 O   0  0  0  0  0  0  0  0  0  0  0  0
   -0.3648   -0.0126   -0.0007 C   0  0  0  0  0  0  0  0  0  0  0  0
   -1.8117    0.0015   -0.0004 C   0  0  0  0  0  0  0  0  0  0  0  0
    2.4249   -0.0411   -0.0003 C   0  0  0  0  0  0  0  0  0  0  0  0
    0.3449    1.1881   -0.0002 C   0  0  0  0  0  0  0  0  0  0  0  0
    0.3203   -1.2276   -0.0009 C   0  0  0  0  0  0  0  0  0  0  0  0
    1.7396    1.1740   -0.0001 C   0  0  0  0  0  0  0  0  0  0  0  0
    1.7151   -1.2420   -0.0006 C   0  0  0  0  0  0  0  0  0  0  0  0
   -2.5088    0.0083    1.2079 C   0  0  0  0  0  0  0  0  0  0  0  0
   -2.5096    0.0089   -1.2081 C   0  0  0  0  0  0  0  0  0  0  0  0
    3.8790   -0.0566    0.0002 C   0  0  0  0  0  0  0  0  0  0  0  0
   -3.9036    0.0221    1.2085 C   0  0  0  0  0  0  0  0  0  0  0  0
   -3.9045    0.0229   -1.2075 C   0  0  0  0  0  0  0  0  0  0  0  0
   -4.6013    0.0294    0.0008 C   0  0  0  0  0  0  0  0  0  0  0  0
    4.6618    1.2521    0.0007 C   0  0  0  0  0  0  0  0  0  0  0  0
  1 11  2  0
  2  3  1  0
  2  5  2  0
  2  6  1  0
  3  9  2  0
  3 10  1  0
  4  7  2  0
  4  8  1  0
  4 11  1  0
  5  7  1  0
  6  8  2  0
  9 12  1  0
 10 13  2  0
 11 15  1  0
 12 14  2  0
 13 14  1  0
M  END
>  <PUBCHEM_COMPOUND_CID>  (1) 
7113

>  <PUBCHEM_CONFORMER_RMSD>  (1) 
0.6

>  <PUBCHEM_CONFORMER_DIVERSEORDER>  (1) 
1
2

>  <PUBCHEM_MMFF94_PARTIAL_CHARGES>  (1) 
22
1 -0.57
10 -0.15
11 0.42
12 -0.15
13 -0.15
14 -0.15
15 0.06
16 0.15
17 0.15
18 0.15
19 0.15
20 0.15
21 0.15
22 0.15
23 0.15
24 0.15
4 0.09
5 -0.15
6 -0.15
7 -0.15
8 -0.15
9 -0.15

>  <PUBCHEM_EFFECTIVE_ROTOR_COUNT>  (1) 
2

>  <PUBCHEM_PHARMACOPHORE_FEATURES>  (1) 
3
1 1 acceptor
6 2 4 5 6 7 8 rings
6 3 9 10 12 13 14 rings

>  <PUBCHEM_HEAVY_ATOM_COUNT>  (1) 
15

>  <PUBCHEM_ATOM_DEF_STEREO_COUNT>  (1) 
0

>  <PUBCHEM_ATOM_UDEF_STEREO_COUNT>  (1) 
0

>  <PUBCHEM_BOND_DEF_STEREO_COUNT>  (1) 
0

>  <PUBCHEM_BOND_UDEF_STEREO_COUNT>  (1) 
0

>  <PUBCHEM_ISOTOPIC_ATOM_COUNT>  (1) 
0

>  <PUBCHEM_COMPONENT_COUNT>  (1) 
1

>  <PUBCHEM_CACTVS_TAUTO_COUNT>  (1) 
2

>  <PUBCHEM_CONFORMER_ID>  (1) 
00001BC900000001

>  <PUBCHEM_MMFF94_ENERGY>  (1) 
48.2358

>  <PUBCHEM_FEATURE_SELFOVERLAP>  (1) 
15.223

>  <PUBCHEM_SHAPE_FINGERPRINT>  (1) 
10219947 1 18410294709509225932
10465860 250 16805317803567049940
10912923 1 17632577162629763010
11401426 45 18343014501836096900
11471102 20 18410009944719506796
11543360 7 15913046577386447456
12236239 1 17847062181900223337
124424 183 17748825215546065073
12500047 106 16370720439863212571
13581323 91 15430035465478940939
13675066 3 17821730559019265538
13760787 19 15698002929078747572
13760787 5 18412826884904077692
14993402 34 17989202663686965476
15219456 202 17821727213165979835
15309172 13 18411702084350931983
15375358 24 17967249797357509075
15653759 3 17022621991878018617
16945 1 18410575080589703174
17834072 33 17560796671080893749
18175812 5 17603588560069862391
18186145 218 18342740736731851548
19026448 4 17022902350352980458
19026448 5 17060339621767131982
200 152 18272083912091744965
20279233 1 17676491640090159579
204376 136 18336267928742978842
20645477 70 18335134250771896878
22094290 60 16298386851126545261
22485316 2 17458343052375970842
22854114 59 18334013908335970272
23175994 123 18186525392969619125
23402539 116 15482666858455858017
23402655 69 18271520919004307365
23557571 272 16805604707472009607
23559900 14 16733260141305576130
265663 24 17203608189905012390
474 4 17772456035678731640
542803 24 17703793621608615681
573450 72 16773794758054266015
77492 1 17703790319142664355

>  <PUBCHEM_SHAPE_MULTIPOLES>  (1) 
302.82
9.51
1.17
1.01
2.02
0.03
0
-0.58
0
1.19
0
-1.26
-0.02
0

>  <PUBCHEM_SHAPE_SELFOVERLAP>  (1) 
655.441

>  <PUBCHEM_SHAPE_VOLUME>  (1) 
166.8

>  <PUBCHEM_COORDINATE_TYPE>  (1) 
2
5
10

$$$$
