7120
     RDKit          3D

 12 12  0  0  0  0  0  0  0  0999 V2000
    1.6094    0.0007    0.0058 N   0  0  0  0  0  0  0  0  0  0  0  0
   -4.0007    0.0000   -0.0065 N   0  0  0  0  0  0  0  0  0  0  0  0
    2.3445   -1.1673   -0.4376 C   0  0  0  0  0  0  0  0  0  0  0  0
    2.3426    1.1743    0.4373 C   0  0  0  0  0  0  0  0  0  0  0  0
    0.1992    0.0000    0.0046 C   0  0  0  0  0  0  0  0  0  0  0  0
   -0.4972   -1.1296   -0.4253 C   0  0  0  0  0  0  0  0  0  0  0  0
   -0.4993    1.1293    0.4321 C   0  0  0  0  0  0  0  0  0  0  0  0
    2.4397   -2.2075    0.6656 C   0  0  0  0  0  0  0  0  0  0  0  0
    2.4387    2.2022   -0.6773 C   0  0  0  0  0  0  0  0  0  0  0  0
   -1.8921   -1.1300   -0.4279 C   0  0  0  0  0  0  0  0  0  0  0  0
   -1.8942    1.1288    0.4295 C   0  0  0  0  0  0  0  0  0  0  0  0
   -2.5906   -0.0009   -0.0005 C   0  0  0  0  0  0  0  0  0  0  0  0
  1  3  1  0
  1  4  1  0
  1  5  1  0
  2 12  1  0
  3  8  1  0
  4  9  1  0
  5  6  2  0
  5  7  1  0
  6 10  1  0
  7 11  2  0
 10 12  2  0
 11 12  1  0
M  END
>  <PUBCHEM_COMPOUND_CID>  (1) 
7120

>  <PUBCHEM_CONFORMER_RMSD>  (1) 
0.6

>  <PUBCHEM_CONFORMER_DIVERSEORDER>  (1) 
1
7
9
8
5
3
6
4
2

>  <PUBCHEM_MMFF94_PARTIAL_CHARGES>  (1) 
16
1 -0.84
10 -0.15
11 -0.15
12 0.1
17 0.15
18 0.15
2 -0.9
25 0.15
26 0.15
27 0.4
28 0.4
3 0.37
4 0.37
5 0.1
6 -0.15
7 -0.15

>  <PUBCHEM_EFFECTIVE_ROTOR_COUNT>  (1) 
3

>  <PUBCHEM_PHARMACOPHORE_FEATURES>  (1) 
4
1 1 cation
1 2 cation
1 2 donor
6 5 6 7 10 11 12 rings

>  <PUBCHEM_HEAVY_ATOM_COUNT>  (1) 
12

>  <PUBCHEM_ATOM_DEF_STEREO_COUNT>  (1) 
0

>  <PUBCHEM_ATOM_UDEF_STEREO_COUNT>  (1) 
0

>  <PUBCHEM_BOND_DEF_STEREO_COUNT>  (1) 
0

>  <PUBCHEM_BOND_UDEF_STEREO_COUNT>  (1) 
0

>  <PUBCHEM_ISOTOPIC_ATOM_COUNT>  (1) 
0

>  <PUBCHEM_COMPONENT_COUNT>  (1) 
1

>  <PUBCHEM_CACTVS_TAUTO_COUNT>  (1) 
1

>  <PUBCHEM_CONFORMER_ID>  (1) 
00001BD000000001

>  <PUBCHEM_MMFF94_ENERGY>  (1) 
48.4592

>  <PUBCHEM_FEATURE_SELFOVERLAP>  (1) 
20.297

>  <PUBCHEM_SHAPE_FINGERPRINT>  (1) 
10130415 120 18272367534183014123
10465860 71 17985853461728743662
12326174 3 17603575344777401944
12897270 3 18198909291059174324
12932764 1 18187087217541063647
13380535 21 18268158719467238219
13380535 76 18337952415037555570
14325111 11 18341895190810012969
15279307 12 18341333413050458190
15775835 57 18271812379379125836
16945 1 18408604759826104321
18186145 218 18408604730220243389
18619055 16 18413101771300807421
19026448 4 17603304856490350083
19973954 147 18411984632821468816
20559304 39 18341049636155678754
20645477 70 18412542098624035799
20653091 64 18339362968323437170
20871998 22 18125439709759762950
21501502 16 18343584040527748153
21501925 9 18341319003398224426
2255824 54 18335707135037155006
23463225 33 18341612577408460519
23552423 10 18410011056789073318
2748010 2 18341047411215218693
369184 2 18412823577679052363
449060 62 18341901834908310945
5084963 1 18201155438642819353
528862 383 18410007745474692170
57177213 63 18264774427156598900
7364860 26 18273495676400200202
8030462 33 18272934959244470325

>  <PUBCHEM_SHAPE_MULTIPOLES>  (1) 
236.99
5.06
2.13
0.78
2.51
0
0
0
-0.01
-2.03
0
-0.2
0
-0.62

>  <PUBCHEM_SHAPE_SELFOVERLAP>  (1) 
476.957

>  <PUBCHEM_SHAPE_VOLUME>  (1) 
140.2

>  <PUBCHEM_COORDINATE_TYPE>  (1) 
2
5
10

$$$$
