7125
     RDKit          3D

 14 15  0  0  0  0  0  0  0  0999 V2000
   -3.4269   -0.3923   -1.7846 Cl  0  0  0  0  0  0  0  0  0  0  0  0
   -2.9177   -0.2338    0.1915 S   0  0  0  0  0  0  0  0  0  0  0  0
   -3.6498    0.9082    0.7063 O   0  0  0  0  0  0  0  0  0  0  0  0
   -3.0923   -1.5688    0.7336 O   0  0  0  0  0  0  0  0  0  0  0  0
    1.1055   -0.5487    0.0432 C   0  0  0  0  0  0  0  0  0  0  0  0
    1.5120    0.8058   -0.0124 C   0  0  0  0  0  0  0  0  0  0  0  0
   -1.2197    0.1645    0.1106 C   0  0  0  0  0  0  0  0  0  0  0  0
   -0.2644   -0.8524    0.1042 C   0  0  0  0  0  0  0  0  0  0  0  0
    0.5368    1.8165   -0.0056 C   0  0  0  0  0  0  0  0  0  0  0  0
   -0.8199    1.4964    0.0555 C   0  0  0  0  0  0  0  0  0  0  0  0
    2.0807   -1.5592    0.0360 C   0  0  0  0  0  0  0  0  0  0  0  0
    2.8816    1.1098   -0.0737 C   0  0  0  0  0  0  0  0  0  0  0  0
    3.4372   -1.2390   -0.0249 C   0  0  0  0  0  0  0  0  0  0  0  0
    3.8370    0.0930   -0.0796 C   0  0  0  0  0  0  0  0  0  0  0  0
  1  2  1  0
  2  3  2  0
  2  4  2  0
  2  7  1  0
  5  6  2  0
  5  8  1  0
  5 11  1  0
  6  9  1  0
  6 12  1  0
  7  8  2  0
  7 10  1  0
  9 10  2  0
 11 13  2  0
 12 14  2  0
 13 14  1  0
M  END
>  <PUBCHEM_COMPOUND_CID>  (1) 
7125

>  <PUBCHEM_CONFORMER_RMSD>  (1) 
0.4

>  <PUBCHEM_CONFORMER_DIVERSEORDER>  (1) 
1
2

>  <PUBCHEM_MMFF94_PARTIAL_CHARGES>  (1) 
19
1 -0.19
10 -0.15
11 -0.15
12 -0.15
13 -0.15
14 -0.15
15 0.15
16 0.15
17 0.15
18 0.15
19 0.15
2 1.49
20 0.15
21 0.15
3 -0.65
4 -0.65
7 -0.01
8 -0.15
9 -0.15

>  <PUBCHEM_EFFECTIVE_ROTOR_COUNT>  (1) 
1

>  <PUBCHEM_PHARMACOPHORE_FEATURES>  (1) 
2
6 5 6 11 12 13 14 rings
6 5 6 7 8 9 10 rings

>  <PUBCHEM_HEAVY_ATOM_COUNT>  (1) 
14

>  <PUBCHEM_ATOM_DEF_STEREO_COUNT>  (1) 
0

>  <PUBCHEM_ATOM_UDEF_STEREO_COUNT>  (1) 
0

>  <PUBCHEM_BOND_DEF_STEREO_COUNT>  (1) 
0

>  <PUBCHEM_BOND_UDEF_STEREO_COUNT>  (1) 
0

>  <PUBCHEM_ISOTOPIC_ATOM_COUNT>  (1) 
0

>  <PUBCHEM_COMPONENT_COUNT>  (1) 
1

>  <PUBCHEM_CACTVS_TAUTO_COUNT>  (1) 
1

>  <PUBCHEM_CONFORMER_ID>  (1) 
00001BD500000001

>  <PUBCHEM_MMFF94_ENERGY>  (1) 
29.0397

>  <PUBCHEM_FEATURE_SELFOVERLAP>  (1) 
10.175

>  <PUBCHEM_SHAPE_FINGERPRINT>  (1) 
10219947 1 18343585144213095438
11132069 177 18411697677650864688
11471102 20 18409164411471560716
11769659 78 18201432562796611966
11806522 49 18267582584159494471
12032990 46 18409737261372143466
12932764 1 17489587900256862377
13296908 3 18334579061591946155
13760787 5 18407760326580409564
14144814 61 18411983567653547466
14251717 144 18340761619759302998
14289901 80 16128659660504704698
14325111 11 18410578400430715480
14576447 43 18129365167780802999
14993402 34 18130782386528665607
15536298 74 18343867710470162936
16945 1 18411134783548030600
17844478 74 17894917312665047701
18186145 218 17894631443831239602
19026448 4 16153426142856449956
19107657 46 18410015450472259650
19422 9 18131632291942490647
200 152 18201709656991031439
20201158 50 18334575737202843482
20279233 1 17894623760314134127
20281475 54 18408326583474071274
20645477 70 18411133615153681951
21267235 1 18339092539507129218
21501502 16 18266743480815096640
21501925 9 18336816512452554618
23402539 116 18342451522181843086
23402655 69 18341046320151159325
23463225 33 18409735045184758480
23559900 14 18261109652397045426
2748010 2 17905048410540676296
3312278 4 18409454678109124401
5104073 3 18410578383213807035
57096353 35 18412267263471339292
581208 293 18341324574350537272
77492 1 17775286083881312943
8809292 202 18186811282972211227

>  <PUBCHEM_SHAPE_MULTIPOLES>  (1) 
282.09
6.77
1.71
0.92
1.18
0.17
0.34
-1.34
0.58
-0.4
-0.13
1.03
-0.13
-0.15

>  <PUBCHEM_SHAPE_SELFOVERLAP>  (1) 
591.602

>  <PUBCHEM_SHAPE_VOLUME>  (1) 
160.9

>  <PUBCHEM_COORDINATE_TYPE>  (1) 
2
5
10

$$$$
