7129
     RDKit          3D

 13 14  0  0  0  0  0  0  0  0999 V2000
   -2.6766   -0.5157   -0.4143 O   0  0  0  0  0  0  0  0  0  0  0  0
    0.9789   -0.6139   -0.0714 C   0  0  0  0  0  0  0  0  0  0  0  0
    1.2673    0.7694    0.0100 C   0  0  0  0  0  0  0  0  0  0  0  0
   -0.3547   -1.0301   -0.2144 C   0  0  0  0  0  0  0  0  0  0  0  0
   -1.3892   -0.0962   -0.2763 C   0  0  0  0  0  0  0  0  0  0  0  0
    0.2134    1.6954   -0.0540 C   0  0  0  0  0  0  0  0  0  0  0  0
   -1.1057    1.2640   -0.1964 C   0  0  0  0  0  0  0  0  0  0  0  0
    2.0328   -1.5399   -0.0075 C   0  0  0  0  0  0  0  0  0  0  0  0
    2.6009    1.1857    0.1527 C   0  0  0  0  0  0  0  0  0  0  0  0
    3.3520   -1.1086    0.1343 C   0  0  0  0  0  0  0  0  0  0  0  0
    3.6355    0.2516    0.2143 C   0  0  0  0  0  0  0  0  0  0  0  0
   -3.6923    0.3053    0.1604 C   0  0  0  0  0  0  0  0  0  0  0  0
   -4.8623   -0.5671    0.5627 C   0  0  0  0  0  0  0  0  0  0  0  0
  1  5  1  0
  1 12  1  0
  2  3  1  0
  2  4  2  0
  2  8  1  0
  3  6  2  0
  3  9  1  0
  4  5  1  0
  5  7  2  0
  6  7  1  0
  8 10  2  0
  9 11  2  0
 10 11  1  0
 12 13  1  0
M  END
>  <PUBCHEM_COMPOUND_CID>  (1) 
7129

>  <PUBCHEM_CONFORMER_RMSD>  (1) 
0.6

>  <PUBCHEM_CONFORMER_DIVERSEORDER>  (1) 
1
2
3
4

>  <PUBCHEM_MMFF94_PARTIAL_CHARGES>  (1) 
17
1 -0.36
10 -0.15
11 -0.15
12 0.28
14 0.15
15 0.15
16 0.15
17 0.15
18 0.15
19 0.15
20 0.15
4 -0.15
5 0.08
6 -0.15
7 -0.15
8 -0.15
9 -0.15

>  <PUBCHEM_EFFECTIVE_ROTOR_COUNT>  (1) 
2

>  <PUBCHEM_PHARMACOPHORE_FEATURES>  (1) 
3
1 1 acceptor
6 2 3 4 5 6 7 rings
6 2 3 8 9 10 11 rings

>  <PUBCHEM_HEAVY_ATOM_COUNT>  (1) 
13

>  <PUBCHEM_ATOM_DEF_STEREO_COUNT>  (1) 
0

>  <PUBCHEM_ATOM_UDEF_STEREO_COUNT>  (1) 
0

>  <PUBCHEM_BOND_DEF_STEREO_COUNT>  (1) 
0

>  <PUBCHEM_BOND_UDEF_STEREO_COUNT>  (1) 
0

>  <PUBCHEM_ISOTOPIC_ATOM_COUNT>  (1) 
0

>  <PUBCHEM_COMPONENT_COUNT>  (1) 
1

>  <PUBCHEM_CACTVS_TAUTO_COUNT>  (1) 
1

>  <PUBCHEM_CONFORMER_ID>  (1) 
00001BD900000001

>  <PUBCHEM_MMFF94_ENERGY>  (1) 
40.9607

>  <PUBCHEM_FEATURE_SELFOVERLAP>  (1) 
15.249

>  <PUBCHEM_SHAPE_FINGERPRINT>  (1) 
10219947 1 18413390938458404647
11132069 177 18342727533569821434
11471102 20 18410849971186402893
11543360 7 15430330143195818367
12032990 46 18408888399498071679
12251169 10 18343585157330105855
12346645 6 18202004330376031406
14251717 144 18411697703505272207
14252887 29 18272097071238926891
14325111 11 18411134723218041445
15219456 202 18335975385514142893
15375462 189 18412538812583469211
15501101 241 18408882957758930405
16945 1 18339630213978641388
17844478 74 18113334193758333717
193761 8 17617937375843641084
200 152 18202272620668033861
20201158 50 18334294262205053362
20645477 70 18339633452484521559
20871998 22 18199193892714002470
21267235 1 18411427189195521014
21501925 9 18410005524781401921
23402539 116 18342164562141628863
23402655 69 18341605997655830405
23463225 33 18410855447359440988
25610 137 18408886226260632572
2748010 2 18195234530104850012
42 15 18409452483823882683
449060 62 18341896328907800592
5104073 3 18338795615585601857
528886 8 18340479054124571682
53655031 270 18343585131196389809
537710 114 18409736187519738180
53812653 166 18200305645251734168
7364860 26 18341331201596273564
8809292 202 18186805802588783635

>  <PUBCHEM_SHAPE_MULTIPOLES>  (1) 
261.66
7.18
1.57
0.67
6.5
0.18
-0.01
-1.49
-1.32
-0.73
0.02
0.12
-0.01
0.11

>  <PUBCHEM_SHAPE_SELFOVERLAP>  (1) 
562.649

>  <PUBCHEM_SHAPE_VOLUME>  (1) 
145.9

>  <PUBCHEM_COORDINATE_TYPE>  (1) 
2
5
10

$$$$
