7137
     RDKit          3D

 15 15  0  0  0  0  0  0  0  0999 V2000
   -0.8946    1.9474    0.3838 O   0  0  0  0  0  0  0  0  0  0  0  0
   -2.3758   -0.1463   -0.6876 O   0  0  0  0  0  0  0  0  0  0  0  0
   -2.7263   -0.9795    1.4716 O   0  0  0  0  0  0  0  0  0  0  0  0
    1.7142   -0.5656   -0.1089 C   0  0  0  0  0  0  0  0  0  0  0  0
   -0.2901    0.7748    0.0437 C   0  0  0  0  0  0  0  0  0  0  0  0
   -1.0336   -0.2761   -0.4936 C   0  0  0  0  0  0  0  0  0  0  0  0
    1.0839    0.6301    0.2361 C   0  0  0  0  0  0  0  0  0  0  0  0
    0.9705   -1.6163   -0.6461 C   0  0  0  0  0  0  0  0  0  0  0  0
   -0.4033   -1.4716   -0.8384 C   0  0  0  0  0  0  0  0  0  0  0  0
    3.1466   -0.7172    0.0924 C   0  0  0  0  0  0  0  0  0  0  0  0
    4.0383    0.2899    0.2327 C   0  0  0  0  0  0  0  0  0  0  0  0
   -3.1544   -0.5450    0.4106 C   0  0  0  0  0  0  0  0  0  0  0  0
   -0.9703    2.9536   -0.6242 C   0  0  0  0  0  0  0  0  0  0  0  0
    5.5056    0.0866    0.4287 C   0  0  0  0  0  0  0  0  0  0  0  0
   -4.6106   -0.3647    0.0992 C   0  0  0  0  0  0  0  0  0  0  0  0
  1  5  1  0
  1 13  1  0
  2  6  1  0
  2 12  1  0
  3 12  2  0
  4  7  2  0
  4  8  1  0
  4 10  1  0
  5  6  2  0
  5  7  1  0
  6  9  1  0
  8  9  2  0
 10 11  2  0
 11 14  1  0
 12 15  1  0
M  END
>  <PUBCHEM_COMPOUND_CID>  (1) 
7137

>  <PUBCHEM_CONFORMER_RMSD>  (1) 
0.6

>  <PUBCHEM_CONFORMER_DIVERSEORDER>  (1) 
1
20
24
25
21
10
22
19
14
16
27
23
2
26
4
12
17
8
11
13
18
9
5
7
15
6
3

>  <PUBCHEM_MMFF94_PARTIAL_CHARGES>  (1) 
20
1 -0.36
10 -0.18
11 -0.29
12 0.66
13 0.28
14 0.14
15 0.06
16 0.15
17 0.15
18 0.15
19 0.15
2 -0.23
20 0.15
3 -0.57
4 0.03
5 0.08
6 0.08
7 -0.15
8 -0.15
9 -0.15

>  <PUBCHEM_EFFECTIVE_ROTOR_COUNT>  (1) 
4

>  <PUBCHEM_PHARMACOPHORE_FEATURES>  (1) 
4
1 1 acceptor
1 14 hydrophobe
1 3 acceptor
6 4 5 6 7 8 9 rings

>  <PUBCHEM_HEAVY_ATOM_COUNT>  (1) 
15

>  <PUBCHEM_ATOM_DEF_STEREO_COUNT>  (1) 
0

>  <PUBCHEM_ATOM_UDEF_STEREO_COUNT>  (1) 
0

>  <PUBCHEM_BOND_DEF_STEREO_COUNT>  (1) 
0

>  <PUBCHEM_BOND_UDEF_STEREO_COUNT>  (1) 
1

>  <PUBCHEM_ISOTOPIC_ATOM_COUNT>  (1) 
0

>  <PUBCHEM_COMPONENT_COUNT>  (1) 
1

>  <PUBCHEM_CACTVS_TAUTO_COUNT>  (1) 
1

>  <PUBCHEM_CONFORMER_ID>  (1) 
00001BE100000001

>  <PUBCHEM_MMFF94_ENERGY>  (1) 
50.8875

>  <PUBCHEM_FEATURE_SELFOVERLAP>  (1) 
20.297

>  <PUBCHEM_SHAPE_FINGERPRINT>  (1) 
10219947 1 18342744035113864447
10465860 250 18040998462017537083
11132069 177 18131913780015268534
12390115 104 17917164792614192800
124424 183 18114180865346725403
13140716 1 18198056091806106442
13214271 11 18413951698121111831
14252887 29 18271259260817069059
14787075 74 17896324799402497042
14943859 89 13830132793082925062
15042514 8 18341327911619955886
15048467 5 17060623304009016554
15309172 13 18131633387217550046
15375462 478 18187365437127632532
16945 1 18343013393945635254
17844478 74 18411704261788249966
19784866 170 18341057328268071515
200 152 14779263116327480250
20510252 161 18201155451891874120
20645477 56 18131343138445099264
21029758 27 18336269032586549260
21339142 126 18341604915118161500
21652331 79 18410852209650724272
22182313 1 18128258887532085588
23402539 116 18411692205704527407
23493267 7 17968643939547283993
23557571 272 18261397685266500060
25 1 8718557090474091419
26918003 58 17822008726723614850
2748010 2 17984422936623233582
3250762 1 17765159371399655639
5104073 3 18267857286642550362
58734987 124 18409166584603816592
81228 2 18046367248626647193

>  <PUBCHEM_SHAPE_MULTIPOLES>  (1) 
291.09
8
1.96
0.9
5.63
1.65
0.08
-1.07
2.04
-0.84
-0.46
-0.38
-0.14
0.43

>  <PUBCHEM_SHAPE_SELFOVERLAP>  (1) 
596.446

>  <PUBCHEM_SHAPE_VOLUME>  (1) 
167.7

>  <PUBCHEM_COORDINATE_TYPE>  (1) 
2
5
10

$$$$
