7138
     RDKit          3D

 12 13  0  0  0  0  0  0  0  0999 V2000
   -1.1965   -1.1441   -0.0001 N   0  0  0  0  0  0  0  0  0  0  0  0
   -0.0113    0.9542    0.0000 C   0  0  0  0  0  0  0  0  0  0  0  0
   -0.0390   -0.4562   -0.0001 C   0  0  0  0  0  0  0  0  0  0  0  0
    2.3960   -0.4535   -0.0001 C   0  0  0  0  0  0  0  0  0  0  0  0
    1.1764   -1.1350   -0.0002 C   0  0  0  0  0  0  0  0  0  0  0  0
    1.2152    1.6399    0.0000 C   0  0  0  0  0  0  0  0  0  0  0  0
   -1.2346    1.6380    0.0000 C   0  0  0  0  0  0  0  0  0  0  0  0
    2.4159    0.9356    0.0000 C   0  0  0  0  0  0  0  0  0  0  0  0
   -2.3553   -0.4462    0.0001 C   0  0  0  0  0  0  0  0  0  0  0  0
   -2.4289    0.9319    0.0000 C   0  0  0  0  0  0  0  0  0  0  0  0
    3.6765   -1.2180    0.0002 C   0  0  0  0  0  0  0  0  0  0  0  0
   -3.6145   -1.2465    0.0001 C   0  0  0  0  0  0  0  0  0  0  0  0
  1  3  2  0
  1  9  1  0
  2  3  1  0
  2  6  1  0
  2  7  2  0
  3  5  1  0
  4  5  2  0
  4  8  1  0
  4 11  1  0
  6  8  2  0
  7 10  1  0
  9 10  2  0
  9 12  1  0
M  END
>  <PUBCHEM_COMPOUND_CID>  (1) 
7138

>  <PUBCHEM_CONFORMER_RMSD>  (1) 
0.4

>  <PUBCHEM_CONFORMER_DIVERSEORDER>  (1) 
1

>  <PUBCHEM_MMFF94_PARTIAL_CHARGES>  (1) 
16
1 -0.62
10 -0.15
11 0.14
12 0.14
13 0.15
14 0.15
15 0.15
16 0.15
17 0.15
3 0.31
4 -0.14
5 -0.15
6 -0.15
7 -0.15
8 -0.15
9 0.17

>  <PUBCHEM_EFFECTIVE_ROTOR_COUNT>  (1) 
0

>  <PUBCHEM_PHARMACOPHORE_FEATURES>  (1) 
3
1 1 acceptor
6 1 2 3 7 9 10 rings
6 2 3 4 5 6 8 rings

>  <PUBCHEM_HEAVY_ATOM_COUNT>  (1) 
12

>  <PUBCHEM_ATOM_DEF_STEREO_COUNT>  (1) 
0

>  <PUBCHEM_ATOM_UDEF_STEREO_COUNT>  (1) 
0

>  <PUBCHEM_BOND_DEF_STEREO_COUNT>  (1) 
0

>  <PUBCHEM_BOND_UDEF_STEREO_COUNT>  (1) 
0

>  <PUBCHEM_ISOTOPIC_ATOM_COUNT>  (1) 
0

>  <PUBCHEM_COMPONENT_COUNT>  (1) 
1

>  <PUBCHEM_CACTVS_TAUTO_COUNT>  (1) 
1

>  <PUBCHEM_CONFORMER_ID>  (1) 
00001BE200000001

>  <PUBCHEM_MMFF94_ENERGY>  (1) 
33.2892

>  <PUBCHEM_FEATURE_SELFOVERLAP>  (1) 
15.254

>  <PUBCHEM_SHAPE_FINGERPRINT>  (1) 
10967382 1 18194401314775427780
11206711 2 18334858277347164237
11471102 20 18410288151247119903
11543360 7 15647064801437004794
11769659 78 18410570690916939778
12032990 46 18410860957702430246
14128692 85 18410859854017037612
14325111 11 18410856568256383744
14576447 43 17769081690396194687
15536298 74 18343302591568923528
16945 1 18266458702639328620
17844478 74 18113625607563589193
19973954 147 18410857659156984420
200 152 18060125549415087775
20201158 50 18339922623551833975
20645477 70 18411132580541349767
20871998 184 18130504141383179263
20871998 22 18271816661720080510
21501502 16 18410863161004854829
21501925 9 18410281532586556722
23463225 33 18409167680084039206
23552423 10 18260831518102894668
23559900 14 18053377700996595158
2748010 2 18410567392398056244
5084963 1 18341894090844763200
528886 8 18267297647148869608
7364860 26 18270120252965399152
8809292 202 18259991499941499779

>  <PUBCHEM_SHAPE_MULTIPOLES>  (1) 
241.97
5.29
1.8
0.61
0
0.34
0
-2.21
0
-0.05
0
0.01
0.01
0

>  <PUBCHEM_SHAPE_SELFOVERLAP>  (1) 
526.387

>  <PUBCHEM_SHAPE_VOLUME>  (1) 
133

>  <PUBCHEM_COORDINATE_TYPE>  (1) 
2
5
10

$$$$
