7150
     RDKit          3D

 10 10  0  0  0  0  0  0  0  0999 V2000
    2.0538   -0.7845    0.0002 O   0  0  0  0  0  0  0  0  0  0  0  0
    1.8766    1.5107   -0.0008 O   0  0  0  0  0  0  0  0  0  0  0  0
   -0.0840    0.1539   -0.0002 C   0  0  0  0  0  0  0  0  0  0  0  0
   -0.9680    1.2330    0.0004 C   0  0  0  0  0  0  0  0  0  0  0  0
   -0.5766   -1.1512   -0.0005 C   0  0  0  0  0  0  0  0  0  0  0  0
   -2.3444    1.0072    0.0007 C   0  0  0  0  0  0  0  0  0  0  0  0
   -1.9532   -1.3770   -0.0004 C   0  0  0  0  0  0  0  0  0  0  0  0
   -2.8370   -0.2978    0.0002 C   0  0  0  0  0  0  0  0  0  0  0  0
    1.3509    0.3895   -0.0007 C   0  0  0  0  0  0  0  0  0  0  0  0
    3.4819   -0.6837    0.0010 C   0  0  0  0  0  0  0  0  0  0  0  0
  1  9  1  0
  1 10  1  0
  2  9  2  0
  3  4  2  0
  3  5  1  0
  3  9  1  0
  4  6  1  0
  5  7  2  0
  6  8  2  0
  7  8  1  0
M  END
>  <PUBCHEM_COMPOUND_CID>  (1) 
7150

>  <PUBCHEM_CONFORMER_RMSD>  (1) 
0.4

>  <PUBCHEM_CONFORMER_DIVERSEORDER>  (1) 
1
2

>  <PUBCHEM_MMFF94_PARTIAL_CHARGES>  (1) 
15
1 -0.43
10 0.28
11 0.15
12 0.15
13 0.15
14 0.15
15 0.15
2 -0.57
3 0.09
4 -0.15
5 -0.15
6 -0.15
7 -0.15
8 -0.15
9 0.63

>  <PUBCHEM_EFFECTIVE_ROTOR_COUNT>  (1) 
2

>  <PUBCHEM_PHARMACOPHORE_FEATURES>  (1) 
2
1 2 acceptor
6 3 4 5 6 7 8 rings

>  <PUBCHEM_HEAVY_ATOM_COUNT>  (1) 
10

>  <PUBCHEM_ATOM_DEF_STEREO_COUNT>  (1) 
0

>  <PUBCHEM_ATOM_UDEF_STEREO_COUNT>  (1) 
0

>  <PUBCHEM_BOND_DEF_STEREO_COUNT>  (1) 
0

>  <PUBCHEM_BOND_UDEF_STEREO_COUNT>  (1) 
0

>  <PUBCHEM_ISOTOPIC_ATOM_COUNT>  (1) 
0

>  <PUBCHEM_COMPONENT_COUNT>  (1) 
1

>  <PUBCHEM_CACTVS_TAUTO_COUNT>  (1) 
1

>  <PUBCHEM_CONFORMER_ID>  (1) 
00001BEE00000001

>  <PUBCHEM_MMFF94_ENERGY>  (1) 
27.7518

>  <PUBCHEM_FEATURE_SELFOVERLAP>  (1) 
10.148

>  <PUBCHEM_SHAPE_FINGERPRINT>  (1) 
12032990 46 18336270136667424915
13024252 1 15430040937578395377
14325111 11 18410575088963522337
16945 1 18410855413078778311
19973954 147 18410857702127775889
20201158 50 18343302535265019326
20871998 184 18202004377747610103
21040471 1 18410855421853400677
23402539 116 17988069016329306773
23463225 33 18191302680966894962
23552423 10 18188490288688018710
2748010 2 18338232786007113661
369184 2 18343020021090533905
5084963 1 18343017783291299009
7364860 26 18270400628404101776

>  <PUBCHEM_SHAPE_MULTIPOLES>  (1) 
194.06
4.63
1.5
0.6
2.55
0.09
0
-0.68
0
-0.25
0
-0.04
-0.01
0

>  <PUBCHEM_SHAPE_SELFOVERLAP>  (1) 
401.587

>  <PUBCHEM_SHAPE_VOLUME>  (1) 
111.8

>  <PUBCHEM_COORDINATE_TYPE>  (1) 
2
5
10

$$$$
