7152
     RDKit          3D

 12 11  0  0  0  0  0  0  0  0999 V2000
    2.5287   -2.8723    0.0612 O   0  0  0  0  0  0  0  0  0  0  0  0
    1.9801    2.3207    0.9074 O   0  0  0  0  0  0  0  0  0  0  0  0
   -3.1990    0.1282    0.9683 O   0  0  0  0  0  0  0  0  0  0  0  0
    1.3702    2.0874   -1.2687 O   0  0  0  0  0  0  0  0  0  0  0  0
   -2.7072   -0.0982   -1.2383 O   0  0  0  0  0  0  0  0  0  0  0  0
   -0.0147   -0.2089   -0.0914 N   0  0  0  0  0  0  0  0  0  0  0  0
    1.2349   -0.8723    0.2792 C   0  0  0  0  0  0  0  0  0  0  0  0
   -0.0480    1.1526    0.4415 C   0  0  0  0  0  0  0  0  0  0  0  0
   -1.1629   -0.9750    0.3916 C   0  0  0  0  0  0  0  0  0  0  0  0
    1.2938   -2.2731   -0.3089 C   0  0  0  0  0  0  0  0  0  0  0  0
    1.1470    1.9024   -0.0790 C   0  0  0  0  0  0  0  0  0  0  0  0
   -2.4229   -0.2916   -0.0630 C   0  0  0  0  0  0  0  0  0  0  0  0
  1 10  1  0
  2 11  1  0
  3 12  1  0
  4 11  2  0
  5 12  2  0
  6  7  1  0
  6  8  1  0
  6  9  1  0
  7 10  1  0
  8 11  1  0
  9 12  1  0
M  END
>  <PUBCHEM_COMPOUND_CID>  (1) 
7152

>  <PUBCHEM_CONFORMER_RMSD>  (1) 
0.6

>  <PUBCHEM_CONFORMER_DIVERSEORDER>  (1) 
1
40
9
19
51
54
6
8
57
43
56
33
52
41
30
29
5
53
50
38
46
10
58
14
44
55
48
26
21
17
27
25
24
45
49
47
22
42
11
18
32
13
34
28
31
39
20
2
12
35
16
4
15
7
37
36
3
23

>  <PUBCHEM_MMFF94_PARTIAL_CHARGES>  (1) 
15
1 -0.68
10 0.28
11 0.66
12 0.66
2 -0.65
21 0.4
22 0.5
23 0.5
3 -0.65
4 -0.57
5 -0.57
6 -0.81
7 0.27
8 0.33
9 0.33

>  <PUBCHEM_EFFECTIVE_ROTOR_COUNT>  (1) 
6

>  <PUBCHEM_PHARMACOPHORE_FEATURES>  (1) 
9
1 1 acceptor
1 1 donor
1 2 acceptor
1 3 acceptor
1 4 acceptor
1 5 acceptor
1 6 cation
3 2 4 11 anion
3 3 5 12 anion

>  <PUBCHEM_HEAVY_ATOM_COUNT>  (1) 
12

>  <PUBCHEM_ATOM_DEF_STEREO_COUNT>  (1) 
0

>  <PUBCHEM_ATOM_UDEF_STEREO_COUNT>  (1) 
0

>  <PUBCHEM_BOND_DEF_STEREO_COUNT>  (1) 
0

>  <PUBCHEM_BOND_UDEF_STEREO_COUNT>  (1) 
0

>  <PUBCHEM_ISOTOPIC_ATOM_COUNT>  (1) 
0

>  <PUBCHEM_COMPONENT_COUNT>  (1) 
1

>  <PUBCHEM_CACTVS_TAUTO_COUNT>  (1) 
1

>  <PUBCHEM_CONFORMER_ID>  (1) 
00001BF000000001

>  <PUBCHEM_MMFF94_ENERGY>  (1) 
22.7156

>  <PUBCHEM_FEATURE_SELFOVERLAP>  (1) 
45.789

>  <PUBCHEM_SHAPE_FINGERPRINT>  (1) 
1 1 18266739262898515326
100427 49 18266741285828235026
12716758 59 17621892306342203008
16945 1 18412257341759099586
18410436 195 18197495125747605178
19021347 4 17907859857351305922
20711985 327 18200308801794435102
20711985 344 17543900218230600818
21028194 46 17973434700846340041
21040471 1 17834399295034745136
21061003 4 18264494975104411355
23552423 10 18341051899661712775
2748010 2 18122331385686403766
305870 269 18341612684672087713
7364860 26 18342177777766560971
81228 2 17545606651839890362

>  <PUBCHEM_SHAPE_MULTIPOLES>  (1) 
212.63
3.76
2.97
0.96
2.8
0.37
-0.16
0.79
0.11
-3.59
-0.09
0.22
-0.34
0

>  <PUBCHEM_SHAPE_SELFOVERLAP>  (1) 
406.967

>  <PUBCHEM_SHAPE_VOLUME>  (1) 
130.5

>  <PUBCHEM_COORDINATE_TYPE>  (1) 
2
5
10

$$$$
