7153
     RDKit          3D

 14 14  0  0  1  0  0  0  0  0999 V2000
    4.5627    1.1014   -0.4389 Cl  0  0  0  0  0  0  0  0  0  0  0  0
   -0.9807   -0.5909    0.5118 O   0  0  0  0  0  0  0  0  0  0  0  0
   -3.8905    1.0840   -0.7857 O   0  0  0  0  0  0  0  0  0  0  0  0
   -3.0012    0.9946    1.3006 O   0  0  0  0  0  0  0  0  0  0  0  0
   -1.9354   -0.2527   -0.4921 C   0  0  0  0  0  0  0  0  0  0  0  0
    0.3095   -0.2123    0.2915 C   0  0  0  0  0  0  0  0  0  0  0  0
    1.3301   -1.1607    0.2213 C   0  0  0  0  0  0  0  0  0  0  0  0
    0.6045    1.1423    0.1360 C   0  0  0  0  0  0  0  0  0  0  0  0
   -2.5591   -1.5411   -0.9996 C   0  0  0  0  0  0  0  0  0  0  0  0
    2.6452   -0.7545   -0.0043 C   0  0  0  0  0  0  0  0  0  0  0  0
    1.0329   -2.6149    0.3852 C   0  0  0  0  0  0  0  0  0  0  0  0
    1.9196    1.5483   -0.0899 C   0  0  0  0  0  0  0  0  0  0  0  0
    2.9400    0.5999   -0.1601 C   0  0  0  0  0  0  0  0  0  0  0  0
   -2.9776    0.6567    0.1242 C   0  0  0  0  0  0  0  0  0  0  0  0
  1 13  1  0
  2  5  1  0
  2  6  1  0
  3 14  1  0
  4 14  2  0
  5  9  1  0
  5 14  1  0
  6  7  2  0
  6  8  1  0
  7 10  1  0
  7 11  1  0
  8 12  2  0
 10 13  2  0
 12 13  1  0
M  END
>  <PUBCHEM_COMPOUND_CID>  (1) 
7153

>  <PUBCHEM_CONFORMER_RMSD>  (1) 
0.6

>  <PUBCHEM_CONFORMER_DIVERSEORDER>  (1) 
1
6
16
25
5
14
26
24
18
22
15
20
3
13
17
10
2
11
9
19
12
8
4
7
21
23

>  <PUBCHEM_MMFF94_PARTIAL_CHARGES>  (1) 
17
1 -0.18
10 -0.15
11 0.14
12 -0.15
13 0.18
14 0.66
19 0.15
2 -0.36
20 0.15
24 0.15
25 0.5
3 -0.65
4 -0.57
5 0.34
6 0.08
7 -0.14
8 -0.15

>  <PUBCHEM_EFFECTIVE_ROTOR_COUNT>  (1) 
3

>  <PUBCHEM_PHARMACOPHORE_FEATURES>  (1) 
5
1 2 acceptor
1 3 acceptor
1 4 acceptor
3 3 4 14 anion
6 6 7 8 10 12 13 rings

>  <PUBCHEM_HEAVY_ATOM_COUNT>  (1) 
14

>  <PUBCHEM_ATOM_DEF_STEREO_COUNT>  (1) 
0

>  <PUBCHEM_ATOM_UDEF_STEREO_COUNT>  (1) 
1

>  <PUBCHEM_BOND_DEF_STEREO_COUNT>  (1) 
0

>  <PUBCHEM_BOND_UDEF_STEREO_COUNT>  (1) 
0

>  <PUBCHEM_ISOTOPIC_ATOM_COUNT>  (1) 
0

>  <PUBCHEM_COMPONENT_COUNT>  (1) 
1

>  <PUBCHEM_CACTVS_TAUTO_COUNT>  (1) 
1

>  <PUBCHEM_CONFORMER_ID>  (1) 
00001BF100000001

>  <PUBCHEM_MMFF94_ENERGY>  (1) 
35.7668

>  <PUBCHEM_FEATURE_SELFOVERLAP>  (1) 
25.437

>  <PUBCHEM_SHAPE_FINGERPRINT>  (1) 
10980938 120 18337107865184015899
11031198 65 18260839171681855695
11401426 45 18342735239437567080
11471102 20 18335698304304670244
11543360 7 16128371631761561984
12491281 212 18342746212387847257
13214271 11 17821450175064611365
13380535 21 18410300198446125971
13380535 76 18334013904025432250
14144814 61 18343019948123614729
14325111 11 18410292557677895572
14897335 6 18411694379089626831
15279307 12 18343300357917209727
15442244 35 17979917116223399233
15775835 57 18410575093295309229
16945 1 18338514127723787050
17844478 74 17676497103220118133
18186145 218 18412832403947797420
19026448 4 14851877067728626968
20645476 183 18272925025554872815
20645477 70 18264201426805768135
21499 59 18335421291951908958
21501502 16 18335974324636277435
21524375 3 18262517117026505778
231179 274 17895187788241088892
23402539 116 18341890823229303812
23402655 69 18411974737654695061
23559900 14 18271815674827161644
23598291 2 18200024041262649783
25 1 18334576832588153002
2748010 2 18265061416960780522
528886 8 18409445903712465224
53748568 43 18343580750350911975
63268167 104 18410572847222650689
7364860 26 18268709411916572462
74978 22 18131063848921180305
8030462 33 17917418822664965875
81228 2 17396981739603094346

>  <PUBCHEM_SHAPE_MULTIPOLES>  (1) 
272.38
6.79
2.02
0.87
0.26
1.09
-0.02
-3.03
1.25
0.27
-0.09
-0.54
-0.01
-0.62

>  <PUBCHEM_SHAPE_SELFOVERLAP>  (1) 
552.773

>  <PUBCHEM_SHAPE_VOLUME>  (1) 
160.8

>  <PUBCHEM_COORDINATE_TYPE>  (1) 
2
5
10

$$$$
