7157
     RDKit          3D

 11 10  0  0  0  0  0  0  0  0999 V2000
    3.8612    0.2187    0.3154 Cl  0  0  0  0  0  0  0  0  0  0  0  0
    1.5567    1.4061   -0.8766 O   0  0  0  0  0  0  0  0  0  0  0  0
   -0.1315    0.0471   -0.0569 N   0  0  0  0  0  0  0  0  0  0  0  0
   -0.6005   -1.0879    0.7351 C   0  0  0  0  0  0  0  0  0  0  0  0
   -1.1771    0.8053   -0.7331 C   0  0  0  0  0  0  0  0  0  0  0  0
    1.2064    0.4388   -0.1960 C   0  0  0  0  0  0  0  0  0  0  0  0
   -0.6283   -2.3060   -0.1270 C   0  0  0  0  0  0  0  0  0  0  0  0
   -1.6534    1.8927    0.1715 C   0  0  0  0  0  0  0  0  0  0  0  0
    2.2174   -0.4084    0.5503 C   0  0  0  0  0  0  0  0  0  0  0  0
   -1.7288   -3.0309   -0.3580 C   0  0  0  0  0  0  0  0  0  0  0  0
   -2.9221    2.0245    0.5753 C   0  0  0  0  0  0  0  0  0  0  0  0
  1  9  1  0
  2  6  2  0
  3  4  1  0
  3  5  1  0
  3  6  1  0
  4  7  1  0
  5  8  1  0
  6  9  1  0
  7 10  2  0
  8 11  2  0
M  END
>  <PUBCHEM_COMPOUND_CID>  (1) 
7157

>  <PUBCHEM_CONFORMER_RMSD>  (1) 
0.6

>  <PUBCHEM_CONFORMER_DIVERSEORDER>  (1) 
1
135
115
11
120
118
78
86
55
48
105
122
87
14
88
68
82
18
57
96
76
67
70
17
12
39
85
131
108
97
29
53
101
74
110
66
89
3
62
60
129
117
34
40
123
6
54
65
63
125
19
83
75
102
100
38
119
95
9
103
16
64
10
91
33
52
47
124
84
111
93
106
71
23
109
134
112
21
94
127
51
126
49
69
36
121
50
114
31
46
128
59
43
81
44
42
77
133
72
130
25
4
32
107
26
2
98
61
5
104
90
13
116
45
22
132
37
58
8
28
99
80
24
7
73
27
35
56
15
30
113
41
92
79
20

>  <PUBCHEM_MMFF94_PARTIAL_CHARGES>  (1) 
17
1 -0.29
10 -0.3
11 -0.3
16 0.15
17 0.15
2 -0.57
20 0.15
21 0.15
22 0.15
23 0.15
3 -0.66
4 0.44
5 0.44
6 0.57
7 -0.29
8 -0.29
9 0.35

>  <PUBCHEM_EFFECTIVE_ROTOR_COUNT>  (1) 
6

>  <PUBCHEM_PHARMACOPHORE_FEATURES>  (1) 
3
1 10 hydrophobe
1 11 hydrophobe
1 2 acceptor

>  <PUBCHEM_HEAVY_ATOM_COUNT>  (1) 
11

>  <PUBCHEM_ATOM_DEF_STEREO_COUNT>  (1) 
0

>  <PUBCHEM_ATOM_UDEF_STEREO_COUNT>  (1) 
0

>  <PUBCHEM_BOND_DEF_STEREO_COUNT>  (1) 
0

>  <PUBCHEM_BOND_UDEF_STEREO_COUNT>  (1) 
0

>  <PUBCHEM_ISOTOPIC_ATOM_COUNT>  (1) 
0

>  <PUBCHEM_COMPONENT_COUNT>  (1) 
1

>  <PUBCHEM_CACTVS_TAUTO_COUNT>  (1) 
1

>  <PUBCHEM_CONFORMER_ID>  (1) 
00001BF500000001

>  <PUBCHEM_MMFF94_ENERGY>  (1) 
16.0522

>  <PUBCHEM_FEATURE_SELFOVERLAP>  (1) 
15.223

>  <PUBCHEM_SHAPE_FINGERPRINT>  (1) 
1 1 17979074886106061871
15906896 17 18272646865949938767
18410436 195 17693654131762763207
19021347 4 18340205176760475755
201361 129 17553208705283586089
20524608 308 18342175570427774742
20645477 70 17759238493517463069
20711985 344 18122372290876108838
20711985 365 18265330788377000022
20871998 184 18410020956599084819
21339142 149 18058427911613989908
21501502 16 18262520432920729860
23402539 116 18271794766176999415
23419403 2 16318582899522234420
2748010 2 18119535327464092711
305870 269 17980480061929689761
3250762 1 17984689271513652600
528862 383 17903634082131230313
58734987 24 18341044202995831339
7364860 26 17548979962309569897
81228 2 18263639735193108747
81539 233 18047191843560820381

>  <PUBCHEM_SHAPE_MULTIPOLES>  (1) 
217.39
4.47
3.05
0.85
3.81
2.38
0.01
-2.19
-0.76
-3.15
0.18
-0.02
-0.1
-0.55

>  <PUBCHEM_SHAPE_SELFOVERLAP>  (1) 
398.613

>  <PUBCHEM_SHAPE_VOLUME>  (1) 
138.2

>  <PUBCHEM_COORDINATE_TYPE>  (1) 
2
5
10

$$$$
