716
     RDKit          3D

 12 12  0  0  1  0  0  0  0  0999 V2000
   -0.0962   -0.8696   -0.1402 O   0  0  0  0  0  0  0  0  0  0  0  0
    0.9576    1.6154   -1.5845 O   0  0  0  0  0  0  0  0  0  0  0  0
    1.1490   -0.0159    1.6556 O   0  0  0  0  0  0  0  0  0  0  0  0
   -1.2200    1.6217    1.2760 O   0  0  0  0  0  0  0  0  0  0  0  0
    2.5102   -1.8882    0.1202 O   0  0  0  0  0  0  0  0  0  0  0  0
   -2.6623   -1.9427   -0.4314 O   0  0  0  0  0  0  0  0  0  0  0  0
    0.6382    1.3893   -0.2173 C   0  0  0  0  0  0  0  0  0  0  0  0
    1.0119   -0.0288    0.2318 C   0  0  0  0  0  0  0  0  0  0  0  0
   -0.8736    1.3791   -0.0810 C   0  0  0  0  0  0  0  0  0  0  0  0
   -1.2155   -0.0444   -0.5139 C   0  0  0  0  0  0  0  0  0  0  0  0
    2.2858   -0.5858   -0.3913 C   0  0  0  0  0  0  0  0  0  0  0  0
   -2.4852   -0.6303    0.0760 C   0  0  0  0  0  0  0  0  0  0  0  0
  1  8  1  0
  1 10  1  0
  2  7  1  0
  3  8  1  0
  4  9  1  0
  5 11  1  0
  6 12  1  0
  7  8  1  0
  7  9  1  0
  8 11  1  0
  9 10  1  0
 10 12  1  0
M  END
>  <PUBCHEM_COMPOUND_CID>  (1) 
716

>  <PUBCHEM_CONFORMER_RMSD>  (1) 
0.6

>  <PUBCHEM_CONFORMER_DIVERSEORDER>  (1) 
1
44
54
29
22
8
49
5
58
52
61
33
7
23
46
56
45
4
10
38
35
3
28
42
30
43
59
27
2
20
34
37
18
14
40
60
24
6
13
19
11
36
15
25
53
57
16
26
55
31
21
50
48
32
51
41
39
12
17
47
9

>  <PUBCHEM_MMFF94_PARTIAL_CHARGES>  (1) 
17
1 -0.56
10 0.28
11 0.28
12 0.28
2 -0.68
20 0.4
21 0.4
22 0.4
23 0.4
24 0.4
3 -0.68
4 -0.68
5 -0.68
6 -0.68
7 0.28
8 0.56
9 0.28

>  <PUBCHEM_EFFECTIVE_ROTOR_COUNT>  (1) 
3

>  <PUBCHEM_PHARMACOPHORE_FEATURES>  (1) 
12
1 1 acceptor
1 2 acceptor
1 2 donor
1 3 acceptor
1 3 donor
1 4 acceptor
1 4 donor
1 5 acceptor
1 5 donor
1 6 acceptor
1 6 donor
5 1 7 8 9 10 rings

>  <PUBCHEM_HEAVY_ATOM_COUNT>  (1) 
12

>  <PUBCHEM_ATOM_DEF_STEREO_COUNT>  (1) 
0

>  <PUBCHEM_ATOM_UDEF_STEREO_COUNT>  (1) 
4

>  <PUBCHEM_BOND_DEF_STEREO_COUNT>  (1) 
0

>  <PUBCHEM_BOND_UDEF_STEREO_COUNT>  (1) 
0

>  <PUBCHEM_ISOTOPIC_ATOM_COUNT>  (1) 
0

>  <PUBCHEM_COMPONENT_COUNT>  (1) 
1

>  <PUBCHEM_CACTVS_TAUTO_COUNT>  (1) 
1

>  <PUBCHEM_CONFORMER_ID>  (1) 
000002CC00000001

>  <PUBCHEM_MMFF94_ENERGY>  (1) 
31.4842

>  <PUBCHEM_FEATURE_SELFOVERLAP>  (1) 
60.963

>  <PUBCHEM_SHAPE_FINGERPRINT>  (1) 
12423570 1 11820718041281641857
13024252 1 15360261424111415312
137420 1 13959613082035204300
14128692 85 18409452521961708271
15001771 113 18410580608228391913
16945 1 17911246018130935484
20645477 70 17900247900294359391
20653091 64 18042394910430455777
21040471 1 17835795296681407241
23552423 10 18334581286384882119
241688 4 18262233305328967528
369184 2 15480388575678477806
4369600 1 17766570418401287869
5084963 1 18410011000869946489
68250623 7 18265357086472263948

>  <PUBCHEM_SHAPE_MULTIPOLES>  (1) 
211.74
3.22
1.93
1.11
0.49
0.08
0.18
2.13
-0.15
0.17
-0.19
-0.22
-0.42
-0.51

>  <PUBCHEM_SHAPE_SELFOVERLAP>  (1) 
426.643

>  <PUBCHEM_SHAPE_VOLUME>  (1) 
123.9

>  <PUBCHEM_COORDINATE_TYPE>  (1) 
2
5
10

$$$$
