7162
     RDKit          3D

 16 16  0  0  0  0  0  0  0  0999 V2000
    0.8083   -2.8792    0.0213 Cl  0  0  0  0  0  0  0  0  0  0  0  0
    3.8304    2.5824    0.1411 Cl  0  0  0  0  0  0  0  0  0  0  0  0
    5.2769   -0.0918   -0.9700 Cl  0  0  0  0  0  0  0  0  0  0  0  0
   -0.2665   -0.2437    0.9888 O   0  0  0  0  0  0  0  0  0  0  0  0
   -5.9442    0.9588   -0.8909 O   0  0  0  0  0  0  0  0  0  0  0  0
   -5.2679   -0.9186    0.1935 O   0  0  0  0  0  0  0  0  0  0  0  0
   -2.5896   -0.0413    0.3731 C   0  0  0  0  0  0  0  0  0  0  0  0
   -1.2027    0.5866    0.3168 C   0  0  0  0  0  0  0  0  0  0  0  0
   -3.6449    0.8219   -0.3207 C   0  0  0  0  0  0  0  0  0  0  0  0
    1.0257   -0.2160    0.5313 C   0  0  0  0  0  0  0  0  0  0  0  0
    1.6414   -1.3688    0.0554 C   0  0  0  0  0  0  0  0  0  0  0  0
    1.7106    0.9945    0.5524 C   0  0  0  0  0  0  0  0  0  0  0  0
   -5.0099    0.1732   -0.2938 C   0  0  0  0  0  0  0  0  0  0  0  0
    3.0262    1.0526    0.0923 C   0  0  0  0  0  0  0  0  0  0  0  0
    2.9569   -1.3107   -0.4046 C   0  0  0  0  0  0  0  0  0  0  0  0
    3.6493   -0.1000   -0.3862 C   0  0  0  0  0  0  0  0  0  0  0  0
  1 11  1  0
  2 14  1  0
  3 16  1  0
  4  8  1  0
  4 10  1  0
  5 13  1  0
  6 13  2  0
  7  8  1  0
  7  9  1  0
  9 13  1  0
 10 11  2  0
 10 12  1  0
 11 15  1  0
 12 14  2  0
 14 16  1  0
 15 16  2  0
M  END
>  <PUBCHEM_COMPOUND_CID>  (1) 
7162

>  <PUBCHEM_CONFORMER_RMSD>  (1) 
0.6

>  <PUBCHEM_CONFORMER_DIVERSEORDER>  (1) 
1
104
126
158
150
52
160
97
46
130
19
153
7
161
132
139
148
123
33
15
125
155
103
121
47
38
17
32
146
135
66
165
76
124
151
84
119
70
21
34
118
56
93
147
133
85
44
77
144
54
12
114
156
110
143
42
109
16
145
141
137
152
90
162
105
35
134
111
4
128
131
80
61
94
25
2
138
9
116
14
73
106
117
57
100
98
65
26
20
159
86
82
142
58
102
164
55
3
23
108
60
149
107
8
136
62
10
113
67
24
31
36
6
91
99
89
140
45
11
95
96
30
72
79
88
68
69
120
112
74
41
87
37
22
18
78
83
75
50
115
163
81
13
27
154
122
92
28
157
5
53
64
59
48
63
49
71
40
101
129
127
29
43
51
39

>  <PUBCHEM_MMFF94_PARTIAL_CHARGES>  (1) 
18
1 -0.18
10 0.08
11 0.18
12 -0.15
13 0.66
14 0.18
15 -0.15
16 0.18
2 -0.18
23 0.15
24 0.15
25 0.5
3 -0.18
4 -0.36
5 -0.65
6 -0.57
8 0.28
9 0.06

>  <PUBCHEM_EFFECTIVE_ROTOR_COUNT>  (1) 
5

>  <PUBCHEM_PHARMACOPHORE_FEATURES>  (1) 
5
1 4 acceptor
1 5 acceptor
1 6 acceptor
3 5 6 13 anion
6 10 11 12 14 15 16 rings

>  <PUBCHEM_HEAVY_ATOM_COUNT>  (1) 
16

>  <PUBCHEM_ATOM_DEF_STEREO_COUNT>  (1) 
0

>  <PUBCHEM_ATOM_UDEF_STEREO_COUNT>  (1) 
0

>  <PUBCHEM_BOND_DEF_STEREO_COUNT>  (1) 
0

>  <PUBCHEM_BOND_UDEF_STEREO_COUNT>  (1) 
0

>  <PUBCHEM_ISOTOPIC_ATOM_COUNT>  (1) 
0

>  <PUBCHEM_COMPONENT_COUNT>  (1) 
1

>  <PUBCHEM_CACTVS_TAUTO_COUNT>  (1) 
1

>  <PUBCHEM_CONFORMER_ID>  (1) 
00001BFA00000001

>  <PUBCHEM_MMFF94_ENERGY>  (1) 
35.12

>  <PUBCHEM_FEATURE_SELFOVERLAP>  (1) 
25.43

>  <PUBCHEM_SHAPE_FINGERPRINT>  (1) 
10693767 8 17987520304161518958
11287383 113 18336265725587987673
11471102 20 18411703166798403896
12236239 1 17346885528656352480
12616999 72 18409729525888292475
12730499 353 18335146392580795187
13836976 161 18273216395919858110
14251717 144 18341613694057804994
14528608 73 18410571803714402845
14576447 43 18060137609351140174
14911166 2 18341625810909483990
15048467 5 14201407109949572398
15475509 84 12540954314710498718
15885798 251 10087651394058281578
16945 1 18199211571738123122
17834072 33 18342737433917747317
1813 80 13182746956798140842
200 152 17989209222154865001
20645477 70 18272090465573866663
21054139 6 18271796956304871903
21637258 2 15625943076162315630
221357 26 18341328907714595933
22289505 5 18335132051469079781
23402539 116 17312823792251849111
23402655 69 18412262805300384885
23557571 272 17168423762382558725
23559900 14 18410571781970385155
23590187 302 18060416910821250137
2748010 2 17983596370858065010
2871803 45 18341614776236504797
29717793 49 17418380168435608645
3060560 45 18411982447168360158
33382 64 14835856019454850534
33824 294 18410291398021148402
4072396 5 18262225648114481074
42 15 10952048957488390209
42630746 31 18273209816304325408
43658 37 18269834388442441424
4990 188 18060707177711845838
5281201 14 18338800013737776301
58051976 378 18343024367376144718
6327066 14 18049439550709399380
77779 3 18412262818491352353
9999458 23 18334857234297800174

>  <PUBCHEM_SHAPE_MULTIPOLES>  (1) 
317.27
11.99
2.19
0.84
16.16
0.63
-0.04
-3.49
-3.93
-2.14
0.09
-0.09
-0.04
0.66

>  <PUBCHEM_SHAPE_SELFOVERLAP>  (1) 
622.624

>  <PUBCHEM_SHAPE_VOLUME>  (1) 
192.6

>  <PUBCHEM_COORDINATE_TYPE>  (1) 
2
5
10

$$$$
