7167
     RDKit          3D

 17 18  0  0  0  0  0  0  0  0999 V2000
    0.0113    0.4829    0.0056 O   0  0  0  0  0  0  0  0  0  0  0  0
   -1.2885    2.4005   -0.0506 O   0  0  0  0  0  0  0  0  0  0  0  0
    1.3242    2.3933    0.0475 O   0  0  0  0  0  0  0  0  0  0  0  0
   -2.3010    0.2493   -0.0565 C   0  0  0  0  0  0  0  0  0  0  0  0
    2.3187    0.2352    0.0586 C   0  0  0  0  0  0  0  0  0  0  0  0
   -3.5132    0.6229    0.5236 C   0  0  0  0  0  0  0  0  0  0  0  0
    3.5066    0.6141   -0.5335 C   0  0  0  0  0  0  0  0  0  0  0  0
   -2.1699   -1.0055   -0.6515 C   0  0  0  0  0  0  0  0  0  0  0  0
    2.1595   -0.9961    0.6620 C   0  0  0  0  0  0  0  0  0  0  0  0
   -1.1739    1.1680   -0.0416 C   0  0  0  0  0  0  0  0  0  0  0  0
    1.1764    1.1816    0.0466 C   0  0  0  0  0  0  0  0  0  0  0  0
   -4.5943   -0.2585    0.5087 C   0  0  0  0  0  0  0  0  0  0  0  0
    4.5806   -0.2759   -0.5218 C   0  0  0  0  0  0  0  0  0  0  0  0
   -3.2511   -1.8868   -0.6666 C   0  0  0  0  0  0  0  0  0  0  0  0
    3.2336   -1.8860    0.6739 C   0  0  0  0  0  0  0  0  0  0  0  0
   -4.4633   -1.5132   -0.0864 C   0  0  0  0  0  0  0  0  0  0  0  0
    4.4442   -1.5259    0.0820 C   0  0  0  0  0  0  0  0  0  0  0  0
  1 10  1  0
  1 11  1  0
  2 10  2  0
  3 11  2  0
  4  6  2  0
  4  8  1  0
  4 10  1  0
  5  7  2  0
  5  9  1  0
  5 11  1  0
  6 12  1  0
  7 13  1  0
  8 14  2  0
  9 15  2  0
 12 16  2  0
 13 17  2  0
 14 16  1  0
 15 17  1  0
M  END
>  <PUBCHEM_COMPOUND_CID>  (1) 
7167

>  <PUBCHEM_CONFORMER_RMSD>  (1) 
0.6

>  <PUBCHEM_CONFORMER_DIVERSEORDER>  (1) 
1
16
17
20
12
14
13
11
19
10
9
18
15
6
8
5
7
3
2
4

>  <PUBCHEM_MMFF94_PARTIAL_CHARGES>  (1) 
27
1 -0.3
10 0.63
11 0.63
12 -0.15
13 -0.15
14 -0.15
15 -0.15
16 -0.15
17 -0.15
18 0.15
19 0.15
2 -0.57
20 0.15
21 0.15
22 0.15
23 0.15
24 0.15
25 0.15
26 0.15
27 0.15
3 -0.57
4 0.09
5 0.09
6 -0.15
7 -0.15
8 -0.15
9 -0.15

>  <PUBCHEM_EFFECTIVE_ROTOR_COUNT>  (1) 
4

>  <PUBCHEM_PHARMACOPHORE_FEATURES>  (1) 
4
1 2 acceptor
1 3 acceptor
6 4 6 8 12 14 16 rings
6 5 7 9 13 15 17 rings

>  <PUBCHEM_HEAVY_ATOM_COUNT>  (1) 
17

>  <PUBCHEM_ATOM_DEF_STEREO_COUNT>  (1) 
0

>  <PUBCHEM_ATOM_UDEF_STEREO_COUNT>  (1) 
0

>  <PUBCHEM_BOND_DEF_STEREO_COUNT>  (1) 
0

>  <PUBCHEM_BOND_UDEF_STEREO_COUNT>  (1) 
0

>  <PUBCHEM_ISOTOPIC_ATOM_COUNT>  (1) 
0

>  <PUBCHEM_COMPONENT_COUNT>  (1) 
1

>  <PUBCHEM_CACTVS_TAUTO_COUNT>  (1) 
1

>  <PUBCHEM_CONFORMER_ID>  (1) 
00001BFF00000001

>  <PUBCHEM_MMFF94_ENERGY>  (1) 
52.3988

>  <PUBCHEM_FEATURE_SELFOVERLAP>  (1) 
20.308

>  <PUBCHEM_SHAPE_FINGERPRINT>  (1) 
10616163 171 18340488872087916726
11046707 91 18342175566100886123
11806522 49 18335420179803370476
12553582 1 18410847763547033702
12633257 1 17417823850386082659
13167823 11 18410857663457155015
13533116 47 18127125506188156883
14252887 29 17989495104290241166
14576447 43 18335139795838134262
15188451 53 16271347704495482943
15196674 1 18410855464428624711
15239191 94 18411416215358738507
15242433 33 18408888433894824287
15352361 1 18410572894288131011
15375462 189 18408886234924218938
15536298 74 18271241737128585168
15537594 2 18337121115163821083
17804303 29 18202566189718898265
1813 80 18040729047171798639
18915474 69 18408042918359588262
19141452 34 18343865511489124903
19422 9 18410859862469653189
200 152 18187366523379870296
20261772 1 17988639718113459886
20281475 54 18410573985151672012
20291156 8 18410571786128215073
20645477 70 18263353849633164127
21250096 35 18413105056650056498
21267235 1 18410583880761746151
21634736 98 18337952419253466590
221490 88 18190748724236862418
22485316 2 18410572889940247297
2255824 54 18263928919915995812
22646028 28 18410854360616832835
22950370 63 18410581681738256743
23402539 116 18186799154295426478
23463225 33 18412826919295425623
235170 7 15936406732283899363
23559900 14 18341040895591770112
2871803 45 18187079550998209338
3004659 81 18187363203776611638
314173 41 18411989069775614030
351380 3 18410576184180488135
4214541 1 18411137996183658953
465052 167 18341901826492677327
5104073 3 18342458148941861161
7364860 26 18198621223518907824
7970288 3 18410851062082793999
83771 10 18408885135296663356
94968 8 18335420184024452354
9709674 26 18191586565309320147

>  <PUBCHEM_SHAPE_MULTIPOLES>  (1) 
332.24
10.06
2.2
0.78
0.13
0.42
0
-4.95
0.02
-0.01
0
-0.01
-0.16
-0.79

>  <PUBCHEM_SHAPE_SELFOVERLAP>  (1) 
721.606

>  <PUBCHEM_SHAPE_VOLUME>  (1) 
180.4

>  <PUBCHEM_COORDINATE_TYPE>  (1) 
2
5
10

$$$$
