7171
     RDKit          3D

 12 12  0  0  1  0  0  0  0  0999 V2000
    3.8370    0.9013    0.2312 O   0  0  0  0  0  0  0  0  0  0  0  0
   -1.4078   -1.0985   -0.3396 C   0  0  0  0  0  0  0  0  0  0  0  0
   -2.4841   -0.1721    0.2659 C   0  0  0  0  0  0  0  0  0  0  0  0
    0.0043   -0.5603   -0.1862 C   0  0  0  0  0  0  0  0  0  0  0  0
   -2.5103    1.2167   -0.3813 C   0  0  0  0  0  0  0  0  0  0  0  0
   -1.5192   -2.4994    0.2743 C   0  0  0  0  0  0  0  0  0  0  0  0
    0.7499   -0.3017   -1.3198 C   0  0  0  0  0  0  0  0  0  0  0  0
    0.5035   -0.3435    1.0831 C   0  0  0  0  0  0  0  0  0  0  0  0
   -3.5913    2.0938    0.2322 C   0  0  0  0  0  0  0  0  0  0  0  0
    2.0465    0.1930   -1.1784 C   0  0  0  0  0  0  0  0  0  0  0  0
    1.8000    0.1513    1.2246 C   0  0  0  0  0  0  0  0  0  0  0  0
    2.5715    0.4194    0.0938 C   0  0  0  0  0  0  0  0  0  0  0  0
  1 12  1  0
  2  3  1  0
  2  4  1  0
  2  6  1  0
  3  5  1  0
  4  7  2  0
  4  8  1  0
  5  9  1  0
  7 10  1  0
  8 11  2  0
 10 12  2  0
 11 12  1  0
M  END
>  <PUBCHEM_COMPOUND_CID>  (1) 
7171

>  <PUBCHEM_CONFORMER_RMSD>  (1) 
0.6

>  <PUBCHEM_CONFORMER_DIVERSEORDER>  (1) 
1
2
6
3
7
5
4
8

>  <PUBCHEM_MMFF94_PARTIAL_CHARGES>  (1) 
13
1 -0.53
10 -0.15
11 -0.15
12 0.08
2 0.14
21 0.15
22 0.15
26 0.15
27 0.15
28 0.45
4 -0.14
7 -0.15
8 -0.15

>  <PUBCHEM_EFFECTIVE_ROTOR_COUNT>  (1) 
3

>  <PUBCHEM_PHARMACOPHORE_FEATURES>  (1) 
4
1 1 donor
1 6 hydrophobe
1 9 hydrophobe
6 4 7 8 10 11 12 rings

>  <PUBCHEM_HEAVY_ATOM_COUNT>  (1) 
12

>  <PUBCHEM_ATOM_DEF_STEREO_COUNT>  (1) 
0

>  <PUBCHEM_ATOM_UDEF_STEREO_COUNT>  (1) 
1

>  <PUBCHEM_BOND_DEF_STEREO_COUNT>  (1) 
0

>  <PUBCHEM_BOND_UDEF_STEREO_COUNT>  (1) 
0

>  <PUBCHEM_ISOTOPIC_ATOM_COUNT>  (1) 
0

>  <PUBCHEM_COMPONENT_COUNT>  (1) 
1

>  <PUBCHEM_CACTVS_TAUTO_COUNT>  (1) 
2

>  <PUBCHEM_CONFORMER_ID>  (1) 
00001C0300000001

>  <PUBCHEM_MMFF94_ENERGY>  (1) 
22.8753

>  <PUBCHEM_FEATURE_SELFOVERLAP>  (1) 
20.297

>  <PUBCHEM_SHAPE_FINGERPRINT>  (1) 
11471102 22 14851604371095467508
12138202 97 17989202663755738719
124424 183 17918270939992359730
12491281 212 18113904900485910408
12500047 106 18412542111350499990
12716758 59 18412271631142017895
12932764 1 17702945967026880262
13380537 58 18411141354774270551
13764800 53 18338529555837392153
13839132 238 18342176639763595533
15775835 57 18259984834210174473
16945 1 18264214771168819527
17357990 137 17749969789860077677
18186145 218 17916882200734475037
18534176 82 18202002174307619379
19837323 101 18411142441706847451
20711983 171 18411132537237852396
21524375 3 18268703927364252111
21930827 45 18342739628503818491
21947302 44 17917151572292911605
22802520 49 17773053976471717461
22926399 65 18343582927915363096
22959321 8 17060613399888421105
23402539 116 18340757256542184847
23402655 69 16200153132501243073
23557571 272 18200322142010114844
25 1 17631740348524143345
276578 36 18262523563677198907
305870 269 18262797342019988347
81228 2 18266464389772316011

>  <PUBCHEM_SHAPE_MULTIPOLES>  (1) 
241.09
5.3
1.86
1.15
0.02
0.59
-0.06
-3.52
0.37
2.1
0.15
-0.59
0.02
0.06

>  <PUBCHEM_SHAPE_SELFOVERLAP>  (1) 
485.294

>  <PUBCHEM_SHAPE_VOLUME>  (1) 
142.9

>  <PUBCHEM_COORDINATE_TYPE>  (1) 
2
5
10

$$$$
