7174
     RDKit          3D

 13 13  0  0  0  0  0  0  0  0999 V2000
    1.7056   -0.1695   -0.0028 O   0  0  0  0  0  0  0  0  0  0  0  0
    1.1110    2.0446    0.0004 O   0  0  0  0  0  0  0  0  0  0  0  0
   -4.5770   -0.9244    0.0022 N   0  0  0  0  0  0  0  0  0  0  0  0
    3.9428   -1.0456   -0.0053 C   0  0  0  0  0  0  0  0  0  0  0  0
    3.0862    0.2112   -0.0031 C   0  0  0  0  0  0  0  0  0  0  0  0
   -0.5898    0.3967   -0.0011 C   0  0  0  0  0  0  0  0  0  0  0  0
    5.4252   -0.7188    0.0095 C   0  0  0  0  0  0  0  0  0  0  0  0
    0.7906    0.8543   -0.0010 C   0  0  0  0  0  0  0  0  0  0  0  0
   -1.6320    1.3240    0.0004 C   0  0  0  0  0  0  0  0  0  0  0  0
   -0.8721   -0.9694   -0.0016 C   0  0  0  0  0  0  0  0  0  0  0  0
   -3.2382   -0.4806    0.0011 C   0  0  0  0  0  0  0  0  0  0  0  0
   -2.9560    0.8854    0.0017 C   0  0  0  0  0  0  0  0  0  0  0  0
   -2.1962   -1.4079   -0.0006 C   0  0  0  0  0  0  0  0  0  0  0  0
  1  5  1  0
  1  8  1  0
  2  8  2  0
  3 11  1  0
  4  5  1  0
  4  7  1  0
  6  8  1  0
  6  9  2  0
  6 10  1  0
  9 12  1  0
 10 13  2  0
 11 12  2  0
 11 13  1  0
M  END
>  <PUBCHEM_COMPOUND_CID>  (1) 
7174

>  <PUBCHEM_CONFORMER_RMSD>  (1) 
0.6

>  <PUBCHEM_CONFORMER_DIVERSEORDER>  (1) 
1
20
24
22
21
23
12
15
9
10
17
16
19
4
14
13
3
7
2
6
11
18
8
5

>  <PUBCHEM_MMFF94_PARTIAL_CHARGES>  (1) 
17
1 -0.43
10 -0.15
11 0.1
12 -0.15
13 -0.15
2 -0.57
21 0.15
22 0.15
23 0.15
24 0.15
25 0.4
26 0.4
3 -0.9
5 0.28
6 0.09
8 0.63
9 -0.15

>  <PUBCHEM_EFFECTIVE_ROTOR_COUNT>  (1) 
4

>  <PUBCHEM_PHARMACOPHORE_FEATURES>  (1) 
5
1 2 acceptor
1 3 cation
1 3 donor
1 7 hydrophobe
6 6 9 10 11 12 13 rings

>  <PUBCHEM_HEAVY_ATOM_COUNT>  (1) 
13

>  <PUBCHEM_ATOM_DEF_STEREO_COUNT>  (1) 
0

>  <PUBCHEM_ATOM_UDEF_STEREO_COUNT>  (1) 
0

>  <PUBCHEM_BOND_DEF_STEREO_COUNT>  (1) 
0

>  <PUBCHEM_BOND_UDEF_STEREO_COUNT>  (1) 
0

>  <PUBCHEM_ISOTOPIC_ATOM_COUNT>  (1) 
0

>  <PUBCHEM_COMPONENT_COUNT>  (1) 
1

>  <PUBCHEM_CACTVS_TAUTO_COUNT>  (1) 
2

>  <PUBCHEM_CONFORMER_ID>  (1) 
00001C0600000001

>  <PUBCHEM_MMFF94_ENERGY>  (1) 
37.8836

>  <PUBCHEM_FEATURE_SELFOVERLAP>  (1) 
25.371

>  <PUBCHEM_SHAPE_FINGERPRINT>  (1) 
10465860 250 18273492347700507664
10968037 39 18408325497390683942
12032990 46 18410576192780498056
124424 183 18408884035953658855
13288520 33 18411420600557212647
13690532 89 18410011043983234199
14115302 16 17749399203528871126
14252887 29 17918000447426594070
15536298 74 18341611568402609824
17804303 29 18413672408934543080
17834072 33 18409451423125326740
18186145 218 14129069122939813620
200 152 17917983984637262693
20871999 31 18113613452463419372
21267235 1 18410301310821569634
22485316 2 18408882906820430050
2297311 6 18201450138536003956
23402539 116 18060131038499479477
23403322 49 18410856517075556830
23463225 33 18409449150771232782
23559900 14 18341606036611411192
42 15 18413109463323477394
5104073 3 18412828009768915088
559249 180 18116144477060386026
7364860 26 18197216056274976864
76465 3 17987789851849926679
8809292 202 18261115226526240843

>  <PUBCHEM_SHAPE_MULTIPOLES>  (1) 
250.81
8.95
1.57
0.6
8.39
0.35
0
-3.67
0.02
-0.4
0
0.01
-0.01
0

>  <PUBCHEM_SHAPE_SELFOVERLAP>  (1) 
511.495

>  <PUBCHEM_SHAPE_VOLUME>  (1) 
146.2

>  <PUBCHEM_COORDINATE_TYPE>  (1) 
2
5
10

$$$$
