7191
     RDKit          3D

 16 17  0  0  0  0  0  0  0  0999 V2000
   -0.0665    0.5652   -0.0001 O   0  0  0  0  0  0  0  0  0  0  0  0
    1.2815    2.4196    0.0003 O   0  0  0  0  0  0  0  0  0  0  0  0
    3.0890   -1.9934   -0.0005 N   0  0  0  0  0  0  0  0  0  0  0  0
   -2.4122    0.5148    0.0001 C   0  0  0  0  0  0  0  0  0  0  0  0
   -1.2148    1.4043    0.0002 C   0  0  0  0  0  0  0  0  0  0  0  0
   -2.9724    0.0995   -1.2079 C   0  0  0  0  0  0  0  0  0  0  0  0
   -2.9720    0.0986    1.2080 C   0  0  0  0  0  0  0  0  0  0  0  0
    2.2887    0.2762   -0.0001 C   0  0  0  0  0  0  0  0  0  0  0  0
   -4.0923   -0.7322   -1.2080 C   0  0  0  0  0  0  0  0  0  0  0  0
   -4.0917   -0.7333    1.2080 C   0  0  0  0  0  0  0  0  0  0  0  0
    1.1511    1.1999   -0.0001 C   0  0  0  0  0  0  0  0  0  0  0  0
   -4.6519   -1.1487    0.0000 C   0  0  0  0  0  0  0  0  0  0  0  0
    3.5863    0.7573    0.0003 C   0  0  0  0  0  0  0  0  0  0  0  0
    2.0854   -1.0877   -0.0004 C   0  0  0  0  0  0  0  0  0  0  0  0
    4.6455   -0.1435    0.0003 C   0  0  0  0  0  0  0  0  0  0  0  0
    4.3463   -1.4964   -0.0001 C   0  0  0  0  0  0  0  0  0  0  0  0
  1  5  1  0
  1 11  1  0
  2 11  2  0
  3 14  2  0
  3 16  1  0
  4  5  1  0
  4  6  2  0
  4  7  1  0
  6  9  1  0
  7 10  2  0
  8 11  1  0
  8 13  2  0
  8 14  1  0
  9 12  2  0
 10 12  1  0
 13 15  1  0
 15 16  2  0
M  END
>  <PUBCHEM_COMPOUND_CID>  (1) 
7191

>  <PUBCHEM_CONFORMER_RMSD>  (1) 
0.6

>  <PUBCHEM_CONFORMER_DIVERSEORDER>  (1) 
1
51
43
33
8
32
47
34
16
10
31
44
52
3
53
7
54
49
6
19
45
9
30
5
20
50
40
4
48
28
29
46
15
22
21
2
39
23
13
24
36
27
17
42
18
38
41
14
37
35
25
26
11
12

>  <PUBCHEM_MMFF94_PARTIAL_CHARGES>  (1) 
25
1 -0.43
10 -0.15
11 0.63
12 -0.15
13 -0.15
14 0.16
15 -0.15
16 0.16
19 0.15
2 -0.57
20 0.15
21 0.15
22 0.15
23 0.15
24 0.15
25 0.15
26 0.15
27 0.15
3 -0.62
4 -0.14
5 0.42
6 -0.15
7 -0.15
8 0.09
9 -0.15

>  <PUBCHEM_EFFECTIVE_ROTOR_COUNT>  (1) 
4

>  <PUBCHEM_PHARMACOPHORE_FEATURES>  (1) 
4
1 2 acceptor
1 3 acceptor
6 3 8 13 14 15 16 rings
6 4 6 7 9 10 12 rings

>  <PUBCHEM_HEAVY_ATOM_COUNT>  (1) 
16

>  <PUBCHEM_ATOM_DEF_STEREO_COUNT>  (1) 
0

>  <PUBCHEM_ATOM_UDEF_STEREO_COUNT>  (1) 
0

>  <PUBCHEM_BOND_DEF_STEREO_COUNT>  (1) 
0

>  <PUBCHEM_BOND_UDEF_STEREO_COUNT>  (1) 
0

>  <PUBCHEM_ISOTOPIC_ATOM_COUNT>  (1) 
0

>  <PUBCHEM_COMPONENT_COUNT>  (1) 
1

>  <PUBCHEM_CACTVS_TAUTO_COUNT>  (1) 
1

>  <PUBCHEM_CONFORMER_ID>  (1) 
00001C1700000001

>  <PUBCHEM_MMFF94_ENERGY>  (1) 
43.6652

>  <PUBCHEM_FEATURE_SELFOVERLAP>  (1) 
20.298

>  <PUBCHEM_SHAPE_FINGERPRINT>  (1) 
11137873 295 18333730204740705381
11543360 7 15792024384572997726
11806522 49 18409448089940645364
12032990 46 18409452445142913584
12236239 1 17775005717491474267
12363563 72 18334018271869801152
12596602 18 16988841708991383226
13167823 11 18131071532348640991
13533116 47 18199750418118801571
13544653 18 18408887312992795068
13583140 156 15123217763581385842
13675066 3 13110965335635974876
13862211 1 18409727323551290386
14123255 352 10447921767698357370
14123260 362 12252182952993873759
1420 369 18343303660456728103
14252887 29 17917436397866287686
14386348 63 18040156236184630667
14576447 43 18412541024829204350
15188451 53 16271629166571292007
15239191 94 18272651238041964415
15375462 189 18060137652158349496
15477762 27 18408885157161935476
15961568 22 15792299335848152876
17870717 6 17240204313850291203
18186145 218 16950004724778158025
193927 3 18339371777064257102
19433438 38 17676481731310437847
200 152 18343015606106850645
20261772 1 17988639713902804190
20281475 54 18409453578518693413
20300324 65 13984664763316323919
20325693 3 15791730798326562979
20432913 95 18413109463318241795
20645477 56 11671788174004011297
20645477 70 18260823855918246325
20671657 53 18407762538325432829
20871999 31 16660363671239823869
221490 88 18189903195463205555
22485316 2 18413387618374961713
2255824 54 18198626720971571100
22646028 1 18131068246856798183
22646028 28 18342737412163439815
22926399 37 7925916967777622567
23402539 116 18334574595126521696
23403322 49 18260265235603063323
235170 7 16877942719951372294
23557571 272 17167855365983637061
23559900 14 17895191155390207165
27216 239 11383829381614104239
2871803 45 18186798058804680346
351380 3 18201721755835094846
4921388 177 16298395660457871483
5104073 3 18269550547170457160
573450 72 17203894072045650435
602551 16 15554157177128262710
83771 10 18342175557347681112

>  <PUBCHEM_SHAPE_MULTIPOLES>  (1) 
312.55
10.65
1.76
0.98
0.01
0.2
0
-4.85
0
-1.24
0
1.35
-0.11
0

>  <PUBCHEM_SHAPE_SELFOVERLAP>  (1) 
669.669

>  <PUBCHEM_SHAPE_VOLUME>  (1) 
171.4

>  <PUBCHEM_COORDINATE_TYPE>  (1) 
2
5
10

$$$$
