7203
     RDKit          3D

 10 10  0  0  0  0  0  0  0  0999 V2000
    1.4531    0.0660    0.5666 O   0  0  0  0  0  0  0  0  0  0  0  0
   -0.0214   -2.2821    0.0839 N   0  0  0  0  0  0  0  0  0  0  0  0
    0.1214    0.1435    0.2866 C   0  0  0  0  0  0  0  0  0  0  0  0
   -0.6281   -1.0079    0.0444 C   0  0  0  0  0  0  0  0  0  0  0  0
    2.3419    0.7378   -0.3235 C   0  0  0  0  0  0  0  0  0  0  0  0
   -0.4910    1.3961    0.2440 C   0  0  0  0  0  0  0  0  0  0  0  0
   -1.9899   -0.9064   -0.2403 C   0  0  0  0  0  0  0  0  0  0  0  0
   -1.8528    1.4975   -0.0407 C   0  0  0  0  0  0  0  0  0  0  0  0
   -2.6021    0.3462   -0.2828 C   0  0  0  0  0  0  0  0  0  0  0  0
    3.6689    0.0094   -0.3381 C   0  0  0  0  0  0  0  0  0  0  0  0
  1  3  1  0
  1  5  1  0
  2  4  1  0
  3  4  2  0
  3  6  1  0
  4  7  1  0
  5 10  1  0
  6  8  2  0
  7  9  2  0
  8  9  1  0
M  END
>  <PUBCHEM_COMPOUND_CID>  (1) 
7203

>  <PUBCHEM_CONFORMER_RMSD>  (1) 
0.4

>  <PUBCHEM_CONFORMER_DIVERSEORDER>  (1) 
1
9
10
12
11
5
8
3
2
6
7
4

>  <PUBCHEM_MMFF94_PARTIAL_CHARGES>  (1) 
15
1 -0.36
13 0.15
14 0.15
15 0.15
16 0.15
2 -0.9
20 0.4
21 0.4
3 0.08
4 0.1
5 0.28
6 -0.15
7 -0.15
8 -0.15
9 -0.15

>  <PUBCHEM_EFFECTIVE_ROTOR_COUNT>  (1) 
2

>  <PUBCHEM_PHARMACOPHORE_FEATURES>  (1) 
4
1 1 acceptor
1 2 cation
1 2 donor
6 3 4 6 7 8 9 rings

>  <PUBCHEM_HEAVY_ATOM_COUNT>  (1) 
10

>  <PUBCHEM_ATOM_DEF_STEREO_COUNT>  (1) 
0

>  <PUBCHEM_ATOM_UDEF_STEREO_COUNT>  (1) 
0

>  <PUBCHEM_BOND_DEF_STEREO_COUNT>  (1) 
0

>  <PUBCHEM_BOND_UDEF_STEREO_COUNT>  (1) 
0

>  <PUBCHEM_ISOTOPIC_ATOM_COUNT>  (1) 
0

>  <PUBCHEM_COMPONENT_COUNT>  (1) 
1

>  <PUBCHEM_CACTVS_TAUTO_COUNT>  (1) 
1

>  <PUBCHEM_CONFORMER_ID>  (1) 
00001C2300000001

>  <PUBCHEM_MMFF94_ENERGY>  (1) 
39.5546

>  <PUBCHEM_FEATURE_SELFOVERLAP>  (1) 
20.297

>  <PUBCHEM_SHAPE_FINGERPRINT>  (1) 
12716758 59 18340484555882673928
12897270 3 18411415111594393516
13024252 1 12324237286877408157
14325111 11 18410293584243806996
15775835 57 18113339678516090036
16714656 1 18410855494630428913
16945 1 18340474617386431625
20201158 50 17917717894196515598
20645464 45 17916564557864565000
20645476 183 17894920658676887758
20653085 51 18040444303820277948
20871998 184 18128262383245554806
21040471 1 18339912723878907657
23235685 24 18409443661681722125
23552423 10 18120368761789367299
23559900 14 18201436957587359864
2748010 2 18050552243300545469
29004967 10 15841554093327586336
369184 2 18060420243868735432
5084963 1 18202844370023208745

>  <PUBCHEM_SHAPE_MULTIPOLES>  (1) 
194.94
4.32
1.72
0.68
3.86
0.58
0.01
-0.67
0.8
-0.65
-0.05
0.05
-0.03
-0.07

>  <PUBCHEM_SHAPE_SELFOVERLAP>  (1) 
396.217

>  <PUBCHEM_SHAPE_VOLUME>  (1) 
114.2

>  <PUBCHEM_COORDINATE_TYPE>  (1) 
2
5
10

$$$$
