7206
     RDKit          3D

 17 17  0  0  0  0  0  0  0  0999 V2000
   -2.1474   -2.5098    0.7421 Cl  0  0  0  0  0  0  0  0  0  0  0  0
   -6.0904    1.1543    0.9520 Cl  0  0  0  0  0  0  0  0  0  0  0  0
    2.6247    0.3252   -0.1563 O   0  0  0  0  0  0  0  0  0  0  0  0
   -0.7704   -0.4466   -0.9548 O   0  0  0  0  0  0  0  0  0  0  0  0
    1.6107   -1.6671   -0.7321 O   0  0  0  0  0  0  0  0  0  0  0  0
    4.9394    0.6878    0.3375 C   0  0  0  0  0  0  0  0  0  0  0  0
    6.3217    0.0508    0.4483 C   0  0  0  0  0  0  0  0  0  0  0  0
    3.8804   -0.3323   -0.0559 C   0  0  0  0  0  0  0  0  0  0  0  0
    7.3833    1.0808    0.7991 C   0  0  0  0  0  0  0  0  0  0  0  0
    0.3138    0.3746   -0.5693 C   0  0  0  0  0  0  0  0  0  0  0  0
    1.5619   -0.4658   -0.5054 C   0  0  0  0  0  0  0  0  0  0  0  0
   -2.0169   -0.0925   -0.4980 C   0  0  0  0  0  0  0  0  0  0  0  0
   -2.7575   -0.9591    0.2964 C   0  0  0  0  0  0  0  0  0  0  0  0
   -2.5193    1.1547   -0.8493 C   0  0  0  0  0  0  0  0  0  0  0  0
   -4.0201   -0.5729    0.7464 C   0  0  0  0  0  0  0  0  0  0  0  0
   -3.7817    1.5408   -0.3993 C   0  0  0  0  0  0  0  0  0  0  0  0
   -4.5322    0.6771    0.3986 C   0  0  0  0  0  0  0  0  0  0  0  0
  1 13  1  0
  2 17  1  0
  3  8  1  0
  3 11  1  0
  4 10  1  0
  4 12  1  0
  5 11  2  0
  6  7  1  0
  6  8  1  0
  7  9  1  0
 10 11  1  0
 12 13  2  0
 12 14  1  0
 13 15  1  0
 14 16  2  0
 15 17  2  0
 16 17  1  0
M  END
>  <PUBCHEM_COMPOUND_CID>  (1) 
7206

>  <PUBCHEM_CONFORMER_RMSD>  (1) 
0.8

>  <PUBCHEM_CONFORMER_DIVERSEORDER>  (1) 
1
75
122
202
20
149
43
50
172
157
104
186
114
273
191
280
106
173
40
69
253
15
139
281
31
206
197
81
59
66
171
260
310
125
249
179
121
49
185
87
290
32
259
254
265
159
151
136
57
287
91
230
218
316
115
211
300
56
138
62
308
68
299
304
195
261
255
79
291
140
135
70
105
116
26
111
4
38
184
288
99
19
73
187
35
95
233
133
165
234
119
168
317
270
190
110
209
61
306
319
30
134
5
237
267
226
331
102
220
27
22
252
3
34
282
21
11
71
212
312
275
276
285
55
2
144
244
63
320
227
333
222
45
9
213
100
256
97
150
246
257
235
323
223
216
113
208
200
245
13
198
243
33
41
107
221
326
229
332
64
182
283
177
65
47
322
321
279
39
164
6
314
189
86
46
205
269
137
77
25
124
37
217
169
303
51
296
18
251
98
277
207
298
88
199
274
160
83
76
247
146
80
174
176
301
311
82
12
147
239
14
152
93
112
84
241
128
203
58
305
262
204
294
215
329
278
180
183
178
23
307
36
219
170
302
101
196
330
52
85
44
117
17
72
67
325
297
92
156
268
263
264
313
48
167
89
103
293
163
295
143
309
289
74
284
118
193
328
153
272
130
28
225
132
16
210
292
108
240
238
94
228
231
161
145
258
90
214
158
10
29
109
327
194
53
24
8
224
236
166
54
123
127
78
148
192
250
155
162
96
131
201
242
181
7
266
286
154
120
315
188
142
318
175
60
129
126
232
324
141
271
42
248

>  <PUBCHEM_MMFF94_PARTIAL_CHARGES>  (1) 
17
1 -0.18
10 0.34
11 0.66
12 0.08
13 0.18
14 -0.15
15 -0.15
16 -0.15
17 0.18
2 -0.18
29 0.15
3 -0.43
30 0.15
31 0.15
4 -0.36
5 -0.57
8 0.28

>  <PUBCHEM_EFFECTIVE_ROTOR_COUNT>  (1) 
7

>  <PUBCHEM_PHARMACOPHORE_FEATURES>  (1) 
4
1 4 acceptor
1 5 acceptor
1 9 hydrophobe
6 12 13 14 15 16 17 rings

>  <PUBCHEM_HEAVY_ATOM_COUNT>  (1) 
17

>  <PUBCHEM_ATOM_DEF_STEREO_COUNT>  (1) 
0

>  <PUBCHEM_ATOM_UDEF_STEREO_COUNT>  (1) 
0

>  <PUBCHEM_BOND_DEF_STEREO_COUNT>  (1) 
0

>  <PUBCHEM_BOND_UDEF_STEREO_COUNT>  (1) 
0

>  <PUBCHEM_ISOTOPIC_ATOM_COUNT>  (1) 
0

>  <PUBCHEM_COMPONENT_COUNT>  (1) 
1

>  <PUBCHEM_CACTVS_TAUTO_COUNT>  (1) 
1

>  <PUBCHEM_CONFORMER_ID>  (1) 
00001C2600000001

>  <PUBCHEM_MMFF94_ENERGY>  (1) 
31.5202

>  <PUBCHEM_FEATURE_SELFOVERLAP>  (1) 
20.305

>  <PUBCHEM_SHAPE_FINGERPRINT>  (1) 
10 15 18259988188827468088
106641 1 18341618135802939265
11315181 36 17822290227274820388
12251169 10 18186243935225122535
12616971 3 16805325530788163758
13214271 11 18411978078685388926
13288520 33 10665228150932708667
13668630 136 12757145767210602528
13862211 1 11963386337276497504
1420 363 13695868117407244824
14251718 22 9655576318808374760
14251764 18 18408886256282945744
14341114 176 18334013861629400124
14350574 20 11314313853536925046
14844126 61 18042690683544044171
14849402 71 17386857282786668548
15048467 5 17775284958821687424
15348495 7 18338229483921165960
15501527 16 18412825776486140516
15716309 27 16515400773011187352
17834072 8 11239997858769068208
1813 80 15430322378275093606
18335252 98 15769776884083005621
19784866 170 18411698768788803206
19784866 240 12612760098841413325
20281389 69 18342453725737819512
20300324 65 11095889267330611723
20612939 158 15338850724789568964
20645477 56 18335137575049768637
20871999 31 11600008722090415827
21307412 95 9222931644822710593
21637258 2 14490483023354229081
220451 1 17748824125521313714
221357 26 9439401315674688226
22224240 67 18407757049314803186
23198884 109 13830135001028340104
23402539 116 18114457937470293887
23559900 14 18192733179933440654
351380 3 13912321287628446440
3545911 37 18411140212523635068
5104073 3 18116440232813555097
5364581 5 18118962740232430520
5924683 9 18338794645123991351

>  <PUBCHEM_SHAPE_MULTIPOLES>  (1) 
335.98
16.41
1.71
0.98
25.69
0.88
-0.03
-7.28
-6.87
-1.65
-0.19
-0.3
-0.04
0.69

>  <PUBCHEM_SHAPE_SELFOVERLAP>  (1) 
659.672

>  <PUBCHEM_SHAPE_VOLUME>  (1) 
202.8

>  <PUBCHEM_COORDINATE_TYPE>  (1) 
2
5
10

$$$$
