7208
     RDKit          3D

 20 21  0  0  0  0  0  0  0  0999 V2000
    0.8117   -1.3787    1.1103 Cl  0  0  0  0  0  0  0  0  0  0  0  0
    5.8987   -2.0842   -0.5141 Cl  0  0  0  0  0  0  0  0  0  0  0  0
    1.4151    1.5291    0.6439 O   0  0  0  0  0  0  0  0  0  0  0  0
   -1.2331    1.3516   -0.2590 O   0  0  0  0  0  0  0  0  0  0  0  0
   -3.2280    2.4627    0.0317 O   0  0  0  0  0  0  0  0  0  0  0  0
    0.9533    2.3281   -0.4385 C   0  0  0  0  0  0  0  0  0  0  0  0
   -0.5281    2.5977   -0.2578 C   0  0  0  0  0  0  0  0  0  0  0  0
    2.4473    0.6680    0.3788 C   0  0  0  0  0  0  0  0  0  0  0  0
   -3.1886    0.0837   -0.1222 C   0  0  0  0  0  0  0  0  0  0  0  0
    2.2989   -0.7043    0.5538 C   0  0  0  0  0  0  0  0  0  0  0  0
    3.6539    1.1962   -0.0705 C   0  0  0  0  0  0  0  0  0  0  0  0
   -2.5915    1.4095   -0.1054 C   0  0  0  0  0  0  0  0  0  0  0  0
   -4.3552   -0.1653    0.6009 C   0  0  0  0  0  0  0  0  0  0  0  0
   -2.5946   -0.9392   -0.8613 C   0  0  0  0  0  0  0  0  0  0  0  0
    3.3674   -1.5569    0.2769 C   0  0  0  0  0  0  0  0  0  0  0  0
    4.7223    0.3434   -0.3473 C   0  0  0  0  0  0  0  0  0  0  0  0
    4.5792   -1.0332   -0.1737 C   0  0  0  0  0  0  0  0  0  0  0  0
   -4.9277   -1.4372    0.5850 C   0  0  0  0  0  0  0  0  0  0  0  0
   -3.1672   -2.2111   -0.8774 C   0  0  0  0  0  0  0  0  0  0  0  0
   -4.3337   -2.4600   -0.1542 C   0  0  0  0  0  0  0  0  0  0  0  0
  1 10  1  0
  2 17  1  0
  3  6  1  0
  3  8  1  0
  4  7  1  0
  4 12  1  0
  5 12  2  0
  6  7  1  0
  8 10  2  0
  8 11  1  0
  9 12  1  0
  9 13  2  0
  9 14  1  0
 10 15  1  0
 11 16  2  0
 13 18  1  0
 14 19  2  0
 15 17  2  0
 16 17  1  0
 18 20  2  0
 19 20  1  0
M  END
>  <PUBCHEM_COMPOUND_CID>  (1) 
7208

>  <PUBCHEM_CONFORMER_RMSD>  (1) 
0.8

>  <PUBCHEM_CONFORMER_DIVERSEORDER>  (1) 
1
74
63
75
88
158
149
156
251
114
134
21
73
115
61
234
96
166
128
209
83
232
176
113
57
13
168
126
218
249
70
47
108
118
10
153
167
34
130
182
206
7
30
131
258
95
245
39
196
67
214
92
80
37
104
242
241
137
199
4
203
171
87
139
155
65
257
250
69
66
36
183
97
56
188
216
117
198
85
78
254
6
44
129
116
90
55
91
200
219
121
53
142
132
59
172
122
51
162
12
239
256
235
49
160
208
123
143
77
71
93
35
190
170
107
229
248
136
58
147
227
164
81
230
102
211
237
185
120
99
246
29
2
169
48
145
89
28
76
259
18
86
189
217
255
17
9
125
150
84
205
174
60
82
184
101
236
181
5
20
140
50
16
148
24
144
226
231
154
72
212
157
179
244
195
103
204
45
253
163
79
177
32
159
14
194
224
112
135
94
187
26
180
22
43
8
64
23
193
25
165
98
119
202
38
247
111
252
240
197
11
213
105
215
152
233
191
41
178
210
238
222
52
100
33
186
220
141
15
19
46
228
27
68
42
192
221
109
223
207
151
106
31
243
3
54
124
127
138
161
40
225
173
133
201
62
146
110
175

>  <PUBCHEM_MMFF94_PARTIAL_CHARGES>  (1) 
28
1 -0.18
10 0.18
11 -0.15
12 0.63
13 -0.15
14 -0.15
15 -0.15
16 -0.15
17 0.18
18 -0.15
19 -0.15
2 -0.18
20 -0.15
25 0.15
26 0.15
27 0.15
28 0.15
29 0.15
3 -0.36
30 0.15
31 0.15
32 0.15
4 -0.43
5 -0.57
6 0.28
7 0.28
8 0.08
9 0.09

>  <PUBCHEM_EFFECTIVE_ROTOR_COUNT>  (1) 
6

>  <PUBCHEM_PHARMACOPHORE_FEATURES>  (1) 
4
1 3 acceptor
1 5 acceptor
6 8 10 11 15 16 17 rings
6 9 13 14 18 19 20 rings

>  <PUBCHEM_HEAVY_ATOM_COUNT>  (1) 
20

>  <PUBCHEM_ATOM_DEF_STEREO_COUNT>  (1) 
0

>  <PUBCHEM_ATOM_UDEF_STEREO_COUNT>  (1) 
0

>  <PUBCHEM_BOND_DEF_STEREO_COUNT>  (1) 
0

>  <PUBCHEM_BOND_UDEF_STEREO_COUNT>  (1) 
0

>  <PUBCHEM_ISOTOPIC_ATOM_COUNT>  (1) 
0

>  <PUBCHEM_COMPONENT_COUNT>  (1) 
1

>  <PUBCHEM_CACTVS_TAUTO_COUNT>  (1) 
1

>  <PUBCHEM_CONFORMER_ID>  (1) 
00001C2800000001

>  <PUBCHEM_MMFF94_ENERGY>  (1) 
57.534

>  <PUBCHEM_FEATURE_SELFOVERLAP>  (1) 
20.297

>  <PUBCHEM_SHAPE_FINGERPRINT>  (1) 
10369192 42 16553652958355775480
10616163 171 18339641135716530230
108634 29 18115315587122013466
10968037 57 18413672426652456467
12553582 1 18336534002098607643
12596599 1 18129959874748524304
12633257 1 15913046572848757263
12643181 29 18194116318416294470
13103583 49 17846513529671599313
13167823 11 18410012126409847374
13533116 47 17982167022843015875
13551218 46 18342180003103140655
13989917 61 17183065185615926859
14251751 93 18411696547900658615
14341114 176 18411142463007617103
14420673 8 18341621356337814743
14767858 380 18115321093581187196
15196674 1 18409448076944999680
15209289 33 18333732450650015691
15352361 1 18410291440859817607
15537594 2 18338247053798839199
17780758 139 17846218817215233760
1813 80 17749104543203009285
20261772 1 18130786801744691183
20291156 8 18410570721282475657
20403669 9 18342742926985987167
20621476 21 17845666837431680814
21267235 1 18409455773252139538
21403212 168 18129111026888405337
21634736 98 18335137588082447836
21673915 165 18411135878611632408
21713013 43 18113611262119756364
21857420 4 15544546539137691087
221357 26 18409728486501049003
221490 88 18411699881422930408
22393880 68 18187075110165490636
22950370 63 18411705404275885588
23379529 103 18199756860422624430
23402539 116 18260547771737272402
235170 7 15936682722566046735
23559900 14 18340757234925351977
2871803 45 18259977193336422961
329604 57 18333736836054328262
4214541 1 18411981321449058937
46194498 28 17241883396870346973
5104073 3 18271519815398082048
5486654 36 18411989035521812753
56633871 153 18271250521054630399
7970288 3 18339640173892522967
9709674 26 18262238944610497281

>  <PUBCHEM_SHAPE_MULTIPOLES>  (1) 
397.72
12.23
3.09
0.87
4.23
0.77
0.03
-7.93
-0.83
-1.11
-0.38
-0.13
-0.25
-0.06

>  <PUBCHEM_SHAPE_SELFOVERLAP>  (1) 
825.455

>  <PUBCHEM_SHAPE_VOLUME>  (1) 
227.8

>  <PUBCHEM_COORDINATE_TYPE>  (1) 
2
5
10

$$$$
