7209
     RDKit          3D

 37 39  0  0  0  0  0  0  0  0999 V2000
    3.3523    0.7458   -2.1869 Cl  0  0  0  0  0  0  0  0  0  0  0  0
    0.8076    1.3105    1.5357 Cl  0  0  0  0  0  0  0  0  0  0  0  0
   -2.4452    0.1369    2.5324 Cl  0  0  0  0  0  0  0  0  0  0  0  0
    6.8106    2.9459    1.3079 Cl  0  0  0  0  0  0  0  0  0  0  0  0
   -2.4126    5.5974    1.0201 Cl  0  0  0  0  0  0  0  0  0  0  0  0
   -6.0212    1.9273   -1.0760 Cl  0  0  0  0  0  0  0  0  0  0  0  0
    0.0164   -3.3011   -0.6155 P   0  0  0  0  0  0  0  0  0  0  0  0
    1.4645   -2.6871   -0.2169 O   0  0  0  0  0  0  0  0  0  0  0  0
   -0.7241   -1.9078   -0.9945 O   0  0  0  0  0  0  0  0  0  0  0  0
   -0.5773   -3.4723    0.8849 O   0  0  0  0  0  0  0  0  0  0  0  0
    4.0631   -1.8161   -0.7791 O   0  0  0  0  0  0  0  0  0  0  0  0
   -0.0093    0.7613   -1.3072 O   0  0  0  0  0  0  0  0  0  0  0  0
   -3.1684   -2.5654    1.4254 O   0  0  0  0  0  0  0  0  0  0  0  0
    2.5566   -3.5954   -0.2355 C   0  0  0  0  0  0  0  0  0  0  0  0
   -0.4452   -1.3804   -2.2839 C   0  0  0  0  0  0  0  0  0  0  0  0
   -1.6593   -4.3815    1.0309 C   0  0  0  0  0  0  0  0  0  0  0  0
    3.8210   -2.8571    0.1596 C   0  0  0  0  0  0  0  0  0  0  0  0
   -0.7844    0.0976   -2.2982 C   0  0  0  0  0  0  0  0  0  0  0  0
   -2.9417   -3.6986    0.5961 C   0  0  0  0  0  0  0  0  0  0  0  0
    4.6909   -0.6935   -0.3072 C   0  0  0  0  0  0  0  0  0  0  0  0
   -0.5566    1.8849   -0.7461 C   0  0  0  0  0  0  0  0  0  0  0  0
   -3.8205   -1.5040    0.8552 C   0  0  0  0  0  0  0  0  0  0  0  0
    4.4519    0.5599   -0.8708 C   0  0  0  0  0  0  0  0  0  0  0  0
   -0.2618    2.2550    0.5661 C   0  0  0  0  0  0  0  0  0  0  0  0
   -3.5789   -0.1961    1.2755 C   0  0  0  0  0  0  0  0  0  0  0  0
    5.5842   -0.8211    0.7565 C   0  0  0  0  0  0  0  0  0  0  0  0
   -1.4241    2.6634   -1.5122 C   0  0  0  0  0  0  0  0  0  0  0  0
   -4.7414   -1.7506   -0.1629 C   0  0  0  0  0  0  0  0  0  0  0  0
    5.1062    1.6857   -0.3707 C   0  0  0  0  0  0  0  0  0  0  0  0
   -0.8345    3.4038    1.1121 C   0  0  0  0  0  0  0  0  0  0  0  0
   -4.2582    0.8653    0.6776 C   0  0  0  0  0  0  0  0  0  0  0  0
    6.2385    0.3048    1.2564 C   0  0  0  0  0  0  0  0  0  0  0  0
   -1.9967    3.8120   -0.9661 C   0  0  0  0  0  0  0  0  0  0  0  0
   -5.4208   -0.6891   -0.7608 C   0  0  0  0  0  0  0  0  0  0  0  0
    5.9995    1.5581    0.6928 C   0  0  0  0  0  0  0  0  0  0  0  0
   -1.7021    4.1822    0.3460 C   0  0  0  0  0  0  0  0  0  0  0  0
   -5.1792    0.6188   -0.3405 C   0  0  0  0  0  0  0  0  0  0  0  0
  1 23  1  0
  2 24  1  0
  3 25  1  0
  4 35  1  0
  5 36  1  0
  6 37  1  0
  7  8  1  0
  7  9  1  0
  7 10  1  0
  8 14  1  0
  9 15  1  0
 10 16  1  0
 11 17  1  0
 11 20  1  0
 12 18  1  0
 12 21  1  0
 13 19  1  0
 13 22  1  0
 14 17  1  0
 15 18  1  0
 16 19  1  0
 20 23  2  0
 20 26  1  0
 21 24  2  0
 21 27  1  0
 22 25  2  0
 22 28  1  0
 23 29  1  0
 24 30  1  0
 25 31  1  0
 26 32  2  0
 27 33  2  0
 28 34  2  0
 29 35  2  0
 30 36  2  0
 31 37  2  0
 32 35  1  0
 33 36  1  0
 34 37  1  0
M  END
>  <PUBCHEM_COMPOUND_CID>  (1) 
7209

>  <PUBCHEM_CONFORMER_RMSD>  (1) 
1.6

>  <PUBCHEM_CONFORMER_DIVERSEORDER>  (1) 
3
79
57
40
16
81
23
55
37
80
2
72
27
41
32
5
85
4
74
45
43
42
83
44
53
46
10
19
59
50
77
54
52
20
84
34
49
13
39
47
31
64
28
8
30
68
24
67
71
61
11
69
26
18
63
9
7
76
21
58
56
75
73
70
66
60
35
25
62
15
6
17
78
22
14
51
33
82
36
38
65
29
1
48
12

>  <PUBCHEM_MMFF94_PARTIAL_CHARGES>  (1) 
46
1 -0.18
10 -0.38
11 -0.36
12 -0.36
13 -0.36
14 0.28
15 0.28
16 0.28
17 0.28
18 0.28
19 0.28
2 -0.18
20 0.08
21 0.08
22 0.08
23 0.18
24 0.18
25 0.18
26 -0.15
27 -0.15
28 -0.15
29 -0.15
3 -0.18
30 -0.15
31 -0.15
32 -0.15
33 -0.15
34 -0.15
35 0.18
36 0.18
37 0.18
4 -0.18
5 -0.18
50 0.15
51 0.15
52 0.15
53 0.15
54 0.15
55 0.15
56 0.15
57 0.15
58 0.15
6 -0.18
7 0.3
8 -0.38
9 -0.38

>  <PUBCHEM_EFFECTIVE_ROTOR_COUNT>  (1) 
15

>  <PUBCHEM_PHARMACOPHORE_FEATURES>  (1) 
6
1 11 acceptor
1 12 acceptor
1 13 acceptor
6 20 23 26 29 32 35 rings
6 21 24 27 30 33 36 rings
6 22 25 28 31 34 37 rings

>  <PUBCHEM_HEAVY_ATOM_COUNT>  (1) 
37

>  <PUBCHEM_ATOM_DEF_STEREO_COUNT>  (1) 
0

>  <PUBCHEM_ATOM_UDEF_STEREO_COUNT>  (1) 
0

>  <PUBCHEM_BOND_DEF_STEREO_COUNT>  (1) 
0

>  <PUBCHEM_BOND_UDEF_STEREO_COUNT>  (1) 
0

>  <PUBCHEM_ISOTOPIC_ATOM_COUNT>  (1) 
0

>  <PUBCHEM_COMPONENT_COUNT>  (1) 
1

>  <PUBCHEM_CACTVS_TAUTO_COUNT>  (1) 
1

>  <PUBCHEM_CONFORMER_ID>  (1) 
00001C2900000003

>  <PUBCHEM_MMFF94_ENERGY>  (1) 
98.4074

>  <PUBCHEM_FEATURE_SELFOVERLAP>  (1) 
30.448

>  <PUBCHEM_SHAPE_FINGERPRINT>  (1) 
10930396 42 18196068131950018208
12355185 1 18056174922500480935
12422481 6 18040152942124504574
12788726 201 18338532927270759652
14295345 954 18335419007235626916
14394314 77 18413112766755111201
15790856 291 15359364226833976196
21792964 463 17460045187488297932
21795232 40 18264761228674456837
354706 109 18117819037316542832
392239 28 18338801100322394758
469060 322 18336274526007995824
5171179 24 17908997508131110327
6004065 56 18339356491734716783
6036956 94 18335713731838429173
653340 110 18337958883268761856

>  <PUBCHEM_SHAPE_MULTIPOLES>  (1) 
741.29
13.9
6.6
1.96
15.42
1.57
-0.3
3.75
2.28
-3.45
1.68
-0.3
0.3
1.62

>  <PUBCHEM_SHAPE_SELFOVERLAP>  (1) 
1488.906

>  <PUBCHEM_SHAPE_VOLUME>  (1) 
440.8

>  <PUBCHEM_COORDINATE_TYPE>  (1) 
2
5
10

$$$$
