7210
     RDKit          3D

 21 22  0  0  1  0  0  0  0  0999 V2000
   -4.5473   -0.6445   -1.8792 O   0  0  0  0  0  0  0  0  0  0  0  0
    2.4692    0.4195    1.5954 O   0  0  0  0  0  0  0  0  0  0  0  0
   -1.3857   -1.2669    0.7036 N   0  0  0  0  0  0  0  0  0  0  0  0
    1.4091   -1.2196   -0.0700 N   0  0  0  0  0  0  0  0  0  0  0  0
   -0.6394   -2.4979    0.4169 C   0  0  0  0  0  0  0  0  0  0  0  0
    0.4529   -2.1935   -0.6049 C   0  0  0  0  0  0  0  0  0  0  0  0
   -0.0978   -3.0598    1.7250 C   0  0  0  0  0  0  0  0  0  0  0  0
   -3.2504    0.0937   -0.0015 C   0  0  0  0  0  0  0  0  0  0  0  0
   -2.3680   -1.0807   -0.1062 C   0  0  0  0  0  0  0  0  0  0  0  0
    3.4407   -0.0073   -0.5556 C   0  0  0  0  0  0  0  0  0  0  0  0
    2.3672   -0.9587   -0.8893 C   0  0  0  0  0  0  0  0  0  0  0  0
   -4.3006    0.2612   -0.8910 C   0  0  0  0  0  0  0  0  0  0  0  0
   -3.0046    1.0194    1.0016 C   0  0  0  0  0  0  0  0  0  0  0  0
    3.4458    0.6399    0.6705 C   0  0  0  0  0  0  0  0  0  0  0  0
    4.4373    0.2219   -1.4925 C   0  0  0  0  0  0  0  0  0  0  0  0
   -5.1248    1.3805   -0.7750 C   0  0  0  0  0  0  0  0  0  0  0  0
   -3.8287    2.1387    1.1177 C   0  0  0  0  0  0  0  0  0  0  0  0
    4.4713    1.5377    0.9671 C   0  0  0  0  0  0  0  0  0  0  0  0
   -4.8888    2.3193    0.2293 C   0  0  0  0  0  0  0  0  0  0  0  0
    5.4629    1.1196   -1.1959 C   0  0  0  0  0  0  0  0  0  0  0  0
    5.4798    1.7774    0.0339 C   0  0  0  0  0  0  0  0  0  0  0  0
  1 12  1  0
  2 14  1  0
  3  5  1  0
  3  9  2  0
  4  6  1  0
  4 11  2  0
  5  6  1  0
  5  7  1  0
  8  9  1  0
  8 12  2  0
  8 13  1  0
 10 11  1  0
 10 14  2  0
 10 15  1  0
 12 16  1  0
 13 17  2  0
 14 18  1  0
 15 20  2  0
 16 19  2  0
 17 19  1  0
 18 21  2  0
 20 21  1  0
M  END
>  <PUBCHEM_COMPOUND_CID>  (1) 
7210

>  <PUBCHEM_CONFORMER_RMSD>  (1) 
0.8

>  <PUBCHEM_CONFORMER_DIVERSEORDER>  (1) 
1
91
18
105
110
145
46
63
120
66
13
148
68
109
85
57
113
62
22
163
164
50
150
149
30
131
70
119
27
158
165
126
155
40
116
137
117
52
124
48
84
23
16
53
168
69
132
86
130
72
129
19
127
93
123
64
8
31
98
59
60
151
36
108
94
104
12
56
26
21
125
37
111
144
118
95
167
112
43
10
87
42
74
154
121
146
47
39
20
136
78
122
83
140
103
161
97
88
9
157
5
2
152
58
153
33
67
141
49
101
102
35
25
75
92
89
162
24
14
139
80
55
77
147
81
34
38
107
90
156
3
17
65
11
99
128
135
106
138
61
143
51
79
134
54
7
32
133
160
96
166
159
114
45
15
73
44
100
82
41
4
142
76
29
28
71
115
6

>  <PUBCHEM_MMFF94_PARTIAL_CHARGES>  (1) 
32
1 -0.53
10 0.09
11 0.3
12 0.08
13 -0.15
14 0.08
15 -0.15
16 -0.15
17 -0.15
18 -0.15
19 -0.15
2 -0.53
20 -0.15
21 -0.15
28 0.06
29 0.06
3 -0.7
30 0.15
31 0.15
32 0.15
33 0.15
34 0.15
35 0.15
36 0.15
37 0.15
38 0.45
39 0.45
4 -0.7
5 0.25
6 0.25
8 0.09
9 0.3

>  <PUBCHEM_EFFECTIVE_ROTOR_COUNT>  (1) 
5

>  <PUBCHEM_PHARMACOPHORE_FEATURES>  (1) 
6
1 1 donor
1 2 donor
1 3 acceptor
1 4 acceptor
6 10 14 15 18 20 21 rings
6 8 12 13 16 17 19 rings

>  <PUBCHEM_HEAVY_ATOM_COUNT>  (1) 
21

>  <PUBCHEM_ATOM_DEF_STEREO_COUNT>  (1) 
0

>  <PUBCHEM_ATOM_UDEF_STEREO_COUNT>  (1) 
1

>  <PUBCHEM_BOND_DEF_STEREO_COUNT>  (1) 
0

>  <PUBCHEM_BOND_UDEF_STEREO_COUNT>  (1) 
0

>  <PUBCHEM_ISOTOPIC_ATOM_COUNT>  (1) 
0

>  <PUBCHEM_COMPONENT_COUNT>  (1) 
1

>  <PUBCHEM_CACTVS_TAUTO_COUNT>  (1) 
15

>  <PUBCHEM_CONFORMER_ID>  (1) 
00001C2A00000001

>  <PUBCHEM_MMFF94_ENERGY>  (1) 
58.1464

>  <PUBCHEM_FEATURE_SELFOVERLAP>  (1) 
30.449

>  <PUBCHEM_SHAPE_FINGERPRINT>  (1) 
10498660 4 18341896281294051385
105312 117 18335990843175300470
10670039 82 18410579465973352468
10928967 22 10519982655992571573
10968037 57 9007051362480751765
11089746 13 18343299276112549654
11796584 16 9869546745136449676
12596602 18 16732989751148975936
12633257 1 14634880759415253545
12892183 10 14562527362437389655
13103583 49 12324238326344007375
13583140 156 15285641031725365567
13590594 115 17545045900936455714
1420 369 9583516512319106940
14251764 30 12751229350833683533
14251764 38 18269555116488684300
14251764 75 17840600201788538825
14347329 18 18411425042218398816
14528608 73 18131347505461910653
14848178 96 18410295774492381732
14931854 50 18059857225296700769
14950920 106 14201399421336081684
15188451 53 12180138600688694753
16994733 274 17459453483050817357
17780758 139 12035441748911584551
18608769 82 18341618182884406387
193927 3 10447922884537352615
19784866 34 18335140847967906923
20388580 30 11887660793211235947
20693207 138 14691701326285922303
21401589 2 18335433373758262195
221357 26 17346598586212829777
22393880 68 17561360681964993054
22950370 63 9439400254759510010
235170 7 16343708724560567277
23559900 14 17272279146855081247
283562 15 18115873073967296339
2838139 119 18343298171820612292
312425 54 11963380847627876820
312425 83 17344921723769650773
341906 21 18335698390457100394
351380 3 10952053359503087596
4028521 119 18201722863899486930
44062 13 11671792533274588859
469060 322 17896337955383197323
474 4 18261395499270525151
57724786 102 18040722420258799924
5924683 9 14273748395025164433
6328613 192 18334303098007881356
633830 44 18337674096798978359
7808743 9 18334298703427973688
7970288 3 10952045654395614485
9981440 41 18408603686206399411

>  <PUBCHEM_SHAPE_MULTIPOLES>  (1) 
410.47
13.64
2.88
1.5
2.89
1.41
0
-11.85
3.5
-1.19
-1.09
0.08
0.19
-0.22

>  <PUBCHEM_SHAPE_SELFOVERLAP>  (1) 
868.429

>  <PUBCHEM_SHAPE_VOLUME>  (1) 
229.4

>  <PUBCHEM_COORDINATE_TYPE>  (1) 
2
5
10

$$$$
