7214
     RDKit          3D

 11 10  0  0  0  0  0  0  0  0999 V2000
    0.4742    1.3477   -1.2793 O   0  0  0  0  0  0  0  0  0  0  0  0
    3.0699    0.5832   -0.4895 O   0  0  0  0  0  0  0  0  0  0  0  0
    1.0449   -0.2006    0.3715 N   0  0  0  0  0  0  0  0  0  0  0  0
    3.0492   -0.9840    1.1904 N   0  0  0  0  0  0  0  0  0  0  0  0
   -1.8895   -0.8243   -1.0647 C   0  0  0  0  0  0  0  0  0  0  0  0
   -1.2767    0.2083   -0.1577 C   0  0  0  0  0  0  0  0  0  0  0  0
   -1.8212   -2.2171   -0.4558 C   0  0  0  0  0  0  0  0  0  0  0  0
   -1.9123    0.9156    0.7941 C   0  0  0  0  0  0  0  0  0  0  0  0
    0.1614    0.5388   -0.4102 C   0  0  0  0  0  0  0  0  0  0  0  0
   -3.3385    0.7663    1.2165 C   0  0  0  0  0  0  0  0  0  0  0  0
    2.4388   -0.1338    0.2847 C   0  0  0  0  0  0  0  0  0  0  0  0
  1  9  2  0
  2 11  2  0
  3  9  1  0
  3 11  1  0
  4 11  1  0
  5  6  1  0
  5  7  1  0
  6  8  2  0
  6  9  1  0
  8 10  1  0
M  END
>  <PUBCHEM_COMPOUND_CID>  (1) 
7214

>  <PUBCHEM_CONFORMER_RMSD>  (1) 
0.6

>  <PUBCHEM_CONFORMER_DIVERSEORDER>  (1) 
1
3
11
10
12
15
6
9
7
4
13
5
8
14
2

>  <PUBCHEM_MMFF94_PARTIAL_CHARGES>  (1) 
14
1 -0.57
10 0.14
11 0.69
17 0.15
2 -0.57
21 0.37
22 0.37
23 0.37
3 -0.49
4 -0.8
5 0.14
6 -0.12
8 -0.29
9 0.62

>  <PUBCHEM_EFFECTIVE_ROTOR_COUNT>  (1) 
4

>  <PUBCHEM_PHARMACOPHORE_FEATURES>  (1) 
6
1 1 acceptor
1 10 hydrophobe
1 2 acceptor
1 3 donor
1 4 donor
1 7 hydrophobe

>  <PUBCHEM_HEAVY_ATOM_COUNT>  (1) 
11

>  <PUBCHEM_ATOM_DEF_STEREO_COUNT>  (1) 
0

>  <PUBCHEM_ATOM_UDEF_STEREO_COUNT>  (1) 
0

>  <PUBCHEM_BOND_DEF_STEREO_COUNT>  (1) 
0

>  <PUBCHEM_BOND_UDEF_STEREO_COUNT>  (1) 
1

>  <PUBCHEM_ISOTOPIC_ATOM_COUNT>  (1) 
0

>  <PUBCHEM_COMPONENT_COUNT>  (1) 
1

>  <PUBCHEM_CACTVS_TAUTO_COUNT>  (1) 
5

>  <PUBCHEM_CONFORMER_ID>  (1) 
00001C2E00000001

>  <PUBCHEM_MMFF94_ENERGY>  (1) 
16.8996

>  <PUBCHEM_FEATURE_SELFOVERLAP>  (1) 
30.5

>  <PUBCHEM_SHAPE_FINGERPRINT>  (1) 
12932764 1 18333447642884249716
14128692 85 18047181131616926783
20281407 28 14779561075225363881
20653085 51 13758077359587419305
21061003 4 16660372467032392916
23402539 116 16988267708677894221
23500284 5 18266453402929728107
23552423 10 18045779258654862981
29004967 10 17167867452132312084
3248919 1 17988914579066855076

>  <PUBCHEM_SHAPE_MULTIPOLES>  (1) 
204.67
4.97
1.58
1.19
2.25
0.94
0.05
-0.36
-1.71
-1.41
0
0.2
-0.15
-0.94

>  <PUBCHEM_SHAPE_SELFOVERLAP>  (1) 
390.69

>  <PUBCHEM_SHAPE_VOLUME>  (1) 
125.3

>  <PUBCHEM_COORDINATE_TYPE>  (1) 
2
5
10

$$$$
