7218
     RDKit          3D

  9 10  0  0  1  0  0  0  0  0999 V2000
    3.1529    0.0869   -0.2041 N   0  0  0  0  0  0  0  0  0  0  0  0
   -0.2424    0.9948   -0.2311 C   0  0  0  0  0  0  0  0  0  0  0  0
   -1.2305   -1.0038   -0.3895 C   0  0  0  0  0  0  0  0  0  0  0  0
   -0.6453    0.0293   -1.3547 C   0  0  0  0  0  0  0  0  0  0  0  0
    0.6662    0.1012    0.6533 C   0  0  0  0  0  0  0  0  0  0  0  0
   -0.0069   -1.2997    0.5083 C   0  0  0  0  0  0  0  0  0  0  0  0
   -1.5805    1.1000    0.4666 C   0  0  0  0  0  0  0  0  0  0  0  0
   -2.1695   -0.1020    0.3771 C   0  0  0  0  0  0  0  0  0  0  0  0
    2.0560    0.0932    0.1741 C   0  0  0  0  0  0  0  0  0  0  0  0
  1  9  3  0
  2  4  1  0
  2  5  1  0
  2  7  1  0
  3  4  1  0
  3  6  1  0
  3  8  1  0
  5  6  1  0
  5  9  1  0
  7  8  2  0
M  END
>  <PUBCHEM_COMPOUND_CID>  (1) 
7218

>  <PUBCHEM_CONFORMER_RMSD>  (1) 
0.4

>  <PUBCHEM_CONFORMER_DIVERSEORDER>  (1) 
1
4
3
2

>  <PUBCHEM_MMFF94_PARTIAL_CHARGES>  (1) 
9
1 -0.56
17 0.15
18 0.15
2 0.14
3 0.14
5 0.2
7 -0.29
8 -0.29
9 0.36

>  <PUBCHEM_EFFECTIVE_ROTOR_COUNT>  (1) 
0.6

>  <PUBCHEM_PHARMACOPHORE_FEATURES>  (1) 
2
1 1 acceptor
7 2 3 4 5 6 7 8 rings

>  <PUBCHEM_HEAVY_ATOM_COUNT>  (1) 
9

>  <PUBCHEM_ATOM_DEF_STEREO_COUNT>  (1) 
0

>  <PUBCHEM_ATOM_UDEF_STEREO_COUNT>  (1) 
3

>  <PUBCHEM_BOND_DEF_STEREO_COUNT>  (1) 
0

>  <PUBCHEM_BOND_UDEF_STEREO_COUNT>  (1) 
0

>  <PUBCHEM_ISOTOPIC_ATOM_COUNT>  (1) 
0

>  <PUBCHEM_COMPONENT_COUNT>  (1) 
1

>  <PUBCHEM_CACTVS_TAUTO_COUNT>  (1) 
1

>  <PUBCHEM_CONFORMER_ID>  (1) 
00001C3200000001

>  <PUBCHEM_MMFF94_ENERGY>  (1) 
33.6282

>  <PUBCHEM_FEATURE_SELFOVERLAP>  (1) 
10.148

>  <PUBCHEM_SHAPE_FINGERPRINT>  (1) 
12423570 1 10372153249192209755
13024252 1 12901542451088846746
137420 1 11792926618179959427
14128692 85 17534068750496143723
16945 1 18201999928066025915
20645464 45 17703209789845974442
20653085 51 16702312234325173664
21040471 1 18198332966577366017
23552423 10 18263922301370950730
29004967 10 15719398325674926281
369184 2 8790887371758782540
5084963 1 17989205958085247497
68250623 7 17843128004483831855

>  <PUBCHEM_SHAPE_MULTIPOLES>  (1) 
180.23
3.04
1.17
0.97
2.43
0.1
0.22
-0.23
-0.11
-0.36
-0.09
-0.18
0.01
-0.13

>  <PUBCHEM_SHAPE_SELFOVERLAP>  (1) 
388.882

>  <PUBCHEM_SHAPE_VOLUME>  (1) 
102.3

>  <PUBCHEM_COORDINATE_TYPE>  (1) 
2
5
10

$$$$
