7221
     RDKit          3D

  9 10  0  0  0  0  0  0  0  0999 V2000
   -1.8105   -1.3556    0.0000 S   0  0  0  0  0  0  0  0  0  0  0  0
   -0.2425    0.7003    0.0000 C   0  0  0  0  0  0  0  0  0  0  0  0
   -0.2165   -0.6977    0.0000 C   0  0  0  0  0  0  0  0  0  0  0  0
    0.9925    1.3927    0.0000 C   0  0  0  0  0  0  0  0  0  0  0  0
   -1.5901    1.1947    0.0000 C   0  0  0  0  0  0  0  0  0  0  0  0
    0.9978   -1.4118    0.0000 C   0  0  0  0  0  0  0  0  0  0  0  0
    2.1988    0.6874    0.0000 C   0  0  0  0  0  0  0  0  0  0  0  0
    2.1990   -0.7003    0.0000 C   0  0  0  0  0  0  0  0  0  0  0  0
   -2.5285    0.1903    0.0000 C   0  0  0  0  0  0  0  0  0  0  0  0
  1  3  1  0
  1  9  1  0
  2  3  2  0
  2  4  1  0
  2  5  1  0
  3  6  1  0
  4  7  2  0
  5  9  2  0
  6  8  2  0
  7  8  1  0
M  END
>  <PUBCHEM_COMPOUND_CID>  (1) 
7221

>  <PUBCHEM_CONFORMER_RMSD>  (1) 
0.4

>  <PUBCHEM_CONFORMER_DIVERSEORDER>  (1) 
1

>  <PUBCHEM_MMFF94_PARTIAL_CHARGES>  (1) 
14
1 -0.08
10 0.15
11 0.15
12 0.15
13 0.15
14 0.15
15 0.15
3 0.04
4 -0.15
5 -0.15
6 -0.15
7 -0.15
8 -0.15
9 -0.11

>  <PUBCHEM_EFFECTIVE_ROTOR_COUNT>  (1) 
0

>  <PUBCHEM_PHARMACOPHORE_FEATURES>  (1) 
2
5 1 2 3 5 9 rings
6 2 3 4 6 7 8 rings

>  <PUBCHEM_HEAVY_ATOM_COUNT>  (1) 
9

>  <PUBCHEM_ATOM_DEF_STEREO_COUNT>  (1) 
0

>  <PUBCHEM_ATOM_UDEF_STEREO_COUNT>  (1) 
0

>  <PUBCHEM_BOND_DEF_STEREO_COUNT>  (1) 
0

>  <PUBCHEM_BOND_UDEF_STEREO_COUNT>  (1) 
0

>  <PUBCHEM_ISOTOPIC_ATOM_COUNT>  (1) 
0

>  <PUBCHEM_COMPONENT_COUNT>  (1) 
1

>  <PUBCHEM_CACTVS_TAUTO_COUNT>  (1) 
1

>  <PUBCHEM_CONFORMER_ID>  (1) 
00001C3500000001

>  <PUBCHEM_MMFF94_ENERGY>  (1) 
17.735

>  <PUBCHEM_FEATURE_SELFOVERLAP>  (1) 
10.208

>  <PUBCHEM_SHAPE_FINGERPRINT>  (1) 
12897270 3 9223219750278489457
16945 1 9295282846127338401
18185500 45 9079117751983947916
193761 8 9283851219427854023
19973954 147 9367347045888414027
21040471 1 9223234048251082402
23402655 69 8790341958785092051
23552423 10 10592041370989894536
241688 4 9871208136363182182
2748010 2 9222970161091524570
29004967 10 10303808800083455964
369184 2 9007057950411918709
5084963 1 10665233643794953765
528886 8 9151169835578789757

>  <PUBCHEM_SHAPE_MULTIPOLES>  (1) 
189.07
3.3
1.66
0.63
0.2
0.1
0
0.05
0
0.03
0
0.02
0.01
0

>  <PUBCHEM_SHAPE_SELFOVERLAP>  (1) 
400.457

>  <PUBCHEM_SHAPE_VOLUME>  (1) 
107.5

>  <PUBCHEM_COORDINATE_TYPE>  (1) 
2
5
10

$$$$
