7228
     RDKit          3D

 17 18  0  0  0  0  0  0  0  0999 V2000
    1.7294    0.6551    1.6096 S   0  0  0  0  0  0  0  0  0  0  0  0
   -0.9457    1.8551    0.8355 S   0  0  0  0  0  0  0  0  0  0  0  0
    2.5716    0.0582    0.2894 N   0  0  0  0  0  0  0  0  0  0  0  0
   -0.4005   -0.6599    0.6630 N   0  0  0  0  0  0  0  0  0  0  0  0
    2.3024   -1.3153   -0.1455 C   0  0  0  0  0  0  0  0  0  0  0  0
    2.7244    0.9211   -0.8862 C   0  0  0  0  0  0  0  0  0  0  0  0
    2.1399   -2.2312    1.0642 C   0  0  0  0  0  0  0  0  0  0  0  0
    3.4362   -1.7939   -1.0468 C   0  0  0  0  0  0  0  0  0  0  0  0
    3.0057    2.3577   -0.4550 C   0  0  0  0  0  0  0  0  0  0  0  0
    1.4634    0.8426   -1.7410 C   0  0  0  0  0  0  0  0  0  0  0  0
    0.0926    0.5067    1.0075 C   0  0  0  0  0  0  0  0  0  0  0  0
   -2.1853    0.8125    0.2442 C   0  0  0  0  0  0  0  0  0  0  0  0
   -1.7065   -0.5008    0.2230 C   0  0  0  0  0  0  0  0  0  0  0  0
   -3.4876    1.1339   -0.1711 C   0  0  0  0  0  0  0  0  0  0  0  0
   -2.5635   -1.5271   -0.2303 C   0  0  0  0  0  0  0  0  0  0  0  0
   -4.3152    0.0996   -0.6151 C   0  0  0  0  0  0  0  0  0  0  0  0
   -3.8612   -1.2144   -0.6452 C   0  0  0  0  0  0  0  0  0  0  0  0
  1  3  1  0
  1 11  1  0
  2 11  1  0
  2 12  1  0
  3  5  1  0
  3  6  1  0
  4 11  2  0
  4 13  1  0
  5  7  1  0
  5  8  1  0
  6  9  1  0
  6 10  1  0
 12 13  2  0
 12 14  1  0
 13 15  1  0
 14 16  2  0
 15 17  2  0
 16 17  1  0
M  END
>  <PUBCHEM_COMPOUND_CID>  (1) 
7228

>  <PUBCHEM_CONFORMER_RMSD>  (1) 
0.6

>  <PUBCHEM_CONFORMER_DIVERSEORDER>  (1) 
1
2
5
4
3

>  <PUBCHEM_MMFF94_PARTIAL_CHARGES>  (1) 
17
1 -0.04
11 0.43
12 0.04
13 0.23
14 -0.15
15 -0.15
16 -0.15
17 -0.15
2 -0.08
3 -0.56
32 0.15
33 0.15
34 0.15
35 0.15
4 -0.57
5 0.27
6 0.27

>  <PUBCHEM_EFFECTIVE_ROTOR_COUNT>  (1) 
4

>  <PUBCHEM_PHARMACOPHORE_FEATURES>  (1) 
5
1 4 acceptor
3 5 7 8 hydrophobe
3 6 9 10 hydrophobe
5 2 4 11 12 13 rings
6 12 13 14 15 16 17 rings

>  <PUBCHEM_HEAVY_ATOM_COUNT>  (1) 
17

>  <PUBCHEM_ATOM_DEF_STEREO_COUNT>  (1) 
0

>  <PUBCHEM_ATOM_UDEF_STEREO_COUNT>  (1) 
0

>  <PUBCHEM_BOND_DEF_STEREO_COUNT>  (1) 
0

>  <PUBCHEM_BOND_UDEF_STEREO_COUNT>  (1) 
0

>  <PUBCHEM_ISOTOPIC_ATOM_COUNT>  (1) 
0

>  <PUBCHEM_COMPONENT_COUNT>  (1) 
1

>  <PUBCHEM_CACTVS_TAUTO_COUNT>  (1) 
1

>  <PUBCHEM_CONFORMER_ID>  (1) 
00001C3C00000001

>  <PUBCHEM_MMFF94_ENERGY>  (1) 
42.9158

>  <PUBCHEM_FEATURE_SELFOVERLAP>  (1) 
25.443

>  <PUBCHEM_SHAPE_FINGERPRINT>  (1) 
10756046 5 18411145701354923228
11370993 70 18263080075464165486
11578080 2 17901357049654336640
11715629 250 17894341198716011637
12202030 40 15912782561235426492
12400797 292 18409453583056000560
12616999 72 18338796835340293838
12707595 3 16917350359104237033
13296908 3 17846493759942228203
14115302 16 18341615871658835135
14250199 8 18334869298328216908
16752209 62 17986951852190499011
16945 1 18194684756915751602
18186145 218 17458345238809658355
19862831 5 18409730642901276411
20281475 54 18131635608089896107
20523700 14 18339641251849315823
20645476 183 18260266339489156355
20645477 70 18341894099640614527
20671657 53 18266747887514839622
21501502 16 18202009789295392817
21634736 98 18411703158092729962
2255824 54 18333731291114659098
23419403 2 17762008291707944072
23557571 272 18130213883277645160
23559900 14 18201153269942791028
23598291 2 18267883699963666564
2748010 2 17186430790606945203
3060560 45 17967248689625646954
3082319 5 18409733967026570005
474 4 17313951942658336173
5262128 65 18129403539171183788
58051976 100 18335141938947453487
58051976 378 18265610055750829576
633830 44 18040995120902258841
6992083 37 17689439286875714928
7364860 26 18412827988826925104
74978 22 18336271145446402978
7832392 63 18189337857571517924
81228 2 16270817602045675297
93112 12 18408324358760133247
9709674 26 18410295843117315663

>  <PUBCHEM_SHAPE_MULTIPOLES>  (1) 
347.59
7.13
2.29
1.36
4.42
0.14
0
1.15
-2.23
-1.45
0.02
-0.91
-0.15
-0.52

>  <PUBCHEM_SHAPE_SELFOVERLAP>  (1) 
700.493

>  <PUBCHEM_SHAPE_VOLUME>  (1) 
206.5

>  <PUBCHEM_COORDINATE_TYPE>  (1) 
2
5
10

$$$$
