7241
     RDKit          3D

  8  8  0  0  0  0  0  0  0  0999 V2000
    1.6630   -1.4956    0.0001 F   0  0  0  0  0  0  0  0  0  0  0  0
    0.6435    0.6484   -0.0006 C   0  0  0  0  0  0  0  0  0  0  0  0
    0.5535   -0.7435   -0.0003 C   0  0  0  0  0  0  0  0  0  0  0  0
   -0.5170    1.4224   -0.0003 C   0  0  0  0  0  0  0  0  0  0  0  0
    1.9789    1.3130    0.0006 C   0  0  0  0  0  0  0  0  0  0  0  0
   -0.6969   -1.3615    0.0000 C   0  0  0  0  0  0  0  0  0  0  0  0
   -1.7675    0.8044    0.0002 C   0  0  0  0  0  0  0  0  0  0  0  0
   -1.8574   -0.5875    0.0003 C   0  0  0  0  0  0  0  0  0  0  0  0
  1  3  1  0
  2  3  2  0
  2  4  1  0
  2  5  1  0
  3  6  1  0
  4  7  2  0
  6  8  2  0
  7  8  1  0
M  END
>  <PUBCHEM_COMPOUND_CID>  (1) 
7241

>  <PUBCHEM_CONFORMER_RMSD>  (1) 
0.4

>  <PUBCHEM_CONFORMER_DIVERSEORDER>  (1) 
1

>  <PUBCHEM_MMFF94_PARTIAL_CHARGES>  (1) 
12
1 -0.19
13 0.15
14 0.15
15 0.15
2 -0.14
3 0.19
4 -0.15
5 0.14
6 -0.15
7 -0.15
8 -0.15
9 0.15

>  <PUBCHEM_EFFECTIVE_ROTOR_COUNT>  (1) 
0

>  <PUBCHEM_PHARMACOPHORE_FEATURES>  (1) 
1
6 2 3 4 6 7 8 rings

>  <PUBCHEM_HEAVY_ATOM_COUNT>  (1) 
8

>  <PUBCHEM_ATOM_DEF_STEREO_COUNT>  (1) 
0

>  <PUBCHEM_ATOM_UDEF_STEREO_COUNT>  (1) 
0

>  <PUBCHEM_BOND_DEF_STEREO_COUNT>  (1) 
0

>  <PUBCHEM_BOND_UDEF_STEREO_COUNT>  (1) 
0

>  <PUBCHEM_ISOTOPIC_ATOM_COUNT>  (1) 
0

>  <PUBCHEM_COMPONENT_COUNT>  (1) 
1

>  <PUBCHEM_CACTVS_TAUTO_COUNT>  (1) 
1

>  <PUBCHEM_CONFORMER_ID>  (1) 
00001C4900000001

>  <PUBCHEM_MMFF94_ENERGY>  (1) 
15.8892

>  <PUBCHEM_FEATURE_SELFOVERLAP>  (1) 
5.074

>  <PUBCHEM_SHAPE_FINGERPRINT>  (1) 
16714656 1 17977951503018503628
18185500 45 18195806490725441839
21040471 1 18410574023874955941
23552423 10 18333453157500808518
2748010 2 18410012117772485645
29004967 10 18188779486232179649

>  <PUBCHEM_SHAPE_MULTIPOLES>  (1) 
157.36
2.42
1.75
0.6
0.35
0.25
0
-0.32
0
0.2
0
-0.02
-0.02
0

>  <PUBCHEM_SHAPE_SELFOVERLAP>  (1) 
325.745

>  <PUBCHEM_SHAPE_VOLUME>  (1) 
91.1

>  <PUBCHEM_COORDINATE_TYPE>  (1) 
2
5
10

$$$$
