7244
     RDKit          3D

  8  8  0  0  0  0  0  0  0  0999 V2000
    2.4775   -1.1480    0.0001 Br  0  0  0  0  0  0  0  0  0  0  0  0
    1.3778    1.7730   -0.0001 O   0  0  0  0  0  0  0  0  0  0  0  0
    0.3911    0.8324    0.0000 C   0  0  0  0  0  0  0  0  0  0  0  0
    0.6854   -0.5310    0.0000 C   0  0  0  0  0  0  0  0  0  0  0  0
   -0.9369    1.2593    0.0001 C   0  0  0  0  0  0  0  0  0  0  0  0
   -0.3482   -1.4676   -0.0001 C   0  0  0  0  0  0  0  0  0  0  0  0
   -1.9706    0.3227    0.0001 C   0  0  0  0  0  0  0  0  0  0  0  0
   -1.6762   -1.0407    0.0000 C   0  0  0  0  0  0  0  0  0  0  0  0
  1  4  1  0
  2  3  1  0
  3  4  2  0
  3  5  1  0
  4  6  1  0
  5  7  2  0
  6  8  2  0
  7  8  1  0
M  END
>  <PUBCHEM_COMPOUND_CID>  (1) 
7244

>  <PUBCHEM_CONFORMER_RMSD>  (1) 
0.4

>  <PUBCHEM_CONFORMER_DIVERSEORDER>  (1) 
1

>  <PUBCHEM_MMFF94_PARTIAL_CHARGES>  (1) 
13
1 -0.11
10 0.15
11 0.15
12 0.15
13 0.45
2 -0.53
3 0.08
4 0.11
5 -0.15
6 -0.15
7 -0.15
8 -0.15
9 0.15

>  <PUBCHEM_EFFECTIVE_ROTOR_COUNT>  (1) 
0

>  <PUBCHEM_PHARMACOPHORE_FEATURES>  (1) 
3
1 1 hydrophobe
1 2 donor
6 3 4 5 6 7 8 rings

>  <PUBCHEM_HEAVY_ATOM_COUNT>  (1) 
8

>  <PUBCHEM_ATOM_DEF_STEREO_COUNT>  (1) 
0

>  <PUBCHEM_ATOM_UDEF_STEREO_COUNT>  (1) 
0

>  <PUBCHEM_BOND_DEF_STEREO_COUNT>  (1) 
0

>  <PUBCHEM_BOND_UDEF_STEREO_COUNT>  (1) 
0

>  <PUBCHEM_ISOTOPIC_ATOM_COUNT>  (1) 
0

>  <PUBCHEM_COMPONENT_COUNT>  (1) 
1

>  <PUBCHEM_CACTVS_TAUTO_COUNT>  (1) 
3

>  <PUBCHEM_CONFORMER_ID>  (1) 
00001C4C00000001

>  <PUBCHEM_MMFF94_ENERGY>  (1) 
16.7889

>  <PUBCHEM_FEATURE_SELFOVERLAP>  (1) 
15.223

>  <PUBCHEM_SHAPE_FINGERPRINT>  (1) 
16714656 1 18194966240524789438
16945 1 18338517434896240071
18185500 45 18264488377760143058
21040471 1 18194682794163299685
23552423 10 18261677098553270190
241688 4 18408882936405146961
2748010 2 18337669827506020759
29004967 10 18339929194936231898
5084963 1 18201714037884196459

>  <PUBCHEM_SHAPE_MULTIPOLES>  (1) 
164.71
2.85
1.81
0.62
1.28
0.41
0
-0.62
0
0.06
0
0.04
-0.03
0

>  <PUBCHEM_SHAPE_SELFOVERLAP>  (1) 
327.52

>  <PUBCHEM_SHAPE_VOLUME>  (1) 
100.9

>  <PUBCHEM_COORDINATE_TYPE>  (1) 
2
5
10

$$$$
