7250
     RDKit          3D

  9  9  0  0  0  0  0  0  0  0999 V2000
   -2.5158    0.9076   -0.0001 N   0  0  0  0  0  0  0  0  0  0  0  0
   -0.7502   -0.7772    0.0000 C   0  0  0  0  0  0  0  0  0  0  0  0
    1.5660   -0.0898    0.0000 C   0  0  0  0  0  0  0  0  0  0  0  0
   -1.1471    0.5600    0.0002 C   0  0  0  0  0  0  0  0  0  0  0  0
    0.6063   -1.1021    0.0000 C   0  0  0  0  0  0  0  0  0  0  0  0
    1.1689    1.2474    0.0000 C   0  0  0  0  0  0  0  0  0  0  0  0
   -0.1876    1.5723    0.0000 C   0  0  0  0  0  0  0  0  0  0  0  0
   -1.7568   -1.8815    0.0000 C   0  0  0  0  0  0  0  0  0  0  0  0
    3.0163   -0.4367    0.0000 C   0  0  0  0  0  0  0  0  0  0  0  0
  1  4  1  0
  2  4  2  0
  2  5  1  0
  2  8  1  0
  3  5  2  0
  3  6  1  0
  3  9  1  0
  4  7  1  0
  6  7  2  0
M  END
>  <PUBCHEM_COMPOUND_CID>  (1) 
7250

>  <PUBCHEM_CONFORMER_RMSD>  (1) 
0.4

>  <PUBCHEM_CONFORMER_DIVERSEORDER>  (1) 
1

>  <PUBCHEM_MMFF94_PARTIAL_CHARGES>  (1) 
14
1 -0.9
10 0.15
11 0.15
12 0.15
19 0.4
2 -0.14
20 0.4
3 -0.14
4 0.1
5 -0.15
6 -0.15
7 -0.15
8 0.14
9 0.14

>  <PUBCHEM_EFFECTIVE_ROTOR_COUNT>  (1) 
0

>  <PUBCHEM_PHARMACOPHORE_FEATURES>  (1) 
3
1 1 cation
1 1 donor
6 2 3 4 5 6 7 rings

>  <PUBCHEM_HEAVY_ATOM_COUNT>  (1) 
9

>  <PUBCHEM_ATOM_DEF_STEREO_COUNT>  (1) 
0

>  <PUBCHEM_ATOM_UDEF_STEREO_COUNT>  (1) 
0

>  <PUBCHEM_BOND_DEF_STEREO_COUNT>  (1) 
0

>  <PUBCHEM_BOND_UDEF_STEREO_COUNT>  (1) 
0

>  <PUBCHEM_ISOTOPIC_ATOM_COUNT>  (1) 
0

>  <PUBCHEM_COMPONENT_COUNT>  (1) 
1

>  <PUBCHEM_CACTVS_TAUTO_COUNT>  (1) 
1

>  <PUBCHEM_CONFORMER_ID>  (1) 
00001C5200000001

>  <PUBCHEM_MMFF94_ENERGY>  (1) 
32.7334

>  <PUBCHEM_FEATURE_SELFOVERLAP>  (1) 
15.223

>  <PUBCHEM_SHAPE_FINGERPRINT>  (1) 
14128692 85 18337961215383230196
15310529 11 16588587500507130012
16945 1 18338517439212306372
18185500 45 18407757032213912282
193761 8 18194682806916436709
20871998 184 18201439202884928966
21040471 1 18338516318104483844
23235685 24 18340482249211098084
23402655 69 17906714931462795565
23552423 10 18188209926392628886
2748010 2 18339358694440743276
29004967 10 18187938213644687992
5084963 1 18128823117011500130

>  <PUBCHEM_SHAPE_MULTIPOLES>  (1) 
180.23
3.24
1.81
0.61
1.02
0.06
0
0.52
0
-0.7
0
0.02
0.01
0

>  <PUBCHEM_SHAPE_SELFOVERLAP>  (1) 
370.928

>  <PUBCHEM_SHAPE_VOLUME>  (1) 
105.6

>  <PUBCHEM_COORDINATE_TYPE>  (1) 
2
5
10

$$$$
