7251
     RDKit          3D

  9  9  0  0  0  0  0  0  0  0999 V2000
    3.2230   -0.4272   -0.0007 Cl  0  0  0  0  0  0  0  0  0  0  0  0
   -2.5565    0.8687   -0.0001 N   0  0  0  0  0  0  0  0  0  0  0  0
   -0.7614   -0.7848    0.0005 C   0  0  0  0  0  0  0  0  0  0  0  0
   -1.1818    0.5452    0.0000 C   0  0  0  0  0  0  0  0  0  0  0  0
    0.6007   -1.0858    0.0007 C   0  0  0  0  0  0  0  0  0  0  0  0
   -0.2400    1.5742   -0.0002 C   0  0  0  0  0  0  0  0  0  0  0  0
   -1.7483   -1.9067   -0.0006 C   0  0  0  0  0  0  0  0  0  0  0  0
    1.5423   -0.0568    0.0003 C   0  0  0  0  0  0  0  0  0  0  0  0
    1.1220    1.2732    0.0001 C   0  0  0  0  0  0  0  0  0  0  0  0
  1  8  1  0
  2  4  1  0
  3  4  2  0
  3  5  1  0
  3  7  1  0
  4  6  1  0
  5  8  2  0
  6  9  2  0
  8  9  1  0
M  END
>  <PUBCHEM_COMPOUND_CID>  (1) 
7251

>  <PUBCHEM_CONFORMER_RMSD>  (1) 
0.4

>  <PUBCHEM_CONFORMER_DIVERSEORDER>  (1) 
1

>  <PUBCHEM_MMFF94_PARTIAL_CHARGES>  (1) 
14
1 -0.18
10 0.15
11 0.15
15 0.15
16 0.4
17 0.4
2 -0.9
3 -0.14
4 0.1
5 -0.15
6 -0.15
7 0.14
8 0.18
9 -0.15

>  <PUBCHEM_EFFECTIVE_ROTOR_COUNT>  (1) 
0

>  <PUBCHEM_PHARMACOPHORE_FEATURES>  (1) 
3
1 2 cation
1 2 donor
6 3 4 5 6 8 9 rings

>  <PUBCHEM_HEAVY_ATOM_COUNT>  (1) 
9

>  <PUBCHEM_ATOM_DEF_STEREO_COUNT>  (1) 
0

>  <PUBCHEM_ATOM_UDEF_STEREO_COUNT>  (1) 
0

>  <PUBCHEM_BOND_DEF_STEREO_COUNT>  (1) 
0

>  <PUBCHEM_BOND_UDEF_STEREO_COUNT>  (1) 
0

>  <PUBCHEM_ISOTOPIC_ATOM_COUNT>  (1) 
0

>  <PUBCHEM_COMPONENT_COUNT>  (1) 
1

>  <PUBCHEM_CACTVS_TAUTO_COUNT>  (1) 
1

>  <PUBCHEM_CONFORMER_ID>  (1) 
00001C5300000001

>  <PUBCHEM_MMFF94_ENERGY>  (1) 
30.9328

>  <PUBCHEM_FEATURE_SELFOVERLAP>  (1) 
15.223

>  <PUBCHEM_SHAPE_FINGERPRINT>  (1) 
12423570 1 11058488868247632790
14128692 85 18337397165949829604
15310529 11 16588304930313752352
16714656 1 18337955584591518660
16945 1 18410573938017723588
18185500 45 18407757036482499322
193761 8 18122626316690359109
20871998 184 18273497896439778918
21040471 1 18338797801708084837
23235685 24 18340482253500790624
23402655 69 17978772529806227309
23552423 10 18188209935008911262
2748010 2 18267300009465284900
5084963 1 18128823117022036642

>  <PUBCHEM_SHAPE_MULTIPOLES>  (1) 
182.1
3.47
1.81
0.61
1.63
0.1
0
0.59
0
-0.74
0
0.04
0.01
0

>  <PUBCHEM_SHAPE_SELFOVERLAP>  (1) 
367.817

>  <PUBCHEM_SHAPE_VOLUME>  (1) 
108.3

>  <PUBCHEM_COORDINATE_TYPE>  (1) 
2
5
10

$$$$
