7252
     RDKit          3D

  9  9  0  0  0  0  0  0  0  0999 V2000
   -2.5011    0.9219   -0.0003 N   0  0  0  0  0  0  0  0  0  0  0  0
    2.9435   -0.4399    0.0002 N   0  0  0  0  0  0  0  0  0  0  0  0
   -0.7466   -0.7743   -0.0008 C   0  0  0  0  0  0  0  0  0  0  0  0
   -1.1345    0.5655   -0.0001 C   0  0  0  0  0  0  0  0  0  0  0  0
    0.6078   -1.1082   -0.0007 C   0  0  0  0  0  0  0  0  0  0  0  0
    1.5742   -0.1024   -0.0001 C   0  0  0  0  0  0  0  0  0  0  0  0
   -0.1683    1.5714    0.0003 C   0  0  0  0  0  0  0  0  0  0  0  0
    1.1861    1.2374    0.0004 C   0  0  0  0  0  0  0  0  0  0  0  0
   -1.7611   -1.8713    0.0011 C   0  0  0  0  0  0  0  0  0  0  0  0
  1  4  1  0
  2  6  1  0
  3  4  2  0
  3  5  1  0
  3  9  1  0
  4  7  1  0
  5  6  2  0
  6  8  1  0
  7  8  2  0
M  END
>  <PUBCHEM_COMPOUND_CID>  (1) 
7252

>  <PUBCHEM_CONFORMER_RMSD>  (1) 
0.4

>  <PUBCHEM_CONFORMER_DIVERSEORDER>  (1) 
1

>  <PUBCHEM_MMFF94_PARTIAL_CHARGES>  (1) 
16
1 -0.9
10 0.15
11 0.15
12 0.15
16 0.4
17 0.4
18 0.4
19 0.4
2 -0.9
3 -0.14
4 0.1
5 -0.15
6 0.1
7 -0.15
8 -0.15
9 0.14

>  <PUBCHEM_EFFECTIVE_ROTOR_COUNT>  (1) 
0

>  <PUBCHEM_PHARMACOPHORE_FEATURES>  (1) 
5
1 1 cation
1 1 donor
1 2 cation
1 2 donor
6 3 4 5 6 7 8 rings

>  <PUBCHEM_HEAVY_ATOM_COUNT>  (1) 
9

>  <PUBCHEM_ATOM_DEF_STEREO_COUNT>  (1) 
0

>  <PUBCHEM_ATOM_UDEF_STEREO_COUNT>  (1) 
0

>  <PUBCHEM_BOND_DEF_STEREO_COUNT>  (1) 
0

>  <PUBCHEM_BOND_UDEF_STEREO_COUNT>  (1) 
0

>  <PUBCHEM_ISOTOPIC_ATOM_COUNT>  (1) 
0

>  <PUBCHEM_COMPONENT_COUNT>  (1) 
1

>  <PUBCHEM_CACTVS_TAUTO_COUNT>  (1) 
1

>  <PUBCHEM_CONFORMER_ID>  (1) 
00001C5400000001

>  <PUBCHEM_MMFF94_ENERGY>  (1) 
43.0484

>  <PUBCHEM_FEATURE_SELFOVERLAP>  (1) 
25.371

>  <PUBCHEM_SHAPE_FINGERPRINT>  (1) 
12423570 1 17894917273936495620
16945 1 18338517439154264612
18185500 45 18408038507158967930
193761 8 18194402427172204293
21040471 1 18338798892613927781
23235685 24 18340482249190005569
23402655 69 17906714931473351565
23552423 10 18188209930650692406
2748010 2 18339358698688211828
29004967 10 18188219684284239832
5084963 1 18128823116964007874

>  <PUBCHEM_SHAPE_MULTIPOLES>  (1) 
175.25
3.02
1.82
0.6
0.67
0.02
0
0.49
0
-0.63
0
0
0
0

>  <PUBCHEM_SHAPE_SELFOVERLAP>  (1) 
363.019

>  <PUBCHEM_SHAPE_VOLUME>  (1) 
101.5

>  <PUBCHEM_COORDINATE_TYPE>  (1) 
2
5
10

$$$$
