7253
     RDKit          3D

  9  9  0  0  0  0  0  0  0  0999 V2000
   -2.4432    0.9327   -0.0007 O   0  0  0  0  0  0  0  0  0  0  0  0
    2.8917   -0.4576    0.0000 O   0  0  0  0  0  0  0  0  0  0  0  0
   -0.7537   -0.7675   -0.0001 C   0  0  0  0  0  0  0  0  0  0  0  0
   -1.1281    0.5762    0.0005 C   0  0  0  0  0  0  0  0  0  0  0  0
    0.5972   -1.1150   -0.0003 C   0  0  0  0  0  0  0  0  0  0  0  0
    1.5737   -0.1189   -0.0002 C   0  0  0  0  0  0  0  0  0  0  0  0
   -0.1517    1.5723    0.0004 C   0  0  0  0  0  0  0  0  0  0  0  0
   -1.7852   -1.8467    0.0004 C   0  0  0  0  0  0  0  0  0  0  0  0
    1.1992    1.2247    0.0001 C   0  0  0  0  0  0  0  0  0  0  0  0
  1  4  1  0
  2  6  1  0
  3  4  2  0
  3  5  1  0
  3  8  1  0
  4  7  1  0
  5  6  2  0
  6  9  1  0
  7  9  2  0
M  END
>  <PUBCHEM_COMPOUND_CID>  (1) 
7253

>  <PUBCHEM_CONFORMER_RMSD>  (1) 
0.4

>  <PUBCHEM_CONFORMER_DIVERSEORDER>  (1) 
1

>  <PUBCHEM_MMFF94_PARTIAL_CHARGES>  (1) 
14
1 -0.53
10 0.15
11 0.15
15 0.15
16 0.45
17 0.45
2 -0.53
3 -0.14
4 0.08
5 -0.15
6 0.08
7 -0.15
8 0.14
9 -0.15

>  <PUBCHEM_EFFECTIVE_ROTOR_COUNT>  (1) 
0

>  <PUBCHEM_PHARMACOPHORE_FEATURES>  (1) 
3
1 1 donor
1 2 donor
6 3 4 5 6 7 9 rings

>  <PUBCHEM_HEAVY_ATOM_COUNT>  (1) 
9

>  <PUBCHEM_ATOM_DEF_STEREO_COUNT>  (1) 
0

>  <PUBCHEM_ATOM_UDEF_STEREO_COUNT>  (1) 
0

>  <PUBCHEM_BOND_DEF_STEREO_COUNT>  (1) 
0

>  <PUBCHEM_BOND_UDEF_STEREO_COUNT>  (1) 
0

>  <PUBCHEM_ISOTOPIC_ATOM_COUNT>  (1) 
0

>  <PUBCHEM_COMPONENT_COUNT>  (1) 
1

>  <PUBCHEM_CACTVS_TAUTO_COUNT>  (1) 
13

>  <PUBCHEM_CONFORMER_ID>  (1) 
00001C5500000001

>  <PUBCHEM_MMFF94_ENERGY>  (1) 
20.5608

>  <PUBCHEM_FEATURE_SELFOVERLAP>  (1) 
15.223

>  <PUBCHEM_SHAPE_FINGERPRINT>  (1) 
12423570 1 10986713848676931278
16945 1 18338517439154245124
18185500 45 18408039602375628410
21040471 1 18338798888308410977
23235685 24 18340482244889770016
23402655 69 17906714927173122509
23552423 10 18188209922071313790
2748010 2 18339358694409081780
29004967 10 18188782634242929408
5084963 1 18128823116964014370

>  <PUBCHEM_SHAPE_MULTIPOLES>  (1) 
173.48
2.93
1.81
0.6
0.55
0.05
0
-0.56
0
-0.58
0
-0.01
0
0

>  <PUBCHEM_SHAPE_SELFOVERLAP>  (1) 
361.885

>  <PUBCHEM_SHAPE_VOLUME>  (1) 
99.7

>  <PUBCHEM_COORDINATE_TYPE>  (1) 
2
5
10

$$$$
