7262
     RDKit          3D

  9  9  0  0  0  0  0  0  0  0999 V2000
   -2.8694    0.8210    0.0014 Cl  0  0  0  0  0  0  0  0  0  0  0  0
    3.2663   -0.3018    0.0003 Cl  0  0  0  0  0  0  0  0  0  0  0  0
   -1.5812   -1.9366    0.0001 N   0  0  0  0  0  0  0  0  0  0  0  0
   -0.6984   -0.8329   -0.0009 C   0  0  0  0  0  0  0  0  0  0  0  0
   -1.1765    0.4774   -0.0011 C   0  0  0  0  0  0  0  0  0  0  0  0
    0.6754   -1.0741    0.0001 C   0  0  0  0  0  0  0  0  0  0  0  0
    1.5713   -0.0049    0.0006 C   0  0  0  0  0  0  0  0  0  0  0  0
   -0.2807    1.5466   -0.0007 C   0  0  0  0  0  0  0  0  0  0  0  0
    1.0931    1.3054    0.0002 C   0  0  0  0  0  0  0  0  0  0  0  0
  1  5  1  0
  2  7  1  0
  3  4  1  0
  4  5  2  0
  4  6  1  0
  5  8  1  0
  6  7  2  0
  7  9  1  0
  8  9  2  0
M  END
>  <PUBCHEM_COMPOUND_CID>  (1) 
7262

>  <PUBCHEM_CONFORMER_RMSD>  (1) 
0.4

>  <PUBCHEM_CONFORMER_DIVERSEORDER>  (1) 
1

>  <PUBCHEM_MMFF94_PARTIAL_CHARGES>  (1) 
14
1 -0.18
10 0.15
11 0.15
12 0.15
13 0.4
14 0.4
2 -0.18
3 -0.9
4 0.1
5 0.18
6 -0.15
7 0.18
8 -0.15
9 -0.15

>  <PUBCHEM_EFFECTIVE_ROTOR_COUNT>  (1) 
0

>  <PUBCHEM_PHARMACOPHORE_FEATURES>  (1) 
3
1 3 cation
1 3 donor
6 4 5 6 7 8 9 rings

>  <PUBCHEM_HEAVY_ATOM_COUNT>  (1) 
9

>  <PUBCHEM_ATOM_DEF_STEREO_COUNT>  (1) 
0

>  <PUBCHEM_ATOM_UDEF_STEREO_COUNT>  (1) 
0

>  <PUBCHEM_BOND_DEF_STEREO_COUNT>  (1) 
0

>  <PUBCHEM_BOND_UDEF_STEREO_COUNT>  (1) 
0

>  <PUBCHEM_ISOTOPIC_ATOM_COUNT>  (1) 
0

>  <PUBCHEM_COMPONENT_COUNT>  (1) 
1

>  <PUBCHEM_CACTVS_TAUTO_COUNT>  (1) 
1

>  <PUBCHEM_CONFORMER_ID>  (1) 
00001C5E00000001

>  <PUBCHEM_MMFF94_ENERGY>  (1) 
28.8281

>  <PUBCHEM_FEATURE_SELFOVERLAP>  (1) 
15.223

>  <PUBCHEM_SHAPE_FINGERPRINT>  (1) 
14325111 11 18338797810298110369
15310529 11 16588301636047501540
16714656 1 18337955593149824228
16945 1 18410575050408997988
18185500 45 18408038520070217594
193761 8 18050567640310123077
20871998 184 18201440315255091358
21040471 1 18410855425858263109
23235685 24 18340481166868789996
23402655 69 18050831244878001301
23552423 10 18116152349560950388
2748010 2 18267301121851284532
29004967 10 18188500068397338049
5084963 1 18128260171289684130

>  <PUBCHEM_SHAPE_MULTIPOLES>  (1) 
183.97
3.82
1.71
0.62
1.01
0.31
0
-0.15
0
-0.56
0
0.01
-0.02
0

>  <PUBCHEM_SHAPE_SELFOVERLAP>  (1) 
364.444

>  <PUBCHEM_SHAPE_VOLUME>  (1) 
110.6

>  <PUBCHEM_COORDINATE_TYPE>  (1) 
2
5
10

$$$$
