7264
     RDKit          3D

  9  9  0  0  0  0  0  0  0  0999 V2000
   -2.4868    0.8665   -0.0008 O   0  0  0  0  0  0  0  0  0  0  0  0
   -1.7031   -1.8358    0.0003 N   0  0  0  0  0  0  0  0  0  0  0  0
    1.5564   -0.0808    0.0001 C   0  0  0  0  0  0  0  0  0  0  0  0
   -0.7528   -0.7915    0.0000 C   0  0  0  0  0  0  0  0  0  0  0  0
    0.6070   -1.1027   -0.0001 C   0  0  0  0  0  0  0  0  0  0  0  0
    1.1459    1.2523    0.0002 C   0  0  0  0  0  0  0  0  0  0  0  0
   -1.1631    0.5416    0.0004 C   0  0  0  0  0  0  0  0  0  0  0  0
   -0.2138    1.5635    0.0003 C   0  0  0  0  0  0  0  0  0  0  0  0
    3.0102   -0.4130   -0.0004 C   0  0  0  0  0  0  0  0  0  0  0  0
  1  7  1  0
  2  4  1  0
  3  5  2  0
  3  6  1  0
  3  9  1  0
  4  5  1  0
  4  7  2  0
  6  8  2  0
  7  8  1  0
M  END
>  <PUBCHEM_COMPOUND_CID>  (1) 
7264

>  <PUBCHEM_CONFORMER_RMSD>  (1) 
0.4

>  <PUBCHEM_CONFORMER_DIVERSEORDER>  (1) 
1

>  <PUBCHEM_MMFF94_PARTIAL_CHARGES>  (1) 
15
1 -0.53
10 0.15
11 0.15
12 0.15
16 0.4
17 0.4
18 0.45
2 -0.9
3 -0.14
4 0.1
5 -0.15
6 -0.15
7 0.08
8 -0.15
9 0.14

>  <PUBCHEM_EFFECTIVE_ROTOR_COUNT>  (1) 
0

>  <PUBCHEM_PHARMACOPHORE_FEATURES>  (1) 
4
1 1 donor
1 2 cation
1 2 donor
6 3 4 5 6 7 8 rings

>  <PUBCHEM_HEAVY_ATOM_COUNT>  (1) 
9

>  <PUBCHEM_ATOM_DEF_STEREO_COUNT>  (1) 
0

>  <PUBCHEM_ATOM_UDEF_STEREO_COUNT>  (1) 
0

>  <PUBCHEM_BOND_DEF_STEREO_COUNT>  (1) 
0

>  <PUBCHEM_BOND_UDEF_STEREO_COUNT>  (1) 
0

>  <PUBCHEM_ISOTOPIC_ATOM_COUNT>  (1) 
0

>  <PUBCHEM_COMPONENT_COUNT>  (1) 
1

>  <PUBCHEM_CACTVS_TAUTO_COUNT>  (1) 
7

>  <PUBCHEM_CONFORMER_ID>  (1) 
00001C6000000001

>  <PUBCHEM_MMFF94_ENERGY>  (1) 
31.3512

>  <PUBCHEM_FEATURE_SELFOVERLAP>  (1) 
20.301

>  <PUBCHEM_SHAPE_FINGERPRINT>  (1) 
15310529 11 16588587500544059780
16714656 1 18337956679802910892
16945 1 18338517439217581124
18185500 45 18407758127451639290
21040471 1 18338798888324241728
23235685 24 18340482253527177380
23402655 69 17906714931457527309
23552423 10 18188209926434800918
2748010 2 18339358698746266564
29004967 10 18187938217981840312
5084963 1 18200880706780795546

>  <PUBCHEM_SHAPE_MULTIPOLES>  (1) 
174.37
3.15
1.71
0.6
1.02
0.1
0
0.32
0
-0.58
0
0.04
-0.01
0

>  <PUBCHEM_SHAPE_SELFOVERLAP>  (1) 
362.149

>  <PUBCHEM_SHAPE_VOLUME>  (1) 
100.6

>  <PUBCHEM_COORDINATE_TYPE>  (1) 
2
5
10

$$$$
