7268
     RDKit          3D

 10  9  0  0  0  0  0  0  0  0999 V2000
   -1.7225   -0.2716    0.0002 O   0  0  0  0  0  0  0  0  0  0  0  0
    1.7224    0.2715    0.0000 O   0  0  0  0  0  0  0  0  0  0  0  0
   -0.4742    1.6776    0.0004 O   0  0  0  0  0  0  0  0  0  0  0  0
    0.4742   -1.6775    0.0005 O   0  0  0  0  0  0  0  0  0  0  0  0
   -2.9428    0.4754   -0.0003 C   0  0  0  0  0  0  0  0  0  0  0  0
    2.9428   -0.4756   -0.0002 C   0  0  0  0  0  0  0  0  0  0  0  0
   -4.1106   -0.4878   -0.0007 C   0  0  0  0  0  0  0  0  0  0  0  0
    4.1106    0.4878   -0.0006 C   0  0  0  0  0  0  0  0  0  0  0  0
   -0.5948    0.4678    0.0006 C   0  0  0  0  0  0  0  0  0  0  0  0
    0.5948   -0.4677    0.0003 C   0  0  0  0  0  0  0  0  0  0  0  0
  1  5  1  0
  1  9  1  0
  2  6  1  0
  2 10  1  0
  3  9  2  0
  4 10  2  0
  5  7  1  0
  6  8  1  0
  9 10  1  0
M  END
>  <PUBCHEM_COMPOUND_CID>  (1) 
7268

>  <PUBCHEM_CONFORMER_RMSD>  (1) 
0.6

>  <PUBCHEM_CONFORMER_DIVERSEORDER>  (1) 
1
9
2
18
49
40
45
19
54
50
46
11
37
17
6
20
29
21
44
3
43
30
10
5
8
23
15
35
31
22
16
26
25
34
14
39
28
38
51
12
42
48
24
4
52
27
32
47
13
53
41
36
33
7

>  <PUBCHEM_MMFF94_PARTIAL_CHARGES>  (1) 
8
1 -0.43
10 0.72
2 -0.43
3 -0.57
4 -0.57
5 0.28
6 0.28
9 0.72

>  <PUBCHEM_EFFECTIVE_ROTOR_COUNT>  (1) 
5

>  <PUBCHEM_PHARMACOPHORE_FEATURES>  (1) 
2
1 3 acceptor
1 4 acceptor

>  <PUBCHEM_HEAVY_ATOM_COUNT>  (1) 
10

>  <PUBCHEM_ATOM_DEF_STEREO_COUNT>  (1) 
0

>  <PUBCHEM_ATOM_UDEF_STEREO_COUNT>  (1) 
0

>  <PUBCHEM_BOND_DEF_STEREO_COUNT>  (1) 
0

>  <PUBCHEM_BOND_UDEF_STEREO_COUNT>  (1) 
0

>  <PUBCHEM_ISOTOPIC_ATOM_COUNT>  (1) 
0

>  <PUBCHEM_COMPONENT_COUNT>  (1) 
1

>  <PUBCHEM_CACTVS_TAUTO_COUNT>  (1) 
1

>  <PUBCHEM_CONFORMER_ID>  (1) 
00001C6400000001

>  <PUBCHEM_MMFF94_ENERGY>  (1) 
8.2419

>  <PUBCHEM_FEATURE_SELFOVERLAP>  (1) 
10.149

>  <PUBCHEM_SHAPE_FINGERPRINT>  (1) 
10219947 1 18335423464941519117
11062470 55 16660363675286767181
12032990 46 18411425007288740191
12932764 1 16414900959870745743
14325111 11 18410575050614557408
20201158 50 18260551113010988211
21293036 1 18409449202009984612
23235685 24 18408599262431554214
23402539 116 18342166770076436012
23402655 69 18195510525389385861

>  <PUBCHEM_SHAPE_MULTIPOLES>  (1) 
182.32
6.94
1.2
0.58
0
0
0
0
0
0
0
0
0
0

>  <PUBCHEM_SHAPE_SELFOVERLAP>  (1) 
342.143

>  <PUBCHEM_SHAPE_VOLUME>  (1) 
113.4

>  <PUBCHEM_COORDINATE_TYPE>  (1) 
2
5
10

$$$$
