7274
     RDKit          3D

  9  8  0  0  0  0  0  0  0  0999 V2000
    0.3766   -0.1589    0.1468 O   0  0  0  0  0  0  0  0  0  0  0  0
   -0.8586    1.7730   -0.0544 O   0  0  0  0  0  0  0  0  0  0  0  0
   -1.9355   -0.3766   -0.0400 C   0  0  0  0  0  0  0  0  0  0  0  0
    1.5810    0.6122    0.2124 C   0  0  0  0  0  0  0  0  0  0  0  0
   -0.7743    0.5548    0.0128 C   0  0  0  0  0  0  0  0  0  0  0  0
   -1.7226   -1.8566    0.0510 C   0  0  0  0  0  0  0  0  0  0  0  0
    2.7391   -0.3183    0.3577 C   0  0  0  0  0  0  0  0  0  0  0  0
   -3.1547    0.1667   -0.1702 C   0  0  0  0  0  0  0  0  0  0  0  0
    3.7490   -0.3963   -0.5159 C   0  0  0  0  0  0  0  0  0  0  0  0
  1  4  1  0
  1  5  1  0
  2  5  2  0
  3  5  1  0
  3  6  1  0
  3  8  2  0
  4  7  1  0
  7  9  2  0
M  END
>  <PUBCHEM_COMPOUND_CID>  (1) 
7274

>  <PUBCHEM_CONFORMER_RMSD>  (1) 
0.6

>  <PUBCHEM_CONFORMER_DIVERSEORDER>  (1) 
1
21
12
19
9
13
20
17
16
10
5
4
18
7
15
3
11
6
8
2
14

>  <PUBCHEM_MMFF94_PARTIAL_CHARGES>  (1) 
14
1 -0.43
15 0.15
16 0.15
17 0.15
18 0.15
19 0.15
2 -0.57
3 -0.12
4 0.42
5 0.71
6 0.14
7 -0.29
8 -0.3
9 -0.3

>  <PUBCHEM_EFFECTIVE_ROTOR_COUNT>  (1) 
4

>  <PUBCHEM_PHARMACOPHORE_FEATURES>  (1) 
2
1 2 acceptor
1 9 hydrophobe

>  <PUBCHEM_HEAVY_ATOM_COUNT>  (1) 
9

>  <PUBCHEM_ATOM_DEF_STEREO_COUNT>  (1) 
0

>  <PUBCHEM_ATOM_UDEF_STEREO_COUNT>  (1) 
0

>  <PUBCHEM_BOND_DEF_STEREO_COUNT>  (1) 
0

>  <PUBCHEM_BOND_UDEF_STEREO_COUNT>  (1) 
0

>  <PUBCHEM_ISOTOPIC_ATOM_COUNT>  (1) 
0

>  <PUBCHEM_COMPONENT_COUNT>  (1) 
1

>  <PUBCHEM_CACTVS_TAUTO_COUNT>  (1) 
1

>  <PUBCHEM_CONFORMER_ID>  (1) 
00001C6A00000001

>  <PUBCHEM_MMFF94_ENERGY>  (1) 
11.1678

>  <PUBCHEM_FEATURE_SELFOVERLAP>  (1) 
10.148

>  <PUBCHEM_SHAPE_FINGERPRINT>  (1) 
12897270 3 18408321094732642314
12932764 1 17531515555578577856
14128692 85 18189057662499959548
14325111 11 18411698807311626856
15310529 11 16153695497361598355
18342897 69 18409724045831574906
20201158 50 18202567259002523590
20281407 28 18272091612672889514
20871998 184 18201159952796333607
23402539 116 15339116811215092033
23552423 10 18115304625821628416

>  <PUBCHEM_SHAPE_MULTIPOLES>  (1) 
173.48
5.57
1.4
0.65
3.6
0.15
0.01
1.06
0.66
-0.81
-0.01
0.16
0.03
0.12

>  <PUBCHEM_SHAPE_SELFOVERLAP>  (1) 
325.847

>  <PUBCHEM_SHAPE_VOLUME>  (1) 
108.5

>  <PUBCHEM_COORDINATE_TYPE>  (1) 
2
5
10

$$$$
