7279
     RDKit          3D

  6  5  0  0  0  0  0  0  0  0999 V2000
   -0.0003   -1.7496    0.3023 Br  0  0  0  0  0  0  0  0  0  0  0  0
    2.8688   -0.0162   -0.3781 Br  0  0  0  0  0  0  0  0  0  0  0  0
   -2.8686   -0.0161   -0.3782 Br  0  0  0  0  0  0  0  0  0  0  0  0
    0.0001    0.1523   -0.2213 C   0  0  0  0  0  0  0  0  0  0  0  0
    1.2524    0.8147    0.3377 C   0  0  0  0  0  0  0  0  0  0  0  0
   -1.2523    0.8150    0.3377 C   0  0  0  0  0  0  0  0  0  0  0  0
  1  4  1  0
  2  5  1  0
  3  6  1  0
  4  5  1  0
  4  6  1  0
M  END
>  <PUBCHEM_COMPOUND_CID>  (1) 
7279

>  <PUBCHEM_CONFORMER_RMSD>  (1) 
0.4

>  <PUBCHEM_CONFORMER_DIVERSEORDER>  (1) 
1
7
3
4
6
5
2

>  <PUBCHEM_MMFF94_PARTIAL_CHARGES>  (1) 
6
1 -0.23
2 -0.23
3 -0.23
4 0.23
5 0.23
6 0.23

>  <PUBCHEM_EFFECTIVE_ROTOR_COUNT>  (1) 
2

>  <PUBCHEM_PHARMACOPHORE_FEATURES>  (1) 
3
1 1 hydrophobe
1 2 hydrophobe
1 3 hydrophobe

>  <PUBCHEM_HEAVY_ATOM_COUNT>  (1) 
6

>  <PUBCHEM_ATOM_DEF_STEREO_COUNT>  (1) 
0

>  <PUBCHEM_ATOM_UDEF_STEREO_COUNT>  (1) 
0

>  <PUBCHEM_BOND_DEF_STEREO_COUNT>  (1) 
0

>  <PUBCHEM_BOND_UDEF_STEREO_COUNT>  (1) 
0

>  <PUBCHEM_ISOTOPIC_ATOM_COUNT>  (1) 
0

>  <PUBCHEM_COMPONENT_COUNT>  (1) 
1

>  <PUBCHEM_CACTVS_TAUTO_COUNT>  (1) 
1

>  <PUBCHEM_CONFORMER_ID>  (1) 
00001C6F00000001

>  <PUBCHEM_MMFF94_ENERGY>  (1) 
8.3301

>  <PUBCHEM_FEATURE_SELFOVERLAP>  (1) 
15.223

>  <PUBCHEM_SHAPE_FINGERPRINT>  (1) 
14325111 11 18410012139025886348
16714656 1 18260832617693591812
21040471 1 18336261331461890882
21293036 1 18334859441320204996
23235685 24 18334011696522706317
23552423 10 18048037371970480111
5084963 1 18344146994454656249
528862 383 17750222622048356258
5460574 1 10809343343050545140

>  <PUBCHEM_SHAPE_MULTIPOLES>  (1) 
141.3
4.23
1.45
0.79
0
0.8
0.03
-0.59
0.93
0
-0.21
0
0.01
0

>  <PUBCHEM_SHAPE_SELFOVERLAP>  (1) 
210.967

>  <PUBCHEM_SHAPE_VOLUME>  (1) 
106.5

>  <PUBCHEM_COORDINATE_TYPE>  (1) 
2
5
10

$$$$
