728
     RDKit          3D

 11 11  0  0  1  0  0  0  0  0999 V2000
    0.5017    1.8782    1.6767 Cl  0  0  0  0  0  0  0  0  0  0  0  0
    2.9564    0.7897   -0.2786 Cl  0  0  0  0  0  0  0  0  0  0  0  0
   -1.6031    0.9581   -1.9883 Cl  0  0  0  0  0  0  0  0  0  0  0  0
    1.7792   -2.4320   -0.4677 Cl  0  0  0  0  0  0  0  0  0  0  0  0
   -3.0852   -0.8898    0.5852 Cl  0  0  0  0  0  0  0  0  0  0  0  0
    0.2732    1.3783   -0.0418 C   0  0  0  0  0  0  0  0  0  0  0  0
    1.2513    0.2536   -0.4391 C   0  0  0  0  0  0  0  0  0  0  0  0
   -1.1882    0.9231   -0.2374 C   0  0  0  0  0  0  0  0  0  0  0  0
    1.0047   -1.0413    0.3591 C   0  0  0  0  0  0  0  0  0  0  0  0
   -1.4338   -0.4711    0.2760 C   0  0  0  0  0  0  0  0  0  0  0  0
   -0.4561   -1.3470    0.5559 C   0  0  0  0  0  0  0  0  0  0  0  0
  1  6  1  0
  2  7  1  0
  3  8  1  0
  4  9  1  0
  5 10  1  0
  6  7  1  0
  6  8  1  0
  7  9  1  0
  8 10  1  0
  9 11  1  0
 10 11  2  0
M  END
>  <PUBCHEM_COMPOUND_CID>  (1) 
728

>  <PUBCHEM_CONFORMER_RMSD>  (1) 
0.4

>  <PUBCHEM_CONFORMER_DIVERSEORDER>  (1) 
1
13
22
19
15
10
16
21
24
5
11
14
17
9
23
2
6
3
7
18
8
20
4
12

>  <PUBCHEM_MMFF94_PARTIAL_CHARGES>  (1) 
11
1 -0.29
11 -0.29
16 0.15
2 -0.29
3 -0.29
4 -0.29
5 -0.14
6 0.29
7 0.29
8 0.43
9 0.43

>  <PUBCHEM_EFFECTIVE_ROTOR_COUNT>  (1) 
0.8

>  <PUBCHEM_PHARMACOPHORE_FEATURES>  (1) 
1
6 6 7 8 9 10 11 rings

>  <PUBCHEM_HEAVY_ATOM_COUNT>  (1) 
11

>  <PUBCHEM_ATOM_DEF_STEREO_COUNT>  (1) 
0

>  <PUBCHEM_ATOM_UDEF_STEREO_COUNT>  (1) 
4

>  <PUBCHEM_BOND_DEF_STEREO_COUNT>  (1) 
0

>  <PUBCHEM_BOND_UDEF_STEREO_COUNT>  (1) 
0

>  <PUBCHEM_ISOTOPIC_ATOM_COUNT>  (1) 
0

>  <PUBCHEM_COMPONENT_COUNT>  (1) 
1

>  <PUBCHEM_CACTVS_TAUTO_COUNT>  (1) 
1

>  <PUBCHEM_CONFORMER_ID>  (1) 
000002D800000001

>  <PUBCHEM_MMFF94_ENERGY>  (1) 
12.9426

>  <PUBCHEM_FEATURE_SELFOVERLAP>  (1) 
5.074

>  <PUBCHEM_SHAPE_FINGERPRINT>  (1) 
12423570 1 17895206531314812164
13380535 239 18114184094613447631
14761567 1 17683795515239302551
15501101 241 18336560416253070571
161256 15 18260840267056999055
16945 1 18191893277255074251
18185500 45 16174229667315985133
20588541 1 18262530310796878067
20711978 78 18272645762174946367
21061003 4 18271811262861670032
22344851 341 18115024087100491402
23419403 2 16173893397294374176
23552423 10 18115881702028351610
241688 4 17973457507096015858
2748010 2 18261109608597942439
5084963 1 18115865368093385344
5255222 1 18338229500188560939
528886 8 17970352743746243417
53812653 11 18054236697816611686
53812653 166 18269278022304158673
68250623 7 17626979419899055136

>  <PUBCHEM_SHAPE_MULTIPOLES>  (1) 
235.72
3.5
2.27
1.41
0.37
0.7
-0.31
0.65
-0.27
-0.95
0.29
0.53
-0.73
0.73

>  <PUBCHEM_SHAPE_SELFOVERLAP>  (1) 
426.105

>  <PUBCHEM_SHAPE_VOLUME>  (1) 
149.8

>  <PUBCHEM_COORDINATE_TYPE>  (1) 
2
5
10

$$$$
