7285
     RDKit          3D

  6  5  0  0  0  0  0  0  0  0999 V2000
    1.3390   -1.7023    0.1748 Cl  0  0  0  0  0  0  0  0  0  0  0  0
   -2.4412    0.4305   -0.0577 Cl  0  0  0  0  0  0  0  0  0  0  0  0
    1.3860    1.6281    0.5961 Cl  0  0  0  0  0  0  0  0  0  0  0  0
    0.0797   -0.5852   -0.4534 C   0  0  0  0  0  0  0  0  0  0  0  0
   -1.0745   -0.5364    0.5490 C   0  0  0  0  0  0  0  0  0  0  0  0
    0.7110    0.7653   -0.8088 C   0  0  0  0  0  0  0  0  0  0  0  0
  1  4  1  0
  2  5  1  0
  3  6  1  0
  4  5  1  0
  4  6  1  0
M  END
>  <PUBCHEM_COMPOUND_CID>  (1) 
7285

>  <PUBCHEM_CONFORMER_RMSD>  (1) 
0.4

>  <PUBCHEM_CONFORMER_DIVERSEORDER>  (1) 
1
7
9
3
2
8
4
5
6

>  <PUBCHEM_MMFF94_PARTIAL_CHARGES>  (1) 
6
1 -0.29
2 -0.29
3 -0.29
4 0.29
5 0.29
6 0.29

>  <PUBCHEM_EFFECTIVE_ROTOR_COUNT>  (1) 
2

>  <PUBCHEM_PHARMACOPHORE_FEATURES>  (1) 
0

>  <PUBCHEM_HEAVY_ATOM_COUNT>  (1) 
6

>  <PUBCHEM_ATOM_DEF_STEREO_COUNT>  (1) 
0

>  <PUBCHEM_ATOM_UDEF_STEREO_COUNT>  (1) 
0

>  <PUBCHEM_BOND_DEF_STEREO_COUNT>  (1) 
0

>  <PUBCHEM_BOND_UDEF_STEREO_COUNT>  (1) 
0

>  <PUBCHEM_ISOTOPIC_ATOM_COUNT>  (1) 
0

>  <PUBCHEM_COMPONENT_COUNT>  (1) 
1

>  <PUBCHEM_CACTVS_TAUTO_COUNT>  (1) 
1

>  <PUBCHEM_CONFORMER_ID>  (1) 
00001C7500000001

>  <PUBCHEM_MMFF94_ENERGY>  (1) 
4.6507

>  <PUBCHEM_FEATURE_SELFOVERLAP>  (1) 
0

>  <PUBCHEM_SHAPE_FINGERPRINT>  (1) 
137420 1 13516407946223078870
20096714 4 18199759196319888805
21040471 1 18120945167743217916
23552449 1 17476069134268562378
23552449 11 18338228267728106411
24536 1 17531537593282562039
29004967 10 18192434069430374771
5084963 1 17910135811860532197
5943 1 12713072087922936926

>  <PUBCHEM_SHAPE_MULTIPOLES>  (1) 
129.09
2.58
1.83
0.89
1.82
0
-0.04
-0.33
0.22
-1.28
0.27
-0.11
-0.12
0.14

>  <PUBCHEM_SHAPE_SELFOVERLAP>  (1) 
201.654

>  <PUBCHEM_SHAPE_VOLUME>  (1) 
93.1

>  <PUBCHEM_COORDINATE_TYPE>  (1) 
2
5
10

$$$$
