7295
     RDKit          3D

  6  5  0  0  0  0  0  0  0  0999 V2000
   -2.6216   -0.1033   -0.0110 Cl  0  0  0  0  0  0  0  0  0  0  0  0
    1.2036    0.6847   -0.0021 O   0  0  0  0  0  0  0  0  0  0  0  0
    0.0341   -1.3013    0.0059 O   0  0  0  0  0  0  0  0  0  0  0  0
   -1.1220    0.8404    0.0096 C   0  0  0  0  0  0  0  0  0  0  0  0
    0.0691   -0.0787    0.0040 C   0  0  0  0  0  0  0  0  0  0  0  0
    2.4368   -0.0419   -0.0065 C   0  0  0  0  0  0  0  0  0  0  0  0
  1  4  1  0
  2  5  1  0
  2  6  1  0
  3  5  2  0
  4  5  1  0
M  END
>  <PUBCHEM_COMPOUND_CID>  (1) 
7295

>  <PUBCHEM_CONFORMER_RMSD>  (1) 
0.4

>  <PUBCHEM_CONFORMER_DIVERSEORDER>  (1) 
1
5
4
2
3

>  <PUBCHEM_MMFF94_PARTIAL_CHARGES>  (1) 
6
1 -0.29
2 -0.43
3 -0.57
4 0.35
5 0.66
6 0.28

>  <PUBCHEM_EFFECTIVE_ROTOR_COUNT>  (1) 
2

>  <PUBCHEM_PHARMACOPHORE_FEATURES>  (1) 
1
1 3 acceptor

>  <PUBCHEM_HEAVY_ATOM_COUNT>  (1) 
6

>  <PUBCHEM_ATOM_DEF_STEREO_COUNT>  (1) 
0

>  <PUBCHEM_ATOM_UDEF_STEREO_COUNT>  (1) 
0

>  <PUBCHEM_BOND_DEF_STEREO_COUNT>  (1) 
0

>  <PUBCHEM_BOND_UDEF_STEREO_COUNT>  (1) 
0

>  <PUBCHEM_ISOTOPIC_ATOM_COUNT>  (1) 
0

>  <PUBCHEM_COMPONENT_COUNT>  (1) 
1

>  <PUBCHEM_CACTVS_TAUTO_COUNT>  (1) 
1

>  <PUBCHEM_CONFORMER_ID>  (1) 
00001C7F00000001

>  <PUBCHEM_MMFF94_ENERGY>  (1) 
5.7858

>  <PUBCHEM_FEATURE_SELFOVERLAP>  (1) 
5.074

>  <PUBCHEM_SHAPE_FINGERPRINT>  (1) 
16714656 1 18409168830802965237
20096714 4 18410292523202236080
21040471 1 18410574006726520898
29004967 10 18261119560369424681
5460574 1 9223232944375948032

>  <PUBCHEM_SHAPE_MULTIPOLES>  (1) 
113.61
3.43
1
0.59
0.18
0.15
0
-0.05
-0.02
0.06
0
0.04
-0.01
0

>  <PUBCHEM_SHAPE_SELFOVERLAP>  (1) 
195.747

>  <PUBCHEM_SHAPE_VOLUME>  (1) 
77

>  <PUBCHEM_COORDINATE_TYPE>  (1) 
2
5
10

$$$$
