7297
     RDKit          3D

  6  6  0  0  1  0  0  0  0  0999 V2000
    2.0942    0.0016   -0.6083 Cl  0  0  0  0  0  0  0  0  0  0  0  0
   -0.1464    1.1980    0.4222 C   0  0  0  0  0  0  0  0  0  0  0  0
    0.7782   -0.0117    0.5860 C   0  0  0  0  0  0  0  0  0  0  0  0
   -1.3065    0.7241   -0.4559 C   0  0  0  0  0  0  0  0  0  0  0  0
   -0.1388   -1.1574    0.3117 C   0  0  0  0  0  0  0  0  0  0  0  0
   -1.2806   -0.7547   -0.2557 C   0  0  0  0  0  0  0  0  0  0  0  0
  1  3  1  0
  2  3  1  0
  2  4  1  0
  3  5  1  0
  4  6  1  0
  5  6  2  0
M  END
>  <PUBCHEM_COMPOUND_CID>  (1) 
7297

>  <PUBCHEM_CONFORMER_RMSD>  (1) 
0.4

>  <PUBCHEM_CONFORMER_DIVERSEORDER>  (1) 
1

>  <PUBCHEM_MMFF94_PARTIAL_CHARGES>  (1) 
7
1 -0.29
12 0.15
13 0.15
3 0.43
4 0.14
5 -0.29
6 -0.29

>  <PUBCHEM_EFFECTIVE_ROTOR_COUNT>  (1) 
0.6

>  <PUBCHEM_PHARMACOPHORE_FEATURES>  (1) 
1
5 2 3 4 5 6 rings

>  <PUBCHEM_HEAVY_ATOM_COUNT>  (1) 
6

>  <PUBCHEM_ATOM_DEF_STEREO_COUNT>  (1) 
0

>  <PUBCHEM_ATOM_UDEF_STEREO_COUNT>  (1) 
1

>  <PUBCHEM_BOND_DEF_STEREO_COUNT>  (1) 
0

>  <PUBCHEM_BOND_UDEF_STEREO_COUNT>  (1) 
0

>  <PUBCHEM_ISOTOPIC_ATOM_COUNT>  (1) 
0

>  <PUBCHEM_COMPONENT_COUNT>  (1) 
1

>  <PUBCHEM_CACTVS_TAUTO_COUNT>  (1) 
1

>  <PUBCHEM_CONFORMER_ID>  (1) 
00001C8100000001

>  <PUBCHEM_MMFF94_ENERGY>  (1) 
5.2562

>  <PUBCHEM_FEATURE_SELFOVERLAP>  (1) 
5.074

>  <PUBCHEM_SHAPE_FINGERPRINT>  (1) 
16714656 1 18410018740374646695
20096714 4 18041279842357280580
21015797 1 8788874247541041883
21040471 1 18194385706964637385
29004967 10 16630525158939468874
5943 1 17042107669899456312

>  <PUBCHEM_SHAPE_MULTIPOLES>  (1) 
125.35
2.06
1.26
0.84
0.94
0.02
-0.01
0
-0.59
-0.31
0.1
0.11
0.03
0.02

>  <PUBCHEM_SHAPE_SELFOVERLAP>  (1) 
238.107

>  <PUBCHEM_SHAPE_VOLUME>  (1) 
77.9

>  <PUBCHEM_COORDINATE_TYPE>  (1) 
2
5
10

$$$$
