7299
     RDKit          3D

  6  6  0  0  0  0  0  0  0  0999 V2000
    2.4766   -0.0225   -0.0001 Cl  0  0  0  0  0  0  0  0  0  0  0  0
   -0.1193    1.4194    0.0001 S   0  0  0  0  0  0  0  0  0  0  0  0
   -0.0648   -1.1492    0.0001 C   0  0  0  0  0  0  0  0  0  0  0  0
   -1.4418   -0.7831   -0.0001 C   0  0  0  0  0  0  0  0  0  0  0  0
    0.7631   -0.0482    0.0001 C   0  0  0  0  0  0  0  0  0  0  0  0
   -1.6138    0.5836   -0.0001 C   0  0  0  0  0  0  0  0  0  0  0  0
  1  5  1  0
  2  5  1  0
  2  6  1  0
  3  4  1  0
  3  5  2  0
  4  6  2  0
M  END
>  <PUBCHEM_COMPOUND_CID>  (1) 
7299

>  <PUBCHEM_CONFORMER_RMSD>  (1) 
0.4

>  <PUBCHEM_CONFORMER_DIVERSEORDER>  (1) 
1

>  <PUBCHEM_MMFF94_PARTIAL_CHARGES>  (1) 
9
1 -0.12
2 -0.08
3 -0.15
4 -0.15
5 0.16
6 -0.11
7 0.15
8 0.15
9 0.15

>  <PUBCHEM_EFFECTIVE_ROTOR_COUNT>  (1) 
0

>  <PUBCHEM_PHARMACOPHORE_FEATURES>  (1) 
1
5 2 3 4 5 6 rings

>  <PUBCHEM_HEAVY_ATOM_COUNT>  (1) 
6

>  <PUBCHEM_ATOM_DEF_STEREO_COUNT>  (1) 
0

>  <PUBCHEM_ATOM_UDEF_STEREO_COUNT>  (1) 
0

>  <PUBCHEM_BOND_DEF_STEREO_COUNT>  (1) 
0

>  <PUBCHEM_BOND_UDEF_STEREO_COUNT>  (1) 
0

>  <PUBCHEM_ISOTOPIC_ATOM_COUNT>  (1) 
0

>  <PUBCHEM_COMPONENT_COUNT>  (1) 
1

>  <PUBCHEM_CACTVS_TAUTO_COUNT>  (1) 
1

>  <PUBCHEM_CONFORMER_ID>  (1) 
00001C8300000001

>  <PUBCHEM_MMFF94_ENERGY>  (1) 
2.1549

>  <PUBCHEM_FEATURE_SELFOVERLAP>  (1) 
5.074

>  <PUBCHEM_SHAPE_FINGERPRINT>  (1) 
16714656 1 18411140225223933532
20096714 4 18338235946944794360
21040471 1 18194682566366515685
23552423 10 18260553286227646518
29004967 10 18337398226532581602

>  <PUBCHEM_SHAPE_MULTIPOLES>  (1) 
129.2
2.54
1.38
0.64
1.42
0.21
0
-0.09
0
-0.3
0
0.01
0.02
0

>  <PUBCHEM_SHAPE_SELFOVERLAP>  (1) 
240.445

>  <PUBCHEM_SHAPE_VOLUME>  (1) 
82.2

>  <PUBCHEM_COORDINATE_TYPE>  (1) 
2
5
10

$$$$
