7301
     RDKit          3D

  6  6  0  0  1  0  0  0  0  0999 V2000
    0.0415   -1.1448   -0.0970 O   0  0  0  0  0  0  0  0  0  0  0  0
    0.7503    0.0700   -0.3949 C   0  0  0  0  0  0  0  0  0  0  0  0
   -0.1118    1.2035    0.1334 C   0  0  0  0  0  0  0  0  0  0  0  0
   -1.4989    0.6575   -0.0951 C   0  0  0  0  0  0  0  0  0  0  0  0
   -1.3153   -0.8097    0.2306 C   0  0  0  0  0  0  0  0  0  0  0  0
    2.1342    0.0235    0.2230 C   0  0  0  0  0  0  0  0  0  0  0  0
  1  2  1  0
  1  5  1  0
  2  3  1  0
  2  6  1  0
  3  4  1  0
  4  5  1  0
M  END
>  <PUBCHEM_COMPOUND_CID>  (1) 
7301

>  <PUBCHEM_CONFORMER_RMSD>  (1) 
0.4

>  <PUBCHEM_CONFORMER_DIVERSEORDER>  (1) 
2
1

>  <PUBCHEM_MMFF94_PARTIAL_CHARGES>  (1) 
3
1 -0.56
2 0.28
5 0.28

>  <PUBCHEM_EFFECTIVE_ROTOR_COUNT>  (1) 
1

>  <PUBCHEM_PHARMACOPHORE_FEATURES>  (1) 
2
1 1 acceptor
5 1 2 3 4 5 rings

>  <PUBCHEM_HEAVY_ATOM_COUNT>  (1) 
6

>  <PUBCHEM_ATOM_DEF_STEREO_COUNT>  (1) 
0

>  <PUBCHEM_ATOM_UDEF_STEREO_COUNT>  (1) 
1

>  <PUBCHEM_BOND_DEF_STEREO_COUNT>  (1) 
0

>  <PUBCHEM_BOND_UDEF_STEREO_COUNT>  (1) 
0

>  <PUBCHEM_ISOTOPIC_ATOM_COUNT>  (1) 
0

>  <PUBCHEM_COMPONENT_COUNT>  (1) 
1

>  <PUBCHEM_CACTVS_TAUTO_COUNT>  (1) 
1

>  <PUBCHEM_CONFORMER_ID>  (1) 
00001C8500000002

>  <PUBCHEM_MMFF94_ENERGY>  (1) 
7.2693

>  <PUBCHEM_FEATURE_SELFOVERLAP>  (1) 
10.148

>  <PUBCHEM_SHAPE_FINGERPRINT>  (1) 
139733 1 9583255923646881408
16714656 1 18410581690560202588
20096714 4 18268149755801822248
21015797 1 9221500097002507765
21040471 1 18193844747154139781
23552423 10 18187653474883293814
29004967 10 18341057401145372091
5943 1 13151004734413797965

>  <PUBCHEM_SHAPE_MULTIPOLES>  (1) 
117.61
2.19
1.21
0.65
0.79
0.03
0
-0.04
0.17
-0.29
0.04
0.02
0.01
0.05

>  <PUBCHEM_SHAPE_SELFOVERLAP>  (1) 
223.897

>  <PUBCHEM_SHAPE_VOLUME>  (1) 
74.8

>  <PUBCHEM_COORDINATE_TYPE>  (1) 
2
5
10

$$$$
