7306
     RDKit          3D

 25 26  0  0  0  0  0  0  0  0999 V2000
    0.0095   -0.0609   -2.7570 S   0  0  0  0  0  0  0  0  0  0  0  0
    4.4985    0.9278    0.9988 O   0  0  0  0  0  0  0  0  0  0  0  0
   -4.4991   -0.9005    1.0114 O   0  0  0  0  0  0  0  0  0  0  0  0
    3.1424   -1.5649    1.1704 C   0  0  0  0  0  0  0  0  0  0  0  0
   -3.1438    1.5972    1.0912 C   0  0  0  0  0  0  0  0  0  0  0  0
    2.7586   -0.4695    0.1464 C   0  0  0  0  0  0  0  0  0  0  0  0
   -2.7683    0.5021    0.1479 C   0  0  0  0  0  0  0  0  0  0  0  0
    2.2149   -2.7879    1.0019 C   0  0  0  0  0  0  0  0  0  0  0  0
    3.0060   -1.0118    2.6056 C   0  0  0  0  0  0  0  0  0  0  0  0
    4.5940   -2.0681    1.0117 C   0  0  0  0  0  0  0  0  0  0  0  0
   -2.2288    2.8526    0.9137 C   0  0  0  0  0  0  0  0  0  0  0  0
   -3.0286    1.1414    2.5824 C   0  0  0  0  0  0  0  0  0  0  0  0
   -4.6082    2.1335    0.9395 C   0  0  0  0  0  0  0  0  0  0  0  0
    3.4673    0.7003    0.1357 C   0  0  0  0  0  0  0  0  0  0  0  0
   -3.4633   -0.7073    0.1455 C   0  0  0  0  0  0  0  0  0  0  0  0
    1.7169   -0.7401   -0.6999 C   0  0  0  0  0  0  0  0  0  0  0  0
   -1.7086    0.6991   -0.7374 C   0  0  0  0  0  0  0  0  0  0  0  0
    1.3568    0.2363   -1.6288 C   0  0  0  0  0  0  0  0  0  0  0  0
   -1.3471   -0.3138   -1.6221 C   0  0  0  0  0  0  0  0  0  0  0  0
    3.1073    1.6766   -0.7933 C   0  0  0  0  0  0  0  0  0  0  0  0
   -3.0986   -1.7195   -0.7423 C   0  0  0  0  0  0  0  0  0  0  0  0
    2.0520    1.4446   -1.6755 C   0  0  0  0  0  0  0  0  0  0  0  0
   -2.0387   -1.5226   -1.6274 C   0  0  0  0  0  0  0  0  0  0  0  0
    3.8399    2.9763   -0.8585 C   0  0  0  0  0  0  0  0  0  0  0  0
   -3.8311   -3.0208   -0.7598 C   0  0  0  0  0  0  0  0  0  0  0  0
  1 18  1  0
  1 19  1  0
  2 14  1  0
  3 15  1  0
  4  6  1  0
  4  8  1  0
  4  9  1  0
  4 10  1  0
  5  7  1  0
  5 11  1  0
  5 12  1  0
  5 13  1  0
  6 14  2  0
  6 16  1  0
  7 15  2  0
  7 17  1  0
 14 20  1  0
 15 21  1  0
 16 18  2  0
 17 19  2  0
 18 22  1  0
 19 23  1  0
 20 22  2  0
 20 24  1  0
 21 23  2  0
 21 25  1  0
M  END
>  <PUBCHEM_COMPOUND_CID>  (1) 
7306

>  <PUBCHEM_CONFORMER_RMSD>  (1) 
0.8

>  <PUBCHEM_CONFORMER_DIVERSEORDER>  (1) 
1
22
7
26
28
6
23
2
27
20
21
19
8
11
25
14
12
16
9
18
4
17
13
10
15
3
24
5

>  <PUBCHEM_MMFF94_PARTIAL_CHARGES>  (1) 
25
1 -0.2
14 0.08
15 0.08
16 -0.15
17 -0.15
18 0.1
19 0.1
2 -0.53
20 -0.14
21 -0.14
22 -0.15
23 -0.15
24 0.14
25 0.14
3 -0.53
4 0.14
44 0.15
45 0.15
46 0.15
47 0.15
5 0.14
54 0.45
55 0.45
6 -0.14
7 -0.14

>  <PUBCHEM_EFFECTIVE_ROTOR_COUNT>  (1) 
4

>  <PUBCHEM_PHARMACOPHORE_FEATURES>  (1) 
6
1 2 donor
1 3 donor
4 4 8 9 10 hydrophobe
4 5 11 12 13 hydrophobe
6 6 14 16 18 20 22 rings
6 7 15 17 19 21 23 rings

>  <PUBCHEM_HEAVY_ATOM_COUNT>  (1) 
25

>  <PUBCHEM_ATOM_DEF_STEREO_COUNT>  (1) 
0

>  <PUBCHEM_ATOM_UDEF_STEREO_COUNT>  (1) 
0

>  <PUBCHEM_BOND_DEF_STEREO_COUNT>  (1) 
0

>  <PUBCHEM_BOND_UDEF_STEREO_COUNT>  (1) 
0

>  <PUBCHEM_ISOTOPIC_ATOM_COUNT>  (1) 
0

>  <PUBCHEM_COMPONENT_COUNT>  (1) 
1

>  <PUBCHEM_CACTVS_TAUTO_COUNT>  (1) 
5

>  <PUBCHEM_CONFORMER_ID>  (1) 
00001C8A00000001

>  <PUBCHEM_MMFF94_ENERGY>  (1) 
99.9068

>  <PUBCHEM_FEATURE_SELFOVERLAP>  (1) 
30.446

>  <PUBCHEM_SHAPE_FINGERPRINT>  (1) 
10369192 42 13754957173537614890
10498660 4 16272206379710390257
11552529 35 18269538559326708190
11578080 2 18043789044199615141
11595378 159 18131067181657637487
12363563 72 15357694201614623663
12596599 1 18261379010559214746
12596602 18 18266741478969771430
12633257 1 18338516318099079373
12788726 201 18129382764705036423
13103583 49 18266172838638603794
13533116 47 17967543380432498809
13583140 156 18341032090903577468
13726171 33 17487921066310099912
13965767 371 18268161867647144277
14341114 328 18268436895829963837
14468879 13 16630242511784761591
14739800 52 17915445306989551064
14787075 74 17690561205221208813
14957384 54 17274524474036480488
15484559 13 11110613029850218313
15635459 17 16081084904703927032
17138139 8 17326887881864865030
173720 79 18410579440820415261
18981168 100 15841549656568256615
19315092 285 17825921948652353883
20600515 1 16190626791553286343
20603629 256 18114175350497752732
20693207 138 13623822651898025319
20715895 44 17908425749927907617
21033648 29 17625238833084712656
21065198 48 18410293639751146174
21427221 339 18340207380136584486
21591340 35 15974994913463196857
22907989 373 12602842633034863136
23503958 25 16630531760108939771
23536364 44 9606425133975231535
23559900 14 17630343938755426935
23598288 3 18201430389912575247
238918 7 16963507556760349237
312423 11 18409450305954054726
341906 21 17775286053895929453
3633792 109 18189034470373140887
3737641 26 17755015307735873706
3797600 57 18056763345593750388
392239 28 17834679679010323306
469060 322 18043525229764532365
5252454 2 15984839167367573383
6287921 2 18410571760623019402
7097593 13 18337108943373820654
7808743 9 16845006952510570732
9981440 41 16701166474895976495

>  <PUBCHEM_SHAPE_MULTIPOLES>  (1) 
506.6
9.75
3.21
2.42
0.05
0.04
-0.1
0.14
-4.25
0.22
-0.39
-0.13
-0.01
-3.56

>  <PUBCHEM_SHAPE_SELFOVERLAP>  (1) 
1057.964

>  <PUBCHEM_SHAPE_VOLUME>  (1) 
293.9

>  <PUBCHEM_COORDINATE_TYPE>  (1) 
2
5
10

$$$$
