7310
     RDKit          3D

 14 14  0  0  0  0  0  0  0  0999 V2000
   -2.3129   -2.2604   -0.0110 Cl  0  0  0  0  0  0  0  0  0  0  0  0
   -2.2123    0.9723   -0.0855 S   0  0  0  0  0  0  0  0  0  0  0  0
   -2.8879    0.7984    1.3913 O   0  0  0  0  0  0  0  0  0  0  0  0
   -1.8031    2.3620   -0.2082 O   0  0  0  0  0  0  0  0  0  0  0  0
   -3.0972    0.3656   -1.0651 O   0  0  0  0  0  0  0  0  0  0  0  0
    3.9577   -0.1197    0.0332 O   0  0  0  0  0  0  0  0  0  0  0  0
    2.9319    1.8202   -0.0282 O   0  0  0  0  0  0  0  0  0  0  0  0
    2.9071    0.5658    0.0014 N   0  0  0  0  0  0  0  0  0  0  0  0
   -0.7621   -0.0099   -0.0399 C   0  0  0  0  0  0  0  0  0  0  0  0
    0.4707    0.6429   -0.0368 C   0  0  0  0  0  0  0  0  0  0  0  0
    1.6521   -0.0980   -0.0015 C   0  0  0  0  0  0  0  0  0  0  0  0
   -0.8133   -1.4035   -0.0078 C   0  0  0  0  0  0  0  0  0  0  0  0
    0.3683   -2.1442    0.0274 C   0  0  0  0  0  0  0  0  0  0  0  0
    1.6009   -1.4914    0.0307 C   0  0  0  0  0  0  0  0  0  0  0  0
  1 12  1  0
  2  3  1  0
  2  4  2  0
  2  5  2  0
  2  9  1  0
  6  8  1  0
  7  8  2  0
  8 11  1  0
  9 10  2  0
  9 12  1  0
 10 11  1  0
 11 14  2  0
 12 13  2  0
 13 14  1  0
M  CHG  2   6  -1   8   1
M  END
>  <PUBCHEM_COMPOUND_CID>  (1) 
7310

>  <PUBCHEM_CONFORMER_RMSD>  (1) 
0.6

>  <PUBCHEM_CONFORMER_DIVERSEORDER>  (1) 
1
2

>  <PUBCHEM_MMFF94_PARTIAL_CHARGES>  (1) 
18
1 -0.18
10 -0.15
11 0.13
12 0.18
13 -0.15
14 -0.15
15 0.15
16 0.15
17 0.15
18 0.5
2 1.49
3 -0.68
4 -0.65
5 -0.65
6 -0.52
7 -0.52
8 0.91
9 -0.01

>  <PUBCHEM_EFFECTIVE_ROTOR_COUNT>  (1) 
2

>  <PUBCHEM_PHARMACOPHORE_FEATURES>  (1) 
8
1 3 acceptor
1 4 acceptor
1 5 acceptor
1 6 acceptor
1 6 anion
1 7 acceptor
4 2 3 4 5 anion
6 9 10 11 12 13 14 rings

>  <PUBCHEM_HEAVY_ATOM_COUNT>  (1) 
14

>  <PUBCHEM_ATOM_DEF_STEREO_COUNT>  (1) 
0

>  <PUBCHEM_ATOM_UDEF_STEREO_COUNT>  (1) 
0

>  <PUBCHEM_BOND_DEF_STEREO_COUNT>  (1) 
0

>  <PUBCHEM_BOND_UDEF_STEREO_COUNT>  (1) 
0

>  <PUBCHEM_ISOTOPIC_ATOM_COUNT>  (1) 
0

>  <PUBCHEM_COMPONENT_COUNT>  (1) 
1

>  <PUBCHEM_CACTVS_TAUTO_COUNT>  (1) 
1

>  <PUBCHEM_CONFORMER_ID>  (1) 
00001C8E00000001

>  <PUBCHEM_MMFF94_ENERGY>  (1) 
31.0619

>  <PUBCHEM_FEATURE_SELFOVERLAP>  (1) 
40.736

>  <PUBCHEM_SHAPE_FINGERPRINT>  (1) 
10608611 8 18412260675070621488
10967382 1 18338233756574770462
11132069 177 18411131472022640120
11206711 2 18266739267093554935
12491281 212 18410299094465178482
13380535 21 18340219513287677598
13380535 76 18410849936927267998
14325111 11 18410291458329739662
14614273 12 18261666056313879599
14648413 74 17687749333356782417
14897335 6 18410566262869123606
15490181 7 18263366880479758347
15775835 57 18200313212994684945
16945 1 18337954467683932246
18186145 218 18272094885580354820
193761 8 18338233765170616374
20510252 161 18196653110426112330
20871998 184 18199474431477623847
21501502 16 18411134736266746442
21524375 3 18413385432299976490
22802520 49 18201455657057523430
2334 1 18121781891860311060
23402539 116 18127682936454748391
23559900 14 18272939332813453028
2748010 2 18123181574378270461
5084963 1 17914036626113731035
6333449 129 18411981394452966487
7364860 26 18197497312123861982
81228 2 18050283974984578762

>  <PUBCHEM_SHAPE_MULTIPOLES>  (1) 
259.51
5.13
2.4
0.76
2.66
0.42
-0.09
-1.58
-0.03
-0.91
0.02
-0.54
-0.1
-0.07

>  <PUBCHEM_SHAPE_SELFOVERLAP>  (1) 
526.047

>  <PUBCHEM_SHAPE_VOLUME>  (1) 
152.6

>  <PUBCHEM_COORDINATE_TYPE>  (1) 
2
5
10

$$$$
