7313
     RDKit          3D

 10  9  0  0  0  0  0  0  0  0999 V2000
   -3.4165    0.1726    0.2578 O   0  0  0  0  0  0  0  0  0  0  0  0
    0.1749    0.0875   -0.5669 N   0  0  0  0  0  0  0  0  0  0  0  0
    0.4307   -1.3193   -0.2604 C   0  0  0  0  0  0  0  0  0  0  0  0
    1.3028    0.9163   -0.1429 C   0  0  0  0  0  0  0  0  0  0  0  0
   -1.0590    0.5350    0.0780 C   0  0  0  0  0  0  0  0  0  0  0  0
    0.5717   -1.5154    1.2464 C   0  0  0  0  0  0  0  0  0  0  0  0
    1.6878   -1.7782   -0.9927 C   0  0  0  0  0  0  0  0  0  0  0  0
    1.4856    0.8276    1.3695 C   0  0  0  0  0  0  0  0  0  0  0  0
    1.0673    2.3578   -0.5828 C   0  0  0  0  0  0  0  0  0  0  0  0
   -2.2451   -0.2838   -0.4059 C   0  0  0  0  0  0  0  0  0  0  0  0
  1 10  1  0
  2  3  1  0
  2  4  1  0
  2  5  1  0
  3  6  1  0
  3  7  1  0
  4  8  1  0
  4  9  1  0
  5 10  1  0
M  END
>  <PUBCHEM_COMPOUND_CID>  (1) 
7313

>  <PUBCHEM_CONFORMER_RMSD>  (1) 
0.6

>  <PUBCHEM_CONFORMER_DIVERSEORDER>  (1) 
1
2

>  <PUBCHEM_MMFF94_PARTIAL_CHARGES>  (1) 
7
1 -0.68
10 0.28
2 -0.81
29 0.4
3 0.27
4 0.27
5 0.27

>  <PUBCHEM_EFFECTIVE_ROTOR_COUNT>  (1) 
4

>  <PUBCHEM_PHARMACOPHORE_FEATURES>  (1) 
5
1 1 acceptor
1 1 donor
1 2 cation
3 3 6 7 hydrophobe
3 4 8 9 hydrophobe

>  <PUBCHEM_HEAVY_ATOM_COUNT>  (1) 
10

>  <PUBCHEM_ATOM_DEF_STEREO_COUNT>  (1) 
0

>  <PUBCHEM_ATOM_UDEF_STEREO_COUNT>  (1) 
0

>  <PUBCHEM_BOND_DEF_STEREO_COUNT>  (1) 
0

>  <PUBCHEM_BOND_UDEF_STEREO_COUNT>  (1) 
0

>  <PUBCHEM_ISOTOPIC_ATOM_COUNT>  (1) 
0

>  <PUBCHEM_COMPONENT_COUNT>  (1) 
1

>  <PUBCHEM_CACTVS_TAUTO_COUNT>  (1) 
1

>  <PUBCHEM_CONFORMER_ID>  (1) 
00001C9100000001

>  <PUBCHEM_MMFF94_ENERGY>  (1) 
44.0319

>  <PUBCHEM_FEATURE_SELFOVERLAP>  (1) 
25.373

>  <PUBCHEM_SHAPE_FINGERPRINT>  (1) 
12423570 1 15604733496614745638
14128692 85 17845382063139052662
161256 15 18268707208297416068
16945 1 18341629117274659646
19837323 101 17547022178487072868
20653091 64 18339086977714021369
20711985 344 17474384677943441095
21040471 1 17982446297941753356
21524375 3 17975971278266308469
23235685 24 18338232798723567724
23552449 11 18263351526040026123
241688 4 18122352272070270336
5084963 1 18193255610721726761

>  <PUBCHEM_SHAPE_MULTIPOLES>  (1) 
194.94
3.01
2.15
1.16
3.69
0.27
-0.3
0.25
-0.04
-1.45
0.37
-0.53
-0.21
0.16

>  <PUBCHEM_SHAPE_SELFOVERLAP>  (1) 
360.914

>  <PUBCHEM_SHAPE_VOLUME>  (1) 
125.8

>  <PUBCHEM_COORDINATE_TYPE>  (1) 
2
5
10

$$$$
