7322
     RDKit          3D

 14 14  0  0  0  0  0  0  0  0999 V2000
    2.7235   -0.3632    0.0423 S   0  0  0  0  0  0  0  0  0  0  0  0
    3.1463   -0.4491   -1.5347 O   0  0  0  0  0  0  0  0  0  0  0  0
   -2.7947    1.7211    0.0561 O   0  0  0  0  0  0  0  0  0  0  0  0
    3.5795    0.6409    0.6571 O   0  0  0  0  0  0  0  0  0  0  0  0
    2.6716   -1.7176    0.5703 O   0  0  0  0  0  0  0  0  0  0  0  0
   -2.1011   -2.2833    0.5312 O   0  0  0  0  0  0  0  0  0  0  0  0
   -3.5065   -0.8705   -0.5621 O   0  0  0  0  0  0  0  0  0  0  0  0
    1.0876    0.2473    0.0458 C   0  0  0  0  0  0  0  0  0  0  0  0
    0.0116   -0.6390   -0.0043 C   0  0  0  0  0  0  0  0  0  0  0  0
   -1.2950   -0.1505   -0.0013 C   0  0  0  0  0  0  0  0  0  0  0  0
    0.8568    1.6220    0.0989 C   0  0  0  0  0  0  0  0  0  0  0  0
   -1.5256    1.2242    0.0519 C   0  0  0  0  0  0  0  0  0  0  0  0
   -0.4497    2.1105    0.1020 C   0  0  0  0  0  0  0  0  0  0  0  0
   -2.4043   -1.0928   -0.0532 C   0  0  0  0  0  0  0  0  0  0  0  0
  1  2  1  0
  1  4  2  0
  1  5  2  0
  1  8  1  0
  3 12  1  0
  6 14  1  0
  7 14  2  0
  8  9  2  0
  8 11  1  0
  9 10  1  0
 10 12  2  0
 10 14  1  0
 11 13  2  0
 12 13  1  0
M  END
>  <PUBCHEM_COMPOUND_CID>  (1) 
7322

>  <PUBCHEM_CONFORMER_RMSD>  (1) 
0.6

>  <PUBCHEM_CONFORMER_DIVERSEORDER>  (1) 
1
2

>  <PUBCHEM_MMFF94_PARTIAL_CHARGES>  (1) 
20
1 1.49
10 0.09
11 -0.15
12 0.08
13 -0.15
14 0.63
15 0.15
16 0.15
17 0.15
18 0.5
19 0.45
2 -0.68
20 0.5
3 -0.53
4 -0.65
5 -0.65
6 -0.65
7 -0.57
8 -0.01
9 -0.15

>  <PUBCHEM_EFFECTIVE_ROTOR_COUNT>  (1) 
2

>  <PUBCHEM_PHARMACOPHORE_FEATURES>  (1) 
9
1 2 acceptor
1 3 donor
1 4 acceptor
1 5 acceptor
1 6 acceptor
1 7 acceptor
3 6 7 14 anion
4 1 2 4 5 anion
6 8 9 10 11 12 13 rings

>  <PUBCHEM_HEAVY_ATOM_COUNT>  (1) 
14

>  <PUBCHEM_ATOM_DEF_STEREO_COUNT>  (1) 
0

>  <PUBCHEM_ATOM_UDEF_STEREO_COUNT>  (1) 
0

>  <PUBCHEM_BOND_DEF_STEREO_COUNT>  (1) 
0

>  <PUBCHEM_BOND_UDEF_STEREO_COUNT>  (1) 
0

>  <PUBCHEM_ISOTOPIC_ATOM_COUNT>  (1) 
0

>  <PUBCHEM_COMPONENT_COUNT>  (1) 
1

>  <PUBCHEM_CACTVS_TAUTO_COUNT>  (1) 
4

>  <PUBCHEM_CONFORMER_ID>  (1) 
00001C9A00000001

>  <PUBCHEM_MMFF94_ENERGY>  (1) 
30.408

>  <PUBCHEM_FEATURE_SELFOVERLAP>  (1) 
45.787

>  <PUBCHEM_SHAPE_FINGERPRINT>  (1) 
11206711 2 18407757032398548477
12716758 59 18267306426162164832
12932764 1 18337119960160178584
13296908 3 18130790044819208068
14144814 61 18409446972927362755
14252887 29 18058459853338875090
15219456 202 17918275333759740860
16945 1 18334862748392275241
20201158 50 18336259153876827914
20645476 183 17897186648692903254
20645477 70 18053660567099702391
20715346 28 17918274251243287964
20871998 184 18202561769912629853
20871998 22 18270971248694061326
21501502 16 18411134701917161400
22802520 49 17986966141367533166
2334 1 18339924925686115473
23463225 33 18409165472133219424
23552423 10 18261679280196430332
23557571 272 18272092690931324292
23559900 14 18269834234292681758
2748010 2 18341325686330595421
3248919 1 17312829268646128178
3312278 4 18335421296104483970
7364860 26 18055634177085511216
8030462 33 18259992552408589758
81228 2 18338805524101721681
8809292 202 18339928087035077514

>  <PUBCHEM_SHAPE_MULTIPOLES>  (1) 
256.75
5.36
2.13
0.8
1.53
0.18
-0.18
-1.59
-0.38
-1.05
0.29
0.47
-0.13
0.09

>  <PUBCHEM_SHAPE_SELFOVERLAP>  (1) 
532.437

>  <PUBCHEM_SHAPE_VOLUME>  (1) 
146.8

>  <PUBCHEM_COORDINATE_TYPE>  (1) 
2
5
10

$$$$
