7323
     RDKit          3D

 14 14  0  0  0  0  0  0  0  0999 V2000
   -3.2514    0.4535    1.7817 Cl  0  0  0  0  0  0  0  0  0  0  0  0
    3.1786   -1.7348    0.1023 Cl  0  0  0  0  0  0  0  0  0  0  0  0
   -2.7472    0.2732   -0.1940 S   0  0  0  0  0  0  0  0  0  0  0  0
   -3.5730   -0.7952   -0.7249 O   0  0  0  0  0  0  0  0  0  0  0  0
   -2.8024    1.6242   -0.7214 O   0  0  0  0  0  0  0  0  0  0  0  0
    1.9936    2.4114   -0.0395 O   0  0  0  0  0  0  0  0  0  0  0  0
    3.4991    0.8169    0.0607 O   0  0  0  0  0  0  0  0  0  0  0  0
    2.3071    1.1989    0.0013 N   0  0  0  0  0  0  0  0  0  0  0  0
   -1.0907   -0.2719   -0.1102 C   0  0  0  0  0  0  0  0  0  0  0  0
   -0.0505    0.6572   -0.0861 C   0  0  0  0  0  0  0  0  0  0  0  0
    1.2729    0.2211   -0.0203 C   0  0  0  0  0  0  0  0  0  0  0  0
   -0.8076   -1.6371   -0.0685 C   0  0  0  0  0  0  0  0  0  0  0  0
    1.5560   -1.1442    0.0215 C   0  0  0  0  0  0  0  0  0  0  0  0
    0.5156   -2.0732   -0.0025 C   0  0  0  0  0  0  0  0  0  0  0  0
  1  3  1  0
  2 13  1  0
  3  4  2  0
  3  5  2  0
  3  9  1  0
  6  8  1  0
  7  8  2  0
  8 11  1  0
  9 10  2  0
  9 12  1  0
 10 11  1  0
 11 13  2  0
 12 14  2  0
 13 14  1  0
M  CHG  2   6  -1   8   1
M  END
>  <PUBCHEM_COMPOUND_CID>  (1) 
7323

>  <PUBCHEM_CONFORMER_RMSD>  (1) 
0.6

>  <PUBCHEM_CONFORMER_DIVERSEORDER>  (1) 
1
2

>  <PUBCHEM_MMFF94_PARTIAL_CHARGES>  (1) 
17
1 -0.19
10 -0.15
11 0.13
12 -0.15
13 0.18
14 -0.15
15 0.15
16 0.15
17 0.15
2 -0.18
3 1.49
4 -0.65
5 -0.65
6 -0.52
7 -0.52
8 0.91
9 -0.01

>  <PUBCHEM_EFFECTIVE_ROTOR_COUNT>  (1) 
2

>  <PUBCHEM_PHARMACOPHORE_FEATURES>  (1) 
4
1 6 acceptor
1 6 anion
1 7 acceptor
6 9 10 11 12 13 14 rings

>  <PUBCHEM_HEAVY_ATOM_COUNT>  (1) 
14

>  <PUBCHEM_ATOM_DEF_STEREO_COUNT>  (1) 
0

>  <PUBCHEM_ATOM_UDEF_STEREO_COUNT>  (1) 
0

>  <PUBCHEM_BOND_DEF_STEREO_COUNT>  (1) 
0

>  <PUBCHEM_BOND_UDEF_STEREO_COUNT>  (1) 
0

>  <PUBCHEM_ISOTOPIC_ATOM_COUNT>  (1) 
0

>  <PUBCHEM_COMPONENT_COUNT>  (1) 
1

>  <PUBCHEM_CACTVS_TAUTO_COUNT>  (1) 
1

>  <PUBCHEM_CONFORMER_ID>  (1) 
00001C9B00000001

>  <PUBCHEM_MMFF94_ENERGY>  (1) 
35.7498

>  <PUBCHEM_FEATURE_SELFOVERLAP>  (1) 
20.379

>  <PUBCHEM_SHAPE_FINGERPRINT>  (1) 
10608611 8 18335133176882022685
10967382 1 18410007775549960844
10980938 120 18410292506301915762
11471102 20 18338229380087518031
11471102 22 18187940468671128697
12932764 1 18336557027370795735
13294875 104 16016869882774175349
13380535 21 18264221351333042926
13380535 76 18337948008316986582
14144814 61 18411416219669406706
14251717 144 18410847754957151295
14325111 11 18410289207508407319
14897335 6 18340479075520384246
15219456 202 18260270711549105225
15442244 35 18340202977742455906
15536298 74 18272083890501117278
15775835 57 18343305872813109385
16945 1 18268151959125605695
17844478 74 17968389969815261537
18186145 218 18272940396752025948
193761 8 18265893755805975390
19422 9 17989208131507673135
20510252 161 17548700037631255128
20645477 70 18338508647799588143
20671657 1 18340208587233436716
20715346 28 17894635850726018195
21501502 16 18340767134402651191
21524375 3 18268991058464855326
2334 1 18339079414171462118
23402655 69 18341319029669052005
23557571 272 13901609815343858595
2748010 2 18192704545322641308
3248919 1 17418092066598335551
5084963 1 18272923908615403515
63268167 104 18341611499313569185
7364860 26 18342452660443186854
81228 2 17545883093025330802

>  <PUBCHEM_SHAPE_MULTIPOLES>  (1) 
267.24
5.85
2.14
0.92
1.27
0.27
-0.35
0.67
-0.55
-1.43
0.13
1.04
0.07
-0.17

>  <PUBCHEM_SHAPE_SELFOVERLAP>  (1) 
531.614

>  <PUBCHEM_SHAPE_VOLUME>  (1) 
160.9

>  <PUBCHEM_COORDINATE_TYPE>  (1) 
2
5
10

$$$$
