7330
     RDKit          3D

 18 18  0  0  0  0  0  0  0  0999 V2000
   -2.0205   -0.7435   -2.8980 Cl  0  0  0  0  0  0  0  0  0  0  0  0
    1.8174    3.4728    0.7192 Cl  0  0  0  0  0  0  0  0  0  0  0  0
    2.5745    2.2520   -1.8185 Cl  0  0  0  0  0  0  0  0  0  0  0  0
   -5.0922    0.2447    1.4100 Cl  0  0  0  0  0  0  0  0  0  0  0  0
    3.3161   -3.4572    0.6087 O   0  0  0  0  0  0  0  0  0  0  0  0
    2.8938    0.9198    1.2739 O   0  0  0  0  0  0  0  0  0  0  0  0
    1.4005   -0.3629    0.0552 N   0  0  0  0  0  0  0  0  0  0  0  0
    0.3701   -0.5030   -0.9689 C   0  0  0  0  0  0  0  0  0  0  0  0
    1.8123   -1.5997    0.7068 C   0  0  0  0  0  0  0  0  0  0  0  0
   -1.0127   -0.3204   -0.4021 C   0  0  0  0  0  0  0  0  0  0  0  0
    2.9356   -2.2675   -0.0701 C   0  0  0  0  0  0  0  0  0  0  0  0
    2.0242    0.8406    0.3999 C   0  0  0  0  0  0  0  0  0  0  0  0
   -2.1400   -0.4136   -1.2082 C   0  0  0  0  0  0  0  0  0  0  0  0
   -1.1294   -0.0548    0.9569 C   0  0  0  0  0  0  0  0  0  0  0  0
    1.5812    2.0820   -0.3529 C   0  0  0  0  0  0  0  0  0  0  0  0
   -3.4048   -0.2384   -0.6467 C   0  0  0  0  0  0  0  0  0  0  0  0
   -2.3942    0.1204    1.5182 C   0  0  0  0  0  0  0  0  0  0  0  0
   -3.5319    0.0287    0.7164 C   0  0  0  0  0  0  0  0  0  0  0  0
  1 13  1  0
  2 15  1  0
  3 15  1  0
  4 18  1  0
  5 11  1  0
  6 12  2  0
  7  8  1  0
  7  9  1  0
  7 12  1  0
  8 10  1  0
  9 11  1  0
 10 13  2  0
 10 14  1  0
 12 15  1  0
 13 16  1  0
 14 17  2  0
 16 18  2  0
 17 18  1  0
M  END
>  <PUBCHEM_COMPOUND_CID>  (1) 
7330

>  <PUBCHEM_CONFORMER_RMSD>  (1) 
0.8

>  <PUBCHEM_CONFORMER_DIVERSEORDER>  (1) 
2
93
54
19
4
111
107
60
90
84
24
12
8
61
97
58
89
82
59
48
68
34
6
56
40
27
109
76
37
70
91
75
66
25
31
106
77
85
72
86
21
46
51
65
33
42
112
96
29
49
69
98
79
63
114
45
95
35
80
43
74
30
11
92
102
5
53
39
15
1
103
105
57
78
55
108
18
87
88
13
44
52
26
81
9
16
67
14
110
22
38
41
99
28
36
32
83
101
104
94
113
47
71
20
23
3
73
64
62
17
50
100
7
10

>  <PUBCHEM_MMFF94_PARTIAL_CHARGES>  (1) 
22
1 -0.18
10 -0.14
11 0.28
12 0.57
13 0.18
14 -0.15
15 0.64
16 -0.15
17 -0.15
18 0.18
2 -0.29
25 0.15
27 0.15
28 0.15
29 0.4
3 -0.29
4 -0.18
5 -0.68
6 -0.57
7 -0.66
8 0.44
9 0.3

>  <PUBCHEM_EFFECTIVE_ROTOR_COUNT>  (1) 
6

>  <PUBCHEM_PHARMACOPHORE_FEATURES>  (1) 
4
1 5 acceptor
1 5 donor
1 6 acceptor
6 10 13 14 16 17 18 rings

>  <PUBCHEM_HEAVY_ATOM_COUNT>  (1) 
18

>  <PUBCHEM_ATOM_DEF_STEREO_COUNT>  (1) 
0

>  <PUBCHEM_ATOM_UDEF_STEREO_COUNT>  (1) 
0

>  <PUBCHEM_BOND_DEF_STEREO_COUNT>  (1) 
0

>  <PUBCHEM_BOND_UDEF_STEREO_COUNT>  (1) 
0

>  <PUBCHEM_ISOTOPIC_ATOM_COUNT>  (1) 
0

>  <PUBCHEM_COMPONENT_COUNT>  (1) 
1

>  <PUBCHEM_CACTVS_TAUTO_COUNT>  (1) 
1

>  <PUBCHEM_CONFORMER_ID>  (1) 
00001CA200000002

>  <PUBCHEM_MMFF94_ENERGY>  (1) 
42.1222

>  <PUBCHEM_FEATURE_SELFOVERLAP>  (1) 
20.297

>  <PUBCHEM_SHAPE_FINGERPRINT>  (1) 
11640471 11 17916865866916170289
12553582 1 18196645203692734550
13134695 92 18339913814837667044
13533116 47 18335431188200371515
13538477 17 17418085546795912055
13583140 156 18339643438567879275
14289901 80 18336275638662644515
15806764 133 17530963532312037093
15842332 3 17917135208752526183
16752209 62 16630242619354168935
16945 1 18337941393945830180
17357990 137 17703522033688883273
17980427 23 15912173483259451936
1813 80 18055365647562217726
19049666 15 17169808030078308405
19765921 60 17771065191754801425
19786989 88 17968658357667964085
20361792 2 18195234534389592414
20645476 183 17917437583213977487
20671657 1 18341335590693601822
21041028 32 18267023851916692496
21524375 3 17984703586955985292
2255824 54 18412550915970296214
23175994 123 17970633982457925135
23493267 7 17702123532540209663
23526113 38 17387112213920613398
23559900 14 17677064494364681411
23598291 2 18059571360741574903
31174 14 18260833700162461499
3286 77 18115317682976174939
45790113 50 18336275556910533401
458136 41 18115884059965001020
474 4 18198053888108387488
5845 1 10707291961218403176
6049 1 17603862274125058919
621550 5 17460047196757369623
633830 44 18055923331664148964
6442390 28 17686643619680004682
6992083 37 17845078572144249302
7364860 26 18409735071017800890
7615 1 17774139302049270751
77492 1 17917982902036641047
81228 2 17470150476340545576
88987 49 16128367207786725519

>  <PUBCHEM_SHAPE_MULTIPOLES>  (1) 
361.19
7.12
2.98
2
6.21
0.04
-1.43
-0.1
2.12
-5.59
0.55
1.14
-0.01
-1.42

>  <PUBCHEM_SHAPE_SELFOVERLAP>  (1) 
701.602

>  <PUBCHEM_SHAPE_VOLUME>  (1) 
221.4

>  <PUBCHEM_COORDINATE_TYPE>  (1) 
2
5
10

$$$$
