734
     RDKit          3D

 19 18  0  0  1  0  0  0  0  0999 V2000
    2.8634    0.9472    0.7991 P   0  0  0  0  0  0  0  0  0  0  0  0
    2.3461   -1.4485   -0.8277 P   0  0  0  0  0  0  0  0  0  0  0  0
    1.2776    1.2571    0.8278 O   0  0  0  0  0  0  0  0  0  0  0  0
    3.0624   -0.0474   -0.4598 O   0  0  0  0  0  0  0  0  0  0  0  0
    3.1117   -0.0158    2.0752 O   0  0  0  0  0  0  0  0  0  0  0  0
    3.7387    2.1664    0.7641 O   0  0  0  0  0  0  0  0  0  0  0  0
    3.1609   -1.9540   -2.1289 O   0  0  0  0  0  0  0  0  0  0  0  0
    2.8534   -2.4387    0.3446 O   0  0  0  0  0  0  0  0  0  0  0  0
    0.8576   -1.3655   -0.9954 O   0  0  0  0  0  0  0  0  0  0  0  0
   -3.2781    1.9242   -0.3759 C   0  0  0  0  0  0  0  0  0  0  0  0
   -4.0705    0.6197   -0.2190 C   0  0  0  0  0  0  0  0  0  0  0  0
   -1.8174    1.7137   -0.7156 C   0  0  0  0  0  0  0  0  0  0  0  0
   -3.5179   -0.2657    0.8635 C   0  0  0  0  0  0  0  0  0  0  0  0
   -0.7833    2.1239    0.0445 C   0  0  0  0  0  0  0  0  0  0  0  0
   -1.5588    1.0179   -2.0276 C   0  0  0  0  0  0  0  0  0  0  0  0
   -3.1385   -1.5542    0.7706 C   0  0  0  0  0  0  0  0  0  0  0  0
    0.6786    1.9828   -0.2374 C   0  0  0  0  0  0  0  0  0  0  0  0
   -2.6127   -2.2808    1.9799 C   0  0  0  0  0  0  0  0  0  0  0  0
   -3.1732   -2.3824   -0.4821 C   0  0  0  0  0  0  0  0  0  0  0  0
  1  3  1  0
  1  4  1  0
  1  5  1  0
  1  6  2  0
  2  4  1  0
  2  7  1  0
  2  8  1  0
  2  9  2  0
  3 17  1  0
 10 11  1  0
 10 12  1  0
 11 13  1  0
 12 14  2  0
 12 15  1  0
 13 16  2  3
 14 17  1  0
 16 18  1  0
 16 19  1  0
M  END
>  <PUBCHEM_COMPOUND_CID>  (1) 
734

>  <PUBCHEM_CONFORMER_RMSD>  (1) 
1

>  <PUBCHEM_CONFORMER_DIVERSEORDER>  (1) 
3
111
222
69
63
17
110
97
235
210
81
159
30
148
45
66
224
28
140
190
234
77
13
170
166
67
125
150
156
8
60
134
119
117
142
6
18
153
174
61
223
227
149
82
22
124
41
189
20
86
47
99
146
4
243
87
201
127
187
212
106
52
196
126
76
89
145
7
221
1
43
132
116
141
191
37
168
122
236
198
184
197
155
73
100
93
96
56
12
182
172
59
202
54
27
33
229
233
29
19
176
216
71
183
186
112
103
207
92
123
133
11
94
228
225
131
44
147
21
51
95
231
213
98
25
165
55
102
220
177
164
135
46
193
10
85
79
16
240
215
108
160
49
91
242
211
217
14
72
188
219
32
194
209
74
48
115
181
80
57
90
195
70
113
36
180
5
239
78
152
143
179
38
206
114
58
237
24
167
101
178
175
75
192
208
151
218
107
161
68
104
157
118
185
42
23
199
40
154
26
173
15
138
232
226
169
203
105
130
50
129
109
9
2
162
214
120
121
62
171
163
204
137
65
64
230
39
35
238
128
241
31
53
158
205
83
200
34
139
136
88
84
144

>  <PUBCHEM_MMFF94_PARTIAL_CHARGES>  (1) 
24
1 1.51
10 0.14
11 0.14
12 -0.28
13 -0.29
14 -0.29
15 0.14
16 -0.28
17 0.42
18 0.14
19 0.14
2 1.51
24 0.15
25 0.15
3 -0.55
37 0.5
38 0.5
39 0.5
4 -0.54
5 -0.77
6 -0.7
7 -0.77
8 -0.77
9 -0.7

>  <PUBCHEM_EFFECTIVE_ROTOR_COUNT>  (1) 
8

>  <PUBCHEM_PHARMACOPHORE_FEATURES>  (1) 
9
1 15 hydrophobe
1 5 acceptor
1 6 acceptor
1 7 acceptor
1 8 acceptor
1 9 acceptor
3 16 18 19 hydrophobe
4 10 11 12 13 hydrophobe
4 2 7 8 9 anion

>  <PUBCHEM_HEAVY_ATOM_COUNT>  (1) 
19

>  <PUBCHEM_ATOM_DEF_STEREO_COUNT>  (1) 
0

>  <PUBCHEM_ATOM_UDEF_STEREO_COUNT>  (1) 
0

>  <PUBCHEM_BOND_DEF_STEREO_COUNT>  (1) 
0

>  <PUBCHEM_BOND_UDEF_STEREO_COUNT>  (1) 
1

>  <PUBCHEM_ISOTOPIC_ATOM_COUNT>  (1) 
0

>  <PUBCHEM_COMPONENT_COUNT>  (1) 
1

>  <PUBCHEM_CACTVS_TAUTO_COUNT>  (1) 
1

>  <PUBCHEM_CONFORMER_ID>  (1) 
000002DE00000003

>  <PUBCHEM_MMFF94_ENERGY>  (1) 
-30.1492

>  <PUBCHEM_FEATURE_SELFOVERLAP>  (1) 
45.738

>  <PUBCHEM_SHAPE_FINGERPRINT>  (1) 
10366900 7 18130213960867040361
10616163 171 18337107989959873449
11488393 25 18200330865937915190
117890 22 18411704304822305937
12596602 18 15554151675196118977
12633257 1 18408600344937575121
12670545 47 18341333297239218311
13533116 47 17775284950632601457
13911882 115 18269568276536887360
14081887 123 18408600357685157531
14251705 54 18338241577847489953
14251740 79 17614308579350854534
14251745 187 18335703870671898443
15635459 17 18342459201356651447
17834074 16 18410577275312918101
1813 80 17531536472676140077
20397935 3 17678194869174006195
20603629 256 16773220800500429210
20645477 70 17987784212146676860
20693207 138 18338242548510300756
23557571 272 18334580160976999473
23559900 14 18262243213818409292
49207404 50 18343295989898331952
568465 68 18130502054245708585
8809292 202 18264775354774387919
9709674 26 18412821361386614237

>  <PUBCHEM_SHAPE_MULTIPOLES>  (1) 
357.62
7.89
3.25
1.74
0.75
0.77
0.14
1.68
-1.18
-0.62
0.04
0.73
0.68
2.21

>  <PUBCHEM_SHAPE_SELFOVERLAP>  (1) 
655.238

>  <PUBCHEM_SHAPE_VOLUME>  (1) 
227.8

>  <PUBCHEM_COORDINATE_TYPE>  (1) 
2
5
10

$$$$
