7340
     RDKit          3D

 17 18  0  0  0  0  0  0  0  0999 V2000
   -0.2082    0.3061    0.5817 N   0  0  0  0  0  0  0  0  0  0  0  0
   -0.8205    0.2424   -0.5095 N   0  0  0  0  0  0  0  0  0  0  0  0
    5.3143    0.4579   -0.3352 N   0  0  0  0  0  0  0  0  0  0  0  0
    3.2716   -0.8180    0.0600 C   0  0  0  0  0  0  0  0  0  0  0  0
    3.9224    0.4050   -0.1038 C   0  0  0  0  0  0  0  0  0  0  0  0
    1.8960   -0.8510    0.2883 C   0  0  0  0  0  0  0  0  0  0  0  0
    1.1779    0.3391    0.3518 C   0  0  0  0  0  0  0  0  0  0  0  0
   -2.8685   -1.0045   -0.1129 C   0  0  0  0  0  0  0  0  0  0  0  0
   -2.2015    0.2093   -0.2798 C   0  0  0  0  0  0  0  0  0  0  0  0
    3.1971    1.5948   -0.0393 C   0  0  0  0  0  0  0  0  0  0  0  0
    1.8216    1.5617    0.1892 C   0  0  0  0  0  0  0  0  0  0  0  0
    4.0238   -2.1077   -0.0030 C   0  0  0  0  0  0  0  0  0  0  0  0
   -4.2445   -1.0184    0.1158 C   0  0  0  0  0  0  0  0  0  0  0  0
   -2.9107    1.4089   -0.2181 C   0  0  0  0  0  0  0  0  0  0  0  0
   -2.1306   -2.3019   -0.1737 C   0  0  0  0  0  0  0  0  0  0  0  0
   -4.9534    0.1814    0.1777 C   0  0  0  0  0  0  0  0  0  0  0  0
   -4.2866    1.3950    0.0108 C   0  0  0  0  0  0  0  0  0  0  0  0
  1  2  2  0
  1  7  1  0
  2  9  1  0
  3  5  1  0
  4  5  2  0
  4  6  1  0
  4 12  1  0
  5 10  1  0
  6  7  2  0
  7 11  1  0
  8  9  2  0
  8 13  1  0
  8 15  1  0
  9 14  1  0
 10 11  2  0
 13 16  2  0
 14 17  2  0
 16 17  1  0
M  END
>  <PUBCHEM_COMPOUND_CID>  (1) 
7340

>  <PUBCHEM_CONFORMER_RMSD>  (1) 
0.6

>  <PUBCHEM_CONFORMER_DIVERSEORDER>  (1) 
1
3
8
2
7
6
4
5

>  <PUBCHEM_MMFF94_PARTIAL_CHARGES>  (1) 
26
1 -0.18
10 -0.15
11 -0.15
12 0.14
13 -0.15
14 -0.15
15 0.14
16 -0.15
17 -0.15
18 0.15
19 0.15
2 -0.18
20 0.15
24 0.15
25 0.15
29 0.15
3 -0.9
30 0.15
31 0.4
32 0.4
4 -0.14
5 0.1
6 -0.15
7 0.18
8 -0.14
9 0.18

>  <PUBCHEM_EFFECTIVE_ROTOR_COUNT>  (1) 
2

>  <PUBCHEM_PHARMACOPHORE_FEATURES>  (1) 
4
1 3 cation
1 3 donor
6 4 5 6 7 10 11 rings
6 8 9 13 14 16 17 rings

>  <PUBCHEM_HEAVY_ATOM_COUNT>  (1) 
17

>  <PUBCHEM_ATOM_DEF_STEREO_COUNT>  (1) 
0

>  <PUBCHEM_ATOM_UDEF_STEREO_COUNT>  (1) 
0

>  <PUBCHEM_BOND_DEF_STEREO_COUNT>  (1) 
0

>  <PUBCHEM_BOND_UDEF_STEREO_COUNT>  (1) 
0

>  <PUBCHEM_ISOTOPIC_ATOM_COUNT>  (1) 
0

>  <PUBCHEM_COMPONENT_COUNT>  (1) 
1

>  <PUBCHEM_CACTVS_TAUTO_COUNT>  (1) 
2

>  <PUBCHEM_CONFORMER_ID>  (1) 
00001CAC00000001

>  <PUBCHEM_MMFF94_ENERGY>  (1) 
58.0049

>  <PUBCHEM_FEATURE_SELFOVERLAP>  (1) 
20.297

>  <PUBCHEM_SHAPE_FINGERPRINT>  (1) 
10616163 171 18340769363527828615
12107183 9 17835242242416883193
12500047 106 18412821408646747343
12788726 201 17703517575428655680
128620 24 14490190509641569907
13167823 11 18409165506535363755
13760787 19 18411419527052836974
14341114 176 18410863143877453845
14866123 147 17047400302538451602
15196674 1 18410573972388251819
15242433 33 18411138030522155462
15442244 35 18339642231075661024
17834072 33 18411981385831266541
17834074 16 18409730676976308067
1813 80 17022905644313549788
18186145 218 17894905217889273594
200 152 18202563986026129177
20281475 54 18411410730701429766
20645477 56 18335698356071286917
20645477 70 18340769243685248302
21065198 57 18411418427504246833
21267235 1 18410582802788031035
221490 88 18264776626248296434
22485316 2 18412824694164879434
23402539 116 18335977631665922684
23402655 69 18409730668734448668
23559900 14 18342733035628825080
300161 21 18411129243003204552
3004659 81 18335141930611233078
3545911 37 18411138047570253240
42 15 18408886226434504485
4214541 1 18410855456128814465
474 4 17241895474186884348
4921388 177 16878234159431389131
5104073 3 18410572872828781955
5281201 14 18114181917255062660
542803 24 17458346350921513892
543358 83 18410860923801322642
58051976 100 18339924912885343543
633830 44 17385444327616217160
69090 78 18410852170695110859
77779 3 18409730668539289297
9709674 26 18410296947050654179

>  <PUBCHEM_SHAPE_MULTIPOLES>  (1) 
334.91
11.03
2
0.66
0.43
0.64
-0.01
-0.03
0.34
0.23
0.05
-0.01
-0.01
-0.05

>  <PUBCHEM_SHAPE_SELFOVERLAP>  (1) 
717.99

>  <PUBCHEM_SHAPE_VOLUME>  (1) 
186.9

>  <PUBCHEM_COORDINATE_TYPE>  (1) 
2
5
10

$$$$
