7344
     RDKit          3D

  8  7  0  0  1  0  0  0  0  0999 V2000
    0.8827   -0.3016    0.1896 O   0  0  0  0  0  0  0  0  0  0  0  0
   -2.6182    0.4390    0.2797 O   0  0  0  0  0  0  0  0  0  0  0  0
   -0.2899    1.6003   -0.3818 O   0  0  0  0  0  0  0  0  0  0  0  0
   -1.4634   -0.3773    0.3984 C   0  0  0  0  0  0  0  0  0  0  0  0
   -1.6382   -1.5780   -0.5150 C   0  0  0  0  0  0  0  0  0  0  0  0
   -0.2489    0.4411    0.0095 C   0  0  0  0  0  0  0  0  0  0  0  0
    2.1125    0.3640   -0.1152 C   0  0  0  0  0  0  0  0  0  0  0  0
    3.2633   -0.5874    0.1346 C   0  0  0  0  0  0  0  0  0  0  0  0
  1  6  1  0
  1  7  1  0
  2  4  1  0
  3  6  2  0
  4  5  1  0
  4  6  1  0
  7  8  1  0
M  END
>  <PUBCHEM_COMPOUND_CID>  (1) 
7344

>  <PUBCHEM_CONFORMER_RMSD>  (1) 
0.6

>  <PUBCHEM_CONFORMER_DIVERSEORDER>  (1) 
1
21
7
4
14
13
18
15
23
11
16
20
9
8
3
5
2
22
12
10
24
6
17
19

>  <PUBCHEM_MMFF94_PARTIAL_CHARGES>  (1) 
7
1 -0.43
18 0.4
2 -0.68
3 -0.57
4 0.34
6 0.66
7 0.28

>  <PUBCHEM_EFFECTIVE_ROTOR_COUNT>  (1) 
3

>  <PUBCHEM_PHARMACOPHORE_FEATURES>  (1) 
3
1 2 acceptor
1 2 donor
1 3 acceptor

>  <PUBCHEM_HEAVY_ATOM_COUNT>  (1) 
8

>  <PUBCHEM_ATOM_DEF_STEREO_COUNT>  (1) 
0

>  <PUBCHEM_ATOM_UDEF_STEREO_COUNT>  (1) 
1

>  <PUBCHEM_BOND_DEF_STEREO_COUNT>  (1) 
0

>  <PUBCHEM_BOND_UDEF_STEREO_COUNT>  (1) 
0

>  <PUBCHEM_ISOTOPIC_ATOM_COUNT>  (1) 
0

>  <PUBCHEM_COMPONENT_COUNT>  (1) 
1

>  <PUBCHEM_CACTVS_TAUTO_COUNT>  (1) 
1

>  <PUBCHEM_CONFORMER_ID>  (1) 
00001CB000000001

>  <PUBCHEM_MMFF94_ENERGY>  (1) 
1.9116

>  <PUBCHEM_FEATURE_SELFOVERLAP>  (1) 
15.23

>  <PUBCHEM_SHAPE_FINGERPRINT>  (1) 
12932764 1 18260824891400795704
15310529 11 13334729141833002090
16714656 1 18410013208467312367
20653085 51 11963936040933443630
23552423 10 18187928434241356238
29004967 10 18041568030283517984
3248919 1 17132123445931152000
5460574 1 9799691489366712424

>  <PUBCHEM_SHAPE_MULTIPOLES>  (1) 
147.03
4.15
1.32
0.67
2.54
0.05
0.01
0.95
-0.27
-0.51
0.24
-0.07
0.04
-0.22

>  <PUBCHEM_SHAPE_SELFOVERLAP>  (1) 
268.792

>  <PUBCHEM_SHAPE_VOLUME>  (1) 
94.3

>  <PUBCHEM_COORDINATE_TYPE>  (1) 
2
5
10

$$$$
