7345
     RDKit          3D

  9  8  0  0  1  0  0  0  0  0999 V2000
    2.6398   -0.2805   -0.9937 O   0  0  0  0  0  0  0  0  0  0  0  0
    1.9782    1.4089    0.3742 O   0  0  0  0  0  0  0  0  0  0  0  0
   -2.2284   -0.9762   -0.7629 O   0  0  0  0  0  0  0  0  0  0  0  0
   -0.6127    0.3558    0.2490 N   0  0  0  0  0  0  0  0  0  0  0  0
    0.5283   -0.5310    0.0311 C   0  0  0  0  0  0  0  0  0  0  0  0
    0.6895   -1.4637    1.2238 C   0  0  0  0  0  0  0  0  0  0  0  0
    1.7623    0.3265   -0.1520 C   0  0  0  0  0  0  0  0  0  0  0  0
   -1.8845    0.0439   -0.1716 C   0  0  0  0  0  0  0  0  0  0  0  0
   -2.8724    1.1164    0.2021 C   0  0  0  0  0  0  0  0  0  0  0  0
  1  7  1  0
  2  7  2  0
  3  8  2  0
  4  5  1  0
  4  8  1  0
  5  6  1  0
  5  7  1  0
  8  9  1  0
M  END
>  <PUBCHEM_COMPOUND_CID>  (1) 
7345

>  <PUBCHEM_CONFORMER_RMSD>  (1) 
0.6

>  <PUBCHEM_CONFORMER_DIVERSEORDER>  (1) 
4
11
10
3
6
2
7
8
9
1
5

>  <PUBCHEM_MMFF94_PARTIAL_CHARGES>  (1) 
10
1 -0.65
14 0.37
18 0.5
2 -0.57
3 -0.57
4 -0.73
5 0.36
7 0.66
8 0.57
9 0.06

>  <PUBCHEM_EFFECTIVE_ROTOR_COUNT>  (1) 
3

>  <PUBCHEM_PHARMACOPHORE_FEATURES>  (1) 
5
1 1 acceptor
1 2 acceptor
1 3 acceptor
1 4 donor
3 1 2 7 anion

>  <PUBCHEM_HEAVY_ATOM_COUNT>  (1) 
9

>  <PUBCHEM_ATOM_DEF_STEREO_COUNT>  (1) 
0

>  <PUBCHEM_ATOM_UDEF_STEREO_COUNT>  (1) 
1

>  <PUBCHEM_BOND_DEF_STEREO_COUNT>  (1) 
0

>  <PUBCHEM_BOND_UDEF_STEREO_COUNT>  (1) 
0

>  <PUBCHEM_ISOTOPIC_ATOM_COUNT>  (1) 
0

>  <PUBCHEM_COMPONENT_COUNT>  (1) 
1

>  <PUBCHEM_CACTVS_TAUTO_COUNT>  (1) 
2

>  <PUBCHEM_CONFORMER_ID>  (1) 
00001CB100000004

>  <PUBCHEM_MMFF94_ENERGY>  (1) 
11.936

>  <PUBCHEM_FEATURE_SELFOVERLAP>  (1) 
25.43

>  <PUBCHEM_SHAPE_FINGERPRINT>  (1) 
12897270 3 18272931647940560885
12932764 1 18334572408930158725
14390081 3 18410570691207239561
15310529 11 17275103989267260413
20653085 51 18270414865724549600
20711985 344 12965760484482185610
21040471 1 17967816097643975066
23235685 24 17313395516786364077
23552423 10 18412823598974579871
29004967 10 12463576183562604046
5084963 1 18260268581092306748

>  <PUBCHEM_SHAPE_MULTIPOLES>  (1) 
162.63
4.03
1.34
0.92
1.32
0.18
-0.01
-1.16
-0.61
-0.19
0.37
-0.19
0.21
-0.32

>  <PUBCHEM_SHAPE_SELFOVERLAP>  (1) 
305.811

>  <PUBCHEM_SHAPE_VOLUME>  (1) 
101.2

>  <PUBCHEM_COORDINATE_TYPE>  (1) 
2
5
10

$$$$
