7358
     RDKit          3D

  7  6  0  0  0  0  0  0  0  0999 V2000
   -2.4180   -0.5700    0.2570 O   0  0  0  0  0  0  0  0  0  0  0  0
    0.0040   -0.4066    0.3089 C   0  0  0  0  0  0  0  0  0  0  0  0
    1.2759   -0.8044   -0.4652 C   0  0  0  0  0  0  0  0  0  0  0  0
   -0.0821    1.0977    0.6512 C   0  0  0  0  0  0  0  0  0  0  0  0
   -1.2340   -0.9060   -0.4535 C   0  0  0  0  0  0  0  0  0  0  0  0
    2.5699   -0.4446    0.2506 C   0  0  0  0  0  0  0  0  0  0  0  0
   -0.1158    2.0337   -0.5490 C   0  0  0  0  0  0  0  0  0  0  0  0
  1  5  1  0
  2  3  1  0
  2  4  1  0
  2  5  1  0
  3  6  1  0
  4  7  1  0
M  END
>  <PUBCHEM_COMPOUND_CID>  (1) 
7358

>  <PUBCHEM_CONFORMER_RMSD>  (1) 
0.4

>  <PUBCHEM_CONFORMER_DIVERSEORDER>  (1) 
1
16
7
13
17
12
11
2
18
5
15
14
6
8
3
10
9
4

>  <PUBCHEM_MMFF94_PARTIAL_CHARGES>  (1) 
3
1 -0.68
21 0.4
5 0.28

>  <PUBCHEM_EFFECTIVE_ROTOR_COUNT>  (1) 
3

>  <PUBCHEM_PHARMACOPHORE_FEATURES>  (1) 
4
1 1 acceptor
1 1 donor
1 6 hydrophobe
1 7 hydrophobe

>  <PUBCHEM_HEAVY_ATOM_COUNT>  (1) 
7

>  <PUBCHEM_ATOM_DEF_STEREO_COUNT>  (1) 
0

>  <PUBCHEM_ATOM_UDEF_STEREO_COUNT>  (1) 
0

>  <PUBCHEM_BOND_DEF_STEREO_COUNT>  (1) 
0

>  <PUBCHEM_BOND_UDEF_STEREO_COUNT>  (1) 
0

>  <PUBCHEM_ISOTOPIC_ATOM_COUNT>  (1) 
0

>  <PUBCHEM_COMPONENT_COUNT>  (1) 
1

>  <PUBCHEM_CACTVS_TAUTO_COUNT>  (1) 
1

>  <PUBCHEM_CONFORMER_ID>  (1) 
00001CBE00000001

>  <PUBCHEM_MMFF94_ENERGY>  (1) 
4.9688

>  <PUBCHEM_FEATURE_SELFOVERLAP>  (1) 
20.297

>  <PUBCHEM_SHAPE_FINGERPRINT>  (1) 
137420 1 13105859414132048808
16714656 1 18342458097360119654
20653091 64 18193564599485873675
20711978 78 16127534740093181022
21040471 1 17545321878433687260
23552449 1 18266172838585869084
24536 1 17200223734549236898
29004967 10 18409452513393132466
5943 1 15527355713433303049

>  <PUBCHEM_SHAPE_MULTIPOLES>  (1) 
138.19
2.68
1.7
0.8
0.74
1.1
-0.01
-1.14
0.2
-0.42
-0.29
0
0.1
0.05

>  <PUBCHEM_SHAPE_SELFOVERLAP>  (1) 
240.14

>  <PUBCHEM_SHAPE_VOLUME>  (1) 
92.3

>  <PUBCHEM_COORDINATE_TYPE>  (1) 
2
5
10

$$$$
