7360
     RDKit          3D

  7  7  0  0  1  0  0  0  0  0999 V2000
    0.1424    1.0501    0.0222 O   0  0  0  0  0  0  0  0  0  0  0  0
   -2.5972    0.3670    0.1423 O   0  0  0  0  0  0  0  0  0  0  0  0
   -0.3055   -0.2786    0.3388 C   0  0  0  0  0  0  0  0  0  0  0  0
    0.8064   -1.2158   -0.0999 C   0  0  0  0  0  0  0  0  0  0  0  0
    2.0301   -0.3764    0.1689 C   0  0  0  0  0  0  0  0  0  0  0  0
    1.5552    1.0052   -0.2278 C   0  0  0  0  0  0  0  0  0  0  0  0
   -1.6315   -0.5514   -0.3445 C   0  0  0  0  0  0  0  0  0  0  0  0
  1  3  1  0
  1  6  1  0
  2  7  1  0
  3  4  1  0
  3  7  1  0
  4  5  1  0
  5  6  1  0
M  END
>  <PUBCHEM_COMPOUND_CID>  (1) 
7360

>  <PUBCHEM_CONFORMER_RMSD>  (1) 
0.4

>  <PUBCHEM_CONFORMER_DIVERSEORDER>  (1) 
1
8
2
7
6
4
3
5

>  <PUBCHEM_MMFF94_PARTIAL_CHARGES>  (1) 
6
1 -0.56
17 0.4
2 -0.68
3 0.28
6 0.28
7 0.28

>  <PUBCHEM_EFFECTIVE_ROTOR_COUNT>  (1) 
2

>  <PUBCHEM_PHARMACOPHORE_FEATURES>  (1) 
4
1 1 acceptor
1 2 acceptor
1 2 donor
5 1 3 4 5 6 rings

>  <PUBCHEM_HEAVY_ATOM_COUNT>  (1) 
7

>  <PUBCHEM_ATOM_DEF_STEREO_COUNT>  (1) 
0

>  <PUBCHEM_ATOM_UDEF_STEREO_COUNT>  (1) 
1

>  <PUBCHEM_BOND_DEF_STEREO_COUNT>  (1) 
0

>  <PUBCHEM_BOND_UDEF_STEREO_COUNT>  (1) 
0

>  <PUBCHEM_ISOTOPIC_ATOM_COUNT>  (1) 
0

>  <PUBCHEM_COMPONENT_COUNT>  (1) 
1

>  <PUBCHEM_CACTVS_TAUTO_COUNT>  (1) 
1

>  <PUBCHEM_CONFORMER_ID>  (1) 
00001CC000000001

>  <PUBCHEM_MMFF94_ENERGY>  (1) 
10.317

>  <PUBCHEM_FEATURE_SELFOVERLAP>  (1) 
20.3

>  <PUBCHEM_SHAPE_FINGERPRINT>  (1) 
18185500 45 18343015592763116815
20096714 4 18337672039250628278
21040471 1 18194401314965279888
24536 1 18262788700455975059
29004967 10 18334298643050479386
5460574 1 9295291642383949403

>  <PUBCHEM_SHAPE_MULTIPOLES>  (1) 
132.32
2.88
1.19
0.64
1.28
0
0.01
0.22
0
-0.34
0.06
-0.01
-0.03
-0.12

>  <PUBCHEM_SHAPE_SELFOVERLAP>  (1) 
254.299

>  <PUBCHEM_SHAPE_VOLUME>  (1) 
82.7

>  <PUBCHEM_COORDINATE_TYPE>  (1) 
2
5
10

$$$$
