7366
     RDKit          3D

 10 10  0  0  0  0  0  0  0  0999 V2000
    1.5700   -0.0003    0.0000 C   0  0  0  0  0  0  0  0  0  0  0  0
    0.0323   -0.0041   -0.0002 C   0  0  0  0  0  0  0  0  0  0  0  0
    2.0874    0.7280    1.2594 C   0  0  0  0  0  0  0  0  0  0  0  0
    2.0880    0.7304   -1.2577 C   0  0  0  0  0  0  0  0  0  0  0  0
    2.1987   -1.4121   -0.0013 C   0  0  0  0  0  0  0  0  0  0  0  0
   -0.6220    1.2021   -0.0001 C   0  0  0  0  0  0  0  0  0  0  0  0
   -0.6157   -1.2138   -0.0001 C   0  0  0  0  0  0  0  0  0  0  0  0
   -2.0169    1.1985    0.0000 C   0  0  0  0  0  0  0  0  0  0  0  0
   -2.0106   -1.2174    0.0000 C   0  0  0  0  0  0  0  0  0  0  0  0
   -2.7112   -0.0113    0.0000 C   0  0  0  0  0  0  0  0  0  0  0  0
  1  2  1  0
  1  3  1  0
  1  4  1  0
  1  5  1  0
  2  6  2  0
  2  7  1  0
  6  8  1  0
  7  9  2  0
  8 10  2  0
  9 10  1  0
M  END
>  <PUBCHEM_COMPOUND_CID>  (1) 
7366

>  <PUBCHEM_CONFORMER_RMSD>  (1) 
0.4

>  <PUBCHEM_CONFORMER_DIVERSEORDER>  (1) 
1

>  <PUBCHEM_MMFF94_PARTIAL_CHARGES>  (1) 
12
1 0.14
10 -0.15
2 -0.14
20 0.15
21 0.15
22 0.15
23 0.15
24 0.15
6 -0.15
7 -0.15
8 -0.15
9 -0.15

>  <PUBCHEM_EFFECTIVE_ROTOR_COUNT>  (1) 
1

>  <PUBCHEM_PHARMACOPHORE_FEATURES>  (1) 
2
4 1 3 4 5 hydrophobe
6 2 6 7 8 9 10 rings

>  <PUBCHEM_HEAVY_ATOM_COUNT>  (1) 
10

>  <PUBCHEM_ATOM_DEF_STEREO_COUNT>  (1) 
0

>  <PUBCHEM_ATOM_UDEF_STEREO_COUNT>  (1) 
0

>  <PUBCHEM_BOND_DEF_STEREO_COUNT>  (1) 
0

>  <PUBCHEM_BOND_UDEF_STEREO_COUNT>  (1) 
0

>  <PUBCHEM_ISOTOPIC_ATOM_COUNT>  (1) 
0

>  <PUBCHEM_COMPONENT_COUNT>  (1) 
1

>  <PUBCHEM_CACTVS_TAUTO_COUNT>  (1) 
1

>  <PUBCHEM_CONFORMER_ID>  (1) 
00001CC600000001

>  <PUBCHEM_MMFF94_ENERGY>  (1) 
35.0137

>  <PUBCHEM_FEATURE_SELFOVERLAP>  (1) 
10.148

>  <PUBCHEM_SHAPE_FINGERPRINT>  (1) 
10857977 72 18339916146999393761
12326174 3 16630527323898320310
12423570 1 12748478329432332474
12716758 59 18411696548137782235
12897270 3 18264499531927192188
12932764 1 18060423538119201007
14128692 85 18265906769709577406
14325111 11 18410855421763716897
16945 1 18338797939373722725
19973954 147 18343579637875325976
20645464 45 17917986209018871832
21040471 1 18410573946628698725
23552423 10 18187649084951989523
2748010 2 18411418388860058319
29004967 10 18341048630864345219
3248919 1 18040712597463027915
369184 2 18060129942807967667
5084963 1 18262801752745471585
8030462 33 18411699902333219167

>  <PUBCHEM_SHAPE_MULTIPOLES>  (1) 
205.8
3.84
1.51
0.93
0.4
0.22
0
0.06
0
0.11
0
-0.66
-0.23
0

>  <PUBCHEM_SHAPE_SELFOVERLAP>  (1) 
420.788

>  <PUBCHEM_SHAPE_VOLUME>  (1) 
117.9

>  <PUBCHEM_COORDINATE_TYPE>  (1) 
2
5
10

$$$$
