7371
     RDKit          3D

 10 10  0  0  0  0  0  0  0  0999 V2000
    1.7522    0.0032   -0.0948 S   0  0  0  0  0  0  0  0  0  0  0  0
    2.2279   -0.0027    1.4693 O   0  0  0  0  0  0  0  0  0  0  0  0
    2.1868   -1.2591   -0.6753 O   0  0  0  0  0  0  0  0  0  0  0  0
    2.1570    1.2694   -0.6853 O   0  0  0  0  0  0  0  0  0  0  0  0
    0.0069    0.0004   -0.0434 C   0  0  0  0  0  0  0  0  0  0  0  0
   -0.6919    1.2073   -0.0178 C   0  0  0  0  0  0  0  0  0  0  0  0
   -0.6884   -1.2087   -0.0278 C   0  0  0  0  0  0  0  0  0  0  0  0
   -2.0862    1.2051    0.0232 C   0  0  0  0  0  0  0  0  0  0  0  0
   -2.0827   -1.2109    0.0132 C   0  0  0  0  0  0  0  0  0  0  0  0
   -2.7817   -0.0040    0.0387 C   0  0  0  0  0  0  0  0  0  0  0  0
  1  2  1  0
  1  3  2  0
  1  4  2  0
  1  5  1  0
  5  6  2  0
  5  7  1  0
  6  8  1  0
  7  9  2  0
  8 10  2  0
  9 10  1  0
M  END
>  <PUBCHEM_COMPOUND_CID>  (1) 
7371

>  <PUBCHEM_CONFORMER_RMSD>  (1) 
0.4

>  <PUBCHEM_CONFORMER_DIVERSEORDER>  (1) 
1

>  <PUBCHEM_MMFF94_PARTIAL_CHARGES>  (1) 
16
1 1.49
10 -0.15
11 0.15
12 0.15
13 0.15
14 0.15
15 0.15
16 0.5
2 -0.68
3 -0.65
4 -0.65
5 -0.01
6 -0.15
7 -0.15
8 -0.15
9 -0.15

>  <PUBCHEM_EFFECTIVE_ROTOR_COUNT>  (1) 
1

>  <PUBCHEM_PHARMACOPHORE_FEATURES>  (1) 
5
1 2 acceptor
1 3 acceptor
1 4 acceptor
4 1 2 3 4 anion
6 5 6 7 8 9 10 rings

>  <PUBCHEM_HEAVY_ATOM_COUNT>  (1) 
10

>  <PUBCHEM_ATOM_DEF_STEREO_COUNT>  (1) 
0

>  <PUBCHEM_ATOM_UDEF_STEREO_COUNT>  (1) 
0

>  <PUBCHEM_BOND_DEF_STEREO_COUNT>  (1) 
0

>  <PUBCHEM_BOND_UDEF_STEREO_COUNT>  (1) 
0

>  <PUBCHEM_ISOTOPIC_ATOM_COUNT>  (1) 
0

>  <PUBCHEM_COMPONENT_COUNT>  (1) 
1

>  <PUBCHEM_CACTVS_TAUTO_COUNT>  (1) 
1

>  <PUBCHEM_CONFORMER_ID>  (1) 
00001CCB00000001

>  <PUBCHEM_MMFF94_ENERGY>  (1) 
14.7939

>  <PUBCHEM_FEATURE_SELFOVERLAP>  (1) 
25.428

>  <PUBCHEM_SHAPE_FINGERPRINT>  (1) 
10857977 72 18341887545588761291
12524768 44 18336551606926856853
12716758 59 18342174410770585787
12897270 3 18339371880043070196
14325111 11 18410860936554524541
16945 1 18261954038155220975
19973954 147 18411707568776067333
20645464 45 17775273984895214778
21040471 1 18339923693209550737
23552423 10 18334298655956675039
2748010 2 18412267203299468935
29004967 10 16271930402091085575
3248919 1 18411414016504119189
369184 2 17095517413871172977
5084963 1 18271249304881884161

>  <PUBCHEM_SHAPE_MULTIPOLES>  (1) 
192.04
3.93
1.47
0.84
0.3
0
0.2
-0.01
0.08
-0.24
-0.17
0.51
0
0

>  <PUBCHEM_SHAPE_SELFOVERLAP>  (1) 
385.984

>  <PUBCHEM_SHAPE_VOLUME>  (1) 
112.8

>  <PUBCHEM_COORDINATE_TYPE>  (1) 
2
5
10

$$$$
