7388
     RDKit          3D

 14 14  0  0  0  0  0  0  0  0999 V2000
   -2.7208    0.5748   -0.0873 S   0  0  0  0  0  0  0  0  0  0  0  0
    2.7198    0.5784   -0.0891 S   0  0  0  0  0  0  0  0  0  0  0  0
   -3.0927    0.8612    1.4789 O   0  0  0  0  0  0  0  0  0  0  0  0
    3.0909    0.8655    1.4770 O   0  0  0  0  0  0  0  0  0  0  0  0
   -2.4783    1.8682   -0.7094 O   0  0  0  0  0  0  0  0  0  0  0  0
   -3.7189   -0.3338   -0.6296 O   0  0  0  0  0  0  0  0  0  0  0  0
    3.7423   -0.3168   -0.6104 O   0  0  0  0  0  0  0  0  0  0  0  0
    2.4547    1.8561   -0.7319 O   0  0  0  0  0  0  0  0  0  0  0  0
   -1.2080   -0.2964   -0.0473 C   0  0  0  0  0  0  0  0  0  0  0  0
    1.2080   -0.2946   -0.0494 C   0  0  0  0  0  0  0  0  0  0  0  0
   -0.0006    0.4013   -0.0803 C   0  0  0  0  0  0  0  0  0  0  0  0
   -1.2069   -1.6899    0.0167 C   0  0  0  0  0  0  0  0  0  0  0  0
    1.2090   -1.6881    0.0146 C   0  0  0  0  0  0  0  0  0  0  0  0
    0.0016   -2.3857    0.0475 C   0  0  0  0  0  0  0  0  0  0  0  0
  1  3  1  0
  1  5  2  0
  1  6  2  0
  1  9  1  0
  2  4  1  0
  2  7  2  0
  2  8  2  0
  2 10  1  0
  9 11  2  0
  9 12  1  0
 10 11  1  0
 10 13  2  0
 12 14  2  0
 13 14  1  0
M  END
>  <PUBCHEM_COMPOUND_CID>  (1) 
7388

>  <PUBCHEM_CONFORMER_RMSD>  (1) 
0.6

>  <PUBCHEM_CONFORMER_DIVERSEORDER>  (1) 
2
1
3

>  <PUBCHEM_MMFF94_PARTIAL_CHARGES>  (1) 
20
1 1.49
10 -0.01
11 -0.15
12 -0.15
13 -0.15
14 -0.15
15 0.15
16 0.15
17 0.15
18 0.15
19 0.5
2 1.49
20 0.5
3 -0.68
4 -0.68
5 -0.65
6 -0.65
7 -0.65
8 -0.65
9 -0.01

>  <PUBCHEM_EFFECTIVE_ROTOR_COUNT>  (1) 
2

>  <PUBCHEM_PHARMACOPHORE_FEATURES>  (1) 
9
1 3 acceptor
1 4 acceptor
1 5 acceptor
1 6 acceptor
1 7 acceptor
1 8 acceptor
4 1 3 5 6 anion
4 2 4 7 8 anion
6 9 10 11 12 13 14 rings

>  <PUBCHEM_HEAVY_ATOM_COUNT>  (1) 
14

>  <PUBCHEM_ATOM_DEF_STEREO_COUNT>  (1) 
0

>  <PUBCHEM_ATOM_UDEF_STEREO_COUNT>  (1) 
0

>  <PUBCHEM_BOND_DEF_STEREO_COUNT>  (1) 
0

>  <PUBCHEM_BOND_UDEF_STEREO_COUNT>  (1) 
0

>  <PUBCHEM_ISOTOPIC_ATOM_COUNT>  (1) 
0

>  <PUBCHEM_COMPONENT_COUNT>  (1) 
1

>  <PUBCHEM_CACTVS_TAUTO_COUNT>  (1) 
1

>  <PUBCHEM_CONFORMER_ID>  (1) 
00001CDC00000002

>  <PUBCHEM_MMFF94_ENERGY>  (1) 
16.3653

>  <PUBCHEM_FEATURE_SELFOVERLAP>  (1) 
45.787

>  <PUBCHEM_SHAPE_FINGERPRINT>  (1) 
11132069 177 18339636836654564513
11543360 7 15913035564684092709
12932764 1 18339647711622540847
13380535 21 18338812151167823782
13380535 76 18409445899138455583
14144814 61 18334853922266091472
14325111 11 18410292505895617055
14648413 74 17829890936836649325
14897335 6 18411692201414925574
15309172 13 18335428962789834387
15775835 57 18342742871341140557
16945 1 18260830401348165671
18186145 218 18272937085342855164
19107657 9 18341907289295321809
20281407 28 9799694821939626350
20361792 2 8790884073144817163
20510252 161 18123755523722058978
20645477 56 18338800142982368760
20653085 51 18336557113249120538
21028194 46 18342455945671084206
21524375 3 18412824698370513790
230 275 18410009910117071344
23402539 116 18270104851022603223
23559900 14 18201728371292493020
25 1 18270689662195900486
2748010 2 18046059354830988180
305870 269 18189047612213378203
3071541 236 18116984679589455115
53812653 166 18412547587481255674
6333272 397 18335420222230674101
6333449 129 18340207491616083383
7364860 26 18127408947537495086
81228 2 17979351194126748587

>  <PUBCHEM_SHAPE_MULTIPOLES>  (1) 
260.6
5.77
2.06
0.94
0.03
0.68
-0.3
-2.49
-0.06
-0.01
0.15
0
-0.31
-0.01

>  <PUBCHEM_SHAPE_SELFOVERLAP>  (1) 
520.043

>  <PUBCHEM_SHAPE_VOLUME>  (1) 
154.2

>  <PUBCHEM_COORDINATE_TYPE>  (1) 
2
5
10

$$$$
