7390
     RDKit          3D

 11 11  0  0  0  0  0  0  0  0999 V2000
   -1.9520   -0.0017    0.0000 C   0  0  0  0  0  0  0  0  0  0  0  0
   -0.4143   -0.0034   -0.0001 C   0  0  0  0  0  0  0  0  0  0  0  0
   -2.4706    0.7259   -1.2593 C   0  0  0  0  0  0  0  0  0  0  0  0
   -2.4709    0.7280    1.2579 C   0  0  0  0  0  0  0  0  0  0  0  0
   -2.5787   -1.4145    0.0012 C   0  0  0  0  0  0  0  0  0  0  0  0
    0.2382    1.2038    0.0000 C   0  0  0  0  0  0  0  0  0  0  0  0
    0.2354   -1.2121    0.0000 C   0  0  0  0  0  0  0  0  0  0  0  0
    2.3291   -0.0065    0.0002 C   0  0  0  0  0  0  0  0  0  0  0  0
    1.6330    1.2023    0.0000 C   0  0  0  0  0  0  0  0  0  0  0  0
    1.6303   -1.2136    0.0000 C   0  0  0  0  0  0  0  0  0  0  0  0
    3.8205   -0.0081   -0.0001 C   0  0  0  0  0  0  0  0  0  0  0  0
  1  2  1  0
  1  3  1  0
  1  4  1  0
  1  5  1  0
  2  6  2  0
  2  7  1  0
  6  9  1  0
  7 10  2  0
  8  9  2  0
  8 10  1  0
  8 11  1  0
M  END
>  <PUBCHEM_COMPOUND_CID>  (1) 
7390

>  <PUBCHEM_CONFORMER_RMSD>  (1) 
0.4

>  <PUBCHEM_CONFORMER_DIVERSEORDER>  (1) 
1

>  <PUBCHEM_MMFF94_PARTIAL_CHARGES>  (1) 
12
1 0.14
10 -0.15
11 0.14
2 -0.14
21 0.15
22 0.15
23 0.15
24 0.15
6 -0.15
7 -0.15
8 -0.14
9 -0.15

>  <PUBCHEM_EFFECTIVE_ROTOR_COUNT>  (1) 
1

>  <PUBCHEM_PHARMACOPHORE_FEATURES>  (1) 
2
4 1 3 4 5 hydrophobe
6 2 6 7 8 9 10 rings

>  <PUBCHEM_HEAVY_ATOM_COUNT>  (1) 
11

>  <PUBCHEM_ATOM_DEF_STEREO_COUNT>  (1) 
0

>  <PUBCHEM_ATOM_UDEF_STEREO_COUNT>  (1) 
0

>  <PUBCHEM_BOND_DEF_STEREO_COUNT>  (1) 
0

>  <PUBCHEM_BOND_UDEF_STEREO_COUNT>  (1) 
0

>  <PUBCHEM_ISOTOPIC_ATOM_COUNT>  (1) 
0

>  <PUBCHEM_COMPONENT_COUNT>  (1) 
1

>  <PUBCHEM_CACTVS_TAUTO_COUNT>  (1) 
1

>  <PUBCHEM_CONFORMER_ID>  (1) 
00001CDE00000001

>  <PUBCHEM_MMFF94_ENERGY>  (1) 
37.5962

>  <PUBCHEM_FEATURE_SELFOVERLAP>  (1) 
10.148

>  <PUBCHEM_SHAPE_FINGERPRINT>  (1) 
12032990 46 18411987966211962742
12138202 97 17604692392587771199
124424 183 17531514396048132256
12897270 3 18410005537645178876
12932764 1 18040715861543116994
13024252 1 16008749108939631987
14325111 11 18410856590042242208
15775835 57 18260829284809578055
16945 1 18410575041924506468
17844478 74 17822025193770671833
18186145 218 18412550920550002716
200 152 18131059481224368151
20201158 50 18335697226141323839
23402539 116 14620511165265235417
23402655 69 18266438933617191309
23552423 10 18334015029180022686
2748010 2 18267019651322476476
29004967 10 18187652375002160624
3248919 1 18060134314952929566
369184 2 18040433278628393755
5084963 1 18262798596013080801
528886 8 18413105035164618683
63268167 104 18411134701779913970
8030462 33 17774995761282554455

>  <PUBCHEM_SHAPE_MULTIPOLES>  (1) 
226.37
5.01
1.43
0.9
2.03
0.2
0
0.06
0
-0.21
0
-0.71
-0.21
0

>  <PUBCHEM_SHAPE_SELFOVERLAP>  (1) 
462.882

>  <PUBCHEM_SHAPE_VOLUME>  (1) 
129.1

>  <PUBCHEM_COORDINATE_TYPE>  (1) 
2
5
10

$$$$
