7391
     RDKit          3D

 11 11  0  0  0  0  0  0  0  0999 V2000
   -3.7370   -0.0082   -0.0948 O   0  0  0  0  0  0  0  0  0  0  0  0
    0.4939    0.0006   -0.3996 C   0  0  0  0  0  0  0  0  0  0  0  0
    1.9736   -0.0015   -0.0203 C   0  0  0  0  0  0  0  0  0  0  0  0
   -0.2019   -1.2629    0.1257 C   0  0  0  0  0  0  0  0  0  0  0  0
   -0.1982    1.2662    0.1251 C   0  0  0  0  0  0  0  0  0  0  0  0
   -1.6938   -1.2570   -0.1943 C   0  0  0  0  0  0  0  0  0  0  0  0
   -1.6900    1.2650   -0.1945 C   0  0  0  0  0  0  0  0  0  0  0  0
   -2.3774    0.0046    0.3265 C   0  0  0  0  0  0  0  0  0  0  0  0
    2.6584    1.2510   -0.5927 C   0  0  0  0  0  0  0  0  0  0  0  0
    2.1176   -0.0015    1.5110 C   0  0  0  0  0  0  0  0  0  0  0  0
    2.6549   -1.2561   -0.5921 C   0  0  0  0  0  0  0  0  0  0  0  0
  1  8  1  0
  2  3  1  0
  2  4  1  0
  2  5  1  0
  3  9  1  0
  3 10  1  0
  3 11  1  0
  4  6  1  0
  5  7  1  0
  6  8  1  0
  7  8  1  0
M  END
>  <PUBCHEM_COMPOUND_CID>  (1) 
7391

>  <PUBCHEM_CONFORMER_RMSD>  (1) 
0.6

>  <PUBCHEM_CONFORMER_DIVERSEORDER>  (1) 
1
2

>  <PUBCHEM_MMFF94_PARTIAL_CHARGES>  (1) 
3
1 -0.68
31 0.4
8 0.28

>  <PUBCHEM_EFFECTIVE_ROTOR_COUNT>  (1) 
2.2

>  <PUBCHEM_PHARMACOPHORE_FEATURES>  (1) 
4
1 1 acceptor
1 1 donor
4 3 9 10 11 hydrophobe
6 2 4 5 6 7 8 rings

>  <PUBCHEM_HEAVY_ATOM_COUNT>  (1) 
11

>  <PUBCHEM_ATOM_DEF_STEREO_COUNT>  (1) 
0

>  <PUBCHEM_ATOM_UDEF_STEREO_COUNT>  (1) 
0

>  <PUBCHEM_BOND_DEF_STEREO_COUNT>  (1) 
0

>  <PUBCHEM_BOND_UDEF_STEREO_COUNT>  (1) 
0

>  <PUBCHEM_ISOTOPIC_ATOM_COUNT>  (1) 
0

>  <PUBCHEM_COMPONENT_COUNT>  (1) 
1

>  <PUBCHEM_CACTVS_TAUTO_COUNT>  (1) 
1

>  <PUBCHEM_CONFORMER_ID>  (1) 
00001CDF00000001

>  <PUBCHEM_MMFF94_ENERGY>  (1) 
28.3594

>  <PUBCHEM_FEATURE_SELFOVERLAP>  (1) 
20.297

>  <PUBCHEM_SHAPE_FINGERPRINT>  (1) 
10857977 72 18341043094846685969
12032990 46 18410302406270293195
12524768 44 18336829783268450868
12897270 3 18339652242797337412
12932764 1 18411135839898761487
14325111 11 18410859845532591573
15775835 57 18186523232305436061
16945 1 18410851066413541285
170605 34 17968946408703952132
19973954 147 18411423877775644948
20201158 50 18272938189228818502
21040471 1 18339920416007033616
23235685 24 18412543227677870189
23552423 10 18334577927805060406
2748010 2 18122624946853981975
29004967 10 16272211860146422422
3248919 1 18411694400395619295
369184 2 18343018891456099791
5084963 1 18271810060159771280
528886 8 18339927111966569126
7364860 26 18341896307744213540

>  <PUBCHEM_SHAPE_MULTIPOLES>  (1) 
220.51
4.72
1.5
0.92
1.66
0
-0.28
-0.01
0.2
-0.16
0.2
-0.59
0
0

>  <PUBCHEM_SHAPE_SELFOVERLAP>  (1) 
430.721

>  <PUBCHEM_SHAPE_VOLUME>  (1) 
133.5

>  <PUBCHEM_COORDINATE_TYPE>  (1) 
2
5
10

$$$$
