7392
     RDKit          3D

 11 11  0  0  0  0  0  0  0  0999 V2000
    3.5145   -0.0001   -0.4850 O   0  0  0  0  0  0  0  0  0  0  0  0
   -0.4921    0.0000    0.4343 C   0  0  0  0  0  0  0  0  0  0  0  0
   -1.9453   -0.0001   -0.0368 C   0  0  0  0  0  0  0  0  0  0  0  0
    0.2358   -1.2591   -0.0588 C   0  0  0  0  0  0  0  0  0  0  0  0
    0.2356    1.2592   -0.0586 C   0  0  0  0  0  0  0  0  0  0  0  0
    1.6904   -1.2850    0.3923 C   0  0  0  0  0  0  0  0  0  0  0  0
    1.6904    1.2852    0.3919 C   0  0  0  0  0  0  0  0  0  0  0  0
   -2.6627    1.2535    0.4917 C   0  0  0  0  0  0  0  0  0  0  0  0
   -1.9932    0.0001   -1.5742 C   0  0  0  0  0  0  0  0  0  0  0  0
   -2.6626   -1.2536    0.4914 C   0  0  0  0  0  0  0  0  0  0  0  0
    2.3893    0.0000    0.0120 C   0  0  0  0  0  0  0  0  0  0  0  0
  1 11  2  0
  2  3  1  0
  2  4  1  0
  2  5  1  0
  3  8  1  0
  3  9  1  0
  3 10  1  0
  4  6  1  0
  5  7  1  0
  6 11  1  0
  7 11  1  0
M  END
>  <PUBCHEM_COMPOUND_CID>  (1) 
7392

>  <PUBCHEM_CONFORMER_RMSD>  (1) 
0.4

>  <PUBCHEM_CONFORMER_DIVERSEORDER>  (1) 
1
3
4
2

>  <PUBCHEM_MMFF94_PARTIAL_CHARGES>  (1) 
4
1 -0.57
11 0.45
6 0.06
7 0.06

>  <PUBCHEM_EFFECTIVE_ROTOR_COUNT>  (1) 
2

>  <PUBCHEM_PHARMACOPHORE_FEATURES>  (1) 
3
1 1 acceptor
4 3 8 9 10 hydrophobe
6 2 4 5 6 7 11 rings

>  <PUBCHEM_HEAVY_ATOM_COUNT>  (1) 
11

>  <PUBCHEM_ATOM_DEF_STEREO_COUNT>  (1) 
0

>  <PUBCHEM_ATOM_UDEF_STEREO_COUNT>  (1) 
0

>  <PUBCHEM_BOND_DEF_STEREO_COUNT>  (1) 
0

>  <PUBCHEM_BOND_UDEF_STEREO_COUNT>  (1) 
0

>  <PUBCHEM_ISOTOPIC_ATOM_COUNT>  (1) 
0

>  <PUBCHEM_COMPONENT_COUNT>  (1) 
1

>  <PUBCHEM_CACTVS_TAUTO_COUNT>  (1) 
2

>  <PUBCHEM_CONFORMER_ID>  (1) 
00001CE000000001

>  <PUBCHEM_MMFF94_ENERGY>  (1) 
27.5016

>  <PUBCHEM_FEATURE_SELFOVERLAP>  (1) 
15.223

>  <PUBCHEM_SHAPE_FINGERPRINT>  (1) 
12138202 97 17241303829720261327
12897270 3 18408598171383208582
12932764 1 18410851062102749777
14325111 11 18410858784654563984
15775835 57 18334581213264877900
16945 1 18410565189105901832
17844478 74 17604159146570276225
19973954 147 18410293652815675273
20201158 50 18334292067529551563
21040471 1 18338232790439244040
21293036 1 18335708286177775428
23235685 24 18335420153521863872
23402655 69 18268697330532343389
23552423 10 18335139833907173585
2748010 2 18193553591400187256
29004967 10 18408603656051177474
3248919 1 18337097999644241002
369184 2 16515681122115518795
5084963 1 17822571719526306677
528886 8 18411134706048546585
63268167 104 18339360755961696520
8030462 33 18342164557957301181

>  <PUBCHEM_SHAPE_MULTIPOLES>  (1) 
220.51
4.57
1.51
0.95
1.13
0
-0.31
0
-0.19
-0.13
0.24
-0.49
0
0

>  <PUBCHEM_SHAPE_SELFOVERLAP>  (1) 
435.338

>  <PUBCHEM_SHAPE_VOLUME>  (1) 
132

>  <PUBCHEM_COORDINATE_TYPE>  (1) 
2
5
10

$$$$
