740
     RDKit          3D

 16 16  0  0  1  0  0  0  0  0999 V2000
    3.0296   -0.0376    0.0062 P   0  0  0  0  0  0  0  0  0  0  0  0
   -0.1296   -0.8296   -0.4576 O   0  0  0  0  0  0  0  0  0  0  0  0
   -2.7536    2.3336   -0.3234 O   0  0  0  0  0  0  0  0  0  0  0  0
    1.7035    0.5909   -0.6669 O   0  0  0  0  0  0  0  0  0  0  0  0
   -3.6119   -0.2640    0.5673 O   0  0  0  0  0  0  0  0  0  0  0  0
   -0.7980   -3.4380    0.0649 O   0  0  0  0  0  0  0  0  0  0  0  0
    2.6498   -1.5938    0.2281 O   0  0  0  0  0  0  0  0  0  0  0  0
    2.9883    0.5724    1.5033 O   0  0  0  0  0  0  0  0  0  0  0  0
    4.3049    0.2109   -0.7446 O   0  0  0  0  0  0  0  0  0  0  0  0
    0.0866    2.8152    0.1973 N   0  0  0  0  0  0  0  0  0  0  0  0
   -1.8752    1.3462    0.2198 C   0  0  0  0  0  0  0  0  0  0  0  0
   -0.4679    1.5710   -0.3441 C   0  0  0  0  0  0  0  0  0  0  0  0
   -2.4025   -0.0425   -0.1533 C   0  0  0  0  0  0  0  0  0  0  0  0
   -1.3706   -1.1216    0.1886 C   0  0  0  0  0  0  0  0  0  0  0  0
    0.4543    0.3933   -0.0067 C   0  0  0  0  0  0  0  0  0  0  0  0
   -1.8076   -2.5064   -0.2789 C   0  0  0  0  0  0  0  0  0  0  0  0
  1  4  1  0
  1  7  1  0
  1  8  1  0
  1  9  2  0
  2 14  1  0
  2 15  1  0
  3 11  1  0
  4 15  1  0
  5 13  1  0
  6 16  1  0
 10 12  1  0
 11 12  1  0
 11 13  1  0
 12 15  1  0
 13 14  1  0
 14 16  1  0
M  END
>  <PUBCHEM_COMPOUND_CID>  (1) 
740

>  <PUBCHEM_CONFORMER_RMSD>  (1) 
0.6

>  <PUBCHEM_CONFORMER_DIVERSEORDER>  (1) 
1
106
33
101
168
105
145
103
161
49
79
131
149
116
138
41
58
54
164
136
85
117
64
3
155
72
90
70
162
73
115
63
60
156
32
88
146
139
77
11
169
95
122
126
87
91
113
111
69
57
167
83
61
128
2
159
152
53
123
36
150
27
158
120
21
9
165
124
89
97
25
130
50
119
14
99
92
148
13
40
29
39
26
143
66
147
107
134
144
114
10
109
78
71
48
51
129
157
132
7
133
104
163
166
112
52
118
151
55
76
65
45
98
59
110
80
23
121
127
31
135
171
30
141
86
47
35
153
154
68
20
34
140
38
56
16
108
160
17
18
125
96
93
170
43
12
28
8
142
82
67
24
22
75
5
19
37
94
6
137
74
100
81
46
84
42
102
62
44
4
15

>  <PUBCHEM_MMFF94_PARTIAL_CHARGES>  (1) 
23
1 1.51
10 -0.99
11 0.28
12 0.27
13 0.28
14 0.28
15 0.56
16 0.28
2 -0.56
24 0.36
25 0.36
26 0.4
27 0.4
28 0.4
29 0.5
3 -0.68
30 0.5
4 -0.55
5 -0.68
6 -0.68
7 -0.77
8 -0.77
9 -0.7

>  <PUBCHEM_EFFECTIVE_ROTOR_COUNT>  (1) 
4.2

>  <PUBCHEM_PHARMACOPHORE_FEATURES>  (1) 
14
1 10 cation
1 10 donor
1 2 acceptor
1 3 acceptor
1 3 donor
1 5 acceptor
1 5 donor
1 6 acceptor
1 6 donor
1 7 acceptor
1 8 acceptor
1 9 acceptor
4 1 7 8 9 anion
6 2 11 12 13 14 15 rings

>  <PUBCHEM_HEAVY_ATOM_COUNT>  (1) 
16

>  <PUBCHEM_ATOM_DEF_STEREO_COUNT>  (1) 
0

>  <PUBCHEM_ATOM_UDEF_STEREO_COUNT>  (1) 
5

>  <PUBCHEM_BOND_DEF_STEREO_COUNT>  (1) 
0

>  <PUBCHEM_BOND_UDEF_STEREO_COUNT>  (1) 
0

>  <PUBCHEM_ISOTOPIC_ATOM_COUNT>  (1) 
0

>  <PUBCHEM_COMPONENT_COUNT>  (1) 
1

>  <PUBCHEM_CACTVS_TAUTO_COUNT>  (1) 
1

>  <PUBCHEM_CONFORMER_ID>  (1) 
000002E400000001

>  <PUBCHEM_MMFF94_ENERGY>  (1) 
-1.172

>  <PUBCHEM_FEATURE_SELFOVERLAP>  (1) 
71.098

>  <PUBCHEM_SHAPE_FINGERPRINT>  (1) 
10967382 1 18410857654893574743
11680986 33 18053379087490082625
12382932 28 18339355366025828746
12500047 106 18411131403614412548
12553582 1 18192996147452797859
12932764 1 17989199339719894836
13140716 1 18051134984326084563
15279307 12 18187930547555449378
15309172 13 18266470814420703792
15669948 3 18335700563657908462
16752209 62 18336255782612044855
16945 1 18338513152950976589
193761 8 17978793742047554829
20510252 161 18271530797033611801
20645476 183 18114762459236039022
20645477 70 17184457158603876871
20871998 184 18410862053166828791
21650355 55 18266157569913796192
232386 152 18265903625476739550
2334 1 18338798910046881207
23388829 49 17335041847057678628
23402539 116 18343294877781189151
23463225 33 18334861562939038540
23552423 10 17758119585067824509
23557571 272 18200606873268537316
23559900 14 18343302523329384460
23598294 1 18335698317194808248
257057 1 17908131436828958975
2748010 2 18266750069331618271
43471831 8 18263645052605597475
58807428 26 18194683661820488611
6338986 31 17838323439144393655
7364860 26 17765436839029408488
75552 356 18410857676489613668
81228 2 18339352088870738835

>  <PUBCHEM_SHAPE_MULTIPOLES>  (1) 
281.19
5.52
2.99
0.8
4.24
1.09
-0.14
0.01
-0.2
-2.02
0.06
0.42
-0.08
0.07

>  <PUBCHEM_SHAPE_SELFOVERLAP>  (1) 
547.268

>  <PUBCHEM_SHAPE_VOLUME>  (1) 
170.3

>  <PUBCHEM_COORDINATE_TYPE>  (1) 
2
5
10

$$$$
