7401
     RDKit          3D

 12 12  0  0  0  0  0  0  0  0999 V2000
    3.0080    0.2010   -1.7826 Cl  0  0  0  0  0  0  0  0  0  0  0  0
    2.4837    0.1046    0.1937 S   0  0  0  0  0  0  0  0  0  0  0  0
   -3.3859   -0.3982   -0.0771 O   0  0  0  0  0  0  0  0  0  0  0  0
    3.0441   -1.1342    0.6997 O   0  0  0  0  0  0  0  0  0  0  0  0
    2.8487    1.3969    0.7437 O   0  0  0  0  0  0  0  0  0  0  0  0
    0.7456   -0.0449    0.1134 C   0  0  0  0  0  0  0  0  0  0  0  0
   -0.0531    1.0988    0.1123 C   0  0  0  0  0  0  0  0  0  0  0  0
    0.1558   -1.3074    0.0506 C   0  0  0  0  0  0  0  0  0  0  0  0
   -2.0311   -0.2824   -0.0143 C   0  0  0  0  0  0  0  0  0  0  0  0
   -1.4414    0.9800    0.0486 C   0  0  0  0  0  0  0  0  0  0  0  0
   -1.2326   -1.4262   -0.0133 C   0  0  0  0  0  0  0  0  0  0  0  0
   -4.1417    0.8119   -0.0747 C   0  0  0  0  0  0  0  0  0  0  0  0
  1  2  1  0
  2  4  2  0
  2  5  2  0
  2  6  1  0
  3  9  1  0
  3 12  1  0
  6  7  2  0
  6  8  1  0
  7 10  1  0
  8 11  2  0
  9 10  2  0
  9 11  1  0
M  END
>  <PUBCHEM_COMPOUND_CID>  (1) 
7401

>  <PUBCHEM_CONFORMER_RMSD>  (1) 
0.6

>  <PUBCHEM_CONFORMER_DIVERSEORDER>  (1) 
1
2

>  <PUBCHEM_MMFF94_PARTIAL_CHARGES>  (1) 
16
1 -0.19
10 -0.15
11 -0.15
12 0.28
13 0.15
14 0.15
15 0.15
16 0.15
2 1.49
3 -0.36
4 -0.65
5 -0.65
6 -0.01
7 -0.15
8 -0.15
9 0.08

>  <PUBCHEM_EFFECTIVE_ROTOR_COUNT>  (1) 
2

>  <PUBCHEM_PHARMACOPHORE_FEATURES>  (1) 
2
1 3 acceptor
6 6 7 8 9 10 11 rings

>  <PUBCHEM_HEAVY_ATOM_COUNT>  (1) 
12

>  <PUBCHEM_ATOM_DEF_STEREO_COUNT>  (1) 
0

>  <PUBCHEM_ATOM_UDEF_STEREO_COUNT>  (1) 
0

>  <PUBCHEM_BOND_DEF_STEREO_COUNT>  (1) 
0

>  <PUBCHEM_BOND_UDEF_STEREO_COUNT>  (1) 
0

>  <PUBCHEM_ISOTOPIC_ATOM_COUNT>  (1) 
0

>  <PUBCHEM_COMPONENT_COUNT>  (1) 
1

>  <PUBCHEM_CACTVS_TAUTO_COUNT>  (1) 
1

>  <PUBCHEM_CONFORMER_ID>  (1) 
00001CE900000001

>  <PUBCHEM_MMFF94_ENERGY>  (1) 
28.1252

>  <PUBCHEM_FEATURE_SELFOVERLAP>  (1) 
10.148

>  <PUBCHEM_SHAPE_FINGERPRINT>  (1) 
10219947 1 18334293154430369609
12032990 46 18412268350135078923
12932764 1 18410578404693917218
14325111 11 18411976979442721193
14993402 34 18259993681700074397
15775835 57 18335139808411604912
16945 1 18272940396767941107
18186145 218 18273218586231995761
18522853 295 18412831261249093734
19026448 4 15913326884116079895
19026448 5 16298386889897249835
20201158 50 17846788403325702254
20279233 1 17846784022416849246
20645476 183 17896333556614148694
20645477 70 16845300414286986876
23402539 116 18059840758138211420
23402655 69 18197199384003043165
23463225 33 18261950747925637146
23552423 10 18045783643863905780
23559900 14 18343308080932598108
2748010 2 18124596641664282403
3248919 1 17240760743673975218
369184 2 18411974788840621178
4990 188 17846502513085577725
5084963 1 17894909577592263386
7364860 26 18269833117068948026
8030462 33 18334021587964244822

>  <PUBCHEM_SHAPE_MULTIPOLES>  (1) 
235.07
6.15
1.4
0.97
2.34
0.15
-0.39
-1.07
-0.66
-0.02
0.17
-1.08
-0.1
-0.06

>  <PUBCHEM_SHAPE_SELFOVERLAP>  (1) 
463.528

>  <PUBCHEM_SHAPE_VOLUME>  (1) 
142.8

>  <PUBCHEM_COORDINATE_TYPE>  (1) 
2
5
10

$$$$
