7402
     RDKit          3D

 12 12  0  0  0  0  0  0  0  0999 V2000
    2.5089   -0.0026    0.1881 S   0  0  0  0  0  0  0  0  0  0  0  0
    3.1051    0.0041   -1.3344 O   0  0  0  0  0  0  0  0  0  0  0  0
    2.8965    1.2597    0.8010 O   0  0  0  0  0  0  0  0  0  0  0  0
    2.8678   -1.2688    0.8077 O   0  0  0  0  0  0  0  0  0  0  0  0
   -2.0006    0.0027   -0.2973 C   0  0  0  0  0  0  0  0  0  0  0  0
   -3.4835    0.0045   -0.4572 C   0  0  0  0  0  0  0  0  0  0  0  0
    0.7731   -0.0012    0.0009 C   0  0  0  0  0  0  0  0  0  0  0  0
   -1.3062    1.2097   -0.2172 C   0  0  0  0  0  0  0  0  0  0  0  0
   -1.3083   -1.2063   -0.2283 C   0  0  0  0  0  0  0  0  0  0  0  0
    0.0806    1.2078   -0.0682 C   0  0  0  0  0  0  0  0  0  0  0  0
    0.0786   -1.2083   -0.0791 C   0  0  0  0  0  0  0  0  0  0  0  0
   -4.2121   -0.0014    0.8841 C   0  0  0  0  0  0  0  0  0  0  0  0
  1  2  1  0
  1  3  2  0
  1  4  2  0
  1  7  1  0
  5  6  1  0
  5  8  2  0
  5  9  1  0
  6 12  1  0
  7 10  2  0
  7 11  1  0
  8 10  1  0
  9 11  2  0
M  END
>  <PUBCHEM_COMPOUND_CID>  (1) 
7402

>  <PUBCHEM_CONFORMER_RMSD>  (1) 
0.6

>  <PUBCHEM_CONFORMER_DIVERSEORDER>  (1) 
1

>  <PUBCHEM_MMFF94_PARTIAL_CHARGES>  (1) 
16
1 1.49
10 -0.15
11 -0.15
15 0.15
16 0.15
17 0.15
18 0.15
2 -0.68
22 0.5
3 -0.65
4 -0.65
5 -0.14
6 0.14
7 -0.01
8 -0.15
9 -0.15

>  <PUBCHEM_EFFECTIVE_ROTOR_COUNT>  (1) 
2

>  <PUBCHEM_PHARMACOPHORE_FEATURES>  (1) 
6
1 12 hydrophobe
1 2 acceptor
1 3 acceptor
1 4 acceptor
4 1 2 3 4 anion
6 5 7 8 9 10 11 rings

>  <PUBCHEM_HEAVY_ATOM_COUNT>  (1) 
12

>  <PUBCHEM_ATOM_DEF_STEREO_COUNT>  (1) 
0

>  <PUBCHEM_ATOM_UDEF_STEREO_COUNT>  (1) 
0

>  <PUBCHEM_BOND_DEF_STEREO_COUNT>  (1) 
0

>  <PUBCHEM_BOND_UDEF_STEREO_COUNT>  (1) 
0

>  <PUBCHEM_ISOTOPIC_ATOM_COUNT>  (1) 
0

>  <PUBCHEM_COMPONENT_COUNT>  (1) 
1

>  <PUBCHEM_CACTVS_TAUTO_COUNT>  (1) 
1

>  <PUBCHEM_CONFORMER_ID>  (1) 
00001CEA00000001

>  <PUBCHEM_MMFF94_ENERGY>  (1) 
17.0625

>  <PUBCHEM_FEATURE_SELFOVERLAP>  (1) 
30.503

>  <PUBCHEM_SHAPE_FINGERPRINT>  (1) 
10219947 1 18410290311568196853
11062470 55 13830131693761025955
11132069 177 18342448262127533457
12032990 46 18335423443735909331
12932764 1 18410567388097508932
13760787 5 18260829293663250487
14144814 61 18411697682009102913
14325111 11 18410849958486195133
14993402 34 18411699902654881639
15775835 57 18411697712089737194
16945 1 18410569587294831261
17844478 74 18040152903374404965
18186145 218 18202281403053467917
18522853 295 18412547583028091286
19026448 4 16008746901189415375
19026448 5 16056879143676499277
20281407 28 18113901576360493513
20559304 39 18335696092781628282
20645476 183 17895204345303358198
23402655 69 18123448524883882429
23463225 33 18262232222886510418
23552423 10 18117556451479022692
2748010 2 18122620823637937415
3248919 1 17132105857749911662
369184 2 18340193150709433710
5084963 1 17822568292353414100
7364860 26 18342170047585135330

>  <PUBCHEM_SHAPE_MULTIPOLES>  (1) 
233.2
6.23
1.32
0.9
1.91
0
-0.03
-0.01
0.89
-0.34
0.09
-0.22
0
0

>  <PUBCHEM_SHAPE_SELFOVERLAP>  (1) 
466.905

>  <PUBCHEM_SHAPE_VOLUME>  (1) 
137.9

>  <PUBCHEM_COORDINATE_TYPE>  (1) 
2
5
10

$$$$
