7417
     RDKit          3D

 10 10  0  0  0  0  0  0  0  0999 V2000
    2.3395    1.5407   -0.0004 O   0  0  0  0  0  0  0  0  0  0  0  0
   -2.7917    1.4914    0.0001 N   0  0  0  0  0  0  0  0  0  0  0  0
    0.5764   -0.0534    0.0000 C   0  0  0  0  0  0  0  0  0  0  0  0
   -0.4325    0.9098    0.0001 C   0  0  0  0  0  0  0  0  0  0  0  0
   -1.7711    0.5177    0.0001 C   0  0  0  0  0  0  0  0  0  0  0  0
    0.2468   -1.4088   -0.0002 C   0  0  0  0  0  0  0  0  0  0  0  0
   -2.1008   -0.8377    0.0000 C   0  0  0  0  0  0  0  0  0  0  0  0
    1.9724    0.3546    0.0002 C   0  0  0  0  0  0  0  0  0  0  0  0
   -1.0919   -1.8009   -0.0001 C   0  0  0  0  0  0  0  0  0  0  0  0
    3.0527   -0.7134    0.0003 C   0  0  0  0  0  0  0  0  0  0  0  0
  1  8  2  0
  2  5  1  0
  3  4  2  0
  3  6  1  0
  3  8  1  0
  4  5  1  0
  5  7  2  0
  6  9  2  0
  7  9  1  0
  8 10  1  0
M  END
>  <PUBCHEM_COMPOUND_CID>  (1) 
7417

>  <PUBCHEM_CONFORMER_RMSD>  (1) 
0.4

>  <PUBCHEM_CONFORMER_DIVERSEORDER>  (1) 
1
3
2
4

>  <PUBCHEM_MMFF94_PARTIAL_CHARGES>  (1) 
16
1 -0.57
10 0.06
11 0.15
12 0.15
13 0.15
14 0.15
18 0.4
19 0.4
2 -0.9
3 0.09
4 -0.15
5 0.1
6 -0.15
7 -0.15
8 0.42
9 -0.15

>  <PUBCHEM_EFFECTIVE_ROTOR_COUNT>  (1) 
1

>  <PUBCHEM_PHARMACOPHORE_FEATURES>  (1) 
4
1 1 acceptor
1 2 cation
1 2 donor
6 3 4 5 6 7 9 rings

>  <PUBCHEM_HEAVY_ATOM_COUNT>  (1) 
10

>  <PUBCHEM_ATOM_DEF_STEREO_COUNT>  (1) 
0

>  <PUBCHEM_ATOM_UDEF_STEREO_COUNT>  (1) 
0

>  <PUBCHEM_BOND_DEF_STEREO_COUNT>  (1) 
0

>  <PUBCHEM_BOND_UDEF_STEREO_COUNT>  (1) 
0

>  <PUBCHEM_ISOTOPIC_ATOM_COUNT>  (1) 
0

>  <PUBCHEM_COMPONENT_COUNT>  (1) 
1

>  <PUBCHEM_CACTVS_TAUTO_COUNT>  (1) 
2

>  <PUBCHEM_CONFORMER_ID>  (1) 
00001CF900000001

>  <PUBCHEM_MMFF94_ENERGY>  (1) 
36.3917

>  <PUBCHEM_FEATURE_SELFOVERLAP>  (1) 
20.297

>  <PUBCHEM_SHAPE_FINGERPRINT>  (1) 
12716758 59 18412822507963228954
12932764 1 17631453534860781654
13380535 76 18339077078020379039
14325111 11 18410855464486595008
15775835 57 18260554385538567372
16945 1 18338797797376174790
193761 8 14591804522527786310
19973954 147 18338518659077976988
20653085 51 18409459076118731648
20871998 184 18128262387667207095
21040471 1 18410856542565460899
23235685 24 18339918199819837073
23402655 69 18052239715004478301
23552423 10 18188771768302730926
241688 4 16394934640765406811
2748010 2 18410856598326143886
369184 2 18342738571635798138
5084963 1 18272932738799047914

>  <PUBCHEM_SHAPE_MULTIPOLES>  (1) 
194.94
4.01
1.76
0.6
1.34
0.16
0
-0.83
0
-0.45
0
0
0.03
0

>  <PUBCHEM_SHAPE_SELFOVERLAP>  (1) 
405.223

>  <PUBCHEM_SHAPE_VOLUME>  (1) 
111.9

>  <PUBCHEM_COORDINATE_TYPE>  (1) 
2
5
10

$$$$
