7420
     RDKit          3D

 10 10  0  0  0  0  0  0  0  0999 V2000
   -2.7174    1.5039    0.0005 O   0  0  0  0  0  0  0  0  0  0  0  0
    2.8294   -0.7452    0.0009 O   0  0  0  0  0  0  0  0  0  0  0  0
    2.4154    1.4898   -0.0002 O   0  0  0  0  0  0  0  0  0  0  0  0
    0.5911   -0.0581   -0.0003 C   0  0  0  0  0  0  0  0  0  0  0  0
   -0.4028    0.9206   -0.0002 C   0  0  0  0  0  0  0  0  0  0  0  0
    0.2406   -1.4082   -0.0002 C   0  0  0  0  0  0  0  0  0  0  0  0
   -1.7473    0.5492   -0.0001 C   0  0  0  0  0  0  0  0  0  0  0  0
   -1.1040   -1.7796   -0.0001 C   0  0  0  0  0  0  0  0  0  0  0  0
   -2.0979   -0.8009    0.0000 C   0  0  0  0  0  0  0  0  0  0  0  0
    1.9929    0.3288   -0.0003 C   0  0  0  0  0  0  0  0  0  0  0  0
  1  7  1  0
  2 10  1  0
  3 10  2  0
  4  5  2  0
  4  6  1  0
  4 10  1  0
  5  7  1  0
  6  8  2  0
  7  9  2  0
  8  9  1  0
M  END
>  <PUBCHEM_COMPOUND_CID>  (1) 
7420

>  <PUBCHEM_CONFORMER_RMSD>  (1) 
0.4

>  <PUBCHEM_CONFORMER_DIVERSEORDER>  (1) 
1
2

>  <PUBCHEM_MMFF94_PARTIAL_CHARGES>  (1) 
16
1 -0.53
10 0.63
11 0.15
12 0.15
13 0.15
14 0.15
15 0.45
16 0.5
2 -0.65
3 -0.57
4 0.09
5 -0.15
6 -0.15
7 0.08
8 -0.15
9 -0.15

>  <PUBCHEM_EFFECTIVE_ROTOR_COUNT>  (1) 
1

>  <PUBCHEM_PHARMACOPHORE_FEATURES>  (1) 
5
1 1 donor
1 2 acceptor
1 3 acceptor
3 2 3 10 anion
6 4 5 6 7 8 9 rings

>  <PUBCHEM_HEAVY_ATOM_COUNT>  (1) 
10

>  <PUBCHEM_ATOM_DEF_STEREO_COUNT>  (1) 
0

>  <PUBCHEM_ATOM_UDEF_STEREO_COUNT>  (1) 
0

>  <PUBCHEM_BOND_DEF_STEREO_COUNT>  (1) 
0

>  <PUBCHEM_BOND_UDEF_STEREO_COUNT>  (1) 
0

>  <PUBCHEM_ISOTOPIC_ATOM_COUNT>  (1) 
0

>  <PUBCHEM_COMPONENT_COUNT>  (1) 
1

>  <PUBCHEM_CACTVS_TAUTO_COUNT>  (1) 
3

>  <PUBCHEM_CONFORMER_ID>  (1) 
00001CFC00000001

>  <PUBCHEM_MMFF94_ENERGY>  (1) 
26.452

>  <PUBCHEM_FEATURE_SELFOVERLAP>  (1) 
25.429

>  <PUBCHEM_SHAPE_FINGERPRINT>  (1) 
12932764 1 17631453530539447086
14325111 11 18410855460149423200
16945 1 18338516322431197095
193761 8 15888558571918635239
19973954 147 18338518654761923676
20653085 51 18410304596244412088
20871998 184 18127982012249590479
21040471 1 18410573968056023463
23235685 24 18339637824418057705
23552423 10 18260829349418859686
241688 4 16466991135281150963
2748010 2 18410857680631541735
369184 2 18341894142379030874
5084963 1 18272932730161634050

>  <PUBCHEM_SHAPE_MULTIPOLES>  (1) 
188.19
3.69
1.74
0.59
1.21
0.15
0
-0.92
0
-0.49
0
-0.03
0.02
0

>  <PUBCHEM_SHAPE_SELFOVERLAP>  (1) 
397.239

>  <PUBCHEM_SHAPE_VOLUME>  (1) 
105.9

>  <PUBCHEM_COORDINATE_TYPE>  (1) 
2
5
10

$$$$
