7429
     RDKit          3D

 12 12  0  0  0  0  0  0  0  0999 V2000
    1.9155    2.8711    0.0016 Br  0  0  0  0  0  0  0  0  0  0  0  0
    1.9136   -2.8720    0.0039 Br  0  0  0  0  0  0  0  0  0  0  0  0
    3.0673    0.0000   -0.0017 O   0  0  0  0  0  0  0  0  0  0  0  0
   -3.1159   -1.0971   -0.0008 O   0  0  0  0  0  0  0  0  0  0  0  0
   -3.1155    1.0981    0.0014 O   0  0  0  0  0  0  0  0  0  0  0  0
   -2.5078    0.0004    0.0000 N   0  0  0  0  0  0  0  0  0  0  0  0
   -1.0877    0.0000   -0.0003 C   0  0  0  0  0  0  0  0  0  0  0  0
   -0.3904   -1.2081   -0.0014 C   0  0  0  0  0  0  0  0  0  0  0  0
   -0.3902    1.2080    0.0003 C   0  0  0  0  0  0  0  0  0  0  0  0
    1.7020   -0.0002   -0.0012 C   0  0  0  0  0  0  0  0  0  0  0  0
    1.0047    1.2078   -0.0002 C   0  0  0  0  0  0  0  0  0  0  0  0
    1.0045   -1.2081   -0.0018 C   0  0  0  0  0  0  0  0  0  0  0  0
  1 11  1  0
  2 12  1  0
  3 10  1  0
  4  6  1  0
  5  6  2  0
  6  7  1  0
  7  8  2  0
  7  9  1  0
  8 12  1  0
  9 11  2  0
 10 11  1  0
 10 12  2  0
M  CHG  2   4  -1   6   1
M  END
>  <PUBCHEM_COMPOUND_CID>  (1) 
7429

>  <PUBCHEM_CONFORMER_RMSD>  (1) 
0.4

>  <PUBCHEM_CONFORMER_DIVERSEORDER>  (1) 
1

>  <PUBCHEM_MMFF94_PARTIAL_CHARGES>  (1) 
15
1 -0.11
10 0.08
11 0.11
12 0.11
13 0.15
14 0.15
15 0.45
2 -0.11
3 -0.53
4 -0.52
5 -0.52
6 0.91
7 0.13
8 -0.15
9 -0.15

>  <PUBCHEM_EFFECTIVE_ROTOR_COUNT>  (1) 
1

>  <PUBCHEM_PHARMACOPHORE_FEATURES>  (1) 
7
1 1 hydrophobe
1 2 hydrophobe
1 3 donor
1 4 acceptor
1 4 anion
1 5 acceptor
6 7 8 9 10 11 12 rings

>  <PUBCHEM_HEAVY_ATOM_COUNT>  (1) 
12

>  <PUBCHEM_ATOM_DEF_STEREO_COUNT>  (1) 
0

>  <PUBCHEM_ATOM_UDEF_STEREO_COUNT>  (1) 
0

>  <PUBCHEM_BOND_DEF_STEREO_COUNT>  (1) 
0

>  <PUBCHEM_BOND_UDEF_STEREO_COUNT>  (1) 
0

>  <PUBCHEM_ISOTOPIC_ATOM_COUNT>  (1) 
0

>  <PUBCHEM_COMPONENT_COUNT>  (1) 
1

>  <PUBCHEM_CACTVS_TAUTO_COUNT>  (1) 
4

>  <PUBCHEM_CONFORMER_ID>  (1) 
00001D0500000001

>  <PUBCHEM_MMFF94_ENERGY>  (1) 
31.1757

>  <PUBCHEM_FEATURE_SELFOVERLAP>  (1) 
35.602

>  <PUBCHEM_SHAPE_FINGERPRINT>  (1) 
1 1 18338517550949885166
13380535 76 17979915239671025716
13380536 305 18338806731303802452
14325111 11 18338799047443974369
14648413 74 18408323276544503769
16945 1 18410573985209473412
17990270 104 18409728430777101067
20645477 70 18337102467080505711
20711985 365 17760649166027979724
20871998 22 17981608169639847382
21040471 1 17978510063663093380
21524375 3 18055072331049103844
2334 1 17978510067899733092
23402655 69 18268414760481332237
23552423 10 18411420630811796783
241688 4 17906173953922808328
2748010 2 18048040958468372566
5084963 1 18130228262759372097
63268167 104 18338802204207728105
7364860 26 18412544314526031616
81228 2 17474676044367056026

>  <PUBCHEM_SHAPE_MULTIPOLES>  (1) 
236.25
4.15
3.12
0.61
3.11
0
0
0
0
-2.75
0
-0.09
0
0

>  <PUBCHEM_SHAPE_SELFOVERLAP>  (1) 
468.886

>  <PUBCHEM_SHAPE_VOLUME>  (1) 
146.9

>  <PUBCHEM_COORDINATE_TYPE>  (1) 
2
5
10

$$$$
