7432
     RDKit          3D

 15 15  0  0  0  0  0  0  0  0999 V2000
   -3.9576   -0.7438    0.0019 Cl  0  0  0  0  0  0  0  0  0  0  0  0
    2.5587   -2.5719    0.0006 O   0  0  0  0  0  0  0  0  0  0  0  0
   -1.1964    3.3668   -0.0010 O   0  0  0  0  0  0  0  0  0  0  0  0
    3.5793   -0.6284    0.0004 O   0  0  0  0  0  0  0  0  0  0  0  0
    0.9970    3.4556    0.0009 O   0  0  0  0  0  0  0  0  0  0  0  0
   -2.2978   -2.7787   -0.0001 O   0  0  0  0  0  0  0  0  0  0  0  0
    2.5308   -1.3175    0.0003 N   0  0  0  0  0  0  0  0  0  0  0  0
   -0.0751    2.8037   -0.0001 N   0  0  0  0  0  0  0  0  0  0  0  0
    1.2736   -0.6572   -0.0006 C   0  0  0  0  0  0  0  0  0  0  0  0
   -0.0177    1.3848    0.0003 C   0  0  0  0  0  0  0  0  0  0  0  0
   -1.1405   -0.7546   -0.0009 C   0  0  0  0  0  0  0  0  0  0  0  0
    1.2175    0.7366    0.0001 C   0  0  0  0  0  0  0  0  0  0  0  0
    0.0945   -1.4027   -0.0011 C   0  0  0  0  0  0  0  0  0  0  0  0
   -1.1966    0.6391   -0.0003 C   0  0  0  0  0  0  0  0  0  0  0  0
   -2.3697   -1.5319   -0.0004 C   0  0  0  0  0  0  0  0  0  0  0  0
  1 15  1  0
  2  7  1  0
  3  8  1  0
  4  7  2  0
  5  8  2  0
  6 15  2  0
  7  9  1  0
  8 10  1  0
  9 12  2  0
  9 13  1  0
 10 12  1  0
 10 14  2  0
 11 13  2  0
 11 14  1  0
 11 15  1  0
M  CHG  4   2  -1   3  -1   7   1   8   1
M  END
>  <PUBCHEM_COMPOUND_CID>  (1) 
7432

>  <PUBCHEM_CONFORMER_RMSD>  (1) 
0.6

>  <PUBCHEM_CONFORMER_DIVERSEORDER>  (1) 
1
2

>  <PUBCHEM_MMFF94_PARTIAL_CHARGES>  (1) 
18
1 -0.21
10 0.13
11 0.09
12 -0.15
13 -0.15
14 -0.15
15 0.69
16 0.15
17 0.15
18 0.15
2 -0.52
3 -0.52
4 -0.52
5 -0.52
6 -0.57
7 0.91
8 0.91
9 0.13

>  <PUBCHEM_EFFECTIVE_ROTOR_COUNT>  (1) 
3

>  <PUBCHEM_PHARMACOPHORE_FEATURES>  (1) 
7
1 2 acceptor
1 2 anion
1 3 acceptor
1 3 anion
1 4 acceptor
1 5 acceptor
6 9 10 11 12 13 14 rings

>  <PUBCHEM_HEAVY_ATOM_COUNT>  (1) 
15

>  <PUBCHEM_ATOM_DEF_STEREO_COUNT>  (1) 
0

>  <PUBCHEM_ATOM_UDEF_STEREO_COUNT>  (1) 
0

>  <PUBCHEM_BOND_DEF_STEREO_COUNT>  (1) 
0

>  <PUBCHEM_BOND_UDEF_STEREO_COUNT>  (1) 
0

>  <PUBCHEM_ISOTOPIC_ATOM_COUNT>  (1) 
0

>  <PUBCHEM_COMPONENT_COUNT>  (1) 
1

>  <PUBCHEM_CACTVS_TAUTO_COUNT>  (1) 
1

>  <PUBCHEM_CONFORMER_ID>  (1) 
00001D0800000001

>  <PUBCHEM_MMFF94_ENERGY>  (1) 
48.7189

>  <PUBCHEM_FEATURE_SELFOVERLAP>  (1) 
35.686

>  <PUBCHEM_SHAPE_FINGERPRINT>  (1) 
1 1 17545601613763948957
10967382 1 18338797930572804551
12553582 1 18410856563940700726
13380535 76 17255957299939625243
14648413 74 18120372318264927171
15042514 8 17976824177208912179
15442244 35 18340491157632516707
15490181 7 17331411865464342355
15490181 8 17112399027641418719
16945 1 18194401095906318406
17990270 104 18121494915131052443
19021347 4 17329709821195292499
193761 8 18410855473024243300
19591789 44 16970556508641215607
20510252 161 18126280840069677402
20645477 70 17831847320416250071
20711985 365 18193556658033554662
20871998 184 18129095619748762582
21029758 11 18411410709679981711
21524375 3 17190929468001392492
2334 1 18338517572245444815
23402539 116 18199174114737783535
23419403 2 17826756456824557860
23526114 1 18050288364351133551
23530152 11 17185877194997361677
23552423 10 17980201104115037815
23557571 272 18200320914266517022
23598294 1 18119808010727209802
2748010 2 18340476837578484108
305870 269 17762054745741979117
3071541 12 18122911094639306237
3071541 158 18261670484266750309
3091708 16 9283570848241888449
34934 24 18410845581730339426
352729 6 17762335808122033671
54173680 148 18121781629856775971
68521 5 18410296865572285158
7364860 26 18122907804720594823
81228 2 18267028262499744666

>  <PUBCHEM_SHAPE_MULTIPOLES>  (1) 
271.25
4.58
3.82
0.57
2.74
2.88
0
-2.83
0
-1.94
0
0.06
-0.01
0

>  <PUBCHEM_SHAPE_SELFOVERLAP>  (1) 
566.011

>  <PUBCHEM_SHAPE_VOLUME>  (1) 
154.4

>  <PUBCHEM_COORDINATE_TYPE>  (1) 
2
5
10

$$$$
