7437
     RDKit          3D

 13 13  0  0  0  0  0  0  0  0999 V2000
   -4.8104   -0.5449    0.0186 Cl  0  0  0  0  0  0  0  0  0  0  0  0
   -2.1657   -1.6620   -0.0080 O   0  0  0  0  0  0  0  0  0  0  0  0
    3.9391   -0.1526    0.0028 O   0  0  0  0  0  0  0  0  0  0  0  0
    2.7186   -1.9774    0.0013 O   0  0  0  0  0  0  0  0  0  0  0  0
    2.8235   -0.7271    0.0016 N   0  0  0  0  0  0  0  0  0  0  0  0
   -0.7675    0.2237   -0.0023 C   0  0  0  0  0  0  0  0  0  0  0  0
    0.3912   -0.5529   -0.0010 C   0  0  0  0  0  0  0  0  0  0  0  0
    1.6431    0.0625    0.0012 C   0  0  0  0  0  0  0  0  0  0  0  0
   -0.6744    1.6155   -0.0014 C   0  0  0  0  0  0  0  0  0  0  0  0
   -2.0728   -0.4175   -0.0063 C   0  0  0  0  0  0  0  0  0  0  0  0
    1.7360    1.4543    0.0020 C   0  0  0  0  0  0  0  0  0  0  0  0
    0.5773    2.2308    0.0008 C   0  0  0  0  0  0  0  0  0  0  0  0
   -3.3381    0.4475   -0.0094 C   0  0  0  0  0  0  0  0  0  0  0  0
  1 13  1  0
  2 10  2  0
  3  5  1  0
  4  5  2  0
  5  8  1  0
  6  7  2  0
  6  9  1  0
  6 10  1  0
  7  8  1  0
  8 11  2  0
  9 12  2  0
 10 13  1  0
 11 12  1  0
M  CHG  2   3  -1   5   1
M  END
>  <PUBCHEM_COMPOUND_CID>  (1) 
7437

>  <PUBCHEM_CONFORMER_RMSD>  (1) 
0.6

>  <PUBCHEM_CONFORMER_DIVERSEORDER>  (1) 
1
7
10
4
8
9
6
2
3
5

>  <PUBCHEM_MMFF94_PARTIAL_CHARGES>  (1) 
17
1 -0.29
10 0.42
11 -0.15
12 -0.15
13 0.35
14 0.15
15 0.15
16 0.15
17 0.15
2 -0.57
3 -0.52
4 -0.52
5 0.91
6 0.09
7 -0.15
8 0.13
9 -0.15

>  <PUBCHEM_EFFECTIVE_ROTOR_COUNT>  (1) 
3

>  <PUBCHEM_PHARMACOPHORE_FEATURES>  (1) 
5
1 2 acceptor
1 3 acceptor
1 3 anion
1 4 acceptor
6 6 7 8 9 11 12 rings

>  <PUBCHEM_HEAVY_ATOM_COUNT>  (1) 
13

>  <PUBCHEM_ATOM_DEF_STEREO_COUNT>  (1) 
0

>  <PUBCHEM_ATOM_UDEF_STEREO_COUNT>  (1) 
0

>  <PUBCHEM_BOND_DEF_STEREO_COUNT>  (1) 
0

>  <PUBCHEM_BOND_UDEF_STEREO_COUNT>  (1) 
0

>  <PUBCHEM_ISOTOPIC_ATOM_COUNT>  (1) 
0

>  <PUBCHEM_COMPONENT_COUNT>  (1) 
1

>  <PUBCHEM_CACTVS_TAUTO_COUNT>  (1) 
2

>  <PUBCHEM_CONFORMER_ID>  (1) 
00001D0D00000001

>  <PUBCHEM_MMFF94_ENERGY>  (1) 
37.2776

>  <PUBCHEM_FEATURE_SELFOVERLAP>  (1) 
25.453

>  <PUBCHEM_SHAPE_FINGERPRINT>  (1) 
10130415 120 18410292514707214737
10219947 1 18272371966504782919
11471102 20 18337669814652910285
12032990 46 18409733932856794087
12251169 10 18343585161461477899
13690532 89 18411981356357332523
14115302 16 17822021920794706247
14252887 29 18130796637488850078
15442244 35 18412830170654578225
15477762 27 18410855473034286207
16945 1 18410573993794445068
18186145 218 17749660883597043039
20201158 50 18408604764152967050
20645477 70 18410571829600446007
20871998 184 18057881347008360436
20871998 22 18271251508305751702
21267235 1 18411428301417931902
21296965 67 18410572851348903649
21501502 16 18195246848229193375
21501925 9 18412538829652497129
221490 88 18118971527603272323
23402539 116 18060131030025608853
23402655 69 18341044194986288781
23463225 33 18412265021308415367
23552423 10 18263647436095902517
2748010 2 18193556889792587332
7364860 26 18269835483342668632
8809292 202 18187931728481545411

>  <PUBCHEM_SHAPE_MULTIPOLES>  (1) 
246.81
6.7
1.91
0.59
4.32
0.38
0
-2.58
-0.03
-0.9
0
0.07
0.04
0

>  <PUBCHEM_SHAPE_SELFOVERLAP>  (1) 
506.338

>  <PUBCHEM_SHAPE_VOLUME>  (1) 
143.7

>  <PUBCHEM_COORDINATE_TYPE>  (1) 
2
5
10

$$$$
