7440
     RDKit          3D

 11 11  0  0  0  0  0  0  0  0999 V2000
    3.0993    0.8770   -0.0001 O   0  0  0  0  0  0  0  0  0  0  0  0
    2.7765   -1.2944    0.0004 O   0  0  0  0  0  0  0  0  0  0  0  0
    2.3365   -0.1192   -0.0001 N   0  0  0  0  0  0  0  0  0  0  0  0
   -1.3156   -0.7966    0.0002 C   0  0  0  0  0  0  0  0  0  0  0  0
   -1.8274    0.5009    0.0001 C   0  0  0  0  0  0  0  0  0  0  0  0
    0.0640   -1.0023    0.0001 C   0  0  0  0  0  0  0  0  0  0  0  0
   -0.9593    1.5929   -0.0001 C   0  0  0  0  0  0  0  0  0  0  0  0
    0.9319    0.0896   -0.0001 C   0  0  0  0  0  0  0  0  0  0  0  0
    0.4203    1.3872   -0.0002 C   0  0  0  0  0  0  0  0  0  0  0  0
   -2.2256   -1.9809   -0.0006 C   0  0  0  0  0  0  0  0  0  0  0  0
   -3.3006    0.7458    0.0004 C   0  0  0  0  0  0  0  0  0  0  0  0
  1  3  1  0
  2  3  2  0
  3  8  1  0
  4  5  2  0
  4  6  1  0
  4 10  1  0
  5  7  1  0
  5 11  1  0
  6  8  2  0
  7  9  2  0
  8  9  1  0
M  CHG  2   1  -1   3   1
M  END
>  <PUBCHEM_COMPOUND_CID>  (1) 
7440

>  <PUBCHEM_CONFORMER_RMSD>  (1) 
0.4

>  <PUBCHEM_CONFORMER_DIVERSEORDER>  (1) 
1

>  <PUBCHEM_MMFF94_PARTIAL_CHARGES>  (1) 
14
1 -0.52
10 0.14
11 0.14
12 0.15
13 0.15
14 0.15
2 -0.52
3 0.91
4 -0.14
5 -0.14
6 -0.15
7 -0.15
8 0.13
9 -0.15

>  <PUBCHEM_EFFECTIVE_ROTOR_COUNT>  (1) 
1

>  <PUBCHEM_PHARMACOPHORE_FEATURES>  (1) 
4
1 1 acceptor
1 1 anion
1 2 acceptor
6 4 5 6 7 8 9 rings

>  <PUBCHEM_HEAVY_ATOM_COUNT>  (1) 
11

>  <PUBCHEM_ATOM_DEF_STEREO_COUNT>  (1) 
0

>  <PUBCHEM_ATOM_UDEF_STEREO_COUNT>  (1) 
0

>  <PUBCHEM_BOND_DEF_STEREO_COUNT>  (1) 
0

>  <PUBCHEM_BOND_UDEF_STEREO_COUNT>  (1) 
0

>  <PUBCHEM_ISOTOPIC_ATOM_COUNT>  (1) 
0

>  <PUBCHEM_COMPONENT_COUNT>  (1) 
1

>  <PUBCHEM_CACTVS_TAUTO_COUNT>  (1) 
1

>  <PUBCHEM_CONFORMER_ID>  (1) 
00001D1000000001

>  <PUBCHEM_MMFF94_ENERGY>  (1) 
32.0159

>  <PUBCHEM_FEATURE_SELFOVERLAP>  (1) 
20.379

>  <PUBCHEM_SHAPE_FINGERPRINT>  (1) 
10857977 72 18268699674935185624
12032990 46 18409738335245868739
12932764 1 17530958060333725830
14128692 85 18266182918509953653
14325111 11 18410293584101395169
16945 1 18410575041840149413
193761 8 17978510063826565229
20871998 184 18201442523073977383
21040471 1 18338517409200308801
21501502 16 18265336298999401781
23235685 24 18340763750311053385
23402539 116 18200017448693370861
23402655 69 18122606273181016765
23463225 33 18336546010579383674
23552423 10 18188491396789522606
23559900 14 18342175545338173678
241688 4 14807685053734507817
2748010 2 18267581493195447437
369184 2 18410572868465241936
5084963 1 18057035818081703121
528886 8 18411694391969221641
6333449 129 18341609351761375205

>  <PUBCHEM_SHAPE_MULTIPOLES>  (1) 
209.66
4.41
1.83
0.59
1.41
0.32
0
0.19
0
-0.62
0
-0.07
-0.01
0

>  <PUBCHEM_SHAPE_SELFOVERLAP>  (1) 
436.516

>  <PUBCHEM_SHAPE_VOLUME>  (1) 
121.3

>  <PUBCHEM_COORDINATE_TYPE>  (1) 
2
5
10

$$$$
