7441
     RDKit          3D

 11 11  0  0  0  0  0  0  0  0999 V2000
    3.0950    0.8676    0.0000 O   0  0  0  0  0  0  0  0  0  0  0  0
    2.7642   -1.3026    0.0002 O   0  0  0  0  0  0  0  0  0  0  0  0
   -3.2259    0.7421    0.0001 N   0  0  0  0  0  0  0  0  0  0  0  0
    2.3285   -0.1259   -0.0001 N   0  0  0  0  0  0  0  0  0  0  0  0
   -1.3260   -0.7900    0.0001 C   0  0  0  0  0  0  0  0  0  0  0  0
   -1.8330    0.5095    0.0001 C   0  0  0  0  0  0  0  0  0  0  0  0
    0.0529   -1.0007    0.0000 C   0  0  0  0  0  0  0  0  0  0  0  0
    0.9248    0.0881   -0.0002 C   0  0  0  0  0  0  0  0  0  0  0  0
   -0.9610    1.5983    0.0000 C   0  0  0  0  0  0  0  0  0  0  0  0
    0.4179    1.3876   -0.0001 C   0  0  0  0  0  0  0  0  0  0  0  0
   -2.2373   -1.9740   -0.0002 C   0  0  0  0  0  0  0  0  0  0  0  0
  1  4  1  0
  2  4  2  0
  3  6  1  0
  4  8  1  0
  5  6  2  0
  5  7  1  0
  5 11  1  0
  6  9  1  0
  7  8  2  0
  8 10  1  0
  9 10  2  0
M  CHG  2   1  -1   4   1
M  END
>  <PUBCHEM_COMPOUND_CID>  (1) 
7441

>  <PUBCHEM_CONFORMER_RMSD>  (1) 
0.4

>  <PUBCHEM_CONFORMER_DIVERSEORDER>  (1) 
1

>  <PUBCHEM_MMFF94_PARTIAL_CHARGES>  (1) 
16
1 -0.52
10 -0.15
11 0.14
12 0.15
13 0.15
14 0.15
18 0.4
19 0.4
2 -0.52
3 -0.9
4 0.91
5 -0.14
6 0.1
7 -0.15
8 0.13
9 -0.15

>  <PUBCHEM_EFFECTIVE_ROTOR_COUNT>  (1) 
1

>  <PUBCHEM_PHARMACOPHORE_FEATURES>  (1) 
6
1 1 acceptor
1 1 anion
1 2 acceptor
1 3 cation
1 3 donor
6 5 6 7 8 9 10 rings

>  <PUBCHEM_HEAVY_ATOM_COUNT>  (1) 
11

>  <PUBCHEM_ATOM_DEF_STEREO_COUNT>  (1) 
0

>  <PUBCHEM_ATOM_UDEF_STEREO_COUNT>  (1) 
0

>  <PUBCHEM_BOND_DEF_STEREO_COUNT>  (1) 
0

>  <PUBCHEM_BOND_UDEF_STEREO_COUNT>  (1) 
0

>  <PUBCHEM_ISOTOPIC_ATOM_COUNT>  (1) 
0

>  <PUBCHEM_COMPONENT_COUNT>  (1) 
1

>  <PUBCHEM_CACTVS_TAUTO_COUNT>  (1) 
1

>  <PUBCHEM_CONFORMER_ID>  (1) 
00001D1100000001

>  <PUBCHEM_MMFF94_ENERGY>  (1) 
42.3949

>  <PUBCHEM_FEATURE_SELFOVERLAP>  (1) 
30.527

>  <PUBCHEM_SHAPE_FINGERPRINT>  (1) 
10857977 72 18268699674951003384
12932764 1 17530958056075681798
14128692 85 18266182922789083701
14325111 11 18410856533975688705
16945 1 18338797818919583045
193761 8 17978510068079308517
20871998 184 18201723998003195783
21040471 1 18266740181984755653
23235685 24 18340762650773051845
23402655 69 18050830149803772149
23552423 10 18188491396794797358
241688 4 14807685053713415313
2748010 2 18267300013897356757
369184 2 18410291393499080792
5084963 1 18057035818086971368
528886 8 18411694391932285377

>  <PUBCHEM_SHAPE_MULTIPOLES>  (1) 
204.67
4.22
1.83
0.58
1.48
0.23
0
0.43
0
-0.64
0
-0.05
0
0

>  <PUBCHEM_SHAPE_SELFOVERLAP>  (1) 
428.159

>  <PUBCHEM_SHAPE_VOLUME>  (1) 
117.3

>  <PUBCHEM_COORDINATE_TYPE>  (1) 
2
5
10

$$$$
