7442
     RDKit          3D

 11 11  0  0  0  0  0  0  0  0999 V2000
    3.1793   -0.7397    0.0000 O   0  0  0  0  0  0  0  0  0  0  0  0
   -3.0930   -0.8616   -0.0002 O   0  0  0  0  0  0  0  0  0  0  0  0
   -2.7579    1.3080    0.0003 O   0  0  0  0  0  0  0  0  0  0  0  0
   -2.3245    0.1304   -0.0001 N   0  0  0  0  0  0  0  0  0  0  0  0
    1.3314    0.7871    0.0000 C   0  0  0  0  0  0  0  0  0  0  0  0
   -0.0471    1.0006    0.0000 C   0  0  0  0  0  0  0  0  0  0  0  0
    1.8357   -0.5133    0.0001 C   0  0  0  0  0  0  0  0  0  0  0  0
   -0.9212   -0.0864    0.0000 C   0  0  0  0  0  0  0  0  0  0  0  0
    0.9617   -1.6004    0.0001 C   0  0  0  0  0  0  0  0  0  0  0  0
   -0.4168   -1.3869    0.0001 C   0  0  0  0  0  0  0  0  0  0  0  0
    2.2525    1.9623   -0.0001 C   0  0  0  0  0  0  0  0  0  0  0  0
  1  7  1  0
  2  4  1  0
  3  4  2  0
  4  8  1  0
  5  6  2  0
  5  7  1  0
  5 11  1  0
  6  8  1  0
  7  9  2  0
  8 10  2  0
  9 10  1  0
M  CHG  2   2  -1   4   1
M  END
>  <PUBCHEM_COMPOUND_CID>  (1) 
7442

>  <PUBCHEM_CONFORMER_RMSD>  (1) 
0.4

>  <PUBCHEM_CONFORMER_DIVERSEORDER>  (1) 
1

>  <PUBCHEM_MMFF94_PARTIAL_CHARGES>  (1) 
15
1 -0.53
10 -0.15
11 0.14
12 0.15
13 0.15
14 0.15
18 0.45
2 -0.52
3 -0.52
4 0.91
5 -0.14
6 -0.15
7 0.08
8 0.13
9 -0.15

>  <PUBCHEM_EFFECTIVE_ROTOR_COUNT>  (1) 
1

>  <PUBCHEM_PHARMACOPHORE_FEATURES>  (1) 
5
1 1 donor
1 2 acceptor
1 2 anion
1 3 acceptor
6 5 6 7 8 9 10 rings

>  <PUBCHEM_HEAVY_ATOM_COUNT>  (1) 
11

>  <PUBCHEM_ATOM_DEF_STEREO_COUNT>  (1) 
0

>  <PUBCHEM_ATOM_UDEF_STEREO_COUNT>  (1) 
0

>  <PUBCHEM_BOND_DEF_STEREO_COUNT>  (1) 
0

>  <PUBCHEM_BOND_UDEF_STEREO_COUNT>  (1) 
0

>  <PUBCHEM_ISOTOPIC_ATOM_COUNT>  (1) 
0

>  <PUBCHEM_COMPONENT_COUNT>  (1) 
1

>  <PUBCHEM_CACTVS_TAUTO_COUNT>  (1) 
5

>  <PUBCHEM_CONFORMER_ID>  (1) 
00001D1200000001

>  <PUBCHEM_MMFF94_ENERGY>  (1) 
30.7452

>  <PUBCHEM_FEATURE_SELFOVERLAP>  (1) 
25.453

>  <PUBCHEM_SHAPE_FINGERPRINT>  (1) 
12032990 46 18340212873569022302
12932764 1 17530959155597859073
13380535 76 18194398020915306946
14325111 11 18410855494641088833
16945 1 18338516339626773606
193761 8 17978229688324546086
19973954 147 18410576175864613305
21040471 1 18266458900439750912
23402655 69 18124016959183447429
23552423 10 18407760339222614167
241688 4 17691412906126802058
2748010 2 18337956804172242332
5084963 1 18272652350427853739
528886 8 18339073783458456387

>  <PUBCHEM_SHAPE_MULTIPOLES>  (1) 
203.79
4.18
1.83
0.58
1.52
0.2
0
0.51
0
-0.64
0
-0.05
0
0

>  <PUBCHEM_SHAPE_SELFOVERLAP>  (1) 
427.66

>  <PUBCHEM_SHAPE_VOLUME>  (1) 
116.4

>  <PUBCHEM_COORDINATE_TYPE>  (1) 
2
5
10

$$$$
