7450
     RDKit          3D

 12 12  0  0  0  0  0  0  0  0999 V2000
   -2.4999    0.4325    0.0001 C   0  0  0  0  0  0  0  0  0  0  0  0
    2.5000    0.4323    0.0003 C   0  0  0  0  0  0  0  0  0  0  0  0
   -1.2081   -0.3130   -0.0004 C   0  0  0  0  0  0  0  0  0  0  0  0
    1.2080   -0.3130   -0.0002 C   0  0  0  0  0  0  0  0  0  0  0  0
   -0.0001    0.3845   -0.0007 C   0  0  0  0  0  0  0  0  0  0  0  0
   -1.2080   -1.7079    0.0003 C   0  0  0  0  0  0  0  0  0  0  0  0
    1.2078   -1.7079    0.0005 C   0  0  0  0  0  0  0  0  0  0  0  0
   -2.6800    1.2990   -1.2606 C   0  0  0  0  0  0  0  0  0  0  0  0
   -2.6785    1.3001    1.2603 C   0  0  0  0  0  0  0  0  0  0  0  0
    2.6807    1.2985   -1.2606 C   0  0  0  0  0  0  0  0  0  0  0  0
    2.6783    1.3003    1.2603 C   0  0  0  0  0  0  0  0  0  0  0  0
   -0.0001   -2.4054    0.0007 C   0  0  0  0  0  0  0  0  0  0  0  0
  1  3  1  0
  1  8  1  0
  1  9  1  0
  2  4  1  0
  2 10  1  0
  2 11  1  0
  3  5  2  0
  3  6  1  0
  4  5  1  0
  4  7  2  0
  6 12  2  0
  7 12  1  0
M  END
>  <PUBCHEM_COMPOUND_CID>  (1) 
7450

>  <PUBCHEM_CONFORMER_RMSD>  (1) 
0.6

>  <PUBCHEM_CONFORMER_DIVERSEORDER>  (1) 
1
2
4
3

>  <PUBCHEM_MMFF94_PARTIAL_CHARGES>  (1) 
12
1 0.14
12 -0.15
15 0.15
16 0.15
17 0.15
2 0.14
3 -0.14
30 0.15
4 -0.14
5 -0.15
6 -0.15
7 -0.15

>  <PUBCHEM_EFFECTIVE_ROTOR_COUNT>  (1) 
2

>  <PUBCHEM_PHARMACOPHORE_FEATURES>  (1) 
3
3 1 8 9 hydrophobe
3 2 10 11 hydrophobe
6 3 4 5 6 7 12 rings

>  <PUBCHEM_HEAVY_ATOM_COUNT>  (1) 
12

>  <PUBCHEM_ATOM_DEF_STEREO_COUNT>  (1) 
0

>  <PUBCHEM_ATOM_UDEF_STEREO_COUNT>  (1) 
0

>  <PUBCHEM_BOND_DEF_STEREO_COUNT>  (1) 
0

>  <PUBCHEM_BOND_UDEF_STEREO_COUNT>  (1) 
0

>  <PUBCHEM_ISOTOPIC_ATOM_COUNT>  (1) 
0

>  <PUBCHEM_COMPONENT_COUNT>  (1) 
1

>  <PUBCHEM_CACTVS_TAUTO_COUNT>  (1) 
1

>  <PUBCHEM_CONFORMER_ID>  (1) 
00001D1A00000001

>  <PUBCHEM_MMFF94_ENERGY>  (1) 
28.0969

>  <PUBCHEM_FEATURE_SELFOVERLAP>  (1) 
15.223

>  <PUBCHEM_SHAPE_FINGERPRINT>  (1) 
1 1 18339074870027465398
11206711 2 18196085770995165015
12716758 59 18271533112342490554
13380535 21 18338535087106539463
13764800 53 18268441285407717169
14614273 12 18336252552796774815
15276787 5 15575818522373440008
15775835 57 18410860961981501828
16945 1 18412549773197440768
18186145 218 18273216378434189236
19837323 101 18200314453944879882
20510252 161 18053664960370639610
20511035 2 18410006633247500194
21028194 46 18409163320322962139
21040471 1 18410575127892554082
21524375 3 18410572889935167434
22802520 49 17774179979652882388
228727 97 17774991376595874297
230 275 18336544923963090372
23419403 2 12596993844854239087
23559900 14 18201169823707138420
25 1 18271537394261211500
2748010 2 18410300206777701791
305870 269 18336252471224051202
3071541 158 17974573494255632966
7364860 26 18128816331079398742
81228 2 17978513366239938002

>  <PUBCHEM_SHAPE_MULTIPOLES>  (1) 
246.95
4.54
2.21
1.15
0
1.25
0
-3.07
0
0
0
0
-0.69
0

>  <PUBCHEM_SHAPE_SELFOVERLAP>  (1) 
496.81

>  <PUBCHEM_SHAPE_VOLUME>  (1) 
142.6

>  <PUBCHEM_COORDINATE_TYPE>  (1) 
2
5
10

$$$$
