7464
     RDKit          3D

 10 10  0  0  0  0  0  0  0  0999 V2000
    3.5031   -0.2332    0.0000 N   0  0  0  0  0  0  0  0  0  0  0  0
   -2.1576    0.3584   -0.0002 C   0  0  0  0  0  0  0  0  0  0  0  0
   -0.6743    0.2037    0.0003 C   0  0  0  0  0  0  0  0  0  0  0  0
   -2.8122   -0.2380    1.2603 C   0  0  0  0  0  0  0  0  0  0  0  0
   -2.8117   -0.2385   -1.2606 C   0  0  0  0  0  0  0  0  0  0  0  0
    0.1451    1.3326    0.0000 C   0  0  0  0  0  0  0  0  0  0  0  0
   -0.1063   -1.0703    0.0004 C   0  0  0  0  0  0  0  0  0  0  0  0
    1.5325    1.1874   -0.0002 C   0  0  0  0  0  0  0  0  0  0  0  0
    1.2810   -1.2154    0.0001 C   0  0  0  0  0  0  0  0  0  0  0  0
    2.1004   -0.0866   -0.0002 C   0  0  0  0  0  0  0  0  0  0  0  0
  1 10  1  0
  2  3  1  0
  2  4  1  0
  2  5  1  0
  3  6  2  0
  3  7  1  0
  6  8  1  0
  7  9  2  0
  8 10  2  0
  9 10  1  0
M  END
>  <PUBCHEM_COMPOUND_CID>  (1) 
7464

>  <PUBCHEM_CONFORMER_RMSD>  (1) 
0.4

>  <PUBCHEM_CONFORMER_DIVERSEORDER>  (1) 
1
2

>  <PUBCHEM_MMFF94_PARTIAL_CHARGES>  (1) 
14
1 -0.9
10 0.1
18 0.15
19 0.15
2 0.14
20 0.15
21 0.15
22 0.4
23 0.4
3 -0.14
6 -0.15
7 -0.15
8 -0.15
9 -0.15

>  <PUBCHEM_EFFECTIVE_ROTOR_COUNT>  (1) 
1

>  <PUBCHEM_PHARMACOPHORE_FEATURES>  (1) 
4
1 1 cation
1 1 donor
3 2 4 5 hydrophobe
6 3 6 7 8 9 10 rings

>  <PUBCHEM_HEAVY_ATOM_COUNT>  (1) 
10

>  <PUBCHEM_ATOM_DEF_STEREO_COUNT>  (1) 
0

>  <PUBCHEM_ATOM_UDEF_STEREO_COUNT>  (1) 
0

>  <PUBCHEM_BOND_DEF_STEREO_COUNT>  (1) 
0

>  <PUBCHEM_BOND_UDEF_STEREO_COUNT>  (1) 
0

>  <PUBCHEM_ISOTOPIC_ATOM_COUNT>  (1) 
0

>  <PUBCHEM_COMPONENT_COUNT>  (1) 
1

>  <PUBCHEM_CACTVS_TAUTO_COUNT>  (1) 
1

>  <PUBCHEM_CONFORMER_ID>  (1) 
00001D2800000001

>  <PUBCHEM_MMFF94_ENERGY>  (1) 
33.6065

>  <PUBCHEM_FEATURE_SELFOVERLAP>  (1) 
20.297

>  <PUBCHEM_SHAPE_FINGERPRINT>  (1) 
10219947 1 18411982455525971510
10857977 72 18113621209174141513
12032990 46 18336838506732365202
12138202 97 16950548983519151871
124424 183 17604134957098012002
12897270 3 18408595959622757373
12932764 1 17918274229483673393
14128692 85 17845356894878403543
14325111 11 18410855490251156512
14993402 34 18201994439024046910
16945 1 18410573989641597254
17844478 74 17967543375868681249
20201158 50 18187364307377355091
21040471 1 18266458904687297408
23235685 24 18410576192917641664
23402655 69 18194100951319072781
23552423 10 18045785580952470774
2748010 2 18121784095341947302
29004967 10 18334300842126430473
5084963 1 18130779092415323681
528886 8 18411978044489089619

>  <PUBCHEM_SHAPE_MULTIPOLES>  (1) 
200.81
4.56
1.24
0.93
0.19
0.09
0
-0.4
0
0.41
0
-0.92
-0.07
0

>  <PUBCHEM_SHAPE_SELFOVERLAP>  (1) 
408.495

>  <PUBCHEM_SHAPE_VOLUME>  (1) 
118.3

>  <PUBCHEM_COORDINATE_TYPE>  (1) 
2
5
10

$$$$
