7465
     RDKit          3D

 10 10  0  0  0  0  0  0  0  0999 V2000
    3.4587   -0.2314    0.0003 O   0  0  0  0  0  0  0  0  0  0  0  0
   -2.1522    0.3597    0.0001 C   0  0  0  0  0  0  0  0  0  0  0  0
   -0.6692    0.2036    0.0001 C   0  0  0  0  0  0  0  0  0  0  0  0
   -2.8072   -0.2368    1.2605 C   0  0  0  0  0  0  0  0  0  0  0  0
   -2.8074   -0.2360   -1.2605 C   0  0  0  0  0  0  0  0  0  0  0  0
    0.1510    1.3319    0.0002 C   0  0  0  0  0  0  0  0  0  0  0  0
   -0.1022   -1.0708   -0.0002 C   0  0  0  0  0  0  0  0  0  0  0  0
    1.5382    1.1857    0.0000 C   0  0  0  0  0  0  0  0  0  0  0  0
    1.2850   -1.2170   -0.0003 C   0  0  0  0  0  0  0  0  0  0  0  0
    2.1052   -0.0888   -0.0003 C   0  0  0  0  0  0  0  0  0  0  0  0
  1 10  1  0
  2  3  1  0
  2  4  1  0
  2  5  1  0
  3  6  2  0
  3  7  1  0
  6  8  1  0
  7  9  2  0
  8 10  2  0
  9 10  1  0
M  END
>  <PUBCHEM_COMPOUND_CID>  (1) 
7465

>  <PUBCHEM_CONFORMER_RMSD>  (1) 
0.4

>  <PUBCHEM_CONFORMER_DIVERSEORDER>  (1) 
1
2

>  <PUBCHEM_MMFF94_PARTIAL_CHARGES>  (1) 
13
1 -0.53
10 0.08
18 0.15
19 0.15
2 0.14
20 0.15
21 0.15
22 0.45
3 -0.14
6 -0.15
7 -0.15
8 -0.15
9 -0.15

>  <PUBCHEM_EFFECTIVE_ROTOR_COUNT>  (1) 
1

>  <PUBCHEM_PHARMACOPHORE_FEATURES>  (1) 
3
1 1 donor
3 2 4 5 hydrophobe
6 3 6 7 8 9 10 rings

>  <PUBCHEM_HEAVY_ATOM_COUNT>  (1) 
10

>  <PUBCHEM_ATOM_DEF_STEREO_COUNT>  (1) 
0

>  <PUBCHEM_ATOM_UDEF_STEREO_COUNT>  (1) 
0

>  <PUBCHEM_BOND_DEF_STEREO_COUNT>  (1) 
0

>  <PUBCHEM_BOND_UDEF_STEREO_COUNT>  (1) 
0

>  <PUBCHEM_ISOTOPIC_ATOM_COUNT>  (1) 
0

>  <PUBCHEM_COMPONENT_COUNT>  (1) 
1

>  <PUBCHEM_CACTVS_TAUTO_COUNT>  (1) 
2

>  <PUBCHEM_CONFORMER_ID>  (1) 
00001D2900000001

>  <PUBCHEM_MMFF94_ENERGY>  (1) 
22.7794

>  <PUBCHEM_FEATURE_SELFOVERLAP>  (1) 
15.223

>  <PUBCHEM_SHAPE_FINGERPRINT>  (1) 
10219947 1 18412265029982654918
10857977 72 18113339738508222409
12032990 46 18336838506732371698
12138202 97 16950548983524426623
12897270 3 18408595959633306885
12932764 1 17918274233789196689
14128692 85 17845638369860395447
14325111 11 18410855490235332256
16945 1 18410575089147956774
17844478 74 17967543375879230761
20201158 50 18187082832411187435
21040471 1 18266741479191453600
23402655 69 18194100951319072797
23552423 10 18046350734245194510
2748010 2 18121784095341947302
29004967 10 18334300842121155721
5084963 1 18130779092420598437
528886 8 18411978044499632627

>  <PUBCHEM_SHAPE_MULTIPOLES>  (1) 
199.93
4.5
1.24
0.93
0.07
0.09
0
-0.38
0
0.42
0
-0.92
-0.07
0

>  <PUBCHEM_SHAPE_SELFOVERLAP>  (1) 
407.941

>  <PUBCHEM_SHAPE_VOLUME>  (1) 
117.4

>  <PUBCHEM_COORDINATE_TYPE>  (1) 
2
5
10

$$$$
