747
     RDKit          3D

 24 23  0  0  1  0  0  0  0  0999 V2000
   -1.9697    1.4876    0.7753 S   0  0  0  0  0  0  0  0  0  0  0  0
   -2.9673    3.3241    0.3912 S   0  0  0  0  0  0  0  0  0  0  0  0
    1.7819    0.3873   -2.0996 O   0  0  0  0  0  0  0  0  0  0  0  0
   -1.1424   -2.1884    0.6491 O   0  0  0  0  0  0  0  0  0  0  0  0
    5.0659   -0.9789    2.0708 O   0  0  0  0  0  0  0  0  0  0  0  0
    6.4037   -1.6458    0.3658 O   0  0  0  0  0  0  0  0  0  0  0  0
   -4.0736    2.9279   -0.4747 O   0  0  0  0  0  0  0  0  0  0  0  0
   -1.9227    4.1105   -0.2580 O   0  0  0  0  0  0  0  0  0  0  0  0
   -3.3498    3.7809    1.7238 O   0  0  0  0  0  0  0  0  0  0  0  0
   -4.5652   -1.1154    0.6895 O   0  0  0  0  0  0  0  0  0  0  0  0
   -5.5250   -3.1694    0.7750 O   0  0  0  0  0  0  0  0  0  0  0  0
    0.5419   -0.2977   -0.2588 N   0  0  0  0  0  0  0  0  0  0  0  0
   -2.7067   -1.7906   -1.0174 N   0  0  0  0  0  0  0  0  0  0  0  0
    6.5858    0.9763   -0.4644 N   0  0  0  0  0  0  0  0  0  0  0  0
   -0.7375   -0.3854   -0.9240 C   0  0  0  0  0  0  0  0  0  0  0  0
    4.1930    0.5007   -0.6743 C   0  0  0  0  0  0  0  0  0  0  0  0
    2.8993    0.0806    0.0264 C   0  0  0  0  0  0  0  0  0  0  0  0
    5.3911    0.5696    0.2793 C   0  0  0  0  0  0  0  0  0  0  0  0
    1.7043    0.0855   -0.9118 C   0  0  0  0  0  0  0  0  0  0  0  0
   -1.4921    0.9462   -0.8983 C   0  0  0  0  0  0  0  0  0  0  0  0
   -1.5302   -1.5448   -0.3240 C   0  0  0  0  0  0  0  0  0  0  0  0
    5.6955   -0.7901    0.8817 C   0  0  0  0  0  0  0  0  0  0  0  0
   -3.6160   -2.8532   -0.6568 C   0  0  0  0  0  0  0  0  0  0  0  0
   -4.6644   -2.4174    0.3342 C   0  0  0  0  0  0  0  0  0  0  0  0
  1  2  1  0
  1 20  1  0
  2  7  1  0
  2  8  2  0
  2  9  2  0
  3 19  2  0
  4 21  2  0
  5 22  1  0
  6 22  2  0
 10 24  1  0
 11 24  2  0
 12 15  1  0
 12 19  1  0
 13 21  1  0
 13 23  1  0
 14 18  1  0
 15 20  1  0
 15 21  1  0
 16 17  1  0
 16 18  1  0
 17 19  1  0
 18 22  1  0
 23 24  1  0
M  CHG  1   7  -1
M  END
>  <PUBCHEM_COMPOUND_CID>  (1) 
747

>  <PUBCHEM_CONFORMER_RMSD>  (1) 
1

>  <PUBCHEM_CONFORMER_DIVERSEORDER>  (1) 
2
96
69
120
51
48
61
126
64
39
52
66
117
125
11
20
86
104
41
89
32
83
17
12
106
5
23
25
62
47
136
97
43
35
55
116
139
84
14
90
40
79
60
145
108
45
19
46
133
130
140
101
132
22
121
131
58
54
30
91
122
3
113
59
28
13
92
142
72
119
95
49
75
110
138
29
81
144
141
56
8
77
134
53
143
78
85
33
65
111
6
73
36
27
42
114
10
37
9
98
87
129
18
57
70
21
100
34
109
1
16
112
68
137
105
50
124
74
88
4
94
38
67
63
118
107
127
26
76
102
103
146
128
123
24
115
7
82
80
93
15
31
135
71
44
99

>  <PUBCHEM_MMFF94_PARTIAL_CHARGES>  (1) 
29
1 -0.35
10 -0.65
11 -0.57
12 -0.73
13 -0.73
14 -0.99
15 0.36
17 0.06
18 0.33
19 0.57
2 1.57
20 0.23
21 0.57
22 0.66
23 0.36
24 0.66
3 -0.57
31 0.37
34 0.37
35 0.36
36 0.36
39 0.5
4 -0.57
40 0.5
5 -0.65
6 -0.57
7 -0.82
8 -0.82
9 -0.82

>  <PUBCHEM_EFFECTIVE_ROTOR_COUNT>  (1) 
13

>  <PUBCHEM_PHARMACOPHORE_FEATURES>  (1) 
16
1 10 acceptor
1 11 acceptor
1 12 donor
1 13 donor
1 14 cation
1 14 donor
1 3 acceptor
1 4 acceptor
1 5 acceptor
1 6 acceptor
1 7 acceptor
1 8 acceptor
1 9 acceptor
3 10 11 24 anion
3 5 6 22 anion
4 2 7 8 9 anion

>  <PUBCHEM_HEAVY_ATOM_COUNT>  (1) 
24

>  <PUBCHEM_ATOM_DEF_STEREO_COUNT>  (1) 
0

>  <PUBCHEM_ATOM_UDEF_STEREO_COUNT>  (1) 
2

>  <PUBCHEM_BOND_DEF_STEREO_COUNT>  (1) 
0

>  <PUBCHEM_BOND_UDEF_STEREO_COUNT>  (1) 
0

>  <PUBCHEM_ISOTOPIC_ATOM_COUNT>  (1) 
0

>  <PUBCHEM_COMPONENT_COUNT>  (1) 
1

>  <PUBCHEM_CACTVS_TAUTO_COUNT>  (1) 
4

>  <PUBCHEM_CONFORMER_ID>  (1) 
000002EB00000002

>  <PUBCHEM_MMFF94_ENERGY>  (1) 
31.3788

>  <PUBCHEM_FEATURE_SELFOVERLAP>  (1) 
81.393

>  <PUBCHEM_SHAPE_FINGERPRINT>  (1) 
12107183 9 18048591522390344298
12596602 18 18333729131041118712
12788726 201 18264787608205346263
12930653 34 18342740671943813438
13004483 165 18269274741212842991
13073987 5 18410568501501568186
13533116 47 18042404802183386582
13540713 4 17773052885566044110
13583140 156 17631999885140358214
14178342 30 18410015390616914270
15842332 3 17896059757123583844
22182313 1 17489041374284885356
23402539 116 18341329002330301927
25147074 1 17968955170410934412
4409770 3 18410567384804790279
5104073 3 18336814330983636976
59755656 520 18265046933993662948
7226269 152 18409447020683809751
9981440 41 17559667352453787575

>  <PUBCHEM_SHAPE_MULTIPOLES>  (1) 
433.84
14.53
4.38
1.34
21.75
3.52
0.1
-5.48
4.27
-10.2
1.04
0.54
0.11
-1.15

>  <PUBCHEM_SHAPE_SELFOVERLAP>  (1) 
830.706

>  <PUBCHEM_SHAPE_VOLUME>  (1) 
264.2

>  <PUBCHEM_COORDINATE_TYPE>  (1) 
2
5
10

$$$$
