7471
     RDKit          3D

 10 10  0  0  0  0  0  0  0  0999 V2000
    2.1055    0.0013   -0.0032 N   0  0  0  0  0  0  0  0  0  0  0  0
    0.6951    0.0007   -0.0021 C   0  0  0  0  0  0  0  0  0  0  0  0
   -2.0947   -0.0002    0.0008 C   0  0  0  0  0  0  0  0  0  0  0  0
   -0.0028    1.1903   -0.2101 C   0  0  0  0  0  0  0  0  0  0  0  0
   -0.0017   -1.1893    0.2073 C   0  0  0  0  0  0  0  0  0  0  0  0
   -1.3977    1.1899   -0.2086 C   0  0  0  0  0  0  0  0  0  0  0  0
   -1.3966   -1.1898    0.2087 C   0  0  0  0  0  0  0  0  0  0  0  0
    2.8393    1.1755    0.4249 C   0  0  0  0  0  0  0  0  0  0  0  0
    2.8396   -1.1772   -0.4194 C   0  0  0  0  0  0  0  0  0  0  0  0
   -3.5860   -0.0012    0.0017 C   0  0  0  0  0  0  0  0  0  0  0  0
  1  2  1  0
  1  8  1  0
  1  9  1  0
  2  4  2  0
  2  5  1  0
  3  6  2  0
  3  7  1  0
  3 10  1  0
  4  6  1  0
  5  7  2  0
M  END
>  <PUBCHEM_COMPOUND_CID>  (1) 
7471

>  <PUBCHEM_CONFORMER_RMSD>  (1) 
0.4

>  <PUBCHEM_CONFORMER_DIVERSEORDER>  (1) 
1
2

>  <PUBCHEM_MMFF94_PARTIAL_CHARGES>  (1) 
14
1 -0.84
10 0.14
11 0.15
12 0.15
13 0.15
14 0.15
2 0.1
3 -0.14
4 -0.15
5 -0.15
6 -0.15
7 -0.15
8 0.37
9 0.37

>  <PUBCHEM_EFFECTIVE_ROTOR_COUNT>  (1) 
1

>  <PUBCHEM_PHARMACOPHORE_FEATURES>  (1) 
2
1 1 cation
6 2 3 4 5 6 7 rings

>  <PUBCHEM_HEAVY_ATOM_COUNT>  (1) 
10

>  <PUBCHEM_ATOM_DEF_STEREO_COUNT>  (1) 
0

>  <PUBCHEM_ATOM_UDEF_STEREO_COUNT>  (1) 
0

>  <PUBCHEM_BOND_DEF_STEREO_COUNT>  (1) 
0

>  <PUBCHEM_BOND_UDEF_STEREO_COUNT>  (1) 
0

>  <PUBCHEM_ISOTOPIC_ATOM_COUNT>  (1) 
0

>  <PUBCHEM_COMPONENT_COUNT>  (1) 
1

>  <PUBCHEM_CACTVS_TAUTO_COUNT>  (1) 
1

>  <PUBCHEM_CONFORMER_ID>  (1) 
00001D2F00000001

>  <PUBCHEM_MMFF94_ENERGY>  (1) 
39.5581

>  <PUBCHEM_FEATURE_SELFOVERLAP>  (1) 
10.148

>  <PUBCHEM_SHAPE_FINGERPRINT>  (1) 
10219947 1 18412548712741367295
10857977 72 18260826046425336065
12032990 46 18335710442161985955
12524768 44 18410291436617578334
12897270 3 18336263453191585375
12932764 1 17821723910103936202
14325111 11 18411136931015756905
16945 1 18113900459426312325
19026448 5 16845573115109656711
193761 8 17543910105561502221
19973954 147 18412827967162294968
20201158 50 18342740693692689686
20871998 184 18127415763766586535
21040471 1 18334575702784874868
23235685 24 18408598175952547385
23402655 69 18192409907062778093
23552423 10 18187368748447411542
2748010 2 18336551641223499495
369184 2 18273494576303094465
5084963 1 18337394846388031696

>  <PUBCHEM_SHAPE_MULTIPOLES>  (1) 
200.81
4.82
1.47
0.66
0.17
0
0
0
0.01
-0.43
0
-0.08
0
0.36

>  <PUBCHEM_SHAPE_SELFOVERLAP>  (1) 
406.713

>  <PUBCHEM_SHAPE_VOLUME>  (1) 
119.2

>  <PUBCHEM_COORDINATE_TYPE>  (1) 
2
5
10

$$$$
