7477
     RDKit          3D

 11 11  0  0  0  0  0  0  0  0999 V2000
   -3.5986   -1.1139   -0.0019 Cl  0  0  0  0  0  0  0  0  0  0  0  0
    3.0723   -0.4986   -0.0004 O   0  0  0  0  0  0  0  0  0  0  0  0
   -2.9328    1.4263   -0.0001 O   0  0  0  0  0  0  0  0  0  0  0  0
    1.7240   -0.3140    0.0008 C   0  0  0  0  0  0  0  0  0  0  0  0
   -1.0400    0.0648    0.0006 C   0  0  0  0  0  0  0  0  0  0  0  0
    1.1968    0.9775    0.0006 C   0  0  0  0  0  0  0  0  0  0  0  0
    0.8690   -1.4163    0.0008 C   0  0  0  0  0  0  0  0  0  0  0  0
   -0.1851    1.1669    0.0006 C   0  0  0  0  0  0  0  0  0  0  0  0
   -0.5130   -1.2268    0.0007 C   0  0  0  0  0  0  0  0  0  0  0  0
   -2.4809    0.2621    0.0002 C   0  0  0  0  0  0  0  0  0  0  0  0
    3.8882    0.6720   -0.0019 C   0  0  0  0  0  0  0  0  0  0  0  0
  1 10  1  0
  2  4  1  0
  2 11  1  0
  3 10  2  0
  4  6  2  0
  4  7  1  0
  5  8  2  0
  5  9  1  0
  5 10  1  0
  6  8  1  0
  7  9  2  0
M  END
>  <PUBCHEM_COMPOUND_CID>  (1) 
7477

>  <PUBCHEM_CONFORMER_RMSD>  (1) 
0.4

>  <PUBCHEM_CONFORMER_DIVERSEORDER>  (1) 
2
3
1
4

>  <PUBCHEM_MMFF94_PARTIAL_CHARGES>  (1) 
15
1 -0.21
10 0.69
11 0.28
12 0.15
13 0.15
14 0.15
15 0.15
2 -0.36
3 -0.57
4 0.08
5 0.09
6 -0.15
7 -0.15
8 -0.15
9 -0.15

>  <PUBCHEM_EFFECTIVE_ROTOR_COUNT>  (1) 
2

>  <PUBCHEM_PHARMACOPHORE_FEATURES>  (1) 
2
1 2 acceptor
6 4 5 6 7 8 9 rings

>  <PUBCHEM_HEAVY_ATOM_COUNT>  (1) 
11

>  <PUBCHEM_ATOM_DEF_STEREO_COUNT>  (1) 
0

>  <PUBCHEM_ATOM_UDEF_STEREO_COUNT>  (1) 
0

>  <PUBCHEM_BOND_DEF_STEREO_COUNT>  (1) 
0

>  <PUBCHEM_BOND_UDEF_STEREO_COUNT>  (1) 
0

>  <PUBCHEM_ISOTOPIC_ATOM_COUNT>  (1) 
0

>  <PUBCHEM_COMPONENT_COUNT>  (1) 
1

>  <PUBCHEM_CACTVS_TAUTO_COUNT>  (1) 
1

>  <PUBCHEM_CONFORMER_ID>  (1) 
00001D3500000002

>  <PUBCHEM_MMFF94_ENERGY>  (1) 
38.2384

>  <PUBCHEM_FEATURE_SELFOVERLAP>  (1) 
10.148

>  <PUBCHEM_SHAPE_FINGERPRINT>  (1) 
10219947 1 18333452032161296196
12032990 46 18412270531730564934
13380535 76 18409167740129640058
14325111 11 18410573972345716000
14993402 34 18260831531161753220
16945 1 18410574028117084771
193761 8 17546165199504385664
20201158 50 18407760343881877275
21040471 1 18410574010958243138
21293036 1 18411702114357336582
23235685 24 18410569578757715492
23402539 116 18342448270474901262
23402655 69 18268695123061578181
23463225 33 18334854974849733010
23552423 10 18261959518375527439
2748010 2 18411419518204251125
3312278 4 18341614780879748825
5084963 1 18343303703717332137
528886 8 18411131411829696953
53812653 166 18341890779525211344

>  <PUBCHEM_SHAPE_MULTIPOLES>  (1) 
216.51
5.82
1.49
0.6
0.68
0.02
0
-0.17
0.01
-0.46
0
-0.02
0.01
0

>  <PUBCHEM_SHAPE_SELFOVERLAP>  (1) 
439.888

>  <PUBCHEM_SHAPE_VOLUME>  (1) 
125.3

>  <PUBCHEM_COORDINATE_TYPE>  (1) 
2
5
10

$$$$
