7495
     RDKit          3D

 12 12  0  0  0  0  0  0  0  0999 V2000
    2.6000    0.4174   -0.3818 O   0  0  0  0  0  0  0  0  0  0  0  0
   -3.6262    0.8896    0.2526 O   0  0  0  0  0  0  0  0  0  0  0  0
   -3.4182   -1.2909    0.1073 O   0  0  0  0  0  0  0  0  0  0  0  0
   -2.9197   -0.1395    0.1247 N   0  0  0  0  0  0  0  0  0  0  0  0
    1.2514    0.2812   -0.2582 C   0  0  0  0  0  0  0  0  0  0  0  0
   -1.5129    0.0033   -0.0050 C   0  0  0  0  0  0  0  0  0  0  0  0
    0.4467    1.4117   -0.1158 C   0  0  0  0  0  0  0  0  0  0  0  0
    0.6738   -0.9885   -0.2740 C   0  0  0  0  0  0  0  0  0  0  0  0
    3.4087   -0.6461    0.1185 C   0  0  0  0  0  0  0  0  0  0  0  0
   -0.9354    1.2728    0.0108 C   0  0  0  0  0  0  0  0  0  0  0  0
   -0.7085   -1.1274   -0.1474 C   0  0  0  0  0  0  0  0  0  0  0  0
    4.7403   -0.0836    0.5682 C   0  0  0  0  0  0  0  0  0  0  0  0
  1  5  1  0
  1  9  1  0
  2  4  1  0
  3  4  2  0
  4  6  1  0
  5  7  2  0
  5  8  1  0
  6 10  2  0
  6 11  1  0
  7 10  1  0
  8 11  2  0
  9 12  1  0
M  CHG  2   2  -1   4   1
M  END
>  <PUBCHEM_COMPOUND_CID>  (1) 
7495

>  <PUBCHEM_CONFORMER_RMSD>  (1) 
0.6

>  <PUBCHEM_CONFORMER_DIVERSEORDER>  (1) 
1
2

>  <PUBCHEM_MMFF94_PARTIAL_CHARGES>  (1) 
15
1 -0.36
10 -0.15
11 -0.15
13 0.15
14 0.15
17 0.15
18 0.15
2 -0.52
3 -0.52
4 0.91
5 0.08
6 0.13
7 -0.15
8 -0.15
9 0.28

>  <PUBCHEM_EFFECTIVE_ROTOR_COUNT>  (1) 
3

>  <PUBCHEM_PHARMACOPHORE_FEATURES>  (1) 
5
1 1 acceptor
1 2 acceptor
1 2 anion
1 3 acceptor
6 5 6 7 8 10 11 rings

>  <PUBCHEM_HEAVY_ATOM_COUNT>  (1) 
12

>  <PUBCHEM_ATOM_DEF_STEREO_COUNT>  (1) 
0

>  <PUBCHEM_ATOM_UDEF_STEREO_COUNT>  (1) 
0

>  <PUBCHEM_BOND_DEF_STEREO_COUNT>  (1) 
0

>  <PUBCHEM_BOND_UDEF_STEREO_COUNT>  (1) 
0

>  <PUBCHEM_ISOTOPIC_ATOM_COUNT>  (1) 
0

>  <PUBCHEM_COMPONENT_COUNT>  (1) 
1

>  <PUBCHEM_CACTVS_TAUTO_COUNT>  (1) 
1

>  <PUBCHEM_CONFORMER_ID>  (1) 
00001D4700000001

>  <PUBCHEM_MMFF94_ENERGY>  (1) 
37.7746

>  <PUBCHEM_FEATURE_SELFOVERLAP>  (1) 
25.453

>  <PUBCHEM_SHAPE_FINGERPRINT>  (1) 
10130415 120 18261111889573690672
11062470 55 16128656349258869314
11132069 177 18341334413672089588
11401426 45 18413100654509057709
12032990 46 18411144631892229174
12119455 92 16988838354874762204
124424 183 18186516609819105119
13214271 11 18272647943918002189
13690532 89 18334574667713788670
14325111 11 18410578409031193061
16945 1 18342471330196485333
18186145 218 11530482246226034486
19026448 4 16056890112653701676
193761 8 17619067673543832726
20510252 161 18201719492761882920
20645476 183 17679043696751650174
21119208 17 10519984881365138818
21501925 9 18411416258371637038
22485316 2 18334571330808919450
23380061 330 18343018908572763071
23402539 116 18272359871697490622
23402655 69 18197484144508532909
23463225 33 18335422348556055286
23559900 14 18343587313904822670
42 15 18335136463006757762
43471831 8 18262234400815238130
53655031 270 18334857173688203482

>  <PUBCHEM_SHAPE_MULTIPOLES>  (1) 
224.37
6.88
1.34
0.65
3.71
0.09
0
-0.83
1.4
-0.57
-0.03
0.18
0
-0.07

>  <PUBCHEM_SHAPE_SELFOVERLAP>  (1) 
461.32

>  <PUBCHEM_SHAPE_VOLUME>  (1) 
129.7

>  <PUBCHEM_COORDINATE_TYPE>  (1) 
2
5
10

$$$$
