7502
     RDKit          3D

  8  8  0  0  0  0  0  0  0  0999 V2000
    2.2031   -0.2478   -0.0838 N   0  0  0  0  0  0  0  0  0  0  0  0
   -0.5478    0.2126    0.1030 C   0  0  0  0  0  0  0  0  0  0  0  0
    0.3339    1.2831    0.0020 C   0  0  0  0  0  0  0  0  0  0  0  0
   -0.0556   -1.0879    0.1107 C   0  0  0  0  0  0  0  0  0  0  0  0
    1.6876    1.0019   -0.0880 C   0  0  0  0  0  0  0  0  0  0  0  0
    1.3156   -1.2629    0.0158 C   0  0  0  0  0  0  0  0  0  0  0  0
   -1.9787    0.4524    0.2019 C   0  0  0  0  0  0  0  0  0  0  0  0
   -2.9581   -0.3514   -0.2616 C   0  0  0  0  0  0  0  0  0  0  0  0
  1  5  2  0
  1  6  1  0
  2  3  2  0
  2  4  1  0
  2  7  1  0
  3  5  1  0
  4  6  2  0
  7  8  2  0
M  END
>  <PUBCHEM_COMPOUND_CID>  (1) 
7502

>  <PUBCHEM_CONFORMER_RMSD>  (1) 
0.4

>  <PUBCHEM_CONFORMER_DIVERSEORDER>  (1) 
1

>  <PUBCHEM_MMFF94_PARTIAL_CHARGES>  (1) 
15
1 -0.62
10 0.15
11 0.15
12 0.15
13 0.15
14 0.15
15 0.15
2 0.03
3 -0.15
4 -0.15
5 0.16
6 0.16
7 -0.18
8 -0.3
9 0.15

>  <PUBCHEM_EFFECTIVE_ROTOR_COUNT>  (1) 
1

>  <PUBCHEM_PHARMACOPHORE_FEATURES>  (1) 
3
1 1 acceptor
1 8 hydrophobe
6 1 2 3 4 5 6 rings

>  <PUBCHEM_HEAVY_ATOM_COUNT>  (1) 
8

>  <PUBCHEM_ATOM_DEF_STEREO_COUNT>  (1) 
0

>  <PUBCHEM_ATOM_UDEF_STEREO_COUNT>  (1) 
0

>  <PUBCHEM_BOND_DEF_STEREO_COUNT>  (1) 
0

>  <PUBCHEM_BOND_UDEF_STEREO_COUNT>  (1) 
0

>  <PUBCHEM_ISOTOPIC_ATOM_COUNT>  (1) 
0

>  <PUBCHEM_COMPONENT_COUNT>  (1) 
1

>  <PUBCHEM_CACTVS_TAUTO_COUNT>  (1) 
1

>  <PUBCHEM_CONFORMER_ID>  (1) 
00001D4E00000001

>  <PUBCHEM_MMFF94_ENERGY>  (1) 
21.4187

>  <PUBCHEM_FEATURE_SELFOVERLAP>  (1) 
15.223

>  <PUBCHEM_SHAPE_FINGERPRINT>  (1) 
12897270 3 18409164420219653461
14325111 11 18410293652963231749
18185500 45 18341612560138894595
21040471 1 18265898149430489880
23402655 69 18267005186548240653
23552423 10 18190468159761550295
29004967 10 18334581217607318137
5084963 1 18413671313791690257

>  <PUBCHEM_SHAPE_MULTIPOLES>  (1) 
159.66
3.35
1.36
0.62
1.9
0.04
0
0.16
-0.26
-0.49
0.01
0.05
0
-0.07

>  <PUBCHEM_SHAPE_SELFOVERLAP>  (1) 
327.604

>  <PUBCHEM_SHAPE_VOLUME>  (1) 
91.3

>  <PUBCHEM_COORDINATE_TYPE>  (1) 
2
5
10

$$$$
