7510
     RDKit          3D

  8  8  0  0  0  0  0  0  0  0999 V2000
    2.7396    0.0283   -0.7029 O   0  0  0  0  0  0  0  0  0  0  0  0
   -1.4824    1.2111   -0.0869 N   0  0  0  0  0  0  0  0  0  0  0  0
    0.5712   -0.0128    0.2732 C   0  0  0  0  0  0  0  0  0  0  0  0
    2.0353    0.0108    0.5342 C   0  0  0  0  0  0  0  0  0  0  0  0
   -0.1140   -1.2156    0.1422 C   0  0  0  0  0  0  0  0  0  0  0  0
   -0.1526    1.1624    0.1513 C   0  0  0  0  0  0  0  0  0  0  0  0
   -1.4827   -1.2065   -0.1031 C   0  0  0  0  0  0  0  0  0  0  0  0
   -2.1145    0.0222   -0.2081 C   0  0  0  0  0  0  0  0  0  0  0  0
  1  4  1  0
  2  6  2  0
  2  8  1  0
  3  4  1  0
  3  5  2  0
  3  6  1  0
  5  7  1  0
  7  8  2  0
M  END
>  <PUBCHEM_COMPOUND_CID>  (1) 
7510

>  <PUBCHEM_CONFORMER_RMSD>  (1) 
0.4

>  <PUBCHEM_CONFORMER_DIVERSEORDER>  (1) 
1
4
2
3

>  <PUBCHEM_MMFF94_PARTIAL_CHARGES>  (1) 
13
1 -0.68
11 0.15
12 0.15
13 0.15
14 0.15
15 0.4
2 -0.62
3 -0.14
4 0.42
5 -0.15
6 0.16
7 -0.15
8 0.16

>  <PUBCHEM_EFFECTIVE_ROTOR_COUNT>  (1) 
1

>  <PUBCHEM_PHARMACOPHORE_FEATURES>  (1) 
4
1 1 acceptor
1 1 donor
1 2 acceptor
6 2 3 5 6 7 8 rings

>  <PUBCHEM_HEAVY_ATOM_COUNT>  (1) 
8

>  <PUBCHEM_ATOM_DEF_STEREO_COUNT>  (1) 
0

>  <PUBCHEM_ATOM_UDEF_STEREO_COUNT>  (1) 
0

>  <PUBCHEM_BOND_DEF_STEREO_COUNT>  (1) 
0

>  <PUBCHEM_BOND_UDEF_STEREO_COUNT>  (1) 
0

>  <PUBCHEM_ISOTOPIC_ATOM_COUNT>  (1) 
0

>  <PUBCHEM_COMPONENT_COUNT>  (1) 
1

>  <PUBCHEM_CACTVS_TAUTO_COUNT>  (1) 
1

>  <PUBCHEM_CONFORMER_ID>  (1) 
00001D5600000001

>  <PUBCHEM_MMFF94_ENERGY>  (1) 
18.8506

>  <PUBCHEM_FEATURE_SELFOVERLAP>  (1) 
20.297

>  <PUBCHEM_SHAPE_FINGERPRINT>  (1) 
16714656 1 18410857667778301215
21040471 1 18267012860826187753
23552423 10 18188489060554621722
29004967 10 16343702149107710714
369184 2 18340759403635150090

>  <PUBCHEM_SHAPE_MULTIPOLES>  (1) 
153.79
3.03
1.31
0.7
1.41
0.01
-0.01
-0.03
-0.46
-0.53
0.03
0.21
-0.01
0.01

>  <PUBCHEM_SHAPE_SELFOVERLAP>  (1) 
314.117

>  <PUBCHEM_SHAPE_VOLUME>  (1) 
88.7

>  <PUBCHEM_COORDINATE_TYPE>  (1) 
2
5
10

$$$$
