7517
     RDKit          3D

  8  8  0  0  0  0  0  0  0  0999 V2000
    2.5867    0.4892    0.2624 O   0  0  0  0  0  0  0  0  0  0  0  0
    1.8190   -0.6737    0.1857 N   0  0  0  0  0  0  0  0  0  0  0  0
   -2.1381    0.4185    0.0112 C   0  0  0  0  0  0  0  0  0  0  0  0
   -1.6872   -0.9940    0.3881 C   0  0  0  0  0  0  0  0  0  0  0  0
   -1.0233    1.4409    0.2405 C   0  0  0  0  0  0  0  0  0  0  0  0
   -0.4315   -1.4068   -0.3707 C   0  0  0  0  0  0  0  0  0  0  0  0
    0.2461    1.0746   -0.5202 C   0  0  0  0  0  0  0  0  0  0  0  0
    0.6282   -0.3489   -0.1970 C   0  0  0  0  0  0  0  0  0  0  0  0
  1  2  1  0
  2  8  2  3
  3  4  1  0
  3  5  1  0
  4  6  1  0
  5  7  1  0
  6  8  1  0
  7  8  1  0
M  END
>  <PUBCHEM_COMPOUND_CID>  (1) 
7517

>  <PUBCHEM_CONFORMER_RMSD>  (1) 
0.4

>  <PUBCHEM_CONFORMER_DIVERSEORDER>  (1) 
1
2

>  <PUBCHEM_MMFF94_PARTIAL_CHARGES>  (1) 
6
1 -0.34
19 0.4
2 -0.51
6 0.06
7 0.06
8 0.33

>  <PUBCHEM_EFFECTIVE_ROTOR_COUNT>  (1) 
1

>  <PUBCHEM_PHARMACOPHORE_FEATURES>  (1) 
3
1 1 anion
1 2 acceptor
6 3 4 5 6 7 8 rings

>  <PUBCHEM_HEAVY_ATOM_COUNT>  (1) 
8

>  <PUBCHEM_ATOM_DEF_STEREO_COUNT>  (1) 
0

>  <PUBCHEM_ATOM_UDEF_STEREO_COUNT>  (1) 
0

>  <PUBCHEM_BOND_DEF_STEREO_COUNT>  (1) 
0

>  <PUBCHEM_BOND_UDEF_STEREO_COUNT>  (1) 
0

>  <PUBCHEM_ISOTOPIC_ATOM_COUNT>  (1) 
0

>  <PUBCHEM_COMPONENT_COUNT>  (1) 
1

>  <PUBCHEM_CACTVS_TAUTO_COUNT>  (1) 
2

>  <PUBCHEM_CONFORMER_ID>  (1) 
00001D5D00000001

>  <PUBCHEM_MMFF94_ENERGY>  (1) 
9.9046

>  <PUBCHEM_FEATURE_SELFOVERLAP>  (1) 
15.223

>  <PUBCHEM_SHAPE_FINGERPRINT>  (1) 
10857977 72 18337665433596189128
16714656 1 18411984658601588310
18185500 45 18122065570081417567
21040471 1 18193567661702460549
23552423 10 18187372004059125646
29004967 10 15068624872505711486
369184 2 17167853162728418264
5084963 1 17986948553212581802

>  <PUBCHEM_SHAPE_MULTIPOLES>  (1) 
153.79
2.76
1.53
0.69
1.04
0.03
-0.03
0.12
0.43
-0.38
-0.05
-0.04
0
0.01

>  <PUBCHEM_SHAPE_SELFOVERLAP>  (1) 
298.791

>  <PUBCHEM_SHAPE_VOLUME>  (1) 
92.6

>  <PUBCHEM_COORDINATE_TYPE>  (1) 
2
5
10

$$$$
