7524
     RDKit          3D

  8  8  0  0  1  0  0  0  0  0999 V2000
   -0.1810   -0.9801   -0.2780 O   0  0  0  0  0  0  0  0  0  0  0  0
   -2.8427   -0.4330    0.1733 O   0  0  0  0  0  0  0  0  0  0  0  0
    0.4295    1.3684   -0.1537 C   0  0  0  0  0  0  0  0  0  0  0  0
   -0.5664    0.2857    0.2687 C   0  0  0  0  0  0  0  0  0  0  0  0
    1.8478    0.9848    0.2575 C   0  0  0  0  0  0  0  0  0  0  0  0
    2.1826   -0.4225   -0.2241 C   0  0  0  0  0  0  0  0  0  0  0  0
    1.0976   -1.4068    0.1919 C   0  0  0  0  0  0  0  0  0  0  0  0
   -1.9673    0.6035   -0.2355 C   0  0  0  0  0  0  0  0  0  0  0  0
  1  4  1  0
  1  7  1  0
  2  8  1  0
  3  4  1  0
  3  5  1  0
  4  8  1  0
  5  6  1  0
  6  7  1  0
M  END
>  <PUBCHEM_COMPOUND_CID>  (1) 
7524

>  <PUBCHEM_CONFORMER_RMSD>  (1) 
0.4

>  <PUBCHEM_CONFORMER_DIVERSEORDER>  (1) 
3
11
9
10
8
12
6
7
2
1
5
4

>  <PUBCHEM_MMFF94_PARTIAL_CHARGES>  (1) 
6
1 -0.56
2 -0.68
20 0.4
4 0.28
7 0.28
8 0.28

>  <PUBCHEM_EFFECTIVE_ROTOR_COUNT>  (1) 
2.2

>  <PUBCHEM_PHARMACOPHORE_FEATURES>  (1) 
4
1 1 acceptor
1 2 acceptor
1 2 donor
6 1 3 4 5 6 7 rings

>  <PUBCHEM_HEAVY_ATOM_COUNT>  (1) 
8

>  <PUBCHEM_ATOM_DEF_STEREO_COUNT>  (1) 
0

>  <PUBCHEM_ATOM_UDEF_STEREO_COUNT>  (1) 
1

>  <PUBCHEM_BOND_DEF_STEREO_COUNT>  (1) 
0

>  <PUBCHEM_BOND_UDEF_STEREO_COUNT>  (1) 
0

>  <PUBCHEM_ISOTOPIC_ATOM_COUNT>  (1) 
0

>  <PUBCHEM_COMPONENT_COUNT>  (1) 
1

>  <PUBCHEM_CACTVS_TAUTO_COUNT>  (1) 
1

>  <PUBCHEM_CONFORMER_ID>  (1) 
00001D6400000003

>  <PUBCHEM_MMFF94_ENERGY>  (1) 
9.394

>  <PUBCHEM_FEATURE_SELFOVERLAP>  (1) 
20.302

>  <PUBCHEM_SHAPE_FINGERPRINT>  (1) 
12897270 3 18408602535212471197
18185500 45 18341608170655924854
20096714 4 18412261765802235200
21040471 1 18266740366831860192
23235685 24 18339075012056726584
23552423 10 18116158761762591422
29004967 10 18335422343939321681
5084963 1 18410859866775319488

>  <PUBCHEM_SHAPE_MULTIPOLES>  (1) 
152.9
3.21
1.43
0.64
1.6
0.01
0
0.22
0.01
-0.46
0.01
-0.04
-0.02
0.09

>  <PUBCHEM_SHAPE_SELFOVERLAP>  (1) 
292.215

>  <PUBCHEM_SHAPE_VOLUME>  (1) 
93.8

>  <PUBCHEM_COORDINATE_TYPE>  (1) 
2
5
10

$$$$
