7526
     RDKit          3D

  8  8  0  0  0  0  0  0  0  0999 V2000
   -2.6691   -0.2790   -0.4417 O   0  0  0  0  0  0  0  0  0  0  0  0
   -0.6659    0.1542   -0.0544 N   0  0  0  0  0  0  0  0  0  0  0  0
   -1.9119    0.3387    0.3133 N   0  0  0  0  0  0  0  0  0  0  0  0
    2.2362   -0.1789    0.0852 C   0  0  0  0  0  0  0  0  0  0  0  0
    1.5936    1.1335   -0.3455 C   0  0  0  0  0  0  0  0  0  0  0  0
    1.3032   -1.3463   -0.2111 C   0  0  0  0  0  0  0  0  0  0  0  0
    0.1991    1.2983    0.2624 C   0  0  0  0  0  0  0  0  0  0  0  0
   -0.0851   -1.1205    0.3918 C   0  0  0  0  0  0  0  0  0  0  0  0
  1  3  2  0
  2  3  1  0
  2  7  1  0
  2  8  1  0
  4  5  1  0
  4  6  1  0
  5  7  1  0
  6  8  1  0
M  END
>  <PUBCHEM_COMPOUND_CID>  (1) 
7526

>  <PUBCHEM_CONFORMER_RMSD>  (1) 
0.4

>  <PUBCHEM_CONFORMER_DIVERSEORDER>  (1) 
1
10
5
8
2
11
6
7
4
9
12
3

>  <PUBCHEM_MMFF94_PARTIAL_CHARGES>  (1) 
5
1 -0.16
2 -0.36
3 -0.01
7 0.27
8 0.27

>  <PUBCHEM_EFFECTIVE_ROTOR_COUNT>  (1) 
2.2

>  <PUBCHEM_PHARMACOPHORE_FEATURES>  (1) 
1
6 2 4 5 6 7 8 rings

>  <PUBCHEM_HEAVY_ATOM_COUNT>  (1) 
8

>  <PUBCHEM_ATOM_DEF_STEREO_COUNT>  (1) 
0

>  <PUBCHEM_ATOM_UDEF_STEREO_COUNT>  (1) 
0

>  <PUBCHEM_BOND_DEF_STEREO_COUNT>  (1) 
0

>  <PUBCHEM_BOND_UDEF_STEREO_COUNT>  (1) 
0

>  <PUBCHEM_ISOTOPIC_ATOM_COUNT>  (1) 
0

>  <PUBCHEM_COMPONENT_COUNT>  (1) 
1

>  <PUBCHEM_CACTVS_TAUTO_COUNT>  (1) 
1

>  <PUBCHEM_CONFORMER_ID>  (1) 
00001D6600000001

>  <PUBCHEM_MMFF94_ENERGY>  (1) 
4.6591

>  <PUBCHEM_FEATURE_SELFOVERLAP>  (1) 
5.074

>  <PUBCHEM_SHAPE_FINGERPRINT>  (1) 
18185500 45 18341050692438097610
20096714 4 18337113466058746698
21040471 1 18193840564061617824
23235685 24 18409447024736021428
23552423 10 18191595155011627974
29004967 10 18336271162663104586
5084963 1 18411417306327839584

>  <PUBCHEM_SHAPE_MULTIPOLES>  (1) 
148.8
2.96
1.44
0.67
1.39
0.02
0.01
0.08
-0.33
-0.51
0.02
-0.01
0.01
-0.07

>  <PUBCHEM_SHAPE_SELFOVERLAP>  (1) 
286.703

>  <PUBCHEM_SHAPE_VOLUME>  (1) 
90.8

>  <PUBCHEM_COORDINATE_TYPE>  (1) 
2
5
10

$$$$
