7534
     RDKit          3D

 21 22  0  0  1  0  0  0  0  0999 V2000
   -0.2883    1.3818    0.9734 O   0  0  0  0  0  0  0  0  0  0  0  0
   -0.8586    2.6509   -0.8660 O   0  0  0  0  0  0  0  0  0  0  0  0
   -3.4816    2.1556   -0.4830 O   0  0  0  0  0  0  0  0  0  0  0  0
    3.1680   -0.8165   -0.0539 N   0  0  0  0  0  0  0  0  0  0  0  0
    2.3466   -0.2875   -1.1849 C   0  0  0  0  0  0  0  0  0  0  0  0
    0.9536    0.1519   -0.6626 C   0  0  0  0  0  0  0  0  0  0  0  0
    3.2662    0.1149    1.1011 C   0  0  0  0  0  0  0  0  0  0  0  0
    1.0291    1.1350    0.4946 C   0  0  0  0  0  0  0  0  0  0  0  0
    1.8756    0.5356    1.6041 C   0  0  0  0  0  0  0  0  0  0  0  0
    3.0178    0.8885   -1.9312 C   0  0  0  0  0  0  0  0  0  0  0  0
    2.0692   -1.4062   -2.2216 C   0  0  0  0  0  0  0  0  0  0  0  0
    4.0234   -0.4874    2.2979 C   0  0  0  0  0  0  0  0  0  0  0  0
    4.4931   -1.2937   -0.4691 C   0  0  0  0  0  0  0  0  0  0  0  0
   -1.1628    1.9171    0.0658 C   0  0  0  0  0  0  0  0  0  0  0  0
   -2.5816    1.4959    0.3957 C   0  0  0  0  0  0  0  0  0  0  0  0
   -2.7886    0.0064    0.2707 C   0  0  0  0  0  0  0  0  0  0  0  0
   -3.1933   -0.5243   -0.9442 C   0  0  0  0  0  0  0  0  0  0  0  0
   -2.5708   -0.8051    1.3733 C   0  0  0  0  0  0  0  0  0  0  0  0
   -3.3850   -1.9011   -1.0595 C   0  0  0  0  0  0  0  0  0  0  0  0
   -2.7624   -2.1819    1.2579 C   0  0  0  0  0  0  0  0  0  0  0  0
   -3.1694   -2.7300    0.0415 C   0  0  0  0  0  0  0  0  0  0  0  0
  1  8  1  0
  1 14  1  0
  2 14  2  0
  3 15  1  0
  4  5  1  0
  4  7  1  0
  4 13  1  0
  5  6  1  0
  5 10  1  0
  5 11  1  0
  6  8  1  0
  7  9  1  0
  7 12  1  0
  8  9  1  0
 14 15  1  0
 15 16  1  0
 16 17  2  0
 16 18  1  0
 17 19  1  0
 18 20  2  0
 19 21  2  0
 20 21  1  0
M  END
>  <PUBCHEM_COMPOUND_CID>  (1) 
7534

>  <PUBCHEM_CONFORMER_RMSD>  (1) 
0.8

>  <PUBCHEM_CONFORMER_DIVERSEORDER>  (1) 
7
332
219
204
314
285
364
58
193
5
278
287
342
274
40
269
205
336
293
181
248
259
169
235
67
70
144
294
292
372
103
69
157
125
166
244
62
15
250
115
208
2
92
352
349
264
39
213
354
118
48
275
155
277
176
252
255
51
33
56
19
298
123
137
6
46
78
28
171
190
49
141
197
145
133
86
304
135
281
232
302
226
347
25
284
242
128
146
246
337
239
96
191
214
101
131
17
130
182
371
41
262
290
200
289
265
362
353
124
346
26
142
295
318
160
161
35
319
210
143
71
172
310
360
251
110
154
257
81
184
291
365
222
113
331
30
150
38
12
280
209
311
55
23
10
165
355
163
283
350
129
11
240
158
227
368
218
77
164
4
215
199
256
357
231
270
89
306
307
36
152
108
9
344
87
97
90
63
153
203
189
61
358
104
351
335
266
106
276
221
188
297
179
348
32
3
74
254
27
320
303
122
8
192
211
47
126
260
309
296
167
234
312
45
324
225
50
34
100
183
185
147
313
80
273
59
237
18
236
328
323
82
334
139
24
339
148
44
60
238
369
279
345
66
258
356
322
14
224
321
114
243
367
21
73
76
363
316
64
156
178
99
343
170
263
22
112
333
325
317
216
168
138
229
271
127
105
230
180
136
175
98
53
305
233
366
177
326
288
65
83
361
140
31
16
261
117
187
107
245
241
134
75
72
54
174
194
91
202
151
373
84
42
201
85
300
1
341
52
173
37
162
195
206
88
95
299
315
370
132
93
196
68
121
282
268
119
308
111
267
120
20
340
159
186
223
220
272
102
217
29
43
13
116
198
338
228
149
301
247
329
249
212
109
327
359
253
286
330
207
79
57
94

>  <PUBCHEM_MMFF94_PARTIAL_CHARGES>  (1) 
22
1 -0.43
13 0.27
14 0.66
15 0.48
16 -0.14
17 -0.15
18 -0.15
19 -0.15
2 -0.57
20 -0.15
21 -0.15
3 -0.68
4 -0.81
41 0.4
42 0.15
43 0.15
44 0.15
45 0.15
46 0.15
5 0.27
7 0.27
8 0.28

>  <PUBCHEM_EFFECTIVE_ROTOR_COUNT>  (1) 
5.2

>  <PUBCHEM_PHARMACOPHORE_FEATURES>  (1) 
7
1 2 acceptor
1 3 acceptor
1 3 donor
1 4 cation
3 5 10 11 hydrophobe
6 16 17 18 19 20 21 rings
6 4 5 6 7 8 9 rings

>  <PUBCHEM_HEAVY_ATOM_COUNT>  (1) 
21

>  <PUBCHEM_ATOM_DEF_STEREO_COUNT>  (1) 
0

>  <PUBCHEM_ATOM_UDEF_STEREO_COUNT>  (1) 
3

>  <PUBCHEM_BOND_DEF_STEREO_COUNT>  (1) 
0

>  <PUBCHEM_BOND_UDEF_STEREO_COUNT>  (1) 
0

>  <PUBCHEM_ISOTOPIC_ATOM_COUNT>  (1) 
0

>  <PUBCHEM_COMPONENT_COUNT>  (1) 
1

>  <PUBCHEM_CACTVS_TAUTO_COUNT>  (1) 
1

>  <PUBCHEM_CONFORMER_ID>  (1) 
00001D6E00000007

>  <PUBCHEM_MMFF94_ENERGY>  (1) 
47.3732

>  <PUBCHEM_FEATURE_SELFOVERLAP>  (1) 
35.527

>  <PUBCHEM_SHAPE_FINGERPRINT>  (1) 
10366900 7 17631730448582490348
11582403 64 16111964572812064345
12156800 1 12186604488789324487
12202030 40 18060423512228143001
12346177 29 18410566267496205361
12363563 72 18337668745301142139
12553582 1 18266191697766179851
12633257 1 17203343194676092787
12670545 47 17775287131737548612
12714826 92 18270137763309272409
13083527 12 17982993841942514041
13224815 77 17917717919639271596
14787075 74 14185313707992218233
15375358 24 17917417679855843441
15635459 17 17774727476076836527
15664445 248 15725028079403838735
16752209 62 18260257526421532297
17349148 13 15936410074459305376
17357779 13 18200583808929855663
18186145 218 15430045369837088232
19862831 5 17385720330999758491
20600515 1 18263625342821704953
20603629 256 16128379259575955302
20645476 183 17531535257042120177
21452121 199 18193274324189913905
21639500 275 15430331243029173596
21731516 1 18264219178253346299
232386 152 18259980465975025689
23557571 272 18271807899691014056
23559900 14 18341894027179655434
23598288 3 17096933464700077161
49207404 50 17631999927968406928
5262128 65 18118688948835465937
5281201 14 12829495809534184378
568465 68 17418373588640240864
7615 1 17676207974390126948
81228 2 18341058419522489977
9709674 26 18272642459287177441

>  <PUBCHEM_SHAPE_MULTIPOLES>  (1) 
409.58
8.14
2.56
1.96
2.08
0.18
0.08
-3.65
0.58
-2.72
-0.37
1.86
-0.42
0.56

>  <PUBCHEM_SHAPE_SELFOVERLAP>  (1) 
846.591

>  <PUBCHEM_SHAPE_VOLUME>  (1) 
234

>  <PUBCHEM_COORDINATE_TYPE>  (1) 
2
5
10

$$$$
