7543
     RDKit          3D

 17 18  0  0  0  0  0  0  0  0999 V2000
   -3.6989    2.4922   -0.0644 Cl  0  0  0  0  0  0  0  0  0  0  0  0
    3.6955    2.4929   -0.0653 Cl  0  0  0  0  0  0  0  0  0  0  0  0
   -4.7752   -0.0283   -1.3885 N   0  0  0  0  0  0  0  0  0  0  0  0
    4.7718   -0.0273   -1.3899 N   0  0  0  0  0  0  0  0  0  0  0  0
   -0.0011   -0.7174    1.6369 C   0  0  0  0  0  0  0  0  0  0  0  0
   -1.2512   -0.5278    0.8463 C   0  0  0  0  0  0  0  0  0  0  0  0
    1.2696   -0.5246    0.8339 C   0  0  0  0  0  0  0  0  0  0  0  0
   -1.8368    0.7352    0.7581 C   0  0  0  0  0  0  0  0  0  0  0  0
    1.8344    0.7354    0.7584 C   0  0  0  0  0  0  0  0  0  0  0  0
   -1.8353   -1.6143    0.1949 C   0  0  0  0  0  0  0  0  0  0  0  0
    1.8335   -1.6142    0.1957 C   0  0  0  0  0  0  0  0  0  0  0  0
   -3.0063    0.9116    0.0185 C   0  0  0  0  0  0  0  0  0  0  0  0
    3.0038    0.9120    0.0187 C   0  0  0  0  0  0  0  0  0  0  0  0
   -3.0045   -1.4380   -0.5446 C   0  0  0  0  0  0  0  0  0  0  0  0
    3.0028   -1.4377   -0.5438 C   0  0  0  0  0  0  0  0  0  0  0  0
   -3.5900   -0.1750   -0.6328 C   0  0  0  0  0  0  0  0  0  0  0  0
    3.5881   -0.1747   -0.6322 C   0  0  0  0  0  0  0  0  0  0  0  0
  1 12  1  0
  2 13  1  0
  3 16  1  0
  4 17  1  0
  5  6  1  0
  5  7  1  0
  6  8  2  0
  6 10  1  0
  7  9  2  0
  7 11  1  0
  8 12  1  0
  9 13  1  0
 10 14  2  0
 11 15  2  0
 12 16  2  0
 13 17  2  0
 14 16  1  0
 15 17  1  0
M  END
>  <PUBCHEM_COMPOUND_CID>  (1) 
7543

>  <PUBCHEM_CONFORMER_RMSD>  (1) 
0.6

>  <PUBCHEM_CONFORMER_DIVERSEORDER>  (1) 
1
4
7
8
10
11
5
6
9
3
2

>  <PUBCHEM_MMFF94_PARTIAL_CHARGES>  (1) 
27
1 -0.18
10 -0.15
11 -0.15
12 0.18
13 0.18
14 -0.15
15 -0.15
16 0.1
17 0.1
2 -0.18
20 0.15
21 0.15
22 0.15
23 0.15
24 0.15
25 0.15
26 0.4
27 0.4
28 0.4
29 0.4
3 -0.9
4 -0.9
5 0.29
6 -0.14
7 -0.14
8 -0.15
9 -0.15

>  <PUBCHEM_EFFECTIVE_ROTOR_COUNT>  (1) 
2

>  <PUBCHEM_PHARMACOPHORE_FEATURES>  (1) 
6
1 3 cation
1 3 donor
1 4 cation
1 4 donor
6 6 8 10 12 14 16 rings
6 7 9 11 13 15 17 rings

>  <PUBCHEM_HEAVY_ATOM_COUNT>  (1) 
17

>  <PUBCHEM_ATOM_DEF_STEREO_COUNT>  (1) 
0

>  <PUBCHEM_ATOM_UDEF_STEREO_COUNT>  (1) 
0

>  <PUBCHEM_BOND_DEF_STEREO_COUNT>  (1) 
0

>  <PUBCHEM_BOND_UDEF_STEREO_COUNT>  (1) 
0

>  <PUBCHEM_ISOTOPIC_ATOM_COUNT>  (1) 
0

>  <PUBCHEM_COMPONENT_COUNT>  (1) 
1

>  <PUBCHEM_CACTVS_TAUTO_COUNT>  (1) 
1

>  <PUBCHEM_CONFORMER_ID>  (1) 
00001D7700000001

>  <PUBCHEM_MMFF94_ENERGY>  (1) 
63.3393

>  <PUBCHEM_FEATURE_SELFOVERLAP>  (1) 
30.446

>  <PUBCHEM_SHAPE_FINGERPRINT>  (1) 
10498660 4 18040987445526857709
11543360 7 18272086132025516487
11715629 250 18333443253100573489
12173636 292 18409161108947840711
12346177 29 12679187068338250491
12363563 72 14979953649039891450
12553582 1 12103563112591396737
12670546 177 18273497887701774501
12707595 3 15841545275648938707
12892183 10 11097858509998974846
13296908 3 14836401419512809395
13464514 151 18260556584836090810
13675066 3 12468636149306723074
13705890 14 17418097633092157482
14123260 362 17530971288732783879
14250199 8 18410016558563175152
14251764 38 18263644133752101996
15239191 94 13901913322985683318
17804303 29 9366805020978671049
1813 80 13686304607617064522
18186145 218 17676771985057961282
193927 3 13470404539115907543
19862831 5 18202283597618167603
200 152 17346883351113298970
20361792 2 14764626425843650643
20645477 70 17203613687821828118
20671657 53 15985104123842119138
20871999 31 18272086080955264393
21713013 43 17704069629239794767
21864079 5 18260825947820962561
22079108 93 17531259327100291089
221357 26 18343019991073553965
22393880 68 18344150293553905926
22646028 28 13183017427847014487
231179 274 17167859768630680102
23402539 116 18259987059514507980
23402655 69 18339647732976272336
23557571 272 17971475349508388763
23559900 14 17988075591919014226
25 1 18114189588124688514
26918003 58 9799403391508278795
3082319 5 18342738507211327755
4028521 119 18186515510239009685
4280585 95 17339863876231263078
4371632 12 12387008651370272696
474 4 17531251685614810972
5161694 15 17988925530964512317
5281201 14 18342746212540834436
59027123 10 18343023285144528628
633830 44 17823422587171308923
7832392 63 18409167671172702089
90316 7 9223232992296334771
93112 12 18341896294236799930
9981440 41 18044085989668858608

>  <PUBCHEM_SHAPE_MULTIPOLES>  (1) 
343.63
9.17
2.21
1.19
0.03
1.17
-0.06
2.89
4.3
0
0.04
0
-0.18
0

>  <PUBCHEM_SHAPE_SELFOVERLAP>  (1) 
721.01

>  <PUBCHEM_SHAPE_VOLUME>  (1) 
196

>  <PUBCHEM_COORDINATE_TYPE>  (1) 
2
5
10

$$$$
