7544
     RDKit          3D

 15 16  0  0  0  0  0  0  0  0999 V2000
    2.9332   -1.8113    0.4147 O   0  0  0  0  0  0  0  0  0  0  0  0
   -0.7575    1.2780    0.2259 N   0  0  0  0  0  0  0  0  0  0  0  0
    0.6145    1.0000    0.0710 C   0  0  0  0  0  0  0  0  0  0  0  0
   -1.9151    0.4855    0.0801 C   0  0  0  0  0  0  0  0  0  0  0  0
    1.1009   -0.2840    0.3226 C   0  0  0  0  0  0  0  0  0  0  0  0
    1.4908    2.0082   -0.3343 C   0  0  0  0  0  0  0  0  0  0  0  0
    2.4599   -0.5590    0.1691 C   0  0  0  0  0  0  0  0  0  0  0  0
   -3.0482    0.7577    0.8469 C   0  0  0  0  0  0  0  0  0  0  0  0
   -1.9267   -0.5710   -0.8308 C   0  0  0  0  0  0  0  0  0  0  0  0
    2.8495    1.7332   -0.4877 C   0  0  0  0  0  0  0  0  0  0  0  0
    3.3341    0.4496   -0.2362 C   0  0  0  0  0  0  0  0  0  0  0  0
   -4.1926   -0.0266    0.7030 C   0  0  0  0  0  0  0  0  0  0  0  0
   -3.0713   -1.3551   -0.9746 C   0  0  0  0  0  0  0  0  0  0  0  0
   -4.2043   -1.0828   -0.2077 C   0  0  0  0  0  0  0  0  0  0  0  0
    4.3331   -2.0226    0.2380 C   0  0  0  0  0  0  0  0  0  0  0  0
  1  7  1  0
  1 15  1  0
  2  3  1  0
  2  4  1  0
  3  5  2  0
  3  6  1  0
  4  8  2  0
  4  9  1  0
  5  7  1  0
  6 10  2  0
  7 11  2  0
  8 12  1  0
  9 13  2  0
 10 11  1  0
 12 14  2  0
 13 14  1  0
M  END
>  <PUBCHEM_COMPOUND_CID>  (1) 
7544

>  <PUBCHEM_CONFORMER_RMSD>  (1) 
0.6

>  <PUBCHEM_CONFORMER_DIVERSEORDER>  (1) 
1
4
11
3
5
10
9
8
6
2
7

>  <PUBCHEM_MMFF94_PARTIAL_CHARGES>  (1) 
25
1 -0.36
10 -0.15
11 -0.15
12 -0.15
13 -0.15
14 -0.15
15 0.28
16 0.4
17 0.15
18 0.15
19 0.15
2 -0.6
20 0.15
21 0.15
22 0.15
23 0.15
24 0.15
25 0.15
3 0.1
4 0.1
5 -0.15
6 -0.15
7 0.08
8 -0.15
9 -0.15

>  <PUBCHEM_EFFECTIVE_ROTOR_COUNT>  (1) 
3

>  <PUBCHEM_PHARMACOPHORE_FEATURES>  (1) 
5
1 1 acceptor
1 2 cation
1 2 donor
6 3 5 6 7 10 11 rings
6 4 8 9 12 13 14 rings

>  <PUBCHEM_HEAVY_ATOM_COUNT>  (1) 
15

>  <PUBCHEM_ATOM_DEF_STEREO_COUNT>  (1) 
0

>  <PUBCHEM_ATOM_UDEF_STEREO_COUNT>  (1) 
0

>  <PUBCHEM_BOND_DEF_STEREO_COUNT>  (1) 
0

>  <PUBCHEM_BOND_UDEF_STEREO_COUNT>  (1) 
0

>  <PUBCHEM_ISOTOPIC_ATOM_COUNT>  (1) 
0

>  <PUBCHEM_COMPONENT_COUNT>  (1) 
1

>  <PUBCHEM_CACTVS_TAUTO_COUNT>  (1) 
1

>  <PUBCHEM_CONFORMER_ID>  (1) 
00001D7800000001

>  <PUBCHEM_MMFF94_ENERGY>  (1) 
64.6756

>  <PUBCHEM_FEATURE_SELFOVERLAP>  (1) 
25.371

>  <PUBCHEM_SHAPE_FINGERPRINT>  (1) 
10062212 137 18201997733733681943
10616163 171 18199752625131267815
11578080 2 18128510761305146241
11769659 78 18412822477887934176
11806522 49 18408039585839207554
12553582 1 18263074419040229106
13296908 3 18260260828692369525
14144814 61 18202286930882099657
14251717 144 18334855051958612786
14576447 43 18340203119423603438
15239191 94 18412825802350870335
15375462 189 18271812366657657113
15442244 35 18339927021656360848
15477762 27 18334576858558481836
15536298 74 18342457062610507528
15669948 3 17631732806714396773
1813 80 18262812748310363734
18186145 218 17095240315397630297
19422 9 18413392046654867091
20279233 1 16443338819127812409
20281475 54 18341046406371985575
20291156 8 18339078194590387770
20645477 70 18260820518918645943
21267235 1 18412272726337598815
221490 88 18261119620393725266
22445834 79 18341896320254484541
22485316 2 18413106186527291553
2255824 54 18265337394369322556
22646028 28 18413387635475761575
23402655 69 18408605868123332925
23463225 33 18342459244348340519
23598291 2 18411705356867870893
474 4 18049160274080457508
5104073 3 18343869930878578555
5281201 14 17385722499857997317
573450 72 17846500331432095195
581208 293 18334856177303588200
633830 44 17385724694813294209
7364860 26 18341328981129531312
77492 1 18273220823962639529
83771 10 18409448046864209456
9709674 26 18188494686951054763

>  <PUBCHEM_SHAPE_MULTIPOLES>  (1) 
297.84
8.61
2.02
0.86
1.97
0.17
-0.05
3.72
0.48
-2.03
-0.1
0.46
0.05
-1.13

>  <PUBCHEM_SHAPE_SELFOVERLAP>  (1) 
634.875

>  <PUBCHEM_SHAPE_VOLUME>  (1) 
165.3

>  <PUBCHEM_COORDINATE_TYPE>  (1) 
2
5
10

$$$$
