7551
     RDKit          3D

 16 16  0  0  0  0  0  0  0  0999 V2000
   -5.1088   -2.5259   -0.0349 Cl  0  0  0  0  0  0  0  0  0  0  0  0
    5.9808   -2.4287    0.1202 Cl  0  0  0  0  0  0  0  0  0  0  0  0
    1.6030    0.3823   -0.0148 O   0  0  0  0  0  0  0  0  0  0  0  0
    0.1173    2.1205    0.0282 O   0  0  0  0  0  0  0  0  0  0  0  0
   -0.5947   -0.1138   -0.0128 N   0  0  0  0  0  0  0  0  0  0  0  0
   -1.9870   -0.0246   -0.0034 C   0  0  0  0  0  0  0  0  0  0  0  0
   -2.7612   -1.1848   -0.0219 C   0  0  0  0  0  0  0  0  0  0  0  0
   -2.6047    1.2256    0.0256 C   0  0  0  0  0  0  0  0  0  0  0  0
   -4.1532   -1.0947   -0.0114 C   0  0  0  0  0  0  0  0  0  0  0  0
   -3.9967    1.3157    0.0359 C   0  0  0  0  0  0  0  0  0  0  0  0
   -4.7709    0.1555    0.0174 C   0  0  0  0  0  0  0  0  0  0  0  0
    0.3422    0.9166    0.0030 C   0  0  0  0  0  0  0  0  0  0  0  0
    2.6842    1.3217   -0.0023 C   0  0  0  0  0  0  0  0  0  0  0  0
    3.9593    0.6060   -0.0239 C   0  0  0  0  0  0  0  0  0  0  0  0
    5.0069    0.0186   -0.0414 C   0  0  0  0  0  0  0  0  0  0  0  0
    6.2836   -0.6901   -0.0635 C   0  0  0  0  0  0  0  0  0  0  0  0
  1  9  1  0
  2 16  1  0
  3 12  1  0
  3 13  1  0
  4 12  2  0
  5  6  1  0
  5 12  1  0
  6  7  2  0
  6  8  1  0
  7  9  1  0
  8 10  2  0
  9 11  2  0
 10 11  1  0
 13 14  1  0
 14 15  3  0
 15 16  1  0
M  END
>  <PUBCHEM_COMPOUND_CID>  (1) 
7551

>  <PUBCHEM_CONFORMER_RMSD>  (1) 
0.6

>  <PUBCHEM_CONFORMER_DIVERSEORDER>  (1) 
1
86
49
98
104
84
3
89
44
83
64
21
63
79
4
2
106
107
100
14
80
13
33
97
103
38
52
95
42
105
43
34
58
99
50
22
71
48
91
101
94
24
69
18
81
16
40
82
92
70
102
15
20
85
96
51
8
28
47
93
12
27
67
73
60
9
35
87
26
11
23
109
77
19
88
5
90
41
39
62
68
57
74
36
7
25
108
10
61
17
45
59
37
72
65
32
78
31
53
30
66
54
46
29
6
76
75
56
55

>  <PUBCHEM_MMFF94_PARTIAL_CHARGES>  (1) 
21
1 -0.18
10 -0.15
11 -0.15
12 0.78
13 0.48
14 -0.2
15 -0.2
16 0.49
17 0.15
18 0.15
19 0.37
2 -0.29
20 0.15
21 0.15
3 -0.43
4 -0.57
5 -0.55
6 0.12
7 -0.15
8 -0.15
9 0.18

>  <PUBCHEM_EFFECTIVE_ROTOR_COUNT>  (1) 
4

>  <PUBCHEM_PHARMACOPHORE_FEATURES>  (1) 
3
1 4 acceptor
1 5 donor
6 6 7 8 9 10 11 rings

>  <PUBCHEM_HEAVY_ATOM_COUNT>  (1) 
16

>  <PUBCHEM_ATOM_DEF_STEREO_COUNT>  (1) 
0

>  <PUBCHEM_ATOM_UDEF_STEREO_COUNT>  (1) 
0

>  <PUBCHEM_BOND_DEF_STEREO_COUNT>  (1) 
0

>  <PUBCHEM_BOND_UDEF_STEREO_COUNT>  (1) 
0

>  <PUBCHEM_ISOTOPIC_ATOM_COUNT>  (1) 
0

>  <PUBCHEM_COMPONENT_COUNT>  (1) 
1

>  <PUBCHEM_CACTVS_TAUTO_COUNT>  (1) 
2

>  <PUBCHEM_CONFORMER_ID>  (1) 
00001D7F00000001

>  <PUBCHEM_MMFF94_ENERGY>  (1) 
29.3295

>  <PUBCHEM_FEATURE_SELFOVERLAP>  (1) 
15.223

>  <PUBCHEM_SHAPE_FINGERPRINT>  (1) 
11315181 36 18342741831505731849
117890 112 9727638302113033578
12916754 54 18337110180662486021
13073987 5 18342740753811890416
13167823 11 18409445903707333202
13288520 33 18410575111044838461
13862211 1 18270679878466356111
13955234 65 17984699176394175984
14251731 8 18335981991358440868
15048467 5 9223241740659036751
15196674 1 18410856598479429868
17844677 252 18412550933176766536
20374829 77 18410012122236283852
20621476 30 18335140942062263211
20645477 70 18334012796741137862
21267235 1 18335708277698721027
220451 1 18410022022288881908
23402539 116 18413103974687797101
23559900 14 18340477958671047801
23590187 198 18409167705526814836
3004659 81 18187649081753982310
351380 3 18335698339170992650
4214541 1 18410856555561476865
465052 167 18272374183351648590
49783359 22 18343581867015976535
5104073 3 18059579121642042793
559249 180 18410008806231536887
57483677 66 18410291411106380298
9971528 1 18040715909352831684

>  <PUBCHEM_SHAPE_MULTIPOLES>  (1) 
316.29
15.67
2.29
0.61
17.43
1.16
0
9.86
-0.01
-0.47
-0.04
0
0.03
-0.17

>  <PUBCHEM_SHAPE_SELFOVERLAP>  (1) 
625.956

>  <PUBCHEM_SHAPE_VOLUME>  (1) 
188.1

>  <PUBCHEM_COORDINATE_TYPE>  (1) 
2
5
10

$$$$
