7555
     RDKit          3D

 18 18  0  0  0  0  0  0  0  0999 V2000
   -2.8507    1.0716    0.0964 O   0  0  0  0  0  0  0  0  0  0  0  0
    0.3363   -2.2804    0.2000 O   0  0  0  0  0  0  0  0  0  0  0  0
    1.6413    2.1410   -0.1885 O   0  0  0  0  0  0  0  0  0  0  0  0
   -1.2933   -0.6387    0.1521 N   0  0  0  0  0  0  0  0  0  0  0  0
   -0.6164    1.6546   -0.0493 N   0  0  0  0  0  0  0  0  0  0  0  0
    1.0365   -0.0839    0.0042 N   0  0  0  0  0  0  0  0  0  0  0  0
   -1.5369    0.6810    0.0652 C   0  0  0  0  0  0  0  0  0  0  0  0
    0.0133   -0.9463    0.1153 C   0  0  0  0  0  0  0  0  0  0  0  0
    0.6463    1.1985   -0.0732 C   0  0  0  0  0  0  0  0  0  0  0  0
   -3.8228    0.0427    0.2174 C   0  0  0  0  0  0  0  0  0  0  0  0
    1.7191   -2.6028    0.1609 C   0  0  0  0  0  0  0  0  0  0  0  0
    2.9760    1.6557   -0.2134 C   0  0  0  0  0  0  0  0  0  0  0  0
   -5.1763    0.6679    0.2910 C   0  0  0  0  0  0  0  0  0  0  0  0
    1.8723   -4.0787    0.3218 C   0  0  0  0  0  0  0  0  0  0  0  0
    3.9031    2.8107   -0.3993 C   0  0  0  0  0  0  0  0  0  0  0  0
   -6.1571    0.4314   -0.5872 C   0  0  0  0  0  0  0  0  0  0  0  0
    2.4498   -4.8733   -0.5860 C   0  0  0  0  0  0  0  0  0  0  0  0
    4.8593    3.1491    0.4727 C   0  0  0  0  0  0  0  0  0  0  0  0
  1  7  1  0
  1 10  1  0
  2  8  1  0
  2 11  1  0
  3  9  1  0
  3 12  1  0
  4  7  2  0
  4  8  1  0
  5  7  1  0
  5  9  2  0
  6  8  2  0
  6  9  1  0
 10 13  1  0
 11 14  1  0
 12 15  1  0
 13 16  2  0
 14 17  2  0
 15 18  2  0
M  END
>  <PUBCHEM_COMPOUND_CID>  (1) 
7555

>  <PUBCHEM_CONFORMER_RMSD>  (1) 
0.8

>  <PUBCHEM_CONFORMER_DIVERSEORDER>  (1) 
1
2
14
16
7
8
17
15
11
10
19
18
13
9
5
3
12
4
6

>  <PUBCHEM_MMFF94_PARTIAL_CHARGES>  (1) 
27
1 -0.36
10 0.42
11 0.42
12 0.42
13 -0.29
14 -0.29
15 -0.29
16 -0.3
17 -0.3
18 -0.3
2 -0.36
25 0.15
26 0.15
27 0.15
28 0.15
29 0.15
3 -0.36
30 0.15
31 0.15
32 0.15
33 0.15
4 -0.62
5 -0.62
6 -0.62
7 0.7
8 0.7
9 0.7

>  <PUBCHEM_EFFECTIVE_ROTOR_COUNT>  (1) 
9

>  <PUBCHEM_PHARMACOPHORE_FEATURES>  (1) 
7
1 16 hydrophobe
1 17 hydrophobe
1 18 hydrophobe
3 4 5 7 cation
3 4 6 8 cation
3 5 6 9 cation
6 4 5 6 7 8 9 rings

>  <PUBCHEM_HEAVY_ATOM_COUNT>  (1) 
18

>  <PUBCHEM_ATOM_DEF_STEREO_COUNT>  (1) 
0

>  <PUBCHEM_ATOM_UDEF_STEREO_COUNT>  (1) 
0

>  <PUBCHEM_BOND_DEF_STEREO_COUNT>  (1) 
0

>  <PUBCHEM_BOND_UDEF_STEREO_COUNT>  (1) 
0

>  <PUBCHEM_ISOTOPIC_ATOM_COUNT>  (1) 
0

>  <PUBCHEM_COMPONENT_COUNT>  (1) 
1

>  <PUBCHEM_CACTVS_TAUTO_COUNT>  (1) 
1

>  <PUBCHEM_CONFORMER_ID>  (1) 
00001D8300000001

>  <PUBCHEM_MMFF94_ENERGY>  (1) 
39.9109

>  <PUBCHEM_FEATURE_SELFOVERLAP>  (1) 
38.287

>  <PUBCHEM_SHAPE_FINGERPRINT>  (1) 
10411042 1 17905890271033077795
13540713 5 18058735676861480097
138480 1 18194121803026221194
13955234 65 18410299068816908667
13968360 50 18336817688883177519
14178000 29 18052818048939838199
14508225 48 17762044446178139311
15042514 8 17472424725869789490
167882 2 18409449163402907499
17539 30 17405144514101698606
18915476 22 18262500529873248429
20554085 129 18058433452211960640
20600515 1 17326299174818022096
20645477 70 18334289830626881371
21054139 6 18126275574998928935
212916 134 18198891694894992608
23366157 5 18115315461982028704
23402539 116 18198620128160004629
23419403 2 17823963546660086150
23558518 356 17478879940971309484
23559900 14 18120648042412056875
23598288 3 17393335725007345300
3071541 37 18335425664144324229
3091708 16 9114722133536400682
42630746 31 18412543206182012645
5385378 56 18411144627829598145
6025842 7 18410289203598652927
7364860 26 18410576141256838211
77188 2 17978510828320350430
81539 233 18261393373055998357
9841814 1 17969781865462906227

>  <PUBCHEM_SHAPE_MULTIPOLES>  (1) 
337.88
9.87
5.54
0.68
14.02
8.14
-0.02
-8.11
-0.55
-11.24
-0.36
-0.02
0.05
0.28

>  <PUBCHEM_SHAPE_SELFOVERLAP>  (1) 
674.313

>  <PUBCHEM_SHAPE_VOLUME>  (1) 
195

>  <PUBCHEM_COORDINATE_TYPE>  (1) 
2
5
10

$$$$
