7558
     RDKit          3D

 11 11  0  0  1  0  0  0  0  0999 V2000
   -2.3002    0.4848   -0.8625 N   0  0  0  0  0  0  0  0  0  0  0  0
    0.5234   -0.3335   -0.1981 C   0  0  0  0  0  0  0  0  0  0  0  0
    0.9037    0.7162    0.8550 C   0  0  0  0  0  0  0  0  0  0  0  0
    1.6861   -1.3035   -0.4474 C   0  0  0  0  0  0  0  0  0  0  0  0
   -0.7317   -1.0937    0.2266 C   0  0  0  0  0  0  0  0  0  0  0  0
    2.1866    1.4535    0.4783 C   0  0  0  0  0  0  0  0  0  0  0  0
    2.9679   -0.5628   -0.8218 C   0  0  0  0  0  0  0  0  0  0  0  0
    3.3377    0.4857    0.2228 C   0  0  0  0  0  0  0  0  0  0  0  0
   -1.9658   -0.1949    0.3890 C   0  0  0  0  0  0  0  0  0  0  0  0
   -3.1695   -1.0233    0.8361 C   0  0  0  0  0  0  0  0  0  0  0  0
   -3.4383    1.3714   -0.6782 C   0  0  0  0  0  0  0  0  0  0  0  0
  1  9  1  0
  1 11  1  0
  2  3  1  0
  2  4  1  0
  2  5  1  0
  3  6  1  0
  4  7  1  0
  5  9  1  0
  6  8  1  0
  7  8  1  0
  9 10  1  0
M  END
>  <PUBCHEM_COMPOUND_CID>  (1) 
7558

>  <PUBCHEM_CONFORMER_RMSD>  (1) 
0.6

>  <PUBCHEM_CONFORMER_DIVERSEORDER>  (1) 
6
20
1
26
19
24
11
16
27
3
4
23
13
22
14
21
5
17
7
25
10
15
18
9
12
8
2

>  <PUBCHEM_MMFF94_PARTIAL_CHARGES>  (1) 
4
1 -0.9
11 0.27
29 0.36
9 0.27

>  <PUBCHEM_EFFECTIVE_ROTOR_COUNT>  (1) 
4.2

>  <PUBCHEM_PHARMACOPHORE_FEATURES>  (1) 
3
1 1 cation
1 1 donor
6 2 3 4 6 7 8 rings

>  <PUBCHEM_HEAVY_ATOM_COUNT>  (1) 
11

>  <PUBCHEM_ATOM_DEF_STEREO_COUNT>  (1) 
0

>  <PUBCHEM_ATOM_UDEF_STEREO_COUNT>  (1) 
1

>  <PUBCHEM_BOND_DEF_STEREO_COUNT>  (1) 
0

>  <PUBCHEM_BOND_UDEF_STEREO_COUNT>  (1) 
0

>  <PUBCHEM_ISOTOPIC_ATOM_COUNT>  (1) 
0

>  <PUBCHEM_COMPONENT_COUNT>  (1) 
1

>  <PUBCHEM_CACTVS_TAUTO_COUNT>  (1) 
1

>  <PUBCHEM_CONFORMER_ID>  (1) 
00001D8600000006

>  <PUBCHEM_MMFF94_ENERGY>  (1) 
7.1398

>  <PUBCHEM_FEATURE_SELFOVERLAP>  (1) 
15.223

>  <PUBCHEM_SHAPE_FINGERPRINT>  (1) 
10608611 8 18410008866350639977
10857977 72 17822014258810257923
124424 183 18335130965116212034
12654215 9 18341890754140438252
12932741 1 18410012130646902863
12932764 1 18410296929728158835
13764800 53 17968100781283262497
14325111 11 18410292531649583490
14390081 3 18334852805769747333
14993402 34 16487252175395951500
15219456 202 18411982472431534098
15775835 57 17313380093769982601
16945 1 18059860562606927026
17844478 74 18335713779288005283
18186145 218 18272662224584229226
20201158 50 18343582910861704566
20279233 1 18410853261157790187
20645464 45 18334290976823941299
20645477 70 17988924414257419062
20651381 32 18273494550702089236
20711983 171 17385445410048144198
20715346 28 18409731789404343331
20767249 442 17604138238817146669
21028194 46 18338518650319068568
21639500 275 17632005472407552912
22802520 49 18339365149755561597
23402539 116 17968368078404247331
23402655 69 18059849528836288093
25 1 18267584611410185109
2748010 2 17914338124338699994
3248919 1 16702304550523283255
5084963 1 18262249901103730707
6333449 129 18260545624090061735
77492 1 15985109608462555995
8030462 33 16128653050639739347

>  <PUBCHEM_SHAPE_MULTIPOLES>  (1) 
221.39
6.09
1.48
0.97
1.72
0.15
0.01
1.03
0.54
0.13
0.01
0.21
0.05
1.11

>  <PUBCHEM_SHAPE_SELFOVERLAP>  (1) 
419.711

>  <PUBCHEM_SHAPE_VOLUME>  (1) 
135.7

>  <PUBCHEM_COORDINATE_TYPE>  (1) 
2
5
10

$$$$
