7562
     RDKit          3D

 12 13  0  0  0  0  0  0  0  0999 V2000
    2.6765   -1.1106    0.0991 O   0  0  0  0  0  0  0  0  0  0  0  0
    1.7872    0.9892   -0.4605 O   0  0  0  0  0  0  0  0  0  0  0  0
    1.4817   -0.3941   -0.2385 C   0  0  0  0  0  0  0  0  0  0  0  0
    0.4783   -0.5271    0.8909 C   0  0  0  0  0  0  0  0  0  0  0  0
    3.7313   -0.2329   -0.2894 C   0  0  0  0  0  0  0  0  0  0  0  0
    3.1460    1.1313   -0.0470 C   0  0  0  0  0  0  0  0  0  0  0  0
   -0.9288   -0.2395    0.4299 C   0  0  0  0  0  0  0  0  0  0  0  0
   -1.4136    1.0581    0.4922 C   0  0  0  0  0  0  0  0  0  0  0  0
   -1.7138   -1.2774   -0.0489 C   0  0  0  0  0  0  0  0  0  0  0  0
   -2.7147    1.3243    0.0658 C   0  0  0  0  0  0  0  0  0  0  0  0
   -3.0150   -1.0111   -0.4754 C   0  0  0  0  0  0  0  0  0  0  0  0
   -3.5152    0.2897   -0.4180 C   0  0  0  0  0  0  0  0  0  0  0  0
  1  3  1  0
  1  5  1  0
  2  3  1  0
  2  6  1  0
  3  4  1  0
  4  7  1  0
  5  6  1  0
  7  8  2  0
  7  9  1  0
  8 10  1  0
  9 11  2  0
 10 12  2  0
 11 12  1  0
M  END
>  <PUBCHEM_COMPOUND_CID>  (1) 
7562

>  <PUBCHEM_CONFORMER_RMSD>  (1) 
0.6

>  <PUBCHEM_CONFORMER_DIVERSEORDER>  (1) 
1
3
4
2
5

>  <PUBCHEM_MMFF94_PARTIAL_CHARGES>  (1) 
17
1 -0.56
10 -0.15
11 -0.15
12 -0.15
2 -0.56
20 0.15
21 0.15
22 0.15
23 0.15
24 0.15
3 0.56
4 0.14
5 0.28
6 0.28
7 -0.14
8 -0.15
9 -0.15

>  <PUBCHEM_EFFECTIVE_ROTOR_COUNT>  (1) 
3

>  <PUBCHEM_PHARMACOPHORE_FEATURES>  (1) 
4
1 1 acceptor
1 2 acceptor
5 1 2 3 5 6 rings
6 7 8 9 10 11 12 rings

>  <PUBCHEM_HEAVY_ATOM_COUNT>  (1) 
12

>  <PUBCHEM_ATOM_DEF_STEREO_COUNT>  (1) 
0

>  <PUBCHEM_ATOM_UDEF_STEREO_COUNT>  (1) 
0

>  <PUBCHEM_BOND_DEF_STEREO_COUNT>  (1) 
0

>  <PUBCHEM_BOND_UDEF_STEREO_COUNT>  (1) 
0

>  <PUBCHEM_ISOTOPIC_ATOM_COUNT>  (1) 
0

>  <PUBCHEM_COMPONENT_COUNT>  (1) 
1

>  <PUBCHEM_CACTVS_TAUTO_COUNT>  (1) 
1

>  <PUBCHEM_CONFORMER_ID>  (1) 
00001D8A00000001

>  <PUBCHEM_MMFF94_ENERGY>  (1) 
29.1036

>  <PUBCHEM_FEATURE_SELFOVERLAP>  (1) 
20.338

>  <PUBCHEM_SHAPE_FINGERPRINT>  (1) 
10608611 8 18411697707652734784
12162725 195 18409167722891365356
12897270 3 18342739649656687203
12932764 1 17632291310891558042
13024252 1 17822294595973985163
14144814 61 18335421248833392002
14325111 11 18410012130430527576
15442244 35 18122062009896394626
15775835 57 18186803539172329109
18186145 218 18113898247360035798
200 152 18060134344949031502
20201158 50 17918276432807223047
20279233 1 15554444080790602159
20281407 28 14836406930018880365
20361792 2 14620793799239277881
20645464 45 12685088160002584979
20653085 51 18260555497924554129
20871999 31 18270103730495042487
21119208 17 18411981351460926759
22485316 2 12895076197478342388
23402539 116 18272360954208753101
23402655 69 18410011000912489076
23552423 10 18265891367883267219
23559900 14 18059570257599507610
3248919 1 17346607343629761226
528716 315 18412548742700662903
57096353 35 18338797934820319142
57812782 119 18201718457505640796
93112 12 18412265034214429278

>  <PUBCHEM_SHAPE_MULTIPOLES>  (1) 
235.22
6.56
1.39
0.77
2.3
0.12
0.06
0.45
-1.22
-0.35
-0.01
-0.07
-0.02
-0.23

>  <PUBCHEM_SHAPE_SELFOVERLAP>  (1) 
492.915

>  <PUBCHEM_SHAPE_VOLUME>  (1) 
133.1

>  <PUBCHEM_COORDINATE_TYPE>  (1) 
2
5
10

$$$$
