7571
     RDKit          3D

 17 18  0  0  0  0  0  0  0  0999 V2000
   -5.0908   -0.7640    0.1220 O   0  0  0  0  0  0  0  0  0  0  0  0
    5.0910   -0.7640   -0.1211 O   0  0  0  0  0  0  0  0  0  0  0  0
    0.0001    1.4709   -0.0005 N   0  0  0  0  0  0  0  0  0  0  0  0
   -1.2911    0.9043    0.0297 C   0  0  0  0  0  0  0  0  0  0  0  0
    1.2896    0.9051   -0.0302 C   0  0  0  0  0  0  0  0  0  0  0  0
   -2.3354    1.5821    0.6588 C   0  0  0  0  0  0  0  0  0  0  0  0
    2.3361    1.5826   -0.6581 C   0  0  0  0  0  0  0  0  0  0  0  0
   -1.5237   -0.3342   -0.5682 C   0  0  0  0  0  0  0  0  0  0  0  0
    1.5235   -0.3347    0.5669 C   0  0  0  0  0  0  0  0  0  0  0  0
   -3.8447   -0.2173    0.0924 C   0  0  0  0  0  0  0  0  0  0  0  0
    3.8450   -0.2173   -0.0920 C   0  0  0  0  0  0  0  0  0  0  0  0
   -3.6122    1.0213    0.6903 C   0  0  0  0  0  0  0  0  0  0  0  0
    3.6129    1.0218   -0.6891 C   0  0  0  0  0  0  0  0  0  0  0  0
   -2.8006   -0.8950   -0.5370 C   0  0  0  0  0  0  0  0  0  0  0  0
    2.8004   -0.8954    0.5361 C   0  0  0  0  0  0  0  0  0  0  0  0
   -5.2583   -2.0329   -0.5086 C   0  0  0  0  0  0  0  0  0  0  0  0
    5.2582   -2.0333    0.5086 C   0  0  0  0  0  0  0  0  0  0  0  0
  1 10  1  0
  1 16  1  0
  2 11  1  0
  2 17  1  0
  3  4  1  0
  3  5  1  0
  4  6  2  0
  4  8  1  0
  5  7  2  0
  5  9  1  0
  6 12  1  0
  7 13  1  0
  8 14  2  0
  9 15  2  0
 10 12  2  0
 10 14  1  0
 11 13  2  0
 11 15  1  0
M  END
>  <PUBCHEM_COMPOUND_CID>  (1) 
7571

>  <PUBCHEM_CONFORMER_RMSD>  (1) 
0.6

>  <PUBCHEM_CONFORMER_DIVERSEORDER>  (1) 
1
6
9
3
8
7
4
5
2

>  <PUBCHEM_MMFF94_PARTIAL_CHARGES>  (1) 
26
1 -0.36
10 0.08
11 0.08
12 -0.15
13 -0.15
14 -0.15
15 -0.15
16 0.28
17 0.28
18 0.4
19 0.15
2 -0.36
20 0.15
21 0.15
22 0.15
23 0.15
24 0.15
25 0.15
26 0.15
3 -0.6
4 0.1
5 0.1
6 -0.15
7 -0.15
8 -0.15
9 -0.15

>  <PUBCHEM_EFFECTIVE_ROTOR_COUNT>  (1) 
4

>  <PUBCHEM_PHARMACOPHORE_FEATURES>  (1) 
6
1 1 acceptor
1 2 acceptor
1 3 cation
1 3 donor
6 4 6 8 10 12 14 rings
6 5 7 9 11 13 15 rings

>  <PUBCHEM_HEAVY_ATOM_COUNT>  (1) 
17

>  <PUBCHEM_ATOM_DEF_STEREO_COUNT>  (1) 
0

>  <PUBCHEM_ATOM_UDEF_STEREO_COUNT>  (1) 
0

>  <PUBCHEM_BOND_DEF_STEREO_COUNT>  (1) 
0

>  <PUBCHEM_BOND_UDEF_STEREO_COUNT>  (1) 
0

>  <PUBCHEM_ISOTOPIC_ATOM_COUNT>  (1) 
0

>  <PUBCHEM_COMPONENT_COUNT>  (1) 
1

>  <PUBCHEM_CACTVS_TAUTO_COUNT>  (1) 
1

>  <PUBCHEM_CONFORMER_ID>  (1) 
00001D9300000001

>  <PUBCHEM_MMFF94_ENERGY>  (1) 
79.0726

>  <PUBCHEM_FEATURE_SELFOVERLAP>  (1) 
30.446

>  <PUBCHEM_SHAPE_FINGERPRINT>  (1) 
10366900 7 16153425038875905040
10912923 1 18343031003042750864
11046707 91 18341611499382348729
11806522 49 18334576824436165792
12107183 9 17835525916374586409
12236239 1 18410577283691836585
12633257 1 15697709402181379663
12839892 36 17775284963058970895
12916754 54 18335419075712185821
13167823 11 18410856563934769856
13288520 33 18413109433221724597
13533116 47 18410855507378083408
13551218 46 18272935977231328239
13675066 3 17346597435425117532
13760787 5 18040445394504594261
1420 369 18412545388436992054
14576447 43 18333449833597099986
15188451 53 16271634703079717559
15196674 1 18410575084663208837
17804303 29 18060701706271884657
17834072 33 18409451413918265525
1813 80 18114473249624602222
18186145 218 16805325500275135904
193927 3 18410586084074687746
19422 9 18410860961981566789
19784866 240 18334859402570612215
200 152 18408040723536230969
20028762 73 18342171176666493686
20281475 54 18410573989451920548
20645477 70 18113615699068723606
21065198 48 18413112766127285592
21267235 1 18410864260516417634
221490 88 18115037431980416434
22646028 1 18410856563934977733
22646028 28 18410856563934756867
2297311 6 17632028489274545916
23402539 116 18410290276797261796
23559900 14 18340476881103611985
2871803 45 17822285794873839131
29717793 49 18411699880974427477
3004659 81 18187359934894854347
3286 77 18343580763304599872
351380 3 18410571790423656583
42 15 18273216386965926161
4214541 1 18411138000605317745
465052 167 18270969080389938695
474 4 17972323081864668540
5104073 3 18202569501054405177
5281201 14 17240482503055526420
542803 24 9007059062792630529
559249 180 18337668603572249059
573450 72 18271808995118957161
76465 3 18410571790423286308
77779 3 18410577287986901325
9981440 41 17399797589146216008

>  <PUBCHEM_SHAPE_MULTIPOLES>  (1) 
333.13
11.88
1.92
0.82
0
0.33
0
7.21
0
0
0
0
-0.04
-1.43

>  <PUBCHEM_SHAPE_SELFOVERLAP>  (1) 
707.318

>  <PUBCHEM_SHAPE_VOLUME>  (1) 
186.7

>  <PUBCHEM_COORDINATE_TYPE>  (1) 
2
5
10

$$$$
