7572
     RDKit          3D

 17 18  0  0  0  0  0  0  0  0999 V2000
    3.7510    0.2840   -0.0003 O   0  0  0  0  0  0  0  0  0  0  0  0
    3.1254   -1.9607    0.0008 O   0  0  0  0  0  0  0  0  0  0  0  0
    5.3469   -1.3677   -0.0008 N   0  0  0  0  0  0  0  0  0  0  0  0
   -1.7114    1.6963    0.0007 C   0  0  0  0  0  0  0  0  0  0  0  0
   -0.2443    1.3168    0.0001 C   0  0  0  0  0  0  0  0  0  0  0  0
   -2.6385    0.5277    0.0003 C   0  0  0  0  0  0  0  0  0  0  0  0
    0.4078    1.1487   -1.2080 C   0  0  0  0  0  0  0  0  0  0  0  0
    0.4074    1.1484    1.2080 C   0  0  0  0  0  0  0  0  0  0  0  0
   -3.0717   -0.0193    1.2081 C   0  0  0  0  0  0  0  0  0  0  0  0
   -3.0722   -0.0182   -1.2079 C   0  0  0  0  0  0  0  0  0  0  0  0
    1.7583    0.7997   -1.2079 C   0  0  0  0  0  0  0  0  0  0  0  0
    1.7580    0.7996    1.2082 C   0  0  0  0  0  0  0  0  0  0  0  0
    2.4335    0.6251    0.0002 C   0  0  0  0  0  0  0  0  0  0  0  0
   -3.9385   -1.1122    1.2077 C   0  0  0  0  0  0  0  0  0  0  0  0
   -3.9391   -1.1109   -1.2083 C   0  0  0  0  0  0  0  0  0  0  0  0
   -4.3723   -1.6579   -0.0006 C   0  0  0  0  0  0  0  0  0  0  0  0
    3.9996   -1.0995   -0.0003 C   0  0  0  0  0  0  0  0  0  0  0  0
  1 13  1  0
  1 17  1  0
  2 17  2  0
  3 17  1  0
  4  5  1  0
  4  6  1  0
  5  7  2  0
  5  8  1  0
  6  9  2  0
  6 10  1  0
  7 11  1  0
  8 12  2  0
  9 14  1  0
 10 15  2  0
 11 13  2  0
 12 13  1  0
 14 16  2  0
 15 16  1  0
M  END
>  <PUBCHEM_COMPOUND_CID>  (1) 
7572

>  <PUBCHEM_CONFORMER_RMSD>  (1) 
0.6

>  <PUBCHEM_CONFORMER_DIVERSEORDER>  (1) 
1
26
25
21
28
38
41
42
6
22
14
40
43
13
35
45
9
10
2
34
44
18
27
11
19
29
8
20
7
33
39
32
12
23
5
15
31
24
30
4
3
37
36
17
16

>  <PUBCHEM_MMFF94_PARTIAL_CHARGES>  (1) 
28
1 -0.23
10 -0.15
11 -0.15
12 -0.15
13 0.08
14 -0.15
15 -0.15
16 -0.15
17 0.78
2 -0.57
20 0.15
21 0.15
22 0.15
23 0.15
24 0.15
25 0.15
26 0.15
27 0.15
28 0.15
29 0.37
3 -0.8
30 0.37
4 0.29
5 -0.14
6 -0.14
7 -0.15
8 -0.15
9 -0.15

>  <PUBCHEM_EFFECTIVE_ROTOR_COUNT>  (1) 
4

>  <PUBCHEM_PHARMACOPHORE_FEATURES>  (1) 
4
1 2 acceptor
1 3 donor
6 5 7 8 11 12 13 rings
6 6 9 10 14 15 16 rings

>  <PUBCHEM_HEAVY_ATOM_COUNT>  (1) 
17

>  <PUBCHEM_ATOM_DEF_STEREO_COUNT>  (1) 
0

>  <PUBCHEM_ATOM_UDEF_STEREO_COUNT>  (1) 
0

>  <PUBCHEM_BOND_DEF_STEREO_COUNT>  (1) 
0

>  <PUBCHEM_BOND_UDEF_STEREO_COUNT>  (1) 
0

>  <PUBCHEM_ISOTOPIC_ATOM_COUNT>  (1) 
0

>  <PUBCHEM_COMPONENT_COUNT>  (1) 
1

>  <PUBCHEM_CACTVS_TAUTO_COUNT>  (1) 
2

>  <PUBCHEM_CONFORMER_ID>  (1) 
00001D9400000001

>  <PUBCHEM_MMFF94_ENERGY>  (1) 
49.5883

>  <PUBCHEM_FEATURE_SELFOVERLAP>  (1) 
20.297

>  <PUBCHEM_SHAPE_FINGERPRINT>  (1) 
10465860 71 17095238133596571805
10498660 4 11025789920998094231
11046707 91 18342175552941749125
11132069 177 14908184144402584497
11769659 78 18410854322257454828
11796584 16 18339922619246356223
12251169 10 15841279241644276205
12596602 18 16487250002005791482
12633257 1 16630528479091756415
12644460 14 17131540756682871200
12670546 177 16588035627432692494
13103583 49 17632589257384522627
13544653 18 18411981373046805728
13675066 3 13542471972528622052
13705890 14 17968097542619341524
14123255 352 9799688199226838210
14123260 362 11530481125497837927
14178342 30 14620786137018070549
1420 369 18412266155195865607
14251764 38 10738729451025667982
14289901 80 18272365399516144616
14848178 5 18261943051787718474
15209294 21 12463565158518763592
15239191 94 18344148098382284751
15342168 16 8285934492577454351
15375462 189 18060702805387665576
17780758 139 17274823498022891474
17870717 6 17530682104690995751
1813 80 18271259277859769188
18186145 218 16009036102480319949
193927 3 18336838527975080182
19784866 240 18409168848695153343
19862831 5 16588021320722568777
20112054 13 12391516381864071577
20281475 54 18341617057149215969
20361792 2 18266458888045816941
20645477 70 17822572840692229549
20671657 53 17313379050003421397
20871999 31 17095241397634339277
21065199 12 14261367850888023717
21713013 43 16806166695885584115
22393880 68 16443337715131196155
22620623 9 17459461156922647884
22646028 28 18408886260899698895
231179 274 9943809984509428878
23379529 103 17533236372923196507
23402539 116 17168146668525729476
23402655 69 14562794548326789069
23403322 49 18334574650950611899
23503953 91 15697724800145252321
23503958 8 18342179985833341123
23557571 272 17896016862990396781
23559900 14 18336536187984338240
270888 7 8934734287830794359
27216 239 11095883787548103383
2838139 119 7853566899346957878
3286 77 17846214509695377441
3472631 163 8357994247015853987
4028521 119 8142088654221130151
4259306 186 18333165063810884558
4921388 177 16877950442766384803
5262128 65 17095814290621934077
76465 3 18201994460657158159
999808 66 16843612557720177462

>  <PUBCHEM_SHAPE_MULTIPOLES>  (1) 
333.13
9.59
1.82
1.32
3.28
0.42
0
7.04
0
0.38
0
-0.79
-0.15
0

>  <PUBCHEM_SHAPE_SELFOVERLAP>  (1) 
714.583

>  <PUBCHEM_SHAPE_VOLUME>  (1) 
182

>  <PUBCHEM_COORDINATE_TYPE>  (1) 
2
5
10

$$$$
