7573
     RDKit          3D

 17 18  0  0  0  0  0  0  0  0999 V2000
    3.8451    0.3405    0.1494 N   0  0  0  0  0  0  0  0  0  0  0  0
   -1.6885    1.2481   -0.0341 N   0  0  0  0  0  0  0  0  0  0  0  0
    4.4739   -0.8661   -0.3860 C   0  0  0  0  0  0  0  0  0  0  0  0
    2.4884    0.5631    0.1046 C   0  0  0  0  0  0  0  0  0  0  0  0
    4.3149   -2.0251    0.5940 C   0  0  0  0  0  0  0  0  0  0  0  0
    5.9463   -0.5876   -0.6711 C   0  0  0  0  0  0  0  0  0  0  0  0
   -0.2975    1.0198    0.0121 C   0  0  0  0  0  0  0  0  0  0  0  0
    1.9219    1.7430    0.6359 C   0  0  0  0  0  0  0  0  0  0  0  0
    1.6105   -0.3801   -0.4744 C   0  0  0  0  0  0  0  0  0  0  0  0
    0.5460    1.9684    0.5904 C   0  0  0  0  0  0  0  0  0  0  0  0
    0.2347   -0.1546   -0.5202 C   0  0  0  0  0  0  0  0  0  0  0  0
   -2.7985    0.3813   -0.0171 C   0  0  0  0  0  0  0  0  0  0  0  0
   -3.9787    0.7430   -0.6690 C   0  0  0  0  0  0  0  0  0  0  0  0
   -2.7212   -0.8416    0.6519 C   0  0  0  0  0  0  0  0  0  0  0  0
   -5.0780   -0.1153   -0.6519 C   0  0  0  0  0  0  0  0  0  0  0  0
   -3.8205   -1.7000    0.6688 C   0  0  0  0  0  0  0  0  0  0  0  0
   -4.9989   -1.3369    0.0167 C   0  0  0  0  0  0  0  0  0  0  0  0
  1  3  1  0
  1  4  1  0
  2  7  1  0
  2 12  1  0
  3  5  1  0
  3  6  1  0
  4  8  2  0
  4  9  1  0
  7 10  2  0
  7 11  1  0
  8 10  1  0
  9 11  2  0
 12 13  2  0
 12 14  1  0
 13 15  1  0
 14 16  2  0
 15 17  2  0
 16 17  1  0
M  END
>  <PUBCHEM_COMPOUND_CID>  (1) 
7573

>  <PUBCHEM_CONFORMER_RMSD>  (1) 
0.6

>  <PUBCHEM_CONFORMER_DIVERSEORDER>  (1) 
1
6
20
17
15
14
22
16
7
28
19
24
13
8
5
27
26
18
12
3
23
9
21
2
25
4
10
11

>  <PUBCHEM_MMFF94_PARTIAL_CHARGES>  (1) 
26
1 -0.87
10 -0.15
11 -0.15
12 0.1
13 -0.15
14 -0.15
15 -0.15
16 -0.15
17 -0.15
19 0.4
2 -0.6
26 0.15
27 0.15
28 0.15
29 0.15
3 0.37
30 0.4
31 0.15
32 0.15
33 0.15
34 0.15
35 0.15
4 0.1
7 0.1
8 -0.15
9 -0.15

>  <PUBCHEM_EFFECTIVE_ROTOR_COUNT>  (1) 
4

>  <PUBCHEM_PHARMACOPHORE_FEATURES>  (1) 
7
1 1 cation
1 1 donor
1 2 cation
1 2 donor
3 3 5 6 hydrophobe
6 12 13 14 15 16 17 rings
6 4 7 8 9 10 11 rings

>  <PUBCHEM_HEAVY_ATOM_COUNT>  (1) 
17

>  <PUBCHEM_ATOM_DEF_STEREO_COUNT>  (1) 
0

>  <PUBCHEM_ATOM_UDEF_STEREO_COUNT>  (1) 
0

>  <PUBCHEM_BOND_DEF_STEREO_COUNT>  (1) 
0

>  <PUBCHEM_BOND_UDEF_STEREO_COUNT>  (1) 
0

>  <PUBCHEM_ISOTOPIC_ATOM_COUNT>  (1) 
0

>  <PUBCHEM_COMPONENT_COUNT>  (1) 
1

>  <PUBCHEM_CACTVS_TAUTO_COUNT>  (1) 
1

>  <PUBCHEM_CONFORMER_ID>  (1) 
00001D9500000001

>  <PUBCHEM_MMFF94_ENERGY>  (1) 
67.784

>  <PUBCHEM_FEATURE_SELFOVERLAP>  (1) 
35.52

>  <PUBCHEM_SHAPE_FINGERPRINT>  (1) 
11543360 7 17313112964221287716
11796584 16 18113615664271570882
12032990 46 18341896290184646584
12555020 224 18410001161902179695
12596602 18 15195276543057206958
12670546 56 13326576215763031132
13288520 33 18411703170813828861
13685833 64 18410015463715734475
13740256 8 18412548734042130462
13862211 1 18201716237129193206
13955234 65 18126564758888795088
14251718 22 18040719177722093246
14251731 8 18333730200129155671
14252887 29 17346605140802116686
15188451 53 15769478929258783933
15196674 1 18411699919729385433
15242439 84 18335134298216568589
15352361 1 18411419501045682266
17834072 33 18040722484894345140
17870717 6 18113620084351821079
18186145 218 13768216024741840389
18222031 100 17917988369698677444
193927 3 18202013113752800764
200 152 17846214475667928673
20028762 73 17632571708001011151
20261772 1 17774999102893997622
20281475 54 18408890615738425048
20325693 3 17095241428369049251
20374829 77 18334009484466829953
20403669 9 18341617001056275839
20645477 70 18342454871982059852
20871999 31 17676205753844555813
21065201 7 17968365836594583073
21267235 1 18342464745964219223
21682296 61 17631463267468198022
221490 88 18263368155836807321
2215653 11 18409439289752999311
231179 274 8862946078198683728
23227448 37 8862643712353196841
23402539 116 18342174436530073869
23402655 69 12324232876130605001
23403322 49 18409166615058860827
23559900 14 18334571382185301953
239999 70 18342178878201218366
26918003 58 18060421326680386137
2871803 45 18260261958236983515
293599 30 10809348840946112276
3004659 81 18040715827906441962
351380 3 18201719544222310566
4214541 1 18408885114307292517
465052 167 18202005434588925446
4921388 177 16153719751479834395
5104073 3 18201719543895315561
59682541 35 18201426005631745978
59755656 520 18262512569379235461
9709674 26 18118403075923131099

>  <PUBCHEM_SHAPE_MULTIPOLES>  (1) 
339.89
12.52
1.88
0.85
2.88
0
0
-6.54
-1.76
0.38
0.49
-0.03
-0.04
0.58

>  <PUBCHEM_SHAPE_SELFOVERLAP>  (1) 
712.076

>  <PUBCHEM_SHAPE_VOLUME>  (1) 
191.3

>  <PUBCHEM_COORDINATE_TYPE>  (1) 
2
5
10

$$$$
