7576
     RDKit          3D

 15 16  0  0  0  0  0  0  0  0999 V2000
   -5.0312    0.0021    1.5782 Cl  0  0  0  0  0  0  0  0  0  0  0  0
    5.0284    0.0022    1.5783 Cl  0  0  0  0  0  0  0  0  0  0  0  0
   -0.0014   -0.0023   -1.6972 C   0  0  0  0  0  0  0  0  0  0  0  0
   -1.2517   -0.0012   -0.8840 C   0  0  0  0  0  0  0  0  0  0  0  0
    1.2691   -0.0013   -0.8710 C   0  0  0  0  0  0  0  0  0  0  0  0
   -1.8363    1.2072   -0.5054 C   0  0  0  0  0  0  0  0  0  0  0  0
    1.8337   -1.2086   -0.5022 C   0  0  0  0  0  0  0  0  0  0  0  0
   -1.8358   -1.2087   -0.5014 C   0  0  0  0  0  0  0  0  0  0  0  0
    1.8332    1.2074   -0.5046 C   0  0  0  0  0  0  0  0  0  0  0  0
   -3.0051    1.2083    0.2560 C   0  0  0  0  0  0  0  0  0  0  0  0
    3.0024   -1.2076    0.2593 C   0  0  0  0  0  0  0  0  0  0  0  0
   -3.0047   -1.2077    0.2599 C   0  0  0  0  0  0  0  0  0  0  0  0
    3.0021    1.2085    0.2567 C   0  0  0  0  0  0  0  0  0  0  0  0
   -3.5894    0.0009    0.6386 C   0  0  0  0  0  0  0  0  0  0  0  0
    3.5868    0.0009    0.6387 C   0  0  0  0  0  0  0  0  0  0  0  0
  1 14  1  0
  2 15  1  0
  3  4  1  0
  3  5  1  0
  4  6  2  0
  4  8  1  0
  5  7  2  0
  5  9  1  0
  6 10  1  0
  7 11  1  0
  8 12  2  0
  9 13  2  0
 10 14  2  0
 11 15  2  0
 12 14  1  0
 13 15  1  0
M  END
>  <PUBCHEM_COMPOUND_CID>  (1) 
7576

>  <PUBCHEM_CONFORMER_RMSD>  (1) 
0.6

>  <PUBCHEM_CONFORMER_DIVERSEORDER>  (1) 
1
2
3

>  <PUBCHEM_MMFF94_PARTIAL_CHARGES>  (1) 
23
1 -0.18
10 -0.15
11 -0.15
12 -0.15
13 -0.15
14 0.18
15 0.18
18 0.15
19 0.15
2 -0.18
20 0.15
21 0.15
22 0.15
23 0.15
24 0.15
25 0.15
3 0.29
4 -0.14
5 -0.14
6 -0.15
7 -0.15
8 -0.15
9 -0.15

>  <PUBCHEM_EFFECTIVE_ROTOR_COUNT>  (1) 
2

>  <PUBCHEM_PHARMACOPHORE_FEATURES>  (1) 
2
6 4 6 8 10 12 14 rings
6 5 7 9 11 13 15 rings

>  <PUBCHEM_HEAVY_ATOM_COUNT>  (1) 
15

>  <PUBCHEM_ATOM_DEF_STEREO_COUNT>  (1) 
0

>  <PUBCHEM_ATOM_UDEF_STEREO_COUNT>  (1) 
0

>  <PUBCHEM_BOND_DEF_STEREO_COUNT>  (1) 
0

>  <PUBCHEM_BOND_UDEF_STEREO_COUNT>  (1) 
0

>  <PUBCHEM_ISOTOPIC_ATOM_COUNT>  (1) 
0

>  <PUBCHEM_COMPONENT_COUNT>  (1) 
1

>  <PUBCHEM_CACTVS_TAUTO_COUNT>  (1) 
1

>  <PUBCHEM_CONFORMER_ID>  (1) 
00001D9800000001

>  <PUBCHEM_MMFF94_ENERGY>  (1) 
35.3396

>  <PUBCHEM_FEATURE_SELFOVERLAP>  (1) 
10.149

>  <PUBCHEM_SHAPE_FINGERPRINT>  (1) 
10498660 4 13470688126968783387
11046707 91 16081081554803496288
11132069 177 18273220794187746127
12251169 10 18410855468723371399
12363563 72 15430037655796126471
12507560 40 18270681961198083172
12633257 1 18410574023806157267
12892183 10 18338516330983981257
13296908 3 15719105881283046887
13705890 14 12612754593073251950
13764800 53 16271934847698962623
14178342 30 17604990308319495373
1420 369 16226045570114150346
14252887 29 18334573504431831290
14341114 176 18411704262125860298
14341114 328 18341619260182440129
14576447 43 12107781909180387824
15209289 33 17531243937757611866
15239191 94 15864074260306723032
15342168 16 16200435766955404769
15375462 189 17821719516848336338
15775835 57 16200426961939911174
16752209 62 12757419584091669597
1813 80 16805610222558209702
18186145 218 12031793556461506831
19050596 39 18410856606884429843
19784866 240 15430038747081849147
19862831 5 9079114462060059372
200 152 18270097124413289783
20112054 13 16845573127604317968
20281475 54 15719396113708610278
20361792 2 15647054875841177495
20645476 183 12319732540874071709
20645477 70 13551480292732702747
20671657 53 15068346717433271671
20767249 442 15698004024147701563
20871999 31 8862948277411836847
21065199 12 18410575041713406121
21713013 43 11025807508772938721
21731228 192 18060418027555198654
22646028 28 15719392832353596139
22926399 37 13901912202474109275
231179 274 15267342929298903970
23402539 116 18343011195555304757
23403322 49 14490181692020944536
23500284 214 16558749031098387015
23503953 91 18341894120962132435
23557571 272 13110667415350937381
23559900 14 17844555269418715519
25 1 12103574112287251076
26918003 58 17822007623148952817
270888 7 15770057224365475921
27216 239 16988272187816886139
3060560 45 9439401311722385184
3286 77 17022904561992398468
3472631 163 14836401432714268065
4028521 119 12751521764780711003
42 15 18040440983936820865
4280585 95 10884722497862058632
465052 167 15213603216444320147
474 4 14620790526537514778
5374978 207 18408896143872784577
7097593 13 18411413986497760206
76465 3 15719392849686459187
90316 7 18187374190477398765

>  <PUBCHEM_SHAPE_MULTIPOLES>  (1) 
312.43
9.43
1.41
1.39
0.03
0.14
0
6.65
-0.01
0
0
0
-0.1
0

>  <PUBCHEM_SHAPE_SELFOVERLAP>  (1) 
651.895

>  <PUBCHEM_SHAPE_VOLUME>  (1) 
169.6

>  <PUBCHEM_COORDINATE_TYPE>  (1) 
2
5
10

$$$$
