7581
     RDKit          3D

 13 14  0  0  0  0  0  0  0  0999 V2000
    1.7821    1.2027   -0.2702 N   0  0  0  0  0  0  0  0  0  0  0  0
    0.0307    0.0080   -1.4394 C   0  0  0  0  0  0  0  0  0  0  0  0
   -1.2259    0.0016   -0.6360 C   0  0  0  0  0  0  0  0  0  0  0  0
    1.2948   -0.0021   -0.6036 C   0  0  0  0  0  0  0  0  0  0  0  0
   -1.8118    1.2066   -0.2482 C   0  0  0  0  0  0  0  0  0  0  0  0
   -1.8156   -1.2093   -0.2730 C   0  0  0  0  0  0  0  0  0  0  0  0
    1.8403   -1.2142   -0.2539 C   0  0  0  0  0  0  0  0  0  0  0  0
   -2.9873    1.2008    0.5029 C   0  0  0  0  0  0  0  0  0  0  0  0
   -2.9911   -1.2151    0.4781 C   0  0  0  0  0  0  0  0  0  0  0  0
   -3.5768   -0.0100    0.8660 C   0  0  0  0  0  0  0  0  0  0  0  0
    2.9998   -1.1885    0.5131 C   0  0  0  0  0  0  0  0  0  0  0  0
    2.9098    1.1879    0.4754 C   0  0  0  0  0  0  0  0  0  0  0  0
    3.5511    0.0315    0.8890 C   0  0  0  0  0  0  0  0  0  0  0  0
  1  4  2  0
  1 12  1  0
  2  3  1  0
  2  4  1  0
  3  5  2  0
  3  6  1  0
  4  7  1  0
  5  8  1  0
  6  9  2  0
  7 11  2  0
  8 10  2  0
  9 10  1  0
 11 13  1  0
 12 13  2  0
M  END
>  <PUBCHEM_COMPOUND_CID>  (1) 
7581

>  <PUBCHEM_CONFORMER_RMSD>  (1) 
0.6

>  <PUBCHEM_CONFORMER_DIVERSEORDER>  (1) 
1
4
7
6
2
5
3

>  <PUBCHEM_MMFF94_PARTIAL_CHARGES>  (1) 
22
1 -0.62
10 -0.15
11 -0.15
12 0.16
13 -0.15
16 0.15
17 0.15
18 0.15
19 0.15
2 0.29
20 0.15
21 0.15
22 0.15
23 0.15
24 0.15
3 -0.14
4 0.17
5 -0.15
6 -0.15
7 -0.15
8 -0.15
9 -0.15

>  <PUBCHEM_EFFECTIVE_ROTOR_COUNT>  (1) 
2

>  <PUBCHEM_PHARMACOPHORE_FEATURES>  (1) 
3
1 1 acceptor
6 1 4 7 11 12 13 rings
6 3 5 6 8 9 10 rings

>  <PUBCHEM_HEAVY_ATOM_COUNT>  (1) 
13

>  <PUBCHEM_ATOM_DEF_STEREO_COUNT>  (1) 
0

>  <PUBCHEM_ATOM_UDEF_STEREO_COUNT>  (1) 
0

>  <PUBCHEM_BOND_DEF_STEREO_COUNT>  (1) 
0

>  <PUBCHEM_BOND_UDEF_STEREO_COUNT>  (1) 
0

>  <PUBCHEM_ISOTOPIC_ATOM_COUNT>  (1) 
0

>  <PUBCHEM_COMPONENT_COUNT>  (1) 
1

>  <PUBCHEM_CACTVS_TAUTO_COUNT>  (1) 
1

>  <PUBCHEM_CONFORMER_ID>  (1) 
00001D9D00000001

>  <PUBCHEM_MMFF94_ENERGY>  (1) 
33.3969

>  <PUBCHEM_FEATURE_SELFOVERLAP>  (1) 
15.223

>  <PUBCHEM_SHAPE_FINGERPRINT>  (1) 
10498660 4 13038912079910785435
10799339 124 18410855430068698235
11031198 65 14908189641860146039
11127187 94 11819275568442096233
11471102 22 18407758149179676994
12251169 10 18410855468718102943
12382932 28 18413107251388887793
12696612 119 18410294739479318036
12932764 1 18410015428970692494
13296908 3 15647048291540099031
13581323 91 18261115166459592695
13693222 15 18334575771683686747
13705890 14 11674879979168244250
13764800 53 15554452945888320991
14144814 61 18410855455833200995
15375462 189 17822848672351159890
15653759 3 18335139760908560336
15775835 57 17203603809117478776
17804303 29 18264217902210670814
18186145 218 13254803442486553492
18522851 268 7997966877480611971
19049666 15 17979073782162174071
200 152 18199731670349327439
20279233 1 17603573128057370871
20281407 28 17022899017263335942
20361792 2 15719393944861103623
20528008 55 18411695496050090751
20645464 45 18131074809751507943
20653085 51 11167952367822405999
20671657 53 12685087069096904406
20711985 344 14780088793377219295
20871999 31 9367047936403974185
21065199 12 18411136922225265194
21501925 9 18187648045912535479
22169311 14 18338235968419637451
22445834 79 18260546693094118699
22802520 49 9151169865812391999
230 275 16415204446781727788
23402539 116 18341885278563622869
25 1 12247412214700580324
369184 2 18411702084582657407
5374978 207 18411423929721161737
81228 2 15720495569501961708

>  <PUBCHEM_SHAPE_MULTIPOLES>  (1) 
262.55
6.59
1.49
1.05
0.28
0
0.13
-0.03
-2.68
-0.06
-0.11
0
0
0.02

>  <PUBCHEM_SHAPE_SELFOVERLAP>  (1) 
562.945

>  <PUBCHEM_SHAPE_VOLUME>  (1) 
144.3

>  <PUBCHEM_COORDINATE_TYPE>  (1) 
2
5
10

$$$$
