7586
     RDKit          3D

 16 18  0  0  1  0  0  0  0  0999 V2000
   -5.8165   -0.5974   -0.0216 O   0  0  0  0  0  0  0  0  0  0  0  0
    5.8166   -0.5974    0.0214 O   0  0  0  0  0  0  0  0  0  0  0  0
   -2.3666   -0.3353   -0.3100 O   0  0  0  0  0  0  0  0  0  0  0  0
    2.3666   -0.3352    0.3100 O   0  0  0  0  0  0  0  0  0  0  0  0
   -4.5334   -0.7485    0.5904 C   0  0  0  0  0  0  0  0  0  0  0  0
    4.5334   -0.7486   -0.5904 C   0  0  0  0  0  0  0  0  0  0  0  0
   -5.0414   -1.7391   -0.4096 C   0  0  0  0  0  0  0  0  0  0  0  0
    5.0414   -1.7390    0.4096 C   0  0  0  0  0  0  0  0  0  0  0  0
   -3.5521    0.2931    0.1753 C   0  0  0  0  0  0  0  0  0  0  0  0
    3.5521    0.2932   -0.1754 C   0  0  0  0  0  0  0  0  0  0  0  0
   -1.1978    0.3449   -0.1568 C   0  0  0  0  0  0  0  0  0  0  0  0
    1.1978    0.3449    0.1569 C   0  0  0  0  0  0  0  0  0  0  0  0
   -0.0001   -0.3526    0.0001 C   0  0  0  0  0  0  0  0  0  0  0  0
   -1.1977    1.7399   -0.1568 C   0  0  0  0  0  0  0  0  0  0  0  0
    1.1977    1.7398    0.1568 C   0  0  0  0  0  0  0  0  0  0  0  0
    0.0000    2.4373    0.0000 C   0  0  0  0  0  0  0  0  0  0  0  0
  1  5  1  0
  1  7  1  0
  2  6  1  0
  2  8  1  0
  3  9  1  0
  3 11  1  0
  4 10  1  0
  4 12  1  0
  5  7  1  0
  5  9  1  0
  6  8  1  0
  6 10  1  0
 11 13  2  0
 11 14  1  0
 12 13  1  0
 12 15  2  0
 14 16  2  0
 15 16  1  0
M  END
>  <PUBCHEM_COMPOUND_CID>  (1) 
7586

>  <PUBCHEM_CONFORMER_RMSD>  (1) 
0.8

>  <PUBCHEM_CONFORMER_DIVERSEORDER>  (1) 
3
89
102
100
5
37
47
90
6
26
21
27
97
4
83
56
77
61
57
15
99
92
8
36
17
10
78
96
39
88
68
55
103
40
75
74
51
9
64
28
76
98
42
30
12
22
48
70
59
54
38
29
94
20
13
85
7
41
82
87
33
72
34
43
14
49
71
80
11
84
31
35
2
95
50
69
91
53
52
16
1
65
19
62
101
63
86
45
18
93
60
58
81
66
46
24
23
73
79
44
67
25
32

>  <PUBCHEM_MMFF94_PARTIAL_CHARGES>  (1) 
26
1 -0.3
10 0.38
11 0.08
12 0.08
13 -0.15
14 -0.15
15 -0.15
16 -0.15
17 0.1
18 0.1
19 0.1
2 -0.3
20 0.1
21 0.1
22 0.1
27 0.15
28 0.15
29 0.15
3 -0.36
30 0.15
4 -0.36
5 -0.05
6 -0.05
7 -0.05
8 -0.05
9 0.38

>  <PUBCHEM_EFFECTIVE_ROTOR_COUNT>  (1) 
7.2

>  <PUBCHEM_PHARMACOPHORE_FEATURES>  (1) 
5
1 1 acceptor
1 2 acceptor
1 3 acceptor
1 4 acceptor
6 11 12 13 14 15 16 rings

>  <PUBCHEM_HEAVY_ATOM_COUNT>  (1) 
16

>  <PUBCHEM_ATOM_DEF_STEREO_COUNT>  (1) 
0

>  <PUBCHEM_ATOM_UDEF_STEREO_COUNT>  (1) 
2

>  <PUBCHEM_BOND_DEF_STEREO_COUNT>  (1) 
0

>  <PUBCHEM_BOND_UDEF_STEREO_COUNT>  (1) 
0

>  <PUBCHEM_ISOTOPIC_ATOM_COUNT>  (1) 
0

>  <PUBCHEM_COMPONENT_COUNT>  (1) 
1

>  <PUBCHEM_CACTVS_TAUTO_COUNT>  (1) 
1

>  <PUBCHEM_CONFORMER_ID>  (1) 
00001DA200000003

>  <PUBCHEM_MMFF94_ENERGY>  (1) 
52.6348

>  <PUBCHEM_FEATURE_SELFOVERLAP>  (1) 
25.374

>  <PUBCHEM_SHAPE_FINGERPRINT>  (1) 
100836 57 9439402436613413370
117890 112 8862942771153169038
12032990 46 18410855464423473380
12555020 224 18336819897140615063
12596602 18 16773799199098332562
12714333 28 13623530168830463798
12841375 25 18409448098150966781
12892183 10 15697449827263743986
13288520 33 18411420596478432197
13685833 64 18335707173913471939
13690532 89 18410576192769916033
13740256 8 18410294739400040591
13862211 1 18410571786128715267
13955234 65 18124598844819729048
14251752 14 17749381517317516685
14252887 29 17703800188909205510
15048467 5 8935003663694370719
15188451 53 16773505686077046399
17492 89 18122623860771419286
1813 80 18340781380956813644
18222031 100 18339914995985107539
187816 3 17603589624979074312
19141452 34 17846776338451643519
19784866 140 18113614564727937291
200 152 18113620066696990336
20028762 73 17988920132508016695
20374829 77 18408884027474513415
20388580 30 18260834825486585092
20645477 70 18262796405991183983
20871999 31 17095517375396056157
21267235 1 18410582781244648742
212847 35 8646771076029867926
221490 88 18046352100266360435
22182313 1 18190998240425909236
22950370 63 18410578383198001223
2297311 6 18201449026134277532
23402539 116 18410571756147820765
23402655 69 11674873407615151841
23559900 14 17822293555927462705
2767999 5 9079115535786474702
2838139 119 10953740031867874530
3004659 81 18040998436627723222
314194 84 18410298046482920531
351380 3 18410570686617074510
4259306 186 18260264140001495311
4463277 17 18410576184175083461
465052 167 18341619247334773231
5104073 3 18272371970684037825
59682541 35 18270391802878785880
77188 2 18411699910834483113
83771 10 18411981360077475276
8863177 126 17825400819428678627

>  <PUBCHEM_SHAPE_MULTIPOLES>  (1) 
305.8
12.66
1.96
0.68
0
0.79
0
-9.66
0
0
0
0
-0.06
-0.24

>  <PUBCHEM_SHAPE_SELFOVERLAP>  (1) 
635.481

>  <PUBCHEM_SHAPE_VOLUME>  (1) 
176.2

>  <PUBCHEM_COORDINATE_TYPE>  (1) 
2
5
10

$$$$
