7587
     RDKit          3D

 14 14  0  0  0  0  0  0  0  0999 V2000
   -5.2363   -0.0613    0.5089 Cl  0  0  0  0  0  0  0  0  0  0  0  0
    1.3240   -1.8190   -0.2020 O   0  0  0  0  0  0  0  0  0  0  0  0
    3.2334    0.3108    1.4947 O   0  0  0  0  0  0  0  0  0  0  0  0
    0.5557    0.3713   -0.5623 N   0  0  0  0  0  0  0  0  0  0  0  0
   -0.8328    0.2675   -0.3059 C   0  0  0  0  0  0  0  0  0  0  0  0
    2.8946   -0.1455   -0.8474 C   0  0  0  0  0  0  0  0  0  0  0  0
    1.5025   -0.6427   -0.5070 C   0  0  0  0  0  0  0  0  0  0  0  0
   -1.6267    1.3971   -0.4114 C   0  0  0  0  0  0  0  0  0  0  0  0
   -1.3662   -0.9611    0.0449 C   0  0  0  0  0  0  0  0  0  0  0  0
    3.7029    0.2853    0.3579 C   0  0  0  0  0  0  0  0  0  0  0  0
   -2.9947    1.2951   -0.1581 C   0  0  0  0  0  0  0  0  0  0  0  0
   -2.7341   -1.0631    0.2979 C   0  0  0  0  0  0  0  0  0  0  0  0
   -3.5484    0.0650    0.1966 C   0  0  0  0  0  0  0  0  0  0  0  0
    5.1261    0.7007    0.0932 C   0  0  0  0  0  0  0  0  0  0  0  0
  1 13  1  0
  2  7  2  0
  3 10  2  0
  4  5  1  0
  4  7  1  0
  5  8  2  0
  5  9  1  0
  6  7  1  0
  6 10  1  0
  8 11  1  0
  9 12  2  0
 10 14  1  0
 11 13  2  0
 12 13  1  0
M  END
>  <PUBCHEM_COMPOUND_CID>  (1) 
7587

>  <PUBCHEM_CONFORMER_RMSD>  (1) 
0.6

>  <PUBCHEM_CONFORMER_DIVERSEORDER>  (1) 
1
23
15
21
7
27
4
14
20
10
16
25
19
13
3
17
11
18
2
12
6
22
8
24
26
9
5

>  <PUBCHEM_MMFF94_PARTIAL_CHARGES>  (1) 
19
1 -0.18
10 0.45
11 -0.15
12 -0.15
13 0.18
14 0.06
17 0.37
18 0.15
19 0.15
2 -0.57
20 0.15
21 0.15
3 -0.57
4 -0.55
5 0.12
6 0.12
7 0.57
8 -0.15
9 -0.15

>  <PUBCHEM_EFFECTIVE_ROTOR_COUNT>  (1) 
4

>  <PUBCHEM_PHARMACOPHORE_FEATURES>  (1) 
5
1 2 acceptor
1 3 acceptor
1 4 donor
1 6 anion
6 5 8 9 11 12 13 rings

>  <PUBCHEM_HEAVY_ATOM_COUNT>  (1) 
14

>  <PUBCHEM_ATOM_DEF_STEREO_COUNT>  (1) 
0

>  <PUBCHEM_ATOM_UDEF_STEREO_COUNT>  (1) 
0

>  <PUBCHEM_BOND_DEF_STEREO_COUNT>  (1) 
0

>  <PUBCHEM_BOND_UDEF_STEREO_COUNT>  (1) 
0

>  <PUBCHEM_ISOTOPIC_ATOM_COUNT>  (1) 
0

>  <PUBCHEM_COMPONENT_COUNT>  (1) 
1

>  <PUBCHEM_CACTVS_TAUTO_COUNT>  (1) 
8

>  <PUBCHEM_CONFORMER_ID>  (1) 
00001DA300000001

>  <PUBCHEM_MMFF94_ENERGY>  (1) 
31.4502

>  <PUBCHEM_FEATURE_SELFOVERLAP>  (1) 
25.372

>  <PUBCHEM_SHAPE_FINGERPRINT>  (1) 
11132069 177 18409453587456495471
11401426 45 18408040706983927461
12236239 1 17167580492350274792
12251169 10 18040152937628550844
13214271 11 18412261761634005199
14123238 8 18334014999426448953
14911166 2 10015865370918329355
15048467 5 17561090181378823025
15219456 202 18342177709078752358
17834072 33 16271921636474252341
17834072 8 9655577384013025003
17834076 25 18130791165610519345
17846911 113 18409448085466206571
18186145 218 16486967419338331650
18522853 276 18335143089793187773
20279233 1 18412550902921675679
20432913 95 14779264198421953144
20510252 161 18269559351732373369
20528008 55 18272087188808991407
20645477 56 18272933821463044381
20645477 70 17131281155832109454
21119208 17 12607407697743995192
21501925 9 18040437689596743085
22854114 59 18272653445718393049
23402539 116 18187077386651210007
23557571 272 18339936913098062229
23559900 14 18338238142079518174
26918003 58 16153710942159050873
42 15 15140680276073395181
449060 50 18342740714824485476
5104073 3 18263650559001117241
5374978 207 18187365436790269001
69090 78 18272368676908266823
7364860 26 18198905795214667670

>  <PUBCHEM_SHAPE_MULTIPOLES>  (1) 
273.26
9.9
1.3
0.88
2.52
0.11
-0.14
-1.54
-2.22
-0.42
0.11
0.52
-0.04
0.4

>  <PUBCHEM_SHAPE_SELFOVERLAP>  (1) 
552.218

>  <PUBCHEM_SHAPE_VOLUME>  (1) 
160.3

>  <PUBCHEM_COORDINATE_TYPE>  (1) 
2
5
10

$$$$
