7589
     RDKit          3D

 16 16  0  0  1  0  0  0  0  0999 V2000
   -2.7405    0.1139    0.5656 N   0  0  0  0  0  0  0  0  0  0  0  0
    2.7542    0.1293   -0.5665 N   0  0  0  0  0  0  0  0  0  0  0  0
   -3.7682    0.1281   -0.4546 C   0  0  0  0  0  0  0  0  0  0  0  0
    3.7575    0.1170    0.4529 C   0  0  0  0  0  0  0  0  0  0  0  0
   -5.0967   -0.3739    0.1236 C   0  0  0  0  0  0  0  0  0  0  0  0
    5.0932   -0.3681   -0.1230 C   0  0  0  0  0  0  0  0  0  0  0  0
   -1.3856    0.1207    0.2865 C   0  0  0  0  0  0  0  0  0  0  0  0
    1.3730    0.1273   -0.2821 C   0  0  0  0  0  0  0  0  0  0  0  0
   -3.9076    1.5510   -0.9858 C   0  0  0  0  0  0  0  0  0  0  0  0
    3.8892    1.5252    1.0239 C   0  0  0  0  0  0  0  0  0  0  0  0
   -0.4326    0.1078    1.3232 C   0  0  0  0  0  0  0  0  0  0  0  0
    0.9336    0.1112    1.0418 C   0  0  0  0  0  0  0  0  0  0  0  0
   -0.9200    0.1371   -1.0428 C   0  0  0  0  0  0  0  0  0  0  0  0
    0.4461    0.1404   -1.3244 C   0  0  0  0  0  0  0  0  0  0  0  0
   -5.0017   -1.7940    0.6669 C   0  0  0  0  0  0  0  0  0  0  0  0
    5.0060   -1.7732   -0.7053 C   0  0  0  0  0  0  0  0  0  0  0  0
  1  3  1  0
  1  7  1  0
  2  4  1  0
  2  8  1  0
  3  5  1  0
  3  9  1  0
  4  6  1  0
  4 10  1  0
  5 15  1  0
  6 16  1  0
  7 11  2  0
  7 13  1  0
  8 12  2  0
  8 14  1  0
 11 12  1  0
 13 14  2  0
M  END
>  <PUBCHEM_COMPOUND_CID>  (1) 
7589

>  <PUBCHEM_CONFORMER_RMSD>  (1) 
0.8

>  <PUBCHEM_CONFORMER_DIVERSEORDER>  (1) 
2
79
37
72
70
69
41
25
18
29
44
80
55
1
49
48
5
53
22
68
66
4
57
15
65
12
64
32
40
8
36
51
60
50
38
74
71
14
62
30
33
23
10
56
43
77
63
26
61
46
59
24
47
45
13
16
3
67
58
27
31
42
39
9
75
78
73
21
76
52
81
6
34
35
54
20
11
7
19
28
17

>  <PUBCHEM_MMFF94_PARTIAL_CHARGES>  (1) 
16
1 -0.87
11 -0.15
12 -0.15
13 -0.15
14 -0.15
2 -0.87
23 0.4
24 0.4
3 0.37
31 0.15
32 0.15
33 0.15
34 0.15
4 0.37
7 0.1
8 0.1

>  <PUBCHEM_EFFECTIVE_ROTOR_COUNT>  (1) 
6

>  <PUBCHEM_PHARMACOPHORE_FEATURES>  (1) 
7
1 1 cation
1 1 donor
1 15 hydrophobe
1 16 hydrophobe
1 2 cation
1 2 donor
6 7 8 11 12 13 14 rings

>  <PUBCHEM_HEAVY_ATOM_COUNT>  (1) 
16

>  <PUBCHEM_ATOM_DEF_STEREO_COUNT>  (1) 
0

>  <PUBCHEM_ATOM_UDEF_STEREO_COUNT>  (1) 
2

>  <PUBCHEM_BOND_DEF_STEREO_COUNT>  (1) 
0

>  <PUBCHEM_BOND_UDEF_STEREO_COUNT>  (1) 
0

>  <PUBCHEM_ISOTOPIC_ATOM_COUNT>  (1) 
0

>  <PUBCHEM_COMPONENT_COUNT>  (1) 
1

>  <PUBCHEM_CACTVS_TAUTO_COUNT>  (1) 
1

>  <PUBCHEM_CONFORMER_ID>  (1) 
00001DA500000002

>  <PUBCHEM_MMFF94_ENERGY>  (1) 
48.7962

>  <PUBCHEM_FEATURE_SELFOVERLAP>  (1) 
35.52

>  <PUBCHEM_SHAPE_FINGERPRINT>  (1) 
10680689 15 18041001730777851681
10912923 1 15719108050236561384
11287383 113 18340768233919190105
11401426 45 16370720452632004585
12616971 3 16487254378366079361
13533116 47 18059859441858255326
13675066 3 18411695499986452996
13760787 5 16917344848540084728
13862211 1 16225759739919165057
14573314 32 18261110729779416676
14911166 2 15719396148052647590
14993402 34 15719395044282891344
15788980 27 17989202638075482077
15848700 24 16950280719713819662
17834072 33 17603589655038590119
17844677 252 18411142432689865833
17862501 102 17240759614466763409
18222031 100 17095521820275471388
19026448 4 18410852165888414665
19489759 90 18113333107316256385
200 152 18410292497305669352
20645477 70 18202568358951897254
21150785 3 15791741839917711446
21267235 1 17095533915837189939
23402539 116 17676482848223357623
23402655 69 16226031277117097223
23557571 272 18336268959872746821
23559900 14 18409444795421167728
26918003 58 17704357671522181091
4072396 5 15913329057095270830
465052 167 17989212529944652606
4990 188 18113900433809671266
5104073 3 17489593329106373650
5374978 207 16056876927763576994
537710 114 16200433597986338568
57483677 66 18410572885650860082
59755656 215 18040713637341342987
7495541 125 18130226081179775465

>  <PUBCHEM_SHAPE_MULTIPOLES>  (1) 
319.31
12.08
1.35
1.23
0.06
0.26
0
3.57
-0.03
0.04
0
-0.03
-0.13
1.62

>  <PUBCHEM_SHAPE_SELFOVERLAP>  (1) 
630.853

>  <PUBCHEM_SHAPE_VOLUME>  (1) 
190.6

>  <PUBCHEM_COORDINATE_TYPE>  (1) 
2
5
10

$$$$
