7592
     RDKit          3D

 13 13  0  0  0  0  0  0  0  0999 V2000
    0.9230   -1.8213   -0.1788 O   0  0  0  0  0  0  0  0  0  0  0  0
    2.8764    0.3278    1.4418 O   0  0  0  0  0  0  0  0  0  0  0  0
    0.1350    0.3635   -0.5301 N   0  0  0  0  0  0  0  0  0  0  0  0
    2.4658   -0.1465   -0.8852 C   0  0  0  0  0  0  0  0  0  0  0  0
   -1.2443    0.2563   -0.2294 C   0  0  0  0  0  0  0  0  0  0  0  0
    1.0871   -0.6465   -0.4976 C   0  0  0  0  0  0  0  0  0  0  0  0
   -2.0458    1.3820   -0.3177 C   0  0  0  0  0  0  0  0  0  0  0  0
   -1.7619   -0.9718    0.1467 C   0  0  0  0  0  0  0  0  0  0  0  0
    3.3099    0.2960    0.2909 C   0  0  0  0  0  0  0  0  0  0  0  0
   -3.4047    1.2765   -0.0211 C   0  0  0  0  0  0  0  0  0  0  0  0
   -3.1207   -1.0775    0.4430 C   0  0  0  0  0  0  0  0  0  0  0  0
   -3.9422    0.0468    0.3590 C   0  0  0  0  0  0  0  0  0  0  0  0
    4.7224    0.7148   -0.0214 C   0  0  0  0  0  0  0  0  0  0  0  0
  1  6  2  0
  2  9  2  0
  3  5  1  0
  3  6  1  0
  4  6  1  0
  4  9  1  0
  5  7  2  0
  5  8  1  0
  7 10  1  0
  8 11  2  0
  9 13  1  0
 10 12  2  0
 11 12  1  0
M  END
>  <PUBCHEM_COMPOUND_CID>  (1) 
7592

>  <PUBCHEM_CONFORMER_RMSD>  (1) 
0.6

>  <PUBCHEM_CONFORMER_DIVERSEORDER>  (1) 
1
26
8
18
21
4
27
13
17
14
23
28
7
20
15
12
3
11
22
19
6
25
16
9
5
24
10
2

>  <PUBCHEM_MMFF94_PARTIAL_CHARGES>  (1) 
19
1 -0.57
10 -0.15
11 -0.15
12 -0.15
13 0.06
16 0.37
17 0.15
18 0.15
19 0.15
2 -0.57
20 0.15
21 0.15
3 -0.55
4 0.12
5 0.12
6 0.57
7 -0.15
8 -0.15
9 0.45

>  <PUBCHEM_EFFECTIVE_ROTOR_COUNT>  (1) 
4

>  <PUBCHEM_PHARMACOPHORE_FEATURES>  (1) 
5
1 1 acceptor
1 2 acceptor
1 3 donor
1 4 anion
6 5 7 8 10 11 12 rings

>  <PUBCHEM_HEAVY_ATOM_COUNT>  (1) 
13

>  <PUBCHEM_ATOM_DEF_STEREO_COUNT>  (1) 
0

>  <PUBCHEM_ATOM_UDEF_STEREO_COUNT>  (1) 
0

>  <PUBCHEM_BOND_DEF_STEREO_COUNT>  (1) 
0

>  <PUBCHEM_BOND_UDEF_STEREO_COUNT>  (1) 
0

>  <PUBCHEM_ISOTOPIC_ATOM_COUNT>  (1) 
0

>  <PUBCHEM_COMPONENT_COUNT>  (1) 
1

>  <PUBCHEM_CACTVS_TAUTO_COUNT>  (1) 
8

>  <PUBCHEM_CONFORMER_ID>  (1) 
00001DA800000001

>  <PUBCHEM_MMFF94_ENERGY>  (1) 
30.6486

>  <PUBCHEM_FEATURE_SELFOVERLAP>  (1) 
25.371

>  <PUBCHEM_SHAPE_FINGERPRINT>  (1) 
10608611 8 18340206276182504261
11132069 177 18334298660356929645
11543360 7 15841540882261372157
11615757 297 16559031605576117611
12251169 10 17894912944735964252
12932764 1 17846493716670905975
13214271 11 18411699902607408917
14144814 61 17967817128240875717
14252887 29 14273450362923075576
14911166 2 9943530678670661291
15219456 202 18343025441070463678
15775835 57 18201718457463618214
17846911 113 18410572881635032425
18186145 218 16487253296529965618
20279233 1 18341899575818609071
20528008 55 18342173345745225431
20645464 45 18202004326349959375
20645477 56 18261395482333717013
20645477 70 17274548611668327662
20871999 31 10231757807600263442
21119208 17 12031789158351841400
23402539 116 18187077395278106799
23557571 272 18131358531117427175
23559900 14 18338519621298435606
2748010 2 18118976797549094319
449060 50 18413112753289596733
53812653 166 18343019982209013976
6333449 129 18412543215241283279
7364860 26 18126567816942354678
90316 7 17458902648102878749

>  <PUBCHEM_SHAPE_MULTIPOLES>  (1) 
250.81
8.2
1.36
0.87
4.29
0.15
-0.13
-1.92
-1.34
-0.75
0.06
0.49
-0.02
0.38

>  <PUBCHEM_SHAPE_SELFOVERLAP>  (1) 
513.263

>  <PUBCHEM_SHAPE_VOLUME>  (1) 
144.6

>  <PUBCHEM_COORDINATE_TYPE>  (1) 
2
5
10

$$$$
