7598
     RDKit          3D

 14 14  0  0  0  0  0  0  0  0999 V2000
   -0.4717    1.4766   -0.0057 O   0  0  0  0  0  0  0  0  0  0  0  0
   -5.3965    0.7151   -0.0156 O   0  0  0  0  0  0  0  0  0  0  0  0
   -4.5011   -1.3737    0.0209 O   0  0  0  0  0  0  0  0  0  0  0  0
    0.5364   -0.6468   -0.0041 N   0  0  0  0  0  0  0  0  0  0  0  0
   -1.8657   -0.4641   -0.0038 C   0  0  0  0  0  0  0  0  0  0  0  0
   -3.0177    0.5329    0.0024 C   0  0  0  0  0  0  0  0  0  0  0  0
   -0.5243    0.2501    0.0016 C   0  0  0  0  0  0  0  0  0  0  0  0
    1.9192   -0.3471   -0.0014 C   0  0  0  0  0  0  0  0  0  0  0  0
    2.8374   -1.3842   -0.0091 C   0  0  0  0  0  0  0  0  0  0  0  0
    2.3260    0.9771    0.0081 C   0  0  0  0  0  0  0  0  0  0  0  0
   -4.3587   -0.1580    0.0004 C   0  0  0  0  0  0  0  0  0  0  0  0
    4.2007   -1.0890   -0.0069 C   0  0  0  0  0  0  0  0  0  0  0  0
    3.6894    1.2722    0.0102 C   0  0  0  0  0  0  0  0  0  0  0  0
    4.6266    0.2391    0.0028 C   0  0  0  0  0  0  0  0  0  0  0  0
  1  7  2  0
  2 11  1  0
  3 11  2  0
  4  7  1  0
  4  8  1  0
  5  6  1  0
  5  7  1  0
  6 11  1  0
  8  9  2  0
  8 10  1  0
  9 12  1  0
 10 13  2  0
 12 14  2  0
 13 14  1  0
M  END
>  <PUBCHEM_COMPOUND_CID>  (1) 
7598

>  <PUBCHEM_CONFORMER_RMSD>  (1) 
0.6

>  <PUBCHEM_CONFORMER_DIVERSEORDER>  (1) 
1
27
14
20
21
17
9
22
24
11
3
7
32
29
5
10
18
23
25
31
6
13
2
12
19
30
15
16
28
8
26
4

>  <PUBCHEM_MMFF94_PARTIAL_CHARGES>  (1) 
21
1 -0.57
10 -0.15
11 0.66
12 -0.15
13 -0.15
14 -0.15
19 0.37
2 -0.65
20 0.15
21 0.15
22 0.15
23 0.15
24 0.15
25 0.5
3 -0.57
4 -0.55
5 0.06
6 0.06
7 0.57
8 0.12
9 -0.15

>  <PUBCHEM_EFFECTIVE_ROTOR_COUNT>  (1) 
5

>  <PUBCHEM_PHARMACOPHORE_FEATURES>  (1) 
6
1 1 acceptor
1 2 acceptor
1 3 acceptor
1 4 donor
3 2 3 11 anion
6 8 9 10 12 13 14 rings

>  <PUBCHEM_HEAVY_ATOM_COUNT>  (1) 
14

>  <PUBCHEM_ATOM_DEF_STEREO_COUNT>  (1) 
0

>  <PUBCHEM_ATOM_UDEF_STEREO_COUNT>  (1) 
0

>  <PUBCHEM_BOND_DEF_STEREO_COUNT>  (1) 
0

>  <PUBCHEM_BOND_UDEF_STEREO_COUNT>  (1) 
0

>  <PUBCHEM_ISOTOPIC_ATOM_COUNT>  (1) 
0

>  <PUBCHEM_COMPONENT_COUNT>  (1) 
1

>  <PUBCHEM_CACTVS_TAUTO_COUNT>  (1) 
2

>  <PUBCHEM_CONFORMER_ID>  (1) 
00001DAE00000001

>  <PUBCHEM_MMFF94_ENERGY>  (1) 
31.4549

>  <PUBCHEM_FEATURE_SELFOVERLAP>  (1) 
30.504

>  <PUBCHEM_SHAPE_FINGERPRINT>  (1) 
11287383 113 18187649132396732747
11401426 45 18334856117411046085
11471102 20 18410856564483415520
13167823 11 18412823599096262911
14123238 8 18113336427088443463
14252887 29 17775012271421833006
15196674 1 18410574002347151075
15242433 33 18412826893146047559
15477762 27 18411420575504866046
17834072 33 18271524286100229903
17834076 25 16805324387836024841
18186145 218 17749101197344077975
200 152 18272932717255522739
20279233 1 17894356578999082410
20645477 70 18411419467113569190
21267235 1 18412271610199820934
22485316 2 18410009940356078123
23402539 116 18412820292097649447
23402655 69 18413670214427638636
23557571 272 17531243907592568725
23559900 14 18408040719373100090
26918003 58 18333731320888870634
3268164 11 16515673438788467391
33824 294 18335420154113026002
42 15 18409167701237109375
4214541 1 18410573951235162209
42788 4 18410573981252096743
5104073 3 18411700980364632489
522135 26 18411419497246437678
5374978 207 18409724050226808096
69090 78 18408602578004265291
77779 3 18411138034843321071

>  <PUBCHEM_SHAPE_MULTIPOLES>  (1) 
265.52
11.19
1.37
0.59
8.96
0.02
0
0.62
0
-0.6
0
-0.07
0
0.02

>  <PUBCHEM_SHAPE_SELFOVERLAP>  (1) 
544.598

>  <PUBCHEM_SHAPE_VOLUME>  (1) 
152

>  <PUBCHEM_COORDINATE_TYPE>  (1) 
2
5
10

$$$$
