7602
     RDKit          3D

 12 12  0  0  0  0  0  0  0  0999 V2000
    1.2992    0.5079    0.3537 C   0  0  0  0  0  0  0  0  0  0  0  0
   -1.0893    0.8712    0.3537 C   0  0  0  0  0  0  0  0  0  0  0  0
   -0.2098   -1.3791    0.3540 C   0  0  0  0  0  0  0  0  0  0  0  0
    0.2099    1.3790    0.3536 C   0  0  0  0  0  0  0  0  0  0  0  0
    1.0893   -0.8711    0.3539 C   0  0  0  0  0  0  0  0  0  0  0  0
   -1.2993   -0.5078    0.3539 C   0  0  0  0  0  0  0  0  0  0  0  0
    2.6884    1.0508    0.3533 C   0  0  0  0  0  0  0  0  0  0  0  0
   -2.2543    1.8027    0.3532 C   0  0  0  0  0  0  0  0  0  0  0  0
   -0.4343   -2.8537    0.3531 C   0  0  0  0  0  0  0  0  0  0  0  0
    3.2262    1.2612   -1.0607 C   0  0  0  0  0  0  0  0  0  0  0  0
   -2.7054    2.1632   -1.0608 C   0  0  0  0  0  0  0  0  0  0  0  0
   -0.5205   -3.4242   -1.0610 C   0  0  0  0  0  0  0  0  0  0  0  0
  1  4  2  0
  1  5  1  0
  1  7  1  0
  2  4  1  0
  2  6  2  0
  2  8  1  0
  3  5  2  0
  3  6  1  0
  3  9  1  0
  7 10  1  0
  8 11  1  0
  9 12  1  0
M  END
>  <PUBCHEM_COMPOUND_CID>  (1) 
7602

>  <PUBCHEM_CONFORMER_RMSD>  (1) 
0.6

>  <PUBCHEM_CONFORMER_DIVERSEORDER>  (1) 
1
5
4
3
2

>  <PUBCHEM_MMFF94_PARTIAL_CHARGES>  (1) 
12
1 -0.14
13 0.15
14 0.15
15 0.15
2 -0.14
3 -0.14
4 -0.15
5 -0.15
6 -0.15
7 0.14
8 0.14
9 0.14

>  <PUBCHEM_EFFECTIVE_ROTOR_COUNT>  (1) 
3

>  <PUBCHEM_PHARMACOPHORE_FEATURES>  (1) 
4
1 10 hydrophobe
1 11 hydrophobe
1 12 hydrophobe
6 1 2 3 4 5 6 rings

>  <PUBCHEM_HEAVY_ATOM_COUNT>  (1) 
12

>  <PUBCHEM_ATOM_DEF_STEREO_COUNT>  (1) 
0

>  <PUBCHEM_ATOM_UDEF_STEREO_COUNT>  (1) 
0

>  <PUBCHEM_BOND_DEF_STEREO_COUNT>  (1) 
0

>  <PUBCHEM_BOND_UDEF_STEREO_COUNT>  (1) 
0

>  <PUBCHEM_ISOTOPIC_ATOM_COUNT>  (1) 
0

>  <PUBCHEM_COMPONENT_COUNT>  (1) 
1

>  <PUBCHEM_CACTVS_TAUTO_COUNT>  (1) 
1

>  <PUBCHEM_CONFORMER_ID>  (1) 
00001DB200000001

>  <PUBCHEM_MMFF94_ENERGY>  (1) 
19.879

>  <PUBCHEM_FEATURE_SELFOVERLAP>  (1) 
20.297

>  <PUBCHEM_SHAPE_FINGERPRINT>  (1) 
1 1 18193552268428914828
11206711 2 18338795744508570461
12138202 97 18340217366099162724
12716758 59 18341339976129667104
14817 1 13438964673617599698
15490181 7 18409447028946489128
15490181 8 18193559956615618761
16945 1 18266738176256030240
20511035 2 18261105219389286098
20645476 183 18186812378568322228
20645477 70 17905594516244611037
20711985 344 18121212353500936906
20871998 184 18195264422760634466
21040471 1 18410290311399684440
21524375 3 18261107448277047232
2334 1 18410575076073144555
23419403 2 16692518845891997855
23530152 11 18411695452936997911
23552423 10 17908421351437596169
241688 4 16465018611119948346
2748010 2 18337963298146989154
3060560 45 18192143802813715804
3071541 158 17469323634516172900
3071541 250 17260201994769902543
53812653 217 18338518676231459474
7364860 26 17837484155141902073
81228 2 18050567644557345226

>  <PUBCHEM_SHAPE_MULTIPOLES>  (1) 
246.95
3.64
3.64
0.99
1.54
3.8
0.27
-3.8
1.05
-1.54
1.05
0
0
0

>  <PUBCHEM_SHAPE_SELFOVERLAP>  (1) 
494.698

>  <PUBCHEM_SHAPE_VOLUME>  (1) 
140.3

>  <PUBCHEM_COORDINATE_TYPE>  (1) 
2
5
10

$$$$
