7603
     RDKit          3D

 10 10  0  0  0  0  0  0  0  0999 V2000
    1.7063   -0.5877   -0.0096 N   0  0  0  0  0  0  0  0  0  0  0  0
    0.3832   -0.0988   -0.0050 C   0  0  0  0  0  0  0  0  0  0  0  0
   -1.9983   -0.5058    0.0016 C   0  0  0  0  0  0  0  0  0  0  0  0
    2.8509    0.2696   -0.0114 C   0  0  0  0  0  0  0  0  0  0  0  0
   -0.6901   -0.9899   -0.0034 C   0  0  0  0  0  0  0  0  0  0  0  0
    0.1480    1.2761   -0.0017 C   0  0  0  0  0  0  0  0  0  0  0  0
   -2.2333    0.8692    0.0050 C   0  0  0  0  0  0  0  0  0  0  0  0
   -1.1601    1.7601    0.0034 C   0  0  0  0  0  0  0  0  0  0  0  0
    4.1394   -0.5349    0.0183 C   0  0  0  0  0  0  0  0  0  0  0  0
   -3.1459   -1.4579    0.0027 C   0  0  0  0  0  0  0  0  0  0  0  0
  1  2  1  0
  1  4  1  0
  2  5  2  0
  2  6  1  0
  3  5  1  0
  3  7  2  0
  3 10  1  0
  4  9  1  0
  6  8  2  0
  7  8  1  0
M  END
>  <PUBCHEM_COMPOUND_CID>  (1) 
7603

>  <PUBCHEM_CONFORMER_RMSD>  (1) 
0.4

>  <PUBCHEM_CONFORMER_DIVERSEORDER>  (1) 
1
4
6
5
3
2

>  <PUBCHEM_MMFF94_PARTIAL_CHARGES>  (1) 
14
1 -0.87
10 0.14
13 0.4
14 0.15
15 0.15
16 0.15
17 0.15
2 0.1
3 -0.14
4 0.37
5 -0.15
6 -0.15
7 -0.15
8 -0.15

>  <PUBCHEM_EFFECTIVE_ROTOR_COUNT>  (1) 
2

>  <PUBCHEM_PHARMACOPHORE_FEATURES>  (1) 
3
1 1 cation
1 1 donor
6 2 3 5 6 7 8 rings

>  <PUBCHEM_HEAVY_ATOM_COUNT>  (1) 
10

>  <PUBCHEM_ATOM_DEF_STEREO_COUNT>  (1) 
0

>  <PUBCHEM_ATOM_UDEF_STEREO_COUNT>  (1) 
0

>  <PUBCHEM_BOND_DEF_STEREO_COUNT>  (1) 
0

>  <PUBCHEM_BOND_UDEF_STEREO_COUNT>  (1) 
0

>  <PUBCHEM_ISOTOPIC_ATOM_COUNT>  (1) 
0

>  <PUBCHEM_COMPONENT_COUNT>  (1) 
1

>  <PUBCHEM_CACTVS_TAUTO_COUNT>  (1) 
1

>  <PUBCHEM_CONFORMER_ID>  (1) 
00001DB300000001

>  <PUBCHEM_MMFF94_ENERGY>  (1) 
29.2665

>  <PUBCHEM_FEATURE_SELFOVERLAP>  (1) 
15.223

>  <PUBCHEM_SHAPE_FINGERPRINT>  (1) 
10857977 72 18341321271114453040
12032990 46 18338520840736889963
12932764 1 17531524287579490924
13024252 1 17095247994899362689
14128692 85 18336832003877436141
14325111 11 18410575055141626796
16945 1 18338798905704674933
20871998 184 18202002127078940159
20871998 22 18271542960697524599
21040471 1 18050568435190309189
21061003 4 17203610393344567824
23402539 116 18341603832818376319
23552423 10 18259987097525726284
2748010 2 18267291200746089941
369184 2 18261672588721571264
6333449 129 18342173328148780725

>  <PUBCHEM_SHAPE_MULTIPOLES>  (1) 
200.81
5.56
1.58
0.61
5.24
0.37
0
-2.01
0.02
-1.08
0
-0.01
0
0

>  <PUBCHEM_SHAPE_SELFOVERLAP>  (1) 
403.83

>  <PUBCHEM_SHAPE_VOLUME>  (1) 
119.4

>  <PUBCHEM_COORDINATE_TYPE>  (1) 
2
5
10

$$$$
