7604
     RDKit          3D

 11 11  0  0  0  0  0  0  0  0999 V2000
    2.7970    1.1254    0.0024 O   0  0  0  0  0  0  0  0  0  0  0  0
    1.3766   -0.7563   -0.0004 N   0  0  0  0  0  0  0  0  0  0  0  0
   -3.4362   -1.3258    0.0014 N   0  0  0  0  0  0  0  0  0  0  0  0
    0.0953   -0.2039   -0.0005 C   0  0  0  0  0  0  0  0  0  0  0  0
   -1.0238   -1.0368   -0.0002 C   0  0  0  0  0  0  0  0  0  0  0  0
   -2.3045   -0.4839   -0.0001 C   0  0  0  0  0  0  0  0  0  0  0  0
   -0.0666    1.1816   -0.0007 C   0  0  0  0  0  0  0  0  0  0  0  0
   -2.4661    0.9016   -0.0002 C   0  0  0  0  0  0  0  0  0  0  0  0
   -1.3472    1.7344   -0.0005 C   0  0  0  0  0  0  0  0  0  0  0  0
    2.6074   -0.0866   -0.0006 C   0  0  0  0  0  0  0  0  0  0  0  0
    3.7679   -1.0497   -0.0004 C   0  0  0  0  0  0  0  0  0  0  0  0
  1 10  2  0
  2  4  1  0
  2 10  1  0
  3  6  1  0
  4  5  2  0
  4  7  1  0
  5  6  1  0
  6  8  2  0
  7  9  2  0
  8  9  1  0
 10 11  1  0
M  END
>  <PUBCHEM_COMPOUND_CID>  (1) 
7604

>  <PUBCHEM_CONFORMER_RMSD>  (1) 
0.4

>  <PUBCHEM_CONFORMER_DIVERSEORDER>  (1) 
1
2
3
4

>  <PUBCHEM_MMFF94_PARTIAL_CHARGES>  (1) 
18
1 -0.57
10 0.57
11 0.06
12 0.15
13 0.15
14 0.37
15 0.15
16 0.15
2 -0.55
20 0.4
21 0.4
3 -0.9
4 0.12
5 -0.15
6 0.1
7 -0.15
8 -0.15
9 -0.15

>  <PUBCHEM_EFFECTIVE_ROTOR_COUNT>  (1) 
2

>  <PUBCHEM_PHARMACOPHORE_FEATURES>  (1) 
5
1 1 acceptor
1 2 donor
1 3 cation
1 3 donor
6 4 5 6 7 8 9 rings

>  <PUBCHEM_HEAVY_ATOM_COUNT>  (1) 
11

>  <PUBCHEM_ATOM_DEF_STEREO_COUNT>  (1) 
0

>  <PUBCHEM_ATOM_UDEF_STEREO_COUNT>  (1) 
0

>  <PUBCHEM_BOND_DEF_STEREO_COUNT>  (1) 
0

>  <PUBCHEM_BOND_UDEF_STEREO_COUNT>  (1) 
0

>  <PUBCHEM_ISOTOPIC_ATOM_COUNT>  (1) 
0

>  <PUBCHEM_COMPONENT_COUNT>  (1) 
1

>  <PUBCHEM_CACTVS_TAUTO_COUNT>  (1) 
2

>  <PUBCHEM_CONFORMER_ID>  (1) 
00001DB400000001

>  <PUBCHEM_MMFF94_ENERGY>  (1) 
40.1808

>  <PUBCHEM_FEATURE_SELFOVERLAP>  (1) 
25.371

>  <PUBCHEM_SHAPE_FINGERPRINT>  (1) 
10857977 72 18340758321176875465
12032990 46 18409735092376898115
12897270 3 18410572860017745188
12932764 1 17531242803807071880
13024252 1 16732991886142964385
14144814 61 18337107869953912394
14325111 11 18410575072078974304
16945 1 18194402195317660933
19973954 147 18411983533652745388
20201158 50 18272088241018060670
20871998 184 18202003226796322247
23402539 116 18342164566652997503
23463225 33 18337110077440475862
23552423 10 18260268538205930594
2748010 2 18411411834603022389
3248919 1 17489309637894622420
369184 2 18335138669960460833
6333449 129 18341047419884073141

>  <PUBCHEM_SHAPE_MULTIPOLES>  (1) 
210.54
5.61
1.6
0.59
3.3
0.3
0
-1.59
0
-0.63
0
-0.01
0.01
0

>  <PUBCHEM_SHAPE_SELFOVERLAP>  (1) 
433.304

>  <PUBCHEM_SHAPE_VOLUME>  (1) 
120.8

>  <PUBCHEM_COORDINATE_TYPE>  (1) 
2
5
10

$$$$
