7610
     RDKit          3D

 10 10  0  0  0  0  0  0  0  0999 V2000
    2.4645   -0.7117    0.0000 O   0  0  0  0  0  0  0  0  0  0  0  0
   -2.7938    1.1037   -0.0003 N   0  0  0  0  0  0  0  0  0  0  0  0
   -1.1938   -0.7392    0.0002 C   0  0  0  0  0  0  0  0  0  0  0  0
   -1.4636    0.6293   -0.0001 C   0  0  0  0  0  0  0  0  0  0  0  0
    0.1262   -1.1900    0.0006 C   0  0  0  0  0  0  0  0  0  0  0  0
    1.1765   -0.2722    0.0007 C   0  0  0  0  0  0  0  0  0  0  0  0
   -0.4131    1.5471    0.0001 C   0  0  0  0  0  0  0  0  0  0  0  0
    0.9069    1.0964    0.0004 C   0  0  0  0  0  0  0  0  0  0  0  0
   -2.2994   -1.7443   -0.0006 C   0  0  0  0  0  0  0  0  0  0  0  0
    3.4896    0.2809   -0.0010 C   0  0  0  0  0  0  0  0  0  0  0  0
  1  6  1  0
  1 10  1  0
  2  4  1  0
  3  4  2  0
  3  5  1  0
  3  9  1  0
  4  7  1  0
  5  6  2  0
  6  8  1  0
  7  8  2  0
M  END
>  <PUBCHEM_COMPOUND_CID>  (1) 
7610

>  <PUBCHEM_CONFORMER_RMSD>  (1) 
0.4

>  <PUBCHEM_CONFORMER_DIVERSEORDER>  (1) 
1
2

>  <PUBCHEM_MMFF94_PARTIAL_CHARGES>  (1) 
15
1 -0.36
10 0.28
11 0.15
12 0.15
13 0.15
17 0.4
18 0.4
2 -0.9
3 -0.14
4 0.1
5 -0.15
6 0.08
7 -0.15
8 -0.15
9 0.14

>  <PUBCHEM_EFFECTIVE_ROTOR_COUNT>  (1) 
1

>  <PUBCHEM_PHARMACOPHORE_FEATURES>  (1) 
4
1 1 acceptor
1 2 cation
1 2 donor
6 3 4 5 6 7 8 rings

>  <PUBCHEM_HEAVY_ATOM_COUNT>  (1) 
10

>  <PUBCHEM_ATOM_DEF_STEREO_COUNT>  (1) 
0

>  <PUBCHEM_ATOM_UDEF_STEREO_COUNT>  (1) 
0

>  <PUBCHEM_BOND_DEF_STEREO_COUNT>  (1) 
0

>  <PUBCHEM_BOND_UDEF_STEREO_COUNT>  (1) 
0

>  <PUBCHEM_ISOTOPIC_ATOM_COUNT>  (1) 
0

>  <PUBCHEM_COMPONENT_COUNT>  (1) 
1

>  <PUBCHEM_CACTVS_TAUTO_COUNT>  (1) 
1

>  <PUBCHEM_CONFORMER_ID>  (1) 
00001DBA00000001

>  <PUBCHEM_MMFF94_ENERGY>  (1) 
44.5546

>  <PUBCHEM_FEATURE_SELFOVERLAP>  (1) 
20.297

>  <PUBCHEM_SHAPE_FINGERPRINT>  (1) 
10857977 72 18340757243356284090
12423570 1 17822861866005279357
12932764 1 17458620086788974804
14128692 85 18267027330607827310
14325111 11 18410575080753220480
16945 1 18338516330984143461
193761 8 18050287265013864741
20871998 184 18201722881148168519
21040471 1 18266740169094546529
23235685 24 18340481158405488417
23402655 69 18051675674129461309
23552423 10 18188208826596144982
241688 4 18336542823792745625
2748010 2 18339637970357353037
29004967 10 16845577508718847182
369184 2 18040432157689343776
5084963 1 18200878503388719691
528886 8 18411412891069745881
6333449 129 18342171172075048692

>  <PUBCHEM_SHAPE_MULTIPOLES>  (1) 
194.94
4.16
1.69
0.6
2.31
0.03
0
-0.34
0
-0.95
0
0
0
0

>  <PUBCHEM_SHAPE_SELFOVERLAP>  (1) 
401.367

>  <PUBCHEM_SHAPE_VOLUME>  (1) 
113.7

>  <PUBCHEM_COORDINATE_TYPE>  (1) 
2
5
10

$$$$
