7613
     RDKit          3D

 11 11  0  0  0  0  0  0  0  0999 V2000
    2.6178    0.2828   -0.0001 O   0  0  0  0  0  0  0  0  0  0  0  0
   -2.8635   -0.3151   -0.0001 O   0  0  0  0  0  0  0  0  0  0  0  0
    1.5155   -2.3066   -0.0006 N   0  0  0  0  0  0  0  0  0  0  0  0
    0.6975   -1.1558    0.0002 C   0  0  0  0  0  0  0  0  0  0  0  0
    1.2647    0.1186    0.0000 C   0  0  0  0  0  0  0  0  0  0  0  0
   -1.5098   -0.1731    0.0006 C   0  0  0  0  0  0  0  0  0  0  0  0
   -0.6898   -1.3016    0.0005 C   0  0  0  0  0  0  0  0  0  0  0  0
    0.4445    1.2470    0.0001 C   0  0  0  0  0  0  0  0  0  0  0  0
   -0.9426    1.1011    0.0005 C   0  0  0  0  0  0  0  0  0  0  0  0
    3.1075    1.6220   -0.0003 C   0  0  0  0  0  0  0  0  0  0  0  0
   -3.6418    0.8807   -0.0009 C   0  0  0  0  0  0  0  0  0  0  0  0
  1  5  1  0
  1 10  1  0
  2  6  1  0
  2 11  1  0
  3  4  1  0
  4  5  2  0
  4  7  1  0
  5  8  1  0
  6  7  2  0
  6  9  1  0
  8  9  2  0
M  END
>  <PUBCHEM_COMPOUND_CID>  (1) 
7613

>  <PUBCHEM_CONFORMER_RMSD>  (1) 
0.4

>  <PUBCHEM_CONFORMER_DIVERSEORDER>  (1) 
5
3
2
6
1
4

>  <PUBCHEM_MMFF94_PARTIAL_CHARGES>  (1) 
16
1 -0.36
10 0.28
11 0.28
12 0.15
13 0.15
14 0.15
15 0.4
16 0.4
2 -0.36
3 -0.9
4 0.1
5 0.08
6 0.08
7 -0.15
8 -0.15
9 -0.15

>  <PUBCHEM_EFFECTIVE_ROTOR_COUNT>  (1) 
2

>  <PUBCHEM_PHARMACOPHORE_FEATURES>  (1) 
5
1 1 acceptor
1 2 acceptor
1 3 cation
1 3 donor
6 4 5 6 7 8 9 rings

>  <PUBCHEM_HEAVY_ATOM_COUNT>  (1) 
11

>  <PUBCHEM_ATOM_DEF_STEREO_COUNT>  (1) 
0

>  <PUBCHEM_ATOM_UDEF_STEREO_COUNT>  (1) 
0

>  <PUBCHEM_BOND_DEF_STEREO_COUNT>  (1) 
0

>  <PUBCHEM_BOND_UDEF_STEREO_COUNT>  (1) 
0

>  <PUBCHEM_ISOTOPIC_ATOM_COUNT>  (1) 
0

>  <PUBCHEM_COMPONENT_COUNT>  (1) 
1

>  <PUBCHEM_CACTVS_TAUTO_COUNT>  (1) 
1

>  <PUBCHEM_CONFORMER_ID>  (1) 
00001DBD00000005

>  <PUBCHEM_MMFF94_ENERGY>  (1) 
56.0523

>  <PUBCHEM_FEATURE_SELFOVERLAP>  (1) 
25.371

>  <PUBCHEM_SHAPE_FINGERPRINT>  (1) 
10219947 1 18260829319085089285
12932764 1 17418082222739014793
13380535 76 18408318921205111395
14325111 11 18410856602616037665
161256 15 18264491676379175756
16945 1 18410575089000328677
193761 8 17978510828093464512
20645476 183 17751656570126301630
20645477 70 18268142072896822231
21040471 1 18338800146775942274
23235685 24 18409442622056978369
23402655 69 18341317904831004957
23552423 10 18264209110449350543
23559900 14 18200601419024249948
241688 4 17617379485282664418
2748010 2 18192708934441640189
528862 383 18334850585071422690
528886 8 18339074994581276544
53812653 166 18342735255937058537
63268167 104 18341333301666008785
7364860 26 18270680853418520886

>  <PUBCHEM_SHAPE_MULTIPOLES>  (1) 
209.66
4.65
1.9
0.59
1.73
0.68
0
-2.08
0
-1.01
0
0.01
-0.02
0

>  <PUBCHEM_SHAPE_SELFOVERLAP>  (1) 
431.744

>  <PUBCHEM_SHAPE_VOLUME>  (1) 
121.6

>  <PUBCHEM_COORDINATE_TYPE>  (1) 
2
5
10

$$$$
