7618
     RDKit          3D

 10  9  0  0  0  0  0  0  0  0999 V2000
   -3.4155    1.3447   -0.1559 O   0  0  0  0  0  0  0  0  0  0  0  0
    2.8855    2.2612   -0.1578 O   0  0  0  0  0  0  0  0  0  0  0  0
    0.5368   -3.6188   -0.1522 O   0  0  0  0  0  0  0  0  0  0  0  0
   -0.0036    0.0065    0.2357 N   0  0  0  0  0  0  0  0  0  0  0  0
   -1.0666    0.8986   -0.2257 C   0  0  0  0  0  0  0  0  0  0  0  0
    1.2981    0.4738   -0.2397 C   0  0  0  0  0  0  0  0  0  0  0  0
   -0.2521   -1.3617   -0.2172 C   0  0  0  0  0  0  0  0  0  0  0  0
   -2.4173    0.4419    0.3018 C   0  0  0  0  0  0  0  0  0  0  0  0
    1.6077    1.8552    0.3146 C   0  0  0  0  0  0  0  0  0  0  0  0
    0.8271   -2.3015    0.2964 C   0  0  0  0  0  0  0  0  0  0  0  0
  1  8  1  0
  2  9  1  0
  3 10  1  0
  4  5  1  0
  4  6  1  0
  4  7  1  0
  5  8  1  0
  6  9  1  0
  7 10  1  0
M  END
>  <PUBCHEM_COMPOUND_CID>  (1) 
7618

>  <PUBCHEM_CONFORMER_RMSD>  (1) 
0.6

>  <PUBCHEM_CONFORMER_DIVERSEORDER>  (1) 
1
28
11
24
17
15
21
20
22
29
18
10
27
14
26
2
30
4
19
25
23
16
3
6
12
13
8
5
9
7

>  <PUBCHEM_MMFF94_PARTIAL_CHARGES>  (1) 
13
1 -0.68
10 0.28
2 -0.68
23 0.4
24 0.4
25 0.4
3 -0.68
4 -0.81
5 0.27
6 0.27
7 0.27
8 0.28
9 0.28

>  <PUBCHEM_EFFECTIVE_ROTOR_COUNT>  (1) 
6

>  <PUBCHEM_PHARMACOPHORE_FEATURES>  (1) 
7
1 1 acceptor
1 1 donor
1 2 acceptor
1 2 donor
1 3 acceptor
1 3 donor
1 4 cation

>  <PUBCHEM_HEAVY_ATOM_COUNT>  (1) 
10

>  <PUBCHEM_ATOM_DEF_STEREO_COUNT>  (1) 
0

>  <PUBCHEM_ATOM_UDEF_STEREO_COUNT>  (1) 
0

>  <PUBCHEM_BOND_DEF_STEREO_COUNT>  (1) 
0

>  <PUBCHEM_BOND_UDEF_STEREO_COUNT>  (1) 
0

>  <PUBCHEM_ISOTOPIC_ATOM_COUNT>  (1) 
0

>  <PUBCHEM_COMPONENT_COUNT>  (1) 
1

>  <PUBCHEM_CACTVS_TAUTO_COUNT>  (1) 
1

>  <PUBCHEM_CONFORMER_ID>  (1) 
00001DC200000001

>  <PUBCHEM_MMFF94_ENERGY>  (1) 
14.9972

>  <PUBCHEM_FEATURE_SELFOVERLAP>  (1) 
35.522

>  <PUBCHEM_SHAPE_FINGERPRINT>  (1) 
1 1 18410011009438905708
19021347 4 18266458887275189834
20645477 70 18264480690812876463
20711985 344 17690269839209167074
21040471 1 18266461086409604844
23552423 10 18341327782680486533
23552449 1 17402610148046659332
7364860 26 18267302036816397081
81228 2 17618222153344221440

>  <PUBCHEM_SHAPE_MULTIPOLES>  (1) 
183.21
3.55
3.51
0.64
2.12
3.57
0.01
-3.59
-0.04
-2.11
-0.04
0
0
0

>  <PUBCHEM_SHAPE_SELFOVERLAP>  (1) 
330.931

>  <PUBCHEM_SHAPE_VOLUME>  (1) 
119

>  <PUBCHEM_COORDINATE_TYPE>  (1) 
2
5
10

$$$$
