7619
     RDKit          3D

 16 18  0  0  0  0  0  0  0  0999 V2000
    1.3788    1.9145    0.5880 S   0  0  0  0  0  0  0  0  0  0  0  0
   -1.2568    1.8032   -0.9075 S   0  0  0  0  0  0  0  0  0  0  0  0
    4.2486   -1.3275   -0.6733 O   0  0  0  0  0  0  0  0  0  0  0  0
    2.3144    0.5663    0.2740 N   0  0  0  0  0  0  0  0  0  0  0  0
   -0.6210    0.1836    0.9963 N   0  0  0  0  0  0  0  0  0  0  0  0
    2.2338   -0.0377   -1.0681 C   0  0  0  0  0  0  0  0  0  0  0  0
    3.7172    0.5798    0.7255 C   0  0  0  0  0  0  0  0  0  0  0  0
    2.8881   -1.4154   -1.0908 C   0  0  0  0  0  0  0  0  0  0  0  0
    4.3306   -0.8149    0.6547 C   0  0  0  0  0  0  0  0  0  0  0  0
   -0.2097    1.2016    0.2918 C   0  0  0  0  0  0  0  0  0  0  0  0
   -2.4086    0.5954   -0.4748 C   0  0  0  0  0  0  0  0  0  0  0  0
   -1.8892   -0.1794    0.5667 C   0  0  0  0  0  0  0  0  0  0  0  0
   -3.6802    0.3509   -1.0179 C   0  0  0  0  0  0  0  0  0  0  0  0
   -2.6722   -1.2355    1.0811 C   0  0  0  0  0  0  0  0  0  0  0  0
   -4.4346   -0.7003   -0.4907 C   0  0  0  0  0  0  0  0  0  0  0  0
   -3.9390   -1.4845    0.5452 C   0  0  0  0  0  0  0  0  0  0  0  0
  1  4  1  0
  1 10  1  0
  2 10  1  0
  2 11  1  0
  3  8  1  0
  3  9  1  0
  4  6  1  0
  4  7  1  0
  5 10  2  0
  5 12  1  0
  6  8  1  0
  7  9  1  0
 11 12  2  0
 11 13  1  0
 12 14  1  0
 13 15  2  0
 14 16  2  0
 15 16  1  0
M  END
>  <PUBCHEM_COMPOUND_CID>  (1) 
7619

>  <PUBCHEM_CONFORMER_RMSD>  (1) 
0.6

>  <PUBCHEM_CONFORMER_DIVERSEORDER>  (1) 
1
23
12
6
11
9
24
7
16
10
8
25
5
26
14
13
2
15
21
22
18
17
4
19
20
3

>  <PUBCHEM_MMFF94_PARTIAL_CHARGES>  (1) 
20
1 -0.04
10 0.43
11 0.04
12 0.23
13 -0.15
14 -0.15
15 -0.15
16 -0.15
2 -0.08
25 0.15
26 0.15
27 0.15
28 0.15
3 -0.56
4 -0.56
5 -0.57
6 0.27
7 0.27
8 0.28
9 0.28

>  <PUBCHEM_EFFECTIVE_ROTOR_COUNT>  (1) 
3.2

>  <PUBCHEM_PHARMACOPHORE_FEATURES>  (1) 
5
1 3 acceptor
1 5 acceptor
5 2 5 10 11 12 rings
6 11 12 13 14 15 16 rings
6 3 4 6 7 8 9 rings

>  <PUBCHEM_HEAVY_ATOM_COUNT>  (1) 
16

>  <PUBCHEM_ATOM_DEF_STEREO_COUNT>  (1) 
0

>  <PUBCHEM_ATOM_UDEF_STEREO_COUNT>  (1) 
0

>  <PUBCHEM_BOND_DEF_STEREO_COUNT>  (1) 
0

>  <PUBCHEM_BOND_UDEF_STEREO_COUNT>  (1) 
0

>  <PUBCHEM_ISOTOPIC_ATOM_COUNT>  (1) 
0

>  <PUBCHEM_COMPONENT_COUNT>  (1) 
1

>  <PUBCHEM_CACTVS_TAUTO_COUNT>  (1) 
1

>  <PUBCHEM_CONFORMER_ID>  (1) 
00001DC300000001

>  <PUBCHEM_MMFF94_ENERGY>  (1) 
26.4205

>  <PUBCHEM_FEATURE_SELFOVERLAP>  (1) 
25.444

>  <PUBCHEM_SHAPE_FINGERPRINT>  (1) 
10465860 71 17386008403151815597
11137873 295 18412832382483322043
11543360 7 16660372510150565678
12032990 46 18260547878979638145
12251169 10 13038900044990162001
12363563 72 18411708672809340208
12596602 18 15554158267881474878
13296908 3 18410857672094484472
13544653 18 18202565081258776136
13764800 53 10592042466174815652
14115302 16 17458627830124444533
14251764 30 16372722732585026811
14252887 29 17561368361893967358
14341114 328 14692561148452264114
14386348 63 18411417319244409402
14848160 33 18343584049049240974
15375462 189 16415476064840084370
15422964 175 18130794404237510788
15635459 17 18342741793109579838
16752209 62 17458612403008320169
17834072 14 18411979152532649124
17870717 6 18187370887103865295
18186145 218 12324243871130909636
19141452 34 18342740762813203423
19862831 5 15791731905710823980
200 152 17846773005667485749
20279233 1 18411136952290022890
20281475 54 18411429426720481977
20374829 77 18261106379083138107
20403669 9 18409446985833538875
20432913 95 17846778520205111699
20645476 183 15502371249165287155
20645477 70 18340762749230115633
20671657 53 18335140907638785913
20871999 31 18041287586383989820
21119208 17 16153704314781698920
22926399 37 12468353553179953183
231179 274 7925912582431228084
23402539 116 17822281371105120692
23402655 69 13479137886997966982
23403322 49 18335701611292487450
23557571 272 18113890585244466140
23559900 14 18187077382266786156
26918003 58 18131630071349446530
27216 239 9582932654338145454
2871803 45 18335983090959830290
3082319 5 16226052197269669482
474 4 15768061710025371248
4921388 177 16805615784493333235
7808743 9 10879407548741407858
9709674 26 18262235654786731307
9882013 296 13686296885265833191

>  <PUBCHEM_SHAPE_MULTIPOLES>  (1) 
321.14
9.1
1.82
1.2
1.98
0.32
-0.11
-4.54
-0.58
0.12
-0.03
0.13
-0.09
1.22

>  <PUBCHEM_SHAPE_SELFOVERLAP>  (1) 
661.631

>  <PUBCHEM_SHAPE_VOLUME>  (1) 
185.8

>  <PUBCHEM_COORDINATE_TYPE>  (1) 
2
5
10

$$$$
