7631
     RDKit          3D

 10 10  0  0  0  0  0  0  0  0999 V2000
    3.8993    0.0543    0.2683 S   0  0  0  0  0  0  0  0  0  0  0  0
    1.8979   -0.0995   -1.4049 O   0  0  0  0  0  0  0  0  0  0  0  0
   -0.2053    0.0145    0.4856 C   0  0  0  0  0  0  0  0  0  0  0  0
    1.2193    0.0228    0.9272 C   0  0  0  0  0  0  0  0  0  0  0  0
   -0.8660    1.2180    0.2391 C   0  0  0  0  0  0  0  0  0  0  0  0
   -0.8769   -1.1967    0.3187 C   0  0  0  0  0  0  0  0  0  0  0  0
   -2.1982    1.2106   -0.1742 C   0  0  0  0  0  0  0  0  0  0  0  0
   -2.2092   -1.2041   -0.0947 C   0  0  0  0  0  0  0  0  0  0  0  0
   -2.8697   -0.0005   -0.3411 C   0  0  0  0  0  0  0  0  0  0  0  0
    2.2087   -0.0193   -0.2241 C   0  0  0  0  0  0  0  0  0  0  0  0
  1 10  1  0
  2 10  2  0
  3  4  1  0
  3  5  2  0
  3  6  1  0
  4 10  1  0
  5  7  1  0
  6  8  2  0
  7  9  2  0
  8  9  1  0
M  END
>  <PUBCHEM_COMPOUND_CID>  (1) 
7631

>  <PUBCHEM_CONFORMER_RMSD>  (1) 
0.4

>  <PUBCHEM_CONFORMER_DIVERSEORDER>  (1) 
1
8
7
9
12
6
2
14
13
4
11
5
3
10

>  <PUBCHEM_MMFF94_PARTIAL_CHARGES>  (1) 
16
1 -0.32
10 0.65
13 0.15
14 0.15
15 0.15
16 0.15
17 0.15
18 0.18
2 -0.57
3 -0.14
4 0.2
5 -0.15
6 -0.15
7 -0.15
8 -0.15
9 -0.15

>  <PUBCHEM_EFFECTIVE_ROTOR_COUNT>  (1) 
2

>  <PUBCHEM_PHARMACOPHORE_FEATURES>  (1) 
2
3 1 2 10 anion
6 3 5 6 7 8 9 rings

>  <PUBCHEM_HEAVY_ATOM_COUNT>  (1) 
10

>  <PUBCHEM_ATOM_DEF_STEREO_COUNT>  (1) 
0

>  <PUBCHEM_ATOM_UDEF_STEREO_COUNT>  (1) 
0

>  <PUBCHEM_BOND_DEF_STEREO_COUNT>  (1) 
0

>  <PUBCHEM_BOND_UDEF_STEREO_COUNT>  (1) 
0

>  <PUBCHEM_ISOTOPIC_ATOM_COUNT>  (1) 
0

>  <PUBCHEM_COMPONENT_COUNT>  (1) 
1

>  <PUBCHEM_CACTVS_TAUTO_COUNT>  (1) 
2

>  <PUBCHEM_CONFORMER_ID>  (1) 
00001DCF00000001

>  <PUBCHEM_MMFF94_ENERGY>  (1) 
19.5214

>  <PUBCHEM_FEATURE_SELFOVERLAP>  (1) 
10.148

>  <PUBCHEM_SHAPE_FINGERPRINT>  (1) 
11062470 55 17775565342712934168
12716758 59 18340772541766165074
12897270 3 18413108368122550246
13024252 1 17603587434983590091
14325111 11 18408882902208860800
15310529 11 16128657409825810009
15775835 57 18040714719050433996
16945 1 18409725166902305193
20201158 50 17775286058138006422
20645464 45 18060416923821969147
20653085 51 15864069896736111871
21040471 1 18265884757975649249
21061003 4 16845577547341865850
23402539 116 18341599408854186428
23552423 10 18116147951345673217
23559900 14 18343014451219662138
2748010 2 17977087274516188379
29004967 10 16558750117725087042
3248919 1 17632865213280512200
369184 2 18411981355750599731
5084963 1 17167857582165298259
6333449 129 18343298167319962105

>  <PUBCHEM_SHAPE_MULTIPOLES>  (1) 
203.78
5.31
1.21
0.91
3.95
0.01
-0.13
0.04
-0.49
-0.9
0.05
0.38
-0.01
0.04

>  <PUBCHEM_SHAPE_SELFOVERLAP>  (1) 
407.937

>  <PUBCHEM_SHAPE_VOLUME>  (1) 
121

>  <PUBCHEM_COORDINATE_TYPE>  (1) 
2
5
10

$$$$
