7638
     RDKit          3D

 15 16  0  0  0  0  0  0  0  0999 V2000
    0.0283   -0.4458   -0.0086 O   0  0  0  0  0  0  0  0  0  0  0  0
    5.4979    0.2353    0.0174 O   0  0  0  0  0  0  0  0  0  0  0  0
   -2.2078    0.3639   -0.0360 C   0  0  0  0  0  0  0  0  0  0  0  0
   -0.7635    0.7332   -0.0842 C   0  0  0  0  0  0  0  0  0  0  0  0
    1.3880   -0.2768   -0.0024 C   0  0  0  0  0  0  0  0  0  0  0  0
   -2.9004    0.1018   -1.2181 C   0  0  0  0  0  0  0  0  0  0  0  0
   -2.8659    0.2800    1.1911 C   0  0  0  0  0  0  0  0  0  0  0  0
    1.9222    1.0052   -0.0683 C   0  0  0  0  0  0  0  0  0  0  0  0
    2.2199   -1.3886    0.0698 C   0  0  0  0  0  0  0  0  0  0  0  0
   -4.2510   -0.2439   -1.1732 C   0  0  0  0  0  0  0  0  0  0  0  0
   -4.2164   -0.0658    1.2358 C   0  0  0  0  0  0  0  0  0  0  0  0
   -4.9090   -0.3277    0.0536 C   0  0  0  0  0  0  0  0  0  0  0  0
    3.3064    1.1777   -0.0624 C   0  0  0  0  0  0  0  0  0  0  0  0
    3.6041   -1.2159    0.0758 C   0  0  0  0  0  0  0  0  0  0  0  0
    4.1472    0.0674    0.0098 C   0  0  0  0  0  0  0  0  0  0  0  0
  1  4  1  0
  1  5  1  0
  2 15  1  0
  3  4  1  0
  3  6  2  0
  3  7  1  0
  5  8  2  0
  5  9  1  0
  6 10  1  0
  7 11  2  0
  8 13  1  0
  9 14  2  0
 10 12  2  0
 11 12  1  0
 13 15  2  0
 14 15  1  0
M  END
>  <PUBCHEM_COMPOUND_CID>  (1) 
7638

>  <PUBCHEM_CONFORMER_RMSD>  (1) 
0.6

>  <PUBCHEM_CONFORMER_DIVERSEORDER>  (1) 
1
12
8
9
7
11
5
14
6
2
4
10
3
13

>  <PUBCHEM_MMFF94_PARTIAL_CHARGES>  (1) 
25
1 -0.36
10 -0.15
11 -0.15
12 -0.15
13 -0.15
14 -0.15
15 0.08
18 0.15
19 0.15
2 -0.53
20 0.15
21 0.15
22 0.15
23 0.15
24 0.15
25 0.15
26 0.15
27 0.45
3 -0.14
4 0.42
5 0.08
6 -0.15
7 -0.15
8 -0.15
9 -0.15

>  <PUBCHEM_EFFECTIVE_ROTOR_COUNT>  (1) 
3

>  <PUBCHEM_PHARMACOPHORE_FEATURES>  (1) 
4
1 1 acceptor
1 2 donor
6 3 6 7 10 11 12 rings
6 5 8 9 13 14 15 rings

>  <PUBCHEM_HEAVY_ATOM_COUNT>  (1) 
15

>  <PUBCHEM_ATOM_DEF_STEREO_COUNT>  (1) 
0

>  <PUBCHEM_ATOM_UDEF_STEREO_COUNT>  (1) 
0

>  <PUBCHEM_BOND_DEF_STEREO_COUNT>  (1) 
0

>  <PUBCHEM_BOND_UDEF_STEREO_COUNT>  (1) 
0

>  <PUBCHEM_ISOTOPIC_ATOM_COUNT>  (1) 
0

>  <PUBCHEM_COMPONENT_COUNT>  (1) 
1

>  <PUBCHEM_CACTVS_TAUTO_COUNT>  (1) 
2

>  <PUBCHEM_CONFORMER_ID>  (1) 
00001DD600000001

>  <PUBCHEM_MMFF94_ENERGY>  (1) 
46.3268

>  <PUBCHEM_FEATURE_SELFOVERLAP>  (1) 
20.297

>  <PUBCHEM_SHAPE_FINGERPRINT>  (1) 
10912923 1 17703789223435601546
11287383 113 17312826004376180532
11401426 45 12829207784468453582
11471102 20 18408603665226628844
11615757 297 18272369776008268897
12107183 9 17053603811456071339
12236239 1 17775286062227199809
13167823 11 17775284954210222103
13675066 3 12751231519364613671
14123238 8 18201720656470854546
14251718 22 15864076489647976588
14252887 29 18341899550328470950
14386348 63 17676490544662327099
15375358 24 17603304851599459475
17834072 33 17846495967165164556
19050596 39 17846780706585987171
19489759 90 15647049369803762853
1986462 14 16225766307319766687
200 152 18412539908084855689
20279233 1 17530687597568876715
20645477 56 15864343615756149773
20645477 70 18189046521539949058
21065201 7 16081082667121028313
22485316 2 18186801370519832219
22646028 1 18060134332180174071
22854114 59 18334859419776718592
23402539 116 17346596365593366165
23402655 69 18340482283570843220
23536379 177 16056604244706051950
23557571 272 16805316669827410277
23559900 14 16660919994016567858
26918003 58 18259988180031584457
300161 21 17847055563007564601
474 4 17914321627211730200
5104073 3 18263358101635171424
542803 24 17203611492766569960
573450 72 17132112412281611291
602551 16 15410600527963651878
69090 78 18261111893689634923

>  <PUBCHEM_SHAPE_MULTIPOLES>  (1) 
296.95
11.36
1.09
1.01
0.97
0.1
-0.01
0.64
-0.16
1.04
0
-1.42
0
-0.15

>  <PUBCHEM_SHAPE_SELFOVERLAP>  (1) 
636.216

>  <PUBCHEM_SHAPE_VOLUME>  (1) 
164.7

>  <PUBCHEM_COORDINATE_TYPE>  (1) 
2
5
10

$$$$
