7640
     RDKit          3D

 16 17  0  0  0  0  0  0  0  0999 V2000
   -5.7887   -0.0017    0.2883 O   0  0  0  0  0  0  0  0  0  0  0  0
    0.2974    0.0009    0.5488 N   0  0  0  0  0  0  0  0  0  0  0  0
   -0.3032    0.0013   -0.5514 N   0  0  0  0  0  0  0  0  0  0  0  0
    5.8330   -0.0016   -0.2900 N   0  0  0  0  0  0  0  0  0  0  0  0
    1.6801    0.0009    0.3391 C   0  0  0  0  0  0  0  0  0  0  0  0
    4.4383   -0.0007   -0.0789 C   0  0  0  0  0  0  0  0  0  0  0  0
   -1.6926    0.0010   -0.3401 C   0  0  0  0  0  0  0  0  0  0  0  0
    2.3703    1.2085    0.2349 C   0  0  0  0  0  0  0  0  0  0  0  0
    2.3689   -1.2075    0.2343 C   0  0  0  0  0  0  0  0  0  0  0  0
    3.7494    1.2077    0.0258 C   0  0  0  0  0  0  0  0  0  0  0  0
    3.7480   -1.2084    0.0254 C   0  0  0  0  0  0  0  0  0  0  0  0
   -2.3758    1.2085   -0.2356 C   0  0  0  0  0  0  0  0  0  0  0  0
   -2.3743   -1.2075   -0.2352 C   0  0  0  0  0  0  0  0  0  0  0  0
   -4.4432   -0.0007    0.0821 C   0  0  0  0  0  0  0  0  0  0  0  0
   -3.7545    1.2077   -0.0239 C   0  0  0  0  0  0  0  0  0  0  0  0
   -3.7531   -1.2084   -0.0235 C   0  0  0  0  0  0  0  0  0  0  0  0
  1 14  1  0
  2  3  2  0
  2  5  1  0
  3  7  1  0
  4  6  1  0
  5  8  2  0
  5  9  1  0
  6 10  2  0
  6 11  1  0
  7 12  2  0
  7 13  1  0
  8 10  1  0
  9 11  2  0
 12 15  1  0
 13 16  2  0
 14 15  2  0
 14 16  1  0
M  END
>  <PUBCHEM_COMPOUND_CID>  (1) 
7640

>  <PUBCHEM_CONFORMER_RMSD>  (1) 
0.6

>  <PUBCHEM_CONFORMER_DIVERSEORDER>  (1) 
1
2

>  <PUBCHEM_MMFF94_PARTIAL_CHARGES>  (1) 
27
1 -0.53
10 -0.15
11 -0.15
12 -0.15
13 -0.15
14 0.08
15 -0.15
16 -0.15
17 0.15
18 0.15
19 0.15
2 -0.18
20 0.15
21 0.15
22 0.15
23 0.15
24 0.15
25 0.4
26 0.4
27 0.45
3 -0.18
4 -0.9
5 0.18
6 0.1
7 0.18
8 -0.15
9 -0.15

>  <PUBCHEM_EFFECTIVE_ROTOR_COUNT>  (1) 
2

>  <PUBCHEM_PHARMACOPHORE_FEATURES>  (1) 
5
1 1 donor
1 4 cation
1 4 donor
6 5 6 8 9 10 11 rings
6 7 12 13 14 15 16 rings

>  <PUBCHEM_HEAVY_ATOM_COUNT>  (1) 
16

>  <PUBCHEM_ATOM_DEF_STEREO_COUNT>  (1) 
0

>  <PUBCHEM_ATOM_UDEF_STEREO_COUNT>  (1) 
0

>  <PUBCHEM_BOND_DEF_STEREO_COUNT>  (1) 
0

>  <PUBCHEM_BOND_UDEF_STEREO_COUNT>  (1) 
0

>  <PUBCHEM_ISOTOPIC_ATOM_COUNT>  (1) 
0

>  <PUBCHEM_COMPONENT_COUNT>  (1) 
1

>  <PUBCHEM_CACTVS_TAUTO_COUNT>  (1) 
5

>  <PUBCHEM_CONFORMER_ID>  (1) 
00001DD800000001

>  <PUBCHEM_MMFF94_ENERGY>  (1) 
52.8156

>  <PUBCHEM_FEATURE_SELFOVERLAP>  (1) 
25.371

>  <PUBCHEM_SHAPE_FINGERPRINT>  (1) 
10616163 171 18340767143040441983
12107183 9 17690561883820779851
128620 24 15647051560005137579
13081056 2 18411134753372678120
13167823 11 18410571790423520166
13533116 47 13110692600901933644
13760787 19 18342173379693890486
14123238 8 18335420162127505718
14341114 176 18410580590848225089
15242433 33 18411418410150473230
17834072 33 18411135857078656790
18186145 218 18114172038824766250
200 152 18202845452349575731
20645477 70 18341895126475674718
21267235 1 18410863161004575491
21652331 79 18409165519552355309
2297311 6 18343029877882495701
23402539 116 18409724079848395990
23402655 69 18410854343853474236
23557571 272 18409170974039515340
23559900 14 18340199786428858881
300161 21 18410565189063723183
3545911 37 18410856559639828556
42 15 18409449184798447407
4214541 1 18411136913862378401
42788 4 18410856559639809060
474 4 17459475618457536076
4990 188 18271813415046265814
5104073 3 18410571790433726338
522135 26 18413107251826724610
542803 24 17167864162055260860
58051976 100 18343299309718154511
77779 3 18410855460128161796
9709674 26 18411142445580328351

>  <PUBCHEM_SHAPE_MULTIPOLES>  (1) 
308.46
12.19
1.37
0.66
0.17
0
0
0
-0.03
-0.01
0
0
0
0

>  <PUBCHEM_SHAPE_SELFOVERLAP>  (1) 
665.536

>  <PUBCHEM_SHAPE_VOLUME>  (1) 
169.7

>  <PUBCHEM_COORDINATE_TYPE>  (1) 
2
5
10

$$$$
