7644
     RDKit          3D

 12 12  0  0  0  0  0  0  0  0999 V2000
    3.4449    0.8500    0.2024 O   0  0  0  0  0  0  0  0  0  0  0  0
    2.9744   -1.3598   -0.2800 O   0  0  0  0  0  0  0  0  0  0  0  0
   -1.2034   -0.2512   -0.0618 C   0  0  0  0  0  0  0  0  0  0  0  0
   -1.6034    1.0776   -0.2029 C   0  0  0  0  0  0  0  0  0  0  0  0
   -2.1565   -1.2480    0.1473 C   0  0  0  0  0  0  0  0  0  0  0  0
    0.2075   -0.5975   -0.1328 C   0  0  0  0  0  0  0  0  0  0  0  0
   -2.9565    1.4096   -0.1346 C   0  0  0  0  0  0  0  0  0  0  0  0
   -3.5096   -0.9161    0.2153 C   0  0  0  0  0  0  0  0  0  0  0  0
   -3.9097    0.4127    0.0743 C   0  0  0  0  0  0  0  0  0  0  0  0
    1.2326    0.2637    0.0519 C   0  0  0  0  0  0  0  0  0  0  0  0
    2.6312   -0.2139   -0.0357 C   0  0  0  0  0  0  0  0  0  0  0  0
    4.8486    0.5730    0.1566 C   0  0  0  0  0  0  0  0  0  0  0  0
  1 11  1  0
  1 12  1  0
  2 11  2  0
  3  4  2  0
  3  5  1  0
  3  6  1  0
  4  7  1  0
  5  8  2  0
  6 10  2  0
  7  9  2  0
  8  9  1  0
 10 11  1  0
M  END
>  <PUBCHEM_COMPOUND_CID>  (1) 
7644

>  <PUBCHEM_CONFORMER_RMSD>  (1) 
0.6

>  <PUBCHEM_CONFORMER_DIVERSEORDER>  (1) 
1
3
2

>  <PUBCHEM_MMFF94_PARTIAL_CHARGES>  (1) 
19
1 -0.43
10 -0.14
11 0.71
12 0.28
13 0.15
14 0.15
15 0.15
16 0.15
17 0.15
18 0.15
19 0.15
2 -0.57
3 0.03
4 -0.15
5 -0.15
6 -0.18
7 -0.15
8 -0.15
9 -0.15

>  <PUBCHEM_EFFECTIVE_ROTOR_COUNT>  (1) 
3

>  <PUBCHEM_PHARMACOPHORE_FEATURES>  (1) 
2
1 2 acceptor
6 3 4 5 7 8 9 rings

>  <PUBCHEM_HEAVY_ATOM_COUNT>  (1) 
12

>  <PUBCHEM_ATOM_DEF_STEREO_COUNT>  (1) 
0

>  <PUBCHEM_ATOM_UDEF_STEREO_COUNT>  (1) 
0

>  <PUBCHEM_BOND_DEF_STEREO_COUNT>  (1) 
0

>  <PUBCHEM_BOND_UDEF_STEREO_COUNT>  (1) 
1

>  <PUBCHEM_ISOTOPIC_ATOM_COUNT>  (1) 
0

>  <PUBCHEM_COMPONENT_COUNT>  (1) 
1

>  <PUBCHEM_CACTVS_TAUTO_COUNT>  (1) 
1

>  <PUBCHEM_CONFORMER_ID>  (1) 
00001DDC00000001

>  <PUBCHEM_MMFF94_ENERGY>  (1) 
30.955

>  <PUBCHEM_FEATURE_SELFOVERLAP>  (1) 
10.148

>  <PUBCHEM_SHAPE_FINGERPRINT>  (1) 
10014705 185 18187641393156114653
10608611 8 18411697647401717437
11132069 177 18260267434457526893
12932764 1 17346587591133260590
13024252 1 15140962851263321101
13214271 11 18412261753170521709
13897977 58 18335425698319569700
14144814 61 18334294240788115699
14325111 11 18410855434358371031
15219456 202 18271530805575898167
18186145 218 18271252620744362198
190213 19 17603307046317178543
20279233 1 18341618113579256558
20510252 161 18341614776690406673
20645477 56 18335702719816114453
20645477 70 17917151589800264118
20871998 184 18271250525238691639
22485316 2 18410571781859848914
23402539 116 18410284848660219879
23559900 14 18340765932412961066
3248919 1 17022913349563992842
42 15 18041275491951152698
449060 50 18410857676674346924
5104073 3 18409730625394425482
77779 3 18410857650925525110
9709674 26 18410580595275658854

>  <PUBCHEM_SHAPE_MULTIPOLES>  (1) 
235.22
8.61
1.34
0.62
6.98
0.01
0
-1.17
-0.55
-0.59
0.03
-0.03
0
0.3

>  <PUBCHEM_SHAPE_SELFOVERLAP>  (1) 
482.983

>  <PUBCHEM_SHAPE_VOLUME>  (1) 
136.1

>  <PUBCHEM_COORDINATE_TYPE>  (1) 
2
5
10

$$$$
