7648
     RDKit          3D

 14 15  0  0  0  0  0  0  0  0999 V2000
    0.5900    1.7185    0.7849 S   0  0  0  0  0  0  0  0  0  0  0  0
   -0.5805    1.6515   -0.8955 S   0  0  0  0  0  0  0  0  0  0  0  0
    4.0039   -1.0382   -0.2551 O   0  0  0  0  0  0  0  0  0  0  0  0
   -4.0097   -1.0128    0.3204 O   0  0  0  0  0  0  0  0  0  0  0  0
    1.6796    0.5302    0.3468 N   0  0  0  0  0  0  0  0  0  0  0  0
   -1.6767    0.5013   -0.3789 N   0  0  0  0  0  0  0  0  0  0  0  0
    2.4682    0.7300   -0.8824 C   0  0  0  0  0  0  0  0  0  0  0  0
    2.5411   -0.0376    1.3989 C   0  0  0  0  0  0  0  0  0  0  0  0
   -2.4728    0.7928    0.8267 C   0  0  0  0  0  0  0  0  0  0  0  0
   -2.5330   -0.1400   -1.3925 C   0  0  0  0  0  0  0  0  0  0  0  0
    3.1649   -0.5597   -1.3039 C   0  0  0  0  0  0  0  0  0  0  0  0
    3.2352   -1.3068    0.9153 C   0  0  0  0  0  0  0  0  0  0  0  0
   -3.1762   -0.4607    1.3370 C   0  0  0  0  0  0  0  0  0  0  0  0
   -3.2340   -1.3685   -0.8219 C   0  0  0  0  0  0  0  0  0  0  0  0
  1  2  1  0
  1  5  1  0
  2  6  1  0
  3 11  1  0
  3 12  1  0
  4 13  1  0
  4 14  1  0
  5  7  1  0
  5  8  1  0
  6  9  1  0
  6 10  1  0
  7 11  1  0
  8 12  1  0
  9 13  1  0
 10 14  1  0
M  END
>  <PUBCHEM_COMPOUND_CID>  (1) 
7648

>  <PUBCHEM_CONFORMER_RMSD>  (1) 
0.6

>  <PUBCHEM_CONFORMER_DIVERSEORDER>  (1) 
1
49
16
53
52
37
55
25
4
17
29
56
42
20
23
43
61
7
35
47
19
32
59
62
30
50
15
46
48
8
45
21
64
54
10
27
11
33
63
26
22
2
28
18
51
12
34
38
6
40
24
60
57
13
14
39
41
36
58
31
9
44
5
3

>  <PUBCHEM_MMFF94_PARTIAL_CHARGES>  (1) 
14
1 0.02
10 0.27
11 0.28
12 0.28
13 0.28
14 0.28
2 0.02
3 -0.56
4 -0.56
5 -0.56
6 -0.56
7 0.27
8 0.27
9 0.27

>  <PUBCHEM_EFFECTIVE_ROTOR_COUNT>  (1) 
5.4

>  <PUBCHEM_PHARMACOPHORE_FEATURES>  (1) 
4
1 3 acceptor
1 4 acceptor
6 3 5 7 8 11 12 rings
6 4 6 9 10 13 14 rings

>  <PUBCHEM_HEAVY_ATOM_COUNT>  (1) 
14

>  <PUBCHEM_ATOM_DEF_STEREO_COUNT>  (1) 
0

>  <PUBCHEM_ATOM_UDEF_STEREO_COUNT>  (1) 
0

>  <PUBCHEM_BOND_DEF_STEREO_COUNT>  (1) 
0

>  <PUBCHEM_BOND_UDEF_STEREO_COUNT>  (1) 
0

>  <PUBCHEM_ISOTOPIC_ATOM_COUNT>  (1) 
0

>  <PUBCHEM_COMPONENT_COUNT>  (1) 
1

>  <PUBCHEM_CACTVS_TAUTO_COUNT>  (1) 
1

>  <PUBCHEM_CONFORMER_ID>  (1) 
00001DE000000001

>  <PUBCHEM_MMFF94_ENERGY>  (1) 
11.8307

>  <PUBCHEM_FEATURE_SELFOVERLAP>  (1) 
20.297

>  <PUBCHEM_SHAPE_FINGERPRINT>  (1) 
10498660 4 11891329863676479135
10618630 7 18411135827119497556
10799339 124 15913333476463702287
11127187 94 17022896852953103771
11137873 295 18113611288174162381
11543360 7 15719398351423650494
12006461 19 18202568396962894711
12251169 10 15913609471056946445
12346177 29 17917141720123497541
12596599 1 18131353033259088579
13296908 3 18410284817893964892
13705890 14 17167863058749786556
14123260 362 8502370048752477623
15239191 94 18410577287992072147
15276787 5 15769782329257731636
15375462 189 18341898510672098184
18186145 218 14201400456370296036
18522851 12 18410304609097704270
18522851 268 16225769622570555375
18915474 69 17895199913018258762
19422 9 18410023129826286165
19766037 51 17967255320928161745
20281407 28 18409725149300722036
20361792 2 18408600379081178181
20442098 301 17632292423330136543
20645477 70 18266443473017450981
20671657 53 17603584114858027276
20767249 442 8790887380174676234
20767249 462 9367344842607010506
20871999 31 15430039898444275523
21065199 12 15913327996069731795
21713013 43 16732989738443285611
21731516 1 18410008840470085877
22169311 14 16056885710306876905
22485316 2 18409729560226899244
22646028 28 18410289215934999851
23402539 116 17458347395226223364
23402655 69 15430316880621476350
23557571 272 16951105366019523092
328317 168 9583518681704684083
4028521 119 12251897101245340095
5262128 65 16081376219593202966
528716 315 14418137331183437093
94968 8 18187367678752446698
9882013 296 16414902166904365984

>  <PUBCHEM_SHAPE_MULTIPOLES>  (1) 
274.11
7.67
1.65
1.53
0.04
0.31
0
-4.24
-0.15
0.01
0.01
-0.02
-0.05
-0.2

>  <PUBCHEM_SHAPE_SELFOVERLAP>  (1) 
517.745

>  <PUBCHEM_SHAPE_VOLUME>  (1) 
172

>  <PUBCHEM_COORDINATE_TYPE>  (1) 
2
5
10

$$$$
