7653
     RDKit          3D

 22 23  0  0  0  0  0  0  0  0999 V2000
    0.3807   -2.0535   -0.3034 O   0  0  0  0  0  0  0  0  0  0  0  0
   -2.0557   -0.2827    0.6437 O   0  0  0  0  0  0  0  0  0  0  0  0
   -1.0196   -2.5169   -2.0774 O   0  0  0  0  0  0  0  0  0  0  0  0
   -4.0410   -1.4313    0.8895 O   0  0  0  0  0  0  0  0  0  0  0  0
   -1.4959   -3.3830    0.1479 C   0  0  0  0  0  0  0  0  0  0  0  0
   -1.9078   -2.5169    1.3362 C   0  0  0  0  0  0  0  0  0  0  0  0
    1.2290   -1.2945   -1.1710 C   0  0  0  0  0  0  0  0  0  0  0  0
   -2.7798    0.8842    0.2404 C   0  0  0  0  0  0  0  0  0  0  0  0
    2.3801   -0.7501   -0.3773 C   0  0  0  0  0  0  0  0  0  0  0  0
   -1.8066    1.9891   -0.0485 C   0  0  0  0  0  0  0  0  0  0  0  0
   -0.7162   -2.6128   -0.8961 C   0  0  0  0  0  0  0  0  0  0  0  0
   -2.8201   -1.3757    0.9407 C   0  0  0  0  0  0  0  0  0  0  0  0
    2.2683    0.4946    0.2324 C   0  0  0  0  0  0  0  0  0  0  0  0
   -1.4242    2.8538    0.9710 C   0  0  0  0  0  0  0  0  0  0  0  0
    3.5479   -1.4952   -0.2580 C   0  0  0  0  0  0  0  0  0  0  0  0
   -1.2955    2.1380   -1.3331 C   0  0  0  0  0  0  0  0  0  0  0  0
    3.3381    1.0008    0.9705 C   0  0  0  0  0  0  0  0  0  0  0  0
   -0.5194    3.8808    0.7026 C   0  0  0  0  0  0  0  0  0  0  0  0
    4.6178   -0.9890    0.4803 C   0  0  0  0  0  0  0  0  0  0  0  0
   -0.3904    3.1650   -1.6013 C   0  0  0  0  0  0  0  0  0  0  0  0
    4.5127    0.2591    1.0945 C   0  0  0  0  0  0  0  0  0  0  0  0
   -0.0024    4.0364   -0.5835 C   0  0  0  0  0  0  0  0  0  0  0  0
  1  7  1  0
  1 11  1  0
  2  8  1  0
  2 12  1  0
  3 11  2  0
  4 12  2  0
  5  6  1  0
  5 11  1  0
  6 12  1  0
  7  9  1  0
  8 10  1  0
  9 13  2  0
  9 15  1  0
 10 14  2  0
 10 16  1  0
 13 17  1  0
 14 18  1  0
 15 19  2  0
 16 20  2  0
 17 21  2  0
 18 22  2  0
 19 21  1  0
 20 22  1  0
M  END
>  <PUBCHEM_COMPOUND_CID>  (1) 
7653

>  <PUBCHEM_CONFORMER_RMSD>  (1) 
1

>  <PUBCHEM_CONFORMER_DIVERSEORDER>  (1) 
1
13
63
176
20
57
97
132
180
14
137
215
207
10
219
2
172
241
238
28
148
140
11
181
50
110
159
141
206
7
168
5
3
195
128
100
202
17
139
149
12
88
47
118
92
209
34
216
8
80
91
90
71
213
16
27
69
197
200
194
19
186
26
230
33
169
218
31
247
203
211
126
175
64
55
182
111
234
191
122
251
89
37
217
167
98
53
131
243
52
129
43
62
81
51
192
178
136
4
75
153
44
253
228
18
130
134
135
22
161
56
99
24
224
82
96
196
54
244
94
173
177
123
25
133
233
160
65
249
107
214
248
147
235
77
151
162
117
152
68
49
255
183
184
226
121
93
179
236
36
73
239
9
112
61
6
114
164
124
125
189
45
205
78
166
155
15
127
138
142
199
29
59
23
32
144
185
105
30
21
250
83
231
66
120
74
188
67
58
106
158
38
174
242
60
221
240
170
171
103
104
212
252
101
225
227
119
46
223
95
157
48
76
84
254
79
86
87
198
246
237
256
35
113
146
193
232
201
143
116
72
204
109
156
220
154
115
222
165
41
85
187
102
245
145
150
39
42
70
257
229
190
40
208
108
163
210

>  <PUBCHEM_MMFF94_PARTIAL_CHARGES>  (1) 
32
1 -0.43
10 -0.14
11 0.66
12 0.66
13 -0.15
14 -0.15
15 -0.15
16 -0.15
17 -0.15
18 -0.15
19 -0.15
2 -0.43
20 -0.15
21 -0.15
22 -0.15
3 -0.57
31 0.15
32 0.15
33 0.15
34 0.15
35 0.15
36 0.15
37 0.15
38 0.15
39 0.15
4 -0.57
40 0.15
5 0.06
6 0.06
7 0.42
8 0.42
9 -0.14

>  <PUBCHEM_EFFECTIVE_ROTOR_COUNT>  (1) 
9

>  <PUBCHEM_PHARMACOPHORE_FEATURES>  (1) 
4
1 3 acceptor
1 4 acceptor
6 10 14 16 18 20 22 rings
6 9 13 15 17 19 21 rings

>  <PUBCHEM_HEAVY_ATOM_COUNT>  (1) 
22

>  <PUBCHEM_ATOM_DEF_STEREO_COUNT>  (1) 
0

>  <PUBCHEM_ATOM_UDEF_STEREO_COUNT>  (1) 
0

>  <PUBCHEM_BOND_DEF_STEREO_COUNT>  (1) 
0

>  <PUBCHEM_BOND_UDEF_STEREO_COUNT>  (1) 
0

>  <PUBCHEM_ISOTOPIC_ATOM_COUNT>  (1) 
0

>  <PUBCHEM_COMPONENT_COUNT>  (1) 
1

>  <PUBCHEM_CACTVS_TAUTO_COUNT>  (1) 
1

>  <PUBCHEM_CONFORMER_ID>  (1) 
00001DE500000001

>  <PUBCHEM_MMFF94_ENERGY>  (1) 
43.2012

>  <PUBCHEM_FEATURE_SELFOVERLAP>  (1) 
20.298

>  <PUBCHEM_SHAPE_FINGERPRINT>  (1) 
10006869 2 18121213187363006195
10165383 225 17112448539882235884
11221954 11 17836648522057466583
11370993 70 17978785710379908416
11595378 159 18189031210529490328
12156800 1 12488133036955400267
13402501 40 18342174414817776328
19930381 70 17113259936593366177
20600515 1 18261406563085044439
238 59 17473801949792631965
3187 122 18334584524958989465
35225 105 17898822726442981968
3524813 1 18202283610635107538
5282940 2 17400081271345109124
57091435 65 17616824665570621400
81228 2 18339063991144056974
90316 7 18408609187958933987
9862522 239 18200016344987450482

>  <PUBCHEM_SHAPE_MULTIPOLES>  (1) 
429.27
6.49
5.43
1.45
7.84
2.12
-0.39
-1.16
2.57
-4.46
-0.59
-0.33
-0.1
1.12

>  <PUBCHEM_SHAPE_SELFOVERLAP>  (1) 
898.322

>  <PUBCHEM_SHAPE_VOLUME>  (1) 
241.3

>  <PUBCHEM_COORDINATE_TYPE>  (1) 
2
5
10

$$$$
