7659
     RDKit          3D

 19 20  0  0  0  0  0  0  0  0999 V2000
    1.0836   -1.2680    0.4606 O   0  0  0  0  0  0  0  0  0  0  0  0
   -0.1614   -2.7912   -0.7507 O   0  0  0  0  0  0  0  0  0  0  0  0
    3.4281   -1.4377    1.0303 C   0  0  0  0  0  0  0  0  0  0  0  0
    3.7823   -0.0980    0.4317 C   0  0  0  0  0  0  0  0  0  0  0  0
    2.2456   -2.0932    0.3256 C   0  0  0  0  0  0  0  0  0  0  0  0
    4.6999   -0.0385   -0.6053 C   0  0  0  0  0  0  0  0  0  0  0  0
    3.1833    1.0485    0.9295 C   0  0  0  0  0  0  0  0  0  0  0  0
    5.0271    1.1993   -1.1588 C   0  0  0  0  0  0  0  0  0  0  0  0
    3.5105    2.2863    0.3758 C   0  0  0  0  0  0  0  0  0  0  0  0
    4.4324    2.3617   -0.6683 C   0  0  0  0  0  0  0  0  0  0  0  0
   -3.5171   -0.1196   -0.1747 C   0  0  0  0  0  0  0  0  0  0  0  0
   -0.0449   -1.7469   -0.1294 C   0  0  0  0  0  0  0  0  0  0  0  0
   -2.3729   -0.9988   -0.3571 C   0  0  0  0  0  0  0  0  0  0  0  0
   -1.1274   -0.7665    0.1137 C   0  0  0  0  0  0  0  0  0  0  0  0
   -3.3204    1.2234    0.1474 C   0  0  0  0  0  0  0  0  0  0  0  0
   -4.8112   -0.6190   -0.3218 C   0  0  0  0  0  0  0  0  0  0  0  0
   -4.4176    2.0666    0.3226 C   0  0  0  0  0  0  0  0  0  0  0  0
   -5.9083    0.2243   -0.1467 C   0  0  0  0  0  0  0  0  0  0  0  0
   -5.7115    1.5672    0.1755 C   0  0  0  0  0  0  0  0  0  0  0  0
  1  5  1  0
  1 12  1  0
  2 12  2  0
  3  4  1  0
  3  5  1  0
  4  6  2  0
  4  7  1  0
  6  8  1  0
  7  9  2  0
  8 10  2  0
  9 10  1  0
 11 13  1  0
 11 15  2  0
 11 16  1  0
 12 14  1  0
 13 14  2  0
 15 17  1  0
 16 18  2  0
 17 19  2  0
 18 19  1  0
M  END
>  <PUBCHEM_COMPOUND_CID>  (1) 
7659

>  <PUBCHEM_CONFORMER_RMSD>  (1) 
0.8

>  <PUBCHEM_CONFORMER_DIVERSEORDER>  (1) 
1
50
37
45
26
41
55
53
6
29
59
22
5
48
30
28
35
4
56
47
15
39
57
13
51
12
25
60
27
11
2
33
8
24
40
52
19
34
23
42
21
10
9
61
18
16
46
20
14
43
32
17
36
31
7
44
54
38
3
58
49

>  <PUBCHEM_MMFF94_PARTIAL_CHARGES>  (1) 
31
1 -0.43
10 -0.15
11 0.03
12 0.71
13 -0.18
14 -0.14
15 -0.15
16 -0.15
17 -0.15
18 -0.15
19 -0.15
2 -0.57
24 0.15
25 0.15
26 0.15
27 0.15
28 0.15
29 0.15
3 0.14
30 0.15
31 0.15
32 0.15
33 0.15
34 0.15
35 0.15
4 -0.14
5 0.28
6 -0.15
7 -0.15
8 -0.15
9 -0.15

>  <PUBCHEM_EFFECTIVE_ROTOR_COUNT>  (1) 
6

>  <PUBCHEM_PHARMACOPHORE_FEATURES>  (1) 
3
1 2 acceptor
6 11 15 16 17 18 19 rings
6 4 6 7 8 9 10 rings

>  <PUBCHEM_HEAVY_ATOM_COUNT>  (1) 
19

>  <PUBCHEM_ATOM_DEF_STEREO_COUNT>  (1) 
0

>  <PUBCHEM_ATOM_UDEF_STEREO_COUNT>  (1) 
0

>  <PUBCHEM_BOND_DEF_STEREO_COUNT>  (1) 
0

>  <PUBCHEM_BOND_UDEF_STEREO_COUNT>  (1) 
1

>  <PUBCHEM_ISOTOPIC_ATOM_COUNT>  (1) 
0

>  <PUBCHEM_COMPONENT_COUNT>  (1) 
1

>  <PUBCHEM_CACTVS_TAUTO_COUNT>  (1) 
1

>  <PUBCHEM_CONFORMER_ID>  (1) 
00001DEB00000001

>  <PUBCHEM_MMFF94_ENERGY>  (1) 
48.1148

>  <PUBCHEM_FEATURE_SELFOVERLAP>  (1) 
15.223

>  <PUBCHEM_SHAPE_FINGERPRINT>  (1) 
10378564 45 17988932137214914734
10670039 82 18271251525675946916
12596602 18 13912331169952588412
12633257 1 15502936453982001276
13785724 45 17833827167069424986
13878862 14 17970883631874328397
14251764 75 18265063603015550036
14347332 77 8646478614837887889
14429114 114 18412822508138309289
14528608 73 18413105074098886125
1454969 45 18272083947011276599
14774955 27 18335135405853868375
14840074 17 18040439910179718949
14848178 5 9511466597556084120
15142526 21 17968376865759259250
15210252 30 18261958561136572724
15342168 16 18408602565277437359
15961568 22 18259707778654747677
1768 23 17773056176049303545
17810953 82 18409449159139822652
17834072 32 18411701001829158863
17844677 252 18340774719837005459
17868525 174 17608914405590393234
17959699 21 18412262818106191747
20567600 9 18410865326095529676
20626108 58 10591770853013144630
212847 35 18409445886806954554
21315764 119 16415209939886878205
22061861 79 12607403269796315089
22224240 67 9078819772582555902
23272321 79 18409167714813146607
23559900 14 17914609467319546815
245318 6 17823715241621357332
2637199 183 18410295817853550386
270888 7 18189336947729554404
3472631 163 18413110588567888878
34797466 226 18060145336350623543
38570 142 18041574619565112534
474 4 18334012782980854771
5104073 3 17967811669258718354
54446538 1 18410289203049935609
633830 44 18408880715775952574
7808743 9 18265894842574723328
8988823 20 12685095920724100662
960060 61 12535343536664148778

>  <PUBCHEM_SHAPE_MULTIPOLES>  (1) 
379.27
14.82
2.76
0.91
9.41
0
-0.01
-8.66
-1.29
-1.55
-0.07
-0.87
-0.04
-1.17

>  <PUBCHEM_SHAPE_SELFOVERLAP>  (1) 
800.145

>  <PUBCHEM_SHAPE_VOLUME>  (1) 
211.7

>  <PUBCHEM_COORDINATE_TYPE>  (1) 
2
5
10

$$$$
