7663
     RDKit          3D

 15 15  0  0  0  0  0  0  0  0999 V2000
   -2.0835   -0.0452    0.1111 O   0  0  0  0  0  0  0  0  0  0  0  0
   -3.8032    1.4470    0.4788 O   0  0  0  0  0  0  0  0  0  0  0  0
   -4.2487   -0.7269   -0.5226 C   0  0  0  0  0  0  0  0  0  0  0  0
   -4.7308   -1.6646    0.5777 C   0  0  0  0  0  0  0  0  0  0  0  0
   -5.4274   -0.1289   -1.2865 C   0  0  0  0  0  0  0  0  0  0  0  0
   -3.3854    0.3683    0.0788 C   0  0  0  0  0  0  0  0  0  0  0  0
   -1.1533    0.8895    0.6676 C   0  0  0  0  0  0  0  0  0  0  0  0
    2.6149    0.3008   -0.0694 C   0  0  0  0  0  0  0  0  0  0  0  0
    0.2143    0.2868    0.6284 C   0  0  0  0  0  0  0  0  0  0  0  0
    1.2491    0.8486   -0.0157 C   0  0  0  0  0  0  0  0  0  0  0  0
    2.8193   -1.0429    0.2020 C   0  0  0  0  0  0  0  0  0  0  0  0
    3.6710    1.1390   -0.3903 C   0  0  0  0  0  0  0  0  0  0  0  0
    4.1131   -1.5616    0.1513 C   0  0  0  0  0  0  0  0  0  0  0  0
    4.9648    0.6202   -0.4411 C   0  0  0  0  0  0  0  0  0  0  0  0
    5.1858   -0.7301   -0.1703 C   0  0  0  0  0  0  0  0  0  0  0  0
  1  6  1  0
  1  7  1  0
  2  6  2  0
  3  4  1  0
  3  5  1  0
  3  6  1  0
  7  9  1  0
  8 10  1  0
  8 11  2  0
  8 12  1  0
  9 10  2  0
 11 13  1  0
 12 14  2  0
 13 15  2  0
 14 15  1  0
M  END
>  <PUBCHEM_COMPOUND_CID>  (1) 
7663

>  <PUBCHEM_CONFORMER_RMSD>  (1) 
0.6

>  <PUBCHEM_CONFORMER_DIVERSEORDER>  (1) 
1
95
105
56
39
112
96
77
84
109
80
113
38
22
55
114
67
92
17
81
107
6
106
104
32
93
40
10
23
115
27
75
111
79
90
11
52
100
41
101
2
34
103
71
54
116
102
94
53
46
91
73
60
78
26
28
70
83
98
82
24
58
29
88
97
76
85
65
66
50
59
118
8
57
44
12
13
18
86
68
99
64
108
14
47
20
74
87
61
35
4
72
89
51
45
49
21
110
48
33
7
117
36
30
15
31
16
63
9
62
69
19
37
43
5
3
42
25

>  <PUBCHEM_MMFF94_PARTIAL_CHARGES>  (1) 
20
1 -0.43
10 -0.18
11 -0.15
12 -0.15
13 -0.15
14 -0.15
15 -0.15
2 -0.57
25 0.15
26 0.15
27 0.15
28 0.15
29 0.15
3 0.06
30 0.15
31 0.15
6 0.66
7 0.42
8 0.03
9 -0.29

>  <PUBCHEM_EFFECTIVE_ROTOR_COUNT>  (1) 
5

>  <PUBCHEM_PHARMACOPHORE_FEATURES>  (1) 
3
1 2 acceptor
3 3 4 5 hydrophobe
6 8 11 12 13 14 15 rings

>  <PUBCHEM_HEAVY_ATOM_COUNT>  (1) 
15

>  <PUBCHEM_ATOM_DEF_STEREO_COUNT>  (1) 
0

>  <PUBCHEM_ATOM_UDEF_STEREO_COUNT>  (1) 
0

>  <PUBCHEM_BOND_DEF_STEREO_COUNT>  (1) 
0

>  <PUBCHEM_BOND_UDEF_STEREO_COUNT>  (1) 
1

>  <PUBCHEM_ISOTOPIC_ATOM_COUNT>  (1) 
0

>  <PUBCHEM_COMPONENT_COUNT>  (1) 
1

>  <PUBCHEM_CACTVS_TAUTO_COUNT>  (1) 
1

>  <PUBCHEM_CONFORMER_ID>  (1) 
00001DEF00000001

>  <PUBCHEM_MMFF94_ENERGY>  (1) 
28.757

>  <PUBCHEM_FEATURE_SELFOVERLAP>  (1) 
15.223

>  <PUBCHEM_SHAPE_FINGERPRINT>  (1) 
100836 57 12612751294174293877
10447042 23 18412537709119713662
10680689 15 17022906748652842161
10912923 1 18272938202155834176
11089746 13 14273736300212356396
11287383 113 17895195544846302858
114248 4 17967814972104009115
12107183 9 17619352004652729296
12236239 1 18202003205685319860
12596602 18 13973962121157975239
13167823 11 18412545405289670646
13675066 3 12103570800957207777
14123238 8 18343302573919419580
14251718 22 18040717008288913363
14252887 29 15482678961604951020
14576447 43 18411982455874215570
17834072 33 18411982481327501828
18186145 218 17095245821371870889
18222031 100 16988840596447101721
200 152 18342741810109737296
20645477 56 7997973479541703793
20645477 70 18334860485493474226
22485316 2 18411982442477701768
22646028 1 18273495667230133857
23402539 116 18409166584588167709
23402655 69 18040713641018833061
23559900 14 18338509858764139673
2871803 45 18187363199518392234
29717793 49 18272088275256415060
3004659 81 18335419041647697002
314194 84 18202563998884949399
3268164 11 16226038990424732359
351380 3 17918273173143375319
4214541 1 18411139104322190129
465052 167 17917996113123974286
5104073 3 18343865498060937456
573450 72 18130787798303587561
57483677 66 18411699897990902295
5924683 9 10807634719752129837
602551 16 15913035560673962702
7495541 125 17774999115889578328
77779 3 18410014320916803960

>  <PUBCHEM_SHAPE_MULTIPOLES>  (1) 
296.95
14.07
1.46
0.86
5.08
0.32
-0.1
3.31
-3
-0.1
0.17
0.74
-0.02
-0.25

>  <PUBCHEM_SHAPE_SELFOVERLAP>  (1) 
599.919

>  <PUBCHEM_SHAPE_VOLUME>  (1) 
174.2

>  <PUBCHEM_COORDINATE_TYPE>  (1) 
2
5
10

$$$$
