7666
     RDKit          3D

  9  9  0  0  0  0  0  0  0  0999 V2000
    4.2261   -0.0184   -0.1422 Br  0  0  0  0  0  0  0  0  0  0  0  0
    1.4774    0.0140    0.6446 C   0  0  0  0  0  0  0  0  0  0  0  0
    0.0214    0.0055    0.3214 C   0  0  0  0  0  0  0  0  0  0  0  0
   -0.6660    1.2097    0.1684 C   0  0  0  0  0  0  0  0  0  0  0  0
   -0.6529   -1.2064    0.1716 C   0  0  0  0  0  0  0  0  0  0  0  0
    2.3381    0.0173   -0.6147 C   0  0  0  0  0  0  0  0  0  0  0  0
   -2.0276    1.2021   -0.1342 C   0  0  0  0  0  0  0  0  0  0  0  0
   -2.0146   -1.2139   -0.1310 C   0  0  0  0  0  0  0  0  0  0  0  0
   -2.7019   -0.0097   -0.2839 C   0  0  0  0  0  0  0  0  0  0  0  0
  1  6  1  0
  2  3  1  0
  2  6  1  0
  3  4  2  0
  3  5  1  0
  4  7  1  0
  5  8  2  0
  7  9  2  0
  8  9  1  0
M  END
>  <PUBCHEM_COMPOUND_CID>  (1) 
7666

>  <PUBCHEM_CONFORMER_RMSD>  (1) 
0.4

>  <PUBCHEM_CONFORMER_DIVERSEORDER>  (1) 
1
2
3
4
5

>  <PUBCHEM_MMFF94_PARTIAL_CHARGES>  (1) 
14
1 -0.23
12 0.15
13 0.15
16 0.15
17 0.15
18 0.15
2 0.14
3 -0.14
4 -0.15
5 -0.15
6 0.23
7 -0.15
8 -0.15
9 -0.15

>  <PUBCHEM_EFFECTIVE_ROTOR_COUNT>  (1) 
2

>  <PUBCHEM_PHARMACOPHORE_FEATURES>  (1) 
2
1 1 hydrophobe
6 3 4 5 7 8 9 rings

>  <PUBCHEM_HEAVY_ATOM_COUNT>  (1) 
9

>  <PUBCHEM_ATOM_DEF_STEREO_COUNT>  (1) 
0

>  <PUBCHEM_ATOM_UDEF_STEREO_COUNT>  (1) 
0

>  <PUBCHEM_BOND_DEF_STEREO_COUNT>  (1) 
0

>  <PUBCHEM_BOND_UDEF_STEREO_COUNT>  (1) 
0

>  <PUBCHEM_ISOTOPIC_ATOM_COUNT>  (1) 
0

>  <PUBCHEM_COMPONENT_COUNT>  (1) 
1

>  <PUBCHEM_CACTVS_TAUTO_COUNT>  (1) 
1

>  <PUBCHEM_CONFORMER_ID>  (1) 
00001DF200000001

>  <PUBCHEM_MMFF94_ENERGY>  (1) 
18.006

>  <PUBCHEM_FEATURE_SELFOVERLAP>  (1) 
10.148

>  <PUBCHEM_SHAPE_FINGERPRINT>  (1) 
11062470 55 16271929302806226714
12716758 59 18411415120310824850
12897270 3 18411982472668904518
12932764 1 18408601461686892680
13024252 1 17603308163214338923
14325111 11 18409730630127085802
15775835 57 17968376749695070836
20201158 50 17917714591271829766
20645464 45 17989486329165594746
21040471 1 18267010662135254593
21061003 4 16917354761719989778
21293036 1 18408880746103681725
23402539 116 18341603811190286276
23552423 10 18188488106844567362
23559900 14 18272086055691966778
2748010 2 18049708917897794067
29004967 10 16415760838109072058
369184 2 18411699889374360146
6333449 129 18343018891266241180

>  <PUBCHEM_SHAPE_MULTIPOLES>  (1) 
191.16
5.68
1.26
0.75
6.45
0.01
0
0.03
0.84
-0.86
-0.01
0.18
0
0

>  <PUBCHEM_SHAPE_SELFOVERLAP>  (1) 
371.329

>  <PUBCHEM_SHAPE_VOLUME>  (1) 
116.9

>  <PUBCHEM_COORDINATE_TYPE>  (1) 
2
5
10

$$$$
