7686
     RDKit          3D

 15 15  0  0  0  0  0  0  0  0999 V2000
   -2.5032   -1.6075    0.0005 O   0  0  0  0  0  0  0  0  0  0  0  0
    4.6817    0.8399    0.0000 O   0  0  0  0  0  0  0  0  0  0  0  0
    4.3864   -1.3398   -0.0003 O   0  0  0  0  0  0  0  0  0  0  0  0
   -4.9286   -0.7708    0.0008 O   0  0  0  0  0  0  0  0  0  0  0  0
   -4.2184    1.4010   -0.0018 O   0  0  0  0  0  0  0  0  0  0  0  0
   -1.6177    0.5827    0.0003 N   0  0  0  0  0  0  0  0  0  0  0  0
    3.9366   -0.1690   -0.0004 N   0  0  0  0  0  0  0  0  0  0  0  0
   -0.2352    0.3955    0.0003 C   0  0  0  0  0  0  0  0  0  0  0  0
    0.6181    1.4991    0.0009 C   0  0  0  0  0  0  0  0  0  0  0  0
    0.2940   -0.8951   -0.0004 C   0  0  0  0  0  0  0  0  0  0  0  0
    2.5294    0.0215   -0.0001 C   0  0  0  0  0  0  0  0  0  0  0  0
    2.0003    1.3121    0.0006 C   0  0  0  0  0  0  0  0  0  0  0  0
    1.6762   -1.0821   -0.0004 C   0  0  0  0  0  0  0  0  0  0  0  0
   -2.6127   -0.3922   -0.0001 C   0  0  0  0  0  0  0  0  0  0  0  0
   -4.0070    0.2047    0.0001 C   0  0  0  0  0  0  0  0  0  0  0  0
  1 14  2  0
  2  7  1  0
  3  7  2  0
  4 15  1  0
  5 15  2  0
  6  8  1  0
  6 14  1  0
  7 11  1  0
  8  9  2  0
  8 10  1  0
  9 12  1  0
 10 13  2  0
 11 12  2  0
 11 13  1  0
 14 15  1  0
M  CHG  2   2  -1   7   1
M  END
>  <PUBCHEM_COMPOUND_CID>  (1) 
7686

>  <PUBCHEM_CONFORMER_RMSD>  (1) 
0.6

>  <PUBCHEM_CONFORMER_DIVERSEORDER>  (1) 
1
2

>  <PUBCHEM_MMFF94_PARTIAL_CHARGES>  (1) 
21
1 -0.57
10 -0.15
11 0.13
12 -0.15
13 -0.15
14 0.63
15 0.72
16 0.15
17 0.15
18 0.15
19 0.15
2 -0.52
20 0.37
21 0.5
3 -0.52
4 -0.65
5 -0.57
6 -0.55
7 0.91
8 0.12
9 -0.15

>  <PUBCHEM_EFFECTIVE_ROTOR_COUNT>  (1) 
4

>  <PUBCHEM_PHARMACOPHORE_FEATURES>  (1) 
9
1 1 acceptor
1 2 acceptor
1 2 anion
1 3 acceptor
1 4 acceptor
1 5 acceptor
1 6 donor
3 4 5 15 anion
6 8 9 10 11 12 13 rings

>  <PUBCHEM_HEAVY_ATOM_COUNT>  (1) 
15

>  <PUBCHEM_ATOM_DEF_STEREO_COUNT>  (1) 
0

>  <PUBCHEM_ATOM_UDEF_STEREO_COUNT>  (1) 
0

>  <PUBCHEM_BOND_DEF_STEREO_COUNT>  (1) 
0

>  <PUBCHEM_BOND_UDEF_STEREO_COUNT>  (1) 
0

>  <PUBCHEM_ISOTOPIC_ATOM_COUNT>  (1) 
0

>  <PUBCHEM_COMPONENT_COUNT>  (1) 
1

>  <PUBCHEM_CACTVS_TAUTO_COUNT>  (1) 
2

>  <PUBCHEM_CONFORMER_ID>  (1) 
00001E0600000001

>  <PUBCHEM_MMFF94_ENERGY>  (1) 
41.2422

>  <PUBCHEM_FEATURE_SELFOVERLAP>  (1) 
45.821

>  <PUBCHEM_SHAPE_FINGERPRINT>  (1) 
11401426 45 18411133649697614112
11471102 20 18410571790697515044
11806522 49 18411136956584996700
12032990 46 18411421687621742894
12932764 1 17023168457789032449
13675066 3 18343580771751693928
13690532 89 18410856546971256482
13922767 16 18272367589885836968
14252887 29 17988652873793128270
15196674 1 18410573972308792743
15242433 33 18409168818208285134
15375358 24 18343584023073819407
17834072 33 18201997771992540885
18186145 218 17531240686155962981
18522853 276 18342739623918752961
200 152 18131348618280088889
20645477 70 18341614780948658502
21267235 1 18410582798894094291
221490 88 18119254101785480283
22485316 2 18410854369491376690
23402539 116 18131345298629351261
23402655 69 18341325609606571389
23559900 14 18411981365232038882
42 15 18410577288382241377
4214541 1 18410573977078650113
42788 4 18410575084668360164
5104073 3 18410856559676726809
77779 3 18409731780898824245
8809292 202 18260270788832441851

>  <PUBCHEM_SHAPE_MULTIPOLES>  (1) 
269.38
9.3
1.49
0.57
2.39
0.05
0
-0.61
0
-0.11
0
0
0.01
0

>  <PUBCHEM_SHAPE_SELFOVERLAP>  (1) 
567.383

>  <PUBCHEM_SHAPE_VOLUME>  (1) 
150.4

>  <PUBCHEM_COORDINATE_TYPE>  (1) 
2
5
10

$$$$
