7687
     RDKit          3D

 14 14  0  0  1  0  0  0  0  0999 V2000
   -2.7544   -2.5117    0.2684 O   0  0  0  0  0  0  0  0  0  0  0  0
   -2.3171    0.9398   -0.3842 C   0  0  0  0  0  0  0  0  0  0  0  0
   -0.8446    0.6198   -0.1780 C   0  0  0  0  0  0  0  0  0  0  0  0
    3.2717   -0.2755    0.3973 C   0  0  0  0  0  0  0  0  0  0  0  0
    1.8280    0.0391    0.1954 C   0  0  0  0  0  0  0  0  0  0  0  0
   -3.2561   -0.1308    0.1985 C   0  0  0  0  0  0  0  0  0  0  0  0
   -0.3629    0.4878    1.1090 C   0  0  0  0  0  0  0  0  0  0  0  0
   -0.0325    0.4706   -1.2843 C   0  0  0  0  0  0  0  0  0  0  0  0
   -2.6536    2.3117    0.2120 C   0  0  0  0  0  0  0  0  0  0  0  0
    0.9875    0.1945    1.2976 C   0  0  0  0  0  0  0  0  0  0  0  0
    1.3180    0.1772   -1.0955 C   0  0  0  0  0  0  0  0  0  0  0  0
    4.1971    0.8277   -0.1502 C   0  0  0  0  0  0  0  0  0  0  0  0
    3.6679   -1.6364   -0.2059 C   0  0  0  0  0  0  0  0  0  0  0  0
   -3.0491   -1.5138   -0.3802 C   0  0  0  0  0  0  0  0  0  0  0  0
  1 14  2  0
  2  3  1  0
  2  6  1  0
  2  9  1  0
  3  7  2  0
  3  8  1  0
  4  5  1  0
  4 12  1  0
  4 13  1  0
  5 10  2  0
  5 11  1  0
  6 14  1  0
  7 10  1  0
  8 11  2  0
M  END
>  <PUBCHEM_COMPOUND_CID>  (1) 
7687

>  <PUBCHEM_CONFORMER_RMSD>  (1) 
0.6

>  <PUBCHEM_CONFORMER_DIVERSEORDER>  (1) 
2
22
17
6
16
21
19
31
27
15
5
32
4
12
13
8
7
23
25
24
9
29
3
1
11
20
28
14
30
18
26
10

>  <PUBCHEM_MMFF94_PARTIAL_CHARGES>  (1) 
16
1 -0.57
10 -0.15
11 -0.15
14 0.45
19 0.15
2 0.14
20 0.15
24 0.15
25 0.15
3 -0.14
32 0.06
4 0.14
5 -0.14
6 0.06
7 -0.15
8 -0.15

>  <PUBCHEM_EFFECTIVE_ROTOR_COUNT>  (1) 
4

>  <PUBCHEM_PHARMACOPHORE_FEATURES>  (1) 
4
1 1 acceptor
1 9 hydrophobe
3 4 12 13 hydrophobe
6 3 5 7 8 10 11 rings

>  <PUBCHEM_HEAVY_ATOM_COUNT>  (1) 
14

>  <PUBCHEM_ATOM_DEF_STEREO_COUNT>  (1) 
0

>  <PUBCHEM_ATOM_UDEF_STEREO_COUNT>  (1) 
1

>  <PUBCHEM_BOND_DEF_STEREO_COUNT>  (1) 
0

>  <PUBCHEM_BOND_UDEF_STEREO_COUNT>  (1) 
0

>  <PUBCHEM_ISOTOPIC_ATOM_COUNT>  (1) 
0

>  <PUBCHEM_COMPONENT_COUNT>  (1) 
1

>  <PUBCHEM_CACTVS_TAUTO_COUNT>  (1) 
2

>  <PUBCHEM_CONFORMER_ID>  (1) 
00001E0700000002

>  <PUBCHEM_MMFF94_ENERGY>  (1) 
32.5039

>  <PUBCHEM_FEATURE_SELFOVERLAP>  (1) 
20.297

>  <PUBCHEM_SHAPE_FINGERPRINT>  (1) 
11471102 22 16630530652112982671
11543360 7 18335708264718932068
11769659 78 18409161104383899818
124424 183 17559946636928806313
12500047 106 18267579118031118389
12932764 1 17531522066917901108
13296908 3 18343300336510464156
13760787 19 18341335504910267972
14289901 80 18410012152274856888
15375462 6 18269551800784227848
15653759 3 18060695100263867921
16945 1 17971177149992291636
17834074 16 18412262796642365814
17844478 74 17561083626488732089
18186145 218 17895756188803459692
19026448 4 18342453708330895480
19026448 5 18335701611730246376
19422 9 18408322159953045076
20281407 28 18201437020962284635
20645477 70 16629680622540700036
20871999 31 18335406990106393989
21061003 4 16773801436844287273
21256008 23 16056605395124349610
21339142 149 18113341920362405345
23402539 116 16805595950566260572
23493267 7 17988083270724317024
23557571 272 18201446860764417572
23559900 14 18270957930754850530
2748010 2 15696276764653651672
449060 23 18186798106012520703
568465 68 17059782220764166823
58051976 378 18411698833297793126
633830 44 16226056531097393204

>  <PUBCHEM_SHAPE_MULTIPOLES>  (1) 
282.24
6.91
1.87
1.08
3.33
0.66
0
1.34
0.07
-1.79
-0.05
0.16
-0.12
0

>  <PUBCHEM_SHAPE_SELFOVERLAP>  (1) 
570.029

>  <PUBCHEM_SHAPE_VOLUME>  (1) 
165.6

>  <PUBCHEM_COORDINATE_TYPE>  (1) 
2
5
10

$$$$
