7704
     RDKit          3D

 10 10  0  0  1  0  0  0  0  0999 V2000
   -0.8680   -0.6860    0.0951 O   0  0  0  0  0  0  0  0  0  0  0  0
   -2.9166   -1.6751   -0.2059 O   0  0  0  0  0  0  0  0  0  0  0  0
   -0.4143    0.6412    0.3943 C   0  0  0  0  0  0  0  0  0  0  0  0
    0.9366    0.8822   -0.2522 C   0  0  0  0  0  0  0  0  0  0  0  0
   -1.5040    1.5410   -0.1441 C   0  0  0  0  0  0  0  0  0  0  0  0
    1.9972   -0.0734    0.2938 C   0  0  0  0  0  0  0  0  0  0  0  0
   -2.7473    0.7215    0.1057 C   0  0  0  0  0  0  0  0  0  0  0  0
    3.3486    0.1498   -0.3844 C   0  0  0  0  0  0  0  0  0  0  0  0
   -2.2306   -0.6796   -0.0342 C   0  0  0  0  0  0  0  0  0  0  0  0
    4.3983   -0.8214    0.1318 C   0  0  0  0  0  0  0  0  0  0  0  0
  1  3  1  0
  1  9  1  0
  2  9  2  0
  3  4  1  0
  3  5  1  0
  4  6  1  0
  5  7  1  0
  6  8  1  0
  7  9  1  0
  8 10  1  0
M  END
>  <PUBCHEM_COMPOUND_CID>  (1) 
7704

>  <PUBCHEM_CONFORMER_RMSD>  (1) 
0.6

>  <PUBCHEM_CONFORMER_DIVERSEORDER>  (1) 
1
24
11
21
3
23
5
7
18
2
15
8
22
17
19
12
13
16
9
14
10
20
6
4

>  <PUBCHEM_MMFF94_PARTIAL_CHARGES>  (1) 
5
1 -0.43
2 -0.57
3 0.28
7 0.06
9 0.66

>  <PUBCHEM_EFFECTIVE_ROTOR_COUNT>  (1) 
3.8

>  <PUBCHEM_PHARMACOPHORE_FEATURES>  (1) 
3
1 10 hydrophobe
1 2 acceptor
5 1 3 5 7 9 rings

>  <PUBCHEM_HEAVY_ATOM_COUNT>  (1) 
10

>  <PUBCHEM_ATOM_DEF_STEREO_COUNT>  (1) 
0

>  <PUBCHEM_ATOM_UDEF_STEREO_COUNT>  (1) 
1

>  <PUBCHEM_BOND_DEF_STEREO_COUNT>  (1) 
0

>  <PUBCHEM_BOND_UDEF_STEREO_COUNT>  (1) 
0

>  <PUBCHEM_ISOTOPIC_ATOM_COUNT>  (1) 
0

>  <PUBCHEM_COMPONENT_COUNT>  (1) 
1

>  <PUBCHEM_CACTVS_TAUTO_COUNT>  (1) 
2

>  <PUBCHEM_CONFORMER_ID>  (1) 
00001E1800000001

>  <PUBCHEM_MMFF94_ENERGY>  (1) 
3.3629

>  <PUBCHEM_FEATURE_SELFOVERLAP>  (1) 
15.223

>  <PUBCHEM_SHAPE_FINGERPRINT>  (1) 
12932764 1 17822002091089020984
13024252 1 16370731409325893193
14128692 85 18336549424994007509
14325111 11 18410575080864087712
177051 138 18413671322845828982
18186145 218 15357704093525796692
20201158 50 18202566142263287502
20279233 1 17489307456214695220
20281407 28 18343586243914536410
20645464 45 17703795790588251101
20871998 184 18202567297588430319
21061003 4 16988846098373768896
22485316 2 18409726236591871850
23402539 116 18130498644558717997
23552423 10 18188208822438542069
3248919 1 17561090172419798188
369184 2 14908180841561995917

>  <PUBCHEM_SHAPE_MULTIPOLES>  (1) 
194.06
6.64
1.39
0.65
6.52
0.14
-0.01
2.06
0.19
-1.08
0.08
0.09
-0.03
-0.19

>  <PUBCHEM_SHAPE_SELFOVERLAP>  (1) 
376.326

>  <PUBCHEM_SHAPE_VOLUME>  (1) 
119.7

>  <PUBCHEM_COORDINATE_TYPE>  (1) 
2
5
10

$$$$
