7705
     RDKit          3D

 10 10  0  0  0  0  0  0  0  0999 V2000
    1.9517   -0.0250    0.2168 C   0  0  0  0  0  0  0  0  0  0  0  0
    0.9430   -0.0336   -0.9340 C   0  0  0  0  0  0  0  0  0  0  0  0
    3.3880   -0.0089   -0.3057 C   0  0  0  0  0  0  0  0  0  0  0  0
   -0.4775   -0.0136   -0.4303 C   0  0  0  0  0  0  0  0  0  0  0  0
    4.3948    0.0408    0.8325 C   0  0  0  0  0  0  0  0  0  0  0  0
   -1.1302   -1.2125   -0.1839 C   0  0  0  0  0  0  0  0  0  0  0  0
   -1.1096    1.2032   -0.2207 C   0  0  0  0  0  0  0  0  0  0  0  0
   -2.4447   -1.1943    0.2824 C   0  0  0  0  0  0  0  0  0  0  0  0
   -2.4240    1.2213    0.2457 C   0  0  0  0  0  0  0  0  0  0  0  0
   -3.0916    0.0226    0.4972 C   0  0  0  0  0  0  0  0  0  0  0  0
  1  2  1  0
  1  3  1  0
  2  4  1  0
  3  5  1  0
  4  6  2  0
  4  7  1  0
  6  8  1  0
  7  9  2  0
  8 10  2  0
  9 10  1  0
M  END
>  <PUBCHEM_COMPOUND_CID>  (1) 
7705

>  <PUBCHEM_CONFORMER_RMSD>  (1) 
0.6

>  <PUBCHEM_CONFORMER_DIVERSEORDER>  (1) 
1
4
5
2
3

>  <PUBCHEM_MMFF94_PARTIAL_CHARGES>  (1) 
12
10 -0.15
2 0.14
20 0.15
21 0.15
22 0.15
23 0.15
24 0.15
4 -0.14
6 -0.15
7 -0.15
8 -0.15
9 -0.15

>  <PUBCHEM_EFFECTIVE_ROTOR_COUNT>  (1) 
3

>  <PUBCHEM_PHARMACOPHORE_FEATURES>  (1) 
2
1 5 hydrophobe
6 4 6 7 8 9 10 rings

>  <PUBCHEM_HEAVY_ATOM_COUNT>  (1) 
10

>  <PUBCHEM_ATOM_DEF_STEREO_COUNT>  (1) 
0

>  <PUBCHEM_ATOM_UDEF_STEREO_COUNT>  (1) 
0

>  <PUBCHEM_BOND_DEF_STEREO_COUNT>  (1) 
0

>  <PUBCHEM_BOND_UDEF_STEREO_COUNT>  (1) 
0

>  <PUBCHEM_ISOTOPIC_ATOM_COUNT>  (1) 
0

>  <PUBCHEM_COMPONENT_COUNT>  (1) 
1

>  <PUBCHEM_CACTVS_TAUTO_COUNT>  (1) 
1

>  <PUBCHEM_CONFORMER_ID>  (1) 
00001E1900000001

>  <PUBCHEM_MMFF94_ENERGY>  (1) 
15.1206

>  <PUBCHEM_FEATURE_SELFOVERLAP>  (1) 
10.148

>  <PUBCHEM_SHAPE_FINGERPRINT>  (1) 
10857977 72 18342179989875067905
12251169 10 18409730672929169676
13024252 1 14562529570488215181
14325111 11 18412829053725412086
15219456 202 17916876715987521758
20645464 45 17989211438347407599
20871998 184 18200882880261393175
21119208 17 10664102255252229304
22485316 2 15213017163513718392
23402539 116 18271798030599934261
23403322 49 12613020666255288416
23552423 10 17683259314521451749
369184 2 18413389826130394783
75552 356 18408888455385355031

>  <PUBCHEM_SHAPE_MULTIPOLES>  (1) 
205.8
6.58
1.2
0.85
7.07
0.01
-0.02
0.07
1.98
-1.04
0.02
0.3
0
0.03

>  <PUBCHEM_SHAPE_SELFOVERLAP>  (1) 
409.121

>  <PUBCHEM_SHAPE_VOLUME>  (1) 
118.8

>  <PUBCHEM_COORDINATE_TYPE>  (1) 
2
5
10

$$$$
