7706
     RDKit          3D

 10 10  0  0  0  0  0  0  0  0999 V2000
    4.1033    0.9015    0.3164 Cl  0  0  0  0  0  0  0  0  0  0  0  0
    1.0618   -0.2305    0.5811 C   0  0  0  0  0  0  0  0  0  0  0  0
    1.9351   -0.4688   -0.6664 C   0  0  0  0  0  0  0  0  0  0  0  0
   -0.3941   -0.0786    0.2951 C   0  0  0  0  0  0  0  0  0  0  0  0
    3.4339   -0.5840   -0.3953 C   0  0  0  0  0  0  0  0  0  0  0  0
   -0.9261    1.1849    0.0374 C   0  0  0  0  0  0  0  0  0  0  0  0
   -1.2238   -1.2000    0.2851 C   0  0  0  0  0  0  0  0  0  0  0  0
   -2.2876    1.3272   -0.2303 C   0  0  0  0  0  0  0  0  0  0  0  0
   -2.5854   -1.0576    0.0173 C   0  0  0  0  0  0  0  0  0  0  0  0
   -3.1172    0.2060   -0.2404 C   0  0  0  0  0  0  0  0  0  0  0  0
  1  5  1  0
  2  3  1  0
  2  4  1  0
  3  5  1  0
  4  6  2  0
  4  7  1  0
  6  8  1  0
  7  9  2  0
  8 10  2  0
  9 10  1  0
M  END
>  <PUBCHEM_COMPOUND_CID>  (1) 
7706

>  <PUBCHEM_CONFORMER_RMSD>  (1) 
0.6

>  <PUBCHEM_CONFORMER_DIVERSEORDER>  (1) 
1
6
9
4
8
3
2
7
5

>  <PUBCHEM_MMFF94_PARTIAL_CHARGES>  (1) 
14
1 -0.29
10 -0.15
17 0.15
18 0.15
19 0.15
2 0.14
20 0.15
21 0.15
4 -0.14
5 0.29
6 -0.15
7 -0.15
8 -0.15
9 -0.15

>  <PUBCHEM_EFFECTIVE_ROTOR_COUNT>  (1) 
3

>  <PUBCHEM_PHARMACOPHORE_FEATURES>  (1) 
1
6 4 6 7 8 9 10 rings

>  <PUBCHEM_HEAVY_ATOM_COUNT>  (1) 
10

>  <PUBCHEM_ATOM_DEF_STEREO_COUNT>  (1) 
0

>  <PUBCHEM_ATOM_UDEF_STEREO_COUNT>  (1) 
0

>  <PUBCHEM_BOND_DEF_STEREO_COUNT>  (1) 
0

>  <PUBCHEM_BOND_UDEF_STEREO_COUNT>  (1) 
0

>  <PUBCHEM_ISOTOPIC_ATOM_COUNT>  (1) 
0

>  <PUBCHEM_COMPONENT_COUNT>  (1) 
1

>  <PUBCHEM_CACTVS_TAUTO_COUNT>  (1) 
1

>  <PUBCHEM_CONFORMER_ID>  (1) 
00001E1A00000001

>  <PUBCHEM_MMFF94_ENERGY>  (1) 
18.0248

>  <PUBCHEM_FEATURE_SELFOVERLAP>  (1) 
5.074

>  <PUBCHEM_SHAPE_FINGERPRINT>  (1) 
10608611 8 18413386523432796232
11062470 55 18272933825525935502
12162725 195 18187650236578062588
12716758 59 18409169878759336658
12897270 3 18411703166534763718
12932764 1 18188779348951468554
13024252 1 17458068162095762619
14325111 11 18410293584248945326
14390081 3 18335702715336251464
15775835 57 17895475821500920052
18186145 218 18342183215616994828
20201158 50 18131071511032118638
20645477 56 18336267842732902213
20871998 184 18271531995630284655
21293036 1 18410007732742693231
22213442 358 18270678808655125549
23402539 116 18336817662865564502
23552423 10 18187366588010088479
23559900 14 18341610366143991746
3248919 1 17489592208283243906
6333449 129 18411980264844743701
7364860 26 18192988228076540194

>  <PUBCHEM_SHAPE_MULTIPOLES>  (1) 
207.67
6.48
1.34
0.75
5.56
0.16
-0.01
0.78
-0.38
-0.5
0
0.18
-0.03
0.38

>  <PUBCHEM_SHAPE_SELFOVERLAP>  (1) 
405.756

>  <PUBCHEM_SHAPE_VOLUME>  (1) 
122.6

>  <PUBCHEM_COORDINATE_TYPE>  (1) 
2
5
10

$$$$
