7714
     RDKit          3D

 13 13  0  0  1  0  0  0  0  0999 V2000
    2.4435   -0.7161   -0.0661 O   0  0  0  0  0  0  0  0  0  0  0  0
    4.3965   -1.8746    0.2643 O   0  0  0  0  0  0  0  0  0  0  0  0
    2.1090    0.6387   -0.3970 C   0  0  0  0  0  0  0  0  0  0  0  0
    0.7837    1.0127    0.2392 C   0  0  0  0  0  0  0  0  0  0  0  0
   -0.3682    0.1944   -0.3441 C   0  0  0  0  0  0  0  0  0  0  0  0
    3.2730    1.4511    0.1242 C   0  0  0  0  0  0  0  0  0  0  0  0
   -1.6983    0.5505    0.3241 C   0  0  0  0  0  0  0  0  0  0  0  0
    4.4396    0.5198   -0.1026 C   0  0  0  0  0  0  0  0  0  0  0  0
   -2.8549   -0.2425   -0.2883 C   0  0  0  0  0  0  0  0  0  0  0  0
   -4.2223    0.1265    0.2944 C   0  0  0  0  0  0  0  0  0  0  0  0
    3.8012   -0.8267    0.0675 C   0  0  0  0  0  0  0  0  0  0  0  0
   -5.3854   -0.6125   -0.3686 C   0  0  0  0  0  0  0  0  0  0  0  0
   -6.7174   -0.2212    0.2530 C   0  0  0  0  0  0  0  0  0  0  0  0
  1  3  1  0
  1 11  1  0
  2 11  2  0
  3  4  1  0
  3  6  1  0
  4  5  1  0
  5  7  1  0
  6  8  1  0
  7  9  1  0
  8 11  1  0
  9 10  1  0
 10 12  1  0
 12 13  1  0
M  END
>  <PUBCHEM_COMPOUND_CID>  (1) 
7714

>  <PUBCHEM_CONFORMER_RMSD>  (1) 
0.8

>  <PUBCHEM_CONFORMER_DIVERSEORDER>  (1) 
1
100
64
74
8
96
17
56
84
38
93
2
75
12
83
30
46
94
51
6
41
73
5
87
98
15
55
62
24
92
25
90
99
7
21
18
69
60
4
77
23
42
79
27
97
14
95
72
9
40
66
31
88
13
86
20
91
37
29
49
65
3
43
57
39
101
28
85
50
81
45
26
89
33
68
16
52
76
11
78
47
59
10
35
80
44
48
70
34
32
61
67
58
71
54
36
82
53
19
22
63

>  <PUBCHEM_MMFF94_PARTIAL_CHARGES>  (1) 
5
1 -0.43
11 0.66
2 -0.57
3 0.28
8 0.06

>  <PUBCHEM_EFFECTIVE_ROTOR_COUNT>  (1) 
6.8

>  <PUBCHEM_PHARMACOPHORE_FEATURES>  (1) 
5
1 13 hydrophobe
1 2 acceptor
3 4 5 7 hydrophobe
3 9 10 12 hydrophobe
5 1 3 6 8 11 rings

>  <PUBCHEM_HEAVY_ATOM_COUNT>  (1) 
13

>  <PUBCHEM_ATOM_DEF_STEREO_COUNT>  (1) 
0

>  <PUBCHEM_ATOM_UDEF_STEREO_COUNT>  (1) 
1

>  <PUBCHEM_BOND_DEF_STEREO_COUNT>  (1) 
0

>  <PUBCHEM_BOND_UDEF_STEREO_COUNT>  (1) 
0

>  <PUBCHEM_ISOTOPIC_ATOM_COUNT>  (1) 
0

>  <PUBCHEM_COMPONENT_COUNT>  (1) 
1

>  <PUBCHEM_CACTVS_TAUTO_COUNT>  (1) 
2

>  <PUBCHEM_CONFORMER_ID>  (1) 
00001E2200000001

>  <PUBCHEM_MMFF94_ENERGY>  (1) 
2.9833

>  <PUBCHEM_FEATURE_SELFOVERLAP>  (1) 
25.384

>  <PUBCHEM_SHAPE_FINGERPRINT>  (1) 
10912923 1 17917998299805568737
11287383 113 17676490596465854049
11858739 19 18411980230896585647
13167823 11 18412823607891769919
13533116 47 18342175548705083666
13690532 89 18411136931136952781
14123238 8 17989208161751623261
1420 363 17312825987760580065
14251718 22 8934995967751032865
14455015 7 18186809080191818051
15242433 33 18411982494064756223
15242439 84 17240483619979033881
15477762 27 18334296453324085548
17834072 33 18343300396734997341
17834076 25 18341614840703394204
200 152 18342737412469433913
20645477 70 18336264561583596838
20767249 213 9583517616769059259
21267235 1 18341900654219494646
220451 1 18342463677129227343
22485316 2 18411698820106864469
23402539 116 17846494842843945957
23532345 1 18264210377860699152
23536379 177 18411138031128758617
2871803 45 17894910702631141002
33824 294 18334010584479975058
42 15 18341896285947506749
42788 4 18412263952478769501
465052 167 18342462542667316495
522135 26 18409167723049640380
5374978 207 17275101738788813016
57483677 66 18410854387030175895

>  <PUBCHEM_SHAPE_MULTIPOLES>  (1) 
255.8
14.35
1.26
0.67
18.35
0.24
-0.01
3.33
0.6
-1.84
0.09
0.13
-0.02
-0.3

>  <PUBCHEM_SHAPE_SELFOVERLAP>  (1) 
489.455

>  <PUBCHEM_SHAPE_VOLUME>  (1) 
158.7

>  <PUBCHEM_COORDINATE_TYPE>  (1) 
2
5
10

$$$$
