7727
     RDKit          3D

  9  9  0  0  1  0  0  0  0  0999 V2000
   -1.3068   -1.1525   -0.2486 N   0  0  0  0  0  0  0  0  0  0  0  0
    1.0066   -0.2606   -0.2541 C   0  0  0  0  0  0  0  0  0  0  0  0
    0.4933    1.0833    0.2756 C   0  0  0  0  0  0  0  0  0  0  0  0
   -0.9687    1.2901   -0.1128 C   0  0  0  0  0  0  0  0  0  0  0  0
   -1.8317    0.0965    0.3158 C   0  0  0  0  0  0  0  0  0  0  0  0
    0.0722   -1.4001    0.1758 C   0  0  0  0  0  0  0  0  0  0  0  0
    2.4339   -0.5204    0.2233 C   0  0  0  0  0  0  0  0  0  0  0  0
   -3.2754    0.2856   -0.1465 C   0  0  0  0  0  0  0  0  0  0  0  0
    3.3766    0.5780   -0.2285 C   0  0  0  0  0  0  0  0  0  0  0  0
  1  5  1  0
  1  6  1  0
  2  3  1  0
  2  6  1  0
  2  7  1  0
  3  4  1  0
  4  5  1  0
  5  8  1  0
  7  9  1  0
M  END
>  <PUBCHEM_COMPOUND_CID>  (1) 
7727

>  <PUBCHEM_CONFORMER_RMSD>  (1) 
0.4

>  <PUBCHEM_CONFORMER_DIVERSEORDER>  (1) 
2
21
6
11
16
18
1
17
14
7
4
9
15
5
13
10
12
19
3
8
20

>  <PUBCHEM_MMFF94_PARTIAL_CHARGES>  (1) 
4
1 -0.9
18 0.36
5 0.27
6 0.27

>  <PUBCHEM_EFFECTIVE_ROTOR_COUNT>  (1) 
2.2

>  <PUBCHEM_PHARMACOPHORE_FEATURES>  (1) 
4
1 1 cation
1 1 donor
1 9 hydrophobe
6 1 2 3 4 5 6 rings

>  <PUBCHEM_HEAVY_ATOM_COUNT>  (1) 
9

>  <PUBCHEM_ATOM_DEF_STEREO_COUNT>  (1) 
0

>  <PUBCHEM_ATOM_UDEF_STEREO_COUNT>  (1) 
2

>  <PUBCHEM_BOND_DEF_STEREO_COUNT>  (1) 
0

>  <PUBCHEM_BOND_UDEF_STEREO_COUNT>  (1) 
0

>  <PUBCHEM_ISOTOPIC_ATOM_COUNT>  (1) 
0

>  <PUBCHEM_COMPONENT_COUNT>  (1) 
1

>  <PUBCHEM_CACTVS_TAUTO_COUNT>  (1) 
1

>  <PUBCHEM_CONFORMER_ID>  (1) 
00001E2F00000002

>  <PUBCHEM_MMFF94_ENERGY>  (1) 
0.3734

>  <PUBCHEM_FEATURE_SELFOVERLAP>  (1) 
20.297

>  <PUBCHEM_SHAPE_FINGERPRINT>  (1) 
10857977 72 18411130359531093576
11062470 55 17748545930965914421
12897270 3 18411420592167692604
12932764 1 15051443873608175556
14325111 11 18410012104708306984
15310529 11 17022893532431791376
16714656 1 18411700980296066240
16945 1 18342174462009467449
193761 8 17690279734671340057
20871998 184 18129668632889965543
21040471 1 18339924814000810218
21293036 1 18411415124695397949
23235685 24 18411696578002132069
23402655 69 18196072367309907525
23552423 10 18117839030325664244
2748010 2 18123748926657300385
29004967 10 15646772275799137154
369184 2 16153423956723364560
5084963 1 18272088236707100234

>  <PUBCHEM_SHAPE_MULTIPOLES>  (1) 
180.23
4.59
1.36
0.66
0.74
0.09
-0.01
-0.66
0.29
-0.07
-0.02
0.02
-0.01
-0.07

>  <PUBCHEM_SHAPE_SELFOVERLAP>  (1) 
341.376

>  <PUBCHEM_SHAPE_VOLUME>  (1) 
109.4

>  <PUBCHEM_COORDINATE_TYPE>  (1) 
2
5
10

$$$$
