7731
     RDKit          3D

  9  9  0  0  0  0  0  0  0  0999 V2000
    2.3438   -0.4983    0.0000 O   0  0  0  0  0  0  0  0  0  0  0  0
   -1.7601    0.1242    0.0001 C   0  0  0  0  0  0  0  0  0  0  0  0
    0.9981   -0.2942   -0.0004 C   0  0  0  0  0  0  0  0  0  0  0  0
   -0.8893    1.2139   -0.0001 C   0  0  0  0  0  0  0  0  0  0  0  0
   -1.2516   -1.1747    0.0002 C   0  0  0  0  0  0  0  0  0  0  0  0
    0.4898    1.0048   -0.0004 C   0  0  0  0  0  0  0  0  0  0  0  0
    0.1275   -1.3839   -0.0001 C   0  0  0  0  0  0  0  0  0  0  0  0
   -3.2344    0.3476    0.0003 C   0  0  0  0  0  0  0  0  0  0  0  0
    3.1763    0.6605    0.0006 C   0  0  0  0  0  0  0  0  0  0  0  0
  1  3  1  0
  1  9  1  0
  2  4  2  0
  2  5  1  0
  2  8  1  0
  3  6  2  0
  3  7  1  0
  4  6  1  0
  5  7  2  0
M  END
>  <PUBCHEM_COMPOUND_CID>  (1) 
7731

>  <PUBCHEM_CONFORMER_RMSD>  (1) 
0.4

>  <PUBCHEM_CONFORMER_DIVERSEORDER>  (1) 
1

>  <PUBCHEM_MMFF94_PARTIAL_CHARGES>  (1) 
13
1 -0.36
10 0.15
11 0.15
12 0.15
13 0.15
2 -0.14
3 0.08
4 -0.15
5 -0.15
6 -0.15
7 -0.15
8 0.14
9 0.28

>  <PUBCHEM_EFFECTIVE_ROTOR_COUNT>  (1) 
1

>  <PUBCHEM_PHARMACOPHORE_FEATURES>  (1) 
2
1 1 acceptor
6 2 3 4 5 6 7 rings

>  <PUBCHEM_HEAVY_ATOM_COUNT>  (1) 
9

>  <PUBCHEM_ATOM_DEF_STEREO_COUNT>  (1) 
0

>  <PUBCHEM_ATOM_UDEF_STEREO_COUNT>  (1) 
0

>  <PUBCHEM_BOND_DEF_STEREO_COUNT>  (1) 
0

>  <PUBCHEM_BOND_UDEF_STEREO_COUNT>  (1) 
0

>  <PUBCHEM_ISOTOPIC_ATOM_COUNT>  (1) 
0

>  <PUBCHEM_COMPONENT_COUNT>  (1) 
1

>  <PUBCHEM_CACTVS_TAUTO_COUNT>  (1) 
1

>  <PUBCHEM_CONFORMER_ID>  (1) 
00001E3300000001

>  <PUBCHEM_MMFF94_ENERGY>  (1) 
30.1827

>  <PUBCHEM_FEATURE_SELFOVERLAP>  (1) 
10.148

>  <PUBCHEM_SHAPE_FINGERPRINT>  (1) 
10857977 72 18336540615984162313
14325111 11 18410855443016968321
15310529 11 16732973211171500177
16714656 1 18410575084673628454
16945 1 18410575076110080581
193761 8 17545883728616939973
20871998 184 18129387175082581063
21040471 1 18410856538196679555
21293036 1 18410567405625544325
23235685 24 18411132532921734057
23402655 69 18195790896643962469
23552423 10 18044374057140786300
2748010 2 18123187071994425133
29004967 10 18041288685763540921
369184 2 16225760835288870912
5084963 1 18200592497242428784
528886 8 18411414029283539099

>  <PUBCHEM_SHAPE_MULTIPOLES>  (1) 
179.35
4.18
1.36
0.61
0.83
0.16
0
-0.83
0
-0.09
0
-0.02
-0.01
0

>  <PUBCHEM_SHAPE_SELFOVERLAP>  (1) 
366.532

>  <PUBCHEM_SHAPE_VOLUME>  (1) 
105

>  <PUBCHEM_COORDINATE_TYPE>  (1) 
2
5
10

$$$$
