7739
     RDKit          3D

 11 10  0  0  0  0  0  0  0  0999 V2000
   -3.1660   -1.1577   -0.6624 O   0  0  0  0  0  0  0  0  0  0  0  0
    1.8080   -0.0185   -0.1624 N   0  0  0  0  0  0  0  0  0  0  0  0
    0.6145    0.6897    0.2849 C   0  0  0  0  0  0  0  0  0  0  0  0
   -0.6409   -0.0892   -0.1022 C   0  0  0  0  0  0  0  0  0  0  0  0
    1.8792   -1.3464    0.4498 C   0  0  0  0  0  0  0  0  0  0  0  0
    3.0127    0.7511    0.1530 C   0  0  0  0  0  0  0  0  0  0  0  0
   -1.9050    0.6464    0.3388 C   0  0  0  0  0  0  0  0  0  0  0  0
    3.0833   -2.1212   -0.0582 C   0  0  0  0  0  0  0  0  0  0  0  0
    2.9601    2.1344   -0.4732 C   0  0  0  0  0  0  0  0  0  0  0  0
   -3.1746   -0.0813   -0.0674 C   0  0  0  0  0  0  0  0  0  0  0  0
   -4.4713    0.5926    0.2994 C   0  0  0  0  0  0  0  0  0  0  0  0
  1 10  2  0
  2  3  1  0
  2  5  1  0
  2  6  1  0
  3  4  1  0
  4  7  1  0
  5  8  1  0
  6  9  1  0
  7 10  1  0
 10 11  1  0
M  END
>  <PUBCHEM_COMPOUND_CID>  (1) 
7739

>  <PUBCHEM_CONFORMER_RMSD>  (1) 
0.6

>  <PUBCHEM_CONFORMER_DIVERSEORDER>  (1) 
1
129
115
126
113
128
25
71
130
54
124
98
78
29
132
34
111
56
80
37
131
59
123
100
133
79
102
134
82
127
84
35
105
14
27
125
73
74
44
51
63
109
46
49
108
26
97
50
112
99
72
87
104
39
23
107
68
70
118
31
58
32
21
95
55
43
64
17
77
90
36
69
61
116
103
76
30
52
13
38
86
33
92
60
83
93
6
8
24
42
120
45
62
67
47
66
16
41
65
89
106
101
114
3
11
117
110
40
119
75
96
122
18
48
5
88
28
9
121
81
57
53
7
10
91
20
4
2
12
22
85
15
94
19

>  <PUBCHEM_MMFF94_PARTIAL_CHARGES>  (1) 
8
1 -0.57
10 0.45
11 0.06
2 -0.81
3 0.27
5 0.27
6 0.27
7 0.06

>  <PUBCHEM_EFFECTIVE_ROTOR_COUNT>  (1) 
6

>  <PUBCHEM_PHARMACOPHORE_FEATURES>  (1) 
2
1 1 acceptor
1 2 cation

>  <PUBCHEM_HEAVY_ATOM_COUNT>  (1) 
11

>  <PUBCHEM_ATOM_DEF_STEREO_COUNT>  (1) 
0

>  <PUBCHEM_ATOM_UDEF_STEREO_COUNT>  (1) 
0

>  <PUBCHEM_BOND_DEF_STEREO_COUNT>  (1) 
0

>  <PUBCHEM_BOND_UDEF_STEREO_COUNT>  (1) 
0

>  <PUBCHEM_ISOTOPIC_ATOM_COUNT>  (1) 
0

>  <PUBCHEM_COMPONENT_COUNT>  (1) 
1

>  <PUBCHEM_CACTVS_TAUTO_COUNT>  (1) 
3

>  <PUBCHEM_CONFORMER_ID>  (1) 
00001E3B00000001

>  <PUBCHEM_MMFF94_ENERGY>  (1) 
9.6556

>  <PUBCHEM_FEATURE_SELFOVERLAP>  (1) 
10.148

>  <PUBCHEM_SHAPE_FINGERPRINT>  (1) 
12346645 6 18412263930624001606
12932764 1 17458337503552550179
13380535 76 18261953076251488434
14251717 144 18408881845604902714
14325111 11 18411699894006911529
15442244 35 18268150846723807952
15477762 27 18338237059874470234
15669948 3 17703504489095574191
15775835 57 18342741840369563533
170605 34 18186799227236180056
18186145 218 17603302631312292443
19422 9 18343582941095462527
20279233 1 17095241432231415787
20281475 54 18343860035342564383
20645477 70 18410853227104286463
20671657 53 18192997019752983202
20711985 365 18196652900147086681
20871998 22 18125158230577684334
21499 59 18118685650200648332
22485316 2 18342734122471549161
2255824 54 18335423439609955034
23380061 81 18408046199387444345
23402655 69 18411700976070034653
23532345 1 18334579083103829273
23598291 2 18126301756518464064
3248919 1 18259980504845833681
449060 50 18260553363510580101
449060 62 18411423946484786468
581208 293 18408880763315160304
7364860 26 18413108351464894472
81539 233 18114462366103756948

>  <PUBCHEM_SHAPE_MULTIPOLES>  (1) 
215.52
7.76
1.9
0.7
6.39
0.15
0
-0.16
-0.19
-2.61
-0.19
0.05
0
-0.54

>  <PUBCHEM_SHAPE_SELFOVERLAP>  (1) 
392.021

>  <PUBCHEM_SHAPE_VOLUME>  (1) 
139.4

>  <PUBCHEM_COORDINATE_TYPE>  (1) 
2
5
10

$$$$
