775
     RDKit          3D

 10 10  0  0  1  0  0  0  0  0999 V2000
    3.1145    1.3419    0.2279 O   0  0  0  0  0  0  0  0  0  0  0  0
   -1.6427    0.6862   -0.8935 N   0  0  0  0  0  0  0  0  0  0  0  0
    2.7246   -1.3045   -0.1630 N   0  0  0  0  0  0  0  0  0  0  0  0
   -2.8370   -0.1334    0.7900 N   0  0  0  0  0  0  0  0  0  0  0  0
    0.4623   -0.6436   -0.8355 C   0  0  0  0  0  0  0  0  0  0  0  0
    1.5502   -0.5328    0.2411 C   0  0  0  0  0  0  0  0  0  0  0  0
   -0.9128   -0.2844   -0.3178 C   0  0  0  0  0  0  0  0  0  0  0  0
   -1.6323   -0.7853    0.7049 C   0  0  0  0  0  0  0  0  0  0  0  0
    1.9843    0.9094    0.4322 C   0  0  0  0  0  0  0  0  0  0  0  0
   -2.8112    0.7465   -0.1862 C   0  0  0  0  0  0  0  0  0  0  0  0
  1  9  2  0
  2  7  1  0
  2 10  1  0
  3  6  1  0
  4  8  1  0
  4 10  2  0
  5  6  1  0
  5  7  1  0
  6  9  1  0
  7  8  2  0
M  END
>  <PUBCHEM_COMPOUND_CID>  (1) 
775

>  <PUBCHEM_CONFORMER_RMSD>  (1) 
0.6

>  <PUBCHEM_CONFORMER_DIVERSEORDER>  (1) 
6
12
22
23
7
10
2
25
15
17
19
4
16
5
21
8
18
11
1
24
3
9
20
13
14

>  <PUBCHEM_MMFF94_PARTIAL_CHARGES>  (1) 
16
1 -0.57
10 0.04
14 0.27
15 0.15
16 0.36
17 0.36
18 0.06
19 0.15
2 0.03
3 -0.99
4 -0.57
5 0.18
6 0.33
7 -0.33
8 0.08
9 0.45

>  <PUBCHEM_EFFECTIVE_ROTOR_COUNT>  (1) 
3

>  <PUBCHEM_PHARMACOPHORE_FEATURES>  (1) 
6
1 1 acceptor
1 2 donor
1 3 cation
1 3 donor
3 2 4 10 cation
5 2 4 7 8 10 rings

>  <PUBCHEM_HEAVY_ATOM_COUNT>  (1) 
10

>  <PUBCHEM_ATOM_DEF_STEREO_COUNT>  (1) 
0

>  <PUBCHEM_ATOM_UDEF_STEREO_COUNT>  (1) 
1

>  <PUBCHEM_BOND_DEF_STEREO_COUNT>  (1) 
0

>  <PUBCHEM_BOND_UDEF_STEREO_COUNT>  (1) 
0

>  <PUBCHEM_ISOTOPIC_ATOM_COUNT>  (1) 
0

>  <PUBCHEM_COMPONENT_COUNT>  (1) 
1

>  <PUBCHEM_CACTVS_TAUTO_COUNT>  (1) 
8

>  <PUBCHEM_CONFORMER_ID>  (1) 
0000030700000006

>  <PUBCHEM_MMFF94_ENERGY>  (1) 
5.7739

>  <PUBCHEM_FEATURE_SELFOVERLAP>  (1) 
30.446

>  <PUBCHEM_SHAPE_FINGERPRINT>  (1) 
10857977 72 17530971301797014161
12932741 1 18187362099537305215
12932764 1 18260831470837376287
14325111 11 18413387644139380295
14390081 3 18412823598927191417
15775835 57 17846214500905157944
19973954 147 18409449154718215756
20645464 45 18186795885435034650
20653085 51 17915745280126342553
20715346 28 18113899351224620799
3248919 1 17060339600044603295
369184 2 18409164407355934875
5084963 1 17895204250824269559
8030462 33 15051737464745741655

>  <PUBCHEM_SHAPE_MULTIPOLES>  (1) 
184.98
4.88
1.22
0.88
0.67
0.09
-0.03
1.01
0.64
0.76
0.02
-0.28
-0.04
0.45

>  <PUBCHEM_SHAPE_SELFOVERLAP>  (1) 
375.271

>  <PUBCHEM_SHAPE_VOLUME>  (1) 
109.8

>  <PUBCHEM_COORDINATE_TYPE>  (1) 
2
5
10

$$$$
