7750
     RDKit          3D

  7  6  0  0  0  0  0  0  0  0999 V2000
   -0.6853    0.6682   -0.2352 O   0  0  0  0  0  0  0  0  0  0  0  0
    0.4647   -1.3456   -0.0600 O   0  0  0  0  0  0  0  0  0  0  0  0
    1.6378    0.7794    0.0278 C   0  0  0  0  0  0  0  0  0  0  0  0
    2.9230   -0.0073    0.2178 C   0  0  0  0  0  0  0  0  0  0  0  0
    0.4293   -0.1225   -0.0939 C   0  0  0  0  0  0  0  0  0  0  0  0
   -1.8677   -0.0373   -0.3471 C   0  0  0  0  0  0  0  0  0  0  0  0
   -2.9018    0.0651    0.4905 C   0  0  0  0  0  0  0  0  0  0  0  0
  1  5  1  0
  1  6  1  0
  2  5  2  0
  3  4  1  0
  3  5  1  0
  6  7  2  0
M  END
>  <PUBCHEM_COMPOUND_CID>  (1) 
7750

>  <PUBCHEM_CONFORMER_RMSD>  (1) 
0.4

>  <PUBCHEM_CONFORMER_DIVERSEORDER>  (1) 
1
32
33
8
28
39
38
26
31
14
36
7
19
16
2
23
20
17
18
25
10
9
37
13
27
29
12
5
21
35
15
3
11
6
4
24
22
34
30

>  <PUBCHEM_MMFF94_PARTIAL_CHARGES>  (1) 
9
1 -0.23
13 0.15
14 0.15
15 0.15
2 -0.57
3 0.06
5 0.66
6 -0.07
7 -0.3

>  <PUBCHEM_EFFECTIVE_ROTOR_COUNT>  (1) 
3

>  <PUBCHEM_PHARMACOPHORE_FEATURES>  (1) 
2
1 2 acceptor
1 4 hydrophobe

>  <PUBCHEM_HEAVY_ATOM_COUNT>  (1) 
7

>  <PUBCHEM_ATOM_DEF_STEREO_COUNT>  (1) 
0

>  <PUBCHEM_ATOM_UDEF_STEREO_COUNT>  (1) 
0

>  <PUBCHEM_BOND_DEF_STEREO_COUNT>  (1) 
0

>  <PUBCHEM_BOND_UDEF_STEREO_COUNT>  (1) 
0

>  <PUBCHEM_ISOTOPIC_ATOM_COUNT>  (1) 
0

>  <PUBCHEM_COMPONENT_COUNT>  (1) 
1

>  <PUBCHEM_CACTVS_TAUTO_COUNT>  (1) 
1

>  <PUBCHEM_CONFORMER_ID>  (1) 
00001E4600000001

>  <PUBCHEM_MMFF94_ENERGY>  (1) 
10.358

>  <PUBCHEM_FEATURE_SELFOVERLAP>  (1) 
10.148

>  <PUBCHEM_SHAPE_FINGERPRINT>  (1) 
10857977 72 18114178683149872281
11062470 55 11891329859222866383
14325111 11 18411699915255024576
14390081 3 17418373588714288985
16714656 1 18335980947544049492
20096714 4 18341045311012952252
21040471 1 18339923830637876822
29004967 10 18187652388050599241
5460574 1 9799694804780927428

>  <PUBCHEM_SHAPE_MULTIPOLES>  (1) 
132.32
4.29
0.94
0.66
0.35
0.17
0.02
-0.3
0.69
-0.2
-0.02
0.12
-0.02
-0.01

>  <PUBCHEM_SHAPE_SELFOVERLAP>  (1) 
240.779

>  <PUBCHEM_SHAPE_VOLUME>  (1) 
84.9

>  <PUBCHEM_COORDINATE_TYPE>  (1) 
2
5
10

$$$$
