7760
     RDKit          3D

 20 19  0  0  1  0  0  0  0  0999 V2000
    2.7874   -0.6611    0.8359 O   0  0  0  0  0  0  0  0  0  0  0  0
   -2.7859   -0.6628   -0.8363 O   0  0  0  0  0  0  0  0  0  0  0  0
    2.1412   -0.6616   -1.3823 O   0  0  0  0  0  0  0  0  0  0  0  0
   -2.1413   -0.6599    1.3823 O   0  0  0  0  0  0  0  0  0  0  0  0
    6.0796    1.0293   -0.0479 C   0  0  0  0  0  0  0  0  0  0  0  0
   -6.0794    1.0298    0.0475 C   0  0  0  0  0  0  0  0  0  0  0  0
    4.5948    0.7989    0.2858 C   0  0  0  0  0  0  0  0  0  0  0  0
   -4.5949    0.7984   -0.2867 C   0  0  0  0  0  0  0  0  0  0  0  0
    4.1631   -0.6635    0.4489 C   0  0  0  0  0  0  0  0  0  0  0  0
   -4.1636   -0.6643   -0.4477 C   0  0  0  0  0  0  0  0  0  0  0  0
    6.4925    0.3621   -1.3600 C   0  0  0  0  0  0  0  0  0  0  0  0
    6.3658    2.5320   -0.1197 C   0  0  0  0  0  0  0  0  0  0  0  0
   -6.4917    0.3648    1.3610 C   0  0  0  0  0  0  0  0  0  0  0  0
   -6.3652    2.5326    0.1170 C   0  0  0  0  0  0  0  0  0  0  0  0
    4.9609   -1.4154    1.5056 C   0  0  0  0  0  0  0  0  0  0  0  0
   -4.9623   -1.4177   -1.5028 C   0  0  0  0  0  0  0  0  0  0  0  0
    1.8898   -0.6603   -0.1877 C   0  0  0  0  0  0  0  0  0  0  0  0
   -1.8902   -0.6607    0.1876 C   0  0  0  0  0  0  0  0  0  0  0  0
    0.5333   -0.6599    0.4033 C   0  0  0  0  0  0  0  0  0  0  0  0
   -0.5339   -0.6607   -0.4038 C   0  0  0  0  0  0  0  0  0  0  0  0
  1  9  1  0
  1 17  1  0
  2 10  1  0
  2 18  1  0
  3 17  2  0
  4 18  2  0
  5  7  1  0
  5 11  1  0
  5 12  1  0
  6  8  1  0
  6 13  1  0
  6 14  1  0
  7  9  1  0
  8 10  1  0
  9 15  1  0
 10 16  1  0
 17 19  1  0
 18 20  1  0
 19 20  2  0
M  END
>  <PUBCHEM_COMPOUND_CID>  (1) 
7760

>  <PUBCHEM_CONFORMER_RMSD>  (1) 
1

>  <PUBCHEM_CONFORMER_DIVERSEORDER>  (1) 
1
26
2
12
77
61
15
74
47
35
72
59
10
22
54
33
24
3
51
71
69
73
44
60
32
76
43
5
48
28
68
6
75
52
58
11
31
45
38
18
41
66
49
19
34
36
30
79
83
81
62
20
39
7
80
64
14
25
23
50
21
42
46
53
65
82
67
55
57
8
4
63
70
37
29
40
27
16
78
56
13
17
9

>  <PUBCHEM_MMFF94_PARTIAL_CHARGES>  (1) 
12
1 -0.43
10 0.28
17 0.71
18 0.71
19 -0.14
2 -0.43
20 -0.14
3 -0.57
4 -0.57
47 0.15
48 0.15
9 0.28

>  <PUBCHEM_EFFECTIVE_ROTOR_COUNT>  (1) 
10

>  <PUBCHEM_PHARMACOPHORE_FEATURES>  (1) 
4
1 3 acceptor
1 4 acceptor
3 5 11 12 hydrophobe
3 6 13 14 hydrophobe

>  <PUBCHEM_HEAVY_ATOM_COUNT>  (1) 
20

>  <PUBCHEM_ATOM_DEF_STEREO_COUNT>  (1) 
0

>  <PUBCHEM_ATOM_UDEF_STEREO_COUNT>  (1) 
0

>  <PUBCHEM_BOND_DEF_STEREO_COUNT>  (1) 
0

>  <PUBCHEM_BOND_UDEF_STEREO_COUNT>  (1) 
1

>  <PUBCHEM_ISOTOPIC_ATOM_COUNT>  (1) 
0

>  <PUBCHEM_COMPONENT_COUNT>  (1) 
1

>  <PUBCHEM_CACTVS_TAUTO_COUNT>  (1) 
1

>  <PUBCHEM_CONFORMER_ID>  (1) 
00001E5000000001

>  <PUBCHEM_MMFF94_ENERGY>  (1) 
31.2987

>  <PUBCHEM_FEATURE_SELFOVERLAP>  (1) 
20.298

>  <PUBCHEM_SHAPE_FINGERPRINT>  (1) 
10087517 78 18335698321933517229
10554248 39 18128803175430911742
10638233 991 18410007783987382365
10912923 1 18335969922432053195
11646440 116 16008749100133770772
117890 112 18410291402083740608
12236239 1 18411976975100560390
12596602 18 17894351055861213137
12670543 26 15841556262275443366
13167372 99 18409445847783276096
13533116 47 17895187758740930970
13668630 136 10952052247032931933
13885169 127 9078848363683894987
13955234 65 17459174219533767378
14251757 52 18342737438424120384
14251764 18 18113620101547345591
14528608 73 18271803570981099718
14933364 13 18410577283686360448
15048467 5 18410572885640050724
15183329 4 17917991668254971809
15188451 53 11097861804629339369
15716309 27 12035448346144854913
18222031 100 10735867362144400171
190975 80 14996291352420241660
20281389 69 18261391122646245917
20526848 3 18410577287981801965
20567600 247 10519995850532797740
20621476 66 18341333310472370441
21130935 74 17530966852311623595
220451 1 18410571790429041774
2215653 11 14692574334054298468
22224240 67 17022624153074640235
23035841 295 9295282855593089885
23081809 10 18410001143931038887
23402539 116 18342164558411163823
23559900 14 15625928876737132715
29717793 49 12823295702198898010
328310 630 18335983151052599061
3663271 9 17968095309352230371
445580 37 17632583742841589489
465052 167 10809345529473612336
5104073 3 17458340866548938618
531348 171 11095894744141505313
542803 24 18411132541358908718
59682541 35 17967545579951932329
59682541 52 15267350600337244444
59755656 215 14908188538270043324
7062679 6 18342738486169274249

>  <PUBCHEM_SHAPE_MULTIPOLES>  (1) 
388.11
21.32
1.89
1.28
0.01
1.34
0
11.7
0
0
0
0
-0.43
-1.69

>  <PUBCHEM_SHAPE_SELFOVERLAP>  (1) 
741.517

>  <PUBCHEM_SHAPE_VOLUME>  (1) 
238.8

>  <PUBCHEM_COORDINATE_TYPE>  (1) 
2
5
10

$$$$
