7769
     RDKit          3D

 14 13  0  0  0  0  0  0  0  0999 V2000
   -2.7912   -0.4035   -0.4671 O   0  0  0  0  0  0  0  0  0  0  0  0
    2.7913    0.4027   -0.4679 O   0  0  0  0  0  0  0  0  0  0  0  0
   -0.5864   -0.4340   -0.4657 O   0  0  0  0  0  0  0  0  0  0  0  0
    0.5865    0.4330   -0.4666 O   0  0  0  0  0  0  0  0  0  0  0  0
   -1.6648    1.6072   -0.4676 O   0  0  0  0  0  0  0  0  0  0  0  0
    1.6651   -1.6081   -0.4648 O   0  0  0  0  0  0  0  0  0  0  0  0
   -3.9424    0.1529    0.1766 C   0  0  0  0  0  0  0  0  0  0  0  0
    3.9424   -0.1525    0.1770 C   0  0  0  0  0  0  0  0  0  0  0  0
   -5.1014   -0.8258    0.0630 C   0  0  0  0  0  0  0  0  0  0  0  0
   -3.6040    0.4647    1.6264 C   0  0  0  0  0  0  0  0  0  0  0  0
    5.1013    0.8260    0.0618 C   0  0  0  0  0  0  0  0  0  0  0  0
    3.6037   -0.4616    1.6273 C   0  0  0  0  0  0  0  0  0  0  0  0
   -1.6791    0.3835   -0.4664 C   0  0  0  0  0  0  0  0  0  0  0  0
    1.6792   -0.3844   -0.4660 C   0  0  0  0  0  0  0  0  0  0  0  0
  1  7  1  0
  1 13  1  0
  2  8  1  0
  2 14  1  0
  3  4  1  0
  3 13  1  0
  4 14  1  0
  5 13  2  0
  6 14  2  0
  7  9  1  0
  7 10  1  0
  8 11  1  0
  8 12  1  0
M  END
>  <PUBCHEM_COMPOUND_CID>  (1) 
7769

>  <PUBCHEM_CONFORMER_RMSD>  (1) 
0.8

>  <PUBCHEM_CONFORMER_DIVERSEORDER>  (1) 
1
17
22
3
9
20
32
55
12
2
36
25
8
58
35
16
5
19
21
7
47
51
11
59
57
42
50
15
33
56
6
14
10
29
39
44
37
52
54
40
18
30
62
4
61
26
49
43
41
31
13
60
24
23
34
38
45
28
53
46
48
27

>  <PUBCHEM_MMFF94_PARTIAL_CHARGES>  (1) 
10
1 -0.43
13 0.87
14 0.87
2 -0.43
3 -0.15
4 -0.15
5 -0.57
6 -0.57
7 0.28
8 0.28

>  <PUBCHEM_EFFECTIVE_ROTOR_COUNT>  (1) 
7

>  <PUBCHEM_PHARMACOPHORE_FEATURES>  (1) 
2
3 7 9 10 hydrophobe
3 8 11 12 hydrophobe

>  <PUBCHEM_HEAVY_ATOM_COUNT>  (1) 
14

>  <PUBCHEM_ATOM_DEF_STEREO_COUNT>  (1) 
0

>  <PUBCHEM_ATOM_UDEF_STEREO_COUNT>  (1) 
0

>  <PUBCHEM_BOND_DEF_STEREO_COUNT>  (1) 
0

>  <PUBCHEM_BOND_UDEF_STEREO_COUNT>  (1) 
0

>  <PUBCHEM_ISOTOPIC_ATOM_COUNT>  (1) 
0

>  <PUBCHEM_COMPONENT_COUNT>  (1) 
1

>  <PUBCHEM_CACTVS_TAUTO_COUNT>  (1) 
1

>  <PUBCHEM_CONFORMER_ID>  (1) 
00001E5900000001

>  <PUBCHEM_MMFF94_ENERGY>  (1) 
24.478

>  <PUBCHEM_FEATURE_SELFOVERLAP>  (1) 
10.149

>  <PUBCHEM_SHAPE_FINGERPRINT>  (1) 
12815109 37 15719108071705804807
13081056 2 15410894067455978386
13897977 58 16845578617084192921
14123238 8 18410575101842948100
14252887 29 18041000609802021258
14445660 50 18059862744476628631
17834072 33 15410604904836064789
17834072 8 11743845785327413960
17834076 25 17632579366121942124
18186145 218 17275098419248467820
1986462 14 10375859788820657949
200 152 17385720305509380115
20279233 1 17603311444743640763
20432913 95 17240484697424981785
20645477 56 15985387789510606621
20645477 70 14273726327435419474
20871999 31 11815312936804149397
21501925 9 17313104142163178924
21503847 285 16630804430946104000
22485316 2 15647052668111753968
22854114 59 18273214192221690238
23402539 116 17894905243933436191
23402655 69 8142096342407820743
26918003 58 16877662378877286121
4047638 21 15985100834472098210
42 15 16660641834675351906
449060 50 16415483752989819197
522135 26 12319741358298946900
9882013 296 18410573967971582153

>  <PUBCHEM_SHAPE_MULTIPOLES>  (1) 
252.9
11.18
1.12
1.09
0
0.61
0
2.67
-0.01
0
0
0
-0.11
0.32

>  <PUBCHEM_SHAPE_SELFOVERLAP>  (1) 
480.939

>  <PUBCHEM_SHAPE_VOLUME>  (1) 
156

>  <PUBCHEM_COORDINATE_TYPE>  (1) 
2
5
10

$$$$
