7772
     RDKit          3D

 10  9  0  0  0  0  0  0  0  0999 V2000
   -0.7177   -0.6305   -0.0593 O   0  0  0  0  0  0  0  0  0  0  0  0
   -1.8422    1.3775    0.1060 O   0  0  0  0  0  0  0  0  0  0  0  0
    3.0587   -0.3517   -0.0420 C   0  0  0  0  0  0  0  0  0  0  0  0
    1.6524   -0.9697   -0.1018 C   0  0  0  0  0  0  0  0  0  0  0  0
    0.5277    0.0548   -0.0138 C   0  0  0  0  0  0  0  0  0  0  0  0
    3.2345    0.6518   -1.1843 C   0  0  0  0  0  0  0  0  0  0  0  0
    3.3369    0.3348    1.2958 C   0  0  0  0  0  0  0  0  0  0  0  0
   -1.8361    0.1580    0.0102 C   0  0  0  0  0  0  0  0  0  0  0  0
   -3.0661   -0.7170   -0.0511 C   0  0  0  0  0  0  0  0  0  0  0  0
   -4.3482    0.0919    0.0402 C   0  0  0  0  0  0  0  0  0  0  0  0
  1  5  1  0
  1  8  1  0
  2  8  2  0
  3  4  1  0
  3  6  1  0
  3  7  1  0
  4  5  1  0
  8  9  1  0
  9 10  1  0
M  END
>  <PUBCHEM_COMPOUND_CID>  (1) 
7772

>  <PUBCHEM_CONFORMER_RMSD>  (1) 
0.6

>  <PUBCHEM_CONFORMER_DIVERSEORDER>  (1) 
1
44
19
20
42
17
36
7
47
12
2
27
35
24
31
21
25
33
32
30
3
10
15
18
26
48
43
38
9
14
46
37
45
22
28
11
39
23
6
5
40
4
13
8
16
41
34
29

>  <PUBCHEM_MMFF94_PARTIAL_CHARGES>  (1) 
5
1 -0.43
2 -0.57
5 0.28
8 0.66
9 0.06

>  <PUBCHEM_EFFECTIVE_ROTOR_COUNT>  (1) 
5

>  <PUBCHEM_PHARMACOPHORE_FEATURES>  (1) 
3
1 10 hydrophobe
1 2 acceptor
3 3 6 7 hydrophobe

>  <PUBCHEM_HEAVY_ATOM_COUNT>  (1) 
10

>  <PUBCHEM_ATOM_DEF_STEREO_COUNT>  (1) 
0

>  <PUBCHEM_ATOM_UDEF_STEREO_COUNT>  (1) 
0

>  <PUBCHEM_BOND_DEF_STEREO_COUNT>  (1) 
0

>  <PUBCHEM_BOND_UDEF_STEREO_COUNT>  (1) 
0

>  <PUBCHEM_ISOTOPIC_ATOM_COUNT>  (1) 
0

>  <PUBCHEM_COMPONENT_COUNT>  (1) 
1

>  <PUBCHEM_CACTVS_TAUTO_COUNT>  (1) 
1

>  <PUBCHEM_CONFORMER_ID>  (1) 
00001E5C00000001

>  <PUBCHEM_MMFF94_ENERGY>  (1) 
6.8729

>  <PUBCHEM_FEATURE_SELFOVERLAP>  (1) 
15.223

>  <PUBCHEM_SHAPE_FINGERPRINT>  (1) 
11062470 55 17240484710631734175
12162725 195 18041000622344025284
12932764 1 17775280547621132158
14325111 11 18411700950252530623
14390081 3 18202560657626902272
18186145 218 17203332195253908370
190213 19 18408322181185346847
22485316 2 17632572756241334679
23048698 100 17022904553634409964
3248919 1 18113059320098871026
522135 26 13614526255157021958

>  <PUBCHEM_SHAPE_MULTIPOLES>  (1) 
194.06
7.85
1
0.93
3.47
0.09
-0.09
0.51
-0.25
0.06
0.05
-1.05
0.13
-0.22

>  <PUBCHEM_SHAPE_SELFOVERLAP>  (1) 
353.678

>  <PUBCHEM_SHAPE_VOLUME>  (1) 
124.5

>  <PUBCHEM_COORDINATE_TYPE>  (1) 
2
5
10

$$$$
