7779
     RDKit          3D

 13 12  0  0  0  0  0  0  0  0999 V2000
   -2.8773   -0.5390   -0.7577 O   0  0  0  0  0  0  0  0  0  0  0  0
   -4.5908   -0.9176    0.7523 O   0  0  0  0  0  0  0  0  0  0  0  0
    1.2302    2.0435   -0.6733 C   0  0  0  0  0  0  0  0  0  0  0  0
    2.5385    1.2978   -0.3790 C   0  0  0  0  0  0  0  0  0  0  0  0
    0.0291    1.4792    0.0561 C   0  0  0  0  0  0  0  0  0  0  0  0
    2.4723   -0.1565   -0.7552 C   0  0  0  0  0  0  0  0  0  0  0  0
    2.7317   -1.2277    0.0181 C   0  0  0  0  0  0  0  0  0  0  0  0
   -1.0679    0.9750   -0.5420 C   0  0  0  0  0  0  0  0  0  0  0  0
    0.1059    1.5414    1.5603 C   0  0  0  0  0  0  0  0  0  0  0  0
   -2.3017    0.4320    0.1060 C   0  0  0  0  0  0  0  0  0  0  0  0
    2.6172   -2.6187   -0.5468 C   0  0  0  0  0  0  0  0  0  0  0  0
    3.1305   -1.1789    1.4656 C   0  0  0  0  0  0  0  0  0  0  0  0
   -4.0175   -1.1305   -0.3044 C   0  0  0  0  0  0  0  0  0  0  0  0
  1 10  1  0
  1 13  1  0
  2 13  2  0
  3  4  1  0
  3  5  1  0
  4  6  1  0
  5  8  2  0
  5  9  1  0
  6  7  2  3
  7 11  1  0
  7 12  1  0
  8 10  1  0
M  END
>  <PUBCHEM_COMPOUND_CID>  (1) 
7779

>  <PUBCHEM_CONFORMER_RMSD>  (1) 
0.8

>  <PUBCHEM_CONFORMER_DIVERSEORDER>  (1) 
1
18
365
8
441
304
526
397
98
11
96
21
241
27
184
522
22
433
307
46
95
34
126
202
15
108
534
75
97
447
169
322
166
16
199
400
53
426
59
218
101
235
404
23
291
150
2
529
446
73
113
82
4
215
9
58
172
134
506
157
313
17
374
525
153
5
123
440
29
362
224
25
361
539
317
507
6
38
33
537
229
76
56
52
272
382
276
149
394
102
495
305
269
3
24
77
94
196
12
273
109
147
130
497
89
391
50
528
489
40
474
30

>  <PUBCHEM_MMFF94_PARTIAL_CHARGES>  (1) 
16
1 -0.43
10 0.42
11 0.14
12 0.14
13 0.66
18 0.15
19 0.15
2 -0.57
3 0.14
31 0.06
4 0.14
5 -0.28
6 -0.29
7 -0.28
8 -0.29
9 0.14

>  <PUBCHEM_EFFECTIVE_ROTOR_COUNT>  (1) 
6

>  <PUBCHEM_PHARMACOPHORE_FEATURES>  (1) 
4
1 2 acceptor
1 9 hydrophobe
3 7 11 12 hydrophobe
4 3 4 5 6 hydrophobe

>  <PUBCHEM_HEAVY_ATOM_COUNT>  (1) 
13

>  <PUBCHEM_ATOM_DEF_STEREO_COUNT>  (1) 
0

>  <PUBCHEM_ATOM_UDEF_STEREO_COUNT>  (1) 
0

>  <PUBCHEM_BOND_DEF_STEREO_COUNT>  (1) 
0

>  <PUBCHEM_BOND_UDEF_STEREO_COUNT>  (1) 
1

>  <PUBCHEM_ISOTOPIC_ATOM_COUNT>  (1) 
0

>  <PUBCHEM_COMPONENT_COUNT>  (1) 
1

>  <PUBCHEM_CACTVS_TAUTO_COUNT>  (1) 
1

>  <PUBCHEM_CONFORMER_ID>  (1) 
00001E6300000001

>  <PUBCHEM_MMFF94_ENERGY>  (1) 
13.3143

>  <PUBCHEM_FEATURE_SELFOVERLAP>  (1) 
20.317

>  <PUBCHEM_SHAPE_FINGERPRINT>  (1) 
11769659 78 18409728443709514637
12616999 72 17968949707032951572
13705890 14 17967809470298577172
14251705 54 18339643317602524038
14251710 61 18338240366503442167
14251717 144 18410572924585043295
14350558 41 18409450305806251084
14848160 33 18261105270855397431
15375462 189 18130789000878534429
15757776 16 18259985972708492508
17834074 16 18117003380367418867
18186145 218 11963680971273159647
20291156 8 18340492149205771558
20645477 70 18335413612756229231
20671657 53 17967810509659336266
21354914 74 18259980466233306370
2255824 54 18194687200663030861
23380061 451 18130511932580733765
23500284 5 18200035014724417969
23532345 11 17841420450056623544
59391676 29 18411699880784432125
8199 65 18410294743853497518
94968 8 18334300876607598518

>  <PUBCHEM_SHAPE_MULTIPOLES>  (1) 
255.8
7.15
2.48
1.19
7.74
0.4
0.46
5.33
0.45
-1.56
-0.18
-0.46
-0.1
-0.26

>  <PUBCHEM_SHAPE_SELFOVERLAP>  (1) 
479.112

>  <PUBCHEM_SHAPE_VOLUME>  (1) 
159.6

>  <PUBCHEM_COORDINATE_TYPE>  (1) 
2
5
10

$$$$
