7780
     RDKit          3D

 14 13  0  0  0  0  0  0  0  0999 V2000
    2.1420    0.2169   -0.3239 O   0  0  0  0  0  0  0  0  0  0  0  0
    4.3436    0.0123    0.3454 O   0  0  0  0  0  0  0  0  0  0  0  0
   -1.8522   -2.1036   -0.4466 C   0  0  0  0  0  0  0  0  0  0  0  0
   -2.9334   -1.0721   -0.0980 C   0  0  0  0  0  0  0  0  0  0  0  0
   -0.4704   -1.7297    0.0474 C   0  0  0  0  0  0  0  0  0  0  0  0
   -2.6427    0.2867   -0.6726 C   0  0  0  0  0  0  0  0  0  0  0  0
    0.6032   -1.5348   -0.7430 C   0  0  0  0  0  0  0  0  0  0  0  0
   -0.3354   -1.6123    1.5442 C   0  0  0  0  0  0  0  0  0  0  0  0
   -2.5727    1.4653   -0.0253 C   0  0  0  0  0  0  0  0  0  0  0  0
    2.0005   -1.1974   -0.3303 C   0  0  0  0  0  0  0  0  0  0  0  0
   -2.2754    2.7320   -0.7828 C   0  0  0  0  0  0  0  0  0  0  0  0
   -2.7558    1.6572    1.4532 C   0  0  0  0  0  0  0  0  0  0  0  0
    3.3737    0.6907    0.0355 C   0  0  0  0  0  0  0  0  0  0  0  0
    3.3751    2.1889   -0.0031 C   0  0  0  0  0  0  0  0  0  0  0  0
  1 10  1  0
  1 13  1  0
  2 13  2  0
  3  4  1  0
  3  5  1  0
  4  6  1  0
  5  7  2  0
  5  8  1  0
  6  9  2  3
  7 10  1  0
  9 11  1  0
  9 12  1  0
 13 14  1  0
M  END
>  <PUBCHEM_COMPOUND_CID>  (1) 
7780

>  <PUBCHEM_CONFORMER_RMSD>  (1) 
0.8

>  <PUBCHEM_CONFORMER_DIVERSEORDER>  (1) 
1
73
166
243
46
3
223
75
57
108
12
112
44
110
226
250
164
53
33
63
89
162
215
94
161
246
30
138
181
93
101
78
128
24
171
144
212
202
151
173
98
20
145
31
71
104
116
2
176
82
134
26
239
195
245
118
237
182
187
234
147
130
136
131
229
123
115
211
69
231
38
156
194
54
96
105
170
203
23
56
109
236
201
204
28
232
148
207
225
9
178
206
213
80
214
84
175
251
90
127
157
107
95
18
155
87
126
40
21
120
121
188
42
167
22
111
158
146
67
185
51
142
217
227
35
47
99
177
143
141
68
74
137
242
216
36
11
6
133
14
58
169
43
48
233
154
83
210
198
132
102
150
163
184
122
60
221
248
34
72
124
64
29
244
13
88
37
168
249
76
125
235
59
15
114
180
153
152
52
7
103
230
135
200
224
220
208
159
10
32
199
25
55
140
4
186
65
66
228
91
139
100
39
179
190
172
92
209
160
117
85
86
193
238
247
222
119
79
97
41
240
70
16
27
61
183
49
77
192
174
197
205
196
5
165
17
113
106
19
219
149
50
218
8
189
191
45
241
252
62
129
81

>  <PUBCHEM_MMFF94_PARTIAL_CHARGES>  (1) 
16
1 -0.43
10 0.42
11 0.14
12 0.14
13 0.66
14 0.06
19 0.15
2 -0.57
20 0.15
3 0.14
4 0.14
5 -0.28
6 -0.29
7 -0.29
8 0.14
9 -0.28

>  <PUBCHEM_EFFECTIVE_ROTOR_COUNT>  (1) 
6

>  <PUBCHEM_PHARMACOPHORE_FEATURES>  (1) 
4
1 2 acceptor
1 8 hydrophobe
3 9 11 12 hydrophobe
4 3 4 5 6 hydrophobe

>  <PUBCHEM_HEAVY_ATOM_COUNT>  (1) 
14

>  <PUBCHEM_ATOM_DEF_STEREO_COUNT>  (1) 
0

>  <PUBCHEM_ATOM_UDEF_STEREO_COUNT>  (1) 
0

>  <PUBCHEM_BOND_DEF_STEREO_COUNT>  (1) 
0

>  <PUBCHEM_BOND_UDEF_STEREO_COUNT>  (1) 
1

>  <PUBCHEM_ISOTOPIC_ATOM_COUNT>  (1) 
0

>  <PUBCHEM_COMPONENT_COUNT>  (1) 
1

>  <PUBCHEM_CACTVS_TAUTO_COUNT>  (1) 
1

>  <PUBCHEM_CONFORMER_ID>  (1) 
00001E6400000001

>  <PUBCHEM_MMFF94_ENERGY>  (1) 
13.1977

>  <PUBCHEM_FEATURE_SELFOVERLAP>  (1) 
20.317

>  <PUBCHEM_SHAPE_FINGERPRINT>  (1) 
11615756 256 18341339963086665516
12162725 195 18410290354423190718
14123250 116 18059584563545162465
14123255 52 18195246616296093741
14123260 362 18041573554007112740
14251745 187 18269828881993635784
14251764 38 17773862251142713488
14251764 75 18053111631139875233
14466204 15 18410844461724557304
15442244 35 18337102376849145594
15775835 57 18335985259728222297
17834072 32 18337951190640093045
18186145 218 18200319788468049086
20304884 271 18340770330068848327
20510252 161 18265332991753427099
20621476 13 16966315700640953053
20653085 51 18270975530903432655
21524375 3 18410855438674736142
21652331 79 18266177412377665412
22182937 141 18270973357828972001
22959321 54 18337950211508264700
2306618 200 18059584649265101730
23402539 116 18268702982398334839
23557571 272 18199757006108634039
305870 269 18042400244569328098
4028521 119 18335973238214884063
526903 126 18411415129111944177
568465 68 13623523576197985348
8050 44 18340202999185650517

>  <PUBCHEM_SHAPE_MULTIPOLES>  (1) 
276.37
6.74
3.04
1.09
6.15
1.04
0.4
3.76
0.19
-1.33
-0.16
-0.61
0
-0.05

>  <PUBCHEM_SHAPE_SELFOVERLAP>  (1) 
519.984

>  <PUBCHEM_SHAPE_VOLUME>  (1) 
172.4

>  <PUBCHEM_COORDINATE_TYPE>  (1) 
2
5
10

$$$$
