7790
     RDKit          3D

 16 15  0  0  0  0  0  0  0  0999 V2000
    2.0576    0.0697   -0.4888 O   0  0  0  0  0  0  0  0  0  0  0  0
   -2.0378   -0.1741    0.4889 O   0  0  0  0  0  0  0  0  0  0  0  0
    3.1799   -1.0011    1.2185 O   0  0  0  0  0  0  0  0  0  0  0  0
   -2.9898   -1.4061   -1.2156 O   0  0  0  0  0  0  0  0  0  0  0  0
    0.5217   -2.3326   -0.6740 C   0  0  0  0  0  0  0  0  0  0  0  0
   -0.2065   -2.3795    0.6751 C   0  0  0  0  0  0  0  0  0  0  0  0
    2.0411   -2.2749   -0.5129 C   0  0  0  0  0  0  0  0  0  0  0  0
   -1.7191   -2.5085    0.5149 C   0  0  0  0  0  0  0  0  0  0  0  0
    2.5158   -1.0229    0.1912 C   0  0  0  0  0  0  0  0  0  0  0  0
   -2.3292   -1.3212   -0.1883 C   0  0  0  0  0  0  0  0  0  0  0  0
    2.4029    1.3376    0.0779 C   0  0  0  0  0  0  0  0  0  0  0  0
   -2.5676    1.0277   -0.0791 C   0  0  0  0  0  0  0  0  0  0  0  0
    1.8209    2.4404   -0.7931 C   0  0  0  0  0  0  0  0  0  0  0  0
   -2.1549    2.2057    0.7899 C   0  0  0  0  0  0  0  0  0  0  0  0
    2.1610    3.8204   -0.2595 C   0  0  0  0  0  0  0  0  0  0  0  0
   -2.6961    3.5193    0.2549 C   0  0  0  0  0  0  0  0  0  0  0  0
  1  9  1  0
  1 11  1  0
  2 10  1  0
  2 12  1  0
  3  9  2  0
  4 10  2  0
  5  6  1  0
  5  7  1  0
  6  8  1  0
  7  9  1  0
  8 10  1  0
 11 13  1  0
 12 14  1  0
 13 15  1  0
 14 16  1  0
M  END
>  <PUBCHEM_COMPOUND_CID>  (1) 
7790

>  <PUBCHEM_CONFORMER_RMSD>  (1) 
1

>  <PUBCHEM_CONFORMER_DIVERSEORDER>  (1) 
1
2
10
15
60
36
42
66
52
43
53
58
41
34
56
22
25
75
16
70
27
49
44
39
13
64
19
29
8
40
37
9
50
57
51
65
71
68
14
76
30
4
31
45
17
72
77
12
67
46
7
69
11
6
78
24
59
62
32
21
73
33
18
54
80
74
47
3
23
28
26
61
79
38
35
48
55
20
63
5

>  <PUBCHEM_MMFF94_PARTIAL_CHARGES>  (1) 
10
1 -0.43
10 0.66
11 0.28
12 0.28
2 -0.43
3 -0.57
4 -0.57
7 0.06
8 0.06
9 0.66

>  <PUBCHEM_EFFECTIVE_ROTOR_COUNT>  (1) 
11

>  <PUBCHEM_PHARMACOPHORE_FEATURES>  (1) 
5
1 15 hydrophobe
1 16 hydrophobe
1 3 acceptor
1 4 acceptor
4 5 6 7 8 hydrophobe

>  <PUBCHEM_HEAVY_ATOM_COUNT>  (1) 
16

>  <PUBCHEM_ATOM_DEF_STEREO_COUNT>  (1) 
0

>  <PUBCHEM_ATOM_UDEF_STEREO_COUNT>  (1) 
0

>  <PUBCHEM_BOND_DEF_STEREO_COUNT>  (1) 
0

>  <PUBCHEM_BOND_UDEF_STEREO_COUNT>  (1) 
0

>  <PUBCHEM_ISOTOPIC_ATOM_COUNT>  (1) 
0

>  <PUBCHEM_COMPONENT_COUNT>  (1) 
1

>  <PUBCHEM_CACTVS_TAUTO_COUNT>  (1) 
1

>  <PUBCHEM_CONFORMER_ID>  (1) 
00001E6E00000001

>  <PUBCHEM_MMFF94_ENERGY>  (1) 
5.4401

>  <PUBCHEM_FEATURE_SELFOVERLAP>  (1) 
25.373

>  <PUBCHEM_SHAPE_FINGERPRINT>  (1) 
10498660 4 17834680774205988646
14026960 21 18265915583177427041
1420 336 18409732833002242665
15006816 218 13872361104736982844
15256400 18 18123750014144506120
17093844 170 17111001548420921008
192875 21 18266435724516919838
21141583 151 17331980815498126084
44154327 71 18050859002496663011
5939293 188 18193558857077649344
7832392 63 18051974723294337751

>  <PUBCHEM_SHAPE_MULTIPOLES>  (1) 
305.8
5.38
5.17
0.95
1.06
3.92
0
1.68
-0.36
0.18
0.33
-0.05
-0.22
-0.76

>  <PUBCHEM_SHAPE_SELFOVERLAP>  (1) 
570.129

>  <PUBCHEM_SHAPE_VOLUME>  (1) 
191.3

>  <PUBCHEM_COORDINATE_TYPE>  (1) 
2
5
10

$$$$
