7793
     RDKit          3D

 11 10  0  0  1  0  0  0  0  0999 V2000
   -3.9724    1.6111   -0.3953 O   0  0  0  0  0  0  0  0  0  0  0  0
   -1.1325   -0.7717    0.4003 C   0  0  0  0  0  0  0  0  0  0  0  0
   -0.0416   -1.3896   -0.5053 C   0  0  0  0  0  0  0  0  0  0  0  0
   -2.1030    0.1134   -0.4038 C   0  0  0  0  0  0  0  0  0  0  0  0
    0.8354   -0.3874   -1.2701 C   0  0  0  0  0  0  0  0  0  0  0  0
   -1.8729   -1.9030    1.1250 C   0  0  0  0  0  0  0  0  0  0  0  0
   -3.1580    0.8080    0.4507 C   0  0  0  0  0  0  0  0  0  0  0  0
    1.5418    0.5790   -0.3610 C   0  0  0  0  0  0  0  0  0  0  0  0
    2.7918    0.5008    0.1337 C   0  0  0  0  0  0  0  0  0  0  0  0
    3.4373    1.5082    1.0419 C   0  0  0  0  0  0  0  0  0  0  0  0
    3.6742   -0.6687   -0.2161 C   0  0  0  0  0  0  0  0  0  0  0  0
  1  7  1  0
  2  3  1  0
  2  4  1  0
  2  6  1  0
  3  5  1  0
  4  7  1  0
  5  8  1  0
  8  9  2  3
  9 10  1  0
  9 11  1  0
M  END
>  <PUBCHEM_COMPOUND_CID>  (1) 
7793

>  <PUBCHEM_CONFORMER_RMSD>  (1) 
0.6

>  <PUBCHEM_CONFORMER_DIVERSEORDER>  (1) 
1
88
24
68
33
91
59
67
20
19
47
48
94
83
21
92
61
51
31
62
80
72
38
84
49
5
78
43
69
75
89
55
10
34
79
63
65
30
40
86
56
66
14
29
53
74
82
58
22
32
71
93
7
18
3
57
90
42
9
87
85
25
17
36
39
73
52
45
76
54
27
12
35
81
2
77
44
64
23
41
13
37
50
70
11
46
60
6
8
28
15
26
4
16

>  <PUBCHEM_MMFF94_PARTIAL_CHARGES>  (1) 
9
1 -0.68
10 0.14
11 0.14
24 0.15
25 0.4
5 0.14
7 0.28
8 -0.29
9 -0.28

>  <PUBCHEM_EFFECTIVE_ROTOR_COUNT>  (1) 
5

>  <PUBCHEM_PHARMACOPHORE_FEATURES>  (1) 
5
1 1 acceptor
1 1 donor
1 6 hydrophobe
3 9 10 11 hydrophobe
5 2 3 4 5 8 hydrophobe

>  <PUBCHEM_HEAVY_ATOM_COUNT>  (1) 
11

>  <PUBCHEM_ATOM_DEF_STEREO_COUNT>  (1) 
1

>  <PUBCHEM_ATOM_UDEF_STEREO_COUNT>  (1) 
0

>  <PUBCHEM_BOND_DEF_STEREO_COUNT>  (1) 
0

>  <PUBCHEM_BOND_UDEF_STEREO_COUNT>  (1) 
0

>  <PUBCHEM_ISOTOPIC_ATOM_COUNT>  (1) 
0

>  <PUBCHEM_COMPONENT_COUNT>  (1) 
1

>  <PUBCHEM_CACTVS_TAUTO_COUNT>  (1) 
1

>  <PUBCHEM_CONFORMER_ID>  (1) 
00001E7100000001

>  <PUBCHEM_MMFF94_ENERGY>  (1) 
11.3525

>  <PUBCHEM_FEATURE_SELFOVERLAP>  (1) 
25.376

>  <PUBCHEM_SHAPE_FINGERPRINT>  (1) 
11127187 94 8934460513381597443
12006461 19 11242267242094798505
122479 349 18411980277835400461
124424 183 18343587317709172766
12500047 106 18335422378652728170
12507560 40 18339927120878276706
12897270 3 10447664477993609890
12932764 1 17987247805486380526
13571099 52 18343302561108383919
13922767 16 18202281369010065252
14252887 29 8574414448719554869
14325111 11 18272651281134003750
17834069 15 18259987050355042990
18186145 218 17275116058420631174
18511873 20 17822011995183053936
18522851 12 15285357336371986178
20281407 28 8502652610424434053
20653085 51 17917713512886846367
20715346 28 18270691977389007910
20871998 22 8862933983660332103
21524375 3 18338235960315045023
22096605 113 17489584567172362476
22169311 14 18408039615640358026
22485316 2 11458425747425670753
228727 97 14189580727925642479
23402539 116 18336258059467451543
23500284 214 18412832382409644617
23532345 11 17968940923540033514
305870 269 17897162429826033987
3086196 2 17898008181642909667
3248919 1 17968652860473861270
528716 315 12679467503642523305
83771 10 11097859587893406285

>  <PUBCHEM_SHAPE_MULTIPOLES>  (1) 
220.51
6.82
1.73
1.08
0.55
0.08
-0.04
-3.23
-0.99
-0.82
-0.37
0.08
0.14
1.08

>  <PUBCHEM_SHAPE_SELFOVERLAP>  (1) 
400.522

>  <PUBCHEM_SHAPE_VOLUME>  (1) 
141.9

>  <PUBCHEM_COORDINATE_TYPE>  (1) 
2
5
10

$$$$
