78
     RDKit          3D

  7  6  0  0  1  0  0  0  0  0999 V2000
    2.3122    0.7983    0.1901 Cl  0  0  0  0  0  0  0  0  0  0  0  0
   -0.6445    1.6163   -0.6997 O   0  0  0  0  0  0  0  0  0  0  0  0
   -1.6385    0.3837    0.9225 O   0  0  0  0  0  0  0  0  0  0  0  0
   -0.6477   -1.9104   -0.2941 N   0  0  0  0  0  0  0  0  0  0  0  0
    0.0801   -0.6503   -0.4687 C   0  0  0  0  0  0  0  0  0  0  0  0
    1.3702   -0.7077    0.3447 C   0  0  0  0  0  0  0  0  0  0  0  0
   -0.8319    0.4700    0.0051 C   0  0  0  0  0  0  0  0  0  0  0  0
  1  6  1  0
  2  7  1  0
  3  7  2  0
  4  5  1  0
  5  6  1  0
  5  7  1  0
M  END
>  <PUBCHEM_COMPOUND_CID>  (1) 
78

>  <PUBCHEM_CONFORMER_RMSD>  (1) 
0.4

>  <PUBCHEM_CONFORMER_DIVERSEORDER>  (1) 
4
2
10
11
9
7
8
3
6
12
1
5

>  <PUBCHEM_MMFF94_PARTIAL_CHARGES>  (1) 
10
1 -0.29
11 0.36
12 0.36
13 0.5
2 -0.65
3 -0.57
4 -0.99
5 0.33
6 0.29
7 0.66

>  <PUBCHEM_EFFECTIVE_ROTOR_COUNT>  (1) 
2

>  <PUBCHEM_PHARMACOPHORE_FEATURES>  (1) 
5
1 2 acceptor
1 3 acceptor
1 4 cation
1 4 donor
3 2 3 7 anion

>  <PUBCHEM_HEAVY_ATOM_COUNT>  (1) 
7

>  <PUBCHEM_ATOM_DEF_STEREO_COUNT>  (1) 
0

>  <PUBCHEM_ATOM_UDEF_STEREO_COUNT>  (1) 
1

>  <PUBCHEM_BOND_DEF_STEREO_COUNT>  (1) 
0

>  <PUBCHEM_BOND_UDEF_STEREO_COUNT>  (1) 
0

>  <PUBCHEM_ISOTOPIC_ATOM_COUNT>  (1) 
0

>  <PUBCHEM_COMPONENT_COUNT>  (1) 
1

>  <PUBCHEM_CACTVS_TAUTO_COUNT>  (1) 
1

>  <PUBCHEM_CONFORMER_ID>  (1) 
0000004E00000004

>  <PUBCHEM_MMFF94_ENERGY>  (1) 
4.3235

>  <PUBCHEM_FEATURE_SELFOVERLAP>  (1) 
25.431

>  <PUBCHEM_SHAPE_FINGERPRINT>  (1) 
16714656 1 18410863191354215748
18185500 45 18047465918240061278
20096714 4 18341609261830741194
21040471 1 18341610382759241608
24536 1 17632566154818363938
5084963 1 17986374621133364006
5943 1 13842273510313935615

>  <PUBCHEM_SHAPE_MULTIPOLES>  (1) 
129.21
2.3
1.63
0.8
1.44
0.26
-0.05
-0.5
-0.42
-0.41
0.28
-0.15
-0.1
-0.09

>  <PUBCHEM_SHAPE_SELFOVERLAP>  (1) 
229.402

>  <PUBCHEM_SHAPE_VOLUME>  (1) 
84.9

>  <PUBCHEM_COORDINATE_TYPE>  (1) 
2
5
10

$$$$
