7803
     RDKit          3D

  8  7  0  0  0  0  0  0  0  0999 V2000
    0.1526    0.5069    0.0039 O   0  0  0  0  0  0  0  0  0  0  0  0
   -1.1583   -1.3919    0.0047 O   0  0  0  0  0  0  0  0  0  0  0  0
    2.5526    0.6018    0.0036 C   0  0  0  0  0  0  0  0  0  0  0  0
    1.3313   -0.3048    0.0040 C   0  0  0  0  0  0  0  0  0  0  0  0
    3.8460   -0.1929   -0.0114 C   0  0  0  0  0  0  0  0  0  0  0  0
   -2.1683    0.8194    0.0048 C   0  0  0  0  0  0  0  0  0  0  0  0
   -1.0312   -0.1752    0.0042 C   0  0  0  0  0  0  0  0  0  0  0  0
   -3.5248    0.1367   -0.0139 C   0  0  0  0  0  0  0  0  0  0  0  0
  1  4  1  0
  1  7  1  0
  2  7  2  0
  3  4  1  0
  3  5  1  0
  6  7  1  0
  6  8  1  0
M  END
>  <PUBCHEM_COMPOUND_CID>  (1) 
7803

>  <PUBCHEM_CONFORMER_RMSD>  (1) 
0.6

>  <PUBCHEM_CONFORMER_DIVERSEORDER>  (1) 
1
33
22
32
13
17
26
23
30
21
15
24
20
4
10
14
9
27
16
11
25
29
19
2
18
12
3
6
31
7
28
5
8

>  <PUBCHEM_MMFF94_PARTIAL_CHARGES>  (1) 
5
1 -0.43
2 -0.57
4 0.28
6 0.06
7 0.66

>  <PUBCHEM_EFFECTIVE_ROTOR_COUNT>  (1) 
4

>  <PUBCHEM_PHARMACOPHORE_FEATURES>  (1) 
3
1 2 acceptor
1 5 hydrophobe
1 8 hydrophobe

>  <PUBCHEM_HEAVY_ATOM_COUNT>  (1) 
8

>  <PUBCHEM_ATOM_DEF_STEREO_COUNT>  (1) 
0

>  <PUBCHEM_ATOM_UDEF_STEREO_COUNT>  (1) 
0

>  <PUBCHEM_BOND_DEF_STEREO_COUNT>  (1) 
0

>  <PUBCHEM_BOND_UDEF_STEREO_COUNT>  (1) 
0

>  <PUBCHEM_ISOTOPIC_ATOM_COUNT>  (1) 
0

>  <PUBCHEM_COMPONENT_COUNT>  (1) 
1

>  <PUBCHEM_CACTVS_TAUTO_COUNT>  (1) 
1

>  <PUBCHEM_CONFORMER_ID>  (1) 
00001E7B00000001

>  <PUBCHEM_MMFF94_ENERGY>  (1) 
0.5847

>  <PUBCHEM_FEATURE_SELFOVERLAP>  (1) 
15.223

>  <PUBCHEM_SHAPE_FINGERPRINT>  (1) 
11062470 55 13326853327000149841
12932764 1 16950831592277291532
14325111 11 18410573955292466849
14390081 3 18344143691698587288
23235685 24 18341608204962863717
3248919 1 16773528745254960132
5460574 1 9223229650225702785

>  <PUBCHEM_SHAPE_MULTIPOLES>  (1) 
152.9
6.28
0.97
0.59
2.01
0.16
0
-0.47
0.04
-0.24
0
0.01
-0.01
0

>  <PUBCHEM_SHAPE_SELFOVERLAP>  (1) 
273.831

>  <PUBCHEM_SHAPE_VOLUME>  (1) 
99.6

>  <PUBCHEM_COORDINATE_TYPE>  (1) 
2
5
10

$$$$
