7807
     RDKit          3D

  8  8  0  0  0  0  0  0  0  0999 V2000
   -3.2248    0.0003   -0.0009 Br  0  0  0  0  0  0  0  0  0  0  0  0
    2.8652    0.0003   -0.0008 N   0  0  0  0  0  0  0  0  0  0  0  0
    1.4549   -0.0002    0.0000 C   0  0  0  0  0  0  0  0  0  0  0  0
    0.7573   -1.2081    0.0002 C   0  0  0  0  0  0  0  0  0  0  0  0
    0.7575    1.2078    0.0002 C   0  0  0  0  0  0  0  0  0  0  0  0
   -0.6376   -1.2080    0.0005 C   0  0  0  0  0  0  0  0  0  0  0  0
   -0.6374    1.2079    0.0005 C   0  0  0  0  0  0  0  0  0  0  0  0
   -1.3349    0.0000    0.0004 C   0  0  0  0  0  0  0  0  0  0  0  0
  1  8  1  0
  2  3  1  0
  3  4  2  0
  3  5  1  0
  4  6  1  0
  5  7  2  0
  6  8  2  0
  7  8  1  0
M  END
>  <PUBCHEM_COMPOUND_CID>  (1) 
7807

>  <PUBCHEM_CONFORMER_RMSD>  (1) 
0.4

>  <PUBCHEM_CONFORMER_DIVERSEORDER>  (1) 
1

>  <PUBCHEM_MMFF94_PARTIAL_CHARGES>  (1) 
14
1 -0.11
10 0.15
11 0.15
12 0.15
13 0.4
14 0.4
2 -0.9
3 0.1
4 -0.15
5 -0.15
6 -0.15
7 -0.15
8 0.11
9 0.15

>  <PUBCHEM_EFFECTIVE_ROTOR_COUNT>  (1) 
0

>  <PUBCHEM_PHARMACOPHORE_FEATURES>  (1) 
4
1 1 hydrophobe
1 2 cation
1 2 donor
6 3 4 5 6 7 8 rings

>  <PUBCHEM_HEAVY_ATOM_COUNT>  (1) 
8

>  <PUBCHEM_ATOM_DEF_STEREO_COUNT>  (1) 
0

>  <PUBCHEM_ATOM_UDEF_STEREO_COUNT>  (1) 
0

>  <PUBCHEM_BOND_DEF_STEREO_COUNT>  (1) 
0

>  <PUBCHEM_BOND_UDEF_STEREO_COUNT>  (1) 
0

>  <PUBCHEM_ISOTOPIC_ATOM_COUNT>  (1) 
0

>  <PUBCHEM_COMPONENT_COUNT>  (1) 
1

>  <PUBCHEM_CACTVS_TAUTO_COUNT>  (1) 
1

>  <PUBCHEM_CONFORMER_ID>  (1) 
00001E7F00000001

>  <PUBCHEM_MMFF94_ENERGY>  (1) 
27.0603

>  <PUBCHEM_FEATURE_SELFOVERLAP>  (1) 
20.297

>  <PUBCHEM_SHAPE_FINGERPRINT>  (1) 
14325111 11 18410855486230404865
16714656 1 18410857663620458022
16945 1 18410573989546638727
21040471 1 18194401319117919809
23235685 24 18410570695222372141
23402655 69 18195509425914713869
23552423 10 18045227037561713614
2748010 2 18122627424781105727
29004967 10 18333737900963364857
5084963 1 18272652346191012585

>  <PUBCHEM_SHAPE_MULTIPOLES>  (1) 
165.6
3.75
1.35
0.62
1.38
0
0
0
0
-0.1
0
0.09
0
0

>  <PUBCHEM_SHAPE_SELFOVERLAP>  (1) 
327.635

>  <PUBCHEM_SHAPE_VOLUME>  (1) 
102.3

>  <PUBCHEM_COORDINATE_TYPE>  (1) 
2
5
10

$$$$
