7818
     RDKit          3D

  8  8  0  0  0  0  0  0  0  0999 V2000
    1.4117   -0.0001    0.3119 N   0  0  0  0  0  0  0  0  0  0  0  0
   -1.4113   -0.0001   -0.3121 N   0  0  0  0  0  0  0  0  0  0  0  0
    0.7420    1.2060   -0.1903 C   0  0  0  0  0  0  0  0  0  0  0  0
    0.7419   -1.2058   -0.1909 C   0  0  0  0  0  0  0  0  0  0  0  0
   -0.7422    1.2057    0.1915 C   0  0  0  0  0  0  0  0  0  0  0  0
   -0.7421   -1.2055    0.1921 C   0  0  0  0  0  0  0  0  0  0  0  0
    2.8261   -0.0001   -0.0565 C   0  0  0  0  0  0  0  0  0  0  0  0
   -2.8261   -0.0001    0.0543 C   0  0  0  0  0  0  0  0  0  0  0  0
  1  3  1  0
  1  4  1  0
  1  7  1  0
  2  5  1  0
  2  6  1  0
  2  8  1  0
  3  5  1  0
  4  6  1  0
M  END
>  <PUBCHEM_COMPOUND_CID>  (1) 
7818

>  <PUBCHEM_CONFORMER_RMSD>  (1) 
0.4

>  <PUBCHEM_CONFORMER_DIVERSEORDER>  (1) 
1
2
3

>  <PUBCHEM_MMFF94_PARTIAL_CHARGES>  (1) 
8
1 -0.81
2 -0.81
3 0.27
4 0.27
5 0.27
6 0.27
7 0.27
8 0.27

>  <PUBCHEM_EFFECTIVE_ROTOR_COUNT>  (1) 
1.2

>  <PUBCHEM_PHARMACOPHORE_FEATURES>  (1) 
3
1 1 cation
1 2 cation
6 1 2 3 4 5 6 rings

>  <PUBCHEM_HEAVY_ATOM_COUNT>  (1) 
8

>  <PUBCHEM_ATOM_DEF_STEREO_COUNT>  (1) 
0

>  <PUBCHEM_ATOM_UDEF_STEREO_COUNT>  (1) 
0

>  <PUBCHEM_BOND_DEF_STEREO_COUNT>  (1) 
0

>  <PUBCHEM_BOND_UDEF_STEREO_COUNT>  (1) 
0

>  <PUBCHEM_ISOTOPIC_ATOM_COUNT>  (1) 
0

>  <PUBCHEM_COMPONENT_COUNT>  (1) 
1

>  <PUBCHEM_CACTVS_TAUTO_COUNT>  (1) 
1

>  <PUBCHEM_CONFORMER_ID>  (1) 
00001E8A00000001

>  <PUBCHEM_MMFF94_ENERGY>  (1) 
12.9854

>  <PUBCHEM_FEATURE_SELFOVERLAP>  (1) 
15.225

>  <PUBCHEM_SHAPE_FINGERPRINT>  (1) 
15310529 11 16515675641684514468
16714656 1 18410856564156296518
18185500 45 18411133653770996335
20096714 4 18337952393214533383
21040471 1 18410854399281828163
23235685 24 18410853265399957988
23402655 69 18195226842825930357
23552423 10 18045507417411441070
29004967 10 18334862701253078169
5084963 1 18343582936399425768
5460574 1 9367347041493057539

>  <PUBCHEM_SHAPE_MULTIPOLES>  (1) 
154.67
3.42
1.37
0.64
0
0
0
0
0
0
0
0
0
0

>  <PUBCHEM_SHAPE_SELFOVERLAP>  (1) 
292.014

>  <PUBCHEM_SHAPE_VOLUME>  (1) 
95.9

>  <PUBCHEM_COORDINATE_TYPE>  (1) 
2
5
10

$$$$
