7826
     RDKit          3D

 10  9  0  0  0  0  0  0  0  0999 V2000
    3.3736   -0.7051   -0.0097 O   0  0  0  0  0  0  0  0  0  0  0  0
    2.3910    1.3813    0.0300 O   0  0  0  0  0  0  0  0  0  0  0  0
   -1.5126   -0.5802    0.0025 C   0  0  0  0  0  0  0  0  0  0  0  0
   -2.7460    0.3249   -0.0192 C   0  0  0  0  0  0  0  0  0  0  0  0
   -0.2202    0.2421   -0.0141 C   0  0  0  0  0  0  0  0  0  0  0  0
   -4.0365   -0.4929    0.0260 C   0  0  0  0  0  0  0  0  0  0  0  0
    1.0305   -0.6354    0.0354 C   0  0  0  0  0  0  0  0  0  0  0  0
   -5.2649    0.4014   -0.0284 C   0  0  0  0  0  0  0  0  0  0  0  0
    2.3171    0.1602    0.0285 C   0  0  0  0  0  0  0  0  0  0  0  0
    4.6681   -0.0962   -0.0510 C   0  0  0  0  0  0  0  0  0  0  0  0
  1  9  1  0
  1 10  1  0
  2  9  2  0
  3  4  1  0
  3  5  1  0
  4  6  1  0
  5  7  1  0
  6  8  1  0
  7  9  1  0
M  END
>  <PUBCHEM_COMPOUND_CID>  (1) 
7826

>  <PUBCHEM_CONFORMER_RMSD>  (1) 
0.6

>  <PUBCHEM_CONFORMER_DIVERSEORDER>  (1) 
1
108
23
40
123
27
118
107
7
76
122
10
116
97
66
6
112
117
109
71
120
62
8
85
60
63
121
29
5
52
34
86
119
22
50
31
41
104
78
115
32
103
100
91
93
51
45
99
43
73
16
75
124
12
83
74
30
56
18
65
113
11
81
114
82
20
55
79
9
53
102
110
61
69
70
77
24
101
92
95
89
87
38
106
3
36
111
15
59
72
33
105
35
88
39
14
2
80
25
49
90
67
26
17
13
4
64
84
47
46
48
28
58
19
94
37
98
68
96
42
57
54
44
21

>  <PUBCHEM_MMFF94_PARTIAL_CHARGES>  (1) 
5
1 -0.43
10 0.28
2 -0.57
7 0.06
9 0.66

>  <PUBCHEM_EFFECTIVE_ROTOR_COUNT>  (1) 
6

>  <PUBCHEM_PHARMACOPHORE_FEATURES>  (1) 
3
1 2 acceptor
1 8 hydrophobe
5 3 4 5 6 7 hydrophobe

>  <PUBCHEM_HEAVY_ATOM_COUNT>  (1) 
10

>  <PUBCHEM_ATOM_DEF_STEREO_COUNT>  (1) 
0

>  <PUBCHEM_ATOM_UDEF_STEREO_COUNT>  (1) 
0

>  <PUBCHEM_BOND_DEF_STEREO_COUNT>  (1) 
0

>  <PUBCHEM_BOND_UDEF_STEREO_COUNT>  (1) 
0

>  <PUBCHEM_ISOTOPIC_ATOM_COUNT>  (1) 
0

>  <PUBCHEM_COMPONENT_COUNT>  (1) 
1

>  <PUBCHEM_CACTVS_TAUTO_COUNT>  (1) 
1

>  <PUBCHEM_CONFORMER_ID>  (1) 
00001E9200000001

>  <PUBCHEM_MMFF94_ENERGY>  (1) 
2.4416

>  <PUBCHEM_FEATURE_SELFOVERLAP>  (1) 
15.223

>  <PUBCHEM_SHAPE_FINGERPRINT>  (1) 
11062470 55 18409730664471071371
12932764 1 17095787910631997627
14123238 8 11312055452611648403
14325111 11 18410855494846693739
15242439 84 18259703398104050931
17834076 25 16370725924778970823
18342897 14 18411418410113368104
190213 19 17489872643840861123
20645477 70 18271527477103292718
20719005 15 18410856564351553219
20767249 13 11239997845646594589
21119208 17 18201720652081000199
22485316 2 18412823590453444279
23402539 116 17918267645752450437
23402655 69 18341891870694778797
366044 4 18335420171134678587
42788 4 18410012134952315695

>  <PUBCHEM_SHAPE_MULTIPOLES>  (1) 
194.06
10.57
0.92
0.6
3.8
0.13
0
0.41
0.14
-0.25
-0.01
0.06
-0.01
0.03

>  <PUBCHEM_SHAPE_SELFOVERLAP>  (1) 
349.199

>  <PUBCHEM_SHAPE_VOLUME>  (1) 
125.8

>  <PUBCHEM_COORDINATE_TYPE>  (1) 
2
5
10

$$$$
