7829
     RDKit          3D

 16 15  0  0  0  0  0  0  0  0999 V2000
   -6.7665    0.7369   -0.0920 O   0  0  0  0  0  0  0  0  0  0  0  0
    6.7632   -0.7428   -0.0809 O   0  0  0  0  0  0  0  0  0  0  0  0
   -5.8296   -1.3709   -0.0612 O   0  0  0  0  0  0  0  0  0  0  0  0
    5.8245    1.3642   -0.0660 O   0  0  0  0  0  0  0  0  0  0  0  0
   -0.6383   -0.3753    0.1418 C   0  0  0  0  0  0  0  0  0  0  0  0
    0.6693    0.4195    0.1270 C   0  0  0  0  0  0  0  0  0  0  0  0
   -1.8896    0.5082    0.1409 C   0  0  0  0  0  0  0  0  0  0  0  0
    1.8836   -0.5127    0.1051 C   0  0  0  0  0  0  0  0  0  0  0  0
   -3.1967   -0.2898    0.0804 C   0  0  0  0  0  0  0  0  0  0  0  0
    3.1922    0.2819    0.0518 C   0  0  0  0  0  0  0  0  0  0  0  0
   -4.4275    0.6156    0.0135 C   0  0  0  0  0  0  0  0  0  0  0  0
    4.4231   -0.6231    0.0011 C   0  0  0  0  0  0  0  0  0  0  0  0
   -5.7292   -0.1516   -0.0592 C   0  0  0  0  0  0  0  0  0  0  0  0
    5.7250    0.1449   -0.0613 C   0  0  0  0  0  0  0  0  0  0  0  0
   -8.0740    0.1563   -0.1319 C   0  0  0  0  0  0  0  0  0  0  0  0
    8.0706   -0.1615   -0.1090 C   0  0  0  0  0  0  0  0  0  0  0  0
  1 13  1  0
  1 15  1  0
  2 14  1  0
  2 16  1  0
  3 13  2  0
  4 14  2  0
  5  6  1  0
  5  7  1  0
  6  8  1  0
  7  9  1  0
  8 10  1  0
  9 11  1  0
 10 12  1  0
 11 13  1  0
 12 14  1  0
M  END
>  <PUBCHEM_COMPOUND_CID>  (1) 
7829

>  <PUBCHEM_CONFORMER_RMSD>  (1) 
1.2

>  <PUBCHEM_CONFORMER_DIVERSEORDER>  (1) 
1
24
23
73
36
52
29
2
69
41
7
10
32
14
33
38
5
70
55
34
64
6
15
22
63
45
42
9
17
11
4
72
43
57
71
51
3
8
48
27
46
30
16
62
37
13
28
67
40
54
26
47
49
19
50
61
21
20
60
68
39
56
59
44
65
35
18
53
31
66
74
12
25
58

>  <PUBCHEM_MMFF94_PARTIAL_CHARGES>  (1) 
10
1 -0.43
11 0.06
12 0.06
13 0.66
14 0.66
15 0.28
16 0.28
2 -0.43
3 -0.57
4 -0.57

>  <PUBCHEM_EFFECTIVE_ROTOR_COUNT>  (1) 
11

>  <PUBCHEM_PHARMACOPHORE_FEATURES>  (1) 
2
1 3 acceptor
1 4 acceptor

>  <PUBCHEM_HEAVY_ATOM_COUNT>  (1) 
16

>  <PUBCHEM_ATOM_DEF_STEREO_COUNT>  (1) 
0

>  <PUBCHEM_ATOM_UDEF_STEREO_COUNT>  (1) 
0

>  <PUBCHEM_BOND_DEF_STEREO_COUNT>  (1) 
0

>  <PUBCHEM_BOND_UDEF_STEREO_COUNT>  (1) 
0

>  <PUBCHEM_ISOTOPIC_ATOM_COUNT>  (1) 
0

>  <PUBCHEM_COMPONENT_COUNT>  (1) 
1

>  <PUBCHEM_CACTVS_TAUTO_COUNT>  (1) 
1

>  <PUBCHEM_CONFORMER_ID>  (1) 
00001E9500000001

>  <PUBCHEM_MMFF94_ENERGY>  (1) 
10.1936

>  <PUBCHEM_FEATURE_SELFOVERLAP>  (1) 
10.149

>  <PUBCHEM_SHAPE_FINGERPRINT>  (1) 
10066227 49 18059298643741849038
10968037 39 18407759240460033635
11315181 36 18202285814897289961
12091667 2 17821730529418692177
13533116 47 16950552247973547792
14123256 10 18410855451538233771
1420 363 15339121246977110278
14251764 18 18411138013141676960
14251764 46 17561083605256306726
15716309 27 18272368681034182127
17834076 25 18410573985156725898
18006028 8 16845572011150360705
20281389 69 18113052736146355260
20621476 8 17822289072239808711
21315763 28 18411981355856380512
22224240 67 14490193829973147504
23035841 295 17418373601345950631
23521765 1 18341894086539083777
28498 318 18343584014863485118
33684 2 18408885126701324138
42788 4 18410575085032389544
4325135 7 18411138030326814468
4463277 17 18410011039830880089
57583515 80 18040156223394531467
59755656 520 17821723966076467011
8209 1 18410573980856483845

>  <PUBCHEM_SHAPE_MULTIPOLES>  (1) 
305.8
25.99
0.95
0.6
0.16
0
0.01
0.08
-1.88
0
-0.01
0.01
0
-0.01

>  <PUBCHEM_SHAPE_SELFOVERLAP>  (1) 
567.262

>  <PUBCHEM_SHAPE_VOLUME>  (1) 
192.4

>  <PUBCHEM_COORDINATE_TYPE>  (1) 
2
5
10

$$$$
