7832
     RDKit          3D

  9 10  0  0  1  0  0  0  0  0999 V2000
   -2.1842    0.5378   -0.6940 O   0  0  0  0  0  0  0  0  0  0  0  0
   -1.3730    1.0836    0.3651 C   0  0  0  0  0  0  0  0  0  0  0  0
   -1.9986   -0.2819    0.4613 C   0  0  0  0  0  0  0  0  0  0  0  0
    0.0651    1.2554   -0.0151 C   0  0  0  0  0  0  0  0  0  0  0  0
   -1.1725   -1.5089    0.2572 C   0  0  0  0  0  0  0  0  0  0  0  0
    0.8791   -0.0334    0.1750 C   0  0  0  0  0  0  0  0  0  0  0  0
    0.1551   -1.2348   -0.4515 C   0  0  0  0  0  0  0  0  0  0  0  0
    2.2500    0.1304   -0.4054 C   0  0  0  0  0  0  0  0  0  0  0  0
    3.3788    0.0519    0.3073 C   0  0  0  0  0  0  0  0  0  0  0  0
  1  2  1  0
  1  3  1  0
  2  3  1  0
  2  4  1  0
  3  5  1  0
  4  6  1  0
  5  7  1  0
  6  7  1  0
  6  8  1  0
  8  9  2  0
M  END
>  <PUBCHEM_COMPOUND_CID>  (1) 
7832

>  <PUBCHEM_CONFORMER_RMSD>  (1) 
0.4

>  <PUBCHEM_CONFORMER_DIVERSEORDER>  (1) 
1
8
21
16
6
7
2
22
13
17
23
14
5
15
9
20
10
11
12
18
4
19
3

>  <PUBCHEM_MMFF94_PARTIAL_CHARGES>  (1) 
13
1 -0.3
10 0.1
11 0.1
19 0.15
2 -0.05
20 0.15
21 0.15
3 -0.05
4 0.09
5 0.09
6 0.14
8 -0.29
9 -0.3

>  <PUBCHEM_EFFECTIVE_ROTOR_COUNT>  (1) 
2

>  <PUBCHEM_PHARMACOPHORE_FEATURES>  (1) 
3
1 1 acceptor
1 9 hydrophobe
7 1 2 3 4 5 6 7 rings

>  <PUBCHEM_HEAVY_ATOM_COUNT>  (1) 
9

>  <PUBCHEM_ATOM_DEF_STEREO_COUNT>  (1) 
0

>  <PUBCHEM_ATOM_UDEF_STEREO_COUNT>  (1) 
3

>  <PUBCHEM_BOND_DEF_STEREO_COUNT>  (1) 
0

>  <PUBCHEM_BOND_UDEF_STEREO_COUNT>  (1) 
0

>  <PUBCHEM_ISOTOPIC_ATOM_COUNT>  (1) 
0

>  <PUBCHEM_COMPONENT_COUNT>  (1) 
1

>  <PUBCHEM_CACTVS_TAUTO_COUNT>  (1) 
1

>  <PUBCHEM_CONFORMER_ID>  (1) 
00001E9800000001

>  <PUBCHEM_MMFF94_ENERGY>  (1) 
13.3417

>  <PUBCHEM_FEATURE_SELFOVERLAP>  (1) 
15.223

>  <PUBCHEM_SHAPE_FINGERPRINT>  (1) 
10857977 72 18340764944179891800
12932764 1 17748828523040290884
13024252 1 15357696392116542033
14325111 11 18412263904896467152
15310529 11 17095813208115952196
16714656 1 18411984662949277088
16945 1 18410863161009804772
20645464 45 17917713517640664930
20871998 184 18129387162192358870
21040471 1 18338804403030458390
23235685 24 18412544280155925729
23402655 69 18124579909390238685
23552423 10 17971757928412812052
2748010 2 18122356678806806375
29004967 10 16343710928073546176
369184 2 17167863075528761640
5084963 1 18113903796405008681

>  <PUBCHEM_SHAPE_MULTIPOLES>  (1) 
179.35
3.81
1.39
0.75
2.94
0.17
0.01
-0.2
-0.23
-0.56
0
-0.06
0.01
0.1

>  <PUBCHEM_SHAPE_SELFOVERLAP>  (1) 
360.401

>  <PUBCHEM_SHAPE_VOLUME>  (1) 
105.3

>  <PUBCHEM_COORDINATE_TYPE>  (1) 
2
5
10

$$$$
