7840
     RDKit          3D

  4  3  0  0  0  0  0  0  0  0999 V2000
    2.2106    0.1830   -0.0105 Br  0  0  0  0  0  0  0  0  0  0  0  0
   -0.6170    0.4983    0.0140 C   0  0  0  0  0  0  0  0  0  0  0  0
    0.4292   -0.6017    0.0102 C   0  0  0  0  0  0  0  0  0  0  0  0
   -2.0227   -0.0797   -0.0136 C   0  0  0  0  0  0  0  0  0  0  0  0
  1  3  1  0
  2  3  1  0
  2  4  1  0
M  END
>  <PUBCHEM_COMPOUND_CID>  (1) 
7840

>  <PUBCHEM_CONFORMER_RMSD>  (1) 
0.4

>  <PUBCHEM_CONFORMER_DIVERSEORDER>  (1) 
1
3
2

>  <PUBCHEM_MMFF94_PARTIAL_CHARGES>  (1) 
2
1 -0.23
3 0.23

>  <PUBCHEM_EFFECTIVE_ROTOR_COUNT>  (1) 
1

>  <PUBCHEM_PHARMACOPHORE_FEATURES>  (1) 
2
1 1 hydrophobe
1 4 hydrophobe

>  <PUBCHEM_HEAVY_ATOM_COUNT>  (1) 
4

>  <PUBCHEM_ATOM_DEF_STEREO_COUNT>  (1) 
0

>  <PUBCHEM_ATOM_UDEF_STEREO_COUNT>  (1) 
0

>  <PUBCHEM_BOND_DEF_STEREO_COUNT>  (1) 
0

>  <PUBCHEM_BOND_UDEF_STEREO_COUNT>  (1) 
0

>  <PUBCHEM_ISOTOPIC_ATOM_COUNT>  (1) 
0

>  <PUBCHEM_COMPONENT_COUNT>  (1) 
1

>  <PUBCHEM_CACTVS_TAUTO_COUNT>  (1) 
1

>  <PUBCHEM_CONFORMER_ID>  (1) 
00001EA000000001

>  <PUBCHEM_MMFF94_ENERGY>  (1) 
-2.1337

>  <PUBCHEM_FEATURE_SELFOVERLAP>  (1) 
10.149

>  <PUBCHEM_SHAPE_FINGERPRINT>  (1) 
139733 1 9007057967644567817
16714656 1 18273215317550620670
20096714 4 18410856581483995128
21015797 1 9222354434696014411
5460574 1 9295291638067811616

>  <PUBCHEM_SHAPE_MULTIPOLES>  (1) 
88.26
3.18
0.8
0.65
0.36
0.01
0
-0.18
0.02
0.06
0
0.07
-0.01
0

>  <PUBCHEM_SHAPE_SELFOVERLAP>  (1) 
131.25

>  <PUBCHEM_SHAPE_VOLUME>  (1) 
66.2

>  <PUBCHEM_COORDINATE_TYPE>  (1) 
2
5
10

$$$$
