7841
     RDKit          3D

  4  3  0  0  0  0  0  0  0  0999 V2000
    2.0239   -0.4356   -0.0444 Br  0  0  0  0  0  0  0  0  0  0  0  0
    0.4703    0.7299   -0.1382 C   0  0  0  0  0  0  0  0  0  0  0  0
   -0.6974    0.0086    0.4393 C   0  0  0  0  0  0  0  0  0  0  0  0
   -1.7967   -0.3029   -0.2567 C   0  0  0  0  0  0  0  0  0  0  0  0
  1  2  1  0
  2  3  1  0
  3  4  2  0
M  END
>  <PUBCHEM_COMPOUND_CID>  (1) 
7841

>  <PUBCHEM_CONFORMER_RMSD>  (1) 
0.4

>  <PUBCHEM_CONFORMER_DIVERSEORDER>  (1) 
2
3
1

>  <PUBCHEM_MMFF94_PARTIAL_CHARGES>  (1) 
7
1 -0.23
2 0.37
3 -0.29
4 -0.3
7 0.15
8 0.15
9 0.15

>  <PUBCHEM_EFFECTIVE_ROTOR_COUNT>  (1) 
1

>  <PUBCHEM_PHARMACOPHORE_FEATURES>  (1) 
2
1 1 hydrophobe
1 4 hydrophobe

>  <PUBCHEM_HEAVY_ATOM_COUNT>  (1) 
4

>  <PUBCHEM_ATOM_DEF_STEREO_COUNT>  (1) 
0

>  <PUBCHEM_ATOM_UDEF_STEREO_COUNT>  (1) 
0

>  <PUBCHEM_BOND_DEF_STEREO_COUNT>  (1) 
0

>  <PUBCHEM_BOND_UDEF_STEREO_COUNT>  (1) 
0

>  <PUBCHEM_ISOTOPIC_ATOM_COUNT>  (1) 
0

>  <PUBCHEM_COMPONENT_COUNT>  (1) 
1

>  <PUBCHEM_CACTVS_TAUTO_COUNT>  (1) 
1

>  <PUBCHEM_CONFORMER_ID>  (1) 
00001EA100000002

>  <PUBCHEM_MMFF94_ENERGY>  (1) 
0.0918

>  <PUBCHEM_FEATURE_SELFOVERLAP>  (1) 
10.149

>  <PUBCHEM_SHAPE_FINGERPRINT>  (1) 
139733 1 9007055760073543208
16714656 1 14996284712516775143
20096714 4 8286198344738756182
21015797 1 11814169487607875897
29004967 10 18408326600759338178
5460574 1 9583522014214274602

>  <PUBCHEM_SHAPE_MULTIPOLES>  (1) 
88.26
2.78
0.85
0.72
0.46
0.05
0.01
-0.66
-0.19
0.13
-0.03
0
-0.01
-0.04

>  <PUBCHEM_SHAPE_SELFOVERLAP>  (1) 
135.897

>  <PUBCHEM_SHAPE_VOLUME>  (1) 
65.2

>  <PUBCHEM_COORDINATE_TYPE>  (1) 
2
5
10

$$$$
