7843
     RDKit          3D

  4  3  0  0  0  0  0  0  0  0999 V2000
   -0.5630    0.5160    0.0071 C   0  0  0  0  0  0  0  0  0  0  0  0
    0.5630   -0.5159    0.0071 C   0  0  0  0  0  0  0  0  0  0  0  0
   -1.9293   -0.1506   -0.0071 C   0  0  0  0  0  0  0  0  0  0  0  0
    1.9294    0.1505   -0.0071 C   0  0  0  0  0  0  0  0  0  0  0  0
  1  2  1  0
  1  3  1  0
  2  4  1  0
M  END
>  <PUBCHEM_COMPOUND_CID>  (1) 
7843

>  <PUBCHEM_CONFORMER_RMSD>  (1) 
0.4

>  <PUBCHEM_CONFORMER_DIVERSEORDER>  (1) 
1
3
2

>  <PUBCHEM_MMFF94_PARTIAL_CHARGES>  (1) 
0

>  <PUBCHEM_EFFECTIVE_ROTOR_COUNT>  (1) 
1

>  <PUBCHEM_PHARMACOPHORE_FEATURES>  (1) 
2
1 3 hydrophobe
1 4 hydrophobe

>  <PUBCHEM_HEAVY_ATOM_COUNT>  (1) 
4

>  <PUBCHEM_ATOM_DEF_STEREO_COUNT>  (1) 
0

>  <PUBCHEM_ATOM_UDEF_STEREO_COUNT>  (1) 
0

>  <PUBCHEM_BOND_DEF_STEREO_COUNT>  (1) 
0

>  <PUBCHEM_BOND_UDEF_STEREO_COUNT>  (1) 
0

>  <PUBCHEM_ISOTOPIC_ATOM_COUNT>  (1) 
0

>  <PUBCHEM_COMPONENT_COUNT>  (1) 
1

>  <PUBCHEM_CACTVS_TAUTO_COUNT>  (1) 
1

>  <PUBCHEM_CONFORMER_ID>  (1) 
00001EA300000001

>  <PUBCHEM_MMFF94_ENERGY>  (1) 
-5.0725

>  <PUBCHEM_FEATURE_SELFOVERLAP>  (1) 
10.149

>  <PUBCHEM_SHAPE_FINGERPRINT>  (1) 
139733 1 9151174250963444929
16714656 1 18273218616069692790
20096714 4 18412826910499937960
21015797 1 9294413132392824864
5460574 1 9295291637888450562

>  <PUBCHEM_SHAPE_MULTIPOLES>  (1) 
82.32
2.64
0.76
0.62
0
0
0
0
-0.01
0
0
0
0
0

>  <PUBCHEM_SHAPE_SELFOVERLAP>  (1) 
130.674

>  <PUBCHEM_SHAPE_VOLUME>  (1) 
59.3

>  <PUBCHEM_COORDINATE_TYPE>  (1) 
2
5
10

$$$$
