7849
     RDKit          3D

  4  3  0  0  0  0  0  0  0  0999 V2000
   -2.2688    0.1467    0.0141 Br  0  0  0  0  0  0  0  0  0  0  0  0
    2.1937   -0.1065    0.0155 Cl  0  0  0  0  0  0  0  0  0  0  0  0
   -0.4646   -0.5857   -0.0139 C   0  0  0  0  0  0  0  0  0  0  0  0
    0.5397    0.5454   -0.0157 C   0  0  0  0  0  0  0  0  0  0  0  0
  1  3  1  0
  2  4  1  0
  3  4  1  0
M  END
>  <PUBCHEM_COMPOUND_CID>  (1) 
7849

>  <PUBCHEM_CONFORMER_RMSD>  (1) 
0.4

>  <PUBCHEM_CONFORMER_DIVERSEORDER>  (1) 
1
3
2

>  <PUBCHEM_MMFF94_PARTIAL_CHARGES>  (1) 
4
1 -0.23
2 -0.29
3 0.23
4 0.29

>  <PUBCHEM_EFFECTIVE_ROTOR_COUNT>  (1) 
1

>  <PUBCHEM_PHARMACOPHORE_FEATURES>  (1) 
1
1 1 hydrophobe

>  <PUBCHEM_HEAVY_ATOM_COUNT>  (1) 
4

>  <PUBCHEM_ATOM_DEF_STEREO_COUNT>  (1) 
0

>  <PUBCHEM_ATOM_UDEF_STEREO_COUNT>  (1) 
0

>  <PUBCHEM_BOND_DEF_STEREO_COUNT>  (1) 
0

>  <PUBCHEM_BOND_UDEF_STEREO_COUNT>  (1) 
0

>  <PUBCHEM_ISOTOPIC_ATOM_COUNT>  (1) 
0

>  <PUBCHEM_COMPONENT_COUNT>  (1) 
1

>  <PUBCHEM_CACTVS_TAUTO_COUNT>  (1) 
1

>  <PUBCHEM_CONFORMER_ID>  (1) 
00001EA900000001

>  <PUBCHEM_MMFF94_ENERGY>  (1) 
0.457

>  <PUBCHEM_FEATURE_SELFOVERLAP>  (1) 
5.074

>  <PUBCHEM_SHAPE_FINGERPRINT>  (1) 
139733 1 9511463325012427204
16714656 1 18260548913576100597
20096714 4 18409449232196172289
5460574 1 9295291642251996129

>  <PUBCHEM_SHAPE_MULTIPOLES>  (1) 
90.13
3.48
0.81
0.66
0.07
0
0
-0.08
0.04
0.04
0
0.05
0
0

>  <PUBCHEM_SHAPE_SELFOVERLAP>  (1) 
128.806

>  <PUBCHEM_SHAPE_VOLUME>  (1) 
69.6

>  <PUBCHEM_COORDINATE_TYPE>  (1) 
2
5
10

$$$$
