7856
     RDKit          3D

  4  3  0  0  0  0  0  0  0  0999 V2000
   -1.8465   -0.5327    0.0000 Cl  0  0  0  0  0  0  0  0  0  0  0  0
    1.7603   -0.3494   -0.0001 N   0  0  0  0  0  0  0  0  0  0  0  0
   -0.6193    0.7480    0.0000 C   0  0  0  0  0  0  0  0  0  0  0  0
    0.7055    0.1341    0.0001 C   0  0  0  0  0  0  0  0  0  0  0  0
  1  3  1  0
  2  4  3  0
  3  4  1  0
M  END
>  <PUBCHEM_COMPOUND_CID>  (1) 
7856

>  <PUBCHEM_CONFORMER_RMSD>  (1) 
0.4

>  <PUBCHEM_CONFORMER_DIVERSEORDER>  (1) 
1

>  <PUBCHEM_MMFF94_PARTIAL_CHARGES>  (1) 
4
1 -0.29
2 -0.56
3 0.49
4 0.36

>  <PUBCHEM_EFFECTIVE_ROTOR_COUNT>  (1) 
0

>  <PUBCHEM_PHARMACOPHORE_FEATURES>  (1) 
1
1 2 acceptor

>  <PUBCHEM_HEAVY_ATOM_COUNT>  (1) 
4

>  <PUBCHEM_ATOM_DEF_STEREO_COUNT>  (1) 
0

>  <PUBCHEM_ATOM_UDEF_STEREO_COUNT>  (1) 
0

>  <PUBCHEM_BOND_DEF_STEREO_COUNT>  (1) 
0

>  <PUBCHEM_BOND_UDEF_STEREO_COUNT>  (1) 
0

>  <PUBCHEM_ISOTOPIC_ATOM_COUNT>  (1) 
0

>  <PUBCHEM_COMPONENT_COUNT>  (1) 
1

>  <PUBCHEM_CACTVS_TAUTO_COUNT>  (1) 
1

>  <PUBCHEM_CONFORMER_ID>  (1) 
00001EB000000001

>  <PUBCHEM_MMFF94_ENERGY>  (1) 
-0.0508

>  <PUBCHEM_FEATURE_SELFOVERLAP>  (1) 
5.074

>  <PUBCHEM_SHAPE_FINGERPRINT>  (1) 
139733 1 9295294940897655745
21015797 1 10086765200433929040
5460574 1 9223236247232081475
5943 1 15264776771959613673

>  <PUBCHEM_SHAPE_MULTIPOLES>  (1) 
79.21
2.39
0.86
0.61
0.1
0.08
0
-0.64
0
0.16
0
0.06
0
0

>  <PUBCHEM_SHAPE_SELFOVERLAP>  (1) 
127.168

>  <PUBCHEM_SHAPE_VOLUME>  (1) 
54.5

>  <PUBCHEM_COORDINATE_TYPE>  (1) 
2
5
10

$$$$
