7861
     RDKit          3D

  4  3  0  0  0  0  0  0  0  0999 V2000
    0.5506    0.5121    0.0712 O   0  0  0  0  0  0  0  0  0  0  0  0
    1.7483   -0.2328   -0.1202 C   0  0  0  0  0  0  0  0  0  0  0  0
   -0.5272   -0.2973    0.2071 C   0  0  0  0  0  0  0  0  0  0  0  0
   -1.7717    0.0179   -0.1581 C   0  0  0  0  0  0  0  0  0  0  0  0
  1  2  1  0
  1  3  1  0
  3  4  2  0
M  END
>  <PUBCHEM_COMPOUND_CID>  (1) 
7861

>  <PUBCHEM_CONFORMER_RMSD>  (1) 
0.4

>  <PUBCHEM_CONFORMER_DIVERSEORDER>  (1) 
1
2
3

>  <PUBCHEM_MMFF94_PARTIAL_CHARGES>  (1) 
7
1 -0.36
10 0.15
2 0.28
3 -0.07
4 -0.3
8 0.15
9 0.15

>  <PUBCHEM_EFFECTIVE_ROTOR_COUNT>  (1) 
1

>  <PUBCHEM_PHARMACOPHORE_FEATURES>  (1) 
1
1 1 acceptor

>  <PUBCHEM_HEAVY_ATOM_COUNT>  (1) 
4

>  <PUBCHEM_ATOM_DEF_STEREO_COUNT>  (1) 
0

>  <PUBCHEM_ATOM_UDEF_STEREO_COUNT>  (1) 
0

>  <PUBCHEM_BOND_DEF_STEREO_COUNT>  (1) 
0

>  <PUBCHEM_BOND_UDEF_STEREO_COUNT>  (1) 
0

>  <PUBCHEM_ISOTOPIC_ATOM_COUNT>  (1) 
0

>  <PUBCHEM_COMPONENT_COUNT>  (1) 
1

>  <PUBCHEM_CACTVS_TAUTO_COUNT>  (1) 
1

>  <PUBCHEM_CONFORMER_ID>  (1) 
00001EB500000001

>  <PUBCHEM_MMFF94_ENERGY>  (1) 
9.7932

>  <PUBCHEM_FEATURE_SELFOVERLAP>  (1) 
5.074

>  <PUBCHEM_SHAPE_FINGERPRINT>  (1) 
139733 1 11097858496966405742
20096714 4 12540702530441595878
21015797 1 9797961978782051395
5460574 1 9295291637888483055

>  <PUBCHEM_SHAPE_MULTIPOLES>  (1) 
76.45
2.39
0.68
0.62
0.13
0.01
0.01
0.1
0.21
0.02
-0.01
-0.02
0.02
0.03

>  <PUBCHEM_SHAPE_SELFOVERLAP>  (1) 
127.016

>  <PUBCHEM_SHAPE_VOLUME>  (1) 
53.2

>  <PUBCHEM_COORDINATE_TYPE>  (1) 
2
5
10

$$$$
