7870
     RDKit          3D

  8  7  0  0  1  0  0  0  0  0999 V2000
    1.1653    1.2597    0.5401 O   0  0  0  0  0  0  0  0  0  0  0  0
   -1.6056    1.2625    0.1778 O   0  0  0  0  0  0  0  0  0  0  0  0
    1.1432   -0.0663    0.0100 C   0  0  0  0  0  0  0  0  0  0  0  0
   -0.2154   -0.7369    0.3202 C   0  0  0  0  0  0  0  0  0  0  0  0
   -1.4532   -0.0690   -0.3015 C   0  0  0  0  0  0  0  0  0  0  0  0
    2.2735   -0.8536    0.6830 C   0  0  0  0  0  0  0  0  0  0  0  0
    1.4133    0.0363   -1.4916 C   0  0  0  0  0  0  0  0  0  0  0  0
   -2.7210   -0.8326    0.0621 C   0  0  0  0  0  0  0  0  0  0  0  0
  1  3  1  0
  2  5  1  0
  3  4  1  0
  3  6  1  0
  3  7  1  0
  4  5  1  0
  5  8  1  0
M  END
>  <PUBCHEM_COMPOUND_CID>  (1) 
7870

>  <PUBCHEM_CONFORMER_RMSD>  (1) 
0.4

>  <PUBCHEM_CONFORMER_DIVERSEORDER>  (1) 
2
5
6
3
7
9
1
8
10
4

>  <PUBCHEM_MMFF94_PARTIAL_CHARGES>  (1) 
6
1 -0.68
2 -0.68
21 0.4
22 0.4
3 0.28
5 0.28

>  <PUBCHEM_EFFECTIVE_ROTOR_COUNT>  (1) 
2

>  <PUBCHEM_PHARMACOPHORE_FEATURES>  (1) 
5
1 1 acceptor
1 1 donor
1 2 acceptor
1 2 donor
3 3 6 7 hydrophobe

>  <PUBCHEM_HEAVY_ATOM_COUNT>  (1) 
8

>  <PUBCHEM_ATOM_DEF_STEREO_COUNT>  (1) 
0

>  <PUBCHEM_ATOM_UDEF_STEREO_COUNT>  (1) 
1

>  <PUBCHEM_BOND_DEF_STEREO_COUNT>  (1) 
0

>  <PUBCHEM_BOND_UDEF_STEREO_COUNT>  (1) 
0

>  <PUBCHEM_ISOTOPIC_ATOM_COUNT>  (1) 
0

>  <PUBCHEM_COMPONENT_COUNT>  (1) 
1

>  <PUBCHEM_CACTVS_TAUTO_COUNT>  (1) 
1

>  <PUBCHEM_CONFORMER_ID>  (1) 
00001EBE00000002

>  <PUBCHEM_MMFF94_ENERGY>  (1) 
15.4255

>  <PUBCHEM_FEATURE_SELFOVERLAP>  (1) 
25.379

>  <PUBCHEM_SHAPE_FINGERPRINT>  (1) 
14128692 85 18041002787134305366
20653091 64 17967532372104329962
21040471 1 17980769233587872113
23235687 12 17632573898459899279
23552423 10 17821729420673921939
24536 1 17203615869295981609
29004967 10 16630810997392027178
5084963 1 17676201368735576955

>  <PUBCHEM_SHAPE_MULTIPOLES>  (1) 
152.9
3.4
1.16
1
1.36
0.08
0.31
-0.75
-0.04
0
-0.21
-0.48
0.17
-0.27

>  <PUBCHEM_SHAPE_SELFOVERLAP>  (1) 
276.856

>  <PUBCHEM_SHAPE_VOLUME>  (1) 
99.8

>  <PUBCHEM_COORDINATE_TYPE>  (1) 
2
5
10

$$$$
