7882
     RDKit          3D

  8  7  0  0  0  0  0  0  0  0999 V2000
    1.5051   -0.1543    0.0141 S   0  0  0  0  0  0  0  0  0  0  0  0
    2.5039    1.1230   -0.1638 O   0  0  0  0  0  0  0  0  0  0  0  0
    1.5767   -0.9729   -1.1825 O   0  0  0  0  0  0  0  0  0  0  0  0
    1.7052   -0.7216    1.3351 O   0  0  0  0  0  0  0  0  0  0  0  0
   -2.4621    0.5445   -0.0044 N   0  0  0  0  0  0  0  0  0  0  0  0
   -0.0162    0.7411    0.0046 C   0  0  0  0  0  0  0  0  0  0  0  0
   -1.2090   -0.2004   -0.0188 C   0  0  0  0  0  0  0  0  0  0  0  0
   -3.6036   -0.3594    0.0157 C   0  0  0  0  0  0  0  0  0  0  0  0
  1  2  1  0
  1  3  2  0
  1  4  2  0
  1  6  1  0
  5  7  1  0
  5  8  1  0
  6  7  1  0
M  END
>  <PUBCHEM_COMPOUND_CID>  (1) 
7882

>  <PUBCHEM_CONFORMER_RMSD>  (1) 
0.6

>  <PUBCHEM_CONFORMER_DIVERSEORDER>  (1) 
1
7
5
6
3
2
4

>  <PUBCHEM_MMFF94_PARTIAL_CHARGES>  (1) 
10
1 1.38
13 0.36
17 0.5
2 -0.68
3 -0.65
4 -0.65
5 -0.9
6 0.11
7 0.27
8 0.27

>  <PUBCHEM_EFFECTIVE_ROTOR_COUNT>  (1) 
3

>  <PUBCHEM_PHARMACOPHORE_FEATURES>  (1) 
6
1 2 acceptor
1 3 acceptor
1 4 acceptor
1 5 cation
1 5 donor
4 1 2 3 4 anion

>  <PUBCHEM_HEAVY_ATOM_COUNT>  (1) 
8

>  <PUBCHEM_ATOM_DEF_STEREO_COUNT>  (1) 
0

>  <PUBCHEM_ATOM_UDEF_STEREO_COUNT>  (1) 
0

>  <PUBCHEM_BOND_DEF_STEREO_COUNT>  (1) 
0

>  <PUBCHEM_BOND_UDEF_STEREO_COUNT>  (1) 
0

>  <PUBCHEM_ISOTOPIC_ATOM_COUNT>  (1) 
0

>  <PUBCHEM_COMPONENT_COUNT>  (1) 
1

>  <PUBCHEM_CACTVS_TAUTO_COUNT>  (1) 
1

>  <PUBCHEM_CONFORMER_ID>  (1) 
00001ECA00000001

>  <PUBCHEM_MMFF94_ENERGY>  (1) 
1.3025

>  <PUBCHEM_FEATURE_SELFOVERLAP>  (1) 
30.5

>  <PUBCHEM_SHAPE_FINGERPRINT>  (1) 
12932764 1 17967536735981052029
14325111 11 18410012135268846285
14390081 3 18040435494916141877
170605 34 18336830900176433468
23235685 24 18060416945170224444
23552333 60 18408039593854376376
23552449 11 18334569127195355936
29004967 10 17917709089144260961
3248919 1 18201996604099000809
5460574 1 9367349232306284077

>  <PUBCHEM_SHAPE_MULTIPOLES>  (1) 
145.9
4.81
0.99
0.9
4.11
0.06
-0.07
-0.1
-0.01
-0.43
0.06
-0.54
-0.27
-0.03

>  <PUBCHEM_SHAPE_SELFOVERLAP>  (1) 
252.483

>  <PUBCHEM_SHAPE_VOLUME>  (1) 
97.5

>  <PUBCHEM_COORDINATE_TYPE>  (1) 
2
5
10

$$$$
