7883
     RDKit          3D

  9  8  0  0  0  0  0  0  0  0999 V2000
   -2.8386    1.3006    0.0002 Cl  0  0  0  0  0  0  0  0  0  0  0  0
   -1.8294   -1.0043    1.4570 Cl  0  0  0  0  0  0  0  0  0  0  0  0
   -1.8295   -1.0035   -1.4574 Cl  0  0  0  0  0  0  0  0  0  0  0  0
    0.8101   -0.3632    0.0000 O   0  0  0  0  0  0  0  0  0  0  0  0
    2.4245    1.2778    0.0002 O   0  0  0  0  0  0  0  0  0  0  0  0
    2.9788   -0.9537   -0.0002 N   0  0  0  0  0  0  0  0  0  0  0  0
   -0.2098    0.6421    0.0002 C   0  0  0  0  0  0  0  0  0  0  0  0
   -1.6005    0.0076    0.0001 C   0  0  0  0  0  0  0  0  0  0  0  0
    2.0945    0.0967    0.0000 C   0  0  0  0  0  0  0  0  0  0  0  0
  1  8  1  0
  2  8  1  0
  3  8  1  0
  4  7  1  0
  4  9  1  0
  5  9  2  0
  6  9  1  0
  7  8  1  0
M  END
>  <PUBCHEM_COMPOUND_CID>  (1) 
7883

>  <PUBCHEM_CONFORMER_RMSD>  (1) 
0.6

>  <PUBCHEM_CONFORMER_DIVERSEORDER>  (1) 
1
4
5
3
2

>  <PUBCHEM_MMFF94_PARTIAL_CHARGES>  (1) 
11
1 -0.29
12 0.37
13 0.37
2 -0.29
3 -0.29
4 -0.43
5 -0.57
6 -0.8
7 0.28
8 0.87
9 0.78

>  <PUBCHEM_EFFECTIVE_ROTOR_COUNT>  (1) 
3

>  <PUBCHEM_PHARMACOPHORE_FEATURES>  (1) 
2
1 5 acceptor
1 6 donor

>  <PUBCHEM_HEAVY_ATOM_COUNT>  (1) 
9

>  <PUBCHEM_ATOM_DEF_STEREO_COUNT>  (1) 
0

>  <PUBCHEM_ATOM_UDEF_STEREO_COUNT>  (1) 
0

>  <PUBCHEM_BOND_DEF_STEREO_COUNT>  (1) 
0

>  <PUBCHEM_BOND_UDEF_STEREO_COUNT>  (1) 
0

>  <PUBCHEM_ISOTOPIC_ATOM_COUNT>  (1) 
0

>  <PUBCHEM_COMPONENT_COUNT>  (1) 
1

>  <PUBCHEM_CACTVS_TAUTO_COUNT>  (1) 
2

>  <PUBCHEM_CONFORMER_ID>  (1) 
00001ECB00000001

>  <PUBCHEM_MMFF94_ENERGY>  (1) 
9.686

>  <PUBCHEM_FEATURE_SELFOVERLAP>  (1) 
10.148

>  <PUBCHEM_SHAPE_FINGERPRINT>  (1) 
12932741 1 17749104525954255942
12932764 1 18059581338045451368
14390081 3 18410571799060979561
15310529 11 18340490061925200227
19973954 147 18187653547502209324
20653085 51 18271810073361405113
23552423 10 18341324552601452926
29004967 10 18261680371276171272
3248919 1 18041272261845595540
369184 2 18341895212052610995

>  <PUBCHEM_SHAPE_MULTIPOLES>  (1) 
174.11
4.61
1.36
1.15
2.58
0.16
0
0.45
0
-0.41
0
-0.95
-0.55
0

>  <PUBCHEM_SHAPE_SELFOVERLAP>  (1) 
301.986

>  <PUBCHEM_SHAPE_VOLUME>  (1) 
116

>  <PUBCHEM_COORDINATE_TYPE>  (1) 
2
5
10

$$$$
