7887
     RDKit          3D

 12 11  0  0  1  0  0  0  0  0999 V2000
    2.7312    1.4683    0.6806 O   0  0  0  0  0  0  0  0  0  0  0  0
    4.5216    0.2272   -0.9711 O   0  0  0  0  0  0  0  0  0  0  0  0
    1.2077   -0.4207    0.7996 C   0  0  0  0  0  0  0  0  0  0  0  0
    0.1916    0.2540   -0.1496 C   0  0  0  0  0  0  0  0  0  0  0  0
   -1.2862   -0.0301    0.1518 C   0  0  0  0  0  0  0  0  0  0  0  0
   -2.3015    0.6776   -0.7537 C   0  0  0  0  0  0  0  0  0  0  0  0
    2.6601    0.0460    0.5328 C   0  0  0  0  0  0  0  0  0  0  0  0
   -3.7815    0.3452   -0.4859 C   0  0  0  0  0  0  0  0  0  0  0  0
    1.1040   -1.9478    0.7524 C   0  0  0  0  0  0  0  0  0  0  0  0
    3.2014   -0.2978   -0.8531 C   0  0  0  0  0  0  0  0  0  0  0  0
   -4.0745   -1.1498   -0.6170 C   0  0  0  0  0  0  0  0  0  0  0  0
   -4.1739    0.8279    0.9133 C   0  0  0  0  0  0  0  0  0  0  0  0
  1  7  1  0
  2 10  1  0
  3  4  1  0
  3  7  1  0
  3  9  1  0
  4  5  1  0
  5  6  1  0
  6  8  1  0
  7 10  1  0
  8 11  1  0
  8 12  1  0
M  END
>  <PUBCHEM_COMPOUND_CID>  (1) 
7887

>  <PUBCHEM_CONFORMER_RMSD>  (1) 
0.6

>  <PUBCHEM_CONFORMER_DIVERSEORDER>  (1) 
1
2
32
30
49
11
34
46
23
20
48
7
38
4
15
41
44
37
9
43
40
19
29
5
13
31
21
35
6
17
28
24
3
33
39
47
12
45
16
8
22
10
18
26
14
42
25
36
27

>  <PUBCHEM_MMFF94_PARTIAL_CHARGES>  (1) 
6
1 -0.68
10 0.28
2 -0.68
33 0.4
34 0.4
7 0.28

>  <PUBCHEM_EFFECTIVE_ROTOR_COUNT>  (1) 
6

>  <PUBCHEM_PHARMACOPHORE_FEATURES>  (1) 
7
1 1 acceptor
1 1 donor
1 2 acceptor
1 2 donor
1 9 hydrophobe
3 8 11 12 hydrophobe
5 3 4 5 6 8 hydrophobe

>  <PUBCHEM_HEAVY_ATOM_COUNT>  (1) 
12

>  <PUBCHEM_ATOM_DEF_STEREO_COUNT>  (1) 
0

>  <PUBCHEM_ATOM_UDEF_STEREO_COUNT>  (1) 
2

>  <PUBCHEM_BOND_DEF_STEREO_COUNT>  (1) 
0

>  <PUBCHEM_BOND_UDEF_STEREO_COUNT>  (1) 
0

>  <PUBCHEM_ISOTOPIC_ATOM_COUNT>  (1) 
0

>  <PUBCHEM_COMPONENT_COUNT>  (1) 
1

>  <PUBCHEM_CACTVS_TAUTO_COUNT>  (1) 
1

>  <PUBCHEM_CONFORMER_ID>  (1) 
00001ECF00000001

>  <PUBCHEM_MMFF94_ENERGY>  (1) 
17.844

>  <PUBCHEM_FEATURE_SELFOVERLAP>  (1) 
35.536

>  <PUBCHEM_SHAPE_FINGERPRINT>  (1) 
10130415 120 12247677188328712310
107287 299 18113903719164325347
10751810 167 17489872622344906321
11031198 65 18187366497815957210
11062470 55 14129058110279513581
124424 183 13470685932377456307
12932764 1 18337662036619988029
14445660 50 18412825764276374577
17834072 14 7925913673021027927
18186145 218 18342733018359258977
190213 19 17632853131563888705
19422 9 17846778524816466685
1986462 14 17917712400980855677
20279233 1 15936407806710856763
20339313 130 16559031601402593184
20645477 70 17970050163859935523
21119208 17 17132117922429246548
22169311 21 13623523537627747385
22485316 2 14620505723045506524
23402539 116 18411697678046503612
23402655 69 18261669273233737213
4990 188 18202286896437939574
581208 293 18040426677105592683
633830 44 18343580758914446741
81539 233 16950563264143084050

>  <PUBCHEM_SHAPE_MULTIPOLES>  (1) 
235.22
8.91
1.32
1.06
2.18
0.51
0
-1.16
-1.54
-0.11
0.24
-0.1
-0.03
-0.41

>  <PUBCHEM_SHAPE_SELFOVERLAP>  (1) 
426.843

>  <PUBCHEM_SHAPE_VOLUME>  (1) 
151.4

>  <PUBCHEM_COORDINATE_TYPE>  (1) 
2
5
10

$$$$
