7899
     RDKit          3D

  6  5  0  0  0  0  0  0  0  0999 V2000
    2.9703    0.2510   -0.0008 Cl  0  0  0  0  0  0  0  0  0  0  0  0
   -2.0999    0.9182   -0.0208 O   0  0  0  0  0  0  0  0  0  0  0  0
   -1.3533   -1.2282    0.0077 O   0  0  0  0  0  0  0  0  0  0  0  0
    0.2597    0.5713    0.0307 C   0  0  0  0  0  0  0  0  0  0  0  0
    1.3493   -0.4868   -0.0233 C   0  0  0  0  0  0  0  0  0  0  0  0
   -1.1261   -0.0255    0.0066 C   0  0  0  0  0  0  0  0  0  0  0  0
  1  5  1  0
  2  6  1  0
  3  6  2  0
  4  5  1  0
  4  6  1  0
M  END
>  <PUBCHEM_COMPOUND_CID>  (1) 
7899

>  <PUBCHEM_CONFORMER_RMSD>  (1) 
0.4

>  <PUBCHEM_CONFORMER_DIVERSEORDER>  (1) 
1
6
3
8
5
7
2
4

>  <PUBCHEM_MMFF94_PARTIAL_CHARGES>  (1) 
7
1 -0.29
11 0.5
2 -0.65
3 -0.57
4 0.06
5 0.29
6 0.66

>  <PUBCHEM_EFFECTIVE_ROTOR_COUNT>  (1) 
2

>  <PUBCHEM_PHARMACOPHORE_FEATURES>  (1) 
3
1 2 acceptor
1 3 acceptor
3 2 3 6 anion

>  <PUBCHEM_HEAVY_ATOM_COUNT>  (1) 
6

>  <PUBCHEM_ATOM_DEF_STEREO_COUNT>  (1) 
0

>  <PUBCHEM_ATOM_UDEF_STEREO_COUNT>  (1) 
0

>  <PUBCHEM_BOND_DEF_STEREO_COUNT>  (1) 
0

>  <PUBCHEM_BOND_UDEF_STEREO_COUNT>  (1) 
0

>  <PUBCHEM_ISOTOPIC_ATOM_COUNT>  (1) 
0

>  <PUBCHEM_COMPONENT_COUNT>  (1) 
1

>  <PUBCHEM_CACTVS_TAUTO_COUNT>  (1) 
1

>  <PUBCHEM_CONFORMER_ID>  (1) 
00001EDB00000001

>  <PUBCHEM_MMFF94_ENERGY>  (1) 
2.6993

>  <PUBCHEM_FEATURE_SELFOVERLAP>  (1) 
15.281

>  <PUBCHEM_SHAPE_FINGERPRINT>  (1) 
139733 1 9151185246000620906
14390081 3 18272365378193983344
16714656 1 18335985285297592028
20096714 4 18335984177264523417
21040471 1 18338516318141309665
29004967 10 17275111643310373370
5460574 1 9223230745547793348

>  <PUBCHEM_SHAPE_MULTIPOLES>  (1) 
113.61
3.66
1.01
0.59
2
0.12
0
-0.42
0.02
-0.4
0
0.08
-0.01
0.01

>  <PUBCHEM_SHAPE_SELFOVERLAP>  (1) 
195.487

>  <PUBCHEM_SHAPE_VOLUME>  (1) 
76.5

>  <PUBCHEM_COORDINATE_TYPE>  (1) 
2
5
10

$$$$
