7900
     RDKit          3D

  6  5  0  0  1  0  0  0  0  0999 V2000
    1.3783   -0.2929    0.2615 O   0  0  0  0  0  0  0  0  0  0  0  0
   -1.1565   -1.3168   -0.2083 O   0  0  0  0  0  0  0  0  0  0  0  0
   -1.0026   -0.0099    0.3433 C   0  0  0  0  0  0  0  0  0  0  0  0
    0.3192    0.5650   -0.1496 C   0  0  0  0  0  0  0  0  0  0  0  0
   -2.1800    0.8494   -0.0918 C   0  0  0  0  0  0  0  0  0  0  0  0
    2.6416    0.2053   -0.1550 C   0  0  0  0  0  0  0  0  0  0  0  0
  1  4  1  0
  1  6  1  0
  2  3  1  0
  3  4  1  0
  3  5  1  0
M  END
>  <PUBCHEM_COMPOUND_CID>  (1) 
7900

>  <PUBCHEM_CONFORMER_RMSD>  (1) 
0.4

>  <PUBCHEM_CONFORMER_DIVERSEORDER>  (1) 
1
6
10
9
3
5
4
8
7
2

>  <PUBCHEM_MMFF94_PARTIAL_CHARGES>  (1) 
6
1 -0.56
13 0.4
2 -0.68
3 0.28
4 0.28
6 0.28

>  <PUBCHEM_EFFECTIVE_ROTOR_COUNT>  (1) 
2

>  <PUBCHEM_PHARMACOPHORE_FEATURES>  (1) 
3
1 1 acceptor
1 2 acceptor
1 2 donor

>  <PUBCHEM_HEAVY_ATOM_COUNT>  (1) 
6

>  <PUBCHEM_ATOM_DEF_STEREO_COUNT>  (1) 
0

>  <PUBCHEM_ATOM_UDEF_STEREO_COUNT>  (1) 
1

>  <PUBCHEM_BOND_DEF_STEREO_COUNT>  (1) 
0

>  <PUBCHEM_BOND_UDEF_STEREO_COUNT>  (1) 
0

>  <PUBCHEM_ISOTOPIC_ATOM_COUNT>  (1) 
0

>  <PUBCHEM_COMPONENT_COUNT>  (1) 
1

>  <PUBCHEM_CACTVS_TAUTO_COUNT>  (1) 
1

>  <PUBCHEM_CONFORMER_ID>  (1) 
00001EDC00000001

>  <PUBCHEM_MMFF94_ENERGY>  (1) 
9.7139

>  <PUBCHEM_FEATURE_SELFOVERLAP>  (1) 
15.227

>  <PUBCHEM_SHAPE_FINGERPRINT>  (1) 
139733 1 9295023357088209504
14390081 3 18413386557665973096
16714656 1 18408324358686364677
20096714 4 18334014973398286305
21040471 1 18339640036262833721
29004967 10 15140965032458075368
5460574 1 10087638195502390216

>  <PUBCHEM_SHAPE_MULTIPOLES>  (1) 
111.74
3.38
1.01
0.63
1.5
0.21
-0.01
-0.57
0.15
-0.45
0.08
-0.02
-0.01
-0.05

>  <PUBCHEM_SHAPE_SELFOVERLAP>  (1) 
192.349

>  <PUBCHEM_SHAPE_VOLUME>  (1) 
75.8

>  <PUBCHEM_COORDINATE_TYPE>  (1) 
2
5
10

$$$$
