7902
     RDKit          3D

  6  5  0  0  0  0  0  0  0  0999 V2000
    2.6402    0.2266    0.1731 O   0  0  0  0  0  0  0  0  0  0  0  0
   -1.0065    0.0107   -0.3180 N   0  0  0  0  0  0  0  0  0  0  0  0
    0.2701    0.5484    0.1513 C   0  0  0  0  0  0  0  0  0  0  0  0
    1.4216   -0.3415   -0.2886 C   0  0  0  0  0  0  0  0  0  0  0  0
   -2.1065    0.8920    0.0717 C   0  0  0  0  0  0  0  0  0  0  0  0
   -1.2189   -1.3363    0.2105 C   0  0  0  0  0  0  0  0  0  0  0  0
  1  4  1  0
  2  3  1  0
  2  5  1  0
  2  6  1  0
  3  4  1  0
M  END
>  <PUBCHEM_COMPOUND_CID>  (1) 
7902

>  <PUBCHEM_CONFORMER_RMSD>  (1) 
0.4

>  <PUBCHEM_CONFORMER_DIVERSEORDER>  (1) 
4
8
5
1
6
2
3
7

>  <PUBCHEM_MMFF94_PARTIAL_CHARGES>  (1) 
7
1 -0.68
17 0.4
2 -0.81
3 0.27
4 0.28
5 0.27
6 0.27

>  <PUBCHEM_EFFECTIVE_ROTOR_COUNT>  (1) 
2

>  <PUBCHEM_PHARMACOPHORE_FEATURES>  (1) 
3
1 1 acceptor
1 1 donor
1 2 cation

>  <PUBCHEM_HEAVY_ATOM_COUNT>  (1) 
6

>  <PUBCHEM_ATOM_DEF_STEREO_COUNT>  (1) 
0

>  <PUBCHEM_ATOM_UDEF_STEREO_COUNT>  (1) 
0

>  <PUBCHEM_BOND_DEF_STEREO_COUNT>  (1) 
0

>  <PUBCHEM_BOND_UDEF_STEREO_COUNT>  (1) 
0

>  <PUBCHEM_ISOTOPIC_ATOM_COUNT>  (1) 
0

>  <PUBCHEM_COMPONENT_COUNT>  (1) 
1

>  <PUBCHEM_CACTVS_TAUTO_COUNT>  (1) 
1

>  <PUBCHEM_CONFORMER_ID>  (1) 
00001EDE00000004

>  <PUBCHEM_MMFF94_ENERGY>  (1) 
9.2589

>  <PUBCHEM_FEATURE_SELFOVERLAP>  (1) 
15.223

>  <PUBCHEM_SHAPE_FINGERPRINT>  (1) 
139733 1 9510921257000205439
14390081 3 18060413621103213112
16714656 1 18333733489937129661
20096714 4 18337673022866769293
21040471 1 18337394824934196845
24536 1 18338506547117143580
29004967 10 17775574160323068786
5460574 1 8574709104734514796

>  <PUBCHEM_SHAPE_MULTIPOLES>  (1) 
112.63
3.09
1.14
0.63
1.33
0.3
0
-0.51
-0.13
-0.6
-0.07
-0.01
0.01
0.09

>  <PUBCHEM_SHAPE_SELFOVERLAP>  (1) 
193.422

>  <PUBCHEM_SHAPE_VOLUME>  (1) 
77.2

>  <PUBCHEM_COORDINATE_TYPE>  (1) 
2
5
10

$$$$
