7903
     RDKit          3D

  6  5  0  0  0  0  0  0  0  0999 V2000
    1.6010    1.1031    0.1579 O   0  0  0  0  0  0  0  0  0  0  0  0
    1.5977   -1.1000    0.1312 O   0  0  0  0  0  0  0  0  0  0  0  0
    1.0715    0.0051   -0.0885 N   0  0  0  0  0  0  0  0  0  0  0  0
   -1.2773   -0.0441    0.4848 C   0  0  0  0  0  0  0  0  0  0  0  0
   -0.2846    0.0111   -0.6621 C   0  0  0  0  0  0  0  0  0  0  0  0
   -2.7083    0.0248   -0.0233 C   0  0  0  0  0  0  0  0  0  0  0  0
  1  3  1  0
  2  3  2  0
  3  5  1  0
  4  5  1  0
  4  6  1  0
M  CHG  2   1  -1   3   1
M  END
>  <PUBCHEM_COMPOUND_CID>  (1) 
7903

>  <PUBCHEM_CONFORMER_RMSD>  (1) 
0.4

>  <PUBCHEM_CONFORMER_DIVERSEORDER>  (1) 
1
8
7
5
2
4
3
6

>  <PUBCHEM_MMFF94_PARTIAL_CHARGES>  (1) 
4
1 -0.52
2 -0.52
3 0.8
5 0.24

>  <PUBCHEM_EFFECTIVE_ROTOR_COUNT>  (1) 
2

>  <PUBCHEM_PHARMACOPHORE_FEATURES>  (1) 
4
1 1 acceptor
1 1 anion
1 2 acceptor
1 6 hydrophobe

>  <PUBCHEM_HEAVY_ATOM_COUNT>  (1) 
6

>  <PUBCHEM_ATOM_DEF_STEREO_COUNT>  (1) 
0

>  <PUBCHEM_ATOM_UDEF_STEREO_COUNT>  (1) 
0

>  <PUBCHEM_BOND_DEF_STEREO_COUNT>  (1) 
0

>  <PUBCHEM_BOND_UDEF_STEREO_COUNT>  (1) 
0

>  <PUBCHEM_ISOTOPIC_ATOM_COUNT>  (1) 
0

>  <PUBCHEM_COMPONENT_COUNT>  (1) 
1

>  <PUBCHEM_CACTVS_TAUTO_COUNT>  (1) 
2

>  <PUBCHEM_CONFORMER_ID>  (1) 
00001EDF00000001

>  <PUBCHEM_MMFF94_ENERGY>  (1) 
1.0697

>  <PUBCHEM_FEATURE_SELFOVERLAP>  (1) 
20.376

>  <PUBCHEM_SHAPE_FINGERPRINT>  (1) 
139733 1 11743825954740494335
14390081 3 18130224964467452193
20096714 4 17988363787907541616
23552449 11 18261663792517876955
24536 1 17240775015981980157
29004967 10 18040438806145841113
5460574 1 9583524209164076461

>  <PUBCHEM_SHAPE_MULTIPOLES>  (1) 
106.76
3.13
0.9
0.7
1.43
0
0.04
0.02
-0.2
-0.53
-0.05
0.12
0
0.02

>  <PUBCHEM_SHAPE_SELFOVERLAP>  (1) 
187.202

>  <PUBCHEM_SHAPE_VOLUME>  (1) 
71.2

>  <PUBCHEM_COORDINATE_TYPE>  (1) 
2
5
10

$$$$
