7907
     RDKit          3D

  7  6  0  0  0  0  0  0  0  0999 V2000
    0.0858    0.6566   -0.7173 C   0  0  0  0  0  0  0  0  0  0  0  0
   -1.3833    0.2834   -0.4338 C   0  0  0  0  0  0  0  0  0  0  0  0
    1.1221    0.1383    0.3000 C   0  0  0  0  0  0  0  0  0  0  0  0
   -1.5956   -1.2279   -0.3412 C   0  0  0  0  0  0  0  0  0  0  0  0
   -1.8418    0.9493    0.8673 C   0  0  0  0  0  0  0  0  0  0  0  0
    1.0873   -1.3831    0.4471 C   0  0  0  0  0  0  0  0  0  0  0  0
    2.5256    0.5835   -0.1221 C   0  0  0  0  0  0  0  0  0  0  0  0
  1  2  1  0
  1  3  1  0
  2  4  1  0
  2  5  1  0
  3  6  1  0
  3  7  1  0
M  END
>  <PUBCHEM_COMPOUND_CID>  (1) 
7907

>  <PUBCHEM_CONFORMER_RMSD>  (1) 
0.4

>  <PUBCHEM_CONFORMER_DIVERSEORDER>  (1) 
1

>  <PUBCHEM_MMFF94_PARTIAL_CHARGES>  (1) 
0

>  <PUBCHEM_EFFECTIVE_ROTOR_COUNT>  (1) 
2

>  <PUBCHEM_PHARMACOPHORE_FEATURES>  (1) 
2
3 2 4 5 hydrophobe
3 3 6 7 hydrophobe

>  <PUBCHEM_HEAVY_ATOM_COUNT>  (1) 
7

>  <PUBCHEM_ATOM_DEF_STEREO_COUNT>  (1) 
0

>  <PUBCHEM_ATOM_UDEF_STEREO_COUNT>  (1) 
0

>  <PUBCHEM_BOND_DEF_STEREO_COUNT>  (1) 
0

>  <PUBCHEM_BOND_UDEF_STEREO_COUNT>  (1) 
0

>  <PUBCHEM_ISOTOPIC_ATOM_COUNT>  (1) 
0

>  <PUBCHEM_COMPONENT_COUNT>  (1) 
1

>  <PUBCHEM_CACTVS_TAUTO_COUNT>  (1) 
1

>  <PUBCHEM_CONFORMER_ID>  (1) 
00001EE300000001

>  <PUBCHEM_MMFF94_ENERGY>  (1) 
15.7557

>  <PUBCHEM_FEATURE_SELFOVERLAP>  (1) 
10.149

>  <PUBCHEM_SHAPE_FINGERPRINT>  (1) 
16714656 1 18261391221298371710
18185500 45 18336539512288466727
20096714 4 18342175527198338576
21040471 1 18129100030796109345
23552333 60 18262216894343429467
23552423 10 18261390018681447334
24536 1 17916853634643199798
29004967 10 17240491277341454000
5084963 1 18262510511276938948

>  <PUBCHEM_SHAPE_MULTIPOLES>  (1) 
144.06
3
1.36
0.88
0.84
0.45
-0.04
-0.41
-0.2
-0.17
-0.11
-0.2
-0.1
-0.41

>  <PUBCHEM_SHAPE_SELFOVERLAP>  (1) 
252.736

>  <PUBCHEM_SHAPE_VOLUME>  (1) 
97.3

>  <PUBCHEM_COORDINATE_TYPE>  (1) 
2
5
10

$$$$
