7908
     RDKit          3D

  7  6  0  0  1  0  0  0  0  0999 V2000
    1.0792    1.3120   -0.5094 N   0  0  0  0  0  0  0  0  0  0  0  0
   -1.3866   -0.2992    0.4275 C   0  0  0  0  0  0  0  0  0  0  0  0
    0.0932   -0.5688    0.7728 C   0  0  0  0  0  0  0  0  0  0  0  0
    1.1228   -0.1328   -0.2865 C   0  0  0  0  0  0  0  0  0  0  0  0
   -1.7401   -0.9867   -0.8949 C   0  0  0  0  0  0  0  0  0  0  0  0
   -1.7027    1.1937    0.3323 C   0  0  0  0  0  0  0  0  0  0  0  0
    2.5343   -0.5182    0.1581 C   0  0  0  0  0  0  0  0  0  0  0  0
  1  4  1  0
  2  3  1  0
  2  5  1  0
  2  6  1  0
  3  4  1  0
  4  7  1  0
M  END
>  <PUBCHEM_COMPOUND_CID>  (1) 
7908

>  <PUBCHEM_CONFORMER_RMSD>  (1) 
0.4

>  <PUBCHEM_CONFORMER_DIVERSEORDER>  (1) 
1
2

>  <PUBCHEM_MMFF94_PARTIAL_CHARGES>  (1) 
4
1 -0.99
21 0.36
22 0.36
4 0.27

>  <PUBCHEM_EFFECTIVE_ROTOR_COUNT>  (1) 
2

>  <PUBCHEM_PHARMACOPHORE_FEATURES>  (1) 
3
1 1 cation
1 1 donor
3 2 5 6 hydrophobe

>  <PUBCHEM_HEAVY_ATOM_COUNT>  (1) 
7

>  <PUBCHEM_ATOM_DEF_STEREO_COUNT>  (1) 
0

>  <PUBCHEM_ATOM_UDEF_STEREO_COUNT>  (1) 
1

>  <PUBCHEM_BOND_DEF_STEREO_COUNT>  (1) 
0

>  <PUBCHEM_BOND_UDEF_STEREO_COUNT>  (1) 
0

>  <PUBCHEM_ISOTOPIC_ATOM_COUNT>  (1) 
0

>  <PUBCHEM_COMPONENT_COUNT>  (1) 
1

>  <PUBCHEM_CACTVS_TAUTO_COUNT>  (1) 
1

>  <PUBCHEM_CONFORMER_ID>  (1) 
00001EE400000001

>  <PUBCHEM_MMFF94_ENERGY>  (1) 
3.527

>  <PUBCHEM_FEATURE_SELFOVERLAP>  (1) 
15.223

>  <PUBCHEM_SHAPE_FINGERPRINT>  (1) 
16714656 1 18267870475532294377
18185500 45 18409728447867000571
20096714 4 18261121746280976953
21040471 1 17986117313985048897
24536 1 18114465681248686776
29004967 10 18114469985133082010
5084963 1 16588312729789817227

>  <PUBCHEM_SHAPE_MULTIPOLES>  (1) 
139.08
3.04
1.25
0.9
1.11
0.29
-0.01
-0.23
-0.12
-0.39
-0.17
-0.15
-0.1
-0.4

>  <PUBCHEM_SHAPE_SELFOVERLAP>  (1) 
243.621

>  <PUBCHEM_SHAPE_VOLUME>  (1) 
92.1

>  <PUBCHEM_COORDINATE_TYPE>  (1) 
2
5
10

$$$$
