7914
     RDKit          3D

  7  6  0  0  0  0  0  0  0  0999 V2000
    0.0020    0.0000    0.5661 O   0  0  0  0  0  0  0  0  0  0  0  0
   -1.1712   -0.0998   -0.2354 C   0  0  0  0  0  0  0  0  0  0  0  0
    1.1704    0.0999   -0.2348 C   0  0  0  0  0  0  0  0  0  0  0  0
   -2.2081   -0.9379    0.4970 C   0  0  0  0  0  0  0  0  0  0  0  0
   -1.6872    1.2973   -0.5442 C   0  0  0  0  0  0  0  0  0  0  0  0
    2.2083    0.9377    0.4962 C   0  0  0  0  0  0  0  0  0  0  0  0
    1.6859   -1.2972   -0.5449 C   0  0  0  0  0  0  0  0  0  0  0  0
  1  2  1  0
  1  3  1  0
  2  4  1  0
  2  5  1  0
  3  6  1  0
  3  7  1  0
M  END
>  <PUBCHEM_COMPOUND_CID>  (1) 
7914

>  <PUBCHEM_CONFORMER_RMSD>  (1) 
0.4

>  <PUBCHEM_CONFORMER_DIVERSEORDER>  (1) 
1
6
4
5
3
2

>  <PUBCHEM_MMFF94_PARTIAL_CHARGES>  (1) 
3
1 -0.56
2 0.28
3 0.28

>  <PUBCHEM_EFFECTIVE_ROTOR_COUNT>  (1) 
2

>  <PUBCHEM_PHARMACOPHORE_FEATURES>  (1) 
3
1 1 acceptor
3 2 4 5 hydrophobe
3 3 6 7 hydrophobe

>  <PUBCHEM_HEAVY_ATOM_COUNT>  (1) 
7

>  <PUBCHEM_ATOM_DEF_STEREO_COUNT>  (1) 
0

>  <PUBCHEM_ATOM_UDEF_STEREO_COUNT>  (1) 
0

>  <PUBCHEM_BOND_DEF_STEREO_COUNT>  (1) 
0

>  <PUBCHEM_BOND_UDEF_STEREO_COUNT>  (1) 
0

>  <PUBCHEM_ISOTOPIC_ATOM_COUNT>  (1) 
0

>  <PUBCHEM_COMPONENT_COUNT>  (1) 
1

>  <PUBCHEM_CACTVS_TAUTO_COUNT>  (1) 
1

>  <PUBCHEM_CONFORMER_ID>  (1) 
00001EEA00000001

>  <PUBCHEM_MMFF94_ENERGY>  (1) 
10.4106

>  <PUBCHEM_FEATURE_SELFOVERLAP>  (1) 
15.223

>  <PUBCHEM_SHAPE_FINGERPRINT>  (1) 
10857977 72 18117556443015643225
12932741 1 18410856520985084189
14390081 3 18341041973639006752
20096714 4 18115583717186656293
20711978 78 17632028463161656158
21040471 1 17751915818251733245
23552423 10 18041285387044216486
24536 1 18338505365953716349
29004967 10 18343025526969601682
5460574 1 9295022257539645545

>  <PUBCHEM_SHAPE_MULTIPOLES>  (1) 
138.19
3.31
1.37
0.82
0
0
0
0
0.22
0
-0.13
0
0
0.65

>  <PUBCHEM_SHAPE_SELFOVERLAP>  (1) 
241.906

>  <PUBCHEM_SHAPE_VOLUME>  (1) 
93.5

>  <PUBCHEM_COORDINATE_TYPE>  (1) 
2
5
10

$$$$
