7919
     RDKit          3D

  7  6  0  0  0  0  0  0  0  0999 V2000
    1.4345    1.5438    0.6112 S   0  0  0  0  0  0  0  0  0  0  0  0
    2.4619   -1.0504   -0.4853 S   0  0  0  0  0  0  0  0  0  0  0  0
   -0.0707   -0.6286    0.2806 O   0  0  0  0  0  0  0  0  0  0  0  0
   -1.2518    0.1627    0.1933 C   0  0  0  0  0  0  0  0  0  0  0  0
   -1.3118    0.8233   -1.1756 C   0  0  0  0  0  0  0  0  0  0  0  0
   -2.4648   -0.7181    0.4512 C   0  0  0  0  0  0  0  0  0  0  0  0
    1.2027   -0.1327    0.1246 C   0  0  0  0  0  0  0  0  0  0  0  0
  1  7  1  0
  2  7  2  0
  3  4  1  0
  3  7  1  0
  4  5  1  0
  4  6  1  0
M  END
>  <PUBCHEM_COMPOUND_CID>  (1) 
7919

>  <PUBCHEM_CONFORMER_RMSD>  (1) 
0.4

>  <PUBCHEM_CONFORMER_DIVERSEORDER>  (1) 
1
6
5
2
3
4

>  <PUBCHEM_MMFF94_PARTIAL_CHARGES>  (1) 
6
1 -0.32
15 0.18
2 -0.38
3 -0.43
4 0.28
7 0.67

>  <PUBCHEM_EFFECTIVE_ROTOR_COUNT>  (1) 
2

>  <PUBCHEM_PHARMACOPHORE_FEATURES>  (1) 
3
1 2 acceptor
3 1 2 7 anion
3 4 5 6 hydrophobe

>  <PUBCHEM_HEAVY_ATOM_COUNT>  (1) 
7

>  <PUBCHEM_ATOM_DEF_STEREO_COUNT>  (1) 
0

>  <PUBCHEM_ATOM_UDEF_STEREO_COUNT>  (1) 
0

>  <PUBCHEM_BOND_DEF_STEREO_COUNT>  (1) 
0

>  <PUBCHEM_BOND_UDEF_STEREO_COUNT>  (1) 
0

>  <PUBCHEM_ISOTOPIC_ATOM_COUNT>  (1) 
0

>  <PUBCHEM_COMPONENT_COUNT>  (1) 
1

>  <PUBCHEM_CACTVS_TAUTO_COUNT>  (1) 
1

>  <PUBCHEM_CONFORMER_ID>  (1) 
00001EEF00000001

>  <PUBCHEM_MMFF94_ENERGY>  (1) 
17.0618

>  <PUBCHEM_FEATURE_SELFOVERLAP>  (1) 
15.223

>  <PUBCHEM_SHAPE_FINGERPRINT>  (1) 
10857977 72 17677330670462077705
12932741 1 18334002891760660917
14390081 3 10809347762434937583
16714656 1 17749118767976268623
20653085 51 16300946402759044926
20711978 78 18201999966631223292
23552423 10 16878785963744307818
24536 1 18201142313154307953
29004967 10 18130790010428028914
5084963 1 18113341903060962986

>  <PUBCHEM_SHAPE_MULTIPOLES>  (1) 
145.89
3.5
1.43
0.97
0.21
0.42
0.24
-1.06
0
-0.8
-0.1
0.27
0.15
0.62

>  <PUBCHEM_SHAPE_SELFOVERLAP>  (1) 
244.526

>  <PUBCHEM_SHAPE_VOLUME>  (1) 
101

>  <PUBCHEM_COORDINATE_TYPE>  (1) 
2
5
10

$$$$
