7926
     RDKit          3D

 15 15  0  0  0  0  0  0  0  0999 V2000
    1.2419    0.2559   -2.4739 S   0  0  0  0  0  0  0  0  0  0  0  0
    1.2108    0.0790   -0.5327 P   0  0  0  0  0  0  0  0  0  0  0  0
    0.0751   -0.8954    0.0926 O   0  0  0  0  0  0  0  0  0  0  0  0
    0.9994    1.4393    0.3341 O   0  0  0  0  0  0  0  0  0  0  0  0
    2.5579   -0.5241    0.1543 O   0  0  0  0  0  0  0  0  0  0  0  0
   -3.2508   -1.1999    0.5799 N   0  0  0  0  0  0  0  0  0  0  0  0
   -2.0011   -1.6772    0.7095 N   0  0  0  0  0  0  0  0  0  0  0  0
   -1.2692   -0.7289    0.1353 C   0  0  0  0  0  0  0  0  0  0  0  0
   -3.3171    0.0068   -0.0526 C   0  0  0  0  0  0  0  0  0  0  0  0
   -2.0206    0.3424   -0.3576 C   0  0  0  0  0  0  0  0  0  0  0  0
    1.8221    2.5668    0.0864 C   0  0  0  0  0  0  0  0  0  0  0  0
    2.9234   -1.8744   -0.0765 C   0  0  0  0  0  0  0  0  0  0  0  0
   -4.5946    0.6967   -0.2936 C   0  0  0  0  0  0  0  0  0  0  0  0
    1.4187    3.6865    1.0219 C   0  0  0  0  0  0  0  0  0  0  0  0
    4.2040   -2.1737    0.6730 C   0  0  0  0  0  0  0  0  0  0  0  0
  1  2  2  0
  2  3  1  0
  2  4  1  0
  2  5  1  0
  3  8  1  0
  4 11  1  0
  5 12  1  0
  6  7  1  0
  6  9  1  0
  7  8  2  0
  8 10  1  0
  9 10  2  0
  9 13  1  0
 11 14  1  0
 12 15  1  0
M  END
>  <PUBCHEM_COMPOUND_CID>  (1) 
7926

>  <PUBCHEM_CONFORMER_RMSD>  (1) 
0.6

>  <PUBCHEM_CONFORMER_DIVERSEORDER>  (1) 
1
29
97
83
120
135
118
48
24
80
63
94
87
125
27
106
73
11
60
98
40
116
20
30
70
126
82
124
90
131
123
102
75
13
100
51
8
50
88
34
17
9
76
66
92
45
43
26
65
46
32
25
107
23
33
7
56
104
37
79
49
38
22
10
96
44
41
77
16
54
119
91
109
42
39
14
72
19
134
47
2
5
78
84
112
93
69
74
15
121
28
3
58
89
85
59
130
105
67
35
52
129
4
71
113
108
57
110
127
68
64
115
81
6
99
12
111
18
86
133
101
62
128
95
103
53
137
36
61
132
136
122
55
21
114
31
117

>  <PUBCHEM_MMFF94_PARTIAL_CHARGES>  (1) 
15
1 -0.68
10 -0.15
11 0.28
12 0.28
13 0.18
16 0.15
2 1.49
21 0.27
3 -0.33
4 -0.55
5 -0.55
6 0.3
7 -0.71
8 0.35
9 -0.33

>  <PUBCHEM_EFFECTIVE_ROTOR_COUNT>  (1) 
6

>  <PUBCHEM_PHARMACOPHORE_FEATURES>  (1) 
2
1 6 donor
5 6 7 8 9 10 rings

>  <PUBCHEM_HEAVY_ATOM_COUNT>  (1) 
15

>  <PUBCHEM_ATOM_DEF_STEREO_COUNT>  (1) 
0

>  <PUBCHEM_ATOM_UDEF_STEREO_COUNT>  (1) 
0

>  <PUBCHEM_BOND_DEF_STEREO_COUNT>  (1) 
0

>  <PUBCHEM_BOND_UDEF_STEREO_COUNT>  (1) 
0

>  <PUBCHEM_ISOTOPIC_ATOM_COUNT>  (1) 
0

>  <PUBCHEM_COMPONENT_COUNT>  (1) 
1

>  <PUBCHEM_CACTVS_TAUTO_COUNT>  (1) 
2

>  <PUBCHEM_CONFORMER_ID>  (1) 
00001EF600000001

>  <PUBCHEM_MMFF94_ENERGY>  (1) 
5.7827

>  <PUBCHEM_FEATURE_SELFOVERLAP>  (1) 
10.148

>  <PUBCHEM_SHAPE_FINGERPRINT>  (1) 
10130415 120 18334860463580612458
10465860 250 18336821975345266210
10608611 8 18337389469521714697
124424 183 18336544919757982295
12507560 14 18270957947122323479
12932764 1 18194702555582291231
13134695 92 18341603802827412812
136203 1 17836082274101866792
14115302 16 18041290884844968247
14648413 74 18337670931143746009
14817 1 13086366821429725116
14866123 147 17041763084710968714
15295992 7 18335431153671704625
17041 49 18270973357675978145
17804303 29 18259988141324371367
17841504 4 18410856581230742162
18410436 195 18410856521475752836
18511873 20 17968101871740848919
19786989 88 17559129876325886477
20233049 118 18189050897952965517
20369508 70 18411700989065543983
20600515 1 18059862709916560458
20671657 1 18341613784109797296
20711985 344 17624169042767404388
21524375 3 17267226151869081504
23175994 123 18339361846862355511
23402539 116 17986658286791205319
23419403 2 18116969166663194628
305870 269 18051689138165696176
3286 77 18408602561309270831
68521 5 18194966236646345668
7364860 26 18339080501045731168
74978 22 18412832412421713379
81228 2 17839198311308267600

>  <PUBCHEM_SHAPE_MULTIPOLES>  (1) 
288.82
6.97
3.09
1.31
4.18
3.38
1.11
-3.44
-1.02
-3.36
-1.55
-0.74
0.24
0.23

>  <PUBCHEM_SHAPE_SELFOVERLAP>  (1) 
543.422

>  <PUBCHEM_SHAPE_VOLUME>  (1) 
182.7

>  <PUBCHEM_COORDINATE_TYPE>  (1) 
2
5
10

$$$$
