7928
     RDKit          3D

  8  8  0  0  0  0  0  0  0  0999 V2000
    2.8694   -1.1408    0.0001 Br  0  0  0  0  0  0  0  0  0  0  0  0
   -2.6747   -1.2530   -0.0003 Cl  0  0  0  0  0  0  0  0  0  0  0  0
    0.0170   -0.9950    0.0002 C   0  0  0  0  0  0  0  0  0  0  0  0
    1.1995   -0.2552   -0.0003 C   0  0  0  0  0  0  0  0  0  0  0  0
   -1.2150   -0.3408    0.0003 C   0  0  0  0  0  0  0  0  0  0  0  0
    1.1501    1.1387   -0.0002 C   0  0  0  0  0  0  0  0  0  0  0  0
   -1.2645    1.0532    0.0002 C   0  0  0  0  0  0  0  0  0  0  0  0
   -0.0819    1.7929    0.0000 C   0  0  0  0  0  0  0  0  0  0  0  0
  1  4  1  0
  2  5  1  0
  3  4  2  0
  3  5  1  0
  4  6  1  0
  5  7  2  0
  6  8  2  0
  7  8  1  0
M  END
>  <PUBCHEM_COMPOUND_CID>  (1) 
7928

>  <PUBCHEM_CONFORMER_RMSD>  (1) 
0.4

>  <PUBCHEM_CONFORMER_DIVERSEORDER>  (1) 
1

>  <PUBCHEM_MMFF94_PARTIAL_CHARGES>  (1) 
12
1 -0.11
10 0.15
11 0.15
12 0.15
2 -0.18
3 -0.15
4 0.11
5 0.18
6 -0.15
7 -0.15
8 -0.15
9 0.15

>  <PUBCHEM_EFFECTIVE_ROTOR_COUNT>  (1) 
0

>  <PUBCHEM_PHARMACOPHORE_FEATURES>  (1) 
2
1 1 hydrophobe
6 3 4 5 6 7 8 rings

>  <PUBCHEM_HEAVY_ATOM_COUNT>  (1) 
8

>  <PUBCHEM_ATOM_DEF_STEREO_COUNT>  (1) 
0

>  <PUBCHEM_ATOM_UDEF_STEREO_COUNT>  (1) 
0

>  <PUBCHEM_BOND_DEF_STEREO_COUNT>  (1) 
0

>  <PUBCHEM_BOND_UDEF_STEREO_COUNT>  (1) 
0

>  <PUBCHEM_ISOTOPIC_ATOM_COUNT>  (1) 
0

>  <PUBCHEM_COMPONENT_COUNT>  (1) 
1

>  <PUBCHEM_CACTVS_TAUTO_COUNT>  (1) 
1

>  <PUBCHEM_CONFORMER_ID>  (1) 
00001EF800000001

>  <PUBCHEM_MMFF94_ENERGY>  (1) 
14.9521

>  <PUBCHEM_FEATURE_SELFOVERLAP>  (1) 
10.148

>  <PUBCHEM_SHAPE_FINGERPRINT>  (1) 
10857977 72 18340754971403103978
14128692 85 18409737265640620166
16714656 1 18194404377319205444
16945 1 18194402178122006464
20871998 184 18129658595667283422
20871998 22 18342749502396560598
21040471 1 17689997838803853508
23552423 10 18260271828356679182
241688 4 18409166588798576848
2748010 2 18411129247134745612
29004967 10 18191586565203448289
5084963 1 18344146994496698530

>  <PUBCHEM_SHAPE_MULTIPOLES>  (1) 
172.45
3.53
1.85
0.64
0.86
0.49
0
-2.15
0
-0.27
0
0.04
-0.02
0

>  <PUBCHEM_SHAPE_SELFOVERLAP>  (1) 
332.463

>  <PUBCHEM_SHAPE_VOLUME>  (1) 
107.1

>  <PUBCHEM_COORDINATE_TYPE>  (1) 
2
5
10

$$$$
