7941
     RDKit          3D

 10 10  0  0  0  0  0  0  0  0999 V2000
   -1.2026   -0.2169    0.1155 C   0  0  0  0  0  0  0  0  0  0  0  0
    1.2025   -0.2170   -0.1146 C   0  0  0  0  0  0  0  0  0  0  0  0
   -0.0001   -0.9145    0.0006 C   0  0  0  0  0  0  0  0  0  0  0  0
   -1.2025    1.1780    0.1151 C   0  0  0  0  0  0  0  0  0  0  0  0
    1.2024    1.1779   -0.1150 C   0  0  0  0  0  0  0  0  0  0  0  0
    0.0000    1.8754   -0.0001 C   0  0  0  0  0  0  0  0  0  0  0  0
   -2.4570   -0.9432    0.2352 C   0  0  0  0  0  0  0  0  0  0  0  0
    2.4570   -0.9434   -0.2352 C   0  0  0  0  0  0  0  0  0  0  0  0
   -3.6133   -0.4983   -0.2372 C   0  0  0  0  0  0  0  0  0  0  0  0
    3.6136   -0.4980    0.2358 C   0  0  0  0  0  0  0  0  0  0  0  0
  1  3  2  0
  1  4  1  0
  1  7  1  0
  2  3  1  0
  2  5  2  0
  2  8  1  0
  4  6  2  0
  5  6  1  0
  7  9  2  0
  8 10  2  0
M  END
>  <PUBCHEM_COMPOUND_CID>  (1) 
7941

>  <PUBCHEM_CONFORMER_RMSD>  (1) 
0.4

>  <PUBCHEM_CONFORMER_DIVERSEORDER>  (1) 
1
2
4
6
5
3

>  <PUBCHEM_MMFF94_PARTIAL_CHARGES>  (1) 
20
1 0.03
10 -0.3
11 0.15
12 0.15
13 0.15
14 0.15
15 0.15
16 0.15
17 0.15
18 0.15
19 0.15
2 0.03
20 0.15
3 -0.15
4 -0.15
5 -0.15
6 -0.15
7 -0.18
8 -0.18
9 -0.3

>  <PUBCHEM_EFFECTIVE_ROTOR_COUNT>  (1) 
2

>  <PUBCHEM_PHARMACOPHORE_FEATURES>  (1) 
3
1 10 hydrophobe
1 9 hydrophobe
6 1 2 3 4 5 6 rings

>  <PUBCHEM_HEAVY_ATOM_COUNT>  (1) 
10

>  <PUBCHEM_ATOM_DEF_STEREO_COUNT>  (1) 
0

>  <PUBCHEM_ATOM_UDEF_STEREO_COUNT>  (1) 
0

>  <PUBCHEM_BOND_DEF_STEREO_COUNT>  (1) 
0

>  <PUBCHEM_BOND_UDEF_STEREO_COUNT>  (1) 
0

>  <PUBCHEM_ISOTOPIC_ATOM_COUNT>  (1) 
0

>  <PUBCHEM_COMPONENT_COUNT>  (1) 
1

>  <PUBCHEM_CACTVS_TAUTO_COUNT>  (1) 
1

>  <PUBCHEM_CONFORMER_ID>  (1) 
00001F0500000001

>  <PUBCHEM_MMFF94_ENERGY>  (1) 
29.8823

>  <PUBCHEM_FEATURE_SELFOVERLAP>  (1) 
15.223

>  <PUBCHEM_SHAPE_FINGERPRINT>  (1) 
10130415 120 18334859428567119931
10219947 1 18201721768677740086
10857977 72 18341040848705299834
11206711 2 18261958448849394037
12032990 46 18410862057198292227
14128692 85 18411423937709826365
16945 1 18410586079779408646
20201158 50 18407760339339048499
20645477 70 18339077220065861207
20871998 184 18130223744548644494
20871998 22 18271818881949075726
21040471 1 17546449337355856905
21501925 9 18340199782086236810
23402539 116 18342163454024430630
23402655 69 18195227942337512629
23552423 10 18259990391707639540
2748010 2 18410568491925612229
5084963 1 18272090495643659146
53812654 25 18059291075344029254

>  <PUBCHEM_SHAPE_MULTIPOLES>  (1) 
205.8
5.01
1.57
0.64
0
0.72
0
-2.16
0
0
0
0
-0.01
0

>  <PUBCHEM_SHAPE_SELFOVERLAP>  (1) 
425.759

>  <PUBCHEM_SHAPE_VOLUME>  (1) 
112.2

>  <PUBCHEM_COORDINATE_TYPE>  (1) 
2
5
10

$$$$
