7942
     RDKit          3D

 14 14  0  0  0  0  0  0  0  0999 V2000
    2.3869   -0.0195   -0.7955 O   0  0  0  0  0  0  0  0  0  0  0  0
   -2.3867   -0.0192   -0.7959 O   0  0  0  0  0  0  0  0  0  0  0  0
    2.3521    1.2029    1.2006 O   0  0  0  0  0  0  0  0  0  0  0  0
   -2.3533    1.2005    1.2019 O   0  0  0  0  0  0  0  0  0  0  0  0
    1.2080   -0.5963   -0.4353 C   0  0  0  0  0  0  0  0  0  0  0  0
   -1.2080   -0.5964   -0.4357 C   0  0  0  0  0  0  0  0  0  0  0  0
    0.0001   -0.0045   -0.8043 C   0  0  0  0  0  0  0  0  0  0  0  0
    1.2080   -1.7801    0.3026 C   0  0  0  0  0  0  0  0  0  0  0  0
   -1.2081   -1.7802    0.3022 C   0  0  0  0  0  0  0  0  0  0  0  0
   -0.0002   -2.3719    0.6714 C   0  0  0  0  0  0  0  0  0  0  0  0
    2.8846    0.9020    0.1405 C   0  0  0  0  0  0  0  0  0  0  0  0
   -2.8842    0.9025    0.1401 C   0  0  0  0  0  0  0  0  0  0  0  0
    4.1806    1.4796   -0.3461 C   0  0  0  0  0  0  0  0  0  0  0  0
   -4.1798    1.4806   -0.3465 C   0  0  0  0  0  0  0  0  0  0  0  0
  1  5  1  0
  1 11  1  0
  2  6  1  0
  2 12  1  0
  3 11  2  0
  4 12  2  0
  5  7  2  0
  5  8  1  0
  6  7  1  0
  6  9  2  0
  8 10  2  0
  9 10  1  0
 11 13  1  0
 12 14  1  0
M  END
>  <PUBCHEM_COMPOUND_CID>  (1) 
7942

>  <PUBCHEM_CONFORMER_RMSD>  (1) 
0.6

>  <PUBCHEM_CONFORMER_DIVERSEORDER>  (1) 
1
35
26
33
58
46
16
9
44
3
55
2
21
62
20
8
73
41
17
40
13
68
60
28
48
72
5
34
4
49
10
69
54
24
56
23
39
42
30
75
38
76
59
52
74
6
45
25
27
65
29
53
66
11
7
70
51
63
22
71
64
12
18
67
31
50
36
37
57
47
14
32
19
43
15
61

>  <PUBCHEM_MMFF94_PARTIAL_CHARGES>  (1) 
18
1 -0.23
10 -0.15
11 0.66
12 0.66
13 0.06
14 0.06
15 0.15
16 0.15
17 0.15
18 0.15
2 -0.23
3 -0.57
4 -0.57
5 0.08
6 0.08
7 -0.15
8 -0.15
9 -0.15

>  <PUBCHEM_EFFECTIVE_ROTOR_COUNT>  (1) 
4

>  <PUBCHEM_PHARMACOPHORE_FEATURES>  (1) 
3
1 3 acceptor
1 4 acceptor
6 5 6 7 8 9 10 rings

>  <PUBCHEM_HEAVY_ATOM_COUNT>  (1) 
14

>  <PUBCHEM_ATOM_DEF_STEREO_COUNT>  (1) 
0

>  <PUBCHEM_ATOM_UDEF_STEREO_COUNT>  (1) 
0

>  <PUBCHEM_BOND_DEF_STEREO_COUNT>  (1) 
0

>  <PUBCHEM_BOND_UDEF_STEREO_COUNT>  (1) 
0

>  <PUBCHEM_ISOTOPIC_ATOM_COUNT>  (1) 
0

>  <PUBCHEM_COMPONENT_COUNT>  (1) 
1

>  <PUBCHEM_CACTVS_TAUTO_COUNT>  (1) 
1

>  <PUBCHEM_CONFORMER_ID>  (1) 
00001F0600000001

>  <PUBCHEM_MMFF94_ENERGY>  (1) 
41.5473

>  <PUBCHEM_FEATURE_SELFOVERLAP>  (1) 
15.223

>  <PUBCHEM_SHAPE_FINGERPRINT>  (1) 
122479 349 18339080505388411668
12491281 212 17632590330841256545
13764800 53 18337399343229288507
13839132 238 18340492256775067830
14123255 52 18408040697545141013
14350558 41 11458433409642071645
14897335 6 18409726253297240831
15775835 57 18412825755111615293
16945 1 18046621209615793143
170605 34 18342740672127955207
17357990 137 17413598250901294723
17834072 32 18336270149236270516
18186145 218 18341619165835486893
204376 136 18261115183602597165
20510252 161 18049446134286706330
20653085 51 17703242736202634495
20671657 1 18265335010419886462
20871998 22 9655569703883791662
21501502 16 18336537300686725546
21524375 3 18341609295879464158
23402539 116 18195239155679581119
23500284 214 18411144661803928496
23559900 14 18342183293733664484
25 1 18343587321814196996
2748010 2 18188505608968856087
276578 36 18260549991729001258
305870 269 18334572417245903698
4028521 119 18202562878009456317
474 4 18409730659981334637
6333272 397 18335423495344140637
7364860 26 18197495117147666942
81228 2 17899987319536763867

>  <PUBCHEM_SHAPE_MULTIPOLES>  (1) 
264.64
6.3
2.2
0.97
0
1.02
-0.13
-5.68
0.16
0
-0.46
0
-0.14
0

>  <PUBCHEM_SHAPE_SELFOVERLAP>  (1) 
546.696

>  <PUBCHEM_SHAPE_VOLUME>  (1) 
148.9

>  <PUBCHEM_COORDINATE_TYPE>  (1) 
2
5
10

$$$$
