7957
     RDKit          3D

 10  9  0  0  0  0  0  0  0  0999 V2000
   -0.2615    0.8556    1.1114 O   0  0  0  0  0  0  0  0  0  0  0  0
   -0.0933    0.0404   -0.0504 C   0  0  0  0  0  0  0  0  0  0  0  0
   -1.2679    0.3244   -1.0010 C   0  0  0  0  0  0  0  0  0  0  0  0
    1.2736    0.3575   -0.6742 C   0  0  0  0  0  0  0  0  0  0  0  0
   -2.6678   -0.0433   -0.4769 C   0  0  0  0  0  0  0  0  0  0  0  0
    2.4813    0.0742    0.2446 C   0  0  0  0  0  0  0  0  0  0  0  0
   -2.7763   -1.5174   -0.0866 C   0  0  0  0  0  0  0  0  0  0  0  0
   -3.0163    0.8376    0.7265 C   0  0  0  0  0  0  0  0  0  0  0  0
    2.5504   -1.3906    0.6788 C   0  0  0  0  0  0  0  0  0  0  0  0
    3.7778    0.4617   -0.4722 C   0  0  0  0  0  0  0  0  0  0  0  0
  1  2  1  0
  2  3  1  0
  2  4  1  0
  3  5  1  0
  4  6  1  0
  5  7  1  0
  5  8  1  0
  6  9  1  0
  6 10  1  0
M  END
>  <PUBCHEM_COMPOUND_CID>  (1) 
7957

>  <PUBCHEM_CONFORMER_RMSD>  (1) 
0.6

>  <PUBCHEM_CONFORMER_DIVERSEORDER>  (1) 
1

>  <PUBCHEM_MMFF94_PARTIAL_CHARGES>  (1) 
3
1 -0.68
2 0.28
30 0.4

>  <PUBCHEM_EFFECTIVE_ROTOR_COUNT>  (1) 
4

>  <PUBCHEM_PHARMACOPHORE_FEATURES>  (1) 
4
1 1 acceptor
1 1 donor
3 5 7 8 hydrophobe
3 6 9 10 hydrophobe

>  <PUBCHEM_HEAVY_ATOM_COUNT>  (1) 
10

>  <PUBCHEM_ATOM_DEF_STEREO_COUNT>  (1) 
0

>  <PUBCHEM_ATOM_UDEF_STEREO_COUNT>  (1) 
0

>  <PUBCHEM_BOND_DEF_STEREO_COUNT>  (1) 
0

>  <PUBCHEM_BOND_UDEF_STEREO_COUNT>  (1) 
0

>  <PUBCHEM_ISOTOPIC_ATOM_COUNT>  (1) 
0

>  <PUBCHEM_COMPONENT_COUNT>  (1) 
1

>  <PUBCHEM_CACTVS_TAUTO_COUNT>  (1) 
1

>  <PUBCHEM_CONFORMER_ID>  (1) 
00001F1500000001

>  <PUBCHEM_MMFF94_ENERGY>  (1) 
14.7868

>  <PUBCHEM_FEATURE_SELFOVERLAP>  (1) 
20.297

>  <PUBCHEM_SHAPE_FINGERPRINT>  (1) 
10857977 72 17132110260233821227
11062470 55 18410856555445218044
12897270 3 14056712444311172455
12932764 1 18260264135838208532
14325111 11 18186798071678863870
14390081 3 11239994572681314895
14445660 50 18408328782597599045
15310529 11 18187076239514880510
15775835 57 18333734610786469758
190213 19 18131632296422145604
20201158 50 16805323297120066456
20279233 1 15936407840421761539
20281407 28 18408598188758321535
20645464 45 14261359067532327261
20645477 70 17750219336034526850
21293036 1 14345796067076474535
22485316 2 18260260863257738759
23402539 116 16226035717759729878
3248919 1 18201994404611515391
57812782 119 11891333166247463997

>  <PUBCHEM_SHAPE_MULTIPOLES>  (1) 
199.93
6.18
1.22
1
1.73
0.55
-0.08
0.42
-0.02
-0.15
-0.1
-0.25
-0.15
-0.57

>  <PUBCHEM_SHAPE_SELFOVERLAP>  (1) 
360.301

>  <PUBCHEM_SHAPE_VOLUME>  (1) 
130.6

>  <PUBCHEM_COORDINATE_TYPE>  (1) 
2
5
10

$$$$
