796
     RDKit          3D

  9  8  0  0  0  0  0  0  0  0999 V2000
   -2.9381    0.2601    0.5802 O   0  0  0  0  0  0  0  0  0  0  0  0
    1.0125    1.6419   -0.0295 O   0  0  0  0  0  0  0  0  0  0  0  0
   -1.6436    0.2212   -1.2863 O   0  0  0  0  0  0  0  0  0  0  0  0
    2.8227    0.2384    0.0491 O   0  0  0  0  0  0  0  0  0  0  0  0
    0.9288   -1.8184   -0.3260 N   0  0  0  0  0  0  0  0  0  0  0  0
   -0.6745   -0.3891    0.8533 C   0  0  0  0  0  0  0  0  0  0  0  0
    0.6349   -0.6656    0.1740 C   0  0  0  0  0  0  0  0  0  0  0  0
   -1.7694    0.0562   -0.0807 C   0  0  0  0  0  0  0  0  0  0  0  0
    1.6268    0.4554    0.0658 C   0  0  0  0  0  0  0  0  0  0  0  0
  1  8  1  0
  2  9  1  0
  3  8  2  0
  4  9  2  0
  5  7  2  0
  6  7  1  0
  6  8  1  0
  7  9  1  0
M  END
>  <PUBCHEM_COMPOUND_CID>  (1) 
796

>  <PUBCHEM_CONFORMER_RMSD>  (1) 
0.6

>  <PUBCHEM_CONFORMER_DIVERSEORDER>  (1) 
1
7
5
9
8
10
2
12
11
3
6
13
4

>  <PUBCHEM_MMFF94_PARTIAL_CHARGES>  (1) 
12
1 -0.65
12 0.4
13 0.5
14 0.5
2 -0.65
3 -0.57
4 -0.57
5 -0.85
6 0.12
7 0.39
8 0.66
9 0.72

>  <PUBCHEM_EFFECTIVE_ROTOR_COUNT>  (1) 
3

>  <PUBCHEM_PHARMACOPHORE_FEATURES>  (1) 
8
1 1 acceptor
1 2 acceptor
1 3 acceptor
1 4 acceptor
1 5 acceptor
1 5 donor
3 1 3 8 anion
3 2 4 9 anion

>  <PUBCHEM_HEAVY_ATOM_COUNT>  (1) 
9

>  <PUBCHEM_ATOM_DEF_STEREO_COUNT>  (1) 
0

>  <PUBCHEM_ATOM_UDEF_STEREO_COUNT>  (1) 
0

>  <PUBCHEM_BOND_DEF_STEREO_COUNT>  (1) 
0

>  <PUBCHEM_BOND_UDEF_STEREO_COUNT>  (1) 
0

>  <PUBCHEM_ISOTOPIC_ATOM_COUNT>  (1) 
0

>  <PUBCHEM_COMPONENT_COUNT>  (1) 
1

>  <PUBCHEM_CACTVS_TAUTO_COUNT>  (1) 
3

>  <PUBCHEM_CONFORMER_ID>  (1) 
0000031C00000001

>  <PUBCHEM_MMFF94_ENERGY>  (1) 
12.4439

>  <PUBCHEM_FEATURE_SELFOVERLAP>  (1) 
40.713

>  <PUBCHEM_SHAPE_FINGERPRINT>  (1) 
10857977 72 16733275633283975361
18185500 45 17918268736267844563
21040471 1 18268430324856840744
23235685 24 18410293631229932616
29004967 10 18409733919623758763
5084963 1 17895188977767512705

>  <PUBCHEM_SHAPE_MULTIPOLES>  (1) 
156.76
3.42
1.26
0.86
0.66
0.18
-0.1
-0.65
0.13
-0.61
-0.1
0.39
0.02
0.11

>  <PUBCHEM_SHAPE_SELFOVERLAP>  (1) 
304.512

>  <PUBCHEM_SHAPE_VOLUME>  (1) 
93.9

>  <PUBCHEM_COORDINATE_TYPE>  (1) 
2
5
10

$$$$
