7974
     RDKit          3D

  7  7  0  0  1  0  0  0  0  0999 V2000
   -0.3581    1.1986   -0.1883 N   0  0  0  0  0  0  0  0  0  0  0  0
   -1.0006   -0.0152    0.3311 C   0  0  0  0  0  0  0  0  0  0  0  0
   -0.2733   -1.2717   -0.1671 C   0  0  0  0  0  0  0  0  0  0  0  0
    1.2089   -1.2323    0.1948 C   0  0  0  0  0  0  0  0  0  0  0  0
    1.8404    0.0730   -0.2766 C   0  0  0  0  0  0  0  0  0  0  0  0
    1.0461    1.2808    0.2146 C   0  0  0  0  0  0  0  0  0  0  0  0
   -2.4635   -0.0333   -0.1085 C   0  0  0  0  0  0  0  0  0  0  0  0
  1  2  1  0
  1  6  1  0
  2  3  1  0
  2  7  1  0
  3  4  1  0
  4  5  1  0
  5  6  1  0
M  END
>  <PUBCHEM_COMPOUND_CID>  (1) 
7974

>  <PUBCHEM_CONFORMER_RMSD>  (1) 
0.4

>  <PUBCHEM_CONFORMER_DIVERSEORDER>  (1) 
2
3
4
1

>  <PUBCHEM_MMFF94_PARTIAL_CHARGES>  (1) 
4
1 -0.9
17 0.36
2 0.27
6 0.27

>  <PUBCHEM_EFFECTIVE_ROTOR_COUNT>  (1) 
1.2

>  <PUBCHEM_PHARMACOPHORE_FEATURES>  (1) 
3
1 1 cation
1 1 donor
6 1 2 3 4 5 6 rings

>  <PUBCHEM_HEAVY_ATOM_COUNT>  (1) 
7

>  <PUBCHEM_ATOM_DEF_STEREO_COUNT>  (1) 
0

>  <PUBCHEM_ATOM_UDEF_STEREO_COUNT>  (1) 
1

>  <PUBCHEM_BOND_DEF_STEREO_COUNT>  (1) 
0

>  <PUBCHEM_BOND_UDEF_STEREO_COUNT>  (1) 
0

>  <PUBCHEM_ISOTOPIC_ATOM_COUNT>  (1) 
0

>  <PUBCHEM_COMPONENT_COUNT>  (1) 
1

>  <PUBCHEM_CACTVS_TAUTO_COUNT>  (1) 
1

>  <PUBCHEM_CONFORMER_ID>  (1) 
00001F2600000002

>  <PUBCHEM_MMFF94_ENERGY>  (1) 
-6.0536

>  <PUBCHEM_FEATURE_SELFOVERLAP>  (1) 
15.223

>  <PUBCHEM_SHAPE_FINGERPRINT>  (1) 
16714656 1 18411146835294653214
18185500 45 18412823568783318559
20096714 4 18339645649742924034
21040471 1 18194120939310390376
23552423 10 17901117321400910382
29004967 10 18261118464957507489

>  <PUBCHEM_SHAPE_MULTIPOLES>  (1) 
139.08
2.56
1.47
0.65
1.08
0.03
0.01
-0.04
-0.13
-0.4
0.02
-0.02
0.01
-0.01

>  <PUBCHEM_SHAPE_SELFOVERLAP>  (1) 
261.464

>  <PUBCHEM_SHAPE_VOLUME>  (1) 
85.4

>  <PUBCHEM_COORDINATE_TYPE>  (1) 
2
5
10

$$$$
