7982
     RDKit          3D

 17 16  0  0  0  0  0  0  0  0999 V2000
   -1.6607    0.8291    0.6802 O   0  0  0  0  0  0  0  0  0  0  0  0
   -3.8340    0.4859   -0.0114 O   0  0  0  0  0  0  0  0  0  0  0  0
   -2.0890   -2.3089   -0.0205 C   0  0  0  0  0  0  0  0  0  0  0  0
   -2.5753   -1.3107    1.0417 C   0  0  0  0  0  0  0  0  0  0  0  0
   -0.3990    2.8789    0.5169 C   0  0  0  0  0  0  0  0  0  0  0  0
   -0.7152   -1.8876   -0.5455 C   0  0  0  0  0  0  0  0  0  0  0  0
   -3.0777   -2.4136   -1.1844 C   0  0  0  0  0  0  0  0  0  0  0  0
   -1.7274    2.1799    0.2435 C   0  0  0  0  0  0  0  0  0  0  0  0
    0.7628    2.2512   -0.2240 C   0  0  0  0  0  0  0  0  0  0  0  0
   -2.7946    0.0829    0.4925 C   0  0  0  0  0  0  0  0  0  0  0  0
    1.8403    1.6992    0.3681 C   0  0  0  0  0  0  0  0  0  0  0  0
    3.0474    1.0981   -0.2943 C   0  0  0  0  0  0  0  0  0  0  0  0
    0.6770    2.3143   -1.7274 C   0  0  0  0  0  0  0  0  0  0  0  0
    2.8256   -0.3479   -0.6353 C   0  0  0  0  0  0  0  0  0  0  0  0
    3.1124   -1.4286    0.1155 C   0  0  0  0  0  0  0  0  0  0  0  0
    3.7442   -1.2681    1.4727 C   0  0  0  0  0  0  0  0  0  0  0  0
    2.8632   -2.8541   -0.2882 C   0  0  0  0  0  0  0  0  0  0  0  0
  1  8  1  0
  1 10  1  0
  2 10  2  0
  3  4  1  0
  3  6  1  0
  3  7  1  0
  4 10  1  0
  5  8  1  0
  5  9  1  0
  9 11  2  0
  9 13  1  0
 11 12  1  0
 12 14  1  0
 14 15  2  3
 15 16  1  0
 15 17  1  0
M  END
>  <PUBCHEM_COMPOUND_CID>  (1) 
7982

>  <PUBCHEM_CONFORMER_RMSD>  (1) 
1

>  <PUBCHEM_CONFORMER_DIVERSEORDER>  (1) 
1
21
180
66
185
40
139
173
74
151
100
34
92
125
73
112
91
22
90
165
99
131
119
76
53
172
169
38
102
150
188
158
17
130
10
94
126
43
15
107
154
167
11
44
12
160
192
104
156
8
9
135
134
106
67
49
164
149
23
193
145
127
79
5
120
33
6
123
108
175
19
115
58
121
176
147
82
71
128
133
132
89
3
83
148
162
75
101
114
163
62
170
93
118
2
191
136
159
184
103
98
16
37
187
137
55
142
166
111
77
13
68
41
146
186
171
140
7
161
189
177
78
138
30
59
155
39
182
54
190
110
81
50
129
20
141
31
116
95
36
179
124
85
80
46
84
143
56
29
48
47
26
157
183
45
86
63
51
178
113
96
4
32
109
65
25
87
69
70
60
181
28
24
144
152
153
174
117
27
97
18
14
105
35
52
42
72
168
88
61
64
57
122

>  <PUBCHEM_MMFF94_PARTIAL_CHARGES>  (1) 
16
1 -0.43
10 0.66
11 -0.29
12 0.28
13 0.14
14 -0.29
15 -0.28
16 0.14
17 0.14
2 -0.57
31 0.15
37 0.15
4 0.06
5 0.14
8 0.28
9 -0.28

>  <PUBCHEM_EFFECTIVE_ROTOR_COUNT>  (1) 
8

>  <PUBCHEM_PHARMACOPHORE_FEATURES>  (1) 
4
1 13 hydrophobe
1 2 acceptor
3 15 16 17 hydrophobe
3 3 6 7 hydrophobe

>  <PUBCHEM_HEAVY_ATOM_COUNT>  (1) 
17

>  <PUBCHEM_ATOM_DEF_STEREO_COUNT>  (1) 
0

>  <PUBCHEM_ATOM_UDEF_STEREO_COUNT>  (1) 
0

>  <PUBCHEM_BOND_DEF_STEREO_COUNT>  (1) 
0

>  <PUBCHEM_BOND_UDEF_STEREO_COUNT>  (1) 
1

>  <PUBCHEM_ISOTOPIC_ATOM_COUNT>  (1) 
0

>  <PUBCHEM_COMPONENT_COUNT>  (1) 
1

>  <PUBCHEM_CACTVS_TAUTO_COUNT>  (1) 
1

>  <PUBCHEM_CONFORMER_ID>  (1) 
00001F2E00000001

>  <PUBCHEM_MMFF94_ENERGY>  (1) 
17.4609

>  <PUBCHEM_FEATURE_SELFOVERLAP>  (1) 
20.297

>  <PUBCHEM_SHAPE_FINGERPRINT>  (1) 
10616163 171 18411428331740990444
11321824 6 18058451061566850087
12553582 1 18411144670525744842
13931106 250 17754155502184553924
14081887 123 18272358777019095424
1420 336 18336834086968236330
14251705 54 18121226642667415019
14251711 518 18268996556091812950
14251757 17 17827599743678099271
14251757 5 17764053288905265390
14916288 52 18268156361762405302
15006816 218 17259067285727029672
19026451 147 18050825999821047162
19777482 4 17843089688827364311
20291156 8 18409737287025746816
20442098 301 18342178877541763840
21634736 98 18261406516067166348
238 59 17543072728425108194

>  <PUBCHEM_SHAPE_MULTIPOLES>  (1) 
338.11
6.56
4.05
1.19
0.41
0.29
-0.14
-4.03
0.8
0.11
-0.58
0.17
0.01
-0.98

>  <PUBCHEM_SHAPE_SELFOVERLAP>  (1) 
639.753

>  <PUBCHEM_SHAPE_VOLUME>  (1) 
209.4

>  <PUBCHEM_COORDINATE_TYPE>  (1) 
2
5
10

$$$$
