7984
     RDKit          3D

 18 18  0  0  0  0  0  0  0  0999 V2000
    2.1834    1.0826    0.2403 O   0  0  0  0  0  0  0  0  0  0  0  0
    4.2509    0.8147   -0.7554 O   0  0  0  0  0  0  0  0  0  0  0  0
   -3.9696   -1.1122    0.3710 C   0  0  0  0  0  0  0  0  0  0  0  0
   -3.0475   -2.0426   -0.4238 C   0  0  0  0  0  0  0  0  0  0  0  0
   -3.4447    0.3094    0.6218 C   0  0  0  0  0  0  0  0  0  0  0  0
   -1.6743   -2.2447    0.2194 C   0  0  0  0  0  0  0  0  0  0  0  0
   -2.9167    1.0031   -0.6364 C   0  0  0  0  0  0  0  0  0  0  0  0
   -0.7483   -3.0438   -0.7026 C   0  0  0  0  0  0  0  0  0  0  0  0
   -2.6746    2.5050   -0.4651 C   0  0  0  0  0  0  0  0  0  0  0  0
    0.6782   -3.2030   -0.1646 C   0  0  0  0  0  0  0  0  0  0  0  0
   -1.7501    2.9215    0.6820 C   0  0  0  0  0  0  0  0  0  0  0  0
    1.3533   -1.8623    0.1326 C   0  0  0  0  0  0  0  0  0  0  0  0
   -0.3416    2.3196    0.6847 C   0  0  0  0  0  0  0  0  0  0  0  0
    2.8637   -2.0009    0.3312 C   0  0  0  0  0  0  0  0  0  0  0  0
    0.4292    2.5277   -0.6220 C   0  0  0  0  0  0  0  0  0  0  0  0
    3.4937   -0.7450    0.9268 C   0  0  0  0  0  0  0  0  0  0  0  0
    1.9355    2.3067   -0.4690 C   0  0  0  0  0  0  0  0  0  0  0  0
    3.3796    0.4643    0.0292 C   0  0  0  0  0  0  0  0  0  0  0  0
  1 17  1  0
  1 18  1  0
  2 18  2  0
  3  4  1  0
  3  5  1  0
  4  6  1  0
  5  7  1  0
  6  8  1  0
  7  9  1  0
  8 10  1  0
  9 11  1  0
 10 12  1  0
 11 13  1  0
 12 14  1  0
 13 15  1  0
 14 16  1  0
 15 17  1  0
 16 18  1  0
M  END
>  <PUBCHEM_COMPOUND_CID>  (1) 
7984

>  <PUBCHEM_CONFORMER_RMSD>  (1) 
0.6

>  <PUBCHEM_CONFORMER_DIVERSEORDER>  (1) 
1
46
43
97
30
82
78
103
32
94
106
75
100
16
45
80
93
108
8
40
10
107
109
65
68
86
69
110
51
95
77
44
58
102
87
5
91
55
38
101
27
89
56
6
25
17
47
74
53
84
88
66
96
64
70
9
67
31
50
76
72
14
19
71
15
41
21
7
48
11
36
37
24
3
28
62
39
52
4
61
59
90
49
33
105
81
63
99
83
35
92
85
20
23
54
104
60
42
26
29
112
98
18
73
13
34
79
22
57
111
2
12

>  <PUBCHEM_MMFF94_PARTIAL_CHARGES>  (1) 
5
1 -0.43
16 0.06
17 0.28
18 0.66
2 -0.57

>  <PUBCHEM_EFFECTIVE_ROTOR_COUNT>  (1) 
3.2

>  <PUBCHEM_PHARMACOPHORE_FEATURES>  (1) 
1
1 2 acceptor

>  <PUBCHEM_HEAVY_ATOM_COUNT>  (1) 
18

>  <PUBCHEM_ATOM_DEF_STEREO_COUNT>  (1) 
0

>  <PUBCHEM_ATOM_UDEF_STEREO_COUNT>  (1) 
0

>  <PUBCHEM_BOND_DEF_STEREO_COUNT>  (1) 
0

>  <PUBCHEM_BOND_UDEF_STEREO_COUNT>  (1) 
0

>  <PUBCHEM_ISOTOPIC_ATOM_COUNT>  (1) 
0

>  <PUBCHEM_COMPONENT_COUNT>  (1) 
1

>  <PUBCHEM_CACTVS_TAUTO_COUNT>  (1) 
1

>  <PUBCHEM_CONFORMER_ID>  (1) 
00001F3000000001

>  <PUBCHEM_MMFF94_ENERGY>  (1) 
10.8573

>  <PUBCHEM_FEATURE_SELFOVERLAP>  (1) 
5.074

>  <PUBCHEM_SHAPE_FINGERPRINT>  (1) 
104564 63 18411703205442644422
10616163 171 18409733936824915177
10670039 82 18409740564487078134
10759866 29 18113904857879161294
12038231 1 16969984762436276147
12539773 59 17631460136489558583
12553582 1 18339076111489109737
12838862 33 18267285690134276521
13122387 1 18339080384865440179
14081887 123 18199731678712597136
14251705 54 18409169878970138337
14251757 17 17771377234546397846
14251757 5 18121804960641186150
14289585 56 17240779345873745684
14765038 42 18055941988685636920
14940714 1 9268121610481430855
15006816 218 18196091032456449421
17093844 170 17978498746424132216
19930381 70 16104728042507580587
20621476 13 17617088114791045981
20621476 7 18338807818057174515
21141583 151 18199757006018599128
21249577 28 18337109072080382040
21673915 165 18411700984907772120
22749437 52 18195238923661156299
3014063 31 18339354292500133103
3052486 1 18264215721100533614
58250162 1 17979627163144880768
6438718 38 17916862555538525222
7064713 232 18200591384793256137
7832392 63 18052536861736427310

>  <PUBCHEM_SHAPE_MULTIPOLES>  (1) 
358.69
7.11
4.76
0.89
1.46
0.55
-0.02
0.07
-0.38
-1.16
0.45
0
-0.14
-0.53

>  <PUBCHEM_SHAPE_SELFOVERLAP>  (1) 
675.819

>  <PUBCHEM_SHAPE_VOLUME>  (1) 
219.8

>  <PUBCHEM_COORDINATE_TYPE>  (1) 
2
5
10

$$$$
