7987
     RDKit          3D

 20 19  0  0  0  0  0  0  0  0999 V2000
    3.2498   -0.2341    0.1056 O   0  0  0  0  0  0  0  0  0  0  0  0
   -2.0829    1.1340    0.2601 O   0  0  0  0  0  0  0  0  0  0  0  0
    1.3981   -1.6281    1.6824 O   0  0  0  0  0  0  0  0  0  0  0  0
   -2.6658   -1.2475   -1.0989 O   0  0  0  0  0  0  0  0  0  0  0  0
    2.7910   -0.2356   -2.1549 O   0  0  0  0  0  0  0  0  0  0  0  0
   -2.5784    3.3817    0.0830 O   0  0  0  0  0  0  0  0  0  0  0  0
    2.0812    2.3734    0.1056 C   0  0  0  0  0  0  0  0  0  0  0  0
    0.6223    2.0958   -0.2775 C   0  0  0  0  0  0  0  0  0  0  0  0
    3.0664    1.8552   -0.9426 C   0  0  0  0  0  0  0  0  0  0  0  0
   -0.3643    2.6748    0.7332 C   0  0  0  0  0  0  0  0  0  0  0  0
    3.0216    0.3520   -1.1070 C   0  0  0  0  0  0  0  0  0  0  0  0
   -1.8012    2.4666    0.3228 C   0  0  0  0  0  0  0  0  0  0  0  0
    3.2083   -1.6645    0.1162 C   0  0  0  0  0  0  0  0  0  0  0  0
   -3.4211    0.8050   -0.1252 C   0  0  0  0  0  0  0  0  0  0  0  0
    1.7896   -2.1163    0.4049 C   0  0  0  0  0  0  0  0  0  0  0  0
   -3.5729   -0.7038   -0.1475 C   0  0  0  0  0  0  0  0  0  0  0  0
    0.0644   -2.0039    1.9968 C   0  0  0  0  0  0  0  0  0  0  0  0
   -2.7491   -2.6649   -1.1465 C   0  0  0  0  0  0  0  0  0  0  0  0
   -0.2929   -1.4574    3.3625 C   0  0  0  0  0  0  0  0  0  0  0  0
   -1.7642   -3.1825   -2.1730 C   0  0  0  0  0  0  0  0  0  0  0  0
  1 11  1  0
  1 13  1  0
  2 12  1  0
  2 14  1  0
  3 15  1  0
  3 17  1  0
  4 16  1  0
  4 18  1  0
  5 11  2  0
  6 12  2  0
  7  8  1  0
  7  9  1  0
  8 10  1  0
  9 11  1  0
 10 12  1  0
 13 15  1  0
 14 16  1  0
 17 19  1  0
 18 20  1  0
M  END
>  <PUBCHEM_COMPOUND_CID>  (1) 
7987

>  <PUBCHEM_CONFORMER_RMSD>  (1) 
1.2

>  <PUBCHEM_CONFORMER_DIVERSEORDER>  (1) 
1
36
134
82
29
3
94
16
19
15
58
97
27
28
117
12
72
11
8
126
63
140
32
95
87
141
69
61
101
105
130
38
120
53
50
139
65
40
113
54
52
79
127
86
26
107
68
91
118
132
2
92
90
102
77
85
138
46
93
56
88
67
74
99
98
96
42
64
111
116
131
66
121
129
70
18
128
51
112
41
4
34
104
114
133
7
6
37
115
80
49
108
5
62
136
125
60
103
119
109
25
47
24
124
110
22
81
30
135
123
59
17
55
122
75
43
106
23
100
137
39
10
73
48
20
21
84
44
45
35
14
76
9
89
71
13
57
31
33
83
78

>  <PUBCHEM_MMFF94_PARTIAL_CHARGES>  (1) 
16
1 -0.43
10 0.06
11 0.66
12 0.66
13 0.28
14 0.28
15 0.28
16 0.28
17 0.28
18 0.28
2 -0.43
3 -0.56
4 -0.56
5 -0.57
6 -0.57
9 0.06

>  <PUBCHEM_EFFECTIVE_ROTOR_COUNT>  (1) 
15

>  <PUBCHEM_PHARMACOPHORE_FEATURES>  (1) 
5
1 3 acceptor
1 4 acceptor
1 5 acceptor
1 6 acceptor
4 7 8 9 10 hydrophobe

>  <PUBCHEM_HEAVY_ATOM_COUNT>  (1) 
20

>  <PUBCHEM_ATOM_DEF_STEREO_COUNT>  (1) 
0

>  <PUBCHEM_ATOM_UDEF_STEREO_COUNT>  (1) 
0

>  <PUBCHEM_BOND_DEF_STEREO_COUNT>  (1) 
0

>  <PUBCHEM_BOND_UDEF_STEREO_COUNT>  (1) 
0

>  <PUBCHEM_ISOTOPIC_ATOM_COUNT>  (1) 
0

>  <PUBCHEM_COMPONENT_COUNT>  (1) 
1

>  <PUBCHEM_CACTVS_TAUTO_COUNT>  (1) 
1

>  <PUBCHEM_CONFORMER_ID>  (1) 
00001F3300000001

>  <PUBCHEM_MMFF94_ENERGY>  (1) 
17.8067

>  <PUBCHEM_FEATURE_SELFOVERLAP>  (1) 
25.374

>  <PUBCHEM_SHAPE_FINGERPRINT>  (1) 
11244481 83 16701154534517316961
11321824 6 16673570734171655888
12156800 1 13277217923311056219
12596599 1 17844829129028162430
14251711 518 17322107827976396976
14251745 187 18052256485965123264
15324115 91 16737158047597396743
19026451 147 17265498797432136407
19930381 70 16682592824147090607
21634736 98 18408326558073402758
238 59 17186716663276836255
58250162 1 18270949224123028854

>  <PUBCHEM_SHAPE_MULTIPOLES>  (1) 
376.37
6.23
4.44
2.26
0.33
1.37
-1.46
-0.59
3.01
1.78
0.08
0.14
-2.38
-1.69

>  <PUBCHEM_SHAPE_SELFOVERLAP>  (1) 
704.579

>  <PUBCHEM_SHAPE_VOLUME>  (1) 
234.5

>  <PUBCHEM_COORDINATE_TYPE>  (1) 
2
5
10

$$$$
