7989
     RDKit          3D

  7  6  0  0  0  0  0  0  0  0999 V2000
   -1.7647    1.2690   -0.0772 O   0  0  0  0  0  0  0  0  0  0  0  0
   -0.2278   -0.5889    0.1104 C   0  0  0  0  0  0  0  0  0  0  0  0
    0.8903    0.4447    0.2323 C   0  0  0  0  0  0  0  0  0  0  0  0
   -1.5976    0.0511   -0.0354 C   0  0  0  0  0  0  0  0  0  0  0  0
    2.2286   -0.2158    0.3805 C   0  0  0  0  0  0  0  0  0  0  0  0
   -2.7661   -0.8961   -0.1256 C   0  0  0  0  0  0  0  0  0  0  0  0
    3.2372   -0.0639   -0.4850 C   0  0  0  0  0  0  0  0  0  0  0  0
  1  4  2  0
  2  3  1  0
  2  4  1  0
  3  5  1  0
  4  6  1  0
  5  7  2  0
M  END
>  <PUBCHEM_COMPOUND_CID>  (1) 
7989

>  <PUBCHEM_CONFORMER_RMSD>  (1) 
0.4

>  <PUBCHEM_CONFORMER_DIVERSEORDER>  (1) 
1
38
4
8
34
32
16
41
22
31
20
19
2
40
17
5
23
28
3
6
33
11
45
10
7
27
43
18
24
26
12
44
30
9
15
42
13
21
25
14
46
37
36
39
35
29

>  <PUBCHEM_MMFF94_PARTIAL_CHARGES>  (1) 
10
1 -0.57
12 0.15
16 0.15
17 0.15
2 0.06
3 0.14
4 0.45
5 -0.29
6 0.06
7 -0.3

>  <PUBCHEM_EFFECTIVE_ROTOR_COUNT>  (1) 
3

>  <PUBCHEM_PHARMACOPHORE_FEATURES>  (1) 
2
1 1 acceptor
1 7 hydrophobe

>  <PUBCHEM_HEAVY_ATOM_COUNT>  (1) 
7

>  <PUBCHEM_ATOM_DEF_STEREO_COUNT>  (1) 
0

>  <PUBCHEM_ATOM_UDEF_STEREO_COUNT>  (1) 
0

>  <PUBCHEM_BOND_DEF_STEREO_COUNT>  (1) 
0

>  <PUBCHEM_BOND_UDEF_STEREO_COUNT>  (1) 
0

>  <PUBCHEM_ISOTOPIC_ATOM_COUNT>  (1) 
0

>  <PUBCHEM_COMPONENT_COUNT>  (1) 
1

>  <PUBCHEM_CACTVS_TAUTO_COUNT>  (1) 
3

>  <PUBCHEM_CONFORMER_ID>  (1) 
00001F3500000001

>  <PUBCHEM_MMFF94_ENERGY>  (1) 
3.1595

>  <PUBCHEM_FEATURE_SELFOVERLAP>  (1) 
10.148

>  <PUBCHEM_SHAPE_FINGERPRINT>  (1) 
11062470 55 13334731340935586527
12897270 3 18335978739799048903
12932764 1 17561074813442518494
14325111 11 18410011018329461978
14390081 3 18334011705228912840
16714656 1 18411698807169312487
23552423 10 18043528317893081362
29004967 10 16486976197877048770
3248919 1 17240203227086123106
5460574 1 9871752399003419746

>  <PUBCHEM_SHAPE_MULTIPOLES>  (1) 
138.19
4.88
0.98
0.67
1.53
0.14
0
-0.67
-0.63
-0.56
-0.02
0.18
-0.02
0

>  <PUBCHEM_SHAPE_SELFOVERLAP>  (1) 
247.751

>  <PUBCHEM_SHAPE_VOLUME>  (1) 
89.3

>  <PUBCHEM_COORDINATE_TYPE>  (1) 
2
5
10

$$$$
