7990
     RDKit          3D

  7  6  0  0  1  0  0  0  0  0999 V2000
    2.0275   -1.3491   -0.0472 O   0  0  0  0  0  0  0  0  0  0  0  0
    1.6991   -0.0252    0.3646 C   0  0  0  0  0  0  0  0  0  0  0  0
    2.4487    0.9469   -0.5332 C   0  0  0  0  0  0  0  0  0  0  0  0
   -2.3878    0.5674    0.1180 C   0  0  0  0  0  0  0  0  0  0  0  0
   -3.0982   -0.6783   -0.3833 C   0  0  0  0  0  0  0  0  0  0  0  0
    0.2487    0.1834    0.2760 C   0  0  0  0  0  0  0  0  0  0  0  0
   -0.9380    0.3549    0.2052 C   0  0  0  0  0  0  0  0  0  0  0  0
  1  2  1  0
  2  3  1  0
  2  6  1  0
  4  5  1  0
  4  7  1  0
  6  7  3  0
M  END
>  <PUBCHEM_COMPOUND_CID>  (1) 
7990

>  <PUBCHEM_CONFORMER_RMSD>  (1) 
0.4

>  <PUBCHEM_CONFORMER_DIVERSEORDER>  (1) 
2
1

>  <PUBCHEM_MMFF94_PARTIAL_CHARGES>  (1) 
6
1 -0.68
17 0.4
2 0.48
4 0.2
6 -0.2
7 -0.2

>  <PUBCHEM_EFFECTIVE_ROTOR_COUNT>  (1) 
0

>  <PUBCHEM_PHARMACOPHORE_FEATURES>  (1) 
3
1 1 acceptor
1 1 donor
1 5 hydrophobe

>  <PUBCHEM_HEAVY_ATOM_COUNT>  (1) 
7

>  <PUBCHEM_ATOM_DEF_STEREO_COUNT>  (1) 
0

>  <PUBCHEM_ATOM_UDEF_STEREO_COUNT>  (1) 
1

>  <PUBCHEM_BOND_DEF_STEREO_COUNT>  (1) 
0

>  <PUBCHEM_BOND_UDEF_STEREO_COUNT>  (1) 
0

>  <PUBCHEM_ISOTOPIC_ATOM_COUNT>  (1) 
0

>  <PUBCHEM_COMPONENT_COUNT>  (1) 
1

>  <PUBCHEM_CACTVS_TAUTO_COUNT>  (1) 
1

>  <PUBCHEM_CONFORMER_ID>  (1) 
00001F3600000002

>  <PUBCHEM_MMFF94_ENERGY>  (1) 
-0.4622

>  <PUBCHEM_FEATURE_SELFOVERLAP>  (1) 
15.223

>  <PUBCHEM_SHAPE_FINGERPRINT>  (1) 
12897270 3 18408887373043163933
12932741 1 16877955935465086329
12932764 1 17775000206747883177
14325111 11 18410292506185767313
14390081 3 15430029963884330253
15310529 11 18413105065487956517
23552423 10 18336828572235548315
29004967 10 18411981360056227145
3248919 1 18260545628084394257
5460574 1 9223234048351354761

>  <PUBCHEM_SHAPE_MULTIPOLES>  (1) 
138.19
4.78
1.06
0.71
1.81
0.21
-0.02
0.31
-0.79
-0.4
-0.08
-0.04
-0.04
-0.3

>  <PUBCHEM_SHAPE_SELFOVERLAP>  (1) 
247.449

>  <PUBCHEM_SHAPE_VOLUME>  (1) 
87.9

>  <PUBCHEM_COORDINATE_TYPE>  (1) 
2
5
10

$$$$
