7997
     RDKit          3D

  7  6  0  0  0  0  0  0  0  0999 V2000
    0.3301   -0.5326    0.0007 O   0  0  0  0  0  0  0  0  0  0  0  0
    1.7023    1.3259    0.0007 O   0  0  0  0  0  0  0  0  0  0  0  0
   -2.0632   -0.5742    0.0051 C   0  0  0  0  0  0  0  0  0  0  0  0
   -0.8198    0.3019    0.0040 C   0  0  0  0  0  0  0  0  0  0  0  0
   -3.3365    0.2523   -0.0066 C   0  0  0  0  0  0  0  0  0  0  0  0
    1.5357    0.1137   -0.0006 C   0  0  0  0  0  0  0  0  0  0  0  0
    2.6514   -0.8869   -0.0033 C   0  0  0  0  0  0  0  0  0  0  0  0
  1  4  1  0
  1  6  1  0
  2  6  2  0
  3  4  1  0
  3  5  1  0
  6  7  1  0
M  END
>  <PUBCHEM_COMPOUND_CID>  (1) 
7997

>  <PUBCHEM_CONFORMER_RMSD>  (1) 
0.4

>  <PUBCHEM_CONFORMER_DIVERSEORDER>  (1) 
1
26
30
31
27
13
12
22
10
23
24
9
29
11
8
25
16
28
17
18
19
7
6
4
2
5
3
15
20
21
14

>  <PUBCHEM_MMFF94_PARTIAL_CHARGES>  (1) 
5
1 -0.43
2 -0.57
4 0.28
6 0.66
7 0.06

>  <PUBCHEM_EFFECTIVE_ROTOR_COUNT>  (1) 
3

>  <PUBCHEM_PHARMACOPHORE_FEATURES>  (1) 
2
1 2 acceptor
1 5 hydrophobe

>  <PUBCHEM_HEAVY_ATOM_COUNT>  (1) 
7

>  <PUBCHEM_ATOM_DEF_STEREO_COUNT>  (1) 
0

>  <PUBCHEM_ATOM_UDEF_STEREO_COUNT>  (1) 
0

>  <PUBCHEM_BOND_DEF_STEREO_COUNT>  (1) 
0

>  <PUBCHEM_BOND_UDEF_STEREO_COUNT>  (1) 
0

>  <PUBCHEM_ISOTOPIC_ATOM_COUNT>  (1) 
0

>  <PUBCHEM_COMPONENT_COUNT>  (1) 
1

>  <PUBCHEM_CACTVS_TAUTO_COUNT>  (1) 
1

>  <PUBCHEM_CONFORMER_ID>  (1) 
00001F3D00000001

>  <PUBCHEM_MMFF94_ENERGY>  (1) 
1.9805

>  <PUBCHEM_FEATURE_SELFOVERLAP>  (1) 
10.148

>  <PUBCHEM_SHAPE_FINGERPRINT>  (1) 
11062470 55 14405180655949299699
12932741 1 17821734969776663803
12932764 1 17313094259517355091
14325111 11 18410856590079178467
14390081 3 18411698824623624697
29004967 10 18412545388378800930
3248919 1 17132123445983951559
5460574 1 9223232944629071171

>  <PUBCHEM_SHAPE_MULTIPOLES>  (1) 
132.32
4.88
1.01
0.59
2.12
0.16
0
-0.38
0.01
-0.5
0
0.03
-0.01
0

>  <PUBCHEM_SHAPE_SELFOVERLAP>  (1) 
235.286

>  <PUBCHEM_SHAPE_VOLUME>  (1) 
86.6

>  <PUBCHEM_COORDINATE_TYPE>  (1) 
2
5
10

$$$$
