7998
     RDKit          3D

  7  6  0  0  0  0  0  0  0  0999 V2000
    2.8856   -0.9206   -0.0034 Cl  0  0  0  0  0  0  0  0  0  0  0  0
    0.3112   -0.5067    0.0010 O   0  0  0  0  0  0  0  0  0  0  0  0
    1.5992    1.3836    0.0005 O   0  0  0  0  0  0  0  0  0  0  0  0
   -2.0803   -0.6055    0.0052 C   0  0  0  0  0  0  0  0  0  0  0  0
   -0.8583    0.3001    0.0039 C   0  0  0  0  0  0  0  0  0  0  0  0
   -3.3731    0.1902   -0.0069 C   0  0  0  0  0  0  0  0  0  0  0  0
    1.5157    0.1590   -0.0004 C   0  0  0  0  0  0  0  0  0  0  0  0
  1  7  1  0
  2  5  1  0
  2  7  1  0
  3  7  2  0
  4  5  1  0
  4  6  1  0
M  END
>  <PUBCHEM_COMPOUND_CID>  (1) 
7998

>  <PUBCHEM_CONFORMER_RMSD>  (1) 
0.4

>  <PUBCHEM_CONFORMER_DIVERSEORDER>  (1) 
1
28
26
27
29
13
12
32
33
30
11
25
22
23
24
10
31
17
9
8
16
18
19
7
6
4
5
3
2
14
15
21
20

>  <PUBCHEM_MMFF94_PARTIAL_CHARGES>  (1) 
5
1 -0.21
2 -0.43
3 -0.57
5 0.28
7 0.93

>  <PUBCHEM_EFFECTIVE_ROTOR_COUNT>  (1) 
3

>  <PUBCHEM_PHARMACOPHORE_FEATURES>  (1) 
2
1 3 acceptor
1 6 hydrophobe

>  <PUBCHEM_HEAVY_ATOM_COUNT>  (1) 
7

>  <PUBCHEM_ATOM_DEF_STEREO_COUNT>  (1) 
0

>  <PUBCHEM_ATOM_UDEF_STEREO_COUNT>  (1) 
0

>  <PUBCHEM_BOND_DEF_STEREO_COUNT>  (1) 
0

>  <PUBCHEM_BOND_UDEF_STEREO_COUNT>  (1) 
0

>  <PUBCHEM_ISOTOPIC_ATOM_COUNT>  (1) 
0

>  <PUBCHEM_COMPONENT_COUNT>  (1) 
1

>  <PUBCHEM_CACTVS_TAUTO_COUNT>  (1) 
1

>  <PUBCHEM_CONFORMER_ID>  (1) 
00001F3E00000001

>  <PUBCHEM_MMFF94_ENERGY>  (1) 
3.739

>  <PUBCHEM_FEATURE_SELFOVERLAP>  (1) 
10.148

>  <PUBCHEM_SHAPE_FINGERPRINT>  (1) 
11062470 55 14333123061842832451
12932741 1 17676492790872246139
12932764 1 17168133555573849827
14325111 11 18410574024133288867
14390081 3 18339921614677663513
29004967 10 18412826859139672050
5460574 1 9223235143673412739

>  <PUBCHEM_SHAPE_MULTIPOLES>  (1) 
134.19
5.16
1.05
0.6
1.72
0.19
0
-0.77
0.01
-0.56
0
0.01
-0.02
0

>  <PUBCHEM_SHAPE_SELFOVERLAP>  (1) 
231.651

>  <PUBCHEM_SHAPE_VOLUME>  (1) 
89.2

>  <PUBCHEM_COORDINATE_TYPE>  (1) 
2
5
10

$$$$
