80
     RDKit          3D

 12 12  0  0  1  0  0  0  0  0999 V2000
    1.2423    1.4548    1.3883 O   0  0  0  0  0  0  0  0  0  0  0  0
    3.1632    0.2498   -0.2782 O   0  0  0  0  0  0  0  0  0  0  0  0
    1.8601   -2.0879    0.0964 O   0  0  0  0  0  0  0  0  0  0  0  0
   -3.0684    0.7993   -0.7189 O   0  0  0  0  0  0  0  0  0  0  0  0
   -3.0226   -0.9934    0.7003 O   0  0  0  0  0  0  0  0  0  0  0  0
    1.0576    1.4174   -0.0286 C   0  0  0  0  0  0  0  0  0  0  0  0
    1.7904    0.2183   -0.6227 C   0  0  0  0  0  0  0  0  0  0  0  0
   -0.4419    1.3518   -0.3251 C   0  0  0  0  0  0  0  0  0  0  0  0
   -1.0083   -0.0225   -0.1068 C   0  0  0  0  0  0  0  0  0  0  0  0
    1.1847   -1.0876   -0.1357 C   0  0  0  0  0  0  0  0  0  0  0  0
   -0.2935   -1.1488    0.0081 C   0  0  0  0  0  0  0  0  0  0  0  0
   -2.4636   -0.1512    0.0229 C   0  0  0  0  0  0  0  0  0  0  0  0
  1  6  1  0
  2  7  1  0
  3 10  2  0
  4 12  1  0
  5 12  2  0
  6  7  1  0
  6  8  1  0
  7 10  1  0
  8  9  1  0
  9 11  2  0
  9 12  1  0
 10 11  1  0
M  END
>  <PUBCHEM_COMPOUND_CID>  (1) 
80

>  <PUBCHEM_CONFORMER_RMSD>  (1) 
0.4

>  <PUBCHEM_CONFORMER_DIVERSEORDER>  (1) 
1
5
4
3
6
2
7
8

>  <PUBCHEM_MMFF94_PARTIAL_CHARGES>  (1) 
16
1 -0.68
10 0.49
11 -0.14
12 0.71
17 0.15
18 0.4
19 0.4
2 -0.68
20 0.5
3 -0.57
4 -0.65
5 -0.57
6 0.28
7 0.34
8 0.14
9 -0.12

>  <PUBCHEM_EFFECTIVE_ROTOR_COUNT>  (1) 
1.6

>  <PUBCHEM_PHARMACOPHORE_FEATURES>  (1) 
9
1 1 acceptor
1 1 donor
1 2 acceptor
1 2 donor
1 3 acceptor
1 4 acceptor
1 5 acceptor
3 4 5 12 anion
6 6 7 8 9 10 11 rings

>  <PUBCHEM_HEAVY_ATOM_COUNT>  (1) 
12

>  <PUBCHEM_ATOM_DEF_STEREO_COUNT>  (1) 
0

>  <PUBCHEM_ATOM_UDEF_STEREO_COUNT>  (1) 
2

>  <PUBCHEM_BOND_DEF_STEREO_COUNT>  (1) 
0

>  <PUBCHEM_BOND_UDEF_STEREO_COUNT>  (1) 
0

>  <PUBCHEM_ISOTOPIC_ATOM_COUNT>  (1) 
0

>  <PUBCHEM_COMPONENT_COUNT>  (1) 
1

>  <PUBCHEM_CACTVS_TAUTO_COUNT>  (1) 
20

>  <PUBCHEM_CONFORMER_ID>  (1) 
0000005000000001

>  <PUBCHEM_MMFF94_ENERGY>  (1) 
15.4921

>  <PUBCHEM_FEATURE_SELFOVERLAP>  (1) 
45.74

>  <PUBCHEM_SHAPE_FINGERPRINT>  (1) 
10130415 120 18192708938921171779
10857977 72 18114742754253145147
12897270 3 18335144176076847069
12932764 1 18201438112289938975
14128692 85 18191877712504811166
16945 1 18341895203309780044
20201158 50 18335138678682329215
21040471 1 17979073009226472020
21501502 16 18193838145837002077
23235685 24 18261390100148481084
23402655 69 18267007394171876405
23552423 10 18041567931531015999
2748010 2 18266176128229910406
29004967 10 18408047311794380489
5084963 1 18268438008463701361
528886 8 18334293171262137661
53812653 166 18412824706954855400
63268167 104 18341335513326194275

>  <PUBCHEM_SHAPE_MULTIPOLES>  (1) 
217.61
4.08
1.73
0.83
1.78
0.26
0.15
0.3
-0.17
-0.62
0.18
-0.04
-0.22
0.41

>  <PUBCHEM_SHAPE_SELFOVERLAP>  (1) 
451.849

>  <PUBCHEM_SHAPE_VOLUME>  (1) 
122.2

>  <PUBCHEM_COORDINATE_TYPE>  (1) 
2
5
10

$$$$
