8003
     RDKit          3D

  5  4  0  0  0  0  0  0  0  0999 V2000
    0.0000    0.3478   -0.0228 C   0  0  0  0  0  0  0  0  0  0  0  0
    1.2621   -0.5140   -0.0001 C   0  0  0  0  0  0  0  0  0  0  0  0
   -1.2621   -0.5140   -0.0001 C   0  0  0  0  0  0  0  0  0  0  0  0
    2.5198    0.3401    0.0115 C   0  0  0  0  0  0  0  0  0  0  0  0
   -2.5199    0.3401    0.0115 C   0  0  0  0  0  0  0  0  0  0  0  0
  1  2  1  0
  1  3  1  0
  2  4  1  0
  3  5  1  0
M  END
>  <PUBCHEM_COMPOUND_CID>  (1) 
8003

>  <PUBCHEM_CONFORMER_RMSD>  (1) 
0.4

>  <PUBCHEM_CONFORMER_DIVERSEORDER>  (1) 
1
4
5
2
3

>  <PUBCHEM_MMFF94_PARTIAL_CHARGES>  (1) 
0

>  <PUBCHEM_EFFECTIVE_ROTOR_COUNT>  (1) 
2

>  <PUBCHEM_PHARMACOPHORE_FEATURES>  (1) 
2
1 4 hydrophobe
1 5 hydrophobe

>  <PUBCHEM_HEAVY_ATOM_COUNT>  (1) 
5

>  <PUBCHEM_ATOM_DEF_STEREO_COUNT>  (1) 
0

>  <PUBCHEM_ATOM_UDEF_STEREO_COUNT>  (1) 
0

>  <PUBCHEM_BOND_DEF_STEREO_COUNT>  (1) 
0

>  <PUBCHEM_BOND_UDEF_STEREO_COUNT>  (1) 
0

>  <PUBCHEM_ISOTOPIC_ATOM_COUNT>  (1) 
0

>  <PUBCHEM_COMPONENT_COUNT>  (1) 
1

>  <PUBCHEM_CACTVS_TAUTO_COUNT>  (1) 
1

>  <PUBCHEM_CONFORMER_ID>  (1) 
00001F4300000001

>  <PUBCHEM_MMFF94_ENERGY>  (1) 
-5.2609

>  <PUBCHEM_FEATURE_SELFOVERLAP>  (1) 
10.149

>  <PUBCHEM_SHAPE_FINGERPRINT>  (1) 
139733 1 9511462220978991821
14390081 3 18272929440206324224
16714656 1 18412826884619234557
20096714 4 18410855485908534568
29004967 10 16153429432622070120
5460574 1 9295290538482337319

>  <PUBCHEM_SHAPE_MULTIPOLES>  (1) 
102.9
3.79
0.79
0.62
0
0.03
0
-0.54
0.03
0
0
0
0
0

>  <PUBCHEM_SHAPE_SELFOVERLAP>  (1) 
168.554

>  <PUBCHEM_SHAPE_VOLUME>  (1) 
72.3

>  <PUBCHEM_COORDINATE_TYPE>  (1) 
2
5
10

$$$$
