8005
     RDKit          3D

  5  4  0  0  0  0  0  0  0  0999 V2000
    2.6882   -0.3860    0.0017 Cl  0  0  0  0  0  0  0  0  0  0  0  0
   -0.0263   -0.3170    0.0065 C   0  0  0  0  0  0  0  0  0  0  0  0
   -1.3155    0.5046    0.0106 C   0  0  0  0  0  0  0  0  0  0  0  0
    1.1994    0.5870   -0.0102 C   0  0  0  0  0  0  0  0  0  0  0  0
   -2.5457   -0.3886   -0.0086 C   0  0  0  0  0  0  0  0  0  0  0  0
  1  4  1  0
  2  3  1  0
  2  4  1  0
  3  5  1  0
M  END
>  <PUBCHEM_COMPOUND_CID>  (1) 
8005

>  <PUBCHEM_CONFORMER_RMSD>  (1) 
0.4

>  <PUBCHEM_CONFORMER_DIVERSEORDER>  (1) 
1
7
6
2
3
4
5

>  <PUBCHEM_MMFF94_PARTIAL_CHARGES>  (1) 
2
1 -0.29
4 0.29

>  <PUBCHEM_EFFECTIVE_ROTOR_COUNT>  (1) 
2

>  <PUBCHEM_PHARMACOPHORE_FEATURES>  (1) 
1
1 5 hydrophobe

>  <PUBCHEM_HEAVY_ATOM_COUNT>  (1) 
5

>  <PUBCHEM_ATOM_DEF_STEREO_COUNT>  (1) 
0

>  <PUBCHEM_ATOM_UDEF_STEREO_COUNT>  (1) 
0

>  <PUBCHEM_BOND_DEF_STEREO_COUNT>  (1) 
0

>  <PUBCHEM_BOND_UDEF_STEREO_COUNT>  (1) 
0

>  <PUBCHEM_ISOTOPIC_ATOM_COUNT>  (1) 
0

>  <PUBCHEM_COMPONENT_COUNT>  (1) 
1

>  <PUBCHEM_CACTVS_TAUTO_COUNT>  (1) 
1

>  <PUBCHEM_CONFORMER_ID>  (1) 
00001F4500000001

>  <PUBCHEM_MMFF94_ENERGY>  (1) 
-2.576

>  <PUBCHEM_FEATURE_SELFOVERLAP>  (1) 
5.074

>  <PUBCHEM_SHAPE_FINGERPRINT>  (1) 
139733 1 9223230745326325216
16714656 1 18408604759852510687
20096714 4 18410012177722848456
29004967 10 15410900668852399438
5460574 1 9223231845017164640

>  <PUBCHEM_SHAPE_MULTIPOLES>  (1) 
104.77
4.07
0.82
0.62
0.39
0.03
0
-0.73
-0.01
0.03
0
0.02
0
0

>  <PUBCHEM_SHAPE_SELFOVERLAP>  (1) 
166.154

>  <PUBCHEM_SHAPE_VOLUME>  (1) 
74.4

>  <PUBCHEM_COORDINATE_TYPE>  (1) 
2
5
10

$$$$
