8020
     RDKit          3D

  5  4  0  0  0  0  0  0  0  0999 V2000
    1.0353    0.1609   -0.5918 O   0  0  0  0  0  0  0  0  0  0  0  0
   -1.0533    0.1991    0.5806 O   0  0  0  0  0  0  0  0  0  0  0  0
   -0.0003    0.9564   -0.0154 C   0  0  0  0  0  0  0  0  0  0  0  0
    1.6987   -0.6418    0.3756 C   0  0  0  0  0  0  0  0  0  0  0  0
   -1.6804   -0.6746   -0.3489 C   0  0  0  0  0  0  0  0  0  0  0  0
  1  3  1  0
  1  4  1  0
  2  3  1  0
  2  5  1  0
M  END
>  <PUBCHEM_COMPOUND_CID>  (1) 
8020

>  <PUBCHEM_CONFORMER_RMSD>  (1) 
0.4

>  <PUBCHEM_CONFORMER_DIVERSEORDER>  (1) 
1
5
2
3
4

>  <PUBCHEM_MMFF94_PARTIAL_CHARGES>  (1) 
5
1 -0.56
2 -0.56
3 0.56
4 0.28
5 0.28

>  <PUBCHEM_EFFECTIVE_ROTOR_COUNT>  (1) 
2

>  <PUBCHEM_PHARMACOPHORE_FEATURES>  (1) 
2
1 1 acceptor
1 2 acceptor

>  <PUBCHEM_HEAVY_ATOM_COUNT>  (1) 
5

>  <PUBCHEM_ATOM_DEF_STEREO_COUNT>  (1) 
0

>  <PUBCHEM_ATOM_UDEF_STEREO_COUNT>  (1) 
0

>  <PUBCHEM_BOND_DEF_STEREO_COUNT>  (1) 
0

>  <PUBCHEM_BOND_UDEF_STEREO_COUNT>  (1) 
0

>  <PUBCHEM_ISOTOPIC_ATOM_COUNT>  (1) 
0

>  <PUBCHEM_COMPONENT_COUNT>  (1) 
1

>  <PUBCHEM_CACTVS_TAUTO_COUNT>  (1) 
1

>  <PUBCHEM_CONFORMER_ID>  (1) 
00001F5400000001

>  <PUBCHEM_MMFF94_ENERGY>  (1) 
11.5001

>  <PUBCHEM_FEATURE_SELFOVERLAP>  (1) 
10.181

>  <PUBCHEM_SHAPE_FINGERPRINT>  (1) 
139733 1 9295289443160162307
21015797 1 9799416563925218092
29004967 10 18041000677956943705
5943 1 17900011298417934964

>  <PUBCHEM_SHAPE_MULTIPOLES>  (1) 
91.16
2.22
0.99
0.74
0.02
0.07
0
-0.78
0.02
-0.01
0
0
0
-0.18

>  <PUBCHEM_SHAPE_SELFOVERLAP>  (1) 
151.379

>  <PUBCHEM_SHAPE_VOLUME>  (1) 
63.1

>  <PUBCHEM_COORDINATE_TYPE>  (1) 
2
5
10

$$$$
