8023
     RDKit          3D

  5  4  0  0  0  0  0  0  0  0999 V2000
    0.0129   -0.3410   -0.1819 O   0  0  0  0  0  0  0  0  0  0  0  0
    1.1090    0.5191    0.0910 C   0  0  0  0  0  0  0  0  0  0  0  0
    2.3886   -0.2892    0.0635 C   0  0  0  0  0  0  0  0  0  0  0  0
   -1.1689    0.3237   -0.1586 C   0  0  0  0  0  0  0  0  0  0  0  0
   -2.3416   -0.2126    0.1860 C   0  0  0  0  0  0  0  0  0  0  0  0
  1  2  1  0
  1  4  1  0
  2  3  1  0
  4  5  2  0
M  END
>  <PUBCHEM_COMPOUND_CID>  (1) 
8023

>  <PUBCHEM_CONFORMER_RMSD>  (1) 
0.4

>  <PUBCHEM_CONFORMER_DIVERSEORDER>  (1) 
1
6
3
5
2
4

>  <PUBCHEM_MMFF94_PARTIAL_CHARGES>  (1) 
7
1 -0.36
11 0.15
12 0.15
13 0.15
2 0.28
4 -0.07
5 -0.3

>  <PUBCHEM_EFFECTIVE_ROTOR_COUNT>  (1) 
2

>  <PUBCHEM_PHARMACOPHORE_FEATURES>  (1) 
1
1 1 acceptor

>  <PUBCHEM_HEAVY_ATOM_COUNT>  (1) 
5

>  <PUBCHEM_ATOM_DEF_STEREO_COUNT>  (1) 
0

>  <PUBCHEM_ATOM_UDEF_STEREO_COUNT>  (1) 
0

>  <PUBCHEM_BOND_DEF_STEREO_COUNT>  (1) 
0

>  <PUBCHEM_BOND_UDEF_STEREO_COUNT>  (1) 
0

>  <PUBCHEM_ISOTOPIC_ATOM_COUNT>  (1) 
0

>  <PUBCHEM_COMPONENT_COUNT>  (1) 
1

>  <PUBCHEM_CACTVS_TAUTO_COUNT>  (1) 
1

>  <PUBCHEM_CONFORMER_ID>  (1) 
00001F5700000001

>  <PUBCHEM_MMFF94_ENERGY>  (1) 
7.6579

>  <PUBCHEM_FEATURE_SELFOVERLAP>  (1) 
5.074

>  <PUBCHEM_SHAPE_FINGERPRINT>  (1) 
139733 1 10879992466877359596
14390081 3 9223228537744997990
16714656 1 16298389054239130539
20096714 4 17989203797600711368
29004967 10 18410013225858171802
5460574 1 9295290542798403620

>  <PUBCHEM_SHAPE_MULTIPOLES>  (1) 
97.03
3.52
0.72
0.62
0.12
0.04
0.01
-0.43
0.23
0.05
0
-0.02
0.01
0.04

>  <PUBCHEM_SHAPE_SELFOVERLAP>  (1) 
164.941

>  <PUBCHEM_SHAPE_VOLUME>  (1) 
66

>  <PUBCHEM_COORDINATE_TYPE>  (1) 
2
5
10

$$$$
