8029
     RDKit          3D

  5  5  0  0  0  0  0  0  0  0999 V2000
    1.1781    0.0040    0.0000 O   0  0  0  0  0  0  0  0  0  0  0  0
   -0.9576    0.7044    0.0000 C   0  0  0  0  0  0  0  0  0  0  0  0
   -0.9527   -0.7109    0.0000 C   0  0  0  0  0  0  0  0  0  0  0  0
    0.3624    1.0909   -0.0001 C   0  0  0  0  0  0  0  0  0  0  0  0
    0.3700   -1.0884    0.0000 C   0  0  0  0  0  0  0  0  0  0  0  0
  1  4  1  0
  1  5  1  0
  2  3  1  0
  2  4  2  0
  3  5  2  0
M  END
>  <PUBCHEM_COMPOUND_CID>  (1) 
8029

>  <PUBCHEM_CONFORMER_RMSD>  (1) 
0.4

>  <PUBCHEM_CONFORMER_DIVERSEORDER>  (1) 
1

>  <PUBCHEM_MMFF94_PARTIAL_CHARGES>  (1) 
9
1 -0.28
2 -0.15
3 -0.15
4 -0.01
5 -0.01
6 0.15
7 0.15
8 0.15
9 0.15

>  <PUBCHEM_EFFECTIVE_ROTOR_COUNT>  (1) 
0

>  <PUBCHEM_PHARMACOPHORE_FEATURES>  (1) 
2
1 1 acceptor
5 1 2 3 4 5 rings

>  <PUBCHEM_HEAVY_ATOM_COUNT>  (1) 
5

>  <PUBCHEM_ATOM_DEF_STEREO_COUNT>  (1) 
0

>  <PUBCHEM_ATOM_UDEF_STEREO_COUNT>  (1) 
0

>  <PUBCHEM_BOND_DEF_STEREO_COUNT>  (1) 
0

>  <PUBCHEM_BOND_UDEF_STEREO_COUNT>  (1) 
0

>  <PUBCHEM_ISOTOPIC_ATOM_COUNT>  (1) 
0

>  <PUBCHEM_COMPONENT_COUNT>  (1) 
1

>  <PUBCHEM_CACTVS_TAUTO_COUNT>  (1) 
1

>  <PUBCHEM_CONFORMER_ID>  (1) 
00001F5D00000001

>  <PUBCHEM_MMFF94_ENERGY>  (1) 
0.4261

>  <PUBCHEM_FEATURE_SELFOVERLAP>  (1) 
10.148

>  <PUBCHEM_SHAPE_FINGERPRINT>  (1) 
20096714 4 18267306438978598881
21015797 1 9223231849169713635
21040471 1 18194402186680344513
5943 1 12757448171061552361

>  <PUBCHEM_SHAPE_MULTIPOLES>  (1) 
97.03
1.31
1.25
0.6
0
0.03
0
-0.01
0
0
0
0
0.02
0

>  <PUBCHEM_SHAPE_SELFOVERLAP>  (1) 
198.081

>  <PUBCHEM_SHAPE_VOLUME>  (1) 
58.6

>  <PUBCHEM_COORDINATE_TYPE>  (1) 
2
5
10

$$$$
