8031
     RDKit          3D

 10  9  0  0  0  0  0  0  0  0999 V2000
   -2.2117    0.0366   -1.4204 O   0  0  0  0  0  0  0  0  0  0  0  0
    2.1195    0.0438    1.4307 O   0  0  0  0  0  0  0  0  0  0  0  0
   -0.5464    0.4719    0.2698 C   0  0  0  0  0  0  0  0  0  0  0  0
    0.5469   -0.4263   -0.3370 C   0  0  0  0  0  0  0  0  0  0  0  0
   -1.9895   -0.0020   -0.0090 C   0  0  0  0  0  0  0  0  0  0  0  0
    1.9897    0.0024    0.0082 C   0  0  0  0  0  0  0  0  0  0  0  0
   -2.9818    0.9627    0.6497 C   0  0  0  0  0  0  0  0  0  0  0  0
   -2.2459   -1.4280    0.4838 C   0  0  0  0  0  0  0  0  0  0  0  0
    2.3430    1.3821   -0.5520 C   0  0  0  0  0  0  0  0  0  0  0  0
    2.9761   -1.0432   -0.5239 C   0  0  0  0  0  0  0  0  0  0  0  0
  1  5  1  0
  2  6  1  0
  3  4  1  0
  3  5  1  0
  4  6  1  0
  5  7  1  0
  5  8  1  0
  6  9  1  0
  6 10  1  0
M  END
>  <PUBCHEM_COMPOUND_CID>  (1) 
8031

>  <PUBCHEM_CONFORMER_RMSD>  (1) 
0.6

>  <PUBCHEM_CONFORMER_DIVERSEORDER>  (1) 
1
4
3
2

>  <PUBCHEM_MMFF94_PARTIAL_CHARGES>  (1) 
6
1 -0.68
2 -0.68
27 0.4
28 0.4
5 0.28
6 0.28

>  <PUBCHEM_EFFECTIVE_ROTOR_COUNT>  (1) 
3

>  <PUBCHEM_PHARMACOPHORE_FEATURES>  (1) 
6
1 1 acceptor
1 1 donor
1 2 acceptor
1 2 donor
3 5 7 8 hydrophobe
3 6 9 10 hydrophobe

>  <PUBCHEM_HEAVY_ATOM_COUNT>  (1) 
10

>  <PUBCHEM_ATOM_DEF_STEREO_COUNT>  (1) 
0

>  <PUBCHEM_ATOM_UDEF_STEREO_COUNT>  (1) 
0

>  <PUBCHEM_BOND_DEF_STEREO_COUNT>  (1) 
0

>  <PUBCHEM_BOND_UDEF_STEREO_COUNT>  (1) 
0

>  <PUBCHEM_ISOTOPIC_ATOM_COUNT>  (1) 
0

>  <PUBCHEM_COMPONENT_COUNT>  (1) 
1

>  <PUBCHEM_CACTVS_TAUTO_COUNT>  (1) 
1

>  <PUBCHEM_CONFORMER_ID>  (1) 
00001F5F00000001

>  <PUBCHEM_MMFF94_ENERGY>  (1) 
23.4946

>  <PUBCHEM_FEATURE_SELFOVERLAP>  (1) 
30.446

>  <PUBCHEM_SHAPE_FINGERPRINT>  (1) 
10857977 72 18271241737307842347
12897270 3 18186238441692964350
12932741 1 18113616802500785422
12932764 1 17313103050961878150
14325111 11 18411707603146186198
14390081 3 17418089910398223953
15310529 11 18201728395864771957
15775835 57 17385726889193221515
170605 34 17969789768571930436
19973954 147 18409736183087581708
21524375 3 17485662455215995593
23235685 24 18409452449094989539
23235687 12 18186518821368598925
23552423 10 18408889533417105418
3248919 1 18411974780145113446
369184 2 17458339758441957617
5084963 1 18272370849839614150
8030462 33 17988923387717757469

>  <PUBCHEM_SHAPE_MULTIPOLES>  (1) 
194.06
5.22
1.27
1.05
0.01
0.05
-0.01
-0.01
-0.02
0.04
0
-0.03
-0.03
-0.03

>  <PUBCHEM_SHAPE_SELFOVERLAP>  (1) 
357.596

>  <PUBCHEM_SHAPE_VOLUME>  (1) 
125

>  <PUBCHEM_COORDINATE_TYPE>  (1) 
2
5
10

$$$$
