8032
     RDKit          3D

 10  9  0  0  0  0  0  0  0  0999 V2000
   -2.1678   -0.1284   -0.0159 S   0  0  0  0  0  0  0  0  0  0  0  0
    2.1678    0.1284   -0.0165 S   0  0  0  0  0  0  0  0  0  0  0  0
   -2.9723    1.2754    0.1909 O   0  0  0  0  0  0  0  0  0  0  0  0
    2.9725   -1.2744    0.1959 O   0  0  0  0  0  0  0  0  0  0  0  0
   -2.3599   -0.9542    1.1626 O   0  0  0  0  0  0  0  0  0  0  0  0
   -2.4460   -0.6325   -1.3488 O   0  0  0  0  0  0  0  0  0  0  0  0
    2.3597    0.9588    1.1589 O   0  0  0  0  0  0  0  0  0  0  0  0
    2.4458    0.6273   -1.3512 O   0  0  0  0  0  0  0  0  0  0  0  0
   -0.5336    0.5367    0.0110 C   0  0  0  0  0  0  0  0  0  0  0  0
    0.5337   -0.5371    0.0131 C   0  0  0  0  0  0  0  0  0  0  0  0
  1  3  1  0
  1  5  2  0
  1  6  2  0
  1  9  1  0
  2  4  1  0
  2  7  2  0
  2  8  2  0
  2 10  1  0
  9 10  1  0
M  END
>  <PUBCHEM_COMPOUND_CID>  (1) 
8032

>  <PUBCHEM_CONFORMER_RMSD>  (1) 
0.6

>  <PUBCHEM_CONFORMER_DIVERSEORDER>  (1) 
1
2
3

>  <PUBCHEM_MMFF94_PARTIAL_CHARGES>  (1) 
12
1 1.38
10 0.11
15 0.5
16 0.5
2 1.38
3 -0.68
4 -0.68
5 -0.65
6 -0.65
7 -0.65
8 -0.65
9 0.11

>  <PUBCHEM_EFFECTIVE_ROTOR_COUNT>  (1) 
3

>  <PUBCHEM_PHARMACOPHORE_FEATURES>  (1) 
8
1 3 acceptor
1 4 acceptor
1 5 acceptor
1 6 acceptor
1 7 acceptor
1 8 acceptor
4 1 3 5 6 anion
4 2 4 7 8 anion

>  <PUBCHEM_HEAVY_ATOM_COUNT>  (1) 
10

>  <PUBCHEM_ATOM_DEF_STEREO_COUNT>  (1) 
0

>  <PUBCHEM_ATOM_UDEF_STEREO_COUNT>  (1) 
0

>  <PUBCHEM_BOND_DEF_STEREO_COUNT>  (1) 
0

>  <PUBCHEM_BOND_UDEF_STEREO_COUNT>  (1) 
0

>  <PUBCHEM_ISOTOPIC_ATOM_COUNT>  (1) 
0

>  <PUBCHEM_COMPONENT_COUNT>  (1) 
1

>  <PUBCHEM_CACTVS_TAUTO_COUNT>  (1) 
1

>  <PUBCHEM_CONFORMER_ID>  (1) 
00001F6000000001

>  <PUBCHEM_MMFF94_ENERGY>  (1) 
5.181

>  <PUBCHEM_FEATURE_SELFOVERLAP>  (1) 
40.707

>  <PUBCHEM_SHAPE_FINGERPRINT>  (1) 
10857977 72 18261393411620903473
12932764 1 18131638906076036233
14325111 11 18410575089042461810
14390081 3 18272365373767069281
15775835 57 18202281403000558038
23235687 12 17131833178998137348
23552423 10 17821450144646516458
3248919 1 18113332033178611531
369184 2 18059852878857622011
5084963 1 18187645773821977882
8030462 33 18410855468718096541

>  <PUBCHEM_SHAPE_MULTIPOLES>  (1) 
178.28
5.29
1.13
1.11
0
0
0.15
0
0
0
-0.14
0
0
-0.03

>  <PUBCHEM_SHAPE_SELFOVERLAP>  (1) 
315.385

>  <PUBCHEM_SHAPE_VOLUME>  (1) 
116.4

>  <PUBCHEM_COORDINATE_TYPE>  (1) 
2
5
10

$$$$
