8037
     RDKit          3D

  8  7  0  0  0  0  0  0  0  0999 V2000
    1.8393   -0.0072   -0.3213 N   0  0  0  0  0  0  0  0  0  0  0  0
   -1.8381   -0.0081    0.3203 N   0  0  0  0  0  0  0  0  0  0  0  0
    0.5634    0.4546    0.2243 C   0  0  0  0  0  0  0  0  0  0  0  0
   -0.5680   -0.4586   -0.2384 C   0  0  0  0  0  0  0  0  0  0  0  0
    2.1374   -1.3590    0.1504 C   0  0  0  0  0  0  0  0  0  0  0  0
    2.9155    0.9117    0.0473 C   0  0  0  0  0  0  0  0  0  0  0  0
   -2.9249   -0.8994   -0.0881 C   0  0  0  0  0  0  0  0  0  0  0  0
   -2.1246    1.3660   -0.0945 C   0  0  0  0  0  0  0  0  0  0  0  0
  1  3  1  0
  1  5  1  0
  1  6  1  0
  2  4  1  0
  2  7  1  0
  2  8  1  0
  3  4  1  0
M  END
>  <PUBCHEM_COMPOUND_CID>  (1) 
8037

>  <PUBCHEM_CONFORMER_RMSD>  (1) 
0.6

>  <PUBCHEM_CONFORMER_DIVERSEORDER>  (1) 
2
6
5
3
4
1

>  <PUBCHEM_MMFF94_PARTIAL_CHARGES>  (1) 
8
1 -0.81
2 -0.81
3 0.27
4 0.27
5 0.27
6 0.27
7 0.27
8 0.27

>  <PUBCHEM_EFFECTIVE_ROTOR_COUNT>  (1) 
3

>  <PUBCHEM_PHARMACOPHORE_FEATURES>  (1) 
2
1 1 cation
1 2 cation

>  <PUBCHEM_HEAVY_ATOM_COUNT>  (1) 
8

>  <PUBCHEM_ATOM_DEF_STEREO_COUNT>  (1) 
0

>  <PUBCHEM_ATOM_UDEF_STEREO_COUNT>  (1) 
0

>  <PUBCHEM_BOND_DEF_STEREO_COUNT>  (1) 
0

>  <PUBCHEM_BOND_UDEF_STEREO_COUNT>  (1) 
0

>  <PUBCHEM_ISOTOPIC_ATOM_COUNT>  (1) 
0

>  <PUBCHEM_COMPONENT_COUNT>  (1) 
1

>  <PUBCHEM_CACTVS_TAUTO_COUNT>  (1) 
1

>  <PUBCHEM_CONFORMER_ID>  (1) 
00001F6500000002

>  <PUBCHEM_MMFF94_ENERGY>  (1) 
17.8554

>  <PUBCHEM_FEATURE_SELFOVERLAP>  (1) 
10.149

>  <PUBCHEM_SHAPE_FINGERPRINT>  (1) 
12897270 3 18410012177696279885
12932764 1 18411709759188113760
14325111 11 18410856546760162437
14390081 3 18412262848023516376
15310529 11 18341891900495727727
19973954 147 18410576149852300876
23552423 10 18261395498811654178
29004967 10 18186525414396612424
3248919 1 17313110756180686458
5460574 1 8935008061450354695

>  <PUBCHEM_SHAPE_MULTIPOLES>  (1) 
154.67
4.84
1.36
0.64
0.01
0.01
0
-0.01
0.01
-0.01
-0.01
0
0
-0.04

>  <PUBCHEM_SHAPE_SELFOVERLAP>  (1) 
272.607

>  <PUBCHEM_SHAPE_VOLUME>  (1) 
103.7

>  <PUBCHEM_COORDINATE_TYPE>  (1) 
2
5
10

$$$$
