8049
     RDKit          3D

 18 17  0  0  0  0  0  0  0  0999 V2000
   -6.7904   -0.4678    0.0701 O   0  0  0  0  0  0  0  0  0  0  0  0
    6.7875    0.4728    0.0702 O   0  0  0  0  0  0  0  0  0  0  0  0
   -5.7704    1.6011    0.0476 O   0  0  0  0  0  0  0  0  0  0  0  0
    5.7658   -1.5951    0.0471 O   0  0  0  0  0  0  0  0  0  0  0  0
   -0.6227    0.4007   -0.1569 C   0  0  0  0  0  0  0  0  0  0  0  0
    0.6523   -0.4455   -0.1445 C   0  0  0  0  0  0  0  0  0  0  0  0
   -1.9081   -0.4323   -0.1598 C   0  0  0  0  0  0  0  0  0  0  0  0
    1.9026    0.4376   -0.1186 C   0  0  0  0  0  0  0  0  0  0  0  0
   -3.1825    0.4167   -0.0970 C   0  0  0  0  0  0  0  0  0  0  0  0
    3.1786   -0.4086   -0.0677 C   0  0  0  0  0  0  0  0  0  0  0  0
   -4.4483   -0.4393   -0.0340 C   0  0  0  0  0  0  0  0  0  0  0  0
    4.4445    0.4465   -0.0131 C   0  0  0  0  0  0  0  0  0  0  0  0
   -5.7186    0.3788    0.0410 C   0  0  0  0  0  0  0  0  0  0  0  0
    5.7148   -0.3729    0.0470 C   0  0  0  0  0  0  0  0  0  0  0  0
   -8.0738    0.1642    0.1116 C   0  0  0  0  0  0  0  0  0  0  0  0
    8.0708   -0.1601    0.0968 C   0  0  0  0  0  0  0  0  0  0  0  0
   -9.1478   -0.9022    0.1399 C   0  0  0  0  0  0  0  0  0  0  0  0
    9.1457    0.9055    0.1203 C   0  0  0  0  0  0  0  0  0  0  0  0
  1 13  1  0
  1 15  1  0
  2 14  1  0
  2 16  1  0
  3 13  2  0
  4 14  2  0
  5  6  1  0
  5  7  1  0
  6  8  1  0
  7  9  1  0
  8 10  1  0
  9 11  1  0
 10 12  1  0
 11 13  1  0
 12 14  1  0
 15 17  1  0
 16 18  1  0
M  END
>  <PUBCHEM_COMPOUND_CID>  (1) 
8049

>  <PUBCHEM_CONFORMER_RMSD>  (1) 
1

>  <PUBCHEM_CONFORMER_DIVERSEORDER>  (1) 
1
31
5
72
47
64
96
18
71
28
91
57
32
43
17
27
63
98
15
101
76
29
2
85
100
84
53
86
81
24
42
73
99
8
21
54
68
52
14
61
51
58
66
79
44
65
19
80
41
39
12
78
49
92
45
46
6
62
70
77
60
25
74
36
59
56
89
67
93
87
38
94
69
95
83
26
88
75
13
82
7
102
37
20
103
34
3
97
16
90
30
9
35
48
10
11
22
55
4
33
23
40
50

>  <PUBCHEM_MMFF94_PARTIAL_CHARGES>  (1) 
10
1 -0.43
11 0.06
12 0.06
13 0.66
14 0.66
15 0.28
16 0.28
2 -0.43
3 -0.57
4 -0.57

>  <PUBCHEM_EFFECTIVE_ROTOR_COUNT>  (1) 
13

>  <PUBCHEM_PHARMACOPHORE_FEATURES>  (1) 
2
1 3 acceptor
1 4 acceptor

>  <PUBCHEM_HEAVY_ATOM_COUNT>  (1) 
18

>  <PUBCHEM_ATOM_DEF_STEREO_COUNT>  (1) 
0

>  <PUBCHEM_ATOM_UDEF_STEREO_COUNT>  (1) 
0

>  <PUBCHEM_BOND_DEF_STEREO_COUNT>  (1) 
0

>  <PUBCHEM_BOND_UDEF_STEREO_COUNT>  (1) 
0

>  <PUBCHEM_ISOTOPIC_ATOM_COUNT>  (1) 
0

>  <PUBCHEM_COMPONENT_COUNT>  (1) 
1

>  <PUBCHEM_CACTVS_TAUTO_COUNT>  (1) 
1

>  <PUBCHEM_CONFORMER_ID>  (1) 
00001F7100000001

>  <PUBCHEM_MMFF94_ENERGY>  (1) 
5.6418

>  <PUBCHEM_FEATURE_SELFOVERLAP>  (1) 
10.149

>  <PUBCHEM_SHAPE_FINGERPRINT>  (1) 
106641 1 18410012151894801605
11315181 36 18272371967290851185
12091667 2 18272931622750960239
13533116 47 14117526390021311526
14123256 10 18410856559639789602
14251764 18 18410855451538227222
14251764 46 18410293618276315843
14428016 248 15769780181853049832
15510794 2 18341899589068066558
16120349 18 18113620131665377860
18335252 98 18343022173032725070
21095123 145 16702299084000203815
21315763 28 18408604755969285797
22224240 67 17167861971701217362
232437 2 18410856556236632166
23521765 1 18341895194640646149
23581129 1 18409448093834543118
33684 2 8070031064393617540
59682541 35 18409730685508038793
67123 10 18410575097547980807
8209 1 18410855464428403844

>  <PUBCHEM_SHAPE_MULTIPOLES>  (1) 
346.95
32.88
1.03
0.61
0.16
0
0
0.08
-2.58
0
-0.02
0.01
0
0.07

>  <PUBCHEM_SHAPE_SELFOVERLAP>  (1) 
642.842

>  <PUBCHEM_SHAPE_VOLUME>  (1) 
218.1

>  <PUBCHEM_COORDINATE_TYPE>  (1) 
2
5
10

$$$$
