805
     RDKit          3D

 20 20  0  0  1  0  0  0  0  0999 V2000
    3.8914   -0.5951    0.1534 P   0  0  0  0  0  0  0  0  0  0  0  0
   -3.8873   -0.6000   -0.1539 P   0  0  0  0  0  0  0  0  0  0  0  0
    2.7584    0.3662   -0.4771 O   0  0  0  0  0  0  0  0  0  0  0  0
   -2.7554    0.3644    0.4733 O   0  0  0  0  0  0  0  0  0  0  0  0
    1.3791    2.7899    0.3384 O   0  0  0  0  0  0  0  0  0  0  0  0
    0.6586   -0.9477   -1.7051 O   0  0  0  0  0  0  0  0  0  0  0  0
   -1.4174    2.7645   -0.3392 O   0  0  0  0  0  0  0  0  0  0  0  0
   -0.6511   -0.9461    1.7088 O   0  0  0  0  0  0  0  0  0  0  0  0
    5.2577   -0.0991   -0.5554 O   0  0  0  0  0  0  0  0  0  0  0  0
    3.5920   -2.0118   -0.5666 O   0  0  0  0  0  0  0  0  0  0  0  0
   -5.2551   -0.0982    0.5477 O   0  0  0  0  0  0  0  0  0  0  0  0
   -3.5908   -2.0119    0.5765 O   0  0  0  0  0  0  0  0  0  0  0  0
    3.9267   -0.6413    1.6531 O   0  0  0  0  0  0  0  0  0  0  0  0
   -3.9185   -0.6563   -1.6533 O   0  0  0  0  0  0  0  0  0  0  0  0
    1.4717    0.3857    0.1403 C   0  0  0  0  0  0  0  0  0  0  0  0
   -1.4667    0.3784   -0.1408 C   0  0  0  0  0  0  0  0  0  0  0  0
    0.7238    1.6644   -0.2530 C   0  0  0  0  0  0  0  0  0  0  0  0
    0.7154   -0.8813   -0.2805 C   0  0  0  0  0  0  0  0  0  0  0  0
   -0.7248    1.6595    0.2492 C   0  0  0  0  0  0  0  0  0  0  0  0
   -0.7077   -0.8843    0.2841 C   0  0  0  0  0  0  0  0  0  0  0  0
  1  3  1  0
  1  9  1  0
  1 10  1  0
  1 13  2  0
  2  4  1  0
  2 11  1  0
  2 12  1  0
  2 14  2  0
  3 15  1  0
  4 16  1  0
  5 17  1  0
  6 18  1  0
  7 19  1  0
  8 20  1  0
 15 17  1  0
 15 18  1  0
 16 19  1  0
 16 20  1  0
 17 19  1  0
 18 20  1  0
M  END
>  <PUBCHEM_COMPOUND_CID>  (1) 
805

>  <PUBCHEM_CONFORMER_RMSD>  (1) 
0.8

>  <PUBCHEM_CONFORMER_DIVERSEORDER>  (1) 
1
52
9
57
41
39
42
25
45
10
51
7
55
33
14
56
35
59
49
2
38
54
37
58
40
18
28
46
15
31
23
36
20
50
8
48
44
6
30
34
3
47
27
43
26
19
22
32
53
13
29
16
5
17
21
4
12
24
11

>  <PUBCHEM_MMFF94_PARTIAL_CHARGES>  (1) 
28
1 1.51
10 -0.77
11 -0.77
12 -0.77
13 -0.7
14 -0.7
15 0.28
16 0.28
17 0.28
18 0.28
19 0.28
2 1.51
20 0.28
27 0.4
28 0.4
29 0.4
3 -0.55
30 0.4
31 0.5
32 0.5
33 0.5
34 0.5
4 -0.55
5 -0.68
6 -0.68
7 -0.68
8 -0.68
9 -0.77

>  <PUBCHEM_EFFECTIVE_ROTOR_COUNT>  (1) 
5.2

>  <PUBCHEM_PHARMACOPHORE_FEATURES>  (1) 
17
1 10 acceptor
1 11 acceptor
1 12 acceptor
1 13 acceptor
1 14 acceptor
1 5 acceptor
1 5 donor
1 6 acceptor
1 6 donor
1 7 acceptor
1 7 donor
1 8 acceptor
1 8 donor
1 9 acceptor
4 1 9 10 13 anion
4 2 11 12 14 anion
6 15 16 17 18 19 20 rings

>  <PUBCHEM_HEAVY_ATOM_COUNT>  (1) 
20

>  <PUBCHEM_ATOM_DEF_STEREO_COUNT>  (1) 
0

>  <PUBCHEM_ATOM_UDEF_STEREO_COUNT>  (1) 
4

>  <PUBCHEM_BOND_DEF_STEREO_COUNT>  (1) 
0

>  <PUBCHEM_BOND_UDEF_STEREO_COUNT>  (1) 
0

>  <PUBCHEM_ISOTOPIC_ATOM_COUNT>  (1) 
0

>  <PUBCHEM_COMPONENT_COUNT>  (1) 
1

>  <PUBCHEM_CACTVS_TAUTO_COUNT>  (1) 
1

>  <PUBCHEM_CONFORMER_ID>  (1) 
0000032500000001

>  <PUBCHEM_MMFF94_ENERGY>  (1) 
-17.0312

>  <PUBCHEM_FEATURE_SELFOVERLAP>  (1) 
86.36

>  <PUBCHEM_SHAPE_FINGERPRINT>  (1) 
10062212 137 18342176687298340495
11045977 3 15697710497398235011
11132069 177 18343301422936892489
11543360 7 15647063701877689866
11680986 33 18192715776467175432
12032990 46 18410577283691732646
13134695 92 18340484568636181253
13140716 1 18268427021731760059
14115302 16 17531541960905735822
14787075 74 18261395576637776882
15848700 24 18413384341573280348
16945 1 18410849966870414373
17357779 13 18337096913218177013
17834072 14 18410570686616587303
18186145 218 17895467137562155791
18222031 100 18201431497713320486
187816 3 18041001738871940051
200 152 18201720656550138227
20510252 161 18341051792445864232
20645477 70 18336547234518228619
21029758 11 18411418414524704776
221490 88 18119255201524065299
23402539 116 18412260623325227311
23419403 2 18117812547531535140
23532345 42 18343013398483026792
23557571 272 18129389206585969364
23559900 14 18188773971826837956
2748010 2 17976549621287313160
3286 77 18337672013765921205
465052 167 18340214075806339887
7364860 26 18268711791497428552
9709674 26 18337400323046652406

>  <PUBCHEM_SHAPE_MULTIPOLES>  (1) 
348.86
8.62
2.16
1.14
0.03
1.44
0
-3.77
0
-0.01
0
0
-0.41
0.13

>  <PUBCHEM_SHAPE_SELFOVERLAP>  (1) 
678.347

>  <PUBCHEM_SHAPE_VOLUME>  (1) 
211

>  <PUBCHEM_COORDINATE_TYPE>  (1) 
2
5
10

$$$$
