8051
     RDKit          3D

  8  7  0  0  0  0  0  0  0  0999 V2000
   -2.2820   -1.2917    0.0115 O   0  0  0  0  0  0  0  0  0  0  0  0
    1.6347    0.4676   -0.0350 C   0  0  0  0  0  0  0  0  0  0  0  0
    0.2981   -0.2792   -0.0447 C   0  0  0  0  0  0  0  0  0  0  0  0
    2.8128   -0.5060    0.0074 C   0  0  0  0  0  0  0  0  0  0  0  0
   -0.8995    0.6658   -0.0568 C   0  0  0  0  0  0  0  0  0  0  0  0
    4.1422    0.2300    0.0570 C   0  0  0  0  0  0  0  0  0  0  0  0
   -2.2278   -0.0617   -0.0003 C   0  0  0  0  0  0  0  0  0  0  0  0
   -3.4785    0.7753    0.0609 C   0  0  0  0  0  0  0  0  0  0  0  0
  1  7  2  0
  2  3  1  0
  2  4  1  0
  3  5  1  0
  4  6  1  0
  5  7  1  0
  7  8  1  0
M  END
>  <PUBCHEM_COMPOUND_CID>  (1) 
8051

>  <PUBCHEM_CONFORMER_RMSD>  (1) 
0.6

>  <PUBCHEM_CONFORMER_DIVERSEORDER>  (1) 
1
41
8
24
4
40
13
22
5
39
21
34
31
17
2
26
15
27
30
9
16
38
12
11
6
7
10
29
36
25
19
32
14
3
18
37
35
23
20
28
33

>  <PUBCHEM_MMFF94_PARTIAL_CHARGES>  (1) 
4
1 -0.57
5 0.06
7 0.45
8 0.06

>  <PUBCHEM_EFFECTIVE_ROTOR_COUNT>  (1) 
4

>  <PUBCHEM_PHARMACOPHORE_FEATURES>  (1) 
3
1 1 acceptor
1 6 hydrophobe
4 2 3 4 5 hydrophobe

>  <PUBCHEM_HEAVY_ATOM_COUNT>  (1) 
8

>  <PUBCHEM_ATOM_DEF_STEREO_COUNT>  (1) 
0

>  <PUBCHEM_ATOM_UDEF_STEREO_COUNT>  (1) 
0

>  <PUBCHEM_BOND_DEF_STEREO_COUNT>  (1) 
0

>  <PUBCHEM_BOND_UDEF_STEREO_COUNT>  (1) 
0

>  <PUBCHEM_ISOTOPIC_ATOM_COUNT>  (1) 
0

>  <PUBCHEM_COMPONENT_COUNT>  (1) 
1

>  <PUBCHEM_CACTVS_TAUTO_COUNT>  (1) 
3

>  <PUBCHEM_CONFORMER_ID>  (1) 
00001F7300000001

>  <PUBCHEM_MMFF94_ENERGY>  (1) 
0.0115

>  <PUBCHEM_FEATURE_SELFOVERLAP>  (1) 
15.223

>  <PUBCHEM_SHAPE_FINGERPRINT>  (1) 
11062470 55 18413389821698381328
12932764 1 17240751900299324380
14325111 11 18410855469034652974
20719005 15 18410575084953190283
23402539 116 18131343091042593397
3248919 1 17131844169682349764
5460574 1 9367345938050446356

>  <PUBCHEM_SHAPE_MULTIPOLES>  (1) 
158.77
7.01
0.97
0.61
3.01
0.14
0
-0.58
-0.22
-0.48
0
0.03
-0.02
-0.01

>  <PUBCHEM_SHAPE_SELFOVERLAP>  (1) 
281.053

>  <PUBCHEM_SHAPE_VOLUME>  (1) 
104.2

>  <PUBCHEM_COORDINATE_TYPE>  (1) 
2
5
10

$$$$
