8055
     RDKit          3D

  8  7  0  0  0  0  0  0  0  0999 V2000
   -3.3390    1.2911   -0.0029 S   0  0  0  0  0  0  0  0  0  0  0  0
   -2.5480   -1.6004   -0.0026 S   0  0  0  0  0  0  0  0  0  0  0  0
   -0.8118    0.4403   -0.0010 O   0  0  0  0  0  0  0  0  0  0  0  0
    1.5822    0.4007    0.0204 C   0  0  0  0  0  0  0  0  0  0  0  0
    2.8307   -0.4766    0.0055 C   0  0  0  0  0  0  0  0  0  0  0  0
    0.3090   -0.4331   -0.0010 C   0  0  0  0  0  0  0  0  0  0  0  0
    4.0996    0.3603   -0.0167 C   0  0  0  0  0  0  0  0  0  0  0  0
   -2.1227    0.0178   -0.0017 C   0  0  0  0  0  0  0  0  0  0  0  0
  1  8  1  0
  2  8  2  0
  3  6  1  0
  3  8  1  0
  4  5  1  0
  4  6  1  0
  5  7  1  0
M  END
>  <PUBCHEM_COMPOUND_CID>  (1) 
8055

>  <PUBCHEM_CONFORMER_RMSD>  (1) 
0.6

>  <PUBCHEM_CONFORMER_DIVERSEORDER>  (1) 
1
21
9
16
18
6
8
23
15
11
2
20
4
12
13
22
7
17
19
10
3
14
5

>  <PUBCHEM_MMFF94_PARTIAL_CHARGES>  (1) 
6
1 -0.32
18 0.18
2 -0.38
3 -0.43
6 0.28
8 0.67

>  <PUBCHEM_EFFECTIVE_ROTOR_COUNT>  (1) 
4

>  <PUBCHEM_PHARMACOPHORE_FEATURES>  (1) 
3
1 2 acceptor
1 7 hydrophobe
3 1 2 8 anion

>  <PUBCHEM_HEAVY_ATOM_COUNT>  (1) 
8

>  <PUBCHEM_ATOM_DEF_STEREO_COUNT>  (1) 
0

>  <PUBCHEM_ATOM_UDEF_STEREO_COUNT>  (1) 
0

>  <PUBCHEM_BOND_DEF_STEREO_COUNT>  (1) 
0

>  <PUBCHEM_BOND_UDEF_STEREO_COUNT>  (1) 
0

>  <PUBCHEM_ISOTOPIC_ATOM_COUNT>  (1) 
0

>  <PUBCHEM_COMPONENT_COUNT>  (1) 
1

>  <PUBCHEM_CACTVS_TAUTO_COUNT>  (1) 
1

>  <PUBCHEM_CONFORMER_ID>  (1) 
00001F7700000001

>  <PUBCHEM_MMFF94_ENERGY>  (1) 
10.3617

>  <PUBCHEM_FEATURE_SELFOVERLAP>  (1) 
15.223

>  <PUBCHEM_SHAPE_FINGERPRINT>  (1) 
11062470 55 18343019969477235688
12932764 1 17385995165840958980
14325111 11 18410575089269392994
20645477 70 17131557120281272862
23402539 116 18343011182617765701
3248919 1 18341607109804310054
5460574 1 9295290543077978466

>  <PUBCHEM_SHAPE_MULTIPOLES>  (1) 
166.47
7.21
1.35
0.63
4.66
0.26
0
-1.15
0.03
-1.58
0
-0.05
0.01
0

>  <PUBCHEM_SHAPE_SELFOVERLAP>  (1) 
278.356

>  <PUBCHEM_SHAPE_VOLUME>  (1) 
114.4

>  <PUBCHEM_COORDINATE_TYPE>  (1) 
2
5
10

$$$$
