8061
     RDKit          3D

  6  5  0  0  0  0  0  0  0  0999 V2000
    2.9384   -0.4892    0.0071 N   0  0  0  0  0  0  0  0  0  0  0  0
   -0.5383   -0.2500   -0.0301 C   0  0  0  0  0  0  0  0  0  0  0  0
   -1.8901    0.4630    0.0038 C   0  0  0  0  0  0  0  0  0  0  0  0
    0.6186    0.7485    0.0011 C   0  0  0  0  0  0  0  0  0  0  0  0
   -3.0428   -0.5283    0.0131 C   0  0  0  0  0  0  0  0  0  0  0  0
    1.9141    0.0561    0.0049 C   0  0  0  0  0  0  0  0  0  0  0  0
  1  6  3  0
  2  3  1  0
  2  4  1  0
  3  5  1  0
  4  6  1  0
M  END
>  <PUBCHEM_COMPOUND_CID>  (1) 
8061

>  <PUBCHEM_CONFORMER_RMSD>  (1) 
0.4

>  <PUBCHEM_CONFORMER_DIVERSEORDER>  (1) 
1
8
6
7
4
3
5
2

>  <PUBCHEM_MMFF94_PARTIAL_CHARGES>  (1) 
3
1 -0.56
4 0.2
6 0.36

>  <PUBCHEM_EFFECTIVE_ROTOR_COUNT>  (1) 
2

>  <PUBCHEM_PHARMACOPHORE_FEATURES>  (1) 
2
1 1 acceptor
1 5 hydrophobe

>  <PUBCHEM_HEAVY_ATOM_COUNT>  (1) 
6

>  <PUBCHEM_ATOM_DEF_STEREO_COUNT>  (1) 
0

>  <PUBCHEM_ATOM_UDEF_STEREO_COUNT>  (1) 
0

>  <PUBCHEM_BOND_DEF_STEREO_COUNT>  (1) 
0

>  <PUBCHEM_BOND_UDEF_STEREO_COUNT>  (1) 
0

>  <PUBCHEM_ISOTOPIC_ATOM_COUNT>  (1) 
0

>  <PUBCHEM_COMPONENT_COUNT>  (1) 
1

>  <PUBCHEM_CACTVS_TAUTO_COUNT>  (1) 
1

>  <PUBCHEM_CONFORMER_ID>  (1) 
00001F7D00000001

>  <PUBCHEM_MMFF94_ENERGY>  (1) 
-2.2143

>  <PUBCHEM_FEATURE_SELFOVERLAP>  (1) 
10.148

>  <PUBCHEM_SHAPE_FINGERPRINT>  (1) 
14390081 3 8286202738458735999
16714656 1 17458344139123937775
29004967 10 17989489610594442328
5460574 1 9223232948639162884

>  <PUBCHEM_SHAPE_MULTIPOLES>  (1) 
118.5
4.71
0.83
0.6
0.15
0.06
0
-1.11
-0.03
0.05
0
0.04
0.01
0

>  <PUBCHEM_SHAPE_SELFOVERLAP>  (1) 
205.22

>  <PUBCHEM_SHAPE_VOLUME>  (1) 
77.2

>  <PUBCHEM_COORDINATE_TYPE>  (1) 
2
5
10

$$$$
