8064
     RDKit          3D

  6  5  0  0  0  0  0  0  0  0999 V2000
   -3.0455    0.2457    0.0038 O   0  0  0  0  0  0  0  0  0  0  0  0
    3.0454   -0.2457    0.0091 O   0  0  0  0  0  0  0  0  0  0  0  0
   -0.6553    0.3895   -0.0089 C   0  0  0  0  0  0  0  0  0  0  0  0
    0.6554   -0.3894   -0.0192 C   0  0  0  0  0  0  0  0  0  0  0  0
   -1.8610   -0.5392    0.0101 C   0  0  0  0  0  0  0  0  0  0  0  0
    1.8611    0.5391    0.0051 C   0  0  0  0  0  0  0  0  0  0  0  0
  1  5  1  0
  2  6  1  0
  3  4  1  0
  3  5  1  0
  4  6  1  0
M  END
>  <PUBCHEM_COMPOUND_CID>  (1) 
8064

>  <PUBCHEM_CONFORMER_RMSD>  (1) 
0.4

>  <PUBCHEM_CONFORMER_DIVERSEORDER>  (1) 
1
16
10
12
15
6
14
4
11
7
13
5
2
8
9
3

>  <PUBCHEM_MMFF94_PARTIAL_CHARGES>  (1) 
6
1 -0.68
15 0.4
16 0.4
2 -0.68
5 0.28
6 0.28

>  <PUBCHEM_EFFECTIVE_ROTOR_COUNT>  (1) 
3

>  <PUBCHEM_PHARMACOPHORE_FEATURES>  (1) 
4
1 1 acceptor
1 1 donor
1 2 acceptor
1 2 donor

>  <PUBCHEM_HEAVY_ATOM_COUNT>  (1) 
6

>  <PUBCHEM_ATOM_DEF_STEREO_COUNT>  (1) 
0

>  <PUBCHEM_ATOM_UDEF_STEREO_COUNT>  (1) 
0

>  <PUBCHEM_BOND_DEF_STEREO_COUNT>  (1) 
0

>  <PUBCHEM_BOND_UDEF_STEREO_COUNT>  (1) 
0

>  <PUBCHEM_ISOTOPIC_ATOM_COUNT>  (1) 
0

>  <PUBCHEM_COMPONENT_COUNT>  (1) 
1

>  <PUBCHEM_CACTVS_TAUTO_COUNT>  (1) 
1

>  <PUBCHEM_CONFORMER_ID>  (1) 
00001F8000000001

>  <PUBCHEM_MMFF94_ENERGY>  (1) 
1.2573

>  <PUBCHEM_FEATURE_SELFOVERLAP>  (1) 
20.297

>  <PUBCHEM_SHAPE_FINGERPRINT>  (1) 
14390081 3 18272647961140322633
16714656 1 18410573998215707695
29004967 10 18412269444998064754
5460574 1 9223234043850522628

>  <PUBCHEM_SHAPE_MULTIPOLES>  (1) 
111.74
4.46
0.76
0.58
0
0
0
0
0.03
0
0
0
0
0

>  <PUBCHEM_SHAPE_SELFOVERLAP>  (1) 
190.307

>  <PUBCHEM_SHAPE_VOLUME>  (1) 
75.4

>  <PUBCHEM_COORDINATE_TYPE>  (1) 
2
5
10

$$$$
