8067
     RDKit          3D

  6  5  0  0  0  0  0  0  0  0999 V2000
   -3.3789   -0.2989   -0.0115 S   0  0  0  0  0  0  0  0  0  0  0  0
    0.7032    0.4037    0.0227 C   0  0  0  0  0  0  0  0  0  0  0  0
   -0.6255   -0.3568    0.0109 C   0  0  0  0  0  0  0  0  0  0  0  0
    1.8935   -0.5550    0.0029 C   0  0  0  0  0  0  0  0  0  0  0  0
   -1.8067    0.6095   -0.0053 C   0  0  0  0  0  0  0  0  0  0  0  0
    3.2144    0.1975   -0.0196 C   0  0  0  0  0  0  0  0  0  0  0  0
  1  5  1  0
  2  3  1  0
  2  4  1  0
  3  5  1  0
  4  6  1  0
M  END
>  <PUBCHEM_COMPOUND_CID>  (1) 
8067

>  <PUBCHEM_CONFORMER_RMSD>  (1) 
0.4

>  <PUBCHEM_CONFORMER_DIVERSEORDER>  (1) 
1
8
17
13
9
2
12
16
6
15
4
7
10
11
14
5
3

>  <PUBCHEM_MMFF94_PARTIAL_CHARGES>  (1) 
3
1 -0.41
18 0.18
5 0.23

>  <PUBCHEM_EFFECTIVE_ROTOR_COUNT>  (1) 
3

>  <PUBCHEM_PHARMACOPHORE_FEATURES>  (1) 
1
1 6 hydrophobe

>  <PUBCHEM_HEAVY_ATOM_COUNT>  (1) 
6

>  <PUBCHEM_ATOM_DEF_STEREO_COUNT>  (1) 
0

>  <PUBCHEM_ATOM_UDEF_STEREO_COUNT>  (1) 
0

>  <PUBCHEM_BOND_DEF_STEREO_COUNT>  (1) 
0

>  <PUBCHEM_BOND_UDEF_STEREO_COUNT>  (1) 
0

>  <PUBCHEM_ISOTOPIC_ATOM_COUNT>  (1) 
0

>  <PUBCHEM_COMPONENT_COUNT>  (1) 
1

>  <PUBCHEM_CACTVS_TAUTO_COUNT>  (1) 
1

>  <PUBCHEM_CONFORMER_ID>  (1) 
00001F8300000001

>  <PUBCHEM_MMFF94_ENERGY>  (1) 
-1.5065

>  <PUBCHEM_FEATURE_SELFOVERLAP>  (1) 
5.074

>  <PUBCHEM_SHAPE_FINGERPRINT>  (1) 
11062470 55 15213018254234944943
12932764 1 15769484344437122245
14325111 11 18410573955134198307
14390081 3 18413105056855999224
29004967 10 18412830166016420762
5460574 1 9295287239847233705

>  <PUBCHEM_SHAPE_MULTIPOLES>  (1) 
127.33
5.73
0.81
0.63
0.45
0
0
-0.27
0.05
0.07
0
0.05
0
0

>  <PUBCHEM_SHAPE_SELFOVERLAP>  (1) 
206.267

>  <PUBCHEM_SHAPE_VOLUME>  (1) 
89.2

>  <PUBCHEM_COORDINATE_TYPE>  (1) 
2
5
10

$$$$
