8068
     RDKit          3D

  6  5  0  0  0  0  0  0  0  0999 V2000
   -1.8255   -0.5186    0.0022 N   0  0  0  0  0  0  0  0  0  0  0  0
    0.6225   -0.3965   -0.0047 C   0  0  0  0  0  0  0  0  0  0  0  0
   -0.6863    0.3913    0.0185 C   0  0  0  0  0  0  0  0  0  0  0  0
    1.8312    0.5401   -0.0097 C   0  0  0  0  0  0  0  0  0  0  0  0
    3.1382   -0.2365    0.0029 C   0  0  0  0  0  0  0  0  0  0  0  0
   -3.0801    0.2202   -0.0092 C   0  0  0  0  0  0  0  0  0  0  0  0
  1  3  1  0
  1  6  1  0
  2  3  1  0
  2  4  1  0
  4  5  1  0
M  END
>  <PUBCHEM_COMPOUND_CID>  (1) 
8068

>  <PUBCHEM_CONFORMER_RMSD>  (1) 
0.4

>  <PUBCHEM_CONFORMER_DIVERSEORDER>  (1) 
1
18
17
6
12
13
8
7
5
15
3
4
14
9
11
2
10
16

>  <PUBCHEM_MMFF94_PARTIAL_CHARGES>  (1) 
4
1 -0.9
13 0.36
3 0.27
6 0.27

>  <PUBCHEM_EFFECTIVE_ROTOR_COUNT>  (1) 
3

>  <PUBCHEM_PHARMACOPHORE_FEATURES>  (1) 
3
1 1 cation
1 1 donor
1 5 hydrophobe

>  <PUBCHEM_HEAVY_ATOM_COUNT>  (1) 
6

>  <PUBCHEM_ATOM_DEF_STEREO_COUNT>  (1) 
0

>  <PUBCHEM_ATOM_UDEF_STEREO_COUNT>  (1) 
0

>  <PUBCHEM_BOND_DEF_STEREO_COUNT>  (1) 
0

>  <PUBCHEM_BOND_UDEF_STEREO_COUNT>  (1) 
0

>  <PUBCHEM_ISOTOPIC_ATOM_COUNT>  (1) 
0

>  <PUBCHEM_COMPONENT_COUNT>  (1) 
1

>  <PUBCHEM_CACTVS_TAUTO_COUNT>  (1) 
1

>  <PUBCHEM_CONFORMER_ID>  (1) 
00001F8400000001

>  <PUBCHEM_MMFF94_ENERGY>  (1) 
-4.0449

>  <PUBCHEM_FEATURE_SELFOVERLAP>  (1) 
15.223

>  <PUBCHEM_SHAPE_FINGERPRINT>  (1) 
11062470 55 15339119039321696258
14325111 11 18410575110464583170
14390081 3 18344142596640175897
16714656 1 18411136943773934935
29004967 10 14045748140107733814
5460574 1 9223232948649705888

>  <PUBCHEM_SHAPE_MULTIPOLES>  (1) 
118.5
5.13
0.76
0.6
0.42
0.02
0
-0.04
0.01
-0.05
0
-0.03
0.01
0

>  <PUBCHEM_SHAPE_SELFOVERLAP>  (1) 
197.915

>  <PUBCHEM_SHAPE_VOLUME>  (1) 
80.8

>  <PUBCHEM_COORDINATE_TYPE>  (1) 
2
5
10

$$$$
