8070
     RDKit          3D

  6  5  0  0  0  0  0  0  0  0999 V2000
    1.7915   -0.5176    0.0070 N   0  0  0  0  0  0  0  0  0  0  0  0
   -1.7916    0.5177   -0.0045 N   0  0  0  0  0  0  0  0  0  0  0  0
    0.6529    0.3944    0.0030 C   0  0  0  0  0  0  0  0  0  0  0  0
   -0.6530   -0.3943   -0.0184 C   0  0  0  0  0  0  0  0  0  0  0  0
    3.0467    0.2198    0.0007 C   0  0  0  0  0  0  0  0  0  0  0  0
   -3.0466   -0.2199    0.0121 C   0  0  0  0  0  0  0  0  0  0  0  0
  1  3  1  0
  1  5  1  0
  2  4  1  0
  2  6  1  0
  3  4  1  0
M  END
>  <PUBCHEM_COMPOUND_CID>  (1) 
8070

>  <PUBCHEM_CONFORMER_RMSD>  (1) 
0.4

>  <PUBCHEM_CONFORMER_DIVERSEORDER>  (1) 
1
13
12
2
11
5
9
7
10
8
3
4
6

>  <PUBCHEM_MMFF94_PARTIAL_CHARGES>  (1) 
8
1 -0.9
11 0.36
12 0.36
2 -0.9
3 0.27
4 0.27
5 0.27
6 0.27

>  <PUBCHEM_EFFECTIVE_ROTOR_COUNT>  (1) 
3

>  <PUBCHEM_PHARMACOPHORE_FEATURES>  (1) 
4
1 1 cation
1 1 donor
1 2 cation
1 2 donor

>  <PUBCHEM_HEAVY_ATOM_COUNT>  (1) 
6

>  <PUBCHEM_ATOM_DEF_STEREO_COUNT>  (1) 
0

>  <PUBCHEM_ATOM_UDEF_STEREO_COUNT>  (1) 
0

>  <PUBCHEM_BOND_DEF_STEREO_COUNT>  (1) 
0

>  <PUBCHEM_BOND_UDEF_STEREO_COUNT>  (1) 
0

>  <PUBCHEM_ISOTOPIC_ATOM_COUNT>  (1) 
0

>  <PUBCHEM_COMPONENT_COUNT>  (1) 
1

>  <PUBCHEM_CACTVS_TAUTO_COUNT>  (1) 
1

>  <PUBCHEM_CONFORMER_ID>  (1) 
00001F8600000001

>  <PUBCHEM_MMFF94_ENERGY>  (1) 
-2.5952

>  <PUBCHEM_FEATURE_SELFOVERLAP>  (1) 
20.297

>  <PUBCHEM_SHAPE_FINGERPRINT>  (1) 
14390081 3 18343299275469179208
16714656 1 18410855460291685709
29004967 10 18409453578592202290
5460574 1 9295288339353567233

>  <PUBCHEM_SHAPE_MULTIPOLES>  (1) 
113.52
4.99
0.73
0.59
0
0
0
0
0.02
0
0
0
0
0

>  <PUBCHEM_SHAPE_SELFOVERLAP>  (1) 
189.434

>  <PUBCHEM_SHAPE_VOLUME>  (1) 
77.6

>  <PUBCHEM_COORDINATE_TYPE>  (1) 
2
5
10

$$$$
