8084
     RDKit          3D

  9  8  0  0  0  0  0  0  0  0999 V2000
    2.3006    0.1486   -0.1537 N   0  0  0  0  0  0  0  0  0  0  0  0
   -2.0102    0.0638    0.3656 N   0  0  0  0  0  0  0  0  0  0  0  0
    0.0208    0.0939   -1.0526 C   0  0  0  0  0  0  0  0  0  0  0  0
    0.9295    0.5922    0.0726 C   0  0  0  0  0  0  0  0  0  0  0  0
   -1.4339    0.5388   -0.8865 C   0  0  0  0  0  0  0  0  0  0  0  0
    2.3754   -1.3133   -0.1528 C   0  0  0  0  0  0  0  0  0  0  0  0
    3.1958    0.7038    0.8625 C   0  0  0  0  0  0  0  0  0  0  0  0
   -2.0047   -1.3994    0.4135 C   0  0  0  0  0  0  0  0  0  0  0  0
   -3.3732    0.5718    0.5315 C   0  0  0  0  0  0  0  0  0  0  0  0
  1  4  1  0
  1  6  1  0
  1  7  1  0
  2  5  1  0
  2  8  1  0
  2  9  1  0
  3  4  1  0
  3  5  1  0
M  END
>  <PUBCHEM_COMPOUND_CID>  (1) 
8084

>  <PUBCHEM_CONFORMER_RMSD>  (1) 
0.6

>  <PUBCHEM_CONFORMER_DIVERSEORDER>  (1) 
1
3
7
9
2
10
5
8
4
6

>  <PUBCHEM_MMFF94_PARTIAL_CHARGES>  (1) 
8
1 -0.81
2 -0.81
4 0.27
5 0.27
6 0.27
7 0.27
8 0.27
9 0.27

>  <PUBCHEM_EFFECTIVE_ROTOR_COUNT>  (1) 
4

>  <PUBCHEM_PHARMACOPHORE_FEATURES>  (1) 
2
1 1 cation
1 2 cation

>  <PUBCHEM_HEAVY_ATOM_COUNT>  (1) 
9

>  <PUBCHEM_ATOM_DEF_STEREO_COUNT>  (1) 
0

>  <PUBCHEM_ATOM_UDEF_STEREO_COUNT>  (1) 
0

>  <PUBCHEM_BOND_DEF_STEREO_COUNT>  (1) 
0

>  <PUBCHEM_BOND_UDEF_STEREO_COUNT>  (1) 
0

>  <PUBCHEM_ISOTOPIC_ATOM_COUNT>  (1) 
0

>  <PUBCHEM_COMPONENT_COUNT>  (1) 
1

>  <PUBCHEM_CACTVS_TAUTO_COUNT>  (1) 
1

>  <PUBCHEM_CONFORMER_ID>  (1) 
00001F9400000001

>  <PUBCHEM_MMFF94_ENERGY>  (1) 
16.8521

>  <PUBCHEM_FEATURE_SELFOVERLAP>  (1) 
10.149

>  <PUBCHEM_SHAPE_FINGERPRINT>  (1) 
10857977 72 18187357770384311492
12897270 3 9727633890902058761
12932764 1 18202279191208581796
14325111 11 17703790318815662357
14390081 3 11671781550626305695
15775835 57 16558746827764379024
20645464 45 18409161099840739823
21028194 46 13901912180614105349
23235687 12 17894630391680251324
29004967 10 18409443687609690516
3248919 1 18335698372950242084
369184 2 18131911555216733039

>  <PUBCHEM_SHAPE_MULTIPOLES>  (1) 
175.25
5.44
1.21
0.98
0.21
0.48
0.11
-0.39
-1.72
0.07
-0.11
-0.04
-0.11
0.38

>  <PUBCHEM_SHAPE_SELFOVERLAP>  (1) 
310.69

>  <PUBCHEM_SHAPE_VOLUME>  (1) 
115.5

>  <PUBCHEM_COORDINATE_TYPE>  (1) 
2
5
10

$$$$
