8085
     RDKit          3D

  9  8  0  0  0  0  0  0  0  0999 V2000
    0.0013    0.1760   -0.0002 N   0  0  0  0  0  0  0  0  0  0  0  0
   -2.4756    0.1848    0.2737 C   0  0  0  0  0  0  0  0  0  0  0  0
    2.4754    0.1848   -0.2737 C   0  0  0  0  0  0  0  0  0  0  0  0
   -1.1890   -0.6515    0.1659 C   0  0  0  0  0  0  0  0  0  0  0  0
    1.1881   -0.6505   -0.1657 C   0  0  0  0  0  0  0  0  0  0  0  0
   -2.6294    1.0594   -0.9735 C   0  0  0  0  0  0  0  0  0  0  0  0
   -3.7255   -0.6808    0.4524 C   0  0  0  0  0  0  0  0  0  0  0  0
    2.6299    1.0595    0.9733 C   0  0  0  0  0  0  0  0  0  0  0  0
    3.7247   -0.6817   -0.4523 C   0  0  0  0  0  0  0  0  0  0  0  0
  1  4  1  0
  1  5  1  0
  2  4  1  0
  2  6  1  0
  2  7  1  0
  3  5  1  0
  3  8  1  0
  3  9  1  0
M  END
>  <PUBCHEM_COMPOUND_CID>  (1) 
8085

>  <PUBCHEM_CONFORMER_RMSD>  (1) 
0.6

>  <PUBCHEM_CONFORMER_DIVERSEORDER>  (1) 
1
3
2

>  <PUBCHEM_MMFF94_PARTIAL_CHARGES>  (1) 
4
1 -0.9
16 0.36
4 0.27
5 0.27

>  <PUBCHEM_EFFECTIVE_ROTOR_COUNT>  (1) 
4

>  <PUBCHEM_PHARMACOPHORE_FEATURES>  (1) 
4
1 1 cation
1 1 donor
3 2 6 7 hydrophobe
3 3 8 9 hydrophobe

>  <PUBCHEM_HEAVY_ATOM_COUNT>  (1) 
9

>  <PUBCHEM_ATOM_DEF_STEREO_COUNT>  (1) 
0

>  <PUBCHEM_ATOM_UDEF_STEREO_COUNT>  (1) 
0

>  <PUBCHEM_BOND_DEF_STEREO_COUNT>  (1) 
0

>  <PUBCHEM_BOND_UDEF_STEREO_COUNT>  (1) 
0

>  <PUBCHEM_ISOTOPIC_ATOM_COUNT>  (1) 
0

>  <PUBCHEM_COMPONENT_COUNT>  (1) 
1

>  <PUBCHEM_CACTVS_TAUTO_COUNT>  (1) 
1

>  <PUBCHEM_CONFORMER_ID>  (1) 
00001F9500000001

>  <PUBCHEM_MMFF94_ENERGY>  (1) 
3.01

>  <PUBCHEM_FEATURE_SELFOVERLAP>  (1) 
20.297

>  <PUBCHEM_SHAPE_FINGERPRINT>  (1) 
10857977 72 18040996271637054417
12932764 1 18410568487593539622
14144814 61 15719109154037634848
14325111 11 18260267434214797182
14390081 3 18409724049963063657
18186145 218 18059857263855720354
20711983 171 16515960372209532125
20765181 27 18410846668330230304

>  <PUBCHEM_SHAPE_MULTIPOLES>  (1) 
180.23
7.08
1.08
0.89
0
0.14
0
-0.41
0
0
0
0
0.2
0.88

>  <PUBCHEM_SHAPE_SELFOVERLAP>  (1) 
317.348

>  <PUBCHEM_SHAPE_VOLUME>  (1) 
118.2

>  <PUBCHEM_COORDINATE_TYPE>  (1) 
2
5
10

$$$$
