809
     RDKit          3D

 16 16  0  0  1  0  0  0  0  0999 V2000
    1.1713   -0.5967    0.7021 O   0  0  0  0  0  0  0  0  0  0  0  0
   -1.7926   -2.1024   -0.5509 O   0  0  0  0  0  0  0  0  0  0  0  0
   -3.4447   -0.6763    1.3900 O   0  0  0  0  0  0  0  0  0  0  0  0
   -3.9690    1.3594    0.4893 O   0  0  0  0  0  0  0  0  0  0  0  0
    2.4248    1.6503    1.0408 O   0  0  0  0  0  0  0  0  0  0  0  0
    4.3776    0.8242    0.2241 O   0  0  0  0  0  0  0  0  0  0  0  0
    0.3094   -0.9016   -0.3957 C   0  0  0  0  0  0  0  0  0  0  0  0
   -1.1503   -1.0091    0.1106 C   0  0  0  0  0  0  0  0  0  0  0  0
   -1.9721    0.2277   -0.1290 C   0  0  0  0  0  0  0  0  0  0  0  0
    0.5267    0.1450   -1.4551 C   0  0  0  0  0  0  0  0  0  0  0  0
   -1.6010    1.2041   -0.9692 C   0  0  0  0  0  0  0  0  0  0  0  0
   -0.3730    1.1026   -1.7186 C   0  0  0  0  0  0  0  0  0  0  0  0
   -3.2338    0.3947    0.5967 C   0  0  0  0  0  0  0  0  0  0  0  0
    2.4715   -0.6014    0.3284 C   0  0  0  0  0  0  0  0  0  0  0  0
    3.1995    0.6748    0.5159 C   0  0  0  0  0  0  0  0  0  0  0  0
    3.0557   -1.6953   -0.1793 C   0  0  0  0  0  0  0  0  0  0  0  0
  1  7  1  0
  1 14  1  0
  2  8  1  0
  3 13  1  0
  4 13  2  0
  5 15  1  0
  6 15  2  0
  7  8  1  0
  7 10  1  0
  8  9  1  0
  9 11  2  0
  9 13  1  0
 10 12  2  0
 11 12  1  0
 14 15  1  0
 14 16  2  0
M  END
>  <PUBCHEM_COMPOUND_CID>  (1) 
809

>  <PUBCHEM_CONFORMER_RMSD>  (1) 
0.6

>  <PUBCHEM_CONFORMER_DIVERSEORDER>  (1) 
1
48
16
18
29
9
35
8
49
21
24
26
50
34
30
4
43
11
37
45
10
12
23
7
38
46
3
15
17
36
47
41
13
31
32
39
27
42
28
33
40
20
19
6
22
25
14
2
5
44

>  <PUBCHEM_MMFF94_PARTIAL_CHARGES>  (1) 
24
1 -0.36
10 -0.29
11 -0.15
12 -0.15
13 0.71
14 0.09
15 0.71
16 -0.3
19 0.15
2 -0.68
20 0.15
21 0.15
22 0.4
23 0.15
24 0.15
25 0.5
26 0.5
3 -0.65
4 -0.57
5 -0.65
6 -0.57
7 0.42
8 0.42
9 -0.12

>  <PUBCHEM_EFFECTIVE_ROTOR_COUNT>  (1) 
4.4

>  <PUBCHEM_PHARMACOPHORE_FEATURES>  (1) 
10
1 1 acceptor
1 2 acceptor
1 2 donor
1 3 acceptor
1 4 acceptor
1 5 acceptor
1 6 acceptor
3 3 4 13 anion
3 5 6 15 anion
6 7 8 9 10 11 12 rings

>  <PUBCHEM_HEAVY_ATOM_COUNT>  (1) 
16

>  <PUBCHEM_ATOM_DEF_STEREO_COUNT>  (1) 
0

>  <PUBCHEM_ATOM_UDEF_STEREO_COUNT>  (1) 
2

>  <PUBCHEM_BOND_DEF_STEREO_COUNT>  (1) 
0

>  <PUBCHEM_BOND_UDEF_STEREO_COUNT>  (1) 
0

>  <PUBCHEM_ISOTOPIC_ATOM_COUNT>  (1) 
0

>  <PUBCHEM_COMPONENT_COUNT>  (1) 
1

>  <PUBCHEM_CACTVS_TAUTO_COUNT>  (1) 
1

>  <PUBCHEM_CONFORMER_ID>  (1) 
0000032900000001

>  <PUBCHEM_MMFF94_ENERGY>  (1) 
42.4253

>  <PUBCHEM_FEATURE_SELFOVERLAP>  (1) 
50.875

>  <PUBCHEM_SHAPE_FINGERPRINT>  (1) 
10857977 72 17458344113232827821
11031198 65 16343989091345732671
11132069 177 17749112166743241007
11578080 2 14563083801162622207
12251169 10 18410294747968863237
12633257 1 18338504305497571944
12932764 1 18188199919161390926
13214271 11 17748823029423574583
13296908 3 17530961345820352494
13380535 21 18412542128646465758
13705890 14 8502363425912829264
14943859 89 16272206396810845876
15219456 202 18336823100737220718
15375462 189 14851610989682366521
15775835 57 18411418418945804922
16945 1 17313104107893104911
17804303 29 18263935336391492086
17844478 74 18113896027115222868
18175812 5 18335704892895298055
18981168 100 17629734993812525288
19862831 5 11959735953659570771
19868273 293 14979949285490177724
20528008 55 18409722954857043173
20645476 183 15697709385212501188
20653085 51 15051721032148158467
20711983 171 17775563152211106430
20715346 28 18114175285635504014
21486144 27 18271800216290018126
21501502 16 18342726442965035774
21501925 9 17749681778470532827
22112679 90 18118696641021764175
22959321 45 18259986006846580830
23388829 49 17832419074440159647
23532345 42 17821738233851536399
23559900 14 17314225562561894246
2748010 2 17679857111796151127
449060 50 18410577309688318336
5902787 121 16226343610811291897
74978 22 14261057827226837914
90316 7 16878506718061384853
9882013 296 17894914052806027368

>  <PUBCHEM_SHAPE_MULTIPOLES>  (1) 
294.06
6.56
1.69
1.26
1.1
0.27
0.23
-0.96
-2.73
0.09
0.18
-0.27
-0.31
0.52

>  <PUBCHEM_SHAPE_SELFOVERLAP>  (1) 
615.365

>  <PUBCHEM_SHAPE_VOLUME>  (1) 
163.4

>  <PUBCHEM_COORDINATE_TYPE>  (1) 
2
5
10

$$$$
