8092
     RDKit          3D

 11 10  0  0  0  0  0  0  0  0999 V2000
    3.2921   -1.0196    0.3131 O   0  0  0  0  0  0  0  0  0  0  0  0
    3.6608    1.0013   -0.7523 O   0  0  0  0  0  0  0  0  0  0  0  0
   -3.4295    0.2942    0.1697 C   0  0  0  0  0  0  0  0  0  0  0  0
   -1.9458   -0.0367   -0.0250 C   0  0  0  0  0  0  0  0  0  0  0  0
   -4.3217   -0.8202   -0.3785 C   0  0  0  0  0  0  0  0  0  0  0  0
   -1.0175    1.0414    0.5370 C   0  0  0  0  0  0  0  0  0  0  0  0
   -5.7947   -0.5119   -0.1622 C   0  0  0  0  0  0  0  0  0  0  0  0
    0.3989    0.7436    0.2839 C   0  0  0  0  0  0  0  0  0  0  0  0
    1.5565    0.4992    0.0784 C   0  0  0  0  0  0  0  0  0  0  0  0
    2.9429    0.2025   -0.1696 C   0  0  0  0  0  0  0  0  0  0  0  0
    4.6579   -1.3939    0.1054 C   0  0  0  0  0  0  0  0  0  0  0  0
  1 10  1  0
  1 11  1  0
  2 10  2  0
  3  4  1  0
  3  5  1  0
  4  6  1  0
  5  7  1  0
  6  8  1  0
  8  9  3  0
  9 10  1  0
M  END
>  <PUBCHEM_COMPOUND_CID>  (1) 
8092

>  <PUBCHEM_CONFORMER_RMSD>  (1) 
0.6

>  <PUBCHEM_CONFORMER_DIVERSEORDER>  (1) 
2
13
10
3
12
5
9
1
4
8
6
7
11

>  <PUBCHEM_MMFF94_PARTIAL_CHARGES>  (1) 
7
1 -0.43
10 0.83
11 0.28
2 -0.57
6 0.2
8 -0.2
9 -0.1

>  <PUBCHEM_EFFECTIVE_ROTOR_COUNT>  (1) 
4

>  <PUBCHEM_PHARMACOPHORE_FEATURES>  (1) 
3
1 2 acceptor
1 7 hydrophobe
5 3 4 5 6 8 hydrophobe

>  <PUBCHEM_HEAVY_ATOM_COUNT>  (1) 
11

>  <PUBCHEM_ATOM_DEF_STEREO_COUNT>  (1) 
0

>  <PUBCHEM_ATOM_UDEF_STEREO_COUNT>  (1) 
0

>  <PUBCHEM_BOND_DEF_STEREO_COUNT>  (1) 
0

>  <PUBCHEM_BOND_UDEF_STEREO_COUNT>  (1) 
0

>  <PUBCHEM_ISOTOPIC_ATOM_COUNT>  (1) 
0

>  <PUBCHEM_COMPONENT_COUNT>  (1) 
1

>  <PUBCHEM_CACTVS_TAUTO_COUNT>  (1) 
1

>  <PUBCHEM_CONFORMER_ID>  (1) 
00001F9C00000002

>  <PUBCHEM_MMFF94_ENERGY>  (1) 
2.3669

>  <PUBCHEM_FEATURE_SELFOVERLAP>  (1) 
15.223

>  <PUBCHEM_SHAPE_FINGERPRINT>  (1) 
100836 57 7853571331293803611
10354089 29 11095879384811200274
114248 4 17240482541852571685
11987891 38 18410576193097223539
13690532 89 18412262835365175475
14252887 29 15769784541445373260
14455015 7 18333739026614302067
15242433 33 18410294752385182415
15477762 27 18334296427633299014
177051 138 18271526412283075642
18186145 218 16370729231323955809
18342897 14 9295285045229916619
20605781 2 10953461821203140551
20645477 70 18260830375968894930
20767249 142 18341895156202764022
20767249 213 8862943875465867451
21119208 17 16950281814914713991
22485316 2 18342454880772402349
23218964 4 18412823569769677693
23402539 116 18410007702762675509
81539 233 12396567529845426769

>  <PUBCHEM_SHAPE_MULTIPOLES>  (1) 
214.64
11.98
1.21
0.7
6.45
0.16
-0.02
5.23
-1.11
-0.85
0.04
-0.1
-0.05
-0.59

>  <PUBCHEM_SHAPE_SELFOVERLAP>  (1) 
395.656

>  <PUBCHEM_SHAPE_VOLUME>  (1) 
135.7

>  <PUBCHEM_COORDINATE_TYPE>  (1) 
2
5
10

$$$$
