8095
     RDKit          3D

  9  8  0  0  0  0  0  0  0  0999 V2000
    2.1177    0.2590   -0.0104 O   0  0  0  0  0  0  0  0  0  0  0  0
   -1.4389   -0.5262   -0.0003 O   0  0  0  0  0  0  0  0  0  0  0  0
   -2.7916    1.3464    0.0042 O   0  0  0  0  0  0  0  0  0  0  0  0
    0.9616   -0.5696    0.0045 C   0  0  0  0  0  0  0  0  0  0  0  0
   -0.2756    0.3074    0.0054 C   0  0  0  0  0  0  0  0  0  0  0  0
    3.3110   -0.5120    0.0105 C   0  0  0  0  0  0  0  0  0  0  0  0
    4.5020    0.4223   -0.0068 C   0  0  0  0  0  0  0  0  0  0  0  0
   -2.6322    0.1333   -0.0002 C   0  0  0  0  0  0  0  0  0  0  0  0
   -3.7540   -0.8605   -0.0070 C   0  0  0  0  0  0  0  0  0  0  0  0
  1  4  1  0
  1  6  1  0
  2  5  1  0
  2  8  1  0
  3  8  2  0
  4  5  1  0
  6  7  1  0
  8  9  1  0
M  END
>  <PUBCHEM_COMPOUND_CID>  (1) 
8095

>  <PUBCHEM_CONFORMER_RMSD>  (1) 
0.6

>  <PUBCHEM_CONFORMER_DIVERSEORDER>  (1) 
3
27
56
7
50
52
46
60
66
48
42
49
6
33
26
47
44
28
36
64
16
55
62
30
65
25
37
31
40
35
29
21
43
32
41
61
57
34
39
54
45
9
63
13
59
5
20
8
19
2
58
4
1
15
18
38
23
12
51
10
14
24
11
53
17
22

>  <PUBCHEM_MMFF94_PARTIAL_CHARGES>  (1) 
8
1 -0.56
2 -0.43
3 -0.57
4 0.28
5 0.28
6 0.28
8 0.66
9 0.06

>  <PUBCHEM_EFFECTIVE_ROTOR_COUNT>  (1) 
5

>  <PUBCHEM_PHARMACOPHORE_FEATURES>  (1) 
2
1 1 acceptor
1 3 acceptor

>  <PUBCHEM_HEAVY_ATOM_COUNT>  (1) 
9

>  <PUBCHEM_ATOM_DEF_STEREO_COUNT>  (1) 
0

>  <PUBCHEM_ATOM_UDEF_STEREO_COUNT>  (1) 
0

>  <PUBCHEM_BOND_DEF_STEREO_COUNT>  (1) 
0

>  <PUBCHEM_BOND_UDEF_STEREO_COUNT>  (1) 
0

>  <PUBCHEM_ISOTOPIC_ATOM_COUNT>  (1) 
0

>  <PUBCHEM_COMPONENT_COUNT>  (1) 
1

>  <PUBCHEM_CACTVS_TAUTO_COUNT>  (1) 
1

>  <PUBCHEM_CONFORMER_ID>  (1) 
00001F9F00000003

>  <PUBCHEM_MMFF94_ENERGY>  (1) 
8.547

>  <PUBCHEM_FEATURE_SELFOVERLAP>  (1) 
10.149

>  <PUBCHEM_SHAPE_FINGERPRINT>  (1) 
11062470 55 18334858316291870346
12932764 1 17059762360608328926
14325111 11 18410575063425775170
190213 19 17313106354008104050
20719005 15 18410573998500648130
20828058 21 18342179968595397470
23402539 116 18408597085284218015
3248919 1 16950576457939491803

>  <PUBCHEM_SHAPE_MULTIPOLES>  (1) 
167.61
8.38
0.97
0.58
4.04
0.12
0
0.06
-0.02
-0.57
0
0.03
-0.01
-0.01

>  <PUBCHEM_SHAPE_SELFOVERLAP>  (1) 
301.981

>  <PUBCHEM_SHAPE_VOLUME>  (1) 
108.4

>  <PUBCHEM_COORDINATE_TYPE>  (1) 
2
5
10

$$$$
