8097
     RDKit          3D

 12 11  0  0  0  0  0  0  0  0999 V2000
    3.6816    0.4775   -0.3107 N   0  0  0  0  0  0  0  0  0  0  0  0
   -4.0425    0.3351   -0.4241 N   0  0  0  0  0  0  0  0  0  0  0  0
    0.8443   -0.0770    0.4267 C   0  0  0  0  0  0  0  0  0  0  0  0
   -0.4910   -0.8179    0.3261 C   0  0  0  0  0  0  0  0  0  0  0  0
    2.0292   -0.9977    0.7356 C   0  0  0  0  0  0  0  0  0  0  0  0
   -1.6337    0.1426   -0.0141 C   0  0  0  0  0  0  0  0  0  0  0  0
    3.3479   -0.2455    0.9120 C   0  0  0  0  0  0  0  0  0  0  0  0
   -2.9716   -0.5922   -0.0790 C   0  0  0  0  0  0  0  0  0  0  0  0
    3.7824   -0.4451   -1.4425 C   0  0  0  0  0  0  0  0  0  0  0  0
    4.9332    1.2180   -0.1453 C   0  0  0  0  0  0  0  0  0  0  0  0
   -4.1678    1.3798    0.5939 C   0  0  0  0  0  0  0  0  0  0  0  0
   -5.3119   -0.3776   -0.5787 C   0  0  0  0  0  0  0  0  0  0  0  0
  1  7  1  0
  1  9  1  0
  1 10  1  0
  2  8  1  0
  2 11  1  0
  2 12  1  0
  3  4  1  0
  3  5  1  0
  4  6  1  0
  5  7  1  0
  6  8  1  0
M  END
>  <PUBCHEM_COMPOUND_CID>  (1) 
8097

>  <PUBCHEM_CONFORMER_RMSD>  (1) 
0.8

>  <PUBCHEM_CONFORMER_DIVERSEORDER>  (1) 
1
19
2
14
51
109
41
112
23
38
92
3
15
69
58
110
68
39
75
108
4
107
84
63
61
88
101
93
16
43
10
64
34
57
104
53
113
40
83
18
29
56
11
111
47
8
74
66
97
87
90
17
31
106
65
13
72
98
71
6
20
28
91
100
24
22
49
79
76
32
105
46
70
48
44
27
102
59
62
80
85
5
26
37
89
55
78
42
95
52
45
96
86
103
67
94
73
77
99
36
35
33
60
82
12
30
81
9
50
54
21
7
25

>  <PUBCHEM_MMFF94_PARTIAL_CHARGES>  (1) 
8
1 -0.81
10 0.27
11 0.27
12 0.27
2 -0.81
7 0.27
8 0.27
9 0.27

>  <PUBCHEM_EFFECTIVE_ROTOR_COUNT>  (1) 
7

>  <PUBCHEM_PHARMACOPHORE_FEATURES>  (1) 
3
1 1 cation
1 2 cation
4 3 4 5 6 hydrophobe

>  <PUBCHEM_HEAVY_ATOM_COUNT>  (1) 
12

>  <PUBCHEM_ATOM_DEF_STEREO_COUNT>  (1) 
0

>  <PUBCHEM_ATOM_UDEF_STEREO_COUNT>  (1) 
0

>  <PUBCHEM_BOND_DEF_STEREO_COUNT>  (1) 
0

>  <PUBCHEM_BOND_UDEF_STEREO_COUNT>  (1) 
0

>  <PUBCHEM_ISOTOPIC_ATOM_COUNT>  (1) 
0

>  <PUBCHEM_COMPONENT_COUNT>  (1) 
1

>  <PUBCHEM_CACTVS_TAUTO_COUNT>  (1) 
1

>  <PUBCHEM_CONFORMER_ID>  (1) 
00001FA100000001

>  <PUBCHEM_MMFF94_ENERGY>  (1) 
17.2765

>  <PUBCHEM_FEATURE_SELFOVERLAP>  (1) 
15.223

>  <PUBCHEM_SHAPE_FINGERPRINT>  (1) 
10680689 15 17489585680228372531
10912923 1 18335414647801065219
114248 4 17775284984269471303
12616999 72 17346600764177869878
13237642 15 15502665905259732017
13690532 89 11815897863930702688
14123238 8 18040996250262379771
14251718 22 18060136582742972261
14455015 7 13830135026634503527
177051 138 10735880564862909362
17834072 33 18261106409359042183
17834072 8 14405188344051594465
17834076 25 18334011700580342322
1986462 14 17132115723849005217
20369508 70 15051728673522881450
204376 136 16805326591360268891
20645477 70 16128382553910615790
20724930 37 13984659257067932586
20828058 21 18060697282376259955
20828058 44 11674881091417184913
20871999 31 17987792050403865687
21354914 88 11167946861468422144
22485316 2 14979949276752543454
23402655 69 18343584049186215528
23532345 1 16298383539522260739
23532345 12 10447936082967013746
26918003 58 13334734635127886941
32948 21 16988568935544314264
351380 3 12391516386037810740
42 15 7853858282348360032
449060 50 17240204322171038179
449060 62 17530686507069189454
49783359 22 11602822419158089841
4990 188 17846782892650695694
522135 26 15985104111273675734
5374978 207 13334734626506414478
58051976 100 16414905461455427925
94968 8 14261357951289034702

>  <PUBCHEM_SHAPE_MULTIPOLES>  (1) 
236.99
12.3
1.13
1.01
4.13
0.26
0.14
2.99
2.57
0
-0.1
-0.77
-0.13
-0.42

>  <PUBCHEM_SHAPE_SELFOVERLAP>  (1) 
424.586

>  <PUBCHEM_SHAPE_VOLUME>  (1) 
154.3

>  <PUBCHEM_COORDINATE_TYPE>  (1) 
2
5
10

$$$$
