81
     RDKit          3D

 18 17  0  0  1  0  0  0  0  0999 V2000
    5.1138    0.0483   -0.0713 P   0  0  0  0  0  0  0  0  0  0  0  0
   -0.0029    1.4486    0.6608 O   0  0  0  0  0  0  0  0  0  0  0  0
   -1.4807   -1.4677   -0.9881 O   0  0  0  0  0  0  0  0  0  0  0  0
    1.1794   -1.0411    1.2797 O   0  0  0  0  0  0  0  0  0  0  0  0
    3.6273   -0.5787    0.0299 O   0  0  0  0  0  0  0  0  0  0  0  0
   -4.0272   -1.4714    0.2267 O   0  0  0  0  0  0  0  0  0  0  0  0
    5.0694    1.3100    0.9392 O   0  0  0  0  0  0  0  0  0  0  0  0
    5.1098    0.7416   -1.5323 O   0  0  0  0  0  0  0  0  0  0  0  0
    6.2318   -0.9245    0.1654 O   0  0  0  0  0  0  0  0  0  0  0  0
   -6.2379   -0.2562    0.1384 O   0  0  0  0  0  0  0  0  0  0  0  0
   -5.1632    1.7338   -0.2473 O   0  0  0  0  0  0  0  0  0  0  0  0
   -0.0689    0.3403   -0.2459 C   0  0  0  0  0  0  0  0  0  0  0  0
   -1.3825   -0.4278   -0.0137 C   0  0  0  0  0  0  0  0  0  0  0  0
    1.2094   -0.4947   -0.0446 C   0  0  0  0  0  0  0  0  0  0  0  0
   -2.6095    0.4854   -0.1351 C   0  0  0  0  0  0  0  0  0  0  0  0
    2.5157    0.2828   -0.1827 C   0  0  0  0  0  0  0  0  0  0  0  0
   -3.9099   -0.2690    0.0441 C   0  0  0  0  0  0  0  0  0  0  0  0
   -5.1739    0.5403   -0.0233 C   0  0  0  0  0  0  0  0  0  0  0  0
  1  5  1  0
  1  7  1  0
  1  8  1  0
  1  9  2  0
  2 12  1  0
  3 13  1  0
  4 14  1  0
  5 16  1  0
  6 17  2  0
 10 18  1  0
 11 18  2  0
 12 13  1  0
 12 14  1  0
 13 15  1  0
 14 16  1  0
 15 17  1  0
 17 18  1  0
M  END
>  <PUBCHEM_COMPOUND_CID>  (1) 
81

>  <PUBCHEM_CONFORMER_RMSD>  (1) 
1

>  <PUBCHEM_CONFORMER_DIVERSEORDER>  (1) 
1
288
577
7
164
152
426
23
637
52
444
37
459
188
456
97
216
376
509
26
168
488
11
624
398
80
44
20
50
341
640
424
18
62
443
78
411
630
2
98
65
383
40
409
34
430
157
292
134
107
118
91
454
384
149
327
646
47
612
16
621
224
3
14
33
485
125
87
549
422
246
460
192
128
139
95
6
385
35
280
553
469
520
214
70
29
507
451
67
531
136
10
187
415
69
340
63
345
250
24
632
83
75
328
195
196
156
131
260
473
232
439
400
113
319
619
493
85
321
363
182
269
189
617
154
159
371
331
448
316
5
233
348
4
405
615
38
569
290
516
410
234
441
77
150
566
595
370
309
350
31
293
241
388
201
375
119
527
498
74
229
90
355
403
588
106
265
141
42
193
525
227
437
129
249
489
79
521
294
148
155
72
144
432
21
299
30
648
22
285
108
251

>  <PUBCHEM_MMFF94_PARTIAL_CHARGES>  (1) 
24
1 1.51
10 -0.65
11 -0.57
12 0.28
13 0.28
14 0.28
15 0.06
16 0.28
17 0.51
18 0.72
2 -0.68
26 0.4
27 0.4
28 0.4
29 0.5
3 -0.68
30 0.5
31 0.5
4 -0.68
5 -0.55
6 -0.57
7 -0.77
8 -0.77
9 -0.7

>  <PUBCHEM_EFFECTIVE_ROTOR_COUNT>  (1) 
8

>  <PUBCHEM_PHARMACOPHORE_FEATURES>  (1) 
14
1 10 acceptor
1 11 acceptor
1 2 acceptor
1 2 donor
1 3 acceptor
1 3 donor
1 4 acceptor
1 4 donor
1 6 acceptor
1 7 acceptor
1 8 acceptor
1 9 acceptor
3 10 11 18 anion
4 1 7 8 9 anion

>  <PUBCHEM_HEAVY_ATOM_COUNT>  (1) 
18

>  <PUBCHEM_ATOM_DEF_STEREO_COUNT>  (1) 
0

>  <PUBCHEM_ATOM_UDEF_STEREO_COUNT>  (1) 
3

>  <PUBCHEM_BOND_DEF_STEREO_COUNT>  (1) 
0

>  <PUBCHEM_BOND_UDEF_STEREO_COUNT>  (1) 
0

>  <PUBCHEM_ISOTOPIC_ATOM_COUNT>  (1) 
0

>  <PUBCHEM_COMPONENT_COUNT>  (1) 
1

>  <PUBCHEM_CACTVS_TAUTO_COUNT>  (1) 
2

>  <PUBCHEM_CONFORMER_ID>  (1) 
0000005100000001

>  <PUBCHEM_MMFF94_ENERGY>  (1) 
0.6433

>  <PUBCHEM_FEATURE_SELFOVERLAP>  (1) 
71.171

>  <PUBCHEM_SHAPE_FINGERPRINT>  (1) 
11287383 113 18131350843073180738
12236239 1 18260550021698709998
13533116 47 18114456761498789138
14123238 8 14779265310876316438
1420 363 17917715698982878374
14251764 18 18409171013579950273
14251764 46 17821728329614760306
14573314 32 16558478499682717140
15048467 5 17821729420921666501
17834072 33 18341893012902787391
17834076 25 17967814942033917779
18222031 100 11095889289364331746
200 152 9583518715695300111
20281389 69 18408321081758413929
20621476 66 18269843017490908889
20681677 155 18410570704192524395
21150785 3 17560790057443181509
220451 1 14779268609490354032
23035841 295 18408604747046938067
23402539 116 18060131046535422253
23536379 177 18187083940459813816
23557571 272 17895194346634979868
23559900 14 16630516375657651906
293599 30 18412262826743644327
300161 21 18114454600713162867
42788 4 18410573980856483845
4463277 17 18412544314426051760
542803 24 17530965786774267020
59755656 215 18340773637637369382

>  <PUBCHEM_SHAPE_MULTIPOLES>  (1) 
315.59
15.23
1.3
0.87
2.97
0.1
-0.06
1.68
-0.4
-0.51
0.06
0.78
0.02
-0.03

>  <PUBCHEM_SHAPE_SELFOVERLAP>  (1) 
604.359

>  <PUBCHEM_SHAPE_VOLUME>  (1) 
192.3

>  <PUBCHEM_COORDINATE_TYPE>  (1) 
2
5
10

$$$$
