8101
     RDKit          3D

  7  6  0  0  0  0  0  0  0  0999 V2000
    4.0866    0.5065   -0.0138 Br  0  0  0  0  0  0  0  0  0  0  0  0
   -0.0703   -0.5469    0.0204 C   0  0  0  0  0  0  0  0  0  0  0  0
   -1.3016    0.3619    0.0088 C   0  0  0  0  0  0  0  0  0  0  0  0
    1.2239    0.2734    0.0470 C   0  0  0  0  0  0  0  0  0  0  0  0
   -2.5945   -0.4538    0.0103 C   0  0  0  0  0  0  0  0  0  0  0  0
    2.4758   -0.5859   -0.0379 C   0  0  0  0  0  0  0  0  0  0  0  0
   -3.8199    0.4448   -0.0347 C   0  0  0  0  0  0  0  0  0  0  0  0
  1  6  1  0
  2  3  1  0
  2  4  1  0
  3  5  1  0
  4  6  1  0
  5  7  1  0
M  END
>  <PUBCHEM_COMPOUND_CID>  (1) 
8101

>  <PUBCHEM_CONFORMER_RMSD>  (1) 
0.6

>  <PUBCHEM_CONFORMER_DIVERSEORDER>  (1) 
1
23
11
33
7
32
4
34
18
16
19
13
20
22
21
15
3
24
30
31
14
2
6
29
26
17
25
27
12
5
8
10
9
28

>  <PUBCHEM_MMFF94_PARTIAL_CHARGES>  (1) 
2
1 -0.23
6 0.23

>  <PUBCHEM_EFFECTIVE_ROTOR_COUNT>  (1) 
4

>  <PUBCHEM_PHARMACOPHORE_FEATURES>  (1) 
3
1 1 hydrophobe
1 7 hydrophobe
4 2 3 4 5 hydrophobe

>  <PUBCHEM_HEAVY_ATOM_COUNT>  (1) 
7

>  <PUBCHEM_ATOM_DEF_STEREO_COUNT>  (1) 
0

>  <PUBCHEM_ATOM_UDEF_STEREO_COUNT>  (1) 
0

>  <PUBCHEM_BOND_DEF_STEREO_COUNT>  (1) 
0

>  <PUBCHEM_BOND_UDEF_STEREO_COUNT>  (1) 
0

>  <PUBCHEM_ISOTOPIC_ATOM_COUNT>  (1) 
0

>  <PUBCHEM_COMPONENT_COUNT>  (1) 
1

>  <PUBCHEM_CACTVS_TAUTO_COUNT>  (1) 
1

>  <PUBCHEM_CONFORMER_ID>  (1) 
00001FA500000001

>  <PUBCHEM_MMFF94_ENERGY>  (1) 
-2.5361

>  <PUBCHEM_FEATURE_SELFOVERLAP>  (1) 
15.223

>  <PUBCHEM_SHAPE_FINGERPRINT>  (1) 
11062470 55 18410575084673647904
12932764 1 15625932106509885994
14325111 11 18410575080399942026
20211469 26 9655577404912893683
20719005 15 18410292523096630602
21293036 1 17203610402119150792
5460574 1 9151173151372747850

>  <PUBCHEM_SHAPE_MULTIPOLES>  (1) 
150
7.77
0.85
0.64
0.87
0.01
0
-1.45
0.11
0.12
0
0.08
-0.01
0.02

>  <PUBCHEM_SHAPE_SELFOVERLAP>  (1) 
244.499

>  <PUBCHEM_SHAPE_VOLUME>  (1) 
105

>  <PUBCHEM_COORDINATE_TYPE>  (1) 
2
5
10

$$$$
