8105
     RDKit          3D

  7  6  0  0  0  0  0  0  0  0999 V2000
   -3.6601    0.3736    0.0070 O   0  0  0  0  0  0  0  0  0  0  0  0
    3.6710    0.3673    0.0144 O   0  0  0  0  0  0  0  0  0  0  0  0
   -0.0058   -0.5009   -0.0032 C   0  0  0  0  0  0  0  0  0  0  0  0
   -1.2658    0.3624   -0.0239 C   0  0  0  0  0  0  0  0  0  0  0  0
    1.2593    0.3622    0.0023 C   0  0  0  0  0  0  0  0  0  0  0  0
   -2.5289   -0.4861    0.0136 C   0  0  0  0  0  0  0  0  0  0  0  0
    2.5303   -0.4784   -0.0103 C   0  0  0  0  0  0  0  0  0  0  0  0
  1  6  1  0
  2  7  1  0
  3  4  1  0
  3  5  1  0
  4  6  1  0
  5  7  1  0
M  END
>  <PUBCHEM_COMPOUND_CID>  (1) 
8105

>  <PUBCHEM_CONFORMER_RMSD>  (1) 
0.6

>  <PUBCHEM_CONFORMER_DIVERSEORDER>  (1) 
1
22
16
11
19
5
20
2
15
17
7
21
4
6
3
9
8
10
12
14
18
13

>  <PUBCHEM_MMFF94_PARTIAL_CHARGES>  (1) 
6
1 -0.68
18 0.4
19 0.4
2 -0.68
6 0.28
7 0.28

>  <PUBCHEM_EFFECTIVE_ROTOR_COUNT>  (1) 
4

>  <PUBCHEM_PHARMACOPHORE_FEATURES>  (1) 
4
1 1 acceptor
1 1 donor
1 2 acceptor
1 2 donor

>  <PUBCHEM_HEAVY_ATOM_COUNT>  (1) 
7

>  <PUBCHEM_ATOM_DEF_STEREO_COUNT>  (1) 
0

>  <PUBCHEM_ATOM_UDEF_STEREO_COUNT>  (1) 
0

>  <PUBCHEM_BOND_DEF_STEREO_COUNT>  (1) 
0

>  <PUBCHEM_BOND_UDEF_STEREO_COUNT>  (1) 
0

>  <PUBCHEM_ISOTOPIC_ATOM_COUNT>  (1) 
0

>  <PUBCHEM_COMPONENT_COUNT>  (1) 
1

>  <PUBCHEM_CACTVS_TAUTO_COUNT>  (1) 
1

>  <PUBCHEM_CONFORMER_ID>  (1) 
00001FA900000001

>  <PUBCHEM_MMFF94_ENERGY>  (1) 
1.2363

>  <PUBCHEM_FEATURE_SELFOVERLAP>  (1) 
20.297

>  <PUBCHEM_SHAPE_FINGERPRINT>  (1) 
11062470 55 18410856563934776353
14325111 11 18410856559645246222
14390081 3 18412260627472520961
5460574 1 9295289439044601542

>  <PUBCHEM_SHAPE_MULTIPOLES>  (1) 
132.32
6.06
0.77
0.59
0.06
0.04
0
-0.5
-0.04
-0.01
0
0
0.01
0.01

>  <PUBCHEM_SHAPE_SELFOVERLAP>  (1) 
227.871

>  <PUBCHEM_SHAPE_VOLUME>  (1) 
88.5

>  <PUBCHEM_COORDINATE_TYPE>  (1) 
2
5
10

$$$$
