8106
     RDKit          3D

  7  6  0  0  0  0  0  0  0  0999 V2000
    3.9949   -0.4576   -0.0142 S   0  0  0  0  0  0  0  0  0  0  0  0
   -0.0289    0.5290    0.0183 C   0  0  0  0  0  0  0  0  0  0  0  0
   -1.2826   -0.3483    0.0378 C   0  0  0  0  0  0  0  0  0  0  0  0
    1.2445   -0.3226    0.0250 C   0  0  0  0  0  0  0  0  0  0  0  0
   -2.5849    0.4546    0.0079 C   0  0  0  0  0  0  0  0  0  0  0  0
    2.4898    0.5580   -0.0304 C   0  0  0  0  0  0  0  0  0  0  0  0
   -3.8328   -0.4132   -0.0445 C   0  0  0  0  0  0  0  0  0  0  0  0
  1  6  1  0
  2  3  1  0
  2  4  1  0
  3  5  1  0
  4  6  1  0
  5  7  1  0
M  END
>  <PUBCHEM_COMPOUND_CID>  (1) 
8106

>  <PUBCHEM_CONFORMER_RMSD>  (1) 
0.6

>  <PUBCHEM_CONFORMER_DIVERSEORDER>  (1) 
1
14
16
15
31
17
21
4
9
6
27
2
12
20
30
22
24
28
25
13
8
10
19
5
23
18
26
7
11
29
3

>  <PUBCHEM_MMFF94_PARTIAL_CHARGES>  (1) 
3
1 -0.41
21 0.18
6 0.23

>  <PUBCHEM_EFFECTIVE_ROTOR_COUNT>  (1) 
4

>  <PUBCHEM_PHARMACOPHORE_FEATURES>  (1) 
2
1 7 hydrophobe
4 2 3 4 5 hydrophobe

>  <PUBCHEM_HEAVY_ATOM_COUNT>  (1) 
7

>  <PUBCHEM_ATOM_DEF_STEREO_COUNT>  (1) 
0

>  <PUBCHEM_ATOM_UDEF_STEREO_COUNT>  (1) 
0

>  <PUBCHEM_BOND_DEF_STEREO_COUNT>  (1) 
0

>  <PUBCHEM_BOND_UDEF_STEREO_COUNT>  (1) 
0

>  <PUBCHEM_ISOTOPIC_ATOM_COUNT>  (1) 
0

>  <PUBCHEM_COMPONENT_COUNT>  (1) 
1

>  <PUBCHEM_CACTVS_TAUTO_COUNT>  (1) 
1

>  <PUBCHEM_CONFORMER_ID>  (1) 
00001FAA00000001

>  <PUBCHEM_MMFF94_ENERGY>  (1) 
-1.4704

>  <PUBCHEM_FEATURE_SELFOVERLAP>  (1) 
10.149

>  <PUBCHEM_SHAPE_FINGERPRINT>  (1) 
11062470 55 18410575084673660896
12932764 1 15357968014559575408
14325111 11 18410856563940038120
18342897 14 9079117764921889815
20719005 15 18410575089010917163
21293036 1 14851608778069386934
5460574 1 9295291638189189385

>  <PUBCHEM_SHAPE_MULTIPOLES>  (1) 
147.91
7.53
0.83
0.63
0.43
0.01
0
-1.21
-0.13
0.09
0
0.05
-0.01
-0.01

>  <PUBCHEM_SHAPE_SELFOVERLAP>  (1) 
243.69

>  <PUBCHEM_SHAPE_VOLUME>  (1) 
102.1

>  <PUBCHEM_COORDINATE_TYPE>  (1) 
2
5
10

$$$$
