8107
     RDKit          3D

  7  6  0  0  0  0  0  0  0  0999 V2000
    2.4241   -0.4503    0.0061 O   0  0  0  0  0  0  0  0  0  0  0  0
   -3.6341    0.3493    0.0048 O   0  0  0  0  0  0  0  0  0  0  0  0
    0.0299   -0.4727   -0.0195 C   0  0  0  0  0  0  0  0  0  0  0  0
   -1.2396    0.3717   -0.0105 C   0  0  0  0  0  0  0  0  0  0  0  0
    1.2812    0.3935    0.0007 C   0  0  0  0  0  0  0  0  0  0  0  0
   -2.4909   -0.4946    0.0126 C   0  0  0  0  0  0  0  0  0  0  0  0
    3.6295    0.3030    0.0057 C   0  0  0  0  0  0  0  0  0  0  0  0
  1  5  1  0
  1  7  1  0
  2  6  1  0
  3  4  1  0
  3  5  1  0
  4  6  1  0
M  END
>  <PUBCHEM_COMPOUND_CID>  (1) 
8107

>  <PUBCHEM_CONFORMER_RMSD>  (1) 
0.6

>  <PUBCHEM_CONFORMER_DIVERSEORDER>  (1) 
1
28
25
23
11
20
2
22
12
33
34
13
27
29
10
14
24
32
17
15
7
9
16
21
26
5
4
18
6
19
30
8
31
3

>  <PUBCHEM_MMFF94_PARTIAL_CHARGES>  (1) 
6
1 -0.56
19 0.4
2 -0.68
5 0.28
6 0.28
7 0.28

>  <PUBCHEM_EFFECTIVE_ROTOR_COUNT>  (1) 
4

>  <PUBCHEM_PHARMACOPHORE_FEATURES>  (1) 
3
1 1 acceptor
1 2 acceptor
1 2 donor

>  <PUBCHEM_HEAVY_ATOM_COUNT>  (1) 
7

>  <PUBCHEM_ATOM_DEF_STEREO_COUNT>  (1) 
0

>  <PUBCHEM_ATOM_UDEF_STEREO_COUNT>  (1) 
0

>  <PUBCHEM_BOND_DEF_STEREO_COUNT>  (1) 
0

>  <PUBCHEM_BOND_UDEF_STEREO_COUNT>  (1) 
0

>  <PUBCHEM_ISOTOPIC_ATOM_COUNT>  (1) 
0

>  <PUBCHEM_COMPONENT_COUNT>  (1) 
1

>  <PUBCHEM_CACTVS_TAUTO_COUNT>  (1) 
1

>  <PUBCHEM_CONFORMER_ID>  (1) 
00001FAB00000001

>  <PUBCHEM_MMFF94_ENERGY>  (1) 
6.4482

>  <PUBCHEM_FEATURE_SELFOVERLAP>  (1) 
15.223

>  <PUBCHEM_SHAPE_FINGERPRINT>  (1) 
11062470 55 18410575088958104681
14325111 11 18410855468734031078
14390081 3 18342173362587666449
5460574 1 9295290542861713638

>  <PUBCHEM_SHAPE_MULTIPOLES>  (1) 
132.32
6.22
0.76
0.59
0.49
0.01
0
-0.51
-0.04
-0.04
0
0.02
0
0

>  <PUBCHEM_SHAPE_SELFOVERLAP>  (1) 
227.542

>  <PUBCHEM_SHAPE_VOLUME>  (1) 
89.2

>  <PUBCHEM_COORDINATE_TYPE>  (1) 
2
5
10

$$$$
