8112
     RDKit          3D

  7  6  0  0  0  0  0  0  0  0999 V2000
   -3.6000   -0.3458   -0.0123 O   0  0  0  0  0  0  0  0  0  0  0  0
   -0.0072    0.4484    0.0112 N   0  0  0  0  0  0  0  0  0  0  0  0
    3.6389   -0.3368   -0.0038 N   0  0  0  0  0  0  0  0  0  0  0  0
    1.1916   -0.3828   -0.0059 C   0  0  0  0  0  0  0  0  0  0  0  0
   -1.2085   -0.3739    0.0208 C   0  0  0  0  0  0  0  0  0  0  0  0
    2.4400    0.4945   -0.0047 C   0  0  0  0  0  0  0  0  0  0  0  0
   -2.4548    0.4964   -0.0054 C   0  0  0  0  0  0  0  0  0  0  0  0
  1  7  1  0
  2  4  1  0
  2  5  1  0
  3  6  1  0
  4  6  1  0
  5  7  1  0
M  END
>  <PUBCHEM_COMPOUND_CID>  (1) 
8112

>  <PUBCHEM_CONFORMER_RMSD>  (1) 
0.6

>  <PUBCHEM_CONFORMER_DIVERSEORDER>  (1) 
1
14
21
28
6
29
7
30
2
13
18
17
11
25
23
9
4
26
19
27
15
16
10
20
3
22
24
12
8
5

>  <PUBCHEM_MMFF94_PARTIAL_CHARGES>  (1) 
11
1 -0.68
12 0.36
17 0.36
18 0.36
19 0.4
2 -0.9
3 -0.99
4 0.27
5 0.27
6 0.27
7 0.28

>  <PUBCHEM_EFFECTIVE_ROTOR_COUNT>  (1) 
4

>  <PUBCHEM_PHARMACOPHORE_FEATURES>  (1) 
6
1 1 acceptor
1 1 donor
1 2 cation
1 2 donor
1 3 cation
1 3 donor

>  <PUBCHEM_HEAVY_ATOM_COUNT>  (1) 
7

>  <PUBCHEM_ATOM_DEF_STEREO_COUNT>  (1) 
0

>  <PUBCHEM_ATOM_UDEF_STEREO_COUNT>  (1) 
0

>  <PUBCHEM_BOND_DEF_STEREO_COUNT>  (1) 
0

>  <PUBCHEM_BOND_UDEF_STEREO_COUNT>  (1) 
0

>  <PUBCHEM_ISOTOPIC_ATOM_COUNT>  (1) 
0

>  <PUBCHEM_COMPONENT_COUNT>  (1) 
1

>  <PUBCHEM_CACTVS_TAUTO_COUNT>  (1) 
1

>  <PUBCHEM_CONFORMER_ID>  (1) 
00001FB000000001

>  <PUBCHEM_MMFF94_ENERGY>  (1) 
-6.407

>  <PUBCHEM_FEATURE_SELFOVERLAP>  (1) 
30.446

>  <PUBCHEM_SHAPE_FINGERPRINT>  (1) 
11062470 55 18410575084663117889
14325111 11 18410573985151457634
14390081 3 18413668015251649097
5460574 1 9223231844996104609

>  <PUBCHEM_SHAPE_MULTIPOLES>  (1) 
128.23
6.06
0.75
0.58
0.08
0.03
0
-0.34
-0.03
0
0
0.01
0
0

>  <PUBCHEM_SHAPE_SELFOVERLAP>  (1) 
219.922

>  <PUBCHEM_SHAPE_VOLUME>  (1) 
86.1

>  <PUBCHEM_COORDINATE_TYPE>  (1) 
2
5
10

$$$$
