8115
     RDKit          3D

  7  6  0  0  0  0  0  0  0  0999 V2000
    2.7683    0.9606    0.7259 Cl  0  0  0  0  0  0  0  0  0  0  0  0
   -2.7683    0.9606   -0.7258 Cl  0  0  0  0  0  0  0  0  0  0  0  0
    0.0000   -0.1014    0.0000 O   0  0  0  0  0  0  0  0  0  0  0  0
    1.1149   -0.9007   -0.3708 C   0  0  0  0  0  0  0  0  0  0  0  0
   -1.1149   -0.9008    0.3708 C   0  0  0  0  0  0  0  0  0  0  0  0
    2.2996   -0.0091   -0.6940 C   0  0  0  0  0  0  0  0  0  0  0  0
   -2.2996   -0.0092    0.6940 C   0  0  0  0  0  0  0  0  0  0  0  0
  1  6  1  0
  2  7  1  0
  3  4  1  0
  3  5  1  0
  4  6  1  0
  5  7  1  0
M  END
>  <PUBCHEM_COMPOUND_CID>  (1) 
8115

>  <PUBCHEM_CONFORMER_RMSD>  (1) 
0.6

>  <PUBCHEM_CONFORMER_DIVERSEORDER>  (1) 
2
18
14
9
10
16
3
5
17
7
6
13
15
4
19
11
1
12
8

>  <PUBCHEM_MMFF94_PARTIAL_CHARGES>  (1) 
7
1 -0.29
2 -0.29
3 -0.56
4 0.28
5 0.28
6 0.29
7 0.29

>  <PUBCHEM_EFFECTIVE_ROTOR_COUNT>  (1) 
4

>  <PUBCHEM_PHARMACOPHORE_FEATURES>  (1) 
1
1 3 acceptor

>  <PUBCHEM_HEAVY_ATOM_COUNT>  (1) 
7

>  <PUBCHEM_ATOM_DEF_STEREO_COUNT>  (1) 
0

>  <PUBCHEM_ATOM_UDEF_STEREO_COUNT>  (1) 
0

>  <PUBCHEM_BOND_DEF_STEREO_COUNT>  (1) 
0

>  <PUBCHEM_BOND_UDEF_STEREO_COUNT>  (1) 
0

>  <PUBCHEM_ISOTOPIC_ATOM_COUNT>  (1) 
0

>  <PUBCHEM_COMPONENT_COUNT>  (1) 
1

>  <PUBCHEM_CACTVS_TAUTO_COUNT>  (1) 
1

>  <PUBCHEM_CONFORMER_ID>  (1) 
00001FB300000002

>  <PUBCHEM_MMFF94_ENERGY>  (1) 
4.9776

>  <PUBCHEM_FEATURE_SELFOVERLAP>  (1) 
5.074

>  <PUBCHEM_SHAPE_FINGERPRINT>  (1) 
10857977 72 17895770593996877771
12932741 1 18271820028816009502
12932764 1 18410583880756445414
14390081 3 18411982446841214825
20765181 27 18410572889934992032
5460574 1 8934719950897098667

>  <PUBCHEM_SHAPE_MULTIPOLES>  (1) 
141.93
4.93
1.14
0.96
0
0.06
0
1.89
0
0
0
0
0.11
0.7

>  <PUBCHEM_SHAPE_SELFOVERLAP>  (1) 
231.4

>  <PUBCHEM_SHAPE_VOLUME>  (1) 
100.2

>  <PUBCHEM_COORDINATE_TYPE>  (1) 
2
5
10

$$$$
