8121
     RDKit          3D

 10  9  0  0  0  0  0  0  0  0999 V2000
    1.3687    0.0584   -0.3103 O   0  0  0  0  0  0  0  0  0  0  0  0
   -1.3656    0.0516    0.3078 O   0  0  0  0  0  0  0  0  0  0  0  0
    3.3589   -0.5851    0.6704 O   0  0  0  0  0  0  0  0  0  0  0  0
   -3.3598   -0.5834   -0.6703 O   0  0  0  0  0  0  0  0  0  0  0  0
    0.7267   -1.1081    0.2144 C   0  0  0  0  0  0  0  0  0  0  0  0
   -0.7279   -1.1076   -0.2147 C   0  0  0  0  0  0  0  0  0  0  0  0
    2.6901    0.1891   -0.0007 C   0  0  0  0  0  0  0  0  0  0  0  0
   -2.6909    0.1901    0.0015 C   0  0  0  0  0  0  0  0  0  0  0  0
    3.2263    1.4473   -0.6135 C   0  0  0  0  0  0  0  0  0  0  0  0
   -3.2265    1.4479    0.6153 C   0  0  0  0  0  0  0  0  0  0  0  0
  1  5  1  0
  1  7  1  0
  2  6  1  0
  2  8  1  0
  3  7  2  0
  4  8  2  0
  5  6  1  0
  7  9  1  0
  8 10  1  0
M  END
>  <PUBCHEM_COMPOUND_CID>  (1) 
8121

>  <PUBCHEM_CONFORMER_RMSD>  (1) 
0.6

>  <PUBCHEM_CONFORMER_DIVERSEORDER>  (1) 
1
10
4
21
11
17
44
29
55
7
54
41
12
59
16
3
58
2
13
30
38
19
48
60
20
23
52
15
45
28
57
33
14
32
50
24
5
35
56
53
9
49
36
6
26
39
37
27
51
25
31
40
61
22
47
42
34
43
8
18
46

>  <PUBCHEM_MMFF94_PARTIAL_CHARGES>  (1) 
10
1 -0.43
10 0.06
2 -0.43
3 -0.57
4 -0.57
5 0.28
6 0.28
7 0.66
8 0.66
9 0.06

>  <PUBCHEM_EFFECTIVE_ROTOR_COUNT>  (1) 
5

>  <PUBCHEM_PHARMACOPHORE_FEATURES>  (1) 
2
1 3 acceptor
1 4 acceptor

>  <PUBCHEM_HEAVY_ATOM_COUNT>  (1) 
10

>  <PUBCHEM_ATOM_DEF_STEREO_COUNT>  (1) 
0

>  <PUBCHEM_ATOM_UDEF_STEREO_COUNT>  (1) 
0

>  <PUBCHEM_BOND_DEF_STEREO_COUNT>  (1) 
0

>  <PUBCHEM_BOND_UDEF_STEREO_COUNT>  (1) 
0

>  <PUBCHEM_ISOTOPIC_ATOM_COUNT>  (1) 
0

>  <PUBCHEM_COMPONENT_COUNT>  (1) 
1

>  <PUBCHEM_CACTVS_TAUTO_COUNT>  (1) 
1

>  <PUBCHEM_CONFORMER_ID>  (1) 
00001FB900000001

>  <PUBCHEM_MMFF94_ENERGY>  (1) 
9.1538

>  <PUBCHEM_FEATURE_SELFOVERLAP>  (1) 
10.149

>  <PUBCHEM_SHAPE_FINGERPRINT>  (1) 
10149128 111 18410582781244759169
12162725 195 18410573989446489893
12897270 3 15913331273171749275
14325111 11 18410857663446495079
14390081 3 18343021077631376769
15775835 57 18410580582221562080
170605 34 18407762534051415074
19107657 47 17603855689613146092
20281407 28 8502656995396165286
20653085 51 18341627996151207682
20711983 171 18272093785594109973
3248919 1 18410572889935108967

>  <PUBCHEM_SHAPE_MULTIPOLES>  (1) 
182.32
6.81
1.39
0.76
0
0.3
0
2.37
0
0
0
0
0.04
-0.85

>  <PUBCHEM_SHAPE_SELFOVERLAP>  (1) 
340.186

>  <PUBCHEM_SHAPE_VOLUME>  (1) 
113.8

>  <PUBCHEM_COORDINATE_TYPE>  (1) 
2
5
10

$$$$
