8127
     RDKit          3D

  8  7  0  0  0  0  0  0  0  0999 V2000
   -4.3848   -0.2665   -0.0204 N   0  0  0  0  0  0  0  0  0  0  0  0
    0.6236   -0.4334    0.0266 C   0  0  0  0  0  0  0  0  0  0  0  0
   -0.6412    0.4300    0.0163 C   0  0  0  0  0  0  0  0  0  0  0  0
    1.9177    0.3817   -0.0208 C   0  0  0  0  0  0  0  0  0  0  0  0
   -1.9360   -0.3863   -0.0109 C   0  0  0  0  0  0  0  0  0  0  0  0
    3.1463   -0.5285    0.0043 C   0  0  0  0  0  0  0  0  0  0  0  0
   -3.1618    0.5267    0.0148 C   0  0  0  0  0  0  0  0  0  0  0  0
    4.4362    0.2763   -0.0099 C   0  0  0  0  0  0  0  0  0  0  0  0
  1  7  1  0
  2  3  1  0
  2  4  1  0
  3  5  1  0
  4  6  1  0
  5  7  1  0
  6  8  1  0
M  END
>  <PUBCHEM_COMPOUND_CID>  (1) 
8127

>  <PUBCHEM_CONFORMER_RMSD>  (1) 
0.6

>  <PUBCHEM_CONFORMER_DIVERSEORDER>  (1) 
1
32
36
62
23
56
41
11
19
70
29
20
73
51
4
46
38
64
69
7
9
74
8
6
43
47
45
44
71
12
13
27
48
67
68
60
50
54
10
15
24
3
66
53
72
35
63
30
28
5
55
37
2
39
42
18
65
57
61
40
59
31
33
26
49
58
52
17
14
16
34
25
21
22

>  <PUBCHEM_MMFF94_PARTIAL_CHARGES>  (1) 
4
1 -0.99
24 0.36
25 0.36
7 0.27

>  <PUBCHEM_EFFECTIVE_ROTOR_COUNT>  (1) 
5

>  <PUBCHEM_PHARMACOPHORE_FEATURES>  (1) 
4
1 1 cation
1 1 donor
1 8 hydrophobe
5 2 3 4 5 6 hydrophobe

>  <PUBCHEM_HEAVY_ATOM_COUNT>  (1) 
8

>  <PUBCHEM_ATOM_DEF_STEREO_COUNT>  (1) 
0

>  <PUBCHEM_ATOM_UDEF_STEREO_COUNT>  (1) 
0

>  <PUBCHEM_BOND_DEF_STEREO_COUNT>  (1) 
0

>  <PUBCHEM_BOND_UDEF_STEREO_COUNT>  (1) 
0

>  <PUBCHEM_ISOTOPIC_ATOM_COUNT>  (1) 
0

>  <PUBCHEM_COMPONENT_COUNT>  (1) 
1

>  <PUBCHEM_CACTVS_TAUTO_COUNT>  (1) 
1

>  <PUBCHEM_CONFORMER_ID>  (1) 
00001FBF00000001

>  <PUBCHEM_MMFF94_ENERGY>  (1) 
-6.3945

>  <PUBCHEM_FEATURE_SELFOVERLAP>  (1) 
20.297

>  <PUBCHEM_SHAPE_FINGERPRINT>  (1) 
11062470 55 18410575084858264224
14123238 8 18410855473023613244
14325111 11 18410575063399323466
17834076 25 16917351441662770856
190213 19 15068343397428787024
20645477 70 18271528581331848470
20719005 15 18410856563940064098
22485316 2 18408318882523992899
23402539 116 18410284814157770885
42788 4 18410856559908892877

>  <PUBCHEM_SHAPE_MULTIPOLES>  (1) 
159.66
8.63
0.78
0.61
0.23
0
0
0.14
0.06
-0.04
0
-0.05
0
-0.01

>  <PUBCHEM_SHAPE_SELFOVERLAP>  (1) 
274.227

>  <PUBCHEM_SHAPE_VOLUME>  (1) 
106.1

>  <PUBCHEM_COORDINATE_TYPE>  (1) 
2
5
10

$$$$
