8131
     RDKit          3D

  8  7  0  0  0  0  0  0  0  0999 V2000
    1.8382   -0.2865   -0.0057 O   0  0  0  0  0  0  0  0  0  0  0  0
   -4.2500    0.2389    0.0115 O   0  0  0  0  0  0  0  0  0  0  0  0
   -0.5527   -0.4169   -0.0243 C   0  0  0  0  0  0  0  0  0  0  0  0
   -1.8590    0.3693   -0.0108 C   0  0  0  0  0  0  0  0  0  0  0  0
    0.6583    0.5049   -0.0069 C   0  0  0  0  0  0  0  0  0  0  0  0
   -3.0698   -0.5526    0.0151 C   0  0  0  0  0  0  0  0  0  0  0  0
    3.0081    0.5205    0.0103 C   0  0  0  0  0  0  0  0  0  0  0  0
    4.2268   -0.3777    0.0108 C   0  0  0  0  0  0  0  0  0  0  0  0
  1  5  1  0
  1  7  1  0
  2  6  1  0
  3  4  1  0
  3  5  1  0
  4  6  1  0
  7  8  1  0
M  END
>  <PUBCHEM_COMPOUND_CID>  (1) 
8131

>  <PUBCHEM_CONFORMER_RMSD>  (1) 
0.6

>  <PUBCHEM_CONFORMER_DIVERSEORDER>  (1) 
1
81
76
56
2
75
57
80
73
26
68
37
72
29
79
40
47
5
54
13
12
44
82
10
63
78
14
24
15
60
45
19
46
23
25
74
52
28
51
71
35
31
61
7
77
18
55
50
21
17
16
67
6
59
32
69
3
11
8
27
38
53
62
70
4
9
48
49
34
65
66
22
64
43
42
20
33
39
41
58
36
30

>  <PUBCHEM_MMFF94_PARTIAL_CHARGES>  (1) 
6
1 -0.56
2 -0.68
22 0.4
5 0.28
6 0.28
7 0.28

>  <PUBCHEM_EFFECTIVE_ROTOR_COUNT>  (1) 
5

>  <PUBCHEM_PHARMACOPHORE_FEATURES>  (1) 
3
1 1 acceptor
1 2 acceptor
1 2 donor

>  <PUBCHEM_HEAVY_ATOM_COUNT>  (1) 
8

>  <PUBCHEM_ATOM_DEF_STEREO_COUNT>  (1) 
0

>  <PUBCHEM_ATOM_UDEF_STEREO_COUNT>  (1) 
0

>  <PUBCHEM_BOND_DEF_STEREO_COUNT>  (1) 
0

>  <PUBCHEM_BOND_UDEF_STEREO_COUNT>  (1) 
0

>  <PUBCHEM_ISOTOPIC_ATOM_COUNT>  (1) 
0

>  <PUBCHEM_COMPONENT_COUNT>  (1) 
1

>  <PUBCHEM_CACTVS_TAUTO_COUNT>  (1) 
1

>  <PUBCHEM_CONFORMER_ID>  (1) 
00001FC300000001

>  <PUBCHEM_MMFF94_ENERGY>  (1) 
4.1988

>  <PUBCHEM_FEATURE_SELFOVERLAP>  (1) 
15.223

>  <PUBCHEM_SHAPE_FINGERPRINT>  (1) 
11062470 55 18411982468152436521
12932764 1 15647602475512735136
14325111 11 18410856581125247015
190213 19 15123795097338070341
20719005 15 18410856572746334979
21293036 1 11097855194152372886
22485316 2 18413102875007279534
5460574 1 9295291637893764300

>  <PUBCHEM_SHAPE_MULTIPOLES>  (1) 
152.9
8.1
0.78
0.59
0.29
0
0
-0.49
0.07
0.05
0
0.03
0
0

>  <PUBCHEM_SHAPE_SELFOVERLAP>  (1) 
265.357

>  <PUBCHEM_SHAPE_VOLUME>  (1) 
102.1

>  <PUBCHEM_COORDINATE_TYPE>  (1) 
2
5
10

$$$$
