8138
     RDKit          3D

 14 13  0  0  0  0  0  0  0  0999 V2000
   -5.7702   -0.7153    0.0095 O   0  0  0  0  0  0  0  0  0  0  0  0
   -4.7955    1.3737   -0.0676 O   0  0  0  0  0  0  0  0  0  0  0  0
    0.3453    0.3394   -0.0199 C   0  0  0  0  0  0  0  0  0  0  0  0
    1.6410   -0.4740    0.0274 C   0  0  0  0  0  0  0  0  0  0  0  0
   -0.8841   -0.5715   -0.0277 C   0  0  0  0  0  0  0  0  0  0  0  0
    2.8673    0.4404    0.0674 C   0  0  0  0  0  0  0  0  0  0  0  0
   -2.1796    0.2457   -0.0417 C   0  0  0  0  0  0  0  0  0  0  0  0
    4.1934   -0.3222    0.1468 C   0  0  0  0  0  0  0  0  0  0  0  0
   -3.4273   -0.6372   -0.0162 C   0  0  0  0  0  0  0  0  0  0  0  0
    5.4178    0.5942    0.2119 C   0  0  0  0  0  0  0  0  0  0  0  0
   -4.7170    0.1532   -0.0382 C   0  0  0  0  0  0  0  0  0  0  0  0
    6.6863   -0.2031    0.3011 C   0  0  0  0  0  0  0  0  0  0  0  0
    7.6898   -0.1125   -0.5784 C   0  0  0  0  0  0  0  0  0  0  0  0
   -7.0673   -0.1107    0.0256 C   0  0  0  0  0  0  0  0  0  0  0  0
  1 11  1  0
  1 14  1  0
  2 11  2  0
  3  4  1  0
  3  5  1  0
  4  6  1  0
  5  7  1  0
  6  8  1  0
  7  9  1  0
  8 10  1  0
  9 11  1  0
 10 12  1  0
 12 13  2  0
M  END
>  <PUBCHEM_COMPOUND_CID>  (1) 
8138

>  <PUBCHEM_CONFORMER_RMSD>  (1) 
1

>  <PUBCHEM_CONFORMER_DIVERSEORDER>  (1) 
1
160
29
158
27
146
145
41
62
106
163
13
5
177
102
202
16
58
4
130
35
26
181
75
71
113
105
127
40
170
14
104
91
61
3
193
21
56
114
151
31
201
38
66
152
121
25
101
182
172
111
192
119
15
20
169
186
108
77
6
33
116
203
17
123
39
78
68
171
161
125
149
92
2
23
47
52
81
207
24
74
110
67
46
164
36
8
30
44
189
187
175
50
98
156
185
157
76
48
100
82
49
143
195
155
72
65
9
199
86
124
42
188
7
60
176
63
95
79
138
120
122
154
93
69
19
205
140
32
183
28
135
117
191
206
12
11
18
200
53
184
112
159
45
43
131
80
165
136
99
126
57
34
198
179
70
85
103
87
83
10
22
147
54
88
148
133
129
204
153
166
174
178
96
180
37
59
196
97
51
64
73
118
89
173
115
194
168
162
167
109
139
84
132
150
141
197
90
190
137
107
134
55
94
128
142
144

>  <PUBCHEM_MMFF94_PARTIAL_CHARGES>  (1) 
11
1 -0.43
10 0.14
11 0.66
12 -0.29
13 -0.3
14 0.28
2 -0.57
31 0.15
32 0.15
33 0.15
9 0.06

>  <PUBCHEM_EFFECTIVE_ROTOR_COUNT>  (1) 
10

>  <PUBCHEM_PHARMACOPHORE_FEATURES>  (1) 
2
1 13 hydrophobe
1 2 acceptor

>  <PUBCHEM_HEAVY_ATOM_COUNT>  (1) 
14

>  <PUBCHEM_ATOM_DEF_STEREO_COUNT>  (1) 
0

>  <PUBCHEM_ATOM_UDEF_STEREO_COUNT>  (1) 
0

>  <PUBCHEM_BOND_DEF_STEREO_COUNT>  (1) 
0

>  <PUBCHEM_BOND_UDEF_STEREO_COUNT>  (1) 
0

>  <PUBCHEM_ISOTOPIC_ATOM_COUNT>  (1) 
0

>  <PUBCHEM_COMPONENT_COUNT>  (1) 
1

>  <PUBCHEM_CACTVS_TAUTO_COUNT>  (1) 
1

>  <PUBCHEM_CONFORMER_ID>  (1) 
00001FCA00000001

>  <PUBCHEM_MMFF94_ENERGY>  (1) 
5.0316

>  <PUBCHEM_FEATURE_SELFOVERLAP>  (1) 
10.148

>  <PUBCHEM_SHAPE_FINGERPRINT>  (1) 
11315181 36 17022626386241511665
12091667 2 18413107264880425035
13533116 47 17240471474096299752
1420 363 17275388707387248076
14251764 18 18187080646040686275
14251764 46 18410573989457006934
15716309 27 10881398742586960344
17834076 25 18333731321073473690
20281389 69 18408318895825821112
20621476 8 18272371945124872532
21315763 28 18411136939758750264
220451 1 17312818286673514330
22224240 67 14418134041391534616
23035841 295 18342174470858079282
23402539 116 18130782378070541244
23521765 1 18341894095134312618
33684 2 18408322185965591354
3545911 37 18273495675857095646
42788 4 18411135844489192888
4463277 17 18408040719679256452
57583515 80 12463570685993863791
59755656 520 18334850649480718527
8209 1 18410573989446418447

>  <PUBCHEM_SHAPE_MULTIPOLES>  (1) 
276.37
22.26
0.87
0.64
7.15
0.1
-0.01
-0.12
-0.93
-0.5
0
0.32
-0.01
0.08

>  <PUBCHEM_SHAPE_SELFOVERLAP>  (1) 
504.792

>  <PUBCHEM_SHAPE_VOLUME>  (1) 
175.8

>  <PUBCHEM_COORDINATE_TYPE>  (1) 
2
5
10

$$$$
