8145
     RDKit          3D

  9  8  0  0  0  0  0  0  0  0999 V2000
   -3.6609    0.4524    0.0020 O   0  0  0  0  0  0  0  0  0  0  0  0
    3.6702    0.4541    0.0185 O   0  0  0  0  0  0  0  0  0  0  0  0
   -0.0056   -0.4180   -0.0072 C   0  0  0  0  0  0  0  0  0  0  0  0
   -1.2666    0.4440   -0.0260 C   0  0  0  0  0  0  0  0  0  0  0  0
    1.2585    0.4465    0.0034 C   0  0  0  0  0  0  0  0  0  0  0  0
   -2.5288   -0.4061    0.0064 C   0  0  0  0  0  0  0  0  0  0  0  0
    2.5304   -0.3927   -0.0111 C   0  0  0  0  0  0  0  0  0  0  0  0
   -4.8757   -0.2855    0.0125 C   0  0  0  0  0  0  0  0  0  0  0  0
    4.8784   -0.2946    0.0015 C   0  0  0  0  0  0  0  0  0  0  0  0
  1  6  1  0
  1  8  1  0
  2  7  1  0
  2  9  1  0
  3  4  1  0
  3  5  1  0
  4  6  1  0
  5  7  1  0
M  END
>  <PUBCHEM_COMPOUND_CID>  (1) 
8145

>  <PUBCHEM_CONFORMER_RMSD>  (1) 
0.6

>  <PUBCHEM_CONFORMER_DIVERSEORDER>  (1) 
1
81
3
68
60
84
39
40
14
66
19
69
13
12
52
50
18
78
41
75
82
46
51
56
43
54
4
16
6
35
70
64
2
85
15
5
24
32
57
48
76
28
71
7
80
79
26
9
27
10
83
22
49
30
55
59
42
36
37
74
63
44
67
65
17
77
62
47
45
38
20
29
34
21
11
53
8
23
72
33
73
61
58
31
25

>  <PUBCHEM_MMFF94_PARTIAL_CHARGES>  (1) 
6
1 -0.56
2 -0.56
6 0.28
7 0.28
8 0.28
9 0.28

>  <PUBCHEM_EFFECTIVE_ROTOR_COUNT>  (1) 
6

>  <PUBCHEM_PHARMACOPHORE_FEATURES>  (1) 
2
1 1 acceptor
1 2 acceptor

>  <PUBCHEM_HEAVY_ATOM_COUNT>  (1) 
9

>  <PUBCHEM_ATOM_DEF_STEREO_COUNT>  (1) 
0

>  <PUBCHEM_ATOM_UDEF_STEREO_COUNT>  (1) 
0

>  <PUBCHEM_BOND_DEF_STEREO_COUNT>  (1) 
0

>  <PUBCHEM_BOND_UDEF_STEREO_COUNT>  (1) 
0

>  <PUBCHEM_ISOTOPIC_ATOM_COUNT>  (1) 
0

>  <PUBCHEM_COMPONENT_COUNT>  (1) 
1

>  <PUBCHEM_CACTVS_TAUTO_COUNT>  (1) 
1

>  <PUBCHEM_CONFORMER_ID>  (1) 
00001FD100000001

>  <PUBCHEM_MMFF94_ENERGY>  (1) 
11.7086

>  <PUBCHEM_FEATURE_SELFOVERLAP>  (1) 
10.149

>  <PUBCHEM_SHAPE_FINGERPRINT>  (1) 
11062470 55 18410575088958046208
14123238 8 18410292518775244127
17834076 25 18410294709203296782
20645477 70 18200315407733938918
20719005 15 18410856563961189090
22485316 2 18410289215935103786
23402539 116 17988637493858074285
366044 4 18409729568864534090
42788 4 18410856559639835045

>  <PUBCHEM_SHAPE_MULTIPOLES>  (1) 
173.48
10.41
0.75
0.6
0.06
0.01
0
0.75
-0.06
0
0
0
0.01
0.01

>  <PUBCHEM_SHAPE_SELFOVERLAP>  (1) 
302.334

>  <PUBCHEM_SHAPE_VOLUME>  (1) 
116

>  <PUBCHEM_COORDINATE_TYPE>  (1) 
2
5
10

$$$$
