8147
     RDKit          3D

  9  8  0  0  0  0  0  0  0  0999 V2000
   -2.5025    1.5876    0.9507 Cl  0  0  0  0  0  0  0  0  0  0  0  0
    2.4638    1.6294   -0.9182 Cl  0  0  0  0  0  0  0  0  0  0  0  0
   -1.1730   -1.0690    0.2481 O   0  0  0  0  0  0  0  0  0  0  0  0
    1.1666   -1.0560   -0.2659 O   0  0  0  0  0  0  0  0  0  0  0  0
   -1.4867   -0.1991   -0.8315 C   0  0  0  0  0  0  0  0  0  0  0  0
    1.5151   -0.2239    0.8327 C   0  0  0  0  0  0  0  0  0  0  0  0
    0.0025   -1.8390   -0.0024 C   0  0  0  0  0  0  0  0  0  0  0  0
   -2.7417    0.5894   -0.5060 C   0  0  0  0  0  0  0  0  0  0  0  0
    2.7560    0.5806    0.4926 C   0  0  0  0  0  0  0  0  0  0  0  0
  1  8  1  0
  2  9  1  0
  3  5  1  0
  3  7  1  0
  4  6  1  0
  4  7  1  0
  5  8  1  0
  6  9  1  0
M  END
>  <PUBCHEM_COMPOUND_CID>  (1) 
8147

>  <PUBCHEM_CONFORMER_RMSD>  (1) 
0.6

>  <PUBCHEM_CONFORMER_DIVERSEORDER>  (1) 
2
25
101
76
98
22
67
23
91
26
24
50
84
106
64
16
86
71
94
78
63
107
69
20
13
100
65
97
1
62
52
102
18
73
88
95
59
66
109
83
12
41
60
105
92
19
34
58
74
47
99
28
96
56
75
7
82
5
61
104
90
43
89
55
81
85
57
15
30
21
79
108
72
27
103
11
93
77
3
42
54
33
68
10
40
87
29
36
80
70
46
49
44
39
53
14
35
48
45
4
31
51
38
8
9
17
6
37
32

>  <PUBCHEM_MMFF94_PARTIAL_CHARGES>  (1) 
9
1 -0.29
2 -0.29
3 -0.56
4 -0.56
5 0.28
6 0.28
7 0.56
8 0.29
9 0.29

>  <PUBCHEM_EFFECTIVE_ROTOR_COUNT>  (1) 
6

>  <PUBCHEM_PHARMACOPHORE_FEATURES>  (1) 
2
1 3 acceptor
1 4 acceptor

>  <PUBCHEM_HEAVY_ATOM_COUNT>  (1) 
9

>  <PUBCHEM_ATOM_DEF_STEREO_COUNT>  (1) 
0

>  <PUBCHEM_ATOM_UDEF_STEREO_COUNT>  (1) 
0

>  <PUBCHEM_BOND_DEF_STEREO_COUNT>  (1) 
0

>  <PUBCHEM_BOND_UDEF_STEREO_COUNT>  (1) 
0

>  <PUBCHEM_ISOTOPIC_ATOM_COUNT>  (1) 
0

>  <PUBCHEM_COMPONENT_COUNT>  (1) 
1

>  <PUBCHEM_CACTVS_TAUTO_COUNT>  (1) 
1

>  <PUBCHEM_CONFORMER_ID>  (1) 
00001FD300000002

>  <PUBCHEM_MMFF94_ENERGY>  (1) 
10.1002

>  <PUBCHEM_FEATURE_SELFOVERLAP>  (1) 
10.181

>  <PUBCHEM_SHAPE_FINGERPRINT>  (1) 
100427 49 16825586501508494279
10149128 111 18410857659157003913
10857977 72 16443928067413718405
13618510 140 18409733932546090557
14390081 3 18130779053813307185
15775835 57 18408882953469413052
17834069 17 17677351504995353305
20653085 51 18341623606800178138
20671657 1 18409732824787049294
21028194 46 18411129251413667721
66348 1 18194115441689441685

>  <PUBCHEM_SHAPE_MULTIPOLES>  (1) 
177.22
4.67
1.92
1.06
0.03
0.12
0.01
-2.81
0.05
-0.03
-0.01
0.02
-0.32
-0.74

>  <PUBCHEM_SHAPE_SELFOVERLAP>  (1) 
298.856

>  <PUBCHEM_SHAPE_VOLUME>  (1) 
121

>  <PUBCHEM_COORDINATE_TYPE>  (1) 
2
5
10

$$$$
