8149
     RDKit          3D

  9  8  0  0  0  0  0  0  0  0999 V2000
    0.0010   -0.6582    0.0056 N   0  0  0  0  0  0  0  0  0  0  0  0
   -4.6322    0.7578   -0.0087 N   0  0  0  0  0  0  0  0  0  0  0  0
    4.6318    0.7582    0.0040 N   0  0  0  0  0  0  0  0  0  0  0  0
   -1.2002    0.1687    0.0116 C   0  0  0  0  0  0  0  0  0  0  0  0
    1.1999    0.1679    0.0017 C   0  0  0  0  0  0  0  0  0  0  0  0
   -2.4493   -0.7089    0.0049 C   0  0  0  0  0  0  0  0  0  0  0  0
    2.4493   -0.7091   -0.0129 C   0  0  0  0  0  0  0  0  0  0  0  0
   -3.6684    0.1116   -0.0026 C   0  0  0  0  0  0  0  0  0  0  0  0
    3.6682    0.1118   -0.0036 C   0  0  0  0  0  0  0  0  0  0  0  0
  1  4  1  0
  1  5  1  0
  2  8  3  0
  3  9  3  0
  4  6  1  0
  5  7  1  0
  6  8  1  0
  7  9  1  0
M  END
>  <PUBCHEM_COMPOUND_CID>  (1) 
8149

>  <PUBCHEM_CONFORMER_RMSD>  (1) 
0.6

>  <PUBCHEM_CONFORMER_DIVERSEORDER>  (1) 
1
14
11
9
17
3
16
13
18
5
8
10
4
7
6
12
15
2

>  <PUBCHEM_MMFF94_PARTIAL_CHARGES>  (1) 
10
1 -0.9
14 0.36
2 -0.56
3 -0.56
4 0.27
5 0.27
6 0.2
7 0.2
8 0.36
9 0.36

>  <PUBCHEM_EFFECTIVE_ROTOR_COUNT>  (1) 
4

>  <PUBCHEM_PHARMACOPHORE_FEATURES>  (1) 
4
1 1 cation
1 1 donor
1 2 acceptor
1 3 acceptor

>  <PUBCHEM_HEAVY_ATOM_COUNT>  (1) 
9

>  <PUBCHEM_ATOM_DEF_STEREO_COUNT>  (1) 
0

>  <PUBCHEM_ATOM_UDEF_STEREO_COUNT>  (1) 
0

>  <PUBCHEM_BOND_DEF_STEREO_COUNT>  (1) 
0

>  <PUBCHEM_BOND_UDEF_STEREO_COUNT>  (1) 
0

>  <PUBCHEM_ISOTOPIC_ATOM_COUNT>  (1) 
0

>  <PUBCHEM_COMPONENT_COUNT>  (1) 
1

>  <PUBCHEM_CACTVS_TAUTO_COUNT>  (1) 
1

>  <PUBCHEM_CONFORMER_ID>  (1) 
00001FD500000001

>  <PUBCHEM_MMFF94_ENERGY>  (1) 
-2.3607

>  <PUBCHEM_FEATURE_SELFOVERLAP>  (1) 
20.297

>  <PUBCHEM_SHAPE_FINGERPRINT>  (1) 
11062470 55 18410575088958098178
11987891 38 9295291650821247484
13690532 89 9871752390476827612
14123238 8 17821729450822777103
17834076 25 18413952788726085844
18342897 14 18334576845293901716
20211469 26 10592043561623688511
20645477 70 17916871214145381118
20719005 15 18410293618381901835
20828058 44 15574720209252276761
21119208 17 15913328000411996420
22485316 2 18410853265400198342
42788 4 18410856559639815557

>  <PUBCHEM_SHAPE_MULTIPOLES>  (1) 
170.27
9.57
0.86
0.59
0
0.04
0
-2.59
-0.02
0
0
0
0.01
0.01

>  <PUBCHEM_SHAPE_SELFOVERLAP>  (1) 
308.87

>  <PUBCHEM_SHAPE_VOLUME>  (1) 
104.8

>  <PUBCHEM_COORDINATE_TYPE>  (1) 
2
5
10

$$$$
