8159
     RDKit          3D

 11 10  0  0  0  0  0  0  0  0999 V2000
   -2.6860    0.5044   -0.0110 O   0  0  0  0  0  0  0  0  0  0  0  0
   -4.1075   -1.3167    0.0050 O   0  0  0  0  0  0  0  0  0  0  0  0
    2.2315    0.4705    0.0450 C   0  0  0  0  0  0  0  0  0  0  0  0
    0.9647   -0.3872    0.0105 C   0  0  0  0  0  0  0  0  0  0  0  0
    3.5234   -0.3517    0.0451 C   0  0  0  0  0  0  0  0  0  0  0  0
   -0.2916    0.4824   -0.0120 C   0  0  0  0  0  0  0  0  0  0  0  0
    4.7894    0.5052    0.0052 C   0  0  0  0  0  0  0  0  0  0  0  0
   -1.5588   -0.3607   -0.0043 C   0  0  0  0  0  0  0  0  0  0  0  0
    6.0404   -0.3575   -0.0658 C   0  0  0  0  0  0  0  0  0  0  0  0
   -3.9084   -0.1095   -0.0052 C   0  0  0  0  0  0  0  0  0  0  0  0
   -4.9971    0.9206   -0.0127 C   0  0  0  0  0  0  0  0  0  0  0  0
  1  8  1  0
  1 10  1  0
  2 10  2  0
  3  4  1  0
  3  5  1  0
  4  6  1  0
  5  7  1  0
  6  8  1  0
  7  9  1  0
 10 11  1  0
M  END
>  <PUBCHEM_COMPOUND_CID>  (1) 
8159

>  <PUBCHEM_CONFORMER_RMSD>  (1) 
0.8

>  <PUBCHEM_CONFORMER_DIVERSEORDER>  (1) 
1
83
2
106
27
89
17
105
64
95
11
97
33
10
66
8
45
3
82
61
29
56
104
58
75
5
68
41
59
86
92
78
13
22
51
19
15
63
107
65
16
100
31
74
49
38
94
87
72
81
36
9
26
96
43
77
32
55
6
42
23
25
57
69
39
40
71
88
99
98
24
73
30
21
85
101
35
76
90
7
84
52
62
60
102
14
47
67
48
37
54
53
93
34
12
20
70
79
103
4
44
50
28
46
91
18
80

>  <PUBCHEM_MMFF94_PARTIAL_CHARGES>  (1) 
5
1 -0.43
10 0.66
11 0.06
2 -0.57
8 0.28

>  <PUBCHEM_EFFECTIVE_ROTOR_COUNT>  (1) 
7

>  <PUBCHEM_PHARMACOPHORE_FEATURES>  (1) 
3
1 2 acceptor
1 9 hydrophobe
5 3 4 5 6 7 hydrophobe

>  <PUBCHEM_HEAVY_ATOM_COUNT>  (1) 
11

>  <PUBCHEM_ATOM_DEF_STEREO_COUNT>  (1) 
0

>  <PUBCHEM_ATOM_UDEF_STEREO_COUNT>  (1) 
0

>  <PUBCHEM_BOND_DEF_STEREO_COUNT>  (1) 
0

>  <PUBCHEM_BOND_UDEF_STEREO_COUNT>  (1) 
0

>  <PUBCHEM_ISOTOPIC_ATOM_COUNT>  (1) 
0

>  <PUBCHEM_COMPONENT_COUNT>  (1) 
1

>  <PUBCHEM_CACTVS_TAUTO_COUNT>  (1) 
1

>  <PUBCHEM_CONFORMER_ID>  (1) 
00001FDF00000001

>  <PUBCHEM_MMFF94_ENERGY>  (1) 
1.4432

>  <PUBCHEM_FEATURE_SELFOVERLAP>  (1) 
15.223

>  <PUBCHEM_SHAPE_FINGERPRINT>  (1) 
14123238 8 16950281810704097286
14251718 22 18335702771360684914
15242439 84 18130784559961465161
15501527 16 18338518535125701905
17834072 33 18338237167179808204
17834076 25 17530685402787788801
187816 3 15791732996801504104
20645477 70 17631739253671746678
20719005 15 18411136944243387746
20767249 13 12607403291139158980
20828058 44 18411701006234837511
22485316 2 18410291402152533251
23402539 116 18411695495686172061
42788 4 18410855464665858628
57483677 66 18410571778097858930
8209 1 18411418406446031348

>  <PUBCHEM_SHAPE_MULTIPOLES>  (1) 
214.64
13.77
0.94
0.6
5.71
0.08
0
-0.14
0.18
-0.67
0
0.06
-0.01
0.02

>  <PUBCHEM_SHAPE_SELFOVERLAP>  (1) 
386.315

>  <PUBCHEM_SHAPE_VOLUME>  (1) 
138.6

>  <PUBCHEM_COORDINATE_TYPE>  (1) 
2
5
10

$$$$
