8168
     RDKit          3D

 15 14  0  0  0  0  0  0  0  0999 V2000
    6.4554   -0.1910   -0.2981 N   0  0  0  0  0  0  0  0  0  0  0  0
   -1.1054   -0.2768   -0.1658 C   0  0  0  0  0  0  0  0  0  0  0  0
    0.1820    0.4323    0.2645 C   0  0  0  0  0  0  0  0  0  0  0  0
   -2.3782    0.4492    0.2783 C   0  0  0  0  0  0  0  0  0  0  0  0
    1.4528   -0.2534   -0.2422 C   0  0  0  0  0  0  0  0  0  0  0  0
   -3.6292   -0.2654   -0.2399 C   0  0  0  0  0  0  0  0  0  0  0  0
    2.7079    0.4775    0.2426 C   0  0  0  0  0  0  0  0  0  0  0  0
   -4.9365    0.4049    0.1928 C   0  0  0  0  0  0  0  0  0  0  0  0
    3.9801   -0.2254   -0.2412 C   0  0  0  0  0  0  0  0  0  0  0  0
   -6.1871   -0.3499   -0.2628 C   0  0  0  0  0  0  0  0  0  0  0  0
    5.2610    0.5083    0.1597 C   0  0  0  0  0  0  0  0  0  0  0  0
   -7.4589    0.3220    0.2569 C   0  0  0  0  0  0  0  0  0  0  0  0
   -8.7043   -0.4441   -0.1600 C   0  0  0  0  0  0  0  0  0  0  0  0
    6.7664   -1.3148    0.5872 C   0  0  0  0  0  0  0  0  0  0  0  0
    7.5939    0.7267   -0.3721 C   0  0  0  0  0  0  0  0  0  0  0  0
  1 11  1  0
  1 14  1  0
  1 15  1  0
  2  3  1  0
  2  4  1  0
  3  5  1  0
  4  6  1  0
  5  7  1  0
  6  8  1  0
  7  9  1  0
  8 10  1  0
  9 11  1  0
 10 12  1  0
 12 13  1  0
M  END
>  <PUBCHEM_COMPOUND_CID>  (1) 
8168

>  <PUBCHEM_CONFORMER_RMSD>  (1) 
1.2

>  <PUBCHEM_CONFORMER_DIVERSEORDER>  (1) 
1
45
13
11
25
20
33
16
32
37
21
17
36
5
9
44
19
4
38
12
3
51
31
50
46
7
53
43
27
52
18
2
8
22
48
55
29
10
34
54
26
14
47
41
6
23
40
28
42
49
24
15
30
39
35

>  <PUBCHEM_MMFF94_PARTIAL_CHARGES>  (1) 
4
1 -0.81
11 0.27
14 0.27
15 0.27

>  <PUBCHEM_EFFECTIVE_ROTOR_COUNT>  (1) 
11

>  <PUBCHEM_PHARMACOPHORE_FEATURES>  (1) 
2
1 1 cation
1 13 hydrophobe

>  <PUBCHEM_HEAVY_ATOM_COUNT>  (1) 
15

>  <PUBCHEM_ATOM_DEF_STEREO_COUNT>  (1) 
0

>  <PUBCHEM_ATOM_UDEF_STEREO_COUNT>  (1) 
0

>  <PUBCHEM_BOND_DEF_STEREO_COUNT>  (1) 
0

>  <PUBCHEM_BOND_UDEF_STEREO_COUNT>  (1) 
0

>  <PUBCHEM_ISOTOPIC_ATOM_COUNT>  (1) 
0

>  <PUBCHEM_COMPONENT_COUNT>  (1) 
1

>  <PUBCHEM_CACTVS_TAUTO_COUNT>  (1) 
1

>  <PUBCHEM_CONFORMER_ID>  (1) 
00001FE800000001

>  <PUBCHEM_MMFF94_ENERGY>  (1) 
4.1289

>  <PUBCHEM_FEATURE_SELFOVERLAP>  (1) 
10.148

>  <PUBCHEM_SHAPE_FINGERPRINT>  (1) 
11315181 36 18114187445648112217
12091667 2 18334858317025158329
13533116 47 18041269977255492682
14123256 10 18410575084700028181
14251764 18 18273496758462985587
14251764 46 18410575088958052707
15716309 27 18411417315192126287
17834076 25 18410293609702218509
18006028 8 17847061082278261353
20281389 69 18412823586258866328
20621476 8 15936405632993363027
21150785 3 17894067411625083517
21315763 28 18411418415004674657
22224240 67 15647053784856083280
23035841 295 18273213101695765839
23521765 1 18342176670007740445
246663 6 17346601884990033133
28498 318 18260545602140582015
33532 11 18187361004484681914
33684 2 18410573985151451138
42788 4 18272651246837679248
59755656 520 18334007320278871999
67123 10 18334858341792739805
8209 1 18411138039444295469

>  <PUBCHEM_SHAPE_MULTIPOLES>  (1) 
303.71
27.85
0.88
0.69
12.53
0.11
0.01
2.2
-0.6
-0.91
0.06
-0.15
0.02
-0.58

>  <PUBCHEM_SHAPE_SELFOVERLAP>  (1) 
540.674

>  <PUBCHEM_SHAPE_VOLUME>  (1) 
198.3

>  <PUBCHEM_COORDINATE_TYPE>  (1) 
2
5
10

$$$$
