817
     RDKit          3D

 16 15  0  0  1  0  0  0  0  0999 V2000
    1.5242   -2.2231   -0.1573 O   0  0  0  0  0  0  0  0  0  0  0  0
    1.6862   -0.0744    1.6874 O   0  0  0  0  0  0  0  0  0  0  0  0
   -1.1478   -2.1968   -0.6125 O   0  0  0  0  0  0  0  0  0  0  0  0
    3.2180    0.5483   -1.5487 O   0  0  0  0  0  0  0  0  0  0  0  0
    5.3667    1.1707    0.1462 O   0  0  0  0  0  0  0  0  0  0  0  0
   -3.3634   -1.0163    0.6616 O   0  0  0  0  0  0  0  0  0  0  0  0
   -5.0417    0.8252    0.2532 O   0  0  0  0  0  0  0  0  0  0  0  0
   -3.3957    2.1792   -0.5957 O   0  0  0  0  0  0  0  0  0  0  0  0
    0.8839   -0.9659   -0.4106 C   0  0  0  0  0  0  0  0  0  0  0  0
    1.7193    0.1335    0.2698 C   0  0  0  0  0  0  0  0  0  0  0  0
   -0.5745   -1.0767    0.0766 C   0  0  0  0  0  0  0  0  0  0  0  0
    3.1965    0.1935   -0.1588 C   0  0  0  0  0  0  0  0  0  0  0  0
   -1.4197    0.1630   -0.2315 C   0  0  0  0  0  0  0  0  0  0  0  0
    4.0181    1.2294    0.6025 C   0  0  0  0  0  0  0  0  0  0  0  0
   -2.8736   -0.0207    0.1498 C   0  0  0  0  0  0  0  0  0  0  0  0
   -3.7965    1.1309   -0.1320 C   0  0  0  0  0  0  0  0  0  0  0  0
  1  9  1  0
  2 10  1  0
  3 11  1  0
  4 12  1  0
  5 14  1  0
  6 15  2  0
  7 16  1  0
  8 16  2  0
  9 10  1  0
  9 11  1  0
 10 12  1  0
 11 13  1  0
 12 14  1  0
 13 15  1  0
 15 16  1  0
M  END
>  <PUBCHEM_COMPOUND_CID>  (1) 
817

>  <PUBCHEM_CONFORMER_RMSD>  (1) 
1

>  <PUBCHEM_CONFORMER_DIVERSEORDER>  (1) 
3
413
29
544
539
135
343
36
10
166
25
97
500
397
24
81
386
308
110
215
408
73
13
207
218
59
235
311
384
9
552
1
27
336
399
4
17
473
182
227
256
560
5
509
369
301
91
161
354
94
57
2
379
41
238
359
16
108
31
550
67
230
389
458
14
168
471
480
412
8
342
516
44
294
351
244
197
173
231
167
378
304
7
407
299
252
324
34
109
353
199
548
349
77
55
518
95
79
104
352
23
443
320
524
433
119
338
286
553
12
268
133
459
39
439
175
132
447
203
363
62
375
61
126
33
158
266
334
337
380
38
242
364
401
56
93
76
313
492
40
160
198
87
179
65
15
129
290
233
60
404
20
267
450
383
250
237
271
48
254
142
328
277
68
344
117
19

>  <PUBCHEM_MMFF94_PARTIAL_CHARGES>  (1) 
22
1 -0.68
10 0.28
11 0.28
12 0.28
13 0.06
14 0.28
15 0.51
16 0.72
2 -0.68
25 0.4
26 0.4
27 0.4
28 0.4
29 0.4
3 -0.68
30 0.5
4 -0.68
5 -0.68
6 -0.57
7 -0.65
8 -0.57
9 0.28

>  <PUBCHEM_EFFECTIVE_ROTOR_COUNT>  (1) 
7

>  <PUBCHEM_PHARMACOPHORE_FEATURES>  (1) 
14
1 1 acceptor
1 1 donor
1 2 acceptor
1 2 donor
1 3 acceptor
1 3 donor
1 4 acceptor
1 4 donor
1 5 acceptor
1 5 donor
1 6 acceptor
1 7 acceptor
1 8 acceptor
3 7 8 16 anion

>  <PUBCHEM_HEAVY_ATOM_COUNT>  (1) 
16

>  <PUBCHEM_ATOM_DEF_STEREO_COUNT>  (1) 
0

>  <PUBCHEM_ATOM_UDEF_STEREO_COUNT>  (1) 
4

>  <PUBCHEM_BOND_DEF_STEREO_COUNT>  (1) 
0

>  <PUBCHEM_BOND_UDEF_STEREO_COUNT>  (1) 
0

>  <PUBCHEM_ISOTOPIC_ATOM_COUNT>  (1) 
0

>  <PUBCHEM_COMPONENT_COUNT>  (1) 
1

>  <PUBCHEM_CACTVS_TAUTO_COUNT>  (1) 
2

>  <PUBCHEM_CONFORMER_ID>  (1) 
0000033100000003

>  <PUBCHEM_MMFF94_ENERGY>  (1) 
33.8658

>  <PUBCHEM_FEATURE_SELFOVERLAP>  (1) 
71.154

>  <PUBCHEM_SHAPE_FINGERPRINT>  (1) 
10498660 4 18341611495145721977
10608611 8 18264488382593024717
11046707 91 10087643706003414261
11132069 177 18186241718900912277
11543360 7 15051725417288675185
122479 349 18334579074455638562
12251169 10 17530685407372919493
12363563 72 8286198383330093337
12633257 1 15791733026919048832
13081056 2 18412547578675043309
13214271 11 18334575776216167335
13740256 8 9007052483140265816
14123255 352 18411415137670340708
14123255 52 18411978074580240796
14251710 61 9439395848181164605
14252887 29 13334729107874424264
14897335 6 18341891891964153238
14943859 89 18272652385151744786
15775835 57 18272649034955869663
17834072 14 8646771066843918622
17834072 32 18340485659452379296
17834072 8 18202009802897511726
18186145 218 17917443037669468710
193927 3 8358259293114682216
200 152 14117527562304698378
20233049 118 18411415120569690464
20281475 54 8862949402408490294
20374829 77 10159699083970177229
20645477 56 18271528692652175510
20645477 70 16773814588445682694
20671657 53 9151173177195649962
20871998 22 11747210221502999786
20871999 31 16916774232613106375
21119208 17 14333406748827992329
21501925 9 10737292358961978583
22646028 28 8646772204946948396
22926399 37 17846499210488069553
22926399 65 18343581875948737576
231179 274 18343584036280286120
23402539 116 18202274845113245172
23402655 69 17418095407708423241
23403322 49 9367350335960164689
23557571 272 17988084529128596694
23559900 14 18049718512834225531
23590187 49 18411980265039994029
25 1 17775005682630848906
26918003 58 13045941304880916789
2916195 48 18129373959985039616
4028521 119 18060138742964140961
449060 50 18408887309077538405
4990 188 17274825748453593303
5104073 3 18189624843729469097
5902787 121 9367337133214625855
633830 44 17346050965150363101
6430166 295 18411978079191732248
76465 3 7925615688601423161

>  <PUBCHEM_SHAPE_MULTIPOLES>  (1) 
282.32
9.48
1.86
0.96
0.48
0.49
-0.05
-6.03
-0.34
-0.6
0.27
0.58
-0.06
0.41

>  <PUBCHEM_SHAPE_SELFOVERLAP>  (1) 
550.314

>  <PUBCHEM_SHAPE_VOLUME>  (1) 
168.2

>  <PUBCHEM_COORDINATE_TYPE>  (1) 
2
5
10

$$$$
