8171
     RDKit          3D

 10  9  0  0  0  0  0  0  0  0999 V2000
    2.5365    2.1630    0.3331 Cl  0  0  0  0  0  0  0  0  0  0  0  0
   -2.5365    2.1630   -0.3331 Cl  0  0  0  0  0  0  0  0  0  0  0  0
    1.3756   -0.5976   -0.2569 O   0  0  0  0  0  0  0  0  0  0  0  0
   -1.3756   -0.5976    0.2569 O   0  0  0  0  0  0  0  0  0  0  0  0
    0.7189   -1.7569    0.2413 C   0  0  0  0  0  0  0  0  0  0  0  0
   -0.7189   -1.7569   -0.2413 C   0  0  0  0  0  0  0  0  0  0  0  0
    2.7311   -0.5453    0.1657 C   0  0  0  0  0  0  0  0  0  0  0  0
   -2.7311   -0.5452   -0.1656 C   0  0  0  0  0  0  0  0  0  0  0  0
    3.3733    0.7368   -0.3312 C   0  0  0  0  0  0  0  0  0  0  0  0
   -3.3732    0.7368    0.3313 C   0  0  0  0  0  0  0  0  0  0  0  0
  1  9  1  0
  2 10  1  0
  3  5  1  0
  3  7  1  0
  4  6  1  0
  4  8  1  0
  5  6  1  0
  7  9  1  0
  8 10  1  0
M  END
>  <PUBCHEM_COMPOUND_CID>  (1) 
8171

>  <PUBCHEM_CONFORMER_RMSD>  (1) 
0.6

>  <PUBCHEM_CONFORMER_DIVERSEORDER>  (1) 
1
164
215
168
37
178
7
183
210
130
62
202
14
22
92
31
65
200
217
156
58
192
12
163
137
151
66
153
188
211
8
216
146
191
6
213
54
157
208
29
144
169
145
79
13
181
212
148
75
133
194
204
59
209
147
124
34
184
180
154
52
61
49
83
197
182
91
207
89
139
24
69
149
88
150
60
136
162
77
76
176
199
127
190
174
171
131
132
203
189
56
177
160
116
173
159
11
198
214
128
72
93
105
5
63
51
205
122
74
68
28
201
98
193
101
106
143
3
179
170
57
99
113
161
55
111
123
17
185
70
206
38
141
86
126
94
40
110
102
158
10
112
27
114
103
18
172
167
100
45
175
108
16
118
47
165
20
129
9
142
135
109
97
115
80
30
140
195
50
19
104
67
78
134
84
121
71
48
41
82
186
120
138
42
125
166
73
2
119
39
43
4
15
107
117
33
21
155
196
64
95
53
96
85
81
90
46
44
187
152
87
23
36
26
35
32
25

>  <PUBCHEM_MMFF94_PARTIAL_CHARGES>  (1) 
10
1 -0.29
10 0.29
2 -0.29
3 -0.56
4 -0.56
5 0.28
6 0.28
7 0.28
8 0.28
9 0.29

>  <PUBCHEM_EFFECTIVE_ROTOR_COUNT>  (1) 
7

>  <PUBCHEM_PHARMACOPHORE_FEATURES>  (1) 
2
1 3 acceptor
1 4 acceptor

>  <PUBCHEM_HEAVY_ATOM_COUNT>  (1) 
10

>  <PUBCHEM_ATOM_DEF_STEREO_COUNT>  (1) 
0

>  <PUBCHEM_ATOM_UDEF_STEREO_COUNT>  (1) 
0

>  <PUBCHEM_BOND_DEF_STEREO_COUNT>  (1) 
0

>  <PUBCHEM_BOND_UDEF_STEREO_COUNT>  (1) 
0

>  <PUBCHEM_ISOTOPIC_ATOM_COUNT>  (1) 
0

>  <PUBCHEM_COMPONENT_COUNT>  (1) 
1

>  <PUBCHEM_CACTVS_TAUTO_COUNT>  (1) 
1

>  <PUBCHEM_CONFORMER_ID>  (1) 
00001FEB00000001

>  <PUBCHEM_MMFF94_ENERGY>  (1) 
11.1127

>  <PUBCHEM_FEATURE_SELFOVERLAP>  (1) 
10.153

>  <PUBCHEM_SHAPE_FINGERPRINT>  (1) 
10149128 111 18410858762958025413
10149128 76 18411982468152391040
12162725 195 18410569591400050243
13618510 140 18410573959387376900
14390081 3 18410293584222766447
15775835 57 18410862057198103844
17802600 8 18410567388081950817
20281407 28 8646776594514444230
20653085 51 18341904003740357370
20767249 271 18339919419854481736
21524375 3 18410573985151951339
22959321 54 18337948008168994781
23500284 5 8286209365603752007
449060 23 10087652493585564830
59345606 82 18411133640902522809
8050 44 18335975368550674925
8199 26 18192436492219360156

>  <PUBCHEM_SHAPE_MULTIPOLES>  (1) 
197.8
6.38
2.53
0.68
0
0.83
0
3.29
0
0
0
0
0.06
0.14

>  <PUBCHEM_SHAPE_SELFOVERLAP>  (1) 
336.68

>  <PUBCHEM_SHAPE_VOLUME>  (1) 
134.4

>  <PUBCHEM_COORDINATE_TYPE>  (1) 
2
5
10

$$$$
