8187
     RDKit          3D

 12 11  0  0  0  0  0  0  0  0999 V2000
    5.7905    1.1342    0.1189 O   0  0  0  0  0  0  0  0  0  0  0  0
   -0.5740   -0.4845   -0.0891 C   0  0  0  0  0  0  0  0  0  0  0  0
    0.7521    0.2778   -0.1016 C   0  0  0  0  0  0  0  0  0  0  0  0
   -1.7671    0.4733   -0.1073 C   0  0  0  0  0  0  0  0  0  0  0  0
    1.9442   -0.6790   -0.0492 C   0  0  0  0  0  0  0  0  0  0  0  0
   -3.0929   -0.2937   -0.1282 C   0  0  0  0  0  0  0  0  0  0  0  0
    3.2691    0.0830   -0.0274 C   0  0  0  0  0  0  0  0  0  0  0  0
   -4.3180    0.6250   -0.1750 C   0  0  0  0  0  0  0  0  0  0  0  0
    4.4558   -0.8698    0.0585 C   0  0  0  0  0  0  0  0  0  0  0  0
   -5.6132   -0.1275   -0.2650 C   0  0  0  0  0  0  0  0  0  0  0  0
    5.7432   -0.0919    0.1197 C   0  0  0  0  0  0  0  0  0  0  0  0
   -6.5898   -0.0469    0.6456 C   0  0  0  0  0  0  0  0  0  0  0  0
  1 11  2  0
  2  3  1  0
  2  4  1  0
  3  5  1  0
  4  6  1  0
  5  7  1  0
  6  8  1  0
  7  9  1  0
  8 10  1  0
  9 11  1  0
 10 12  2  0
M  END
>  <PUBCHEM_COMPOUND_CID>  (1) 
8187

>  <PUBCHEM_CONFORMER_RMSD>  (1) 
0.8

>  <PUBCHEM_CONFORMER_DIVERSEORDER>  (1) 
1
284
327
105
159
132
130
341
51
178
38
117
23
162
308
52
354
106
233
73
64
195
287
86
72
280
9
11
242
264
304
305
10
46
216
84
306
137
252
334
251
3
325
24
225
17
8
150
128
75
321
21
189
6
218
7
49
289
16
352
153
221
124
37
243
61
340
100
45
323
74
296
93
81
2
302
80
255
56
274
190
58
47
191
126
307
12
297
256
35
232
31
281
269
320
351
146
18
283
207
149
25
91
176
42
69
353
200
140
177
33
144
336
290
62
322
155
138
333
152
294
60
174
343
50
5
39
335
303
48
28
54
315
314
15
161
184
348
85
27
103
20
350
355
215
118
107
247
253
122
77
145
55
329
102
318
317
26
293
217
36
121
180
123
89
19
79
66
92
208
198
87
345
109
156
192
120
166
324
13
257
286
90
235
211
332
262
129
299
186
41
338
203
237
112
53
224
115
346
285
223
71
277
136
108
125
154
160
167
330
205
356
228
135
282
268
134
301
227
288
300
337
142
275
295
110
276
188
83
316
196
193
170
148
32
151
209
34
298
111
347
165
14
40
214
44
273
291
104
94
98
141
187
279
30
249
202
76
181
328
22
182
250
88
194
254
63
43
278
57
173
4
344
222
68
349
113
234
169
59
244
171
265
312
29
101
326
172
201
78
210
313
99
131
95
238
139
339
229
70
310
97
270
246
179
82
147
67
309
158
261
143
267
175
236
213
119
331
220
231
157
65
260
272
116
259
206
258
311
183
248
127
241
263
212
114
133
319
164
163
245
230
271
197
239
96
185
226
204
219
292
240
199
342
266
168

>  <PUBCHEM_MMFF94_PARTIAL_CHARGES>  (1) 
10
1 -0.57
10 -0.29
11 0.45
12 -0.3
29 0.15
30 0.06
31 0.15
32 0.15
8 0.14
9 0.06

>  <PUBCHEM_EFFECTIVE_ROTOR_COUNT>  (1) 
9

>  <PUBCHEM_PHARMACOPHORE_FEATURES>  (1) 
2
1 1 acceptor
1 12 hydrophobe

>  <PUBCHEM_HEAVY_ATOM_COUNT>  (1) 
12

>  <PUBCHEM_ATOM_DEF_STEREO_COUNT>  (1) 
0

>  <PUBCHEM_ATOM_UDEF_STEREO_COUNT>  (1) 
0

>  <PUBCHEM_BOND_DEF_STEREO_COUNT>  (1) 
0

>  <PUBCHEM_BOND_UDEF_STEREO_COUNT>  (1) 
0

>  <PUBCHEM_ISOTOPIC_ATOM_COUNT>  (1) 
0

>  <PUBCHEM_COMPONENT_COUNT>  (1) 
1

>  <PUBCHEM_CACTVS_TAUTO_COUNT>  (1) 
2

>  <PUBCHEM_CONFORMER_ID>  (1) 
00001FFB00000001

>  <PUBCHEM_MMFF94_ENERGY>  (1) 
0.5513

>  <PUBCHEM_FEATURE_SELFOVERLAP>  (1) 
10.148

>  <PUBCHEM_SHAPE_FINGERPRINT>  (1) 
11287383 113 18259987093220118576
12091667 2 18408039607503915663
13533116 47 18338231566743427770
14123238 8 18060699481014393678
1420 363 18186243918040101723
14251718 22 18260829293584025043
14251732 16 18335702784034622803
14251764 46 18410854356321592714
15242439 84 11455884767648542927
17834072 33 18131346436199377748
17834076 25 16988843877785992679
187816 3 15267342924719340335
20645477 70 18200595783631557910
20767249 13 14056721240393651535
20767249 213 18410575097547980812
21130983 4 18130791169779087616
220451 1 16988841674657856311
22896161 15 18409166653708369623
23218964 4 9799691497824778125
23402539 116 18411131433984970215
23521765 1 18341894090834070575
42788 4 18410009922965030524
4463277 17 18343019982499430633
8209 1 18409448085677157759

>  <PUBCHEM_SHAPE_MULTIPOLES>  (1) 
241.09
17.53
0.88
0.66
3.21
0.04
-0.02
1.15
-1.96
-0.61
0
0.3
-0.01
0.1

>  <PUBCHEM_SHAPE_SELFOVERLAP>  (1) 
434.924

>  <PUBCHEM_SHAPE_VOLUME>  (1) 
154.1

>  <PUBCHEM_COORDINATE_TYPE>  (1) 
2
5
10

$$$$
