8191
     RDKit          3D

 12 11  0  0  0  0  0  0  0  0999 V2000
   -0.8585   -1.9358    0.5624 S   0  0  0  0  0  0  0  0  0  0  0  0
    0.8612   -1.9297   -0.5631 S   0  0  0  0  0  0  0  0  0  0  0  0
   -4.0540    0.5476   -0.3206 C   0  0  0  0  0  0  0  0  0  0  0  0
    4.0541    0.5458    0.3218 C   0  0  0  0  0  0  0  0  0  0  0  0
   -3.2081   -0.5088    0.3952 C   0  0  0  0  0  0  0  0  0  0  0  0
    3.2068   -0.5071   -0.3975 C   0  0  0  0  0  0  0  0  0  0  0  0
   -5.3996    0.7490    0.3761 C   0  0  0  0  0  0  0  0  0  0  0  0
    5.3978    0.7515   -0.3772 C   0  0  0  0  0  0  0  0  0  0  0  0
   -1.8532   -0.6762   -0.2869 C   0  0  0  0  0  0  0  0  0  0  0  0
    1.8538   -0.6789    0.2872 C   0  0  0  0  0  0  0  0  0  0  0  0
   -6.2282    1.8216   -0.3125 C   0  0  0  0  0  0  0  0  0  0  0  0
    6.2278    1.8209    0.3150 C   0  0  0  0  0  0  0  0  0  0  0  0
  1  2  1  0
  1  9  1  0
  2 10  1  0
  3  5  1  0
  3  7  1  0
  4  6  1  0
  4  8  1  0
  5  9  1  0
  6 10  1  0
  7 11  1  0
  8 12  1  0
M  END
>  <PUBCHEM_COMPOUND_CID>  (1) 
8191

>  <PUBCHEM_CONFORMER_RMSD>  (1) 
0.8

>  <PUBCHEM_CONFORMER_DIVERSEORDER>  (1) 
1
86
248
99
409
115
75
380
372
367
16
84
245
74
403
382
249
437
260
77
250
275
132
331
419
198
415
199
328
449
120
378
11
338
322
416
326
108
9
134
241
317
366
422
279
334
452
299
230
206
85
18
410
440
79
324
54
126
97
271
387
20
255
294
209
442
200
401
257
82
283
105
91
420
133
215
124
3
368
385
258
118
240
98
147
353
42
138
327
186
284
242
112
435
273
244
176
5
417
225
4
167
139
96
386
83
63
73
25
313
2
360
444
27
264
310
52
179
448
14
332
36
228
344
404
282
287
211
446
259
357
117
309
38
100
408
374
212
49
191
192
205
383
131
355
33
330
316
184
443
412
46
155
302
238
152
407
39
391
201
145
6
218
352
15
434
159
227
261
384
233
319
329
161
303
277
285
173
160
47
270
189
447
92
71
44
341
323
336
102
265
239
286
236
111
423
377
217
40
50
345
425
335
109
232
254
216
164
307
207
122
31
95
196
431
32
308
76
343
156
69
214
202
103
433
224
424
41
342
125
402
10
397
426
311
60
183
128
101
182
246
219
421
137
181
318
163
88
278
429
292
256
28
213
144
87
170
235
432
234
166
358
369
140
153
400
23
177
381
451
154
337
269
67
24
21
121
453
276
53
362
252
158
229
450
222
414
393
93
78
110
390
223
314
34
333
351
59
17
445
70
280
193
304
142
376
180
7
94
195
58
371
363
175
22
35
136
394
146
89
406
80
346
231
348
290
72
418
204
13
375
55
359
106
413
237
454
395
30
441
37
116
220
172
113
251
107
165
149
12
268
396
312
168
392
135
373
267
297
148
295
208
320
438
68
123
356
19
361
298
300
379
293
354
66
389
272
129
62
190
289
243
347
370
266
436
288
194
162
315
43
26
169
8
197
150
188
281
29
171
127
411
291
104
130
388
339
262
439
143
253
399
56
321
430
203
185
45
405
305
178
64
48
349
296
57
340
51
119
157
174
364
81
221
61
90
427
274
301
325
428
263
350
226
114
398
247
65
151
365
187
210
141
306

>  <PUBCHEM_MMFF94_PARTIAL_CHARGES>  (1) 
4
1 -0.23
10 0.23
2 -0.23
9 0.23

>  <PUBCHEM_EFFECTIVE_ROTOR_COUNT>  (1) 
9

>  <PUBCHEM_PHARMACOPHORE_FEATURES>  (1) 
2
1 11 hydrophobe
1 12 hydrophobe

>  <PUBCHEM_HEAVY_ATOM_COUNT>  (1) 
12

>  <PUBCHEM_ATOM_DEF_STEREO_COUNT>  (1) 
0

>  <PUBCHEM_ATOM_UDEF_STEREO_COUNT>  (1) 
0

>  <PUBCHEM_BOND_DEF_STEREO_COUNT>  (1) 
0

>  <PUBCHEM_BOND_UDEF_STEREO_COUNT>  (1) 
0

>  <PUBCHEM_ISOTOPIC_ATOM_COUNT>  (1) 
0

>  <PUBCHEM_COMPONENT_COUNT>  (1) 
1

>  <PUBCHEM_CACTVS_TAUTO_COUNT>  (1) 
1

>  <PUBCHEM_CONFORMER_ID>  (1) 
00001FFF00000001

>  <PUBCHEM_MMFF94_ENERGY>  (1) 
-6.8908

>  <PUBCHEM_FEATURE_SELFOVERLAP>  (1) 
10.149

>  <PUBCHEM_SHAPE_FINGERPRINT>  (1) 
100836 57 18410014342475919510
117890 112 18408885152988118544
14123255 352 18411702097045702466
14123256 34 9439403553241808189
1420 369 8790889587977724976
14455015 7 9943514224904015023
14576447 43 11887683866429034566
15501527 16 18410295826179747451
15501527 24 17632855309354913883
17834072 32 18338517542507623980
20281389 69 18333448737758018760
20374829 77 10447932754430474183
20388580 30 11167932584923972746
20526848 3 18410578387498691493
20605781 2 18410576171601164615
20621476 66 18335424608046722996
20767249 213 18409729560754101615
212847 35 18341608201185075802
22765269 38 18334571313961411781
23402655 69 17917711296715584406
23590187 135 9511467710495906746
23590187 49 18409729564632577911
270888 7 18410572885640063713
2916195 48 18335422365867767307
293599 30 18411701002092747070
3014063 24 11097860717849990457
351380 3 9295288330769212713
465052 167 8358249367281510288
5283384 27 18041268899387538781
59345606 38 18412826884751324151
59682541 52 17060067977975824572
7062679 13 9799419910037090196
77188 2 17473260977324812762

>  <PUBCHEM_SHAPE_MULTIPOLES>  (1) 
254.65
16.63
2.14
0.79
0.02
0.2
0
-15.82
0.01
0
0
0
0.1
0.68

>  <PUBCHEM_SHAPE_SELFOVERLAP>  (1) 
425.68

>  <PUBCHEM_SHAPE_VOLUME>  (1) 
172.9

>  <PUBCHEM_COORDINATE_TYPE>  (1) 
2
5
10

$$$$
