8192
     RDKit          3D

 13 12  0  0  0  0  0  0  0  0999 V2000
    7.8032   -0.5323    0.0520 Cl  0  0  0  0  0  0  0  0  0  0  0  0
   -0.0271   -0.3748   -0.0346 C   0  0  0  0  0  0  0  0  0  0  0  0
   -1.2915    0.4889   -0.0191 C   0  0  0  0  0  0  0  0  0  0  0  0
    1.2343    0.4911   -0.0311 C   0  0  0  0  0  0  0  0  0  0  0  0
   -2.5535   -0.3760   -0.0548 C   0  0  0  0  0  0  0  0  0  0  0  0
    2.5325   -0.3214   -0.0539 C   0  0  0  0  0  0  0  0  0  0  0  0
   -3.8502    0.4379   -0.0187 C   0  0  0  0  0  0  0  0  0  0  0  0
    3.8305    0.4900    0.0054 C   0  0  0  0  0  0  0  0  0  0  0  0
   -5.1110   -0.4285    0.0202 C   0  0  0  0  0  0  0  0  0  0  0  0
    5.0920   -0.3756    0.0032 C   0  0  0  0  0  0  0  0  0  0  0  0
   -6.3742    0.4333    0.0429 C   0  0  0  0  0  0  0  0  0  0  0  0
    6.3467    0.4885    0.0390 C   0  0  0  0  0  0  0  0  0  0  0  0
   -7.6316   -0.4213    0.0494 C   0  0  0  0  0  0  0  0  0  0  0  0
  1 12  1  0
  2  3  1  0
  2  4  1  0
  3  5  1  0
  4  6  1  0
  5  7  1  0
  6  8  1  0
  7  9  1  0
  8 10  1  0
  9 11  1  0
 10 12  1  0
 11 13  1  0
M  END
>  <PUBCHEM_COMPOUND_CID>  (1) 
8192

>  <PUBCHEM_CONFORMER_RMSD>  (1) 
1

>  <PUBCHEM_CONFORMER_DIVERSEORDER>  (1) 
1
804
199
319
546
511
195
913
769
112
745
245
839
5
134
211
10
479
362
43
321
865
845
852
95
23
801
733
525
855
465
2
406
880
19
390
472
706
822
592
237
457
477
738
115
624
27
127
15
497
36
147
833
605
785
298
512
830
204
78
369
60
450
612
207
667
494
514
66
87
135
91
909
687
4
132
141
229
816
893
83
104
241
675
333
632
160
591
266
631
379
331
871
448
336
25
161
643
541
904
711
530
481
129
180
299
39
107
742
267
715
20
768
356
117
652
31
419
347
230
455
96
875
737
576
866
316
17
18
37
182
809
292
349
109
735
454
410
56
433
718
781
861
492
24
268
64
330
510
270
374
408
672

>  <PUBCHEM_MMFF94_PARTIAL_CHARGES>  (1) 
2
1 -0.29
12 0.29

>  <PUBCHEM_EFFECTIVE_ROTOR_COUNT>  (1) 
10

>  <PUBCHEM_PHARMACOPHORE_FEATURES>  (1) 
1
1 13 hydrophobe

>  <PUBCHEM_HEAVY_ATOM_COUNT>  (1) 
13

>  <PUBCHEM_ATOM_DEF_STEREO_COUNT>  (1) 
0

>  <PUBCHEM_ATOM_UDEF_STEREO_COUNT>  (1) 
0

>  <PUBCHEM_BOND_DEF_STEREO_COUNT>  (1) 
0

>  <PUBCHEM_BOND_UDEF_STEREO_COUNT>  (1) 
0

>  <PUBCHEM_ISOTOPIC_ATOM_COUNT>  (1) 
0

>  <PUBCHEM_COMPONENT_COUNT>  (1) 
1

>  <PUBCHEM_CACTVS_TAUTO_COUNT>  (1) 
1

>  <PUBCHEM_CONFORMER_ID>  (1) 
0000200000000001

>  <PUBCHEM_MMFF94_ENERGY>  (1) 
-3.1525

>  <PUBCHEM_FEATURE_SELFOVERLAP>  (1) 
5.074

>  <PUBCHEM_SHAPE_FINGERPRINT>  (1) 
12091667 2 18040716966246445765
13533116 47 18336540522128437026
14123256 10 18410856555350123035
14251764 18 18411700971721982042
14251764 46 18410856559639809058
17834076 25 18410575088958052709
18006028 8 18131069333431205449
20281389 69 18410853265922600304
20621476 8 18186800261980309599
22224240 67 15697995241250753166
23402539 116 17988918989840084125
23521765 1 18341894095129018372
33532 11 18260264119149463146
33684 2 18410292506438961875
42788 4 18410855464428514293
8209 1 18410573989446424940

>  <PUBCHEM_SHAPE_MULTIPOLES>  (1) 
269.4
23.78
0.81
0.62
1.47
0.01
0
-2.42
0.7
0.1
0
0.02
0
0

>  <PUBCHEM_SHAPE_SELFOVERLAP>  (1) 
467.772

>  <PUBCHEM_SHAPE_VOLUME>  (1) 
177.6

>  <PUBCHEM_COORDINATE_TYPE>  (1) 
2
5
10

$$$$
