8198
     RDKit          3D

 13 12  0  0  0  0  0  0  0  0999 V2000
   -0.0001   -0.2272    0.0000 O   0  0  0  0  0  0  0  0  0  0  0  0
   -3.6944    0.4571   -0.0289 C   0  0  0  0  0  0  0  0  0  0  0  0
    3.6944    0.4572    0.0288 C   0  0  0  0  0  0  0  0  0  0  0  0
   -2.3928   -0.3426   -0.0084 C   0  0  0  0  0  0  0  0  0  0  0  0
    2.3928   -0.3426    0.0084 C   0  0  0  0  0  0  0  0  0  0  0  0
   -4.9488   -0.4204   -0.0009 C   0  0  0  0  0  0  0  0  0  0  0  0
    4.9489   -0.4204    0.0009 C   0  0  0  0  0  0  0  0  0  0  0  0
   -1.1750    0.5720   -0.0041 C   0  0  0  0  0  0  0  0  0  0  0  0
    1.1750    0.5721    0.0041 C   0  0  0  0  0  0  0  0  0  0  0  0
   -6.2514    0.3794   -0.0462 C   0  0  0  0  0  0  0  0  0  0  0  0
    6.2515    0.3794    0.0463 C   0  0  0  0  0  0  0  0  0  0  0  0
   -7.4652   -0.5320    0.0569 C   0  0  0  0  0  0  0  0  0  0  0  0
    7.4652   -0.5320   -0.0569 C   0  0  0  0  0  0  0  0  0  0  0  0
  1  8  1  0
  1  9  1  0
  2  4  1  0
  2  6  1  0
  3  5  1  0
  3  7  1  0
  4  8  1  0
  5  9  1  0
  6 10  1  0
  7 11  1  0
 10 12  1  0
 11 13  1  0
M  END
>  <PUBCHEM_COMPOUND_CID>  (1) 
8198

>  <PUBCHEM_CONFORMER_RMSD>  (1) 
1

>  <PUBCHEM_CONFORMER_DIVERSEORDER>  (1) 
1
113
106
75
56
78
94
19
64
17
18
21
116
46
93
2
82
91
6
111
3
65
96
10
14
98
29
105
11
42
26
79
20
33
60
61
23
8
86
74
5
85
7
24
99
39
38
13
54
4
58
67
70
90
12
101
53
115
43
32
72
57
36
87
71
9
83
112
62
108
15
81
16
30
52
50
76
66
88
100
51
95
77
97
80
89
41
73
68
31
107
44
28
55
69
40
25
59
49
47
114
109
35
92
104
102
84
110
45
103
27
34
63
37
48
22

>  <PUBCHEM_MMFF94_PARTIAL_CHARGES>  (1) 
3
1 -0.56
8 0.28
9 0.28

>  <PUBCHEM_EFFECTIVE_ROTOR_COUNT>  (1) 
10

>  <PUBCHEM_PHARMACOPHORE_FEATURES>  (1) 
5
1 1 acceptor
1 12 hydrophobe
1 13 hydrophobe
4 2 4 6 10 hydrophobe
4 3 5 7 11 hydrophobe

>  <PUBCHEM_HEAVY_ATOM_COUNT>  (1) 
13

>  <PUBCHEM_ATOM_DEF_STEREO_COUNT>  (1) 
0

>  <PUBCHEM_ATOM_UDEF_STEREO_COUNT>  (1) 
0

>  <PUBCHEM_BOND_DEF_STEREO_COUNT>  (1) 
0

>  <PUBCHEM_BOND_UDEF_STEREO_COUNT>  (1) 
0

>  <PUBCHEM_ISOTOPIC_ATOM_COUNT>  (1) 
0

>  <PUBCHEM_COMPONENT_COUNT>  (1) 
1

>  <PUBCHEM_CACTVS_TAUTO_COUNT>  (1) 
1

>  <PUBCHEM_CONFORMER_ID>  (1) 
0000200600000001

>  <PUBCHEM_MMFF94_ENERGY>  (1) 
0.3177

>  <PUBCHEM_FEATURE_SELFOVERLAP>  (1) 
25.374

>  <PUBCHEM_SHAPE_FINGERPRINT>  (1) 
10968037 39 18186801383689427655
12091667 2 17530965779117976429
13533116 47 18339356367064789674
14123256 10 17822009804575679211
1420 363 18410858762958018926
14251764 18 18343022181221700571
14251764 46 18410575088958052707
14729087 3 11312064231963021891
15716309 27 18059855073269470750
17834076 25 18410292510174746981
18006028 8 18130787862802190113
21130983 4 10735875084405641834
22224240 67 15554441903558668558
23035841 295 18273213105742858807
23402539 116 17846211172337015933
23521765 1 18341895190345678853
33532 11 18410291376921286874
33684 2 18410572881350143819
42788 4 18410573985151581060
8209 1 18333449845848823732

>  <PUBCHEM_SHAPE_MULTIPOLES>  (1) 
261.66
22.64
0.81
0.61
0
0.01
0
-3.26
0
0
0
0
0
0.06

>  <PUBCHEM_SHAPE_SELFOVERLAP>  (1) 
462.146

>  <PUBCHEM_SHAPE_VOLUME>  (1) 
172

>  <PUBCHEM_COORDINATE_TYPE>  (1) 
2
5
10

$$$$
