8210
     RDKit          3D

 15 14  0  0  0  0  0  0  0  0999 V2000
   -3.5660    0.2883    0.0019 O   0  0  0  0  0  0  0  0  0  0  0  0
    3.5663    0.2897   -0.0019 O   0  0  0  0  0  0  0  0  0  0  0  0
    0.0006   -0.4049    0.0000 O   0  0  0  0  0  0  0  0  0  0  0  0
   -5.9576    0.4045   -0.0082 C   0  0  0  0  0  0  0  0  0  0  0  0
    5.9578    0.4048    0.0082 C   0  0  0  0  0  0  0  0  0  0  0  0
   -4.7410   -0.5102   -0.0254 C   0  0  0  0  0  0  0  0  0  0  0  0
    4.7408   -0.5093    0.0255 C   0  0  0  0  0  0  0  0  0  0  0  0
   -7.2603   -0.3903   -0.0200 C   0  0  0  0  0  0  0  0  0  0  0  0
    7.2602   -0.3907    0.0201 C   0  0  0  0  0  0  0  0  0  0  0  0
   -2.3911   -0.5112   -0.0125 C   0  0  0  0  0  0  0  0  0  0  0  0
    2.3908   -0.5111    0.0125 C   0  0  0  0  0  0  0  0  0  0  0  0
   -1.1753    0.3954   -0.0062 C   0  0  0  0  0  0  0  0  0  0  0  0
    1.1747    0.3950    0.0061 C   0  0  0  0  0  0  0  0  0  0  0  0
   -8.4722    0.5255    0.0408 C   0  0  0  0  0  0  0  0  0  0  0  0
    8.4725    0.5245   -0.0407 C   0  0  0  0  0  0  0  0  0  0  0  0
  1  6  1  0
  1 10  1  0
  2  7  1  0
  2 11  1  0
  3 12  1  0
  3 13  1  0
  4  6  1  0
  4  8  1  0
  5  7  1  0
  5  9  1  0
  8 14  1  0
  9 15  1  0
 10 12  1  0
 11 13  1  0
M  END
>  <PUBCHEM_COMPOUND_CID>  (1) 
8210

>  <PUBCHEM_CONFORMER_RMSD>  (1) 
1

>  <PUBCHEM_CONFORMER_DIVERSEORDER>  (1) 
3
6
28
24
52
14
25
50
51
1
32
53
13
31
15
42
54
38
34
39
21
49
20
26
45
17
40
16
9
44
4
43
41
10
36
48
33
8
12
46
11
47
35
5
29
22
37
30
19
27
2
55
23
7
18

>  <PUBCHEM_MMFF94_PARTIAL_CHARGES>  (1) 
9
1 -0.56
10 0.28
11 0.28
12 0.28
13 0.28
2 -0.56
3 -0.56
6 0.28
7 0.28

>  <PUBCHEM_EFFECTIVE_ROTOR_COUNT>  (1) 
12

>  <PUBCHEM_PHARMACOPHORE_FEATURES>  (1) 
5
1 1 acceptor
1 14 hydrophobe
1 15 hydrophobe
1 2 acceptor
1 3 acceptor

>  <PUBCHEM_HEAVY_ATOM_COUNT>  (1) 
15

>  <PUBCHEM_ATOM_DEF_STEREO_COUNT>  (1) 
0

>  <PUBCHEM_ATOM_UDEF_STEREO_COUNT>  (1) 
0

>  <PUBCHEM_BOND_DEF_STEREO_COUNT>  (1) 
0

>  <PUBCHEM_BOND_UDEF_STEREO_COUNT>  (1) 
0

>  <PUBCHEM_ISOTOPIC_ATOM_COUNT>  (1) 
0

>  <PUBCHEM_COMPONENT_COUNT>  (1) 
1

>  <PUBCHEM_CACTVS_TAUTO_COUNT>  (1) 
1

>  <PUBCHEM_CONFORMER_ID>  (1) 
0000201200000003

>  <PUBCHEM_MMFF94_ENERGY>  (1) 
13.2237

>  <PUBCHEM_FEATURE_SELFOVERLAP>  (1) 
25.373

>  <PUBCHEM_SHAPE_FINGERPRINT>  (1) 
11315181 36 18060705001018001755
11638347 137 15285633284200579576
12091667 2 18411700989872450923
14123256 10 18410575080368111616
14251764 18 18343021073157048595
14251764 46 18410575088958065699
17834076 25 18410573985151516103
18006028 8 17632858624674339617
20621476 8 18334574624758717735
22224240 67 18333730234637035274
23521765 1 18341894095129018375
28498 318 18060139817059113590
33684 2 18410573980856490347
59567204 34 18341331077696850081
67123 10 18410855477308037486
8209 1 18410855460128161796

>  <PUBCHEM_SHAPE_MULTIPOLES>  (1) 
291.09
28.69
0.79
0.6
0
0.01
0
-2.96
0
0
0
0
0
-0.04

>  <PUBCHEM_SHAPE_SELFOVERLAP>  (1) 
521.015

>  <PUBCHEM_SHAPE_VOLUME>  (1) 
189.3

>  <PUBCHEM_COORDINATE_TYPE>  (1) 
2
5
10

$$$$
