8211
     RDKit          3D

 17 16  0  0  0  0  0  0  0  0999 V2000
    7.6838    0.2200    0.1845 N   0  0  0  0  0  0  0  0  0  0  0  0
   -1.1176   -0.4660   -0.1182 C   0  0  0  0  0  0  0  0  0  0  0  0
    0.1494    0.2491    0.3537 C   0  0  0  0  0  0  0  0  0  0  0  0
   -2.3757    0.2932    0.3065 C   0  0  0  0  0  0  0  0  0  0  0  0
    1.4083   -0.4924   -0.0993 C   0  0  0  0  0  0  0  0  0  0  0  0
   -3.6420   -0.4040   -0.1940 C   0  0  0  0  0  0  0  0  0  0  0  0
    2.6763    0.2411    0.3442 C   0  0  0  0  0  0  0  0  0  0  0  0
   -4.9018    0.3375    0.2594 C   0  0  0  0  0  0  0  0  0  0  0  0
    3.9337   -0.4860   -0.1378 C   0  0  0  0  0  0  0  0  0  0  0  0
   -6.1658   -0.3434   -0.2705 C   0  0  0  0  0  0  0  0  0  0  0  0
    5.2350    0.2127    0.2689 C   0  0  0  0  0  0  0  0  0  0  0  0
   -7.4580    0.3714    0.1349 C   0  0  0  0  0  0  0  0  0  0  0  0
    6.4878   -0.5014   -0.2376 C   0  0  0  0  0  0  0  0  0  0  0  0
   -8.7221   -0.3227   -0.3734 C   0  0  0  0  0  0  0  0  0  0  0  0
   -9.9760    0.4181    0.0660 C   0  0  0  0  0  0  0  0  0  0  0  0
    7.9450    1.3499   -0.7083 C   0  0  0  0  0  0  0  0  0  0  0  0
    8.8398   -0.6770    0.2209 C   0  0  0  0  0  0  0  0  0  0  0  0
  1 13  1  0
  1 16  1  0
  1 17  1  0
  2  3  1  0
  2  4  1  0
  3  5  1  0
  4  6  1  0
  5  7  1  0
  6  8  1  0
  7  9  1  0
  8 10  1  0
  9 11  1  0
 10 12  1  0
 11 13  1  0
 12 14  1  0
 14 15  1  0
M  END
>  <PUBCHEM_COMPOUND_CID>  (1) 
8211

>  <PUBCHEM_CONFORMER_RMSD>  (1) 
1.4

>  <PUBCHEM_CONFORMER_DIVERSEORDER>  (1) 
1
24
30
18
5
38
29
15
34
4
3
28
23
13
37
8
20
32
12
25
33
36
22
21
6
10
35
17
11
31
7
27
9
19
26
14
16
2

>  <PUBCHEM_MMFF94_PARTIAL_CHARGES>  (1) 
4
1 -0.81
13 0.27
16 0.27
17 0.27

>  <PUBCHEM_EFFECTIVE_ROTOR_COUNT>  (1) 
13

>  <PUBCHEM_PHARMACOPHORE_FEATURES>  (1) 
2
1 1 cation
1 15 hydrophobe

>  <PUBCHEM_HEAVY_ATOM_COUNT>  (1) 
17

>  <PUBCHEM_ATOM_DEF_STEREO_COUNT>  (1) 
0

>  <PUBCHEM_ATOM_UDEF_STEREO_COUNT>  (1) 
0

>  <PUBCHEM_BOND_DEF_STEREO_COUNT>  (1) 
0

>  <PUBCHEM_BOND_UDEF_STEREO_COUNT>  (1) 
0

>  <PUBCHEM_ISOTOPIC_ATOM_COUNT>  (1) 
0

>  <PUBCHEM_COMPONENT_COUNT>  (1) 
1

>  <PUBCHEM_CACTVS_TAUTO_COUNT>  (1) 
1

>  <PUBCHEM_CONFORMER_ID>  (1) 
0000201300000001

>  <PUBCHEM_MMFF94_ENERGY>  (1) 
3.658

>  <PUBCHEM_FEATURE_SELFOVERLAP>  (1) 
10.148

>  <PUBCHEM_SHAPE_FINGERPRINT>  (1) 
11315181 36 18410578397127297977
11638347 137 9871756793066583244
14123256 10 18410855455838475751
14251764 18 17775007873000697682
14251764 46 18259423022897463419
14428016 248 18410299116404771049
15510794 2 18040439888894877283
155225 1 18187367675745240316
16120349 18 18334012826479394340
21150785 3 18343301465749278883
22224240 67 16443065010657136954
232437 2 18409448080955292755
23521765 1 18342175566111487595
23581129 1 18409448085244615011
246663 6 14764630819726913227
28498 318 12463575071150256552
33684 2 18272932717487741626
4325135 7 18060138743122214677
59682541 35 15719395044752591161
67123 10 18335139799953545591
8209 1 18131069333778903675

>  <PUBCHEM_SHAPE_MULTIPOLES>  (1) 
344.87
36.02
0.87
0.7
15.23
0.11
0.02
3
2.36
-0.96
0.08
-0.16
0.04
-0.61

>  <PUBCHEM_SHAPE_SELFOVERLAP>  (1) 
616.932

>  <PUBCHEM_SHAPE_VOLUME>  (1) 
224.1

>  <PUBCHEM_COORDINATE_TYPE>  (1) 
2
5
10

$$$$
