8213
     RDKit          3D

 17 16  0  0  0  0  0  0  0  0999 V2000
  -10.4867   -0.6063    0.0814 Br  0  0  0  0  0  0  0  0  0  0  0  0
   -0.0121   -0.3885   -0.1055 C   0  0  0  0  0  0  0  0  0  0  0  0
    1.2914    0.4155   -0.1310 C   0  0  0  0  0  0  0  0  0  0  0  0
   -1.2669    0.4855   -0.0604 C   0  0  0  0  0  0  0  0  0  0  0  0
    2.5840   -0.4055   -0.0901 C   0  0  0  0  0  0  0  0  0  0  0  0
   -2.5353   -0.3698   -0.0144 C   0  0  0  0  0  0  0  0  0  0  0  0
    3.8504    0.4525   -0.0541 C   0  0  0  0  0  0  0  0  0  0  0  0
   -3.7939    0.5008   -0.0021 C   0  0  0  0  0  0  0  0  0  0  0  0
    5.1089   -0.4184   -0.0055 C   0  0  0  0  0  0  0  0  0  0  0  0
   -5.0602   -0.3577    0.0062 C   0  0  0  0  0  0  0  0  0  0  0  0
    6.3734    0.4401    0.0638 C   0  0  0  0  0  0  0  0  0  0  0  0
   -6.3533    0.4630    0.0270 C   0  0  0  0  0  0  0  0  0  0  0  0
    7.6666   -0.3803    0.0926 C   0  0  0  0  0  0  0  0  0  0  0  0
   -7.6542   -0.3439   -0.0210 C   0  0  0  0  0  0  0  0  0  0  0  0
    8.9670    0.4270    0.0772 C   0  0  0  0  0  0  0  0  0  0  0  0
   -8.8977    0.5219    0.0934 C   0  0  0  0  0  0  0  0  0  0  0  0
   10.2187   -0.4359    0.0425 C   0  0  0  0  0  0  0  0  0  0  0  0
  1 16  1  0
  2  3  1  0
  2  4  1  0
  3  5  1  0
  4  6  1  0
  5  7  1  0
  6  8  1  0
  7  9  1  0
  8 10  1  0
  9 11  1  0
 10 12  1  0
 11 13  1  0
 12 14  1  0
 13 15  1  0
 14 16  1  0
 15 17  1  0
M  END
>  <PUBCHEM_COMPOUND_CID>  (1) 
8213

>  <PUBCHEM_CONFORMER_RMSD>  (1) 
1.4

>  <PUBCHEM_CONFORMER_DIVERSEORDER>  (1) 
1
17
45
23
44
33
3
15
37
52
2
31
10
36
12
63
32
34
47
60
40
54
55
29
13
25
19
35
48
4
18
59
49
5
39
43
9
24
11
21
46
62
8
57
26
7
42
56
27
51
61
64
28
6
20
22
58
50
53
16
14
41
38
30

>  <PUBCHEM_MMFF94_PARTIAL_CHARGES>  (1) 
2
1 -0.23
16 0.23

>  <PUBCHEM_EFFECTIVE_ROTOR_COUNT>  (1) 
14

>  <PUBCHEM_PHARMACOPHORE_FEATURES>  (1) 
2
1 1 hydrophobe
1 17 hydrophobe

>  <PUBCHEM_HEAVY_ATOM_COUNT>  (1) 
17

>  <PUBCHEM_ATOM_DEF_STEREO_COUNT>  (1) 
0

>  <PUBCHEM_ATOM_UDEF_STEREO_COUNT>  (1) 
0

>  <PUBCHEM_BOND_DEF_STEREO_COUNT>  (1) 
0

>  <PUBCHEM_BOND_UDEF_STEREO_COUNT>  (1) 
0

>  <PUBCHEM_ISOTOPIC_ATOM_COUNT>  (1) 
0

>  <PUBCHEM_COMPONENT_COUNT>  (1) 
1

>  <PUBCHEM_CACTVS_TAUTO_COUNT>  (1) 
1

>  <PUBCHEM_CONFORMER_ID>  (1) 
0000201500000001

>  <PUBCHEM_MMFF94_ENERGY>  (1) 
-2.39

>  <PUBCHEM_FEATURE_SELFOVERLAP>  (1) 
10.149

>  <PUBCHEM_SHAPE_FINGERPRINT>  (1) 
14123256 10 18410856555344828773
14251764 46 18410575088963333963
14251920 1 18410573980861791091
15510794 2 18411423907666797375
155225 1 12103556499629053818
21362267 2 17560220505841197368
232437 2 18408322189817583443
23521765 1 18341894090834064076
23581129 1 18409448089539582310
33684 2 18409166610515811211
67123 10 18410573993741385735
8209 1 18410855460133449548

>  <PUBCHEM_SHAPE_MULTIPOLES>  (1) 
355.79
41.16
0.82
0.63
1.58
0
0
3.7
1.99
0.24
0
0.08
0
0

>  <PUBCHEM_SHAPE_SELFOVERLAP>  (1) 
620.982

>  <PUBCHEM_SHAPE_VOLUME>  (1) 
234.5

>  <PUBCHEM_COORDINATE_TYPE>  (1) 
2
5
10

$$$$
