8219
     RDKit          3D

 19 18  0  0  0  0  0  0  0  0999 V2000
    4.5514    3.1519    1.3715 N   0  0  0  0  0  0  0  0  0  0  0  0
   -1.4159    2.1913   -0.6695 C   0  0  0  0  0  0  0  0  0  0  0  0
   -2.1114    1.3248   -1.7232 C   0  0  0  0  0  0  0  0  0  0  0  0
    0.0962    1.9501   -0.6692 C   0  0  0  0  0  0  0  0  0  0  0  0
    0.6096   -2.4892    0.7642 C   0  0  0  0  0  0  0  0  0  0  0  0
   -0.8572   -2.1491    0.4870 C   0  0  0  0  0  0  0  0  0  0  0  0
   -3.6355    1.4977   -1.7520 C   0  0  0  0  0  0  0  0  0  0  0  0
    1.4841   -2.1985   -0.4584 C   0  0  0  0  0  0  0  0  0  0  0  0
    0.8576    2.8435    0.3158 C   0  0  0  0  0  0  0  0  0  0  0  0
   -1.7927   -2.4492    1.6650 C   0  0  0  0  0  0  0  0  0  0  0  0
    2.9592   -2.5526   -0.2481 C   0  0  0  0  0  0  0  0  0  0  0  0
   -4.3720    1.0727   -0.4768 C   0  0  0  0  0  0  0  0  0  0  0  0
   -3.2802   -2.1573    1.4361 C   0  0  0  0  0  0  0  0  0  0  0  0
    2.3673    2.5786    0.3349 C   0  0  0  0  0  0  0  0  0  0  0  0
    3.8267   -2.2839   -1.4787 C   0  0  0  0  0  0  0  0  0  0  0  0
   -4.1212   -0.3594   -0.1018 C   0  0  0  0  0  0  0  0  0  0  0  0
   -3.5637   -0.7326    1.0595 C   0  0  0  0  0  0  0  0  0  0  0  0
    3.1182    3.4189    1.3715 C   0  0  0  0  0  0  0  0  0  0  0  0
    5.2794   -2.6576   -1.2278 C   0  0  0  0  0  0  0  0  0  0  0  0
  1 18  1  0
  2  3  1  0
  2  4  1  0
  3  7  1  0
  4  9  1  0
  5  6  1  0
  5  8  1  0
  6 10  1  0
  7 12  1  0
  8 11  1  0
  9 14  1  0
 10 13  1  0
 11 15  1  0
 12 16  1  0
 13 17  1  0
 14 18  1  0
 15 19  1  0
 16 17  2  0
M  END
>  <PUBCHEM_COMPOUND_CID>  (1) 
8219

>  <PUBCHEM_CONFORMER_RMSD>  (1) 
1.4

>  <PUBCHEM_CONFORMER_DIVERSEORDER>  (1) 
1
39
14
95
67
44
75
66
70
13
73
53
31
18
61
8
49
81
82
63
77
52
16
47
15
87
80
7
19
51
21
90
36
64
86
58
91
3
93
83
32
22
55
96
78
68
72
38
59
30
42
69
46
74
34
12
33
89
76
28
10
24
84
71
85
29
2
26
27
56
20
45
35
43
17
79
62
60
6
94
23
37
41
25
57
88
5
4
9
65
54
92
50
11
40
48

>  <PUBCHEM_MMFF94_PARTIAL_CHARGES>  (1) 
10
1 -0.99
12 0.14
13 0.14
16 -0.29
17 -0.29
18 0.27
48 0.15
49 0.15
55 0.36
56 0.36

>  <PUBCHEM_EFFECTIVE_ROTOR_COUNT>  (1) 
15

>  <PUBCHEM_PHARMACOPHORE_FEATURES>  (1) 
3
1 1 cation
1 1 donor
1 19 hydrophobe

>  <PUBCHEM_HEAVY_ATOM_COUNT>  (1) 
19

>  <PUBCHEM_ATOM_DEF_STEREO_COUNT>  (1) 
0

>  <PUBCHEM_ATOM_UDEF_STEREO_COUNT>  (1) 
0

>  <PUBCHEM_BOND_DEF_STEREO_COUNT>  (1) 
0

>  <PUBCHEM_BOND_UDEF_STEREO_COUNT>  (1) 
1

>  <PUBCHEM_ISOTOPIC_ATOM_COUNT>  (1) 
0

>  <PUBCHEM_COMPONENT_COUNT>  (1) 
1

>  <PUBCHEM_CACTVS_TAUTO_COUNT>  (1) 
1

>  <PUBCHEM_CONFORMER_ID>  (1) 
0000201B00000001

>  <PUBCHEM_MMFF94_ENERGY>  (1) 
-7.0119

>  <PUBCHEM_FEATURE_SELFOVERLAP>  (1) 
15.223

>  <PUBCHEM_SHAPE_FINGERPRINT>  (1) 
12788726 201 17761773957696070863
13402501 40 18335143089613748718
14123250 116 17256252540487083543
14251757 17 18408604751431439888
14647877 51 18411418414967342288
14931854 50 17899415286270577967
14932702 115 18044404701801015956
20642791 35 18264195917206700709
20765182 40 18188490147556160258
21141583 151 18048316648203678983
23558518 356 16681754364704843718
23559900 14 18260270732771118052
238918 7 18194114351178679256
5047190 48 17472142147028610852
532947 4 18411976992106070465
9862522 239 17977652427175981145

>  <PUBCHEM_SHAPE_MULTIPOLES>  (1) 
386.03
9.62
5.59
1.75
4.35
2.51
-0.09
-1.99
-1.96
6.48
1.86
-0.09
0.11
5.48

>  <PUBCHEM_SHAPE_SELFOVERLAP>  (1) 
696.169

>  <PUBCHEM_SHAPE_VOLUME>  (1) 
246.4

>  <PUBCHEM_COORDINATE_TYPE>  (1) 
2
5
10

$$$$
