824
     RDKit          3D

  8  7  0  0  1  0  0  0  0  0999 V2000
   -1.6682   -1.5813   -0.3278 O   0  0  0  0  0  0  0  0  0  0  0  0
   -2.5392    0.2999    0.6022 O   0  0  0  0  0  0  0  0  0  0  0  0
   -0.3709    1.7878   -0.1238 N   0  0  0  0  0  0  0  0  0  0  0  0
    0.8929   -0.3199    0.1921 C   0  0  0  0  0  0  0  0  0  0  0  0
   -0.3279    0.3618   -0.4434 C   0  0  0  0  0  0  0  0  0  0  0  0
    2.2449    0.2386   -0.2690 C   0  0  0  0  0  0  0  0  0  0  0  0
    3.4010   -0.5224    0.3630 C   0  0  0  0  0  0  0  0  0  0  0  0
   -1.6326   -0.2646    0.0067 C   0  0  0  0  0  0  0  0  0  0  0  0
  1  8  1  0
  2  8  2  0
  3  5  1  0
  4  5  1  0
  4  6  1  0
  5  8  1  0
  6  7  1  0
M  END
>  <PUBCHEM_COMPOUND_CID>  (1) 
824

>  <PUBCHEM_CONFORMER_RMSD>  (1) 
0.6

>  <PUBCHEM_CONFORMER_DIVERSEORDER>  (1) 
3
14
8
13
4
11
15
10
9
6
12
2
1
7
5

>  <PUBCHEM_MMFF94_PARTIAL_CHARGES>  (1) 
8
1 -0.65
17 0.36
18 0.36
19 0.5
2 -0.57
3 -0.99
5 0.33
8 0.66

>  <PUBCHEM_EFFECTIVE_ROTOR_COUNT>  (1) 
3

>  <PUBCHEM_PHARMACOPHORE_FEATURES>  (1) 
6
1 1 acceptor
1 2 acceptor
1 3 cation
1 3 donor
1 7 hydrophobe
3 1 2 8 anion

>  <PUBCHEM_HEAVY_ATOM_COUNT>  (1) 
8

>  <PUBCHEM_ATOM_DEF_STEREO_COUNT>  (1) 
0

>  <PUBCHEM_ATOM_UDEF_STEREO_COUNT>  (1) 
1

>  <PUBCHEM_BOND_DEF_STEREO_COUNT>  (1) 
0

>  <PUBCHEM_BOND_UDEF_STEREO_COUNT>  (1) 
0

>  <PUBCHEM_ISOTOPIC_ATOM_COUNT>  (1) 
0

>  <PUBCHEM_COMPONENT_COUNT>  (1) 
1

>  <PUBCHEM_CACTVS_TAUTO_COUNT>  (1) 
1

>  <PUBCHEM_CONFORMER_ID>  (1) 
0000033800000003

>  <PUBCHEM_MMFF94_ENERGY>  (1) 
1.7793

>  <PUBCHEM_FEATURE_SELFOVERLAP>  (1) 
30.504

>  <PUBCHEM_SHAPE_FINGERPRINT>  (1) 
10857977 72 18270951449110896840
12932764 1 18187359922516211700
14390081 3 8790881883001847718
16714656 1 18411420591935525543
23552423 10 18116434928201954860
29004967 10 16443349788157736101
5460574 1 10735877270586005026

>  <PUBCHEM_SHAPE_MULTIPOLES>  (1) 
147.92
4.29
1.26
0.69
2.7
0.19
0.01
-0.94
0.66
-0.51
-0.1
-0.02
-0.01
-0.22

>  <PUBCHEM_SHAPE_SELFOVERLAP>  (1) 
269.184

>  <PUBCHEM_SHAPE_VOLUME>  (1) 
94.8

>  <PUBCHEM_COORDINATE_TYPE>  (1) 
2
5
10

$$$$
