8249
     RDKit          3D

 15 15  0  0  0  0  0  0  0  0999 V2000
   -0.9028   -1.0354   -0.4766 N   0  0  0  0  0  0  0  0  0  0  0  0
   -2.8847    0.0283   -0.5677 N   0  0  0  0  0  0  0  0  0  0  0  0
   -2.7111   -1.8493    0.8657 N   0  0  0  0  0  0  0  0  0  0  0  0
   -3.6276    2.2338   -0.4168 N   0  0  0  0  0  0  0  0  0  0  0  0
   -2.1929    1.5019    1.2024 N   0  0  0  0  0  0  0  0  0  0  0  0
    1.3411   -1.9938   -0.5969 C   0  0  0  0  0  0  0  0  0  0  0  0
    2.0356   -0.6896   -0.2910 C   0  0  0  0  0  0  0  0  0  0  0  0
   -0.0437   -2.0941    0.0367 C   0  0  0  0  0  0  0  0  0  0  0  0
    1.8606    0.3902   -1.1426 C   0  0  0  0  0  0  0  0  0  0  0  0
    2.8369   -0.5938    0.8362 C   0  0  0  0  0  0  0  0  0  0  0  0
    2.5029    1.5957   -0.8599 C   0  0  0  0  0  0  0  0  0  0  0  0
    3.4790    0.6118    1.1191 C   0  0  0  0  0  0  0  0  0  0  0  0
    3.3119    1.7066    0.2710 C   0  0  0  0  0  0  0  0  0  0  0  0
   -2.1200   -0.9908   -0.0358 C   0  0  0  0  0  0  0  0  0  0  0  0
   -2.8852    1.1784    0.0564 C   0  0  0  0  0  0  0  0  0  0  0  0
  1  8  1  0
  1 14  2  0
  2 14  1  0
  2 15  2  0
  3 14  1  0
  4 15  1  0
  5 15  1  0
  6  7  1  0
  6  8  1  0
  7  9  2  0
  7 10  1  0
  9 11  1  0
 10 12  2  0
 11 13  2  0
 12 13  1  0
M  END
>  <PUBCHEM_COMPOUND_CID>  (1) 
8249

>  <PUBCHEM_CONFORMER_RMSD>  (1) 
0.6

>  <PUBCHEM_CONFORMER_DIVERSEORDER>  (1) 
1
53
36
7
33
5
4
49
31
41
20
37
8
34
51
47
38
6
3
12
43
19
56
46
39
22
35
2
10
15
25
29
32
30
26
44
45
54
27
28
58
57
18
48
21
42
55
40
50
17
16
11
23
9
24
14
13
52

>  <PUBCHEM_MMFF94_PARTIAL_CHARGES>  (1) 
26
1 -0.7
10 -0.15
11 -0.15
12 -0.15
13 -0.15
14 0.71
15 0.55
2 -0.66
20 0.15
21 0.15
22 0.15
23 0.15
24 0.15
25 0.4
26 0.4
27 0.4
28 0.4
29 0.4
3 -0.85
30 0.4
4 -0.85
5 -0.85
6 0.14
7 -0.14
8 0.25
9 -0.15

>  <PUBCHEM_EFFECTIVE_ROTOR_COUNT>  (1) 
4

>  <PUBCHEM_PHARMACOPHORE_FEATURES>  (1) 
6
1 3 donor
1 4 donor
1 5 donor
4 1 2 3 14 cation
4 2 4 5 15 cation
6 7 9 10 11 12 13 rings

>  <PUBCHEM_HEAVY_ATOM_COUNT>  (1) 
15

>  <PUBCHEM_ATOM_DEF_STEREO_COUNT>  (1) 
0

>  <PUBCHEM_ATOM_UDEF_STEREO_COUNT>  (1) 
0

>  <PUBCHEM_BOND_DEF_STEREO_COUNT>  (1) 
0

>  <PUBCHEM_BOND_UDEF_STEREO_COUNT>  (1) 
0

>  <PUBCHEM_ISOTOPIC_ATOM_COUNT>  (1) 
0

>  <PUBCHEM_COMPONENT_COUNT>  (1) 
1

>  <PUBCHEM_CACTVS_TAUTO_COUNT>  (1) 
5

>  <PUBCHEM_CONFORMER_ID>  (1) 
0000203900000001

>  <PUBCHEM_MMFF94_ENERGY>  (1) 
44.4816

>  <PUBCHEM_FEATURE_SELFOVERLAP>  (1) 
30.547

>  <PUBCHEM_SHAPE_FINGERPRINT>  (1) 
11086676 242 17531519885369862076
11127187 94 9943543906959098843
11615756 256 18341060656767661545
11615756 56 17987793145762697480
11715629 250 18201725092987682590
12162725 195 18408317813077129718
12382932 28 18408602560892831484
13618510 140 18412266142263348052
13693222 7 18341626883838918051
13764800 53 18340498832385711875
15775835 57 18334014999268459740
1798214 55 18342459222742031361
18186145 218 17632028527981895214
18522851 12 9583246101072480542
18981168 100 18198366020566671667
192875 21 18263906878027496101
20233049 118 18201150044749646776
20304884 271 18411141299097678263
20510252 161 18268154338642989411
20539926 19 18409736191983400076
20767249 462 18410851049223317564
20871999 31 10303819795363341979
21524375 3 18341610451373684638
21713013 43 11384117457259437737
22749437 52 18411978023019943489
230 275 18272092712247911806
23419403 2 16473699337358584130
23557571 272 17560516313001570863
305870 269 18409726249155462098
6049 1 18198087848509878751
8050 44 18341330015863059301
81228 2 17051891215007029462
94968 8 9583220769408330428

>  <PUBCHEM_SHAPE_MULTIPOLES>  (1) 
283.79
6.76
2.5
1.08
1.87
0.03
0.08
-3.58
1.01
0.98
-0.05
-0.42
-0.14
0.15

>  <PUBCHEM_SHAPE_SELFOVERLAP>  (1) 
579.449

>  <PUBCHEM_SHAPE_VOLUME>  (1) 
158.8

>  <PUBCHEM_COORDINATE_TYPE>  (1) 
2
5
10

$$$$
