825
     RDKit          3D

  9  9  0  0  1  0  0  0  0  0999 V2000
    1.9795    0.6009    1.3190 O   0  0  0  0  0  0  0  0  0  0  0  0
   -2.4184    1.0013   -0.2586 O   0  0  0  0  0  0  0  0  0  0  0  0
   -1.9537   -0.8566    0.9776 O   0  0  0  0  0  0  0  0  0  0  0  0
    0.3641   -1.2868   -0.2868 N   0  0  0  0  0  0  0  0  0  0  0  0
    0.4879    1.1051   -0.5170 C   0  0  0  0  0  0  0  0  0  0  0  0
   -0.4083   -0.1142   -0.7197 C   0  0  0  0  0  0  0  0  0  0  0  0
    1.8343    0.5320   -0.0953 C   0  0  0  0  0  0  0  0  0  0  0  0
    1.7691   -0.9227   -0.5207 C   0  0  0  0  0  0  0  0  0  0  0  0
   -1.6545   -0.0590    0.1014 C   0  0  0  0  0  0  0  0  0  0  0  0
  1  7  1  0
  2  9  1  0
  3  9  2  0
  4  6  1  0
  4  8  1  0
  5  6  1  0
  5  7  1  0
  6  9  1  0
  7  8  1  0
M  END
>  <PUBCHEM_COMPOUND_CID>  (1) 
825

>  <PUBCHEM_CONFORMER_RMSD>  (1) 
0.4

>  <PUBCHEM_CONFORMER_DIVERSEORDER>  (1) 
1
9
6
4
7
2
5
3
8

>  <PUBCHEM_MMFF94_PARTIAL_CHARGES>  (1) 
11
1 -0.68
16 0.36
17 0.4
18 0.5
2 -0.65
3 -0.57
4 -0.9
6 0.33
7 0.28
8 0.27
9 0.66

>  <PUBCHEM_EFFECTIVE_ROTOR_COUNT>  (1) 
2

>  <PUBCHEM_PHARMACOPHORE_FEATURES>  (1) 
8
1 1 acceptor
1 1 donor
1 2 acceptor
1 3 acceptor
1 4 cation
1 4 donor
3 2 3 9 anion
5 4 5 6 7 8 rings

>  <PUBCHEM_HEAVY_ATOM_COUNT>  (1) 
9

>  <PUBCHEM_ATOM_DEF_STEREO_COUNT>  (1) 
0

>  <PUBCHEM_ATOM_UDEF_STEREO_COUNT>  (1) 
2

>  <PUBCHEM_BOND_DEF_STEREO_COUNT>  (1) 
0

>  <PUBCHEM_BOND_UDEF_STEREO_COUNT>  (1) 
0

>  <PUBCHEM_ISOTOPIC_ATOM_COUNT>  (1) 
0

>  <PUBCHEM_COMPONENT_COUNT>  (1) 
1

>  <PUBCHEM_CACTVS_TAUTO_COUNT>  (1) 
1

>  <PUBCHEM_CONFORMER_ID>  (1) 
0000033900000001

>  <PUBCHEM_MMFF94_ENERGY>  (1) 
11.2423

>  <PUBCHEM_FEATURE_SELFOVERLAP>  (1) 
40.653

>  <PUBCHEM_SHAPE_FINGERPRINT>  (1) 
10857977 72 18261677076983436179
20653085 51 14691172581225121584
21040471 1 18341894142600505710
24536 1 18260548943704168733
29004967 10 18335991908305805068
5084963 1 18129955588181226367

>  <PUBCHEM_SHAPE_MULTIPOLES>  (1) 
162.63
3.03
1.22
0.96
0.84
0.07
0.22
-0.26
0.54
-0.09
-0.08
-0.19
-0.03
0.42

>  <PUBCHEM_SHAPE_SELFOVERLAP>  (1) 
325.668

>  <PUBCHEM_SHAPE_VOLUME>  (1) 
96.8

>  <PUBCHEM_COORDINATE_TYPE>  (1) 
2
5
10

$$$$
