8258
     RDKit          3D

  6  5  0  0  0  0  0  0  0  0999 V2000
   -0.8853    0.0931    1.3641 O   0  0  0  0  0  0  0  0  0  0  0  0
   -0.4339   -0.0034    0.0123 C   0  0  0  0  0  0  0  0  0  0  0  0
   -0.9776    1.2113   -0.7376 C   0  0  0  0  0  0  0  0  0  0  0  0
   -0.9829   -1.2957   -0.5915 C   0  0  0  0  0  0  0  0  0  0  0  0
    1.0395   -0.0028   -0.0138 C   0  0  0  0  0  0  0  0  0  0  0  0
    2.2402   -0.0025   -0.0336 C   0  0  0  0  0  0  0  0  0  0  0  0
  1  2  1  0
  2  3  1  0
  2  4  1  0
  2  5  1  0
  5  6  3  0
M  END
>  <PUBCHEM_COMPOUND_CID>  (1) 
8258

>  <PUBCHEM_CONFORMER_RMSD>  (1) 
0.4

>  <PUBCHEM_CONFORMER_DIVERSEORDER>  (1) 
1

>  <PUBCHEM_MMFF94_PARTIAL_CHARGES>  (1) 
6
1 -0.68
13 0.4
14 0.18
2 0.48
5 -0.2
6 -0.18

>  <PUBCHEM_EFFECTIVE_ROTOR_COUNT>  (1) 
0

>  <PUBCHEM_PHARMACOPHORE_FEATURES>  (1) 
4
1 1 acceptor
1 1 donor
1 6 hydrophobe
3 2 3 4 hydrophobe

>  <PUBCHEM_HEAVY_ATOM_COUNT>  (1) 
6

>  <PUBCHEM_ATOM_DEF_STEREO_COUNT>  (1) 
0

>  <PUBCHEM_ATOM_UDEF_STEREO_COUNT>  (1) 
0

>  <PUBCHEM_BOND_DEF_STEREO_COUNT>  (1) 
0

>  <PUBCHEM_BOND_UDEF_STEREO_COUNT>  (1) 
0

>  <PUBCHEM_ISOTOPIC_ATOM_COUNT>  (1) 
0

>  <PUBCHEM_COMPONENT_COUNT>  (1) 
1

>  <PUBCHEM_CACTVS_TAUTO_COUNT>  (1) 
1

>  <PUBCHEM_CONFORMER_ID>  (1) 
0000204200000001

>  <PUBCHEM_MMFF94_ENERGY>  (1) 
6.8014

>  <PUBCHEM_FEATURE_SELFOVERLAP>  (1) 
20.298

>  <PUBCHEM_SHAPE_FINGERPRINT>  (1) 
139733 1 10810437326949922774
16714656 1 18409720768644817159
20096714 4 17751912528269893740
21040471 1 18193542377214249252
24536 1 17346597469805837792
29004967 10 17899974129744464667
5943 1 13036635218693551117

>  <PUBCHEM_SHAPE_MULTIPOLES>  (1) 
117.61
2.14
1.15
0.98
1.56
0.02
-0.28
0.01
0.17
-0.57
0.32
-0.33
-0.02
0

>  <PUBCHEM_SHAPE_SELFOVERLAP>  (1) 
214.257

>  <PUBCHEM_SHAPE_VOLUME>  (1) 
75.9

>  <PUBCHEM_COORDINATE_TYPE>  (1) 
2
5
10

$$$$
