8267
     RDKit          3D

 17 18  0  0  1  0  0  0  0  0999 V2000
   -4.3441   -0.8483    0.0710 S   0  0  0  0  0  0  0  0  0  0  0  0
   -0.5495    0.2105   -0.3832 O   0  0  0  0  0  0  0  0  0  0  0  0
   -1.5487   -1.8476   -0.1100 O   0  0  0  0  0  0  0  0  0  0  0  0
   -6.3321    1.1953    0.1020 N   0  0  0  0  0  0  0  0  0  0  0  0
    1.8837    0.6249   -0.5772 C   0  0  0  0  0  0  0  0  0  0  0  0
    3.1120   -0.1923   -0.0733 C   0  0  0  0  0  0  0  0  0  0  0  0
    2.4035   -0.4995    1.2731 C   0  0  0  0  0  0  0  0  0  0  0  0
    0.7231   -0.4084   -0.4548 C   0  0  0  0  0  0  0  0  0  0  0  0
    1.6950    1.6864    0.5434 C   0  0  0  0  0  0  0  0  0  0  0  0
    1.0688   -1.1568    0.8460 C   0  0  0  0  0  0  0  0  0  0  0  0
    2.0432    0.9005    1.8188 C   0  0  0  0  0  0  0  0  0  0  0  0
    1.9852    1.2470   -1.9572 C   0  0  0  0  0  0  0  0  0  0  0  0
    4.4236    0.6053    0.0739 C   0  0  0  0  0  0  0  0  0  0  0  0
    3.4647   -1.4455   -0.8994 C   0  0  0  0  0  0  0  0  0  0  0  0
   -1.6225   -0.6307   -0.2066 C   0  0  0  0  0  0  0  0  0  0  0  0
   -2.8838    0.1943   -0.1557 C   0  0  0  0  0  0  0  0  0  0  0  0
   -5.5222    0.3649    0.0893 C   0  0  0  0  0  0  0  0  0  0  0  0
  1 16  1  0
  1 17  1  0
  2  8  1  0
  2 15  1  0
  3 15  2  0
  4 17  3  0
  5  6  1  0
  5  8  1  0
  5  9  1  0
  5 12  1  0
  6  7  1  0
  6 13  1  0
  6 14  1  0
  7 10  1  0
  7 11  1  0
  8 10  1  0
  9 11  1  0
 15 16  1  0
M  END
>  <PUBCHEM_COMPOUND_CID>  (1) 
8267

>  <PUBCHEM_CONFORMER_RMSD>  (1) 
0.6

>  <PUBCHEM_CONFORMER_DIVERSEORDER>  (1) 
1
87
104
3
98
28
74
38
81
78
92
103
44
64
54
101
95
6
93
73
99
34
69
108
36
53
77
58
13
105
18
97
52
23
42
82
107
76
33
37
16
12
67
20
4
84
91
41
50
47
89
30
21
26
80
71
102
45
49
106
11
61
48
8
86
83
85
96
88
55
29
51
40
27
19
39
100
31
57
68
46
62
65
24
70
15
35
56
5
22
66
90
43
94
10
60
72
14
63
79
75
59
2
9
32
25
17
7

>  <PUBCHEM_MMFF94_PARTIAL_CHARGES>  (1) 
8
1 -0.27
15 0.66
16 0.29
17 0.59
2 -0.43
3 -0.57
4 -0.56
8 0.28

>  <PUBCHEM_EFFECTIVE_ROTOR_COUNT>  (1) 
5

>  <PUBCHEM_PHARMACOPHORE_FEATURES>  (1) 
4
1 3 acceptor
1 4 acceptor
3 6 13 14 hydrophobe
7 5 6 7 8 9 10 11 rings

>  <PUBCHEM_HEAVY_ATOM_COUNT>  (1) 
17

>  <PUBCHEM_ATOM_DEF_STEREO_COUNT>  (1) 
0

>  <PUBCHEM_ATOM_UDEF_STEREO_COUNT>  (1) 
3

>  <PUBCHEM_BOND_DEF_STEREO_COUNT>  (1) 
0

>  <PUBCHEM_BOND_UDEF_STEREO_COUNT>  (1) 
0

>  <PUBCHEM_ISOTOPIC_ATOM_COUNT>  (1) 
0

>  <PUBCHEM_COMPONENT_COUNT>  (1) 
1

>  <PUBCHEM_CACTVS_TAUTO_COUNT>  (1) 
1

>  <PUBCHEM_CONFORMER_ID>  (1) 
0000204B00000001

>  <PUBCHEM_MMFF94_ENERGY>  (1) 
61.4584

>  <PUBCHEM_FEATURE_SELFOVERLAP>  (1) 
20.297

>  <PUBCHEM_SHAPE_FINGERPRINT>  (1) 
10354089 29 17675928690152484389
11089746 13 18131342004357656517
12236239 1 18259985989545444207
12500047 106 18059289980170047527
128620 24 9151174255643501803
13134695 92 17060615595070325304
13955234 65 13551472575056455380
14115302 16 18409737286925624006
14252887 29 11097855164309173927
15048467 5 18411138078378913796
15375358 24 9223226351996742317
16945 1 18191843795706996864
18186145 218 18113611305385933583
200 152 11167945757936244079
20645477 70 12391526264747688165
212847 35 18341895182125152401
21452121 103 18059001903965655872
21503847 285 17894918433788739997
22289505 5 17489869323562480185
22892500 29 17346310535857258848
23402539 116 17775278379052882005
23402655 69 17989204854510650431
23559900 14 18131071545275805959
3060560 45 16845578608077494870
351380 180 17775282751487955249
4047638 21 18131631200936433834
4340502 62 13839986633703102952
5104073 3 17749391537381461425
522135 26 18202563968793616183
54040823 5 16515682221964821896
542803 24 18260550030821413997
633830 44 18113337544260332703
8272917 22 17822292340847467387
9999458 23 17313109665401775694

>  <PUBCHEM_SHAPE_MULTIPOLES>  (1) 
336.98
10.34
1.51
1.3
19.78
0.07
0.03
-2
0.13
-0.24
-0.08
-1.36
-0.32
0.03

>  <PUBCHEM_SHAPE_SELFOVERLAP>  (1) 
688.497

>  <PUBCHEM_SHAPE_VOLUME>  (1) 
199.4

>  <PUBCHEM_COORDINATE_TYPE>  (1) 
2
5
10

$$$$
