8269
     RDKit          3D

 30 33  0  0  0  0  0  0  0  0999 V2000
   -0.3529    1.1646   -2.9214 O   0  0  0  0  0  0  0  0  0  0  0  0
    4.6078   -2.1273   -0.4064 O   0  0  0  0  0  0  0  0  0  0  0  0
   -4.6063   -1.7812    0.9410 O   0  0  0  0  0  0  0  0  0  0  0  0
    3.6144   -3.4287    1.2666 O   0  0  0  0  0  0  0  0  0  0  0  0
   -4.2276   -3.1773   -0.8994 O   0  0  0  0  0  0  0  0  0  0  0  0
   -0.0894    3.1716   -1.7422 N   0  0  0  0  0  0  0  0  0  0  0  0
    0.0119    1.1446   -0.4532 C   0  0  0  0  0  0  0  0  0  0  0  0
    0.1819    2.4086    0.3903 C   0  0  0  0  0  0  0  0  0  0  0  0
    1.2275    0.2795   -0.4409 C   0  0  0  0  0  0  0  0  0  0  0  0
   -1.2096    0.3710   -0.0844 C   0  0  0  0  0  0  0  0  0  0  0  0
   -0.1725    1.7845   -1.8825 C   0  0  0  0  0  0  0  0  0  0  0  0
    0.1131    3.5402   -0.4208 C   0  0  0  0  0  0  0  0  0  0  0  0
    0.3650    2.5515    1.7585 C   0  0  0  0  0  0  0  0  0  0  0  0
    0.2289    4.8251    0.0734 C   0  0  0  0  0  0  0  0  0  0  0  0
    1.3003   -0.8312   -1.2805 C   0  0  0  0  0  0  0  0  0  0  0  0
   -1.1093   -0.7185    0.7798 C   0  0  0  0  0  0  0  0  0  0  0  0
    2.2895    0.5826    0.4104 C   0  0  0  0  0  0  0  0  0  0  0  0
   -2.4501    0.7385   -0.6047 C   0  0  0  0  0  0  0  0  0  0  0  0
    0.4850    3.8420    2.2843 C   0  0  0  0  0  0  0  0  0  0  0  0
    0.4183    4.9694    1.4480 C   0  0  0  0  0  0  0  0  0  0  0  0
    2.4366   -1.6402   -1.2687 C   0  0  0  0  0  0  0  0  0  0  0  0
   -2.2512   -1.4418    1.1244 C   0  0  0  0  0  0  0  0  0  0  0  0
    3.4258   -0.2261    0.4222 C   0  0  0  0  0  0  0  0  0  0  0  0
   -3.5920    0.0152   -0.2601 C   0  0  0  0  0  0  0  0  0  0  0  0
    3.4995   -1.3377   -0.4175 C   0  0  0  0  0  0  0  0  0  0  0  0
   -3.4926   -1.0749    0.6046 C   0  0  0  0  0  0  0  0  0  0  0  0
    4.5487   -3.1866    0.5141 C   0  0  0  0  0  0  0  0  0  0  0  0
   -4.8860   -2.8558    0.0808 C   0  0  0  0  0  0  0  0  0  0  0  0
    5.8111   -3.9941    0.4501 C   0  0  0  0  0  0  0  0  0  0  0  0
   -6.1262   -3.5673    0.5341 C   0  0  0  0  0  0  0  0  0  0  0  0
  1 11  2  0
  2 25  1  0
  2 27  1  0
  3 26  1  0
  3 28  1  0
  4 27  2  0
  5 28  2  0
  6 11  1  0
  6 12  1  0
  7  8  1  0
  7  9  1  0
  7 10  1  0
  7 11  1  0
  8 12  2  0
  8 13  1  0
  9 15  2  0
  9 17  1  0
 10 16  2  0
 10 18  1  0
 12 14  1  0
 13 19  2  0
 14 20  2  0
 15 21  1  0
 16 22  1  0
 17 23  2  0
 18 24  2  0
 19 20  1  0
 21 25  2  0
 22 26  2  0
 23 25  1  0
 24 26  1  0
 27 29  1  0
 28 30  1  0
M  END
>  <PUBCHEM_COMPOUND_CID>  (1) 
8269

>  <PUBCHEM_CONFORMER_RMSD>  (1) 
0.8

>  <PUBCHEM_CONFORMER_DIVERSEORDER>  (1) 
1
23
39
8
38
30
4
18
32
21
10
12
31
40
19
3
13
34
25
14
27
16
15
24
17
5
11
6
35
37
2
9
22
26
7
33
41
20
28
29
36

>  <PUBCHEM_MMFF94_PARTIAL_CHARGES>  (1) 
43
1 -0.57
10 -0.14
11 0.57
12 0.12
13 -0.15
14 -0.15
15 -0.15
16 -0.15
17 -0.15
18 -0.15
19 -0.15
2 -0.23
20 -0.15
21 -0.15
22 -0.15
23 -0.15
24 -0.15
25 0.08
26 0.08
27 0.66
28 0.66
29 0.06
3 -0.23
30 0.06
31 0.37
32 0.15
33 0.15
34 0.15
35 0.15
36 0.15
37 0.15
38 0.15
39 0.15
4 -0.57
40 0.15
41 0.15
42 0.15
43 0.15
5 -0.57
6 -0.55
7 0.49
8 -0.14
9 -0.14

>  <PUBCHEM_EFFECTIVE_ROTOR_COUNT>  (1) 
6.4

>  <PUBCHEM_PHARMACOPHORE_FEATURES>  (1) 
8
1 1 acceptor
1 4 acceptor
1 5 acceptor
1 6 donor
5 6 7 8 11 12 rings
6 10 16 18 22 24 26 rings
6 8 12 13 14 19 20 rings
6 9 15 17 21 23 25 rings

>  <PUBCHEM_HEAVY_ATOM_COUNT>  (1) 
30

>  <PUBCHEM_ATOM_DEF_STEREO_COUNT>  (1) 
0

>  <PUBCHEM_ATOM_UDEF_STEREO_COUNT>  (1) 
0

>  <PUBCHEM_BOND_DEF_STEREO_COUNT>  (1) 
0

>  <PUBCHEM_BOND_UDEF_STEREO_COUNT>  (1) 
0

>  <PUBCHEM_ISOTOPIC_ATOM_COUNT>  (1) 
0

>  <PUBCHEM_COMPONENT_COUNT>  (1) 
1

>  <PUBCHEM_CACTVS_TAUTO_COUNT>  (1) 
2

>  <PUBCHEM_CONFORMER_ID>  (1) 
0000204D00000001

>  <PUBCHEM_MMFF94_ENERGY>  (1) 
111.6893

>  <PUBCHEM_FEATURE_SELFOVERLAP>  (1) 
40.684

>  <PUBCHEM_SHAPE_FINGERPRINT>  (1) 
10074138 170 17912080547456678217
10622 236 17460864104102107882
11135609 149 18121475081505064015
11552529 35 18120372052172263442
12107183 9 18270418130912376259
12160290 23 17686090225844064037
12293681 25 18047154618952399477
12788726 201 18193856846298441850
12969540 37 18193271025433348239
13004483 165 18340211777940431112
13134695 92 18342454876483171357
13140716 1 18341054003847261920
13533116 47 18123758814548242083
13631057 29 18262242115072412642
13955234 65 17979926226302734555
14068700 675 18188210901646227806
14468879 13 16552256174935263580
14863182 85 17614282595061710797
14955137 171 17915194626564258052
15131766 46 15982247601882592330
15163728 17 8718546150918562611
15219462 58 15177261427521010096
15878777 1 15069994872415719836
18681886 176 15910545252852829813
20602899 9 17394433719994916140
20775530 9 18260831479448767499
21033648 29 16199879354063709395
21120745 212 18124344673540806636
21796203 349 17978833216749861107
22956985 138 18266169728839675370
23419403 2 18119785118620580973
23559900 14 18189045401059302462
23845131 108 17044288139191974777
244849 19 18119781803459229589
32027 91 18337665443004768827
3380486 145 17914019149876083588
376196 1 15758789116394724128
4409770 3 17974566901697156845
4616759 239 17693629560930617018
463206 1 18261117387001007107
484985 159 17904480705990016682
497634 4 18045229237360137542
57527585 103 17911806765082944076
59755656 520 17474103199073118580
6679774 75 17759788635809797936
77188 2 18411704300401257912
81228 2 18050026401453572756
9981440 41 16765889085178387246

>  <PUBCHEM_SHAPE_MULTIPOLES>  (1) 
583.06
9.29
6.91
1.75
3.43
4.59
0.48
-20.79
-2.07
-2.11
-2.57
-0.13
1.38
0.23

>  <PUBCHEM_SHAPE_SELFOVERLAP>  (1) 
1297.484

>  <PUBCHEM_SHAPE_VOLUME>  (1) 
307.8

>  <PUBCHEM_COORDINATE_TYPE>  (1) 
2
5
10

$$$$
