8270
     RDKit          3D

 23 27  0  0  1  0  0  0  0  0999 V2000
   -1.6768   -0.8659    0.9722 O   0  0  0  0  0  0  0  0  0  0  0  0
   -1.2034   -3.3510   -0.4971 O   0  0  0  0  0  0  0  0  0  0  0  0
   -3.9487    0.8843    0.5717 O   0  0  0  0  0  0  0  0  0  0  0  0
    3.5086    0.9985    0.3996 N   0  0  0  0  0  0  0  0  0  0  0  0
    0.6653   -0.2436    0.6634 C   0  0  0  0  0  0  0  0  0  0  0  0
    1.5546   -0.1582   -0.5221 C   0  0  0  0  0  0  0  0  0  0  0  0
    2.2677    1.1759   -0.3458 C   0  0  0  0  0  0  0  0  0  0  0  0
   -0.3333   -1.4160    0.7581 C   0  0  0  0  0  0  0  0  0  0  0  0
    1.6378   -0.1134    1.9064 C   0  0  0  0  0  0  0  0  0  0  0  0
   -0.3173    0.8718    0.3492 C   0  0  0  0  0  0  0  0  0  0  0  0
    1.3852    2.2655   -1.0001 C   0  0  0  0  0  0  0  0  0  0  0  0
    3.1996    0.0153    1.5107 C   0  0  0  0  0  0  0  0  0  0  0  0
   -0.0460    2.0482   -0.4092 C   0  0  0  0  0  0  0  0  0  0  0  0
   -1.6022    0.4508    0.5942 C   0  0  0  0  0  0  0  0  0  0  0  0
   -0.2997   -2.3073   -0.4730 C   0  0  0  0  0  0  0  0  0  0  0  0
    1.5268   -1.0458   -1.5222 C   0  0  0  0  0  0  0  0  0  0  0  0
    0.5762   -2.1400   -1.4816 C   0  0  0  0  0  0  0  0  0  0  0  0
   -1.1198    2.8844   -0.7020 C   0  0  0  0  0  0  0  0  0  0  0  0
    4.6236    0.5712   -0.4299 C   0  0  0  0  0  0  0  0  0  0  0  0
   -2.6741    1.2735    0.3135 C   0  0  0  0  0  0  0  0  0  0  0  0
   -2.4211    2.5074   -0.3116 C   0  0  0  0  0  0  0  0  0  0  0  0
   -0.6592   -4.4990    0.1235 C   0  0  0  0  0  0  0  0  0  0  0  0
   -4.6436    0.1933   -0.4676 C   0  0  0  0  0  0  0  0  0  0  0  0
  1  8  1  0
  1 14  1  0
  2 15  1  0
  2 22  1  0
  3 20  1  0
  3 23  1  0
  4  7  1  0
  4 12  1  0
  4 19  1  0
  5  6  1  0
  5  8  1  0
  5  9  1  0
  5 10  1  0
  6  7  1  0
  6 16  2  0
  7 11  1  0
  8 15  1  0
  9 12  1  0
 10 13  2  0
 10 14  1  0
 11 13  1  0
 13 18  1  0
 14 20  2  0
 15 17  2  0
 16 17  1  0
 18 21  2  0
 20 21  1  0
M  END
>  <PUBCHEM_COMPOUND_CID>  (1) 
8270

>  <PUBCHEM_CONFORMER_RMSD>  (1) 
0.6

>  <PUBCHEM_CONFORMER_DIVERSEORDER>  (1) 
2
4
1
3

>  <PUBCHEM_MMFF94_PARTIAL_CHARGES>  (1) 
26
1 -0.36
10 -0.14
11 0.14
12 0.27
13 -0.14
14 0.08
15 -0.06
16 -0.15
17 -0.15
18 -0.15
19 0.27
2 -0.36
20 0.08
21 -0.15
22 0.28
23 0.28
3 -0.36
32 0.15
33 0.15
34 0.15
38 0.15
4 -0.81
5 0.28
6 -0.28
7 0.41
8 0.42

>  <PUBCHEM_EFFECTIVE_ROTOR_COUNT>  (1) 
3

>  <PUBCHEM_PHARMACOPHORE_FEATURES>  (1) 
9
1 1 acceptor
1 2 acceptor
1 3 acceptor
1 4 cation
5 1 5 8 10 14 rings
6 10 13 14 18 20 21 rings
6 4 5 6 7 9 12 rings
6 5 6 7 10 11 13 rings
6 5 6 8 15 16 17 rings

>  <PUBCHEM_HEAVY_ATOM_COUNT>  (1) 
23

>  <PUBCHEM_ATOM_DEF_STEREO_COUNT>  (1) 
3

>  <PUBCHEM_ATOM_UDEF_STEREO_COUNT>  (1) 
0

>  <PUBCHEM_BOND_DEF_STEREO_COUNT>  (1) 
0

>  <PUBCHEM_BOND_UDEF_STEREO_COUNT>  (1) 
0

>  <PUBCHEM_ISOTOPIC_ATOM_COUNT>  (1) 
0

>  <PUBCHEM_COMPONENT_COUNT>  (1) 
1

>  <PUBCHEM_CACTVS_TAUTO_COUNT>  (1) 
1

>  <PUBCHEM_CONFORMER_ID>  (1) 
0000204E00000002

>  <PUBCHEM_MMFF94_ENERGY>  (1) 
159.4946

>  <PUBCHEM_FEATURE_SELFOVERLAP>  (1) 
46.941

>  <PUBCHEM_SHAPE_FINGERPRINT>  (1) 
10863032 1 15841540890519081973
10871710 139 17399246729420185828
10906281 52 18115601348613404105
10948715 1 18412826863302932856
11578080 2 17486211420460476344
12011746 2 18335139778363009140
12423570 1 11340212330428030682
12839892 36 18194098760205029235
13009979 54 16690519130478382842
13140716 1 17981053225241124361
13583140 156 17241046617055808841
13681431 1 17050200771523266838
14178342 30 18123468280994965233
15042514 8 18337393858646033962
15852999 172 18131355206485913178
16728300 4 17461695330348922994
16945 1 18260276260699865512
17492 54 18190179169045960765
19591789 44 18266459793882924726
20028762 73 18128820923127763615
20691752 17 17898023334466669889
20905425 154 17904480701430986782
21041028 32 17401478746350046646
21524375 3 18334860502135085032
22112679 90 17835813267003727018
22182313 1 18196117549548085831
2334 1 18191028893659845209
23402539 116 18339916103991769973
23419403 2 16697849368410121614
23559900 14 17688303491670196422
2748010 2 18194430868593357467
3052486 1 18338795736066536967
3060560 45 18408888408520477741
34934 24 18188205537137090568
7364860 26 17762896567642238017
81228 2 17910641552955189386
84936 31 17055532389242291206

>  <PUBCHEM_SHAPE_MULTIPOLES>  (1) 
450.74
5.6
3.86
1.33
0.89
4.05
0.16
-2.85
0.36
1.58
-1.06
-0.74
0.23
0.08

>  <PUBCHEM_SHAPE_SELFOVERLAP>  (1) 
1009.558

>  <PUBCHEM_SHAPE_VOLUME>  (1) 
239.3

>  <PUBCHEM_COORDINATE_TYPE>  (1) 
2
5
10

$$$$
