8273
     RDKit          3D

 29 32  0  0  0  0  0  0  0  0999 V2000
   -2.6662    3.9354   -1.9063 Br  0  0  0  0  0  0  0  0  0  0  0  0
    2.6282    3.4155    2.4249 Br  0  0  0  0  0  0  0  0  0  0  0  0
   -0.2515   -2.5517   -1.7871 S   0  0  0  0  0  0  0  0  0  0  0  0
   -0.0320   -0.9315   -1.6507 O   0  0  0  0  0  0  0  0  0  0  0  0
    0.8916   -3.1322   -2.4583 O   0  0  0  0  0  0  0  0  0  0  0  0
   -1.6197   -2.8174   -2.1770 O   0  0  0  0  0  0  0  0  0  0  0  0
   -4.7189    2.7185    0.0846 O   0  0  0  0  0  0  0  0  0  0  0  0
    4.8165    2.5574    0.3917 O   0  0  0  0  0  0  0  0  0  0  0  0
    0.0130   -0.4256   -0.2729 C   0  0  0  0  0  0  0  0  0  0  0  0
    0.0464   -1.6838    0.5986 C   0  0  0  0  0  0  0  0  0  0  0  0
   -0.1056   -2.8813   -0.0972 C   0  0  0  0  0  0  0  0  0  0  0  0
   -1.2619    0.4265   -0.1775 C   0  0  0  0  0  0  0  0  0  0  0  0
    1.3075    0.3830   -0.0918 C   0  0  0  0  0  0  0  0  0  0  0  0
    0.2216   -1.7511    1.9777 C   0  0  0  0  0  0  0  0  0  0  0  0
   -2.3020    0.0370    0.6674 C   0  0  0  0  0  0  0  0  0  0  0  0
    2.4070    0.1371   -0.9153 C   0  0  0  0  0  0  0  0  0  0  0  0
   -0.0943   -4.1319    0.4859 C   0  0  0  0  0  0  0  0  0  0  0  0
   -1.3821    1.5909   -0.9374 C   0  0  0  0  0  0  0  0  0  0  0  0
    1.3858    1.3636    0.8983 C   0  0  0  0  0  0  0  0  0  0  0  0
    0.2325   -3.0020    2.6082 C   0  0  0  0  0  0  0  0  0  0  0  0
   -3.4602    0.8100    0.7521 C   0  0  0  0  0  0  0  0  0  0  0  0
    3.5823    0.8700   -0.7494 C   0  0  0  0  0  0  0  0  0  0  0  0
    0.0752   -4.1834    1.8665 C   0  0  0  0  0  0  0  0  0  0  0  0
   -2.5401    2.3640   -0.8529 C   0  0  0  0  0  0  0  0  0  0  0  0
    2.5610    2.0965    1.0645 C   0  0  0  0  0  0  0  0  0  0  0  0
   -3.5792    1.9736   -0.0080 C   0  0  0  0  0  0  0  0  0  0  0  0
    3.6593    1.8498    0.2406 C   0  0  0  0  0  0  0  0  0  0  0  0
   -4.5609    0.3736    1.6622 C   0  0  0  0  0  0  0  0  0  0  0  0
    4.7466    0.5894   -1.6416 C   0  0  0  0  0  0  0  0  0  0  0  0
  1 24  1  0
  2 25  1  0
  3  4  1  0
  3  5  2  0
  3  6  2  0
  3 11  1  0
  4  9  1  0
  7 26  1  0
  8 27  1  0
  9 10  1  0
  9 12  1  0
  9 13  1  0
 10 11  2  0
 10 14  1  0
 11 17  1  0
 12 15  2  0
 12 18  1  0
 13 16  2  0
 13 19  1  0
 14 20  2  0
 15 21  1  0
 16 22  1  0
 17 23  2  0
 18 24  2  0
 19 25  2  0
 20 23  1  0
 21 26  2  0
 21 28  1  0
 22 27  2  0
 22 29  1  0
 24 26  1  0
 25 27  1  0
M  END
>  <PUBCHEM_COMPOUND_CID>  (1) 
8273

>  <PUBCHEM_CONFORMER_RMSD>  (1) 
0.6

>  <PUBCHEM_CONFORMER_DIVERSEORDER>  (1) 
1
3
9
15
18
6
8
16
28
10
27
7
21
14
13
26
5
2
11
12
25
20
4
17
22
19
23
24

>  <PUBCHEM_MMFF94_PARTIAL_CHARGES>  (1) 
39
1 -0.11
10 -0.14
11 -0.01
12 -0.14
13 -0.14
14 -0.15
15 -0.15
16 -0.15
17 -0.15
18 -0.15
19 -0.15
2 -0.11
20 -0.15
21 -0.14
22 -0.14
23 -0.15
24 0.11
25 0.11
26 0.08
27 0.08
28 0.14
29 0.14
3 1.49
30 0.15
31 0.15
32 0.15
33 0.15
34 0.15
35 0.15
36 0.15
37 0.15
4 -0.46
44 0.45
45 0.45
5 -0.65
6 -0.65
7 -0.53
8 -0.53
9 0.71

>  <PUBCHEM_EFFECTIVE_ROTOR_COUNT>  (1) 
2.4

>  <PUBCHEM_PHARMACOPHORE_FEATURES>  (1) 
10
1 1 hydrophobe
1 2 hydrophobe
1 5 acceptor
1 6 acceptor
1 7 donor
1 8 donor
5 3 4 9 10 11 rings
6 10 11 14 17 20 23 rings
6 12 15 18 21 24 26 rings
6 13 16 19 22 25 27 rings

>  <PUBCHEM_HEAVY_ATOM_COUNT>  (1) 
29

>  <PUBCHEM_ATOM_DEF_STEREO_COUNT>  (1) 
0

>  <PUBCHEM_ATOM_UDEF_STEREO_COUNT>  (1) 
0

>  <PUBCHEM_BOND_DEF_STEREO_COUNT>  (1) 
0

>  <PUBCHEM_BOND_UDEF_STEREO_COUNT>  (1) 
0

>  <PUBCHEM_ISOTOPIC_ATOM_COUNT>  (1) 
0

>  <PUBCHEM_COMPONENT_COUNT>  (1) 
1

>  <PUBCHEM_CACTVS_TAUTO_COUNT>  (1) 
5

>  <PUBCHEM_CONFORMER_ID>  (1) 
0000205100000001

>  <PUBCHEM_MMFF94_ENERGY>  (1) 
75.1125

>  <PUBCHEM_FEATURE_SELFOVERLAP>  (1) 
50.823

>  <PUBCHEM_SHAPE_FINGERPRINT>  (1) 
10074138 170 18046334503426360888
10165383 225 18338533961883494053
10305334 12 17337252759310370992
107951 10 18188227450181450398
11578080 2 16555936626647292514
11582403 64 18411698772725489859
12160290 23 18124298665233543920
12549972 3 17173508870712975377
12788726 201 17907557461504506802
131258 43 8213005097530263136
13134695 92 17330799480258223461
133893 2 17755828997177869959
13544653 18 11241970403603163313
13681431 1 17549533011993998477
140371 6 17472973381786570501
17980427 23 17476307822886383455
20101258 96 17545047455909736968
20600515 1 16819349994299228088
21033648 29 18411130359732632024
21304303 282 17616480385350470724
21524375 3 18411698772714635141
21756936 100 18186802526108952748
23419403 2 17476699347446915251
23558518 356 18052239984759034400
23559900 14 17606692327103584901
238 59 18124855886059561917
3187 122 17401750321459211184
3298306 158 18338239241596290758
3380486 145 16903829926705776966
3380486 77 17175977591595739964
3383291 50 18056493759778521462
3729539 64 18054814805269037462
394222 165 18267581312732916593
44802255 64 17970092044359794092
469060 322 17606378077289142887
5265222 85 18188227442007903206
57527585 103 17249753812433357128
6442390 28 18334303075604584385
6669772 16 18339371755937970438
7808743 9 18117845619286401780
81228 2 17906157800340006029
9841814 1 17616254685214419185

>  <PUBCHEM_SHAPE_MULTIPOLES>  (1) 
583.19
6.93
5.83
2.45
0.04
3.39
-0.12
-9.33
-0.18
-0.4
-0.77
0.51
0.91
1.63

>  <PUBCHEM_SHAPE_SELFOVERLAP>  (1) 
1253.196

>  <PUBCHEM_SHAPE_VOLUME>  (1) 
332.8

>  <PUBCHEM_COORDINATE_TYPE>  (1) 
2
5
10

$$$$
