8280
     RDKit          3D

 11 11  0  0  1  0  0  0  0  0999 V2000
   -0.0913    1.2664    0.4908 O   0  0  0  0  0  0  0  0  0  0  0  0
   -0.4794   -2.1614   -0.0580 O   0  0  0  0  0  0  0  0  0  0  0  0
    2.1337    1.6017    0.1331 O   0  0  0  0  0  0  0  0  0  0  0  0
    1.1496   -0.4916   -0.0749 N   0  0  0  0  0  0  0  0  0  0  0  0
   -1.0021    0.1542    0.4526 C   0  0  0  0  0  0  0  0  0  0  0  0
   -2.0531    0.4072   -0.6176 C   0  0  0  0  0  0  0  0  0  0  0  0
   -0.1100   -1.0042    0.0781 C   0  0  0  0  0  0  0  0  0  0  0  0
   -1.6080   -0.0415    1.8337 C   0  0  0  0  0  0  0  0  0  0  0  0
    1.1715    0.8471    0.1744 C   0  0  0  0  0  0  0  0  0  0  0  0
   -1.4188    0.7025   -1.9655 C   0  0  0  0  0  0  0  0  0  0  0  0
    2.3079   -1.2804   -0.4468 C   0  0  0  0  0  0  0  0  0  0  0  0
  1  5  1  0
  1  9  1  0
  2  7  2  0
  3  9  2  0
  4  7  1  0
  4  9  1  0
  4 11  1  0
  5  6  1  0
  5  7  1  0
  5  8  1  0
  6 10  1  0
M  END
>  <PUBCHEM_COMPOUND_CID>  (1) 
8280

>  <PUBCHEM_CONFORMER_RMSD>  (1) 
0.4

>  <PUBCHEM_CONFORMER_DIVERSEORDER>  (1) 
1
4
6
3
2
5

>  <PUBCHEM_MMFF94_PARTIAL_CHARGES>  (1) 
8
1 -0.43
11 0.3
2 -0.57
3 -0.57
4 -0.42
5 0.34
7 0.57
9 0.78

>  <PUBCHEM_EFFECTIVE_ROTOR_COUNT>  (1) 
1.6

>  <PUBCHEM_PHARMACOPHORE_FEATURES>  (1) 
4
1 10 hydrophobe
1 2 acceptor
1 3 acceptor
5 1 4 5 7 9 rings

>  <PUBCHEM_HEAVY_ATOM_COUNT>  (1) 
11

>  <PUBCHEM_ATOM_DEF_STEREO_COUNT>  (1) 
0

>  <PUBCHEM_ATOM_UDEF_STEREO_COUNT>  (1) 
1

>  <PUBCHEM_BOND_DEF_STEREO_COUNT>  (1) 
0

>  <PUBCHEM_BOND_UDEF_STEREO_COUNT>  (1) 
0

>  <PUBCHEM_ISOTOPIC_ATOM_COUNT>  (1) 
0

>  <PUBCHEM_COMPONENT_COUNT>  (1) 
1

>  <PUBCHEM_CACTVS_TAUTO_COUNT>  (1) 
1

>  <PUBCHEM_CONFORMER_ID>  (1) 
0000205800000001

>  <PUBCHEM_MMFF94_ENERGY>  (1) 
13.7005

>  <PUBCHEM_FEATURE_SELFOVERLAP>  (1) 
20.297

>  <PUBCHEM_SHAPE_FINGERPRINT>  (1) 
12423570 1 11491041136371328217
13024252 1 15432254374380488328
137420 1 14368516680427547015
14128692 85 17415810596812920671
16945 1 17485958270507738745
18185500 45 17769080264123712303
21040471 1 18339919423874999512
2748010 2 18409451396685505758
369184 2 14260778426508484102
5084963 1 17917709041804733659
68250623 7 17129896917763208239

>  <PUBCHEM_SHAPE_MULTIPOLES>  (1) 
203.79
2.7
1.64
1.41
0.87
0.26
0.08
-0.18
0.35
0.58
0.08
-1.01
-0.17
0.62

>  <PUBCHEM_SHAPE_SELFOVERLAP>  (1) 
416.988

>  <PUBCHEM_SHAPE_VOLUME>  (1) 
121.3

>  <PUBCHEM_COORDINATE_TYPE>  (1) 
2
5
10

$$$$
