830
     RDKit          3D

 12 11  0  0  1  0  0  0  0  0999 V2000
   -0.1415    0.0738    0.3806 O   0  0  0  0  0  0  0  0  0  0  0  0
    2.1476   -1.8649    0.5254 O   0  0  0  0  0  0  0  0  0  0  0  0
    3.1662   -0.8598   -1.2398 O   0  0  0  0  0  0  0  0  0  0  0  0
   -1.7972    1.5009   -0.5968 O   0  0  0  0  0  0  0  0  0  0  0  0
    3.2696    1.4757    0.2761 N   0  0  0  0  0  0  0  0  0  0  0  0
   -3.7432   -0.4919    0.0362 N   0  0  0  0  0  0  0  0  0  0  0  0
   -4.7994   -0.4316   -0.1740 N   0  0  0  0  0  0  0  0  0  0  0  0
    2.2220    0.4976    0.5649 C   0  0  0  0  0  0  0  0  0  0  0  0
    0.8726    1.0303    0.0911 C   0  0  0  0  0  0  0  0  0  0  0  0
    2.5796   -0.7802   -0.1698 C   0  0  0  0  0  0  0  0  0  0  0  0
   -1.4640    0.4232   -0.0155 C   0  0  0  0  0  0  0  0  0  0  0  0
   -2.3123   -0.5730    0.3216 C   0  0  0  0  0  0  0  0  0  0  0  0
  1  9  1  0
  1 11  1  0
  2 10  1  0
  3 10  2  0
  4 11  1  0
  5  8  1  0
  6  7  3  0
  6 12  1  0
  8  9  1  0
  8 10  1  0
 11 12  2  0
M  CHG  2   4  -1   6   1
M  END
>  <PUBCHEM_COMPOUND_CID>  (1) 
830

>  <PUBCHEM_CONFORMER_RMSD>  (1) 
0.6

>  <PUBCHEM_CONFORMER_DIVERSEORDER>  (1) 
2
61
28
18
47
65
32
67
10
51
56
57
3
64
15
52
54
49
24
25
17
5
33
14
11
60
16
35
30
45
29
22
19
40
63
7
34
26
23
8
50
58
66
21
43
31
37
53
20
39
48
1
38
6
44
59
12
4
46
41
55
42
9
27
36
62
13

>  <PUBCHEM_MMFF94_PARTIAL_CHARGES>  (1) 
16
1 -0.36
10 0.66
11 -0.07
12 -0.02
16 0.36
17 0.36
18 0.5
19 0.15
2 -0.65
3 -0.57
4 -0.85
5 -0.99
6 1.36
7 -0.49
8 0.33
9 0.28

>  <PUBCHEM_EFFECTIVE_ROTOR_COUNT>  (1) 
4

>  <PUBCHEM_PHARMACOPHORE_FEATURES>  (1) 
6
1 1 acceptor
1 2 acceptor
1 3 acceptor
1 5 cation
1 5 donor
3 2 3 10 anion

>  <PUBCHEM_HEAVY_ATOM_COUNT>  (1) 
12

>  <PUBCHEM_ATOM_DEF_STEREO_COUNT>  (1) 
0

>  <PUBCHEM_ATOM_UDEF_STEREO_COUNT>  (1) 
1

>  <PUBCHEM_BOND_DEF_STEREO_COUNT>  (1) 
0

>  <PUBCHEM_BOND_UDEF_STEREO_COUNT>  (1) 
1

>  <PUBCHEM_ISOTOPIC_ATOM_COUNT>  (1) 
0

>  <PUBCHEM_COMPONENT_COUNT>  (1) 
1

>  <PUBCHEM_CACTVS_TAUTO_COUNT>  (1) 
1

>  <PUBCHEM_CONFORMER_ID>  (1) 
0000033E00000002

>  <PUBCHEM_MMFF94_ENERGY>  (1) 
24.3114

>  <PUBCHEM_FEATURE_SELFOVERLAP>  (1) 
30.505

>  <PUBCHEM_SHAPE_FINGERPRINT>  (1) 
12162725 195 11530751592362605663
12251169 10 11815892327886832070
12932764 1 18261961734473027352
14251717 144 18342173388452552043
14252887 29 17989211447159031122
14325111 11 18411417297975411769
177051 138 17846501422058486583
20201158 50 18334858341745319266
20279233 1 18186522132867551243
20281407 28 18334581252336341115
20645477 70 18272088288257601775
22485316 2 18342452673407158103
23557571 272 17313092038972089604
58051976 378 18338236084748076108
581208 293 18411695530051184994
8030462 33 17385726854933781536
94968 8 18412269419455406590

>  <PUBCHEM_SHAPE_MULTIPOLES>  (1) 
208.53
7.35
1.45
0.77
6.37
0.04
-0.1
1.41
-0.65
-1.03
0.01
-0.39
0.08
0.42

>  <PUBCHEM_SHAPE_SELFOVERLAP>  (1) 
402.795

>  <PUBCHEM_SHAPE_VOLUME>  (1) 
124

>  <PUBCHEM_COORDINATE_TYPE>  (1) 
2
5
10

$$$$
