8304
     RDKit          3D

 13 12  0  0  0  0  0  0  0  0999 V2000
   -0.0796    0.0428   -0.3951 P   0  0  0  0  0  0  0  0  0  0  0  0
    0.8207   -1.0059    0.4552 O   0  0  0  0  0  0  0  0  0  0  0  0
    0.4736    1.4128    0.2762 O   0  0  0  0  0  0  0  0  0  0  0  0
   -1.4515   -0.0911    0.4610 O   0  0  0  0  0  0  0  0  0  0  0  0
    0.6295   -2.3815    0.1565 C   0  0  0  0  0  0  0  0  0  0  0  0
    1.8665    1.6582    0.1420 C   0  0  0  0  0  0  0  0  0  0  0  0
   -2.5443    0.7041    0.0225 C   0  0  0  0  0  0  0  0  0  0  0  0
    0.9622   -2.6269   -1.3073 C   0  0  0  0  0  0  0  0  0  0  0  0
    1.4963   -3.2203    1.0832 C   0  0  0  0  0  0  0  0  0  0  0  0
    2.2209    1.7370   -1.3351 C   0  0  0  0  0  0  0  0  0  0  0  0
    2.2225    2.9402    0.8793 C   0  0  0  0  0  0  0  0  0  0  0  0
   -2.8982    0.3237   -1.4071 C   0  0  0  0  0  0  0  0  0  0  0  0
   -3.7187    0.5069    0.9688 C   0  0  0  0  0  0  0  0  0  0  0  0
  1  2  1  0
  1  3  1  0
  1  4  1  0
  2  5  1  0
  3  6  1  0
  4  7  1  0
  5  8  1  0
  5  9  1  0
  6 10  1  0
  6 11  1  0
  7 12  1  0
  7 13  1  0
M  END
>  <PUBCHEM_COMPOUND_CID>  (1) 
8304

>  <PUBCHEM_CONFORMER_RMSD>  (1) 
0.6

>  <PUBCHEM_CONFORMER_DIVERSEORDER>  (1) 
1
6
4
5
3
2

>  <PUBCHEM_MMFF94_PARTIAL_CHARGES>  (1) 
7
1 0.3
2 -0.38
3 -0.38
4 -0.38
5 0.28
6 0.28
7 0.28

>  <PUBCHEM_EFFECTIVE_ROTOR_COUNT>  (1) 
6

>  <PUBCHEM_PHARMACOPHORE_FEATURES>  (1) 
3
3 5 8 9 hydrophobe
3 6 10 11 hydrophobe
3 7 12 13 hydrophobe

>  <PUBCHEM_HEAVY_ATOM_COUNT>  (1) 
13

>  <PUBCHEM_ATOM_DEF_STEREO_COUNT>  (1) 
0

>  <PUBCHEM_ATOM_UDEF_STEREO_COUNT>  (1) 
0

>  <PUBCHEM_BOND_DEF_STEREO_COUNT>  (1) 
0

>  <PUBCHEM_BOND_UDEF_STEREO_COUNT>  (1) 
0

>  <PUBCHEM_ISOTOPIC_ATOM_COUNT>  (1) 
0

>  <PUBCHEM_COMPONENT_COUNT>  (1) 
1

>  <PUBCHEM_CACTVS_TAUTO_COUNT>  (1) 
1

>  <PUBCHEM_CONFORMER_ID>  (1) 
0000207000000001

>  <PUBCHEM_MMFF94_ENERGY>  (1) 
27.8458

>  <PUBCHEM_FEATURE_SELFOVERLAP>  (1) 
15.223

>  <PUBCHEM_SHAPE_FINGERPRINT>  (1) 
1 1 18409163333329267884
12532896 13 18123751125733433412
12759256 9 18268415859264803271
18410436 195 17977379430538533021
19021347 4 18194119856915283050
20097449 115 17904202533631952163
20361792 2 17908137681795985359
20645476 183 17679026147583778668
20645477 70 18411700946864892327
20671657 1 18341336621591345387
20711985 327 18052807057870425919
20711985 344 17401211565240560502
21061003 4 18047187445567069723
21524375 3 18267583687723165212
23419403 2 16889835042249520570
23557571 272 17402605252127216678
23598291 2 18059577923994850741
2748010 2 18264218086883299086
305870 269 18411692205746913609
3071541 236 17762318606936535280
7364860 26 18342182111530870381
81228 2 17329429956836612122
81539 233 18333733550298670021

>  <PUBCHEM_SHAPE_MULTIPOLES>  (1) 
253.78
4.48
3.88
1.33
4.97
2.22
-0.32
-2.64
0.3
-4.49
0.73
0.02
0.15
-0.15

>  <PUBCHEM_SHAPE_SELFOVERLAP>  (1) 
453.319

>  <PUBCHEM_SHAPE_VOLUME>  (1) 
167.5

>  <PUBCHEM_COORDINATE_TYPE>  (1) 
2
5
10

$$$$
