8306
     RDKit          3D

 25 26  0  0  1  0  0  0  0  0999 V2000
   -4.6817    1.3083   -0.0105 O   0  0  0  0  0  0  0  0  0  0  0  0
    4.6981    1.3088    0.0066 O   0  0  0  0  0  0  0  0  0  0  0  0
   -7.0417    0.9573    1.4076 O   0  0  0  0  0  0  0  0  0  0  0  0
    7.0573    0.9465   -1.4068 O   0  0  0  0  0  0  0  0  0  0  0  0
    0.0083   -1.8276    0.0012 C   0  0  0  0  0  0  0  0  0  0  0  0
   -1.2925   -0.9574   -0.0023 C   0  0  0  0  0  0  0  0  0  0  0  0
    1.2476   -0.9984    0.0028 C   0  0  0  0  0  0  0  0  0  0  0  0
   -0.1652   -2.7954    1.2321 C   0  0  0  0  0  0  0  0  0  0  0  0
    0.0617   -2.8015   -1.2282 C   0  0  0  0  0  0  0  0  0  0  0  0
   -2.1448   -1.1146   -1.0497 C   0  0  0  0  0  0  0  0  0  0  0  0
    2.1614   -1.1123    1.0506 C   0  0  0  0  0  0  0  0  0  0  0  0
   -1.4772   -0.1076    1.0425 C   0  0  0  0  0  0  0  0  0  0  0  0
    1.4937   -0.1095   -1.0435 C   0  0  0  0  0  0  0  0  0  0  0  0
   -3.3045   -0.3398   -1.0526 C   0  0  0  0  0  0  0  0  0  0  0  0
    3.3211   -0.3373    1.0520 C   0  0  0  0  0  0  0  0  0  0  0  0
   -2.6371    0.6672    1.0395 C   0  0  0  0  0  0  0  0  0  0  0  0
    2.6536    0.6655   -1.0422 C   0  0  0  0  0  0  0  0  0  0  0  0
   -3.5508    0.5512   -0.0080 C   0  0  0  0  0  0  0  0  0  0  0  0
    3.5602    0.5468    0.0057 C   0  0  0  0  0  0  0  0  0  0  0  0
   -5.8326    0.7543   -0.6464 C   0  0  0  0  0  0  0  0  0  0  0  0
    5.8420    0.7504    0.6443 C   0  0  0  0  0  0  0  0  0  0  0  0
   -7.0832    1.3074    0.0251 C   0  0  0  0  0  0  0  0  0  0  0  0
    7.0971    1.2968   -0.0242 C   0  0  0  0  0  0  0  0  0  0  0  0
   -8.3480    0.7291   -0.5911 C   0  0  0  0  0  0  0  0  0  0  0  0
    8.3572    0.7120    0.5954 C   0  0  0  0  0  0  0  0  0  0  0  0
  1 18  1  0
  1 20  1  0
  2 19  1  0
  2 21  1  0
  3 22  1  0
  4 23  1  0
  5  6  1  0
  5  7  1  0
  5  8  1  0
  5  9  1  0
  6 10  2  0
  6 12  1  0
  7 11  2  0
  7 13  1  0
 10 14  1  0
 11 15  1  0
 12 16  2  0
 13 17  2  0
 14 18  2  0
 15 19  2  0
 16 18  1  0
 17 19  1  0
 20 22  1  0
 21 23  1  0
 22 24  1  0
 23 25  1  0
M  END
>  <PUBCHEM_COMPOUND_CID>  (1) 
8306

>  <PUBCHEM_CONFORMER_RMSD>  (1) 
1

>  <PUBCHEM_CONFORMER_DIVERSEORDER>  (1) 
1
27
21
44
35
28
10
3
41
26
30
19
22
33
4
25
2
31
38
29
42
39
18
40
45
9
11
32
5
43
34
24
8
20
46
15
36
17
6
47
13
23
37
7
16
12
14

>  <PUBCHEM_MMFF94_PARTIAL_CHARGES>  (1) 
31
1 -0.36
10 -0.15
11 -0.15
12 -0.15
13 -0.15
14 -0.15
15 -0.15
16 -0.15
17 -0.15
18 0.08
19 0.08
2 -0.36
20 0.28
21 0.28
22 0.28
23 0.28
3 -0.68
32 0.15
33 0.15
34 0.15
35 0.15
36 0.15
37 0.15
38 0.15
39 0.15
4 -0.68
5 0.29
52 0.4
53 0.4
6 -0.14
7 -0.14

>  <PUBCHEM_EFFECTIVE_ROTOR_COUNT>  (1) 
8

>  <PUBCHEM_PHARMACOPHORE_FEATURES>  (1) 
9
1 1 acceptor
1 2 acceptor
1 3 acceptor
1 3 donor
1 4 acceptor
1 4 donor
3 5 8 9 hydrophobe
6 6 10 12 14 16 18 rings
6 7 11 13 15 17 19 rings

>  <PUBCHEM_HEAVY_ATOM_COUNT>  (1) 
25

>  <PUBCHEM_ATOM_DEF_STEREO_COUNT>  (1) 
0

>  <PUBCHEM_ATOM_UDEF_STEREO_COUNT>  (1) 
2

>  <PUBCHEM_BOND_DEF_STEREO_COUNT>  (1) 
0

>  <PUBCHEM_BOND_UDEF_STEREO_COUNT>  (1) 
0

>  <PUBCHEM_ISOTOPIC_ATOM_COUNT>  (1) 
0

>  <PUBCHEM_COMPONENT_COUNT>  (1) 
1

>  <PUBCHEM_CACTVS_TAUTO_COUNT>  (1) 
1

>  <PUBCHEM_CONFORMER_ID>  (1) 
0000207200000001

>  <PUBCHEM_MMFF94_ENERGY>  (1) 
96.3553

>  <PUBCHEM_FEATURE_SELFOVERLAP>  (1) 
45.68

>  <PUBCHEM_SHAPE_FINGERPRINT>  (1) 
10 15 17676486142521471193
10076449 9 12103845666163762515
10162869 55 17676202512067270655
106641 1 17022905661883730521
10670039 82 16486978358720515553
10674148 151 13973966493735193691
10753850 27 10375871874568186332
11724838 91 18113619006441558855
11823591 26 18410570686622199879
12236239 1 18410567392387597542
12293681 160 17561363980468643979
12592606 108 9007049163864269369
12633257 1 15647059286645872441
12760667 363 8574712403970920697
12838862 33 18338781373421845504
12892183 10 15575261091458210339
13150687 139 17988929954976292758
13177829 20 15719396148047574213
13685833 64 8934999274031806085
14251764 18 15791736320921347556
14257110 125 18412543206451096365
15183329 4 16056885710433574878
15301273 46 15647049331307462362
15475509 35 15069170161959827346
1577012 14 18411127048438647990
15778101 99 18411135870006094383
15840311 113 17603871126617503020
18006028 8 8214142958292925835
18335252 114 18343295951017000501
18335252 98 17988927799541071639
19489759 90 17489309728827440010
19841028 212 10735614482670193516
20505436 4 18410566288570998634
20554085 129 17703777121041103818
20567600 254 18335417967831825201
21033648 29 18339069514778130744
21150785 3 17275100640253072541
21403212 168 18114176428481848402
21585482 111 18266741277883015429
21756936 100 18336823186262468434
21781055 127 17131554921089894154
21792934 111 11891332071479677751
21792961 116 15267069154908528430
22224240 67 17603866702310408347
23559900 14 17131827720764779986
24771293 8 18334014957194831429
2838139 119 18336258015863709436
3004659 81 12391508676555456124
3009799 131 15410895176375244026
3472631 163 18201437012514911477
3633792 109 17275112696063015302
4098825 35 15553899784043995977
4325135 7 18261108595982686055
4340502 62 18041564646799172995
445580 204 17917998252134018185
474 4 18335702715415567715
5104073 3 17314783221848934384
5283156 175 10519987080119349432
5381727 24 18411695500044936354
5385378 56 18187923942022504802
54076057 127 18130235865585410535
5758199 1 18408886226787834979
59682541 35 18260272962908625217
59682541 52 17560530521459950158
59755656 520 18408878564128965926
9663363 56 9079116631034419949
9953998 17 16008751329322004793

>  <PUBCHEM_SHAPE_MULTIPOLES>  (1) 
491.01
21.09
2.04
1.28
0.39
1.63
0
-17.56
-0.01
-0.05
0
0
0.25
-0.66

>  <PUBCHEM_SHAPE_SELFOVERLAP>  (1) 
1025.82

>  <PUBCHEM_SHAPE_VOLUME>  (1) 
280.8

>  <PUBCHEM_COORDINATE_TYPE>  (1) 
2
5
10

$$$$
