8316
     RDKit          3D

 16 17  0  0  0  0  0  0  0  0999 V2000
    2.6321    0.1291    0.0799 S   0  0  0  0  0  0  0  0  0  0  0  0
   -1.2650    3.3463    0.0037 O   0  0  0  0  0  0  0  0  0  0  0  0
    2.9905   -0.4673   -1.3963 O   0  0  0  0  0  0  0  0  0  0  0  0
    3.2794    1.4244    0.1905 O   0  0  0  0  0  0  0  0  0  0  0  0
    2.8645   -0.9123    1.0636 O   0  0  0  0  0  0  0  0  0  0  0  0
   -3.1995    1.3597   -0.0384 N   0  0  0  0  0  0  0  0  0  0  0  0
   -0.0398   -0.6417    0.0239 C   0  0  0  0  0  0  0  0  0  0  0  0
   -1.4209   -0.3343   -0.0044 C   0  0  0  0  0  0  0  0  0  0  0  0
    0.8966    0.4048    0.0446 C   0  0  0  0  0  0  0  0  0  0  0  0
   -1.8249    1.0107   -0.0110 C   0  0  0  0  0  0  0  0  0  0  0  0
    0.4774    1.7356    0.0378 C   0  0  0  0  0  0  0  0  0  0  0  0
   -0.8809    2.0380    0.0103 C   0  0  0  0  0  0  0  0  0  0  0  0
    0.3645   -1.9866    0.0303 C   0  0  0  0  0  0  0  0  0  0  0  0
   -2.3571   -1.3809   -0.0255 C   0  0  0  0  0  0  0  0  0  0  0  0
   -0.5794   -3.0139    0.0095 C   0  0  0  0  0  0  0  0  0  0  0  0
   -1.9376   -2.7115   -0.0184 C   0  0  0  0  0  0  0  0  0  0  0  0
  1  3  1  0
  1  4  2  0
  1  5  2  0
  1  9  1  0
  2 12  1  0
  6 10  1  0
  7  8  1  0
  7  9  2  0
  7 13  1  0
  8 10  2  0
  8 14  1  0
  9 11  1  0
 10 12  1  0
 11 12  2  0
 13 15  2  0
 14 16  2  0
 15 16  1  0
M  END
>  <PUBCHEM_COMPOUND_CID>  (1) 
8316

>  <PUBCHEM_CONFORMER_RMSD>  (1) 
0.6

>  <PUBCHEM_CONFORMER_DIVERSEORDER>  (1) 
1

>  <PUBCHEM_MMFF94_PARTIAL_CHARGES>  (1) 
23
1 1.49
10 0.1
11 -0.15
12 0.08
13 -0.15
14 -0.15
15 -0.15
16 -0.15
17 0.15
18 0.15
19 0.15
2 -0.53
20 0.15
21 0.15
22 0.4
23 0.4
24 0.45
25 0.5
3 -0.68
4 -0.65
5 -0.65
6 -0.9
9 -0.01

>  <PUBCHEM_EFFECTIVE_ROTOR_COUNT>  (1) 
1

>  <PUBCHEM_PHARMACOPHORE_FEATURES>  (1) 
9
1 2 donor
1 3 acceptor
1 4 acceptor
1 5 acceptor
1 6 cation
1 6 donor
4 1 3 4 5 anion
6 7 8 13 14 15 16 rings
6 7 8 9 10 11 12 rings

>  <PUBCHEM_HEAVY_ATOM_COUNT>  (1) 
16

>  <PUBCHEM_ATOM_DEF_STEREO_COUNT>  (1) 
0

>  <PUBCHEM_ATOM_UDEF_STEREO_COUNT>  (1) 
0

>  <PUBCHEM_BOND_DEF_STEREO_COUNT>  (1) 
0

>  <PUBCHEM_BOND_UDEF_STEREO_COUNT>  (1) 
0

>  <PUBCHEM_ISOTOPIC_ATOM_COUNT>  (1) 
0

>  <PUBCHEM_COMPONENT_COUNT>  (1) 
1

>  <PUBCHEM_CACTVS_TAUTO_COUNT>  (1) 
7

>  <PUBCHEM_CONFORMER_ID>  (1) 
0000207C00000001

>  <PUBCHEM_MMFF94_ENERGY>  (1) 
56.2046

>  <PUBCHEM_FEATURE_SELFOVERLAP>  (1) 
45.757

>  <PUBCHEM_SHAPE_FINGERPRINT>  (1) 
10967382 1 18410571820735892811
11578080 2 17028485777778863068
12524768 44 17910396421928648182
12553582 1 18050005789947678266
13140716 1 18411136961133373401
13380535 76 18266451014969641659
13538477 17 18260543416360840002
14790565 3 18267325169616826785
15001771 113 17906739459387084267
15042514 8 18408885148224036410
15490181 7 18267590091466668914
15490181 8 18122056507631779731
16945 1 18266741290054663041
193761 8 17690278214495607825
19591789 44 18123765161886984323
19868273 325 18265899235856671343
20510252 161 18343304777174566601
20645476 183 17895772741290810222
20871998 184 18128819822797957934
21524375 3 18044378214447576248
22802520 49 18201736024006576614
2334 1 18266739271541392177
23402539 116 18199172057037037591
23419403 2 17269717555281356153
23526113 38 17559408963570033542
23526114 1 16826434229331507670
23552423 10 17328018184070448183
23557571 272 18198916979535820580
23559900 14 18271251539346371606
23598294 1 18335982055550822586
2748010 2 18339637970531361309
34934 24 18122896800903664682
352729 6 18338514145003915459
7364860 26 17331675748138782169
81228 2 18339367477548526562

>  <PUBCHEM_SHAPE_MULTIPOLES>  (1) 
304.66
4.26
3.45
0.74
2.49
0.89
-0.07
-0.62
-0.08
-2.05
0.05
0.41
-0.18
0.03

>  <PUBCHEM_SHAPE_SELFOVERLAP>  (1) 
657.482

>  <PUBCHEM_SHAPE_VOLUME>  (1) 
168.3

>  <PUBCHEM_COORDINATE_TYPE>  (1) 
2
5
10

$$$$
