8317
     RDKit          3D

 36 44  0  0  0  0  0  0  0  0999 V2000
   -5.6283    2.5311    0.0032 O   0  0  0  0  0  0  0  0  0  0  0  0
    5.6284    2.5309   -0.0002 O   0  0  0  0  0  0  0  0  0  0  0  0
   -1.4367    0.1879   -0.0012 C   0  0  0  0  0  0  0  0  0  0  0  0
    1.4367    0.1880   -0.0010 C   0  0  0  0  0  0  0  0  0  0  0  0
   -0.7180   -1.0312   -0.0015 C   0  0  0  0  0  0  0  0  0  0  0  0
    0.7178   -1.0312   -0.0014 C   0  0  0  0  0  0  0  0  0  0  0  0
   -0.7179    1.4143   -0.0010 C   0  0  0  0  0  0  0  0  0  0  0  0
    0.7179    1.4143   -0.0010 C   0  0  0  0  0  0  0  0  0  0  0  0
   -2.8791    0.1799   -0.0006 C   0  0  0  0  0  0  0  0  0  0  0  0
    2.8792    0.1799   -0.0005 C   0  0  0  0  0  0  0  0  0  0  0  0
   -3.6071   -1.0345   -0.0005 C   0  0  0  0  0  0  0  0  0  0  0  0
    3.6071   -1.0344   -0.0001 C   0  0  0  0  0  0  0  0  0  0  0  0
   -3.5591    1.4075    0.0000 C   0  0  0  0  0  0  0  0  0  0  0  0
    3.5591    1.4075   -0.0003 C   0  0  0  0  0  0  0  0  0  0  0  0
   -1.4790   -2.2171   -0.0018 C   0  0  0  0  0  0  0  0  0  0  0  0
    1.4790   -2.2171   -0.0013 C   0  0  0  0  0  0  0  0  0  0  0  0
   -1.4777    2.6061   -0.0008 C   0  0  0  0  0  0  0  0  0  0  0  0
    1.4777    2.6062   -0.0010 C   0  0  0  0  0  0  0  0  0  0  0  0
   -5.0939   -1.0286    0.0001 C   0  0  0  0  0  0  0  0  0  0  0  0
    5.0939   -1.0286    0.0007 C   0  0  0  0  0  0  0  0  0  0  0  0
   -2.8730   -2.2211   -0.0012 C   0  0  0  0  0  0  0  0  0  0  0  0
    2.8730   -2.2211   -0.0007 C   0  0  0  0  0  0  0  0  0  0  0  0
   -2.8666    2.6105   -0.0003 C   0  0  0  0  0  0  0  0  0  0  0  0
    2.8667    2.6107   -0.0006 C   0  0  0  0  0  0  0  0  0  0  0  0
   -5.0384    1.4576    0.0008 C   0  0  0  0  0  0  0  0  0  0  0  0
    5.0383    1.4575    0.0000 C   0  0  0  0  0  0  0  0  0  0  0  0
   -5.7938    0.1900    0.0008 C   0  0  0  0  0  0  0  0  0  0  0  0
    5.7938    0.1900    0.0008 C   0  0  0  0  0  0  0  0  0  0  0  0
   -5.8760   -2.2012    0.0003 C   0  0  0  0  0  0  0  0  0  0  0  0
    5.8760   -2.2012    0.0013 C   0  0  0  0  0  0  0  0  0  0  0  0
   -7.1969    0.2413    0.0015 C   0  0  0  0  0  0  0  0  0  0  0  0
    7.1969    0.2414    0.0015 C   0  0  0  0  0  0  0  0  0  0  0  0
   -7.2751   -2.1569    0.0009 C   0  0  0  0  0  0  0  0  0  0  0  0
    7.2750   -2.1568    0.0019 C   0  0  0  0  0  0  0  0  0  0  0  0
   -7.9352   -0.9358    0.0014 C   0  0  0  0  0  0  0  0  0  0  0  0
    7.9353   -0.9359    0.0019 C   0  0  0  0  0  0  0  0  0  0  0  0
  1 25  2  0
  2 26  2  0
  3  5  1  0
  3  7  2  0
  3  9  1  0
  4  6  2  0
  4  8  1  0
  4 10  1  0
  5  6  1  0
  5 15  2  0
  6 16  1  0
  7  8  1  0
  7 17  1  0
  8 18  2  0
  9 11  1  0
  9 13  2  0
 10 12  2  0
 10 14  1  0
 11 19  1  0
 11 21  2  0
 12 20  1  0
 12 22  1  0
 13 23  1  0
 13 25  1  0
 14 24  2  0
 14 26  1  0
 15 21  1  0
 16 22  2  0
 17 23  2  0
 18 24  1  0
 19 27  2  0
 19 29  1  0
 20 28  2  0
 20 30  1  0
 25 27  1  0
 26 28  1  0
 27 31  1  0
 28 32  1  0
 29 33  2  0
 30 34  2  0
 31 35  2  0
 32 36  2  0
 33 35  1  0
 34 36  1  0
M  END
>  <PUBCHEM_COMPOUND_CID>  (1) 
8317

>  <PUBCHEM_CONFORMER_RMSD>  (1) 
0.6

>  <PUBCHEM_CONFORMER_DIVERSEORDER>  (1) 
1

>  <PUBCHEM_MMFF94_PARTIAL_CHARGES>  (1) 
40
1 -0.57
13 0.09
14 0.09
15 -0.15
16 -0.15
17 -0.15
18 -0.15
2 -0.57
21 -0.15
22 -0.15
23 -0.15
24 -0.15
25 0.4
26 0.4
27 0.09
28 0.09
29 -0.15
30 -0.15
31 -0.15
32 -0.15
33 -0.15
34 -0.15
35 -0.15
36 -0.15
37 0.15
38 0.15
39 0.15
40 0.15
41 0.15
42 0.15
43 0.15
44 0.15
45 0.15
46 0.15
47 0.15
48 0.15
49 0.15
50 0.15
51 0.15
52 0.15

>  <PUBCHEM_EFFECTIVE_ROTOR_COUNT>  (1) 
0

>  <PUBCHEM_PHARMACOPHORE_FEATURES>  (1) 
11
1 1 acceptor
1 2 acceptor
6 10 12 14 20 26 28 rings
6 19 27 29 31 33 35 rings
6 20 28 30 32 34 36 rings
6 3 4 5 6 7 8 rings
6 3 5 9 11 15 21 rings
6 3 7 9 13 17 23 rings
6 4 6 10 12 16 22 rings
6 4 8 10 14 18 24 rings
6 9 11 13 19 25 27 rings

>  <PUBCHEM_HEAVY_ATOM_COUNT>  (1) 
36

>  <PUBCHEM_ATOM_DEF_STEREO_COUNT>  (1) 
0

>  <PUBCHEM_ATOM_UDEF_STEREO_COUNT>  (1) 
0

>  <PUBCHEM_BOND_DEF_STEREO_COUNT>  (1) 
0

>  <PUBCHEM_BOND_UDEF_STEREO_COUNT>  (1) 
0

>  <PUBCHEM_ISOTOPIC_ATOM_COUNT>  (1) 
0

>  <PUBCHEM_COMPONENT_COUNT>  (1) 
1

>  <PUBCHEM_CACTVS_TAUTO_COUNT>  (1) 
1

>  <PUBCHEM_CONFORMER_ID>  (1) 
0000207D00000001

>  <PUBCHEM_MMFF94_ENERGY>  (1) 
145.7005

>  <PUBCHEM_FEATURE_SELFOVERLAP>  (1) 
56.098

>  <PUBCHEM_SHAPE_FINGERPRINT>  (1) 
10050765 1 18122344575399536203
10580692 12 18411701014639973882
11135926 11 18336823105491299487
11456790 92 18131082541267719665
11524674 6 16773794809747037223
11578080 2 16843584218865801994
117089 54 17972326376458116843
11719270 70 18273495663468572926
11963148 33 18336820893003685602
12107698 1 18410573985151769451
12133447 93 18270130002657160780
12166972 35 18040436602796269148
13383668 362 18126552643349964480
13402501 40 18410855464423135596
13811026 1 18410849966864996709
14068700 675 18342177764876839257
14394314 77 18339928104284278913
15082195 135 18042135409097957812
15131766 46 15336836573974392368
15183329 4 18409166610267969595
15196674 1 18410575088958247589
15361156 5 18115034124455087462
16067689 302 18340211903165051735
18608769 82 18411980265145573499
18681886 176 18341606027652036298
19611394 137 18043262425675023179
20028762 73 18343302556803620694
20721686 56 18335703883963144635
21033648 29 17774138203123472218
21057603 40 16916796132989557334
21130935 74 18343302548460930410
21133410 127 17826782930798567805
21197605 99 18341614832762377694
21236236 1 18411699863588732033
21267235 1 18410858758663227010
21792934 111 18341885294757035488
22311459 1 18410575089238218702
23522609 53 18122377693861447692
23559900 14 18339917207635373945
23569917 315 18412270531620607254
24771750 20 18264499562583398628
3004659 81 18259701211517317512
335352 9 18410575093284707910
3383291 50 18335419088550050779
350125 39 18411136939399852740
4073 2 17969225697305244546
4144715 1 18335994128757223595
439807 62 18410013247417553609
4461854 278 18131359643420161679
484989 97 18336550503305092643
5104073 3 18341891883221154080
6138700 20 18408603669643084411
9831232 110 18199193897721516614
9896288 288 17844252822038362793
99344 41 18340487768755678951

>  <PUBCHEM_SHAPE_MULTIPOLES>  (1) 
729.12
21.37
3.31
0.61
0
0.81
0
-7.76
0.02
0
0
0
-0.01
0

>  <PUBCHEM_SHAPE_SELFOVERLAP>  (1) 
1750.058

>  <PUBCHEM_SHAPE_VOLUME>  (1) 
355.9

>  <PUBCHEM_COORDINATE_TYPE>  (1) 
2
5
10

$$$$
