8319
     RDKit          3D

 28 31  0  0  0  0  0  0  0  0999 V2000
    5.8349   -0.9820   -0.0872 Cl  0  0  0  0  0  0  0  0  0  0  0  0
    2.8426    3.3052    0.3540 O   0  0  0  0  0  0  0  0  0  0  0  0
   -0.4854   -1.7023    0.0174 O   0  0  0  0  0  0  0  0  0  0  0  0
    4.0638    1.0955    0.1368 O   0  0  0  0  0  0  0  0  0  0  0  0
   -3.3428    2.0681   -0.7402 O   0  0  0  0  0  0  0  0  0  0  0  0
   -1.9261    0.4674    0.2368 N   0  0  0  0  0  0  0  0  0  0  0  0
    0.5371    0.4299    0.1700 C   0  0  0  0  0  0  0  0  0  0  0  0
    1.7361    1.1452    0.1992 C   0  0  0  0  0  0  0  0  0  0  0  0
    1.8405   -1.7464   -0.0476 C   0  0  0  0  0  0  0  0  0  0  0  0
    3.0395   -1.0313   -0.0181 C   0  0  0  0  0  0  0  0  0  0  0  0
   -0.6836    1.1097    0.2586 C   0  0  0  0  0  0  0  0  0  0  0  0
    0.5455   -1.0419    0.0459 C   0  0  0  0  0  0  0  0  0  0  0  0
    3.0312    0.4407    0.1064 C   0  0  0  0  0  0  0  0  0  0  0  0
    1.7145    2.5401    0.3172 C   0  0  0  0  0  0  0  0  0  0  0  0
   -0.7007    2.4997    0.3761 C   0  0  0  0  0  0  0  0  0  0  0  0
    0.4958    3.2134    0.4055 C   0  0  0  0  0  0  0  0  0  0  0  0
    1.8621   -3.1412   -0.1663 C   0  0  0  0  0  0  0  0  0  0  0  0
    4.2603   -1.7110   -0.1069 C   0  0  0  0  0  0  0  0  0  0  0  0
    3.0808   -3.8146   -0.2545 C   0  0  0  0  0  0  0  0  0  0  0  0
    4.2773   -3.1011   -0.2249 C   0  0  0  0  0  0  0  0  0  0  0  0
   -3.1420    0.9648   -0.2441 C   0  0  0  0  0  0  0  0  0  0  0  0
   -4.3031    0.0475   -0.1031 C   0  0  0  0  0  0  0  0  0  0  0  0
    3.3465    3.7748   -0.8943 C   0  0  0  0  0  0  0  0  0  0  0  0
   -5.3520    0.1606   -0.9910 C   0  0  0  0  0  0  0  0  0  0  0  0
   -4.2930   -0.8868    0.9112 C   0  0  0  0  0  0  0  0  0  0  0  0
   -6.4413   -0.7006   -0.8587 C   0  0  0  0  0  0  0  0  0  0  0  0
   -5.3822   -1.7481    1.0434 C   0  0  0  0  0  0  0  0  0  0  0  0
   -6.4563   -1.6550    0.1585 C   0  0  0  0  0  0  0  0  0  0  0  0
  1 18  1  0
  2 14  1  0
  2 23  1  0
  3 12  2  0
  4 13  2  0
  5 21  2  0
  6 11  1  0
  6 21  1  0
  7  8  2  0
  7 11  1  0
  7 12  1  0
  8 13  1  0
  8 14  1  0
  9 10  2  0
  9 12  1  0
  9 17  1  0
 10 13  1  0
 10 18  1  0
 11 15  2  0
 14 16  2  0
 15 16  1  0
 17 19  2  0
 18 20  2  0
 19 20  1  0
 21 22  1  0
 22 24  2  0
 22 25  1  0
 24 26  1  0
 25 27  2  0
 26 28  2  0
 27 28  1  0
M  END
>  <PUBCHEM_COMPOUND_CID>  (1) 
8319

>  <PUBCHEM_CONFORMER_RMSD>  (1) 
0.8

>  <PUBCHEM_CONFORMER_DIVERSEORDER>  (1) 
1
2

>  <PUBCHEM_MMFF94_PARTIAL_CHARGES>  (1) 
39
1 -0.18
10 0.09
11 0.12
12 0.4
13 0.4
14 0.08
15 -0.15
16 -0.15
17 -0.15
18 0.18
19 -0.15
2 -0.36
20 -0.15
21 0.54
22 0.09
23 0.28
24 -0.15
25 -0.15
26 -0.15
27 -0.15
28 -0.15
29 0.15
3 -0.57
30 0.15
31 0.15
32 0.37
33 0.15
34 0.15
38 0.15
39 0.15
4 -0.57
40 0.15
41 0.15
42 0.15
5 -0.57
6 -0.55
7 0.09
8 0.09
9 0.09

>  <PUBCHEM_EFFECTIVE_ROTOR_COUNT>  (1) 
4

>  <PUBCHEM_PHARMACOPHORE_FEATURES>  (1) 
9
1 2 acceptor
1 3 acceptor
1 4 acceptor
1 5 acceptor
1 6 donor
6 22 24 25 26 27 28 rings
6 7 8 11 14 15 16 rings
6 7 8 9 10 12 13 rings
6 9 10 17 18 19 20 rings

>  <PUBCHEM_HEAVY_ATOM_COUNT>  (1) 
28

>  <PUBCHEM_ATOM_DEF_STEREO_COUNT>  (1) 
0

>  <PUBCHEM_ATOM_UDEF_STEREO_COUNT>  (1) 
0

>  <PUBCHEM_BOND_DEF_STEREO_COUNT>  (1) 
0

>  <PUBCHEM_BOND_UDEF_STEREO_COUNT>  (1) 
0

>  <PUBCHEM_ISOTOPIC_ATOM_COUNT>  (1) 
0

>  <PUBCHEM_COMPONENT_COUNT>  (1) 
1

>  <PUBCHEM_CACTVS_TAUTO_COUNT>  (1) 
4

>  <PUBCHEM_CONFORMER_ID>  (1) 
0000207F00000001

>  <PUBCHEM_MMFF94_ENERGY>  (1) 
114.1315

>  <PUBCHEM_FEATURE_SELFOVERLAP>  (1) 
45.731

>  <PUBCHEM_SHAPE_FINGERPRINT>  (1) 
10411042 1 18267585706790902034
10622 236 17486744606828964335
10693767 8 18130796637984820630
10835480 77 18335130999977415901
10838868 158 17102291706816369075
1100329 8 18340485672875195334
11045515 52 18044943359383032836
11136131 41 18190731119814918906
11578080 2 13552915177467473502
11719270 70 18338791342473268160
11963148 33 18336819887680794507
12107183 9 18127705825184678289
12166972 35 18040723519981658598
12403259 226 18335980861492119045
12730499 353 18265902543213903201
13009979 54 17774449256600719593
13140716 1 18197772413701142176
13383665 225 17895204320383225509
13402501 40 18334576858632666355
13533116 47 18271806874101126913
13544653 18 18337959991460092455
138480 1 18411419484240541320
13911987 19 17975993260062520917
13955234 65 18200026386304400113
13989917 61 18266742570757654035
14767858 380 18336841822816266670
14790565 3 17544764885368394613
15352361 1 18339360760678910059
15927050 60 17981607379745316046
15961568 22 17096082635931769829
17492 89 18339922615178099147
17909252 39 18412547591422620080
19319366 153 18055631965103624356
20028762 73 18202562882183429678
20645477 70 18335134336655210817
21033650 10 16443339820425216733
21197605 99 18050009084567792451
21267235 1 18341618096325638286
221357 26 18336542738373401943
221490 88 18409450267399302769
22149856 69 18266473169133446867
22393880 68 17968648325288959951
23559900 14 18336818715728696201
23569914 152 17617342149976181335
239999 70 18041273369794417905
3004659 81 18187081724230633627
314194 84 18271803549490692359
329604 57 18336550425726733775
3421961 26 18413106169284047617
350125 39 18337392755055625612
3882209 13 17180774404895048299
4015057 19 18410849985004962011
4073 2 18260270763637319787
46194498 28 17967247628620987101
484989 97 18263095468769788282
5104073 3 18200027331106976019
5309563 4 18269274573487987990
59755656 215 18337675316506081540
6669772 16 18197501933872663244
7970288 3 18268426828627881183
9709674 26 18407759227527782563
9777508 108 16901579230593692417

>  <PUBCHEM_SHAPE_MULTIPOLES>  (1) 
549.64
13.46
4.54
0.82
18.07
1.26
0.03
-8.12
1.41
-5.95
0.24
0.66
0.06
0.63

>  <PUBCHEM_SHAPE_SELFOVERLAP>  (1) 
1228.361

>  <PUBCHEM_SHAPE_VOLUME>  (1) 
290

>  <PUBCHEM_COORDINATE_TYPE>  (1) 
2
5
10

$$$$
