8321
     RDKit          3D

 19 21  0  0  0  0  0  0  0  0999 V2000
    2.5282   -2.1974    0.2964 O   0  0  0  0  0  0  0  0  0  0  0  0
   -0.8845    2.7399   -0.1463 O   0  0  0  0  0  0  0  0  0  0  0  0
   -0.0353   -2.5216    0.2357 O   0  0  0  0  0  0  0  0  0  0  0  0
    1.6666    3.2876   -0.0955 N   0  0  0  0  0  0  0  0  0  0  0  0
    0.7202    1.0042    0.0245 C   0  0  0  0  0  0  0  0  0  0  0  0
    0.9390   -0.3715    0.1231 C   0  0  0  0  0  0  0  0  0  0  0  0
   -1.7930    0.6006   -0.0325 C   0  0  0  0  0  0  0  0  0  0  0  0
   -1.5744   -0.7750    0.0666 C   0  0  0  0  0  0  0  0  0  0  0  0
   -0.6536    1.5405   -0.0573 C   0  0  0  0  0  0  0  0  0  0  0  0
   -0.2004   -1.3113    0.1482 C   0  0  0  0  0  0  0  0  0  0  0  0
    1.8088    1.8844    0.0022 C   0  0  0  0  0  0  0  0  0  0  0  0
    2.2461   -0.8671    0.1989 C   0  0  0  0  0  0  0  0  0  0  0  0
    3.1098    1.3864    0.0783 C   0  0  0  0  0  0  0  0  0  0  0  0
    3.3280    0.0135    0.1762 C   0  0  0  0  0  0  0  0  0  0  0  0
   -3.1002    1.0961   -0.1089 C   0  0  0  0  0  0  0  0  0  0  0  0
   -2.6629   -1.6551    0.0891 C   0  0  0  0  0  0  0  0  0  0  0  0
   -3.9640   -1.1572    0.0124 C   0  0  0  0  0  0  0  0  0  0  0  0
   -4.1821    0.2156   -0.0866 C   0  0  0  0  0  0  0  0  0  0  0  0
    2.7037   -2.9127   -0.9244 C   0  0  0  0  0  0  0  0  0  0  0  0
  1 12  1  0
  1 19  1  0
  2  9  2  0
  3 10  2  0
  4 11  1  0
  5  6  2  0
  5  9  1  0
  5 11  1  0
  6 10  1  0
  6 12  1  0
  7  8  2  0
  7  9  1  0
  7 15  1  0
  8 10  1  0
  8 16  1  0
 11 13  2  0
 12 14  2  0
 13 14  1  0
 15 18  2  0
 16 17  2  0
 17 18  1  0
M  END
>  <PUBCHEM_COMPOUND_CID>  (1) 
8321

>  <PUBCHEM_CONFORMER_RMSD>  (1) 
0.6

>  <PUBCHEM_CONFORMER_DIVERSEORDER>  (1) 
1

>  <PUBCHEM_MMFF94_PARTIAL_CHARGES>  (1) 
27
1 -0.36
10 0.4
11 0.1
12 0.08
13 -0.15
14 -0.15
15 -0.15
16 -0.15
17 -0.15
18 -0.15
19 0.28
2 -0.57
20 0.15
21 0.15
22 0.15
23 0.15
24 0.15
25 0.15
26 0.4
27 0.4
3 -0.57
4 -0.9
5 0.09
6 0.09
7 0.09
8 0.09
9 0.4

>  <PUBCHEM_EFFECTIVE_ROTOR_COUNT>  (1) 
1

>  <PUBCHEM_PHARMACOPHORE_FEATURES>  (1) 
8
1 1 acceptor
1 2 acceptor
1 3 acceptor
1 4 cation
1 4 donor
6 5 6 11 12 13 14 rings
6 5 6 7 8 9 10 rings
6 7 8 15 16 17 18 rings

>  <PUBCHEM_HEAVY_ATOM_COUNT>  (1) 
19

>  <PUBCHEM_ATOM_DEF_STEREO_COUNT>  (1) 
0

>  <PUBCHEM_ATOM_UDEF_STEREO_COUNT>  (1) 
0

>  <PUBCHEM_BOND_DEF_STEREO_COUNT>  (1) 
0

>  <PUBCHEM_BOND_UDEF_STEREO_COUNT>  (1) 
0

>  <PUBCHEM_ISOTOPIC_ATOM_COUNT>  (1) 
0

>  <PUBCHEM_COMPONENT_COUNT>  (1) 
1

>  <PUBCHEM_CACTVS_TAUTO_COUNT>  (1) 
3

>  <PUBCHEM_CONFORMER_ID>  (1) 
0000208100000001

>  <PUBCHEM_MMFF94_ENERGY>  (1) 
82.9949

>  <PUBCHEM_FEATURE_SELFOVERLAP>  (1) 
40.649

>  <PUBCHEM_SHAPE_FINGERPRINT>  (1) 
10411042 1 18122343480167356802
10608611 8 18335697265186406589
10616163 171 18194403526710368255
10967382 1 18410011060973108401
10980938 120 18337953505589905642
11132069 177 18339353162528147377
11471102 20 18410006680117126485
11578080 2 17024571323236546118
11680986 33 18409736157338792626
116883 192 18197499515230679054
12553582 1 18049162168192222539
13140716 1 18121774199811254664
13380535 76 18264766734785762770
138480 1 18338798918763390276
13897977 150 18409726304915839581
14223421 5 18410571773306688245
14790565 3 16468694287788991040
14866123 147 17117766843197257307
15196674 1 18409728499438380065
15442244 35 18268149764444407099
15536298 74 18342457036524296554
16945 1 18410577322604953184
17492 89 18412825802652447319
193761 8 18193837042035590729
19591789 44 18050572042683133078
20559304 39 18410292519123468712
20645477 70 18410004447346237807
20905425 154 18341052917415767068
21267235 1 18410018761992239251
21501502 16 18339364067397351281
221490 88 18408893931442738523
23184049 29 18265329504413796098
2334 1 18337390543015378491
23402539 116 18269826657126326974
23463225 33 18409165532452782593
23559900 14 18412538795730569616
23566358 2 18338517418064401140
238 59 17758067736243590637
2748010 2 18194392304208405900
335352 9 18122060897457595749
34934 24 18411409644248621231
352729 6 17976824516421423763
5104073 3 18409447007434788481
7364860 26 18413108381292314670
9709674 26 18409451418429984755

>  <PUBCHEM_SHAPE_MULTIPOLES>  (1) 
368.42
6.24
3.27
0.66
3.44
0.19
0.04
-1.05
0.15
-2.14
0.38
-0.12
-0.15
0.37

>  <PUBCHEM_SHAPE_SELFOVERLAP>  (1) 
830.713

>  <PUBCHEM_SHAPE_VOLUME>  (1) 
192.3

>  <PUBCHEM_COORDINATE_TYPE>  (1) 
2
5
10

$$$$
