8327
     RDKit          3D

 18 20  0  0  0  0  0  0  0  0999 V2000
    3.3788    2.2964    0.0014 Cl  0  0  0  0  0  0  0  0  0  0  0  0
   -0.6733   -2.6033    0.0011 O   0  0  0  0  0  0  0  0  0  0  0  0
    0.6348    2.5761   -0.0011 O   0  0  0  0  0  0  0  0  0  0  0  0
   -3.2235   -2.0491    0.0002 N   0  0  0  0  0  0  0  0  0  0  0  0
   -1.4203   -0.3542   -0.0005 C   0  0  0  0  0  0  0  0  0  0  0  0
   -1.0527    0.9930   -0.0004 C   0  0  0  0  0  0  0  0  0  0  0  0
    1.0360   -1.0244   -0.0007 C   0  0  0  0  0  0  0  0  0  0  0  0
    1.4036    0.3228   -0.0004 C   0  0  0  0  0  0  0  0  0  0  0  0
   -0.3895   -1.4121   -0.0005 C   0  0  0  0  0  0  0  0  0  0  0  0
    0.3727    1.3807   -0.0005 C   0  0  0  0  0  0  0  0  0  0  0  0
   -2.7748   -0.7082   -0.0001 C   0  0  0  0  0  0  0  0  0  0  0  0
   -2.0395    1.9861    0.0000 C   0  0  0  0  0  0  0  0  0  0  0  0
    2.0228   -2.0175   -0.0007 C   0  0  0  0  0  0  0  0  0  0  0  0
    2.7581    0.6768    0.0004 C   0  0  0  0  0  0  0  0  0  0  0  0
   -3.7550    0.2845    0.0006 C   0  0  0  0  0  0  0  0  0  0  0  0
   -3.3882    1.6289    0.0006 C   0  0  0  0  0  0  0  0  0  0  0  0
    3.3714   -1.6603    0.0000 C   0  0  0  0  0  0  0  0  0  0  0  0
    3.7383   -0.3161    0.0006 C   0  0  0  0  0  0  0  0  0  0  0  0
  1 14  1  0
  2  9  2  0
  3 10  2  0
  4 11  1  0
  5  6  2  0
  5  9  1  0
  5 11  1  0
  6 10  1  0
  6 12  1  0
  7  8  2  0
  7  9  1  0
  7 13  1  0
  8 10  1  0
  8 14  1  0
 11 15  2  0
 12 16  2  0
 13 17  2  0
 14 18  2  0
 15 16  1  0
 17 18  1  0
M  END
>  <PUBCHEM_COMPOUND_CID>  (1) 
8327

>  <PUBCHEM_CONFORMER_RMSD>  (1) 
0.4

>  <PUBCHEM_CONFORMER_DIVERSEORDER>  (1) 
1

>  <PUBCHEM_MMFF94_PARTIAL_CHARGES>  (1) 
26
1 -0.18
10 0.4
11 0.1
12 -0.15
13 -0.15
14 0.18
15 -0.15
16 -0.15
17 -0.15
18 -0.15
19 0.15
2 -0.57
20 0.15
21 0.15
22 0.15
23 0.15
24 0.15
25 0.4
26 0.4
3 -0.57
4 -0.9
5 0.09
6 0.09
7 0.09
8 0.09
9 0.4

>  <PUBCHEM_EFFECTIVE_ROTOR_COUNT>  (1) 
0

>  <PUBCHEM_PHARMACOPHORE_FEATURES>  (1) 
7
1 2 acceptor
1 3 acceptor
1 4 cation
1 4 donor
6 5 6 11 12 15 16 rings
6 5 6 7 8 9 10 rings
6 7 8 13 14 17 18 rings

>  <PUBCHEM_HEAVY_ATOM_COUNT>  (1) 
18

>  <PUBCHEM_ATOM_DEF_STEREO_COUNT>  (1) 
0

>  <PUBCHEM_ATOM_UDEF_STEREO_COUNT>  (1) 
0

>  <PUBCHEM_BOND_DEF_STEREO_COUNT>  (1) 
0

>  <PUBCHEM_BOND_UDEF_STEREO_COUNT>  (1) 
0

>  <PUBCHEM_ISOTOPIC_ATOM_COUNT>  (1) 
0

>  <PUBCHEM_COMPONENT_COUNT>  (1) 
1

>  <PUBCHEM_CACTVS_TAUTO_COUNT>  (1) 
4

>  <PUBCHEM_CONFORMER_ID>  (1) 
0000208700000001

>  <PUBCHEM_MMFF94_ENERGY>  (1) 
70.6377

>  <PUBCHEM_FEATURE_SELFOVERLAP>  (1) 
35.562

>  <PUBCHEM_SHAPE_FINGERPRINT>  (1) 
10411042 1 16320905210821690446
10608611 8 18410571781944205960
10616163 171 18339645636937351430
10863032 1 18411982459546671181
10967382 1 18338517421921524480
1100329 8 16248845811826301441
11132069 177 18338792321313848144
11471102 20 18338230458098000468
11578080 2 17314486206915480676
13132413 78 18412265068500555116
13140716 1 18338517430500903481
13221675 6 18338234868923970210
13897977 150 18410571743189299565
14223421 5 18410293644051381400
14790565 3 16244646369768577525
15196674 1 18410856576824940005
15442244 35 18338516339853614018
15536298 74 18342457032593241632
16945 1 18266459995371470854
17492 89 18410573998063766171
17804303 29 18267027163220212286
18186145 218 18270967842879889100
193761 8 18266741474648423556
19591789 44 18410576188638868806
200 152 18059562569513167237
20510252 161 18270965751283628825
21267235 1 18410865334321707567
21501502 16 18411136952290022892
221490 88 18409175419615386026
2334 1 18410855460128168292
23366157 5 18113337514316465000
23402539 116 18270388408995213638
23463225 33 18337110064381364212
23559900 14 18270396088865925186
238 59 17177671625761424429
2748010 2 18410573946496745607
335352 9 18122344571077695388
34934 24 18337382738801358339
350125 39 18410017602208709441
474 4 17531536493966334300
5104073 3 18410575093268858233
69090 78 18341045225303419495
7364860 26 18413388731225165484
7832392 63 18339641131384490171
8809292 202 18334299738425583827
9709674 26 18411704283295280694

>  <PUBCHEM_SHAPE_MULTIPOLES>  (1) 
355.58
6.5
2.87
0.6
0.25
0.11
0
0.41
0
-0.45
0
-0.02
0.02
0

>  <PUBCHEM_SHAPE_SELFOVERLAP>  (1) 
797.579

>  <PUBCHEM_SHAPE_VOLUME>  (1) 
187.9

>  <PUBCHEM_COORDINATE_TYPE>  (1) 
2
5
10

$$$$
