8333
     RDKit          3D

 16 17  0  0  0  0  0  0  0  0999 V2000
   -1.0686    2.9061   -0.3812 O   0  0  0  0  0  0  0  0  0  0  0  0
    0.8660    2.6300    0.7722 O   0  0  0  0  0  0  0  0  0  0  0  0
    0.0163    0.7712   -0.5788 C   0  0  0  0  0  0  0  0  0  0  0  0
   -1.2304    0.0021   -0.2983 C   0  0  0  0  0  0  0  0  0  0  0  0
    1.2932   -0.0088   -0.2365 C   0  0  0  0  0  0  0  0  0  0  0  0
   -1.6707   -0.9658   -1.2011 C   0  0  0  0  0  0  0  0  0  0  0  0
    2.3598    0.0719   -1.0986 C   0  0  0  0  0  0  0  0  0  0  0  0
   -1.9560    0.2504    0.8669 C   0  0  0  0  0  0  0  0  0  0  0  0
    1.3152   -0.7537    0.9174 C   0  0  0  0  0  0  0  0  0  0  0  0
    0.0214    2.1905    0.0047 C   0  0  0  0  0  0  0  0  0  0  0  0
   -2.8365   -1.6853   -0.9389 C   0  0  0  0  0  0  0  0  0  0  0  0
    3.5202   -0.6366   -0.7875 C   0  0  0  0  0  0  0  0  0  0  0  0
   -3.1218   -0.4692    1.1291 C   0  0  0  0  0  0  0  0  0  0  0  0
    2.4757   -1.4622    1.2285 C   0  0  0  0  0  0  0  0  0  0  0  0
   -3.5620   -1.4370    0.2262 C   0  0  0  0  0  0  0  0  0  0  0  0
    3.5783   -1.4036    0.3759 C   0  0  0  0  0  0  0  0  0  0  0  0
  1 10  1  0
  2 10  2  0
  3  4  1  0
  3  5  1  0
  3 10  1  0
  4  6  2  0
  4  8  1  0
  5  7  2  0
  5  9  1  0
  6 11  1  0
  7 12  1  0
  8 13  2  0
  9 14  2  0
 11 15  2  0
 12 16  2  0
 13 15  1  0
 14 16  1  0
M  END
>  <PUBCHEM_COMPOUND_CID>  (1) 
8333

>  <PUBCHEM_CONFORMER_RMSD>  (1) 
0.6

>  <PUBCHEM_CONFORMER_DIVERSEORDER>  (1) 
1
5
7
2
4
6
3

>  <PUBCHEM_MMFF94_PARTIAL_CHARGES>  (1) 
27
1 -0.65
10 0.66
11 -0.15
12 -0.15
13 -0.15
14 -0.15
15 -0.15
16 -0.15
18 0.15
19 0.15
2 -0.57
20 0.15
21 0.15
22 0.15
23 0.15
24 0.15
25 0.15
26 0.15
27 0.15
28 0.5
3 0.35
4 -0.14
5 -0.14
6 -0.15
7 -0.15
8 -0.15
9 -0.15

>  <PUBCHEM_EFFECTIVE_ROTOR_COUNT>  (1) 
3

>  <PUBCHEM_PHARMACOPHORE_FEATURES>  (1) 
5
1 1 acceptor
1 2 acceptor
3 1 2 10 anion
6 4 6 8 11 13 15 rings
6 5 7 9 12 14 16 rings

>  <PUBCHEM_HEAVY_ATOM_COUNT>  (1) 
16

>  <PUBCHEM_ATOM_DEF_STEREO_COUNT>  (1) 
0

>  <PUBCHEM_ATOM_UDEF_STEREO_COUNT>  (1) 
0

>  <PUBCHEM_BOND_DEF_STEREO_COUNT>  (1) 
0

>  <PUBCHEM_BOND_UDEF_STEREO_COUNT>  (1) 
0

>  <PUBCHEM_ISOTOPIC_ATOM_COUNT>  (1) 
0

>  <PUBCHEM_COMPONENT_COUNT>  (1) 
1

>  <PUBCHEM_CACTVS_TAUTO_COUNT>  (1) 
1

>  <PUBCHEM_CONFORMER_ID>  (1) 
0000208D00000001

>  <PUBCHEM_MMFF94_ENERGY>  (1) 
46.4634

>  <PUBCHEM_FEATURE_SELFOVERLAP>  (1) 
25.43

>  <PUBCHEM_SHAPE_FINGERPRINT>  (1) 
10618630 7 18335420136553316022
10989021 7 18270960253704312581
11578080 2 18188473748780343532
12202030 40 17241329230177909979
12423570 1 15146912522585881597
12553582 1 18410855473050545687
13538477 17 18044938965731403740
13583140 156 14117792509851836303
14787075 74 18263082287841918552
15375462 189 18334584554739040762
15906896 17 17974565797684722805
16752209 62 18193267499433834373
16945 1 18200029538672692644
18186145 218 8502383255776990970
19868273 325 18412260605923708044
200 152 17967250884264173498
20361792 2 18411974793204309783
20645477 70 18124305275890157663
20671657 53 18339634650732735711
20871998 184 18198061378499261277
21296965 67 18410011039603831965
21731516 1 18410852170183407946
22112679 90 18271260381687144477
2255824 54 18121505918646958093
228727 97 18188510020289964332
23402539 116 18334577911136913726
23419403 2 15444019020127832634
23500284 5 18187925002288433770
23557571 272 18201715094994595568
23598288 3 18192427468255376054
23598291 2 18200321055794676743
23598294 1 18268151959325702136
23728640 28 17616511983345902475
2748010 2 18267282352833963453
465052 167 18266754639557499611
6992083 37 18059591190906065835
7364860 26 17914054462785954673
74978 22 18268989959264704447
81228 2 18196646298450030377
90316 7 18341616953832617665

>  <PUBCHEM_SHAPE_MULTIPOLES>  (1) 
317.53
5.81
2.38
1.24
0.49
2.14
0.02
-4.05
0.2
-0.28
0.17
-0.01
-0.29
-0.52

>  <PUBCHEM_SHAPE_SELFOVERLAP>  (1) 
686.23

>  <PUBCHEM_SHAPE_VOLUME>  (1) 
173

>  <PUBCHEM_COORDINATE_TYPE>  (1) 
2
5
10

$$$$
