8334
     RDKit          3D

 24 26  0  0  1  0  0  0  0  0999 V2000
   -1.0022   -2.0117   -0.6937 O   0  0  0  0  0  0  0  0  0  0  0  0
   -0.8279    2.7856    0.0966 O   0  0  0  0  0  0  0  0  0  0  0  0
   -3.0518   -0.8883    0.1913 C   0  0  0  0  0  0  0  0  0  0  0  0
   -4.7957    1.4220    0.1368 C   0  0  0  0  0  0  0  0  0  0  0  0
   -2.2351   -2.1725    0.0429 C   0  0  0  0  0  0  0  0  0  0  0  0
   -2.4924    0.3256    0.0127 C   0  0  0  0  0  0  0  0  0  0  0  0
   -3.2711    1.6148    0.1319 C   0  0  0  0  0  0  0  0  0  0  0  0
   -4.5102   -1.0322    0.5812 C   0  0  0  0  0  0  0  0  0  0  0  0
   -5.1656    0.2634    1.0600 C   0  0  0  0  0  0  0  0  0  0  0  0
   -1.0512    0.3808   -0.2900 C   0  0  0  0  0  0  0  0  0  0  0  0
   -0.3821   -0.7975   -0.6312 C   0  0  0  0  0  0  0  0  0  0  0  0
   -5.5051    2.7085    0.5533 C   0  0  0  0  0  0  0  0  0  0  0  0
   -1.8612   -2.7393    1.4225 C   0  0  0  0  0  0  0  0  0  0  0  0
   -3.0019   -3.2428   -0.7523 C   0  0  0  0  0  0  0  0  0  0  0  0
   -0.3137    1.5758   -0.2708 C   0  0  0  0  0  0  0  0  0  0  0  0
    0.9740   -0.7853   -0.9744 C   0  0  0  0  0  0  0  0  0  0  0  0
    1.6887    0.4082   -0.9526 C   0  0  0  0  0  0  0  0  0  0  0  0
    1.0455    1.5885   -0.5965 C   0  0  0  0  0  0  0  0  0  0  0  0
    3.1366    0.4206   -1.3066 C   0  0  0  0  0  0  0  0  0  0  0  0
    4.0372    0.1971   -0.0820 C   0  0  0  0  0  0  0  0  0  0  0  0
    5.5188    0.1713   -0.4623 C   0  0  0  0  0  0  0  0  0  0  0  0
    6.4057   -0.0180    0.7692 C   0  0  0  0  0  0  0  0  0  0  0  0
    7.8875   -0.0102    0.3939 C   0  0  0  0  0  0  0  0  0  0  0  0
    8.7732   -0.1642    1.6200 C   0  0  0  0  0  0  0  0  0  0  0  0
  1  5  1  0
  1 11  1  0
  2 15  1  0
  3  5  1  0
  3  6  2  0
  3  8  1  0
  4  7  1  0
  4  9  1  0
  4 12  1  0
  5 13  1  0
  5 14  1  0
  6  7  1  0
  6 10  1  0
  8  9  1  0
 10 11  2  0
 10 15  1  0
 11 16  1  0
 15 18  2  0
 16 17  2  0
 17 18  1  0
 17 19  1  0
 19 20  1  0
 20 21  1  0
 21 22  1  0
 22 23  1  0
 23 24  1  0
M  END
>  <PUBCHEM_COMPOUND_CID>  (1) 
8334

>  <PUBCHEM_CONFORMER_RMSD>  (1) 
0.8

>  <PUBCHEM_CONFORMER_DIVERSEORDER>  (1) 
1
29
37
30
13
20
22
34
12
40
4
15
5
31
35
33
32
23
11
19
26
25
38
16
24
39
6
17
14
3
21
7
2
36
8
28
27
10
18
9

>  <PUBCHEM_MMFF94_PARTIAL_CHARGES>  (1) 
17
1 -0.36
10 0.03
11 0.08
15 0.08
16 -0.15
17 -0.14
18 -0.15
19 0.14
2 -0.53
3 -0.28
41 0.15
42 0.15
49 0.45
5 0.42
6 -0.17
7 0.14
8 0.14

>  <PUBCHEM_EFFECTIVE_ROTOR_COUNT>  (1) 
6.2

>  <PUBCHEM_PHARMACOPHORE_FEATURES>  (1) 
8
1 1 acceptor
1 2 donor
1 24 hydrophobe
3 5 13 14 hydrophobe
5 19 20 21 22 23 hydrophobe
6 1 3 5 6 10 11 rings
6 10 11 15 16 17 18 rings
6 3 4 6 7 8 9 rings

>  <PUBCHEM_HEAVY_ATOM_COUNT>  (1) 
24

>  <PUBCHEM_ATOM_DEF_STEREO_COUNT>  (1) 
0

>  <PUBCHEM_ATOM_UDEF_STEREO_COUNT>  (1) 
1

>  <PUBCHEM_BOND_DEF_STEREO_COUNT>  (1) 
0

>  <PUBCHEM_BOND_UDEF_STEREO_COUNT>  (1) 
0

>  <PUBCHEM_ISOTOPIC_ATOM_COUNT>  (1) 
0

>  <PUBCHEM_COMPONENT_COUNT>  (1) 
1

>  <PUBCHEM_CACTVS_TAUTO_COUNT>  (1) 
20

>  <PUBCHEM_CONFORMER_ID>  (1) 
0000208E00000001

>  <PUBCHEM_MMFF94_ENERGY>  (1) 
52.9111

>  <PUBCHEM_FEATURE_SELFOVERLAP>  (1) 
40.642

>  <PUBCHEM_SHAPE_FINGERPRINT>  (1) 
10 15 18202277027542142144
10299344 5 17967814951858196274
10319926 262 18271235119359396936
10411042 1 17980761859799665679
10577160 183 17968639554480678815
10838868 229 17976253540172172082
11045977 3 18131348631297282088
11135609 201 17773610317341091009
11315181 36 18335415820432651326
11578080 2 12749864745176292321
12035758 1 18270136672635466945
12107183 9 18334014969504557396
12236239 1 17822297902930206100
12616971 3 17168148962080321078
12838862 33 18339357466914137421
13140716 1 18268156524760230981
13540713 5 18118133690651865012
13627175 4 16588853562149437810
13668630 136 14851605475746016920
13673619 4 12107798401342971788
14394314 77 18261391118346270512
14466204 15 18411987974321602563
14844126 61 18338799025732177163
14866123 147 18261679284919192187
15021287 119 16950287308114953164
15348495 7 18201433740445826536
16945 1 18341057423527693359
17093844 174 18130782382808717538
17780758 139 18334008415610868834
1813 80 17022629650321893782
20554085 129 18057591093503703321
20642791 35 18193564363295106766
21150785 3 11239994564824583792
21403212 168 18113899317387056745
22122407 14 15698005167020602938
22182313 1 17914085107662773887
23198884 109 11095887077630286344
23366157 5 17756434016299461069
23402539 116 18342458140716059421
23522609 53 17677921031329936204
23559900 14 18128561300680268470
2838139 119 14620794912042093834
312425 54 18334847334799025490
335352 9 18410298012244573357
3383291 50 18262243317046324603
34934 24 18411141307577031751
4409770 3 17896024473756770389
5104073 3 18266475217400349771
5364581 5 18127682945625081376
5486654 36 17750240364299676202
559249 180 18259983777426257750
58260988 114 16516263945368189307
7226269 152 18272371944909075657
9953998 17 18411692198127299896
9981440 41 18411147926438665771

>  <PUBCHEM_SHAPE_MULTIPOLES>  (1) 
482.17
17.18
2.83
1.16
44.48
0.93
-0.15
-2.74
-8.85
-5.43
-0.13
0.93
0.29
-0.7

>  <PUBCHEM_SHAPE_SELFOVERLAP>  (1) 
1009.735

>  <PUBCHEM_SHAPE_VOLUME>  (1) 
273.3

>  <PUBCHEM_COORDINATE_TYPE>  (1) 
2
5
10

$$$$
