8342
     RDKit          3D

 14 15  0  0  0  0  0  0  0  0999 V2000
   -3.2137   -1.6112    0.0001 Cl  0  0  0  0  0  0  0  0  0  0  0  0
   -3.2135    1.6112    0.0005 Cl  0  0  0  0  0  0  0  0  0  0  0  0
   -0.4893   -2.6758   -0.0003 O   0  0  0  0  0  0  0  0  0  0  0  0
   -0.4893    2.6758   -0.0010 O   0  0  0  0  0  0  0  0  0  0  0  0
    0.7739   -0.6974    0.0000 C   0  0  0  0  0  0  0  0  0  0  0  0
    0.7740    0.6974    0.0001 C   0  0  0  0  0  0  0  0  0  0  0  0
   -0.4952   -1.4500   -0.0004 C   0  0  0  0  0  0  0  0  0  0  0  0
   -0.4951    1.4500    0.0000 C   0  0  0  0  0  0  0  0  0  0  0  0
    1.9884   -1.3952    0.0001 C   0  0  0  0  0  0  0  0  0  0  0  0
    1.9885    1.3952    0.0001 C   0  0  0  0  0  0  0  0  0  0  0  0
   -1.7602   -0.6694    0.0000 C   0  0  0  0  0  0  0  0  0  0  0  0
   -1.7602    0.6694    0.0004 C   0  0  0  0  0  0  0  0  0  0  0  0
    3.1959   -0.6965    0.0002 C   0  0  0  0  0  0  0  0  0  0  0  0
    3.1959    0.6964    0.0003 C   0  0  0  0  0  0  0  0  0  0  0  0
  1 11  1  0
  2 12  1  0
  3  7  2  0
  4  8  2  0
  5  6  2  0
  5  7  1  0
  5  9  1  0
  6  8  1  0
  6 10  1  0
  7 11  1  0
  8 12  1  0
  9 13  2  0
 10 14  2  0
 11 12  2  0
 13 14  1  0
M  END
>  <PUBCHEM_COMPOUND_CID>  (1) 
8342

>  <PUBCHEM_CONFORMER_RMSD>  (1) 
0.4

>  <PUBCHEM_CONFORMER_DIVERSEORDER>  (1) 
1

>  <PUBCHEM_MMFF94_PARTIAL_CHARGES>  (1) 
18
1 -0.14
10 -0.15
11 0.15
12 0.15
13 -0.15
14 -0.15
15 0.15
16 0.15
17 0.15
18 0.15
2 -0.14
3 -0.57
4 -0.57
5 0.09
6 0.09
7 0.47
8 0.47
9 -0.15

>  <PUBCHEM_EFFECTIVE_ROTOR_COUNT>  (1) 
0

>  <PUBCHEM_PHARMACOPHORE_FEATURES>  (1) 
4
1 3 acceptor
1 4 acceptor
6 5 6 7 8 11 12 rings
6 5 6 9 10 13 14 rings

>  <PUBCHEM_HEAVY_ATOM_COUNT>  (1) 
14

>  <PUBCHEM_ATOM_DEF_STEREO_COUNT>  (1) 
0

>  <PUBCHEM_ATOM_UDEF_STEREO_COUNT>  (1) 
0

>  <PUBCHEM_BOND_DEF_STEREO_COUNT>  (1) 
0

>  <PUBCHEM_BOND_UDEF_STEREO_COUNT>  (1) 
0

>  <PUBCHEM_ISOTOPIC_ATOM_COUNT>  (1) 
0

>  <PUBCHEM_COMPONENT_COUNT>  (1) 
1

>  <PUBCHEM_CACTVS_TAUTO_COUNT>  (1) 
1

>  <PUBCHEM_CONFORMER_ID>  (1) 
0000209600000001

>  <PUBCHEM_MMFF94_ENERGY>  (1) 
36.4685

>  <PUBCHEM_FEATURE_SELFOVERLAP>  (1) 
20.319

>  <PUBCHEM_SHAPE_FINGERPRINT>  (1) 
10608611 8 18412259566700202744
10967382 1 18194682570671844103
11132069 177 18341326704279724448
11471102 20 18193833739448573733
12032990 46 18338523035444137639
12382932 28 18412262830764383224
13140716 1 18410855417363105609
13380535 76 18266736883639678975
13897977 150 18339077090710017669
14325111 11 18410575084715995328
14790565 3 15595562917489594153
15196674 1 18410855460481570180
15775835 57 18335426716395396384
16945 1 18410855460518493446
193761 8 17545883728674955745
20510252 161 18272090525698101833
20588541 1 18267587892696685925
20645476 183 17896060826317174062
20871998 184 18273496783974443631
21267235 1 18410302440176526306
21501502 16 18410012139231445740
22802520 49 18057902254946282046
2334 1 18410856594199968519
23402539 116 18271232923813690806
23402655 69 18196920099222335085
23463225 33 18408604759841941584
23552423 10 18261112993301053980
23559900 14 18343302532003682550
2748010 2 18410856564082456567
335352 9 18050285873322953591
528886 8 18339073800659476585
53812653 166 18342172245843480576
7364860 26 17837489652684508950
8809292 202 18335145237065871730

>  <PUBCHEM_SHAPE_MULTIPOLES>  (1) 
280.11
4.95
2.58
0.61
0.12
0
0
0
0
-1.09
0
-0.01
0
0

>  <PUBCHEM_SHAPE_SELFOVERLAP>  (1) 
598.18

>  <PUBCHEM_SHAPE_VOLUME>  (1) 
157.4

>  <PUBCHEM_COORDINATE_TYPE>  (1) 
2
5
10

$$$$
