835
     RDKit          3D

 12 12  0  0  1  0  0  0  0  0999 V2000
    0.1542   -1.0942   -0.5943 O   0  0  0  0  0  0  0  0  0  0  0  0
   -1.3605    0.1731    1.3741 O   0  0  0  0  0  0  0  0  0  0  0  0
   -3.9045   -0.2698    0.3023 O   0  0  0  0  0  0  0  0  0  0  0  0
    0.8141    2.3467   -0.2294 O   0  0  0  0  0  0  0  0  0  0  0  0
    2.9164    0.5909    0.5348 O   0  0  0  0  0  0  0  0  0  0  0  0
    2.0807   -2.1525    0.1755 O   0  0  0  0  0  0  0  0  0  0  0  0
   -0.3564    0.2617   -0.8027 C   0  0  0  0  0  0  0  0  0  0  0  0
   -1.6278    0.4454   -0.0036 C   0  0  0  0  0  0  0  0  0  0  0  0
    0.7512    1.1415   -0.3117 C   0  0  0  0  0  0  0  0  0  0  0  0
   -2.7290   -0.5054   -0.4655 C   0  0  0  0  0  0  0  0  0  0  0  0
    1.8468    0.2399    0.1059 C   0  0  0  0  0  0  0  0  0  0  0  0
    1.4146   -1.1775   -0.0853 C   0  0  0  0  0  0  0  0  0  0  0  0
  1  7  1  0
  1 12  1  0
  2  8  1  0
  3 10  1  0
  4  9  2  0
  5 11  2  0
  6 12  2  0
  7  8  1  0
  7  9  1  0
  8 10  1  0
  9 11  1  0
 11 12  1  0
M  END
>  <PUBCHEM_COMPOUND_CID>  (1) 
835

>  <PUBCHEM_CONFORMER_RMSD>  (1) 
0.6

>  <PUBCHEM_CONFORMER_DIVERSEORDER>  (1) 
2
10
4
9
6
5
8
7
1
3

>  <PUBCHEM_MMFF94_PARTIAL_CHARGES>  (1) 
14
1 -0.43
10 0.28
11 0.57
12 0.72
17 0.4
18 0.4
2 -0.68
3 -0.68
4 -0.57
5 -0.57
6 -0.57
7 0.34
8 0.28
9 0.51

>  <PUBCHEM_EFFECTIVE_ROTOR_COUNT>  (1) 
2.4

>  <PUBCHEM_PHARMACOPHORE_FEATURES>  (1) 
9
1 11 anion
1 2 acceptor
1 2 donor
1 3 acceptor
1 3 donor
1 4 acceptor
1 5 acceptor
1 6 acceptor
5 1 7 9 11 12 rings

>  <PUBCHEM_HEAVY_ATOM_COUNT>  (1) 
12

>  <PUBCHEM_ATOM_DEF_STEREO_COUNT>  (1) 
0

>  <PUBCHEM_ATOM_UDEF_STEREO_COUNT>  (1) 
2

>  <PUBCHEM_BOND_DEF_STEREO_COUNT>  (1) 
0

>  <PUBCHEM_BOND_UDEF_STEREO_COUNT>  (1) 
0

>  <PUBCHEM_ISOTOPIC_ATOM_COUNT>  (1) 
0

>  <PUBCHEM_COMPONENT_COUNT>  (1) 
1

>  <PUBCHEM_CACTVS_TAUTO_COUNT>  (1) 
2

>  <PUBCHEM_CONFORMER_ID>  (1) 
0000034300000002

>  <PUBCHEM_MMFF94_ENERGY>  (1) 
22.7919

>  <PUBCHEM_FEATURE_SELFOVERLAP>  (1) 
45.685

>  <PUBCHEM_SHAPE_FINGERPRINT>  (1) 
10219947 1 18409163341956184084
12423570 1 13730310073754073540
15207287 21 17749658683904069819
161256 15 18269837523868320110
16945 1 18337666515938529557
20201158 50 18187081771575325379
20645477 70 18338508656595393983
20711985 344 17098615670023946564
20871998 22 18126568912280178630
2748010 2 18194951959821717236
29004967 10 18333731303798736928
5084963 1 18131356353073324180
528862 383 18411411830271008326

>  <PUBCHEM_SHAPE_MULTIPOLES>  (1) 
211.74
4.27
1.7
0.85
3.18
0.08
-0.11
-0.82
-0.68
-1.26
0.11
0.22
0.03
-0.06

>  <PUBCHEM_SHAPE_SELFOVERLAP>  (1) 
437.856

>  <PUBCHEM_SHAPE_VOLUME>  (1) 
119.8

>  <PUBCHEM_COORDINATE_TYPE>  (1) 
2
5
10

$$$$
