8352
     RDKit          3D

 14 15  0  0  0  0  0  0  0  0999 V2000
    2.7973    1.4091   -0.0270 O   0  0  0  0  0  0  0  0  0  0  0  0
    2.1560   -1.6321    1.2045 O   0  0  0  0  0  0  0  0  0  0  0  0
    2.2582   -1.7609   -1.0625 O   0  0  0  0  0  0  0  0  0  0  0  0
   -0.7625    2.1452    0.0105 N   0  0  0  0  0  0  0  0  0  0  0  0
   -0.4820   -0.2480   -0.0162 C   0  0  0  0  0  0  0  0  0  0  0  0
   -1.2914    0.9071    0.0022 C   0  0  0  0  0  0  0  0  0  0  0  0
    0.9090   -0.0788   -0.0260 C   0  0  0  0  0  0  0  0  0  0  0  0
   -1.0681   -1.5252   -0.0241 C   0  0  0  0  0  0  0  0  0  0  0  0
    1.4571    1.1957   -0.0177 C   0  0  0  0  0  0  0  0  0  0  0  0
   -2.6733    0.7382    0.0120 C   0  0  0  0  0  0  0  0  0  0  0  0
   -2.4529   -1.6647   -0.0138 C   0  0  0  0  0  0  0  0  0  0  0  0
    0.5850    2.2652    0.0004 C   0  0  0  0  0  0  0  0  0  0  0  0
   -3.2562   -0.5314    0.0041 C   0  0  0  0  0  0  0  0  0  0  0  0
    1.8237   -1.2193   -0.0462 C   0  0  0  0  0  0  0  0  0  0  0  0
  1  9  1  0
  2 14  1  0
  3 14  2  0
  4  6  2  0
  4 12  1  0
  5  6  1  0
  5  7  2  0
  5  8  1  0
  6 10  1  0
  7  9  1  0
  7 14  1  0
  8 11  2  0
  9 12  2  0
 10 13  2  0
 11 13  1  0
M  END
>  <PUBCHEM_COMPOUND_CID>  (1) 
8352

>  <PUBCHEM_CONFORMER_RMSD>  (1) 
0.4

>  <PUBCHEM_CONFORMER_DIVERSEORDER>  (1) 
1
2
3

>  <PUBCHEM_MMFF94_PARTIAL_CHARGES>  (1) 
20
1 -0.53
10 -0.15
11 -0.15
12 0.16
13 -0.15
14 0.63
15 0.15
16 0.15
17 0.15
18 0.15
19 0.15
2 -0.65
20 0.45
21 0.5
3 -0.57
4 -0.62
6 0.31
7 0.09
8 -0.15
9 0.08

>  <PUBCHEM_EFFECTIVE_ROTOR_COUNT>  (1) 
1

>  <PUBCHEM_PHARMACOPHORE_FEATURES>  (1) 
7
1 1 donor
1 2 acceptor
1 3 acceptor
1 4 acceptor
3 2 3 14 anion
6 4 5 6 7 9 12 rings
6 5 6 8 10 11 13 rings

>  <PUBCHEM_HEAVY_ATOM_COUNT>  (1) 
14

>  <PUBCHEM_ATOM_DEF_STEREO_COUNT>  (1) 
0

>  <PUBCHEM_ATOM_UDEF_STEREO_COUNT>  (1) 
0

>  <PUBCHEM_BOND_DEF_STEREO_COUNT>  (1) 
0

>  <PUBCHEM_BOND_UDEF_STEREO_COUNT>  (1) 
0

>  <PUBCHEM_ISOTOPIC_ATOM_COUNT>  (1) 
0

>  <PUBCHEM_COMPONENT_COUNT>  (1) 
1

>  <PUBCHEM_CACTVS_TAUTO_COUNT>  (1) 
4

>  <PUBCHEM_CONFORMER_ID>  (1) 
000020A000000001

>  <PUBCHEM_MMFF94_ENERGY>  (1) 
48.3689

>  <PUBCHEM_FEATURE_SELFOVERLAP>  (1) 
35.609

>  <PUBCHEM_SHAPE_FINGERPRINT>  (1) 
10967382 1 18338799034585114975
11578080 2 17024851677532741006
12382932 28 18340198682595799193
12423570 1 8040040621957161499
12524768 44 18412829088006152599
13140716 1 18338517426559474561
13380535 21 18338814406215025589
13380535 76 18265611176695277762
15001771 113 18270130014861352777
161256 15 18411142428537037636
16945 1 18195247938997977069
17990270 104 18413109489135635167
193761 8 18338798918378781620
20201158 50 18265049313684937487
20588541 1 18265054811095500261
20645476 183 17029664570286992516
20645477 70 18339637949610854839
20871998 22 18341616966775593654
21501502 16 18411417319381507465
2334 1 18410573998342379585
23463225 33 18335696208571788744
23552423 10 18261678172284447215
23559900 14 17335058959110512238
241688 4 18337956671107624465
2748010 2 18410290281371745517
528886 8 18195805399687808121
53812653 166 18198340847758224585
63268167 104 18410858793439677529
7364860 26 18271809072401786608
81228 2 18051694339049046145

>  <PUBCHEM_SHAPE_MULTIPOLES>  (1) 
265.52
4.17
2.43
0.73
1.19
0.37
-0.03
-0.94
0.01
-0.8
0.01
-0.27
-0.26
-0.01

>  <PUBCHEM_SHAPE_SELFOVERLAP>  (1) 
589.529

>  <PUBCHEM_SHAPE_VOLUME>  (1) 
141.6

>  <PUBCHEM_COORDINATE_TYPE>  (1) 
2
5
10

$$$$
