8354
     RDKit          3D

 13 14  0  0  0  0  0  0  0  0999 V2000
   -1.0260    2.3150    0.1875 O   0  0  0  0  0  0  0  0  0  0  0  0
   -1.0191   -2.3182    0.1863 O   0  0  0  0  0  0  0  0  0  0  0  0
   -3.4775    0.0020   -0.9197 O   0  0  0  0  0  0  0  0  0  0  0  0
   -1.4497   -0.0013    0.2323 N   0  0  0  0  0  0  0  0  0  0  0  0
    0.6973    0.6938    0.0407 C   0  0  0  0  0  0  0  0  0  0  0  0
    0.6982   -0.6932    0.0404 C   0  0  0  0  0  0  0  0  0  0  0  0
   -0.6881    1.1462    0.1606 C   0  0  0  0  0  0  0  0  0  0  0  0
   -0.6869   -1.1477    0.1603 C   0  0  0  0  0  0  0  0  0  0  0  0
   -2.8927   -0.0023    0.3684 C   0  0  0  0  0  0  0  0  0  0  0  0
    1.8631    1.4247   -0.0617 C   0  0  0  0  0  0  0  0  0  0  0  0
    1.8649   -1.4226   -0.0623 C   0  0  0  0  0  0  0  0  0  0  0  0
    3.0578    0.7068   -0.1662 C   0  0  0  0  0  0  0  0  0  0  0  0
    3.0587   -0.7031   -0.1667 C   0  0  0  0  0  0  0  0  0  0  0  0
  1  7  2  0
  2  8  2  0
  3  9  1  0
  4  7  1  0
  4  8  1  0
  4  9  1  0
  5  6  2  0
  5  7  1  0
  5 10  1  0
  6  8  1  0
  6 11  1  0
 10 12  2  0
 11 13  2  0
 12 13  1  0
M  END
>  <PUBCHEM_COMPOUND_CID>  (1) 
8354

>  <PUBCHEM_CONFORMER_RMSD>  (1) 
0.4

>  <PUBCHEM_CONFORMER_DIVERSEORDER>  (1) 
1
2

>  <PUBCHEM_MMFF94_PARTIAL_CHARGES>  (1) 
18
1 -0.57
10 -0.15
11 -0.15
12 -0.15
13 -0.15
16 0.15
17 0.15
18 0.15
19 0.15
2 -0.57
20 0.4
3 -0.68
4 -0.42
5 0.09
6 0.09
7 0.54
8 0.54
9 0.58

>  <PUBCHEM_EFFECTIVE_ROTOR_COUNT>  (1) 
1.2

>  <PUBCHEM_PHARMACOPHORE_FEATURES>  (1) 
6
1 1 acceptor
1 2 acceptor
1 3 acceptor
1 3 donor
5 4 5 6 7 8 rings
6 5 6 10 11 12 13 rings

>  <PUBCHEM_HEAVY_ATOM_COUNT>  (1) 
13

>  <PUBCHEM_ATOM_DEF_STEREO_COUNT>  (1) 
0

>  <PUBCHEM_ATOM_UDEF_STEREO_COUNT>  (1) 
0

>  <PUBCHEM_BOND_DEF_STEREO_COUNT>  (1) 
0

>  <PUBCHEM_BOND_UDEF_STEREO_COUNT>  (1) 
0

>  <PUBCHEM_ISOTOPIC_ATOM_COUNT>  (1) 
0

>  <PUBCHEM_COMPONENT_COUNT>  (1) 
1

>  <PUBCHEM_CACTVS_TAUTO_COUNT>  (1) 
1

>  <PUBCHEM_CONFORMER_ID>  (1) 
000020A200000001

>  <PUBCHEM_MMFF94_ENERGY>  (1) 
28.3211

>  <PUBCHEM_FEATURE_SELFOVERLAP>  (1) 
30.538

>  <PUBCHEM_SHAPE_FINGERPRINT>  (1) 
10967382 1 18410858780327805210
11206711 2 18265057937684012084
11471102 20 18410008827869786869
12032990 46 18337681892137967339
12423570 1 12171460210633070290
12524768 44 18341059578825802766
12897270 3 18411142467323482068
13380535 76 18411698807375313622
13897977 150 18268147745852346168
14325111 11 18410577266622711249
14911166 2 18410014329670178198
16945 1 18410581686333748570
17844478 74 17967543384553483489
18186145 218 18408885101247986213
193761 8 17617660955853514257
20201158 50 18411702084340226566
20588541 1 18412549842085683584
21040471 1 18338522911385626960
21501502 16 18267589005072266016
2334 1 17978514466020097274
23402539 116 18341883074322071452
23402655 69 18341322336809713589
23552423 10 18117001181190851022
23559900 14 18198354034426454156
2748010 2 18051700133223587816
353137 74 18336261262790055817
5084963 1 18130786690175495314
528886 8 18339640148116619354
53812654 25 18201141209490260878

>  <PUBCHEM_SHAPE_MULTIPOLES>  (1) 
244.94
4.57
1.96
0.67
0.72
0
-0.04
0
-0.65
0.03
0.12
0.18
0
0

>  <PUBCHEM_SHAPE_SELFOVERLAP>  (1) 
539.498

>  <PUBCHEM_SHAPE_VOLUME>  (1) 
134.6

>  <PUBCHEM_COORDINATE_TYPE>  (1) 
2
5
10

$$$$
