8358
     RDKit          3D

 12 13  0  0  0  0  0  0  0  0999 V2000
   -3.4399   -0.9505   -0.0002 O   0  0  0  0  0  0  0  0  0  0  0  0
    1.4208   -2.4934    0.0009 N   0  0  0  0  0  0  0  0  0  0  0  0
    0.1861   -0.3631   -0.0001 C   0  0  0  0  0  0  0  0  0  0  0  0
    0.2177    1.0519    0.0003 C   0  0  0  0  0  0  0  0  0  0  0  0
    1.3955   -1.0769   -0.0003 C   0  0  0  0  0  0  0  0  0  0  0  0
   -1.0539   -1.0223   -0.0002 C   0  0  0  0  0  0  0  0  0  0  0  0
    1.4577    1.7112    0.0002 C   0  0  0  0  0  0  0  0  0  0  0  0
   -0.9917    1.7657    0.0004 C   0  0  0  0  0  0  0  0  0  0  0  0
    2.6185   -0.4056   -0.0005 C   0  0  0  0  0  0  0  0  0  0  0  0
   -2.2457   -0.2971   -0.0002 C   0  0  0  0  0  0  0  0  0  0  0  0
    2.6495    0.9858   -0.0002 C   0  0  0  0  0  0  0  0  0  0  0  0
   -2.2147    1.0943    0.0001 C   0  0  0  0  0  0  0  0  0  0  0  0
  1 10  1  0
  2  5  1  0
  3  4  1  0
  3  5  2  0
  3  6  1  0
  4  7  2  0
  4  8  1  0
  5  9  1  0
  6 10  2  0
  7 11  1  0
  8 12  2  0
  9 11  2  0
 10 12  1  0
M  END
>  <PUBCHEM_COMPOUND_CID>  (1) 
8358

>  <PUBCHEM_CONFORMER_RMSD>  (1) 
0.4

>  <PUBCHEM_CONFORMER_DIVERSEORDER>  (1) 
1

>  <PUBCHEM_MMFF94_PARTIAL_CHARGES>  (1) 
19
1 -0.53
10 0.08
11 -0.15
12 -0.15
13 0.15
14 0.15
15 0.15
16 0.15
17 0.15
18 0.15
19 0.4
2 -0.9
20 0.4
21 0.45
5 0.1
6 -0.15
7 -0.15
8 -0.15
9 -0.15

>  <PUBCHEM_EFFECTIVE_ROTOR_COUNT>  (1) 
0

>  <PUBCHEM_PHARMACOPHORE_FEATURES>  (1) 
5
1 1 donor
1 2 cation
1 2 donor
6 3 4 5 7 9 11 rings
6 3 4 6 8 10 12 rings

>  <PUBCHEM_HEAVY_ATOM_COUNT>  (1) 
12

>  <PUBCHEM_ATOM_DEF_STEREO_COUNT>  (1) 
0

>  <PUBCHEM_ATOM_UDEF_STEREO_COUNT>  (1) 
0

>  <PUBCHEM_BOND_DEF_STEREO_COUNT>  (1) 
0

>  <PUBCHEM_BOND_UDEF_STEREO_COUNT>  (1) 
0

>  <PUBCHEM_ISOTOPIC_ATOM_COUNT>  (1) 
0

>  <PUBCHEM_COMPONENT_COUNT>  (1) 
1

>  <PUBCHEM_CACTVS_TAUTO_COUNT>  (1) 
5

>  <PUBCHEM_CONFORMER_ID>  (1) 
000020A600000001

>  <PUBCHEM_MMFF94_ENERGY>  (1) 
46.7635

>  <PUBCHEM_FEATURE_SELFOVERLAP>  (1) 
25.398

>  <PUBCHEM_SHAPE_FINGERPRINT>  (1) 
10967382 1 18338517572229562086
11206711 2 18408326561914936636
11471102 20 18410288142646726741
12423570 1 7877621107947181208
12524768 44 18124598574230819127
12897270 3 18410011048104147765
13380535 76 18335980973261365618
14325111 11 18410856581146677316
16945 1 18410573985177961316
17844478 74 18113627802297230185
17990270 104 18338234856170976162
193761 8 18194401091384556260
19973954 147 18339080367606456193
20201158 50 18407758148952992483
20645477 70 18412258437714777839
21040471 1 18122344854978287008
21501502 16 18337955584391143081
2334 1 17762337319977019015
23402655 69 18340471280708896901
23463225 33 18334852793143308360
23552423 10 18335144146001467812
23559900 14 17405144024972143534
241688 4 17976541611400049272
2748010 2 18194681466875805220
5084963 1 18202005455699595904
528886 8 18267298914290686064
63268167 104 18338519616655289113
7364860 26 18271242716776819326
8809292 202 18187089497995027579

>  <PUBCHEM_SHAPE_MULTIPOLES>  (1) 
236.1
4.09
2.1
0.6
1.3
0.33
0
0.4
0
-0.51
0
-0.02
-0.03
0

>  <PUBCHEM_SHAPE_SELFOVERLAP>  (1) 
520.919

>  <PUBCHEM_SHAPE_VOLUME>  (1) 
127.9

>  <PUBCHEM_COORDINATE_TYPE>  (1) 
2
5
10

$$$$
