836
     RDKit          3D

 14 14  0  0  1  0  0  0  0  0999 V2000
    2.5148    2.0515   -0.5368 O   0  0  0  0  0  0  0  0  0  0  0  0
   -1.8436    1.4399    1.2340 O   0  0  0  0  0  0  0  0  0  0  0  0
    4.0478    0.0288    0.5969 O   0  0  0  0  0  0  0  0  0  0  0  0
   -3.5143    1.3722   -0.3074 O   0  0  0  0  0  0  0  0  0  0  0  0
   -3.5547   -1.3792    0.0196 N   0  0  0  0  0  0  0  0  0  0  0  0
   -1.3103   -0.9622   -0.8713 C   0  0  0  0  0  0  0  0  0  0  0  0
   -2.2986   -0.6682    0.2656 C   0  0  0  0  0  0  0  0  0  0  0  0
    0.1250   -0.6933   -0.4794 C   0  0  0  0  0  0  0  0  0  0  0  0
    0.6602    0.5659   -0.6918 C   0  0  0  0  0  0  0  0  0  0  0  0
    0.8747   -1.7120    0.0841 C   0  0  0  0  0  0  0  0  0  0  0  0
    1.9843    0.8141   -0.3298 C   0  0  0  0  0  0  0  0  0  0  0  0
   -2.6377    0.8076    0.3315 C   0  0  0  0  0  0  0  0  0  0  0  0
    2.1988   -1.4640    0.4458 C   0  0  0  0  0  0  0  0  0  0  0  0
    2.7536   -0.2010    0.2390 C   0  0  0  0  0  0  0  0  0  0  0  0
  1 11  1  0
  2 12  1  0
  3 14  1  0
  4 12  2  0
  5  7  1  0
  6  7  1  0
  6  8  1  0
  7 12  1  0
  8  9  2  0
  8 10  1  0
  9 11  1  0
 10 13  2  0
 11 14  2  0
 13 14  1  0
M  END
>  <PUBCHEM_COMPOUND_CID>  (1) 
836

>  <PUBCHEM_CONFORMER_RMSD>  (1) 
0.6

>  <PUBCHEM_CONFORMER_DIVERSEORDER>  (1) 
3
18
12
31
16
19
7
28
22
14
11
29
10
25
1
24
6
17
32
9
26
21
20
2
15
8
5
13
30
23
27
4

>  <PUBCHEM_MMFF94_PARTIAL_CHARGES>  (1) 
22
1 -0.53
10 -0.15
11 0.08
12 0.66
13 -0.15
14 0.08
18 0.15
19 0.15
2 -0.65
20 0.15
21 0.36
22 0.36
23 0.45
24 0.5
25 0.45
3 -0.53
4 -0.57
5 -0.99
6 0.14
7 0.33
8 -0.14
9 -0.15

>  <PUBCHEM_EFFECTIVE_ROTOR_COUNT>  (1) 
3

>  <PUBCHEM_PHARMACOPHORE_FEATURES>  (1) 
8
1 1 donor
1 2 acceptor
1 3 donor
1 4 acceptor
1 5 cation
1 5 donor
3 2 4 12 anion
6 8 9 10 11 13 14 rings

>  <PUBCHEM_HEAVY_ATOM_COUNT>  (1) 
14

>  <PUBCHEM_ATOM_DEF_STEREO_COUNT>  (1) 
0

>  <PUBCHEM_ATOM_UDEF_STEREO_COUNT>  (1) 
1

>  <PUBCHEM_BOND_DEF_STEREO_COUNT>  (1) 
0

>  <PUBCHEM_BOND_UDEF_STEREO_COUNT>  (1) 
0

>  <PUBCHEM_ISOTOPIC_ATOM_COUNT>  (1) 
0

>  <PUBCHEM_COMPONENT_COUNT>  (1) 
1

>  <PUBCHEM_CACTVS_TAUTO_COUNT>  (1) 
18

>  <PUBCHEM_CONFORMER_ID>  (1) 
0000034400000003

>  <PUBCHEM_MMFF94_ENERGY>  (1) 
26.761

>  <PUBCHEM_FEATURE_SELFOVERLAP>  (1) 
40.656

>  <PUBCHEM_SHAPE_FINGERPRINT>  (1) 
11471102 22 17968104118008433090
12162725 195 18409167731402165651
12251169 10 18334859389843868231
12382932 28 18338513045376256242
12696612 119 18334861597483386942
13764800 53 17345772797615040531
14144814 61 18409165489313302990
14325111 11 18409450314337923021
15375462 478 18341891917797098215
15442244 35 18194682557882167170
15775835 57 18341619204458745241
16945 1 18265341598783095918
200 152 18340472461576924831
20559304 39 18341335573497882304
22445834 79 18335135375699757714
22802520 49 15337464201286519288
230 275 18202007598835431534
23402539 116 17774992514556388967
23557571 272 17131831005839865135
305870 269 18411136892308693490
63268167 104 18335985263833175128
7364860 26 17986958448975974734

>  <PUBCHEM_SHAPE_MULTIPOLES>  (1) 
259.66
6.02
1.83
0.87
0.9
0.21
-0.03
0.89
-0.9
0.02
0
0.09
0.1
-0.55

>  <PUBCHEM_SHAPE_SELFOVERLAP>  (1) 
540.508

>  <PUBCHEM_SHAPE_VOLUME>  (1) 
147.4

>  <PUBCHEM_COORDINATE_TYPE>  (1) 
2
5
10

$$$$
