8367
     RDKit          3D

 14 15  0  0  1  0  0  0  0  0999 V2000
    1.1670   -2.0197    0.1955 N   0  0  0  0  0  0  0  0  0  0  0  0
   -3.5954    1.4124    0.6360 N   0  0  0  0  0  0  0  0  0  0  0  0
   -2.4710    0.6568    0.0722 C   0  0  0  0  0  0  0  0  0  0  0  0
   -1.4459    0.3277    1.1930 C   0  0  0  0  0  0  0  0  0  0  0  0
   -0.2375   -0.3878    0.7353 C   0  0  0  0  0  0  0  0  0  0  0  0
   -2.9928   -0.6159   -0.6218 C   0  0  0  0  0  0  0  0  0  0  0  0
    0.9785    0.2013    0.2889 C   0  0  0  0  0  0  0  0  0  0  0  0
    1.8426   -0.8442   -0.0437 C   0  0  0  0  0  0  0  0  0  0  0  0
   -0.0907   -1.7541    0.6663 C   0  0  0  0  0  0  0  0  0  0  0  0
   -4.0089   -0.3294   -1.7216 C   0  0  0  0  0  0  0  0  0  0  0  0
    1.4284    1.5278    0.1355 C   0  0  0  0  0  0  0  0  0  0  0  0
    3.1393   -0.6287   -0.5239 C   0  0  0  0  0  0  0  0  0  0  0  0
    2.7229    1.7585   -0.3440 C   0  0  0  0  0  0  0  0  0  0  0  0
    3.5635    0.6954   -0.6679 C   0  0  0  0  0  0  0  0  0  0  0  0
  1  8  1  0
  1  9  1  0
  2  3  1  0
  3  4  1  0
  3  6  1  0
  4  5  1  0
  5  7  1  0
  5  9  2  0
  6 10  1  0
  7  8  2  0
  7 11  1  0
  8 12  1  0
 11 13  2  0
 12 14  2  0
 13 14  1  0
M  END
>  <PUBCHEM_COMPOUND_CID>  (1) 
8367

>  <PUBCHEM_CONFORMER_RMSD>  (1) 
0.6

>  <PUBCHEM_CONFORMER_DIVERSEORDER>  (1) 
1
25
20
28
26
31
17
5
30
13
27
21
8
16
12
11
23
14
29
18
7
22
15
24
4
2
3
19
9
10
6

>  <PUBCHEM_MMFF94_PARTIAL_CHARGES>  (1) 
19
1 0.03
11 -0.15
12 -0.15
13 -0.15
14 -0.15
2 -0.99
20 0.15
21 0.27
22 0.36
23 0.36
27 0.15
28 0.15
29 0.15
3 0.27
30 0.15
4 0.18
5 -0.18
8 -0.15
9 -0.3

>  <PUBCHEM_EFFECTIVE_ROTOR_COUNT>  (1) 
3

>  <PUBCHEM_PHARMACOPHORE_FEATURES>  (1) 
7
1 1 cation
1 1 donor
1 10 hydrophobe
1 2 cation
1 2 donor
5 1 5 7 8 9 rings
6 7 8 11 12 13 14 rings

>  <PUBCHEM_HEAVY_ATOM_COUNT>  (1) 
14

>  <PUBCHEM_ATOM_DEF_STEREO_COUNT>  (1) 
0

>  <PUBCHEM_ATOM_UDEF_STEREO_COUNT>  (1) 
1

>  <PUBCHEM_BOND_DEF_STEREO_COUNT>  (1) 
0

>  <PUBCHEM_BOND_UDEF_STEREO_COUNT>  (1) 
0

>  <PUBCHEM_ISOTOPIC_ATOM_COUNT>  (1) 
0

>  <PUBCHEM_COMPONENT_COUNT>  (1) 
1

>  <PUBCHEM_CACTVS_TAUTO_COUNT>  (1) 
1

>  <PUBCHEM_CONFORMER_ID>  (1) 
000020AF00000001

>  <PUBCHEM_MMFF94_ENERGY>  (1) 
14.0177

>  <PUBCHEM_FEATURE_SELFOVERLAP>  (1) 
35.612

>  <PUBCHEM_SHAPE_FINGERPRINT>  (1) 
11543360 7 16845578646922370224
12119455 92 17749378291559609382
12138202 97 17749674098568237747
124424 183 17603584123664038288
12730499 353 17894910699106436787
13380535 76 18336829788006705274
13583140 156 16806162297301165560
13705890 14 16343708733456144884
14252887 29 10375876281426386204
14911166 2 18337972112100395118
15775835 57 18411990134890807453
16752209 62 17202748342543827935
16945 1 18336279963483760202
18186145 218 18334016085757723894
18915474 69 17703781578741961783
19422 9 18060137630925995735
20281407 28 12031793547644868217
20871999 31 17418371402971496117
21499 59 18334296499861727119
21524375 3 18260264196031099674
21639500 275 18334853922213330932
22959321 8 18114178657353675221
231179 274 17240757393641649932
23382010 3 18269549593065159595
23402539 116 18343585118812641284
23402655 69 18341898446142373085
23598291 2 18127406757446636703
25 1 18261681397725836698
2748010 2 18122083136993400506
3060560 45 18335690663415504206
3082319 5 18273210894114178877
57096353 35 18272085028498535573
633830 44 18337967721952884508
77492 1 18060141998717831665
7832392 63 18269839709743442753
81228 2 16954247894990160771
83771 10 11023837175198232104

>  <PUBCHEM_SHAPE_MULTIPOLES>  (1) 
278.15
6.56
1.78
1.13
3.39
0.17
-0.21
-1.71
-2.85
-0.71
0.2
0.98
0.03
-0.53

>  <PUBCHEM_SHAPE_SELFOVERLAP>  (1) 
587.88

>  <PUBCHEM_SHAPE_VOLUME>  (1) 
158.7

>  <PUBCHEM_COORDINATE_TYPE>  (1) 
2
5
10

$$$$
