8373
     RDKit          3D

 10 10  0  0  0  0  0  0  0  0999 V2000
    2.2085    1.4303   -0.4820 O   0  0  0  0  0  0  0  0  0  0  0  0
    2.4690   -0.6137    0.4775 O   0  0  0  0  0  0  0  0  0  0  0  0
   -0.4064   -0.9930   -0.0767 C   0  0  0  0  0  0  0  0  0  0  0  0
    0.2711    0.2212    0.0343 C   0  0  0  0  0  0  0  0  0  0  0  0
   -1.8011   -1.0151   -0.0867 C   0  0  0  0  0  0  0  0  0  0  0  0
   -0.4460    1.4133    0.1354 C   0  0  0  0  0  0  0  0  0  0  0  0
    0.3368   -2.2844   -0.1880 C   0  0  0  0  0  0  0  0  0  0  0  0
   -2.5182    0.1771    0.0144 C   0  0  0  0  0  0  0  0  0  0  0  0
   -1.8406    1.3914    0.1255 C   0  0  0  0  0  0  0  0  0  0  0  0
    1.7268    0.2729    0.0463 C   0  0  0  0  0  0  0  0  0  0  0  0
  1 10  1  0
  2 10  2  0
  3  4  2  0
  3  5  1  0
  3  7  1  0
  4  6  1  0
  4 10  1  0
  5  8  2  0
  6  9  2  0
  8  9  1  0
M  END
>  <PUBCHEM_COMPOUND_CID>  (1) 
8373

>  <PUBCHEM_CONFORMER_RMSD>  (1) 
0.4

>  <PUBCHEM_CONFORMER_DIVERSEORDER>  (1) 
2
3
1

>  <PUBCHEM_MMFF94_PARTIAL_CHARGES>  (1) 
15
1 -0.65
10 0.63
11 0.15
12 0.15
16 0.15
17 0.15
18 0.5
2 -0.57
3 -0.14
4 0.09
5 -0.15
6 -0.15
7 0.14
8 -0.15
9 -0.15

>  <PUBCHEM_EFFECTIVE_ROTOR_COUNT>  (1) 
1

>  <PUBCHEM_PHARMACOPHORE_FEATURES>  (1) 
4
1 1 acceptor
1 2 acceptor
3 1 2 10 anion
6 3 4 5 6 8 9 rings

>  <PUBCHEM_HEAVY_ATOM_COUNT>  (1) 
10

>  <PUBCHEM_ATOM_DEF_STEREO_COUNT>  (1) 
0

>  <PUBCHEM_ATOM_UDEF_STEREO_COUNT>  (1) 
0

>  <PUBCHEM_BOND_DEF_STEREO_COUNT>  (1) 
0

>  <PUBCHEM_BOND_UDEF_STEREO_COUNT>  (1) 
0

>  <PUBCHEM_ISOTOPIC_ATOM_COUNT>  (1) 
0

>  <PUBCHEM_COMPONENT_COUNT>  (1) 
1

>  <PUBCHEM_CACTVS_TAUTO_COUNT>  (1) 
1

>  <PUBCHEM_CONFORMER_ID>  (1) 
000020B500000002

>  <PUBCHEM_MMFF94_ENERGY>  (1) 
30.0503

>  <PUBCHEM_FEATURE_SELFOVERLAP>  (1) 
20.355

>  <PUBCHEM_SHAPE_FINGERPRINT>  (1) 
14325111 11 18410575084684424785
16945 1 18338238137557476391
18185500 45 17905044007982796686
193761 8 17907298745754585385
20871998 184 17984989446872759374
21040471 1 18412824702649208568
23552423 10 18336830788269913463
241688 4 17257375137342334787
2748010 2 18411138077634771101
369184 2 18413384358441991113
5084963 1 18202283576195994082
66348 1 18051410970039184963

>  <PUBCHEM_SHAPE_MULTIPOLES>  (1) 
194.06
3.16
1.98
0.64
0.38
0.61
0
-0.64
-0.09
0.12
0.13
0.05
-0.01
-0.2

>  <PUBCHEM_SHAPE_SELFOVERLAP>  (1) 
407.659

>  <PUBCHEM_SHAPE_VOLUME>  (1) 
109.9

>  <PUBCHEM_COORDINATE_TYPE>  (1) 
2
5
10

$$$$
