8375
     RDKit          3D

 10 10  0  0  0  0  0  0  0  0999 V2000
    0.1689   -2.2024   -0.0004 O   0  0  0  0  0  0  0  0  0  0  0  0
    2.3951   -0.8651    0.0007 O   0  0  0  0  0  0  0  0  0  0  0  0
    0.2674    0.1945    0.0001 C   0  0  0  0  0  0  0  0  0  0  0  0
   -0.4621   -0.9943    0.0000 C   0  0  0  0  0  0  0  0  0  0  0  0
   -0.3974    1.4208    0.0001 C   0  0  0  0  0  0  0  0  0  0  0  0
    1.7236    0.1780   -0.0002 C   0  0  0  0  0  0  0  0  0  0  0  0
   -1.8565   -0.9569    0.0000 C   0  0  0  0  0  0  0  0  0  0  0  0
   -1.7917    1.4583    0.0001 C   0  0  0  0  0  0  0  0  0  0  0  0
   -2.5213    0.2693    0.0000 C   0  0  0  0  0  0  0  0  0  0  0  0
    2.4740    1.4978   -0.0004 C   0  0  0  0  0  0  0  0  0  0  0  0
  1  4  1  0
  2  6  2  0
  3  4  2  0
  3  5  1  0
  3  6  1  0
  4  7  1  0
  5  8  2  0
  6 10  1  0
  7  9  2  0
  8  9  1  0
M  END
>  <PUBCHEM_COMPOUND_CID>  (1) 
8375

>  <PUBCHEM_CONFORMER_RMSD>  (1) 
0.4

>  <PUBCHEM_CONFORMER_DIVERSEORDER>  (1) 
1
2
4
3

>  <PUBCHEM_MMFF94_PARTIAL_CHARGES>  (1) 
15
1 -0.53
10 0.06
11 0.15
12 0.15
13 0.15
14 0.15
18 0.45
2 -0.57
3 0.09
4 0.08
5 -0.15
6 0.42
7 -0.15
8 -0.15
9 -0.15

>  <PUBCHEM_EFFECTIVE_ROTOR_COUNT>  (1) 
1

>  <PUBCHEM_PHARMACOPHORE_FEATURES>  (1) 
3
1 1 donor
1 2 acceptor
6 3 4 5 7 8 9 rings

>  <PUBCHEM_HEAVY_ATOM_COUNT>  (1) 
10

>  <PUBCHEM_ATOM_DEF_STEREO_COUNT>  (1) 
0

>  <PUBCHEM_ATOM_UDEF_STEREO_COUNT>  (1) 
0

>  <PUBCHEM_BOND_DEF_STEREO_COUNT>  (1) 
0

>  <PUBCHEM_BOND_UDEF_STEREO_COUNT>  (1) 
0

>  <PUBCHEM_ISOTOPIC_ATOM_COUNT>  (1) 
0

>  <PUBCHEM_COMPONENT_COUNT>  (1) 
1

>  <PUBCHEM_CACTVS_TAUTO_COUNT>  (1) 
9

>  <PUBCHEM_CONFORMER_ID>  (1) 
000020B700000001

>  <PUBCHEM_MMFF94_ENERGY>  (1) 
27.4847

>  <PUBCHEM_FEATURE_SELFOVERLAP>  (1) 
15.223

>  <PUBCHEM_SHAPE_FINGERPRINT>  (1) 
12897270 3 18410009905764244309
14325111 11 18410573980925380417
16945 1 18266740164767800805
18185500 45 17905046206953278742
19973954 147 18411421704480053504
20871998 184 17984148333288520630
21040471 1 18410855494635703652
23552423 10 18334013891150884742
241688 4 16969985861842441715
2748010 2 18410013255738365509
369184 2 18412824707012910065
5084963 1 18201998794062856000

>  <PUBCHEM_SHAPE_MULTIPOLES>  (1) 
194.06
3.42
1.9
0.6
0.89
0.35
0
-0.72
0
0.02
0
-0.02
-0.03
0

>  <PUBCHEM_SHAPE_SELFOVERLAP>  (1) 
406.387

>  <PUBCHEM_SHAPE_VOLUME>  (1) 
110.3

>  <PUBCHEM_COORDINATE_TYPE>  (1) 
2
5
10

$$$$
