8377
     RDKit          3D

 16 16  0  0  0  0  0  0  0  0999 V2000
    2.9557    0.2294    0.0010 Cl  0  0  0  0  0  0  0  0  0  0  0  0
   -3.6291    0.9447   -0.0008 O   0  0  0  0  0  0  0  0  0  0  0  0
   -3.6359   -1.3283   -0.0011 O   0  0  0  0  0  0  0  0  0  0  0  0
    0.8058   -3.4747    0.0007 O   0  0  0  0  0  0  0  0  0  0  0  0
    0.2248    3.5292   -0.0007 O   0  0  0  0  0  0  0  0  0  0  0  0
    2.6504   -2.2846   -0.0014 O   0  0  0  0  0  0  0  0  0  0  0  0
    2.2401    2.6589   -0.0010 O   0  0  0  0  0  0  0  0  0  0  0  0
    1.4007   -2.3721   -0.0003 N   0  0  0  0  0  0  0  0  0  0  0  0
    0.9930    2.5395   -0.0004 N   0  0  0  0  0  0  0  0  0  0  0  0
   -1.5566   -0.1449    0.0017 C   0  0  0  0  0  0  0  0  0  0  0  0
    0.6286   -1.1756   -0.0004 C   0  0  0  0  0  0  0  0  0  0  0  0
    0.4283    1.2322    0.0011 C   0  0  0  0  0  0  0  0  0  0  0  0
   -0.9618    1.1167    0.0020 C   0  0  0  0  0  0  0  0  0  0  0  0
   -0.7616   -1.2910    0.0004 C   0  0  0  0  0  0  0  0  0  0  0  0
    1.2236    0.0862   -0.0001 C   0  0  0  0  0  0  0  0  0  0  0  0
   -3.0060   -0.2656   -0.0006 C   0  0  0  0  0  0  0  0  0  0  0  0
  1 15  1  0
  2 16  1  0
  3 16  2  0
  4  8  1  0
  5  9  1  0
  6  8  2  0
  7  9  2  0
  8 11  1  0
  9 12  1  0
 10 13  2  0
 10 14  1  0
 10 16  1  0
 11 14  2  0
 11 15  1  0
 12 13  1  0
 12 15  2  0
M  CHG  4   4  -1   5  -1   8   1   9   1
M  END
>  <PUBCHEM_COMPOUND_CID>  (1) 
8377

>  <PUBCHEM_CONFORMER_RMSD>  (1) 
0.6

>  <PUBCHEM_CONFORMER_DIVERSEORDER>  (1) 
1

>  <PUBCHEM_MMFF94_PARTIAL_CHARGES>  (1) 
19
1 -0.18
10 0.09
11 0.13
12 0.13
13 -0.15
14 -0.15
15 0.18
16 0.63
17 0.15
18 0.15
19 0.5
2 -0.65
3 -0.57
4 -0.52
5 -0.52
6 -0.52
7 -0.52
8 0.91
9 0.91

>  <PUBCHEM_EFFECTIVE_ROTOR_COUNT>  (1) 
3

>  <PUBCHEM_PHARMACOPHORE_FEATURES>  (1) 
10
1 2 acceptor
1 3 acceptor
1 4 acceptor
1 4 anion
1 5 acceptor
1 5 anion
1 6 acceptor
1 7 acceptor
3 2 3 16 anion
6 10 11 12 13 14 15 rings

>  <PUBCHEM_HEAVY_ATOM_COUNT>  (1) 
16

>  <PUBCHEM_ATOM_DEF_STEREO_COUNT>  (1) 
0

>  <PUBCHEM_ATOM_UDEF_STEREO_COUNT>  (1) 
0

>  <PUBCHEM_BOND_DEF_STEREO_COUNT>  (1) 
0

>  <PUBCHEM_BOND_UDEF_STEREO_COUNT>  (1) 
0

>  <PUBCHEM_ISOTOPIC_ATOM_COUNT>  (1) 
0

>  <PUBCHEM_COMPONENT_COUNT>  (1) 
1

>  <PUBCHEM_CACTVS_TAUTO_COUNT>  (1) 
1

>  <PUBCHEM_CONFORMER_ID>  (1) 
000020B900000001

>  <PUBCHEM_MMFF94_ENERGY>  (1) 
70.869

>  <PUBCHEM_FEATURE_SELFOVERLAP>  (1) 
50.971

>  <PUBCHEM_SHAPE_FINGERPRINT>  (1) 
1 1 18266177416735897365
10967382 1 18338516472749563334
11471102 20 18410006611830147023
116883 192 17765149467236544183
12553582 1 18122628249679181211
13140716 1 18194682806879234571
13380535 76 17908421703408422236
13380536 305 18267028442988649580
14251717 144 18339073895307116567
14648413 74 18408041823274549843
14790565 3 18338250348356240676
15042514 8 16823623259236205803
15442244 35 18196656194608483945
15490181 7 17832717042238810714
15490181 8 17907849953109235422
16945 1 18410575110633375235
17990270 104 18409164403024226379
193761 8 17834113044170302884
19591789 44 18265621076853377398
20510252 161 16973635149667311770
20645476 183 17609508472534700284
20645477 70 18263352737685267599
20711985 365 17760648066505743949
21501502 16 17906176148756714698
21524375 3 17900533781221050889
2334 1 17834114529938726528
23419403 2 17607489533041607668
23526114 1 18410855451686056823
23552423 10 18412825819841897951
23557571 272 17480863026799783334
241688 4 18050288063682317586
2748010 2 18195519290472845206
3071541 12 18411422821134633709
3091708 16 9216838189027822683
352729 6 17618222149133649927
54173680 148 17401768519119248514
7364860 26 18411138060665898339
7832392 63 18340770317484717681
81228 2 17689717458969755747

>  <PUBCHEM_SHAPE_MULTIPOLES>  (1) 
285.96
4.51
3.69
0.57
3.41
0.24
0
-0.32
0
-2.42
0
0
0
0

>  <PUBCHEM_SHAPE_SELFOVERLAP>  (1) 
606.437

>  <PUBCHEM_SHAPE_VOLUME>  (1) 
161.5

>  <PUBCHEM_COORDINATE_TYPE>  (1) 
2
5
10

$$$$
