8383
     RDKit          3D

 14 14  0  0  0  0  0  0  0  0999 V2000
   -2.2034    2.7714   -0.0007 Cl  0  0  0  0  0  0  0  0  0  0  0  0
    1.3450   -1.9150   -0.0006 O   0  0  0  0  0  0  0  0  0  0  0  0
   -3.0488   -0.1123    0.0006 O   0  0  0  0  0  0  0  0  0  0  0  0
    2.9088    1.8518   -0.0007 O   0  0  0  0  0  0  0  0  0  0  0  0
    3.2291   -0.3199    0.0007 O   0  0  0  0  0  0  0  0  0  0  0  0
    2.4695    0.6776    0.0000 N   0  0  0  0  0  0  0  0  0  0  0  0
    0.5323   -0.8201    0.0005 C   0  0  0  0  0  0  0  0  0  0  0  0
    1.0627    0.4701    0.0007 C   0  0  0  0  0  0  0  0  0  0  0  0
   -1.7021    0.0984   -0.0004 C   0  0  0  0  0  0  0  0  0  0  0  0
   -0.8501   -1.0060    0.0000 C   0  0  0  0  0  0  0  0  0  0  0  0
    0.2106    1.5745    0.0004 C   0  0  0  0  0  0  0  0  0  0  0  0
   -1.1720    1.3886   -0.0001 C   0  0  0  0  0  0  0  0  0  0  0  0
    0.7104   -3.1916   -0.0007 C   0  0  0  0  0  0  0  0  0  0  0  0
   -3.4920   -1.4676    0.0002 C   0  0  0  0  0  0  0  0  0  0  0  0
  1 12  1  0
  2  7  1  0
  2 13  1  0
  3  9  1  0
  3 14  1  0
  4  6  1  0
  5  6  2  0
  6  8  1  0
  7  8  2  0
  7 10  1  0
  8 11  1  0
  9 10  2  0
  9 12  1  0
 11 12  2  0
M  CHG  2   4  -1   6   1
M  END
>  <PUBCHEM_COMPOUND_CID>  (1) 
8383

>  <PUBCHEM_CONFORMER_RMSD>  (1) 
0.6

>  <PUBCHEM_CONFORMER_DIVERSEORDER>  (1) 
3
1
2

>  <PUBCHEM_MMFF94_PARTIAL_CHARGES>  (1) 
16
1 -0.18
10 -0.15
11 -0.15
12 0.18
13 0.28
14 0.28
15 0.15
16 0.15
2 -0.36
3 -0.36
4 -0.52
5 -0.52
6 0.91
7 0.08
8 0.13
9 0.08

>  <PUBCHEM_EFFECTIVE_ROTOR_COUNT>  (1) 
3

>  <PUBCHEM_PHARMACOPHORE_FEATURES>  (1) 
6
1 2 acceptor
1 3 acceptor
1 4 acceptor
1 4 anion
1 5 acceptor
6 7 8 9 10 11 12 rings

>  <PUBCHEM_HEAVY_ATOM_COUNT>  (1) 
14

>  <PUBCHEM_ATOM_DEF_STEREO_COUNT>  (1) 
0

>  <PUBCHEM_ATOM_UDEF_STEREO_COUNT>  (1) 
0

>  <PUBCHEM_BOND_DEF_STEREO_COUNT>  (1) 
0

>  <PUBCHEM_BOND_UDEF_STEREO_COUNT>  (1) 
0

>  <PUBCHEM_ISOTOPIC_ATOM_COUNT>  (1) 
0

>  <PUBCHEM_COMPONENT_COUNT>  (1) 
1

>  <PUBCHEM_CACTVS_TAUTO_COUNT>  (1) 
1

>  <PUBCHEM_CONFORMER_ID>  (1) 
000020BF00000003

>  <PUBCHEM_MMFF94_ENERGY>  (1) 
61.3252

>  <PUBCHEM_FEATURE_SELFOVERLAP>  (1) 
30.552

>  <PUBCHEM_SHAPE_FINGERPRINT>  (1) 
10219947 1 18337675342291501499
108231 29 18199752625099157961
10967382 1 18122343750818101671
11680986 33 17980475668141034282
12032990 46 18337960115797970115
13380535 21 18194693561630590461
13380535 76 18193831548851520933
14325111 11 18410574019553673344
14614273 12 18261384521155009205
14648413 74 18122064191465363979
15042514 8 18048876587611840394
15442244 35 17835519323879335345
16945 1 18050285860422246497
17990270 104 18194117408847539514
19021347 11 18409728452209869330
193761 8 18194683670405076423
19973954 147 18266740169157778593
20510252 161 18271526484986842424
20511035 2 17769352955860517631
20645476 183 17679879368480183222
21501502 16 18265613169744530993
2334 1 17762338415378217871
23402539 116 18198896105430136302
23419403 2 16173605376724025329
23463225 33 18335135384605800634
23526114 1 18195248815108255462
23552423 10 18264774255167866503
23559900 14 17910680865762067086
2748010 2 18194684769863891895
43471831 8 18408319973730704778
528886 8 18267298922780439363
589210 1 18194402195438876319
68250623 7 18267305318250551995
7364860 26 18125157134886055790

>  <PUBCHEM_SHAPE_MULTIPOLES>  (1) 
261.52
4.54
3.14
0.59
0.32
0.79
0
-0.37
0
0.22
0
0.06
0
0

>  <PUBCHEM_SHAPE_SELFOVERLAP>  (1) 
537.851

>  <PUBCHEM_SHAPE_VOLUME>  (1) 
152.9

>  <PUBCHEM_COORDINATE_TYPE>  (1) 
2
5
10

$$$$
