8389
     RDKit          3D

 11 11  0  0  0  0  0  0  0  0999 V2000
   -2.9729    1.4307    0.1716 O   0  0  0  0  0  0  0  0  0  0  0  0
    1.7759    0.6880    0.0342 N   0  0  0  0  0  0  0  0  0  0  0  0
    0.4600    0.1760    0.0080 C   0  0  0  0  0  0  0  0  0  0  0  0
    0.2299   -1.1946   -0.1108 C   0  0  0  0  0  0  0  0  0  0  0  0
   -0.6162    1.0583    0.1029 C   0  0  0  0  0  0  0  0  0  0  0  0
   -1.0766   -1.6829   -0.1346 C   0  0  0  0  0  0  0  0  0  0  0  0
   -1.9225    0.5701    0.0791 C   0  0  0  0  0  0  0  0  0  0  0  0
    1.3635   -2.1624   -0.2141 C   0  0  0  0  0  0  0  0  0  0  0  0
    2.2153    1.6295   -0.9751 C   0  0  0  0  0  0  0  0  0  0  0  0
    2.6964    0.2880    1.0786 C   0  0  0  0  0  0  0  0  0  0  0  0
   -2.1528   -0.8006   -0.0397 C   0  0  0  0  0  0  0  0  0  0  0  0
  1  7  1  0
  2  3  1  0
  2  9  1  0
  2 10  1  0
  3  4  2  0
  3  5  1  0
  4  6  1  0
  4  8  1  0
  5  7  2  0
  6 11  2  0
  7 11  1  0
M  END
>  <PUBCHEM_COMPOUND_CID>  (1) 
8389

>  <PUBCHEM_CONFORMER_RMSD>  (1) 
0.4

>  <PUBCHEM_CONFORMER_DIVERSEORDER>  (1) 
2
1

>  <PUBCHEM_MMFF94_PARTIAL_CHARGES>  (1) 
15
1 -0.53
10 0.37
11 -0.15
12 0.15
13 0.15
2 -0.84
23 0.15
24 0.45
3 0.1
4 -0.14
5 -0.15
6 -0.15
7 0.08
8 0.14
9 0.37

>  <PUBCHEM_EFFECTIVE_ROTOR_COUNT>  (1) 
1

>  <PUBCHEM_PHARMACOPHORE_FEATURES>  (1) 
3
1 1 donor
1 2 cation
6 3 4 5 6 7 11 rings

>  <PUBCHEM_HEAVY_ATOM_COUNT>  (1) 
11

>  <PUBCHEM_ATOM_DEF_STEREO_COUNT>  (1) 
0

>  <PUBCHEM_ATOM_UDEF_STEREO_COUNT>  (1) 
0

>  <PUBCHEM_BOND_DEF_STEREO_COUNT>  (1) 
0

>  <PUBCHEM_BOND_UDEF_STEREO_COUNT>  (1) 
0

>  <PUBCHEM_ISOTOPIC_ATOM_COUNT>  (1) 
0

>  <PUBCHEM_COMPONENT_COUNT>  (1) 
1

>  <PUBCHEM_CACTVS_TAUTO_COUNT>  (1) 
3

>  <PUBCHEM_CONFORMER_ID>  (1) 
000020C500000002

>  <PUBCHEM_MMFF94_ENERGY>  (1) 
48.4851

>  <PUBCHEM_FEATURE_SELFOVERLAP>  (1) 
15.223

>  <PUBCHEM_SHAPE_FINGERPRINT>  (1) 
12423570 1 10648726839004566272
12716758 59 18053115192041264020
13380535 21 18340786870098837347
13380535 76 18411129230266151635
14325111 11 18411699919676728888
15775835 57 18187651365822437900
16945 1 18269273641559017567
193761 8 18411422795539104687
20511035 2 18270960129060843687
20645464 45 17559954510020494176
21040471 1 18413108376643900011
23463225 33 18334569149060478666
23552423 10 18408325470993405455
23559900 14 18130798871816180844
241688 4 17472986099195166642
2748010 2 18339647745961440127
369184 2 17774714389348148818
5084963 1 17986968516368273070
53812653 8 18120098539610842628
7364860 26 18058447599776054662

>  <PUBCHEM_SHAPE_MULTIPOLES>  (1) 
215.52
3.74
2.08
0.81
0.09
0.7
0.02
-1.47
0.36
-0.09
-0.32
-0.5
-0.13
-0.33

>  <PUBCHEM_SHAPE_SELFOVERLAP>  (1) 
441.126

>  <PUBCHEM_SHAPE_VOLUME>  (1) 
126.9

>  <PUBCHEM_COORDINATE_TYPE>  (1) 
2
5
10

$$$$
