8396
     RDKit          3D

 13 14  0  0  0  0  0  0  0  0999 V2000
   -1.2460    2.3083    0.0000 O   0  0  0  0  0  0  0  0  0  0  0  0
    0.8035    0.2998    0.0003 C   0  0  0  0  0  0  0  0  0  0  0  0
    1.5018   -0.2219   -1.2678 C   0  0  0  0  0  0  0  0  0  0  0  0
    1.5026   -0.2214    1.2682 C   0  0  0  0  0  0  0  0  0  0  0  0
    2.9922    0.1144   -1.2629 C   0  0  0  0  0  0  0  0  0  0  0  0
    2.9929    0.1150    1.2624 C   0  0  0  0  0  0  0  0  0  0  0  0
    3.6806   -0.3959   -0.0004 C   0  0  0  0  0  0  0  0  0  0  0  0
   -0.6800   -0.0211    0.0001 C   0  0  0  0  0  0  0  0  0  0  0  0
   -1.6284    1.0005   -0.0002 C   0  0  0  0  0  0  0  0  0  0  0  0
   -1.0874   -1.3541    0.0004 C   0  0  0  0  0  0  0  0  0  0  0  0
   -2.9879    0.6881   -0.0004 C   0  0  0  0  0  0  0  0  0  0  0  0
   -2.4469   -1.6664    0.0003 C   0  0  0  0  0  0  0  0  0  0  0  0
   -3.3971   -0.6454    0.0000 C   0  0  0  0  0  0  0  0  0  0  0  0
  1  9  1  0
  2  3  1  0
  2  4  1  0
  2  8  1  0
  3  5  1  0
  4  6  1  0
  5  7  1  0
  6  7  1  0
  8  9  2  0
  8 10  1  0
  9 11  1  0
 10 12  2  0
 11 13  2  0
 12 13  1  0
M  END
>  <PUBCHEM_COMPOUND_CID>  (1) 
8396

>  <PUBCHEM_CONFORMER_RMSD>  (1) 
0.6

>  <PUBCHEM_CONFORMER_DIVERSEORDER>  (1) 
1
6
3
4
2
5
7
8

>  <PUBCHEM_MMFF94_PARTIAL_CHARGES>  (1) 
13
1 -0.53
10 -0.15
11 -0.15
12 -0.15
13 -0.15
2 0.14
25 0.15
26 0.15
27 0.15
28 0.15
29 0.45
8 -0.14
9 0.08

>  <PUBCHEM_EFFECTIVE_ROTOR_COUNT>  (1) 
2.2

>  <PUBCHEM_PHARMACOPHORE_FEATURES>  (1) 
3
1 1 donor
6 2 3 4 5 6 7 rings
6 8 9 10 11 12 13 rings

>  <PUBCHEM_HEAVY_ATOM_COUNT>  (1) 
13

>  <PUBCHEM_ATOM_DEF_STEREO_COUNT>  (1) 
0

>  <PUBCHEM_ATOM_UDEF_STEREO_COUNT>  (1) 
0

>  <PUBCHEM_BOND_DEF_STEREO_COUNT>  (1) 
0

>  <PUBCHEM_BOND_UDEF_STEREO_COUNT>  (1) 
0

>  <PUBCHEM_ISOTOPIC_ATOM_COUNT>  (1) 
0

>  <PUBCHEM_COMPONENT_COUNT>  (1) 
1

>  <PUBCHEM_CACTVS_TAUTO_COUNT>  (1) 
3

>  <PUBCHEM_CONFORMER_ID>  (1) 
000020CC00000001

>  <PUBCHEM_MMFF94_ENERGY>  (1) 
24.8955

>  <PUBCHEM_FEATURE_SELFOVERLAP>  (1) 
15.223

>  <PUBCHEM_SHAPE_FINGERPRINT>  (1) 
11578080 2 17316443419011994396
12236239 1 17676488345422839054
12716758 59 18270124491591295862
12932764 1 17749105603785429524
13538477 17 18040715887281389131
13581323 91 18409162208137559010
14144814 61 17676487246064218070
14993402 34 17458345242941348758
15219456 202 17632856438604193696
15653759 3 18131068229840511386
15669948 3 18335984254521421239
15775835 57 17530971275789944332
16945 1 18410573972588335109
17844478 74 17704357670931311504
18175812 5 17703507774218008733
19049666 15 17630615513621367046
19422 9 17821449058067295794
200 152 16515397486685953171
20201158 50 17561368365740775558
20279233 1 17775284967100366150
20281407 28 18130796684533017310
20645464 45 17846493738319848043
20645476 183 17676490579138636043
20715346 28 17703788149830829970
21061003 4 16988849392687492400
21639500 275 15936698184785552638
22802520 49 17844820182706165516
228727 97 17895771688981624516
23402539 116 18342164553746801741
23557571 272 18272655645132428528
23559900 14 18343304726341652310
2748010 2 18195799898282990777
474 4 17025167469098193452
57812782 119 17989484113068042910
7364860 26 18054791955368081040
77492 1 17676206870519974914
8030462 33 17821450170537399024
81228 2 18341061730847258257

>  <PUBCHEM_SHAPE_MULTIPOLES>  (1) 
261.66
6
1.45
1.11
1.35
0.35
0
-0.73
0
-1.33
0
1.12
-0.03
0

>  <PUBCHEM_SHAPE_SELFOVERLAP>  (1) 
546.216

>  <PUBCHEM_SHAPE_VOLUME>  (1) 
147

>  <PUBCHEM_COORDINATE_TYPE>  (1) 
2
5
10

$$$$
