8398
     RDKit          3D

 25 26  0  0  0  0  0  0  0  0999 V2000
   -1.2101    1.8096    0.3168 O   0  0  0  0  0  0  0  0  0  0  0  0
    1.1992   -1.7898    0.3716 O   0  0  0  0  0  0  0  0  0  0  0  0
   -3.4868    1.1656   -1.2595 C   0  0  0  0  0  0  0  0  0  0  0  0
    3.4868   -1.1866   -1.2052 C   0  0  0  0  0  0  0  0  0  0  0  0
   -2.8578    0.1753   -0.2498 C   0  0  0  0  0  0  0  0  0  0  0  0
    2.8733   -0.2063   -0.2602 C   0  0  0  0  0  0  0  0  0  0  0  0
   -0.0118    0.0338    2.1859 C   0  0  0  0  0  0  0  0  0  0  0  0
   -1.2083   -0.3342    1.3718 C   0  0  0  0  0  0  0  0  0  0  0  0
    1.2075    0.3856    1.3591 C   0  0  0  0  0  0  0  0  0  0  0  0
   -1.7619    0.5712    0.4666 C   0  0  0  0  0  0  0  0  0  0  0  0
    1.7501   -0.5479    0.4931 C   0  0  0  0  0  0  0  0  0  0  0  0
   -4.7034    0.5098   -1.9483 C   0  0  0  0  0  0  0  0  0  0  0  0
   -2.4433    1.5588   -2.3278 C   0  0  0  0  0  0  0  0  0  0  0  0
   -3.9835    2.4732   -0.6044 C   0  0  0  0  0  0  0  0  0  0  0  0
    4.7305   -0.5844   -1.9367 C   0  0  0  0  0  0  0  0  0  0  0  0
    2.4730   -1.6431   -2.3044 C   0  0  0  0  0  0  0  0  0  0  0  0
    4.0012   -2.5125   -0.5476 C   0  0  0  0  0  0  0  0  0  0  0  0
   -3.4445   -1.0560   -0.1321 C   0  0  0  0  0  0  0  0  0  0  0  0
    3.4370    1.0635   -0.1358 C   0  0  0  0  0  0  0  0  0  0  0  0
   -2.8909   -1.9615    0.7732 C   0  0  0  0  0  0  0  0  0  0  0  0
    2.8772    1.9920    0.7419 C   0  0  0  0  0  0  0  0  0  0  0  0
   -1.7727   -1.6006    1.5250 C   0  0  0  0  0  0  0  0  0  0  0  0
    1.7538    1.6505    1.4950 C   0  0  0  0  0  0  0  0  0  0  0  0
   -3.4945   -3.3154    0.9371 C   0  0  0  0  0  0  0  0  0  0  0  0
    3.4797    3.3497    0.8749 C   0  0  0  0  0  0  0  0  0  0  0  0
  1 10  1  0
  2 11  1  0
  3  5  1  0
  3 12  1  0
  3 13  1  0
  3 14  1  0
  4  6  1  0
  4 15  1  0
  4 16  1  0
  4 17  1  0
  5 10  2  0
  5 18  1  0
  6 11  2  0
  6 19  1  0
  7  8  1  0
  7  9  1  0
  8 10  1  0
  8 22  2  0
  9 11  1  0
  9 23  2  0
 18 20  2  0
 19 21  2  0
 20 22  1  0
 20 24  1  0
 21 23  1  0
 21 25  1  0
M  END
>  <PUBCHEM_COMPOUND_CID>  (1) 
8398

>  <PUBCHEM_CONFORMER_RMSD>  (1) 
0.8

>  <PUBCHEM_CONFORMER_DIVERSEORDER>  (1) 
2
10
15
7
16
1
5
17
18
6
8
11
9
4
12
19
14
13
3

>  <PUBCHEM_MMFF94_PARTIAL_CHARGES>  (1) 
25
1 -0.53
10 0.08
11 0.08
18 -0.15
19 -0.15
2 -0.53
20 -0.14
21 -0.14
22 -0.15
23 -0.15
24 0.14
25 0.14
3 0.14
4 0.14
46 0.15
47 0.15
48 0.15
49 0.15
5 -0.14
56 0.45
57 0.45
6 -0.14
7 0.29
8 -0.14
9 -0.14

>  <PUBCHEM_EFFECTIVE_ROTOR_COUNT>  (1) 
4

>  <PUBCHEM_PHARMACOPHORE_FEATURES>  (1) 
6
1 1 donor
1 2 donor
4 3 12 13 14 hydrophobe
4 4 15 16 17 hydrophobe
6 5 8 10 18 20 22 rings
6 6 9 11 19 21 23 rings

>  <PUBCHEM_HEAVY_ATOM_COUNT>  (1) 
25

>  <PUBCHEM_ATOM_DEF_STEREO_COUNT>  (1) 
0

>  <PUBCHEM_ATOM_UDEF_STEREO_COUNT>  (1) 
0

>  <PUBCHEM_BOND_DEF_STEREO_COUNT>  (1) 
0

>  <PUBCHEM_BOND_UDEF_STEREO_COUNT>  (1) 
0

>  <PUBCHEM_ISOTOPIC_ATOM_COUNT>  (1) 
0

>  <PUBCHEM_COMPONENT_COUNT>  (1) 
1

>  <PUBCHEM_CACTVS_TAUTO_COUNT>  (1) 
5

>  <PUBCHEM_CONFORMER_ID>  (1) 
000020CE00000002

>  <PUBCHEM_MMFF94_ENERGY>  (1) 
104.1549

>  <PUBCHEM_FEATURE_SELFOVERLAP>  (1) 
30.446

>  <PUBCHEM_SHAPE_FINGERPRINT>  (1) 
10165383 225 17897738556728641469
10369192 42 17838341040078991872
10498660 4 17531240643523061389
11578080 2 18337122240540276140
11640471 11 15647048282950138329
11759241 127 18048313645815531500
12173636 292 17823396250822012741
12553582 1 17914074018268094562
13224815 77 18410574032401372913
13583140 156 18410855460508652414
13911987 19 17556012829539453672
13944108 23 16818820614201219741
13965767 371 16156201245706951477
14251757 17 18411136926541311874
14659021 117 17191523204761252102
14739800 52 16591398084811023140
15961568 22 17463130485118317980
18186145 218 18261384499769849673
19784866 240 16056874702522124821
20465049 17 17908986500699746393
20600515 1 18052516812960452810
20645477 70 17988924500309433342
20693207 138 18268165299452302106
21033650 10 17676492764965526352
21285901 2 18121218946508332091
21713013 43 18339654428682808123
21731516 1 15769777961270554760
21756936 100 15430618189714916188
21864079 5 15647058144184513767
22182313 1 18338517555054942153
22393880 68 18335423482580752986
2260408 40 17475271314372198939
23114952 82 18340772632197946232
235170 7 18267304416011916790
23557571 272 18115022051691960395
23559900 14 18411129221918687274
238 59 18131062745067021782
3729539 64 17831305995443705567
46194498 28 18193007121447277572
463206 1 16701721805397930687
469060 322 16877952672144893401
474 4 15140951825528508073
5161694 15 18410855425773704683
5252454 2 17750232513357856645
5262128 65 18201440229440134808
5281201 14 18413386531748443725
57527585 21 18123171661921605197
5895379 119 17385725816005474388
613672 6 18057047900521779710
621550 34 18052822738658458289
6287921 2 18118697736011934717
633830 44 18268127792130835805
7399639 24 18052254295468381984
9709674 26 18412820300518999565

>  <PUBCHEM_SHAPE_MULTIPOLES>  (1) 
502.75
9.26
3.23
2.19
0.08
0.02
-0.73
-0.15
-4.72
0.15
0.46
-0.08
-0.02
3.59

>  <PUBCHEM_SHAPE_SELFOVERLAP>  (1) 
1068.379

>  <PUBCHEM_SHAPE_VOLUME>  (1) 
284.8

>  <PUBCHEM_COORDINATE_TYPE>  (1) 
2
5
10

$$$$
