840
     RDKit          3D

 11 11  0  0  1  0  0  0  0  0999 V2000
    0.0545   -1.5880    0.1947 O   0  0  0  0  0  0  0  0  0  0  0  0
   -0.0793    2.5035    0.5244 O   0  0  0  0  0  0  0  0  0  0  0  0
    2.3506    1.2111   -0.3592 O   0  0  0  0  0  0  0  0  0  0  0  0
   -2.4408    1.0110   -0.4120 O   0  0  0  0  0  0  0  0  0  0  0  0
   -2.2735   -1.7405    0.2277 O   0  0  0  0  0  0  0  0  0  0  0  0
   -0.0521    1.2582   -0.1749 C   0  0  0  0  0  0  0  0  0  0  0  0
    1.2355    0.5287    0.2085 C   0  0  0  0  0  0  0  0  0  0  0  0
   -1.2859    0.4370    0.1997 C   0  0  0  0  0  0  0  0  0  0  0  0
    1.2137   -0.9149   -0.2995 C   0  0  0  0  0  0  0  0  0  0  0  0
   -1.1584   -1.0087   -0.2804 C   0  0  0  0  0  0  0  0  0  0  0  0
    2.4356   -1.6976    0.1709 C   0  0  0  0  0  0  0  0  0  0  0  0
  1  9  1  0
  1 10  1  0
  2  6  1  0
  3  7  1  0
  4  8  1  0
  5 10  1  0
  6  7  1  0
  6  8  1  0
  7  9  1  0
  8 10  1  0
  9 11  1  0
M  END
>  <PUBCHEM_COMPOUND_CID>  (1) 
840

>  <PUBCHEM_CONFORMER_RMSD>  (1) 
0.4

>  <PUBCHEM_CONFORMER_DIVERSEORDER>  (1) 
7
3
76
61
71
12
63
28
39
21
66
74
11
59
24
36
14
55
70
32
40
38
64
47
49
45
41
44
75
35
4
18
68
23
34
51
46
56
10
48
2
16
72
1
65
53
77
69
50
73
8
54
9
62
33
26
13
67
22
6
37
20
43
31
60
58
57
17
42
19
30
5
15
27
25
52
29

>  <PUBCHEM_MMFF94_PARTIAL_CHARGES>  (1) 
14
1 -0.56
10 0.56
2 -0.68
20 0.4
21 0.4
22 0.4
23 0.4
3 -0.68
4 -0.68
5 -0.68
6 0.28
7 0.28
8 0.28
9 0.28

>  <PUBCHEM_EFFECTIVE_ROTOR_COUNT>  (1) 
1.2

>  <PUBCHEM_PHARMACOPHORE_FEATURES>  (1) 
10
1 1 acceptor
1 2 acceptor
1 2 donor
1 3 acceptor
1 3 donor
1 4 acceptor
1 4 donor
1 5 acceptor
1 5 donor
6 1 6 7 8 9 10 rings

>  <PUBCHEM_HEAVY_ATOM_COUNT>  (1) 
11

>  <PUBCHEM_ATOM_DEF_STEREO_COUNT>  (1) 
0

>  <PUBCHEM_ATOM_UDEF_STEREO_COUNT>  (1) 
5

>  <PUBCHEM_BOND_DEF_STEREO_COUNT>  (1) 
0

>  <PUBCHEM_BOND_UDEF_STEREO_COUNT>  (1) 
0

>  <PUBCHEM_ISOTOPIC_ATOM_COUNT>  (1) 
0

>  <PUBCHEM_COMPONENT_COUNT>  (1) 
1

>  <PUBCHEM_CACTVS_TAUTO_COUNT>  (1) 
1

>  <PUBCHEM_CONFORMER_ID>  (1) 
0000034800000007

>  <PUBCHEM_MMFF94_ENERGY>  (1) 
24.1139

>  <PUBCHEM_FEATURE_SELFOVERLAP>  (1) 
50.805

>  <PUBCHEM_SHAPE_FINGERPRINT>  (1) 
12423570 1 16242386198493764296
16945 1 18195252104873609118
18185500 45 18411701001802603238
193761 8 18410293622581839148
21040471 1 18410852161593466884
23552423 10 18260832604924922854
241688 4 18410575058925027962
2748010 2 18411699897990830982
5084963 1 17770772420997874914
66348 1 17833831568929757210

>  <PUBCHEM_SHAPE_MULTIPOLES>  (1) 
197.03
3.07
2.33
0.65
0.43
0.39
0
-0.74
-0.13
-0.18
0.23
0.01
0.04
-0.07

>  <PUBCHEM_SHAPE_SELFOVERLAP>  (1) 
391.014

>  <PUBCHEM_SHAPE_VOLUME>  (1) 
115.3

>  <PUBCHEM_COORDINATE_TYPE>  (1) 
2
5
10

$$$$
