8402
     RDKit          3D

 16 17  0  0  0  0  0  0  0  0999 V2000
   -0.0008    1.9915   -0.6746 S   0  0  0  0  0  0  0  0  0  0  0  0
    0.0137    2.9623    0.4747 O   0  0  0  0  0  0  0  0  0  0  0  0
   -4.3908   -1.9222    0.4757 N   0  0  0  0  0  0  0  0  0  0  0  0
    4.3858   -1.9260    0.4754 N   0  0  0  0  0  0  0  0  0  0  0  0
   -1.3143    0.8209   -0.3304 C   0  0  0  0  0  0  0  0  0  0  0  0
    1.3238    0.8090   -0.3277 C   0  0  0  0  0  0  0  0  0  0  0  0
   -1.8252    0.7058    0.9625 C   0  0  0  0  0  0  0  0  0  0  0  0
    1.8223    0.0233   -1.3559 C   0  0  0  0  0  0  0  0  0  0  0  0
   -1.8254    0.0249   -1.3557 C   0  0  0  0  0  0  0  0  0  0  0  0
    1.8224    0.7042    0.9622 C   0  0  0  0  0  0  0  0  0  0  0  0
   -3.3577   -1.0013    0.2052 C   0  0  0  0  0  0  0  0  0  0  0  0
    3.3536   -1.0043    0.2046 C   0  0  0  0  0  0  0  0  0  0  0  0
   -2.8468   -0.2055    1.2302 C   0  0  0  0  0  0  0  0  0  0  0  0
    2.8431   -0.8888   -1.0881 C   0  0  0  0  0  0  0  0  0  0  0  0
   -2.8471   -0.8861   -1.0878 C   0  0  0  0  0  0  0  0  0  0  0  0
    2.8433   -0.2078    1.2298 C   0  0  0  0  0  0  0  0  0  0  0  0
  1  2  2  0
  1  5  1  0
  1  6  1  0
  3 11  1  0
  4 12  1  0
  5  7  2  0
  5  9  1  0
  6  8  2  0
  6 10  1  0
  7 13  1  0
  8 14  1  0
  9 15  2  0
 10 16  2  0
 11 13  2  0
 11 15  1  0
 12 14  2  0
 12 16  1  0
M  END
>  <PUBCHEM_COMPOUND_CID>  (1) 
8402

>  <PUBCHEM_CONFORMER_RMSD>  (1) 
0.6

>  <PUBCHEM_CONFORMER_DIVERSEORDER>  (1) 
1
2
3

>  <PUBCHEM_MMFF94_PARTIAL_CHARGES>  (1) 
28
1 0.37
10 -0.15
11 0.1
12 0.1
13 -0.15
14 -0.15
15 -0.15
16 -0.15
17 0.15
18 0.15
19 0.15
2 -0.5
20 0.15
21 0.15
22 0.15
23 0.15
24 0.15
25 0.4
26 0.4
27 0.4
28 0.4
3 -0.9
4 -0.9
5 0.06
6 0.06
7 -0.15
8 -0.15
9 -0.15

>  <PUBCHEM_EFFECTIVE_ROTOR_COUNT>  (1) 
2

>  <PUBCHEM_PHARMACOPHORE_FEATURES>  (1) 
7
1 2 acceptor
1 3 cation
1 3 donor
1 4 cation
1 4 donor
6 5 7 9 11 13 15 rings
6 6 8 10 12 14 16 rings

>  <PUBCHEM_HEAVY_ATOM_COUNT>  (1) 
16

>  <PUBCHEM_ATOM_DEF_STEREO_COUNT>  (1) 
0

>  <PUBCHEM_ATOM_UDEF_STEREO_COUNT>  (1) 
0

>  <PUBCHEM_BOND_DEF_STEREO_COUNT>  (1) 
0

>  <PUBCHEM_BOND_UDEF_STEREO_COUNT>  (1) 
0

>  <PUBCHEM_ISOTOPIC_ATOM_COUNT>  (1) 
0

>  <PUBCHEM_COMPONENT_COUNT>  (1) 
1

>  <PUBCHEM_CACTVS_TAUTO_COUNT>  (1) 
1

>  <PUBCHEM_CONFORMER_ID>  (1) 
000020D200000001

>  <PUBCHEM_MMFF94_ENERGY>  (1) 
63.0725

>  <PUBCHEM_FEATURE_SELFOVERLAP>  (1) 
35.52

>  <PUBCHEM_SHAPE_FINGERPRINT>  (1) 
10618630 7 18408324367344682606
11640471 11 10807646719294174876
12202030 40 17604997099079456913
12251169 10 16773795900415093164
12363563 72 18335417971646848443
12553582 1 18272093828538404663
12633257 1 16415473874148748675
13296908 3 18335696148088773277
13533116 47 18121507010497572939
13693222 15 17775272876783089668
14123255 52 9943808893382241267
15239191 94 18334301963065720627
15342168 16 10591768679654068011
15422964 175 18342464707431034519
16945 1 16702304546228387436
17834072 32 9799396841641655930
1798214 55 10375875190235816883
18186145 218 7781520368738128272
20291156 8 18408323284854882874
20361792 2 18407760347918290925
20559304 39 17773611600913877657
20645477 70 18117269479477163423
20671657 53 17022897939416383956
20871998 22 18410008874898486985
21524375 3 9727636085430322389
21713013 43 15719690838944538995
21731228 192 13901904509765663252
21731516 1 18335427862956622100
21756936 100 14259634015946555394
22646028 28 18334576845262350667
23559900 14 18189599563557264880
25 1 11530758155041102380
27216 239 11887372738423463111
3082319 5 14996279210542297671
31174 14 18192428795569134005
3286 77 18261392312410079279
4072396 5 17346053255191202467
5262128 65 15357705183877934095
549884 4 12757140286135740604
81228 2 18196086642747503301

>  <PUBCHEM_SHAPE_MULTIPOLES>  (1) 
317.29
7.15
2.07
1.4
0.03
0.91
0.11
-5.96
-1.19
-0.01
-0.17
0
-0.02
0

>  <PUBCHEM_SHAPE_SELFOVERLAP>  (1) 
666.397

>  <PUBCHEM_SHAPE_VOLUME>  (1) 
179.1

>  <PUBCHEM_COORDINATE_TYPE>  (1) 
2
5
10

$$$$
