8403
     RDKit          3D

 14 15  0  0  0  0  0  0  0  0999 V2000
   -0.0002   -0.0051    1.9256 O   0  0  0  0  0  0  0  0  0  0  0  0
    1.2670   -0.1593   -0.0914 C   0  0  0  0  0  0  0  0  0  0  0  0
   -1.2669    0.1599   -0.0909 C   0  0  0  0  0  0  0  0  0  0  0  0
    1.8674    1.2151   -0.3952 C   0  0  0  0  0  0  0  0  0  0  0  0
    2.2517   -1.0430    0.6775 C   0  0  0  0  0  0  0  0  0  0  0  0
   -1.8673   -1.2135   -0.3993 C   0  0  0  0  0  0  0  0  0  0  0  0
   -2.2517    1.0410    0.6810 C   0  0  0  0  0  0  0  0  0  0  0  0
    0.0000   -0.0010    0.6956 C   0  0  0  0  0  0  0  0  0  0  0  0
    3.2084    1.0982   -1.1147 C   0  0  0  0  0  0  0  0  0  0  0  0
    3.5921   -1.1545   -0.0442 C   0  0  0  0  0  0  0  0  0  0  0  0
   -3.2084   -1.0942   -1.1184 C   0  0  0  0  0  0  0  0  0  0  0  0
   -3.5920    1.1550   -0.0404 C   0  0  0  0  0  0  0  0  0  0  0  0
    4.1869    0.2185   -0.3423 C   0  0  0  0  0  0  0  0  0  0  0  0
   -4.1869   -0.2171   -0.3431 C   0  0  0  0  0  0  0  0  0  0  0  0
  1  8  2  0
  2  4  1  0
  2  5  1  0
  2  8  1  0
  3  6  1  0
  3  7  1  0
  3  8  1  0
  4  9  1  0
  5 10  1  0
  6 11  1  0
  7 12  1  0
  9 13  1  0
 10 13  1  0
 11 14  1  0
 12 14  1  0
M  END
>  <PUBCHEM_COMPOUND_CID>  (1) 
8403

>  <PUBCHEM_CONFORMER_RMSD>  (1) 
0.6

>  <PUBCHEM_CONFORMER_DIVERSEORDER>  (1) 
1
23
13
3
6
24
22
27
14
12
15
2
26
20
4
19
18
9
17
25
16
28
10
5
8
11
30
29
7
21

>  <PUBCHEM_MMFF94_PARTIAL_CHARGES>  (1) 
4
1 -0.57
2 0.06
3 0.06
8 0.45

>  <PUBCHEM_EFFECTIVE_ROTOR_COUNT>  (1) 
4.4

>  <PUBCHEM_PHARMACOPHORE_FEATURES>  (1) 
3
1 1 acceptor
6 2 4 5 9 10 13 rings
6 3 6 7 11 12 14 rings

>  <PUBCHEM_HEAVY_ATOM_COUNT>  (1) 
14

>  <PUBCHEM_ATOM_DEF_STEREO_COUNT>  (1) 
0

>  <PUBCHEM_ATOM_UDEF_STEREO_COUNT>  (1) 
0

>  <PUBCHEM_BOND_DEF_STEREO_COUNT>  (1) 
0

>  <PUBCHEM_BOND_UDEF_STEREO_COUNT>  (1) 
0

>  <PUBCHEM_ISOTOPIC_ATOM_COUNT>  (1) 
0

>  <PUBCHEM_COMPONENT_COUNT>  (1) 
1

>  <PUBCHEM_CACTVS_TAUTO_COUNT>  (1) 
2

>  <PUBCHEM_CONFORMER_ID>  (1) 
000020D300000001

>  <PUBCHEM_MMFF94_ENERGY>  (1) 
10.6231

>  <PUBCHEM_FEATURE_SELFOVERLAP>  (1) 
15.223

>  <PUBCHEM_SHAPE_FINGERPRINT>  (1) 
10465860 250 17060050419901779954
10465860 71 17703800244448465364
10751810 167 18202285805431746215
11471102 20 17821731624398001828
11543360 7 18410856598294495311
12032990 46 15770059436247252151
12707595 3 16558746844912528226
12932764 1 18201723980591010049
13296908 3 15841550777501934090
13764800 53 13984654820303412791
14115302 16 18059856164254460783
14144814 61 18410856546754887682
14250199 8 18041002876991099828
14251717 144 18260265244303858614
14350558 41 17917996036173388774
14386348 63 15698001842214599308
15309172 13 15285360617494832969
15375358 24 15626217996512497447
15775835 57 18333454239589941685
18186145 218 17240482502812770154
19026448 5 18410856542459920463
19422 9 18408603656367824831
200 152 18411138043496572178
20279233 1 15770056124827467223
20281407 28 16917068875527191655
20281475 54 17704071811178269391
20645476 183 18413106186453718319
20645477 70 17894911789606474882
20671657 53 17132116844471518504
20871999 31 18342167882863414229
21061003 4 15195565723452724899
21119208 17 18410855455833194692
21486144 27 17022910089789102566
22079108 93 17240776077314039569
22485316 2 16917345948162385118
22854114 59 15502376725174794317
23402539 116 18410569565820267732
23402655 69 18261393312794743564
23557571 272 16773801342592695696
23559900 14 17489584533487915890
23598291 2 18337955563037671342
25 1 17385725781429262866
3082319 5 18410855477308031135
474 4 17677054671542750604
57096353 35 18338797917629841965
58051976 100 18413108381165883463
633830 44 17530687571667223493
77492 1 18410575063198792050
81228 2 15768954362658057674
93112 12 18410855494487900357
9981440 41 17470447803852661816

>  <PUBCHEM_SHAPE_MULTIPOLES>  (1) 
282.24
8.03
1.36
1.13
0
0
0.25
0
-2.07
0
-0.17
0
0
-0.95

>  <PUBCHEM_SHAPE_SELFOVERLAP>  (1) 
568.031

>  <PUBCHEM_SHAPE_VOLUME>  (1) 
162.6

>  <PUBCHEM_COORDINATE_TYPE>  (1) 
2
5
10

$$$$
