8404
     RDKit          3D

 10 11  0  0  0  0  0  0  0  0999 V2000
   -2.4812   -0.6809    0.3414 C   0  0  0  0  0  0  0  0  0  0  0  0
   -2.4812    0.6809   -0.3412 C   0  0  0  0  0  0  0  0  0  0  0  0
   -1.2568   -1.4903   -0.0824 C   0  0  0  0  0  0  0  0  0  0  0  0
   -1.2569    1.4903    0.0821 C   0  0  0  0  0  0  0  0  0  0  0  0
    0.0284   -0.7034   -0.0185 C   0  0  0  0  0  0  0  0  0  0  0  0
    0.0285    0.7034    0.0185 C   0  0  0  0  0  0  0  0  0  0  0  0
    1.2508   -1.3913   -0.0551 C   0  0  0  0  0  0  0  0  0  0  0  0
    1.2508    1.3913    0.0553 C   0  0  0  0  0  0  0  0  0  0  0  0
    2.4588   -0.6952   -0.0288 C   0  0  0  0  0  0  0  0  0  0  0  0
    2.4588    0.6953    0.0288 C   0  0  0  0  0  0  0  0  0  0  0  0
  1  2  1  0
  1  3  1  0
  2  4  1  0
  3  5  1  0
  4  6  1  0
  5  6  2  0
  5  7  1  0
  6  8  1  0
  7  9  2  0
  8 10  2  0
  9 10  1  0
M  END
>  <PUBCHEM_COMPOUND_CID>  (1) 
8404

>  <PUBCHEM_CONFORMER_RMSD>  (1) 
0.4

>  <PUBCHEM_CONFORMER_DIVERSEORDER>  (1) 
1

>  <PUBCHEM_MMFF94_PARTIAL_CHARGES>  (1) 
12
10 -0.15
19 0.15
20 0.15
21 0.15
22 0.15
3 0.14
4 0.14
5 -0.14
6 -0.14
7 -0.15
8 -0.15
9 -0.15

>  <PUBCHEM_EFFECTIVE_ROTOR_COUNT>  (1) 
0.8

>  <PUBCHEM_PHARMACOPHORE_FEATURES>  (1) 
2
6 1 2 3 4 5 6 rings
6 5 6 7 8 9 10 rings

>  <PUBCHEM_HEAVY_ATOM_COUNT>  (1) 
10

>  <PUBCHEM_ATOM_DEF_STEREO_COUNT>  (1) 
0

>  <PUBCHEM_ATOM_UDEF_STEREO_COUNT>  (1) 
0

>  <PUBCHEM_BOND_DEF_STEREO_COUNT>  (1) 
0

>  <PUBCHEM_BOND_UDEF_STEREO_COUNT>  (1) 
0

>  <PUBCHEM_ISOTOPIC_ATOM_COUNT>  (1) 
0

>  <PUBCHEM_COMPONENT_COUNT>  (1) 
1

>  <PUBCHEM_CACTVS_TAUTO_COUNT>  (1) 
1

>  <PUBCHEM_CONFORMER_ID>  (1) 
000020D400000001

>  <PUBCHEM_MMFF94_ENERGY>  (1) 
17.8874

>  <PUBCHEM_FEATURE_SELFOVERLAP>  (1) 
10.17

>  <PUBCHEM_SHAPE_FINGERPRINT>  (1) 
10857977 72 18337383941429027257
12524768 44 18341054025364523847
12897270 3 18410293613986694885
14325111 11 18410292510185562837
16945 1 18411981360071927686
17844478 74 18114194059369993417
19973954 147 18410295800140911661
20201158 50 18411133610879488575
21040471 1 18410855430248130476
23402655 69 18268977723203604397
23552423 10 18260831531040511622
241688 4 16395497590544670251
2748010 2 18410574010931811084
29004967 10 18408889554891695242
369184 2 18410572885792836691
5084963 1 18272653454192276770
528886 8 18411695495607011643
66348 1 18266459797834636737

>  <PUBCHEM_SHAPE_MULTIPOLES>  (1) 
205.8
3.69
1.74
0.64
0.09
0
0
0
0
0.06
0
0.06
0
0.11

>  <PUBCHEM_SHAPE_SELFOVERLAP>  (1) 
435.072

>  <PUBCHEM_SHAPE_VOLUME>  (1) 
109.9

>  <PUBCHEM_COORDINATE_TYPE>  (1) 
2
5
10

$$$$
