8406
     RDKit          3D

 11 11  0  0  0  0  0  0  0  0999 V2000
    2.3252   -0.4515   -1.1966 O   0  0  0  0  0  0  0  0  0  0  0  0
    2.4854   -0.4274    1.0706 O   0  0  0  0  0  0  0  0  0  0  0  0
   -0.4221    3.0297   -0.0031 O   0  0  0  0  0  0  0  0  0  0  0  0
    0.3326   -0.5208    0.0310 C   0  0  0  0  0  0  0  0  0  0  0  0
   -0.4389    0.6413    0.0118 C   0  0  0  0  0  0  0  0  0  0  0  0
   -0.2880   -1.7700    0.0296 C   0  0  0  0  0  0  0  0  0  0  0  0
   -1.8309    0.5538   -0.0088 C   0  0  0  0  0  0  0  0  0  0  0  0
   -1.6799   -1.8575    0.0089 C   0  0  0  0  0  0  0  0  0  0  0  0
   -2.4513   -0.6956   -0.0102 C   0  0  0  0  0  0  0  0  0  0  0  0
    1.7884   -0.4626    0.0532 C   0  0  0  0  0  0  0  0  0  0  0  0
    0.1795    1.9606    0.0135 C   0  0  0  0  0  0  0  0  0  0  0  0
  1 10  1  0
  2 10  2  0
  3 11  2  0
  4  5  2  0
  4  6  1  0
  4 10  1  0
  5  7  1  0
  5 11  1  0
  6  8  2  0
  7  9  2  0
  8  9  1  0
M  END
>  <PUBCHEM_COMPOUND_CID>  (1) 
8406

>  <PUBCHEM_CONFORMER_RMSD>  (1) 
0.4

>  <PUBCHEM_CONFORMER_DIVERSEORDER>  (1) 
1
6
5
3
4
2

>  <PUBCHEM_MMFF94_PARTIAL_CHARGES>  (1) 
17
1 -0.65
10 0.63
11 0.42
12 0.15
13 0.15
14 0.15
15 0.15
16 0.06
17 0.5
2 -0.57
3 -0.57
4 0.09
5 0.09
6 -0.15
7 -0.15
8 -0.15
9 -0.15

>  <PUBCHEM_EFFECTIVE_ROTOR_COUNT>  (1) 
2

>  <PUBCHEM_PHARMACOPHORE_FEATURES>  (1) 
5
1 1 acceptor
1 2 acceptor
1 3 acceptor
3 1 2 10 anion
6 4 5 6 7 8 9 rings

>  <PUBCHEM_HEAVY_ATOM_COUNT>  (1) 
11

>  <PUBCHEM_ATOM_DEF_STEREO_COUNT>  (1) 
0

>  <PUBCHEM_ATOM_UDEF_STEREO_COUNT>  (1) 
0

>  <PUBCHEM_BOND_DEF_STEREO_COUNT>  (1) 
0

>  <PUBCHEM_BOND_UDEF_STEREO_COUNT>  (1) 
0

>  <PUBCHEM_ISOTOPIC_ATOM_COUNT>  (1) 
0

>  <PUBCHEM_COMPONENT_COUNT>  (1) 
1

>  <PUBCHEM_CACTVS_TAUTO_COUNT>  (1) 
1

>  <PUBCHEM_CONFORMER_ID>  (1) 
000020D600000001

>  <PUBCHEM_MMFF94_ENERGY>  (1) 
34.3857

>  <PUBCHEM_FEATURE_SELFOVERLAP>  (1) 
25.429

>  <PUBCHEM_SHAPE_FINGERPRINT>  (1) 
12423570 1 8041159220493544859
12524768 44 18272088348260348174
161256 15 17759818330548679431
16945 1 18338517426311508771
18185500 45 18335419084101543307
193761 8 17834112322716049947
21040471 1 17762056540890466368
23552423 10 17758677033120666719
241688 4 18411699893795960777
2748010 2 18339637944729857085
5084963 1 17985270672867694270
7364860 26 17839187659530910513
81228 2 18339925892138075369

>  <PUBCHEM_SHAPE_MULTIPOLES>  (1) 
208.77
2.98
2.44
0.77
0.15
1.97
-0.04
-1.28
0.02
-0.02
0.01
0.4
-0.16
0.01

>  <PUBCHEM_SHAPE_SELFOVERLAP>  (1) 
441.523

>  <PUBCHEM_SHAPE_VOLUME>  (1) 
116.9

>  <PUBCHEM_COORDINATE_TYPE>  (1) 
2
5
10

$$$$
