8409
     RDKit          3D

 20 21  0  0  0  0  0  0  0  0999 V2000
   -0.7889    0.6636   -2.1418 S   0  0  0  0  0  0  0  0  0  0  0  0
    0.7869   -0.6585   -2.1409 S   0  0  0  0  0  0  0  0  0  0  0  0
   -0.5947    2.0134    1.2173 O   0  0  0  0  0  0  0  0  0  0  0  0
    0.5926   -2.0110    1.2171 O   0  0  0  0  0  0  0  0  0  0  0  0
   -2.3397    3.0295    0.1737 O   0  0  0  0  0  0  0  0  0  0  0  0
    2.3346   -3.0298    0.1712 O   0  0  0  0  0  0  0  0  0  0  0  0
   -1.8602   -0.0560   -0.9024 C   0  0  0  0  0  0  0  0  0  0  0  0
    1.8573    0.0554   -0.9055 C   0  0  0  0  0  0  0  0  0  0  0  0
   -2.2260    0.6410    0.2494 C   0  0  0  0  0  0  0  0  0  0  0  0
    2.2260   -0.6411    0.2491 C   0  0  0  0  0  0  0  0  0  0  0  0
   -2.3321   -1.3516   -1.1129 C   0  0  0  0  0  0  0  0  0  0  0  0
    2.3353    1.3525   -1.1115 C   0  0  0  0  0  0  0  0  0  0  0  0
   -3.0638    0.0421    1.1902 C   0  0  0  0  0  0  0  0  0  0  0  0
    3.0658   -0.0448    1.1899 C   0  0  0  0  0  0  0  0  0  0  0  0
   -3.1700   -1.9503   -0.1721 C   0  0  0  0  0  0  0  0  0  0  0  0
    3.1751    1.9486   -0.1707 C   0  0  0  0  0  0  0  0  0  0  0  0
   -3.5357   -1.2536    0.9794 C   0  0  0  0  0  0  0  0  0  0  0  0
    3.5403    1.2500    0.9799 C   0  0  0  0  0  0  0  0  0  0  0  0
   -1.7624    1.9970    0.5208 C   0  0  0  0  0  0  0  0  0  0  0  0
    1.7597   -1.9963    0.5198 C   0  0  0  0  0  0  0  0  0  0  0  0
  1  2  1  0
  1  7  1  0
  2  8  1  0
  3 19  1  0
  4 20  1  0
  5 19  2  0
  6 20  2  0
  7  9  2  0
  7 11  1  0
  8 10  2  0
  8 12  1  0
  9 13  1  0
  9 19  1  0
 10 14  1  0
 10 20  1  0
 11 15  2  0
 12 16  2  0
 13 17  2  0
 14 18  2  0
 15 17  1  0
 16 18  1  0
M  END
>  <PUBCHEM_COMPOUND_CID>  (1) 
8409

>  <PUBCHEM_CONFORMER_RMSD>  (1) 
0.8

>  <PUBCHEM_CONFORMER_DIVERSEORDER>  (1) 
1
19
62
34
58
12
64
61
18
31
21
2
39
38
45
29
14
40
20
51
22
33
55
37
13
4
50
10
32
59
44
57
49
27
15
8
24
6
56
48
53
28
35
41
63
36
7
60
54
52
23
26
30
25
47
46
16
9
3
43
5
17
42
11

>  <PUBCHEM_MMFF94_PARTIAL_CHARGES>  (1) 
30
1 -0.1
10 0.09
11 -0.15
12 -0.15
13 -0.15
14 -0.15
15 -0.15
16 -0.15
17 -0.15
18 -0.15
19 0.63
2 -0.1
20 0.63
21 0.15
22 0.15
23 0.15
24 0.15
25 0.15
26 0.15
27 0.15
28 0.15
29 0.5
3 -0.65
30 0.5
4 -0.65
5 -0.57
6 -0.57
7 0.1
8 0.1
9 0.09

>  <PUBCHEM_EFFECTIVE_ROTOR_COUNT>  (1) 
5

>  <PUBCHEM_PHARMACOPHORE_FEATURES>  (1) 
8
1 3 acceptor
1 4 acceptor
1 5 acceptor
1 6 acceptor
3 3 5 19 anion
3 4 6 20 anion
6 7 9 11 13 15 17 rings
6 8 10 12 14 16 18 rings

>  <PUBCHEM_HEAVY_ATOM_COUNT>  (1) 
20

>  <PUBCHEM_ATOM_DEF_STEREO_COUNT>  (1) 
0

>  <PUBCHEM_ATOM_UDEF_STEREO_COUNT>  (1) 
0

>  <PUBCHEM_BOND_DEF_STEREO_COUNT>  (1) 
0

>  <PUBCHEM_BOND_UDEF_STEREO_COUNT>  (1) 
0

>  <PUBCHEM_ISOTOPIC_ATOM_COUNT>  (1) 
0

>  <PUBCHEM_COMPONENT_COUNT>  (1) 
1

>  <PUBCHEM_CACTVS_TAUTO_COUNT>  (1) 
1

>  <PUBCHEM_CONFORMER_ID>  (1) 
000020D900000001

>  <PUBCHEM_MMFF94_ENERGY>  (1) 
54.6784

>  <PUBCHEM_FEATURE_SELFOVERLAP>  (1) 
40.713

>  <PUBCHEM_SHAPE_FINGERPRINT>  (1) 
10498660 4 16271927138243040409
11370993 70 17896300537021348639
12596599 1 17559128785130088011
128993 33 15770061643855187073
14178342 30 18262510399602793984
14223421 5 18410575054598314396
14341114 328 18269844287893340961
14386348 128 15698005153629122591
14787075 74 17762618790637559941
15209289 33 18408611366140141358
16945 1 18338797921924809047
18981168 100 15697995219364479252
21069387 34 14490459924239291716
21756936 100 18197213874953992252
3797600 57 18267870664806326020
392239 28 17907299106320744944
6287921 2 18335713740496818526
7097593 13 18194403294787324674

>  <PUBCHEM_SHAPE_MULTIPOLES>  (1) 
395.81
6.22
2.83
1.78
0.02
0
-0.82
0
1.92
0
0.68
0
0
-0.41

>  <PUBCHEM_SHAPE_SELFOVERLAP>  (1) 
823.838

>  <PUBCHEM_SHAPE_VOLUME>  (1) 
225.7

>  <PUBCHEM_COORDINATE_TYPE>  (1) 
2
5
10

$$$$
