8426
     RDKit          3D

 18 19  0  0  0  0  0  0  0  0999 V2000
    4.8727    0.9126   -0.2666 O   0  0  0  0  0  0  0  0  0  0  0  0
   -0.7728   -1.7914    0.5106 O   0  0  0  0  0  0  0  0  0  0  0  0
   -1.4438    0.3652   -0.1249 N   0  0  0  0  0  0  0  0  0  0  0  0
    4.1813   -1.7864   -0.6624 N   0  0  0  0  0  0  0  0  0  0  0  0
    0.8945   -0.2374    0.0458 C   0  0  0  0  0  0  0  0  0  0  0  0
    3.2060   -0.8112   -0.3597 C   0  0  0  0  0  0  0  0  0  0  0  0
    1.8680   -1.1906   -0.2534 C   0  0  0  0  0  0  0  0  0  0  0  0
    3.5708    0.5213   -0.1672 C   0  0  0  0  0  0  0  0  0  0  0  0
    1.2593    1.0952    0.2386 C   0  0  0  0  0  0  0  0  0  0  0  0
   -0.5005   -0.6323    0.1585 C   0  0  0  0  0  0  0  0  0  0  0  0
    2.5973    1.4745    0.1319 C   0  0  0  0  0  0  0  0  0  0  0  0
   -2.8570    0.2820   -0.0765 C   0  0  0  0  0  0  0  0  0  0  0  0
   -3.4516   -0.9127    0.2917 C   0  0  0  0  0  0  0  0  0  0  0  0
   -3.6115    1.3970   -0.3988 C   0  0  0  0  0  0  0  0  0  0  0  0
   -4.8433   -0.9948    0.3391 C   0  0  0  0  0  0  0  0  0  0  0  0
   -5.0032    1.3149   -0.3510 C   0  0  0  0  0  0  0  0  0  0  0  0
   -5.6191    0.1190    0.0179 C   0  0  0  0  0  0  0  0  0  0  0  0
    5.6527    0.8751    0.9265 C   0  0  0  0  0  0  0  0  0  0  0  0
  1  8  1  0
  1 18  1  0
  2 10  2  0
  3 10  1  0
  3 12  1  0
  4  6  1  0
  5  7  1  0
  5  9  2  0
  5 10  1  0
  6  7  2  0
  6  8  1  0
  8 11  2  0
  9 11  1  0
 12 13  2  0
 12 14  1  0
 13 15  1  0
 14 16  2  0
 15 17  2  0
 16 17  1  0
M  END
>  <PUBCHEM_COMPOUND_CID>  (1) 
8426

>  <PUBCHEM_CONFORMER_RMSD>  (1) 
0.6

>  <PUBCHEM_CONFORMER_DIVERSEORDER>  (1) 
1
12
2
3
5
11
6
9
10
4
8
7

>  <PUBCHEM_MMFF94_PARTIAL_CHARGES>  (1) 
29
1 -0.36
10 0.54
11 -0.15
12 0.12
13 -0.15
14 -0.15
15 -0.15
16 -0.15
17 -0.15
18 0.28
19 0.15
2 -0.57
20 0.15
21 0.15
22 0.37
23 0.15
24 0.15
25 0.15
26 0.15
27 0.4
28 0.4
29 0.15
3 -0.55
4 -0.9
5 0.09
6 0.1
7 -0.15
8 0.08
9 -0.15

>  <PUBCHEM_EFFECTIVE_ROTOR_COUNT>  (1) 
4

>  <PUBCHEM_PHARMACOPHORE_FEATURES>  (1) 
7
1 1 acceptor
1 2 acceptor
1 3 donor
1 4 cation
1 4 donor
6 12 13 14 15 16 17 rings
6 5 6 7 8 9 11 rings

>  <PUBCHEM_HEAVY_ATOM_COUNT>  (1) 
18

>  <PUBCHEM_ATOM_DEF_STEREO_COUNT>  (1) 
0

>  <PUBCHEM_ATOM_UDEF_STEREO_COUNT>  (1) 
0

>  <PUBCHEM_BOND_DEF_STEREO_COUNT>  (1) 
0

>  <PUBCHEM_BOND_UDEF_STEREO_COUNT>  (1) 
0

>  <PUBCHEM_ISOTOPIC_ATOM_COUNT>  (1) 
0

>  <PUBCHEM_COMPONENT_COUNT>  (1) 
1

>  <PUBCHEM_CACTVS_TAUTO_COUNT>  (1) 
2

>  <PUBCHEM_CONFORMER_ID>  (1) 
000020EA00000001

>  <PUBCHEM_MMFF94_ENERGY>  (1) 
78.6288

>  <PUBCHEM_FEATURE_SELFOVERLAP>  (1) 
35.521

>  <PUBCHEM_SHAPE_FINGERPRINT>  (1) 
10 15 18263918994721426272
11128504 68 14979955899898101808
11287383 113 18409450297173884539
11471102 20 18341896273015047630
12107183 9 17687460161846007769
12236239 1 16558754511524090473
12507557 5 18341613741550677137
12616971 3 13262401085083056819
12916748 109 18333455330775385265
13073987 5 18272374135468600921
13081056 2 18408605851212164205
13533116 47 16343708690939346166
14251764 18 18040709299729939672
14341114 176 18410582764586967021
14573314 32 18408326570567966725
15196674 1 18410294687923658645
17834072 33 18201998841449914655
17844677 252 18341059527460372437
18186145 218 18260261924082895479
19489759 90 17313100865483005009
200 152 17918274247164501089
20645477 56 18409727395663394505
20645477 70 18130230359088904990
21267235 1 18340216214662961119
21279426 13 18266178327126597933
221357 26 18342736295831009253
23402539 116 18410004472672735029
23402655 69 18272932713103077661
23559900 14 18411983538222019278
2916195 48 18411974793157038424
29717793 49 17131558232471943796
300161 21 17775278378667870470
3004659 81 18261678078402178958
34934 24 18343296003236791014
351380 180 18408885144202992097
3545911 37 18342177786382784768
4047638 21 18334579036154347678
4072396 5 18341884191899791738
4214541 1 18410013213374326333
4990 188 18340492179249404679
5104073 3 18409732824676143819
5281201 14 18409735049321639517
542803 24 14490193795697622983
633830 44 18334290959686510663
69090 78 18341612646275987719
77779 3 18410577279887213429
9709674 26 18337116764583632659

>  <PUBCHEM_SHAPE_MULTIPOLES>  (1) 
348.73
13.17
1.65
0.73
2.3
0.18
0.03
-2.43
0.43
-0.34
-0.05
-0.26
0.01
0.99

>  <PUBCHEM_SHAPE_SELFOVERLAP>  (1) 
748.3

>  <PUBCHEM_SHAPE_VOLUME>  (1) 
192.3

>  <PUBCHEM_COORDINATE_TYPE>  (1) 
2
5
10

$$$$
