8429
     RDKit          3D

 19 19  0  0  0  0  0  0  0  0999 V2000
   -2.2572    2.8305   -0.5575 Cl  0  0  0  0  0  0  0  0  0  0  0  0
   -4.7128   -2.8222    0.4386 Cl  0  0  0  0  0  0  0  0  0  0  0  0
   -6.3121   -0.5973   -1.2849 Cl  0  0  0  0  0  0  0  0  0  0  0  0
    2.3812   -0.2455    0.2540 O   0  0  0  0  0  0  0  0  0  0  0  0
   -1.0169    0.5725    0.9916 O   0  0  0  0  0  0  0  0  0  0  0  0
    1.4097    1.7213    0.9726 O   0  0  0  0  0  0  0  0  0  0  0  0
    6.1036   -0.0411   -0.2128 C   0  0  0  0  0  0  0  0  0  0  0  0
    4.7012   -0.6448   -0.1835 C   0  0  0  0  0  0  0  0  0  0  0  0
    7.1361   -1.0566   -0.7016 C   0  0  0  0  0  0  0  0  0  0  0  0
    3.6605    0.3725    0.2622 C   0  0  0  0  0  0  0  0  0  0  0  0
    8.5284   -0.4491   -0.7644 C   0  0  0  0  0  0  0  0  0  0  0  0
    1.3312    0.5482    0.6343 C   0  0  0  0  0  0  0  0  0  0  0  0
    0.0550   -0.2489    0.5730 C   0  0  0  0  0  0  0  0  0  0  0  0
   -2.2546    0.3066    0.4573 C   0  0  0  0  0  0  0  0  0  0  0  0
   -2.9337    1.2678   -0.2809 C   0  0  0  0  0  0  0  0  0  0  0  0
   -2.8107   -0.9486    0.6729 C   0  0  0  0  0  0  0  0  0  0  0  0
   -4.0655   -1.2467    0.1417 C   0  0  0  0  0  0  0  0  0  0  0  0
   -4.1886    0.9695   -0.8120 C   0  0  0  0  0  0  0  0  0  0  0  0
   -4.7546   -0.2877   -0.6007 C   0  0  0  0  0  0  0  0  0  0  0  0
  1 15  1  0
  2 17  1  0
  3 19  1  0
  4 10  1  0
  4 12  1  0
  5 13  1  0
  5 14  1  0
  6 12  2  0
  7  8  1  0
  7  9  1  0
  8 10  1  0
  9 11  1  0
 12 13  1  0
 14 15  2  0
 14 16  1  0
 15 18  1  0
 16 17  2  0
 17 19  1  0
 18 19  2  0
M  END
>  <PUBCHEM_COMPOUND_CID>  (1) 
8429

>  <PUBCHEM_CONFORMER_RMSD>  (1) 
1

>  <PUBCHEM_CONFORMER_DIVERSEORDER>  (1) 
1
101
516
192
468
211
662
476
154
518
207
437
120
54
24
89
279
170
39
300
4
76
78
30
194
114
627
302
175
212
638
602
7
323
43
159
434
354
115
223
505
56
102
62
64
269
5
15
429
256
79
475
185
537
2
352
86
625
210
12
129
457
133
157
22
37
420
317
324
528
411
71
153
452
53
405
426
595
60
605
51
363
81
561
271
61
38
649
126
345
353
326
11
26
158
231
414
480
533
229
98
23
378
6
83
424
258
623
553
461
166
443
84
73
171
10
621

>  <PUBCHEM_MMFF94_PARTIAL_CHARGES>  (1) 
17
1 -0.18
10 0.28
12 0.66
13 0.34
14 0.08
15 0.18
16 -0.15
17 0.18
18 -0.15
19 0.18
2 -0.18
3 -0.18
33 0.15
34 0.15
4 -0.43
5 -0.36
6 -0.57

>  <PUBCHEM_EFFECTIVE_ROTOR_COUNT>  (1) 
8

>  <PUBCHEM_PHARMACOPHORE_FEATURES>  (1) 
4
1 11 hydrophobe
1 5 acceptor
1 6 acceptor
6 14 15 16 17 18 19 rings

>  <PUBCHEM_HEAVY_ATOM_COUNT>  (1) 
19

>  <PUBCHEM_ATOM_DEF_STEREO_COUNT>  (1) 
0

>  <PUBCHEM_ATOM_UDEF_STEREO_COUNT>  (1) 
0

>  <PUBCHEM_BOND_DEF_STEREO_COUNT>  (1) 
0

>  <PUBCHEM_BOND_UDEF_STEREO_COUNT>  (1) 
0

>  <PUBCHEM_ISOTOPIC_ATOM_COUNT>  (1) 
0

>  <PUBCHEM_COMPONENT_COUNT>  (1) 
1

>  <PUBCHEM_CACTVS_TAUTO_COUNT>  (1) 
1

>  <PUBCHEM_CONFORMER_ID>  (1) 
000020ED00000001

>  <PUBCHEM_MMFF94_ENERGY>  (1) 
33.7081

>  <PUBCHEM_FEATURE_SELFOVERLAP>  (1) 
20.305

>  <PUBCHEM_SHAPE_FINGERPRINT>  (1) 
10 15 10231753405380234262
11089746 13 16587746452043648812
11315181 36 18040439897109771348
12091667 2 17749398057225855136
12954195 1 18411134697986509369
13288520 33 18413672413519485345
13668630 136 17489590048210054582
1420 363 17346882243697350350
14350574 20 18060134353512761256
14729087 3 12540694847457370406
14849402 71 12678877075306897626
15048467 5 13479133488903885766
15183329 4 18040714741163353242
15348495 7 9078815378561493222
15461852 350 11314317173578430563
15716309 27 14405182859689431166
16992828 155 16734946718601296756
17093844 174 16128656314740986379
17780758 139 12391506490696768461
17870717 6 18408603665174089155
18643901 69 18409732893950034015
18927931 339 18334860528400760747
19489759 90 18187368705750835720
200 152 17561358496364676929
20281389 69 8142088658906565566
21150785 3 18114184142665118230
21267235 1 18335140925651650227
21307412 95 18266729359654387023
21623969 137 17203333291225053902
22224240 67 9367341531235055372
22288116 15 16878515634366239338
2297311 6 18408322194413179105
23081809 10 17313103021888819368
23198884 109 17240485793148063578
23402539 116 18113334219316984783
23557571 272 18413105044414377997
23559900 14 18336537339309601057
2838139 119 15502378932993901822
3004659 81 18335699455851686896
335352 9 18335132086878182069
59755656 215 18408599249499718783

>  <PUBCHEM_SHAPE_MULTIPOLES>  (1) 
379.01
19.92
2.11
1.01
42.42
0.28
-0.08
-8.74
-8.53
-3.52
0.03
-0.41
0.03
1.06

>  <PUBCHEM_SHAPE_SELFOVERLAP>  (1) 
736.806

>  <PUBCHEM_SHAPE_VOLUME>  (1) 
231.1

>  <PUBCHEM_COORDINATE_TYPE>  (1) 
2
5
10

$$$$
