8431
     RDKit          3D

 11 11  0  0  0  0  0  0  0  0999 V2000
   -1.7639    0.3070    0.0573 O   0  0  0  0  0  0  0  0  0  0  0  0
   -1.1316   -1.8789   -0.1651 O   0  0  0  0  0  0  0  0  0  0  0  0
    0.4654   -0.2402    0.2394 N   0  0  0  0  0  0  0  0  0  0  0  0
    3.1673    0.6417   -0.0606 N   0  0  0  0  0  0  0  0  0  0  0  0
    0.8111    1.1654    0.4679 C   0  0  0  0  0  0  0  0  0  0  0  0
    1.5703   -1.1843    0.3917 C   0  0  0  0  0  0  0  0  0  0  0  0
    2.0566    1.5597   -0.3229 C   0  0  0  0  0  0  0  0  0  0  0  0
    2.7944   -0.7334   -0.4005 C   0  0  0  0  0  0  0  0  0  0  0  0
   -0.8365   -0.7007    0.0270 C   0  0  0  0  0  0  0  0  0  0  0  0
   -3.1263   -0.0830   -0.1499 C   0  0  0  0  0  0  0  0  0  0  0  0
   -4.0067    1.1467   -0.0843 C   0  0  0  0  0  0  0  0  0  0  0  0
  1  9  1  0
  1 10  1  0
  2  9  2  0
  3  5  1  0
  3  6  1  0
  3  9  1  0
  4  7  1  0
  4  8  1  0
  5  7  1  0
  6  8  1  0
 10 11  1  0
M  END
>  <PUBCHEM_COMPOUND_CID>  (1) 
8431

>  <PUBCHEM_CONFORMER_RMSD>  (1) 
0.6

>  <PUBCHEM_CONFORMER_DIVERSEORDER>  (1) 
1
6
10
7
9
11
4
5
8
3
2

>  <PUBCHEM_MMFF94_PARTIAL_CHARGES>  (1) 
11
1 -0.43
10 0.28
2 -0.57
20 0.36
3 -0.66
4 -0.9
5 0.3
6 0.3
7 0.27
8 0.27
9 0.78

>  <PUBCHEM_EFFECTIVE_ROTOR_COUNT>  (1) 
4.2

>  <PUBCHEM_PHARMACOPHORE_FEATURES>  (1) 
4
1 2 acceptor
1 4 cation
1 4 donor
6 3 4 5 6 7 8 rings

>  <PUBCHEM_HEAVY_ATOM_COUNT>  (1) 
11

>  <PUBCHEM_ATOM_DEF_STEREO_COUNT>  (1) 
0

>  <PUBCHEM_ATOM_UDEF_STEREO_COUNT>  (1) 
0

>  <PUBCHEM_BOND_DEF_STEREO_COUNT>  (1) 
0

>  <PUBCHEM_BOND_UDEF_STEREO_COUNT>  (1) 
0

>  <PUBCHEM_ISOTOPIC_ATOM_COUNT>  (1) 
0

>  <PUBCHEM_COMPONENT_COUNT>  (1) 
1

>  <PUBCHEM_CACTVS_TAUTO_COUNT>  (1) 
1

>  <PUBCHEM_CONFORMER_ID>  (1) 
000020EF00000001

>  <PUBCHEM_MMFF94_ENERGY>  (1) 
7.7234

>  <PUBCHEM_FEATURE_SELFOVERLAP>  (1) 
20.297

>  <PUBCHEM_SHAPE_FINGERPRINT>  (1) 
10130415 120 18336822001062056330
10608611 8 18338515356216627305
11062470 55 16630524033563046400
11471102 20 18409726231637619085
12932764 1 17313374617792097219
13380535 21 18336275646640856795
14325111 11 18410573994184490881
14648413 74 18265616670116834984
14897335 6 18340199786375896736
15775835 57 18408324384646007597
177051 138 9079116661173186937
18186145 218 18340207401706411989
20606313 2 18340204102965891301
20653085 51 18335146431166831449
22485316 2 9367340423618562305
23402655 69 18343015571678807149
23552423 10 18263361558962388138
528886 8 18411133666998757234

>  <PUBCHEM_SHAPE_MULTIPOLES>  (1) 
204.67
5.87
1.63
0.66
4.19
0.06
0.01
-1.7
-0.63
-0.3
-0.04
-0.09
-0.02
-0.06

>  <PUBCHEM_SHAPE_SELFOVERLAP>  (1) 
394.351

>  <PUBCHEM_SHAPE_VOLUME>  (1) 
124.4

>  <PUBCHEM_COORDINATE_TYPE>  (1) 
2
5
10

$$$$
