8432
     RDKit          3D

 13 13  0  0  1  0  0  0  0  0999 V2000
    1.3561    1.1058    0.3335 O   0  0  0  0  0  0  0  0  0  0  0  0
    1.3596   -0.6489   -1.1647 O   0  0  0  0  0  0  0  0  0  0  0  0
    0.1202    1.5745   -0.2156 C   0  0  0  0  0  0  0  0  0  0  0  0
   -0.9323    0.5028   -0.0599 C   0  0  0  0  0  0  0  0  0  0  0  0
   -0.2801    2.8749    0.4722 C   0  0  0  0  0  0  0  0  0  0  0  0
   -0.8736   -0.3531    1.0283 C   0  0  0  0  0  0  0  0  0  0  0  0
   -1.9375    0.3955   -1.0076 C   0  0  0  0  0  0  0  0  0  0  0  0
    3.1606   -0.3826    0.4463 C   0  0  0  0  0  0  0  0  0  0  0  0
    1.8645   -0.0241   -0.2421 C   0  0  0  0  0  0  0  0  0  0  0  0
   -1.8459   -1.3429    1.1725 C   0  0  0  0  0  0  0  0  0  0  0  0
   -2.9098   -0.5941   -0.8633 C   0  0  0  0  0  0  0  0  0  0  0  0
   -2.8639   -1.4634    0.2268 C   0  0  0  0  0  0  0  0  0  0  0  0
    3.7821   -1.6444   -0.1263 C   0  0  0  0  0  0  0  0  0  0  0  0
  1  3  1  0
  1  9  1  0
  2  9  2  0
  3  4  1  0
  3  5  1  0
  4  6  2  0
  4  7  1  0
  6 10  1  0
  7 11  2  0
  8  9  1  0
  8 13  1  0
 10 12  2  0
 11 12  1  0
M  END
>  <PUBCHEM_COMPOUND_CID>  (1) 
8432

>  <PUBCHEM_CONFORMER_RMSD>  (1) 
0.6

>  <PUBCHEM_CONFORMER_DIVERSEORDER>  (1) 
3
1
30
15
19
14
28
26
25
9
6
21
16
13
8
20
24
34
22
29
31
11
5
2
10
32
33
27
35
17
4
23
18
7
12

>  <PUBCHEM_MMFF94_PARTIAL_CHARGES>  (1) 
16
1 -0.43
10 -0.15
11 -0.15
12 -0.15
18 0.15
19 0.15
2 -0.57
22 0.15
23 0.15
24 0.15
3 0.42
4 -0.14
6 -0.15
7 -0.15
8 0.06
9 0.66

>  <PUBCHEM_EFFECTIVE_ROTOR_COUNT>  (1) 
4

>  <PUBCHEM_PHARMACOPHORE_FEATURES>  (1) 
3
1 13 hydrophobe
1 2 acceptor
6 4 6 7 10 11 12 rings

>  <PUBCHEM_HEAVY_ATOM_COUNT>  (1) 
13

>  <PUBCHEM_ATOM_DEF_STEREO_COUNT>  (1) 
0

>  <PUBCHEM_ATOM_UDEF_STEREO_COUNT>  (1) 
1

>  <PUBCHEM_BOND_DEF_STEREO_COUNT>  (1) 
0

>  <PUBCHEM_BOND_UDEF_STEREO_COUNT>  (1) 
0

>  <PUBCHEM_ISOTOPIC_ATOM_COUNT>  (1) 
0

>  <PUBCHEM_COMPONENT_COUNT>  (1) 
1

>  <PUBCHEM_CACTVS_TAUTO_COUNT>  (1) 
1

>  <PUBCHEM_CONFORMER_ID>  (1) 
000020F000000003

>  <PUBCHEM_MMFF94_ENERGY>  (1) 
27.1385

>  <PUBCHEM_FEATURE_SELFOVERLAP>  (1) 
15.223

>  <PUBCHEM_SHAPE_FINGERPRINT>  (1) 
1 1 17618786198615140477
10610426 29 16700584936218226293
11127187 94 18041001721644903375
12326174 3 17768550612973005413
12423570 1 15291782684439968129
12532896 13 17692254036495641057
12716758 59 18040424486851424761
13024252 1 17896047554883968781
14115302 16 17967821517665823511
15279308 128 18261104145631559371
16945 1 17531232946740992113
17834072 14 18336814351777952074
17841504 4 18267868465772559969
17990270 104 18192145121294724737
20201158 50 18335135405748658951
20361792 2 18272375299235822516
20524608 308 17910393888145642492
20645477 70 18048024466211323975
20653085 51 14779274111037621871
20711985 344 18265607680639534216
21028194 46 10447938281926523762
21061003 4 18342745138682978835
21296965 67 18411980282193431025
22802520 49 17459474518834631425
23402539 116 18196921193758324957
23403322 49 18262798467512871226
23419403 2 13571342863188659017
23559900 14 18261097540620626962
81228 2 18196663903563317712

>  <PUBCHEM_SHAPE_MULTIPOLES>  (1) 
255.8
5.1
2.18
1.07
3.45
1.48
0
-3.67
-0.5
-0.05
0.45
-0.42
-0.17
0.38

>  <PUBCHEM_SHAPE_SELFOVERLAP>  (1) 
522.011

>  <PUBCHEM_SHAPE_VOLUME>  (1) 
148

>  <PUBCHEM_COORDINATE_TYPE>  (1) 
2
5
10

$$$$
