8435
     RDKit          3D

 17 17  0  0  0  0  0  0  0  0999 V2000
   -0.2423    0.6794    0.2355 S   0  0  0  0  0  0  0  0  0  0  0  0
    0.5446   -1.5965   -0.8232 O   0  0  0  0  0  0  0  0  0  0  0  0
   -4.2458    0.0771   -0.1086 N   0  0  0  0  0  0  0  0  0  0  0  0
    6.4031    0.5853    0.3467 N   0  0  0  0  0  0  0  0  0  0  0  0
   -2.9884    0.7364    0.2426 C   0  0  0  0  0  0  0  0  0  0  0  0
   -5.3844    0.9117    0.2734 C   0  0  0  0  0  0  0  0  0  0  0  0
   -4.3334   -1.2330    0.5352 C   0  0  0  0  0  0  0  0  0  0  0  0
   -1.8118   -0.1270   -0.1950 C   0  0  0  0  0  0  0  0  0  0  0  0
   -5.3168    2.2759   -0.3812 C   0  0  0  0  0  0  0  0  0  0  0  0
   -5.6002   -1.9626    0.1387 C   0  0  0  0  0  0  0  0  0  0  0  0
    0.9021   -0.5337   -0.3303 C   0  0  0  0  0  0  0  0  0  0  0  0
    2.3470   -0.2398   -0.1530 C   0  0  0  0  0  0  0  0  0  0  0  0
    3.2187   -1.2874    0.0618 C   0  0  0  0  0  0  0  0  0  0  0  0
    2.7721    1.0716   -0.2081 C   0  0  0  0  0  0  0  0  0  0  0  0
    5.0310    0.3062    0.1776 C   0  0  0  0  0  0  0  0  0  0  0  0
    4.5756   -1.0114    0.2290 C   0  0  0  0  0  0  0  0  0  0  0  0
    4.1291    1.3477   -0.0409 C   0  0  0  0  0  0  0  0  0  0  0  0
  1  8  1  0
  1 11  1  0
  2 11  2  0
  3  5  1  0
  3  6  1  0
  3  7  1  0
  4 15  1  0
  5  8  1  0
  6  9  1  0
  7 10  1  0
 11 12  1  0
 12 13  2  0
 12 14  1  0
 13 16  1  0
 14 17  2  0
 15 16  2  0
 15 17  1  0
M  END
>  <PUBCHEM_COMPOUND_CID>  (1) 
8435

>  <PUBCHEM_CONFORMER_RMSD>  (1) 
0.8

>  <PUBCHEM_CONFORMER_DIVERSEORDER>  (1) 
1
75
3
63
61
22
79
70
16
2
62
76
11
41
44
10
49
25
65
77
56
9
45
39
47
83
69
37
27
80
36
50
59
23
66
20
8
82
26
67
78
28
15
13
38
81
74
19
34
18
6
64
24
73
48
52
43
42
31
72
71
4
5
40
17
84
85
54
7
51
60
35
46
53
14
58
21
68
30
57
55
32
12
33
29
86

>  <PUBCHEM_MMFF94_PARTIAL_CHARGES>  (1) 
21
1 -0.37
11 0.62
12 0.09
13 -0.15
14 -0.15
15 0.1
16 -0.15
17 -0.15
2 -0.57
3 -0.81
32 0.15
33 0.15
34 0.15
35 0.15
36 0.4
37 0.4
4 -0.9
5 0.27
6 0.27
7 0.27
8 0.23

>  <PUBCHEM_EFFECTIVE_ROTOR_COUNT>  (1) 
7

>  <PUBCHEM_PHARMACOPHORE_FEATURES>  (1) 
4
1 3 cation
1 4 cation
1 4 donor
6 12 13 14 15 16 17 rings

>  <PUBCHEM_HEAVY_ATOM_COUNT>  (1) 
17

>  <PUBCHEM_ATOM_DEF_STEREO_COUNT>  (1) 
0

>  <PUBCHEM_ATOM_UDEF_STEREO_COUNT>  (1) 
0

>  <PUBCHEM_BOND_DEF_STEREO_COUNT>  (1) 
0

>  <PUBCHEM_BOND_UDEF_STEREO_COUNT>  (1) 
0

>  <PUBCHEM_ISOTOPIC_ATOM_COUNT>  (1) 
0

>  <PUBCHEM_COMPONENT_COUNT>  (1) 
1

>  <PUBCHEM_CACTVS_TAUTO_COUNT>  (1) 
2

>  <PUBCHEM_CONFORMER_ID>  (1) 
000020F300000001

>  <PUBCHEM_MMFF94_ENERGY>  (1) 
47.9078

>  <PUBCHEM_FEATURE_SELFOVERLAP>  (1) 
20.297

>  <PUBCHEM_SHAPE_FINGERPRINT>  (1) 
10354089 29 18410855478083432524
11287383 113 18409731776445556089
11315181 36 17894914066154834575
117890 112 18409449146297079737
12091667 2 18187367636166764193
12107183 9 17688589360092438049
12236239 1 18409446990581823058
12596602 18 18408038511691332194
12916748 109 17632304484120549448
13167372 99 18269556048343587416
13167823 11 18407758140463518571
13533116 47 17095795530805853832
13785724 45 17835237840624939898
14251732 16 18338516451506907072
14251764 18 18113614612943086328
14341114 176 18336834091152427093
15196674 1 18410857659452182159
15788980 27 18040439888778208617
17834072 33 18410856594015378195
17844677 252 18409455812276318161
19489759 90 17821727247894840505
20645477 70 18410857616824756342
21267235 1 18341900680289900758
21315763 129 18408603690669885229
21709351 56 18408600379365911205
220451 1 17821732697638932378
23081809 10 17676209073959491174
23402539 116 18186799180054765317
23402655 69 18201717331976373997
23536379 177 18334294249335865465
23559900 14 18198343948814588271
26918003 58 18411136918215251201
300161 21 18186796946845760163
314173 85 16081088164784727519
351380 180 18334013891140354872
4073 2 18041005050244467307
4214541 1 18408604751890498825
42788 4 18410575084668366673
4325135 7 18412262874199469799
474229 33 18343022228683190359
5104073 3 18410857646662168203
542803 24 17313109643879245389
7495541 125 18130504235851334857
77779 3 18409168805354914721

>  <PUBCHEM_SHAPE_MULTIPOLES>  (1) 
337.87
15.97
1.86
0.7
3.71
0.01
0.01
1.64
-1.57
2.27
0.11
0.06
-0.04
0.38

>  <PUBCHEM_SHAPE_SELFOVERLAP>  (1) 
665.188

>  <PUBCHEM_SHAPE_VOLUME>  (1) 
204.3

>  <PUBCHEM_COORDINATE_TYPE>  (1) 
2
5
10

$$$$
