8437
     RDKit          3D

 23 24  0  0  0  0  0  0  0  0999 V2000
   -3.0709    0.2468    0.2157 O   0  0  0  0  0  0  0  0  0  0  0  0
   -1.9616   -2.3080    0.2926 O   0  0  0  0  0  0  0  0  0  0  0  0
   -1.2554    2.3568    0.4983 O   0  0  0  0  0  0  0  0  0  0  0  0
   -1.4640   -1.1181   -1.6140 O   0  0  0  0  0  0  0  0  0  0  0  0
   -0.7959    2.3091   -1.7569 O   0  0  0  0  0  0  0  0  0  0  0  0
   -3.8160   -0.8480    0.7354 C   0  0  0  0  0  0  0  0  0  0  0  0
   -3.4567    1.4729    0.8208 C   0  0  0  0  0  0  0  0  0  0  0  0
   -3.3611   -2.1241    0.0537 C   0  0  0  0  0  0  0  0  0  0  0  0
   -2.6309    2.5985    0.2284 C   0  0  0  0  0  0  0  0  0  0  0  0
    0.2863   -2.0122   -0.2643 C   0  0  0  0  0  0  0  0  0  0  0  0
    0.9573    1.9820   -0.1743 C   0  0  0  0  0  0  0  0  0  0  0  0
   -1.1010   -1.7556   -0.6165 C   0  0  0  0  0  0  0  0  0  0  0  0
   -0.4462    2.2321   -0.5894 C   0  0  0  0  0  0  0  0  0  0  0  0
    1.2516   -2.1198   -1.2656 C   0  0  0  0  0  0  0  0  0  0  0  0
    1.9519    1.8222   -1.1393 C   0  0  0  0  0  0  0  0  0  0  0  0
    0.6521   -2.1502    1.0747 C   0  0  0  0  0  0  0  0  0  0  0  0
    1.2815    1.9075    1.1803 C   0  0  0  0  0  0  0  0  0  0  0  0
    2.5824   -2.3657   -0.9279 C   0  0  0  0  0  0  0  0  0  0  0  0
    3.2705    1.5875   -0.7496 C   0  0  0  0  0  0  0  0  0  0  0  0
    1.9831   -2.3960    1.4122 C   0  0  0  0  0  0  0  0  0  0  0  0
    2.6001    1.6730    1.5699 C   0  0  0  0  0  0  0  0  0  0  0  0
    2.9482   -2.5038    0.4108 C   0  0  0  0  0  0  0  0  0  0  0  0
    3.5947    1.5130    0.6050 C   0  0  0  0  0  0  0  0  0  0  0  0
  1  6  1  0
  1  7  1  0
  2  8  1  0
  2 12  1  0
  3  9  1  0
  3 13  1  0
  4 12  2  0
  5 13  2  0
  6  8  1  0
  7  9  1  0
 10 12  1  0
 10 14  2  0
 10 16  1  0
 11 13  1  0
 11 15  2  0
 11 17  1  0
 14 18  1  0
 15 19  1  0
 16 20  2  0
 17 21  2  0
 18 22  2  0
 19 23  2  0
 20 22  1  0
 21 23  1  0
M  END
>  <PUBCHEM_COMPOUND_CID>  (1) 
8437

>  <PUBCHEM_CONFORMER_RMSD>  (1) 
1

>  <PUBCHEM_CONFORMER_DIVERSEORDER>  (1) 
2
13
52
25
48
29
19
58
3
33
12
5
39
15
81
18
14
50
82
26
64
27
41
36
77
16
34
30
6
1
17
74
24
72
61
75
21
83
56
28
46
43
22
79
62
44
80
70
35
7
73
65
20
59
67
54
68
57
63
49
38
9
31
42
78
32
40
55
47
71
66
11
69
76
53
23
51
4
60
10
8
37
45

>  <PUBCHEM_MMFF94_PARTIAL_CHARGES>  (1) 
33
1 -0.56
10 0.09
11 0.09
12 0.63
13 0.63
14 -0.15
15 -0.15
16 -0.15
17 -0.15
18 -0.15
19 -0.15
2 -0.43
20 -0.15
21 -0.15
22 -0.15
23 -0.15
3 -0.43
32 0.15
33 0.15
34 0.15
35 0.15
36 0.15
37 0.15
38 0.15
39 0.15
4 -0.57
40 0.15
41 0.15
5 -0.57
6 0.28
7 0.28
8 0.28
9 0.28

>  <PUBCHEM_EFFECTIVE_ROTOR_COUNT>  (1) 
10

>  <PUBCHEM_PHARMACOPHORE_FEATURES>  (1) 
5
1 1 acceptor
1 4 acceptor
1 5 acceptor
6 10 14 16 18 20 22 rings
6 11 15 17 19 21 23 rings

>  <PUBCHEM_HEAVY_ATOM_COUNT>  (1) 
23

>  <PUBCHEM_ATOM_DEF_STEREO_COUNT>  (1) 
0

>  <PUBCHEM_ATOM_UDEF_STEREO_COUNT>  (1) 
0

>  <PUBCHEM_BOND_DEF_STEREO_COUNT>  (1) 
0

>  <PUBCHEM_BOND_UDEF_STEREO_COUNT>  (1) 
0

>  <PUBCHEM_ISOTOPIC_ATOM_COUNT>  (1) 
0

>  <PUBCHEM_COMPONENT_COUNT>  (1) 
1

>  <PUBCHEM_CACTVS_TAUTO_COUNT>  (1) 
1

>  <PUBCHEM_CONFORMER_ID>  (1) 
000020F500000002

>  <PUBCHEM_MMFF94_ENERGY>  (1) 
59.742

>  <PUBCHEM_FEATURE_SELFOVERLAP>  (1) 
25.377

>  <PUBCHEM_SHAPE_FINGERPRINT>  (1) 
10382601 240 18336271223003760434
104564 63 18339641260618728376
1100329 8 18052262795176934057
11578080 2 17531517685998473647
12156800 1 16525884727444389750
12422481 6 18266720442937478514
12633257 1 18052825741278552049
13122387 1 17690280408875691161
13140716 1 18338804390720563251
14251745 187 18269286822961335532
14251757 17 17772222801874500852
17093844 170 18337956800072798052
17492 54 17830198825930692172
20600515 1 17692539914224760998
20691752 17 17749399130746197937
20905425 154 18341905098977746719
21141583 151 17621326731889554790
2818148 4 18335994077275202934
3052486 1 18261402178034393620
5282274 181 18268707212592435520
59755656 215 18339928237538430663

>  <PUBCHEM_SHAPE_MULTIPOLES>  (1) 
443.98
6
4.49
1.44
2.78
0.37
-0.09
-0.24
1.24
-0.85
-0.03
-0.58
-0.08
-0.03

>  <PUBCHEM_SHAPE_SELFOVERLAP>  (1) 
932.558

>  <PUBCHEM_SHAPE_VOLUME>  (1) 
248.9

>  <PUBCHEM_COORDINATE_TYPE>  (1) 
2
5
10

$$$$
