844
     RDKit          3D

  9  8  0  0  1  0  0  0  0  0999 V2000
    1.6370   -1.6846    0.5047 O   0  0  0  0  0  0  0  0  0  0  0  0
    2.3414   -0.1942   -1.0521 O   0  0  0  0  0  0  0  0  0  0  0  0
   -3.2430   -0.4118    0.3754 O   0  0  0  0  0  0  0  0  0  0  0  0
    1.1139    1.8739    0.1168 N   0  0  0  0  0  0  0  0  0  0  0  0
   -0.6095    0.2420    0.7159 C   0  0  0  0  0  0  0  0  0  0  0  0
    0.8866    0.5715    0.7477 C   0  0  0  0  0  0  0  0  0  0  0  0
   -1.1785    0.2068   -0.7011 C   0  0  0  0  0  0  0  0  0  0  0  0
    1.6907   -0.4432   -0.0449 C   0  0  0  0  0  0  0  0  0  0  0  0
   -2.6386   -0.1604   -0.6624 C   0  0  0  0  0  0  0  0  0  0  0  0
  1  8  1  0
  2  8  2  0
  3  9  2  0
  4  6  1  0
  5  6  1  0
  5  7  1  0
  6  8  1  0
  7  9  1  0
M  END
>  <PUBCHEM_COMPOUND_CID>  (1) 
844

>  <PUBCHEM_CONFORMER_RMSD>  (1) 
0.6

>  <PUBCHEM_CONFORMER_DIVERSEORDER>  (1) 
2
31
39
28
25
35
16
26
40
38
14
20
22
15
34
33
9
3
19
6
12
37
32
23
30
5
21
36
17
10
18
7
29
11
4
27
24
8
13
1

>  <PUBCHEM_MMFF94_PARTIAL_CHARGES>  (1) 
12
1 -0.65
15 0.36
16 0.36
17 0.06
18 0.5
2 -0.57
3 -0.57
4 -0.99
6 0.33
7 0.06
8 0.66
9 0.45

>  <PUBCHEM_EFFECTIVE_ROTOR_COUNT>  (1) 
4

>  <PUBCHEM_PHARMACOPHORE_FEATURES>  (1) 
6
1 1 acceptor
1 2 acceptor
1 3 acceptor
1 4 cation
1 4 donor
3 1 2 8 anion

>  <PUBCHEM_HEAVY_ATOM_COUNT>  (1) 
9

>  <PUBCHEM_ATOM_DEF_STEREO_COUNT>  (1) 
0

>  <PUBCHEM_ATOM_UDEF_STEREO_COUNT>  (1) 
1

>  <PUBCHEM_BOND_DEF_STEREO_COUNT>  (1) 
0

>  <PUBCHEM_BOND_UDEF_STEREO_COUNT>  (1) 
0

>  <PUBCHEM_ISOTOPIC_ATOM_COUNT>  (1) 
0

>  <PUBCHEM_COMPONENT_COUNT>  (1) 
1

>  <PUBCHEM_CACTVS_TAUTO_COUNT>  (1) 
2

>  <PUBCHEM_CONFORMER_ID>  (1) 
0000034C00000002

>  <PUBCHEM_MMFF94_ENERGY>  (1) 
5.1991

>  <PUBCHEM_FEATURE_SELFOVERLAP>  (1) 
30.505

>  <PUBCHEM_SHAPE_FINGERPRINT>  (1) 
12897270 3 17676492743532744871
12932741 1 17968645103926299069
12932764 1 18410006650585047015
14390081 3 13406793320245783255
15310529 11 18187363199186050591
20653091 64 18202279233952422481
23552333 60 17917992806014863584
23552423 10 18270955851552647365
23552449 11 17988343932210259992
29004967 10 18411127026631203520
5084963 1 16371272351523849025

>  <PUBCHEM_SHAPE_MULTIPOLES>  (1) 
162.63
3.95
1.27
0.96
2.77
0.21
0.07
-0.97
0.48
-0.85
-0.15
-0.07
-0.03
-0.01

>  <PUBCHEM_SHAPE_SELFOVERLAP>  (1) 
305.823

>  <PUBCHEM_SHAPE_VOLUME>  (1) 
100

>  <PUBCHEM_COORDINATE_TYPE>  (1) 
2
5
10

$$$$
