8442
     RDKit          3D

 22 23  0  0  1  0  0  0  0  0999 V2000
   -0.4167    2.7050   -0.2386 S   0  0  0  0  0  0  0  0  0  0  0  0
   -0.7916    3.6869    0.8275 O   0  0  0  0  0  0  0  0  0  0  0  0
    6.3143   -0.4395   -0.1605 O   0  0  0  0  0  0  0  0  0  0  0  0
    5.5657   -2.6145    0.5585 O   0  0  0  0  0  0  0  0  0  0  0  0
   -3.5951    0.0687    0.1102 C   0  0  0  0  0  0  0  0  0  0  0  0
    1.2097    2.0349    0.1794 C   0  0  0  0  0  0  0  0  0  0  0  0
   -2.8184    1.3606   -0.1539 C   0  0  0  0  0  0  0  0  0  0  0  0
   -5.0962    0.2704   -0.1082 C   0  0  0  0  0  0  0  0  0  0  0  0
   -1.3294    1.1688    0.1020 C   0  0  0  0  0  0  0  0  0  0  0  0
   -5.9205   -1.0007    0.1209 C   0  0  0  0  0  0  0  0  0  0  0  0
    1.6958    1.1501   -0.9787 C   0  0  0  0  0  0  0  0  0  0  0  0
   -7.4245   -0.7901   -0.0727 C   0  0  0  0  0  0  0  0  0  0  0  0
    2.7089    0.1136   -0.5581 C   0  0  0  0  0  0  0  0  0  0  0  0
    2.1566    3.1947    0.4770 C   0  0  0  0  0  0  0  0  0  0  0  0
   -8.2394   -2.0750    0.0968 C   0  0  0  0  0  0  0  0  0  0  0  0
    4.0708    0.4228   -0.5885 C   0  0  0  0  0  0  0  0  0  0  0  0
    2.2723   -1.1553   -0.1387 C   0  0  0  0  0  0  0  0  0  0  0  0
    4.9589   -0.5572   -0.1949 C   0  0  0  0  0  0  0  0  0  0  0  0
   -9.7372   -1.8687   -0.0682 C   0  0  0  0  0  0  0  0  0  0  0  0
    4.5315   -1.7992    0.2156 C   0  0  0  0  0  0  0  0  0  0  0  0
    3.1926   -2.1298    0.2550 C   0  0  0  0  0  0  0  0  0  0  0  0
    6.6921   -1.7464    0.3182 C   0  0  0  0  0  0  0  0  0  0  0  0
  1  2  2  0
  1  6  1  0
  1  9  1  0
  3 18  1  0
  3 22  1  0
  4 20  1  0
  4 22  1  0
  5  7  1  0
  5  8  1  0
  6 11  1  0
  6 14  1  0
  7  9  1  0
  8 10  1  0
 10 12  1  0
 11 13  1  0
 12 15  1  0
 13 16  1  0
 13 17  2  0
 15 19  1  0
 16 18  2  0
 17 21  1  0
 18 20  1  0
 20 21  2  0
M  END
>  <PUBCHEM_COMPOUND_CID>  (1) 
8442

>  <PUBCHEM_CONFORMER_RMSD>  (1) 
1.4

>  <PUBCHEM_CONFORMER_DIVERSEORDER>  (1) 
1
41
34
14
94
47
8
3
74
7
61
73
37
5
29
69
55
11
50
56
93
2
45
24
90
82
87
51
75
17
31
91
60
76
35
42
15
70
80
26
13
16
63
59
57
65
33
53
19
68
43
22
72
25
12
38
71
84
62
21
30
66
86
64
23
20
27
28
49
81
48
52
6
67
44
10
83
40
89
58
9
18
54
79
39
32
46
77
92
78
4
85
88
36

>  <PUBCHEM_MMFF94_PARTIAL_CHARGES>  (1) 
17
1 0.11
11 0.14
13 -0.14
16 -0.15
17 -0.15
18 0.08
2 -0.5
20 0.08
21 -0.15
22 0.56
3 -0.36
4 -0.36
43 0.15
44 0.15
48 0.15
6 0.19
9 0.19

>  <PUBCHEM_EFFECTIVE_ROTOR_COUNT>  (1) 
10.6

>  <PUBCHEM_PHARMACOPHORE_FEATURES>  (1) 
8
1 19 hydrophobe
1 2 acceptor
1 3 acceptor
1 4 acceptor
3 10 12 15 hydrophobe
3 5 7 8 hydrophobe
5 3 4 18 20 22 rings
6 13 16 17 18 20 21 rings

>  <PUBCHEM_HEAVY_ATOM_COUNT>  (1) 
22

>  <PUBCHEM_ATOM_DEF_STEREO_COUNT>  (1) 
0

>  <PUBCHEM_ATOM_UDEF_STEREO_COUNT>  (1) 
2

>  <PUBCHEM_BOND_DEF_STEREO_COUNT>  (1) 
0

>  <PUBCHEM_BOND_UDEF_STEREO_COUNT>  (1) 
0

>  <PUBCHEM_ISOTOPIC_ATOM_COUNT>  (1) 
0

>  <PUBCHEM_COMPONENT_COUNT>  (1) 
1

>  <PUBCHEM_CACTVS_TAUTO_COUNT>  (1) 
1

>  <PUBCHEM_CONFORMER_ID>  (1) 
000020FA00000001

>  <PUBCHEM_MMFF94_ENERGY>  (1) 
29.2286

>  <PUBCHEM_FEATURE_SELFOVERLAP>  (1) 
40.763

>  <PUBCHEM_SHAPE_FINGERPRINT>  (1) 
10 15 11815901167826202887
10411042 1 18411419483987652000
10753850 27 18408884036196466321
11409948 8 18341882040369252840
12166972 35 18040720255257984892
12592606 108 18411417324615621063
12838863 1 18114455670224064442
13533116 47 18271245045097681833
13631057 29 18336266730821487336
13685833 64 18410856577452778401
13955234 65 18127126596382662425
14216079 64 18409448103368885815
14919807 6 17750216073314649463
15019793 15 17906736157091191803
15183329 4 16153422831763809925
15927050 60 17910952771319241012
17134984 74 17385721404546735731
17492 89 18050567340322224118
20028762 73 18339924818586759438
20165401 70 18269552914167643159
20526848 3 9367345938282743415
20771845 171 17968381272924076572
21049683 271 18408889568326210908
21197605 99 18412545388564164390
21267235 1 18413111649445909622
21344244 78 16702028595133780865
21360443 89 18187638052505430810
23522609 53 18121818043133921901
23524908 199 12180113255996634168
23569914 152 7925072663750589538
3004659 81 18040151812078223721
33532 11 18338236077007493463
3421961 26 18412824719972243241
397830 11 10879712135549146285
439807 62 18334016108045073575
46194498 28 17241045517428494517
465052 167 18343866614852725677
5104073 3 18059856134248511776
5718773 13 18409166602189815615
59682541 35 18271514361137522272
6438161 24 18409445917156705019
96874 4 18341890814650295359

>  <PUBCHEM_SHAPE_MULTIPOLES>  (1) 
438.99
23.6
3.63
0.75
53.41
2.33
0.04
-26.33
-0.45
-1.78
-0.81
-0.26
0.16
-0.54

>  <PUBCHEM_SHAPE_SELFOVERLAP>  (1) 
869.3

>  <PUBCHEM_SHAPE_VOLUME>  (1) 
264.7

>  <PUBCHEM_COORDINATE_TYPE>  (1) 
2
5
10

$$$$
