8454
     RDKit          3D

  6  6  0  0  0  0  0  0  0  0999 V2000
    0.7394    0.0002   -0.3394 N   0  0  0  0  0  0  0  0  0  0  0  0
   -1.4463   -0.7626   -0.0326 C   0  0  0  0  0  0  0  0  0  0  0  0
   -1.4459    0.7629   -0.0351 C   0  0  0  0  0  0  0  0  0  0  0  0
    0.0084   -1.1609    0.1675 C   0  0  0  0  0  0  0  0  0  0  0  0
    0.0085    1.1605    0.1693 C   0  0  0  0  0  0  0  0  0  0  0  0
    2.1359   -0.0001    0.0703 C   0  0  0  0  0  0  0  0  0  0  0  0
  1  4  1  0
  1  5  1  0
  1  6  1  0
  2  3  1  0
  2  4  1  0
  3  5  1  0
M  END
>  <PUBCHEM_COMPOUND_CID>  (1) 
8454

>  <PUBCHEM_CONFORMER_RMSD>  (1) 
0.4

>  <PUBCHEM_CONFORMER_DIVERSEORDER>  (1) 
1
2

>  <PUBCHEM_MMFF94_PARTIAL_CHARGES>  (1) 
4
1 -0.81
4 0.27
5 0.27
6 0.27

>  <PUBCHEM_EFFECTIVE_ROTOR_COUNT>  (1) 
1

>  <PUBCHEM_PHARMACOPHORE_FEATURES>  (1) 
2
1 1 cation
5 1 2 3 4 5 rings

>  <PUBCHEM_HEAVY_ATOM_COUNT>  (1) 
6

>  <PUBCHEM_ATOM_DEF_STEREO_COUNT>  (1) 
0

>  <PUBCHEM_ATOM_UDEF_STEREO_COUNT>  (1) 
0

>  <PUBCHEM_BOND_DEF_STEREO_COUNT>  (1) 
0

>  <PUBCHEM_BOND_UDEF_STEREO_COUNT>  (1) 
0

>  <PUBCHEM_ISOTOPIC_ATOM_COUNT>  (1) 
0

>  <PUBCHEM_COMPONENT_COUNT>  (1) 
1

>  <PUBCHEM_CACTVS_TAUTO_COUNT>  (1) 
1

>  <PUBCHEM_CONFORMER_ID>  (1) 
0000210600000001

>  <PUBCHEM_MMFF94_ENERGY>  (1) 
5.8438

>  <PUBCHEM_FEATURE_SELFOVERLAP>  (1) 
10.148

>  <PUBCHEM_SHAPE_FINGERPRINT>  (1) 
139733 1 9150909264192084335
16714656 1 18410862061645863660
20096714 4 18266743476108510233
21015797 1 9294126151436832773
21040471 1 18266461992610573173
23552423 10 18260555485235097334
29004967 10 16415483757026375406
5943 1 14306882495206939705

>  <PUBCHEM_SHAPE_MULTIPOLES>  (1) 
118.5
2.19
1.27
0.63
0.81
0
-0.01
0
0.02
-0.28
-0.07
0
0
0

>  <PUBCHEM_SHAPE_SELFOVERLAP>  (1) 
224.173

>  <PUBCHEM_SHAPE_VOLUME>  (1) 
76.8

>  <PUBCHEM_COORDINATE_TYPE>  (1) 
2
5
10

$$$$
