8458
     RDKit          3D

 14 14  0  0  0  0  0  0  0  0999 V2000
    2.2455   -0.9217   -0.0849 S   0  0  0  0  0  0  0  0  0  0  0  0
    2.9160   -0.7294    1.3927 O   0  0  0  0  0  0  0  0  0  0  0  0
    1.8753   -2.3230   -0.2064 O   0  0  0  0  0  0  0  0  0  0  0  0
    3.1171   -0.2940   -1.0640 O   0  0  0  0  0  0  0  0  0  0  0  0
   -3.9492    0.0753    0.0367 O   0  0  0  0  0  0  0  0  0  0  0  0
   -2.9015   -1.8527   -0.0288 O   0  0  0  0  0  0  0  0  0  0  0  0
   -2.8910   -0.5982    0.0020 N   0  0  0  0  0  0  0  0  0  0  0  0
    0.7713    0.0206   -0.0423 C   0  0  0  0  0  0  0  0  0  0  0  0
    0.8059    1.4147   -0.0090 C   0  0  0  0  0  0  0  0  0  0  0  0
   -0.4536   -0.6469   -0.0393 C   0  0  0  0  0  0  0  0  0  0  0  0
   -0.3841    2.1414    0.0274 C   0  0  0  0  0  0  0  0  0  0  0  0
   -1.6437    0.0799   -0.0031 C   0  0  0  0  0  0  0  0  0  0  0  0
   -1.6088    1.4740    0.0303 C   0  0  0  0  0  0  0  0  0  0  0  0
    2.1006    2.1600   -0.0113 C   0  0  0  0  0  0  0  0  0  0  0  0
  1  2  1  0
  1  3  2  0
  1  4  2  0
  1  8  1  0
  5  7  1  0
  6  7  2  0
  7 12  1  0
  8  9  2  0
  8 10  1  0
  9 11  1  0
  9 14  1  0
 10 12  2  0
 11 13  2  0
 12 13  1  0
M  CHG  2   5  -1   7   1
M  END
>  <PUBCHEM_COMPOUND_CID>  (1) 
8458

>  <PUBCHEM_CONFORMER_RMSD>  (1) 
0.6

>  <PUBCHEM_CONFORMER_DIVERSEORDER>  (1) 
1
2

>  <PUBCHEM_MMFF94_PARTIAL_CHARGES>  (1) 
18
1 1.49
10 -0.15
11 -0.15
12 0.13
13 -0.15
14 0.14
15 0.15
16 0.15
17 0.15
2 -0.68
21 0.5
3 -0.65
4 -0.65
5 -0.52
6 -0.52
7 0.91
8 -0.01
9 -0.14

>  <PUBCHEM_EFFECTIVE_ROTOR_COUNT>  (1) 
2

>  <PUBCHEM_PHARMACOPHORE_FEATURES>  (1) 
8
1 2 acceptor
1 3 acceptor
1 4 acceptor
1 5 acceptor
1 5 anion
1 6 acceptor
4 1 2 3 4 anion
6 8 9 10 11 12 13 rings

>  <PUBCHEM_HEAVY_ATOM_COUNT>  (1) 
14

>  <PUBCHEM_ATOM_DEF_STEREO_COUNT>  (1) 
0

>  <PUBCHEM_ATOM_UDEF_STEREO_COUNT>  (1) 
0

>  <PUBCHEM_BOND_DEF_STEREO_COUNT>  (1) 
0

>  <PUBCHEM_BOND_UDEF_STEREO_COUNT>  (1) 
0

>  <PUBCHEM_ISOTOPIC_ATOM_COUNT>  (1) 
0

>  <PUBCHEM_COMPONENT_COUNT>  (1) 
1

>  <PUBCHEM_CACTVS_TAUTO_COUNT>  (1) 
1

>  <PUBCHEM_CONFORMER_ID>  (1) 
0000210A00000001

>  <PUBCHEM_MMFF94_ENERGY>  (1) 
32.9371

>  <PUBCHEM_FEATURE_SELFOVERLAP>  (1) 
40.736

>  <PUBCHEM_SHAPE_FINGERPRINT>  (1) 
10130415 120 18409448081387582265
10967382 1 18411139172935827509
10980938 120 18267024036389172581
12932764 1 17894907443062089095
14128692 85 18411991255745422404
14251717 144 18268423719007417407
15536298 74 18272374217125960540
161256 15 18410856581294441956
16945 1 18339360751656335357
17990270 104 18410857629366234122
193761 8 18339081492935867221
20201158 50 18409166606115628219
20559304 39 18409730629984706474
20645477 70 18338512062451569095
20871998 184 18057598763750641902
20871998 22 18341333292812349310
21501502 16 18410296904095596065
21501925 9 18340194271817262881
2334 1 18122905597044172647
23463225 33 18409445916386584713
23552423 10 18335145327191652125
23559900 14 17550384043613259446
2748010 2 18121787397923956030
528862 383 18264481965600771428
5902787 121 18334005125075388555
7364860 26 18271246122538373912
81228 2 18193841435776715233

>  <PUBCHEM_SHAPE_MULTIPOLES>  (1) 
257.64
5.08
2.32
0.76
2.42
0.39
-0.09
-1.88
-0.04
-0.6
0.03
-0.55
-0.09
-0.07

>  <PUBCHEM_SHAPE_SELFOVERLAP>  (1) 
529.452

>  <PUBCHEM_SHAPE_VOLUME>  (1) 
149.6

>  <PUBCHEM_COORDINATE_TYPE>  (1) 
2
5
10

$$$$
