8459
     RDKit          3D

 10  9  0  0  0  0  0  0  0  0999 V2000
    0.1790    0.0901   -0.5648 N   0  0  0  0  0  0  0  0  0  0  0  0
   -3.4619    0.1804    0.2542 N   0  0  0  0  0  0  0  0  0  0  0  0
    0.4212   -1.3194   -0.2597 C   0  0  0  0  0  0  0  0  0  0  0  0
    1.3167    0.9071   -0.1439 C   0  0  0  0  0  0  0  0  0  0  0  0
   -1.0483    0.5500    0.0842 C   0  0  0  0  0  0  0  0  0  0  0  0
    0.5647   -1.5177    1.2466 C   0  0  0  0  0  0  0  0  0  0  0  0
    1.6712   -1.7909   -0.9960 C   0  0  0  0  0  0  0  0  0  0  0  0
    1.5031    0.8157    1.3679 C   0  0  0  0  0  0  0  0  0  0  0  0
    1.0946    2.3511   -0.5824 C   0  0  0  0  0  0  0  0  0  0  0  0
   -2.2403   -0.2664   -0.4062 C   0  0  0  0  0  0  0  0  0  0  0  0
  1  3  1  0
  1  4  1  0
  1  5  1  0
  2 10  1  0
  3  6  1  0
  3  7  1  0
  4  8  1  0
  4  9  1  0
  5 10  1  0
M  END
>  <PUBCHEM_COMPOUND_CID>  (1) 
8459

>  <PUBCHEM_CONFORMER_RMSD>  (1) 
0.6

>  <PUBCHEM_CONFORMER_DIVERSEORDER>  (1) 
1

>  <PUBCHEM_MMFF94_PARTIAL_CHARGES>  (1) 
8
1 -0.81
10 0.27
2 -0.99
29 0.36
3 0.27
30 0.36
4 0.27
5 0.27

>  <PUBCHEM_EFFECTIVE_ROTOR_COUNT>  (1) 
4

>  <PUBCHEM_PHARMACOPHORE_FEATURES>  (1) 
5
1 1 cation
1 2 cation
1 2 donor
3 3 6 7 hydrophobe
3 4 8 9 hydrophobe

>  <PUBCHEM_HEAVY_ATOM_COUNT>  (1) 
10

>  <PUBCHEM_ATOM_DEF_STEREO_COUNT>  (1) 
0

>  <PUBCHEM_ATOM_UDEF_STEREO_COUNT>  (1) 
0

>  <PUBCHEM_BOND_DEF_STEREO_COUNT>  (1) 
0

>  <PUBCHEM_BOND_UDEF_STEREO_COUNT>  (1) 
0

>  <PUBCHEM_ISOTOPIC_ATOM_COUNT>  (1) 
0

>  <PUBCHEM_COMPONENT_COUNT>  (1) 
1

>  <PUBCHEM_CACTVS_TAUTO_COUNT>  (1) 
1

>  <PUBCHEM_CONFORMER_ID>  (1) 
0000210B00000001

>  <PUBCHEM_MMFF94_ENERGY>  (1) 
40.2307

>  <PUBCHEM_FEATURE_SELFOVERLAP>  (1) 
25.373

>  <PUBCHEM_SHAPE_FINGERPRINT>  (1) 
12423570 1 16753285894263380684
12932764 1 17967816003682169727
137420 1 16618777895061655638
14128692 85 17845382063139046158
161256 15 18268425733299606412
16945 1 18341630216786287420
19837323 101 17547022174192105572
20653091 64 18339086973408504577
20711978 78 18058994091377608365
20711985 344 17474384677953990599
21040471 1 17982446297947021612
21524375 3 18048028872304236397
23235685 24 18338232794444424684
23552449 11 18263351526045294379
241688 4 18122352272070263840
2748010 2 18122048823998727381
5084963 1 18193539280426725681

>  <PUBCHEM_SHAPE_MULTIPOLES>  (1) 
195.83
3.08
2.14
1.16
3.88
0.25
-0.3
0.28
-0.05
-1.47
0.37
-0.54
-0.21
0.16

>  <PUBCHEM_SHAPE_SELFOVERLAP>  (1) 
361.638

>  <PUBCHEM_SHAPE_VOLUME>  (1) 
125.5

>  <PUBCHEM_COORDINATE_TYPE>  (1) 
2
5
10

$$$$
