8460
     RDKit          3D

 29 31  0  0  0  0  0  0  0  0999 V2000
    0.0015    0.0002   -0.3454 P   0  0  0  0  0  0  0  0  0  0  0  0
   -1.0687    0.9997    0.3463 O   0  0  0  0  0  0  0  0  0  0  0  0
    1.3997    0.4235    0.3474 O   0  0  0  0  0  0  0  0  0  0  0  0
   -0.3314   -1.4223    0.3473 O   0  0  0  0  0  0  0  0  0  0  0  0
    0.0015    0.0002   -1.8485 O   0  0  0  0  0  0  0  0  0  0  0  0
   -2.4210    0.9406    0.1773 C   0  0  0  0  0  0  0  0  0  0  0  0
    2.0271    1.6279    0.1772 C   0  0  0  0  0  0  0  0  0  0  0  0
    0.3977   -2.5679    0.1771 C   0  0  0  0  0  0  0  0  0  0  0  0
   -3.1983    0.1640    1.0367 C   0  0  0  0  0  0  0  0  0  0  0  0
    1.7409    2.6860    1.0361 C   0  0  0  0  0  0  0  0  0  0  0  0
    1.4570   -2.8494    1.0362 C   0  0  0  0  0  0  0  0  0  0  0  0
   -3.0265    1.6565   -0.8555 C   0  0  0  0  0  0  0  0  0  0  0  0
    2.9484    1.7893   -0.8547 C   0  0  0  0  0  0  0  0  0  0  0  0
    0.0767   -3.4465   -0.8547 C   0  0  0  0  0  0  0  0  0  0  0  0
   -4.5809    0.1030    0.8632 C   0  0  0  0  0  0  0  0  0  0  0  0
    2.3799    3.9136    0.8620 C   0  0  0  0  0  0  0  0  0  0  0  0
    2.2004   -4.0167    0.8622 C   0  0  0  0  0  0  0  0  0  0  0  0
   -4.4093    1.5955   -1.0288 C   0  0  0  0  0  0  0  0  0  0  0  0
    3.5874    3.0170   -1.0286 C   0  0  0  0  0  0  0  0  0  0  0  0
    0.8202   -4.6138   -1.0286 C   0  0  0  0  0  0  0  0  0  0  0  0
   -5.1864    0.8187   -0.1694 C   0  0  0  0  0  0  0  0  0  0  0  0
    3.3031    4.0791   -0.1702 C   0  0  0  0  0  0  0  0  0  0  0  0
    1.8820   -4.8989   -0.1700 C   0  0  0  0  0  0  0  0  0  0  0  0
   -2.5686   -0.6100    2.1477 C   0  0  0  0  0  0  0  0  0  0  0  0
    0.7551    2.5289    2.1467 C   0  0  0  0  0  0  0  0  0  0  0  0
    1.8140   -1.9172    2.1469 C   0  0  0  0  0  0  0  0  0  0  0  0
   -2.2116    2.4925   -1.7865 C   0  0  0  0  0  0  0  0  0  0  0  0
    3.2653    0.6648   -1.7846 C   0  0  0  0  0  0  0  0  0  0  0  0
   -1.0554   -3.1584   -1.7848 C   0  0  0  0  0  0  0  0  0  0  0  0
  1  2  1  0
  1  3  1  0
  1  4  1  0
  1  5  2  0
  2  6  1  0
  3  7  1  0
  4  8  1  0
  6  9  2  0
  6 12  1  0
  7 10  2  0
  7 13  1  0
  8 11  2  0
  8 14  1  0
  9 15  1  0
  9 24  1  0
 10 16  1  0
 10 25  1  0
 11 17  1  0
 11 26  1  0
 12 18  2  0
 12 27  1  0
 13 19  2  0
 13 28  1  0
 14 20  2  0
 14 29  1  0
 15 21  2  0
 16 22  2  0
 17 23  2  0
 18 21  1  0
 19 22  1  0
 20 23  1  0
M  END
>  <PUBCHEM_COMPOUND_CID>  (1) 
8460

>  <PUBCHEM_CONFORMER_RMSD>  (1) 
0.8

>  <PUBCHEM_CONFORMER_DIVERSEORDER>  (1) 
2
1

>  <PUBCHEM_MMFF94_PARTIAL_CHARGES>  (1) 
38
1 1.51
10 -0.14
11 -0.14
12 -0.14
13 -0.14
14 -0.14
15 -0.15
16 -0.15
17 -0.15
18 -0.15
19 -0.15
2 -0.35
20 -0.15
21 -0.15
22 -0.15
23 -0.15
24 0.14
25 0.14
26 0.14
27 0.14
28 0.14
29 0.14
3 -0.35
30 0.15
31 0.15
32 0.15
33 0.15
34 0.15
35 0.15
36 0.15
37 0.15
38 0.15
4 -0.35
5 -0.7
6 0.08
7 0.08
8 0.08
9 -0.14

>  <PUBCHEM_EFFECTIVE_ROTOR_COUNT>  (1) 
6

>  <PUBCHEM_PHARMACOPHORE_FEATURES>  (1) 
4
1 5 acceptor
6 6 9 12 15 18 21 rings
6 7 10 13 16 19 22 rings
6 8 11 14 17 20 23 rings

>  <PUBCHEM_HEAVY_ATOM_COUNT>  (1) 
29

>  <PUBCHEM_ATOM_DEF_STEREO_COUNT>  (1) 
0

>  <PUBCHEM_ATOM_UDEF_STEREO_COUNT>  (1) 
0

>  <PUBCHEM_BOND_DEF_STEREO_COUNT>  (1) 
0

>  <PUBCHEM_BOND_UDEF_STEREO_COUNT>  (1) 
0

>  <PUBCHEM_ISOTOPIC_ATOM_COUNT>  (1) 
0

>  <PUBCHEM_COMPONENT_COUNT>  (1) 
1

>  <PUBCHEM_CACTVS_TAUTO_COUNT>  (1) 
1

>  <PUBCHEM_CONFORMER_ID>  (1) 
0000210C00000002

>  <PUBCHEM_MMFF94_ENERGY>  (1) 
88.51

>  <PUBCHEM_FEATURE_SELFOVERLAP>  (1) 
20.297

>  <PUBCHEM_SHAPE_FINGERPRINT>  (1) 
10165383 225 18265349467248344689
10190108 129 18120672468087118635
1100329 8 18412828006138825426
11115154 58 16831172579552015829
11488393 25 18263097547285838923
11578080 2 15864907604364371271
12788726 201 17546151369577953898
131258 43 17840315423834050590
133893 2 17755897162650978672
13681431 1 18050285868938211347
140371 6 17257934788760801478
14955137 171 18337386029369169826
20600515 1 17175727654642836354
21033648 29 18196937884118028913
21304303 282 17764556087350075302
21927370 108 17544778736569379075
23558518 356 17690277531559196380
23559900 14 18044365042379238129
238 59 18411127018384296813
24893989 43 15039284671444723063
255183 313 17977958108746725361
3298306 158 18335148574461111142
35225 105 18050567644562620178
3729539 64 18267329585232545524
44802255 64 17390832012750980086
469060 322 17462835807875797719
5265222 85 18044120032028143548
6442390 28 18192997238495712957
6669772 16 18341902921962038966
81228 2 17474106978153267331

>  <PUBCHEM_SHAPE_MULTIPOLES>  (1) 
577.18
6.98
6.97
1.93
7.91
6.45
0.28
-6.46
-0.67
-7.9
-0.67
0
0
0

>  <PUBCHEM_SHAPE_SELFOVERLAP>  (1) 
1224.302

>  <PUBCHEM_SHAPE_VOLUME>  (1) 
325

>  <PUBCHEM_COORDINATE_TYPE>  (1) 
2
5
10

$$$$
