8471
     RDKit          3D

  7  6  0  0  0  0  0  0  0  0999 V2000
   -0.0049    0.0021    0.1801 N   0  0  0  0  0  0  0  0  0  0  0  0
   -1.3475   -0.3293   -0.2955 C   0  0  0  0  0  0  0  0  0  0  0  0
    0.3812    1.3390   -0.2696 C   0  0  0  0  0  0  0  0  0  0  0  0
    0.9618   -0.9923   -0.2842 C   0  0  0  0  0  0  0  0  0  0  0  0
   -2.3751    0.6596    0.2281 C   0  0  0  0  0  0  0  0  0  0  0  0
    1.7748    1.7005    0.2159 C   0  0  0  0  0  0  0  0  0  0  0  0
    0.6098   -2.3797    0.2254 C   0  0  0  0  0  0  0  0  0  0  0  0
  1  2  1  0
  1  3  1  0
  1  4  1  0
  2  5  1  0
  3  6  1  0
  4  7  1  0
M  END
>  <PUBCHEM_COMPOUND_CID>  (1) 
8471

>  <PUBCHEM_CONFORMER_RMSD>  (1) 
0.4

>  <PUBCHEM_CONFORMER_DIVERSEORDER>  (1) 
2
3
4
1
5

>  <PUBCHEM_MMFF94_PARTIAL_CHARGES>  (1) 
4
1 -0.81
2 0.27
3 0.27
4 0.27

>  <PUBCHEM_EFFECTIVE_ROTOR_COUNT>  (1) 
3

>  <PUBCHEM_PHARMACOPHORE_FEATURES>  (1) 
1
1 1 cation

>  <PUBCHEM_HEAVY_ATOM_COUNT>  (1) 
7

>  <PUBCHEM_ATOM_DEF_STEREO_COUNT>  (1) 
0

>  <PUBCHEM_ATOM_UDEF_STEREO_COUNT>  (1) 
0

>  <PUBCHEM_BOND_DEF_STEREO_COUNT>  (1) 
0

>  <PUBCHEM_BOND_UDEF_STEREO_COUNT>  (1) 
0

>  <PUBCHEM_ISOTOPIC_ATOM_COUNT>  (1) 
0

>  <PUBCHEM_COMPONENT_COUNT>  (1) 
1

>  <PUBCHEM_CACTVS_TAUTO_COUNT>  (1) 
1

>  <PUBCHEM_CONFORMER_ID>  (1) 
0000211700000002

>  <PUBCHEM_MMFF94_ENERGY>  (1) 
3.5896

>  <PUBCHEM_FEATURE_SELFOVERLAP>  (1) 
5.074

>  <PUBCHEM_SHAPE_FINGERPRINT>  (1) 
16714656 1 17401489741292082126
18185500 45 18123472678766857655
20096714 4 18341334499729976917
21040471 1 18194404630548481972
23552449 1 17258208567393688954
23552449 11 18190451680272579675
29004967 10 18119254960763082699
5943 1 14861441392328055467

>  <PUBCHEM_SHAPE_MULTIPOLES>  (1) 
139.08
2.39
2.36
0.67
1.34
1.02
-0.01
-1.02
0.19
-1.34
0.19
0
0
0

>  <PUBCHEM_SHAPE_SELFOVERLAP>  (1) 
241.416

>  <PUBCHEM_SHAPE_VOLUME>  (1) 
94.7

>  <PUBCHEM_COORDINATE_TYPE>  (1) 
2
5
10

$$$$
