8476
     RDKit          3D

 13 13  0  0  0  0  0  0  0  0999 V2000
    2.9624   -0.7196    1.7630 Cl  0  0  0  0  0  0  0  0  0  0  0  0
    2.4733   -0.4486   -0.2061 S   0  0  0  0  0  0  0  0  0  0  0  0
    3.4195    0.5204   -0.7269 O   0  0  0  0  0  0  0  0  0  0  0  0
    2.3619   -1.7879   -0.7541 O   0  0  0  0  0  0  0  0  0  0  0  0
   -3.7999   -0.1703    0.0842 O   0  0  0  0  0  0  0  0  0  0  0  0
   -2.5507   -1.9707   -0.0469 O   0  0  0  0  0  0  0  0  0  0  0  0
   -2.6758   -0.7233    0.0121 N   0  0  0  0  0  0  0  0  0  0  0  0
    0.8953    0.2913   -0.1023 C   0  0  0  0  0  0  0  0  0  0  0  0
   -0.2496   -0.5054   -0.0851 C   0  0  0  0  0  0  0  0  0  0  0  0
   -1.5100    0.0867   -0.0037 C   0  0  0  0  0  0  0  0  0  0  0  0
    0.7797    1.6800   -0.0381 C   0  0  0  0  0  0  0  0  0  0  0  0
   -1.6254    1.4754    0.0605 C   0  0  0  0  0  0  0  0  0  0  0  0
   -0.4806    2.2720    0.0434 C   0  0  0  0  0  0  0  0  0  0  0  0
  1  2  1  0
  2  3  2  0
  2  4  2  0
  2  8  1  0
  5  7  1  0
  6  7  2  0
  7 10  1  0
  8  9  2  0
  8 11  1  0
  9 10  1  0
 10 12  2  0
 11 13  2  0
 12 13  1  0
M  CHG  2   5  -1   7   1
M  END
>  <PUBCHEM_COMPOUND_CID>  (1) 
8476

>  <PUBCHEM_CONFORMER_RMSD>  (1) 
0.6

>  <PUBCHEM_CONFORMER_DIVERSEORDER>  (1) 
1
2

>  <PUBCHEM_MMFF94_PARTIAL_CHARGES>  (1) 
17
1 -0.19
10 0.13
11 -0.15
12 -0.15
13 -0.15
14 0.15
15 0.15
16 0.15
17 0.15
2 1.49
3 -0.65
4 -0.65
5 -0.52
6 -0.52
7 0.91
8 -0.01
9 -0.15

>  <PUBCHEM_EFFECTIVE_ROTOR_COUNT>  (1) 
2

>  <PUBCHEM_PHARMACOPHORE_FEATURES>  (1) 
4
1 5 acceptor
1 5 anion
1 6 acceptor
6 8 9 10 11 12 13 rings

>  <PUBCHEM_HEAVY_ATOM_COUNT>  (1) 
13

>  <PUBCHEM_ATOM_DEF_STEREO_COUNT>  (1) 
0

>  <PUBCHEM_ATOM_UDEF_STEREO_COUNT>  (1) 
0

>  <PUBCHEM_BOND_DEF_STEREO_COUNT>  (1) 
0

>  <PUBCHEM_BOND_UDEF_STEREO_COUNT>  (1) 
0

>  <PUBCHEM_ISOTOPIC_ATOM_COUNT>  (1) 
0

>  <PUBCHEM_COMPONENT_COUNT>  (1) 
1

>  <PUBCHEM_CACTVS_TAUTO_COUNT>  (1) 
1

>  <PUBCHEM_CONFORMER_ID>  (1) 
0000211C00000001

>  <PUBCHEM_MMFF94_ENERGY>  (1) 
25.9681

>  <PUBCHEM_FEATURE_SELFOVERLAP>  (1) 
20.379

>  <PUBCHEM_SHAPE_FINGERPRINT>  (1) 
10130415 120 18408040727947190937
10857977 72 18271517637401210888
12716758 59 18052816940521296984
12932764 1 17387140771353265388
14128692 85 18338243768154385869
14252887 29 18341623641102004882
15375462 189 18186803616508172995
161256 15 18340203097906990880
16945 1 18342734109154351509
20201158 50 18410295834553521071
20281407 28 18343867722906704395
20645477 70 17977941620895237911
20711985 365 18194122919221696767
20715346 28 17846206705766128616
20871998 184 18130224848276248245
20871998 22 18341618109178677263
21501502 16 18269002977146729924
21501925 9 18269825579326996867
23552423 10 18116436036345851605
23559900 14 18269552729061393550
2748010 2 18125444098825501399
5902787 121 18262231243729016723
7364860 26 18054511575734533929
8030462 33 17241338971126540744
81228 2 18267023860332722793

>  <PUBCHEM_SHAPE_MULTIPOLES>  (1) 
244.79
5.31
2
0.94
0.3
0.43
-0.34
-2.17
-0.4
0.65
0.09
-1.02
-0.2
-0.2

>  <PUBCHEM_SHAPE_SELFOVERLAP>  (1) 
490.314

>  <PUBCHEM_SHAPE_VOLUME>  (1) 
146.1

>  <PUBCHEM_COORDINATE_TYPE>  (1) 
2
5
10

$$$$
