8477
     RDKit          3D

 13 13  0  0  0  0  0  0  0  0999 V2000
    2.5046   -0.4706   -0.0900 S   0  0  0  0  0  0  0  0  0  0  0  0
    2.9229   -0.6834    1.4762 O   0  0  0  0  0  0  0  0  0  0  0  0
    2.3611   -1.7959   -0.6747 O   0  0  0  0  0  0  0  0  0  0  0  0
    3.4157    0.5024   -0.6724 O   0  0  0  0  0  0  0  0  0  0  0  0
   -3.8210   -0.0177    0.0402 O   0  0  0  0  0  0  0  0  0  0  0  0
   -2.6926   -1.9900   -0.0199 O   0  0  0  0  0  0  0  0  0  0  0  0
    0.9256    0.2734   -0.0459 C   0  0  0  0  0  0  0  0  0  0  0  0
   -0.2206   -0.5216   -0.0390 C   0  0  0  0  0  0  0  0  0  0  0  0
   -1.4818    0.0734   -0.0036 C   0  0  0  0  0  0  0  0  0  0  0  0
    0.8105    1.6633   -0.0173 C   0  0  0  0  0  0  0  0  0  0  0  0
   -1.5967    1.4633    0.0250 C   0  0  0  0  0  0  0  0  0  0  0  0
   -0.4506    2.2582    0.0181 C   0  0  0  0  0  0  0  0  0  0  0  0
   -2.6771   -0.7549    0.0033 C   0  0  0  0  0  0  0  0  0  0  0  0
  1  2  1  0
  1  3  2  0
  1  4  2  0
  1  7  1  0
  5 13  1  0
  6 13  2  0
  7  8  2  0
  7 10  1  0
  8  9  1  0
  9 11  2  0
  9 13  1  0
 10 12  2  0
 11 12  1  0
M  END
>  <PUBCHEM_COMPOUND_CID>  (1) 
8477

>  <PUBCHEM_CONFORMER_RMSD>  (1) 
0.6

>  <PUBCHEM_CONFORMER_DIVERSEORDER>  (1) 
1
4
3
2

>  <PUBCHEM_MMFF94_PARTIAL_CHARGES>  (1) 
19
1 1.49
10 -0.15
11 -0.15
12 -0.15
13 0.63
14 0.15
15 0.15
16 0.15
17 0.15
18 0.5
19 0.5
2 -0.68
3 -0.65
4 -0.65
5 -0.65
6 -0.57
7 -0.01
8 -0.15
9 0.09

>  <PUBCHEM_EFFECTIVE_ROTOR_COUNT>  (1) 
2

>  <PUBCHEM_PHARMACOPHORE_FEATURES>  (1) 
8
1 2 acceptor
1 3 acceptor
1 4 acceptor
1 5 acceptor
1 6 acceptor
3 5 6 13 anion
4 1 2 3 4 anion
6 7 8 9 10 11 12 rings

>  <PUBCHEM_HEAVY_ATOM_COUNT>  (1) 
13

>  <PUBCHEM_ATOM_DEF_STEREO_COUNT>  (1) 
0

>  <PUBCHEM_ATOM_UDEF_STEREO_COUNT>  (1) 
0

>  <PUBCHEM_BOND_DEF_STEREO_COUNT>  (1) 
0

>  <PUBCHEM_BOND_UDEF_STEREO_COUNT>  (1) 
0

>  <PUBCHEM_ISOTOPIC_ATOM_COUNT>  (1) 
0

>  <PUBCHEM_COMPONENT_COUNT>  (1) 
1

>  <PUBCHEM_CACTVS_TAUTO_COUNT>  (1) 
1

>  <PUBCHEM_CONFORMER_ID>  (1) 
0000211D00000001

>  <PUBCHEM_MMFF94_ENERGY>  (1) 
26.0069

>  <PUBCHEM_FEATURE_SELFOVERLAP>  (1) 
40.712

>  <PUBCHEM_SHAPE_FINGERPRINT>  (1) 
10130415 120 18408322198644784537
10857977 72 18343292661214093208
12716758 59 18052255090053103680
12932764 1 17387139671825787356
14128692 85 18337960089875257101
14252887 29 18342468066011076762
15375462 189 18187085082942428339
161256 15 18339920527708338512
16945 1 18340767057156348437
17990270 104 18266742574445056867
193761 8 17329993495733354789
20201158 50 18409731780840996887
20281407 28 18343304772953283107
20645477 70 17977659037832782655
20711985 365 18194121819720631463
20871998 184 18129942278067013861
20871998 22 18341619213001122591
21501502 16 18269283352590694284
21501925 9 18269262633668523379
23402539 116 18335976537050622854
23463225 33 18410295804446318157
23552423 10 18117280465634228405
23559900 14 18268988688233706270
2748010 2 17834683690789553853
3312278 4 18336552693532470619
5902787 121 18261949764467875299
7364860 26 18054229001246202001
81228 2 18266181638710277169

>  <PUBCHEM_SHAPE_MULTIPOLES>  (1) 
242.04
5.28
2.01
0.78
0.13
0.43
-0.16
-2.16
-0.06
0.45
0.1
-0.55
-0.11
-0.08

>  <PUBCHEM_SHAPE_SELFOVERLAP>  (1) 
497.746

>  <PUBCHEM_SHAPE_VOLUME>  (1) 
139.3

>  <PUBCHEM_COORDINATE_TYPE>  (1) 
2
5
10

$$$$
