8483
     RDKit          3D

 14 14  0  0  0  0  0  0  0  0999 V2000
    3.2215    0.1833    0.0785 S   0  0  0  0  0  0  0  0  0  0  0  0
    3.6681    0.2690   -1.4920 O   0  0  0  0  0  0  0  0  0  0  0  0
    3.4727    1.4927    0.6630 O   0  0  0  0  0  0  0  0  0  0  0  0
    3.8187   -1.0121    0.6531 O   0  0  0  0  0  0  0  0  0  0  0  0
   -3.5338    1.4970    0.0001 O   0  0  0  0  0  0  0  0  0  0  0  0
   -2.6447   -0.6864   -0.0156 N   0  0  0  0  0  0  0  0  0  0  0  0
    1.4947   -0.0730    0.0510 C   0  0  0  0  0  0  0  0  0  0  0  0
   -1.2645   -0.4820    0.0068 C   0  0  0  0  0  0  0  0  0  0  0  0
    0.6274    1.0195    0.0547 C   0  0  0  0  0  0  0  0  0  0  0  0
    0.9823   -1.3702    0.0251 C   0  0  0  0  0  0  0  0  0  0  0  0
   -0.7522    0.8150    0.0327 C   0  0  0  0  0  0  0  0  0  0  0  0
   -0.3974   -1.5746    0.0030 C   0  0  0  0  0  0  0  0  0  0  0  0
   -3.6619    0.2771   -0.0160 C   0  0  0  0  0  0  0  0  0  0  0  0
   -5.0308   -0.3552   -0.0444 C   0  0  0  0  0  0  0  0  0  0  0  0
  1  2  1  0
  1  3  2  0
  1  4  2  0
  1  7  1  0
  5 13  2  0
  6  8  1  0
  6 13  1  0
  7  9  2  0
  7 10  1  0
  8 11  2  0
  8 12  1  0
  9 11  1  0
 10 12  2  0
 13 14  1  0
M  END
>  <PUBCHEM_COMPOUND_CID>  (1) 
8483

>  <PUBCHEM_CONFORMER_RMSD>  (1) 
0.6

>  <PUBCHEM_CONFORMER_DIVERSEORDER>  (1) 
1
2

>  <PUBCHEM_MMFF94_PARTIAL_CHARGES>  (1) 
20
1 1.49
10 -0.15
11 -0.15
12 -0.15
13 0.57
14 0.06
15 0.15
16 0.15
17 0.15
18 0.15
19 0.37
2 -0.68
23 0.5
3 -0.65
4 -0.65
5 -0.57
6 -0.55
7 -0.01
8 0.12
9 -0.15

>  <PUBCHEM_EFFECTIVE_ROTOR_COUNT>  (1) 
3

>  <PUBCHEM_PHARMACOPHORE_FEATURES>  (1) 
7
1 2 acceptor
1 3 acceptor
1 4 acceptor
1 5 acceptor
1 6 donor
4 1 2 3 4 anion
6 7 8 9 10 11 12 rings

>  <PUBCHEM_HEAVY_ATOM_COUNT>  (1) 
14

>  <PUBCHEM_ATOM_DEF_STEREO_COUNT>  (1) 
0

>  <PUBCHEM_ATOM_UDEF_STEREO_COUNT>  (1) 
0

>  <PUBCHEM_BOND_DEF_STEREO_COUNT>  (1) 
0

>  <PUBCHEM_BOND_UDEF_STEREO_COUNT>  (1) 
0

>  <PUBCHEM_ISOTOPIC_ATOM_COUNT>  (1) 
0

>  <PUBCHEM_COMPONENT_COUNT>  (1) 
1

>  <PUBCHEM_CACTVS_TAUTO_COUNT>  (1) 
2

>  <PUBCHEM_CONFORMER_ID>  (1) 
0000212300000001

>  <PUBCHEM_MMFF94_ENERGY>  (1) 
28.8687

>  <PUBCHEM_FEATURE_SELFOVERLAP>  (1) 
35.577

>  <PUBCHEM_SHAPE_FINGERPRINT>  (1) 
10219947 1 17821730524390495415
11401426 45 18343012298554790819
11471102 20 18411132541363884710
11543360 7 16056588906687053253
13081056 2 18342739624145547673
13380535 76 18409449180799418379
13760787 19 17531252793795799946
14325111 11 18411416223953818009
14911166 2 18341902904412904350
14993402 34 18334583459527570612
16945 1 18202010914629474234
18186145 218 18202569479321085592
19026448 4 16056879126211767343
19026448 5 16370725971411850379
20645476 183 17896616144335522678
20645477 70 17060069129153835678
212847 35 18334858307696868864
23402539 116 18130776854605415964
23402655 69 18341602669694434029
23463225 33 18261951856290891594
23559900 14 18201442506526818388
2748010 2 18052257585434318938
366044 4 18411135857079033515
4047638 21 18271809046747923544
4990 188 17917718984664580166
5104073 3 18409448051338655713
53655031 270 18411416168135106563
537710 114 18408326592053547324
53812653 166 18342170098317459200
69090 78 17917706937566320319
7364860 26 18197214741920116590

>  <PUBCHEM_SHAPE_MULTIPOLES>  (1) 
263.5
8.38
1.44
0.76
4.31
0.04
-0.16
-1.07
-0.19
-0.18
0.12
-0.63
-0.04
-0.03

>  <PUBCHEM_SHAPE_SELFOVERLAP>  (1) 
533.244

>  <PUBCHEM_SHAPE_VOLUME>  (1) 
153.3

>  <PUBCHEM_COORDINATE_TYPE>  (1) 
2
5
10

$$$$
