8485
     RDKit          3D

 22 22  0  0  0  0  0  0  0  0999 V2000
    7.4855   -0.9346   -0.0767 S   0  0  0  0  0  0  0  0  0  0  0  0
    7.2134   -2.4774   -0.5448 O   0  0  0  0  0  0  0  0  0  0  0  0
    8.2102   -0.2844   -1.1590 O   0  0  0  0  0  0  0  0  0  0  0  0
    8.0327   -0.9616    1.2708 O   0  0  0  0  0  0  0  0  0  0  0  0
   -4.2341   -0.0599   -0.3193 C   0  0  0  0  0  0  0  0  0  0  0  0
   -3.0782    0.9005   -0.0193 C   0  0  0  0  0  0  0  0  0  0  0  0
   -5.6112    0.5211    0.0097 C   0  0  0  0  0  0  0  0  0  0  0  0
   -1.6685    0.3382   -0.2412 C   0  0  0  0  0  0  0  0  0  0  0  0
   -6.7533   -0.4757   -0.2200 C   0  0  0  0  0  0  0  0  0  0  0  0
   -0.5127    1.2756    0.1227 C   0  0  0  0  0  0  0  0  0  0  0  0
   -8.1326    0.1144    0.0911 C   0  0  0  0  0  0  0  0  0  0  0  0
    0.8705    0.6425   -0.0603 C   0  0  0  0  0  0  0  0  0  0  0  0
   -9.2755   -0.8911   -0.0759 C   0  0  0  0  0  0  0  0  0  0  0  0
    2.0119    1.6034    0.2961 C   0  0  0  0  0  0  0  0  0  0  0  0
  -10.6534   -0.2922    0.2080 C   0  0  0  0  0  0  0  0  0  0  0  0
    3.3789    0.9703    0.2028 C   0  0  0  0  0  0  0  0  0  0  0  0
  -11.7553   -1.3236    0.0188 C   0  0  0  0  0  0  0  0  0  0  0  0
    3.9326    0.3392    1.3168 C   0  0  0  0  0  0  0  0  0  0  0  0
    4.0882    1.0151   -0.9974 C   0  0  0  0  0  0  0  0  0  0  0  0
    5.1953   -0.2470    1.2306 C   0  0  0  0  0  0  0  0  0  0  0  0
    5.3510    0.4290   -1.0837 C   0  0  0  0  0  0  0  0  0  0  0  0
    5.9045   -0.2020    0.0303 C   0  0  0  0  0  0  0  0  0  0  0  0
  1  2  1  0
  1  3  2  0
  1  4  2  0
  1 22  1  0
  5  6  1  0
  5  7  1  0
  6  8  1  0
  7  9  1  0
  8 10  1  0
  9 11  1  0
 10 12  1  0
 11 13  1  0
 12 14  1  0
 13 15  1  0
 14 16  1  0
 15 17  1  0
 16 18  2  0
 16 19  1  0
 18 20  1  0
 19 21  2  0
 20 22  2  0
 21 22  1  0
M  END
>  <PUBCHEM_COMPOUND_CID>  (1) 
8485

>  <PUBCHEM_CONFORMER_RMSD>  (1) 
1.4

>  <PUBCHEM_CONFORMER_DIVERSEORDER>  (1) 
1
3
21
29
28
15
16
17
19
25
20
31
14
27
7
2
35
36
10
26
11
4
32
6
33
30
34
24
12
18
5
8
13
9
23
22

>  <PUBCHEM_MMFF94_PARTIAL_CHARGES>  (1) 
16
1 1.49
14 0.14
16 -0.14
18 -0.15
19 -0.15
2 -0.68
20 -0.15
21 -0.15
22 -0.01
3 -0.65
4 -0.65
48 0.15
49 0.15
50 0.15
51 0.15
52 0.5

>  <PUBCHEM_EFFECTIVE_ROTOR_COUNT>  (1) 
12

>  <PUBCHEM_PHARMACOPHORE_FEATURES>  (1) 
6
1 17 hydrophobe
1 2 acceptor
1 3 acceptor
1 4 acceptor
4 1 2 3 4 anion
6 16 18 19 20 21 22 rings

>  <PUBCHEM_HEAVY_ATOM_COUNT>  (1) 
22

>  <PUBCHEM_ATOM_DEF_STEREO_COUNT>  (1) 
0

>  <PUBCHEM_ATOM_UDEF_STEREO_COUNT>  (1) 
0

>  <PUBCHEM_BOND_DEF_STEREO_COUNT>  (1) 
0

>  <PUBCHEM_BOND_UDEF_STEREO_COUNT>  (1) 
0

>  <PUBCHEM_ISOTOPIC_ATOM_COUNT>  (1) 
0

>  <PUBCHEM_COMPONENT_COUNT>  (1) 
1

>  <PUBCHEM_CACTVS_TAUTO_COUNT>  (1) 
1

>  <PUBCHEM_CONFORMER_ID>  (1) 
0000212500000001

>  <PUBCHEM_MMFF94_ENERGY>  (1) 
18.0817

>  <PUBCHEM_FEATURE_SELFOVERLAP>  (1) 
30.503

>  <PUBCHEM_SHAPE_FINGERPRINT>  (1) 
10 15 11312057647445730637
10299344 5 18113337505463013689
11638347 137 17132116835907918439
12592606 108 18408323289793350425
13553643 46 13901913311309408923
13668630 136 18261393321806307324
14026016 60 15936959735799537090
14202775 3 18409453614139825211
14216079 64 18343021073378763478
14251764 18 12175615179180513704
14251764 46 16917069967218836221
14344974 52 10953747712334503497
14428016 248 11818989670356160567
15183329 4 17022619754189878368
15247644 1 18408323289841745947
15510794 2 18260830440588265249
155225 1 8862940580503524750
15690457 1 18413668015599561759
1754911 235 13695586668421845075
1818759 1 18334577954213109275
20812841 46 11959734850749820412
21095086 128 18113899364763533309
21130991 4 17968652702230705986
21150785 3 14490191604911010377
21267235 1 18410292510708062113
21362267 313 11671522058093868341
21792934 111 15051733084253510259
221357 26 16008746893106117412
22224240 67 12175618473209771213
232437 2 18410575080378667631
246663 6 18260830397622832641
28498 318 18409446977786747957
33532 11 18341611486719187870
33684 2 16008745819005486145
57828716 8 17458901545852550370
59584819 99 13901612091603583218
9937071 3 18411138030469811043

>  <PUBCHEM_SHAPE_MULTIPOLES>  (1) 
438.99
40.32
1.41
0.99
91.03
0.39
0.09
22.04
-0.54
-1.63
-0.08
-2.02
0.02
-0.12

>  <PUBCHEM_SHAPE_SELFOVERLAP>  (1) 
842.452

>  <PUBCHEM_SHAPE_VOLUME>  (1) 
268.2

>  <PUBCHEM_COORDINATE_TYPE>  (1) 
2
5
10

$$$$
