8491
     RDKit          3D

 11 11  0  0  0  0  0  0  0  0999 V2000
   -2.3908    2.1076    0.0000 Cl  0  0  0  0  0  0  0  0  0  0  0  0
    3.1287   -0.8293   -0.0001 O   0  0  0  0  0  0  0  0  0  0  0  0
    2.7619    1.3351   -0.0003 O   0  0  0  0  0  0  0  0  0  0  0  0
    2.3459    0.1513    0.0001 N   0  0  0  0  0  0  0  0  0  0  0  0
   -1.8045   -0.5535    0.0002 C   0  0  0  0  0  0  0  0  0  0  0  0
    0.9458   -0.0859    0.0001 C   0  0  0  0  0  0  0  0  0  0  0  0
   -1.3193    0.7543    0.0001 C   0  0  0  0  0  0  0  0  0  0  0  0
   -0.9144   -1.6275    0.0001 C   0  0  0  0  0  0  0  0  0  0  0  0
    0.0558    0.9881    0.0001 C   0  0  0  0  0  0  0  0  0  0  0  0
    0.4608   -1.3938    0.0001 C   0  0  0  0  0  0  0  0  0  0  0  0
   -3.2700   -0.8464   -0.0004 C   0  0  0  0  0  0  0  0  0  0  0  0
  1  7  1  0
  2  4  1  0
  3  4  2  0
  4  6  1  0
  5  7  2  0
  5  8  1  0
  5 11  1  0
  6  9  2  0
  6 10  1  0
  7  9  1  0
  8 10  2  0
M  CHG  2   2  -1   4   1
M  END
>  <PUBCHEM_COMPOUND_CID>  (1) 
8491

>  <PUBCHEM_CONFORMER_RMSD>  (1) 
0.4

>  <PUBCHEM_CONFORMER_DIVERSEORDER>  (1) 
1

>  <PUBCHEM_MMFF94_PARTIAL_CHARGES>  (1) 
14
1 -0.18
10 -0.15
11 0.14
12 0.15
13 0.15
14 0.15
2 -0.52
3 -0.52
4 0.91
5 -0.14
6 0.13
7 0.18
8 -0.15
9 -0.15

>  <PUBCHEM_EFFECTIVE_ROTOR_COUNT>  (1) 
1

>  <PUBCHEM_PHARMACOPHORE_FEATURES>  (1) 
4
1 2 acceptor
1 2 anion
1 3 acceptor
6 5 6 7 8 9 10 rings

>  <PUBCHEM_HEAVY_ATOM_COUNT>  (1) 
11

>  <PUBCHEM_ATOM_DEF_STEREO_COUNT>  (1) 
0

>  <PUBCHEM_ATOM_UDEF_STEREO_COUNT>  (1) 
0

>  <PUBCHEM_BOND_DEF_STEREO_COUNT>  (1) 
0

>  <PUBCHEM_BOND_UDEF_STEREO_COUNT>  (1) 
0

>  <PUBCHEM_ISOTOPIC_ATOM_COUNT>  (1) 
0

>  <PUBCHEM_COMPONENT_COUNT>  (1) 
1

>  <PUBCHEM_CACTVS_TAUTO_COUNT>  (1) 
1

>  <PUBCHEM_CONFORMER_ID>  (1) 
0000212B00000001

>  <PUBCHEM_MMFF94_ENERGY>  (1) 
30.3929

>  <PUBCHEM_FEATURE_SELFOVERLAP>  (1) 
20.379

>  <PUBCHEM_SHAPE_FINGERPRINT>  (1) 
11206711 2 18410571782229010541
12032990 46 18337116786269439803
12897270 3 18410571790576228239
12932764 1 17561357417932201060
13380535 21 18196103135711225767
13380535 76 18194959643723827319
14325111 11 18410573972388056928
16945 1 18338517550844513319
193761 8 18050568439538049991
19973954 147 18410857672273981924
20653085 51 18337684022267471504
20871998 184 18128824212455169959
21040471 1 18338516322467951461
21501502 16 18265330608199370091
23402539 116 18342163501580216383
23402655 69 18196353855229366965
23463225 33 18335419015561349682
23552423 10 18334014964961468886
23559900 14 18199754649041688734
2748010 2 18267307538717008695
369184 2 18342457070899813698
5084963 1 18273496775321146866
6333449 129 18339640045132512109

>  <PUBCHEM_SHAPE_MULTIPOLES>  (1) 
211.52
4.48
1.93
0.6
1.44
0.41
0
0.45
0
-0.88
0
-0.08
0
0

>  <PUBCHEM_SHAPE_SELFOVERLAP>  (1) 
433.049

>  <PUBCHEM_SHAPE_VOLUME>  (1) 
123.9

>  <PUBCHEM_COORDINATE_TYPE>  (1) 
2
5
10

$$$$
