8495
     RDKit          3D

 12 12  0  0  0  0  0  0  0  0999 V2000
   -3.9779    0.1583   -0.0006 Cl  0  0  0  0  0  0  0  0  0  0  0  0
    3.5596    0.0867   -0.0014 O   0  0  0  0  0  0  0  0  0  0  0  0
    2.4928   -1.8319    0.0006 O   0  0  0  0  0  0  0  0  0  0  0  0
   -2.3702   -1.9180   -0.0002 O   0  0  0  0  0  0  0  0  0  0  0  0
    2.4948   -0.5772   -0.0003 N   0  0  0  0  0  0  0  0  0  0  0  0
    1.2538    0.1130    0.0005 C   0  0  0  0  0  0  0  0  0  0  0  0
   -1.1620    0.0762    0.0007 C   0  0  0  0  0  0  0  0  0  0  0  0
    0.0565   -0.6029    0.0008 C   0  0  0  0  0  0  0  0  0  0  0  0
    1.2323    1.5078    0.0001 C   0  0  0  0  0  0  0  0  0  0  0  0
   -1.1832    1.4709    0.0004 C   0  0  0  0  0  0  0  0  0  0  0  0
    0.0139    2.1868    0.0001 C   0  0  0  0  0  0  0  0  0  0  0  0
   -2.4104   -0.6698   -0.0006 C   0  0  0  0  0  0  0  0  0  0  0  0
  1 12  1  0
  2  5  1  0
  3  5  2  0
  4 12  2  0
  5  6  1  0
  6  8  2  0
  6  9  1  0
  7  8  1  0
  7 10  2  0
  7 12  1  0
  9 11  2  0
 10 11  1  0
M  CHG  2   2  -1   5   1
M  END
>  <PUBCHEM_COMPOUND_CID>  (1) 
8495

>  <PUBCHEM_CONFORMER_RMSD>  (1) 
0.6

>  <PUBCHEM_CONFORMER_DIVERSEORDER>  (1) 
1
3
2
4

>  <PUBCHEM_MMFF94_PARTIAL_CHARGES>  (1) 
16
1 -0.21
10 -0.15
11 -0.15
12 0.69
13 0.15
14 0.15
15 0.15
16 0.15
2 -0.52
3 -0.52
4 -0.57
5 0.91
6 0.13
7 0.09
8 -0.15
9 -0.15

>  <PUBCHEM_EFFECTIVE_ROTOR_COUNT>  (1) 
2

>  <PUBCHEM_PHARMACOPHORE_FEATURES>  (1) 
4
1 2 acceptor
1 2 anion
1 3 acceptor
6 6 7 8 9 10 11 rings

>  <PUBCHEM_HEAVY_ATOM_COUNT>  (1) 
12

>  <PUBCHEM_ATOM_DEF_STEREO_COUNT>  (1) 
0

>  <PUBCHEM_ATOM_UDEF_STEREO_COUNT>  (1) 
0

>  <PUBCHEM_BOND_DEF_STEREO_COUNT>  (1) 
0

>  <PUBCHEM_BOND_UDEF_STEREO_COUNT>  (1) 
0

>  <PUBCHEM_ISOTOPIC_ATOM_COUNT>  (1) 
0

>  <PUBCHEM_COMPONENT_COUNT>  (1) 
1

>  <PUBCHEM_CACTVS_TAUTO_COUNT>  (1) 
1

>  <PUBCHEM_CONFORMER_ID>  (1) 
0000212F00000001

>  <PUBCHEM_MMFF94_ENERGY>  (1) 
36.1446

>  <PUBCHEM_FEATURE_SELFOVERLAP>  (1) 
20.379

>  <PUBCHEM_SHAPE_FINGERPRINT>  (1) 
10130415 120 18409165515394206889
12032990 46 18409173186279676403
12932764 1 17168689934380204571
14128692 85 18338239361502005404
16945 1 18410856559734994945
17990270 104 18192428795394774915
20201158 50 18408884053022985507
20645477 70 18193550302014921079
20711985 365 18192992612741711854
20871998 184 18129658578313048604
20871998 22 18342749485189986390
21501502 16 18193560188839063197
23402539 116 18201992206416623309
23463225 33 18411140212238811415
23552423 10 18191025801383242189
2748010 2 18194118748908763461
3312278 4 18408889559128763595
7364860 26 18197777914969010457
81228 2 18265061227650306512
8809292 202 18260551164213135179

>  <PUBCHEM_SHAPE_MULTIPOLES>  (1) 
226.24
5.21
1.97
0.59
1.04
0.29
0
-1.74
0
-0.18
0
0.07
0.04
0

>  <PUBCHEM_SHAPE_SELFOVERLAP>  (1) 
466.676

>  <PUBCHEM_SHAPE_VOLUME>  (1) 
129.2

>  <PUBCHEM_COORDINATE_TYPE>  (1) 
2
5
10

$$$$
