8503
     RDKit          3D

  8  7  0  0  0  0  0  0  0  0999 V2000
   -0.6489    1.0678    0.6015 O   0  0  0  0  0  0  0  0  0  0  0  0
   -1.5139   -0.9113   -0.4427 O   0  0  0  0  0  0  0  0  0  0  0  0
    1.9799   -0.0683    0.4544 N   0  0  0  0  0  0  0  0  0  0  0  0
   -0.4665   -0.3325    0.3452 C   0  0  0  0  0  0  0  0  0  0  0  0
    0.8785   -0.6036   -0.3404 C   0  0  0  0  0  0  0  0  0  0  0  0
    3.2551   -0.2941   -0.2099 C   0  0  0  0  0  0  0  0  0  0  0  0
   -0.6894    1.8868   -0.5590 C   0  0  0  0  0  0  0  0  0  0  0  0
   -2.7949   -0.7449    0.1508 C   0  0  0  0  0  0  0  0  0  0  0  0
  1  4  1  0
  1  7  1  0
  2  4  1  0
  2  8  1  0
  3  5  1  0
  3  6  1  0
  4  5  1  0
M  END
>  <PUBCHEM_COMPOUND_CID>  (1) 
8503

>  <PUBCHEM_CONFORMER_RMSD>  (1) 
0.6

>  <PUBCHEM_CONFORMER_DIVERSEORDER>  (1) 
3
12
9
5
13
10
6
7
11
8
1
4
2

>  <PUBCHEM_MMFF94_PARTIAL_CHARGES>  (1) 
9
1 -0.56
12 0.36
2 -0.56
3 -0.9
4 0.56
5 0.27
6 0.27
7 0.28
8 0.28

>  <PUBCHEM_EFFECTIVE_ROTOR_COUNT>  (1) 
4

>  <PUBCHEM_PHARMACOPHORE_FEATURES>  (1) 
4
1 1 acceptor
1 2 acceptor
1 3 cation
1 3 donor

>  <PUBCHEM_HEAVY_ATOM_COUNT>  (1) 
8

>  <PUBCHEM_ATOM_DEF_STEREO_COUNT>  (1) 
0

>  <PUBCHEM_ATOM_UDEF_STEREO_COUNT>  (1) 
0

>  <PUBCHEM_BOND_DEF_STEREO_COUNT>  (1) 
0

>  <PUBCHEM_BOND_UDEF_STEREO_COUNT>  (1) 
0

>  <PUBCHEM_ISOTOPIC_ATOM_COUNT>  (1) 
0

>  <PUBCHEM_COMPONENT_COUNT>  (1) 
1

>  <PUBCHEM_CACTVS_TAUTO_COUNT>  (1) 
1

>  <PUBCHEM_CONFORMER_ID>  (1) 
0000213700000003

>  <PUBCHEM_MMFF94_ENERGY>  (1) 
15.9103

>  <PUBCHEM_FEATURE_SELFOVERLAP>  (1) 
20.329

>  <PUBCHEM_SHAPE_FINGERPRINT>  (1) 
16714656 1 18342738520101536791
20653085 51 15358250468604389055
20711978 78 16271373972056425142
21040471 1 17833545704586335688
23552423 10 18116998784525695098
23552449 1 18337948987548470084
29004967 10 18336830891570655307
5084963 1 18342740698092924698

>  <PUBCHEM_SHAPE_MULTIPOLES>  (1) 
147.92
4.03
1.43
0.74
2.1
0.91
0
-1.34
-0.08
-0.72
-0.2
-0.02
0.06
0.04

>  <PUBCHEM_SHAPE_SELFOVERLAP>  (1) 
259.345

>  <PUBCHEM_SHAPE_VOLUME>  (1) 
98.3

>  <PUBCHEM_COORDINATE_TYPE>  (1) 
2
5
10

$$$$
