8511
     RDKit          3D

 18 20  0  0  0  0  0  0  0  0999 V2000
   -0.0002    2.3596   -0.0028 O   0  0  0  0  0  0  0  0  0  0  0  0
    0.0000   -2.9843   -0.0012 O   0  0  0  0  0  0  0  0  0  0  0  0
   -2.5735    2.4958    0.0007 N   0  0  0  0  0  0  0  0  0  0  0  0
    2.5730    2.4960    0.0009 N   0  0  0  0  0  0  0  0  0  0  0  0
   -1.2730    0.3862   -0.0003 C   0  0  0  0  0  0  0  0  0  0  0  0
    1.2731    0.3864   -0.0001 C   0  0  0  0  0  0  0  0  0  0  0  0
   -1.2729   -1.0102   -0.0001 C   0  0  0  0  0  0  0  0  0  0  0  0
    1.2731   -1.0101   -0.0003 C   0  0  0  0  0  0  0  0  0  0  0  0
    0.0000    1.1356   -0.0005 C   0  0  0  0  0  0  0  0  0  0  0  0
    0.0000   -1.7594    0.0000 C   0  0  0  0  0  0  0  0  0  0  0  0
   -2.4866    1.0844    0.0000 C   0  0  0  0  0  0  0  0  0  0  0  0
    2.4866    1.0846    0.0005 C   0  0  0  0  0  0  0  0  0  0  0  0
   -2.4864   -1.7084    0.0004 C   0  0  0  0  0  0  0  0  0  0  0  0
    2.4866   -1.7083   -0.0001 C   0  0  0  0  0  0  0  0  0  0  0  0
   -3.6935    0.3847    0.0007 C   0  0  0  0  0  0  0  0  0  0  0  0
    3.6936    0.3848    0.0008 C   0  0  0  0  0  0  0  0  0  0  0  0
   -3.6935   -1.0088    0.0008 C   0  0  0  0  0  0  0  0  0  0  0  0
    3.6936   -1.0086    0.0005 C   0  0  0  0  0  0  0  0  0  0  0  0
  1  9  2  0
  2 10  2  0
  3 11  1  0
  4 12  1  0
  5  7  2  0
  5  9  1  0
  5 11  1  0
  6  8  2  0
  6  9  1  0
  6 12  1  0
  7 10  1  0
  7 13  1  0
  8 10  1  0
  8 14  1  0
 11 15  2  0
 12 16  2  0
 13 17  2  0
 14 18  2  0
 15 17  1  0
 16 18  1  0
M  END
>  <PUBCHEM_COMPOUND_CID>  (1) 
8511

>  <PUBCHEM_CONFORMER_RMSD>  (1) 
0.4

>  <PUBCHEM_CONFORMER_DIVERSEORDER>  (1) 
1

>  <PUBCHEM_MMFF94_PARTIAL_CHARGES>  (1) 
28
1 -0.57
10 0.4
11 0.1
12 0.1
13 -0.15
14 -0.15
15 -0.15
16 -0.15
17 -0.15
18 -0.15
19 0.15
2 -0.57
20 0.15
21 0.15
22 0.15
23 0.15
24 0.15
25 0.4
26 0.4
27 0.4
28 0.4
3 -0.9
4 -0.9
5 0.09
6 0.09
7 0.09
8 0.09
9 0.4

>  <PUBCHEM_EFFECTIVE_ROTOR_COUNT>  (1) 
0

>  <PUBCHEM_PHARMACOPHORE_FEATURES>  (1) 
9
1 1 acceptor
1 2 acceptor
1 3 cation
1 3 donor
1 4 cation
1 4 donor
6 5 6 7 8 9 10 rings
6 5 7 11 13 15 17 rings
6 6 8 12 14 16 18 rings

>  <PUBCHEM_HEAVY_ATOM_COUNT>  (1) 
18

>  <PUBCHEM_ATOM_DEF_STEREO_COUNT>  (1) 
0

>  <PUBCHEM_ATOM_UDEF_STEREO_COUNT>  (1) 
0

>  <PUBCHEM_BOND_DEF_STEREO_COUNT>  (1) 
0

>  <PUBCHEM_BOND_UDEF_STEREO_COUNT>  (1) 
0

>  <PUBCHEM_ISOTOPIC_ATOM_COUNT>  (1) 
0

>  <PUBCHEM_COMPONENT_COUNT>  (1) 
1

>  <PUBCHEM_CACTVS_TAUTO_COUNT>  (1) 
9

>  <PUBCHEM_CONFORMER_ID>  (1) 
0000213F00000001

>  <PUBCHEM_MMFF94_ENERGY>  (1) 
81.4376

>  <PUBCHEM_FEATURE_SELFOVERLAP>  (1) 
45.711

>  <PUBCHEM_SHAPE_FINGERPRINT>  (1) 
10062212 137 18337662010586778075
10411042 1 15672667600732938451
10608611 8 18410571790423377248
10616163 171 18411703196631345719
10967382 1 18266458895933800038
11132069 177 18411694383215795730
11471102 20 18410288103559510918
12403259 226 18410569587105186880
13140716 1 18410856516695424273
13221675 6 18410573985156979234
13897977 150 18410290268339033557
15196674 1 18410856563934847815
15309172 13 18339652221354266443
15442244 35 18338233748201282642
15536298 74 18343021107833304298
16945 1 18411136917925191651
18186145 218 18272660017049978472
193761 8 17834113039585256711
19591789 44 18410857663446910818
200 152 18131059451291244999
20510252 161 18343866631900797465
21267235 1 18410865355733285987
21501502 16 18410576179879778372
221490 88 18336836376344170970
2334 1 18410855490192932871
23402539 116 18342728641851017974
23463225 33 18408885126849023630
23559900 14 18199185093196535222
238 59 17105332548109333013
2748010 2 18410293613981374663
2871803 45 18409160017994440511
335352 9 18050568434847203894
350125 39 18410016537104279801
43471831 8 18335416816311702242
5104073 3 18410575084678917153
69090 78 18342735247431552239
7364860 26 18342175613577907784
7832392 63 18195808457677967129
8809292 202 18261397766686404947
9709674 26 18411986874905466078

>  <PUBCHEM_SHAPE_MULTIPOLES>  (1) 
348.73
6.25
2.78
0.6
0
0.26
0
0.22
0
0
0
0
-0.02
0

>  <PUBCHEM_SHAPE_SELFOVERLAP>  (1) 
792.621

>  <PUBCHEM_SHAPE_VOLUME>  (1) 
179.6

>  <PUBCHEM_COORDINATE_TYPE>  (1) 
2
5
10

$$$$
