8513
     RDKit          3D

 18 20  0  0  0  0  0  0  0  0999 V2000
   -0.6115   -2.6008    0.0008 O   0  0  0  0  0  0  0  0  0  0  0  0
    0.6115    2.6008    0.0004 O   0  0  0  0  0  0  0  0  0  0  0  0
   -3.1727   -2.0991    0.0002 N   0  0  0  0  0  0  0  0  0  0  0  0
    3.1727    2.0990    0.0006 N   0  0  0  0  0  0  0  0  0  0  0  0
   -1.4047   -0.3675   -0.0004 C   0  0  0  0  0  0  0  0  0  0  0  0
    1.4047    0.3675   -0.0005 C   0  0  0  0  0  0  0  0  0  0  0  0
   -1.0649    0.9870   -0.0006 C   0  0  0  0  0  0  0  0  0  0  0  0
    1.0649   -0.9870   -0.0006 C   0  0  0  0  0  0  0  0  0  0  0  0
   -0.3523   -1.4039   -0.0003 C   0  0  0  0  0  0  0  0  0  0  0  0
    0.3523    1.4040   -0.0008 C   0  0  0  0  0  0  0  0  0  0  0  0
   -2.7516   -0.7493    0.0001 C   0  0  0  0  0  0  0  0  0  0  0  0
    2.7516    0.7493    0.0002 C   0  0  0  0  0  0  0  0  0  0  0  0
   -2.0720    1.9596   -0.0003 C   0  0  0  0  0  0  0  0  0  0  0  0
    2.0720   -1.9596   -0.0004 C   0  0  0  0  0  0  0  0  0  0  0  0
   -3.7520    0.2230    0.0005 C   0  0  0  0  0  0  0  0  0  0  0  0
    3.7520   -0.2232    0.0005 C   0  0  0  0  0  0  0  0  0  0  0  0
   -3.4129    1.5747    0.0004 C   0  0  0  0  0  0  0  0  0  0  0  0
    3.4129   -1.5747    0.0002 C   0  0  0  0  0  0  0  0  0  0  0  0
  1  9  2  0
  2 10  2  0
  3 11  1  0
  4 12  1  0
  5  7  2  0
  5  9  1  0
  5 11  1  0
  6  8  2  0
  6 10  1  0
  6 12  1  0
  7 10  1  0
  7 13  1  0
  8  9  1  0
  8 14  1  0
 11 15  2  0
 12 16  2  0
 13 17  2  0
 14 18  2  0
 15 17  1  0
 16 18  1  0
M  END
>  <PUBCHEM_COMPOUND_CID>  (1) 
8513

>  <PUBCHEM_CONFORMER_RMSD>  (1) 
0.4

>  <PUBCHEM_CONFORMER_DIVERSEORDER>  (1) 
1

>  <PUBCHEM_MMFF94_PARTIAL_CHARGES>  (1) 
28
1 -0.57
10 0.4
11 0.1
12 0.1
13 -0.15
14 -0.15
15 -0.15
16 -0.15
17 -0.15
18 -0.15
19 0.15
2 -0.57
20 0.15
21 0.15
22 0.15
23 0.15
24 0.15
25 0.4
26 0.4
27 0.4
28 0.4
3 -0.9
4 -0.9
5 0.09
6 0.09
7 0.09
8 0.09
9 0.4

>  <PUBCHEM_EFFECTIVE_ROTOR_COUNT>  (1) 
0

>  <PUBCHEM_PHARMACOPHORE_FEATURES>  (1) 
9
1 1 acceptor
1 2 acceptor
1 3 cation
1 3 donor
1 4 cation
1 4 donor
6 5 6 7 8 9 10 rings
6 5 7 11 13 15 17 rings
6 6 8 12 14 16 18 rings

>  <PUBCHEM_HEAVY_ATOM_COUNT>  (1) 
18

>  <PUBCHEM_ATOM_DEF_STEREO_COUNT>  (1) 
0

>  <PUBCHEM_ATOM_UDEF_STEREO_COUNT>  (1) 
0

>  <PUBCHEM_BOND_DEF_STEREO_COUNT>  (1) 
0

>  <PUBCHEM_BOND_UDEF_STEREO_COUNT>  (1) 
0

>  <PUBCHEM_ISOTOPIC_ATOM_COUNT>  (1) 
0

>  <PUBCHEM_COMPONENT_COUNT>  (1) 
1

>  <PUBCHEM_CACTVS_TAUTO_COUNT>  (1) 
10

>  <PUBCHEM_CONFORMER_ID>  (1) 
0000214100000001

>  <PUBCHEM_MMFF94_ENERGY>  (1) 
81.0225

>  <PUBCHEM_FEATURE_SELFOVERLAP>  (1) 
45.711

>  <PUBCHEM_SHAPE_FINGERPRINT>  (1) 
10062212 137 18410283684201959883
10411042 1 16248847621083972066
10608611 8 18410571781912544464
10616163 171 18411984692988018838
10863032 1 18412263930233669797
10967382 1 18266741272790254887
1100329 8 16249127291097972889
11132069 177 18339073804885774640
11471102 20 18338230458003015964
13140716 1 18338797805960692145
13221675 6 18338234864623721698
13897977 150 18410571743242014605
15196674 1 18410573985151451137
15442244 35 18338516335537534714
15536298 74 18342738498979972240
16945 1 18266459999666438150
17492 89 18410573993805761115
17804303 29 18339366236524543422
18186145 218 18270967838553227828
193761 8 18194683897785090055
19591789 44 18410577270823038290
200 152 18059562569486793477
20510252 161 18270965746978092545
21267235 1 18410865334332218087
21501502 16 18410574002331320334
221490 88 18409175423889267306
2334 1 18410855460128161799
23366157 5 18113056039355572108
23402539 116 18342446011633599694
23463225 33 18337110068676344500
23559900 14 18270396080328939498
238 59 17032993479158017437
2748010 2 18410573950791712903
335352 9 18050567343909634495
34934 24 18337382743085756635
5104073 3 18410856555344823256
69090 78 18341045229603655047
7364860 26 18413951689710499136
7832392 63 18339922619267201715
8809292 202 18334299742720538131
9709674 26 18411985758208713846

>  <PUBCHEM_SHAPE_MULTIPOLES>  (1) 
348.73
6.36
2.73
0.6
0
0
0
0
0
0
0
0
0
0

>  <PUBCHEM_SHAPE_SELFOVERLAP>  (1) 
792.491

>  <PUBCHEM_SHAPE_VOLUME>  (1) 
180.2

>  <PUBCHEM_COORDINATE_TYPE>  (1) 
2
5
10

$$$$
