8523
     RDKit          3D

 20 21  0  0  1  0  0  0  0  0999 V2000
   -1.1196   -3.0271   -0.0144 O   0  0  0  0  0  0  0  0  0  0  0  0
    2.5690    0.3333    0.0513 N   0  0  0  0  0  0  0  0  0  0  0  0
   -1.0271   -0.6745    0.2438 N   0  0  0  0  0  0  0  0  0  0  0  0
    3.1592   -1.0106    0.1240 C   0  0  0  0  0  0  0  0  0  0  0  0
    3.2935    1.1807   -0.9062 C   0  0  0  0  0  0  0  0  0  0  0  0
    1.1533    0.2516   -0.3067 C   0  0  0  0  0  0  0  0  0  0  0  0
    4.6280   -0.9461    0.5456 C   0  0  0  0  0  0  0  0  0  0  0  0
    4.7667    1.3170   -0.5182 C   0  0  0  0  0  0  0  0  0  0  0  0
    5.4336   -0.0474   -0.3859 C   0  0  0  0  0  0  0  0  0  0  0  0
    0.3427   -0.5760    0.6987 C   0  0  0  0  0  0  0  0  0  0  0  0
    0.3767   -0.0053    2.1146 C   0  0  0  0  0  0  0  0  0  0  0  0
   -1.8067    0.5530    0.1094 C   0  0  0  0  0  0  0  0  0  0  0  0
   -1.6508   -1.9156   -0.0793 C   0  0  0  0  0  0  0  0  0  0  0  0
   -3.0861   -1.8043   -0.5857 C   0  0  0  0  0  0  0  0  0  0  0  0
   -2.5162    0.9735    1.1954 C   0  0  0  0  0  0  0  0  0  0  0  0
   -1.7719    1.1961   -1.0924 C   0  0  0  0  0  0  0  0  0  0  0  0
   -3.7066   -3.1570   -0.9006 C   0  0  0  0  0  0  0  0  0  0  0  0
   -3.2607    2.1461    1.0673 C   0  0  0  0  0  0  0  0  0  0  0  0
   -2.5163    2.3688   -1.2203 C   0  0  0  0  0  0  0  0  0  0  0  0
   -3.2607    2.8438   -0.1403 C   0  0  0  0  0  0  0  0  0  0  0  0
  1 13  2  0
  2  4  1  0
  2  5  1  0
  2  6  1  0
  3 10  1  0
  3 12  1  0
  3 13  1  0
  4  7  1  0
  5  8  1  0
  6 10  1  0
  7  9  1  0
  8  9  1  0
 10 11  1  0
 12 15  2  0
 12 16  1  0
 13 14  1  0
 14 17  1  0
 15 18  1  0
 16 19  2  0
 18 20  2  0
 19 20  1  0
M  END
>  <PUBCHEM_COMPOUND_CID>  (1) 
8523

>  <PUBCHEM_CONFORMER_RMSD>  (1) 
0.8

>  <PUBCHEM_CONFORMER_DIVERSEORDER>  (1) 
1
59
56
65
52
68
75
67
21
19
70
53
69
63
33
47
49
23
42
58
73
64
39
54
78
28
12
40
51
35
3
62
34
71
11
55
32
10
77
17
57
46
44
45
7
36
31
76
14
66
61
41
48
43
72
30
24
29
25
50
37
27
26
16
74
15
20
9
22
60
18
8
13
38
5
4
2
6

>  <PUBCHEM_MMFF94_PARTIAL_CHARGES>  (1) 
20
1 -0.57
10 0.3
12 0.12
13 0.57
14 0.06
15 -0.15
16 -0.15
18 -0.15
19 -0.15
2 -0.81
20 -0.15
3 -0.48
39 0.15
4 0.27
40 0.15
44 0.15
45 0.15
46 0.15
5 0.27
6 0.27

>  <PUBCHEM_EFFECTIVE_ROTOR_COUNT>  (1) 
7.2

>  <PUBCHEM_PHARMACOPHORE_FEATURES>  (1) 
5
1 1 acceptor
1 17 hydrophobe
1 2 cation
6 12 15 16 18 19 20 rings
6 2 4 5 7 8 9 rings

>  <PUBCHEM_HEAVY_ATOM_COUNT>  (1) 
20

>  <PUBCHEM_ATOM_DEF_STEREO_COUNT>  (1) 
0

>  <PUBCHEM_ATOM_UDEF_STEREO_COUNT>  (1) 
1

>  <PUBCHEM_BOND_DEF_STEREO_COUNT>  (1) 
0

>  <PUBCHEM_BOND_UDEF_STEREO_COUNT>  (1) 
0

>  <PUBCHEM_ISOTOPIC_ATOM_COUNT>  (1) 
0

>  <PUBCHEM_COMPONENT_COUNT>  (1) 
1

>  <PUBCHEM_CACTVS_TAUTO_COUNT>  (1) 
1

>  <PUBCHEM_CONFORMER_ID>  (1) 
0000214B00000001

>  <PUBCHEM_MMFF94_ENERGY>  (1) 
61.9521

>  <PUBCHEM_FEATURE_SELFOVERLAP>  (1) 
25.371

>  <PUBCHEM_SHAPE_FINGERPRINT>  (1) 
10165383 225 18271253694845435049
11045515 52 17970623219834078871
12035759 4 18114726201491644295
12107183 9 18047747101607636018
12173636 292 18341328912003931133
12403260 363 18189609609459467828
12403814 3 18335432274325696929
12500047 106 18341610391634019402
12714826 92 17846217812224787830
12788726 201 18336818805417081803
13004483 165 18125151882252102247
13583140 156 17096086866167905225
13675066 3 17676779660707890056
14251751 93 18261674774849421139
14508225 48 18196361735924259461
15534591 1 18113620058033274425
16752209 62 18340751715638987091
17539 30 18271234028316429871
17980427 26 14205014431443485805
18186145 218 18197786505230123804
18785283 64 17618232706711857561
20645477 56 18410864230747052224
20871999 31 18341889705735758378
21202864 24 18341908376681287489
21426921 1 18412826910299387031
21524375 3 18189338965999959169
22393880 68 18341618122960215838
22907989 373 18340753919125430799
23227448 37 18410577258006325300
23402539 116 18340203111081952575
23419403 2 17202186607623124345
23557571 272 18273221919321679452
23559900 14 18199455731152937808
23598291 2 18041829637195587962
266924 1 18042105640194046419
27216 239 18041287564883130345
283562 15 18337949090786220171
312423 11 18114474452015043022
350125 39 18411700984933879673
3729539 64 17476105439490693894
4214541 1 18411139130397650204
5104073 3 18334011697182311000
559249 180 18339077087016852802
58051976 100 18412266142363594286
5924683 9 18411696621104786062
59755656 520 17845104965124237953
6049 1 17846206830135616512
69090 78 18334297526469817024
7164475 11 18337949090564277926
7615 1 18041824169591099570
81228 2 18265042716820919131
9862522 239 17823970130739682812

>  <PUBCHEM_SHAPE_MULTIPOLES>  (1) 
395.76
9.4
3.22
1.28
13.05
1.22
-0.41
-1.08
1.57
-5.21
0.85
-0.48
-0.31
-1.21

>  <PUBCHEM_SHAPE_SELFOVERLAP>  (1) 
807.939

>  <PUBCHEM_SHAPE_VOLUME>  (1) 
227.7

>  <PUBCHEM_COORDINATE_TYPE>  (1) 
2
5
10

$$$$
