8525
     RDKit          3D

 13 14  0  0  1  0  0  0  0  0999 V2000
   -2.2683   -1.7475   -0.2378 O   0  0  0  0  0  0  0  0  0  0  0  0
   -0.6385    2.6342   -0.1542 O   0  0  0  0  0  0  0  0  0  0  0  0
    0.0065   -1.3497    0.0823 N   0  0  0  0  0  0  0  0  0  0  0  0
   -1.5567    0.4589    0.0578 N   0  0  0  0  0  0  0  0  0  0  0  0
    2.3956   -0.7332    0.4360 N   0  0  0  0  0  0  0  0  0  0  0  0
    1.8749    1.3017   -0.4801 N   0  0  0  0  0  0  0  0  0  0  0  0
    0.9719   -0.4726    0.7211 C   0  0  0  0  0  0  0  0  0  0  0  0
    0.8009    0.8243    0.0394 C   0  0  0  0  0  0  0  0  0  0  0  0
   -1.3478   -0.9527   -0.0253 C   0  0  0  0  0  0  0  0  0  0  0  0
   -0.5466    1.4248   -0.0206 C   0  0  0  0  0  0  0  0  0  0  0  0
    0.4319   -2.6378   -0.4476 C   0  0  0  0  0  0  0  0  0  0  0  0
   -2.9234    0.9275    0.2373 C   0  0  0  0  0  0  0  0  0  0  0  0
    2.7994    0.3222   -0.2083 C   0  0  0  0  0  0  0  0  0  0  0  0
  1  9  2  0
  2 10  2  0
  3  7  1  0
  3  9  1  0
  3 11  1  0
  4  9  1  0
  4 10  1  0
  4 12  1  0
  5  7  1  0
  5 13  2  0
  6  8  2  0
  6 13  1  0
  7  8  1  0
  8 10  1  0
M  END
>  <PUBCHEM_COMPOUND_CID>  (1) 
8525

>  <PUBCHEM_CONFORMER_RMSD>  (1) 
0.4

>  <PUBCHEM_CONFORMER_DIVERSEORDER>  (1) 
1
2

>  <PUBCHEM_MMFF94_PARTIAL_CHARGES>  (1) 
14
1 -0.57
10 0.63
11 0.3
12 0.3
13 0.6
2 -0.57
21 0.06
3 -0.66
4 -0.42
5 -0.7
6 -0.66
7 0.61
8 0.39
9 0.69

>  <PUBCHEM_EFFECTIVE_ROTOR_COUNT>  (1) 
0.4

>  <PUBCHEM_PHARMACOPHORE_FEATURES>  (1) 
6
1 1 acceptor
1 2 acceptor
1 6 acceptor
3 5 6 13 cation
5 5 6 7 8 13 rings
6 3 4 7 8 9 10 rings

>  <PUBCHEM_HEAVY_ATOM_COUNT>  (1) 
13

>  <PUBCHEM_ATOM_DEF_STEREO_COUNT>  (1) 
0

>  <PUBCHEM_ATOM_UDEF_STEREO_COUNT>  (1) 
1

>  <PUBCHEM_BOND_DEF_STEREO_COUNT>  (1) 
0

>  <PUBCHEM_BOND_UDEF_STEREO_COUNT>  (1) 
0

>  <PUBCHEM_ISOTOPIC_ATOM_COUNT>  (1) 
0

>  <PUBCHEM_COMPONENT_COUNT>  (1) 
1

>  <PUBCHEM_CACTVS_TAUTO_COUNT>  (1) 
1

>  <PUBCHEM_CONFORMER_ID>  (1) 
0000214D00000001

>  <PUBCHEM_MMFF94_ENERGY>  (1) 
30.6444

>  <PUBCHEM_FEATURE_SELFOVERLAP>  (1) 
30.592

>  <PUBCHEM_SHAPE_FINGERPRINT>  (1) 
10967382 1 18338517434827512401
12423570 1 12901840401670985473
12524768 44 18337114441032179635
13380535 76 18338513037071411499
161256 15 17980210694486606159
16945 1 18266739090999648520
18185500 45 18048594008501103490
193761 8 17906453229691705191
20588541 1 18340489954598510147
20871998 184 18343302591046638783
21040471 1 18339358673081808416
22802520 49 18128839498185611302
2334 1 18266457783505563449
23402539 116 18127960009158292518
23463225 33 18408040697492146603
23552423 10 18260266395059441418
23559900 14 18272656749598127412
241688 4 17185316435208132242
2748010 2 18339078301695421421
5084963 1 17988085619992475378
528886 8 18411134736097441347
53812654 25 18195230346854137314
66348 1 18194118744560944667

>  <PUBCHEM_SHAPE_MULTIPOLES>  (1) 
235.87
3.46
2.5
0.68
0.2
0.57
0.03
-0.46
0.07
0.45
-0.42
-0.11
0.04
-0.19

>  <PUBCHEM_SHAPE_SELFOVERLAP>  (1) 
506.325

>  <PUBCHEM_SHAPE_VOLUME>  (1) 
130.1

>  <PUBCHEM_COORDINATE_TYPE>  (1) 
2
5
10

$$$$
