8532
     RDKit          3D

 36 42  0  0  0  0  0  0  0  0999 V2000
   -0.3410   -3.9724   -0.0026 Cl  0  0  0  0  0  0  0  0  0  0  0  0
    0.3408    3.9722   -0.0017 Cl  0  0  0  0  0  0  0  0  0  0  0  0
   -3.2456    2.1535   -0.0028 O   0  0  0  0  0  0  0  0  0  0  0  0
    3.2458   -2.1537   -0.0029 O   0  0  0  0  0  0  0  0  0  0  0  0
   -5.4291   -2.7178    0.0004 O   0  0  0  0  0  0  0  0  0  0  0  0
    5.4285    2.7181   -0.0012 O   0  0  0  0  0  0  0  0  0  0  0  0
    0.7495   -1.1483   -0.0037 N   0  0  0  0  0  0  0  0  0  0  0  0
   -0.7494    1.1480   -0.0034 N   0  0  0  0  0  0  0  0  0  0  0  0
    1.4434    0.0808   -0.0040 C   0  0  0  0  0  0  0  0  0  0  0  0
   -1.4434   -0.0810   -0.0032 C   0  0  0  0  0  0  0  0  0  0  0  0
   -0.6565   -1.2618   -0.0035 C   0  0  0  0  0  0  0  0  0  0  0  0
    0.6564    1.2615   -0.0039 C   0  0  0  0  0  0  0  0  0  0  0  0
    2.8510    0.1810   -0.0028 C   0  0  0  0  0  0  0  0  0  0  0  0
   -2.8509   -0.1812   -0.0019 C   0  0  0  0  0  0  0  0  0  0  0  0
    3.4468    1.4504   -0.0017 C   0  0  0  0  0  0  0  0  0  0  0  0
   -3.4469   -1.4506   -0.0013 C   0  0  0  0  0  0  0  0  0  0  0  0
   -1.2692   -2.5149   -0.0026 C   0  0  0  0  0  0  0  0  0  0  0  0
    1.2691    2.5147   -0.0024 C   0  0  0  0  0  0  0  0  0  0  0  0
   -3.7220    1.0252   -0.0009 C   0  0  0  0  0  0  0  0  0  0  0  0
    3.7221   -1.0253   -0.0022 C   0  0  0  0  0  0  0  0  0  0  0  0
    2.6577    2.6091   -0.0016 C   0  0  0  0  0  0  0  0  0  0  0  0
   -2.6578   -2.6092   -0.0017 C   0  0  0  0  0  0  0  0  0  0  0  0
   -5.1905    0.8667    0.0014 C   0  0  0  0  0  0  0  0  0  0  0  0
    5.1907   -0.8666    0.0012 C   0  0  0  0  0  0  0  0  0  0  0  0
   -4.9176   -1.6045   -0.0003 C   0  0  0  0  0  0  0  0  0  0  0  0
    4.9175    1.6046    0.0002 C   0  0  0  0  0  0  0  0  0  0  0  0
   -5.7677   -0.4016    0.0021 C   0  0  0  0  0  0  0  0  0  0  0  0
    5.7677    0.4017    0.0024 C   0  0  0  0  0  0  0  0  0  0  0  0
   -6.0103    2.0031    0.0033 C   0  0  0  0  0  0  0  0  0  0  0  0
    6.0105   -2.0029    0.0033 C   0  0  0  0  0  0  0  0  0  0  0  0
   -7.1617   -0.5376    0.0048 C   0  0  0  0  0  0  0  0  0  0  0  0
    7.1617    0.5381    0.0056 C   0  0  0  0  0  0  0  0  0  0  0  0
   -7.3988    1.8650    0.0062 C   0  0  0  0  0  0  0  0  0  0  0  0
    7.3990   -1.8647    0.0067 C   0  0  0  0  0  0  0  0  0  0  0  0
   -7.9736    0.5964    0.0070 C   0  0  0  0  0  0  0  0  0  0  0  0
    7.9737   -0.5960    0.0078 C   0  0  0  0  0  0  0  0  0  0  0  0
  1 17  1  0
  2 18  1  0
  3 19  2  0
  4 20  2  0
  5 25  2  0
  6 26  2  0
  7  9  1  0
  7 11  1  0
  8 10  1  0
  8 12  1  0
  9 12  2  0
  9 13  1  0
 10 11  2  0
 10 14  1  0
 11 17  1  0
 12 18  1  0
 13 15  2  0
 13 20  1  0
 14 16  2  0
 14 19  1  0
 15 21  1  0
 15 26  1  0
 16 22  1  0
 16 25  1  0
 17 22  2  0
 18 21  2  0
 19 23  1  0
 20 24  1  0
 23 27  2  0
 23 29  1  0
 24 28  2  0
 24 30  1  0
 25 27  1  0
 26 28  1  0
 27 31  1  0
 28 32  1  0
 29 33  2  0
 30 34  2  0
 31 35  2  0
 32 36  2  0
 33 35  1  0
 34 36  1  0
M  END
>  <PUBCHEM_COMPOUND_CID>  (1) 
8532

>  <PUBCHEM_CONFORMER_RMSD>  (1) 
0.6

>  <PUBCHEM_CONFORMER_DIVERSEORDER>  (1) 
1

>  <PUBCHEM_MMFF94_PARTIAL_CHARGES>  (1) 
48
1 -0.18
10 0.1
11 0.1
12 0.1
13 0.09
14 0.09
15 0.09
16 0.09
17 0.18
18 0.18
19 0.4
2 -0.18
20 0.4
21 -0.15
22 -0.15
23 0.09
24 0.09
25 0.4
26 0.4
27 0.09
28 0.09
29 -0.15
3 -0.57
30 -0.15
31 -0.15
32 -0.15
33 -0.15
34 -0.15
35 -0.15
36 -0.15
37 0.4
38 0.4
39 0.15
4 -0.57
40 0.15
41 0.15
42 0.15
43 0.15
44 0.15
45 0.15
46 0.15
47 0.15
48 0.15
5 -0.57
6 -0.57
7 -0.6
8 -0.6
9 0.1

>  <PUBCHEM_EFFECTIVE_ROTOR_COUNT>  (1) 
0

>  <PUBCHEM_PHARMACOPHORE_FEATURES>  (1) 
15
1 3 acceptor
1 4 acceptor
1 5 acceptor
1 6 acceptor
1 7 cation
1 7 donor
1 8 cation
1 8 donor
6 10 11 14 16 17 22 rings
6 13 15 20 24 26 28 rings
6 14 16 19 23 25 27 rings
6 23 27 29 31 33 35 rings
6 24 28 30 32 34 36 rings
6 7 8 9 10 11 12 rings
6 9 12 13 15 18 21 rings

>  <PUBCHEM_HEAVY_ATOM_COUNT>  (1) 
36

>  <PUBCHEM_ATOM_DEF_STEREO_COUNT>  (1) 
0

>  <PUBCHEM_ATOM_UDEF_STEREO_COUNT>  (1) 
0

>  <PUBCHEM_BOND_DEF_STEREO_COUNT>  (1) 
0

>  <PUBCHEM_BOND_UDEF_STEREO_COUNT>  (1) 
0

>  <PUBCHEM_ISOTOPIC_ATOM_COUNT>  (1) 
0

>  <PUBCHEM_COMPONENT_COUNT>  (1) 
1

>  <PUBCHEM_CACTVS_TAUTO_COUNT>  (1) 
25

>  <PUBCHEM_CONFORMER_ID>  (1) 
0000215400000001

>  <PUBCHEM_MMFF94_ENERGY>  (1) 
133.4194

>  <PUBCHEM_FEATURE_SELFOVERLAP>  (1) 
76.264

>  <PUBCHEM_SHAPE_FINGERPRINT>  (1) 
10050765 1 18194682793994332226
100830 39 18410012105426212421
10580692 12 18411138064681271409
10674148 151 18259982687417090802
11135926 11 18337102385660626711
11297010 23 18268979918063404653
11578080 2 17058347414214326800
11719270 70 18060138726317249478
12133447 93 18198635341213566812
12838862 33 18338218401998108952
13811026 1 18342177747701803079
14117953 113 18271811194622410486
14394314 77 18409450250019259513
14790565 3 18410295795851108729
15064986 96 18059867163845528855
15183329 4 18410575084663079136
15361156 5 17968667119353762444
15461852 350 17060050467705375277
15849732 13 18410293596801473293
15890870 6 18409165485862101255
16087824 20 18337954489528521133
16628084 112 18043242445218103738
18608769 82 18409445886237177255
18681886 176 18341323462138520475
19053607 189 17977660141840409728
19611394 137 17969799643187008971
20721686 56 18335703875573423185
21033648 29 17845636157878632322
21057603 40 16916798340534136734
21130935 74 18341894146927511354
21133410 171 17045924083904763998
21267235 1 18411140217230156364
21781055 127 17489030345547477435
21792934 111 18341321228813912608
22311459 1 18338798918357221382
23559900 14 18340762766827002369
23569917 315 18342746199746597423
24893992 56 18409167732351725251
249057 3 18410573989446418524
3004659 81 18260265257462930704
3103668 31 18115584825220583140
3178227 256 18336560360687339571
335352 9 18410855460128162197
3383291 50 18335137643574944123
350125 39 18409446990465804485
3633792 109 18271811176846013257
4017518 198 17489312979976143038
4073 2 18041846232600858818
4144715 1 18044381753553674971
6009941 240 17676212376694552795
6086070 43 16916501579061553466
6138700 20 18409730634200701955
6371380 46 18411415128805846427
99344 41 18412544280277485367

>  <PUBCHEM_SHAPE_MULTIPOLES>  (1) 
711.16
21.69
3.86
0.6
0
0
0
0
-0.07
0
0
0
0
-0.01

>  <PUBCHEM_SHAPE_SELFOVERLAP>  (1) 
1636.47

>  <PUBCHEM_SHAPE_VOLUME>  (1) 
364.4

>  <PUBCHEM_COORDINATE_TYPE>  (1) 
2
5
10

$$$$
