8534
     RDKit          3D

 22 24  0  0  0  0  0  0  0  0999 V2000
    4.0189   -0.9542   -0.0653 S   0  0  0  0  0  0  0  0  0  0  0  0
    0.8213    3.0189    0.0062 O   0  0  0  0  0  0  0  0  0  0  0  0
    3.3127    1.9565   -0.0280 O   0  0  0  0  0  0  0  0  0  0  0  0
   -0.9924   -2.6976   -0.0346 O   0  0  0  0  0  0  0  0  0  0  0  0
   -1.7154    2.5970    0.0228 O   0  0  0  0  0  0  0  0  0  0  0  0
    4.6378   -0.6445    1.4149 O   0  0  0  0  0  0  0  0  0  0  0  0
    3.8779   -2.3977   -0.1753 O   0  0  0  0  0  0  0  0  0  0  0  0
    4.7880   -0.2044   -1.0447 O   0  0  0  0  0  0  0  0  0  0  0  0
    0.0138   -0.5748   -0.0241 C   0  0  0  0  0  0  0  0  0  0  0  0
   -0.1678    0.8097   -0.0082 C   0  0  0  0  0  0  0  0  0  0  0  0
   -2.5107   -0.9060   -0.0051 C   0  0  0  0  0  0  0  0  0  0  0  0
   -2.6921    0.4785    0.0104 C   0  0  0  0  0  0  0  0  0  0  0  0
   -1.1511   -1.4832   -0.0227 C   0  0  0  0  0  0  0  0  0  0  0  0
   -1.5273    1.3870    0.0092 C   0  0  0  0  0  0  0  0  0  0  0  0
    2.4135   -0.2586   -0.0427 C   0  0  0  0  0  0  0  0  0  0  0  0
    1.3076   -1.1094   -0.0416 C   0  0  0  0  0  0  0  0  0  0  0  0
    0.9447    1.6598   -0.0092 C   0  0  0  0  0  0  0  0  0  0  0  0
    2.2323    1.1230   -0.0263 C   0  0  0  0  0  0  0  0  0  0  0  0
   -3.6231   -1.7560   -0.0038 C   0  0  0  0  0  0  0  0  0  0  0  0
   -3.9860    1.0129    0.0272 C   0  0  0  0  0  0  0  0  0  0  0  0
   -4.9108   -1.2193    0.0126 C   0  0  0  0  0  0  0  0  0  0  0  0
   -5.0918    0.1623    0.0280 C   0  0  0  0  0  0  0  0  0  0  0  0
  1  6  1  0
  1  7  2  0
  1  8  2  0
  1 15  1  0
  2 17  1  0
  3 18  1  0
  4 13  2  0
  5 14  2  0
  9 10  2  0
  9 13  1  0
  9 16  1  0
 10 14  1  0
 10 17  1  0
 11 12  2  0
 11 13  1  0
 11 19  1  0
 12 14  1  0
 12 20  1  0
 15 16  2  0
 15 18  1  0
 17 18  2  0
 19 21  2  0
 20 22  2  0
 21 22  1  0
M  END
>  <PUBCHEM_COMPOUND_CID>  (1) 
8534

>  <PUBCHEM_CONFORMER_RMSD>  (1) 
0.6

>  <PUBCHEM_CONFORMER_DIVERSEORDER>  (1) 
1

>  <PUBCHEM_MMFF94_PARTIAL_CHARGES>  (1) 
30
1 1.49
10 0.09
11 0.09
12 0.09
13 0.4
14 0.4
15 -0.01
16 -0.15
17 0.08
18 0.08
19 -0.15
2 -0.53
20 -0.15
21 -0.15
22 -0.15
23 0.15
24 0.15
25 0.15
26 0.15
27 0.15
28 0.45
29 0.45
3 -0.53
30 0.5
4 -0.57
5 -0.57
6 -0.68
7 -0.65
8 -0.65
9 0.09

>  <PUBCHEM_EFFECTIVE_ROTOR_COUNT>  (1) 
1

>  <PUBCHEM_PHARMACOPHORE_FEATURES>  (1) 
11
1 2 donor
1 3 donor
1 4 acceptor
1 5 acceptor
1 6 acceptor
1 7 acceptor
1 8 acceptor
4 1 6 7 8 anion
6 11 12 19 20 21 22 rings
6 9 10 11 12 13 14 rings
6 9 10 15 16 17 18 rings

>  <PUBCHEM_HEAVY_ATOM_COUNT>  (1) 
22

>  <PUBCHEM_ATOM_DEF_STEREO_COUNT>  (1) 
0

>  <PUBCHEM_ATOM_UDEF_STEREO_COUNT>  (1) 
0

>  <PUBCHEM_BOND_DEF_STEREO_COUNT>  (1) 
0

>  <PUBCHEM_BOND_UDEF_STEREO_COUNT>  (1) 
0

>  <PUBCHEM_ISOTOPIC_ATOM_COUNT>  (1) 
0

>  <PUBCHEM_COMPONENT_COUNT>  (1) 
1

>  <PUBCHEM_CACTVS_TAUTO_COUNT>  (1) 
16

>  <PUBCHEM_CONFORMER_ID>  (1) 
0000215600000001

>  <PUBCHEM_MMFF94_ENERGY>  (1) 
58.2589

>  <PUBCHEM_FEATURE_SELFOVERLAP>  (1) 
55.927

>  <PUBCHEM_SHAPE_FINGERPRINT>  (1) 
10062212 137 18343297094005652967
10967382 1 18266741461895565885
11132069 177 18343017779038568619
11578080 2 16771253975724548851
11680986 33 18264775548069099777
12011746 2 18410576171611630031
12236239 1 17821730503496108878
12403259 226 18410288134141597341
12553582 1 18411975884342410718
12788726 201 17845390932363070369
13140716 1 18266173014289242370
13583140 156 14404629744525562291
138480 1 18338799034443456693
13862211 1 18410851062446050327
14115302 16 17895484712099157735
14790565 3 18410304592044994357
14866123 147 17622171165330142971
15042514 8 18121778318737606234
15099037 51 18410011022650991543
15196674 1 18410856594484902581
15209289 33 18408323280982006251
15256400 18 18412824651178185899
15442244 35 18411419526799479849
15536298 74 18341894133836640505
16945 1 18266740366615634365
17349148 13 18059859467274312967
17492 89 18267584804594991119
17804303 29 18412829092163956765
1813 80 17530964683162870740
18186145 218 17822002147044726735
19591789 44 18338235968419656815
200 152 18060416919954347495
20028762 73 18130222770161872175
20510252 161 18200309905658870880
21029758 11 18413670201463823249
21267235 1 18410865373424702179
21279426 13 18337389319107890157
21859007 373 17824795911370166661
221490 88 18263933305093097963
22182313 1 18263904640249840605
23366157 5 17970063563804484308
23402539 116 18343012285933847719
23557571 272 18129953260715134100
23559900 14 18341330084693572208
2748010 2 18267300937172965613
3004659 81 18186805747434560702
335352 9 18410856517333851181
34934 24 18268427022143158020
350125 39 18410015399339022397
3680242 22 18263364689856468971
4214541 1 18410856534250021309
5104073 3 18411139173162772665
7364860 26 18269556216205864928
8809292 202 18334298686332578651
9709674 26 18193278713736115739
9981440 41 17328860405629974297

>  <PUBCHEM_SHAPE_MULTIPOLES>  (1) 
415.51
9.6
2.66
0.7
0.3
0.65
0.06
-3
0.14
0.3
-0.03
0.49
-0.07
-0.07

>  <PUBCHEM_SHAPE_SELFOVERLAP>  (1) 
925.669

>  <PUBCHEM_SHAPE_VOLUME>  (1) 
222

>  <PUBCHEM_COORDINATE_TYPE>  (1) 
2
5
10

$$$$
