8541
     RDKit          3D

 22 23  0  0  1  0  0  0  0  0999 V2000
   -5.9677   -0.2351   -0.2202 O   0  0  0  0  0  0  0  0  0  0  0  0
    5.9468    0.2527    0.3231 O   0  0  0  0  0  0  0  0  0  0  0  0
   -0.3939    0.6391   -0.2398 C   0  0  0  0  0  0  0  0  0  0  0  0
    0.3824   -0.6669    0.1717 C   0  0  0  0  0  0  0  0  0  0  0  0
   -0.0269    1.8626    0.6382 C   0  0  0  0  0  0  0  0  0  0  0  0
    0.0467   -1.8738   -0.7411 C   0  0  0  0  0  0  0  0  0  0  0  0
   -1.9043    0.4021   -0.2344 C   0  0  0  0  0  0  0  0  0  0  0  0
    1.8903   -0.4179    0.2125 C   0  0  0  0  0  0  0  0  0  0  0  0
   -0.6553    3.1702    0.1634 C   0  0  0  0  0  0  0  0  0  0  0  0
    0.7550   -3.1647   -0.3388 C   0  0  0  0  0  0  0  0  0  0  0  0
   -2.5972    0.5357   -1.4160 C   0  0  0  0  0  0  0  0  0  0  0  0
    2.5514   -0.5680    1.4102 C   0  0  0  0  0  0  0  0  0  0  0  0
   -2.5147    0.0638    0.9520 C   0  0  0  0  0  0  0  0  0  0  0  0
    2.5303   -0.0528   -0.9500 C   0  0  0  0  0  0  0  0  0  0  0  0
   -3.9752    0.3197   -1.4110 C   0  0  0  0  0  0  0  0  0  0  0  0
    3.9271   -0.3405    1.4477 C   0  0  0  0  0  0  0  0  0  0  0  0
   -3.8928   -0.1523    0.9571 C   0  0  0  0  0  0  0  0  0  0  0  0
    3.9061    0.1746   -0.9128 C   0  0  0  0  0  0  0  0  0  0  0  0
   -4.6231   -0.0245   -0.2245 C   0  0  0  0  0  0  0  0  0  0  0  0
    4.6046    0.0306    0.2861 C   0  0  0  0  0  0  0  0  0  0  0  0
   -6.5664   -0.5840    1.0270 C   0  0  0  0  0  0  0  0  0  0  0  0
    6.5768    0.6293   -0.9004 C   0  0  0  0  0  0  0  0  0  0  0  0
  1 19  1  0
  1 21  1  0
  2 20  1  0
  2 22  1  0
  3  4  1  0
  3  5  1  0
  3  7  1  0
  4  6  1  0
  4  8  1  0
  5  9  1  0
  6 10  1  0
  7 11  2  0
  7 13  1  0
  8 12  2  0
  8 14  1  0
 11 15  1  0
 12 16  1  0
 13 17  2  0
 14 18  2  0
 15 19  2  0
 16 20  2  0
 17 19  1  0
 18 20  1  0
M  END
>  <PUBCHEM_COMPOUND_CID>  (1) 
8541

>  <PUBCHEM_CONFORMER_RMSD>  (1) 
0.8

>  <PUBCHEM_CONFORMER_DIVERSEORDER>  (1) 
2
8
13
1
21
4
19
7
12
9
16
14
23
10
20
11
18
22
17
3
15
6
5

>  <PUBCHEM_MMFF94_PARTIAL_CHARGES>  (1) 
26
1 -0.36
11 -0.15
12 -0.15
13 -0.15
14 -0.15
15 -0.15
16 -0.15
17 -0.15
18 -0.15
19 0.08
2 -0.36
20 0.08
21 0.28
22 0.28
3 0.14
35 0.15
36 0.15
37 0.15
38 0.15
39 0.15
4 0.14
40 0.15
41 0.15
42 0.15
7 -0.14
8 -0.14

>  <PUBCHEM_EFFECTIVE_ROTOR_COUNT>  (1) 
7

>  <PUBCHEM_PHARMACOPHORE_FEATURES>  (1) 
7
1 1 acceptor
1 10 hydrophobe
1 2 acceptor
1 9 hydrophobe
4 3 4 5 6 hydrophobe
6 7 11 13 15 17 19 rings
6 8 12 14 16 18 20 rings

>  <PUBCHEM_HEAVY_ATOM_COUNT>  (1) 
22

>  <PUBCHEM_ATOM_DEF_STEREO_COUNT>  (1) 
0

>  <PUBCHEM_ATOM_UDEF_STEREO_COUNT>  (1) 
2

>  <PUBCHEM_BOND_DEF_STEREO_COUNT>  (1) 
0

>  <PUBCHEM_BOND_UDEF_STEREO_COUNT>  (1) 
0

>  <PUBCHEM_ISOTOPIC_ATOM_COUNT>  (1) 
0

>  <PUBCHEM_COMPONENT_COUNT>  (1) 
1

>  <PUBCHEM_CACTVS_TAUTO_COUNT>  (1) 
1

>  <PUBCHEM_CONFORMER_ID>  (1) 
0000215D00000002

>  <PUBCHEM_MMFF94_ENERGY>  (1) 
77.915

>  <PUBCHEM_FEATURE_SELFOVERLAP>  (1) 
35.522

>  <PUBCHEM_SHAPE_FINGERPRINT>  (1) 
10 15 16878223173633194964
10366900 7 18343016683621409666
10670039 82 18336555907102107444
10906281 52 18262814977414311633
1100329 8 18268991058269533577
11370993 70 16298383548038336275
11963148 33 18334007328821886355
12107183 9 14617739231557831327
12166972 35 17749109993754053628
12236239 1 17894909616489607632
12516196 113 18411699902618270129
12553582 1 18342446037640429453
12788726 201 18339075991109102848
12916748 109 18412266112884145340
12969540 114 18338220648540324676
13140716 1 18198617929426204187
13533116 47 18040709230757379258
13583140 156 17313107479337002040
13899415 154 18342464767497467985
13911987 19 18408876347788243277
14787075 74 18040432221860944867
14790565 3 18342744021923722265
14863182 85 18341060644110016279
14955137 171 18342745156073864049
15849732 13 17418375801239806749
15927050 60 17691691503233227404
17492 89 18046338643870474394
17980427 23 17895484634811170741
1813 80 18131077030076104701
19489759 90 15936407836206077941
200 152 17967247585438957913
20028762 73 17915737785588617399
21049683 271 17968383458682531157
21521721 280 18340492269422625544
22224240 67 18341611542601281051
23035841 295 17989205949358292718
23402539 116 18201714068260022230
23557571 272 17313103012834739245
23558518 356 17830454977379331497
23559900 14 16298672788316131989
23569943 247 17201656458230441902
23622692 88 17846495955192970397
283562 15 18342181007671976416
347723 3 9295291637930733223
34797466 226 17749117685982113966
3545911 37 16950282905815236742
4073 2 16415190235067560566
4325135 7 17458345256100472823
465052 167 18040438797566677099
469060 322 18340219500629896113
474229 33 18409729564674931806
5486654 2 18411140251173254286
57003041 33 18411979139711089844
59755656 215 17060061415054883636
59755656 520 17989485233997018143
67856867 119 15647348484053046207
7495541 125 17822014250436685617

>  <PUBCHEM_SHAPE_MULTIPOLES>  (1) 
441.01
13.48
2.01
1.31
0.19
0
-0.02
0.1
-0.44
-0.08
0.1
0.06
-0.03
0.03

>  <PUBCHEM_SHAPE_SELFOVERLAP>  (1) 
919.288

>  <PUBCHEM_SHAPE_VOLUME>  (1) 
252.2

>  <PUBCHEM_COORDINATE_TYPE>  (1) 
2
5
10

$$$$
