8542
     RDKit          3D

 28 29  0  0  0  0  0  0  0  0999 V2000
    5.9285   -1.0370    0.0900 O   0  0  0  0  0  0  0  0  0  0  0  0
   -5.9285    1.0369    0.0897 O   0  0  0  0  0  0  0  0  0  0  0  0
    6.0665    1.2972    0.0911 O   0  0  0  0  0  0  0  0  0  0  0  0
   -6.0664   -1.2973    0.0914 O   0  0  0  0  0  0  0  0  0  0  0  0
    0.3124   -0.6021    0.0900 C   0  0  0  0  0  0  0  0  0  0  0  0
   -0.3125    0.6024    0.0898 C   0  0  0  0  0  0  0  0  0  0  0  0
   -0.4069   -1.9361    0.1431 C   0  0  0  0  0  0  0  0  0  0  0  0
    0.4070    1.9363    0.1432 C   0  0  0  0  0  0  0  0  0  0  0  0
    1.7901   -0.7167    0.0899 C   0  0  0  0  0  0  0  0  0  0  0  0
   -1.7902    0.7168    0.0898 C   0  0  0  0  0  0  0  0  0  0  0  0
   -0.7339   -2.4720   -1.2448 C   0  0  0  0  0  0  0  0  0  0  0  0
    0.7346    2.4722   -1.2445 C   0  0  0  0  0  0  0  0  0  0  0  0
    2.4854   -0.7707   -1.1180 C   0  0  0  0  0  0  0  0  0  0  0  0
   -2.4855    0.7705   -1.1183 C   0  0  0  0  0  0  0  0  0  0  0  0
    2.4855   -0.7704    1.2980 C   0  0  0  0  0  0  0  0  0  0  0  0
   -2.4856    0.7708    1.2978 C   0  0  0  0  0  0  0  0  0  0  0  0
    3.8761   -0.8784   -1.1180 C   0  0  0  0  0  0  0  0  0  0  0  0
   -3.8762    0.8781   -1.1183 C   0  0  0  0  0  0  0  0  0  0  0  0
    3.8760   -0.8781    1.2980 C   0  0  0  0  0  0  0  0  0  0  0  0
   -3.8762    0.8785    1.2978 C   0  0  0  0  0  0  0  0  0  0  0  0
    4.5714   -0.9321    0.0900 C   0  0  0  0  0  0  0  0  0  0  0  0
   -4.5715    0.9320    0.0897 C   0  0  0  0  0  0  0  0  0  0  0  0
    6.6042    0.1981    0.0899 C   0  0  0  0  0  0  0  0  0  0  0  0
   -6.6042   -0.1984    0.0899 C   0  0  0  0  0  0  0  0  0  0  0  0
    8.0962   -0.0464    0.0899 C   0  0  0  0  0  0  0  0  0  0  0  0
   -8.0963    0.0461    0.0899 C   0  0  0  0  0  0  0  0  0  0  0  0
    8.8865    1.2502    0.1114 C   0  0  0  0  0  0  0  0  0  0  0  0
   -8.8864   -1.2506    0.1118 C   0  0  0  0  0  0  0  0  0  0  0  0
  1 21  1  0
  1 23  1  0
  2 22  1  0
  2 24  1  0
  3 23  2  0
  4 24  2  0
  5  6  2  0
  5  7  1  0
  5  9  1  0
  6  8  1  0
  6 10  1  0
  7 11  1  0
  8 12  1  0
  9 13  2  0
  9 15  1  0
 10 14  2  0
 10 16  1  0
 13 17  1  0
 14 18  1  0
 15 19  2  0
 16 20  2  0
 17 21  2  0
 18 22  2  0
 19 21  1  0
 20 22  1  0
 23 25  1  0
 24 26  1  0
 25 27  1  0
 26 28  1  0
M  END
>  <PUBCHEM_COMPOUND_CID>  (1) 
8542

>  <PUBCHEM_CONFORMER_RMSD>  (1) 
1

>  <PUBCHEM_CONFORMER_DIVERSEORDER>  (1) 
1
17
14
4
7
13
16
15
6
5
8
2
9
11
12
3
10

>  <PUBCHEM_MMFF94_PARTIAL_CHARGES>  (1) 
32
1 -0.23
10 0.03
13 -0.15
14 -0.15
15 -0.15
16 -0.15
17 -0.15
18 -0.15
19 -0.15
2 -0.23
20 -0.15
21 0.08
22 0.08
23 0.66
24 0.66
25 0.06
26 0.06
3 -0.57
39 0.15
4 -0.57
40 0.15
41 0.15
42 0.15
43 0.15
44 0.15
45 0.15
46 0.15
5 -0.17
6 -0.17
7 0.14
8 0.14
9 0.03

>  <PUBCHEM_EFFECTIVE_ROTOR_COUNT>  (1) 
10

>  <PUBCHEM_PHARMACOPHORE_FEATURES>  (1) 
8
1 11 hydrophobe
1 12 hydrophobe
1 27 hydrophobe
1 28 hydrophobe
1 3 acceptor
1 4 acceptor
6 10 14 16 18 20 22 rings
6 9 13 15 17 19 21 rings

>  <PUBCHEM_HEAVY_ATOM_COUNT>  (1) 
28

>  <PUBCHEM_ATOM_DEF_STEREO_COUNT>  (1) 
0

>  <PUBCHEM_ATOM_UDEF_STEREO_COUNT>  (1) 
0

>  <PUBCHEM_BOND_DEF_STEREO_COUNT>  (1) 
0

>  <PUBCHEM_BOND_UDEF_STEREO_COUNT>  (1) 
1

>  <PUBCHEM_ISOTOPIC_ATOM_COUNT>  (1) 
0

>  <PUBCHEM_COMPONENT_COUNT>  (1) 
1

>  <PUBCHEM_CACTVS_TAUTO_COUNT>  (1) 
1

>  <PUBCHEM_CONFORMER_ID>  (1) 
0000215E00000001

>  <PUBCHEM_MMFF94_ENERGY>  (1) 
80.4372

>  <PUBCHEM_FEATURE_SELFOVERLAP>  (1) 
40.598

>  <PUBCHEM_SHAPE_FINGERPRINT>  (1) 
10 15 17312823789006531484
10165383 225 17846497037651140958
10299344 5 15626222411786350599
106641 1 18410292527354609737
10674148 151 10375870762778474518
10883706 142 18410007737918784738
10930396 42 17676754471062815912
11135609 99 18339926047643387719
11315181 36 18413672397141632153
12516196 113 18260547796795231508
13914758 101 11097848584181880271
14251764 46 18131351912630833146
14849402 71 18201440324072444825
15131766 46 13697877032510408326
15728490 51 18272931652747685943
15840311 113 18260552247552443212
15849732 13 18410575088963327885
18335252 98 18202286896137661822
18608769 82 17989203776490287839
18681886 176 18342451565384665481
20105231 36 15841555184233352159
21049683 271 18334295387481996221
21150785 3 18410856568229724329
21267235 1 16773795896457853345
21365058 27 16917068854406121863
21792961 116 10447937139565521611
22224240 67 18335703827880766691
23559900 14 17203312443142367634
23569917 315 18341057311015668206
23569943 247 17625558790916427110
24771293 8 18412271609788890420
28498 318 8574716801864496608
34797466 226 16558754524894795724
4258327 124 18263374736338803556
4325135 7 18410575097547980919
59682541 35 18410855485897965987
59755656 215 8502378840682635488
6081469 158 12685091479690999655

>  <PUBCHEM_SHAPE_MULTIPOLES>  (1) 
552.75
23.45
1.94
1.16
0
0
0.02
0
-2.22
0
0.47
0
0
-0.16

>  <PUBCHEM_SHAPE_SELFOVERLAP>  (1) 
1152.805

>  <PUBCHEM_SHAPE_VOLUME>  (1) 
311.3

>  <PUBCHEM_COORDINATE_TYPE>  (1) 
2
5
10

$$$$
