8544
     RDKit          3D

 18 21  0  0  1  0  0  0  0  0999 V2000
    5.3312   -0.1211   -0.3546 O   0  0  0  0  0  0  0  0  0  0  0  0
   -0.9857    0.6946    0.1987 N   0  0  0  0  0  0  0  0  0  0  0  0
   -2.4860    0.7620    0.3294 C   0  0  0  0  0  0  0  0  0  0  0  0
   -3.1583   -0.5574    0.7311 C   0  0  0  0  0  0  0  0  0  0  0  0
   -3.1023    1.1660   -1.0164 C   0  0  0  0  0  0  0  0  0  0  0  0
   -4.0091   -0.9628   -0.4805 C   0  0  0  0  0  0  0  0  0  0  0  0
   -2.1990   -1.6349    1.1978 C   0  0  0  0  0  0  0  0  0  0  0  0
   -4.3944    0.3687   -1.1021 C   0  0  0  0  0  0  0  0  0  0  0  0
   -0.9976   -1.7189    0.2744 C   0  0  0  0  0  0  0  0  0  0  0  0
   -0.2779   -0.3945    0.1627 C   0  0  0  0  0  0  0  0  0  0  0  0
   -0.2985    2.0342    0.0626 C   0  0  0  0  0  0  0  0  0  0  0  0
    1.1999   -0.3601   -0.0051 C   0  0  0  0  0  0  0  0  0  0  0  0
    1.0475    2.0115    0.7736 C   0  0  0  0  0  0  0  0  0  0  0  0
    1.8591    0.8414    0.2968 C   0  0  0  0  0  0  0  0  0  0  0  0
    1.9274   -1.4671   -0.4489 C   0  0  0  0  0  0  0  0  0  0  0  0
    3.2514    0.9137    0.1910 C   0  0  0  0  0  0  0  0  0  0  0  0
    3.3157   -1.3801   -0.5672 C   0  0  0  0  0  0  0  0  0  0  0  0
    3.9767   -0.1954   -0.2434 C   0  0  0  0  0  0  0  0  0  0  0  0
  1 18  1  0
  2  3  1  0
  2 10  2  0
  2 11  1  0
  3  4  1  0
  3  5  1  0
  4  6  1  0
  4  7  1  0
  5  8  1  0
  6  8  1  0
  7  9  1  0
  9 10  1  0
 10 12  1  0
 11 13  1  0
 12 14  2  0
 12 15  1  0
 13 14  1  0
 14 16  1  0
 15 17  2  0
 16 18  2  0
 17 18  1  0
M  CHG  1   2   1
M  END
>  <PUBCHEM_COMPOUND_CID>  (1) 
8544

>  <PUBCHEM_CONFORMER_RMSD>  (1) 
0.6

>  <PUBCHEM_CONFORMER_DIVERSEORDER>  (1) 
1
4
2
3

>  <PUBCHEM_MMFF94_PARTIAL_CHARGES>  (1) 
17
1 -0.53
10 0.25
11 0.35
12 0.09
13 0.14
14 -0.14
15 -0.15
16 -0.15
17 -0.15
18 0.08
2 -0.09
3 0.35
35 0.15
36 0.15
37 0.15
38 0.45
9 0.06

>  <PUBCHEM_EFFECTIVE_ROTOR_COUNT>  (1) 
1.4

>  <PUBCHEM_PHARMACOPHORE_FEATURES>  (1) 
5
1 1 donor
5 3 4 5 6 8 rings
6 12 14 15 16 17 18 rings
6 2 10 11 12 13 14 rings
6 2 3 4 7 9 10 rings

>  <PUBCHEM_HEAVY_ATOM_COUNT>  (1) 
18

>  <PUBCHEM_ATOM_DEF_STEREO_COUNT>  (1) 
0

>  <PUBCHEM_ATOM_UDEF_STEREO_COUNT>  (1) 
2

>  <PUBCHEM_BOND_DEF_STEREO_COUNT>  (1) 
0

>  <PUBCHEM_BOND_UDEF_STEREO_COUNT>  (1) 
0

>  <PUBCHEM_ISOTOPIC_ATOM_COUNT>  (1) 
0

>  <PUBCHEM_COMPONENT_COUNT>  (1) 
1

>  <PUBCHEM_CACTVS_TAUTO_COUNT>  (1) 
9

>  <PUBCHEM_CONFORMER_ID>  (1) 
0000216000000001

>  <PUBCHEM_MMFF94_ENERGY>  (1) 
53.9339

>  <PUBCHEM_FEATURE_SELFOVERLAP>  (1) 
25.593

>  <PUBCHEM_SHAPE_FINGERPRINT>  (1) 
10608611 8 18336826484691596848
10967382 1 18412829101007163962
11132069 177 18340199786708284296
11471102 20 18342457067053226276
11543360 7 16950576514042923198
11680986 33 18196087965660175593
12011746 2 18411980260528658261
12032990 46 18412549820489527848
12236239 1 16343986913776149430
12403259 415 18334850645686430293
124424 183 18335421283224895818
12500047 106 17967247607051145939
13464514 151 18119802509507255445
13583140 156 16443071598857718689
13760787 19 17312818282019681946
13862211 1 18343580720956196686
14115302 16 18114189648064112124
14289901 80 13973970912776207574
14386348 63 18411421721607006322
14790565 3 17620481207564619249
14911166 2 18408881832693542693
15163728 17 15938350583823073127
15196674 1 18411982481111262944
15219456 202 18338797917656319272
15375358 24 18410570699818013418
15848700 24 18272646848923082404
15848702 151 17632587019437373718
16945 1 18271812370757387097
17357779 13 18410846659930473053
18186145 218 18334848395118065133
19862831 5 18259703380496965811
200 152 17703788119929582703
20201158 50 18411984658580606258
20279233 1 18409171012788945250
20645476 183 16805322210641306907
20645477 70 18202284701852115206
20871999 31 18334010562662273253
21029758 11 18343862212405953345
21249577 43 18409730681218410971
21267235 1 18341343252883927590
221357 26 18340757183717670805
221490 88 18267867374697970323
23402539 116 18342735183096492780
23402655 69 18342735174490824989
23493267 7 17603584131963874745
23559900 14 18336547119366813234
25 1 18190171305208390789
2748010 2 18195245748332638672
2871803 45 18411139100332931142
3286 77 16845564322873823787
34934 24 18411693301322133794
4028521 119 18260823778941027663
4175511 318 17313101934671379623
5104073 3 18340489976305508058
69090 78 18342454867808749551
7364860 26 18198062684423085552
8809292 202 18261680375465806147
9709674 26 18341339885814236054

>  <PUBCHEM_SHAPE_MULTIPOLES>  (1) 
359.58
8.35
1.95
0.96
2.74
0.24
0
-1.01
-2.23
-0.05
0.24
-0.64
-0.04
0.92

>  <PUBCHEM_SHAPE_SELFOVERLAP>  (1) 
788.584

>  <PUBCHEM_SHAPE_VOLUME>  (1) 
195.6

>  <PUBCHEM_COORDINATE_TYPE>  (1) 
2
5
10

$$$$
