8546
     RDKit          3D

 29 32  0  0  0  0  0  0  0  0999 V2000
    0.2094    1.8165   -0.0718 O   0  0  0  0  0  0  0  0  0  0  0  0
    1.9235    1.2957   -2.1248 O   0  0  0  0  0  0  0  0  0  0  0  0
   -2.9430    3.7942    1.5797 O   0  0  0  0  0  0  0  0  0  0  0  0
    5.1909    1.6047    0.2845 O   0  0  0  0  0  0  0  0  0  0  0  0
   -0.7463    3.3623    1.9731 O   0  0  0  0  0  0  0  0  0  0  0  0
    4.5985    1.8226   -1.8991 O   0  0  0  0  0  0  0  0  0  0  0  0
   -0.1383   -0.5026   -1.5818 C   0  0  0  0  0  0  0  0  0  0  0  0
   -1.2707    0.0817   -0.7905 C   0  0  0  0  0  0  0  0  0  0  0  0
    1.1668   -0.5605   -0.8206 C   0  0  0  0  0  0  0  0  0  0  0  0
   -2.5402   -0.5191   -0.7846 C   0  0  0  0  0  0  0  0  0  0  0  0
    1.3717   -1.5192    0.1765 C   0  0  0  0  0  0  0  0  0  0  0  0
   -3.5795    0.0669   -0.0234 C   0  0  0  0  0  0  0  0  0  0  0  0
    2.6089   -1.5363    0.8633 C   0  0  0  0  0  0  0  0  0  0  0  0
   -1.0294    1.2435   -0.0566 C   0  0  0  0  0  0  0  0  0  0  0  0
    2.1466    0.3690   -1.1477 C   0  0  0  0  0  0  0  0  0  0  0  0
   -2.0514    1.8195    0.6921 C   0  0  0  0  0  0  0  0  0  0  0  0
    3.3634    0.3518   -0.4724 C   0  0  0  0  0  0  0  0  0  0  0  0
   -3.3186    1.2363    0.7095 C   0  0  0  0  0  0  0  0  0  0  0  0
    3.5945   -0.5941    0.5269 C   0  0  0  0  0  0  0  0  0  0  0  0
   -2.8010   -1.6885   -1.5173 C   0  0  0  0  0  0  0  0  0  0  0  0
    0.3863   -2.4618    0.5129 C   0  0  0  0  0  0  0  0  0  0  0  0
   -4.8490   -0.5336   -0.0174 C   0  0  0  0  0  0  0  0  0  0  0  0
    2.8243   -2.4953    1.8663 C   0  0  0  0  0  0  0  0  0  0  0  0
   -4.0684   -2.2715   -1.5000 C   0  0  0  0  0  0  0  0  0  0  0  0
    0.6175   -3.4073    1.5123 C   0  0  0  0  0  0  0  0  0  0  0  0
   -5.0905   -1.6951   -0.7515 C   0  0  0  0  0  0  0  0  0  0  0  0
    1.8341   -3.4241    2.1879 C   0  0  0  0  0  0  0  0  0  0  0  0
   -1.8218    3.0322    1.4659 C   0  0  0  0  0  0  0  0  0  0  0  0
    4.4114    1.3121   -0.7913 C   0  0  0  0  0  0  0  0  0  0  0  0
  1 14  1  0
  2 15  1  0
  3 28  1  0
  4 29  1  0
  5 28  2  0
  6 29  2  0
  7  8  1  0
  7  9  1  0
  8 10  1  0
  8 14  2  0
  9 11  1  0
  9 15  2  0
 10 12  2  0
 10 20  1  0
 11 13  2  0
 11 21  1  0
 12 18  1  0
 12 22  1  0
 13 19  1  0
 13 23  1  0
 14 16  1  0
 15 17  1  0
 16 18  2  0
 16 28  1  0
 17 19  2  0
 17 29  1  0
 20 24  2  0
 21 25  2  0
 22 26  2  0
 23 27  2  0
 24 26  1  0
 25 27  1  0
M  END
>  <PUBCHEM_COMPOUND_CID>  (1) 
8546

>  <PUBCHEM_CONFORMER_RMSD>  (1) 
0.8

>  <PUBCHEM_CONFORMER_DIVERSEORDER>  (1) 
1
4
10
5
6
7
9
2
3
8

>  <PUBCHEM_MMFF94_PARTIAL_CHARGES>  (1) 
39
1 -0.53
14 0.08
15 0.08
16 0.09
17 0.09
18 -0.15
19 -0.15
2 -0.53
20 -0.15
21 -0.15
22 -0.15
23 -0.15
24 -0.15
25 -0.15
26 -0.15
27 -0.15
28 0.63
29 0.63
3 -0.65
32 0.15
33 0.15
34 0.15
35 0.15
36 0.15
37 0.15
38 0.15
39 0.15
4 -0.65
40 0.15
41 0.15
42 0.45
43 0.45
44 0.5
45 0.5
5 -0.57
6 -0.57
7 0.29
8 -0.14
9 -0.14

>  <PUBCHEM_EFFECTIVE_ROTOR_COUNT>  (1) 
4

>  <PUBCHEM_PHARMACOPHORE_FEATURES>  (1) 
12
1 1 donor
1 2 donor
1 3 acceptor
1 4 acceptor
1 5 acceptor
1 6 acceptor
3 3 5 28 anion
3 4 6 29 anion
6 10 12 20 22 24 26 rings
6 11 13 21 23 25 27 rings
6 8 10 12 14 16 18 rings
6 9 11 13 15 17 19 rings

>  <PUBCHEM_HEAVY_ATOM_COUNT>  (1) 
29

>  <PUBCHEM_ATOM_DEF_STEREO_COUNT>  (1) 
0

>  <PUBCHEM_ATOM_UDEF_STEREO_COUNT>  (1) 
0

>  <PUBCHEM_BOND_DEF_STEREO_COUNT>  (1) 
0

>  <PUBCHEM_BOND_UDEF_STEREO_COUNT>  (1) 
0

>  <PUBCHEM_ISOTOPIC_ATOM_COUNT>  (1) 
0

>  <PUBCHEM_COMPONENT_COUNT>  (1) 
1

>  <PUBCHEM_CACTVS_TAUTO_COUNT>  (1) 
7

>  <PUBCHEM_CONFORMER_ID>  (1) 
0000216200000001

>  <PUBCHEM_MMFF94_ENERGY>  (1) 
114.304

>  <PUBCHEM_FEATURE_SELFOVERLAP>  (1) 
61.07

>  <PUBCHEM_SHAPE_FINGERPRINT>  (1) 
10090160 65 18040992985755100998
10940486 97 17695067699942211158
1100329 8 18046344403526463422
11007060 377 18189067528989865740
11421498 54 18411980277824903195
11578080 2 18118932915821252269
11640471 11 18266752289518779104
11763715 3 17627185144596264390
12107698 1 18059578040064884940
12160290 23 17416395464649604585
12236239 1 18410011065294605943
12553582 1 18131062775585662047
12788726 201 18343867701880131129
13009979 54 18195232339613903170
133893 2 17458915808009052782
13583140 156 17752785540724277337
13726171 33 17703801292531672288
13911987 19 17386580196379453780
13965767 371 17834132852275298308
14178342 30 17908971128499902659
14341114 328 18412825793750477219
14787075 74 18267018538772849228
17138139 8 18049149270379435943
18681886 176 17487612159825213999
19319366 153 18262229040479956559
20511986 3 18336815421414953253
20642791 35 18059289972160270769
20691752 17 18120636170647911429
20715895 44 17616239296642756973
20739085 24 17822579296407851390
21033650 10 17983612738652006732
21133410 230 16388753852077382352
21421861 104 18264496083422134603
21792964 463 17896341159202648669
21814621 53 16878791462389201185
23569917 315 18114179791869639970
23598288 3 18200298928133795647
238918 7 15890237522153933099
34934 24 18272373066564900735
3797600 57 18201431459237923978
392239 28 18339360897748352290
4409770 3 15025527740919185517
469060 322 18186523228195741509
474 4 18113339730129362294
6287921 2 18196646302914315954
7097593 13 17760644772155448202

>  <PUBCHEM_SHAPE_MULTIPOLES>  (1) 
561.59
8.96
4.11
1.95
0.48
0.33
-0.2
0.48
1.9
0.17
-3.02
-0.43
0.11
-4.24

>  <PUBCHEM_SHAPE_SELFOVERLAP>  (1) 
1277.101

>  <PUBCHEM_SHAPE_VOLUME>  (1) 
290.4

>  <PUBCHEM_COORDINATE_TYPE>  (1) 
2
5
10

$$$$
