855
     RDKit          3D

  5  4  0  0  1  0  0  0  0  0999 V2000
   -0.4664   -1.3421    0.0753 O   0  0  0  0  0  0  0  0  0  0  0  0
    1.7836    0.0319    0.2903 O   0  0  0  0  0  0  0  0  0  0  0  0
   -0.5336   -0.0198   -0.4315 C   0  0  0  0  0  0  0  0  0  0  0  0
   -1.6188    0.7352    0.3130 C   0  0  0  0  0  0  0  0  0  0  0  0
    0.8352    0.5947   -0.2471 C   0  0  0  0  0  0  0  0  0  0  0  0
  1  3  1  0
  2  5  2  0
  3  4  1  0
  3  5  1  0
M  END
>  <PUBCHEM_COMPOUND_CID>  (1) 
855

>  <PUBCHEM_CONFORMER_RMSD>  (1) 
0.4

>  <PUBCHEM_CONFORMER_DIVERSEORDER>  (1) 
1
2
3

>  <PUBCHEM_MMFF94_PARTIAL_CHARGES>  (1) 
6
1 -0.68
10 0.06
11 0.4
2 -0.57
3 0.34
5 0.45

>  <PUBCHEM_EFFECTIVE_ROTOR_COUNT>  (1) 
1

>  <PUBCHEM_PHARMACOPHORE_FEATURES>  (1) 
3
1 1 acceptor
1 1 donor
1 2 acceptor

>  <PUBCHEM_HEAVY_ATOM_COUNT>  (1) 
5

>  <PUBCHEM_ATOM_DEF_STEREO_COUNT>  (1) 
0

>  <PUBCHEM_ATOM_UDEF_STEREO_COUNT>  (1) 
1

>  <PUBCHEM_BOND_DEF_STEREO_COUNT>  (1) 
0

>  <PUBCHEM_BOND_UDEF_STEREO_COUNT>  (1) 
0

>  <PUBCHEM_ISOTOPIC_ATOM_COUNT>  (1) 
0

>  <PUBCHEM_COMPONENT_COUNT>  (1) 
1

>  <PUBCHEM_CACTVS_TAUTO_COUNT>  (1) 
4

>  <PUBCHEM_CONFORMER_ID>  (1) 
0000035700000001

>  <PUBCHEM_MMFF94_ENERGY>  (1) 
-0.458

>  <PUBCHEM_FEATURE_SELFOVERLAP>  (1) 
15.232

>  <PUBCHEM_SHAPE_FINGERPRINT>  (1) 
139733 1 9725710870645082223
16714656 1 18261404303789867436
20096714 4 18343022159736554825
21015797 1 10012824108660028613
21040471 1 18340212903264170957
29004967 10 15574716893532476444
5943 1 15115626009606715327

>  <PUBCHEM_SHAPE_MULTIPOLES>  (1) 
91.16
1.93
1.06
0.67
0.22
0.31
0.03
-0.44
-0.3
-0.2
-0.04
-0.03
-0.04
-0.08

>  <PUBCHEM_SHAPE_SELFOVERLAP>  (1) 
159.487

>  <PUBCHEM_SHAPE_VOLUME>  (1) 
60.3

>  <PUBCHEM_COORDINATE_TYPE>  (1) 
2
5
10

$$$$
