8550
     RDKit          3D

 42 47  0  0  1  0  0  0  0  0999 V2000
   -1.1679   -3.0195    0.5414 O   0  0  0  0  0  0  0  0  0  0  0  0
   -2.3197   -0.4163    0.4800 O   0  0  0  0  0  0  0  0  0  0  0  0
    2.9589   -3.3833    0.2473 O   0  0  0  0  0  0  0  0  0  0  0  0
    1.1108   -3.7456   -1.0906 O   0  0  0  0  0  0  0  0  0  0  0  0
   -3.0904    0.2195    2.5538 O   0  0  0  0  0  0  0  0  0  0  0  0
   -5.7607    1.2555   -2.6413 O   0  0  0  0  0  0  0  0  0  0  0  0
   -8.1257    0.2094    1.3896 O   0  0  0  0  0  0  0  0  0  0  0  0
   -8.1522    0.9628   -1.2754 O   0  0  0  0  0  0  0  0  0  0  0  0
    2.3505    2.0702   -0.0274 N   0  0  0  0  0  0  0  0  0  0  0  0
    5.2412   -0.1350   -0.9973 N   0  0  0  0  0  0  0  0  0  0  0  0
    1.9166   -0.7946    0.5790 C   0  0  0  0  0  0  0  0  0  0  0  0
    1.2624    0.3252    1.4113 C   0  0  0  0  0  0  0  0  0  0  0  0
    2.1772   -0.2946   -0.8560 C   0  0  0  0  0  0  0  0  0  0  0  0
    1.0576   -2.0751    0.6475 C   0  0  0  0  0  0  0  0  0  0  0  0
    2.9559    1.0308   -0.9056 C   0  0  0  0  0  0  0  0  0  0  0  0
    2.1118    1.6032    1.3468 C   0  0  0  0  0  0  0  0  0  0  0  0
   -0.1900    0.5820    0.9809 C   0  0  0  0  0  0  0  0  0  0  0  0
   -0.4041   -1.8455    0.2424 C   0  0  0  0  0  0  0  0  0  0  0  0
   -1.0312   -0.6916    1.0302 C   0  0  0  0  0  0  0  0  0  0  0  0
    4.4293    0.9043   -0.6407 C   0  0  0  0  0  0  0  0  0  0  0  0
    3.1594    3.3144   -0.0389 C   0  0  0  0  0  0  0  0  0  0  0  0
    4.6187    3.1496    0.4538 C   0  0  0  0  0  0  0  0  0  0  0  0
    5.2095    1.8759   -0.0465 C   0  0  0  0  0  0  0  0  0  0  0  0
    1.6828   -3.1628   -0.1794 C   0  0  0  0  0  0  0  0  0  0  0  0
    6.5464    1.3957   -0.0118 C   0  0  0  0  0  0  0  0  0  0  0  0
    6.5384    0.1330   -0.6137 C   0  0  0  0  0  0  0  0  0  0  0  0
   -2.3738   -3.0477   -0.2027 C   0  0  0  0  0  0  0  0  0  0  0  0
    7.7670    1.9082    0.4715 C   0  0  0  0  0  0  0  0  0  0  0  0
   -3.2542    0.0338    1.3580 C   0  0  0  0  0  0  0  0  0  0  0  0
    7.6959   -0.6403   -0.7566 C   0  0  0  0  0  0  0  0  0  0  0  0
    8.9312    1.1439    0.3355 C   0  0  0  0  0  0  0  0  0  0  0  0
    3.6758   -4.4016   -0.4579 C   0  0  0  0  0  0  0  0  0  0  0  0
    8.8940   -0.1104   -0.2696 C   0  0  0  0  0  0  0  0  0  0  0  0
   -4.5440    0.2800    0.6648 C   0  0  0  0  0  0  0  0  0  0  0  0
   -5.7465    0.1305    1.3554 C   0  0  0  0  0  0  0  0  0  0  0  0
   -4.5533    0.6583   -0.6778 C   0  0  0  0  0  0  0  0  0  0  0  0
   -5.7651    0.8870   -1.3297 C   0  0  0  0  0  0  0  0  0  0  0  0
   -6.9583    0.3592    0.7036 C   0  0  0  0  0  0  0  0  0  0  0  0
   -6.9676    0.7374   -0.6389 C   0  0  0  0  0  0  0  0  0  0  0  0
   -4.4889    1.3861   -3.2734 C   0  0  0  0  0  0  0  0  0  0  0  0
   -8.6359    1.3603    2.0599 C   0  0  0  0  0  0  0  0  0  0  0  0
   -8.7619   -0.1524   -1.9213 C   0  0  0  0  0  0  0  0  0  0  0  0
  1 18  1  0
  1 27  1  0
  2 19  1  0
  2 29  1  0
  3 24  1  0
  3 32  1  0
  4 24  2  0
  5 29  2  0
  6 37  1  0
  6 40  1  0
  7 38  1  0
  7 41  1  0
  8 39  1  0
  8 42  1  0
  9 15  1  0
  9 16  1  0
  9 21  1  0
 10 20  1  0
 10 26  1  0
 11 12  1  0
 11 13  1  0
 11 14  1  0
 12 16  1  0
 12 17  1  0
 13 15  1  0
 14 18  1  0
 14 24  1  0
 15 20  1  0
 17 19  1  0
 18 19  1  0
 20 23  2  0
 21 22  1  0
 22 23  1  0
 23 25  1  0
 25 26  2  0
 25 28  1  0
 26 30  1  0
 28 31  2  0
 29 34  1  0
 30 33  2  0
 31 33  1  0
 34 35  2  0
 34 36  1  0
 35 38  1  0
 36 37  2  0
 37 39  1  0
 38 39  2  0
M  END
>  <PUBCHEM_COMPOUND_CID>  (1) 
8550

>  <PUBCHEM_CONFORMER_RMSD>  (1) 
1.2

>  <PUBCHEM_CONFORMER_DIVERSEORDER>  (1) 
1
4
25
6
19
28
26
27
32
30
15
8
5
13
29
10
23
20
17
14
24
21
18
22
31
3
9
7
2
11
16
12

>  <PUBCHEM_MMFF94_PARTIAL_CHARGES>  (1) 
44
1 -0.56
10 0.03
14 0.06
15 0.45
16 0.27
18 0.28
19 0.28
2 -0.43
20 -0.33
21 0.27
22 0.18
23 -0.18
24 0.66
26 -0.15
27 0.28
28 -0.15
29 0.63
3 -0.43
30 -0.15
31 -0.15
32 0.28
33 -0.15
34 0.09
35 -0.15
36 -0.15
37 0.08
38 0.08
39 0.08
4 -0.57
40 0.28
41 0.28
42 0.28
5 -0.57
59 0.27
6 -0.36
63 0.15
64 0.15
65 0.15
69 0.15
7 -0.36
70 0.15
71 0.15
8 -0.36
9 -0.81

>  <PUBCHEM_EFFECTIVE_ROTOR_COUNT>  (1) 
10.6

>  <PUBCHEM_PHARMACOPHORE_FEATURES>  (1) 
15
1 1 acceptor
1 10 cation
1 10 donor
1 4 acceptor
1 5 acceptor
1 6 acceptor
1 7 acceptor
1 8 acceptor
1 9 cation
5 10 20 23 25 26 rings
6 11 12 14 17 18 19 rings
6 25 26 28 30 31 33 rings
6 34 35 36 37 38 39 rings
6 9 11 12 13 15 16 rings
6 9 15 20 21 22 23 rings

>  <PUBCHEM_HEAVY_ATOM_COUNT>  (1) 
42

>  <PUBCHEM_ATOM_DEF_STEREO_COUNT>  (1) 
6

>  <PUBCHEM_ATOM_UDEF_STEREO_COUNT>  (1) 
0

>  <PUBCHEM_BOND_DEF_STEREO_COUNT>  (1) 
0

>  <PUBCHEM_BOND_UDEF_STEREO_COUNT>  (1) 
0

>  <PUBCHEM_ISOTOPIC_ATOM_COUNT>  (1) 
0

>  <PUBCHEM_COMPONENT_COUNT>  (1) 
1

>  <PUBCHEM_CACTVS_TAUTO_COUNT>  (1) 
1

>  <PUBCHEM_CONFORMER_ID>  (1) 
0000216600000001

>  <PUBCHEM_MMFF94_ENERGY>  (1) 
145.4794

>  <PUBCHEM_FEATURE_SELFOVERLAP>  (1) 
76.442

>  <PUBCHEM_SHAPE_FINGERPRINT>  (1) 
10674148 151 15698002942797255139
11135926 11 18342181068122986019
11297010 23 18342172267624409150
12098696 120 18335419066863391937
12144603 126 17632304424254882097
12373685 5 16989128643583515086
12664476 115 17967534575950670941
12838862 33 18412537726800599920
13150687 139 18201729448744228870
13811026 1 18272657883068742262
14068700 675 15841555188512976233
14117953 113 18341060666618151916
14150023 79 18260829285026479978
15183329 4 18413668015209477024
15289351 153 18261385603929782064
15328829 1 17561076990806217646
16664035 1 18341898485725740872
19315958 150 18341619265875541384
19611394 137 16082233929596413321
19841028 212 13398369936249639820
21859007 373 18113888382548755140
22121540 332 17677318408288510166
22311459 1 18412268328934549328
24893992 56 18337115660987606195
249057 3 18410859893246840584
25269216 80 16415190201187571327
3178227 256 18408608071879379556
335352 9 18412552029010241732
397638 26 18187085095785106368
5028188 123 14273750572763208362
59521660 218 18337107865306101706
6086070 43 18200306740415452626
6523845 18 18334007315872589437
99344 41 18342745139068399506
9962374 69 8862650262658650577

>  <PUBCHEM_SHAPE_MULTIPOLES>  (1) 
807.42
27.05
3.65
1.88
13.38
4.05
-0.73
-14.34
-4.06
-5.12
-0.32
4.98
-0.76
1.17

>  <PUBCHEM_SHAPE_SELFOVERLAP>  (1) 
1760.526

>  <PUBCHEM_SHAPE_VOLUME>  (1) 
434.5

>  <PUBCHEM_COORDINATE_TYPE>  (1) 
2
5
10

$$$$
