8553
     RDKit          3D

 17 19  0  0  0  0  0  0  0  0999 V2000
    4.9975    0.9927    0.0008 Cl  0  0  0  0  0  0  0  0  0  0  0  0
   -0.0584    2.5982   -0.0008 O   0  0  0  0  0  0  0  0  0  0  0  0
   -0.5667   -2.7222    0.0005 O   0  0  0  0  0  0  0  0  0  0  0  0
    1.0214    0.5119   -0.0003 C   0  0  0  0  0  0  0  0  0  0  0  0
    0.8885   -0.8782   -0.0007 C   0  0  0  0  0  0  0  0  0  0  0  0
   -1.5131    0.7541   -0.0003 C   0  0  0  0  0  0  0  0  0  0  0  0
   -1.6460   -0.6360   -0.0004 C   0  0  0  0  0  0  0  0  0  0  0  0
   -0.1746    1.3789   -0.0005 C   0  0  0  0  0  0  0  0  0  0  0  0
   -0.4501   -1.5029   -0.0004 C   0  0  0  0  0  0  0  0  0  0  0  0
    2.2959    1.0914    0.0004 C   0  0  0  0  0  0  0  0  0  0  0  0
    2.0300   -1.6888   -0.0006 C   0  0  0  0  0  0  0  0  0  0  0  0
   -2.6547    1.5647    0.0001 C   0  0  0  0  0  0  0  0  0  0  0  0
   -2.9204   -1.2155    0.0000 C   0  0  0  0  0  0  0  0  0  0  0  0
    3.4308    0.2799    0.0006 C   0  0  0  0  0  0  0  0  0  0  0  0
    3.2981   -1.1072    0.0001 C   0  0  0  0  0  0  0  0  0  0  0  0
   -3.9228    0.9831    0.0007 C   0  0  0  0  0  0  0  0  0  0  0  0
   -4.0554   -0.4041    0.0007 C   0  0  0  0  0  0  0  0  0  0  0  0
  1 14  1  0
  2  8  2  0
  3  9  2  0
  4  5  2  0
  4  8  1  0
  4 10  1  0
  5  9  1  0
  5 11  1  0
  6  7  2  0
  6  8  1  0
  6 12  1  0
  7  9  1  0
  7 13  1  0
 10 14  2  0
 11 15  2  0
 12 16  2  0
 13 17  2  0
 14 15  1  0
 16 17  1  0
M  END
>  <PUBCHEM_COMPOUND_CID>  (1) 
8553

>  <PUBCHEM_CONFORMER_RMSD>  (1) 
0.4

>  <PUBCHEM_CONFORMER_DIVERSEORDER>  (1) 
1

>  <PUBCHEM_MMFF94_PARTIAL_CHARGES>  (1) 
24
1 -0.18
10 -0.15
11 -0.15
12 -0.15
13 -0.15
14 0.18
15 -0.15
16 -0.15
17 -0.15
18 0.15
19 0.15
2 -0.57
20 0.15
21 0.15
22 0.15
23 0.15
24 0.15
3 -0.57
4 0.09
5 0.09
6 0.09
7 0.09
8 0.4
9 0.4

>  <PUBCHEM_EFFECTIVE_ROTOR_COUNT>  (1) 
0

>  <PUBCHEM_PHARMACOPHORE_FEATURES>  (1) 
5
1 2 acceptor
1 3 acceptor
6 4 5 10 11 14 15 rings
6 4 5 6 7 8 9 rings
6 6 7 12 13 16 17 rings

>  <PUBCHEM_HEAVY_ATOM_COUNT>  (1) 
17

>  <PUBCHEM_ATOM_DEF_STEREO_COUNT>  (1) 
0

>  <PUBCHEM_ATOM_UDEF_STEREO_COUNT>  (1) 
0

>  <PUBCHEM_BOND_DEF_STEREO_COUNT>  (1) 
0

>  <PUBCHEM_BOND_UDEF_STEREO_COUNT>  (1) 
0

>  <PUBCHEM_ISOTOPIC_ATOM_COUNT>  (1) 
0

>  <PUBCHEM_COMPONENT_COUNT>  (1) 
1

>  <PUBCHEM_CACTVS_TAUTO_COUNT>  (1) 
1

>  <PUBCHEM_CONFORMER_ID>  (1) 
0000216900000001

>  <PUBCHEM_MMFF94_ENERGY>  (1) 
48.5555

>  <PUBCHEM_FEATURE_SELFOVERLAP>  (1) 
25.414

>  <PUBCHEM_SHAPE_FINGERPRINT>  (1) 
10411042 1 17185596257330205290
10608611 8 18410853231045689269
10967382 1 18410575054598366310
11132069 177 18411695469847783321
11471102 20 18410569565651222222
11680986 33 17979069710638938793
11806522 49 18411133680068405367
12011746 2 18411980282003592148
12032990 46 18410862040208138727
12403814 3 17530959202552557348
13132413 78 18411982489611793332
13140716 1 18265901246096668419
13214271 11 18412542136782531407
13221675 6 18410574002384210782
13380535 76 18411419522758064438
14790565 3 18410867572010673016
15196674 1 18410855434358429479
15309172 13 18411708668588395091
15442244 35 18122343476130417250
15536298 74 18342458106324594158
16945 1 18194683893669568263
18186145 218 18340209574638006508
193761 8 17834394896972110885
19591789 44 18410575067499670595
200 152 18131060546560724397
20510252 161 18272090457073732976
21029758 11 18343297102305567049
21029758 27 18187653560487247173
21267235 1 18410583893662433326
21501502 16 18267584615420289914
2334 1 18410856559866688355
23402539 116 18343012315724084846
23402655 69 18343015562941017061
23463225 33 18408604729766608021
23559900 14 18342740659855203870
2748010 2 18410576158615997063
335352 9 17906170650934780151
34934 24 18410287008326941543
350125 39 18338240474563374689
43471831 8 18263079933440607611
474 4 17168996758544475876
5104073 3 18410012100402713202
528886 8 18411132515631043323
537710 114 18410016541388626220
53812653 166 18342453755200983104
54173680 148 18120657100102964883
69090 78 18413385449279379174
7364860 26 18197214960747086545
8809292 202 18260554437278830155
9709674 26 18412269445251798550

>  <PUBCHEM_SHAPE_MULTIPOLES>  (1) 
339.98
7.51
2.29
0.61
2.64
0.26
0
-1.47
0
-0.19
0
0.02
0
0

>  <PUBCHEM_SHAPE_SELFOVERLAP>  (1) 
759.86

>  <PUBCHEM_SHAPE_VOLUME>  (1) 
182

>  <PUBCHEM_COORDINATE_TYPE>  (1) 
2
5
10

$$$$
