8573
     RDKit          3D

 18 18  0  0  1  0  0  0  0  0999 V2000
    1.0532   -0.0243   -0.4426 O   0  0  0  0  0  0  0  0  0  0  0  0
    0.6109    0.0348    1.8157 O   0  0  0  0  0  0  0  0  0  0  0  0
   -2.5993    2.4596   -0.8074 O   0  0  0  0  0  0  0  0  0  0  0  0
   -1.0179    2.3080    0.8184 O   0  0  0  0  0  0  0  0  0  0  0  0
    2.4004    0.3992   -0.1985 C   0  0  0  0  0  0  0  0  0  0  0  0
    3.1044    0.5133   -1.5649 C   0  0  0  0  0  0  0  0  0  0  0  0
    2.3084    1.7438    0.5237 C   0  0  0  0  0  0  0  0  0  0  0  0
    3.0879   -0.7500   -2.4162 C   0  0  0  0  0  0  0  0  0  0  0  0
   -1.0902   -0.6061    0.2729 C   0  0  0  0  0  0  0  0  0  0  0  0
    0.2736   -0.1641    0.6590 C   0  0  0  0  0  0  0  0  0  0  0  0
    3.0585   -0.5989    0.6663 C   0  0  0  0  0  0  0  0  0  0  0  0
   -2.0719    0.3242   -0.0048 C   0  0  0  0  0  0  0  0  0  0  0  0
   -1.3295   -1.9653    0.2045 C   0  0  0  0  0  0  0  0  0  0  0  0
   -3.3436   -0.1212   -0.3653 C   0  0  0  0  0  0  0  0  0  0  0  0
   -2.6012   -2.4106   -0.1560 C   0  0  0  0  0  0  0  0  0  0  0  0
   -3.6083   -1.4885   -0.4409 C   0  0  0  0  0  0  0  0  0  0  0  0
   -1.8267    1.7588    0.0657 C   0  0  0  0  0  0  0  0  0  0  0  0
    3.5912   -1.4128    1.3703 C   0  0  0  0  0  0  0  0  0  0  0  0
  1  5  1  0
  1 10  1  0
  2 10  2  0
  3 17  1  0
  4 17  2  0
  5  6  1  0
  5  7  1  0
  5 11  1  0
  6  8  1  0
  9 10  1  0
  9 12  2  0
  9 13  1  0
 11 18  3  0
 12 14  1  0
 12 17  1  0
 13 15  2  0
 14 16  2  0
 15 16  1  0
M  END
>  <PUBCHEM_COMPOUND_CID>  (1) 
8573

>  <PUBCHEM_CONFORMER_RMSD>  (1) 
0.6

>  <PUBCHEM_CONFORMER_DIVERSEORDER>  (1) 
8
90
23
62
72
96
46
87
48
93
61
68
97
83
81
85
67
80
63
60
89
59
70
56
84
82
79
71
92
86
47
94
75
98
69
31
76
44
64
51
77
41
74
49
50
27
52
40
42
54
91
14
28
45
36
53
66
34
25
65
16
38
29
26
57
6
12
58
43
88
20
78
19
15
3
39
32
30
2
9
35
37
33
7
13
55
17
11
24
18
73
22
1
21
5
4
95
10

>  <PUBCHEM_MMFF94_PARTIAL_CHARGES>  (1) 
21
1 -0.43
10 0.63
11 -0.2
12 0.09
13 -0.15
14 -0.15
15 -0.15
16 -0.15
17 0.63
18 -0.18
2 -0.57
27 0.15
28 0.15
29 0.15
3 -0.65
30 0.15
31 0.18
32 0.5
4 -0.57
5 0.48
9 0.09

>  <PUBCHEM_EFFECTIVE_ROTOR_COUNT>  (1) 
5

>  <PUBCHEM_PHARMACOPHORE_FEATURES>  (1) 
7
1 18 hydrophobe
1 2 acceptor
1 3 acceptor
1 4 acceptor
1 8 hydrophobe
3 3 4 17 anion
6 9 12 13 14 15 16 rings

>  <PUBCHEM_HEAVY_ATOM_COUNT>  (1) 
18

>  <PUBCHEM_ATOM_DEF_STEREO_COUNT>  (1) 
0

>  <PUBCHEM_ATOM_UDEF_STEREO_COUNT>  (1) 
1

>  <PUBCHEM_BOND_DEF_STEREO_COUNT>  (1) 
0

>  <PUBCHEM_BOND_UDEF_STEREO_COUNT>  (1) 
0

>  <PUBCHEM_ISOTOPIC_ATOM_COUNT>  (1) 
0

>  <PUBCHEM_COMPONENT_COUNT>  (1) 
1

>  <PUBCHEM_CACTVS_TAUTO_COUNT>  (1) 
1

>  <PUBCHEM_CONFORMER_ID>  (1) 
0000217D00000008

>  <PUBCHEM_MMFF94_ENERGY>  (1) 
57.0594

>  <PUBCHEM_FEATURE_SELFOVERLAP>  (1) 
35.58

>  <PUBCHEM_SHAPE_FINGERPRINT>  (1) 
11578080 2 17461963748725591980
11582403 64 15972366101509835312
12202030 40 17346609568512666950
12932764 1 18336558182621961944
13296908 3 16917074343120753766
15342816 4 18196085779580221023
15442244 35 18261663771486106674
16752209 62 18335968793113701315
16945 1 18342463599239508739
18186145 218 18273502251457125281
19049666 15 17559679442918737018
19862831 5 17749099015411202739
19868273 293 18334298617338775813
21524375 3 17898850141525602961
2255824 54 17095517397060959202
22802520 49 18131360703911988461
23184049 29 18411693314006250946
23402539 116 18270099263248740023
23557571 272 18201718474659448304
23559900 14 18341600530399644584
23598291 2 17822575997678055294
2748010 2 17978496865613435419
3082319 5 18041002855811525678
312423 11 17967260771025584018
5262128 65 18122936314808770244
6992083 37 17970624082848126904
74978 22 18409450254593600072
7615 1 18040435482094270716
77492 1 17821726126296550451
8030462 33 18041006175836900778
81228 2 18339653320876365841
84936 31 16842757428670960625
9709674 26 18341891887706394966
9981440 41 17390793624070225624

>  <PUBCHEM_SHAPE_MULTIPOLES>  (1) 
346.95
6.58
2.36
1.5
0.92
0.65
-0.55
-1.78
-1.42
-1.75
0.13
1.92
-0.25
-0.18

>  <PUBCHEM_SHAPE_SELFOVERLAP>  (1) 
728.417

>  <PUBCHEM_SHAPE_VOLUME>  (1) 
195

>  <PUBCHEM_COORDINATE_TYPE>  (1) 
2
5
10

$$$$
