8579
     RDKit          3D

 20 21  0  0  0  0  0  0  0  0999 V2000
    0.8125   -1.6110    0.0718 O   0  0  0  0  0  0  0  0  0  0  0  0
   -1.7709   -1.8132    0.5024 O   0  0  0  0  0  0  0  0  0  0  0  0
   -3.0037   -0.4005   -0.8636 N   0  0  0  0  0  0  0  0  0  0  0  0
   -5.1762   -0.8806    0.1906 C   0  0  0  0  0  0  0  0  0  0  0  0
   -4.1886   -1.2106   -0.9238 C   0  0  0  0  0  0  0  0  0  0  0  0
   -5.6698    0.5667    0.1293 C   0  0  0  0  0  0  0  0  0  0  0  0
   -0.7404    0.1861   -0.1604 C   0  0  0  0  0  0  0  0  0  0  0  0
    1.6040    0.6451   -0.0697 C   0  0  0  0  0  0  0  0  0  0  0  0
    0.5559   -0.2752   -0.0517 C   0  0  0  0  0  0  0  0  0  0  0  0
   -1.8741   -0.7741   -0.1441 C   0  0  0  0  0  0  0  0  0  0  0  0
    2.9815    0.2085    0.0413 C   0  0  0  0  0  0  0  0  0  0  0  0
   -6.6972    0.8493    1.2144 C   0  0  0  0  0  0  0  0  0  0  0  0
   -1.0327    1.5299   -0.2861 C   0  0  0  0  0  0  0  0  0  0  0  0
    1.3338    2.0077   -0.1956 C   0  0  0  0  0  0  0  0  0  0  0  0
    0.0155    2.4501   -0.3039 C   0  0  0  0  0  0  0  0  0  0  0  0
    3.5762    0.0971    1.2970 C   0  0  0  0  0  0  0  0  0  0  0  0
    3.7081   -0.0996   -1.1075 C   0  0  0  0  0  0  0  0  0  0  0  0
    4.9019   -0.3233    1.4041 C   0  0  0  0  0  0  0  0  0  0  0  0
    5.0337   -0.5203   -1.0002 C   0  0  0  0  0  0  0  0  0  0  0  0
    5.6305   -0.6322    0.2556 C   0  0  0  0  0  0  0  0  0  0  0  0
  1  9  1  0
  2 10  2  0
  3  5  1  0
  3 10  1  0
  4  5  1  0
  4  6  1  0
  6 12  1  0
  7  9  2  0
  7 10  1  0
  7 13  1  0
  8  9  1  0
  8 11  1  0
  8 14  2  0
 11 16  2  0
 11 17  1  0
 13 15  2  0
 14 15  1  0
 16 18  1  0
 17 19  2  0
 18 20  2  0
 19 20  1  0
M  END
>  <PUBCHEM_COMPOUND_CID>  (1) 
8579

>  <PUBCHEM_CONFORMER_RMSD>  (1) 
0.8

>  <PUBCHEM_CONFORMER_DIVERSEORDER>  (1) 
3
21
20
4
2
19
15
22
12
31
5
28
29
1
26
10
7
25
13
24
6
9
23
27
18
8
14
11
30
17
16

>  <PUBCHEM_MMFF94_PARTIAL_CHARGES>  (1) 
25
1 -0.53
10 0.54
13 -0.15
14 -0.15
15 -0.15
16 -0.15
17 -0.15
18 -0.15
19 -0.15
2 -0.57
20 -0.15
27 0.37
3 -0.73
31 0.15
32 0.15
33 0.15
34 0.15
35 0.15
36 0.15
37 0.15
38 0.15
39 0.45
5 0.3
7 0.09
9 0.08

>  <PUBCHEM_EFFECTIVE_ROTOR_COUNT>  (1) 
6

>  <PUBCHEM_PHARMACOPHORE_FEATURES>  (1) 
6
1 1 donor
1 12 hydrophobe
1 2 acceptor
1 3 donor
6 11 16 17 18 19 20 rings
6 7 8 9 13 14 15 rings

>  <PUBCHEM_HEAVY_ATOM_COUNT>  (1) 
20

>  <PUBCHEM_ATOM_DEF_STEREO_COUNT>  (1) 
0

>  <PUBCHEM_ATOM_UDEF_STEREO_COUNT>  (1) 
0

>  <PUBCHEM_BOND_DEF_STEREO_COUNT>  (1) 
0

>  <PUBCHEM_BOND_UDEF_STEREO_COUNT>  (1) 
0

>  <PUBCHEM_ISOTOPIC_ATOM_COUNT>  (1) 
0

>  <PUBCHEM_COMPONENT_COUNT>  (1) 
1

>  <PUBCHEM_CACTVS_TAUTO_COUNT>  (1) 
7

>  <PUBCHEM_CONFORMER_ID>  (1) 
0000218300000003

>  <PUBCHEM_MMFF94_ENERGY>  (1) 
51.6794

>  <PUBCHEM_FEATURE_SELFOVERLAP>  (1) 
30.446

>  <PUBCHEM_SHAPE_FINGERPRINT>  (1) 
10906281 52 18338532909626335086
11089746 13 17346310501903786761
11646440 116 18201447978051585353
12236239 1 18060701714898566931
12670546 56 15984832510020798267
13140716 1 18264485272546072659
13533116 47 15554175783164180150
13590594 115 18334298656511322965
13760787 5 17968092057777046381
13862211 1 18336255808155423999
14115302 16 17676770963261920222
14123256 10 9295286136826752265
14251718 22 12324241667918136427
14251752 14 17749381529991532541
14251758 9 18272936020681563097
14251764 18 18411420657045895645
14251764 30 16660650687151633769
15099037 51 18409166636270102807
15142383 8 17894907387481163853
15183329 4 18408039611387543447
15475509 8 18270420294526366805
15848700 24 18341325678151740972
15885798 251 18409726278998583156
1601671 61 18411418393313151173
16752209 62 18187634783238018344
17980427 23 13686310105739927051
18222031 100 18341609356240965526
18335252 98 14562823156734793032
19141452 34 17917988412242480831
200 152 17748818605960616070
21150785 3 11314318234393199554
21267235 1 18260831467164699866
22182313 1 18128538171722183997
23402539 116 18272363187834346687
23522609 53 17969811668552560341
23536379 177 16773796991764268599
23557571 272 18272377425751172908
23559900 14 18263080067454648404
23845131 108 17264417535189453537
25147074 1 18335999613683811100
3004659 81 18040716974583270574
314173 85 18342739624008430056
33382 64 16008744680506811577
335352 9 18410012152485606757
3411729 13 18197209472454408200
4325135 7 8862942767116379121
4340502 62 15195289754492154415
4463277 17 18409731776619954164
465052 167 18040721380629086842
5104073 3 18338799052165989473
5207 217 10015576204035285509
5385378 56 18058463006615075219
59755656 215 17917437479760566982
7226269 152 18131352990831545097
7495541 125 17022906791270173333
8863177 126 17678750161733788331
9971528 1 18201717392222155404

>  <PUBCHEM_SHAPE_MULTIPOLES>  (1) 
394.87
14
1.74
1.09
11.06
0.72
-0.17
-2.34
-3.1
0.75
0.15
-0.53
-0.06
-0.53

>  <PUBCHEM_SHAPE_SELFOVERLAP>  (1) 
837.867

>  <PUBCHEM_SHAPE_VOLUME>  (1) 
221.1

>  <PUBCHEM_COORDINATE_TYPE>  (1) 
2
5
10

$$$$
