8580
     RDKit          3D

 13 14  0  0  0  0  0  0  0  0999 V2000
   -3.1910    0.6074    0.1670 O   0  0  0  0  0  0  0  0  0  0  0  0
   -1.8939   -2.2205   -0.7223 O   0  0  0  0  0  0  0  0  0  0  0  0
   -1.6261   -1.6588    0.3463 N   0  0  0  0  0  0  0  0  0  0  0  0
    0.3819   -0.3133    0.1049 C   0  0  0  0  0  0  0  0  0  0  0  0
    0.9603    0.9674   -0.0630 C   0  0  0  0  0  0  0  0  0  0  0  0
   -1.0155   -0.4309    0.1815 C   0  0  0  0  0  0  0  0  0  0  0  0
    0.1244    2.0927   -0.1496 C   0  0  0  0  0  0  0  0  0  0  0  0
    1.2180   -1.4384    0.1911 C   0  0  0  0  0  0  0  0  0  0  0  0
    2.3576    1.0852   -0.1398 C   0  0  0  0  0  0  0  0  0  0  0  0
   -1.8310    0.6979    0.0941 C   0  0  0  0  0  0  0  0  0  0  0  0
   -1.2621    1.9573   -0.0714 C   0  0  0  0  0  0  0  0  0  0  0  0
    2.6043   -1.3028    0.1132 C   0  0  0  0  0  0  0  0  0  0  0  0
    3.1731   -0.0433   -0.0519 C   0  0  0  0  0  0  0  0  0  0  0  0
  1 10  1  0
  2  3  2  0
  3  6  1  0
  4  5  1  0
  4  6  2  0
  4  8  1  0
  5  7  2  0
  5  9  1  0
  6 10  1  0
  7 11  1  0
  8 12  2  0
  9 13  2  0
 10 11  2  0
 12 13  1  0
M  END
>  <PUBCHEM_COMPOUND_CID>  (1) 
8580

>  <PUBCHEM_CONFORMER_RMSD>  (1) 
0.4

>  <PUBCHEM_CONFORMER_DIVERSEORDER>  (1) 
2
1

>  <PUBCHEM_MMFF94_PARTIAL_CHARGES>  (1) 
18
1 -0.53
10 0.08
11 -0.15
12 -0.15
13 -0.15
14 0.15
15 0.15
16 0.15
17 0.15
18 0.15
19 0.15
2 -0.16
20 0.45
3 -0.14
6 0.3
7 -0.15
8 -0.15
9 -0.15

>  <PUBCHEM_EFFECTIVE_ROTOR_COUNT>  (1) 
1

>  <PUBCHEM_PHARMACOPHORE_FEATURES>  (1) 
3
1 1 donor
6 4 5 6 7 10 11 rings
6 4 5 8 9 12 13 rings

>  <PUBCHEM_HEAVY_ATOM_COUNT>  (1) 
13

>  <PUBCHEM_ATOM_DEF_STEREO_COUNT>  (1) 
0

>  <PUBCHEM_ATOM_UDEF_STEREO_COUNT>  (1) 
0

>  <PUBCHEM_BOND_DEF_STEREO_COUNT>  (1) 
0

>  <PUBCHEM_BOND_UDEF_STEREO_COUNT>  (1) 
0

>  <PUBCHEM_ISOTOPIC_ATOM_COUNT>  (1) 
0

>  <PUBCHEM_COMPONENT_COUNT>  (1) 
1

>  <PUBCHEM_CACTVS_TAUTO_COUNT>  (1) 
4

>  <PUBCHEM_CONFORMER_ID>  (1) 
0000218400000002

>  <PUBCHEM_MMFF94_ENERGY>  (1) 
42.6401

>  <PUBCHEM_FEATURE_SELFOVERLAP>  (1) 
15.249

>  <PUBCHEM_SHAPE_FINGERPRINT>  (1) 
10967382 1 18410012096144635752
11132069 177 18411414029710982480
11206711 2 18263927820166549724
12202030 40 16558487347557797918
12382932 28 18412260644836948256
12423570 1 9331362736193787588
12524768 44 18339648832319023638
16945 1 18410572842938297632
17844478 74 17822305539123666753
193761 8 18194122051786281697
20510252 161 18056758732751941120
20588541 1 18340491075400403472
20871998 184 18343587334620218191
21501502 16 18337953492937138244
2334 1 18193559097595720480
23388829 49 17908694373744263676
23402539 116 18198890449116579941
23463225 33 18335140864984083248
23552423 10 18189338025217348964
23559900 14 18342740668756004508
241688 4 18337670935428371688
2748010 2 18266177421052106428
5084963 1 17985258569428223816
5255222 1 18410567379655741480
528886 8 18410290315704928280
53812654 25 18341038640728151587

>  <PUBCHEM_SHAPE_MULTIPOLES>  (1) 
250.81
4.09
2.28
0.65
0.7
0.18
0.02
0.39
-0.02
-0.69
0.22
-0.03
0.07
-0.22

>  <PUBCHEM_SHAPE_SELFOVERLAP>  (1) 
555.254

>  <PUBCHEM_SHAPE_VOLUME>  (1) 
135

>  <PUBCHEM_COORDINATE_TYPE>  (1) 
2
5
10

$$$$
