8590
     RDKit          3D

 21 22  0  0  1  0  0  0  0  0999 V2000
    0.5722   -0.9650    1.8260 O   0  0  0  0  0  0  0  0  0  0  0  0
    4.4160    0.5375    0.0471 N   0  0  0  0  0  0  0  0  0  0  0  0
   -0.1988   -0.1050   -0.0930 N   0  0  0  0  0  0  0  0  0  0  0  0
   -0.6872   -1.5418    1.6187 N   0  0  0  0  0  0  0  0  0  0  0  0
   -2.3694   -1.3026   -0.1495 C   0  0  0  0  0  0  0  0  0  0  0  0
    3.1465   -0.1884    0.0351 C   0  0  0  0  0  0  0  0  0  0  0  0
    2.0553    0.6007    0.7614 C   0  0  0  0  0  0  0  0  0  0  0  0
   -2.3133   -1.9610   -1.5664 C   0  0  0  0  0  0  0  0  0  0  0  0
   -1.0772   -0.9856    0.4680 C   0  0  0  0  0  0  0  0  0  0  0  0
   -3.2148   -0.0195   -0.1102 C   0  0  0  0  0  0  0  0  0  0  0  0
    5.4633   -0.2534   -0.5979 C   0  0  0  0  0  0  0  0  0  0  0  0
    4.2706    1.8322   -0.6173 C   0  0  0  0  0  0  0  0  0  0  0  0
    0.7478   -0.1521    0.7734 C   0  0  0  0  0  0  0  0  0  0  0  0
   -1.4536   -3.2202   -1.5743 C   0  0  0  0  0  0  0  0  0  0  0  0
    5.6282   -1.6030    0.0801 C   0  0  0  0  0  0  0  0  0  0  0  0
    5.5644    2.6267   -0.5605 C   0  0  0  0  0  0  0  0  0  0  0  0
   -3.8570    0.3024    1.0596 C   0  0  0  0  0  0  0  0  0  0  0  0
   -3.2893    0.7474   -1.2463 C   0  0  0  0  0  0  0  0  0  0  0  0
   -4.6240    1.4669    1.0955 C   0  0  0  0  0  0  0  0  0  0  0  0
   -4.0562    1.9120   -1.2102 C   0  0  0  0  0  0  0  0  0  0  0  0
   -4.7235    2.2716   -0.0393 C   0  0  0  0  0  0  0  0  0  0  0  0
  1  4  1  0
  1 13  1  0
  2  6  1  0
  2 11  1  0
  2 12  1  0
  3  9  1  0
  3 13  2  0
  4  9  2  0
  5  8  1  0
  5  9  1  0
  5 10  1  0
  6  7  1  0
  7 13  1  0
  8 14  1  0
 10 17  2  0
 10 18  1  0
 11 15  1  0
 12 16  1  0
 17 19  1  0
 18 20  2  0
 19 21  2  0
 20 21  1  0
M  END
>  <PUBCHEM_COMPOUND_CID>  (1) 
8590

>  <PUBCHEM_CONFORMER_RMSD>  (1) 
0.8

>  <PUBCHEM_CONFORMER_DIVERSEORDER>  (1) 
2
357
135
412
265
171
22
300
220
414
128
233
338
158
367
72
386
303
163
321
102
87
219
140
133
324
37
242
121
413
172
372
279
70
197
200
402
46
369
68
408
114
86
52
398
44
352
260
123
217
83
261
65
406
8
152
378
275
256
108
373
125
390
147
246
112
331
226
11
150
258
271
78
42
20
293
115
251
407
134
294
148
26
405
395
34
377
124
40
305
280
333
384
98
60
388
391
326
24
272
287
244
210
21
41
264
389
63
361
204
154
364
255
266
48
342
85
119
76
262
38
288
151
339
284
341
281
33
190
227
157
35
276
415
28
127
277
136
302
411
370
249
356
202
315
292
286
269
237
387
365
104
225
100
54
409
179
13
146
397
122
129
107
296
69
394
404
380
75
111
401
188
349
208
312
57
67
155
116
257
120
285
59
232
245
130
110
241
164
289
250
9
30
73
166
416
77
332
383
105
212
203
17
230
231
4
270
6
39
282
176
278
79
10
214
336
247
399
103
181
252
156
345
55
145
318
36
347
126
267
177
149
62
5
351
159
160
319
23
118
301
358
132
168
96
211
18
1
297
27
322
144
199
195
201
371
97
175
49
320
161
174
304
330
29
153
45
182
236
169
239
189
235
31
216
268
142
47
187
362
359
194
243
360
403
19
253
180
92
222
178
323
101
248
392
15
141
337
314
91
306
14
89
88
283
224
90
198
3
344
51
317
53
274
186
58
113
316
375
325
259
223
143
381
50
16
117
81
376
309
334
64
313
240
379
353
25
299
61
307
7
254
400
343
183
139
106
350
138
295
80
185
354
184
234
218
273
355
311
207
84
191
93
82
56
410
32
193
99
291
165
74
335
328
308
167
221
43
228
71
131
393
12
385
95
213
396
205
229
137
348
209
327
173
374
346
94
310
192
298
363
162
368
238
215
109
66
206
290
263
340
366
170
329
196
382

>  <PUBCHEM_MMFF94_PARTIAL_CHARGES>  (1) 
22
1 -0.02
10 -0.14
11 0.27
12 0.27
13 0.3
17 -0.15
18 -0.15
19 -0.15
2 -0.81
20 -0.15
21 -0.15
3 -0.57
4 -0.41
42 0.15
43 0.15
44 0.15
45 0.15
46 0.15
5 0.32
6 0.27
7 0.18
9 0.34

>  <PUBCHEM_EFFECTIVE_ROTOR_COUNT>  (1) 
8

>  <PUBCHEM_PHARMACOPHORE_FEATURES>  (1) 
5
1 14 hydrophobe
1 2 cation
3 3 4 9 cation
5 1 3 4 9 13 rings
6 10 17 18 19 20 21 rings

>  <PUBCHEM_HEAVY_ATOM_COUNT>  (1) 
21

>  <PUBCHEM_ATOM_DEF_STEREO_COUNT>  (1) 
0

>  <PUBCHEM_ATOM_UDEF_STEREO_COUNT>  (1) 
1

>  <PUBCHEM_BOND_DEF_STEREO_COUNT>  (1) 
0

>  <PUBCHEM_BOND_UDEF_STEREO_COUNT>  (1) 
0

>  <PUBCHEM_ISOTOPIC_ATOM_COUNT>  (1) 
0

>  <PUBCHEM_COMPONENT_COUNT>  (1) 
1

>  <PUBCHEM_CACTVS_TAUTO_COUNT>  (1) 
3

>  <PUBCHEM_CONFORMER_ID>  (1) 
0000218E00000002

>  <PUBCHEM_MMFF94_ENERGY>  (1) 
35.5924

>  <PUBCHEM_FEATURE_SELFOVERLAP>  (1) 
25.372

>  <PUBCHEM_SHAPE_FINGERPRINT>  (1) 
105312 117 18059860570927830277
10803635 8 18060419127430732158
11405975 8 18410853274638719754
13690498 29 17415278613869408446
13944108 23 17618778055774625781
14341114 328 12613031660896623980
14347332 77 17987505082501678151
14713325 29 18340772649673727551
14848160 23 12175616257296478132
14848178 5 11384110838857512348
15183329 4 18343303622308216716
15463212 79 18339069501350182079
15534591 1 18334008411078726315
17844677 252 18260558852473308400
17857418 61 12391250270555552652
17959699 21 18334579070662188512
18186145 218 17240757424218078322
19489759 90 16128373731773502466
200 152 14117798007272617058
20511986 3 18130495402069107202
21756936 100 18040714792054088560
21864079 5 17749657558712477540
22393880 68 17916309518949715564
23402539 116 17346315960200656233
23402655 69 18411701019663129828
23559900 14 17561077034531409402
268830 7 17822561803043023208
2838139 119 18261668156737789589
3009799 131 14189286020022557993
312425 83 18341054116207528060
32948 21 18201999919850832744
339767 52 12391503157697022044
4015057 19 15338822201347727970
5104073 3 17749106729715812216
559249 180 18201997707916840718
59755656 520 17530688697212588170
633830 44 18040711494089086162
70251023 43 17838886393762118499
90127 26 17967257498571753992

>  <PUBCHEM_SHAPE_MULTIPOLES>  (1) 
411.36
13.17
2.83
1.45
15.29
0.55
-0.08
-7.86
2.08
-0.53
1.26
-1.06
0.44
-1.1

>  <PUBCHEM_SHAPE_SELFOVERLAP>  (1) 
844.04

>  <PUBCHEM_SHAPE_VOLUME>  (1) 
239.8

>  <PUBCHEM_COORDINATE_TYPE>  (1) 
2
5
10

$$$$
