8594
     RDKit          3D

 22 24  0  0  0  0  0  0  0  0999 V2000
    1.0602    1.2240   -1.7841 O   0  0  0  0  0  0  0  0  0  0  0  0
    3.4526    1.3290    2.3547 O   0  0  0  0  0  0  0  0  0  0  0  0
    2.2633    2.3254    0.6935 O   0  0  0  0  0  0  0  0  0  0  0  0
   -0.0680   -0.0010   -0.1260 N   0  0  0  0  0  0  0  0  0  0  0  0
   -2.4862   -0.3131    0.1175 C   0  0  0  0  0  0  0  0  0  0  0  0
   -1.3777    0.4879   -0.2021 C   0  0  0  0  0  0  0  0  0  0  0  0
   -3.7871    0.2358    0.0213 C   0  0  0  0  0  0  0  0  0  0  0  0
   -1.5494    1.8108   -0.6111 C   0  0  0  0  0  0  0  0  0  0  0  0
   -2.3322   -1.6465    0.5308 C   0  0  0  0  0  0  0  0  0  0  0  0
   -3.9413    1.5693   -0.3916 C   0  0  0  0  0  0  0  0  0  0  0  0
   -4.8957   -0.5650    0.3411 C   0  0  0  0  0  0  0  0  0  0  0  0
    2.2978   -0.3462   -0.5950 C   0  0  0  0  0  0  0  0  0  0  0  0
   -2.8287    2.3505   -0.7054 C   0  0  0  0  0  0  0  0  0  0  0  0
    1.0363    0.3812   -0.8937 C   0  0  0  0  0  0  0  0  0  0  0  0
   -3.4449   -2.4276    0.8443 C   0  0  0  0  0  0  0  0  0  0  0  0
    3.1693    0.1365    0.3597 C   0  0  0  0  0  0  0  0  0  0  0  0
   -4.7243   -1.8879    0.7496 C   0  0  0  0  0  0  0  0  0  0  0  0
    2.5521   -1.5044   -1.3028 C   0  0  0  0  0  0  0  0  0  0  0  0
    4.3453   -0.5677    0.6182 C   0  0  0  0  0  0  0  0  0  0  0  0
    3.7281   -2.2087   -1.0443 C   0  0  0  0  0  0  0  0  0  0  0  0
    4.6247   -1.7402   -0.0839 C   0  0  0  0  0  0  0  0  0  0  0  0
    2.9058    1.3578    1.1095 C   0  0  0  0  0  0  0  0  0  0  0  0
  1 14  2  0
  2 22  1  0
  3 22  2  0
  4  6  1  0
  4 14  1  0
  5  6  1  0
  5  7  2  0
  5  9  1  0
  6  8  2  0
  7 10  1  0
  7 11  1  0
  8 13  1  0
  9 15  2  0
 10 13  2  0
 11 17  2  0
 12 14  1  0
 12 16  2  0
 12 18  1  0
 15 17  1  0
 16 19  1  0
 16 22  1  0
 18 20  2  0
 19 21  2  0
 20 21  1  0
M  END
>  <PUBCHEM_COMPOUND_CID>  (1) 
8594

>  <PUBCHEM_CONFORMER_RMSD>  (1) 
0.6

>  <PUBCHEM_CONFORMER_DIVERSEORDER>  (1) 
2
17
14
5
18
4
13
1
3
7
15
6
19
8
16
12
10
9
11
20
21

>  <PUBCHEM_MMFF94_PARTIAL_CHARGES>  (1) 
33
1 -0.57
10 -0.15
11 -0.15
12 0.09
13 -0.15
14 0.54
15 -0.15
16 0.09
17 -0.15
18 -0.15
19 -0.15
2 -0.65
20 -0.15
21 -0.15
22 0.63
23 0.37
24 0.15
25 0.15
26 0.15
27 0.15
28 0.15
29 0.15
3 -0.57
30 0.15
31 0.15
32 0.15
33 0.15
34 0.15
35 0.5
4 -0.55
6 0.12
8 -0.15
9 -0.15

>  <PUBCHEM_EFFECTIVE_ROTOR_COUNT>  (1) 
4

>  <PUBCHEM_PHARMACOPHORE_FEATURES>  (1) 
8
1 1 acceptor
1 2 acceptor
1 3 acceptor
1 4 donor
3 2 3 22 anion
6 12 16 18 19 20 21 rings
6 5 6 7 8 10 13 rings
6 5 7 9 11 15 17 rings

>  <PUBCHEM_HEAVY_ATOM_COUNT>  (1) 
22

>  <PUBCHEM_ATOM_DEF_STEREO_COUNT>  (1) 
0

>  <PUBCHEM_ATOM_UDEF_STEREO_COUNT>  (1) 
0

>  <PUBCHEM_BOND_DEF_STEREO_COUNT>  (1) 
0

>  <PUBCHEM_BOND_UDEF_STEREO_COUNT>  (1) 
0

>  <PUBCHEM_ISOTOPIC_ATOM_COUNT>  (1) 
0

>  <PUBCHEM_COMPONENT_COUNT>  (1) 
1

>  <PUBCHEM_CACTVS_TAUTO_COUNT>  (1) 
2

>  <PUBCHEM_CONFORMER_ID>  (1) 
0000219200000002

>  <PUBCHEM_MMFF94_ENERGY>  (1) 
83.9053

>  <PUBCHEM_FEATURE_SELFOVERLAP>  (1) 
40.681

>  <PUBCHEM_SHAPE_FINGERPRINT>  (1) 
10319926 262 18264188267547816976
10366900 7 18343868835361197908
11045977 3 18342735174290351780
11370993 144 18059301972124387257
11405975 8 18343305829757967729
11545043 162 18409167675419884954
11552529 35 17702947088192926447
11796584 16 17972033635723788970
12236239 1 16588026788020575967
12346177 29 18187359913857842167
12403259 226 18411135827230442805
12507560 40 18342171172270409396
12553582 1 17903653117653730719
12633257 1 18200326437035212649
13402501 40 18412267198904807382
13533116 47 18202289099946313195
13583140 156 18131061632422585268
13675066 3 18413107264474340759
14178342 30 18041550356434981659
14289901 80 17846774139596822193
14341114 176 18343586235308901080
14866123 147 16687115592324123262
15042514 8 18187376424286991241
15961568 22 17968659457602417332
16752209 62 17603584114984504203
17349148 13 17022618689169533219
17492 89 18115035219904012395
17804303 29 18336270041650325077
17913733 40 17631157762391663056
1813 80 17168142394780043285
21033648 29 17987784246521765136
21065198 57 18413107242894048073
21065199 12 18341609334592205160
21065201 7 18187642462149011193
21792934 111 18410860971837150139
22122407 14 16702305646330729905
22943178 12 18413103940011352565
23557571 272 18408884053291985145
23559900 14 18408605846537466980
3004659 81 17676491704715298095
312423 11 17604450577339084685
316301 35 18334854987861768410
4015057 19 18058991948843659245
4214541 1 18335423422150095333
474 4 14620796019710963310
49207404 50 18200587111501392632
5104073 3 18412826863002090889
59755656 215 18188769436547017511
602551 16 18186800253749200946
6049 1 18341899571281126492
6823239 73 18410295804979074696
8988823 20 17917712456836633251
960060 61 14056996139533053331
9709674 26 18411417323755680655

>  <PUBCHEM_SHAPE_MULTIPOLES>  (1) 
430.16
10.66
2.65
1.32
0.91
0.09
0.25
4.25
1.9
0.97
0.08
-1.34
-0.31
2.39

>  <PUBCHEM_SHAPE_SELFOVERLAP>  (1) 
957.28

>  <PUBCHEM_SHAPE_VOLUME>  (1) 
228.4

>  <PUBCHEM_COORDINATE_TYPE>  (1) 
2
5
10

$$$$
