8597
     RDKit          3D

 15 15  0  0  0  0  0  0  0  0999 V2000
   -2.6386    0.0258   -0.0042 O   0  0  0  0  0  0  0  0  0  0  0  0
    0.6021    1.3943   -0.5480 O   0  0  0  0  0  0  0  0  0  0  0  0
    0.5791   -1.4105    0.5508 O   0  0  0  0  0  0  0  0  0  0  0  0
   -2.2172    2.1363   -0.8295 O   0  0  0  0  0  0  0  0  0  0  0  0
   -2.2784   -2.0938    0.8271 O   0  0  0  0  0  0  0  0  0  0  0  0
    1.3216    1.2734    1.6634 O   0  0  0  0  0  0  0  0  0  0  0  0
    1.2947   -1.2950   -1.6620 O   0  0  0  0  0  0  0  0  0  0  0  0
   -0.4670    0.6143   -0.2397 C   0  0  0  0  0  0  0  0  0  0  0  0
   -0.4849   -0.6222    0.2448 C   0  0  0  0  0  0  0  0  0  0  0  0
   -1.8467    1.0560   -0.4089 C   0  0  0  0  0  0  0  0  0  0  0  0
   -1.8769   -1.0247    0.4067 C   0  0  0  0  0  0  0  0  0  0  0  0
    1.4474    1.6635    0.5096 C   0  0  0  0  0  0  0  0  0  0  0  0
    1.4199   -1.6861   -0.5086 C   0  0  0  0  0  0  0  0  0  0  0  0
    2.5889    2.5181    0.0422 C   0  0  0  0  0  0  0  0  0  0  0  0
    2.5559   -2.5494   -0.0436 C   0  0  0  0  0  0  0  0  0  0  0  0
  1 10  1  0
  1 11  1  0
  2  8  1  0
  2 12  1  0
  3  9  1  0
  3 13  1  0
  4 10  2  0
  5 11  2  0
  6 12  2  0
  7 13  2  0
  8  9  2  0
  8 10  1  0
  9 11  1  0
 12 14  1  0
 13 15  1  0
M  END
>  <PUBCHEM_COMPOUND_CID>  (1) 
8597

>  <PUBCHEM_CONFORMER_RMSD>  (1) 
0.6

>  <PUBCHEM_CONFORMER_DIVERSEORDER>  (1) 
1
15
18
32
6
20
4
25
12
2
23
10
24
5
30
26
22
19
31
21
27
9
8
3
16
13
7
14
17
29
11
28

>  <PUBCHEM_MMFF94_PARTIAL_CHARGES>  (1) 
15
1 -0.3
10 0.71
11 0.71
12 0.66
13 0.66
14 0.06
15 0.06
2 -0.23
3 -0.23
4 -0.57
5 -0.57
6 -0.57
7 -0.57
8 0.09
9 0.09

>  <PUBCHEM_EFFECTIVE_ROTOR_COUNT>  (1) 
4.2

>  <PUBCHEM_PHARMACOPHORE_FEATURES>  (1) 
5
1 4 acceptor
1 5 acceptor
1 6 acceptor
1 7 acceptor
5 1 8 9 10 11 rings

>  <PUBCHEM_HEAVY_ATOM_COUNT>  (1) 
15

>  <PUBCHEM_ATOM_DEF_STEREO_COUNT>  (1) 
0

>  <PUBCHEM_ATOM_UDEF_STEREO_COUNT>  (1) 
0

>  <PUBCHEM_BOND_DEF_STEREO_COUNT>  (1) 
0

>  <PUBCHEM_BOND_UDEF_STEREO_COUNT>  (1) 
0

>  <PUBCHEM_ISOTOPIC_ATOM_COUNT>  (1) 
0

>  <PUBCHEM_COMPONENT_COUNT>  (1) 
1

>  <PUBCHEM_CACTVS_TAUTO_COUNT>  (1) 
1

>  <PUBCHEM_CONFORMER_ID>  (1) 
0000219500000001

>  <PUBCHEM_MMFF94_ENERGY>  (1) 
27.5971

>  <PUBCHEM_FEATURE_SELFOVERLAP>  (1) 
25.374

>  <PUBCHEM_SHAPE_FINGERPRINT>  (1) 
1 1 18270958067724253436
12423570 1 17480525635131428245
14648413 74 18410007706603968617
15076042 46 17972859617468012960
15309172 13 17907864246618056312
15490181 7 17985251126550683924
161256 15 18336842964855527987
16945 1 18409448085260432774
17775402 16 17398946085623962181
193761 8 18408886235087658085
20510252 161 17330829124470569282
20511035 2 18124562423754859048
20871998 184 17976254969477616809
21339142 51 18193562168708730126
21501502 16 18412545414127336681
23419403 2 17192022460212003536
2748010 2 18262528103721790415
3250762 1 18408885131154468965
4369600 1 17690829073957789903
4663303 62 18130791161531816886
7364860 26 18341895190350953602
81228 2 17265264163705579202

>  <PUBCHEM_SHAPE_MULTIPOLES>  (1) 
267.61
3.63
3.1
1.06
0.52
0.03
0
-0.02
0.02
-1.94
-0.02
-0.23
0
1.04

>  <PUBCHEM_SHAPE_SELFOVERLAP>  (1) 
564.539

>  <PUBCHEM_SHAPE_VOLUME>  (1) 
148.6

>  <PUBCHEM_COORDINATE_TYPE>  (1) 
2
5
10

$$$$
