8599
     RDKit          3D

 27 29  0  0  0  0  0  0  0  0999 V2000
    0.9298    1.4021   -1.1783 O   0  0  0  0  0  0  0  0  0  0  0  0
   -0.9749    1.3882    1.1737 O   0  0  0  0  0  0  0  0  0  0  0  0
   -0.0795    4.6329   -0.0078 O   0  0  0  0  0  0  0  0  0  0  0  0
    1.9219    0.7228    0.8118 O   0  0  0  0  0  0  0  0  0  0  0  0
   -1.9467    0.6604   -0.8089 O   0  0  0  0  0  0  0  0  0  0  0  0
    1.3573    4.2524   -1.7692 O   0  0  0  0  0  0  0  0  0  0  0  0
   -1.5024    4.2317    1.7611 O   0  0  0  0  0  0  0  0  0  0  0  0
    2.2617   -0.5358   -1.2400 C   0  0  0  0  0  0  0  0  0  0  0  0
   -2.2249   -0.6111    1.2445 C   0  0  0  0  0  0  0  0  0  0  0  0
    3.0813   -1.5171   -0.4720 C   0  0  0  0  0  0  0  0  0  0  0  0
   -3.0270   -1.6227    0.4674 C   0  0  0  0  0  0  0  0  0  0  0  0
    0.3688    2.4732   -0.5105 C   0  0  0  0  0  0  0  0  0  0  0  0
   -0.4671    2.4672    0.5218 C   0  0  0  0  0  0  0  0  0  0  0  0
    1.7004    0.5863   -0.3845 C   0  0  0  0  0  0  0  0  0  0  0  0
   -1.7195    0.5274    0.3867 C   0  0  0  0  0  0  0  0  0  0  0  0
    4.4542   -1.3171   -0.3271 C   0  0  0  0  0  0  0  0  0  0  0  0
   -4.3992   -1.4579    0.3468 C   0  0  0  0  0  0  0  0  0  0  0  0
    2.4750   -2.6348    0.1016 C   0  0  0  0  0  0  0  0  0  0  0  0
   -2.3810   -2.7030   -0.1159 C   0  0  0  0  0  0  0  0  0  0  0  0
    0.6353    3.8612   -0.8712 C   0  0  0  0  0  0  0  0  0  0  0  0
   -0.7710    3.8510    0.8660 C   0  0  0  0  0  0  0  0  0  0  0  0
    5.2208   -2.2347    0.3912 C   0  0  0  0  0  0  0  0  0  0  0  0
   -5.1418   -2.3941   -0.3727 C   0  0  0  0  0  0  0  0  0  0  0  0
    3.2416   -3.5524    0.8201 C   0  0  0  0  0  0  0  0  0  0  0  0
   -3.1236   -3.6391   -0.8356 C   0  0  0  0  0  0  0  0  0  0  0  0
    4.6145   -3.3522    0.9648 C   0  0  0  0  0  0  0  0  0  0  0  0
   -4.5041   -3.4846   -0.9640 C   0  0  0  0  0  0  0  0  0  0  0  0
  1 12  1  0
  1 14  1  0
  2 13  1  0
  2 15  1  0
  3 20  1  0
  3 21  1  0
  4 14  2  0
  5 15  2  0
  6 20  2  0
  7 21  2  0
  8 10  1  0
  8 14  1  0
  9 11  1  0
  9 15  1  0
 10 16  2  0
 10 18  1  0
 11 17  2  0
 11 19  1  0
 12 13  2  0
 12 20  1  0
 13 21  1  0
 16 22  1  0
 17 23  1  0
 18 24  2  0
 19 25  2  0
 22 26  2  0
 23 27  2  0
 24 26  1  0
 25 27  1  0
M  END
>  <PUBCHEM_COMPOUND_CID>  (1) 
8599

>  <PUBCHEM_CONFORMER_RMSD>  (1) 
1

>  <PUBCHEM_CONFORMER_DIVERSEORDER>  (1) 
1
40
171
163
33
130
81
72
43
158
46
126
41
210
90
42
191
25
201
145
5
135
56
66
83
196
98
190
166
133
199
2
23
180
101
211
52
160
61
88
113
35
71
193
174
12
109
104
44
118
186
172
94
138
93
192
63
159
189
67
208
207
54
139
64
86
161
136
70
51
203
178
144
59
194
8
216
78
50
37
198
162
120
3
147
213
214
168
69
21
65
116
152
184
182
30
150
102
167
153
112
197
29
89
117
125
60
188
127
80
119
195
26
212
20
34
68
154
175
177
77
202
11
169
16
57
91
140
92
76
183
151
48
128
209
205
105
28
121
73
24
45
107
123
185
39
49
137
74
103
204
95
173
17
47
217
84
111
110
165
124
164
85
146
99
131
96
22
148
79
149
100
200
156
62
38
179
75
32
97
87
187
157
176
181
142
170
36
115
53
6
129
155
58
206
7
215
31
132
143
14
114
122
15
108
18
4
27
82
106
13
19
141
134
10
9
55

>  <PUBCHEM_MMFF94_PARTIAL_CHARGES>  (1) 
37
1 -0.23
10 -0.14
11 -0.14
12 0.09
13 0.09
14 0.66
15 0.66
16 -0.15
17 -0.15
18 -0.15
19 -0.15
2 -0.23
20 0.71
21 0.71
22 -0.15
23 -0.15
24 -0.15
25 -0.15
26 -0.15
27 -0.15
3 -0.3
32 0.15
33 0.15
34 0.15
35 0.15
36 0.15
37 0.15
38 0.15
39 0.15
4 -0.57
40 0.15
41 0.15
5 -0.57
6 -0.57
7 -0.57
8 0.2
9 0.2

>  <PUBCHEM_EFFECTIVE_ROTOR_COUNT>  (1) 
8.2

>  <PUBCHEM_PHARMACOPHORE_FEATURES>  (1) 
7
1 4 acceptor
1 5 acceptor
1 6 acceptor
1 7 acceptor
5 3 12 13 20 21 rings
6 10 16 18 22 24 26 rings
6 11 17 19 23 25 27 rings

>  <PUBCHEM_HEAVY_ATOM_COUNT>  (1) 
27

>  <PUBCHEM_ATOM_DEF_STEREO_COUNT>  (1) 
0

>  <PUBCHEM_ATOM_UDEF_STEREO_COUNT>  (1) 
0

>  <PUBCHEM_BOND_DEF_STEREO_COUNT>  (1) 
0

>  <PUBCHEM_BOND_UDEF_STEREO_COUNT>  (1) 
0

>  <PUBCHEM_ISOTOPIC_ATOM_COUNT>  (1) 
0

>  <PUBCHEM_COMPONENT_COUNT>  (1) 
1

>  <PUBCHEM_CACTVS_TAUTO_COUNT>  (1) 
1

>  <PUBCHEM_CONFORMER_ID>  (1) 
0000219700000001

>  <PUBCHEM_MMFF94_ENERGY>  (1) 
61.3951

>  <PUBCHEM_FEATURE_SELFOVERLAP>  (1) 
35.524

>  <PUBCHEM_SHAPE_FINGERPRINT>  (1) 
11315621 246 18195260910374569134
11552529 35 18195524784379867994
11720765 8 18269256002666637125
12107183 9 18342190964323722267
12293681 25 18049404224017009229
12553582 1 18266484094449351618
12788726 201 18338250262140019778
13004483 165 18337107856615388363
13533116 47 17980762959427227623
13631057 29 18410576142122313238
138480 1 14952090521111549058
13955234 65 17836649991521838187
14100547 121 17760645867646603458
14394314 77 18410577283839659971
14675020 138 17264397130268217619
14844126 61 18119811309431034810
20775530 9 18409725170770745010
21120745 212 18340781359851248532
21133410 171 17394959424040413123
21796203 349 17975734784524553802
22393880 68 17336197430121807829
23559900 14 18197207269061942235
23728640 28 17905051343723550634
255183 313 17910404887720775977
4017518 198 17041753193654799030
4058900 60 17616546493771940517
463206 1 18335424616109799723
5265222 85 17112716795567080686
563151 97 17976560603830815421
653340 110 18195235625665019122

>  <PUBCHEM_SHAPE_MULTIPOLES>  (1) 
514.56
9.07
7.38
1.27
0.51
7.05
0
-15.8
0.07
-0.36
-0.04
-0.01
0.69
-2.7

>  <PUBCHEM_SHAPE_SELFOVERLAP>  (1) 
1122.397

>  <PUBCHEM_SHAPE_VOLUME>  (1) 
277.2

>  <PUBCHEM_COORDINATE_TYPE>  (1) 
2
5
10

$$$$
