8600
     RDKit          3D

 19 19  0  0  0  0  0  0  0  0999 V2000
   -0.2526   -1.3117   -0.7592 O   0  0  0  0  0  0  0  0  0  0  0  0
   -0.2949    1.3062    0.7587 O   0  0  0  0  0  0  0  0  0  0  0  0
   -3.5118   -0.0330   -0.0050 O   0  0  0  0  0  0  0  0  0  0  0  0
    0.4479   -1.5132    1.4494 O   0  0  0  0  0  0  0  0  0  0  0  0
    0.4167    1.5263   -1.4443 O   0  0  0  0  0  0  0  0  0  0  0  0
   -3.0891   -1.9913   -1.1447 O   0  0  0  0  0  0  0  0  0  0  0  0
   -3.1528    1.9384    1.1347 O   0  0  0  0  0  0  0  0  0  0  0  0
    1.7247   -2.5027   -0.3657 C   0  0  0  0  0  0  0  0  0  0  0  0
    1.6869    2.5290    0.3683 C   0  0  0  0  0  0  0  0  0  0  0  0
    2.7272   -2.9770    0.6834 C   0  0  0  0  0  0  0  0  0  0  0  0
    2.6824    3.0136   -0.6828 C   0  0  0  0  0  0  0  0  0  0  0  0
   -1.3398   -0.5765   -0.3288 C   0  0  0  0  0  0  0  0  0  0  0  0
   -1.3585    0.5725    0.3374 C   0  0  0  0  0  0  0  0  0  0  0  0
    0.5799   -1.7280    0.2517 C   0  0  0  0  0  0  0  0  0  0  0  0
    0.5490    1.7423   -0.2468 C   0  0  0  0  0  0  0  0  0  0  0  0
    3.8534   -3.7812    0.0550 C   0  0  0  0  0  0  0  0  0  0  0  0
    3.8014    3.8296   -0.0564 C   0  0  0  0  0  0  0  0  0  0  0  0
   -2.7193   -0.9885   -0.5627 C   0  0  0  0  0  0  0  0  0  0  0  0
   -2.7506    0.9451    0.5579 C   0  0  0  0  0  0  0  0  0  0  0  0
  1 12  1  0
  1 14  1  0
  2 13  1  0
  2 15  1  0
  3 18  1  0
  3 19  1  0
  4 14  2  0
  5 15  2  0
  6 18  2  0
  7 19  2  0
  8 10  1  0
  8 14  1  0
  9 11  1  0
  9 15  1  0
 10 16  1  0
 11 17  1  0
 12 13  2  0
 12 18  1  0
 13 19  1  0
M  END
>  <PUBCHEM_COMPOUND_CID>  (1) 
8600

>  <PUBCHEM_CONFORMER_RMSD>  (1) 
0.8

>  <PUBCHEM_CONFORMER_DIVERSEORDER>  (1) 
1
146
69
149
174
46
79
75
205
6
179
40
193
102
101
52
141
183
18
64
120
190
140
150
151
137
25
41
68
65
72
42
143
186
105
161
172
15
204
162
55
80
89
182
13
199
100
201
78
99
10
155
170
50
188
123
91
132
51
160
103
171
62
121
98
181
135
77
43
153
145
70
82
56
94
110
168
8
96
39
32
180
76
118
167
126
130
175
164
191
144
169
57
184
73
203
9
90
185
177
138
134
156
207
104
61
53
111
158
36
85
47
129
17
59
176
133
106
95
208
88
5
117
54
200
192
86
136
48
166
19
152
128
189
63
24
71
147
35
29
16
194
142
115
31
131
66
116
83
84
163
154
30
109
92
206
197
26
119
97
113
202
58
112
198
28
159
124
67
3
37
127
27
22
195
178
23
34
45
21
108
196
157
33
173
93
81
49
44
107
148
12
60
114
20
87
122
165
7
139
38
74
2
11
187
125
4
14

>  <PUBCHEM_MMFF94_PARTIAL_CHARGES>  (1) 
15
1 -0.23
12 0.09
13 0.09
14 0.66
15 0.66
18 0.71
19 0.71
2 -0.23
3 -0.3
4 -0.57
5 -0.57
6 -0.57
7 -0.57
8 0.06
9 0.06

>  <PUBCHEM_EFFECTIVE_ROTOR_COUNT>  (1) 
8.2

>  <PUBCHEM_PHARMACOPHORE_FEATURES>  (1) 
7
1 16 hydrophobe
1 17 hydrophobe
1 4 acceptor
1 5 acceptor
1 6 acceptor
1 7 acceptor
5 3 12 13 18 19 rings

>  <PUBCHEM_HEAVY_ATOM_COUNT>  (1) 
19

>  <PUBCHEM_ATOM_DEF_STEREO_COUNT>  (1) 
0

>  <PUBCHEM_ATOM_UDEF_STEREO_COUNT>  (1) 
0

>  <PUBCHEM_BOND_DEF_STEREO_COUNT>  (1) 
0

>  <PUBCHEM_BOND_UDEF_STEREO_COUNT>  (1) 
0

>  <PUBCHEM_ISOTOPIC_ATOM_COUNT>  (1) 
0

>  <PUBCHEM_COMPONENT_COUNT>  (1) 
1

>  <PUBCHEM_CACTVS_TAUTO_COUNT>  (1) 
1

>  <PUBCHEM_CONFORMER_ID>  (1) 
0000219800000001

>  <PUBCHEM_MMFF94_ENERGY>  (1) 
23.9263

>  <PUBCHEM_FEATURE_SELFOVERLAP>  (1) 
35.523

>  <PUBCHEM_SHAPE_FINGERPRINT>  (1) 
10989021 7 18337948970104752814
11578080 2 17821999870590553229
13540713 5 18202001032684945719
14844126 61 17111837727451428968
14955137 171 17836676048903559691
167882 2 18409160004882938749
187816 3 17765432437009820173
20028762 73 16614500060396825455
20600515 1 17768816368337341916
21665056 4 17760928845998621452
22849339 104 17399538100375476084
23366157 5 18333452044872059758
23402539 116 17840306954105535173
23419403 2 17897151447120158525
23557571 272 17693660316684858014
23728640 28 17688587591014402048
25147074 1 18131351913000007311
2748010 2 16902449468867330461
283562 15 17910116042706525449
43471831 8 18267302229947429139
69474 34 18050006584447907033
6992083 37 18055920883611664547
7364860 26 18412545414048215393
81228 2 17476090024752035499
90316 7 17833260922421601394
9709674 26 17696771208747272620
9981440 41 18121497127154904152

>  <PUBCHEM_SHAPE_MULTIPOLES>  (1) 
349.93
5.97
5.25
1.04
0.06
0.22
0
-0.14
0.03
8.86
-0.03
-0.26
-0.01
-1.4

>  <PUBCHEM_SHAPE_SELFOVERLAP>  (1) 
717.184

>  <PUBCHEM_SHAPE_VOLUME>  (1) 
201.8

>  <PUBCHEM_COORDINATE_TYPE>  (1) 
2
5
10

$$$$
