8602
     RDKit          3D

 14 15  0  0  1  0  0  0  0  0999 V2000
   -5.0142   -0.6882   -0.7297 Cl  0  0  0  0  0  0  0  0  0  0  0  0
   -0.5595   -1.0505    0.2268 O   0  0  0  0  0  0  0  0  0  0  0  0
    0.6750    2.7920   -0.2935 O   0  0  0  0  0  0  0  0  0  0  0  0
   -0.9706    1.2994    0.3209 N   0  0  0  0  0  0  0  0  0  0  0  0
   -1.2746    0.0010    0.8916 C   0  0  0  0  0  0  0  0  0  0  0  0
   -2.7602   -0.3046    0.7847 C   0  0  0  0  0  0  0  0  0  0  0  0
    0.7757   -0.7776    0.0863 C   0  0  0  0  0  0  0  0  0  0  0  0
    1.2701    0.5252   -0.0166 C   0  0  0  0  0  0  0  0  0  0  0  0
    0.3206    1.6551   -0.0062 C   0  0  0  0  0  0  0  0  0  0  0  0
   -3.2696   -0.3512   -0.6517 C   0  0  0  0  0  0  0  0  0  0  0  0
    1.6457   -1.8635   -0.0051 C   0  0  0  0  0  0  0  0  0  0  0  0
    2.6388    0.7475   -0.1852 C   0  0  0  0  0  0  0  0  0  0  0  0
    3.0137   -1.6434   -0.1681 C   0  0  0  0  0  0  0  0  0  0  0  0
    3.5091   -0.3412   -0.2540 C   0  0  0  0  0  0  0  0  0  0  0  0
  1 10  1  0
  2  5  1  0
  2  7  1  0
  3  9  2  0
  4  5  1  0
  4  9  1  0
  5  6  1  0
  6 10  1  0
  7  8  2  0
  7 11  1  0
  8  9  1  0
  8 12  1  0
 11 13  2  0
 12 14  2  0
 13 14  1  0
M  END
>  <PUBCHEM_COMPOUND_CID>  (1) 
8602

>  <PUBCHEM_CONFORMER_RMSD>  (1) 
0.6

>  <PUBCHEM_CONFORMER_DIVERSEORDER>  (1) 
1
8
5
4
7
12
19
18
13
14
6
9
15
3
2
16
17
11
10

>  <PUBCHEM_MMFF94_PARTIAL_CHARGES>  (1) 
18
1 -0.29
10 0.29
11 -0.15
12 -0.15
13 -0.15
14 -0.15
18 0.37
2 -0.36
21 0.15
22 0.15
23 0.15
24 0.15
3 -0.57
4 -0.73
5 0.58
7 0.08
8 0.09
9 0.54

>  <PUBCHEM_EFFECTIVE_ROTOR_COUNT>  (1) 
2.6

>  <PUBCHEM_PHARMACOPHORE_FEATURES>  (1) 
5
1 2 acceptor
1 3 acceptor
1 4 donor
6 2 4 5 7 8 9 rings
6 7 8 11 12 13 14 rings

>  <PUBCHEM_HEAVY_ATOM_COUNT>  (1) 
14

>  <PUBCHEM_ATOM_DEF_STEREO_COUNT>  (1) 
0

>  <PUBCHEM_ATOM_UDEF_STEREO_COUNT>  (1) 
1

>  <PUBCHEM_BOND_DEF_STEREO_COUNT>  (1) 
0

>  <PUBCHEM_BOND_UDEF_STEREO_COUNT>  (1) 
0

>  <PUBCHEM_ISOTOPIC_ATOM_COUNT>  (1) 
0

>  <PUBCHEM_COMPONENT_COUNT>  (1) 
1

>  <PUBCHEM_CACTVS_TAUTO_COUNT>  (1) 
2

>  <PUBCHEM_CONFORMER_ID>  (1) 
0000219A00000001

>  <PUBCHEM_MMFF94_ENERGY>  (1) 
35.6731

>  <PUBCHEM_FEATURE_SELFOVERLAP>  (1) 
25.405

>  <PUBCHEM_SHAPE_FINGERPRINT>  (1) 
10219947 1 18411987965832024690
11206711 2 18117853105091632150
11471102 20 18408884070366131711
11578080 2 17630581488991357913
11806522 49 18272929453265104427
12032990 46 18337401464975040850
12654215 9 18259981599888498676
13571099 22 18410575106407051187
14251717 144 18411698811411616775
14576447 43 18271800259208426143
14911166 2 18335423490700942391
14993402 34 18343305880986455758
15477762 27 18412542145678531447
15757776 16 18411134723255081590
15848700 24 18411133623838087676
16945 1 18337686302995358464
18186145 218 17822003212560483011
193761 8 17617950565862358386
200 152 18272366451772166479
20201158 50 18333171665180802379
20606313 2 18408321111701547447
20645477 70 18338233873040300767
20671657 53 18412545392673625365
21256008 61 18341890814064232607
21501502 16 18121789335355003312
21501925 9 18410005503734047922
221357 26 18335404752808585597
221490 88 18192153926389586491
2334 1 17618230941042604696
23388829 49 18342464728831939688
23402539 116 18341045212128627110
23402655 69 18410288095586644517
2748010 2 18265338317744690244
3060560 45 18412538842632682639
3071541 158 18114467854481351556
3286 77 17346311566739197770
4072396 5 18189315979419094912
581208 293 18341611538195069640
7364860 26 18271242853830891504
81228 2 18045510715962311296

>  <PUBCHEM_SHAPE_MULTIPOLES>  (1) 
273.26
6.78
2.02
0.81
7.25
0.94
-0.04
-2.81
1.77
-1.22
0.16
0.48
-0.04
-0.21

>  <PUBCHEM_SHAPE_SELFOVERLAP>  (1) 
571.028

>  <PUBCHEM_SHAPE_VOLUME>  (1) 
155.1

>  <PUBCHEM_COORDINATE_TYPE>  (1) 
2
5
10

$$$$
