8607
     RDKit          3D

 16 17  0  0  0  0  0  0  0  0999 V2000
   -4.7876    0.0003   -0.0794 Cl  0  0  0  0  0  0  0  0  0  0  0  0
   -2.5988    1.4593   -1.3026 Cl  0  0  0  0  0  0  0  0  0  0  0  0
   -2.5986   -1.4601   -1.3011 Cl  0  0  0  0  0  0  0  0  0  0  0  0
   -2.1673    0.0002    1.2572 S   0  0  0  0  0  0  0  0  0  0  0  0
   -0.1529   -2.3224    0.6353 O   0  0  0  0  0  0  0  0  0  0  0  0
   -0.1525    2.3226    0.6356 O   0  0  0  0  0  0  0  0  0  0  0  0
   -0.5622    0.0001    0.7613 N   0  0  0  0  0  0  0  0  0  0  0  0
    1.4907   -0.6944    0.1271 C   0  0  0  0  0  0  0  0  0  0  0  0
    1.4907    0.6943    0.1269 C   0  0  0  0  0  0  0  0  0  0  0  0
    0.1616   -1.1508    0.5378 C   0  0  0  0  0  0  0  0  0  0  0  0
    0.1617    1.1509    0.5376 C   0  0  0  0  0  0  0  0  0  0  0  0
    2.6097   -1.4240   -0.2182 C   0  0  0  0  0  0  0  0  0  0  0  0
    2.6097    1.4240   -0.2180 C   0  0  0  0  0  0  0  0  0  0  0  0
    3.7551   -0.7050   -0.5714 C   0  0  0  0  0  0  0  0  0  0  0  0
    3.7552    0.7049   -0.5711 C   0  0  0  0  0  0  0  0  0  0  0  0
   -3.0146    0.0002   -0.3570 C   0  0  0  0  0  0  0  0  0  0  0  0
  1 16  1  0
  2 16  1  0
  3 16  1  0
  4  7  1  0
  4 16  1  0
  5 10  2  0
  6 11  2  0
  7 10  1  0
  7 11  1  0
  8  9  2  0
  8 10  1  0
  8 12  1  0
  9 11  1  0
  9 13  1  0
 12 14  2  0
 13 15  2  0
 14 15  1  0
M  END
>  <PUBCHEM_COMPOUND_CID>  (1) 
8607

>  <PUBCHEM_CONFORMER_RMSD>  (1) 
0.6

>  <PUBCHEM_CONFORMER_DIVERSEORDER>  (1) 
1

>  <PUBCHEM_MMFF94_PARTIAL_CHARGES>  (1) 
20
1 -0.29
10 0.54
11 0.54
12 -0.15
13 -0.15
14 -0.15
15 -0.15
16 1.1
17 0.15
18 0.15
19 0.15
2 -0.29
20 0.15
3 -0.29
4 -0.22
5 -0.57
6 -0.57
7 -0.13
8 0.09
9 0.09

>  <PUBCHEM_EFFECTIVE_ROTOR_COUNT>  (1) 
2.2

>  <PUBCHEM_PHARMACOPHORE_FEATURES>  (1) 
4
1 5 acceptor
1 6 acceptor
5 7 8 9 10 11 rings
6 8 9 12 13 14 15 rings

>  <PUBCHEM_HEAVY_ATOM_COUNT>  (1) 
16

>  <PUBCHEM_ATOM_DEF_STEREO_COUNT>  (1) 
0

>  <PUBCHEM_ATOM_UDEF_STEREO_COUNT>  (1) 
0

>  <PUBCHEM_BOND_DEF_STEREO_COUNT>  (1) 
0

>  <PUBCHEM_BOND_UDEF_STEREO_COUNT>  (1) 
0

>  <PUBCHEM_ISOTOPIC_ATOM_COUNT>  (1) 
0

>  <PUBCHEM_COMPONENT_COUNT>  (1) 
1

>  <PUBCHEM_CACTVS_TAUTO_COUNT>  (1) 
1

>  <PUBCHEM_CONFORMER_ID>  (1) 
0000219F00000001

>  <PUBCHEM_MMFF94_ENERGY>  (1) 
32.6503

>  <PUBCHEM_FEATURE_SELFOVERLAP>  (1) 
20.39

>  <PUBCHEM_SHAPE_FINGERPRINT>  (1) 
10062212 137 18190447277620105378
10498660 4 17023731322265524229
11206711 2 18263658264051334188
11401426 45 18341890809895787976
11471102 20 18409735062285473960
12236239 1 17775576321066055009
12730499 353 17968097470142766507
13583140 156 16371281255176007992
14576447 43 18130499846489989647
14911166 2 18409739460627429702
14993402 34 18060424624619235447
15775835 57 18410854386834802455
16945 1 18338530689697903304
17844478 74 17895208722053945521
18186145 218 18408602552318435390
200 152 18201720622232506964
20645477 70 18412267194483142190
20871999 31 18342450474262739567
21634736 98 18271806847629898004
221490 88 18124597741371472355
22802520 49 17978504561873297223
23402539 116 18411976954015704902
23402655 69 18413110554218881413
23493267 7 17312828173313631408
23557571 272 16630246905509977688
23559900 14 18342177804559764080
25 1 18333729100654691427
2748010 2 17401772316028431592
2871803 45 18334569127743878381
3323516 105 18411132563144871253
353137 74 18338234851775795152
4028521 119 17676758795819966141
63268167 104 18342175587459697761

>  <PUBCHEM_SHAPE_MULTIPOLES>  (1) 
322.01
7.06
1.96
1.13
1.94
0
-0.09
0
-2.06
-0.25
-0.03
0.73
0
0

>  <PUBCHEM_SHAPE_SELFOVERLAP>  (1) 
655.347

>  <PUBCHEM_SHAPE_VOLUME>  (1) 
189.5

>  <PUBCHEM_COORDINATE_TYPE>  (1) 
2
5
10

$$$$
