8609
     RDKit          3D

 17 18  0  0  0  0  0  0  0  0999 V2000
   -0.8864   -0.6317   -0.3229 O   0  0  0  0  0  0  0  0  0  0  0  0
    1.8523    2.4029    0.1740 O   0  0  0  0  0  0  0  0  0  0  0  0
   -0.5679    1.3397    0.8805 O   0  0  0  0  0  0  0  0  0  0  0  0
    5.3903   -0.8198   -0.2861 N   0  0  0  0  0  0  0  0  0  0  0  0
    1.3069    0.0674    0.1372 C   0  0  0  0  0  0  0  0  0  0  0  0
    2.2434    1.1001    0.0877 C   0  0  0  0  0  0  0  0  0  0  0  0
    1.7264   -1.2597    0.0462 C   0  0  0  0  0  0  0  0  0  0  0  0
    4.0191   -0.5218   -0.1440 C   0  0  0  0  0  0  0  0  0  0  0  0
    3.5997    0.8055   -0.0529 C   0  0  0  0  0  0  0  0  0  0  0  0
    3.0825   -1.5543   -0.0944 C   0  0  0  0  0  0  0  0  0  0  0  0
   -0.1135    0.3541    0.2852 C   0  0  0  0  0  0  0  0  0  0  0  0
   -2.2640   -0.4204   -0.2196 C   0  0  0  0  0  0  0  0  0  0  0  0
   -2.8975    0.3032   -1.2051 C   0  0  0  0  0  0  0  0  0  0  0  0
   -2.9333   -0.9440    0.8639 C   0  0  0  0  0  0  0  0  0  0  0  0
   -4.2723    0.5146   -1.1015 C   0  0  0  0  0  0  0  0  0  0  0  0
   -4.3083   -0.7327    0.9673 C   0  0  0  0  0  0  0  0  0  0  0  0
   -4.9777   -0.0033   -0.0155 C   0  0  0  0  0  0  0  0  0  0  0  0
  1 11  1  0
  1 12  1  0
  2  6  1  0
  3 11  2  0
  4  8  1  0
  5  6  2  0
  5  7  1  0
  5 11  1  0
  6  9  1  0
  7 10  2  0
  8  9  2  0
  8 10  1  0
 12 13  2  0
 12 14  1  0
 13 15  1  0
 14 16  2  0
 15 17  2  0
 16 17  1  0
M  END
>  <PUBCHEM_COMPOUND_CID>  (1) 
8609

>  <PUBCHEM_CONFORMER_RMSD>  (1) 
0.6

>  <PUBCHEM_CONFORMER_DIVERSEORDER>  (1) 
1
30
41
7
35
34
4
38
18
23
3
32
13
9
26
40
31
5
36
2
27
21
29
39
37
8
33
22
19
17
6
24
14
25
12
16
15
11
10
20
28

>  <PUBCHEM_MMFF94_PARTIAL_CHARGES>  (1) 
28
1 -0.23
10 -0.15
11 0.63
12 0.08
13 -0.15
14 -0.15
15 -0.15
16 -0.15
17 -0.15
18 0.15
19 0.15
2 -0.53
20 0.15
21 0.15
22 0.15
23 0.15
24 0.15
25 0.15
26 0.4
27 0.4
28 0.45
3 -0.57
4 -0.9
5 0.09
6 0.08
7 -0.15
8 0.1
9 -0.15

>  <PUBCHEM_EFFECTIVE_ROTOR_COUNT>  (1) 
3

>  <PUBCHEM_PHARMACOPHORE_FEATURES>  (1) 
6
1 2 donor
1 3 acceptor
1 4 cation
1 4 donor
6 12 13 14 15 16 17 rings
6 5 6 7 8 9 10 rings

>  <PUBCHEM_HEAVY_ATOM_COUNT>  (1) 
17

>  <PUBCHEM_ATOM_DEF_STEREO_COUNT>  (1) 
0

>  <PUBCHEM_ATOM_UDEF_STEREO_COUNT>  (1) 
0

>  <PUBCHEM_BOND_DEF_STEREO_COUNT>  (1) 
0

>  <PUBCHEM_BOND_UDEF_STEREO_COUNT>  (1) 
0

>  <PUBCHEM_ISOTOPIC_ATOM_COUNT>  (1) 
0

>  <PUBCHEM_COMPONENT_COUNT>  (1) 
1

>  <PUBCHEM_CACTVS_TAUTO_COUNT>  (1) 
12

>  <PUBCHEM_CONFORMER_ID>  (1) 
000021A100000001

>  <PUBCHEM_MMFF94_ENERGY>  (1) 
67.3488

>  <PUBCHEM_FEATURE_SELFOVERLAP>  (1) 
30.446

>  <PUBCHEM_SHAPE_FINGERPRINT>  (1) 
11287383 113 17675929819512501590
11471102 20 18412543232220679276
11615757 297 18343586261031134595
12236239 1 17275386517006785051
13296908 3 18260265269904649443
13675066 3 18410290354254216801
13760787 5 18131633404265290565
14252887 29 17988929933918102478
15219456 202 18261108603923572727
15242439 84 18114177527935434479
15653759 3 17894347795996560127
18186145 218 18040710381365346361
19026448 4 18040714792391639801
19433438 38 17821727208744574398
200 152 18131067117074664592
20279233 1 18187086156800426387
20645477 70 18413670197158534014
21065201 7 17167856478643540113
21267235 1 18342466915387011718
221357 26 18409439268310220693
221490 88 18263651830069135458
22646028 1 17561361790193116631
2297311 6 17458633302466700367
23175994 123 18411985758619891021
23402539 116 13038900011337214441
23402655 69 18411699885295690284
23536379 177 16443061673857898610
23557571 272 17386005044439781215
23559900 14 18040149613070649486
26918003 58 18409449184761751682
2871803 45 18337392643607989478
4214541 1 18335140891038684651
4990 188 17676487233174132498
5104073 3 18337672017786342251
5281201 14 18040718073393401973
542803 24 14129058110395629647
573450 72 15913609454336013327
602551 16 16660651820442803747
7495541 125 17894635885091031306
74978 22 17273969319453839567
77779 3 18187083966387918607
9709674 26 18116154557179818331
9971528 1 17988920076883658160

>  <PUBCHEM_SHAPE_MULTIPOLES>  (1) 
327.26
10.48
1.5
0.92
1.24
0.42
0.06
-1.74
0.99
-1.15
-0.17
0.89
0.04
0.78

>  <PUBCHEM_SHAPE_SELFOVERLAP>  (1) 
711.662

>  <PUBCHEM_SHAPE_VOLUME>  (1) 
177.3

>  <PUBCHEM_COORDINATE_TYPE>  (1) 
2
5
10

$$$$
