8610
     RDKit          3D

 13 12  0  0  0  0  0  0  0  0999 V2000
    2.3450   -0.1470   -0.4865 O   0  0  0  0  0  0  0  0  0  0  0  0
   -2.3694   -0.1634   -0.4730 O   0  0  0  0  0  0  0  0  0  0  0  0
    1.3278    1.5161    0.7398 O   0  0  0  0  0  0  0  0  0  0  0  0
   -1.3569    1.5067    0.7475 O   0  0  0  0  0  0  0  0  0  0  0  0
   -0.0118   -0.1932   -0.3773 C   0  0  0  0  0  0  0  0  0  0  0  0
   -0.0052   -1.6576    0.0914 C   0  0  0  0  0  0  0  0  0  0  0  0
    1.2701    0.5131    0.0415 C   0  0  0  0  0  0  0  0  0  0  0  0
   -1.2961    0.5041    0.0489 C   0  0  0  0  0  0  0  0  0  0  0  0
    0.1470   -1.8220    1.5995 C   0  0  0  0  0  0  0  0  0  0  0  0
    3.6261    0.4102   -0.1753 C   0  0  0  0  0  0  0  0  0  0  0  0
   -3.6525    0.3848   -0.1546 C   0  0  0  0  0  0  0  0  0  0  0  0
    4.6940   -0.4093   -0.8143 C   0  0  0  0  0  0  0  0  0  0  0  0
   -4.7181   -0.4422   -0.7877 C   0  0  0  0  0  0  0  0  0  0  0  0
  1  7  1  0
  1 10  1  0
  2  8  1  0
  2 11  1  0
  3  7  2  0
  4  8  2  0
  5  6  1  0
  5  7  1  0
  5  8  1  0
  6  9  1  0
 10 12  1  0
 11 13  1  0
M  END
>  <PUBCHEM_COMPOUND_CID>  (1) 
8610

>  <PUBCHEM_CONFORMER_RMSD>  (1) 
0.8

>  <PUBCHEM_CONFORMER_DIVERSEORDER>  (1) 
1
11
49
20
21
58
48
69
37
63
73
76
22
30
43
54
47
38
44
51
36
57
13
56
75
6
46
72
42
8
64
19
29
5
15
25
23
18
2
34
40
12
59
71
14
60
3
74
7
26
78
55
33
65
10
41
67
68
17
24
28
50
16
27
52
39
70
9
35
32
77
4
53
31
66
45
61
62

>  <PUBCHEM_MMFF94_PARTIAL_CHARGES>  (1) 
9
1 -0.43
10 0.28
11 0.28
2 -0.43
3 -0.57
4 -0.57
5 0.12
7 0.66
8 0.66

>  <PUBCHEM_EFFECTIVE_ROTOR_COUNT>  (1) 
7

>  <PUBCHEM_PHARMACOPHORE_FEATURES>  (1) 
4
1 3 acceptor
1 4 acceptor
1 5 anion
1 9 hydrophobe

>  <PUBCHEM_HEAVY_ATOM_COUNT>  (1) 
13

>  <PUBCHEM_ATOM_DEF_STEREO_COUNT>  (1) 
0

>  <PUBCHEM_ATOM_UDEF_STEREO_COUNT>  (1) 
0

>  <PUBCHEM_BOND_DEF_STEREO_COUNT>  (1) 
0

>  <PUBCHEM_BOND_UDEF_STEREO_COUNT>  (1) 
0

>  <PUBCHEM_ISOTOPIC_ATOM_COUNT>  (1) 
0

>  <PUBCHEM_COMPONENT_COUNT>  (1) 
1

>  <PUBCHEM_CACTVS_TAUTO_COUNT>  (1) 
1

>  <PUBCHEM_CONFORMER_ID>  (1) 
000021A200000001

>  <PUBCHEM_MMFF94_ENERGY>  (1) 
9.6745

>  <PUBCHEM_FEATURE_SELFOVERLAP>  (1) 
20.305

>  <PUBCHEM_SHAPE_FINGERPRINT>  (1) 
10219947 1 17312821563305981183
10465860 250 13686297967529189095
10922049 32 18040438801771986483
11062470 55 12829487047653129453
12032990 46 18201439228965579135
12119455 92 16443060603793980422
13690532 89 18343302556929409134
14911166 2 18409731776677645228
14993402 34 17749111105823067692
15048467 5 11818995184028623222
15775835 57 18114178631362377199
16945 1 18272091603745201866
18186145 218 18336253635176090565
187816 3 18410296912737804020
200 152 16200436857834744046
20645476 183 17313108596076238218
20711985 327 10735872889392530107
21119208 17 17846778511836619581
21293036 1 18408041814315453980
21501502 16 17753035112651926805
22713019 99 18343585152760929598
23402539 116 18131067112795716724
23402655 69 18337663119336914381
23559900 14 18410858806920684684
3250762 1 17760933243681096856
366044 4 18334295379112983898
449060 50 11963390743153002164
4990 188 18343866610425863502
528862 383 17313936421068541290
69090 78 18131629010629876030
81539 233 16950274079394134923

>  <PUBCHEM_SHAPE_MULTIPOLES>  (1) 
244.06
7.72
1.48
1.02
0.3
0.6
0.19
-0.53
-3.38
-0.04
0.65
-0.04
0.2
-0.05

>  <PUBCHEM_SHAPE_SELFOVERLAP>  (1) 
461.757

>  <PUBCHEM_SHAPE_VOLUME>  (1) 
151

>  <PUBCHEM_COORDINATE_TYPE>  (1) 
2
5
10

$$$$
