8616
     RDKit          3D

 19 21  0  0  0  0  0  0  0  0999 V2000
   -1.5674    1.5639    0.1093 O   0  0  0  0  0  0  0  0  0  0  0  0
   -2.6906   -1.7628   -0.3165 O   0  0  0  0  0  0  0  0  0  0  0  0
    3.2568    1.1963    0.1399 O   0  0  0  0  0  0  0  0  0  0  0  0
    5.5300    0.9173    0.1377 O   0  0  0  0  0  0  0  0  0  0  0  0
   -3.9245    1.1232    0.0181 C   0  0  0  0  0  0  0  0  0  0  0  0
   -2.5412    0.6260   -0.0215 C   0  0  0  0  0  0  0  0  0  0  0  0
   -0.5847   -0.4574   -0.1236 C   0  0  0  0  0  0  0  0  0  0  0  0
   -1.9940   -0.6276   -0.1668 C   0  0  0  0  0  0  0  0  0  0  0  0
   -0.3743    0.9078    0.0475 C   0  0  0  0  0  0  0  0  0  0  0  0
    0.5335   -1.3100   -0.2106 C   0  0  0  0  0  0  0  0  0  0  0  0
   -4.7414    0.5587    1.2065 C   0  0  0  0  0  0  0  0  0  0  0  0
   -4.7031    0.8655   -1.2953 C   0  0  0  0  0  0  0  0  0  0  0  0
    1.8185   -0.7519   -0.1219 C   0  0  0  0  0  0  0  0  0  0  0  0
    0.8820    1.5017    0.1404 C   0  0  0  0  0  0  0  0  0  0  0  0
    1.9664    0.6245    0.0496 C   0  0  0  0  0  0  0  0  0  0  0  0
    3.0122   -1.5788   -0.2051 C   0  0  0  0  0  0  0  0  0  0  0  0
    4.2249   -1.0271   -0.1188 C   0  0  0  0  0  0  0  0  0  0  0  0
    4.4103    0.4236    0.0622 C   0  0  0  0  0  0  0  0  0  0  0  0
   -2.5136   -2.7927    0.6690 C   0  0  0  0  0  0  0  0  0  0  0  0
  1  6  1  0
  1  9  1  0
  2  8  1  0
  2 19  1  0
  3 15  1  0
  3 18  1  0
  4 18  2  0
  5  6  1  0
  5 11  1  0
  5 12  1  0
  6  8  2  0
  7  8  1  0
  7  9  2  0
  7 10  1  0
  9 14  1  0
 10 13  2  0
 13 15  1  0
 13 16  1  0
 14 15  2  0
 16 17  2  0
 17 18  1  0
M  END
>  <PUBCHEM_COMPOUND_CID>  (1) 
8616

>  <PUBCHEM_CONFORMER_RMSD>  (1) 
0.6

>  <PUBCHEM_CONFORMER_DIVERSEORDER>  (1) 
1
2

>  <PUBCHEM_MMFF94_PARTIAL_CHARGES>  (1) 
20
1 -0.28
10 -0.15
13 0.03
14 -0.15
15 0.08
16 -0.18
17 -0.14
18 0.71
19 0.28
2 -0.34
21 0.15
28 0.15
29 0.15
3 -0.23
30 0.15
4 -0.57
5 0.18
6 -0.04
8 0.06
9 0.14

>  <PUBCHEM_EFFECTIVE_ROTOR_COUNT>  (1) 
2

>  <PUBCHEM_PHARMACOPHORE_FEATURES>  (1) 
7
1 1 acceptor
1 2 acceptor
1 4 acceptor
3 5 11 12 hydrophobe
5 1 6 7 8 9 rings
6 3 13 15 16 17 18 rings
6 7 9 10 13 14 15 rings

>  <PUBCHEM_HEAVY_ATOM_COUNT>  (1) 
19

>  <PUBCHEM_ATOM_DEF_STEREO_COUNT>  (1) 
0

>  <PUBCHEM_ATOM_UDEF_STEREO_COUNT>  (1) 
0

>  <PUBCHEM_BOND_DEF_STEREO_COUNT>  (1) 
0

>  <PUBCHEM_BOND_UDEF_STEREO_COUNT>  (1) 
0

>  <PUBCHEM_ISOTOPIC_ATOM_COUNT>  (1) 
0

>  <PUBCHEM_COMPONENT_COUNT>  (1) 
1

>  <PUBCHEM_CACTVS_TAUTO_COUNT>  (1) 
1

>  <PUBCHEM_CONFORMER_ID>  (1) 
000021A800000001

>  <PUBCHEM_MMFF94_ENERGY>  (1) 
50.3436

>  <PUBCHEM_FEATURE_SELFOVERLAP>  (1) 
35.653

>  <PUBCHEM_SHAPE_FINGERPRINT>  (1) 
10014705 185 18260825999301989165
10062212 137 18411411851856751046
10366900 7 17775277261876153456
10616163 171 18340208591275683646
10906281 52 18130521746792008157
10967382 1 18339643330608400686
11132069 177 18409164411445147864
11471102 20 18341046337758016956
11578080 2 16986857172376535003
12236239 1 17704070651890455729
12251169 10 18410579478573034225
12403814 3 17894629236624309677
12500047 106 18408035225967516599
12969540 114 17970045804599486549
13140716 1 18268435805230297129
13214271 11 18341893030088106926
13380535 76 18341894056864995359
13675066 3 17967820431155115833
13760787 19 18186802487306352594
13760787 5 18271524204422121701
14115302 16 18334022674242947941
15196674 1 18411981382090317014
15375358 24 18341895164644719854
15536298 74 18272089370979392934
16945 1 18339364054733865511
18186145 218 18186516592723917934
200 152 17561077012449904445
20510252 161 18128256683940166577
20602899 9 16056593287970570367
20645477 56 18261108573727173437
20645477 70 17917430874422658182
21029758 11 18272643515928669273
21033648 29 18261940870013137365
21267235 1 18340778026972320870
221490 88 18265338489522159770
23402539 116 18040990769910483924
23402655 69 18271802402227983380
23559900 14 18412545388874854902
2748010 2 18341049734866177503
296302 2 18060138725778743661
300161 21 18409158922735477876
3312278 4 18412828005595155850
335352 9 18339361860127091822
34934 24 18409442570570098854
350125 39 18266465489183255691
3545911 37 18411421708933049044
4214541 1 18410573998041627783
4340502 62 16733554814843069961
5104073 3 18411978092171742914
542803 24 17132114619588865897
69090 78 18341327812623970815
8809292 202 18408608062804031419
9709674 26 18343305833836962550

>  <PUBCHEM_SHAPE_MULTIPOLES>  (1) 
367.53
10.01
2.06
0.81
2.97
1.21
0.02
-2.14
-0.13
-0.74
-0.2
-0.88
-0.03
0.47

>  <PUBCHEM_SHAPE_SELFOVERLAP>  (1) 
806.435

>  <PUBCHEM_SHAPE_VOLUME>  (1) 
201.1

>  <PUBCHEM_COORDINATE_TYPE>  (1) 
2
5
10

$$$$
