8623
     RDKit          3D

 11 11  0  0  0  0  0  0  0  0999 V2000
    2.3120   -0.3613   -1.6473 Cl  0  0  0  0  0  0  0  0  0  0  0  0
    1.7293    0.3181    0.1926 S   0  0  0  0  0  0  0  0  0  0  0  0
    2.1830   -0.6698    1.1517 O   0  0  0  0  0  0  0  0  0  0  0  0
    2.1644    1.7004    0.2410 O   0  0  0  0  0  0  0  0  0  0  0  0
   -0.0156    0.2439    0.0817 C   0  0  0  0  0  0  0  0  0  0  0  0
   -0.6865   -0.9785    0.0482 C   0  0  0  0  0  0  0  0  0  0  0  0
   -0.7364    1.4369    0.0263 C   0  0  0  0  0  0  0  0  0  0  0  0
   -2.0782   -1.0081   -0.0408 C   0  0  0  0  0  0  0  0  0  0  0  0
    0.0552   -2.2738    0.1057 C   0  0  0  0  0  0  0  0  0  0  0  0
   -2.1281    1.4073   -0.0627 C   0  0  0  0  0  0  0  0  0  0  0  0
   -2.7991    0.1848   -0.0963 C   0  0  0  0  0  0  0  0  0  0  0  0
  1  2  1  0
  2  3  2  0
  2  4  2  0
  2  5  1  0
  5  6  2  0
  5  7  1  0
  6  8  1  0
  6  9  1  0
  7 10  2  0
  8 11  2  0
 10 11  1  0
M  END
>  <PUBCHEM_COMPOUND_CID>  (1) 
8623

>  <PUBCHEM_CONFORMER_RMSD>  (1) 
0.4

>  <PUBCHEM_CONFORMER_DIVERSEORDER>  (1) 
1
3
2
4

>  <PUBCHEM_MMFF94_PARTIAL_CHARGES>  (1) 
15
1 -0.19
10 -0.15
11 -0.15
12 0.15
13 0.15
17 0.15
18 0.15
2 1.49
3 -0.65
4 -0.65
5 -0.01
6 -0.14
7 -0.15
8 -0.15
9 0.14

>  <PUBCHEM_EFFECTIVE_ROTOR_COUNT>  (1) 
1

>  <PUBCHEM_PHARMACOPHORE_FEATURES>  (1) 
1
6 5 6 7 8 10 11 rings

>  <PUBCHEM_HEAVY_ATOM_COUNT>  (1) 
11

>  <PUBCHEM_ATOM_DEF_STEREO_COUNT>  (1) 
0

>  <PUBCHEM_ATOM_UDEF_STEREO_COUNT>  (1) 
0

>  <PUBCHEM_BOND_DEF_STEREO_COUNT>  (1) 
0

>  <PUBCHEM_BOND_UDEF_STEREO_COUNT>  (1) 
0

>  <PUBCHEM_ISOTOPIC_ATOM_COUNT>  (1) 
0

>  <PUBCHEM_COMPONENT_COUNT>  (1) 
1

>  <PUBCHEM_CACTVS_TAUTO_COUNT>  (1) 
1

>  <PUBCHEM_CONFORMER_ID>  (1) 
000021AF00000001

>  <PUBCHEM_MMFF94_ENERGY>  (1) 
20.9041

>  <PUBCHEM_FEATURE_SELFOVERLAP>  (1) 
5.074

>  <PUBCHEM_SHAPE_FINGERPRINT>  (1) 
12423570 1 17390509593086209484
12524768 44 18198910394754694333
12716758 59 18338530727936020478
12897270 3 18410857637935154333
12932764 1 18259707787297104229
15775835 57 18187086130882858100
16945 1 18339923697631021145
20201158 50 17989218022832992006
20645464 45 18201995560137098496
20645476 183 17677061233967857591
20871998 184 17768533046498482687
21040471 1 18337671910512411667
22802520 49 18199772338999066054
23552423 10 18333450966856432471
23559900 14 18127421060357990286
241688 4 17185874991504994347
2748010 2 18338516455875701293
369184 2 18334284396876080041
5084963 1 18060425689718338298
8030462 33 18113338625990353695

>  <PUBCHEM_SHAPE_MULTIPOLES>  (1) 
220.36
3.77
1.91
0.98
0.08
0.37
-0.24
-0.64
-0.47
0.12
0.16
-0.82
0.12
0.13

>  <PUBCHEM_SHAPE_SELFOVERLAP>  (1) 
435.275

>  <PUBCHEM_SHAPE_VOLUME>  (1) 
133.2

>  <PUBCHEM_COORDINATE_TYPE>  (1) 
2
5
10

$$$$
