8625
     RDKit          3D

 35 37  0  0  0  0  0  0  0  0999 V2000
    6.4687    0.8597    0.3057 S   0  0  0  0  0  0  0  0  0  0  0  0
   -1.0018    3.2274   -0.2579 S   0  0  0  0  0  0  0  0  0  0  0  0
   -7.8975   -1.1885    0.0126 S   0  0  0  0  0  0  0  0  0  0  0  0
    0.2493   -1.7349   -0.4358 O   0  0  0  0  0  0  0  0  0  0  0  0
    7.1479    0.5266   -1.1420 O   0  0  0  0  0  0  0  0  0  0  0  0
   -1.8237    3.1043    1.1486 O   0  0  0  0  0  0  0  0  0  0  0  0
    6.5530    2.2986    0.4968 O   0  0  0  0  0  0  0  0  0  0  0  0
    7.0209   -0.0568    1.2889 O   0  0  0  0  0  0  0  0  0  0  0  0
   -0.2550    4.4741   -0.2090 O   0  0  0  0  0  0  0  0  0  0  0  0
   -1.9227    2.9523   -1.3479 O   0  0  0  0  0  0  0  0  0  0  0  0
    3.9535   -3.8557   -0.2217 O   0  0  0  0  0  0  0  0  0  0  0  0
   -8.1141   -2.5501    0.4811 O   0  0  0  0  0  0  0  0  0  0  0  0
   -8.6819   -0.0973    0.5738 O   0  0  0  0  0  0  0  0  0  0  0  0
    5.2901   -1.9300    0.0252 N   0  0  0  0  0  0  0  0  0  0  0  0
   -1.6197    0.2781   -0.4930 N   0  0  0  0  0  0  0  0  0  0  0  0
   -2.1415    0.1143    0.6333 N   0  0  0  0  0  0  0  0  0  0  0  0
   -8.0561   -1.1590   -1.6885 N   0  0  0  0  0  0  0  0  0  0  0  0
    2.4683    1.1878   -0.0519 C   0  0  0  0  0  0  0  0  0  0  0  0
    2.0500   -0.1588   -0.1729 C   0  0  0  0  0  0  0  0  0  0  0  0
    4.7775    0.4426    0.1211 C   0  0  0  0  0  0  0  0  0  0  0  0
    4.3663   -0.8815    0.0021 C   0  0  0  0  0  0  0  0  0  0  0  0
    3.8358    1.4717    0.0945 C   0  0  0  0  0  0  0  0  0  0  0  0
    0.1520    1.9106   -0.2272 C   0  0  0  0  0  0  0  0  0  0  0  0
    3.0118   -1.1818   -0.1441 C   0  0  0  0  0  0  0  0  0  0  0  0
    1.5065    2.2108   -0.0810 C   0  0  0  0  0  0  0  0  0  0  0  0
    0.6824   -0.4427   -0.3194 C   0  0  0  0  0  0  0  0  0  0  0  0
   -0.2593    0.5864   -0.3462 C   0  0  0  0  0  0  0  0  0  0  0  0
    5.0398   -3.3030   -0.0823 C   0  0  0  0  0  0  0  0  0  0  0  0
   -3.5047   -0.1944    0.4867 C   0  0  0  0  0  0  0  0  0  0  0  0
   -6.2041   -0.8055    0.1957 C   0  0  0  0  0  0  0  0  0  0  0  0
   -3.9033   -1.5222    0.3693 C   0  0  0  0  0  0  0  0  0  0  0  0
   -4.4458    0.8302    0.4597 C   0  0  0  0  0  0  0  0  0  0  0  0
    6.3126   -4.1088   -0.0113 C   0  0  0  0  0  0  0  0  0  0  0  0
   -5.2563   -1.8286    0.2233 C   0  0  0  0  0  0  0  0  0  0  0  0
   -5.7989    0.5240    0.3138 C   0  0  0  0  0  0  0  0  0  0  0  0
  1  5  1  0
  1  7  2  0
  1  8  2  0
  1 20  1  0
  2  6  1  0
  2  9  2  0
  2 10  2  0
  2 23  1  0
  3 12  2  0
  3 13  2  0
  3 17  1  0
  3 30  1  0
  4 26  1  0
 11 28  2  0
 14 21  1  0
 14 28  1  0
 15 16  2  0
 15 27  1  0
 16 29  1  0
 18 19  1  0
 18 22  2  0
 18 25  1  0
 19 24  2  0
 19 26  1  0
 20 21  2  0
 20 22  1  0
 21 24  1  0
 23 25  2  0
 23 27  1  0
 26 27  2  0
 28 33  1  0
 29 31  2  0
 29 32  1  0
 30 34  2  0
 30 35  1  0
 31 34  1  0
 32 35  2  0
M  END
>  <PUBCHEM_COMPOUND_CID>  (1) 
8625

>  <PUBCHEM_CONFORMER_RMSD>  (1) 
1

>  <PUBCHEM_CONFORMER_DIVERSEORDER>  (1) 
1
3
2

>  <PUBCHEM_MMFF94_PARTIAL_CHARGES>  (1) 
46
1 1.49
10 -0.65
11 -0.57
12 -0.65
13 -0.65
14 -0.55
15 -0.18
16 -0.18
17 -0.98
2 1.49
20 -0.01
21 0.12
22 -0.15
23 -0.01
24 -0.15
25 -0.15
26 0.08
27 0.18
28 0.57
29 0.18
3 1.45
30 -0.01
31 -0.15
32 -0.15
33 0.06
34 -0.15
35 -0.15
36 0.15
37 0.15
38 0.15
39 0.37
4 -0.53
40 0.45
41 0.5
42 0.5
43 0.15
44 0.15
45 0.15
46 0.15
5 -0.68
50 0.42
51 0.42
6 -0.68
7 -0.65
8 -0.65
9 -0.65

>  <PUBCHEM_EFFECTIVE_ROTOR_COUNT>  (1) 
7

>  <PUBCHEM_PHARMACOPHORE_FEATURES>  (1) 
17
1 10 acceptor
1 11 acceptor
1 12 acceptor
1 13 acceptor
1 14 donor
1 17 donor
1 4 donor
1 5 acceptor
1 6 acceptor
1 7 acceptor
1 8 acceptor
1 9 acceptor
4 1 5 7 8 anion
4 2 6 9 10 anion
6 18 19 20 21 22 24 rings
6 18 19 23 25 26 27 rings
6 29 30 31 32 34 35 rings

>  <PUBCHEM_HEAVY_ATOM_COUNT>  (1) 
35

>  <PUBCHEM_ATOM_DEF_STEREO_COUNT>  (1) 
0

>  <PUBCHEM_ATOM_UDEF_STEREO_COUNT>  (1) 
0

>  <PUBCHEM_BOND_DEF_STEREO_COUNT>  (1) 
0

>  <PUBCHEM_BOND_UDEF_STEREO_COUNT>  (1) 
0

>  <PUBCHEM_ISOTOPIC_ATOM_COUNT>  (1) 
0

>  <PUBCHEM_COMPONENT_COUNT>  (1) 
1

>  <PUBCHEM_CACTVS_TAUTO_COUNT>  (1) 
6

>  <PUBCHEM_CONFORMER_ID>  (1) 
000021B100000001

>  <PUBCHEM_MMFF94_ENERGY>  (1) 
70.5175

>  <PUBCHEM_FEATURE_SELFOVERLAP>  (1) 
86.437

>  <PUBCHEM_SHAPE_FINGERPRINT>  (1) 
10050765 1 18265896857210180448
10411042 1 18337955588654318940
11135609 127 10953749932358517470
11456790 92 18271260412949363441
11497681 19 18411422774285359854
117089 54 18052829048594521150
11796584 16 17167864218111486371
11963148 33 18336823186827432010
12166972 35 18186525427841034605
12516196 113 18410856585736907297
13140716 1 18053098716805426152
13248334 5 18194404622207370141
13383665 225 17968958408937835468
13533116 47 18342738503354373010
13540713 4 18264754485977358732
13617811 41 18261403269251720140
13811026 1 18336541638318513647
14251764 18 18271809046916761019
14347332 77 18264208011080154114
1454969 45 18412267276414328132
15131766 46 15624229122245198376
15347590 135 18272356578433476064
15347591 1 18191867826239233900
15849732 13 18131071575752001573
15927050 60 17614845111349749795
17492 89 18266176128994989538
18393751 57 18124295355011784256
18608769 82 18411697704022236872
19301679 30 18410855413173840882
19841028 212 18335984190129112954
20028762 73 18271526403388251607
20721686 56 18335425655844962515
21130935 74 18341897355284009747
21267235 1 18411425046402427209
22149856 69 18342463594960567528
22311459 1 18337954593045319772
23559900 14 18337669849872225641
23569943 247 18191026703664946851
24771750 20 17681848632255202853
249057 3 18337953506481670087
255183 451 18269001891237981502
3103668 31 17896877665448603901
335352 9 18337110172367398687
350125 39 18412265038953125248
4073 2 18188777282824818955
4340502 62 14764355941920606021
44880568 143 17240760649564620909
45266715 3 17967532372163041602
5104073 3 18198899207266955912
6004065 56 18337391655491055731
9962374 69 18267581506903691299

>  <PUBCHEM_SHAPE_MULTIPOLES>  (1) 
653.21
23
4.3
0.87
23.5
0.09
-0.1
15.9
1.26
-4.49
-0.26
0.37
-0.15
0.29

>  <PUBCHEM_SHAPE_SELFOVERLAP>  (1) 
1386.903

>  <PUBCHEM_SHAPE_VOLUME>  (1) 
364.2

>  <PUBCHEM_COORDINATE_TYPE>  (1) 
2
5
10

$$$$
