8628
     RDKit          3D

 12 12  0  0  0  0  0  0  0  0999 V2000
   -3.4106    1.6731   -0.0035 Cl  0  0  0  0  0  0  0  0  0  0  0  0
    1.8931    0.6527    0.0896 S   0  0  0  0  0  0  0  0  0  0  0  0
    2.5090    0.3231   -1.3872 O   0  0  0  0  0  0  0  0  0  0  0  0
    1.8374    2.1002    0.2162 O   0  0  0  0  0  0  0  0  0  0  0  0
    2.6022   -0.1545    1.0681 O   0  0  0  0  0  0  0  0  0  0  0  0
    1.0135   -2.2653    0.0067 N   0  0  0  0  0  0  0  0  0  0  0  0
    0.2477    0.0558    0.0398 C   0  0  0  0  0  0  0  0  0  0  0  0
   -0.0281   -1.3111    0.0044 C   0  0  0  0  0  0  0  0  0  0  0  0
   -0.7983    0.9787    0.0371 C   0  0  0  0  0  0  0  0  0  0  0  0
   -1.3499   -1.7551   -0.0337 C   0  0  0  0  0  0  0  0  0  0  0  0
   -2.1200    0.5347   -0.0010 C   0  0  0  0  0  0  0  0  0  0  0  0
   -2.3959   -0.8322   -0.0364 C   0  0  0  0  0  0  0  0  0  0  0  0
  1 11  1  0
  2  3  1  0
  2  4  2  0
  2  5  2  0
  2  7  1  0
  6  8  1  0
  7  8  2  0
  7  9  1  0
  8 10  1  0
  9 11  2  0
 10 12  2  0
 11 12  1  0
M  END
>  <PUBCHEM_COMPOUND_CID>  (1) 
8628

>  <PUBCHEM_CONFORMER_RMSD>  (1) 
0.4

>  <PUBCHEM_CONFORMER_DIVERSEORDER>  (1) 
1
2
3

>  <PUBCHEM_MMFF94_PARTIAL_CHARGES>  (1) 
18
1 -0.18
10 -0.15
11 0.18
12 -0.15
13 0.15
14 0.15
15 0.15
16 0.4
17 0.4
18 0.5
2 1.49
3 -0.68
4 -0.65
5 -0.65
6 -0.9
7 -0.01
8 0.1
9 -0.15

>  <PUBCHEM_EFFECTIVE_ROTOR_COUNT>  (1) 
1

>  <PUBCHEM_PHARMACOPHORE_FEATURES>  (1) 
7
1 3 acceptor
1 4 acceptor
1 5 acceptor
1 6 cation
1 6 donor
4 2 3 4 5 anion
6 7 8 9 10 11 12 rings

>  <PUBCHEM_HEAVY_ATOM_COUNT>  (1) 
12

>  <PUBCHEM_ATOM_DEF_STEREO_COUNT>  (1) 
0

>  <PUBCHEM_ATOM_UDEF_STEREO_COUNT>  (1) 
0

>  <PUBCHEM_BOND_DEF_STEREO_COUNT>  (1) 
0

>  <PUBCHEM_BOND_UDEF_STEREO_COUNT>  (1) 
0

>  <PUBCHEM_ISOTOPIC_ATOM_COUNT>  (1) 
0

>  <PUBCHEM_COMPONENT_COUNT>  (1) 
1

>  <PUBCHEM_CACTVS_TAUTO_COUNT>  (1) 
1

>  <PUBCHEM_CONFORMER_ID>  (1) 
000021B400000001

>  <PUBCHEM_MMFF94_ENERGY>  (1) 
30.6682

>  <PUBCHEM_FEATURE_SELFOVERLAP>  (1) 
35.577

>  <PUBCHEM_SHAPE_FINGERPRINT>  (1) 
12423570 1 8471546455701324269
12524768 44 17766566024580840974
13380535 21 18337687316903052275
13380535 76 18338227185707551603
14325111 11 18410853295538764041
14897335 6 18340476769375971997
15775835 57 18260269659166352436
16945 1 18411701014961902635
18186145 218 18059013861534402449
193761 8 18411135814593642563
20645476 183 17896050973609507782
20653085 51 18341344361011656033
21040471 1 18410855455954650219
21501502 16 18409164377328327399
23552423 10 18189614015457506038
23559900 14 18272099275733108204
2748010 2 18267303325296159821
369184 2 18263916816497299259
5084963 1 17988092204240383762
53812653 166 18342453703687749313
7364860 26 18127969702667526599

>  <PUBCHEM_SHAPE_MULTIPOLES>  (1) 
230.08
4.34
2.15
0.8
1.11
0.42
-0.1
-1.96
-0.05
0.19
0.05
-0.48
-0.06
-0.05

>  <PUBCHEM_SHAPE_SELFOVERLAP>  (1) 
460.349

>  <PUBCHEM_SHAPE_VOLUME>  (1) 
136.7

>  <PUBCHEM_COORDINATE_TYPE>  (1) 
2
5
10

$$$$
