863
     RDKit          3D

 12 12  0  0  1  0  0  0  0  0999 V2000
    3.5448   -1.4558   -0.1422 S   0  0  0  0  0  0  0  0  0  0  0  0
    5.0125   -0.1062    0.3372 S   0  0  0  0  0  0  0  0  0  0  0  0
   -4.3287   -1.1158    0.4988 O   0  0  0  0  0  0  0  0  0  0  0  0
   -5.1398    0.9450   -0.1155 N   0  0  0  0  0  0  0  0  0  0  0  0
    2.2254   -0.2472   -0.4716 C   0  0  0  0  0  0  0  0  0  0  0  0
    0.8658   -0.8207   -0.1024 C   0  0  0  0  0  0  0  0  0  0  0  0
    2.5687    0.9992    0.3478 C   0  0  0  0  0  0  0  0  0  0  0  0
   -0.2576    0.1795   -0.3763 C   0  0  0  0  0  0  0  0  0  0  0  0
   -1.6202   -0.3941    0.0242 C   0  0  0  0  0  0  0  0  0  0  0  0
    4.0217    1.3902    0.1054 C   0  0  0  0  0  0  0  0  0  0  0  0
   -2.7604    0.5949   -0.2126 C   0  0  0  0  0  0  0  0  0  0  0  0
   -4.1322    0.0309    0.1075 C   0  0  0  0  0  0  0  0  0  0  0  0
  1  2  1  0
  1  5  1  0
  2 10  1  0
  3 12  2  0
  4 12  1  0
  5  6  1  0
  5  7  1  0
  6  8  1  0
  7 10  1  0
  8  9  1  0
  9 11  1  0
 11 12  1  0
M  END
>  <PUBCHEM_COMPOUND_CID>  (1) 
863

>  <PUBCHEM_CONFORMER_RMSD>  (1) 
0.6

>  <PUBCHEM_CONFORMER_DIVERSEORDER>  (1) 
1
280
232
291
29
37
13
267
14
109
8
249
268
264
254
125
33
239
121
282
52
202
28
285
15
242
161
27
153
103
22
141
247
93
3
263
145
258
99
84
129
18
179
257
6
166
30
243
24
286
240
58
143
283
131
61
270
12
235
68
173
90
76
26
288
86
265
2
241
57
194
244
119
69
72
5
21
66
138
55
168
120
44
114
266
81
38
205
92
296
67
287
17
10
271
278
133
36
45
269
189
253
183
73
256
126
156
149
295
284
163
245
96
135
79
32
274
41
255
122
279
111
237
110
236
104
9
230
246
225
70
220
276
49
83
147
34
53
218
118
198
77
31
277
171
35
281
272
227
158
75
214
82
259
170
180
206
59
105
137
229
224
54
151
219
165
215
228
20
192
97
185
63
74
290
142
210
80
294
85
222
162
155
226
140
25
186
19
172
182
260
289
169
191
217
71
174
204
248
178
167
177
144
201
89
216
160
252
60
116
193
115
146
157
250
231
11
78
39
234
261
88
190
98
196
203
62
43
50
188
107
238
212
195
262
51
221
187
211
56
154
251
100
16
176
123
223
130
148
132
209
4
292
42
199
152
40
136
184
213
106
46
207
150
48
208
293
164
94
23
200
275
127
139
197
112
102
134
7
87
273
65
113
233
47
124
181
91
175
64
128
95
159
117
101
108

>  <PUBCHEM_MMFF94_PARTIAL_CHARGES>  (1) 
10
1 -0.23
10 0.23
11 0.06
12 0.57
2 -0.23
26 0.37
27 0.37
3 -0.57
4 -0.8
5 0.23

>  <PUBCHEM_EFFECTIVE_ROTOR_COUNT>  (1) 
6

>  <PUBCHEM_PHARMACOPHORE_FEATURES>  (1) 
4
1 3 acceptor
1 4 donor
4 6 8 9 11 hydrophobe
5 1 2 5 7 10 rings

>  <PUBCHEM_HEAVY_ATOM_COUNT>  (1) 
12

>  <PUBCHEM_ATOM_DEF_STEREO_COUNT>  (1) 
0

>  <PUBCHEM_ATOM_UDEF_STEREO_COUNT>  (1) 
1

>  <PUBCHEM_BOND_DEF_STEREO_COUNT>  (1) 
0

>  <PUBCHEM_BOND_UDEF_STEREO_COUNT>  (1) 
0

>  <PUBCHEM_ISOTOPIC_ATOM_COUNT>  (1) 
0

>  <PUBCHEM_COMPONENT_COUNT>  (1) 
1

>  <PUBCHEM_CACTVS_TAUTO_COUNT>  (1) 
2

>  <PUBCHEM_CONFORMER_ID>  (1) 
0000035F00000001

>  <PUBCHEM_MMFF94_ENERGY>  (1) 
12.2178

>  <PUBCHEM_FEATURE_SELFOVERLAP>  (1) 
20.297

>  <PUBCHEM_SHAPE_FINGERPRINT>  (1) 
11287383 113 18409731785051425370
13237642 15 18336549416614874947
14123238 8 17775565338201721478
17834072 33 18273210932463033463
20279233 1 18186810179329029322
20645477 70 18272934877835608686
212847 35 18341894108668405384
22485316 2 18408040706367015159
23402539 116 18413100671741629119
23402655 69 18131632278978571316
23557571 272 17604147026056497085
26918003 58 18410009931438940235
42 15 18259984859974359118
42788 4 18410855460149267317
449060 50 18409729599071353252
522135 26 18342176648823067398
77779 3 18411420609257890927

>  <PUBCHEM_SHAPE_MULTIPOLES>  (1) 
243.8
11.81
1.32
0.69
7.91
0.03
0
-1.08
1.23
-0.9
0.04
-0.12
0.02
0.4

>  <PUBCHEM_SHAPE_SELFOVERLAP>  (1) 
443.661

>  <PUBCHEM_SHAPE_VOLUME>  (1) 
156.5

>  <PUBCHEM_COORDINATE_TYPE>  (1) 
2
5
10

$$$$
