8630
     RDKit          3D

 12 12  0  0  0  0  0  0  0  0999 V2000
    1.3371   -2.3214   -0.0947 Cl  0  0  0  0  0  0  0  0  0  0  0  0
   -2.7600    2.3872    0.1264 Cl  0  0  0  0  0  0  0  0  0  0  0  0
    2.4365    1.4167   -0.9928 O   0  0  0  0  0  0  0  0  0  0  0  0
    2.8781    0.2618    0.9145 O   0  0  0  0  0  0  0  0  0  0  0  0
   -1.6663   -2.6017   -0.1196 N   0  0  0  0  0  0  0  0  0  0  0  0
    0.6530    0.3024    0.0364 C   0  0  0  0  0  0  0  0  0  0  0  0
   -1.1709   -1.2797   -0.0500 C   0  0  0  0  0  0  0  0  0  0  0  0
    0.1983   -1.0146   -0.0317 C   0  0  0  0  0  0  0  0  0  0  0  0
   -0.2618    1.3542    0.0862 C   0  0  0  0  0  0  0  0  0  0  0  0
   -2.0857   -0.2278   -0.0003 C   0  0  0  0  0  0  0  0  0  0  0  0
   -1.6312    1.0892    0.0678 C   0  0  0  0  0  0  0  0  0  0  0  0
    2.0730    0.6337    0.0578 C   0  0  0  0  0  0  0  0  0  0  0  0
  1  8  1  0
  2 11  1  0
  3 12  1  0
  4 12  2  0
  5  7  1  0
  6  8  2  0
  6  9  1  0
  6 12  1  0
  7  8  1  0
  7 10  2  0
  9 11  2  0
 10 11  1  0
M  END
>  <PUBCHEM_COMPOUND_CID>  (1) 
8630

>  <PUBCHEM_CONFORMER_RMSD>  (1) 
0.4

>  <PUBCHEM_CONFORMER_DIVERSEORDER>  (1) 
1
2

>  <PUBCHEM_MMFF94_PARTIAL_CHARGES>  (1) 
17
1 -0.18
10 -0.15
11 0.18
12 0.63
13 0.15
14 0.15
15 0.4
16 0.4
17 0.5
2 -0.18
3 -0.65
4 -0.57
5 -0.9
6 0.09
7 0.1
8 0.18
9 -0.15

>  <PUBCHEM_EFFECTIVE_ROTOR_COUNT>  (1) 
1

>  <PUBCHEM_PHARMACOPHORE_FEATURES>  (1) 
6
1 3 acceptor
1 4 acceptor
1 5 cation
1 5 donor
3 3 4 12 anion
6 6 7 8 9 10 11 rings

>  <PUBCHEM_HEAVY_ATOM_COUNT>  (1) 
12

>  <PUBCHEM_ATOM_DEF_STEREO_COUNT>  (1) 
0

>  <PUBCHEM_ATOM_UDEF_STEREO_COUNT>  (1) 
0

>  <PUBCHEM_BOND_DEF_STEREO_COUNT>  (1) 
0

>  <PUBCHEM_BOND_UDEF_STEREO_COUNT>  (1) 
0

>  <PUBCHEM_ISOTOPIC_ATOM_COUNT>  (1) 
0

>  <PUBCHEM_COMPONENT_COUNT>  (1) 
1

>  <PUBCHEM_CACTVS_TAUTO_COUNT>  (1) 
1

>  <PUBCHEM_CONFORMER_ID>  (1) 
000021B600000001

>  <PUBCHEM_MMFF94_ENERGY>  (1) 
43.5662

>  <PUBCHEM_FEATURE_SELFOVERLAP>  (1) 
30.503

>  <PUBCHEM_SHAPE_FINGERPRINT>  (1) 
1 1 17907294356345520805
11680986 33 18194967339857277234
12423570 1 16383361799893979141
13380535 21 18339940211600926225
13380535 76 18340477868486764055
13380536 305 17979082582729517949
16945 1 18339924912990753833
193761 8 18411139091400442887
20510252 161 18127414659933422968
20511035 2 18270397161858896959
20871998 184 18127974306866952935
21040471 1 18411982420934325945
21501502 16 18339640040568545407
23552423 10 18334860506609497606
23559900 14 18201728315405196772
241688 4 16033804414624939339
2748010 2 18266184924570780783
5084963 1 17915191319328306314
528862 383 18046623412980943233
53812653 8 18191313882093533100
7364860 26 17840301125375458466
81228 2 18268148832774166001

>  <PUBCHEM_SHAPE_MULTIPOLES>  (1) 
233.97
3.81
2.72
0.72
0.85
1.43
-0.01
-2.05
0.26
-0.03
-0.24
-0.24
-0.18
-0.13

>  <PUBCHEM_SHAPE_SELFOVERLAP>  (1) 
476.752

>  <PUBCHEM_SHAPE_VOLUME>  (1) 
138.1

>  <PUBCHEM_COORDINATE_TYPE>  (1) 
2
5
10

$$$$
