8641
     RDKit          3D

 14 15  0  0  0  0  0  0  0  0999 V2000
    1.4748   -2.0549    0.6152 O   0  0  0  0  0  0  0  0  0  0  0  0
    0.8934    0.1382   -0.0718 N   0  0  0  0  0  0  0  0  0  0  0  0
   -3.7000    1.7214    0.5125 N   0  0  0  0  0  0  0  0  0  0  0  0
   -0.5359   -0.1048   -0.1055 C   0  0  0  0  0  0  0  0  0  0  0  0
   -1.4255    0.9202    0.2167 C   0  0  0  0  0  0  0  0  0  0  0  0
   -1.0209   -1.3640   -0.4586 C   0  0  0  0  0  0  0  0  0  0  0  0
   -2.8001    0.6858    0.1858 C   0  0  0  0  0  0  0  0  0  0  0  0
    1.7821   -0.9166    0.2607 C   0  0  0  0  0  0  0  0  0  0  0  0
    1.4023    1.4103   -0.3424 C   0  0  0  0  0  0  0  0  0  0  0  0
   -2.3955   -1.5983   -0.4893 C   0  0  0  0  0  0  0  0  0  0  0  0
   -3.2852   -0.5734   -0.1672 C   0  0  0  0  0  0  0  0  0  0  0  0
    3.2422   -0.5930    0.2262 C   0  0  0  0  0  0  0  0  0  0  0  0
    2.7114    1.6828   -0.3343 C   0  0  0  0  0  0  0  0  0  0  0  0
    3.6569    0.6461   -0.0479 C   0  0  0  0  0  0  0  0  0  0  0  0
  1  8  2  0
  2  4  1  0
  2  8  1  0
  2  9  1  0
  3  7  1  0
  4  5  2  0
  4  6  1  0
  5  7  1  0
  6 10  2  0
  7 11  2  0
  8 12  1  0
  9 13  2  0
 10 11  1  0
 12 14  2  0
 13 14  1  0
M  END
>  <PUBCHEM_COMPOUND_CID>  (1) 
8641

>  <PUBCHEM_CONFORMER_RMSD>  (1) 
0.4

>  <PUBCHEM_CONFORMER_DIVERSEORDER>  (1) 
1
6
4
2
3
5

>  <PUBCHEM_MMFF94_PARTIAL_CHARGES>  (1) 
24
1 -0.57
10 -0.15
11 -0.15
12 -0.14
13 -0.15
14 -0.15
15 0.15
16 0.15
17 0.15
18 0.15
19 0.15
2 -0.29
20 0.15
21 0.15
22 0.15
23 0.4
24 0.4
3 -0.9
4 0.12
5 -0.15
6 -0.15
7 0.1
8 0.62
9 -0.04

>  <PUBCHEM_EFFECTIVE_ROTOR_COUNT>  (1) 
1

>  <PUBCHEM_PHARMACOPHORE_FEATURES>  (1) 
5
1 1 acceptor
1 3 cation
1 3 donor
6 2 8 9 12 13 14 rings
6 4 5 6 7 10 11 rings

>  <PUBCHEM_HEAVY_ATOM_COUNT>  (1) 
14

>  <PUBCHEM_ATOM_DEF_STEREO_COUNT>  (1) 
0

>  <PUBCHEM_ATOM_UDEF_STEREO_COUNT>  (1) 
0

>  <PUBCHEM_BOND_DEF_STEREO_COUNT>  (1) 
0

>  <PUBCHEM_BOND_UDEF_STEREO_COUNT>  (1) 
0

>  <PUBCHEM_ISOTOPIC_ATOM_COUNT>  (1) 
0

>  <PUBCHEM_COMPONENT_COUNT>  (1) 
1

>  <PUBCHEM_CACTVS_TAUTO_COUNT>  (1) 
1

>  <PUBCHEM_CONFORMER_ID>  (1) 
000021C100000001

>  <PUBCHEM_MMFF94_ENERGY>  (1) 
61.5376

>  <PUBCHEM_FEATURE_SELFOVERLAP>  (1) 
25.371

>  <PUBCHEM_SHAPE_FINGERPRINT>  (1) 
10608611 8 18341610455520880832
10980938 120 18334294232377483600
11132069 177 18411693292615946816
11471102 20 18334570235507830556
12251169 10 18410014299742550393
12346645 44 18337389456436177300
12491281 212 18408892857642424593
12932764 1 17676762093742854294
13221675 6 18408322176864012278
13380535 21 18410019827022633959
13380535 76 18335700576342662146
14144814 61 18409728460714992177
14325111 11 18411138064739501492
14897335 6 18412259528150738773
15279307 12 18411418418782716247
15375462 189 17968935271758756474
15442244 35 18267020553244490154
15536298 74 18342738524955510878
15669948 3 18130782412567650551
15775835 57 18410862061519529357
16945 1 18335694988479043974
18186145 218 18333448750948661558
19422 9 18410856585552271590
200 152 18269541884052752039
201361 129 18408042896747439322
20510252 161 18060425720321166921
21267235 1 18410864282017725382
21501502 16 18410571807618908367
22445834 79 18335698325769119627
2255824 54 18113619010688949326
22854114 111 18333733528628777976
23402539 116 17917986166090700669
23402655 69 18410008836201460180
23463225 33 18409446973059127486
23552423 10 18335978744199654175
23559900 14 17917711288990566288
3312278 4 18265613358923915851
474 4 17896041112454500772
5104073 3 18410572894314154970
57096353 35 18267019655395820310
7364860 26 18270683065326808374
7832392 63 18411981338718689844

>  <PUBCHEM_SHAPE_MULTIPOLES>  (1) 
272.28
6.4
1.93
0.7
0.1
0.1
-0.01
-1.43
0.22
0.22
0.07
0.03
0.04
-0.8

>  <PUBCHEM_SHAPE_SELFOVERLAP>  (1) 
587.271

>  <PUBCHEM_SHAPE_VOLUME>  (1) 
147.2

>  <PUBCHEM_COORDINATE_TYPE>  (1) 
2
5
10

$$$$
