8642
     RDKit          3D

 21 22  0  0  1  0  0  0  0  0999 V2000
   -3.5530   -1.5375    0.1561 P   0  0  0  0  0  0  0  0  0  0  0  0
    1.1176   -2.9953   -0.3165 F   0  0  0  0  0  0  0  0  0  0  0  0
   -0.4506    1.3292    1.0212 O   0  0  0  0  0  0  0  0  0  0  0  0
   -0.9313    4.1464   -0.0762 O   0  0  0  0  0  0  0  0  0  0  0  0
   -2.7615   -0.2053    0.6230 O   0  0  0  0  0  0  0  0  0  0  0  0
    3.6075    1.7527    0.3918 O   0  0  0  0  0  0  0  0  0  0  0  0
   -2.5464   -2.2312   -0.9024 O   0  0  0  0  0  0  0  0  0  0  0  0
   -4.7301   -0.9468   -0.7823 O   0  0  0  0  0  0  0  0  0  0  0  0
   -4.0184   -2.4235    1.2745 O   0  0  0  0  0  0  0  0  0  0  0  0
    3.8294   -2.8118   -0.2539 O   0  0  0  0  0  0  0  0  0  0  0  0
    1.6024    0.5663    0.1977 N   0  0  0  0  0  0  0  0  0  0  0  0
    3.7173   -0.5192    0.0713 N   0  0  0  0  0  0  0  0  0  0  0  0
   -1.0267    2.8637   -0.6917 C   0  0  0  0  0  0  0  0  0  0  0  0
   -1.5832    1.8527    0.3011 C   0  0  0  0  0  0  0  0  0  0  0  0
    0.3586    2.3331   -0.9802 C   0  0  0  0  0  0  0  0  0  0  0  0
    0.7573    1.7144    0.3497 C   0  0  0  0  0  0  0  0  0  0  0  0
   -2.2888    0.6845   -0.3753 C   0  0  0  0  0  0  0  0  0  0  0  0
    3.0128    0.6844    0.2329 C   0  0  0  0  0  0  0  0  0  0  0  0
    1.0067   -0.6749    0.0129 C   0  0  0  0  0  0  0  0  0  0  0  0
    1.7050   -1.7983   -0.1377 C   0  0  0  0  0  0  0  0  0  0  0  0
    3.1756   -1.7837   -0.1158 C   0  0  0  0  0  0  0  0  0  0  0  0
  1  5  1  0
  1  7  1  0
  1  8  1  0
  1  9  2  0
  2 20  1  0
  3 14  1  0
  3 16  1  0
  4 13  1  0
  5 17  1  0
  6 18  2  0
 10 21  2  0
 11 16  1  0
 11 18  1  0
 11 19  1  0
 12 18  1  0
 12 21  1  0
 13 14  1  0
 13 15  1  0
 14 17  1  0
 15 16  1  0
 19 20  2  0
 20 21  1  0
M  END
>  <PUBCHEM_COMPOUND_CID>  (1) 
8642

>  <PUBCHEM_CONFORMER_RMSD>  (1) 
0.8

>  <PUBCHEM_CONFORMER_DIVERSEORDER>  (1) 
1
17
18
29
34
4
30
2
15
39
37
23
27
8
9
25
32
38
20
6
24
5
22
35
36
12
31
33
13
14
26
19
16
21
11
28
3
10
7

>  <PUBCHEM_MMFF94_PARTIAL_CHARGES>  (1) 
25
1 1.51
10 -0.57
11 -0.47
12 -0.49
13 0.28
14 0.28
16 0.58
17 0.28
18 0.69
19 -0.04
2 -0.15
20 0.16
21 0.62
29 0.4
3 -0.56
30 0.15
31 0.37
32 0.5
33 0.5
4 -0.68
5 -0.55
6 -0.57
7 -0.77
8 -0.77
9 -0.7

>  <PUBCHEM_EFFECTIVE_ROTOR_COUNT>  (1) 
5

>  <PUBCHEM_PHARMACOPHORE_FEATURES>  (1) 
12
1 10 acceptor
1 12 donor
1 3 acceptor
1 4 acceptor
1 4 donor
1 6 acceptor
1 7 acceptor
1 8 acceptor
1 9 acceptor
4 1 7 8 9 anion
5 3 13 14 15 16 rings
6 11 12 18 19 20 21 rings

>  <PUBCHEM_HEAVY_ATOM_COUNT>  (1) 
21

>  <PUBCHEM_ATOM_DEF_STEREO_COUNT>  (1) 
3

>  <PUBCHEM_ATOM_UDEF_STEREO_COUNT>  (1) 
0

>  <PUBCHEM_BOND_DEF_STEREO_COUNT>  (1) 
0

>  <PUBCHEM_BOND_UDEF_STEREO_COUNT>  (1) 
0

>  <PUBCHEM_ISOTOPIC_ATOM_COUNT>  (1) 
0

>  <PUBCHEM_COMPONENT_COUNT>  (1) 
1

>  <PUBCHEM_CACTVS_TAUTO_COUNT>  (1) 
3

>  <PUBCHEM_CONFORMER_ID>  (1) 
000021C200000001

>  <PUBCHEM_MMFF94_ENERGY>  (1) 
13.7272

>  <PUBCHEM_FEATURE_SELFOVERLAP>  (1) 
60.937

>  <PUBCHEM_SHAPE_FINGERPRINT>  (1) 
10616163 171 18339644442894011222
10967382 1 18267020759466126346
116883 192 18336824200106683501
12500047 106 17759802542307012692
12506688 2 18341894103798321265
12553582 1 18337124439810951297
13004483 165 18339068312039405735
13140716 1 18339365162561206042
138480 1 15023585169812458125
14178342 30 18122892149886619792
14223421 5 18341045212360495300
14251705 54 18336831982450137299
14251757 5 17044036896359108078
14790565 3 17905615749692997404
14863182 85 18192723451710545638
15422964 175 18409163350614833429
17357779 13 18338500989745954607
17859628 97 16966890736794920427
19591789 44 16967464166315582445
20291156 8 18411703201015938239
20645477 70 17901936775965897471
21665056 4 17759803637412883733
221490 88 18339646638171107474
23557571 272 18261659407382914200
23558518 356 18188216377586871736
23559900 14 18267293245319373424
238 59 16021668065296801589
2748010 2 18411409597156961844
2871803 45 18408880720128337879
350125 39 18412824686361006480
46194498 28 17677320758126062605
474229 33 18338793550371080384
6443956 14 18337107973122980165
81228 2 18188213087483855817
8809292 202 18121221982828163882
9709674 26 18125436406433520756

>  <PUBCHEM_SHAPE_MULTIPOLES>  (1) 
371.83
7.15
4.26
0.86
1.73
1.37
-0.02
-5.95
-0.23
0.61
0.44
0.49
-0.01
0.63

>  <PUBCHEM_SHAPE_SELFOVERLAP>  (1) 
764.968

>  <PUBCHEM_SHAPE_VOLUME>  (1) 
215

>  <PUBCHEM_COORDINATE_TYPE>  (1) 
2
5
10

$$$$
