8653
     RDKit          3D

 15 16  0  0  0  0  0  0  0  0999 V2000
    5.0363    1.0828    0.0004 Cl  0  0  0  0  0  0  0  0  0  0  0  0
   -0.6039   -2.3928    0.0002 O   0  0  0  0  0  0  0  0  0  0  0  0
    0.8928   -0.5953   -0.0001 C   0  0  0  0  0  0  0  0  0  0  0  0
   -1.6758   -0.3138    0.0001 C   0  0  0  0  0  0  0  0  0  0  0  0
   -0.4916   -1.1577    0.0000 C   0  0  0  0  0  0  0  0  0  0  0  0
    1.5017   -0.3481    1.2079 C   0  0  0  0  0  0  0  0  0  0  0  0
    1.5027   -0.3494   -1.2081 C   0  0  0  0  0  0  0  0  0  0  0  0
   -1.5427    1.0747   -0.0007 C   0  0  0  0  0  0  0  0  0  0  0  0
   -2.9450   -0.8927    0.0006 C   0  0  0  0  0  0  0  0  0  0  0  0
    2.7947    0.1752    1.2081 C   0  0  0  0  0  0  0  0  0  0  0  0
    2.7957    0.1740   -1.2080 C   0  0  0  0  0  0  0  0  0  0  0  0
   -2.6786    1.8844   -0.0008 C   0  0  0  0  0  0  0  0  0  0  0  0
   -4.0808   -0.0830    0.0005 C   0  0  0  0  0  0  0  0  0  0  0  0
    3.4418    0.4362    0.0002 C   0  0  0  0  0  0  0  0  0  0  0  0
   -3.9475    1.3056   -0.0003 C   0  0  0  0  0  0  0  0  0  0  0  0
  1 14  1  0
  2  5  2  0
  3  5  1  0
  3  6  2  0
  3  7  1  0
  4  5  1  0
  4  8  2  0
  4  9  1  0
  6 10  1  0
  7 11  2  0
  8 12  1  0
  9 13  2  0
 10 14  2  0
 11 14  1  0
 12 15  2  0
 13 15  1  0
M  END
>  <PUBCHEM_COMPOUND_CID>  (1) 
8653

>  <PUBCHEM_CONFORMER_RMSD>  (1) 
0.6

>  <PUBCHEM_CONFORMER_DIVERSEORDER>  (1) 
1

>  <PUBCHEM_MMFF94_PARTIAL_CHARGES>  (1) 
24
1 -0.18
10 -0.15
11 -0.15
12 -0.15
13 -0.15
14 0.18
15 -0.15
16 0.15
17 0.15
18 0.15
19 0.15
2 -0.57
20 0.15
21 0.15
22 0.15
23 0.15
24 0.15
3 0.09
4 0.09
5 0.4
6 -0.15
7 -0.15
8 -0.15
9 -0.15

>  <PUBCHEM_EFFECTIVE_ROTOR_COUNT>  (1) 
2

>  <PUBCHEM_PHARMACOPHORE_FEATURES>  (1) 
3
1 2 acceptor
6 3 6 7 10 11 14 rings
6 4 8 9 12 13 15 rings

>  <PUBCHEM_HEAVY_ATOM_COUNT>  (1) 
15

>  <PUBCHEM_ATOM_DEF_STEREO_COUNT>  (1) 
0

>  <PUBCHEM_ATOM_UDEF_STEREO_COUNT>  (1) 
0

>  <PUBCHEM_BOND_DEF_STEREO_COUNT>  (1) 
0

>  <PUBCHEM_BOND_UDEF_STEREO_COUNT>  (1) 
0

>  <PUBCHEM_ISOTOPIC_ATOM_COUNT>  (1) 
0

>  <PUBCHEM_COMPONENT_COUNT>  (1) 
1

>  <PUBCHEM_CACTVS_TAUTO_COUNT>  (1) 
1

>  <PUBCHEM_CONFORMER_ID>  (1) 
000021CD00000001

>  <PUBCHEM_MMFF94_ENERGY>  (1) 
48.2508

>  <PUBCHEM_FEATURE_SELFOVERLAP>  (1) 
15.223

>  <PUBCHEM_SHAPE_FINGERPRINT>  (1) 
10498660 4 18339642235529325541
11132069 177 18261115145222282661
11471102 22 14923940146154903270
11543360 7 15769479989804696253
12236239 1 17748823037892189834
12251169 10 15357699699357372104
12346645 44 18336546032196482627
12500047 106 18343017839574597982
12507557 5 17312822705941706221
12788726 201 17101176772366941594
13538477 17 17968656137143751778
13764800 53 18336839619181324435
14252887 29 15068613869316600584
14739800 52 18266442391287852464
14943859 89 18342176669786278834
15775835 57 18187364311529962496
16945 1 18410575110918432711
18186145 218 17846227617640184963
200 152 15791725339117233155
20233049 118 18412260636458380440
20374829 77 8790887371532286448
20510252 161 18342744000785833345
20645477 56 18340771532881321624
20645477 70 16773530897286959270
21524375 3 18334013873849826203
21713013 43 14835821994508212005
22926399 65 18342458144937166864
23048698 100 17095240319507903144
23402539 116 18341887523976787934
23402655 69 16487260936854987113
23557571 272 18130511953976319111
23559900 14 18201443558735939694
25 1 17346602949915277070
26918003 58 14345794950596272957
305870 269 18262797358941583114
3268164 11 18271232894281436077
4028521 119 18130787841248128273
474 4 17169277146736289580
7364860 26 18053943948672626999
77492 1 17676203597686460002
81228 2 17768800210982370679

>  <PUBCHEM_SHAPE_MULTIPOLES>  (1) 
304.69
8.33
1.61
1.01
2.34
0.16
0
-3.75
0
-1.09
0
0.85
0.04
0

>  <PUBCHEM_SHAPE_SELFOVERLAP>  (1) 
653.464

>  <PUBCHEM_SHAPE_VOLUME>  (1) 
169.5

>  <PUBCHEM_COORDINATE_TYPE>  (1) 
2
5
10

$$$$
