8659
     RDKit          3D

 18 19  0  0  0  0  0  0  0  0999 V2000
    4.4435    2.3911    0.6873 Cl  0  0  0  0  0  0  0  0  0  0  0  0
   -5.4542    0.8602    1.1345 Cl  0  0  0  0  0  0  0  0  0  0  0  0
   -0.2386   -0.6878   -1.0741 O   0  0  0  0  0  0  0  0  0  0  0  0
    2.8433   -2.5662    0.8255 O   0  0  0  0  0  0  0  0  0  0  0  0
    0.8738   -2.6828   -0.1371 O   0  0  0  0  0  0  0  0  0  0  0  0
    1.8749   -2.0282    0.2385 N   0  0  0  0  0  0  0  0  0  0  0  0
    0.8562    0.0101   -0.6580 C   0  0  0  0  0  0  0  0  0  0  0  0
    1.9131   -0.6283   -0.0090 C   0  0  0  0  0  0  0  0  0  0  0  0
   -1.4676   -0.3229   -0.5537 C   0  0  0  0  0  0  0  0  0  0  0  0
    0.9092    1.3841   -0.8920 C   0  0  0  0  0  0  0  0  0  0  0  0
    3.0231    0.1074    0.4062 C   0  0  0  0  0  0  0  0  0  0  0  0
    2.0192    2.1198   -0.4769 C   0  0  0  0  0  0  0  0  0  0  0  0
    3.0762    1.4816    0.1722 C   0  0  0  0  0  0  0  0  0  0  0  0
   -1.5818   -0.0861    0.8047 C   0  0  0  0  0  0  0  0  0  0  0  0
   -2.5523   -0.2039   -1.4046 C   0  0  0  0  0  0  0  0  0  0  0  0
   -2.8208    0.2815    1.3293 C   0  0  0  0  0  0  0  0  0  0  0  0
   -3.7914    0.1638   -0.8800 C   0  0  0  0  0  0  0  0  0  0  0  0
   -3.9256    0.4067    0.4871 C   0  0  0  0  0  0  0  0  0  0  0  0
  1 13  1  0
  2 18  1  0
  3  7  1  0
  3  9  1  0
  4  6  1  0
  5  6  2  0
  6  8  1  0
  7  8  2  0
  7 10  1  0
  8 11  1  0
  9 14  2  0
  9 15  1  0
 10 12  2  0
 11 13  2  0
 12 13  1  0
 14 16  1  0
 15 17  2  0
 16 18  2  0
 17 18  1  0
M  CHG  2   4  -1   6   1
M  END
>  <PUBCHEM_COMPOUND_CID>  (1) 
8659

>  <PUBCHEM_CONFORMER_RMSD>  (1) 
0.6

>  <PUBCHEM_CONFORMER_DIVERSEORDER>  (1) 
1
4
3
5
2

>  <PUBCHEM_MMFF94_PARTIAL_CHARGES>  (1) 
25
1 -0.18
10 -0.15
11 -0.15
12 -0.15
13 0.18
14 -0.15
15 -0.15
16 -0.15
17 -0.15
18 0.18
19 0.15
2 -0.18
20 0.15
21 0.15
22 0.15
23 0.15
24 0.15
25 0.15
3 -0.17
4 -0.52
5 -0.52
6 0.91
7 0.08
8 0.13
9 0.08

>  <PUBCHEM_EFFECTIVE_ROTOR_COUNT>  (1) 
3

>  <PUBCHEM_PHARMACOPHORE_FEATURES>  (1) 
6
1 3 acceptor
1 4 acceptor
1 4 anion
1 5 acceptor
6 7 8 10 11 12 13 rings
6 9 14 15 16 17 18 rings

>  <PUBCHEM_HEAVY_ATOM_COUNT>  (1) 
18

>  <PUBCHEM_ATOM_DEF_STEREO_COUNT>  (1) 
0

>  <PUBCHEM_ATOM_UDEF_STEREO_COUNT>  (1) 
0

>  <PUBCHEM_BOND_DEF_STEREO_COUNT>  (1) 
0

>  <PUBCHEM_BOND_UDEF_STEREO_COUNT>  (1) 
0

>  <PUBCHEM_ISOTOPIC_ATOM_COUNT>  (1) 
0

>  <PUBCHEM_COMPONENT_COUNT>  (1) 
1

>  <PUBCHEM_CACTVS_TAUTO_COUNT>  (1) 
1

>  <PUBCHEM_CONFORMER_ID>  (1) 
000021D300000001

>  <PUBCHEM_MMFF94_ENERGY>  (1) 
61.3712

>  <PUBCHEM_FEATURE_SELFOVERLAP>  (1) 
30.55

>  <PUBCHEM_SHAPE_FINGERPRINT>  (1) 
10382601 240 18335414673676292240
10465860 228 18412547608697531860
10498660 4 16200155400133075721
10980938 120 18408036325452731804
11471102 22 18187642483792646214
11640471 11 17988931088836926617
12236239 1 17989766700282949773
12390115 104 17976828910859380460
12553582 1 18121773929176379230
12633257 1 17168427189408245193
12644460 14 18334287652798900754
12892183 10 18335995203094711281
13533116 47 18261403187604876883
13583140 156 18341901844094169681
13675066 3 17894635816851797477
14178342 30 18116438222489395635
14252887 29 17749109971841015977
14739800 52 17059474336471020832
14790565 3 18189904299930125948
15309172 13 18189892192168521308
15342168 16 18337116790305937981
15527383 91 18336550395930793106
15775835 57 18060422451413561721
16945 1 18334293180115816572
1813 80 17841163160236572270
18186145 218 18412547596013012383
19049666 15 17532358765175364221
19784866 170 18186802512907656836
20157964 124 18410572852256291093
204376 136 18263923418226270372
20510252 161 17403168691732770218
20645477 70 18189035547961538983
20715895 44 17553771660307850633
20739085 24 18260831484376639860
21041028 32 18194119612250132392
21065199 12 18187651284660911041
21503847 285 18201731608558377116
21524375 3 18127689550825430612
21618674 25 18335704970220384601
2255824 54 18341052934706821694
22854114 111 18411703200979027989
23557571 272 14261053420811834685
23558518 356 17542783557399642452
23559900 14 16806164341600187422
283562 15 17617927476255942186
2838139 119 16055176112172556120
3472631 163 17275109461594302377
4340502 62 18337122245605175827
474 4 18339642364040584928
6049 1 17604429587786358605
633830 44 18200035174092278740
7364860 26 18343025454266543470
7615 1 17917131841566490879
77492 1 17989196049680117743
81228 2 17182773273830418518
8272917 22 18411424973039596255

>  <PUBCHEM_SHAPE_MULTIPOLES>  (1) 
351.58
8.79
2.31
1.22
6.06
1.09
-0.05
-4.76
2.94
-3.38
0.4
0.89
-0.1
-0.64

>  <PUBCHEM_SHAPE_SELFOVERLAP>  (1) 
745.056

>  <PUBCHEM_SHAPE_VOLUME>  (1) 
198.6

>  <PUBCHEM_COORDINATE_TYPE>  (1) 
2
5
10

$$$$
