866
     RDKit          3D

 10  9  0  0  1  0  0  0  0  0999 V2000
   -2.2075    1.6185   -0.7760 O   0  0  0  0  0  0  0  0  0  0  0  0
   -2.5375    0.6972    1.2682 O   0  0  0  0  0  0  0  0  0  0  0  0
   -1.8558   -1.7600    0.5238 N   0  0  0  0  0  0  0  0  0  0  0  0
    4.5392    0.3714    0.1142 N   0  0  0  0  0  0  0  0  0  0  0  0
    0.7841   -0.2591    0.0754 C   0  0  0  0  0  0  0  0  0  0  0  0
   -0.2456   -0.6468   -0.9944 C   0  0  0  0  0  0  0  0  0  0  0  0
    2.2092   -0.1237   -0.4668 C   0  0  0  0  0  0  0  0  0  0  0  0
   -1.6938   -0.7206   -0.4939 C   0  0  0  0  0  0  0  0  0  0  0  0
    3.1892    0.2388    0.6489 C   0  0  0  0  0  0  0  0  0  0  0  0
   -2.1815    0.5844    0.1007 C   0  0  0  0  0  0  0  0  0  0  0  0
  1 10  1  0
  2 10  2  0
  3  8  1  0
  4  9  1  0
  5  6  1  0
  5  7  1  0
  6  8  1  0
  7  9  1  0
  8 10  1  0
M  END
>  <PUBCHEM_COMPOUND_CID>  (1) 
866

>  <PUBCHEM_CONFORMER_RMSD>  (1) 
0.6

>  <PUBCHEM_CONFORMER_DIVERSEORDER>  (1) 
1
114
64
79
55
99
30
107
105
62
94
23
90
11
85
110
86
115
18
92
84
108
78
5
81
106
4
13
98
43
6
70
95
93
48
101
80
69
32
12
112
113
96
60
82
103
88
76
38
89
61
45
28
65
104
100
15
33
10
44
26
51
83
40
52
72
27
49
97
67
111
71
16
31
66
54
2
25
3
24
36
14
29
73
53
42
9
102
59
34
21
22
47
46
91
77
7
109
37
17
63
75
58
56
74
35
50
87
57
20
39
68
19
8
41

>  <PUBCHEM_MMFF94_PARTIAL_CHARGES>  (1) 
12
1 -0.65
10 0.66
2 -0.57
20 0.36
21 0.36
22 0.36
23 0.36
24 0.5
3 -0.99
4 -0.99
8 0.33
9 0.27

>  <PUBCHEM_EFFECTIVE_ROTOR_COUNT>  (1) 
5

>  <PUBCHEM_PHARMACOPHORE_FEATURES>  (1) 
7
1 1 acceptor
1 2 acceptor
1 3 cation
1 3 donor
1 4 cation
1 4 donor
3 1 2 10 anion

>  <PUBCHEM_HEAVY_ATOM_COUNT>  (1) 
10

>  <PUBCHEM_ATOM_DEF_STEREO_COUNT>  (1) 
0

>  <PUBCHEM_ATOM_UDEF_STEREO_COUNT>  (1) 
1

>  <PUBCHEM_BOND_DEF_STEREO_COUNT>  (1) 
0

>  <PUBCHEM_BOND_UDEF_STEREO_COUNT>  (1) 
0

>  <PUBCHEM_ISOTOPIC_ATOM_COUNT>  (1) 
0

>  <PUBCHEM_COMPONENT_COUNT>  (1) 
1

>  <PUBCHEM_CACTVS_TAUTO_COUNT>  (1) 
1

>  <PUBCHEM_CONFORMER_ID>  (1) 
0000036200000001

>  <PUBCHEM_MMFF94_ENERGY>  (1) 
0.7402

>  <PUBCHEM_FEATURE_SELFOVERLAP>  (1) 
35.58

>  <PUBCHEM_SHAPE_FINGERPRINT>  (1) 
11127187 94 10735865158725924641
124424 183 18131060512047966050
12897270 3 11095876051636763406
12932764 1 18187362125797530832
13024252 1 16660358195325319863
14390081 3 17632576037269106098
20211469 26 15430322463920647035
20645464 45 18343588421099166558
20653085 51 15983996817091189515
23402539 116 18341603871947965695
23500284 214 18060147500613298457
3248919 1 18334573572892838870

>  <PUBCHEM_SHAPE_MULTIPOLES>  (1) 
184.09
6.13
1.26
0.98
7.25
0.08
-0.03
-1.62
-0.95
-1.16
-0.01
-0.42
-0.06
0.24

>  <PUBCHEM_SHAPE_SELFOVERLAP>  (1) 
338.013

>  <PUBCHEM_SHAPE_VOLUME>  (1) 
116.4

>  <PUBCHEM_COORDINATE_TYPE>  (1) 
2
5
10

$$$$
