8674
     RDKit          3D

 19 20  0  0  0  0  0  0  0  0999 V2000
   -3.6934   -1.1183    0.0785 S   0  0  0  0  0  0  0  0  0  0  0  0
    4.1738   -0.7130   -0.0792 S   0  0  0  0  0  0  0  0  0  0  0  0
   -3.5051    1.8855    0.0569 O   0  0  0  0  0  0  0  0  0  0  0  0
   -4.3756   -0.9135   -1.3923 O   0  0  0  0  0  0  0  0  0  0  0  0
    4.5864   -0.8987    1.4920 O   0  0  0  0  0  0  0  0  0  0  0  0
   -3.2979   -2.5149    0.1741 O   0  0  0  0  0  0  0  0  0  0  0  0
   -4.5719   -0.5239    1.0725 O   0  0  0  0  0  0  0  0  0  0  0  0
    3.9844   -2.0476   -0.6288 O   0  0  0  0  0  0  0  0  0  0  0  0
    5.1170    0.2126   -0.6873 O   0  0  0  0  0  0  0  0  0  0  0  0
    0.1924   -0.0436   -0.0044 C   0  0  0  0  0  0  0  0  0  0  0  0
    0.1240    1.3700   -0.0126 C   0  0  0  0  0  0  0  0  0  0  0  0
   -2.2375   -0.1492    0.0449 C   0  0  0  0  0  0  0  0  0  0  0  0
   -0.9977   -0.7886    0.0245 C   0  0  0  0  0  0  0  0  0  0  0  0
    1.4490   -0.6705   -0.0254 C   0  0  0  0  0  0  0  0  0  0  0  0
    2.6213    0.0854   -0.0543 C   0  0  0  0  0  0  0  0  0  0  0  0
   -1.1325    1.9969    0.0084 C   0  0  0  0  0  0  0  0  0  0  0  0
   -2.3048    1.2409    0.0368 C   0  0  0  0  0  0  0  0  0  0  0  0
    1.3142    2.1150   -0.0417 C   0  0  0  0  0  0  0  0  0  0  0  0
    2.5540    1.4755   -0.0624 C   0  0  0  0  0  0  0  0  0  0  0  0
  1  4  1  0
  1  6  2  0
  1  7  2  0
  1 12  1  0
  2  5  1  0
  2  8  2  0
  2  9  2  0
  2 15  1  0
  3 17  1  0
 10 11  2  0
 10 13  1  0
 10 14  1  0
 11 16  1  0
 11 18  1  0
 12 13  2  0
 12 17  1  0
 14 15  2  0
 15 19  1  0
 16 17  2  0
 18 19  2  0
M  END
>  <PUBCHEM_COMPOUND_CID>  (1) 
8674

>  <PUBCHEM_CONFORMER_RMSD>  (1) 
0.6

>  <PUBCHEM_CONFORMER_DIVERSEORDER>  (1) 
1
2

>  <PUBCHEM_MMFF94_PARTIAL_CHARGES>  (1) 
25
1 1.49
12 -0.01
13 -0.15
14 -0.15
15 -0.01
16 -0.15
17 0.08
18 -0.15
19 -0.15
2 1.49
20 0.15
21 0.15
22 0.15
23 0.15
24 0.15
25 0.45
26 0.5
27 0.5
3 -0.53
4 -0.68
5 -0.68
6 -0.65
7 -0.65
8 -0.65
9 -0.65

>  <PUBCHEM_EFFECTIVE_ROTOR_COUNT>  (1) 
2

>  <PUBCHEM_PHARMACOPHORE_FEATURES>  (1) 
11
1 3 donor
1 4 acceptor
1 5 acceptor
1 6 acceptor
1 7 acceptor
1 8 acceptor
1 9 acceptor
4 1 4 6 7 anion
4 2 5 8 9 anion
6 10 11 12 13 16 17 rings
6 10 11 14 15 18 19 rings

>  <PUBCHEM_HEAVY_ATOM_COUNT>  (1) 
19

>  <PUBCHEM_ATOM_DEF_STEREO_COUNT>  (1) 
0

>  <PUBCHEM_ATOM_UDEF_STEREO_COUNT>  (1) 
0

>  <PUBCHEM_BOND_DEF_STEREO_COUNT>  (1) 
0

>  <PUBCHEM_BOND_UDEF_STEREO_COUNT>  (1) 
0

>  <PUBCHEM_ISOTOPIC_ATOM_COUNT>  (1) 
0

>  <PUBCHEM_COMPONENT_COUNT>  (1) 
1

>  <PUBCHEM_CACTVS_TAUTO_COUNT>  (1) 
3

>  <PUBCHEM_CONFORMER_ID>  (1) 
000021E200000001

>  <PUBCHEM_MMFF94_ENERGY>  (1) 
34.7864

>  <PUBCHEM_FEATURE_SELFOVERLAP>  (1) 
55.962

>  <PUBCHEM_SHAPE_FINGERPRINT>  (1) 
10062212 137 18335980891625046113
11046707 91 18410855460154646049
11132069 177 18339640027894581680
11543360 7 15575003904637512170
11806522 49 18408324406310689636
12032990 46 18410578391835493024
12236239 1 17894916192448508726
12553582 1 18409449189067437226
13140716 1 18413109459203090465
13288520 33 18412268324080224260
13583140 156 14189582918527781543
13675066 3 18060696174200857616
13760787 5 18337113470580729893
13862211 1 18410568496257561090
15196674 1 18410295783425292156
15209289 33 18260554424167010107
15442244 35 18411141337525797009
15536298 74 18341894138416717304
16945 1 18194965381600142357
17804303 29 18412830174437952945
1813 80 17676779707572527756
18186145 218 17676481787403436465
18222031 100 18272927245841857510
19141452 34 18340772533482360885
193927 3 18335991925317174595
200 152 18202275923065406661
20281475 54 18267308805959136181
20645477 70 18336542832245614431
20871999 31 18187646890424057684
21267235 1 18410023147074603699
21501502 16 18409737286926039669
21501925 9 18412256255575576304
221490 88 18263933309097901873
22646028 1 18113616768330983578
22646028 28 18408604772837619760
23366157 5 18042124426528964732
23402539 116 18412821369828440127
23557571 272 18131081393762390420
23559900 14 18338510962481063736
2748010 2 18410846690000661501
2871803 45 18333445456429235439
312423 11 18263379095182144853
335352 9 18410576159090945877
4214541 1 18410577257953726812
5104073 3 18411982463995029464
559249 180 18116143381379313555
7364860 26 18268993262242559784
76465 3 18410004459645557578
8809292 202 18260834855593391667
9709674 26 18412269406570660702

>  <PUBCHEM_SHAPE_MULTIPOLES>  (1) 
357.62
9.63
2.24
0.85
2.67
0.26
0.05
-4.52
0.04
-0.67
-0.05
0.02
-0.21
-0.15

>  <PUBCHEM_SHAPE_SELFOVERLAP>  (1) 
755.493

>  <PUBCHEM_SHAPE_VOLUME>  (1) 
201.4

>  <PUBCHEM_COORDINATE_TYPE>  (1) 
2
5
10

$$$$
