8678
     RDKit          3D

 13 13  0  0  0  0  0  0  0  0999 V2000
   -1.7930    1.6949   -0.4377 O   0  0  0  0  0  0  0  0  0  0  0  0
   -2.8127   -0.7091    0.5150 O   0  0  0  0  0  0  0  0  0  0  0  0
    3.4507    0.2293    0.5225 N   0  0  0  0  0  0  0  0  0  0  0  0
    4.8285    0.3474    0.1483 N   0  0  0  0  0  0  0  0  0  0  0  0
    1.2382   -0.3447   -0.3200 C   0  0  0  0  0  0  0  0  0  0  0  0
    2.6938   -0.2186   -0.6189 C   0  0  0  0  0  0  0  0  0  0  0  0
    0.3884    0.7434   -0.5186 C   0  0  0  0  0  0  0  0  0  0  0  0
   -0.9732    0.6252   -0.2394 C   0  0  0  0  0  0  0  0  0  0  0  0
    0.7265   -1.5511    0.1581 C   0  0  0  0  0  0  0  0  0  0  0  0
   -1.4849   -0.5811    0.2387 C   0  0  0  0  0  0  0  0  0  0  0  0
   -0.6351   -1.6692    0.4375 C   0  0  0  0  0  0  0  0  0  0  0  0
   -1.9717    2.5870    0.6608 C   0  0  0  0  0  0  0  0  0  0  0  0
   -3.6556   -1.1533   -0.5463 C   0  0  0  0  0  0  0  0  0  0  0  0
  1  8  1  0
  1 12  1  0
  2 10  1  0
  2 13  1  0
  3  4  1  0
  3  6  1  0
  5  6  1  0
  5  7  2  0
  5  9  1  0
  7  8  1  0
  8 10  2  0
  9 11  2  0
 10 11  1  0
M  END
>  <PUBCHEM_COMPOUND_CID>  (1) 
8678

>  <PUBCHEM_CONFORMER_RMSD>  (1) 
0.6

>  <PUBCHEM_CONFORMER_DIVERSEORDER>  (1) 
1
15
21
11
17
8
24
3
18
20
19
7
23
4
22
5
6
13
16
14
10
9
12
2

>  <PUBCHEM_MMFF94_PARTIAL_CHARGES>  (1) 
19
1 -0.36
10 0.08
11 -0.15
12 0.28
13 0.28
16 0.15
17 0.15
18 0.15
19 0.36
2 -0.36
26 0.36
27 0.36
3 -0.63
4 -0.72
5 -0.14
6 0.41
7 -0.15
8 0.08
9 -0.15

>  <PUBCHEM_EFFECTIVE_ROTOR_COUNT>  (1) 
4

>  <PUBCHEM_PHARMACOPHORE_FEATURES>  (1) 
5
1 1 acceptor
1 2 acceptor
1 3 donor
1 4 donor
6 5 7 8 9 10 11 rings

>  <PUBCHEM_HEAVY_ATOM_COUNT>  (1) 
13

>  <PUBCHEM_ATOM_DEF_STEREO_COUNT>  (1) 
0

>  <PUBCHEM_ATOM_UDEF_STEREO_COUNT>  (1) 
0

>  <PUBCHEM_BOND_DEF_STEREO_COUNT>  (1) 
0

>  <PUBCHEM_BOND_UDEF_STEREO_COUNT>  (1) 
0

>  <PUBCHEM_ISOTOPIC_ATOM_COUNT>  (1) 
0

>  <PUBCHEM_COMPONENT_COUNT>  (1) 
1

>  <PUBCHEM_CACTVS_TAUTO_COUNT>  (1) 
1

>  <PUBCHEM_CONFORMER_ID>  (1) 
000021E600000001

>  <PUBCHEM_MMFF94_ENERGY>  (1) 
50.8453

>  <PUBCHEM_FEATURE_SELFOVERLAP>  (1) 
26.68

>  <PUBCHEM_SHAPE_FINGERPRINT>  (1) 
11206711 2 18334300850990600549
11401426 45 18335976553966838911
12932764 1 17274810347064976942
13024252 1 12251895997280359583
13140716 1 18047483493024957099
13380535 21 18122640356901338207
14325111 11 18337110069029778934
14577589 140 12324244970526519240
14614273 12 18041555828592627653
14897335 6 18191584147168742933
15219456 202 18129668491598877062
15490181 7 17611468528051816893
16945 1 18335999639120649183
193761 8 18048316643898116683
20510252 161 18413672400566141920
20525323 117 18409449150633985219
20671657 1 17761780559092745731
21501502 16 18265049124485135802
2334 1 17687757446275743343
23402539 116 18339633529371790231
23557571 272 18060426810741829917
2748010 2 18118977896680959295
353137 74 18260543399265483743
43471831 8 18187079512523313386
53655031 270 18260829302058116499
6333449 129 18411417276231517452
81228 2 18336562550672364545

>  <PUBCHEM_SHAPE_MULTIPOLES>  (1) 
245.83
6.02
2.03
0.79
5.67
1.02
-0.02
0.12
0.12
-1.85
0.34
-0.08
0.03
-0.18

>  <PUBCHEM_SHAPE_SELFOVERLAP>  (1) 
498.287

>  <PUBCHEM_SHAPE_VOLUME>  (1) 
145.1

>  <PUBCHEM_COORDINATE_TYPE>  (1) 
2
5
10

$$$$
