8685
     RDKit          3D

 12 11  0  0  0  0  0  0  0  0999 V2000
    1.3193    2.6814    0.8421 S   0  0  0  0  0  0  0  0  0  0  0  0
   -1.1704    2.8901   -0.7405 S   0  0  0  0  0  0  0  0  0  0  0  0
   -0.0141    0.4802   -0.0392 N   0  0  0  0  0  0  0  0  0  0  0  0
   -1.0527   -0.3046   -0.6958 C   0  0  0  0  0  0  0  0  0  0  0  0
    1.0046   -0.3302    0.6413 C   0  0  0  0  0  0  0  0  0  0  0  0
   -2.2063   -0.5717    0.2696 C   0  0  0  0  0  0  0  0  0  0  0  0
    2.1899   -0.5830   -0.2889 C   0  0  0  0  0  0  0  0  0  0  0  0
   -3.3174   -1.3762   -0.4061 C   0  0  0  0  0  0  0  0  0  0  0  0
    3.2729   -1.4079    0.4077 C   0  0  0  0  0  0  0  0  0  0  0  0
   -0.0129    1.8924   -0.0256 C   0  0  0  0  0  0  0  0  0  0  0  0
   -4.4536   -1.6766    0.5584 C   0  0  0  0  0  0  0  0  0  0  0  0
    4.4406   -1.6940   -0.5230 C   0  0  0  0  0  0  0  0  0  0  0  0
  1 10  1  0
  2 10  2  0
  3  4  1  0
  3  5  1  0
  3 10  1  0
  4  6  1  0
  5  7  1  0
  6  8  1  0
  7  9  1  0
  8 11  1  0
  9 12  1  0
M  END
>  <PUBCHEM_COMPOUND_CID>  (1) 
8685

>  <PUBCHEM_CONFORMER_RMSD>  (1) 
0.8

>  <PUBCHEM_CONFORMER_DIVERSEORDER>  (1) 
1
35
29
38
32
24
39
14
2
37
17
3
8
28
12
22
40
16
42
15
41
6
46
30
25
36
7
21
19
34
23
20
18
43
26
9
4
44
27
11
45
33
31
10
13
5

>  <PUBCHEM_MMFF94_PARTIAL_CHARGES>  (1) 
7
1 -0.32
10 0.58
2 -0.38
3 -0.66
31 0.18
4 0.3
5 0.3

>  <PUBCHEM_EFFECTIVE_ROTOR_COUNT>  (1) 
7

>  <PUBCHEM_PHARMACOPHORE_FEATURES>  (1) 
4
1 11 hydrophobe
1 12 hydrophobe
1 2 acceptor
3 1 2 10 anion

>  <PUBCHEM_HEAVY_ATOM_COUNT>  (1) 
12

>  <PUBCHEM_ATOM_DEF_STEREO_COUNT>  (1) 
0

>  <PUBCHEM_ATOM_UDEF_STEREO_COUNT>  (1) 
0

>  <PUBCHEM_BOND_DEF_STEREO_COUNT>  (1) 
0

>  <PUBCHEM_BOND_UDEF_STEREO_COUNT>  (1) 
0

>  <PUBCHEM_ISOTOPIC_ATOM_COUNT>  (1) 
0

>  <PUBCHEM_COMPONENT_COUNT>  (1) 
1

>  <PUBCHEM_CACTVS_TAUTO_COUNT>  (1) 
1

>  <PUBCHEM_CONFORMER_ID>  (1) 
000021ED00000001

>  <PUBCHEM_MMFF94_ENERGY>  (1) 
12.9857

>  <PUBCHEM_FEATURE_SELFOVERLAP>  (1) 
20.297

>  <PUBCHEM_SHAPE_FINGERPRINT>  (1) 
12841375 25 18410292527386537519
14252887 29 18265328585127115515
161256 15 18338508754725500628
18534176 82 17983569702889283108
20097449 115 18409730677102785221
20339313 130 18338801229429564771
20645476 183 17684928003610179196
20645477 70 18193540384903721263
20671657 53 18410580625582574835
20711985 327 18273221901688253007
20871998 184 18129938953957583558
20871998 22 18411414050705783936
20871999 31 18336545997831417718
21061003 4 18412544310299999999
21296965 67 18410572881439918554
21426921 1 18192715549245008014
23557571 272 18056763126951254084
23598291 2 18057881536309006255
23598294 1 18194393399325106298
2748010 2 18192125248697616549
3071541 250 18410296947129340388
3250762 1 18339060640843570248
68521 5 18335703780409000301
7364860 26 18126284379038339489

>  <PUBCHEM_SHAPE_MULTIPOLES>  (1) 
249.67
6.95
3.31
0.91
0.21
3.04
-0.02
-8.09
-0.08
-0.01
0.02
-0.01
0.2
0.96

>  <PUBCHEM_SHAPE_SELFOVERLAP>  (1) 
433.783

>  <PUBCHEM_SHAPE_VOLUME>  (1) 
167

>  <PUBCHEM_COORDINATE_TYPE>  (1) 
2
5
10

$$$$
