8686
     RDKit          3D

 19 19  0  0  0  0  0  0  0  0999 V2000
   -2.0497    1.9572    0.4065 Cl  0  0  0  0  0  0  0  0  0  0  0  0
   -4.0986    1.0468    2.2583 Cl  0  0  0  0  0  0  0  0  0  0  0  0
    0.8726    1.8173   -2.2841 Cl  0  0  0  0  0  0  0  0  0  0  0  0
    4.0284   -1.5881    1.8895 Cl  0  0  0  0  0  0  0  0  0  0  0  0
    4.9105    1.4539    1.2207 Cl  0  0  0  0  0  0  0  0  0  0  0  0
    0.2949   -1.0152   -1.4609 O   0  0  0  0  0  0  0  0  0  0  0  0
   -2.4199   -0.6835   -0.8450 O   0  0  0  0  0  0  0  0  0  0  0  0
   -3.0249   -1.4222    1.2453 O   0  0  0  0  0  0  0  0  0  0  0  0
   -0.4159   -2.0006   -0.7214 C   0  0  0  0  0  0  0  0  0  0  0  0
   -1.8743   -1.9743   -1.1366 C   0  0  0  0  0  0  0  0  0  0  0  0
    1.3692   -0.4338   -0.8404 C   0  0  0  0  0  0  0  0  0  0  0  0
   -3.4655    0.8868    0.5930 C   0  0  0  0  0  0  0  0  0  0  0  0
   -2.9727   -0.5389    0.3977 C   0  0  0  0  0  0  0  0  0  0  0  0
    1.7438    0.8743   -1.1317 C   0  0  0  0  0  0  0  0  0  0  0  0
    2.0820   -1.1810    0.0923 C   0  0  0  0  0  0  0  0  0  0  0  0
   -4.5615    1.2789   -0.3907 C   0  0  0  0  0  0  0  0  0  0  0  0
    3.1799   -0.6146    0.7400 C   0  0  0  0  0  0  0  0  0  0  0  0
    2.8417    1.4407   -0.4842 C   0  0  0  0  0  0  0  0  0  0  0  0
    3.5600    0.6962    0.4517 C   0  0  0  0  0  0  0  0  0  0  0  0
  1 12  1  0
  2 12  1  0
  3 14  1  0
  4 17  1  0
  5 19  1  0
  6  9  1  0
  6 11  1  0
  7 10  1  0
  7 13  1  0
  8 13  2  0
  9 10  1  0
 11 14  2  0
 11 15  1  0
 12 13  1  0
 12 16  1  0
 14 18  1  0
 15 17  2  0
 17 19  1  0
 18 19  2  0
M  END
>  <PUBCHEM_COMPOUND_CID>  (1) 
8686

>  <PUBCHEM_CONFORMER_RMSD>  (1) 
1

>  <PUBCHEM_CONFORMER_DIVERSEORDER>  (1) 
3
83
88
71
148
107
59
7
101
82
94
117
57
36
16
146
61
95
30
119
100
113
1
68
133
77
92
121
125
118
56
18
52
50
130
24
66
76
34
134
27
126
58
32
10
63
62
84
99
67
78
108
81
79
72
120
17
105
14
65
104
98
2
138
93
21
147
139
5
37
91
136
140
35
75
74
60
111
44
49
55
33
97
90
142
135
41
26
128
15
96
47
45
132
6
124
9
85
28
127
51
46
143
86
64
80
87
19
23
25
12
123
69
70
122
48
39
22
31
141
103
106
112
102
13
89
11
38
54
42
8
114
40
73
145
116
43
109
53
29
4
137
129
144
110
20
115
131

>  <PUBCHEM_MMFF94_PARTIAL_CHARGES>  (1) 
20
1 -0.29
10 0.28
11 0.08
12 0.64
13 0.66
14 0.18
15 -0.15
17 0.18
18 -0.15
19 0.18
2 -0.29
24 0.15
28 0.15
3 -0.18
4 -0.18
5 -0.18
6 -0.36
7 -0.43
8 -0.57
9 0.28

>  <PUBCHEM_EFFECTIVE_ROTOR_COUNT>  (1) 
6

>  <PUBCHEM_PHARMACOPHORE_FEATURES>  (1) 
3
1 6 acceptor
1 8 acceptor
6 11 14 15 17 18 19 rings

>  <PUBCHEM_HEAVY_ATOM_COUNT>  (1) 
19

>  <PUBCHEM_ATOM_DEF_STEREO_COUNT>  (1) 
0

>  <PUBCHEM_ATOM_UDEF_STEREO_COUNT>  (1) 
0

>  <PUBCHEM_BOND_DEF_STEREO_COUNT>  (1) 
0

>  <PUBCHEM_BOND_UDEF_STEREO_COUNT>  (1) 
0

>  <PUBCHEM_ISOTOPIC_ATOM_COUNT>  (1) 
0

>  <PUBCHEM_COMPONENT_COUNT>  (1) 
1

>  <PUBCHEM_CACTVS_TAUTO_COUNT>  (1) 
1

>  <PUBCHEM_CONFORMER_ID>  (1) 
000021EE00000003

>  <PUBCHEM_MMFF94_ENERGY>  (1) 
46.2966

>  <PUBCHEM_FEATURE_SELFOVERLAP>  (1) 
15.223

>  <PUBCHEM_SHAPE_FINGERPRINT>  (1) 
10382601 240 18260261950311882050
10498660 4 17703792539329702049
10759866 29 18261121802421883780
10928967 22 11819285476758445809
10968037 57 13551480288997080577
11086676 242 18186517692246036916
11640471 11 18343025509847936463
11725454 13 15625357074961498506
12363563 72 13118284819107592011
12633257 1 18131345285069378848
12670546 56 18271510001323917890
12788726 201 17912908763159921815
12892183 10 18334010622770651466
13103583 49 17968939678215828298
13583140 156 18187646950659043017
13965767 371 18338805502563516477
14739800 52 17558524037240738704
14790565 3 17751648878162303804
14957384 54 17774430707148670712
15209294 21 18341602772399056880
15239191 94 13334740132649115539
15527383 91 18114455657407188058
17834072 32 17988925586815100193
1798214 55 17917162606369947609
18186145 218 16343718632986717886
19862831 5 10375874064896057597
20715895 44 18120369861960878533
20739085 24 18113334185769753182
20871999 31 9439403523567323347
21427221 339 18410854365359913722
22749437 52 18270970033614117841
23379529 103 11530768055104789656
23382010 3 11239705418672383350
235170 7 13542457631912402513
23557571 272 16916789659972356495
238 59 13686301274891182502
2838139 119 16271920528441502592
341906 21 17489295425995617898
3472631 163 17060062502209630433
3797600 57 17467109609039965815
6328613 192 18342466941636857148
6992083 37 18262506104556435518
7064713 232 18201720596336479761
7097593 13 18040999569903165786

>  <PUBCHEM_SHAPE_MULTIPOLES>  (1) 
382.75
9.42
2.35
1.98
0.67
0.2
0.18
-2.55
6.04
-0.12
-0.35
0.14
-0.28
-1.2

>  <PUBCHEM_SHAPE_SELFOVERLAP>  (1) 
741.097

>  <PUBCHEM_SHAPE_VOLUME>  (1) 
236.4

>  <PUBCHEM_COORDINATE_TYPE>  (1) 
2
5
10

$$$$
