8690
     RDKit          3D

 16 17  0  0  0  0  0  0  0  0999 V2000
    0.1137    0.4311    0.4879 O   0  0  0  0  0  0  0  0  0  0  0  0
    4.3459   -1.7480    0.8458 O   0  0  0  0  0  0  0  0  0  0  0  0
   -0.2002   -0.6592   -1.5488 O   0  0  0  0  0  0  0  0  0  0  0  0
   -2.0734   -0.0899   -0.1875 C   0  0  0  0  0  0  0  0  0  0  0  0
    1.4885    0.4085    0.2381 C   0  0  0  0  0  0  0  0  0  0  0  0
    2.2224   -0.6717    0.6753 C   0  0  0  0  0  0  0  0  0  0  0  0
   -2.9381   -1.0850   -0.6435 C   0  0  0  0  0  0  0  0  0  0  0  0
   -2.5664    0.9627    0.5838 C   0  0  0  0  0  0  0  0  0  0  0  0
    2.0551    1.4675   -0.4353 C   0  0  0  0  0  0  0  0  0  0  0  0
   -0.6581   -0.1501   -0.5158 C   0  0  0  0  0  0  0  0  0  0  0  0
    3.5946   -0.6937    0.4257 C   0  0  0  0  0  0  0  0  0  0  0  0
    3.4273    1.4453   -0.6849 C   0  0  0  0  0  0  0  0  0  0  0  0
    4.1970    0.3648   -0.2544 C   0  0  0  0  0  0  0  0  0  0  0  0
   -4.2958   -1.0274   -0.3284 C   0  0  0  0  0  0  0  0  0  0  0  0
   -3.9240    1.0201    0.8990 C   0  0  0  0  0  0  0  0  0  0  0  0
   -4.7886    0.0250    0.4429 C   0  0  0  0  0  0  0  0  0  0  0  0
  1  5  1  0
  1 10  1  0
  2 11  1  0
  3 10  2  0
  4  7  2  0
  4  8  1  0
  4 10  1  0
  5  6  2  0
  5  9  1  0
  6 11  1  0
  7 14  1  0
  8 15  2  0
  9 12  2  0
 11 13  2  0
 12 13  1  0
 14 16  2  0
 15 16  1  0
M  END
>  <PUBCHEM_COMPOUND_CID>  (1) 
8690

>  <PUBCHEM_CONFORMER_RMSD>  (1) 
0.6

>  <PUBCHEM_CONFORMER_DIVERSEORDER>  (1) 
1
43
36
18
42
41
9
45
38
10
32
3
35
8
30
19
47
2
29
34
4
28
23
46
6
12
31
11
44
5
26
7
22
17
27
25
40
16
24
37
15
21
14
33
39
20
13

>  <PUBCHEM_MMFF94_PARTIAL_CHARGES>  (1) 
26
1 -0.23
10 0.63
11 0.08
12 -0.15
13 -0.15
14 -0.15
15 -0.15
16 -0.15
17 0.15
18 0.15
19 0.15
2 -0.53
20 0.15
21 0.15
22 0.15
23 0.15
24 0.15
25 0.15
26 0.45
3 -0.57
4 0.09
5 0.08
6 -0.15
7 -0.15
8 -0.15
9 -0.15

>  <PUBCHEM_EFFECTIVE_ROTOR_COUNT>  (1) 
3

>  <PUBCHEM_PHARMACOPHORE_FEATURES>  (1) 
4
1 2 donor
1 3 acceptor
6 4 7 8 14 15 16 rings
6 5 6 9 11 12 13 rings

>  <PUBCHEM_HEAVY_ATOM_COUNT>  (1) 
16

>  <PUBCHEM_ATOM_DEF_STEREO_COUNT>  (1) 
0

>  <PUBCHEM_ATOM_UDEF_STEREO_COUNT>  (1) 
0

>  <PUBCHEM_BOND_DEF_STEREO_COUNT>  (1) 
0

>  <PUBCHEM_BOND_UDEF_STEREO_COUNT>  (1) 
0

>  <PUBCHEM_ISOTOPIC_ATOM_COUNT>  (1) 
0

>  <PUBCHEM_COMPONENT_COUNT>  (1) 
1

>  <PUBCHEM_CACTVS_TAUTO_COUNT>  (1) 
3

>  <PUBCHEM_CONFORMER_ID>  (1) 
000021F200000001

>  <PUBCHEM_MMFF94_ENERGY>  (1) 
52.3185

>  <PUBCHEM_FEATURE_SELFOVERLAP>  (1) 
20.297

>  <PUBCHEM_SHAPE_FINGERPRINT>  (1) 
10062212 137 18201996638337582471
10616163 171 18269838773272014135
10912923 1 18341615940410006065
11471102 20 17967813864545850064
11615757 297 18187361038796433905
12107183 9 17833833772327173513
12236239 1 18342741823406134592
12251169 10 18341895182124983463
12346177 29 16056587798859635725
12670546 56 18412820300371300041
13167823 11 18409730672850230371
13296908 3 15647049374056473653
13533116 47 18334856130211955067
13675066 3 17346877840675442070
13760787 19 18412548746700380567
13760787 5 18408320003879488597
14252887 29 16732702761639692996
14386348 63 15719392841075464497
15375358 24 15068616110941258833
17834072 33 18335702783860497471
1813 80 18041851588836488158
18186145 218 17312819381367733768
19026448 5 18410576201512896385
19050596 39 18342176669933920043
19422 9 18410855481608286034
200 152 18335977640835878431
20233049 118 17632581560755661928
20279233 1 15574710313568615753
20281475 54 18410004468261911351
20645477 70 17894623743187233538
21065198 48 18410857667973590545
2255824 54 18259987106616710324
22646028 1 18412260644778867235
22854114 59 17603303777736406897
23048698 100 18333732433354114817
23402539 116 18060129939167193237
300161 21 18412538833915919704
42 15 18343863299053511778
474 4 17973724967785214180
5104073 3 18342740740916010907
522135 26 18260548931098828516
5281201 14 17167859751392841166
573450 72 18201717345214664803
77779 3 18335140907796651641
8272917 22 18337397049685421894
9981440 41 17329422260403879296

>  <PUBCHEM_SHAPE_MULTIPOLES>  (1) 
311.66
10.1
1.41
0.99
1.75
0
-0.1
0.99
1.33
-0.69
0.04
0
0.08
-1.39

>  <PUBCHEM_SHAPE_SELFOVERLAP>  (1) 
676.146

>  <PUBCHEM_SHAPE_VOLUME>  (1) 
168

>  <PUBCHEM_COORDINATE_TYPE>  (1) 
2
5
10

$$$$
