8702
     RDKit          3D

 13 13  0  0  0  0  0  0  0  0999 V2000
    2.5130    0.1300    0.5087 O   0  0  0  0  0  0  0  0  0  0  0  0
   -3.6301    1.2210   -0.1436 O   0  0  0  0  0  0  0  0  0  0  0  0
   -3.6140   -0.9657   -0.3364 O   0  0  0  0  0  0  0  0  0  0  0  0
    1.1755   -2.3159    0.1281 N   0  0  0  0  0  0  0  0  0  0  0  0
   -3.0186    0.1257   -0.1670 N   0  0  0  0  0  0  0  0  0  0  0  0
    1.1606    0.1128    0.3407 C   0  0  0  0  0  0  0  0  0  0  0  0
    0.4775   -1.0886    0.1513 C   0  0  0  0  0  0  0  0  0  0  0  0
   -1.6087    0.1210    0.0033 C   0  0  0  0  0  0  0  0  0  0  0  0
   -0.9071   -1.0845   -0.0174 C   0  0  0  0  0  0  0  0  0  0  0  0
    0.4588    1.3183    0.3614 C   0  0  0  0  0  0  0  0  0  0  0  0
   -0.9258    1.3224    0.1927 C   0  0  0  0  0  0  0  0  0  0  0  0
    3.2746    0.8674   -0.4451 C   0  0  0  0  0  0  0  0  0  0  0  0
    4.6442    0.2360   -0.5767 C   0  0  0  0  0  0  0  0  0  0  0  0
  1  6  1  0
  1 12  1  0
  2  5  1  0
  3  5  2  0
  4  7  1  0
  5  8  1  0
  6  7  2  0
  6 10  1  0
  7  9  1  0
  8  9  2  0
  8 11  1  0
 10 11  2  0
 12 13  1  0
M  CHG  2   2  -1   5   1
M  END
>  <PUBCHEM_COMPOUND_CID>  (1) 
8702

>  <PUBCHEM_CONFORMER_RMSD>  (1) 
0.6

>  <PUBCHEM_CONFORMER_DIVERSEORDER>  (1) 
1
2
4
3

>  <PUBCHEM_MMFF94_PARTIAL_CHARGES>  (1) 
17
1 -0.36
10 -0.15
11 -0.15
12 0.28
14 0.15
15 0.15
16 0.15
2 -0.52
22 0.4
23 0.4
3 -0.52
4 -0.9
5 0.91
6 0.08
7 0.1
8 0.13
9 -0.15

>  <PUBCHEM_EFFECTIVE_ROTOR_COUNT>  (1) 
3

>  <PUBCHEM_PHARMACOPHORE_FEATURES>  (1) 
7
1 1 acceptor
1 2 acceptor
1 2 anion
1 3 acceptor
1 4 cation
1 4 donor
6 6 7 8 9 10 11 rings

>  <PUBCHEM_HEAVY_ATOM_COUNT>  (1) 
13

>  <PUBCHEM_ATOM_DEF_STEREO_COUNT>  (1) 
0

>  <PUBCHEM_ATOM_UDEF_STEREO_COUNT>  (1) 
0

>  <PUBCHEM_BOND_DEF_STEREO_COUNT>  (1) 
0

>  <PUBCHEM_BOND_UDEF_STEREO_COUNT>  (1) 
0

>  <PUBCHEM_ISOTOPIC_ATOM_COUNT>  (1) 
0

>  <PUBCHEM_COMPONENT_COUNT>  (1) 
1

>  <PUBCHEM_CACTVS_TAUTO_COUNT>  (1) 
1

>  <PUBCHEM_CONFORMER_ID>  (1) 
000021FE00000001

>  <PUBCHEM_MMFF94_ENERGY>  (1) 
51.7867

>  <PUBCHEM_FEATURE_SELFOVERLAP>  (1) 
35.602

>  <PUBCHEM_SHAPE_FINGERPRINT>  (1) 
11062470 55 13117996708316601684
12032990 46 18270403905010110715
12119455 92 14056990659587131592
12251169 10 8646480817291200660
13380535 76 18335139795469064194
14325111 11 18410290319746837256
14911166 2 18413106190516258412
14993402 34 18187364367533271092
16945 1 18341319059332909081
18186145 218 18341889714479161072
19021347 11 18409165485282144810
19026448 4 16056592183657254065
193761 8 17834957468947525632
20645476 183 17896045493611110990
20645477 70 18267859485402353495
21293036 1 18411702118720999020
21501502 16 18124032334364117153
23235685 24 18335977627444710752
23402539 116 18342734126940843508
23402655 69 18269258090258139645
23463225 33 18334849473033511314
23552423 10 18120090585199782075
2748010 2 17979064208812024401
3071541 37 18334577889250568470
3312278 4 18413671301286583593
366044 4 18408604786118310034
4990 188 18060707186528594876
528886 8 18410849979823758368
7364860 26 18197778795822362974

>  <PUBCHEM_SHAPE_MULTIPOLES>  (1) 
239.96
6.53
1.65
0.68
2.27
0.59
0
-1.17
1.65
-0.17
-0.08
0.2
-0.03
-0.16

>  <PUBCHEM_SHAPE_SELFOVERLAP>  (1) 
495.518

>  <PUBCHEM_SHAPE_VOLUME>  (1) 
138.4

>  <PUBCHEM_COORDINATE_TYPE>  (1) 
2
5
10

$$$$
