8710
     RDKit          3D

 13 13  0  0  1  0  0  0  0  0999 V2000
    3.5289   -1.9590    0.1009 O   0  0  0  0  0  0  0  0  0  0  0  0
    2.1785    0.0290    0.4419 C   0  0  0  0  0  0  0  0  0  0  0  0
    2.4787    1.4055   -0.1543 C   0  0  0  0  0  0  0  0  0  0  0  0
    0.9071   -0.5883   -0.1049 C   0  0  0  0  0  0  0  0  0  0  0  0
    3.9898    1.5459   -0.0229 C   0  0  0  0  0  0  0  0  0  0  0  0
    4.5324    0.1746   -0.4055 C   0  0  0  0  0  0  0  0  0  0  0  0
    3.4247   -0.7398    0.0534 C   0  0  0  0  0  0  0  0  0  0  0  0
   -0.3302    0.1918    0.3390 C   0  0  0  0  0  0  0  0  0  0  0  0
   -1.6093   -0.4146   -0.2427 C   0  0  0  0  0  0  0  0  0  0  0  0
   -2.8489    0.3455    0.2343 C   0  0  0  0  0  0  0  0  0  0  0  0
   -4.1643   -0.2627   -0.2607 C   0  0  0  0  0  0  0  0  0  0  0  0
   -5.4049    0.4526    0.2757 C   0  0  0  0  0  0  0  0  0  0  0  0
   -6.6825   -0.1805   -0.2542 C   0  0  0  0  0  0  0  0  0  0  0  0
  1  7  2  0
  2  3  1  0
  2  4  1  0
  2  7  1  0
  3  5  1  0
  4  8  1  0
  5  6  1  0
  6  7  1  0
  8  9  1  0
  9 10  1  0
 10 11  1  0
 11 12  1  0
 12 13  1  0
M  END
>  <PUBCHEM_COMPOUND_CID>  (1) 
8710

>  <PUBCHEM_CONFORMER_RMSD>  (1) 
0.8

>  <PUBCHEM_CONFORMER_DIVERSEORDER>  (1) 
1
46
74
9
70
14
59
7
65
8
77
71
40
17
19
10
62
13
53
25
75
3
68
18
38
21
57
2
33
51
39
45
16
26
23
11
43
20
29
27
64
69
31
5
76
58
34
37
60
73
6
35
67
24
61
49
12
52
41
28
30
4
56
66
22
36
44
63
48
50
15
47
55
72
32
42
54

>  <PUBCHEM_MMFF94_PARTIAL_CHARGES>  (1) 
4
1 -0.57
2 0.06
6 0.06
7 0.45

>  <PUBCHEM_EFFECTIVE_ROTOR_COUNT>  (1) 
6.8

>  <PUBCHEM_PHARMACOPHORE_FEATURES>  (1) 
5
1 1 acceptor
1 13 hydrophobe
3 10 11 12 hydrophobe
3 4 8 9 hydrophobe
5 2 3 5 6 7 rings

>  <PUBCHEM_HEAVY_ATOM_COUNT>  (1) 
13

>  <PUBCHEM_ATOM_DEF_STEREO_COUNT>  (1) 
0

>  <PUBCHEM_ATOM_UDEF_STEREO_COUNT>  (1) 
1

>  <PUBCHEM_BOND_DEF_STEREO_COUNT>  (1) 
0

>  <PUBCHEM_BOND_UDEF_STEREO_COUNT>  (1) 
0

>  <PUBCHEM_ISOTOPIC_ATOM_COUNT>  (1) 
0

>  <PUBCHEM_COMPONENT_COUNT>  (1) 
1

>  <PUBCHEM_CACTVS_TAUTO_COUNT>  (1) 
3

>  <PUBCHEM_CONFORMER_ID>  (1) 
0000220600000001

>  <PUBCHEM_MMFF94_ENERGY>  (1) 
4.2555

>  <PUBCHEM_FEATURE_SELFOVERLAP>  (1) 
25.384

>  <PUBCHEM_SHAPE_FINGERPRINT>  (1) 
10354089 29 18410294726462462652
10912923 1 18060140934035512251
11287383 113 18260832626747730683
11471102 20 18409450297785859640
13081056 2 18259982665378128237
13167372 99 18270404884938316513
13167823 11 18413666916172791359
13533116 47 18409166571808852075
14123238 8 18412263939477706165
1420 363 17822016415427075323
15242433 33 18342457062589590463
17834072 33 18342736338843615487
17834076 25 16008748013633359225
20281389 69 18335985273462918033
20645477 70 18410575037666923742
212847 35 18131349708843235633
220451 1 17988927786555728295
23402539 116 17775562031815602821
23402655 69 18341613754392919662
23532345 1 18335424612130537816
23557571 272 16732981964842591655
29717793 49 17632584833499480068
300161 21 18201712981337929367
3545911 37 18335703861881529412
4047638 21 18259985994030270216
42788 4 18410856560288662017
522135 26 18410855451896981826
5374978 207 18334851719069415536
542803 24 18411138030980980961
57483677 66 18413668028753839871
77779 3 18410293614350594219
8272917 22 18342179934093656654

>  <PUBCHEM_SHAPE_MULTIPOLES>  (1) 
261.66
14.04
1.29
0.68
20.56
0.08
0
-0.75
-0.99
-1.9
0
0.03
-0.02
-0.26

>  <PUBCHEM_SHAPE_SELFOVERLAP>  (1) 
499.6

>  <PUBCHEM_SHAPE_VOLUME>  (1) 
162.5

>  <PUBCHEM_COORDINATE_TYPE>  (1) 
2
5
10

$$$$
