8717
     RDKit          3D

 10 10  0  0  0  0  0  0  0  0999 V2000
    2.4088   -1.4576    0.0001 N   0  0  0  0  0  0  0  0  0  0  0  0
   -1.1916    0.7087   -0.0001 C   0  0  0  0  0  0  0  0  0  0  0  0
   -1.2105   -0.6860    0.0000 C   0  0  0  0  0  0  0  0  0  0  0  0
    1.2242    0.6758    0.0000 C   0  0  0  0  0  0  0  0  0  0  0  0
    1.2053   -0.7189   -0.0002 C   0  0  0  0  0  0  0  0  0  0  0  0
    0.0258    1.3896    0.0000 C   0  0  0  0  0  0  0  0  0  0  0  0
   -0.0121   -1.3998    0.0000 C   0  0  0  0  0  0  0  0  0  0  0  0
   -2.4618    1.4942    0.0000 C   0  0  0  0  0  0  0  0  0  0  0  0
   -2.5016   -1.4366    0.0001 C   0  0  0  0  0  0  0  0  0  0  0  0
    2.5136    1.4306    0.0001 C   0  0  0  0  0  0  0  0  0  0  0  0
  1  5  1  0
  2  3  2  0
  2  6  1  0
  2  8  1  0
  3  7  1  0
  3  9  1  0
  4  5  1  0
  4  6  2  0
  4 10  1  0
  5  7  2  0
M  END
>  <PUBCHEM_COMPOUND_CID>  (1) 
8717

>  <PUBCHEM_CONFORMER_RMSD>  (1) 
0.4

>  <PUBCHEM_CONFORMER_DIVERSEORDER>  (1) 
1

>  <PUBCHEM_MMFF94_PARTIAL_CHARGES>  (1) 
14
1 -0.9
10 0.14
11 0.15
12 0.15
2 -0.14
22 0.4
23 0.4
3 -0.14
4 -0.14
5 0.1
6 -0.15
7 -0.15
8 0.14
9 0.14

>  <PUBCHEM_EFFECTIVE_ROTOR_COUNT>  (1) 
0

>  <PUBCHEM_PHARMACOPHORE_FEATURES>  (1) 
3
1 1 cation
1 1 donor
6 2 3 4 5 6 7 rings

>  <PUBCHEM_HEAVY_ATOM_COUNT>  (1) 
10

>  <PUBCHEM_ATOM_DEF_STEREO_COUNT>  (1) 
0

>  <PUBCHEM_ATOM_UDEF_STEREO_COUNT>  (1) 
0

>  <PUBCHEM_BOND_DEF_STEREO_COUNT>  (1) 
0

>  <PUBCHEM_BOND_UDEF_STEREO_COUNT>  (1) 
0

>  <PUBCHEM_ISOTOPIC_ATOM_COUNT>  (1) 
0

>  <PUBCHEM_COMPONENT_COUNT>  (1) 
1

>  <PUBCHEM_CACTVS_TAUTO_COUNT>  (1) 
1

>  <PUBCHEM_CONFORMER_ID>  (1) 
0000220D00000001

>  <PUBCHEM_MMFF94_ENERGY>  (1) 
36.7486

>  <PUBCHEM_FEATURE_SELFOVERLAP>  (1) 
15.223

>  <PUBCHEM_SHAPE_FINGERPRINT>  (1) 
11206711 2 18266178507726402965
12423570 1 15448081380558602972
12897270 3 18266740375163208669
13380535 21 18338813259269093829
16945 1 18194402427145583685
18185500 45 18120372060139497914
193761 8 18410573976593171559
19973954 147 18410856559650371557
21040471 1 18410573985193915488
21501502 16 18410573985162007145
23402655 69 18341033200059603599
23552423 10 18333452045004097470
241688 4 18335701607002619737
2748010 2 18410856555355378445
29004967 10 18118406373993732243
5084963 1 18272652354680863386
68250623 7 18410578378918988107

>  <PUBCHEM_SHAPE_MULTIPOLES>  (1) 
200.81
3.57
2.02
0.61
0.09
0.01
0
-0.17
0
-0.13
0
-0.02
-0.01
0

>  <PUBCHEM_SHAPE_SELFOVERLAP>  (1) 
414.111

>  <PUBCHEM_SHAPE_VOLUME>  (1) 
117.9

>  <PUBCHEM_COORDINATE_TYPE>  (1) 
2
5
10

$$$$
