8718
     RDKit          3D

 10 10  0  0  0  0  0  0  0  0999 V2000
   -2.1457   -1.5755    0.0005 O   0  0  0  0  0  0  0  0  0  0  0  0
    2.1457    1.5754    0.0007 O   0  0  0  0  0  0  0  0  0  0  0  0
   -1.2957    0.6422    0.0000 C   0  0  0  0  0  0  0  0  0  0  0  0
    1.2957   -0.6424   -0.0001 C   0  0  0  0  0  0  0  0  0  0  0  0
   -1.1654   -0.8373    0.0002 C   0  0  0  0  0  0  0  0  0  0  0  0
    1.1654    0.8373    0.0002 C   0  0  0  0  0  0  0  0  0  0  0  0
   -0.1984    1.4074   -0.0002 C   0  0  0  0  0  0  0  0  0  0  0  0
    0.1984   -1.4073    0.0003 C   0  0  0  0  0  0  0  0  0  0  0  0
   -2.6808    1.2104   -0.0007 C   0  0  0  0  0  0  0  0  0  0  0  0
    2.6809   -1.2103   -0.0009 C   0  0  0  0  0  0  0  0  0  0  0  0
  1  5  2  0
  2  6  2  0
  3  5  1  0
  3  7  2  0
  3  9  1  0
  4  6  1  0
  4  8  2  0
  4 10  1  0
  5  8  1  0
  6  7  1  0
M  END
>  <PUBCHEM_COMPOUND_CID>  (1) 
8718

>  <PUBCHEM_CONFORMER_RMSD>  (1) 
0.4

>  <PUBCHEM_CONFORMER_DIVERSEORDER>  (1) 
1

>  <PUBCHEM_MMFF94_PARTIAL_CHARGES>  (1) 
12
1 -0.57
10 0.14
11 0.15
12 0.15
2 -0.57
3 -0.12
4 -0.12
5 0.54
6 0.54
7 -0.14
8 -0.14
9 0.14

>  <PUBCHEM_EFFECTIVE_ROTOR_COUNT>  (1) 
0

>  <PUBCHEM_PHARMACOPHORE_FEATURES>  (1) 
3
1 1 acceptor
1 2 acceptor
6 3 4 5 6 7 8 rings

>  <PUBCHEM_HEAVY_ATOM_COUNT>  (1) 
10

>  <PUBCHEM_ATOM_DEF_STEREO_COUNT>  (1) 
0

>  <PUBCHEM_ATOM_UDEF_STEREO_COUNT>  (1) 
0

>  <PUBCHEM_BOND_DEF_STEREO_COUNT>  (1) 
0

>  <PUBCHEM_BOND_UDEF_STEREO_COUNT>  (1) 
0

>  <PUBCHEM_ISOTOPIC_ATOM_COUNT>  (1) 
0

>  <PUBCHEM_COMPONENT_COUNT>  (1) 
1

>  <PUBCHEM_CACTVS_TAUTO_COUNT>  (1) 
6

>  <PUBCHEM_CONFORMER_ID>  (1) 
0000220E00000001

>  <PUBCHEM_MMFF94_ENERGY>  (1) 
15.7005

>  <PUBCHEM_FEATURE_SELFOVERLAP>  (1) 
15.223

>  <PUBCHEM_SHAPE_FINGERPRINT>  (1) 
16945 1 18266458698291347462
18185500 45 18264487274027349074
193761 8 18338799021436436487
19973954 147 18410575114727849984
21040471 1 18410575101869581697
21501502 16 18410856585414868135
23235685 24 18196927769126167609
23402655 69 17689979156382691901
23552423 10 18261113006085826534
241688 4 18407759231110599992
2748010 2 18410574015216222359
5084963 1 18058159523450200505

>  <PUBCHEM_SHAPE_MULTIPOLES>  (1) 
194.06
3.5
1.91
0.6
0
0
0
0
0
0
0
0
0
0

>  <PUBCHEM_SHAPE_SELFOVERLAP>  (1) 
401.668

>  <PUBCHEM_SHAPE_VOLUME>  (1) 
111.1

>  <PUBCHEM_COORDINATE_TYPE>  (1) 
2
5
10

$$$$
