8728
     RDKit          3D

  6  6  0  0  0  0  0  0  0  0999 V2000
    2.0927   -0.0001   -0.7322 Br  0  0  0  0  0  0  0  0  0  0  0  0
    0.7404    0.0002    0.6746 C   0  0  0  0  0  0  0  0  0  0  0  0
   -0.1854   -1.1944    0.5279 C   0  0  0  0  0  0  0  0  0  0  0  0
   -0.1854    1.1945    0.5275 C   0  0  0  0  0  0  0  0  0  0  0  0
   -1.2310   -0.7644   -0.4990 C   0  0  0  0  0  0  0  0  0  0  0  0
   -1.2314    0.7642   -0.4989 C   0  0  0  0  0  0  0  0  0  0  0  0
  1  2  1  0
  2  3  1  0
  2  4  1  0
  3  5  1  0
  4  6  1  0
  5  6  1  0
M  END
>  <PUBCHEM_COMPOUND_CID>  (1) 
8728

>  <PUBCHEM_CONFORMER_RMSD>  (1) 
0.4

>  <PUBCHEM_CONFORMER_DIVERSEORDER>  (1) 
1
2

>  <PUBCHEM_MMFF94_PARTIAL_CHARGES>  (1) 
2
1 -0.23
2 0.23

>  <PUBCHEM_EFFECTIVE_ROTOR_COUNT>  (1) 
1

>  <PUBCHEM_PHARMACOPHORE_FEATURES>  (1) 
2
1 1 hydrophobe
5 2 3 4 5 6 rings

>  <PUBCHEM_HEAVY_ATOM_COUNT>  (1) 
6

>  <PUBCHEM_ATOM_DEF_STEREO_COUNT>  (1) 
0

>  <PUBCHEM_ATOM_UDEF_STEREO_COUNT>  (1) 
0

>  <PUBCHEM_BOND_DEF_STEREO_COUNT>  (1) 
0

>  <PUBCHEM_BOND_UDEF_STEREO_COUNT>  (1) 
0

>  <PUBCHEM_ISOTOPIC_ATOM_COUNT>  (1) 
0

>  <PUBCHEM_COMPONENT_COUNT>  (1) 
1

>  <PUBCHEM_CACTVS_TAUTO_COUNT>  (1) 
1

>  <PUBCHEM_CONFORMER_ID>  (1) 
0000221800000001

>  <PUBCHEM_MMFF94_ENERGY>  (1) 
6.3842

>  <PUBCHEM_FEATURE_SELFOVERLAP>  (1) 
10.148

>  <PUBCHEM_SHAPE_FINGERPRINT>  (1) 
137420 1 13146267492860271196
16714656 1 18410863156735930093
20096714 4 17603587374643070852
21040471 1 18122887760071405113
29004967 10 16845568755485859642
5943 1 15910825627879568962

>  <PUBCHEM_SHAPE_MULTIPOLES>  (1) 
129.42
2.11
1.28
0.98
1.2
0
0.01
0
0.74
-0.34
-0.13
0.09
0
0

>  <PUBCHEM_SHAPE_SELFOVERLAP>  (1) 
234.442

>  <PUBCHEM_SHAPE_VOLUME>  (1) 
86.5

>  <PUBCHEM_COORDINATE_TYPE>  (1) 
2
5
10

$$$$
