8730
     RDKit          3D

 24 25  0  0  1  0  0  0  0  0999 V2000
   -0.5390   -2.4896    2.6240 I   0  0  0  0  0  0  0  0  0  0  0  0
   -0.0767   -0.7957   -3.2211 I   0  0  0  0  0  0  0  0  0  0  0  0
   -6.5231   -0.3038   -0.4122 I   0  0  0  0  0  0  0  0  0  0  0  0
   -1.8339    3.3302    1.0217 I   0  0  0  0  0  0  0  0  0  0  0  0
   -1.3555   -1.8355   -0.4377 O   0  0  0  0  0  0  0  0  0  0  0  0
    2.7093    2.0459   -0.1136 O   0  0  0  0  0  0  0  0  0  0  0  0
    4.6802    2.0371   -1.2367 O   0  0  0  0  0  0  0  0  0  0  0  0
   -4.8616    2.3228    0.4860 O   0  0  0  0  0  0  0  0  0  0  0  0
    5.8770    0.8096    0.9068 N   0  0  0  0  0  0  0  0  0  0  0  0
    4.1512   -0.8186    0.2931 C   0  0  0  0  0  0  0  0  0  0  0  0
    4.4380    0.6255    0.7335 C   0  0  0  0  0  0  0  0  0  0  0  0
    2.6775   -1.0912    0.0974 C   0  0  0  0  0  0  0  0  0  0  0  0
    2.1085   -0.8780   -1.1471 C   0  0  0  0  0  0  0  0  0  0  0  0
    1.9251   -1.5481    1.1668 C   0  0  0  0  0  0  0  0  0  0  0  0
   -0.0238   -1.5891   -0.2607 C   0  0  0  0  0  0  0  0  0  0  0  0
    0.5647   -1.7987    0.9866 C   0  0  0  0  0  0  0  0  0  0  0  0
    0.7482   -1.1288   -1.3275 C   0  0  0  0  0  0  0  0  0  0  0  0
    3.9914    1.6397   -0.3055 C   0  0  0  0  0  0  0  0  0  0  0  0
   -2.2342   -0.7935   -0.2061 C   0  0  0  0  0  0  0  0  0  0  0  0
   -1.7360    0.4361    0.1889 C   0  0  0  0  0  0  0  0  0  0  0  0
   -3.5919   -1.0040   -0.3750 C   0  0  0  0  0  0  0  0  0  0  0  0
   -4.4787    0.0472   -0.1413 C   0  0  0  0  0  0  0  0  0  0  0  0
   -2.6226    1.4874    0.4224 C   0  0  0  0  0  0  0  0  0  0  0  0
   -3.9940    1.2929    0.2573 C   0  0  0  0  0  0  0  0  0  0  0  0
  1 16  1  0
  2 17  1  0
  3 22  1  0
  4 23  1  0
  5 15  1  0
  5 19  1  0
  6 18  1  0
  7 18  2  0
  8 24  1  0
  9 11  1  0
 10 11  1  0
 10 12  1  0
 11 18  1  0
 12 13  2  0
 12 14  1  0
 13 17  1  0
 14 16  2  0
 15 16  1  0
 15 17  2  0
 19 20  2  0
 19 21  1  0
 20 23  1  0
 21 22  2  0
 22 24  1  0
 23 24  2  0
M  END
>  <PUBCHEM_COMPOUND_CID>  (1) 
8730

>  <PUBCHEM_CONFORMER_RMSD>  (1) 
0.8

>  <PUBCHEM_CONFORMER_DIVERSEORDER>  (1) 
1
14
6
24
10
2
11
13
8
9
18
22
16
20
19
15
3
4
7
5
17
23
21
12

>  <PUBCHEM_MMFF94_PARTIAL_CHARGES>  (1) 
32
1 -0.08
10 0.14
11 0.33
12 -0.14
13 -0.15
14 -0.15
15 0.08
16 0.08
17 0.08
18 0.66
19 0.08
2 -0.08
20 -0.15
21 -0.15
22 0.08
23 0.08
24 0.08
28 0.15
29 0.15
3 -0.08
30 0.36
31 0.36
32 0.15
33 0.15
34 0.5
35 0.45
4 -0.08
5 -0.17
6 -0.65
7 -0.57
8 -0.53
9 -0.99

>  <PUBCHEM_EFFECTIVE_ROTOR_COUNT>  (1) 
5

>  <PUBCHEM_PHARMACOPHORE_FEATURES>  (1) 
13
1 1 hydrophobe
1 2 hydrophobe
1 3 hydrophobe
1 4 hydrophobe
1 5 acceptor
1 6 acceptor
1 7 acceptor
1 8 donor
1 9 cation
1 9 donor
3 6 7 18 anion
6 12 13 14 15 16 17 rings
6 19 20 21 22 23 24 rings

>  <PUBCHEM_HEAVY_ATOM_COUNT>  (1) 
24

>  <PUBCHEM_ATOM_DEF_STEREO_COUNT>  (1) 
1

>  <PUBCHEM_ATOM_UDEF_STEREO_COUNT>  (1) 
0

>  <PUBCHEM_BOND_DEF_STEREO_COUNT>  (1) 
0

>  <PUBCHEM_BOND_UDEF_STEREO_COUNT>  (1) 
0

>  <PUBCHEM_ISOTOPIC_ATOM_COUNT>  (1) 
0

>  <PUBCHEM_COMPONENT_COUNT>  (1) 
1

>  <PUBCHEM_CACTVS_TAUTO_COUNT>  (1) 
2

>  <PUBCHEM_CONFORMER_ID>  (1) 
0000221A00000001

>  <PUBCHEM_MMFF94_ENERGY>  (1) 
68.7136

>  <PUBCHEM_FEATURE_SELFOVERLAP>  (1) 
66.029

>  <PUBCHEM_SHAPE_FINGERPRINT>  (1) 
10498660 4 18199750246077613849
10670039 82 18342470214091064300
10906281 52 18201732739031477279
12107698 1 18270683043682971950
12236239 1 18187360992137752375
12596602 18 17458626765083435873
12633257 1 17604416501448301400
12824470 246 10953455215501293790
13140716 1 16443913906965150378
13583140 156 17319031429393027209
13965767 371 17395587090934563621
14251764 38 18339651044480888984
14341114 328 18409164424145381465
14739800 52 18270098185533702882
14787075 74 18334853957153578083
14931854 50 18412831299899090292
15163728 17 17987819439436244110
15238133 3 18335423491634833428
15961568 22 18343867701469421533
19784866 140 13901916600251828775
20511986 3 18114730531377679159
20715895 44 17834390125791933621
21033648 29 17168136802358058117
21857420 4 12948091152446196562
22079108 93 18040154037130083987
23114952 82 16986889947023953199
23227448 37 18341891930586950727
23352939 185 17632578266810742723
23557571 272 17917433073793819559
23559900 14 17700416871382153551
2838139 119 18201711877695182872
3472631 163 18269556040460255221
34797466 226 16702022023411551077
392239 28 18187938317114222443
4325135 7 18273209807809122159
4340502 62 17676207970628143835
44802255 64 17558564745162485228
474 4 18259984885781079810
5104073 3 18189058603751945235
7288768 16 17754163503903850848
9981440 41 18411420635112695474

>  <PUBCHEM_SHAPE_MULTIPOLES>  (1) 
513.19
11.46
3.13
2.17
2.42
2.03
1.04
5.3
-0.18
0.29
-1.62
-0.5
-1.41
-1.01

>  <PUBCHEM_SHAPE_SELFOVERLAP>  (1) 
1009.408

>  <PUBCHEM_SHAPE_VOLUME>  (1) 
318.3

>  <PUBCHEM_COORDINATE_TYPE>  (1) 
2
5
10

$$$$
