874
     RDKit          3D

  9  8  0  0  0  0  0  0  0  0999 V2000
   -2.7543    0.5906    0.4165 O   0  0  0  0  0  0  0  0  0  0  0  0
    2.7172   -1.1799   -0.1994 O   0  0  0  0  0  0  0  0  0  0  0  0
   -2.1004   -1.5058   -0.1719 O   0  0  0  0  0  0  0  0  0  0  0  0
    2.4032    1.0132    0.3303 O   0  0  0  0  0  0  0  0  0  0  0  0
   -0.4958    0.2986   -0.1089 C   0  0  0  0  0  0  0  0  0  0  0  0
   -0.4308    1.7316   -0.5472 C   0  0  0  0  0  0  0  0  0  0  0  0
    0.5410   -0.5190    0.1446 C   0  0  0  0  0  0  0  0  0  0  0  0
   -1.8403   -0.3292    0.0264 C   0  0  0  0  0  0  0  0  0  0  0  0
    1.9601   -0.1000    0.1095 C   0  0  0  0  0  0  0  0  0  0  0  0
  1  8  1  0
  2  9  1  0
  3  8  2  0
  4  9  2  0
  5  6  1  0
  5  7  2  0
  5  8  1  0
  7  9  1  0
M  END
>  <PUBCHEM_COMPOUND_CID>  (1) 
874

>  <PUBCHEM_CONFORMER_RMSD>  (1) 
0.4

>  <PUBCHEM_CONFORMER_DIVERSEORDER>  (1) 
1
2
3

>  <PUBCHEM_MMFF94_PARTIAL_CHARGES>  (1) 
12
1 -0.65
13 0.15
14 0.5
15 0.5
2 -0.65
3 -0.57
4 -0.57
5 -0.12
6 0.14
7 -0.14
8 0.71
9 0.71

>  <PUBCHEM_EFFECTIVE_ROTOR_COUNT>  (1) 
2

>  <PUBCHEM_PHARMACOPHORE_FEATURES>  (1) 
7
1 1 acceptor
1 2 acceptor
1 3 acceptor
1 4 acceptor
1 6 hydrophobe
3 1 3 8 anion
3 2 4 9 anion

>  <PUBCHEM_HEAVY_ATOM_COUNT>  (1) 
9

>  <PUBCHEM_ATOM_DEF_STEREO_COUNT>  (1) 
0

>  <PUBCHEM_ATOM_UDEF_STEREO_COUNT>  (1) 
0

>  <PUBCHEM_BOND_DEF_STEREO_COUNT>  (1) 
0

>  <PUBCHEM_BOND_UDEF_STEREO_COUNT>  (1) 
1

>  <PUBCHEM_ISOTOPIC_ATOM_COUNT>  (1) 
0

>  <PUBCHEM_COMPONENT_COUNT>  (1) 
1

>  <PUBCHEM_CACTVS_TAUTO_COUNT>  (1) 
1

>  <PUBCHEM_CONFORMER_ID>  (1) 
0000036A00000001

>  <PUBCHEM_MMFF94_ENERGY>  (1) 
18.5316

>  <PUBCHEM_FEATURE_SELFOVERLAP>  (1) 
35.637

>  <PUBCHEM_SHAPE_FINGERPRINT>  (1) 
10857977 72 18264757925628354312
12897270 3 18408319982241232158
12932764 1 17967809418811541626
14325111 11 18341894108056209290
16714656 1 18336265643793652861
23552423 10 18259705601153371910
29004967 10 18260268598156170328
3248919 1 17418095394839261142
369184 2 18408599253809899715
5084963 1 18341048532349051234

>  <PUBCHEM_SHAPE_MULTIPOLES>  (1) 
161.74
3.87
1.47
0.65
0.62
0.26
-0.01
-0.74
0.31
-0.15
-0.2
-0.03
0.07
0.07

>  <PUBCHEM_SHAPE_SELFOVERLAP>  (1) 
315.045

>  <PUBCHEM_SHAPE_VOLUME>  (1) 
97.1

>  <PUBCHEM_COORDINATE_TYPE>  (1) 
2
5
10

$$$$
