8740
     RDKit          3D

 13 13  0  0  0  0  0  0  0  0999 V2000
    2.8165    0.0019   -0.0820 S   0  0  0  0  0  0  0  0  0  0  0  0
    3.2735   -0.0020    1.4878 O   0  0  0  0  0  0  0  0  0  0  0  0
    3.2567   -1.2616   -0.6553 O   0  0  0  0  0  0  0  0  0  0  0  0
    3.2294    1.2669   -0.6694 O   0  0  0  0  0  0  0  0  0  0  0  0
   -3.7472    1.0956    0.0341 O   0  0  0  0  0  0  0  0  0  0  0  0
   -3.7458   -1.0997    0.0275 O   0  0  0  0  0  0  0  0  0  0  0  0
   -3.1383   -0.0016    0.0207 N   0  0  0  0  0  0  0  0  0  0  0  0
    1.0706    0.0009   -0.0512 C   0  0  0  0  0  0  0  0  0  0  0  0
    0.3724    1.2085   -0.0357 C   0  0  0  0  0  0  0  0  0  0  0  0
    0.3739   -1.2076   -0.0428 C   0  0  0  0  0  0  0  0  0  0  0  0
   -1.7188   -0.0007   -0.0032 C   0  0  0  0  0  0  0  0  0  0  0  0
   -1.0222    1.2077   -0.0116 C   0  0  0  0  0  0  0  0  0  0  0  0
   -1.0208   -1.2083   -0.0188 C   0  0  0  0  0  0  0  0  0  0  0  0
  1  2  1  0
  1  3  2  0
  1  4  2  0
  1  8  1  0
  5  7  1  0
  6  7  2  0
  7 11  1  0
  8  9  2  0
  8 10  1  0
  9 12  1  0
 10 13  2  0
 11 12  2  0
 11 13  1  0
M  CHG  2   5  -1   7   1
M  END
>  <PUBCHEM_COMPOUND_CID>  (1) 
8740

>  <PUBCHEM_CONFORMER_RMSD>  (1) 
0.6

>  <PUBCHEM_CONFORMER_DIVERSEORDER>  (1) 
1

>  <PUBCHEM_MMFF94_PARTIAL_CHARGES>  (1) 
18
1 1.49
10 -0.15
11 0.13
12 -0.15
13 -0.15
14 0.15
15 0.15
16 0.15
17 0.15
18 0.5
2 -0.68
3 -0.65
4 -0.65
5 -0.52
6 -0.52
7 0.91
8 -0.01
9 -0.15

>  <PUBCHEM_EFFECTIVE_ROTOR_COUNT>  (1) 
2

>  <PUBCHEM_PHARMACOPHORE_FEATURES>  (1) 
8
1 2 acceptor
1 3 acceptor
1 4 acceptor
1 5 acceptor
1 5 anion
1 6 acceptor
4 1 2 3 4 anion
6 8 9 10 11 12 13 rings

>  <PUBCHEM_HEAVY_ATOM_COUNT>  (1) 
13

>  <PUBCHEM_ATOM_DEF_STEREO_COUNT>  (1) 
0

>  <PUBCHEM_ATOM_UDEF_STEREO_COUNT>  (1) 
0

>  <PUBCHEM_BOND_DEF_STEREO_COUNT>  (1) 
0

>  <PUBCHEM_BOND_UDEF_STEREO_COUNT>  (1) 
0

>  <PUBCHEM_ISOTOPIC_ATOM_COUNT>  (1) 
0

>  <PUBCHEM_COMPONENT_COUNT>  (1) 
1

>  <PUBCHEM_CACTVS_TAUTO_COUNT>  (1) 
1

>  <PUBCHEM_CONFORMER_ID>  (1) 
0000222400000001

>  <PUBCHEM_MMFF94_ENERGY>  (1) 
26.9913

>  <PUBCHEM_FEATURE_SELFOVERLAP>  (1) 
40.736

>  <PUBCHEM_SHAPE_FINGERPRINT>  (1) 
10130415 120 18260261958389996808
10219947 1 18411423912050740415
11132069 177 18412539894952008081
11543360 7 15068913017661922723
12032990 46 18411426111179770287
13296908 3 18413392024990295503
14144814 61 18409168830808337385
14325111 11 18410295817426249981
14993402 34 18334016120133351629
16945 1 18410851062097474989
18186145 218 17676487245911198462
19026448 4 16272209704004229045
19026448 5 16225766302776924983
193761 8 17545884828276215389
20645476 183 17677630798429442670
21501925 9 18338508741998406163
23402539 116 18343292656882105430
23402655 69 18196638628719939821
23463225 33 18335136462494989722
23552423 10 18334579014684961398
23559900 14 18341614776969948886
2748010 2 18051128395688022605
5084963 1 18271249309572464360

>  <PUBCHEM_SHAPE_MULTIPOLES>  (1) 
237.06
6.31
1.43
0.77
1.23
0
-0.17
-0.01
-0.15
0.1
0.14
-0.65
0
-0.01

>  <PUBCHEM_SHAPE_SELFOVERLAP>  (1) 
485.312

>  <PUBCHEM_SHAPE_VOLUME>  (1) 
138

>  <PUBCHEM_COORDINATE_TYPE>  (1) 
2
5
10

$$$$
