8743
     RDKit          3D

 13 13  0  0  0  0  0  0  0  0999 V2000
   -0.0002   -3.2482    0.0010 O   0  0  0  0  0  0  0  0  0  0  0  0
   -2.1530    2.1804    0.0000 O   0  0  0  0  0  0  0  0  0  0  0  0
    2.1531    2.1803    0.0006 O   0  0  0  0  0  0  0  0  0  0  0  0
   -3.5539    0.3727    0.0003 O   0  0  0  0  0  0  0  0  0  0  0  0
    3.5539    0.3726    0.0002 O   0  0  0  0  0  0  0  0  0  0  0  0
    0.0001    0.7636   -0.0002 N   0  0  0  0  0  0  0  0  0  0  0  0
   -1.1938    0.0892   -0.0003 C   0  0  0  0  0  0  0  0  0  0  0  0
    1.1939    0.0891   -0.0004 C   0  0  0  0  0  0  0  0  0  0  0  0
   -1.2807   -1.2494   -0.0005 C   0  0  0  0  0  0  0  0  0  0  0  0
    1.2807   -1.2495   -0.0006 C   0  0  0  0  0  0  0  0  0  0  0  0
    0.0000   -2.0220   -0.0003 C   0  0  0  0  0  0  0  0  0  0  0  0
   -2.4372    0.8607    0.0002 C   0  0  0  0  0  0  0  0  0  0  0  0
    2.4372    0.8605    0.0000 C   0  0  0  0  0  0  0  0  0  0  0  0
  1 11  2  0
  2 12  1  0
  3 13  1  0
  4 12  2  0
  5 13  2  0
  6  7  1  0
  6  8  1  0
  7  9  2  0
  7 12  1  0
  8 10  2  0
  8 13  1  0
  9 11  1  0
 10 11  1  0
M  END
>  <PUBCHEM_COMPOUND_CID>  (1) 
8743

>  <PUBCHEM_CONFORMER_RMSD>  (1) 
0.6

>  <PUBCHEM_CONFORMER_DIVERSEORDER>  (1) 
1
3
2

>  <PUBCHEM_MMFF94_PARTIAL_CHARGES>  (1) 
18
1 -0.57
10 -0.14
11 0.54
12 0.71
13 0.71
14 0.4
15 0.15
16 0.15
17 0.5
18 0.5
2 -0.65
3 -0.65
4 -0.57
5 -0.57
6 -0.6
7 0.11
8 0.11
9 -0.14

>  <PUBCHEM_EFFECTIVE_ROTOR_COUNT>  (1) 
2

>  <PUBCHEM_PHARMACOPHORE_FEATURES>  (1) 
10
1 1 acceptor
1 2 acceptor
1 3 acceptor
1 4 acceptor
1 5 acceptor
1 6 cation
1 6 donor
3 2 4 12 anion
3 3 5 13 anion
6 6 7 8 9 10 11 rings

>  <PUBCHEM_HEAVY_ATOM_COUNT>  (1) 
13

>  <PUBCHEM_ATOM_DEF_STEREO_COUNT>  (1) 
0

>  <PUBCHEM_ATOM_UDEF_STEREO_COUNT>  (1) 
0

>  <PUBCHEM_BOND_DEF_STEREO_COUNT>  (1) 
0

>  <PUBCHEM_BOND_UDEF_STEREO_COUNT>  (1) 
0

>  <PUBCHEM_ISOTOPIC_ATOM_COUNT>  (1) 
0

>  <PUBCHEM_COMPONENT_COUNT>  (1) 
1

>  <PUBCHEM_CACTVS_TAUTO_COUNT>  (1) 
3

>  <PUBCHEM_CONFORMER_ID>  (1) 
0000222700000001

>  <PUBCHEM_MMFF94_ENERGY>  (1) 
31.2417

>  <PUBCHEM_FEATURE_SELFOVERLAP>  (1) 
50.855

>  <PUBCHEM_SHAPE_FINGERPRINT>  (1) 
1 1 18338516330989489878
13380535 76 18410572885640167651
14325111 11 18410855447254017285
14648413 74 17904485104199889121
16945 1 18410573985151568071
17990270 104 17977664204356335475
19021347 11 18338515227314691947
193761 8 18410575080384682919
20510252 161 18198627833130178600
20645477 70 18197774393897129159
20871998 184 17910685576269993502
21028194 46 18333453135867839837
21040471 1 18410574019743440998
21524375 3 18409165510761733234
23402539 116 18127117800368105279
23526114 1 18123188996002610838
23552423 10 18124032334754351167
23559900 14 18271535273650226076
241688 4 16897929358684281851
2748010 2 18409739468774499487
305870 269 18264203625770611472
3071541 12 18051980216546602502
528862 383 18262230002356854523
6333449 129 18266739258482222101
7364860 26 18124596379624012511
81228 2 17834949046474557771

>  <PUBCHEM_SHAPE_MULTIPOLES>  (1) 
233.21
4.34
2.66
0.57
0
1.45
0
-2.65
0
0
0
0
0.02
0

>  <PUBCHEM_SHAPE_SELFOVERLAP>  (1) 
495.707

>  <PUBCHEM_SHAPE_VOLUME>  (1) 
128.1

>  <PUBCHEM_COORDINATE_TYPE>  (1) 
2
5
10

$$$$
