8756
     RDKit          3D

 24 24  0  0  0  0  0  0  0  0999 V2000
    4.9338    1.6329   -0.0520 N   0  0  0  0  0  0  0  0  0  0  0  0
    3.8310    0.7710   -0.5369 C   0  0  0  0  0  0  0  0  0  0  0  0
    2.4938    1.2393    0.0249 C   0  0  0  0  0  0  0  0  0  0  0  0
    6.2828    1.1691   -0.6214 C   0  0  0  0  0  0  0  0  0  0  0  0
    1.2734    0.3963   -0.3616 C   0  0  0  0  0  0  0  0  0  0  0  0
    4.7159    3.0927   -0.4771 C   0  0  0  0  0  0  0  0  0  0  0  0
    5.0265    1.5935    1.4806 C   0  0  0  0  0  0  0  0  0  0  0  0
   -0.0455    0.9470    0.1862 C   0  0  0  0  0  0  0  0  0  0  0  0
   -1.2351    0.1188   -0.3057 C   0  0  0  0  0  0  0  0  0  0  0  0
   -2.5887    0.6439    0.1824 C   0  0  0  0  0  0  0  0  0  0  0  0
    6.6111   -0.2524   -0.2714 C   0  0  0  0  0  0  0  0  0  0  0  0
   -3.8197   -0.1314   -0.2972 C   0  0  0  0  0  0  0  0  0  0  0  0
   -5.1366    0.4017    0.2726 C   0  0  0  0  0  0  0  0  0  0  0  0
   -6.3283   -0.4156   -0.2334 C   0  0  0  0  0  0  0  0  0  0  0  0
   -7.6777    0.0900    0.2857 C   0  0  0  0  0  0  0  0  0  0  0  0
   -8.8743   -0.6813   -0.2782 C   0  0  0  0  0  0  0  0  0  0  0  0
    7.3170   -0.5378    0.8975 C   0  0  0  0  0  0  0  0  0  0  0  0
    6.2102   -1.2890   -1.1145 C   0  0  0  0  0  0  0  0  0  0  0  0
  -10.1930   -0.1420    0.2827 C   0  0  0  0  0  0  0  0  0  0  0  0
    7.6221   -1.8593    1.2231 C   0  0  0  0  0  0  0  0  0  0  0  0
    6.5152   -2.6105   -0.7887 C   0  0  0  0  0  0  0  0  0  0  0  0
  -11.4223   -0.8983   -0.2256 C   0  0  0  0  0  0  0  0  0  0  0  0
    7.2212   -2.8956    0.3801 C   0  0  0  0  0  0  0  0  0  0  0  0
  -12.7330   -0.3830    0.3483 C   0  0  0  0  0  0  0  0  0  0  0  0
  1  2  1  0
  1  4  1  0
  1  6  1  0
  1  7  1  0
  2  3  1  0
  3  5  1  0
  4 11  1  0
  5  8  1  0
  8  9  1  0
  9 10  1  0
 10 12  1  0
 11 17  2  0
 11 18  1  0
 12 13  1  0
 13 14  1  0
 14 15  1  0
 15 16  1  0
 16 19  1  0
 17 20  1  0
 18 21  2  0
 19 22  1  0
 20 23  2  0
 21 23  1  0
 22 24  1  0
M  CHG  1   1   1
M  END
>  <PUBCHEM_COMPOUND_CID>  (1) 
8756

>  <PUBCHEM_CONFORMER_RMSD>  (1) 
1.4

>  <PUBCHEM_CONFORMER_DIVERSEORDER>  (1) 
1
71
2
60
111
42
105
52
15
106
81
127
13
72
67
88
101
66
61
31
73
92
112
79
102
100
34
116
77
58
113
99
70
87
25
109
94
64
7
129
68
128
62
119
39
121
107
130
26
85
76
10
47
69
11
55
50
51
122
20
30
110
124
80
16
103
123
21
63
53
4
115
74
84
29
32
40
104
82
93
5
18
75
44
65
38
98
96
78
41
57
91
95
6
43
108
97
49
46
56
19
36
90
22
117
86
45
35
48
28
33
125
114
37
14
23
89
9
120
54
3
8
12
24
83
126
118
27
17
59

>  <PUBCHEM_MMFF94_PARTIAL_CHARGES>  (1) 
16
1 -1.01
11 -0.14
17 -0.15
18 -0.15
2 0.5
20 -0.15
21 -0.15
23 -0.15
4 0.65
55 0.15
56 0.15
6 0.5
61 0.15
62 0.15
63 0.15
7 0.5

>  <PUBCHEM_EFFECTIVE_ROTOR_COUNT>  (1) 
15

>  <PUBCHEM_PHARMACOPHORE_FEATURES>  (1) 
3
1 1 cation
1 24 hydrophobe
6 11 17 18 20 21 23 rings

>  <PUBCHEM_HEAVY_ATOM_COUNT>  (1) 
24

>  <PUBCHEM_ATOM_DEF_STEREO_COUNT>  (1) 
0

>  <PUBCHEM_ATOM_UDEF_STEREO_COUNT>  (1) 
0

>  <PUBCHEM_BOND_DEF_STEREO_COUNT>  (1) 
0

>  <PUBCHEM_BOND_UDEF_STEREO_COUNT>  (1) 
0

>  <PUBCHEM_ISOTOPIC_ATOM_COUNT>  (1) 
0

>  <PUBCHEM_COMPONENT_COUNT>  (1) 
1

>  <PUBCHEM_CACTVS_TAUTO_COUNT>  (1) 
1

>  <PUBCHEM_CONFORMER_ID>  (1) 
0000223400000001

>  <PUBCHEM_MMFF94_ENERGY>  (1) 
41.3927

>  <PUBCHEM_FEATURE_SELFOVERLAP>  (1) 
15.223

>  <PUBCHEM_SHAPE_FINGERPRINT>  (1) 
10168742 298 16732991903634804539
10666366 153 17603579708342660837
11211813 74 10665236959884909062
11638347 137 18408886239714993247
12089408 11 18201440303440846909
125118 31 10303820877922304514
13533116 47 18343019991811973856
13617811 41 15791732979990848574
13947934 56 18271244916628555505
14202775 3 18188214299735778595
14216079 64 18334858303391202796
14251764 46 18410856568235011909
14537116 161 13767933408121915966
15510794 2 18261116292791200315
1754908 1 14549018801750379951
20578428 11 17967818284805949044
20771845 140 16773513283642259950
20771845 171 13406788892561880136
20812841 46 17418088836719742976
21315763 28 18410856555941499413
21360442 67 12396297045711658688
21362267 313 17059788711060761243
21792934 111 17632573847052472817
232437 2 18410012148792084159
33532 11 18410011039524912062
33684 2 18201721769790647741
437795 160 14692279678329378669
439807 62 18343302573956479424
444735 82 10664101160173368682
4625314 4 18260829332887648773
5283156 175 18202847651763279629
57676310 1 17489583459900386678
57676310 78 11098122329689719088
57828716 16 17632298917521200971
59520647 33 17059763542041738071
59520757 100 16081663273827871315
59521120 56 16661199235678961653
6081469 158 18333448742738918637
67123 10 17489309716274990373
9937071 3 18408605868582158747

>  <PUBCHEM_SHAPE_MULTIPOLES>  (1) 
488.93
44.38
2.36
0.97
143.52
0.29
0.14
20.66
3.76
-8.76
-0.07
-1.72
0.08
-0.47

>  <PUBCHEM_SHAPE_SELFOVERLAP>  (1) 
933.8

>  <PUBCHEM_SHAPE_VOLUME>  (1) 
301.2

>  <PUBCHEM_COORDINATE_TYPE>  (1) 
2
5
10

$$$$
