8761
     RDKit          3D

 11 10  0  0  0  0  0  0  0  0999 V2000
   -3.7746    1.0147    0.1320 O   0  0  0  0  0  0  0  0  0  0  0  0
    0.6103   -3.5527    0.0826 O   0  0  0  0  0  0  0  0  0  0  0  0
    2.7070    1.2222    0.9700 O   0  0  0  0  0  0  0  0  0  0  0  0
    2.1737    1.2973   -1.2373 O   0  0  0  0  0  0  0  0  0  0  0  0
   -0.2361    0.0262   -0.1629 N   0  0  0  0  0  0  0  0  0  0  0  0
   -1.6366   -0.0513    0.2507 C   0  0  0  0  0  0  0  0  0  0  0  0
    0.4894   -1.1706    0.2617 C   0  0  0  0  0  0  0  0  0  0  0  0
    0.3932    1.2269    0.3859 C   0  0  0  0  0  0  0  0  0  0  0  0
   -2.4194    1.1399   -0.2782 C   0  0  0  0  0  0  0  0  0  0  0  0
   -0.1348   -2.4188   -0.3415 C   0  0  0  0  0  0  0  0  0  0  0  0
    1.8278    1.2662   -0.0631 C   0  0  0  0  0  0  0  0  0  0  0  0
  1  9  1  0
  2 10  1  0
  3 11  1  0
  4 11  2  0
  5  6  1  0
  5  7  1  0
  5  8  1  0
  6  9  1  0
  7 10  1  0
  8 11  1  0
M  END
>  <PUBCHEM_COMPOUND_CID>  (1) 
8761

>  <PUBCHEM_CONFORMER_RMSD>  (1) 
0.6

>  <PUBCHEM_CONFORMER_DIVERSEORDER>  (1) 
1
63
16
9
64
61
68
37
52
49
72
77
36
32
65
25
59
69
39
56
54
33
75
76
50
24
27
20
74
60
28
62
23
66
41
31
78
45
73
46
58
26
71
38
47
43
17
53
11
10
67
44
30
18
51
19
7
42
40
70
48
8
29
14
55
22
5
35
57
3
6
12
2
34
4
13
21
15

>  <PUBCHEM_MMFF94_PARTIAL_CHARGES>  (1) 
14
1 -0.68
10 0.28
11 0.66
2 -0.68
22 0.4
23 0.4
24 0.5
3 -0.65
4 -0.57
5 -0.81
6 0.27
7 0.27
8 0.33
9 0.28

>  <PUBCHEM_EFFECTIVE_ROTOR_COUNT>  (1) 
6

>  <PUBCHEM_PHARMACOPHORE_FEATURES>  (1) 
8
1 1 acceptor
1 1 donor
1 2 acceptor
1 2 donor
1 3 acceptor
1 4 acceptor
1 5 cation
3 3 4 11 anion

>  <PUBCHEM_HEAVY_ATOM_COUNT>  (1) 
11

>  <PUBCHEM_ATOM_DEF_STEREO_COUNT>  (1) 
0

>  <PUBCHEM_ATOM_UDEF_STEREO_COUNT>  (1) 
0

>  <PUBCHEM_BOND_DEF_STEREO_COUNT>  (1) 
0

>  <PUBCHEM_BOND_UDEF_STEREO_COUNT>  (1) 
0

>  <PUBCHEM_ISOTOPIC_ATOM_COUNT>  (1) 
0

>  <PUBCHEM_COMPONENT_COUNT>  (1) 
1

>  <PUBCHEM_CACTVS_TAUTO_COUNT>  (1) 
1

>  <PUBCHEM_CONFORMER_ID>  (1) 
0000223900000001

>  <PUBCHEM_MMFF94_ENERGY>  (1) 
18.8993

>  <PUBCHEM_FEATURE_SELFOVERLAP>  (1) 
40.655

>  <PUBCHEM_SHAPE_FINGERPRINT>  (1) 
1 1 18410852122970240983
100427 49 17691683390102879910
12716758 59 18198347445102037704
13380535 76 18334571352563376387
19021347 4 18339356482553814787
20645476 183 18115320010705842836
20645477 70 18263917740864703861
20711985 344 17761500587576063390
21040471 1 18338799034495658552
23552423 10 18195813964290374661
2748010 2 18338248140420498111
305870 269 18340196402031611177
528862 383 18263634087379718675
7364860 26 18197775497155143083
81228 2 17764308744484013579
88987 49 18122347054081008340

>  <PUBCHEM_SHAPE_MULTIPOLES>  (1) 
197.92
3.83
3.03
0.81
2.67
4.03
-0.08
-3.18
0.1
-1.02
-0.1
-0.4
-0.23
-0.03

>  <PUBCHEM_SHAPE_SELFOVERLAP>  (1) 
368.987

>  <PUBCHEM_SHAPE_VOLUME>  (1) 
124.7

>  <PUBCHEM_COORDINATE_TYPE>  (1) 
2
5
10

$$$$
