8783
     RDKit          3D

 13 12  0  0  0  0  0  0  0  0999 V2000
    2.6923   -1.9658    1.8215 Cl  0  0  0  0  0  0  0  0  0  0  0  0
    0.0809    3.3601    1.6874 Cl  0  0  0  0  0  0  0  0  0  0  0  0
   -3.2362   -1.1301    1.6881 Cl  0  0  0  0  0  0  0  0  0  0  0  0
    0.0072   -0.0564   -1.3039 P   0  0  0  0  0  0  0  0  0  0  0  0
    1.3326   -0.4619   -0.4601 O   0  0  0  0  0  0  0  0  0  0  0  0
   -0.2664    1.3877   -0.6161 O   0  0  0  0  0  0  0  0  0  0  0  0
   -1.0736   -0.9197   -0.4557 O   0  0  0  0  0  0  0  0  0  0  0  0
    1.9145   -1.7193   -0.7737 C   0  0  0  0  0  0  0  0  0  0  0  0
    0.7729    2.3483   -0.7412 C   0  0  0  0  0  0  0  0  0  0  0  0
   -2.4235   -0.8361   -0.8913 C   0  0  0  0  0  0  0  0  0  0  0  0
    3.1367   -1.9492    0.0958 C   0  0  0  0  0  0  0  0  0  0  0  0
    0.3657    3.6364   -0.0499 C   0  0  0  0  0  0  0  0  0  0  0  0
   -3.3031   -1.6942   -0.0010 C   0  0  0  0  0  0  0  0  0  0  0  0
  1 11  1  0
  2 12  1  0
  3 13  1  0
  4  5  1  0
  4  6  1  0
  4  7  1  0
  5  8  1  0
  6  9  1  0
  7 10  1  0
  8 11  1  0
  9 12  1  0
 10 13  1  0
M  END
>  <PUBCHEM_COMPOUND_CID>  (1) 
8783

>  <PUBCHEM_CONFORMER_RMSD>  (1) 
0.8

>  <PUBCHEM_CONFORMER_DIVERSEORDER>  (1) 
1
84
95
31
79
83
74
32
106
6
104
87
69
98
75
29
90
67
24
85
20
92
54
66
91
82
99
105
107
5
73
7
97
103
46
52
47
37
15
77
10
94
100
44
81
25
89
102
51
62
64
86
70
49
11
108
101
21
4
45
53
59
42
30
41
27
35
34
96
26
22
93
18
48
60
39
2
43
12
23
63
13
71
9
65
80
61
19
33
56
17
50
16
8
36
58
14
57
3
72
28
68
38
88
55
40
76
78

>  <PUBCHEM_MMFF94_PARTIAL_CHARGES>  (1) 
13
1 -0.29
10 0.28
11 0.29
12 0.29
13 0.29
2 -0.29
3 -0.29
4 0.3
5 -0.38
6 -0.38
7 -0.38
8 0.28
9 0.28

>  <PUBCHEM_EFFECTIVE_ROTOR_COUNT>  (1) 
9

>  <PUBCHEM_PHARMACOPHORE_FEATURES>  (1) 
0

>  <PUBCHEM_HEAVY_ATOM_COUNT>  (1) 
13

>  <PUBCHEM_ATOM_DEF_STEREO_COUNT>  (1) 
0

>  <PUBCHEM_ATOM_UDEF_STEREO_COUNT>  (1) 
0

>  <PUBCHEM_BOND_DEF_STEREO_COUNT>  (1) 
0

>  <PUBCHEM_BOND_UDEF_STEREO_COUNT>  (1) 
0

>  <PUBCHEM_ISOTOPIC_ATOM_COUNT>  (1) 
0

>  <PUBCHEM_COMPONENT_COUNT>  (1) 
1

>  <PUBCHEM_CACTVS_TAUTO_COUNT>  (1) 
1

>  <PUBCHEM_CONFORMER_ID>  (1) 
0000224F00000001

>  <PUBCHEM_MMFF94_ENERGY>  (1) 
9.7328

>  <PUBCHEM_FEATURE_SELFOVERLAP>  (1) 
0

>  <PUBCHEM_SHAPE_FINGERPRINT>  (1) 
13275264 69 18265048037810742426
136203 1 18050283665625256556
17841504 4 18335708286141176999
19021347 4 17113256101002090494
19734167 9 16835483794418295457
20711985 344 18050570642561049494
21061003 4 18408322194149792463
21524375 3 17408815766062350805
23500284 5 17823699655195530418
23598294 1 18194138316917122190
305870 269 17836645593185189413
3071541 236 17613985305725012630
539174 4 17483926613580138136
57672749 33 18196078057249465402
81228 2 17978507533721335796
9981440 41 16691831539677515258

>  <PUBCHEM_SHAPE_MULTIPOLES>  (1) 
259.38
4.78
4.51
1.75
1.41
6.19
-0.87
-6.25
-1.83
-1.11
-1.54
0.02
-0.05
-0.36

>  <PUBCHEM_SHAPE_SELFOVERLAP>  (1) 
435.767

>  <PUBCHEM_SHAPE_VOLUME>  (1) 
178.2

>  <PUBCHEM_COORDINATE_TYPE>  (1) 
2
5
10

$$$$
