8789
     RDKit          3D

 18 19  0  0  0  0  0  0  0  0999 V2000
   -0.0032   -1.6435    1.2681 O   0  0  0  0  0  0  0  0  0  0  0  0
   -2.3587   -1.5855   -0.1257 N   0  0  0  0  0  0  0  0  0  0  0  0
    2.3557   -1.5818   -0.1306 N   0  0  0  0  0  0  0  0  0  0  0  0
   -1.1498   -1.5729   -0.7464 N   0  0  0  0  0  0  0  0  0  0  0  0
    1.1396   -1.5711   -0.7485 N   0  0  0  0  0  0  0  0  0  0  0  0
   -3.0981   -0.3872   -0.0439 C   0  0  0  0  0  0  0  0  0  0  0  0
    3.0935   -0.3947   -0.0467 C   0  0  0  0  0  0  0  0  0  0  0  0
   -4.4474   -0.4225    0.3081 C   0  0  0  0  0  0  0  0  0  0  0  0
    4.4497   -0.4271    0.2997 C   0  0  0  0  0  0  0  0  0  0  0  0
   -2.4799    0.8335   -0.3154 C   0  0  0  0  0  0  0  0  0  0  0  0
    2.4829    0.8377   -0.3080 C   0  0  0  0  0  0  0  0  0  0  0  0
   -5.1786    0.7626    0.3884 C   0  0  0  0  0  0  0  0  0  0  0  0
    5.1844    0.7556    0.3839 C   0  0  0  0  0  0  0  0  0  0  0  0
   -3.2112    2.0185   -0.2351 C   0  0  0  0  0  0  0  0  0  0  0  0
    3.2177    2.0204   -0.2240 C   0  0  0  0  0  0  0  0  0  0  0  0
   -0.0044   -1.6043    0.0376 C   0  0  0  0  0  0  0  0  0  0  0  0
   -4.5605    1.9830    0.1168 C   0  0  0  0  0  0  0  0  0  0  0  0
    4.5684    1.9793    0.1220 C   0  0  0  0  0  0  0  0  0  0  0  0
  1 16  2  0
  2  4  1  0
  2  6  1  0
  3  5  1  0
  3  7  1  0
  4 16  1  0
  5 16  1  0
  6  8  2  0
  6 10  1  0
  7  9  2  0
  7 11  1  0
  8 12  1  0
  9 13  1  0
 10 14  2  0
 11 15  2  0
 12 17  2  0
 13 18  2  0
 14 17  1  0
 15 18  1  0
M  END
>  <PUBCHEM_COMPOUND_CID>  (1) 
8789

>  <PUBCHEM_CONFORMER_RMSD>  (1) 
0.8

>  <PUBCHEM_CONFORMER_DIVERSEORDER>  (1) 
1
9
16
4
18
12
6
5
11
2
14
17
7
19
15
10
13
8
3

>  <PUBCHEM_MMFF94_PARTIAL_CHARGES>  (1) 
32
1 -0.57
10 -0.15
11 -0.15
12 -0.15
13 -0.15
14 -0.15
15 -0.15
16 0.69
17 -0.15
18 -0.15
19 0.4
2 -0.52
20 0.4
21 0.15
22 0.15
23 0.15
24 0.15
25 0.37
26 0.37
27 0.15
28 0.15
29 0.15
3 -0.52
30 0.15
31 0.15
32 0.15
4 -0.41
5 -0.41
6 0.1
7 0.1
8 -0.15
9 -0.15

>  <PUBCHEM_EFFECTIVE_ROTOR_COUNT>  (1) 
6

>  <PUBCHEM_PHARMACOPHORE_FEATURES>  (1) 
7
1 1 acceptor
1 2 donor
1 3 donor
1 4 donor
1 5 donor
6 6 8 10 12 14 17 rings
6 7 9 11 13 15 18 rings

>  <PUBCHEM_HEAVY_ATOM_COUNT>  (1) 
18

>  <PUBCHEM_ATOM_DEF_STEREO_COUNT>  (1) 
0

>  <PUBCHEM_ATOM_UDEF_STEREO_COUNT>  (1) 
0

>  <PUBCHEM_BOND_DEF_STEREO_COUNT>  (1) 
0

>  <PUBCHEM_BOND_UDEF_STEREO_COUNT>  (1) 
0

>  <PUBCHEM_ISOTOPIC_ATOM_COUNT>  (1) 
0

>  <PUBCHEM_COMPONENT_COUNT>  (1) 
1

>  <PUBCHEM_CACTVS_TAUTO_COUNT>  (1) 
2

>  <PUBCHEM_CONFORMER_ID>  (1) 
0000225500000001

>  <PUBCHEM_MMFF94_ENERGY>  (1) 
63.4937

>  <PUBCHEM_FEATURE_SELFOVERLAP>  (1) 
38.757

>  <PUBCHEM_SHAPE_FINGERPRINT>  (1) 
12107183 9 18264195934138897298
122479 349 18336267924437436066
12596602 18 16588307240901039752
12633257 1 16443625804689904056
13103583 49 12613036037816308989
13402501 40 18410573985178487561
14123255 352 18411134740408460212
14251764 18 18260823818123266938
14251764 38 18408611344075026328
14576447 43 9727640514321877892
15188451 53 16009320928232875883
15196674 1 18411138034616669188
17834072 32 18413108342421448133
193927 3 7853573555928523088
20621476 66 18410578426928941684
21652331 79 18409166614874276989
23227448 37 18341612654876134287
23559900 14 18126286346165737215
245318 6 17389679792757851836
2838139 119 18343576348099221188
351380 180 18334857216437429280
3680242 22 18337110051628611144
38570 142 17097239314180325852
465052 167 11458430119575791024
474 4 18260267464295347027
5104073 3 18189343381579495107
54446538 1 18410290315562652745
6328613 192 18261401083324421180
7808743 9 18267864063599893104
960060 61 11815892375147134464

>  <PUBCHEM_SHAPE_MULTIPOLES>  (1) 
344.64
12.39
2.45
0.76
0.06
0.33
0.06
6.67
1.51
0
-0.1
0
-0.14
0.01

>  <PUBCHEM_SHAPE_SELFOVERLAP>  (1) 
728.265

>  <PUBCHEM_SHAPE_VOLUME>  (1) 
191

>  <PUBCHEM_COORDINATE_TYPE>  (1) 
2
5
10

$$$$
