8793
     RDKit          3D

 18 19  0  0  0  0  0  0  0  0999 V2000
   -1.8577    0.0170    0.0315 N   0  0  0  0  0  0  0  0  0  0  0  0
    1.8673    0.0359   -0.0030 N   0  0  0  0  0  0  0  0  0  0  0  0
   -0.5206    0.0168   -0.5399 C   0  0  0  0  0  0  0  0  0  0  0  0
    0.5258    0.0540    0.5699 C   0  0  0  0  0  0  0  0  0  0  0  0
   -2.8712    0.0082   -1.0247 C   0  0  0  0  0  0  0  0  0  0  0  0
    2.8784    0.0343    1.0444 C   0  0  0  0  0  0  0  0  0  0  0  0
   -4.2595   -0.0022   -0.4797 C   0  0  0  0  0  0  0  0  0  0  0  0
    4.2730    0.0085    0.4777 C   0  0  0  0  0  0  0  0  0  0  0  0
   -4.8991   -1.2152   -0.2235 C   0  0  0  0  0  0  0  0  0  0  0  0
    4.8892   -1.2112    0.2343 C   0  0  0  0  0  0  0  0  0  0  0  0
   -4.9183    1.2008   -0.2259 C   0  0  0  0  0  0  0  0  0  0  0  0
    4.9228    1.2045    0.2061 C   0  0  0  0  0  0  0  0  0  0  0  0
   -6.1973   -1.2251    0.2865 C   0  0  0  0  0  0  0  0  0  0  0  0
    6.1811   -1.2353   -0.2910 C   0  0  0  0  0  0  0  0  0  0  0  0
   -6.2166    1.1907    0.2842 C   0  0  0  0  0  0  0  0  0  0  0  0
    6.2148    1.1802   -0.3194 C   0  0  0  0  0  0  0  0  0  0  0  0
   -6.8560   -0.0222    0.5403 C   0  0  0  0  0  0  0  0  0  0  0  0
    6.8438   -0.0397   -0.5678 C   0  0  0  0  0  0  0  0  0  0  0  0
  1  3  1  0
  1  5  1  0
  2  4  1  0
  2  6  1  0
  3  4  1  0
  5  7  1  0
  6  8  1  0
  7  9  2  0
  7 11  1  0
  8 10  2  0
  8 12  1  0
  9 13  1  0
 10 14  1  0
 11 15  2  0
 12 16  2  0
 13 17  2  0
 14 18  2  0
 15 17  1  0
 16 18  1  0
M  END
>  <PUBCHEM_COMPOUND_CID>  (1) 
8793

>  <PUBCHEM_CONFORMER_RMSD>  (1) 
0.8

>  <PUBCHEM_CONFORMER_DIVERSEORDER>  (1) 
1
9
22
2
25
27
21
33
10
23
3
13
8
29
4
18
12
31
19
24
30
15
11
20
28
7
26
32
6
14
16
17
5

>  <PUBCHEM_MMFF94_PARTIAL_CHARGES>  (1) 
30
1 -0.9
10 -0.15
11 -0.15
12 -0.15
13 -0.15
14 -0.15
15 -0.15
16 -0.15
17 -0.15
18 -0.15
2 -0.9
27 0.36
28 0.36
29 0.15
3 0.27
30 0.15
31 0.15
32 0.15
33 0.15
34 0.15
35 0.15
36 0.15
37 0.15
38 0.15
4 0.27
5 0.41
6 0.41
7 -0.14
8 -0.14
9 -0.15

>  <PUBCHEM_EFFECTIVE_ROTOR_COUNT>  (1) 
7

>  <PUBCHEM_PHARMACOPHORE_FEATURES>  (1) 
6
1 1 cation
1 1 donor
1 2 cation
1 2 donor
6 7 9 11 13 15 17 rings
6 8 10 12 14 16 18 rings

>  <PUBCHEM_HEAVY_ATOM_COUNT>  (1) 
18

>  <PUBCHEM_ATOM_DEF_STEREO_COUNT>  (1) 
0

>  <PUBCHEM_ATOM_UDEF_STEREO_COUNT>  (1) 
0

>  <PUBCHEM_BOND_DEF_STEREO_COUNT>  (1) 
0

>  <PUBCHEM_BOND_UDEF_STEREO_COUNT>  (1) 
0

>  <PUBCHEM_ISOTOPIC_ATOM_COUNT>  (1) 
0

>  <PUBCHEM_COMPONENT_COUNT>  (1) 
1

>  <PUBCHEM_CACTVS_TAUTO_COUNT>  (1) 
1

>  <PUBCHEM_CONFORMER_ID>  (1) 
0000225900000001

>  <PUBCHEM_MMFF94_ENERGY>  (1) 
32.0144

>  <PUBCHEM_FEATURE_SELFOVERLAP>  (1) 
30.446

>  <PUBCHEM_SHAPE_FINGERPRINT>  (1) 
10299344 5 18410575084668626499
10638233 991 16950291718935479572
10968037 39 15646772293395789851
11089746 13 12463566288000333907
11315181 36 18259704515449708101
11524674 6 16630524055460227847
11724838 91 12324248278321165522
12091667 2 17847058887850224581
12166972 35 18409732884632378392
12236239 1 18410855460128363169
12516196 113 17530964687236441157
12730499 353 17821446838260281042
13533116 47 17023174982377177418
13914758 101 12319465376443359623
14123256 10 15646772288357043374
1420 363 16877943836705659169
14251732 16 18260830427265474083
14251752 14 17846498114680506809
14251764 18 18202844366482576527
14251764 46 18410291414958125490
14933364 13 18410575088963587301
15183329 4 15841554067452151073
15716309 27 18260265248604003219
17844677 252 18411140233645517745
20281389 69 17704068499774256737
21095086 128 18334012791549924011
21150785 3 17749394775939458142
220451 1 17967530164290972171
22224240 67 15068622712617404752
23035841 295 18334573538216498315
23081809 10 18131060545859162943
23198884 109 18260831492791910345
23402539 116 10592043561829293675
23536379 177 18412262826437624376
28498 318 16128381441609044380
29717793 49 17632300064957982540
328311 84 18272938214866707918
34797466 226 17240490204311761006
4073 2 18114185293368694546
4325135 7 15646772288388977715
4463277 17 18410572889940364229
542803 24 18410568491888305541
5758199 1 17385725789934840673
57583515 80 11743839166624204431
59755656 215 15698007314330183492
59755656 520 18412821404642528343

>  <PUBCHEM_SHAPE_MULTIPOLES>  (1) 
360.47
23.6
1.27
0.86
0.17
0.03
0
0.26
-0.14
0
0
-0.03
0
0.01

>  <PUBCHEM_SHAPE_SELFOVERLAP>  (1) 
744.585

>  <PUBCHEM_SHAPE_VOLUME>  (1) 
205.3

>  <PUBCHEM_COORDINATE_TYPE>  (1) 
2
5
10

$$$$
