880
     RDKit          3D

  5  4  0  0  0  0  0  0  0  0999 V2000
   -0.4619    1.3215    0.0001 O   0  0  0  0  0  0  0  0  0  0  0  0
    1.8689   -0.0412    0.0005 O   0  0  0  0  0  0  0  0  0  0  0  0
   -1.7332   -0.7303    0.0005 C   0  0  0  0  0  0  0  0  0  0  0  0
   -0.4876    0.1006   -0.0007 C   0  0  0  0  0  0  0  0  0  0  0  0
    0.8137   -0.6506   -0.0004 C   0  0  0  0  0  0  0  0  0  0  0  0
  1  4  2  0
  2  5  2  0
  3  4  1  0
  4  5  1  0
M  END
>  <PUBCHEM_COMPOUND_CID>  (1) 
880

>  <PUBCHEM_CONFORMER_RMSD>  (1) 
0.4

>  <PUBCHEM_CONFORMER_DIVERSEORDER>  (1) 
1
2
3
4

>  <PUBCHEM_MMFF94_PARTIAL_CHARGES>  (1) 
6
1 -0.57
2 -0.57
3 0.06
4 0.51
5 0.51
9 0.06

>  <PUBCHEM_EFFECTIVE_ROTOR_COUNT>  (1) 
1

>  <PUBCHEM_PHARMACOPHORE_FEATURES>  (1) 
2
1 1 acceptor
1 2 acceptor

>  <PUBCHEM_HEAVY_ATOM_COUNT>  (1) 
5

>  <PUBCHEM_ATOM_DEF_STEREO_COUNT>  (1) 
0

>  <PUBCHEM_ATOM_UDEF_STEREO_COUNT>  (1) 
0

>  <PUBCHEM_BOND_DEF_STEREO_COUNT>  (1) 
0

>  <PUBCHEM_BOND_UDEF_STEREO_COUNT>  (1) 
0

>  <PUBCHEM_ISOTOPIC_ATOM_COUNT>  (1) 
0

>  <PUBCHEM_COMPONENT_COUNT>  (1) 
1

>  <PUBCHEM_CACTVS_TAUTO_COUNT>  (1) 
2

>  <PUBCHEM_CONFORMER_ID>  (1) 
0000037000000001

>  <PUBCHEM_MMFF94_ENERGY>  (1) 
2.1777

>  <PUBCHEM_FEATURE_SELFOVERLAP>  (1) 
10.155

>  <PUBCHEM_SHAPE_FINGERPRINT>  (1) 
139733 1 9295298235127158691
16714656 1 18343028812767445086
20096714 4 17905329524560734048
21015797 1 9727048972053722867
21040471 1 17834394523173046436
29004967 10 18336551619854112763
5460574 1 9295297135462628067
5943 1 14462037123675862777

>  <PUBCHEM_SHAPE_MULTIPOLES>  (1) 
91.16
2.05
1.07
0.58
0.21
0.28
0
-0.49
0
-0.2
0
-0.03
-0.03
0

>  <PUBCHEM_SHAPE_SELFOVERLAP>  (1) 
163.584

>  <PUBCHEM_SHAPE_VOLUME>  (1) 
58.8

>  <PUBCHEM_COORDINATE_TYPE>  (1) 
2
5
10

$$$$
