8804
     RDKit          3D

 18 18  0  0  0  0  0  0  0  0999 V2000
   -1.2477    1.7863    0.0661 O   0  0  0  0  0  0  0  0  0  0  0  0
   -5.1367   -0.9146   -1.9647 O   0  0  0  0  0  0  0  0  0  0  0  0
   -5.3236   -1.4145    0.2422 O   0  0  0  0  0  0  0  0  0  0  0  0
    5.7363   -1.0562   -0.1606 O   0  0  0  0  0  0  0  0  0  0  0  0
    5.4769    0.9820   -0.9336 O   0  0  0  0  0  0  0  0  0  0  0  0
   -2.6868    0.2248    0.9815 N   0  0  0  0  0  0  0  0  0  0  0  0
   -0.4606   -0.3129    0.7622 N   0  0  0  0  0  0  0  0  0  0  0  0
    5.0127   -0.0638   -0.4183 N   0  0  0  0  0  0  0  0  0  0  0  0
   -3.8809    1.0213    0.8933 C   0  0  0  0  0  0  0  0  0  0  0  0
   -4.6089    0.8169   -0.4288 C   0  0  0  0  0  0  0  0  0  0  0  0
    0.9209   -0.2495    0.4653 C   0  0  0  0  0  0  0  0  0  0  0  0
   -1.4291    0.6729    0.5530 C   0  0  0  0  0  0  0  0  0  0  0  0
    1.7259   -1.3407    0.7482 C   0  0  0  0  0  0  0  0  0  0  0  0
    1.4403    0.9021   -0.1033 C   0  0  0  0  0  0  0  0  0  0  0  0
    3.6265   -0.1263   -0.1180 C   0  0  0  0  0  0  0  0  0  0  0  0
    3.0881   -1.2787    0.4547 C   0  0  0  0  0  0  0  0  0  0  0  0
    2.8026    0.9642   -0.3970 C   0  0  0  0  0  0  0  0  0  0  0  0
   -5.0560   -0.6131   -0.6420 C   0  0  0  0  0  0  0  0  0  0  0  0
  1 12  2  0
  2 18  1  0
  3 18  2  0
  4  8  1  0
  5  8  2  0
  6  9  1  0
  6 12  1  0
  7 11  1  0
  7 12  1  0
  8 15  1  0
  9 10  1  0
 10 18  1  0
 11 13  2  0
 11 14  1  0
 13 16  1  0
 14 17  2  0
 15 16  2  0
 15 17  1  0
M  CHG  2   4  -1   8   1
M  END
>  <PUBCHEM_COMPOUND_CID>  (1) 
8804

>  <PUBCHEM_CONFORMER_RMSD>  (1) 
0.8

>  <PUBCHEM_CONFORMER_DIVERSEORDER>  (1) 
2
22
7
19
8
20
24
21
3
23
1
13
4
14
6
15
10
5
18
16
9
12
17
11

>  <PUBCHEM_MMFF94_PARTIAL_CHARGES>  (1) 
25
1 -0.57
10 0.06
11 0.12
12 0.69
13 -0.15
14 -0.15
15 0.13
16 -0.15
17 -0.15
18 0.66
2 -0.65
23 0.37
24 0.37
25 0.15
26 0.15
27 0.15
28 0.15
29 0.5
3 -0.57
4 -0.52
5 -0.52
6 -0.73
7 -0.55
8 0.91
9 0.3

>  <PUBCHEM_EFFECTIVE_ROTOR_COUNT>  (1) 
7

>  <PUBCHEM_PHARMACOPHORE_FEATURES>  (1) 
10
1 1 acceptor
1 2 acceptor
1 3 acceptor
1 4 acceptor
1 4 anion
1 5 acceptor
1 6 donor
1 7 donor
3 2 3 18 anion
6 11 13 14 15 16 17 rings

>  <PUBCHEM_HEAVY_ATOM_COUNT>  (1) 
18

>  <PUBCHEM_ATOM_DEF_STEREO_COUNT>  (1) 
0

>  <PUBCHEM_ATOM_UDEF_STEREO_COUNT>  (1) 
0

>  <PUBCHEM_BOND_DEF_STEREO_COUNT>  (1) 
0

>  <PUBCHEM_BOND_UDEF_STEREO_COUNT>  (1) 
0

>  <PUBCHEM_ISOTOPIC_ATOM_COUNT>  (1) 
0

>  <PUBCHEM_COMPONENT_COUNT>  (1) 
1

>  <PUBCHEM_CACTVS_TAUTO_COUNT>  (1) 
3

>  <PUBCHEM_CONFORMER_ID>  (1) 
0000226400000002

>  <PUBCHEM_MMFF94_ENERGY>  (1) 
41.3439

>  <PUBCHEM_FEATURE_SELFOVERLAP>  (1) 
50.938

>  <PUBCHEM_SHAPE_FINGERPRINT>  (1) 
10912923 1 18341334396529189728
11046707 91 17846775209439317897
11089746 13 13334736868331656247
11287383 113 16630521847741126184
11471102 20 18113904844962546016
117890 112 13551188887897040470
12236239 1 18343022181295663900
12500047 106 14923952270705435185
13167823 11 18343301453286422091
13862211 1 18334295328079609906
1420 363 15913330195119133781
14251718 22 18342177777750580684
14251757 5 18265893756086082911
14455015 7 14405188365141250468
14528608 73 18408605876760506244
14576447 43 18413101766747461651
15048467 5 11314312758679019262
15188451 53 14548440489168127533
15501527 24 18410015446472503132
15880784 105 16128084668069887163
17834072 33 18272370879857035876
17844677 252 16415760829782992753
18186145 218 16660647332697903153
19489759 90 14418136227445517905
200 152 18410575076389811537
20281389 69 8502374421161339711
20645477 70 17895193242781301730
20871999 31 18335133186004583713
21054139 6 18342733035492064790
21709351 56 18335420149475148021
220451 1 17989215810624140923
23035841 295 17846500331558832019
23402539 116 18410294683644749417
23402655 69 18261954033844767249
23557571 272 16271654364896965529
23559900 14 18336261361928024153
270888 7 13191436324985548191
29717793 49 18342179925624593118
33382 64 16271940268248332078
351380 3 18131348635724007655
42 15 11887953250534847209
441001 317 14418131803644826175
602551 16 16702293590014677055
7062679 117 18342741831895835875
7495541 125 16988838389260920024

>  <PUBCHEM_SHAPE_MULTIPOLES>  (1) 
326.14
13.84
1.44
1.05
2.55
0.02
-0.27
2.42
-4.69
0.15
0.03
1.11
0.12
-1.14

>  <PUBCHEM_SHAPE_SELFOVERLAP>  (1) 
673.023

>  <PUBCHEM_SHAPE_VOLUME>  (1) 
185.9

>  <PUBCHEM_COORDINATE_TYPE>  (1) 
2
5
10

$$$$
