8818
     RDKit          3D

 10 10  0  0  0  0  0  0  0  0999 V2000
   -3.7254    0.9495    0.1774 O   0  0  0  0  0  0  0  0  0  0  0  0
   -3.0325   -1.1182   -0.4581 O   0  0  0  0  0  0  0  0  0  0  0  0
    1.0673   -0.1538    0.3925 C   0  0  0  0  0  0  0  0  0  0  0  0
    2.1269   -1.2060    0.0806 C   0  0  0  0  0  0  0  0  0  0  0  0
    1.5609    1.0505   -0.4028 C   0  0  0  0  0  0  0  0  0  0  0  0
    3.4388   -0.4273    0.0948 C   0  0  0  0  0  0  0  0  0  0  0  0
    3.0729    1.0275   -0.2045 C   0  0  0  0  0  0  0  0  0  0  0  0
   -0.3376   -0.5877    0.0122 C   0  0  0  0  0  0  0  0  0  0  0  0
   -1.3924    0.4637    0.3405 C   0  0  0  0  0  0  0  0  0  0  0  0
   -2.7790    0.0017   -0.0327 C   0  0  0  0  0  0  0  0  0  0  0  0
  1 10  1  0
  2 10  2  0
  3  4  1  0
  3  5  1  0
  3  8  1  0
  4  6  1  0
  5  7  1  0
  6  7  1  0
  8  9  1  0
  9 10  1  0
M  END
>  <PUBCHEM_COMPOUND_CID>  (1) 
8818

>  <PUBCHEM_CONFORMER_RMSD>  (1) 
0.6

>  <PUBCHEM_CONFORMER_DIVERSEORDER>  (1) 
1
20
3
4
15
16
18
14
12
2
17
13
9
5
8
10
7
6
11
19

>  <PUBCHEM_MMFF94_PARTIAL_CHARGES>  (1) 
5
1 -0.65
10 0.66
2 -0.57
24 0.5
9 0.06

>  <PUBCHEM_EFFECTIVE_ROTOR_COUNT>  (1) 
4

>  <PUBCHEM_PHARMACOPHORE_FEATURES>  (1) 
4
1 1 acceptor
1 2 acceptor
3 1 2 10 anion
5 3 4 5 6 7 rings

>  <PUBCHEM_HEAVY_ATOM_COUNT>  (1) 
10

>  <PUBCHEM_ATOM_DEF_STEREO_COUNT>  (1) 
0

>  <PUBCHEM_ATOM_UDEF_STEREO_COUNT>  (1) 
0

>  <PUBCHEM_BOND_DEF_STEREO_COUNT>  (1) 
0

>  <PUBCHEM_BOND_UDEF_STEREO_COUNT>  (1) 
0

>  <PUBCHEM_ISOTOPIC_ATOM_COUNT>  (1) 
0

>  <PUBCHEM_COMPONENT_COUNT>  (1) 
1

>  <PUBCHEM_CACTVS_TAUTO_COUNT>  (1) 
1

>  <PUBCHEM_CONFORMER_ID>  (1) 
0000227200000001

>  <PUBCHEM_MMFF94_ENERGY>  (1) 
10.6514

>  <PUBCHEM_FEATURE_SELFOVERLAP>  (1) 
20.355

>  <PUBCHEM_SHAPE_FINGERPRINT>  (1) 
10219947 1 17894630366094992332
11062470 55 18411136922225277848
12932764 1 17023176120000262539
14144814 61 18409729560258281547
14325111 11 18410856581125182067
15775835 57 18411704291774023213
170605 34 18187646950790755624
18186145 218 18040996228333973071
190213 19 17775286062300994346
20645477 70 18337950082670360559
20871998 22 18050565141346421882
21119208 17 18342458114645392981
23402655 69 18409729538767887301
3248919 1 17894631495354899555

>  <PUBCHEM_SHAPE_MULTIPOLES>  (1) 
194.06
6.46
1.23
0.67
3.05
0.01
0
-0.46
-0.23
-0.3
-0.08
-0.01
0
-0.35

>  <PUBCHEM_SHAPE_SELFOVERLAP>  (1) 
378.405

>  <PUBCHEM_SHAPE_VOLUME>  (1) 
118.3

>  <PUBCHEM_COORDINATE_TYPE>  (1) 
2
5
10

$$$$
