8833
     RDKit          3D

 14 13  0  0  1  0  0  0  0  0999 V2000
    2.7439   -0.4647   -0.6396 O   0  0  0  0  0  0  0  0  0  0  0  0
    3.7372   -1.1197    1.3407 O   0  0  0  0  0  0  0  0  0  0  0  0
    0.0365    2.1893   -0.3343 C   0  0  0  0  0  0  0  0  0  0  0  0
   -1.0841    1.5929    0.5401 C   0  0  0  0  0  0  0  0  0  0  0  0
    1.0009    1.1489   -0.9340 C   0  0  0  0  0  0  0  0  0  0  0  0
   -1.8934    0.4987   -0.1639 C   0  0  0  0  0  0  0  0  0  0  0  0
    0.7976    3.2565    0.4597 C   0  0  0  0  0  0  0  0  0  0  0  0
   -2.9782   -0.0658    0.7600 C   0  0  0  0  0  0  0  0  0  0  0  0
    1.9026    0.4382    0.0689 C   0  0  0  0  0  0  0  0  0  0  0  0
   -3.8214   -1.1227    0.0870 C   0  0  0  0  0  0  0  0  0  0  0  0
   -4.5773   -0.7135   -1.1444 C   0  0  0  0  0  0  0  0  0  0  0  0
   -3.9175   -2.3650    0.5859 C   0  0  0  0  0  0  0  0  0  0  0  0
    3.6190   -1.1849    0.1245 C   0  0  0  0  0  0  0  0  0  0  0  0
    4.4342   -2.0882   -0.7506 C   0  0  0  0  0  0  0  0  0  0  0  0
  1  9  1  0
  1 13  1  0
  2 13  2  0
  3  4  1  0
  3  5  1  0
  3  7  1  0
  4  6  1  0
  5  9  1  0
  6  8  1  0
  8 10  1  0
 10 11  1  0
 10 12  2  0
 13 14  1  0
M  END
>  <PUBCHEM_COMPOUND_CID>  (1) 
8833

>  <PUBCHEM_CONFORMER_RMSD>  (1) 
0.8

>  <PUBCHEM_CONFORMER_DIVERSEORDER>  (1) 
1
235
258
292
276
313
221
36
213
306
124
326
7
27
231
178
153
247
273
243
52
100
285
262
325
322
89
204
111
239
309
135
97
58
148
154
214
118
6
98
102
132
4
166
291
305
286
202
260
123
96
59
94
317
215
255
24
129
169
227
167
23
180
165
224
264
29
246
245
155
266
115
212
274
279
320
87
82
64
26
93
150
321
136
140
331
170
225
90
160
271
327
47
319
25
130
196
254
107
251
282
217
21
91
162
329
182
114
171
302
3
127
84
173
234
28
226
92
233
242
151
80
174
229
183
208
177
147
2
289
134
199
189
152
301
75
105
269
50
219
99
324
81
318
76
270
53
195
121
38
117
125
294
296
156
44
312
244
67
19
290
223
11
197
69
37
238
186
164
303
9
206
104
277
210
188
267
113
181
236
159
295
314
120
252
5
222
299
207
200
310
68
57
297
283
187
185
287
133
307
62
131
122
298
112
201
13
61
54
261
284
300
106
191
73
95
63
184
328
249
288
256
55
168
14
253
250
20
146
108
143
218
304
116
209
33
293
190
230
257
311
110
101
45
119
66
198
278
203
43
85
308
83
332
71
138
194
31
77
157
128
315
12
228
32
211
330
240
39
316
192
40
8
268
137
16
139
56
179
144
142
86
51
275
22
237
42
175
46
145
216
109
323
205
48
220
74
272
126
70
193
161
263
41
259
49
248
79
88
60
17
30
158
176
18
241
10
72
78
35
15
232
172
265
163
281
103
280
141
65
149
34

>  <PUBCHEM_MMFF94_PARTIAL_CHARGES>  (1) 
11
1 -0.43
10 -0.28
11 0.14
12 -0.3
13 0.66
14 0.06
2 -0.57
32 0.15
33 0.15
8 0.14
9 0.28

>  <PUBCHEM_EFFECTIVE_ROTOR_COUNT>  (1) 
8

>  <PUBCHEM_PHARMACOPHORE_FEATURES>  (1) 
4
1 2 acceptor
1 7 hydrophobe
3 3 4 5 hydrophobe
3 6 8 10 hydrophobe

>  <PUBCHEM_HEAVY_ATOM_COUNT>  (1) 
14

>  <PUBCHEM_ATOM_DEF_STEREO_COUNT>  (1) 
0

>  <PUBCHEM_ATOM_UDEF_STEREO_COUNT>  (1) 
1

>  <PUBCHEM_BOND_DEF_STEREO_COUNT>  (1) 
0

>  <PUBCHEM_BOND_UDEF_STEREO_COUNT>  (1) 
0

>  <PUBCHEM_ISOTOPIC_ATOM_COUNT>  (1) 
0

>  <PUBCHEM_COMPONENT_COUNT>  (1) 
1

>  <PUBCHEM_CACTVS_TAUTO_COUNT>  (1) 
1

>  <PUBCHEM_CONFORMER_ID>  (1) 
0000228100000001

>  <PUBCHEM_MMFF94_ENERGY>  (1) 
13.981

>  <PUBCHEM_FEATURE_SELFOVERLAP>  (1) 
20.534

>  <PUBCHEM_SHAPE_FINGERPRINT>  (1) 
11046707 91 18337394842219632534
11137873 295 18260551160498065571
12006461 19 18412829083521229267
12363563 72 18410863148130366135
12553582 1 18338250296567816827
13533116 47 18196657513527408291
1420 369 18412830187512836835
14251710 61 18410579482725719631
14251731 5 18410578378955859466
15352361 1 18410857654899167815
17834072 14 18411409622810811953
1798214 20 18114176432428987371
18186145 218 11314316014148074652
193927 3 18341059548719022230
20281475 54 18335993055299800773
20291156 8 18408889524805993906
20621476 21 17486789472052121822
20645477 70 18264763449568148551
20671657 53 18409452518104798573
20871998 22 18411698811353997304
21250096 35 18408599249541533571
21354914 74 18335422404132193188
27216 239 10951755387899624543
3086196 2 18270677554598970024
88748 71 18262525913288846499

>  <PUBCHEM_SHAPE_MULTIPOLES>  (1) 
276.37
9.37
3.12
1.04
0.89
1.52
0.01
-9.9
0.54
-1.17
-0.32
0.03
-0.17
0.27

>  <PUBCHEM_SHAPE_SELFOVERLAP>  (1) 
512.472

>  <PUBCHEM_SHAPE_VOLUME>  (1) 
174.3

>  <PUBCHEM_COORDINATE_TYPE>  (1) 
2
5
10

$$$$
