8834
     RDKit          3D

 15 14  0  0  1  0  0  0  0  0999 V2000
    1.2470   -1.6645    0.3809 O   0  0  0  0  0  0  0  0  0  0  0  0
    2.3141   -0.5431   -1.3301 O   0  0  0  0  0  0  0  0  0  0  0  0
   -1.6926   -1.3425    0.4320 C   0  0  0  0  0  0  0  0  0  0  0  0
   -2.9514   -0.5003    0.1191 C   0  0  0  0  0  0  0  0  0  0  0  0
   -0.8216   -1.5500   -0.8212 C   0  0  0  0  0  0  0  0  0  0  0  0
   -2.6934    0.8599   -0.5454 C   0  0  0  0  0  0  0  0  0  0  0  0
   -2.1309   -2.6815    1.0382 C   0  0  0  0  0  0  0  0  0  0  0  0
    0.4449   -2.3602   -0.5656 C   0  0  0  0  0  0  0  0  0  0  0  0
   -1.8901    1.7878    0.3228 C   0  0  0  0  0  0  0  0  0  0  0  0
   -0.7440    2.4290    0.0254 C   0  0  0  0  0  0  0  0  0  0  0  0
    2.1504   -0.7763   -0.1404 C   0  0  0  0  0  0  0  0  0  0  0  0
   -0.1103    2.2602   -1.3306 C   0  0  0  0  0  0  0  0  0  0  0  0
    0.0091    3.3463    0.9462 C   0  0  0  0  0  0  0  0  0  0  0  0
    2.9160   -0.1260    0.9879 C   0  0  0  0  0  0  0  0  0  0  0  0
    3.9528    0.8612    0.4810 C   0  0  0  0  0  0  0  0  0  0  0  0
  1  8  1  0
  1 11  1  0
  2 11  2  0
  3  4  1  0
  3  5  1  0
  3  7  1  0
  4  6  1  0
  5  8  1  0
  6  9  1  0
  9 10  2  3
 10 12  1  0
 10 13  1  0
 11 14  1  0
 14 15  1  0
M  END
>  <PUBCHEM_COMPOUND_CID>  (1) 
8834

>  <PUBCHEM_CONFORMER_RMSD>  (1) 
1

>  <PUBCHEM_CONFORMER_DIVERSEORDER>  (1) 
3
182
53
77
66
122
94
98
197
69
1
99
175
56
179
176
165
43
144
22
55
57
167
87
37
12
193
80
183
78
51
16
90
188
70
158
28
189
196
153
160
42
41
170
116
156
126
34
118
71
81
11
48
169
127
100
76
59
35
63
117
161
50
47
166
168
102
9
4
105
190
73
32
13
17
162
7
40
131
147
31
38
120
195
110
115
84
137
130
91
172
146
15
36
139
181
171
68
72
143
52
125
54
64
44
198
103
194
95
155
75
88
14
159
107
174
109
152
191
61
186
173
23
92
19
5
133
58
85
108
74
145
123
30
2
65
192
177
135
134
104
184
60
149
128
148
101
154
29
21
129
106
26
96
113
140
142
178
132
24
20
33
151
157
180
97
89
199
39
187
185
10
119
136
86
111
124
121
25
62
164
67
8
27
46
93
150
45
138
82
114
163
6
112
141
79
49
83
18

>  <PUBCHEM_MMFF94_PARTIAL_CHARGES>  (1) 
11
1 -0.43
10 -0.28
11 0.66
12 0.14
13 0.14
14 0.06
2 -0.57
28 0.15
6 0.14
8 0.28
9 -0.29

>  <PUBCHEM_EFFECTIVE_ROTOR_COUNT>  (1) 
8

>  <PUBCHEM_PHARMACOPHORE_FEATURES>  (1) 
5
1 15 hydrophobe
1 2 acceptor
1 7 hydrophobe
3 10 12 13 hydrophobe
5 3 4 5 6 9 hydrophobe

>  <PUBCHEM_HEAVY_ATOM_COUNT>  (1) 
15

>  <PUBCHEM_ATOM_DEF_STEREO_COUNT>  (1) 
0

>  <PUBCHEM_ATOM_UDEF_STEREO_COUNT>  (1) 
1

>  <PUBCHEM_BOND_DEF_STEREO_COUNT>  (1) 
0

>  <PUBCHEM_BOND_UDEF_STEREO_COUNT>  (1) 
0

>  <PUBCHEM_ISOTOPIC_ATOM_COUNT>  (1) 
0

>  <PUBCHEM_COMPONENT_COUNT>  (1) 
1

>  <PUBCHEM_CACTVS_TAUTO_COUNT>  (1) 
1

>  <PUBCHEM_CONFORMER_ID>  (1) 
0000228200000003

>  <PUBCHEM_MMFF94_ENERGY>  (1) 
13.5136

>  <PUBCHEM_FEATURE_SELFOVERLAP>  (1) 
25.378

>  <PUBCHEM_SHAPE_FINGERPRINT>  (1) 
10989021 7 17836923778159292743
12382932 28 18410011035203324096
13544592 271 18411131450785310199
13764800 53 18336272262190868267
14022349 108 17617953868613302475
14251711 518 18122064466369794174
20388701 513 18410569600343250310
21249577 28 18046633579364049500
21524375 3 17762057644903088775
22802520 49 18128553564932821902
23557571 272 18340495538077464230
23590187 152 18341316856141371192
2748010 2 18340768251062064383
3524813 1 18131340947305007552
44154327 71 18120111493253728717
526903 126 18197490727928350305
69474 34 18193850451445943291
81228 2 18336840684037905403
9925002 15 16477387627749703542

>  <PUBCHEM_SHAPE_MULTIPOLES>  (1) 
296.95
4.91
3.85
1.15
3.49
1.81
-0.14
-0.77
0.95
-1.29
0.47
0.17
0.08
0.62

>  <PUBCHEM_SHAPE_SELFOVERLAP>  (1) 
553.607

>  <PUBCHEM_SHAPE_VOLUME>  (1) 
186.2

>  <PUBCHEM_COORDINATE_TYPE>  (1) 
2
5
10

$$$$
