8844
     RDKit          3D

 14 13  0  0  0  0  0  0  0  0999 V2000
    4.2407    0.4288    0.0321 O   0  0  0  0  0  0  0  0  0  0  0  0
   -4.2572   -0.4208    0.0563 O   0  0  0  0  0  0  0  0  0  0  0  0
    3.2186   -1.6371   -0.0610 O   0  0  0  0  0  0  0  0  0  0  0  0
   -3.1678    1.6099   -0.0796 O   0  0  0  0  0  0  0  0  0  0  0  0
    0.6347   -0.4471   -0.1640 C   0  0  0  0  0  0  0  0  0  0  0  0
   -0.6416    0.4034   -0.1665 C   0  0  0  0  0  0  0  0  0  0  0  0
    1.9027    0.4071   -0.1439 C   0  0  0  0  0  0  0  0  0  0  0  0
   -1.9075   -0.4480   -0.1152 C   0  0  0  0  0  0  0  0  0  0  0  0
    3.1705   -0.4146   -0.0645 C   0  0  0  0  0  0  0  0  0  0  0  0
   -3.1627    0.3861   -0.0447 C   0  0  0  0  0  0  0  0  0  0  0  0
    5.5178   -0.2070    0.1464 C   0  0  0  0  0  0  0  0  0  0  0  0
   -5.5164    0.2554    0.1264 C   0  0  0  0  0  0  0  0  0  0  0  0
    6.5910    0.8564    0.2436 C   0  0  0  0  0  0  0  0  0  0  0  0
   -6.6226   -0.7723    0.2346 C   0  0  0  0  0  0  0  0  0  0  0  0
  1  9  1  0
  1 11  1  0
  2 10  1  0
  2 12  1  0
  3  9  2  0
  4 10  2  0
  5  6  1  0
  5  7  1  0
  6  8  1  0
  7  9  1  0
  8 10  1  0
 11 13  1  0
 12 14  1  0
M  END
>  <PUBCHEM_COMPOUND_CID>  (1) 
8844

>  <PUBCHEM_CONFORMER_RMSD>  (1) 
0.8

>  <PUBCHEM_CONFORMER_DIVERSEORDER>  (1) 
1
45
17
21
73
2
75
3
83
44
102
41
35
31
63
61
11
23
12
101
94
93
77
15
6
81
70
22
91
84
7
53
33
66
42
47
4
38
29
72
49
24
13
5
26
97
36
79
82
78
80
37
51
86
34
48
85
89
57
19
55
40
74
92
20
62
54
9
60
32
16
96
56
95
87
10
30
18
69
8
100
50
39
64
71
25
67
27
14
52
58
76
59
90
68
99
43
88
46
98
65
28

>  <PUBCHEM_MMFF94_PARTIAL_CHARGES>  (1) 
10
1 -0.43
10 0.66
11 0.28
12 0.28
2 -0.43
3 -0.57
4 -0.57
7 0.06
8 0.06
9 0.66

>  <PUBCHEM_EFFECTIVE_ROTOR_COUNT>  (1) 
9

>  <PUBCHEM_PHARMACOPHORE_FEATURES>  (1) 
3
1 3 acceptor
1 4 acceptor
4 5 6 7 8 hydrophobe

>  <PUBCHEM_HEAVY_ATOM_COUNT>  (1) 
14

>  <PUBCHEM_ATOM_DEF_STEREO_COUNT>  (1) 
0

>  <PUBCHEM_ATOM_UDEF_STEREO_COUNT>  (1) 
0

>  <PUBCHEM_BOND_DEF_STEREO_COUNT>  (1) 
0

>  <PUBCHEM_BOND_UDEF_STEREO_COUNT>  (1) 
0

>  <PUBCHEM_ISOTOPIC_ATOM_COUNT>  (1) 
0

>  <PUBCHEM_COMPONENT_COUNT>  (1) 
1

>  <PUBCHEM_CACTVS_TAUTO_COUNT>  (1) 
1

>  <PUBCHEM_CONFORMER_ID>  (1) 
0000228C00000001

>  <PUBCHEM_MMFF94_ENERGY>  (1) 
6.2734

>  <PUBCHEM_FEATURE_SELFOVERLAP>  (1) 
15.223

>  <PUBCHEM_SHAPE_FINGERPRINT>  (1) 
10354089 29 18202282511566383024
10968037 39 18409448103041688751
11315181 36 12468361241060610885
12091667 2 17489587866567010885
13073987 5 18338234860307538680
14123238 8 18410856551049855006
1420 363 18408608058419198307
14251718 22 18334857216611476569
14251732 16 18410856589709841995
14251764 46 18410855468723377634
15242439 84 10015860985508761508
17834072 33 18408604789959551356
17834076 25 14979958072824395172
19489759 90 14273451470945302485
20645477 70 18270683048337109766
20767249 13 15574715789525155045
20767249 213 18272369789003836512
21130983 4 17775287187920218192
220451 1 15339117927083435629
22224240 67 18113614621385412402
22896161 15 18411136974092062903
23035841 295 13902190378636296788
23402539 116 18408599271617542647
23521765 1 18341895198935613445
28498 318 9006790782546544000
29717793 49 11602819082316478578
3545911 37 18343865519899691894
42788 4 18410856555350103525
5104073 3 18265615385757758969
542803 24 15769775749362384057
57583515 80 13045940205553690965
8209 1 18410573993746666996

>  <PUBCHEM_SHAPE_MULTIPOLES>  (1) 
264.64
17.44
1.09
0.61
0.22
0.01
0
-0.3
2.09
-0.08
-0.01
0
0
0.2

>  <PUBCHEM_SHAPE_SELFOVERLAP>  (1) 
492.2

>  <PUBCHEM_SHAPE_VOLUME>  (1) 
166

>  <PUBCHEM_COORDINATE_TYPE>  (1) 
2
5
10

$$$$
