8858
     RDKit          3D

  7  6  0  0  0  0  0  0  0  0999 V2000
   -1.4335    1.1696   -0.3585 O   0  0  0  0  0  0  0  0  0  0  0  0
    1.2350   -0.1226    0.0117 C   0  0  0  0  0  0  0  0  0  0  0  0
    0.0384   -0.6997   -0.1970 C   0  0  0  0  0  0  0  0  0  0  0  0
    2.5741   -0.7957   -0.1026 C   0  0  0  0  0  0  0  0  0  0  0  0
    1.3089    1.3373    0.3769 C   0  0  0  0  0  0  0  0  0  0  0  0
   -1.2803   -0.0162   -0.0790 C   0  0  0  0  0  0  0  0  0  0  0  0
   -2.4426   -0.8728    0.3484 C   0  0  0  0  0  0  0  0  0  0  0  0
  1  6  2  0
  2  3  2  3
  2  4  1  0
  2  5  1  0
  3  6  1  0
  6  7  1  0
M  END
>  <PUBCHEM_COMPOUND_CID>  (1) 
8858

>  <PUBCHEM_CONFORMER_RMSD>  (1) 
0.4

>  <PUBCHEM_CONFORMER_DIVERSEORDER>  (1) 
3
2
1
4

>  <PUBCHEM_MMFF94_PARTIAL_CHARGES>  (1) 
8
1 -0.57
2 -0.28
3 -0.14
4 0.14
5 0.14
6 0.49
7 0.06
8 0.15

>  <PUBCHEM_EFFECTIVE_ROTOR_COUNT>  (1) 
1

>  <PUBCHEM_PHARMACOPHORE_FEATURES>  (1) 
2
1 1 acceptor
3 2 4 5 hydrophobe

>  <PUBCHEM_HEAVY_ATOM_COUNT>  (1) 
7

>  <PUBCHEM_ATOM_DEF_STEREO_COUNT>  (1) 
0

>  <PUBCHEM_ATOM_UDEF_STEREO_COUNT>  (1) 
0

>  <PUBCHEM_BOND_DEF_STEREO_COUNT>  (1) 
0

>  <PUBCHEM_BOND_UDEF_STEREO_COUNT>  (1) 
0

>  <PUBCHEM_ISOTOPIC_ATOM_COUNT>  (1) 
0

>  <PUBCHEM_COMPONENT_COUNT>  (1) 
1

>  <PUBCHEM_CACTVS_TAUTO_COUNT>  (1) 
5

>  <PUBCHEM_CONFORMER_ID>  (1) 
0000229A00000003

>  <PUBCHEM_MMFF94_ENERGY>  (1) 
12.0831

>  <PUBCHEM_FEATURE_SELFOVERLAP>  (1) 
10.148

>  <PUBCHEM_SHAPE_FINGERPRINT>  (1) 
10857977 72 18116429447960744403
12932741 1 18187917400296273719
20096714 4 18342452677248483648
21040471 1 18197213869972527632
23552423 10 18186522119988008182
24536 1 18188193390483806660
29004967 10 18130508544041272338
5084963 1 18409450301453014594
5460574 1 9511461117394144238

>  <PUBCHEM_SHAPE_MULTIPOLES>  (1) 
138.19
3.42
1.29
0.66
0.19
0.35
-0.02
-0.86
-0.22
-0.19
-0.03
0.03
0.01
0.28

>  <PUBCHEM_SHAPE_SELFOVERLAP>  (1) 
253.291

>  <PUBCHEM_SHAPE_VOLUME>  (1) 
88.8

>  <PUBCHEM_COORDINATE_TYPE>  (1) 
2
5
10

$$$$
