8862
     RDKit          3D

  8  8  0  0  1  0  0  0  0  0999 V2000
   -0.0001   -1.7657    0.1949 O   0  0  0  0  0  0  0  0  0  0  0  0
    0.0000    1.0732   -0.0788 N   0  0  0  0  0  0  0  0  0  0  0  0
   -1.2062    0.3379    0.3284 C   0  0  0  0  0  0  0  0  0  0  0  0
    1.2063    0.3378    0.3283 C   0  0  0  0  0  0  0  0  0  0  0  0
   -1.1766   -1.0824   -0.2416 C   0  0  0  0  0  0  0  0  0  0  0  0
    1.1766   -1.0825   -0.2415 C   0  0  0  0  0  0  0  0  0  0  0  0
   -2.4455    1.0909   -0.1448 C   0  0  0  0  0  0  0  0  0  0  0  0
    2.4454    1.0908   -0.1448 C   0  0  0  0  0  0  0  0  0  0  0  0
  1  5  1  0
  1  6  1  0
  2  3  1  0
  2  4  1  0
  3  5  1  0
  3  7  1  0
  4  6  1  0
  4  8  1  0
M  END
>  <PUBCHEM_COMPOUND_CID>  (1) 
8862

>  <PUBCHEM_CONFORMER_RMSD>  (1) 
0.4

>  <PUBCHEM_CONFORMER_DIVERSEORDER>  (1) 
3
4
1
2

>  <PUBCHEM_MMFF94_PARTIAL_CHARGES>  (1) 
7
1 -0.56
11 0.36
2 -0.9
3 0.27
4 0.27
5 0.28
6 0.28

>  <PUBCHEM_EFFECTIVE_ROTOR_COUNT>  (1) 
1.2

>  <PUBCHEM_PHARMACOPHORE_FEATURES>  (1) 
4
1 1 acceptor
1 2 cation
1 2 donor
6 1 2 3 4 5 6 rings

>  <PUBCHEM_HEAVY_ATOM_COUNT>  (1) 
8

>  <PUBCHEM_ATOM_DEF_STEREO_COUNT>  (1) 
0

>  <PUBCHEM_ATOM_UDEF_STEREO_COUNT>  (1) 
2

>  <PUBCHEM_BOND_DEF_STEREO_COUNT>  (1) 
0

>  <PUBCHEM_BOND_UDEF_STEREO_COUNT>  (1) 
0

>  <PUBCHEM_ISOTOPIC_ATOM_COUNT>  (1) 
0

>  <PUBCHEM_COMPONENT_COUNT>  (1) 
1

>  <PUBCHEM_CACTVS_TAUTO_COUNT>  (1) 
1

>  <PUBCHEM_CONFORMER_ID>  (1) 
0000229E00000003

>  <PUBCHEM_MMFF94_ENERGY>  (1) 
3.4618

>  <PUBCHEM_FEATURE_SELFOVERLAP>  (1) 
20.297

>  <PUBCHEM_SHAPE_FINGERPRINT>  (1) 
16714656 1 18122912194166524420
18185500 45 17403178093062824739
20096714 4 18339643343371879339
21040471 1 18411698802811022200
23235685 24 18411415120168594705
23552423 10 18334296508926636198
241688 4 16898775982642814130
29004967 10 18046073661614990345

>  <PUBCHEM_SHAPE_MULTIPOLES>  (1) 
153.79
2.95
1.67
0.65
0
0.46
0
-1.41
-0.21
0
-0.05
0
0
0

>  <PUBCHEM_SHAPE_SELFOVERLAP>  (1) 
291.963

>  <PUBCHEM_SHAPE_VOLUME>  (1) 
95.6

>  <PUBCHEM_COORDINATE_TYPE>  (1) 
2
5
10

$$$$
