8878
     RDKit          3D

 12 11  0  0  0  0  0  0  0  0999 V2000
   -2.3765    0.2709    0.2298 O   0  0  0  0  0  0  0  0  0  0  0  0
   -1.2265   -1.7011   -0.1008 O   0  0  0  0  0  0  0  0  0  0  0  0
    2.5003    0.5705    0.0938 C   0  0  0  0  0  0  0  0  0  0  0  0
    3.8013   -0.2086   -0.1090 C   0  0  0  0  0  0  0  0  0  0  0  0
    1.2795   -0.3474   -0.0245 C   0  0  0  0  0  0  0  0  0  0  0  0
    5.0218    0.6999    0.0368 C   0  0  0  0  0  0  0  0  0  0  0  0
   -0.0355    0.3984    0.2015 C   0  0  0  0  0  0  0  0  0  0  0  0
    6.3157   -0.0636   -0.1964 C   0  0  0  0  0  0  0  0  0  0  0  0
   -1.2525   -0.4941    0.0972 C   0  0  0  0  0  0  0  0  0  0  0  0
   -3.6179   -0.4334    0.1223 C   0  0  0  0  0  0  0  0  0  0  0  0
   -4.7374    0.5395    0.2889 C   0  0  0  0  0  0  0  0  0  0  0  0
   -5.6723    0.7690   -0.6397 C   0  0  0  0  0  0  0  0  0  0  0  0
  1  9  1  0
  1 10  1  0
  2  9  2  0
  3  4  1  0
  3  5  1  0
  4  6  1  0
  5  7  1  0
  6  8  1  0
  7  9  1  0
 10 11  1  0
 11 12  2  0
M  END
>  <PUBCHEM_COMPOUND_CID>  (1) 
8878

>  <PUBCHEM_CONFORMER_RMSD>  (1) 
0.8

>  <PUBCHEM_CONFORMER_DIVERSEORDER>  (1) 
1
65
84
68
150
31
192
177
45
179
54
53
187
41
58
188
76
4
98
107
85
167
185
3
184
186
108
169
106
6
23
59
145
2
77
74
47
32
94
79
131
181
191
9
95
111
122
139
7
124
73
22
18
27
81
38
16
120
196
156
130
180
91
183
21
128
12
163
141
133
34
171
29
136
138
17
170
26
115
13
149
67
25
153
117
80
129
134
14
160
57
152
48
46
158
101
82
135
87
60
97
66
100
121
39
28
43
10
195
70
88
113
93
164
182
118
11
96
116
15
56
109
173
147
62
193
90
19
166
61
86
172
24
159
8
157
140
49
42
123
137
55
72
36
105
119
151
71
194
44
146
92
33
5
20
143
114
110
112
52
161
189
30
132
83
165
168
102
142
64
148
125
126
89
104
63
103
176
162
127
144
78
178
175
174
51
37
155
190
35
75
50
69
40
99
154

>  <PUBCHEM_MMFF94_PARTIAL_CHARGES>  (1) 
10
1 -0.43
10 0.42
11 -0.29
12 -0.3
2 -0.57
28 0.15
29 0.15
30 0.15
7 0.06
9 0.66

>  <PUBCHEM_EFFECTIVE_ROTOR_COUNT>  (1) 
8

>  <PUBCHEM_PHARMACOPHORE_FEATURES>  (1) 
4
1 12 hydrophobe
1 2 acceptor
1 8 hydrophobe
5 3 4 5 6 7 hydrophobe

>  <PUBCHEM_HEAVY_ATOM_COUNT>  (1) 
12

>  <PUBCHEM_ATOM_DEF_STEREO_COUNT>  (1) 
0

>  <PUBCHEM_ATOM_UDEF_STEREO_COUNT>  (1) 
0

>  <PUBCHEM_BOND_DEF_STEREO_COUNT>  (1) 
0

>  <PUBCHEM_BOND_UDEF_STEREO_COUNT>  (1) 
0

>  <PUBCHEM_ISOTOPIC_ATOM_COUNT>  (1) 
0

>  <PUBCHEM_COMPONENT_COUNT>  (1) 
1

>  <PUBCHEM_CACTVS_TAUTO_COUNT>  (1) 
1

>  <PUBCHEM_CONFORMER_ID>  (1) 
000022AE00000001

>  <PUBCHEM_MMFF94_ENERGY>  (1) 
2.2533

>  <PUBCHEM_FEATURE_SELFOVERLAP>  (1) 
20.297

>  <PUBCHEM_SHAPE_FINGERPRINT>  (1) 
11401426 45 18273214205301777429
12091667 2 18040718078162927667
12815109 37 18202283611014720240
13533116 47 17774723052920216054
13740256 8 9943510930537706277
14123238 8 14908181949552730040
1420 363 9511461138858463684
14251718 22 12247680469968381160
14251731 8 18410576201354582402
15048467 5 18040434390882713068
15242433 33 18408323294104291394
15242439 84 18131070454644035816
15501527 16 18407761447561728753
17834072 33 11455883676826959656
17834072 8 18413107264305581109
17834076 25 18410855464433698092
187816 3 17346599673076711595
200 152 11455893554919469759
20279233 1 17417823858986650926
20281389 69 18113334206543359444
20645477 56 18334010601063465892
20645477 70 16845022199981790206
20767249 13 13542464267399205192
20767249 213 18260267455874334493
23218964 4 18408040702214251800
23402539 116 18273209811587280637
23402655 69 18059855035057831181
23559900 14 17917423276540868552
300161 21 18341607140444074522
366044 4 18412262839713260579
42788 4 18409449193509805160
8209 1 18412544309999118204

>  <PUBCHEM_SHAPE_MULTIPOLES>  (1) 
235.22
14.75
1
0.66
5.17
0.23
0.02
-3.47
1.61
-0.41
0.04
-0.19
-0.04
0.21

>  <PUBCHEM_SHAPE_SELFOVERLAP>  (1) 
429.458

>  <PUBCHEM_SHAPE_VOLUME>  (1) 
149.8

>  <PUBCHEM_COORDINATE_TYPE>  (1) 
2
5
10

$$$$
