8882
     RDKit          3D

  5  5  0  0  0  0  0  0  0  0999 V2000
    0.0414    1.2591   -0.1294 C   0  0  0  0  0  0  0  0  0  0  0  0
   -1.2097    0.4131    0.1063 C   0  0  0  0  0  0  0  0  0  0  0  0
    1.2341    0.3330    0.1064 C   0  0  0  0  0  0  0  0  0  0  0  0
   -0.7005   -0.9807   -0.0417 C   0  0  0  0  0  0  0  0  0  0  0  0
    0.6347   -1.0245   -0.0417 C   0  0  0  0  0  0  0  0  0  0  0  0
  1  2  1  0
  1  3  1  0
  2  4  1  0
  3  5  1  0
  4  5  2  0
M  END
>  <PUBCHEM_COMPOUND_CID>  (1) 
8882

>  <PUBCHEM_CONFORMER_RMSD>  (1) 
0.4

>  <PUBCHEM_CONFORMER_DIVERSEORDER>  (1) 
1

>  <PUBCHEM_MMFF94_PARTIAL_CHARGES>  (1) 
6
12 0.15
13 0.15
2 0.14
3 0.14
4 -0.29
5 -0.29

>  <PUBCHEM_EFFECTIVE_ROTOR_COUNT>  (1) 
0.6

>  <PUBCHEM_PHARMACOPHORE_FEATURES>  (1) 
1
5 1 2 3 4 5 rings

>  <PUBCHEM_HEAVY_ATOM_COUNT>  (1) 
5

>  <PUBCHEM_ATOM_DEF_STEREO_COUNT>  (1) 
0

>  <PUBCHEM_ATOM_UDEF_STEREO_COUNT>  (1) 
0

>  <PUBCHEM_BOND_DEF_STEREO_COUNT>  (1) 
0

>  <PUBCHEM_BOND_UDEF_STEREO_COUNT>  (1) 
0

>  <PUBCHEM_ISOTOPIC_ATOM_COUNT>  (1) 
0

>  <PUBCHEM_COMPONENT_COUNT>  (1) 
1

>  <PUBCHEM_CACTVS_TAUTO_COUNT>  (1) 
1

>  <PUBCHEM_CONFORMER_ID>  (1) 
000022B200000001

>  <PUBCHEM_MMFF94_ENERGY>  (1) 
1.8995

>  <PUBCHEM_FEATURE_SELFOVERLAP>  (1) 
5.074

>  <PUBCHEM_SHAPE_FINGERPRINT>  (1) 
16714656 1 18338248106350650380
20096714 4 18411704304585033073
21015797 1 9290854008958753127
21040471 1 18411138008931274369
5943 1 12583404645670800043

>  <PUBCHEM_SHAPE_MULTIPOLES>  (1) 
102.9
1.39
1.39
0.62
0.01
0.02
0
0.04
0.06
0
-0.05
0
0.01
-0.01

>  <PUBCHEM_SHAPE_SELFOVERLAP>  (1) 
199.764

>  <PUBCHEM_SHAPE_VOLUME>  (1) 
62.3

>  <PUBCHEM_COORDINATE_TYPE>  (1) 
2
5
10

$$$$
