8885
     RDKit          3D

 13 12  0  0  0  0  0  0  0  0999 V2000
   -4.3642    0.0807    0.0101 S   0  0  0  0  0  0  0  0  0  0  0  0
   -2.8455   -0.5241   -0.0082 O   0  0  0  0  0  0  0  0  0  0  0  0
   -5.3007   -1.2426    0.1922 O   0  0  0  0  0  0  0  0  0  0  0  0
   -4.5016    0.8821    1.2120 O   0  0  0  0  0  0  0  0  0  0  0  0
   -4.6561    0.6586   -1.2885 O   0  0  0  0  0  0  0  0  0  0  0  0
    2.0708   -0.4024   -0.0877 C   0  0  0  0  0  0  0  0  0  0  0  0
    3.3483    0.4418   -0.0622 C   0  0  0  0  0  0  0  0  0  0  0  0
    0.7890    0.4315   -0.0294 C   0  0  0  0  0  0  0  0  0  0  0  0
    4.6301   -0.3938   -0.0460 C   0  0  0  0  0  0  0  0  0  0  0  0
   -0.4517   -0.4603   -0.0343 C   0  0  0  0  0  0  0  0  0  0  0  0
    5.8697    0.4966    0.0525 C   0  0  0  0  0  0  0  0  0  0  0  0
   -1.7336    0.3605   -0.0180 C   0  0  0  0  0  0  0  0  0  0  0  0
    7.1454   -0.3288    0.1074 C   0  0  0  0  0  0  0  0  0  0  0  0
  1  2  1  0
  1  3  1  0
  1  4  2  0
  1  5  2  0
  2 12  1  0
  6  7  1  0
  6  8  1  0
  7  9  1  0
  8 10  1  0
  9 11  1  0
 10 12  1  0
 11 13  1  0
M  END
>  <PUBCHEM_COMPOUND_CID>  (1) 
8885

>  <PUBCHEM_CONFORMER_RMSD>  (1) 
0.8

>  <PUBCHEM_CONFORMER_DIVERSEORDER>  (1) 
1
98
68
85
51
5
90
2
33
59
69
99
53
17
16
79
82
30
80
3
67
96
36
97
11
64
72
27
43
56
10
62
42
50
48
49
4
91
45
13
86
63
46
81
93
41
34
6
58
9
14
32
94
24
44
26
23
12
47
8
78
60
74
89
73
39
92
19
66
38
28
22
95
75
83
70
15
54
55
20
71
65
21
25
31
40
29
57
7
18
52
87
76
88
61
77
84
37
35

>  <PUBCHEM_MMFF94_PARTIAL_CHARGES>  (1) 
7
1 1.67
12 0.28
2 -0.46
3 -0.68
31 0.5
4 -0.65
5 -0.65

>  <PUBCHEM_EFFECTIVE_ROTOR_COUNT>  (1) 
8

>  <PUBCHEM_PHARMACOPHORE_FEATURES>  (1) 
7
1 13 hydrophobe
1 3 acceptor
1 4 acceptor
1 5 acceptor
3 6 8 10 hydrophobe
3 7 9 11 hydrophobe
4 1 3 4 5 anion

>  <PUBCHEM_HEAVY_ATOM_COUNT>  (1) 
13

>  <PUBCHEM_ATOM_DEF_STEREO_COUNT>  (1) 
0

>  <PUBCHEM_ATOM_UDEF_STEREO_COUNT>  (1) 
0

>  <PUBCHEM_BOND_DEF_STEREO_COUNT>  (1) 
0

>  <PUBCHEM_BOND_UDEF_STEREO_COUNT>  (1) 
0

>  <PUBCHEM_ISOTOPIC_ATOM_COUNT>  (1) 
0

>  <PUBCHEM_COMPONENT_COUNT>  (1) 
1

>  <PUBCHEM_CACTVS_TAUTO_COUNT>  (1) 
1

>  <PUBCHEM_CONFORMER_ID>  (1) 
000022B500000001

>  <PUBCHEM_MMFF94_ENERGY>  (1) 
-1.4801

>  <PUBCHEM_FEATURE_SELFOVERLAP>  (1) 
35.592

>  <PUBCHEM_SHAPE_FINGERPRINT>  (1) 
12091667 2 17385443219588377813
13533116 47 18200873973269484362
14123238 8 17632295670599705676
1420 363 18060143150043516390
14251718 22 18260829310679556618
14251764 46 18131069341962747358
17834072 33 18410856611474861396
17834076 25 17989488524321150754
19489759 90 16805039618930777493
20621476 8 18272093738824119364
23402539 116 17749384875412184470
42788 4 18410293618803823532
8209 1 18334293171478331055

>  <PUBCHEM_SHAPE_MULTIPOLES>  (1) 
247.91
17.47
0.89
0.78
11.93
0.06
0.02
0.63
-0.59
-0.55
-0.04
-0.82
-0.14
0.02

>  <PUBCHEM_SHAPE_SELFOVERLAP>  (1) 
439.835

>  <PUBCHEM_SHAPE_VOLUME>  (1) 
161.2

>  <PUBCHEM_COORDINATE_TYPE>  (1) 
2
5
10

$$$$
