8894
     RDKit          3D

  6  6  0  0  0  0  0  0  0  0999 V2000
   -1.3754   -0.0008   -0.2544 O   0  0  0  0  0  0  0  0  0  0  0  0
    1.4623    0.0006    0.2102 C   0  0  0  0  0  0  0  0  0  0  0  0
    0.7054   -1.2532   -0.2150 C   0  0  0  0  0  0  0  0  0  0  0  0
    0.7043    1.2539   -0.2146 C   0  0  0  0  0  0  0  0  0  0  0  0
   -0.7476   -1.1849    0.2371 C   0  0  0  0  0  0  0  0  0  0  0  0
   -0.7489    1.1843    0.2366 C   0  0  0  0  0  0  0  0  0  0  0  0
  1  5  1  0
  1  6  1  0
  2  3  1  0
  2  4  1  0
  3  5  1  0
  4  6  1  0
M  END
>  <PUBCHEM_COMPOUND_CID>  (1) 
8894

>  <PUBCHEM_CONFORMER_RMSD>  (1) 
0.4

>  <PUBCHEM_CONFORMER_DIVERSEORDER>  (1) 
1

>  <PUBCHEM_MMFF94_PARTIAL_CHARGES>  (1) 
3
1 -0.56
5 0.28
6 0.28

>  <PUBCHEM_EFFECTIVE_ROTOR_COUNT>  (1) 
1.2

>  <PUBCHEM_PHARMACOPHORE_FEATURES>  (1) 
2
1 1 acceptor
6 1 2 3 4 5 6 rings

>  <PUBCHEM_HEAVY_ATOM_COUNT>  (1) 
6

>  <PUBCHEM_ATOM_DEF_STEREO_COUNT>  (1) 
0

>  <PUBCHEM_ATOM_UDEF_STEREO_COUNT>  (1) 
0

>  <PUBCHEM_BOND_DEF_STEREO_COUNT>  (1) 
0

>  <PUBCHEM_BOND_UDEF_STEREO_COUNT>  (1) 
0

>  <PUBCHEM_ISOTOPIC_ATOM_COUNT>  (1) 
0

>  <PUBCHEM_COMPONENT_COUNT>  (1) 
1

>  <PUBCHEM_CACTVS_TAUTO_COUNT>  (1) 
1

>  <PUBCHEM_CONFORMER_ID>  (1) 
000022BE00000001

>  <PUBCHEM_MMFF94_ENERGY>  (1) 
3.7336

>  <PUBCHEM_FEATURE_SELFOVERLAP>  (1) 
10.148

>  <PUBCHEM_SHAPE_FINGERPRINT>  (1) 
16714656 1 18410583881188630934
20096714 4 18410294704945239762
21015797 1 9151173147009137320
21040471 1 18194684765431949776

>  <PUBCHEM_SHAPE_MULTIPOLES>  (1) 
117.61
1.64
1.58
0.65
0
0.06
-0.01
-0.03
0.01
0
-0.02
0
0.02
0

>  <PUBCHEM_SHAPE_SELFOVERLAP>  (1) 
221.141

>  <PUBCHEM_SHAPE_VOLUME>  (1) 
72.9

>  <PUBCHEM_COORDINATE_TYPE>  (1) 
2
5
10

$$$$
