8901
     RDKit          3D

  7  6  0  0  0  0  0  0  0  0999 V2000
    3.5710   -0.2204    0.0006 O   0  0  0  0  0  0  0  0  0  0  0  0
   -2.3818    0.4013    0.0001 C   0  0  0  0  0  0  0  0  0  0  0  0
   -1.2324   -0.2897   -0.0002 C   0  0  0  0  0  0  0  0  0  0  0  0
   -3.7320   -0.2370    0.0003 C   0  0  0  0  0  0  0  0  0  0  0  0
    0.0693    0.3397   -0.0002 C   0  0  0  0  0  0  0  0  0  0  0  0
    1.2104   -0.3600   -0.0006 C   0  0  0  0  0  0  0  0  0  0  0  0
    2.4955    0.3661   -0.0001 C   0  0  0  0  0  0  0  0  0  0  0  0
  1  7  2  0
  2  3  2  0
  2  4  1  0
  3  5  1  0
  5  6  2  0
  6  7  1  0
M  END
>  <PUBCHEM_COMPOUND_CID>  (1) 
8901

>  <PUBCHEM_CONFORMER_RMSD>  (1) 
0.4

>  <PUBCHEM_CONFORMER_DIVERSEORDER>  (1) 
1
2
3

>  <PUBCHEM_MMFF94_PARTIAL_CHARGES>  (1) 
12
1 -0.57
13 0.15
14 0.15
15 0.06
2 -0.29
3 -0.15
4 0.14
5 -0.15
6 -0.14
7 0.5
8 0.15
9 0.15

>  <PUBCHEM_EFFECTIVE_ROTOR_COUNT>  (1) 
2

>  <PUBCHEM_PHARMACOPHORE_FEATURES>  (1) 
2
1 1 acceptor
1 4 hydrophobe

>  <PUBCHEM_HEAVY_ATOM_COUNT>  (1) 
7

>  <PUBCHEM_ATOM_DEF_STEREO_COUNT>  (1) 
0

>  <PUBCHEM_ATOM_UDEF_STEREO_COUNT>  (1) 
0

>  <PUBCHEM_BOND_DEF_STEREO_COUNT>  (1) 
0

>  <PUBCHEM_BOND_UDEF_STEREO_COUNT>  (1) 
2

>  <PUBCHEM_ISOTOPIC_ATOM_COUNT>  (1) 
0

>  <PUBCHEM_COMPONENT_COUNT>  (1) 
1

>  <PUBCHEM_CACTVS_TAUTO_COUNT>  (1) 
1

>  <PUBCHEM_CONFORMER_ID>  (1) 
000022C500000001

>  <PUBCHEM_MMFF94_ENERGY>  (1) 
2.9617

>  <PUBCHEM_FEATURE_SELFOVERLAP>  (1) 
10.148

>  <PUBCHEM_SHAPE_FINGERPRINT>  (1) 
11062470 55 8286201651784387831
12932764 1 15697708225571057807
14325111 11 18410575080383974851
14390081 3 18341891891890189777
5460574 1 9223231845006641121

>  <PUBCHEM_SHAPE_MULTIPOLES>  (1) 
138.19
6.23
0.71
0.6
0.19
0.02
0
-0.29
0
0.04
0
0.05
0
0

>  <PUBCHEM_SHAPE_SELFOVERLAP>  (1) 
252.345

>  <PUBCHEM_SHAPE_VOLUME>  (1) 
87.7

>  <PUBCHEM_COORDINATE_TYPE>  (1) 
2
5
10

$$$$
