8902
     RDKit          3D

  7  6  0  0  0  0  0  0  0  0999 V2000
    0.0008    0.4460   -0.0066 N   0  0  0  0  0  0  0  0  0  0  0  0
   -1.2002   -0.3806   -0.0096 C   0  0  0  0  0  0  0  0  0  0  0  0
    1.1999   -0.3800    0.0003 C   0  0  0  0  0  0  0  0  0  0  0  0
   -2.4485    0.4984   -0.0061 C   0  0  0  0  0  0  0  0  0  0  0  0
    2.4483    0.4984    0.0119 C   0  0  0  0  0  0  0  0  0  0  0  0
   -3.7167   -0.3409    0.0127 C   0  0  0  0  0  0  0  0  0  0  0  0
    3.7164   -0.3412   -0.0024 C   0  0  0  0  0  0  0  0  0  0  0  0
  1  2  1  0
  1  3  1  0
  2  4  1  0
  3  5  1  0
  4  6  1  0
  5  7  1  0
M  END
>  <PUBCHEM_COMPOUND_CID>  (1) 
8902

>  <PUBCHEM_CONFORMER_RMSD>  (1) 
0.6

>  <PUBCHEM_CONFORMER_DIVERSEORDER>  (1) 
1
15
10
17
2
16
12
5
18
3
13
8
9
14
11
7
4
6

>  <PUBCHEM_MMFF94_PARTIAL_CHARGES>  (1) 
4
1 -0.9
12 0.36
2 0.27
3 0.27

>  <PUBCHEM_EFFECTIVE_ROTOR_COUNT>  (1) 
4

>  <PUBCHEM_PHARMACOPHORE_FEATURES>  (1) 
4
1 1 cation
1 1 donor
1 6 hydrophobe
1 7 hydrophobe

>  <PUBCHEM_HEAVY_ATOM_COUNT>  (1) 
7

>  <PUBCHEM_ATOM_DEF_STEREO_COUNT>  (1) 
0

>  <PUBCHEM_ATOM_UDEF_STEREO_COUNT>  (1) 
0

>  <PUBCHEM_BOND_DEF_STEREO_COUNT>  (1) 
0

>  <PUBCHEM_BOND_UDEF_STEREO_COUNT>  (1) 
0

>  <PUBCHEM_ISOTOPIC_ATOM_COUNT>  (1) 
0

>  <PUBCHEM_COMPONENT_COUNT>  (1) 
1

>  <PUBCHEM_CACTVS_TAUTO_COUNT>  (1) 
1

>  <PUBCHEM_CONFORMER_ID>  (1) 
000022C600000001

>  <PUBCHEM_MMFF94_ENERGY>  (1) 
-8.5101

>  <PUBCHEM_FEATURE_SELFOVERLAP>  (1) 
20.297

>  <PUBCHEM_SHAPE_FINGERPRINT>  (1) 
11062470 55 18410575088958072193
12932764 1 18338783576734040068
14325111 11 18410856555344841763
14390081 3 18342173366877430449
20719005 15 18410856568256201867
5460574 1 9295289443365916613

>  <PUBCHEM_SHAPE_MULTIPOLES>  (1) 
139.08
6.89
0.78
0.6
0
0.01
0
-0.58
-0.02
0
0
0
-0.01
0.01

>  <PUBCHEM_SHAPE_SELFOVERLAP>  (1) 
235.519

>  <PUBCHEM_SHAPE_VOLUME>  (1) 
95

>  <PUBCHEM_COORDINATE_TYPE>  (1) 
2
5
10

$$$$
