8904
     RDKit          3D

 15 14  0  0  0  0  0  0  0  0999 V2000
   -5.5734   -0.1023   -0.0355 S   0  0  0  0  0  0  0  0  0  0  0  0
   -4.0678    0.5347    0.0030 O   0  0  0  0  0  0  0  0  0  0  0  0
   -6.5363    1.2028   -0.2117 O   0  0  0  0  0  0  0  0  0  0  0  0
   -5.6834   -0.8932   -1.2471 O   0  0  0  0  0  0  0  0  0  0  0  0
   -5.8640   -0.7003    1.2542 O   0  0  0  0  0  0  0  0  0  0  0  0
    2.1228   -0.4093    0.0883 C   0  0  0  0  0  0  0  0  0  0  0  0
    3.4286    0.3900    0.1217 C   0  0  0  0  0  0  0  0  0  0  0  0
    0.8708    0.4703    0.0857 C   0  0  0  0  0  0  0  0  0  0  0  0
    4.6808   -0.4866    0.0495 C   0  0  0  0  0  0  0  0  0  0  0  0
   -0.4028   -0.3792    0.0828 C   0  0  0  0  0  0  0  0  0  0  0  0
    5.9516    0.3657    0.0126 C   0  0  0  0  0  0  0  0  0  0  0  0
   -1.6568    0.4995    0.0500 C   0  0  0  0  0  0  0  0  0  0  0  0
    7.2027   -0.5056   -0.0980 C   0  0  0  0  0  0  0  0  0  0  0  0
   -2.9376   -0.3253    0.0133 C   0  0  0  0  0  0  0  0  0  0  0  0
    8.4649    0.3388   -0.1686 C   0  0  0  0  0  0  0  0  0  0  0  0
  1  2  1  0
  1  3  1  0
  1  4  2  0
  1  5  2  0
  2 14  1  0
  6  7  1  0
  6  8  1  0
  7  9  1  0
  8 10  1  0
  9 11  1  0
 10 12  1  0
 11 13  1  0
 12 14  1  0
 13 15  1  0
M  END
>  <PUBCHEM_COMPOUND_CID>  (1) 
8904

>  <PUBCHEM_CONFORMER_RMSD>  (1) 
1

>  <PUBCHEM_CONFORMER_DIVERSEORDER>  (1) 
1
14
134
150
52
28
129
115
2
62
95
46
152
15
85
23
131
86
7
75
21
41
112
13
118
34
74
4
30
145
132
64
44
25
3
77
139
31
137
91
40
36
149
27
73
99
37
5
61
76
79
8
136
142
19
56
148
68
121
38
66
104
88
35
9
67
22
108
11
18
114
78
83
111
29
45
116
101
39
146
58
126
107
96
16
59
50
65
10
110
47
105
109
32
26
53
155
24
97
151
43
51
42
63
117
82
81
71
70
48
94
17
143
20
141
60
72
153
33
87
124
147
57
90
133
140
6
54
89
122
98
12
103
138
84
154
69
102
113
135
93
92
100
123
55
80
49
120
144
127
119
125
106
128
130

>  <PUBCHEM_MMFF94_PARTIAL_CHARGES>  (1) 
7
1 1.67
14 0.28
2 -0.46
3 -0.68
37 0.5
4 -0.65
5 -0.65

>  <PUBCHEM_EFFECTIVE_ROTOR_COUNT>  (1) 
10

>  <PUBCHEM_PHARMACOPHORE_FEATURES>  (1) 
5
1 15 hydrophobe
1 3 acceptor
1 4 acceptor
1 5 acceptor
4 1 3 4 5 anion

>  <PUBCHEM_HEAVY_ATOM_COUNT>  (1) 
15

>  <PUBCHEM_ATOM_DEF_STEREO_COUNT>  (1) 
0

>  <PUBCHEM_ATOM_UDEF_STEREO_COUNT>  (1) 
0

>  <PUBCHEM_BOND_DEF_STEREO_COUNT>  (1) 
0

>  <PUBCHEM_BOND_UDEF_STEREO_COUNT>  (1) 
0

>  <PUBCHEM_ISOTOPIC_ATOM_COUNT>  (1) 
0

>  <PUBCHEM_COMPONENT_COUNT>  (1) 
1

>  <PUBCHEM_CACTVS_TAUTO_COUNT>  (1) 
1

>  <PUBCHEM_CONFORMER_ID>  (1) 
000022C800000001

>  <PUBCHEM_MMFF94_ENERGY>  (1) 
0.7861

>  <PUBCHEM_FEATURE_SELFOVERLAP>  (1) 
25.43

>  <PUBCHEM_SHAPE_FINGERPRINT>  (1) 
10968037 39 18343301470260569519
11315181 36 17203891881538587091
12091667 2 18412826885146657697
13533116 47 15285625578939937160
14123256 10 18113337505652670896
1420 363 18335425668244067226
14251764 18 18411135832084332474
14251764 46 18410575084668366658
14729087 3 13912315785337516606
17834076 25 18334013891593853466
18006028 8 18060137639700975368
20621476 8 18261673688212106700
22224240 67 17489303097387548086
23035841 295 17847059987024462974
23402539 116 18272646853597793093
23521765 1 18342176665976491256
33532 11 17346884412930473574
33684 2 18410572881344862571
42788 4 18410573985536612016
57583515 80 18333452040767022705
8209 1 18410573985151457644

>  <PUBCHEM_SHAPE_MULTIPOLES>  (1) 
289.07
24.4
0.88
0.76
15.16
0.04
0
0.3
-1.42
-0.56
-0.03
-0.86
-0.12
0.02

>  <PUBCHEM_SHAPE_SELFOVERLAP>  (1) 
515.25

>  <PUBCHEM_SHAPE_VOLUME>  (1) 
187

>  <PUBCHEM_COORDINATE_TYPE>  (1) 
2
5
10

$$$$
