8913
     RDKit          3D

 11 10  0  0  0  0  0  0  0  0999 V2000
   -4.7632    0.2604   -0.7639 O   0  0  0  0  0  0  0  0  0  0  0  0
   -3.4341    1.3069    0.7439 O   0  0  0  0  0  0  0  0  0  0  0  0
   -2.8607   -0.7543   -0.1705 N   0  0  0  0  0  0  0  0  0  0  0  0
    5.8263    0.2934    0.1721 N   0  0  0  0  0  0  0  0  0  0  0  0
    0.8990   -0.5723    0.4100 C   0  0  0  0  0  0  0  0  0  0  0  0
    2.0460    0.0528   -0.3872 C   0  0  0  0  0  0  0  0  0  0  0  0
   -0.4451   -0.3576   -0.2912 C   0  0  0  0  0  0  0  0  0  0  0  0
    3.4204   -0.1600    0.2554 C   0  0  0  0  0  0  0  0  0  0  0  0
   -1.5935   -0.9507    0.5232 C   0  0  0  0  0  0  0  0  0  0  0  0
    4.5540    0.5311   -0.5016 C   0  0  0  0  0  0  0  0  0  0  0  0
   -3.6490    0.3503    0.0098 C   0  0  0  0  0  0  0  0  0  0  0  0
  1 11  1  0
  2 11  2  0
  3  9  1  0
  3 11  1  0
  4 10  1  0
  5  6  1  0
  5  7  1  0
  6  8  1  0
  7  9  1  0
  8 10  1  0
M  END
>  <PUBCHEM_COMPOUND_CID>  (1) 
8913

>  <PUBCHEM_CONFORMER_RMSD>  (1) 
0.6

>  <PUBCHEM_CONFORMER_DIVERSEORDER>  (1) 
1
240
190
24
204
50
208
63
12
238
216
192
155
199
235
25
227
230
30
243
11
14
205
151
189
62
2
116
163
29
234
200
236
134
6
90
123
202
81
206
70
102
19
154
122
111
82
43
183
13
211
128
164
228
203
8
194
181
107
37
232
220
212
9
56
191
100
241
26
52
242
54
174
185
144
229
87
187
96
124
75
219
51
95
7
221
74
93
210
133
223
94
180
99
89
53
4
126
131
169
213
140
21
139
65
78
84
207
237
36
218
106
113
31
45
149
209
88
195
198
225
61
3
42
130
231
137
193
44
224
114
22
188
239
86
64
35
68
83
142
226
28
152
127
41
60
162
103
147
177
79
179
15
18
233
222
167
108
136
119
10
104
59
129
132
57
20
39
215
55
105
217
175
138
38
184
182
73
40
49
214
32
48
5
157
98
71
17
148
120
115
33
72
150
165
201
16
161
91
77
109
80
125
69
172
34
76
156
159
112
66
158
176
27
58
23
46
47
92
153
186
146
101
118
67
168
171
110
178
170
97
85
117
143
141
173
160
121
135
196
166
145
197

>  <PUBCHEM_MMFF94_PARTIAL_CHARGES>  (1) 
11
1 -0.65
10 0.27
11 0.78
2 -0.57
24 0.37
25 0.36
26 0.36
27 0.5
3 -0.73
4 -0.99
9 0.3

>  <PUBCHEM_EFFECTIVE_ROTOR_COUNT>  (1) 
7

>  <PUBCHEM_PHARMACOPHORE_FEATURES>  (1) 
6
1 2 acceptor
1 3 donor
1 4 cation
1 4 donor
3 1 2 11 anion
4 5 6 7 8 hydrophobe

>  <PUBCHEM_HEAVY_ATOM_COUNT>  (1) 
11

>  <PUBCHEM_ATOM_DEF_STEREO_COUNT>  (1) 
0

>  <PUBCHEM_ATOM_UDEF_STEREO_COUNT>  (1) 
0

>  <PUBCHEM_BOND_DEF_STEREO_COUNT>  (1) 
0

>  <PUBCHEM_BOND_UDEF_STEREO_COUNT>  (1) 
0

>  <PUBCHEM_ISOTOPIC_ATOM_COUNT>  (1) 
0

>  <PUBCHEM_COMPONENT_COUNT>  (1) 
1

>  <PUBCHEM_CACTVS_TAUTO_COUNT>  (1) 
2

>  <PUBCHEM_CONFORMER_ID>  (1) 
000022D100000001

>  <PUBCHEM_MMFF94_ENERGY>  (1) 
-3.2211

>  <PUBCHEM_FEATURE_SELFOVERLAP>  (1) 
30.446

>  <PUBCHEM_SHAPE_FINGERPRINT>  (1) 
11062470 55 18408887347552915438
114248 4 16272208595944819270
13690532 89 12967131614136630302
14123238 8 18272932726098677860
14251718 22 16128651977082343484
14350574 20 14908174287684495559
17834072 33 18336826501934652814
17834076 25 18407759244449097814
18342897 14 16732983132862426284
200 152 12967132700610537722
20300324 65 17846779598721944577
20645477 56 18202286892438267267
20645477 70 17274832294590726206
20724930 69 18334297560713446002
20767249 13 15267345115727355958
20767249 213 17966968327261289221
20828058 44 12468360158486258872
23402539 116 18410004464024830302
42788 4 18342176678808632646
49783359 22 12540695946341257296
57265010 4 13551475839437283277
57483677 66 9583529702770503228

>  <PUBCHEM_SHAPE_MULTIPOLES>  (1) 
204.67
11.62
0.94
0.76
6.62
0
0.02
3.33
-0.47
-0.52
0.11
-0.26
0.06
-0.29

>  <PUBCHEM_SHAPE_SELFOVERLAP>  (1) 
371.326

>  <PUBCHEM_SHAPE_VOLUME>  (1) 
130.6

>  <PUBCHEM_COORDINATE_TYPE>  (1) 
2
5
10

$$$$
