8919
     RDKit          3D

 13 12  0  0  0  0  0  0  0  0999 V2000
    7.9175   -0.6134    0.0708 Br  0  0  0  0  0  0  0  0  0  0  0  0
   -0.0351   -0.3643   -0.0408 C   0  0  0  0  0  0  0  0  0  0  0  0
   -1.3022    0.4950   -0.0143 C   0  0  0  0  0  0  0  0  0  0  0  0
    1.2237    0.5054   -0.0281 C   0  0  0  0  0  0  0  0  0  0  0  0
   -2.5611   -0.3741   -0.0592 C   0  0  0  0  0  0  0  0  0  0  0  0
    2.5244   -0.3032   -0.0614 C   0  0  0  0  0  0  0  0  0  0  0  0
   -3.8609    0.4343   -0.0129 C   0  0  0  0  0  0  0  0  0  0  0  0
    3.8200    0.5113    0.0058 C   0  0  0  0  0  0  0  0  0  0  0  0
   -5.1185   -0.4372    0.0171 C   0  0  0  0  0  0  0  0  0  0  0  0
    5.0840   -0.3504   -0.0075 C   0  0  0  0  0  0  0  0  0  0  0  0
   -6.3848    0.4198    0.0506 C   0  0  0  0  0  0  0  0  0  0  0  0
    6.3323    0.5161    0.0318 C   0  0  0  0  0  0  0  0  0  0  0  0
   -7.6392   -0.4394    0.0480 C   0  0  0  0  0  0  0  0  0  0  0  0
  1 12  1  0
  2  3  1  0
  2  4  1  0
  3  5  1  0
  4  6  1  0
  5  7  1  0
  6  8  1  0
  7  9  1  0
  8 10  1  0
  9 11  1  0
 10 12  1  0
 11 13  1  0
M  END
>  <PUBCHEM_COMPOUND_CID>  (1) 
8919

>  <PUBCHEM_CONFORMER_RMSD>  (1) 
1

>  <PUBCHEM_CONFORMER_DIVERSEORDER>  (1) 
1
534
400
482
96
326
2
251
679
475
364
319
573
49
738
334
10
358
240
22
538
914
29
46
857
401
864
40
764
207
751
231
532
596
99
777
853
851
42
57
515
151
916
7
446
435
44
773
303
129
21
243
173
433
208
137
678
216
509
209
13
510
67
118
820
743
487
885
111
736
818
106
144
633
18
23
361
391
624
276
367
79
915
239
295
246
237
332
65
342
252
412
927
107
506
17
249
258
843
794
198
657
879
676
472
113
194
241
929
514
6
530
512
32
139
344
213
290
636
399
223
275
95
724
186
325
899
259
9
331
813
898
298
671
517
505
835
760
461
222
822
821
776
63
823
426
452
627
771

>  <PUBCHEM_MMFF94_PARTIAL_CHARGES>  (1) 
2
1 -0.23
12 0.23

>  <PUBCHEM_EFFECTIVE_ROTOR_COUNT>  (1) 
10

>  <PUBCHEM_PHARMACOPHORE_FEATURES>  (1) 
2
1 1 hydrophobe
1 13 hydrophobe

>  <PUBCHEM_HEAVY_ATOM_COUNT>  (1) 
13

>  <PUBCHEM_ATOM_DEF_STEREO_COUNT>  (1) 
0

>  <PUBCHEM_ATOM_UDEF_STEREO_COUNT>  (1) 
0

>  <PUBCHEM_BOND_DEF_STEREO_COUNT>  (1) 
0

>  <PUBCHEM_BOND_UDEF_STEREO_COUNT>  (1) 
0

>  <PUBCHEM_ISOTOPIC_ATOM_COUNT>  (1) 
0

>  <PUBCHEM_COMPONENT_COUNT>  (1) 
1

>  <PUBCHEM_CACTVS_TAUTO_COUNT>  (1) 
1

>  <PUBCHEM_CONFORMER_ID>  (1) 
000022D700000001

>  <PUBCHEM_MMFF94_ENERGY>  (1) 
-2.9191

>  <PUBCHEM_FEATURE_SELFOVERLAP>  (1) 
10.149

>  <PUBCHEM_SHAPE_FINGERPRINT>  (1) 
12091667 2 17894631453333621813
13533116 47 18336259047151713378
14123256 10 18410856555350123027
14251764 18 18412545396683756026
14251764 46 18411138034616526210
14729087 3 13182745818980103291
17834076 25 18410575088958059205
18006028 8 18343301465728641097
20281389 69 18411416215918219648
20621476 8 18113897143511164927
21315763 28 18410855464428787104
22224240 67 15195562403569534372
23035841 295 18342457045230340654
23402539 116 17917987295677363277
23521765 1 18341895194640646148
246663 6 18186805776760632498
28498 318 18408602531323776742
33532 11 18259982644209669274
33684 2 18411136931374368587
42788 4 18409449189689604509
8209 1 18410573985156732396

>  <PUBCHEM_SHAPE_MULTIPOLES>  (1) 
273.48
24.5
0.83
0.63
1.66
0.01
0
3.17
-0.79
0.22
0
0.09
0.01
-0.01

>  <PUBCHEM_SHAPE_SELFOVERLAP>  (1) 
470.777

>  <PUBCHEM_SHAPE_VOLUME>  (1) 
182.7

>  <PUBCHEM_COORDINATE_TYPE>  (1) 
2
5
10

$$$$
