8920
     RDKit          3D

 13 12  0  0  0  0  0  0  0  0999 V2000
    0.0014    0.2965   -0.0155 N   0  0  0  0  0  0  0  0  0  0  0  0
   -2.4478    0.3517   -0.0046 C   0  0  0  0  0  0  0  0  0  0  0  0
    2.4477    0.3528   -0.0097 C   0  0  0  0  0  0  0  0  0  0  0  0
   -3.7549   -0.4472   -0.0024 C   0  0  0  0  0  0  0  0  0  0  0  0
    3.7546   -0.4466    0.0045 C   0  0  0  0  0  0  0  0  0  0  0  0
   -1.2003   -0.5313   -0.0072 C   0  0  0  0  0  0  0  0  0  0  0  0
    1.1999   -0.5298   -0.0079 C   0  0  0  0  0  0  0  0  0  0  0  0
   -5.0062    0.4335   -0.0262 C   0  0  0  0  0  0  0  0  0  0  0  0
    5.0059    0.4339    0.0291 C   0  0  0  0  0  0  0  0  0  0  0  0
   -6.2788   -0.4113    0.0505 C   0  0  0  0  0  0  0  0  0  0  0  0
    6.2787   -0.4120   -0.0310 C   0  0  0  0  0  0  0  0  0  0  0  0
   -7.5268    0.4553   -0.0046 C   0  0  0  0  0  0  0  0  0  0  0  0
    7.5267    0.4546    0.0250 C   0  0  0  0  0  0  0  0  0  0  0  0
  1  6  1  0
  1  7  1  0
  2  4  1  0
  2  6  1  0
  3  5  1  0
  3  7  1  0
  4  8  1  0
  5  9  1  0
  8 10  1  0
  9 11  1  0
 10 12  1  0
 11 13  1  0
M  END
>  <PUBCHEM_COMPOUND_CID>  (1) 
8920

>  <PUBCHEM_CONFORMER_RMSD>  (1) 
1

>  <PUBCHEM_CONFORMER_DIVERSEORDER>  (1) 
1
64
75
11
43
6
31
52
79
112
55
29
36
2
92
15
111
26
9
35
74
107
13
61
60
99
8
39
19
86
106
18
90
4
62
28
5
56
23
53
85
100
67
54
7
21
103
94
63
82
66
32
57
37
50
97
81
71
3
47
25
44
101
42
48
16
88
22
17
24
83
77
109
49
113
59
10
110
69
87
68
65
14
41
84
91
80
51
95
12
105
73
96
46
38
70
93
104
40
33
102
76
108
30
114
89
72
45
58
34
27
20
98
78

>  <PUBCHEM_MMFF94_PARTIAL_CHARGES>  (1) 
4
1 -0.9
30 0.36
6 0.27
7 0.27

>  <PUBCHEM_EFFECTIVE_ROTOR_COUNT>  (1) 
10

>  <PUBCHEM_PHARMACOPHORE_FEATURES>  (1) 
6
1 1 cation
1 1 donor
1 12 hydrophobe
1 13 hydrophobe
4 2 4 8 10 hydrophobe
4 3 5 9 11 hydrophobe

>  <PUBCHEM_HEAVY_ATOM_COUNT>  (1) 
13

>  <PUBCHEM_ATOM_DEF_STEREO_COUNT>  (1) 
0

>  <PUBCHEM_ATOM_UDEF_STEREO_COUNT>  (1) 
0

>  <PUBCHEM_BOND_DEF_STEREO_COUNT>  (1) 
0

>  <PUBCHEM_BOND_UDEF_STEREO_COUNT>  (1) 
0

>  <PUBCHEM_ISOTOPIC_ATOM_COUNT>  (1) 
0

>  <PUBCHEM_COMPONENT_COUNT>  (1) 
1

>  <PUBCHEM_CACTVS_TAUTO_COUNT>  (1) 
1

>  <PUBCHEM_CONFORMER_ID>  (1) 
000022D800000001

>  <PUBCHEM_MMFF94_ENERGY>  (1) 
-9.2442

>  <PUBCHEM_FEATURE_SELFOVERLAP>  (1) 
30.448

>  <PUBCHEM_SHAPE_FINGERPRINT>  (1) 
10968037 39 18342738520850434671
11315181 36 17918278675481602859
12091667 2 18412826889747651523
13533116 47 17168132409012677064
14123256 10 18202565072689778152
14251764 18 18408321077262590424
14251764 46 18410573989446424931
14729087 3 18187923955055041213
17834076 25 18410575088958052711
18006028 8 17203890760283318505
20281389 69 18187080654979059732
20621476 8 18409449154739022694
20767249 213 18411982472806067468
21130983 4 18334016103301784740
22224240 67 16008748035092313474
23035841 295 8142084260548714049
23402539 116 18201715176002979383
23521765 1 18341895190345685351
33532 11 9151183043205306624
33684 2 18410854356321573226
42788 4 18410855460128181284
57583515 80 18408042918633667571
59567204 34 18341612552663037241
8209 1 18410855460128168300

>  <PUBCHEM_SHAPE_MULTIPOLES>  (1) 
262.55
22.98
0.8
0.61
0
0.01
0
-2.55
0.14
0
0
0
0
0.03

>  <PUBCHEM_SHAPE_SELFOVERLAP>  (1) 
461.918

>  <PUBCHEM_SHAPE_VOLUME>  (1) 
170.6

>  <PUBCHEM_COORDINATE_TYPE>  (1) 
2
5
10

$$$$
