8927
     RDKit          3D

 19 18  0  0  0  0  0  0  0  0999 V2000
   -4.0773    4.0975    1.1856 O   0  0  0  0  0  0  0  0  0  0  0  0
    1.6660    2.1778   -0.6402 C   0  0  0  0  0  0  0  0  0  0  0  0
    2.2616    1.2859   -1.7332 C   0  0  0  0  0  0  0  0  0  0  0  0
   -0.8520   -2.6541    0.7648 C   0  0  0  0  0  0  0  0  0  0  0  0
    0.6192   -2.3644    0.4599 C   0  0  0  0  0  0  0  0  0  0  0  0
    0.1401    2.2973   -0.7208 C   0  0  0  0  0  0  0  0  0  0  0  0
    3.7941    1.2401   -1.6989 C   0  0  0  0  0  0  0  0  0  0  0  0
   -1.7859   -2.3409   -0.4104 C   0  0  0  0  0  0  0  0  0  0  0  0
    1.5672   -2.7278    1.6083 C   0  0  0  0  0  0  0  0  0  0  0  0
   -0.5094    3.2202    0.3147 C   0  0  0  0  0  0  0  0  0  0  0  0
   -3.2492   -2.6981   -0.1342 C   0  0  0  0  0  0  0  0  0  0  0  0
    4.4008    0.7180   -0.3926 C   0  0  0  0  0  0  0  0  0  0  0  0
    3.0598   -2.5306    1.3255 C   0  0  0  0  0  0  0  0  0  0  0  0
   -2.0386    3.2254    0.2402 C   0  0  0  0  0  0  0  0  0  0  0  0
   -4.1695   -2.4486   -1.3318 C   0  0  0  0  0  0  0  0  0  0  0  0
    4.0178   -0.7032   -0.0962 C   0  0  0  0  0  0  0  0  0  0  0  0
    3.4369   -1.1037    1.0445 C   0  0  0  0  0  0  0  0  0  0  0  0
   -2.6616    4.1374    1.2905 C   0  0  0  0  0  0  0  0  0  0  0  0
   -5.6198   -2.8282   -1.0756 C   0  0  0  0  0  0  0  0  0  0  0  0
  1 18  1  0
  2  3  1  0
  2  6  1  0
  3  7  1  0
  4  5  1  0
  4  8  1  0
  5  9  1  0
  6 10  1  0
  7 12  1  0
  8 11  1  0
  9 13  1  0
 10 14  1  0
 11 15  1  0
 12 16  1  0
 13 17  1  0
 14 18  1  0
 15 19  1  0
 16 17  2  0
M  END
>  <PUBCHEM_COMPOUND_CID>  (1) 
8927

>  <PUBCHEM_CONFORMER_RMSD>  (1) 
1.4

>  <PUBCHEM_CONFORMER_DIVERSEORDER>  (1) 
1
20
38
45
8
54
90
14
91
39
101
12
53
50
104
74
9
103
10
32
60
65
19
18
87
76
44
69
106
58
28
70
82
51
27
71
102
5
92
21
30
61
107
56
2
29
83
84
72
78
48
66
75
34
89
17
16
79
85
68
55
13
110
36
40
96
98
25
52
93
22
41
113
37
49
95
62
77
105
108
94
31
67
57
4
80
7
47
86
35
3
88
15
26
59
112
24
64
43
33
23
11
6
99
97
63
109
73
100
111
46
42
81

>  <PUBCHEM_MMFF94_PARTIAL_CHARGES>  (1) 
9
1 -0.68
12 0.14
13 0.14
16 -0.29
17 -0.29
18 0.28
48 0.15
49 0.15
55 0.4

>  <PUBCHEM_EFFECTIVE_ROTOR_COUNT>  (1) 
15

>  <PUBCHEM_PHARMACOPHORE_FEATURES>  (1) 
3
1 1 acceptor
1 1 donor
1 19 hydrophobe

>  <PUBCHEM_HEAVY_ATOM_COUNT>  (1) 
19

>  <PUBCHEM_ATOM_DEF_STEREO_COUNT>  (1) 
0

>  <PUBCHEM_ATOM_UDEF_STEREO_COUNT>  (1) 
0

>  <PUBCHEM_BOND_DEF_STEREO_COUNT>  (1) 
0

>  <PUBCHEM_BOND_UDEF_STEREO_COUNT>  (1) 
1

>  <PUBCHEM_ISOTOPIC_ATOM_COUNT>  (1) 
0

>  <PUBCHEM_COMPONENT_COUNT>  (1) 
1

>  <PUBCHEM_CACTVS_TAUTO_COUNT>  (1) 
1

>  <PUBCHEM_CONFORMER_ID>  (1) 
000022DF00000001

>  <PUBCHEM_MMFF94_ENERGY>  (1) 
-1.9436

>  <PUBCHEM_FEATURE_SELFOVERLAP>  (1) 
15.223

>  <PUBCHEM_SHAPE_FINGERPRINT>  (1) 
10064457 181 17836913513524429288
11646440 116 18120095241313589826
12769317 202 17751619160550541110
12788726 201 18267036122516970676
14464042 87 18409163350435530846
14681490 219 18267581501964652423
14931854 50 18189053260385601614
15322687 12 17826223274894163510
19734167 9 17763985157769743266
20621476 13 17545037564225059644
21315764 21 17606960878333518501
21344244 78 18045748343697512810
3014063 31 18263354957370807678
6287921 2 17261311397860498049

>  <PUBCHEM_SHAPE_MULTIPOLES>  (1) 
385.14
9.64
6.92
1.63
6.94
7.39
0.13
-5.32
3.53
7.68
-3.36
-0.34
0.1
-4.9

>  <PUBCHEM_SHAPE_SELFOVERLAP>  (1) 
694.894

>  <PUBCHEM_SHAPE_VOLUME>  (1) 
246.9

>  <PUBCHEM_COORDINATE_TYPE>  (1) 
2
5
10

$$$$
