8930
     RDKit          3D

 22 26  0  0  1  0  0  0  0  0999 V2000
    1.8327    0.9791    1.0378 O   0  0  0  0  0  0  0  0  0  0  0  0
    2.0467    2.4934   -1.2048 O   0  0  0  0  0  0  0  0  0  0  0  0
    4.0480   -0.8899    0.7735 O   0  0  0  0  0  0  0  0  0  0  0  0
   -3.2858   -0.8710    0.5198 N   0  0  0  0  0  0  0  0  0  0  0  0
   -0.4908    0.5065    0.5439 C   0  0  0  0  0  0  0  0  0  0  0  0
   -1.5084    0.4787   -0.5843 C   0  0  0  0  0  0  0  0  0  0  0  0
    0.6013    1.6033    0.5371 C   0  0  0  0  0  0  0  0  0  0  0  0
   -2.1188   -0.9551   -0.3619 C   0  0  0  0  0  0  0  0  0  0  0  0
   -1.3434    0.3168    1.8816 C   0  0  0  0  0  0  0  0  0  0  0  0
    0.4544   -0.6582    0.2320 C   0  0  0  0  0  0  0  0  0  0  0  0
   -0.9404    0.8373   -1.9624 C   0  0  0  0  0  0  0  0  0  0  0  0
   -1.2720   -2.0520   -1.0466 C   0  0  0  0  0  0  0  0  0  0  0  0
   -2.9244    0.0819    1.6379 C   0  0  0  0  0  0  0  0  0  0  0  0
    0.1617   -1.8396   -0.4965 C   0  0  0  0  0  0  0  0  0  0  0  0
    0.9192    2.1084   -0.8896 C   0  0  0  0  0  0  0  0  0  0  0  0
   -0.2265    2.1825   -1.8782 C   0  0  0  0  0  0  0  0  0  0  0  0
    1.7380   -0.3209    0.6006 C   0  0  0  0  0  0  0  0  0  0  0  0
    0.3144    2.8313    1.3964 C   0  0  0  0  0  0  0  0  0  0  0  0
   -4.4994   -0.4848   -0.1811 C   0  0  0  0  0  0  0  0  0  0  0  0
    1.2097   -2.7296   -0.7146 C   0  0  0  0  0  0  0  0  0  0  0  0
    2.7802   -1.2012    0.4046 C   0  0  0  0  0  0  0  0  0  0  0  0
    2.5036   -2.4169   -0.2451 C   0  0  0  0  0  0  0  0  0  0  0  0
  1  7  1  0
  1 17  1  0
  2 15  2  0
  3 21  1  0
  4  8  1  0
  4 13  1  0
  4 19  1  0
  5  6  1  0
  5  7  1  0
  5  9  1  0
  5 10  1  0
  6  8  1  0
  6 11  1  0
  7 15  1  0
  7 18  1  0
  8 12  1  0
  9 13  1  0
 10 14  2  0
 10 17  1  0
 11 16  1  0
 12 14  1  0
 14 20  1  0
 15 16  1  0
 17 21  2  0
 20 22  2  0
 21 22  1  0
M  END
>  <PUBCHEM_COMPOUND_CID>  (1) 
8930

>  <PUBCHEM_CONFORMER_RMSD>  (1) 
0.6

>  <PUBCHEM_CONFORMER_DIVERSEORDER>  (1) 
1

>  <PUBCHEM_MMFF94_PARTIAL_CHARGES>  (1) 
21
1 -0.36
10 -0.14
12 0.14
13 0.27
14 -0.14
15 0.45
16 0.06
17 0.08
19 0.27
2 -0.57
20 -0.15
21 0.08
22 -0.15
3 -0.53
4 -0.81
41 0.15
42 0.15
43 0.45
5 0.14
7 0.34
8 0.27

>  <PUBCHEM_EFFECTIVE_ROTOR_COUNT>  (1) 
1.4

>  <PUBCHEM_PHARMACOPHORE_FEATURES>  (1) 
9
1 1 acceptor
1 2 acceptor
1 3 donor
1 4 cation
5 1 5 7 10 17 rings
6 10 14 17 20 21 22 rings
6 4 5 6 8 9 13 rings
6 5 6 7 11 15 16 rings
6 5 6 8 10 12 14 rings

>  <PUBCHEM_HEAVY_ATOM_COUNT>  (1) 
22

>  <PUBCHEM_ATOM_DEF_STEREO_COUNT>  (1) 
4

>  <PUBCHEM_ATOM_UDEF_STEREO_COUNT>  (1) 
0

>  <PUBCHEM_BOND_DEF_STEREO_COUNT>  (1) 
0

>  <PUBCHEM_BOND_UDEF_STEREO_COUNT>  (1) 
0

>  <PUBCHEM_ISOTOPIC_ATOM_COUNT>  (1) 
0

>  <PUBCHEM_COMPONENT_COUNT>  (1) 
1

>  <PUBCHEM_CACTVS_TAUTO_COUNT>  (1) 
6

>  <PUBCHEM_CONFORMER_ID>  (1) 
000022E200000001

>  <PUBCHEM_MMFF94_ENERGY>  (1) 
136.5035

>  <PUBCHEM_FEATURE_SELFOVERLAP>  (1) 
47.05

>  <PUBCHEM_SHAPE_FINGERPRINT>  (1) 
10863032 1 18119532282701486335
10948715 1 17829621908416894797
10967382 1 18272927232682967266
11578080 2 16051479338961855889
12035758 1 18045495323031631033
12403814 3 18334005069456974234
12592029 89 17681572641972054381
13027679 85 18272357668521854680
13132413 78 17989207023242496265
13140716 1 18197206151816563978
13172582 1 18413100671631190434
13681431 1 18041864855573577957
141345 1 15730945083288839773
14142880 1 18050846620375169128
14181834 199 18262252104400679341
144361 1 17755005733577835732
14817 1 13586494326360650884
14840074 17 18043245937480234732
14955137 171 18198927935638885026
15881359 60 18124283108904189234
16945 1 18199452419759298795
17357779 13 18265598906300644303
1813 80 18189353285035879982
19868273 325 18116718417407596462
20600515 1 17460340796352961895
21330990 113 17401506848505700145
22182313 1 18191843709475504020
2334 1 17980754162458180534
23388829 49 18271536303128508994
23419403 2 18193809644333987480
23559900 14 16153430549941457634
2748010 2 17981315699557168238
576247 118 17896341137236278451
5845 1 12816616095661041397
6443956 14 18342176614310302753
6786 2 15371006143970139101
81228 2 17758133504819291731

>  <PUBCHEM_SHAPE_MULTIPOLES>  (1) 
430.16
4.69
3.05
1.67
1.66
0.63
0.17
-2.48
-1.17
-1.64
0.79
0.52
0.91
-0.18

>  <PUBCHEM_SHAPE_SELFOVERLAP>  (1) 
966.965

>  <PUBCHEM_SHAPE_VOLUME>  (1) 
226.5

>  <PUBCHEM_COORDINATE_TYPE>  (1) 
2
5
10

$$$$
