8940
     RDKit          3D

 24 26  0  0  0  0  0  0  0  0999 V2000
   -5.0625    1.2600    1.9442 I   0  0  0  0  0  0  0  0  0  0  0  0
    0.4246    0.0209    1.7514 O   0  0  0  0  0  0  0  0  0  0  0  0
   -5.0639   -1.6716   -0.0490 O   0  0  0  0  0  0  0  0  0  0  0  0
   -3.2507   -0.3743   -0.7018 N   0  0  0  0  0  0  0  0  0  0  0  0
   -0.3725   -0.1083   -0.4574 C   0  0  0  0  0  0  0  0  0  0  0  0
    0.8948    0.0058    0.3863 C   0  0  0  0  0  0  0  0  0  0  0  0
   -1.3205    1.0688   -0.1823 C   0  0  0  0  0  0  0  0  0  0  0  0
   -1.0894   -1.4403   -0.1900 C   0  0  0  0  0  0  0  0  0  0  0  0
   -2.6246    0.9266   -0.9654 C   0  0  0  0  0  0  0  0  0  0  0  0
   -2.3963   -1.5312   -0.9745 C   0  0  0  0  0  0  0  0  0  0  0  0
    1.6049    1.3339    0.0696 C   0  0  0  0  0  0  0  0  0  0  0  0
    1.8749   -1.1745    0.2697 C   0  0  0  0  0  0  0  0  0  0  0  0
   -4.5605   -0.5659   -0.2636 C   0  0  0  0  0  0  0  0  0  0  0  0
    2.1714    1.4886   -1.1701 C   0  0  0  0  0  0  0  0  0  0  0  0
    2.5772   -1.5493    1.3872 C   0  0  0  0  0  0  0  0  0  0  0  0
    1.6379    2.3015    1.0416 C   0  0  0  0  0  0  0  0  0  0  0  0
    2.0008   -1.7979   -0.9459 C   0  0  0  0  0  0  0  0  0  0  0  0
   -5.3882    0.6753   -0.0447 C   0  0  0  0  0  0  0  0  0  0  0  0
    2.8149    2.6923   -1.4574 C   0  0  0  0  0  0  0  0  0  0  0  0
    3.4657   -2.6194    1.2817 C   0  0  0  0  0  0  0  0  0  0  0  0
    2.2812    3.5053    0.7543 C   0  0  0  0  0  0  0  0  0  0  0  0
    2.8892   -2.8682   -1.0512 C   0  0  0  0  0  0  0  0  0  0  0  0
    2.8697    3.7007   -0.4953 C   0  0  0  0  0  0  0  0  0  0  0  0
    3.6216   -3.2789    0.0627 C   0  0  0  0  0  0  0  0  0  0  0  0
  1 18  1  0
  2  6  1  0
  3 13  2  0
  4  9  1  0
  4 10  1  0
  4 13  1  0
  5  6  1  0
  5  7  1  0
  5  8  1  0
  6 11  1  0
  6 12  1  0
  7  9  1  0
  8 10  1  0
 11 14  2  0
 11 16  1  0
 12 15  2  0
 12 17  1  0
 13 18  1  0
 14 19  1  0
 15 20  1  0
 16 21  2  0
 17 22  2  0
 19 23  2  0
 20 24  2  0
 21 23  1  0
 22 24  1  0
M  END
>  <PUBCHEM_COMPOUND_CID>  (1) 
8940

>  <PUBCHEM_CONFORMER_RMSD>  (1) 
0.8

>  <PUBCHEM_CONFORMER_DIVERSEORDER>  (1) 
1
8
7
11
10
3
6
9
5
2
4

>  <PUBCHEM_MMFF94_PARTIAL_CHARGES>  (1) 
32
1 -0.19
10 0.3
11 -0.14
12 -0.14
13 0.57
14 -0.15
15 -0.15
16 -0.15
17 -0.15
18 0.25
19 -0.15
2 -0.68
20 -0.15
21 -0.15
22 -0.15
23 -0.15
24 -0.15
3 -0.57
34 0.4
35 0.15
36 0.15
37 0.15
38 0.15
4 -0.66
41 0.15
42 0.15
43 0.15
44 0.15
45 0.15
46 0.15
6 0.57
9 0.3

>  <PUBCHEM_EFFECTIVE_ROTOR_COUNT>  (1) 
6.2

>  <PUBCHEM_PHARMACOPHORE_FEATURES>  (1) 
7
1 1 hydrophobe
1 2 acceptor
1 2 donor
1 3 acceptor
6 11 14 16 19 21 23 rings
6 12 15 17 20 22 24 rings
6 4 5 7 8 9 10 rings

>  <PUBCHEM_HEAVY_ATOM_COUNT>  (1) 
24

>  <PUBCHEM_ATOM_DEF_STEREO_COUNT>  (1) 
0

>  <PUBCHEM_ATOM_UDEF_STEREO_COUNT>  (1) 
0

>  <PUBCHEM_BOND_DEF_STEREO_COUNT>  (1) 
0

>  <PUBCHEM_BOND_UDEF_STEREO_COUNT>  (1) 
0

>  <PUBCHEM_ISOTOPIC_ATOM_COUNT>  (1) 
0

>  <PUBCHEM_COMPONENT_COUNT>  (1) 
1

>  <PUBCHEM_CACTVS_TAUTO_COUNT>  (1) 
1

>  <PUBCHEM_CONFORMER_ID>  (1) 
000022EC00000001

>  <PUBCHEM_MMFF94_ENERGY>  (1) 
81.0698

>  <PUBCHEM_FEATURE_SELFOVERLAP>  (1) 
35.522

>  <PUBCHEM_SHAPE_FINGERPRINT>  (1) 
11045515 52 18045222635636609628
11265709 11 18194966245204950094
11405975 8 18409730634812469403
11578080 2 17316520380345731137
11582403 64 15334581540018775144
12107183 9 18126575509898182041
12293681 160 17628371664009302216
12422481 6 17977344392860289680
12553582 1 18195528086645482470
12644460 14 18335707147568434281
12730499 353 18265342891979819091
12788726 201 17757835529074706146
13004483 165 18050837832951546822
13009979 54 17988088759650330089
13140716 1 18121207942833105562
13533116 47 18411138074289616523
13590594 115 18192156996737341344
13681431 1 18337392647929070714
13878862 14 18264469755737217605
13955234 65 18409730707093703555
14022347 108 18124044433419560254
14117953 113 17695640554728786825
14347424 109 18410302415503689747
14739800 52 17632004360159002809
14790565 3 17903643230454808389
14950920 106 18191332432721995409
14955137 171 18122919628670589523
15042514 8 17690559684940273234
15163728 17 17826815916177944916
15238133 3 17346046541872365969
15664445 248 18200328615122176390
15806764 133 18115298965487464077
15842332 3 17988349477540657671
17818456 19 17702949124049051489
17868525 174 18191579762139223305
1813 80 18267585693657865962
18785283 64 18408322215481749294
19078846 21 17917997139985187145
20567600 347 18118961644730114490
20600515 1 17903617602542461564
20739085 24 18200595778845746090
21033648 29 17343473654192527483
21421861 104 18411423886429026184
2255824 54 18408038515738710294
22849341 161 18197511626990909731
23366157 5 18260544549931525958
23419403 2 17756101724034140220
23559900 14 18410003321785348175
23566358 27 18337105769356436095
249057 25 17846215515614666481
25147074 1 18272643584943097175
312423 11 18413389843716595287
314173 41 18337952264371419430
350125 39 18408319982178299093
394222 165 18199753707509862306
4409770 3 17179105328599036876
458136 41 18263365956776959732
460360 51 18411982425841489345
474 4 17970911295848904445
5104073 3 18410299121189829795
5895379 119 17345209817285975489
6138700 20 18408885153731923780
6442390 28 17833552671007296740
70251023 43 18261670373045941595
7364860 26 18411973693956244084
7495541 125 17822582603084568387
81228 2 17762338016368382634
9841814 1 18187920638807344098
9981440 41 17978780534696170217

>  <PUBCHEM_SHAPE_MULTIPOLES>  (1) 
489.12
9.57
4.27
1.53
15.48
2.17
-0.48
-2.29
-1.6
-6.85
0.17
0.15
0.19
-1.68

>  <PUBCHEM_SHAPE_SELFOVERLAP>  (1) 
1028.94

>  <PUBCHEM_SHAPE_VOLUME>  (1) 
278.8

>  <PUBCHEM_COORDINATE_TYPE>  (1) 
2
5
10

$$$$
