8944
     RDKit          3D

 26 28  0  0  0  0  0  0  0  0999 V2000
   -2.9506    1.9319   -0.2039 O   0  0  0  0  0  0  0  0  0  0  0  0
   -1.9545    1.5324    1.8418 O   0  0  0  0  0  0  0  0  0  0  0  0
    0.7107   -0.8269    0.3013 N   0  0  0  0  0  0  0  0  0  0  0  0
    8.4556    0.4029    0.2346 N   0  0  0  0  0  0  0  0  0  0  0  0
   -2.2160   -0.2609    0.2330 C   0  0  0  0  0  0  0  0  0  0  0  0
   -1.2935   -0.2293   -1.0125 C   0  0  0  0  0  0  0  0  0  0  0  0
   -1.5313   -1.1367    1.3135 C   0  0  0  0  0  0  0  0  0  0  0  0
    0.1641    0.1124   -0.6824 C   0  0  0  0  0  0  0  0  0  0  0  0
   -0.0583   -0.7792    1.5478 C   0  0  0  0  0  0  0  0  0  0  0  0
   -3.6375   -0.7742   -0.0517 C   0  0  0  0  0  0  0  0  0  0  0  0
    2.1215   -0.5379    0.5577 C   0  0  0  0  0  0  0  0  0  0  0  0
   -2.3442    1.1609    0.7430 C   0  0  0  0  0  0  0  0  0  0  0  0
    2.9425   -0.6313   -0.7289 C   0  0  0  0  0  0  0  0  0  0  0  0
   -3.9833   -1.1775   -1.3387 C   0  0  0  0  0  0  0  0  0  0  0  0
   -4.5717   -0.8325    0.9791 C   0  0  0  0  0  0  0  0  0  0  0  0
    4.4034   -0.3573   -0.4745 C   0  0  0  0  0  0  0  0  0  0  0  0
   -5.2727   -1.6428   -1.5967 C   0  0  0  0  0  0  0  0  0  0  0  0
   -5.8611   -1.2979    0.7210 C   0  0  0  0  0  0  0  0  0  0  0  0
   -6.2116   -1.7030   -0.5668 C   0  0  0  0  0  0  0  0  0  0  0  0
   -3.1368    3.3063    0.1490 C   0  0  0  0  0  0  0  0  0  0  0  0
    4.8775    0.9426   -0.5620 C   0  0  0  0  0  0  0  0  0  0  0  0
    5.2480   -1.4100   -0.1560 C   0  0  0  0  0  0  0  0  0  0  0  0
   -3.8173    4.0222   -0.9983 C   0  0  0  0  0  0  0  0  0  0  0  0
    6.2287    1.1961   -0.3256 C   0  0  0  0  0  0  0  0  0  0  0  0
    6.5992   -1.1566    0.0805 C   0  0  0  0  0  0  0  0  0  0  0  0
    7.0895    0.1466   -0.0043 C   0  0  0  0  0  0  0  0  0  0  0  0
  1 12  1  0
  1 20  1  0
  2 12  2  0
  3  8  1  0
  3  9  1  0
  3 11  1  0
  4 26  1  0
  5  6  1  0
  5  7  1  0
  5 10  1  0
  5 12  1  0
  6  8  1  0
  7  9  1  0
 10 14  2  0
 10 15  1  0
 11 13  1  0
 13 16  1  0
 14 17  1  0
 15 18  2  0
 16 21  2  0
 16 22  1  0
 17 19  2  0
 18 19  1  0
 20 23  1  0
 21 24  1  0
 22 25  2  0
 24 26  2  0
 25 26  1  0
M  END
>  <PUBCHEM_COMPOUND_CID>  (1) 
8944

>  <PUBCHEM_CONFORMER_RMSD>  (1) 
1

>  <PUBCHEM_CONFORMER_DIVERSEORDER>  (1) 
1
7
6
39
43
51
52
58
2
16
54
40
33
53
50
34
26
55
25
46
3
36
31
27
22
37
30
28
14
38
49
5
56
48
18
15
23
17
41
35
20
57
19
29
13
24
12
8
42
32
45
47
44
11
9
10
21
4

>  <PUBCHEM_MMFF94_PARTIAL_CHARGES>  (1) 
34
1 -0.43
10 -0.14
11 0.27
12 0.66
13 0.14
14 -0.15
15 -0.15
16 -0.14
17 -0.15
18 -0.15
19 -0.15
2 -0.57
20 0.28
21 -0.15
22 -0.15
24 -0.15
25 -0.15
26 0.1
3 -0.81
39 0.15
4 -0.9
40 0.15
41 0.15
42 0.15
43 0.15
46 0.15
47 0.15
5 0.2
51 0.15
52 0.15
53 0.4
54 0.4
8 0.27
9 0.27

>  <PUBCHEM_EFFECTIVE_ROTOR_COUNT>  (1) 
8.2

>  <PUBCHEM_PHARMACOPHORE_FEATURES>  (1) 
7
1 2 acceptor
1 3 cation
1 4 cation
1 4 donor
6 10 14 15 17 18 19 rings
6 16 21 22 24 25 26 rings
6 3 5 6 7 8 9 rings

>  <PUBCHEM_HEAVY_ATOM_COUNT>  (1) 
26

>  <PUBCHEM_ATOM_DEF_STEREO_COUNT>  (1) 
0

>  <PUBCHEM_ATOM_UDEF_STEREO_COUNT>  (1) 
0

>  <PUBCHEM_BOND_DEF_STEREO_COUNT>  (1) 
0

>  <PUBCHEM_BOND_UDEF_STEREO_COUNT>  (1) 
0

>  <PUBCHEM_ISOTOPIC_ATOM_COUNT>  (1) 
0

>  <PUBCHEM_COMPONENT_COUNT>  (1) 
1

>  <PUBCHEM_CACTVS_TAUTO_COUNT>  (1) 
1

>  <PUBCHEM_CONFORMER_ID>  (1) 
000022F000000001

>  <PUBCHEM_MMFF94_ENERGY>  (1) 
75.5097

>  <PUBCHEM_FEATURE_SELFOVERLAP>  (1) 
35.522

>  <PUBCHEM_SHAPE_FINGERPRINT>  (1) 
10050765 1 18192149287624446675
10076449 9 17847054490146812821
10299344 5 17704075122345126366
10595046 47 18410855443571012190
10670039 82 18186795868735616208
11101153 10 18335143141132894220
11135609 99 15625082326768614447
11135926 11 15841550739659554310
11315181 36 17313109674307863828
11524674 6 14476962315507825799
11578080 2 17630342843929045517
12107183 9 17684361759796507546
12107698 1 18342175596181916656
12166972 35 17894915169682290660
12236239 1 18412266137868231831
12788726 201 18335692824580684507
13073987 5 18334012753559694370
13288520 33 17704071820105865887
13540713 5 17897991448851089027
13673619 4 17346032381149023283
13914758 101 17240475888494562724
14118638 360 18409730639054987834
14251764 18 18260548936100664534
14347332 77 18344143691645774872
14556957 393 18261117391654066981
14856354 85 18270964651914939503
15021287 119 13830126213609655675
15183329 4 17385721375383686898
15537594 2 12895077297375209300
1577012 14 18188209806713800008
15849732 13 12247683773009423603
15876981 60 18335706018177405941
17093844 174 12396303685972768044
17686467 74 18057597862250614914
17844677 252 18410018723827936236
19377110 9 18202286887959197042
19427546 20 18408601431991724501
19489759 90 18409732859262656858
21236236 1 18335702710909629869
23402539 116 18411703192784764743
23522609 53 17630073621777100096
23559900 14 18116714204028731641
23569943 247 16662316292749580954
249057 25 17894640257652803300
25147074 1 17824249419973438539
283562 15 18335139765989621859
34797466 226 17346327037760004444
3633792 109 16950829324176285715
4325135 7 18060703913800717846
5104073 3 17604432877968639016
54446538 1 18335703862588560652
5969126 39 18412258450604714165
59755656 215 16226040086026904338
7237137 82 18272370850077296393

>  <PUBCHEM_SHAPE_MULTIPOLES>  (1) 
513.37
19.43
2.68
1.3
33.47
3.96
0.13
-3.45
-2.57
-5.06
-0.49
-1.53
-0.17
-0.41

>  <PUBCHEM_SHAPE_SELFOVERLAP>  (1) 
1087.161

>  <PUBCHEM_SHAPE_VOLUME>  (1) 
286.1

>  <PUBCHEM_COORDINATE_TYPE>  (1) 
2
5
10

$$$$
