8945
     RDKit          3D

 14 14  0  0  0  0  0  0  0  0999 V2000
    0.0425    0.3125    1.3085 O   0  0  0  0  0  0  0  0  0  0  0  0
    1.4529    1.9695    0.5127 O   0  0  0  0  0  0  0  0  0  0  0  0
    1.3470    1.4584   -1.7126 O   0  0  0  0  0  0  0  0  0  0  0  0
    1.3378   -2.2805    1.0251 O   0  0  0  0  0  0  0  0  0  0  0  0
   -3.2475   -0.5741   -1.1478 O   0  0  0  0  0  0  0  0  0  0  0  0
    2.5817   -1.4870   -0.7079 O   0  0  0  0  0  0  0  0  0  0  0  0
   -2.8069   -0.4735    1.0831 O   0  0  0  0  0  0  0  0  0  0  0  0
   -0.0901    0.3173   -0.1112 C   0  0  0  0  0  0  0  0  0  0  0  0
    0.1788   -1.0870   -0.6288 C   0  0  0  0  0  0  0  0  0  0  0  0
   -1.4749    0.8204   -0.4957 C   0  0  0  0  0  0  0  0  0  0  0  0
    0.9741    1.2867   -0.5620 C   0  0  0  0  0  0  0  0  0  0  0  0
    0.7607    1.4869    1.6486 C   0  0  0  0  0  0  0  0  0  0  0  0
    1.5036   -1.6177   -0.1483 C   0  0  0  0  0  0  0  0  0  0  0  0
   -2.5596   -0.1320   -0.0637 C   0  0  0  0  0  0  0  0  0  0  0  0
  1  8  1  0
  1 12  1  0
  2 11  1  0
  2 12  1  0
  3 11  2  0
  4 13  1  0
  5 14  1  0
  6 13  2  0
  7 14  2  0
  8  9  1  0
  8 10  1  0
  8 11  1  0
  9 13  1  0
 10 14  1  0
M  END
>  <PUBCHEM_COMPOUND_CID>  (1) 
8945

>  <PUBCHEM_CONFORMER_RMSD>  (1) 
0.6

>  <PUBCHEM_CONFORMER_DIVERSEORDER>  (1) 
1
27
12
25
21
2
10
24
20
13
26
4
9
16
17
7
3
5
11
6
18
15
22
8
19
14
23

>  <PUBCHEM_MMFF94_PARTIAL_CHARGES>  (1) 
16
1 -0.56
10 0.06
11 0.66
12 0.56
13 0.66
14 0.66
2 -0.43
21 0.5
22 0.5
3 -0.57
4 -0.65
5 -0.65
6 -0.57
7 -0.57
8 0.34
9 0.06

>  <PUBCHEM_EFFECTIVE_ROTOR_COUNT>  (1) 
4.8

>  <PUBCHEM_PHARMACOPHORE_FEATURES>  (1) 
9
1 1 acceptor
1 3 acceptor
1 4 acceptor
1 5 acceptor
1 6 acceptor
1 7 acceptor
3 4 6 13 anion
3 5 7 14 anion
5 1 2 8 11 12 rings

>  <PUBCHEM_HEAVY_ATOM_COUNT>  (1) 
14

>  <PUBCHEM_ATOM_DEF_STEREO_COUNT>  (1) 
0

>  <PUBCHEM_ATOM_UDEF_STEREO_COUNT>  (1) 
0

>  <PUBCHEM_BOND_DEF_STEREO_COUNT>  (1) 
0

>  <PUBCHEM_BOND_UDEF_STEREO_COUNT>  (1) 
0

>  <PUBCHEM_ISOTOPIC_ATOM_COUNT>  (1) 
0

>  <PUBCHEM_COMPONENT_COUNT>  (1) 
1

>  <PUBCHEM_CACTVS_TAUTO_COUNT>  (1) 
1

>  <PUBCHEM_CONFORMER_ID>  (1) 
000022F100000001

>  <PUBCHEM_MMFF94_ENERGY>  (1) 
20.0621

>  <PUBCHEM_FEATURE_SELFOVERLAP>  (1) 
45.792

>  <PUBCHEM_SHAPE_FINGERPRINT>  (1) 
12326174 3 17560802185824364892
12423570 1 10884194985092074952
12932764 1 18059863908792664989
13024252 1 14641112589732298862
13898156 1 17626423075674069196
14128692 85 18342462491106369495
14817 1 15029597870555241976
16945 1 18411984684513777990
20645477 70 18271231812314103191
20653091 64 18060133254169756651
21524375 3 16483011539394490073
22112679 90 17557176963033388504
23419403 2 17689386622224263584
528862 383 18271225205846877098
81228 2 17547291099226625154

>  <PUBCHEM_SHAPE_MULTIPOLES>  (1) 
247.03
3.45
2.11
1.4
2.96
0.17
0.12
1.29
-0.46
-1.67
0.29
-0.17
-0.37
-0.1

>  <PUBCHEM_SHAPE_SELFOVERLAP>  (1) 
512.444

>  <PUBCHEM_SHAPE_VOLUME>  (1) 
139

>  <PUBCHEM_COORDINATE_TYPE>  (1) 
2
5
10

$$$$
