8946
     RDKit          3D

 10  9  0  0  1  0  0  0  0  0999 V2000
   -0.2674    1.7704    0.5540 O   0  0  0  0  0  0  0  0  0  0  0  0
    2.3410    0.6954   -1.3630 O   0  0  0  0  0  0  0  0  0  0  0  0
    0.8881   -0.3571    0.3139 C   0  0  0  0  0  0  0  0  0  0  0  0
   -0.3547    0.5034   -0.1045 C   0  0  0  0  0  0  0  0  0  0  0  0
   -1.7626   -0.1162    0.1293 C   0  0  0  0  0  0  0  0  0  0  0  0
    2.1992    0.4260    0.0262 C   0  0  0  0  0  0  0  0  0  0  0  0
    0.9754   -1.6854   -0.4562 C   0  0  0  0  0  0  0  0  0  0  0  0
    0.8295   -0.6678    1.8253 C   0  0  0  0  0  0  0  0  0  0  0  0
   -2.8476    0.8748   -0.3232 C   0  0  0  0  0  0  0  0  0  0  0  0
   -2.0009   -1.4435   -0.6018 C   0  0  0  0  0  0  0  0  0  0  0  0
  1  4  1  0
  2  6  1  0
  3  4  1  0
  3  6  1  0
  3  7  1  0
  3  8  1  0
  4  5  1  0
  5  9  1  0
  5 10  1  0
M  END
>  <PUBCHEM_COMPOUND_CID>  (1) 
8946

>  <PUBCHEM_CONFORMER_RMSD>  (1) 
0.6

>  <PUBCHEM_CONFORMER_DIVERSEORDER>  (1) 
1
2
4
3

>  <PUBCHEM_MMFF94_PARTIAL_CHARGES>  (1) 
6
1 -0.68
2 -0.68
27 0.4
28 0.4
4 0.28
6 0.28

>  <PUBCHEM_EFFECTIVE_ROTOR_COUNT>  (1) 
3

>  <PUBCHEM_PHARMACOPHORE_FEATURES>  (1) 
6
1 1 acceptor
1 1 donor
1 2 acceptor
1 2 donor
3 3 7 8 hydrophobe
3 5 9 10 hydrophobe

>  <PUBCHEM_HEAVY_ATOM_COUNT>  (1) 
10

>  <PUBCHEM_ATOM_DEF_STEREO_COUNT>  (1) 
0

>  <PUBCHEM_ATOM_UDEF_STEREO_COUNT>  (1) 
1

>  <PUBCHEM_BOND_DEF_STEREO_COUNT>  (1) 
0

>  <PUBCHEM_BOND_UDEF_STEREO_COUNT>  (1) 
0

>  <PUBCHEM_ISOTOPIC_ATOM_COUNT>  (1) 
0

>  <PUBCHEM_COMPONENT_COUNT>  (1) 
1

>  <PUBCHEM_CACTVS_TAUTO_COUNT>  (1) 
1

>  <PUBCHEM_CONFORMER_ID>  (1) 
000022F200000001

>  <PUBCHEM_MMFF94_ENERGY>  (1) 
33.1229

>  <PUBCHEM_FEATURE_SELFOVERLAP>  (1) 
30.446

>  <PUBCHEM_SHAPE_FINGERPRINT>  (1) 
12423570 1 10912945354353058778
12897270 3 18343590637418218932
12932741 1 16916774223817501171
137420 1 13967825927220139930
15310529 11 17531241730313135261
16945 1 18202008698241648808
18185500 45 18336818723880676939
20653085 51 17970087688751337068
20711985 344 16270262340020292712
21040471 1 18199738176981985811
23211744 25 18043531818243487097
23235685 24 18271800199178642693
23235687 12 17895463748474386807
23552333 60 18041836195130295593
23552423 10 18263643965947164471
24536 1 18195793077431748107
2748010 2 18054215807338497837
29004967 10 18272370884062254667
5084963 1 17749658714153261990
528886 8 18343865523772633511

>  <PUBCHEM_SHAPE_MULTIPOLES>  (1) 
194.06
3.42
1.58
1.19
1.24
0.2
0.33
-0.5
-0.86
0.23
-0.15
-0.66
0.11
-0.35

>  <PUBCHEM_SHAPE_SELFOVERLAP>  (1) 
357.798

>  <PUBCHEM_SHAPE_VOLUME>  (1) 
124.7

>  <PUBCHEM_COORDINATE_TYPE>  (1) 
2
5
10

$$$$
