8952
     RDKit          3D

 16 16  0  0  0  0  0  0  0  0999 V2000
   -1.0553   -0.3561   -0.8437 S   0  0  0  0  0  0  0  0  0  0  0  0
   -4.0725    1.2771   -1.6398 S   0  0  0  0  0  0  0  0  0  0  0  0
   -2.9741    0.3782   -0.2850 P   0  0  0  0  0  0  0  0  0  0  0  0
    4.1562    1.3282   -0.4094 O   0  0  0  0  0  0  0  0  0  0  0  0
    1.2320   -2.6087    0.0877 O   0  0  0  0  0  0  0  0  0  0  0  0
   -3.7644   -0.8618    0.4306 O   0  0  0  0  0  0  0  0  0  0  0  0
   -2.7588    1.3059    1.0442 O   0  0  0  0  0  0  0  0  0  0  0  0
    2.1378   -0.4868    0.3471 N   0  0  0  0  0  0  0  0  0  0  0  0
    2.0090    0.9422    0.6520 C   0  0  0  0  0  0  0  0  0  0  0  0
    3.5160   -0.9381    0.1554 C   0  0  0  0  0  0  0  0  0  0  0  0
    2.7969    1.7693   -0.3558 C   0  0  0  0  0  0  0  0  0  0  0  0
    4.2371   -0.0347   -0.8348 C   0  0  0  0  0  0  0  0  0  0  0  0
    1.0952   -1.4108    0.3484 C   0  0  0  0  0  0  0  0  0  0  0  0
   -0.2740   -0.8795    0.6895 C   0  0  0  0  0  0  0  0  0  0  0  0
   -4.1911   -1.9768   -0.3345 C   0  0  0  0  0  0  0  0  0  0  0  0
   -2.0899    2.5525    0.9479 C   0  0  0  0  0  0  0  0  0  0  0  0
  1  3  1  0
  1 14  1  0
  2  3  2  0
  3  6  1  0
  3  7  1  0
  4 11  1  0
  4 12  1  0
  5 13  2  0
  6 15  1  0
  7 16  1  0
  8  9  1  0
  8 10  1  0
  8 13  1  0
  9 11  1  0
 10 12  1  0
 13 14  1  0
M  END
>  <PUBCHEM_COMPOUND_CID>  (1) 
8952

>  <PUBCHEM_CONFORMER_RMSD>  (1) 
0.8

>  <PUBCHEM_CONFORMER_DIVERSEORDER>  (1) 
1
58
69
76
61
42
57
40
28
78
60
59
48
62
27
31
73
13
6
68
34
19
47
35
33
22
84
89
23
32
71
24
15
63
39
83
65
80
3
75
25
43
21
29
54
85
18
67
45
66
30
79
26
77
53
74
16
38
10
11
8
9
46
51
82
70
55
20
37
12
14
52
36
4
44
41
87
72
49
64
17
88
7
86
90
5
56
50
81
2

>  <PUBCHEM_MMFF94_PARTIAL_CHARGES>  (1) 
16
1 -0.48
10 0.3
11 0.28
12 0.28
13 0.57
14 0.29
15 0.28
16 0.28
2 -0.68
3 1.47
4 -0.56
5 -0.57
6 -0.55
7 -0.55
8 -0.66
9 0.3

>  <PUBCHEM_EFFECTIVE_ROTOR_COUNT>  (1) 
7.2

>  <PUBCHEM_PHARMACOPHORE_FEATURES>  (1) 
3
1 4 acceptor
1 5 acceptor
6 4 8 9 10 11 12 rings

>  <PUBCHEM_HEAVY_ATOM_COUNT>  (1) 
16

>  <PUBCHEM_ATOM_DEF_STEREO_COUNT>  (1) 
0

>  <PUBCHEM_ATOM_UDEF_STEREO_COUNT>  (1) 
0

>  <PUBCHEM_BOND_DEF_STEREO_COUNT>  (1) 
0

>  <PUBCHEM_BOND_UDEF_STEREO_COUNT>  (1) 
0

>  <PUBCHEM_ISOTOPIC_ATOM_COUNT>  (1) 
0

>  <PUBCHEM_COMPONENT_COUNT>  (1) 
1

>  <PUBCHEM_CACTVS_TAUTO_COUNT>  (1) 
1

>  <PUBCHEM_CONFORMER_ID>  (1) 
000022F800000001

>  <PUBCHEM_MMFF94_ENERGY>  (1) 
22.7607

>  <PUBCHEM_FEATURE_SELFOVERLAP>  (1) 
15.223

>  <PUBCHEM_SHAPE_FINGERPRINT>  (1) 
10498660 4 18334289868464332045
11615757 297 18408602556550079583
12507557 5 18334285444763704280
14787075 74 18191305090490864923
17834072 14 10231758881373690654
17959699 21 18116421567102379989
18186145 218 18410859849885451228
20449540 30 18408601457666439645
21524375 3 18261111911164825138
231179 274 17894628119806153428
23402539 116 18341044198811432750
23402655 69 18410572868686957124
23557571 272 18341899606184190583
23559900 14 18194666091225825099
23598291 2 17840866274505278571
25 1 18336271158864119746
4028521 119 18335135384569065765
4990 188 18272096002256164342
58051976 378 18271804592661687583

>  <PUBCHEM_SHAPE_MULTIPOLES>  (1) 
312.36
9.12
2.47
1.13
0.01
0
-0.18
0.96
-2.42
-0.89
0.35
-0.8
0.46
-0.25

>  <PUBCHEM_SHAPE_SELFOVERLAP>  (1) 
563.834

>  <PUBCHEM_SHAPE_VOLUME>  (1) 
203

>  <PUBCHEM_COORDINATE_TYPE>  (1) 
2
5
10

$$$$
