8960
     RDKit          3D

 22 24  0  0  0  0  0  0  0  0999 V2000
    4.1660    0.3863   -0.0606 S   0  0  0  0  0  0  0  0  0  0  0  0
    1.7749    2.1304   -0.0436 O   0  0  0  0  0  0  0  0  0  0  0  0
    0.6761   -3.2779   -0.0143 O   0  0  0  0  0  0  0  0  0  0  0  0
   -0.7524    2.5641   -0.0205 O   0  0  0  0  0  0  0  0  0  0  0  0
   -1.8351   -2.6686    0.0103 O   0  0  0  0  0  0  0  0  0  0  0  0
    4.4282    1.0314    1.4173 O   0  0  0  0  0  0  0  0  0  0  0  0
    4.9951   -0.8043   -0.1603 O   0  0  0  0  0  0  0  0  0  0  0  0
    4.2682    1.4503   -1.0453 O   0  0  0  0  0  0  0  0  0  0  0  0
    0.1225    0.3669   -0.0214 C   0  0  0  0  0  0  0  0  0  0  0  0
   -0.1613   -1.0004   -0.0138 C   0  0  0  0  0  0  0  0  0  0  0  0
   -2.3704    0.8844    0.0015 C   0  0  0  0  0  0  0  0  0  0  0  0
   -2.6541   -0.4829    0.0095 C   0  0  0  0  0  0  0  0  0  0  0  0
    1.4525    0.8041   -0.0357 C   0  0  0  0  0  0  0  0  0  0  0  0
   -0.9717    1.3593   -0.0145 C   0  0  0  0  0  0  0  0  0  0  0  0
   -1.5599   -1.4752    0.0024 C   0  0  0  0  0  0  0  0  0  0  0  0
    2.4921   -0.1264   -0.0426 C   0  0  0  0  0  0  0  0  0  0  0  0
    0.8850   -1.9306   -0.0209 C   0  0  0  0  0  0  0  0  0  0  0  0
    2.2089   -1.4909   -0.0355 C   0  0  0  0  0  0  0  0  0  0  0  0
   -3.4166    1.8146    0.0083 C   0  0  0  0  0  0  0  0  0  0  0  0
   -3.9841   -0.9199    0.0245 C   0  0  0  0  0  0  0  0  0  0  0  0
   -4.7406    1.3749    0.0236 C   0  0  0  0  0  0  0  0  0  0  0  0
   -5.0237    0.0105    0.0318 C   0  0  0  0  0  0  0  0  0  0  0  0
  1  6  1  0
  1  7  2  0
  1  8  2  0
  1 16  1  0
  2 13  1  0
  3 17  1  0
  4 14  2  0
  5 15  2  0
  9 10  1  0
  9 13  2  0
  9 14  1  0
 10 15  1  0
 10 17  2  0
 11 12  2  0
 11 14  1  0
 11 19  1  0
 12 15  1  0
 12 20  1  0
 13 16  1  0
 16 18  2  0
 17 18  1  0
 19 21  2  0
 20 22  2  0
 21 22  1  0
M  END
>  <PUBCHEM_COMPOUND_CID>  (1) 
8960

>  <PUBCHEM_CONFORMER_RMSD>  (1) 
0.6

>  <PUBCHEM_CONFORMER_DIVERSEORDER>  (1) 
1

>  <PUBCHEM_MMFF94_PARTIAL_CHARGES>  (1) 
30
1 1.49
10 0.09
11 0.09
12 0.09
13 0.08
14 0.4
15 0.4
16 -0.01
17 0.08
18 -0.15
19 -0.15
2 -0.53
20 -0.15
21 -0.15
22 -0.15
23 0.15
24 0.15
25 0.15
26 0.15
27 0.15
28 0.45
29 0.45
3 -0.53
30 0.5
4 -0.57
5 -0.57
6 -0.68
7 -0.65
8 -0.65
9 0.09

>  <PUBCHEM_EFFECTIVE_ROTOR_COUNT>  (1) 
1

>  <PUBCHEM_PHARMACOPHORE_FEATURES>  (1) 
11
1 2 donor
1 3 donor
1 4 acceptor
1 5 acceptor
1 6 acceptor
1 7 acceptor
1 8 acceptor
4 1 6 7 8 anion
6 11 12 19 20 21 22 rings
6 9 10 11 12 14 15 rings
6 9 10 13 16 17 18 rings

>  <PUBCHEM_HEAVY_ATOM_COUNT>  (1) 
22

>  <PUBCHEM_ATOM_DEF_STEREO_COUNT>  (1) 
0

>  <PUBCHEM_ATOM_UDEF_STEREO_COUNT>  (1) 
0

>  <PUBCHEM_BOND_DEF_STEREO_COUNT>  (1) 
0

>  <PUBCHEM_BOND_UDEF_STEREO_COUNT>  (1) 
0

>  <PUBCHEM_ISOTOPIC_ATOM_COUNT>  (1) 
0

>  <PUBCHEM_COMPONENT_COUNT>  (1) 
1

>  <PUBCHEM_CACTVS_TAUTO_COUNT>  (1) 
12

>  <PUBCHEM_CONFORMER_ID>  (1) 
0000230000000001

>  <PUBCHEM_MMFF94_ENERGY>  (1) 
60.3043

>  <PUBCHEM_FEATURE_SELFOVERLAP>  (1) 
55.92

>  <PUBCHEM_SHAPE_FINGERPRINT>  (1) 
10319926 262 18126825305459907480
10411042 1 16825310524739204214
10616163 171 18410295852108085967
10967382 1 18410575046298601567
1100329 8 18339363088282094289
11112241 14 16341144792425547032
11132069 177 18410571799155678280
11578080 2 13612868144710414953
12011746 2 18411138008920575781
12236239 1 17749389291313836652
12403814 3 17603580829292390077
12592029 89 18335140869068275330
12838862 33 18338497686668618877
13140716 1 18266175213306989289
138480 1 17689998938342452703
13862211 1 18410569578541658559
14790565 3 18410583876599011493
15196674 1 18410294700629192991
15536298 74 18342459184097673887
1601671 61 18409168800923031340
16945 1 18410573959576969119
19591789 44 18338800121153916023
19784866 170 18335987493158611067
200 152 18060135440629973965
20028762 73 18057042630465220895
20510252 161 18272370819896539585
20715895 44 17755005411925359141
21267235 1 18410302419160378895
21279426 13 18196374723430537438
21421861 104 17897724254086619731
23227448 37 18341331192631416199
2334 1 18050007984617450495
23366157 5 17898296004560431338
23402539 116 18343294877628169279
23559900 14 18198341754355247398
2748010 2 18194684988891542503
3004659 81 18334300838870712910
335352 9 18410575055025667166
34934 24 18411131399530428871
350125 39 18265902535003549299
3545911 37 18411140203986486821
3680242 22 18335138639995858688
474 4 18113624481812652750
495365 180 17346590903212513482
5104073 3 18338235960125323643
58051976 378 18339923710394870389
59755656 215 18340773629147616134
6138700 20 18266464213873998142
7364860 26 18197498428514678566
9709674 26 18412269423697827831

>  <PUBCHEM_SHAPE_MULTIPOLES>  (1) 
415.51
9.3
2.69
0.7
1.15
1.01
-0.06
-2.71
-0.19
-0.14
0.04
0.46
-0.14
0.03

>  <PUBCHEM_SHAPE_SELFOVERLAP>  (1) 
926.919

>  <PUBCHEM_SHAPE_VOLUME>  (1) 
221.2

>  <PUBCHEM_COORDINATE_TYPE>  (1) 
2
5
10

$$$$
