8961
     RDKit          3D

 11 12  0  0  0  0  0  0  0  0999 V2000
   -3.1778   -0.3824    0.0183 Cl  0  0  0  0  0  0  0  0  0  0  0  0
    2.6773   -1.1422    0.0174 O   0  0  0  0  0  0  0  0  0  0  0  0
    0.3787    2.5991   -0.2744 C   0  0  0  0  0  0  0  0  0  0  0  0
    1.4924    1.6250    0.1387 C   0  0  0  0  0  0  0  0  0  0  0  0
   -0.9516    1.9498    0.1357 C   0  0  0  0  0  0  0  0  0  0  0  0
    0.7807    0.3129    0.0397 C   0  0  0  0  0  0  0  0  0  0  0  0
   -0.6069    0.4972    0.0384 C   0  0  0  0  0  0  0  0  0  0  0  0
    1.3327   -0.9563   -0.0003 C   0  0  0  0  0  0  0  0  0  0  0  0
   -1.4710   -0.5838   -0.0028 C   0  0  0  0  0  0  0  0  0  0  0  0
    0.4687   -2.0521   -0.0548 C   0  0  0  0  0  0  0  0  0  0  0  0
   -0.9231   -1.8672   -0.0559 C   0  0  0  0  0  0  0  0  0  0  0  0
  1  9  1  0
  2  8  1  0
  3  4  1  0
  3  5  1  0
  4  6  1  0
  5  7  1  0
  6  7  2  0
  6  8  1  0
  7  9  1  0
  8 10  2  0
  9 11  2  0
 10 11  1  0
M  END
>  <PUBCHEM_COMPOUND_CID>  (1) 
8961

>  <PUBCHEM_CONFORMER_RMSD>  (1) 
0.4

>  <PUBCHEM_CONFORMER_DIVERSEORDER>  (1) 
1

>  <PUBCHEM_MMFF94_PARTIAL_CHARGES>  (1) 
13
1 -0.18
10 -0.15
11 -0.15
18 0.15
19 0.15
2 -0.53
20 0.45
4 0.14
5 0.14
6 -0.14
7 -0.14
8 0.08
9 0.18

>  <PUBCHEM_EFFECTIVE_ROTOR_COUNT>  (1) 
0.6

>  <PUBCHEM_PHARMACOPHORE_FEATURES>  (1) 
3
1 2 donor
5 3 4 5 6 7 rings
6 6 7 8 9 10 11 rings

>  <PUBCHEM_HEAVY_ATOM_COUNT>  (1) 
11

>  <PUBCHEM_ATOM_DEF_STEREO_COUNT>  (1) 
0

>  <PUBCHEM_ATOM_UDEF_STEREO_COUNT>  (1) 
0

>  <PUBCHEM_BOND_DEF_STEREO_COUNT>  (1) 
0

>  <PUBCHEM_BOND_UDEF_STEREO_COUNT>  (1) 
0

>  <PUBCHEM_ISOTOPIC_ATOM_COUNT>  (1) 
0

>  <PUBCHEM_COMPONENT_COUNT>  (1) 
1

>  <PUBCHEM_CACTVS_TAUTO_COUNT>  (1) 
6

>  <PUBCHEM_CONFORMER_ID>  (1) 
0000230100000001

>  <PUBCHEM_MMFF94_ENERGY>  (1) 
25.568

>  <PUBCHEM_FEATURE_SELFOVERLAP>  (1) 
15.306

>  <PUBCHEM_SHAPE_FINGERPRINT>  (1) 
11206711 2 18265336105593719301
12423570 1 8973975672720045939
13380535 76 17833260196772471179
16945 1 18338232781564511667
193761 8 17906172111107966599
20871998 184 18055907693550814190
21040471 1 17474388453235791233
23552423 10 17904764723376155502
23559900 14 16542991599951251758
241688 4 18266741285691000889
2748010 2 18338509755410442333
528886 8 18123184872908015561
66348 1 18410857641992666681

>  <PUBCHEM_SHAPE_MULTIPOLES>  (1) 
222.38
3
2.75
0.62
1.5
0.19
0
-0.57
0.01
-0.91
-0.08
0.01
-0.04
-0.09

>  <PUBCHEM_SHAPE_SELFOVERLAP>  (1) 
472.469

>  <PUBCHEM_SHAPE_VOLUME>  (1) 
126.7

>  <PUBCHEM_COORDINATE_TYPE>  (1) 
2
5
10

$$$$
