8965
     RDKit          3D

 31 33  0  0  1  0  0  0  0  0999 V2000
    6.6166    0.3310   -0.3629 P   0  0  0  0  0  0  0  0  0  0  0  0
    0.5781    1.5074   -1.2600 O   0  0  0  0  0  0  0  0  0  0  0  0
    2.7730    1.6320    0.5112 O   0  0  0  0  0  0  0  0  0  0  0  0
    2.8295   -1.9516   -0.2037 O   0  0  0  0  0  0  0  0  0  0  0  0
    5.2393   -0.5136   -0.3588 O   0  0  0  0  0  0  0  0  0  0  0  0
   -5.6097    2.0993   -0.5433 O   0  0  0  0  0  0  0  0  0  0  0  0
   -2.0079    4.7885    0.4147 O   0  0  0  0  0  0  0  0  0  0  0  0
    7.4828   -0.3380    0.8276 O   0  0  0  0  0  0  0  0  0  0  0  0
    6.1633    1.7525    0.2605 O   0  0  0  0  0  0  0  0  0  0  0  0
    7.3090    0.4136   -1.6918 O   0  0  0  0  0  0  0  0  0  0  0  0
   -1.2763    0.1842    0.4173 N   0  0  0  0  0  0  0  0  0  0  0  0
   -4.0204   -0.0597   -0.2438 N   0  0  0  0  0  0  0  0  0  0  0  0
   -1.6444    2.5417    0.4171 N   0  0  0  0  0  0  0  0  0  0  0  0
   -3.7984    3.4787   -0.0605 N   0  0  0  0  0  0  0  0  0  0  0  0
    0.9851    0.3549   -0.5210 C   0  0  0  0  0  0  0  0  0  0  0  0
    2.4967    0.4457   -0.2320 C   0  0  0  0  0  0  0  0  0  0  0  0
    0.1428    0.2725    0.7576 C   0  0  0  0  0  0  0  0  0  0  0  0
    3.0350   -0.7611    0.5598 C   0  0  0  0  0  0  0  0  0  0  0  0
   -1.8395   -1.0983    0.2370 C   0  0  0  0  0  0  0  0  0  0  0  0
   -2.0648    1.3195    0.2722 C   0  0  0  0  0  0  0  0  0  0  0  0
   -3.2071   -1.1937   -0.0917 C   0  0  0  0  0  0  0  0  0  0  0  0
    4.5263   -0.6351    0.8680 C   0  0  0  0  0  0  0  0  0  0  0  0
   -1.1090   -2.2945    0.3674 C   0  0  0  0  0  0  0  0  0  0  0  0
   -3.5132    1.1189   -0.0799 C   0  0  0  0  0  0  0  0  0  0  0  0
   -1.7128   -3.5403    0.1781 C   0  0  0  0  0  0  0  0  0  0  0  0
   -3.8039   -2.4498   -0.2797 C   0  0  0  0  0  0  0  0  0  0  0  0
   -3.0608   -3.6184   -0.1456 C   0  0  0  0  0  0  0  0  0  0  0  0
   -4.4381    2.2781   -0.2578 C   0  0  0  0  0  0  0  0  0  0  0  0
   -0.8873   -4.7762    0.3300 C   0  0  0  0  0  0  0  0  0  0  0  0
   -3.7311   -4.9363   -0.3516 C   0  0  0  0  0  0  0  0  0  0  0  0
   -2.4526    3.6479    0.2658 C   0  0  0  0  0  0  0  0  0  0  0  0
  1  5  1  0
  1  8  1  0
  1  9  1  0
  1 10  2  0
  2 15  1  0
  3 16  1  0
  4 18  1  0
  5 22  1  0
  6 28  2  0
  7 31  2  0
 11 17  1  0
 11 19  1  0
 11 20  1  0
 12 21  1  0
 12 24  2  0
 13 20  2  0
 13 31  1  0
 14 28  1  0
 14 31  1  0
 15 16  1  0
 15 17  1  0
 16 18  1  0
 18 22  1  0
 19 21  2  0
 19 23  1  0
 20 24  1  0
 21 26  1  0
 23 25  2  0
 24 28  1  0
 25 27  1  0
 25 29  1  0
 26 27  2  0
 27 30  1  0
M  END
>  <PUBCHEM_COMPOUND_CID>  (1) 
8965

>  <PUBCHEM_CONFORMER_RMSD>  (1) 
0.8

>  <PUBCHEM_CONFORMER_DIVERSEORDER>  (1) 
2
45
35
58
52
23
38
55
19
42
46
43
54
14
47
3
59
57
15
48
28
6
56
29
20
27
18
37
50
16
40
1
61
44
26
41
25
9
8
60
36
33
22
51
53
4
13
7
5
21
49
12
34
10
30
11
17
24
31
39
32

>  <PUBCHEM_MMFF94_PARTIAL_CHARGES>  (1) 
39
1 1.51
10 -0.7
11 -0.52
12 -0.63
13 -0.66
14 -0.49
15 0.28
16 0.28
17 0.37
18 0.28
19 0.1
2 -0.68
20 0.5
21 0.18
22 0.28
23 -0.15
24 0.45
25 -0.14
26 -0.15
27 -0.14
28 0.63
29 0.14
3 -0.68
30 0.14
31 0.84
39 0.15
4 -0.68
40 0.4
41 0.15
42 0.4
43 0.4
5 -0.55
50 0.37
51 0.5
52 0.5
6 -0.57
7 -0.57
8 -0.77
9 -0.77

>  <PUBCHEM_EFFECTIVE_ROTOR_COUNT>  (1) 
7

>  <PUBCHEM_PHARMACOPHORE_FEATURES>  (1) 
18
1 10 acceptor
1 12 acceptor
1 13 donor
1 14 donor
1 2 acceptor
1 2 donor
1 3 acceptor
1 3 donor
1 4 acceptor
1 4 donor
1 6 acceptor
1 7 acceptor
1 8 acceptor
1 9 acceptor
4 1 8 9 10 anion
6 11 12 19 20 21 24 rings
6 13 14 20 24 28 31 rings
6 19 21 23 25 26 27 rings

>  <PUBCHEM_HEAVY_ATOM_COUNT>  (1) 
31

>  <PUBCHEM_ATOM_DEF_STEREO_COUNT>  (1) 
3

>  <PUBCHEM_ATOM_UDEF_STEREO_COUNT>  (1) 
0

>  <PUBCHEM_BOND_DEF_STEREO_COUNT>  (1) 
0

>  <PUBCHEM_BOND_UDEF_STEREO_COUNT>  (1) 
0

>  <PUBCHEM_ISOTOPIC_ATOM_COUNT>  (1) 
0

>  <PUBCHEM_COMPONENT_COUNT>  (1) 
1

>  <PUBCHEM_CACTVS_TAUTO_COUNT>  (1) 
3

>  <PUBCHEM_CONFORMER_ID>  (1) 
0000230500000002

>  <PUBCHEM_MMFF94_ENERGY>  (1) 
52.9127

>  <PUBCHEM_FEATURE_SELFOVERLAP>  (1) 
91.504

>  <PUBCHEM_SHAPE_FINGERPRINT>  (1) 
10411042 1 18050566545690256675
10940486 97 18261398874941098004
1100329 8 18266740372002326003
11056379 131 18411707599310167878
11227688 84 17254291527298014446
12107183 9 18046334237919928722
12553582 1 17905338677558496275
12788726 201 18334570287000608963
13690498 29 18270126850035107798
138480 1 16754092339109242787
13911987 19 18191289513050970093
14251757 5 18411420630880401330
14508225 48 18125146389511092167
14790565 3 17978230461049179976
14844126 61 18408324414879707635
14866123 147 18339645646355818467
15042514 8 18338237176081206531
15230672 131 18264773148021943726
15250474 111 18261661615777047370
15400415 2 18122623855859156576
15876981 60 18262521510398021493
15927050 60 18340484448672898815
16087824 20 18410855465826648367
20101258 96 18193563487347742123
20511986 3 17822281367279703544
20775438 99 17046782858836655535
21133410 171 17330775600599799786
21133410 32 15505477537092157314
21703447 108 18053089916185179160
21796203 349 17684969016416718587
23559900 14 18342729741473675480
23569943 247 14476138666036391252
255183 313 18270422532984770873
255183 451 17694217077601358199
283562 15 18127126382425341337
3178227 256 18337965584472811459
335352 9 18338513153763866879
3610482 184 17968957356918247446
4073 2 18411418415384223074
4409770 3 18408881850511793279
484989 97 18262509434200464767
5265222 85 18411423929404754292
550186 7 18272373048820717860
563151 97 18050561851433427277
6700243 42 17769132177599096558
9981440 41 18192715540787189577

>  <PUBCHEM_SHAPE_MULTIPOLES>  (1) 
569.07
14.17
6.05
0.85
33.8
2.08
0.12
-2.13
2.22
-11.56
-0.27
0.83
-0.05
-0.39

>  <PUBCHEM_SHAPE_SELFOVERLAP>  (1) 
1199.136

>  <PUBCHEM_SHAPE_VOLUME>  (1) 
320.7

>  <PUBCHEM_COORDINATE_TYPE>  (1) 
2
5
10

$$$$
