8966
     RDKit          3D

 18 20  0  0  0  0  0  0  0  0999 V2000
   -1.6331   -0.6091    0.7912 N   0  0  0  0  0  0  0  0  0  0  0  0
   -0.9431   -1.1615   -0.3874 C   0  0  0  0  0  0  0  0  0  0  0  0
   -0.8935    0.4374    1.5167 C   0  0  0  0  0  0  0  0  0  0  0  0
    0.5363   -1.4347   -0.1886 C   0  0  0  0  0  0  0  0  0  0  0  0
   -0.1504    1.4408    0.6563 C   0  0  0  0  0  0  0  0  0  0  0  0
    1.4565   -0.3616   -0.0749 C   0  0  0  0  0  0  0  0  0  0  0  0
    0.9913    1.0457   -0.0857 C   0  0  0  0  0  0  0  0  0  0  0  0
   -2.9774   -0.1612    0.4240 C   0  0  0  0  0  0  0  0  0  0  0  0
    0.9931   -2.7612   -0.1361 C   0  0  0  0  0  0  0  0  0  0  0  0
   -0.5954    2.7712    0.6082 C   0  0  0  0  0  0  0  0  0  0  0  0
    2.8207   -0.6690    0.0814 C   0  0  0  0  0  0  0  0  0  0  0  0
    1.6549    2.0201   -0.8535 C   0  0  0  0  0  0  0  0  0  0  0  0
    2.3496   -3.0369    0.0198 C   0  0  0  0  0  0  0  0  0  0  0  0
    0.0809    3.7158   -0.1602 C   0  0  0  0  0  0  0  0  0  0  0  0
    3.2621   -1.9928    0.1266 C   0  0  0  0  0  0  0  0  0  0  0  0
    1.2047    3.3413   -0.8889 C   0  0  0  0  0  0  0  0  0  0  0  0
   -3.8063   -1.2869   -0.1134 C   0  0  0  0  0  0  0  0  0  0  0  0
   -4.3510   -1.2974   -1.3355 C   0  0  0  0  0  0  0  0  0  0  0  0
  1  2  1  0
  1  3  1  0
  1  8  1  0
  2  4  1  0
  3  5  1  0
  4  6  2  0
  4  9  1  0
  5  7  2  0
  5 10  1  0
  6  7  1  0
  6 11  1  0
  7 12  1  0
  8 17  1  0
  9 13  2  0
 10 14  2  0
 11 15  2  0
 12 16  2  0
 13 15  1  0
 14 16  1  0
 17 18  2  0
M  END
>  <PUBCHEM_COMPOUND_CID>  (1) 
8966

>  <PUBCHEM_CONFORMER_RMSD>  (1) 
0.6

>  <PUBCHEM_CONFORMER_DIVERSEORDER>  (1) 
2
5
4
8
6
7
1
3

>  <PUBCHEM_MMFF94_PARTIAL_CHARGES>  (1) 
27
1 -0.81
10 -0.15
11 -0.15
12 -0.15
13 -0.15
14 -0.15
15 -0.15
16 -0.15
17 -0.29
18 -0.3
2 0.41
25 0.15
26 0.15
27 0.15
28 0.15
29 0.15
3 0.41
30 0.15
31 0.15
32 0.15
33 0.15
34 0.15
35 0.15
4 -0.14
5 -0.14
8 0.41
9 -0.15

>  <PUBCHEM_EFFECTIVE_ROTOR_COUNT>  (1) 
2.6

>  <PUBCHEM_PHARMACOPHORE_FEATURES>  (1) 
5
1 1 cation
1 18 hydrophobe
6 4 6 9 11 13 15 rings
6 5 7 10 12 14 16 rings
7 1 2 3 4 5 6 7 rings

>  <PUBCHEM_HEAVY_ATOM_COUNT>  (1) 
18

>  <PUBCHEM_ATOM_DEF_STEREO_COUNT>  (1) 
0

>  <PUBCHEM_ATOM_UDEF_STEREO_COUNT>  (1) 
0

>  <PUBCHEM_BOND_DEF_STEREO_COUNT>  (1) 
0

>  <PUBCHEM_BOND_UDEF_STEREO_COUNT>  (1) 
0

>  <PUBCHEM_ISOTOPIC_ATOM_COUNT>  (1) 
0

>  <PUBCHEM_COMPONENT_COUNT>  (1) 
1

>  <PUBCHEM_CACTVS_TAUTO_COUNT>  (1) 
1

>  <PUBCHEM_CONFORMER_ID>  (1) 
0000230600000002

>  <PUBCHEM_MMFF94_ENERGY>  (1) 
62.3999

>  <PUBCHEM_FEATURE_SELFOVERLAP>  (1) 
25.396

>  <PUBCHEM_SHAPE_FINGERPRINT>  (1) 
10693767 8 18130515244164186718
10871710 139 18121526603726336100
10967382 1 18338804523574502746
1100329 8 18122629624353117402
11265709 11 18337674105119588683
11578080 2 17558803162295500745
116883 192 18123185706321393213
12035759 4 18120121449188128148
12553582 1 18337690619226838674
12730499 353 17975982282769047355
13004483 165 18122330290665493827
13009979 54 17916883360455097995
13083527 12 18338219506337545290
13134695 92 18335692849764912815
13140716 1 17979364375523272394
14181834 199 18335989769232796006
14817 1 9436541606216061289
15490181 7 17328033573001190194
15502722 9 18193838369618328623
16945 1 18264223537207399362
17134986 127 17759799647419960005
17357779 13 18125984001868393927
17539 30 17978218370753230199
18785283 64 18045226183232214187
19591789 44 17330007196194122339
20473742 2 18189324843873027503
20645477 70 18190454047227178363
21452121 199 18337655456476805331
21501502 16 17831871153136599282
21639500 275 18193830664388932143
22112679 90 17916608478215860553
2255824 54 18268148836953361527
23114952 82 18188760773455433533
2334 1 18193572081429510466
23388829 49 18341341010826265418
23402539 116 18267015068508534242
23419403 2 17842239680434582857
23598291 2 18058467507365780693
238 59 18049998089472074375
25 1 17976547426923132153
257057 1 18338795589778705097
2748010 2 16753556893530071817
3060560 45 18049438446443011133
350125 39 17543635691331976930
46194498 28 18115009905883287039
6338986 31 18339082579525072315
7364860 26 18265334086901073889
7471813 234 18200579376549973375
81228 2 18048041774311699168
84936 182 17983296212209569297

>  <PUBCHEM_SHAPE_MULTIPOLES>  (1) 
365.45
5.06
4.47
1.02
4.88
3.23
-0.05
-4.85
1.15
-2.25
0.74
0.52
0.22
-0.93

>  <PUBCHEM_SHAPE_SELFOVERLAP>  (1) 
790.726

>  <PUBCHEM_SHAPE_VOLUME>  (1) 
198.4

>  <PUBCHEM_COORDINATE_TYPE>  (1) 
2
5
10

$$$$
