898
     RDKit          3D

 19 19  0  0  1  0  0  0  0  0999 V2000
   -4.6147    0.4145    0.0265 P   0  0  0  0  0  0  0  0  0  0  0  0
   -0.3791    0.8777    0.1471 O   0  0  0  0  0  0  0  0  0  0  0  0
    2.4942   -2.0444    0.3623 O   0  0  0  0  0  0  0  0  0  0  0  0
   -0.1740   -2.7334   -0.4815 O   0  0  0  0  0  0  0  0  0  0  0  0
    1.2260    2.5643    0.1869 O   0  0  0  0  0  0  0  0  0  0  0  0
   -3.0404    0.4292   -0.3534 O   0  0  0  0  0  0  0  0  0  0  0  0
    4.6158   -0.1342    1.2307 O   0  0  0  0  0  0  0  0  0  0  0  0
   -4.6193    0.2636    1.6365 O   0  0  0  0  0  0  0  0  0  0  0  0
   -5.0969   -1.0419   -0.4849 O   0  0  0  0  0  0  0  0  0  0  0  0
   -5.4069    1.5697   -0.5121 O   0  0  0  0  0  0  0  0  0  0  0  0
    3.2577    0.6475   -0.4904 N   0  0  0  0  0  0  0  0  0  0  0  0
    1.6051   -1.1439   -0.3017 C   0  0  0  0  0  0  0  0  0  0  0  0
    1.9797    0.2889    0.0889 C   0  0  0  0  0  0  0  0  0  0  0  0
    0.1681   -1.4796    0.1034 C   0  0  0  0  0  0  0  0  0  0  0  0
   -0.7954   -0.3878   -0.3691 C   0  0  0  0  0  0  0  0  0  0  0  0
    0.8969    1.2823   -0.3465 C   0  0  0  0  0  0  0  0  0  0  0  0
   -2.2216   -0.6263    0.1163 C   0  0  0  0  0  0  0  0  0  0  0  0
    4.4663    0.4024    0.1361 C   0  0  0  0  0  0  0  0  0  0  0  0
    5.6384    0.8514   -0.6949 C   0  0  0  0  0  0  0  0  0  0  0  0
  1  6  1  0
  1  8  1  0
  1  9  1  0
  1 10  2  0
  2 15  1  0
  2 16  1  0
  3 12  1  0
  4 14  1  0
  5 16  1  0
  6 17  1  0
  7 18  2  0
 11 13  1  0
 11 18  1  0
 12 13  1  0
 12 14  1  0
 13 16  1  0
 14 15  1  0
 15 17  1  0
 18 19  1  0
M  END
>  <PUBCHEM_COMPOUND_CID>  (1) 
898

>  <PUBCHEM_CONFORMER_RMSD>  (1) 
0.8

>  <PUBCHEM_CONFORMER_DIVERSEORDER>  (1) 
1
319
212
44
241
339
356
209
281
228
275
39
333
222
278
52
170
269
110
302
53
75
144
229
238
375
84
128
262
396
357
315
257
250
312
390
387
282
291
264
344
79
47
42
373
81
74
129
5
210
215
194
187
294
240
190
342
163
300
351
234
330
374
259
192
243
198
317
31
325
206
131
138
63
18
72
223
362
219
391
124
338
279
125
207
358
377
340
378
363
225
57
341
355
211
334
161
41
365
85
73
348
14
38
370
346
196
204
154
316
17
142
382
389
134
244
323
135
306
149
308
236
182
322
33
216
305
3
307
202
263
361
147
233
101
45
246
379
201
285
386
256
99
367
112
96
27
335
148
354
164
64
231
188
8
40
60
394
123
295
67
22
289
266
383
181
36
200
298
272
93
311
320
118
156
393
162
184
167
397
122
169
95
19
28
350
54
353
48
267
58
343
159
46
92
270
150
381
140
385
247
179
197
347
94
139
337
245
4
2
217
310
288
328
349
29
292
205
51
293
65
193
106
277
171
157
80
30
176
115
260
185
345
301
114
34
360
326
37
130
11
189
314
239
398
166
232
55
69
62
284
136
352
89
280
332
376
186
220
25
208
121
249
392
173
290
324
6
160
78
104
304
13
7
145
261
191
313
287
253
329
299
66
237
395
107
273
331
255
274
268
76
83
127
117
248
24
71
158
251
86
178
143
151
59
120
327
141
369
364
91
61
230
213
43
276
384
70
235
77
116
226
368
254
20
155
177
100
21
252
309
180
366
303
218
50
109
199
88
172
321
380
195
336
371
146
105
111
26
87
318
16
108
168
56
98
49
12
183
203
372
221
175
15
32
9
68
258
137
153
133
113
165
286
359
103
90
97
35
174
132
152
271
214
227
126
224
119
23
388
265
10
82
102
297
242
296
283

>  <PUBCHEM_MMFF94_PARTIAL_CHARGES>  (1) 
25
1 1.51
10 -0.7
11 -0.73
12 0.28
13 0.3
14 0.28
15 0.28
16 0.56
17 0.28
18 0.57
19 0.06
2 -0.56
27 0.37
28 0.4
29 0.4
3 -0.68
30 0.4
34 0.5
35 0.5
4 -0.68
5 -0.68
6 -0.55
7 -0.57
8 -0.77
9 -0.77

>  <PUBCHEM_EFFECTIVE_ROTOR_COUNT>  (1) 
6.2

>  <PUBCHEM_PHARMACOPHORE_FEATURES>  (1) 
14
1 10 acceptor
1 11 donor
1 2 acceptor
1 3 acceptor
1 3 donor
1 4 acceptor
1 4 donor
1 5 acceptor
1 5 donor
1 7 acceptor
1 8 acceptor
1 9 acceptor
4 1 8 9 10 anion
6 2 12 13 14 15 16 rings

>  <PUBCHEM_HEAVY_ATOM_COUNT>  (1) 
19

>  <PUBCHEM_ATOM_DEF_STEREO_COUNT>  (1) 
0

>  <PUBCHEM_ATOM_UDEF_STEREO_COUNT>  (1) 
5

>  <PUBCHEM_BOND_DEF_STEREO_COUNT>  (1) 
0

>  <PUBCHEM_BOND_UDEF_STEREO_COUNT>  (1) 
0

>  <PUBCHEM_ISOTOPIC_ATOM_COUNT>  (1) 
0

>  <PUBCHEM_COMPONENT_COUNT>  (1) 
1

>  <PUBCHEM_CACTVS_TAUTO_COUNT>  (1) 
2

>  <PUBCHEM_CONFORMER_ID>  (1) 
0000038200000001

>  <PUBCHEM_MMFF94_ENERGY>  (1) 
3.2083

>  <PUBCHEM_FEATURE_SELFOVERLAP>  (1) 
71.143

>  <PUBCHEM_SHAPE_FINGERPRINT>  (1) 
11401426 45 18272649060451373308
11471102 20 18411134697896377351
12507557 5 18413389839516768561
13140716 1 18194396917151053040
13862211 1 18410288121034844014
14790565 3 18337679710395340548
15048467 5 17603587452263972220
15081414 286 18270694081643550948
15099037 51 18411421743356143116
15196674 1 18410291376614838183
1601671 61 18409729556132346588
16945 1 18339917208220345022
19784866 9 18186800275245000162
20645477 70 18338231545199843959
21709351 56 18411974797989946317
23402539 116 18201714076396438580
23402655 69 18342453708578711669
23557571 272 14045748110459616753
2748010 2 18194118517434054486
2916195 48 17845925329368087376
293599 30 18411140246799081388
335352 9 18411136952928326868
34934 24 18410851075436369366
350125 39 18267307723706778195
3545911 37 18342176670419203565
366044 4 18411419531189711014
4072396 5 18336535041543925442
449060 62 18413109442239193386
5104073 3 18265613358760113592
537710 114 18409167710375780532
59755656 215 18339366254190099430

>  <PUBCHEM_SHAPE_MULTIPOLES>  (1) 
337.06
11.56
2
0.86
4.71
0.49
0.22
-3.62
0.28
-0.21
-0.17
0.15
-0.02
-0.29

>  <PUBCHEM_SHAPE_SELFOVERLAP>  (1) 
659.725

>  <PUBCHEM_SHAPE_VOLUME>  (1) 
202.7

>  <PUBCHEM_COORDINATE_TYPE>  (1) 
2
5
10

$$$$
