8981
     RDKit          3D

 13 14  0  0  0  0  0  0  0  0999 V2000
   -0.8219    1.3203   -0.0028 N   0  0  0  0  0  0  0  0  0  0  0  0
   -2.0116    0.4769    0.0004 C   0  0  0  0  0  0  0  0  0  0  0  0
   -1.6704   -0.9952   -0.0002 C   0  0  0  0  0  0  0  0  0  0  0  0
    0.4694    0.8174   -0.0014 C   0  0  0  0  0  0  0  0  0  0  0  0
   -0.4261   -1.5039   -0.0007 C   0  0  0  0  0  0  0  0  0  0  0  0
    0.7209   -0.5693   -0.0004 C   0  0  0  0  0  0  0  0  0  0  0  0
   -2.8318    0.8099   -1.2533 C   0  0  0  0  0  0  0  0  0  0  0  0
   -2.8254    0.8104    1.2581 C   0  0  0  0  0  0  0  0  0  0  0  0
    1.5537    1.7113   -0.0016 C   0  0  0  0  0  0  0  0  0  0  0  0
   -0.1930   -2.9866   -0.0008 C   0  0  0  0  0  0  0  0  0  0  0  0
    2.0521   -1.0209    0.0010 C   0  0  0  0  0  0  0  0  0  0  0  0
    2.8677    1.2482    0.0001 C   0  0  0  0  0  0  0  0  0  0  0  0
    3.1164   -0.1183    0.0015 C   0  0  0  0  0  0  0  0  0  0  0  0
  1  2  1  0
  1  4  1  0
  2  3  1  0
  2  7  1  0
  2  8  1  0
  3  5  2  0
  4  6  2  0
  4  9  1  0
  5  6  1  0
  5 10  1  0
  6 11  1  0
  9 12  2  0
 11 13  2  0
 12 13  1  0
M  END
>  <PUBCHEM_COMPOUND_CID>  (1) 
8981

>  <PUBCHEM_CONFORMER_RMSD>  (1) 
0.4

>  <PUBCHEM_CONFORMER_DIVERSEORDER>  (1) 
1

>  <PUBCHEM_MMFF94_PARTIAL_CHARGES>  (1) 
17
1 -0.87
10 0.14
11 -0.15
12 -0.15
13 -0.15
14 0.4
15 0.15
2 0.51
22 0.15
26 0.15
27 0.15
28 0.15
3 -0.29
4 0.1
5 -0.17
6 0.03
9 -0.15

>  <PUBCHEM_EFFECTIVE_ROTOR_COUNT>  (1) 
0.4

>  <PUBCHEM_PHARMACOPHORE_FEATURES>  (1) 
5
1 1 cation
1 1 donor
3 2 7 8 hydrophobe
6 1 2 3 4 5 6 rings
6 4 6 9 11 12 13 rings

>  <PUBCHEM_HEAVY_ATOM_COUNT>  (1) 
13

>  <PUBCHEM_ATOM_DEF_STEREO_COUNT>  (1) 
0

>  <PUBCHEM_ATOM_UDEF_STEREO_COUNT>  (1) 
0

>  <PUBCHEM_BOND_DEF_STEREO_COUNT>  (1) 
0

>  <PUBCHEM_BOND_UDEF_STEREO_COUNT>  (1) 
0

>  <PUBCHEM_ISOTOPIC_ATOM_COUNT>  (1) 
0

>  <PUBCHEM_COMPONENT_COUNT>  (1) 
1

>  <PUBCHEM_CACTVS_TAUTO_COUNT>  (1) 
1

>  <PUBCHEM_CONFORMER_ID>  (1) 
0000231500000001

>  <PUBCHEM_MMFF94_ENERGY>  (1) 
42.0257

>  <PUBCHEM_FEATURE_SELFOVERLAP>  (1) 
25.396

>  <PUBCHEM_SHAPE_FINGERPRINT>  (1) 
1 1 18337105653386901279
10967382 1 18338798918415289126
11206711 2 18050285065953498038
11471102 20 18338232635936706245
12138202 97 18335978778664770966
12423570 1 9701016702905333825
12491281 212 18341623636912383248
12524768 44 18411141303287202606
13380535 21 18265912413285807876
13380535 76 18341325673798959078
14325111 11 18410574002357966912
14614273 12 17974838781231430212
14817 1 16261860129943379611
15309172 13 18410018723310854665
15775835 57 18335144201878403068
16945 1 18338516309561970054
17844478 74 17894925026563552249
18186145 218 18342461413212087284
193761 8 17834114529933562213
20645476 183 17822588178194815950
20871998 184 17984149424231423230
21501502 16 18267024045258532606
2334 1 18338516459870124598
23419403 2 14138925471277449913
23552423 10 18044937024453431356
23559900 14 18270974531310014476
241688 4 16897643489977015875
25 1 18117828911583396133
2748010 2 18409452509082204406
5084963 1 18201990010928582081
528886 8 18411696569364698936
63268167 104 18412258406932198425
6333449 129 18340204210424281200
81228 2 17904200678243282955

>  <PUBCHEM_SHAPE_MULTIPOLES>  (1) 
262.55
4.44
2.3
0.86
0.53
1.61
0
-1.75
0
0.1
0
-0.7
-0.2
0

>  <PUBCHEM_SHAPE_SELFOVERLAP>  (1) 
558.438

>  <PUBCHEM_SHAPE_VOLUME>  (1) 
147

>  <PUBCHEM_COORDINATE_TYPE>  (1) 
2
5
10

$$$$
