8987
     RDKit          3D

  8  7  0  0  0  0  0  0  0  0999 V2000
    2.0415   -1.2754    0.6034 S   0  0  0  0  0  0  0  0  0  0  0  0
    2.0247    1.4511   -0.5423 S   0  0  0  0  0  0  0  0  0  0  0  0
   -0.2694    0.0000   -0.0263 N   0  0  0  0  0  0  0  0  0  0  0  0
   -1.1498    1.0721   -0.4983 C   0  0  0  0  0  0  0  0  0  0  0  0
   -0.9889   -1.1735    0.4775 C   0  0  0  0  0  0  0  0  0  0  0  0
   -1.5536    1.9926    0.6410 C   0  0  0  0  0  0  0  0  0  0  0  0
   -1.2389   -2.1819   -0.6309 C   0  0  0  0  0  0  0  0  0  0  0  0
    1.1343    0.1150   -0.0241 C   0  0  0  0  0  0  0  0  0  0  0  0
  1  8  1  0
  2  8  2  0
  3  4  1  0
  3  5  1  0
  3  8  1  0
  4  6  1  0
  5  7  1  0
M  END
>  <PUBCHEM_COMPOUND_CID>  (1) 
8987

>  <PUBCHEM_CONFORMER_RMSD>  (1) 
0.6

>  <PUBCHEM_CONFORMER_DIVERSEORDER>  (1) 
1
5
10
7
4
9
8
2
11
3
6

>  <PUBCHEM_MMFF94_PARTIAL_CHARGES>  (1) 
7
1 -0.32
19 0.18
2 -0.38
3 -0.66
4 0.3
5 0.3
8 0.58

>  <PUBCHEM_EFFECTIVE_ROTOR_COUNT>  (1) 
3

>  <PUBCHEM_PHARMACOPHORE_FEATURES>  (1) 
2
1 2 acceptor
3 1 2 8 anion

>  <PUBCHEM_HEAVY_ATOM_COUNT>  (1) 
8

>  <PUBCHEM_ATOM_DEF_STEREO_COUNT>  (1) 
0

>  <PUBCHEM_ATOM_UDEF_STEREO_COUNT>  (1) 
0

>  <PUBCHEM_BOND_DEF_STEREO_COUNT>  (1) 
0

>  <PUBCHEM_BOND_UDEF_STEREO_COUNT>  (1) 
0

>  <PUBCHEM_ISOTOPIC_ATOM_COUNT>  (1) 
0

>  <PUBCHEM_COMPONENT_COUNT>  (1) 
1

>  <PUBCHEM_CACTVS_TAUTO_COUNT>  (1) 
1

>  <PUBCHEM_CONFORMER_ID>  (1) 
0000231B00000001

>  <PUBCHEM_MMFF94_ENERGY>  (1) 
14.1423

>  <PUBCHEM_FEATURE_SELFOVERLAP>  (1) 
10.148

>  <PUBCHEM_SHAPE_FINGERPRINT>  (1) 
137420 1 15532281529978825679
18185500 45 17978793737462722998
21040471 1 18268430131382975680
23552423 10 18187924036210825326
29004967 10 17684088358757017043
5084963 1 18196358226466746057

>  <PUBCHEM_SHAPE_MULTIPOLES>  (1) 
167.35
2.76
2.56
0.88
1.15
0.13
-0.01
-0.21
-0.03
-0.85
0.02
-0.02
0.01
-0.79

>  <PUBCHEM_SHAPE_SELFOVERLAP>  (1) 
281.957

>  <PUBCHEM_SHAPE_VOLUME>  (1) 
115.3

>  <PUBCHEM_COORDINATE_TYPE>  (1) 
2
5
10

$$$$
