8995
     RDKit          3D

 13 13  0  0  1  0  0  0  0  0999 V2000
    0.2639    0.8931    0.0044 N   0  0  0  0  0  0  0  0  0  0  0  0
    4.5649   -1.3139    0.1469 N   0  0  0  0  0  0  0  0  0  0  0  0
    1.5264    0.3559    0.4716 C   0  0  0  0  0  0  0  0  0  0  0  0
    0.2058    2.2686   -0.4481 C   0  0  0  0  0  0  0  0  0  0  0  0
   -0.8966    0.0911    0.0027 C   0  0  0  0  0  0  0  0  0  0  0  0
    2.2793   -0.3085   -0.6784 C   0  0  0  0  0  0  0  0  0  0  0  0
   -0.1318    3.1860    0.7115 C   0  0  0  0  0  0  0  0  0  0  0  0
   -2.1099    0.6210   -0.4362 C   0  0  0  0  0  0  0  0  0  0  0  0
   -0.8308   -1.2318    0.4404 C   0  0  0  0  0  0  0  0  0  0  0  0
   -3.2574   -0.1720   -0.4374 C   0  0  0  0  0  0  0  0  0  0  0  0
   -1.9783   -2.0247    0.4388 C   0  0  0  0  0  0  0  0  0  0  0  0
   -3.1916   -1.4949   -0.0001 C   0  0  0  0  0  0  0  0  0  0  0  0
    3.5562   -0.8698   -0.2161 C   0  0  0  0  0  0  0  0  0  0  0  0
  1  3  1  0
  1  4  1  0
  1  5  1  0
  2 13  3  0
  3  6  1  0
  4  7  1  0
  5  8  2  0
  5  9  1  0
  6 13  1  0
  8 10  1  0
  9 11  2  0
 10 12  2  0
 11 12  1  0
M  END
>  <PUBCHEM_COMPOUND_CID>  (1) 
8995

>  <PUBCHEM_CONFORMER_RMSD>  (1) 
0.6

>  <PUBCHEM_CONFORMER_DIVERSEORDER>  (1) 
6
18
32
43
22
40
35
27
41
21
44
24
20
30
39
26
13
29
33
37
31
15
23
3
38
34
42
25
4
14
12
8
11
28
5
19
10
9
36
16
17
7
1
2

>  <PUBCHEM_MMFF94_PARTIAL_CHARGES>  (1) 
17
1 -0.84
10 -0.15
11 -0.15
12 -0.15
13 0.36
2 -0.56
23 0.15
24 0.15
25 0.15
26 0.15
27 0.15
3 0.37
4 0.37
5 0.1
6 0.2
8 -0.15
9 -0.15

>  <PUBCHEM_EFFECTIVE_ROTOR_COUNT>  (1) 
4

>  <PUBCHEM_PHARMACOPHORE_FEATURES>  (1) 
3
1 1 cation
1 2 acceptor
6 5 8 9 10 11 12 rings

>  <PUBCHEM_HEAVY_ATOM_COUNT>  (1) 
13

>  <PUBCHEM_ATOM_DEF_STEREO_COUNT>  (1) 
0

>  <PUBCHEM_ATOM_UDEF_STEREO_COUNT>  (1) 
0

>  <PUBCHEM_BOND_DEF_STEREO_COUNT>  (1) 
0

>  <PUBCHEM_BOND_UDEF_STEREO_COUNT>  (1) 
0

>  <PUBCHEM_ISOTOPIC_ATOM_COUNT>  (1) 
0

>  <PUBCHEM_COMPONENT_COUNT>  (1) 
1

>  <PUBCHEM_CACTVS_TAUTO_COUNT>  (1) 
1

>  <PUBCHEM_CONFORMER_ID>  (1) 
0000232300000006

>  <PUBCHEM_MMFF94_ENERGY>  (1) 
38.2729

>  <PUBCHEM_FEATURE_SELFOVERLAP>  (1) 
15.223

>  <PUBCHEM_SHAPE_FINGERPRINT>  (1) 
1 1 17620194672968058596
10465860 250 18409725162528417866
12032990 46 18409731780735547323
12524768 44 17829885795860912327
12532896 13 17622171161125339884
14648413 74 18121498222366484241
14911166 2 18334284362885613567
15279308 128 18335693902110936981
16945 1 18261099808036395803
17841504 4 18268712894981763409
17990270 104 18121777489439575011
18186145 218 13045947923457142814
20201158 50 18412265021298307702
20645477 70 17976247264855349351
20711983 138 18413670218574899929
20711985 344 18268140964093574896
20711985 365 18409450245824525412
20871998 22 18338514260883857416
20871999 31 18260265243839440447
21029758 11 18412537730362493293
21296965 67 18412544327184145192
21501502 16 18194974165076813949
22213442 358 18338799043190893358
23402539 116 18341322288953072079
23403322 49 18410293567206862918
23552423 10 17826229880933185647
23557571 272 18201163131705037892
23559900 14 18337945706857743450
2748010 2 17827349192581761839
3084891 72 18267018362964234351
5493415 88 18337111283988727875
5902787 121 18335698398936447090
7364860 26 18052539068948509009
81228 2 18196669409911617360

>  <PUBCHEM_SHAPE_MULTIPOLES>  (1) 
257.57
5.93
2.71
0.78
4.68
2.3
0
-4.64
-0.54
-0.12
0.56
-0.01
0.11
0.25

>  <PUBCHEM_SHAPE_SELFOVERLAP>  (1) 
517.379

>  <PUBCHEM_SHAPE_VOLUME>  (1) 
149

>  <PUBCHEM_COORDINATE_TYPE>  (1) 
2
5
10

$$$$
