9
     RDKit          3D

 16 16  0  0  1  0  0  0  0  0999 V2000
   -2.8730    0.2287   -0.1884 P   0  0  0  0  0  0  0  0  0  0  0  0
   -1.6664   -0.6070    0.4837 O   0  0  0  0  0  0  0  0  0  0  0  0
   -0.0166    1.4185    1.3954 O   0  0  0  0  0  0  0  0  0  0  0  0
    0.2043   -2.7363    0.4972 O   0  0  0  0  0  0  0  0  0  0  0  0
    1.8932    2.5497   -0.2635 O   0  0  0  0  0  0  0  0  0  0  0  0
    2.1445   -1.6133   -1.1538 O   0  0  0  0  0  0  0  0  0  0  0  0
    3.8029    0.3814   -0.2265 O   0  0  0  0  0  0  0  0  0  0  0  0
   -4.1935   -0.3291    0.5603 O   0  0  0  0  0  0  0  0  0  0  0  0
   -2.9772   -0.4263   -1.6632 O   0  0  0  0  0  0  0  0  0  0  0  0
   -2.7053    1.7199   -0.1675 O   0  0  0  0  0  0  0  0  0  0  0  0
   -0.3574   -0.4617   -0.0665 C   0  0  0  0  0  0  0  0  0  0  0  0
    0.0787    1.0055    0.0269 C   0  0  0  0  0  0  0  0  0  0  0  0
    0.6056   -1.3814    0.6972 C   0  0  0  0  0  0  0  0  0  0  0  0
    1.5232    1.1856   -0.4567 C   0  0  0  0  0  0  0  0  0  0  0  0
    2.0506   -1.2005    0.2148 C   0  0  0  0  0  0  0  0  0  0  0  0
    2.4862    0.2663    0.3109 C   0  0  0  0  0  0  0  0  0  0  0  0
  1  2  1  0
  1  8  1  0
  1  9  1  0
  1 10  2  0
  2 11  1  0
  3 12  1  0
  4 13  1  0
  5 14  1  0
  6 15  1  0
  7 16  1  0
 11 12  1  0
 11 13  1  0
 12 14  1  0
 13 15  1  0
 14 16  1  0
 15 16  1  0
M  END
>  <PUBCHEM_COMPOUND_CID>  (1) 
9

>  <PUBCHEM_CONFORMER_RMSD>  (1) 
0.6

>  <PUBCHEM_CONFORMER_DIVERSEORDER>  (1) 
2
15
21
6
28
7
9
24
25
19
27
20
8
16
1
26
17
3
11
18
23
22
14
12
10
13
5
4

>  <PUBCHEM_MMFF94_PARTIAL_CHARGES>  (1) 
23
1 1.51
10 -0.7
11 0.28
12 0.28
13 0.28
14 0.28
15 0.28
16 0.28
2 -0.55
23 0.4
24 0.4
25 0.4
26 0.4
27 0.4
28 0.5
29 0.5
3 -0.68
4 -0.68
5 -0.68
6 -0.68
7 -0.68
8 -0.77
9 -0.77

>  <PUBCHEM_EFFECTIVE_ROTOR_COUNT>  (1) 
3.2

>  <PUBCHEM_PHARMACOPHORE_FEATURES>  (1) 
15
1 10 acceptor
1 3 acceptor
1 3 donor
1 4 acceptor
1 4 donor
1 5 acceptor
1 5 donor
1 6 acceptor
1 6 donor
1 7 acceptor
1 7 donor
1 8 acceptor
1 9 acceptor
4 1 8 9 10 anion
6 11 12 13 14 15 16 rings

>  <PUBCHEM_HEAVY_ATOM_COUNT>  (1) 
16

>  <PUBCHEM_ATOM_DEF_STEREO_COUNT>  (1) 
0

>  <PUBCHEM_ATOM_UDEF_STEREO_COUNT>  (1) 
4

>  <PUBCHEM_BOND_DEF_STEREO_COUNT>  (1) 
0

>  <PUBCHEM_BOND_UDEF_STEREO_COUNT>  (1) 
0

>  <PUBCHEM_ISOTOPIC_ATOM_COUNT>  (1) 
0

>  <PUBCHEM_COMPONENT_COUNT>  (1) 
1

>  <PUBCHEM_CACTVS_TAUTO_COUNT>  (1) 
1

>  <PUBCHEM_CONFORMER_ID>  (1) 
0000000900000002

>  <PUBCHEM_MMFF94_ENERGY>  (1) 
10.6813

>  <PUBCHEM_FEATURE_SELFOVERLAP>  (1) 
76.196

>  <PUBCHEM_SHAPE_FINGERPRINT>  (1) 
10922523 26 18271525282564460125
11471102 20 18335979783876905061
12654215 9 18043235869168953686
12932764 1 17775275067538222513
13380535 76 18338515369343842928
13380536 305 18335708260012397570
14251717 144 18409443691804502527
14911166 2 18337682991997456084
14993402 34 18334580148661653684
15775835 57 18201439216054426837
16945 1 18336824285984579546
17844478 74 18041005025044199777
18186145 218 18410009974357036084
193761 8 17832147491099854128
20201158 50 18408886230555404954
20511035 2 18051692441311707072
20645477 70 18270110211394937807
23402539 116 18342167818386403942
23402655 69 18339070506984167101
23552423 10 18338514136572210441
241688 4 18050859810266811674
25 1 18261110759701860174
2748010 2 17835249213523213912
353137 74 18340488863471264225
528886 8 18334289877111853568
58051976 378 18410009983168425805
63268167 104 18412267198782968552
7364860 26 18343584066282123960
7832392 63 18122624951175842473
81228 2 16896501106233773555

>  <PUBCHEM_SHAPE_MULTIPOLES>  (1) 
280.3
5.36
2.19
0.99
3.32
0.11
-0.14
-0.51
-0.74
-0.97
0.12
0.29
0.09
0.01

>  <PUBCHEM_SHAPE_SELFOVERLAP>  (1) 
554.031

>  <PUBCHEM_SHAPE_VOLUME>  (1) 
167.4

>  <PUBCHEM_COORDINATE_TYPE>  (1) 
2
5
10

$$$$
