9013
     RDKit          3D

 13 13  0  0  0  0  0  0  0  0999 V2000
    3.0002   -0.4902    0.3813 O   0  0  0  0  0  0  0  0  0  0  0  0
   -3.4386   -1.3881   -0.1164 O   0  0  0  0  0  0  0  0  0  0  0  0
   -2.3936    0.7223   -0.0564 N   0  0  0  0  0  0  0  0  0  0  0  0
   -4.6890    0.5207   -0.2357 N   0  0  0  0  0  0  0  0  0  0  0  0
    1.6766   -0.1926    0.2739 C   0  0  0  0  0  0  0  0  0  0  0  0
   -1.0369    0.4175    0.0544 C   0  0  0  0  0  0  0  0  0  0  0  0
    1.2626    1.1386    0.2279 C   0  0  0  0  0  0  0  0  0  0  0  0
    0.7339   -1.2187    0.2102 C   0  0  0  0  0  0  0  0  0  0  0  0
   -0.0940    1.4437    0.1184 C   0  0  0  0  0  0  0  0  0  0  0  0
   -0.6228   -0.9138    0.1004 C   0  0  0  0  0  0  0  0  0  0  0  0
    3.9227    0.4350   -0.1921 C   0  0  0  0  0  0  0  0  0  0  0  0
    5.1625   -0.3136   -0.6327 C   0  0  0  0  0  0  0  0  0  0  0  0
   -3.4837   -0.1607   -0.1332 C   0  0  0  0  0  0  0  0  0  0  0  0
  1  5  1  0
  1 11  1  0
  2 13  2  0
  3  6  1  0
  3 13  1  0
  4 13  1  0
  5  7  2  0
  5  8  1  0
  6  9  2  0
  6 10  1  0
  7  9  1  0
  8 10  2  0
 11 12  1  0
M  END
>  <PUBCHEM_COMPOUND_CID>  (1) 
9013

>  <PUBCHEM_CONFORMER_RMSD>  (1) 
0.6

>  <PUBCHEM_CONFORMER_DIVERSEORDER>  (1) 
2
11
19
14
9
17
21
20
16
10
23
3
22
13
15
18
8
7
5
12
4
6
1

>  <PUBCHEM_MMFF94_PARTIAL_CHARGES>  (1) 
19
1 -0.36
10 -0.15
11 0.28
13 0.69
14 0.15
15 0.15
16 0.15
17 0.15
2 -0.57
20 0.37
24 0.37
25 0.37
3 -0.55
4 -0.8
5 0.08
6 0.12
7 -0.15
8 -0.15
9 -0.15

>  <PUBCHEM_EFFECTIVE_ROTOR_COUNT>  (1) 
4

>  <PUBCHEM_PHARMACOPHORE_FEATURES>  (1) 
5
1 1 acceptor
1 2 acceptor
1 3 donor
1 4 donor
6 5 6 7 8 9 10 rings

>  <PUBCHEM_HEAVY_ATOM_COUNT>  (1) 
13

>  <PUBCHEM_ATOM_DEF_STEREO_COUNT>  (1) 
0

>  <PUBCHEM_ATOM_UDEF_STEREO_COUNT>  (1) 
0

>  <PUBCHEM_BOND_DEF_STEREO_COUNT>  (1) 
0

>  <PUBCHEM_BOND_UDEF_STEREO_COUNT>  (1) 
0

>  <PUBCHEM_ISOTOPIC_ATOM_COUNT>  (1) 
0

>  <PUBCHEM_COMPONENT_COUNT>  (1) 
1

>  <PUBCHEM_CACTVS_TAUTO_COUNT>  (1) 
3

>  <PUBCHEM_CONFORMER_ID>  (1) 
0000233500000002

>  <PUBCHEM_MMFF94_ENERGY>  (1) 
40.1106

>  <PUBCHEM_FEATURE_SELFOVERLAP>  (1) 
25.42

>  <PUBCHEM_SHAPE_FINGERPRINT>  (1) 
11062470 55 16298385751409169481
11401426 45 18411133645239129488
12032990 46 18342178894558174210
13690532 89 18410012122378630674
13760787 19 17676485046983174475
14325111 11 18338513144550978553
14911166 2 18410294713788407996
14993402 34 18408604768653454764
15048467 5 17313104141947037757
15536298 74 18271804691757028736
17834076 25 16660084399364960548
18186145 218 18334847350887202252
187816 3 18333735710730464928
200 152 17846778511857685835
20645477 70 18339075969602701967
21267235 1 18411706521505764407
21293036 1 18408041814552772204
23402539 116 18342171172454889654
23402655 69 18337663123500097181
23559900 14 18341612655482801952
2748010 2 18121776398560131904
366044 4 18408604764448476658
42 15 11887957644507930444
449060 50 13190342370311651026
4990 188 18202289087071577710
8809292 202 18188211017525760739

>  <PUBCHEM_SHAPE_MULTIPOLES>  (1) 
245.83
8.64
1.29
0.66
1.77
0.01
-0.01
-0.67
-1.87
-0.31
0.06
0.22
-0.01
0.03

>  <PUBCHEM_SHAPE_SELFOVERLAP>  (1) 
502.392

>  <PUBCHEM_SHAPE_VOLUME>  (1) 
141.5

>  <PUBCHEM_COORDINATE_TYPE>  (1) 
2
5
10

$$$$
