9027
     RDKit          3D

 11 10  0  0  1  0  0  0  0  0999 V2000
    2.4991   -1.1739    0.8883 O   0  0  0  0  0  0  0  0  0  0  0  0
    1.7243   -0.5007   -0.1155 C   0  0  0  0  0  0  0  0  0  0  0  0
    0.3226   -0.2451    0.4841 C   0  0  0  0  0  0  0  0  0  0  0  0
   -0.6594    0.4884   -0.4366 C   0  0  0  0  0  0  0  0  0  0  0  0
   -2.0112    0.8050    0.2380 C   0  0  0  0  0  0  0  0  0  0  0  0
    2.4948    0.7786   -0.5023 C   0  0  0  0  0  0  0  0  0  0  0  0
   -2.6792   -0.4031    0.9245 C   0  0  0  0  0  0  0  0  0  0  0  0
    1.6517   -1.4370   -1.3286 C   0  0  0  0  0  0  0  0  0  0  0  0
   -2.9545    1.4566   -0.7796 C   0  0  0  0  0  0  0  0  0  0  0  0
    2.6370    1.7964    0.6241 C   0  0  0  0  0  0  0  0  0  0  0  0
   -3.0252   -1.5651    0.0036 C   0  0  0  0  0  0  0  0  0  0  0  0
  1  2  1  0
  2  3  1  0
  2  6  1  0
  2  8  1  0
  3  4  1  0
  4  5  1  0
  5  7  1  0
  5  9  1  0
  6 10  1  0
  7 11  1  0
M  END
>  <PUBCHEM_COMPOUND_CID>  (1) 
9027

>  <PUBCHEM_CONFORMER_RMSD>  (1) 
0.6

>  <PUBCHEM_CONFORMER_DIVERSEORDER>  (1) 
2
115
101
110
121
77
112
86
66
4
120
59
100
109
23
124
104
43
113
58
123
9
118
92
125
32
107
119
87
126
26
16
111
103
8
114
68
117
65
15
70
30
13
54
102
122
69
45
44
67
42
116
17
81
98
84
93
19
3
78
49
74
79
33
63
38
76
6
25
60
88
53
55
14
85
28
108
57
61
10
51
89
11
50
75
20
18
36
40
47
34
52
105
7
22
5
29
99
80
24
95
35
106
73
1
56
21
94
48
90
72
37
64
27
83
46
82
91
97
31
39
62
71
96
41
12

>  <PUBCHEM_MMFF94_PARTIAL_CHARGES>  (1) 
3
1 -0.68
2 0.28
30 0.4

>  <PUBCHEM_EFFECTIVE_ROTOR_COUNT>  (1) 
5

>  <PUBCHEM_PHARMACOPHORE_FEATURES>  (1) 
6
1 1 acceptor
1 1 donor
1 10 hydrophobe
1 11 hydrophobe
1 9 hydrophobe
4 3 4 5 7 hydrophobe

>  <PUBCHEM_HEAVY_ATOM_COUNT>  (1) 
11

>  <PUBCHEM_ATOM_DEF_STEREO_COUNT>  (1) 
0

>  <PUBCHEM_ATOM_UDEF_STEREO_COUNT>  (1) 
2

>  <PUBCHEM_BOND_DEF_STEREO_COUNT>  (1) 
0

>  <PUBCHEM_BOND_UDEF_STEREO_COUNT>  (1) 
0

>  <PUBCHEM_ISOTOPIC_ATOM_COUNT>  (1) 
0

>  <PUBCHEM_COMPONENT_COUNT>  (1) 
1

>  <PUBCHEM_CACTVS_TAUTO_COUNT>  (1) 
1

>  <PUBCHEM_CONFORMER_ID>  (1) 
0000234300000002

>  <PUBCHEM_MMFF94_ENERGY>  (1) 
16.309

>  <PUBCHEM_FEATURE_SELFOVERLAP>  (1) 
30.501

>  <PUBCHEM_SHAPE_FINGERPRINT>  (1) 
107287 299 18129954475911193246
10857977 72 17967819391815449153
12716758 59 18041277660825254065
12897270 3 18343588438252700812
12932741 1 18337959991201616773
12932764 1 18188221917835791843
14325111 11 18334295370311812409
15775835 57 17822860775062266019
170605 34 18341335608132148192
18380122 1 18339367477722573577
19973954 147 18341901740192313609
20201158 50 18270116795062733479
20279233 1 18342738473067841231
20711985 344 16904417607260106846
21028194 46 18340491183117698160
21524375 3 18052541268557476416
21730867 7 18342463672465020692
23235687 12 18412548678049397547
23557571 272 18335146405455244893
3248919 1 17988924423021082137
74978 22 18267589009314245441
8030462 33 17530974570156616547

>  <PUBCHEM_SHAPE_MULTIPOLES>  (1) 
220.51
5.55
1.8
1.07
1.53
0.06
0.09
0.42
-0.27
-0.17
0.17
-0.12
-0.14
0.7

>  <PUBCHEM_SHAPE_SELFOVERLAP>  (1) 
399.929

>  <PUBCHEM_SHAPE_VOLUME>  (1) 
143

>  <PUBCHEM_COORDINATE_TYPE>  (1) 
2
5
10

$$$$
