9038
     RDKit          3D

  8  7  0  0  0  0  0  0  0  0999 V2000
   -0.1178    0.1582   -2.1741 S   0  0  0  0  0  0  0  0  0  0  0  0
    0.0056    0.0322   -0.2338 P   0  0  0  0  0  0  0  0  0  0  0  0
    0.4907   -1.3962    0.3757 O   0  0  0  0  0  0  0  0  0  0  0  0
   -1.3653    0.2908    0.6035 O   0  0  0  0  0  0  0  0  0  0  0  0
    1.0301    1.0604    0.5008 O   0  0  0  0  0  0  0  0  0  0  0  0
   -0.3472   -2.5335    0.2564 C   0  0  0  0  0  0  0  0  0  0  0  0
   -2.1233    1.4653    0.3674 C   0  0  0  0  0  0  0  0  0  0  0  0
    2.4273    0.9228    0.3041 C   0  0  0  0  0  0  0  0  0  0  0  0
  1  2  2  0
  2  3  1  0
  2  4  1  0
  2  5  1  0
  3  6  1  0
  4  7  1  0
  5  8  1  0
M  END
>  <PUBCHEM_COMPOUND_CID>  (1) 
9038

>  <PUBCHEM_CONFORMER_RMSD>  (1) 
0.6

>  <PUBCHEM_CONFORMER_DIVERSEORDER>  (1) 
1
2
3
4

>  <PUBCHEM_MMFF94_PARTIAL_CHARGES>  (1) 
8
1 -0.68
2 1.49
3 -0.55
4 -0.55
5 -0.55
6 0.28
7 0.28
8 0.28

>  <PUBCHEM_EFFECTIVE_ROTOR_COUNT>  (1) 
3

>  <PUBCHEM_PHARMACOPHORE_FEATURES>  (1) 
0

>  <PUBCHEM_HEAVY_ATOM_COUNT>  (1) 
8

>  <PUBCHEM_ATOM_DEF_STEREO_COUNT>  (1) 
0

>  <PUBCHEM_ATOM_UDEF_STEREO_COUNT>  (1) 
0

>  <PUBCHEM_BOND_DEF_STEREO_COUNT>  (1) 
0

>  <PUBCHEM_BOND_UDEF_STEREO_COUNT>  (1) 
0

>  <PUBCHEM_ISOTOPIC_ATOM_COUNT>  (1) 
0

>  <PUBCHEM_COMPONENT_COUNT>  (1) 
1

>  <PUBCHEM_CACTVS_TAUTO_COUNT>  (1) 
1

>  <PUBCHEM_CONFORMER_ID>  (1) 
0000234E00000001

>  <PUBCHEM_MMFF94_ENERGY>  (1) 
7.7749

>  <PUBCHEM_FEATURE_SELFOVERLAP>  (1) 
0

>  <PUBCHEM_SHAPE_FINGERPRINT>  (1) 
20711978 78 17831844768682631341
21040471 1 18410862078889237848
23211744 41 18059585684462931121
23552449 11 17838338471772197689
5943 1 15595042168940629965
68250623 7 17917710188534875150

>  <PUBCHEM_SHAPE_MULTIPOLES>  (1) 
154.73
2.31
2.16
1.46
0.52
1.85
1.4
-1.67
-0.8
-0.38
-0.57
-0.15
-0.2
-0.04

>  <PUBCHEM_SHAPE_SELFOVERLAP>  (1) 
251.141

>  <PUBCHEM_SHAPE_VOLUME>  (1) 
109.7

>  <PUBCHEM_COORDINATE_TYPE>  (1) 
2
5
10

$$$$
