9047
     RDKit          3D

 19 20  0  0  0  0  0  0  0  0999 V2000
    0.2332   -2.2967    0.2862 S   0  0  0  0  0  0  0  0  0  0  0  0
    0.8320   -3.0929    1.3510 O   0  0  0  0  0  0  0  0  0  0  0  0
   -0.0770   -2.9420   -0.9837 O   0  0  0  0  0  0  0  0  0  0  0  0
   -1.2073    1.1296    1.8336 O   0  0  0  0  0  0  0  0  0  0  0  0
   -1.1853   -1.5460    0.9129 N   0  0  0  0  0  0  0  0  0  0  0  0
   -2.3183   -0.8144   -1.0229 N   0  0  0  0  0  0  0  0  0  0  0  0
    3.8203    2.3297   -0.7555 N   0  0  0  0  0  0  0  0  0  0  0  0
   -2.3220    1.8245   -0.0728 N   0  0  0  0  0  0  0  0  0  0  0  0
    1.2870   -0.9386   -0.0196 C   0  0  0  0  0  0  0  0  0  0  0  0
    2.1530   -0.4896    0.9773 C   0  0  0  0  0  0  0  0  0  0  0  0
    1.2619   -0.3018   -1.2604 C   0  0  0  0  0  0  0  0  0  0  0  0
   -1.7741   -0.4738    0.1566 C   0  0  0  0  0  0  0  0  0  0  0  0
    2.9691    1.2329   -0.5075 C   0  0  0  0  0  0  0  0  0  0  0  0
    2.9939    0.5963    0.7334 C   0  0  0  0  0  0  0  0  0  0  0  0
    2.1029    0.7839   -1.5044 C   0  0  0  0  0  0  0  0  0  0  0  0
   -1.7714    0.8142    0.6291 C   0  0  0  0  0  0  0  0  0  0  0  0
   -2.8687    0.1961   -1.7249 C   0  0  0  0  0  0  0  0  0  0  0  0
   -2.8704    1.4921   -1.2583 C   0  0  0  0  0  0  0  0  0  0  0  0
   -1.2587    2.4964    2.2299 C   0  0  0  0  0  0  0  0  0  0  0  0
  1  2  2  0
  1  3  2  0
  1  5  1  0
  1  9  1  0
  4 16  1  0
  4 19  1  0
  5 12  1  0
  6 12  2  0
  6 17  1  0
  7 13  1  0
  8 16  2  0
  8 18  1  0
  9 10  2  0
  9 11  1  0
 10 14  1  0
 11 15  2  0
 12 16  1  0
 13 14  2  0
 13 15  1  0
 17 18  2  0
M  END
>  <PUBCHEM_COMPOUND_CID>  (1) 
9047

>  <PUBCHEM_CONFORMER_RMSD>  (1) 
0.6

>  <PUBCHEM_CONFORMER_DIVERSEORDER>  (1) 
1
20
24
2
9
18
10
3
25
4
12
21
11
30
7
13
8
29
31
15
19
14
22
6
23
17
16
28
5
27
26

>  <PUBCHEM_MMFF94_PARTIAL_CHARGES>  (1) 
28
1 1.45
10 -0.15
11 -0.15
12 0.51
13 0.1
14 -0.15
15 -0.15
16 0.39
17 0.16
18 0.16
19 0.28
2 -0.65
20 0.42
21 0.15
22 0.15
23 0.15
24 0.15
25 0.4
26 0.4
27 0.15
28 0.15
3 -0.65
4 -0.36
5 -0.76
6 -0.62
7 -0.9
8 -0.62
9 -0.01

>  <PUBCHEM_EFFECTIVE_ROTOR_COUNT>  (1) 
4

>  <PUBCHEM_PHARMACOPHORE_FEATURES>  (1) 
8
1 2 acceptor
1 3 acceptor
1 5 donor
1 6 acceptor
1 7 cation
1 7 donor
6 6 8 12 16 17 18 rings
6 9 10 11 13 14 15 rings

>  <PUBCHEM_HEAVY_ATOM_COUNT>  (1) 
19

>  <PUBCHEM_ATOM_DEF_STEREO_COUNT>  (1) 
0

>  <PUBCHEM_ATOM_UDEF_STEREO_COUNT>  (1) 
0

>  <PUBCHEM_BOND_DEF_STEREO_COUNT>  (1) 
0

>  <PUBCHEM_BOND_UDEF_STEREO_COUNT>  (1) 
0

>  <PUBCHEM_ISOTOPIC_ATOM_COUNT>  (1) 
0

>  <PUBCHEM_COMPONENT_COUNT>  (1) 
1

>  <PUBCHEM_CACTVS_TAUTO_COUNT>  (1) 
2

>  <PUBCHEM_CONFORMER_ID>  (1) 
0000235700000001

>  <PUBCHEM_MMFF94_ENERGY>  (1) 
58.4726

>  <PUBCHEM_FEATURE_SELFOVERLAP>  (1) 
40.615

>  <PUBCHEM_SHAPE_FINGERPRINT>  (1) 
11640471 11 18340763724272334765
12633257 1 13984935268809826772
128993 33 17984451579502037840
13132413 78 17621054066407563894
13134695 92 17537704504715767734
13299463 15 15626220191277722045
13693222 7 18269001881698058289
15276787 5 14996272574907541700
15775835 57 18259987101868393900
16945 1 17899976333268467734
17357990 137 17266673754686885769
17492 54 16481297353295455380
18981168 100 18117584866914100495
192875 21 18270102548888581176
19765921 60 18411127018442110977
20291156 8 10807942604017974004
20510252 161 18120099634875287690
20600515 1 17327215497490411938
21524375 3 18408884048854696838
21731516 1 9223219737351538872
23419403 2 17119168158135260691
23557571 272 17766582504871392438
31174 14 17612343778104728985
430814 3 17838375940787183369
5262128 65 17131832096703822016
6992083 37 16975888057783356971
81228 2 17758988169157679138

>  <PUBCHEM_SHAPE_MULTIPOLES>  (1) 
357.33
4.98
3.02
1.85
1.3
1.34
-0.34
-3.43
1.67
0.45
-0.86
-0.66
-0.69
-0.97

>  <PUBCHEM_SHAPE_SELFOVERLAP>  (1) 
747.283

>  <PUBCHEM_SHAPE_VOLUME>  (1) 
203.3

>  <PUBCHEM_COORDINATE_TYPE>  (1) 
2
5
10

$$$$
