9051
     RDKit          3D

 23 26  0  0  1  0  0  0  0  0999 V2000
   -5.5103   -0.1339    0.2279 O   0  0  0  0  0  0  0  0  0  0  0  0
    6.1355   -0.3409   -0.4366 O   0  0  0  0  0  0  0  0  0  0  0  0
   -2.2403   -0.1907    0.3050 C   0  0  0  0  0  0  0  0  0  0  0  0
   -1.2843    0.9325   -0.1412 C   0  0  0  0  0  0  0  0  0  0  0  0
   -0.0685    1.0921    0.7778 C   0  0  0  0  0  0  0  0  0  0  0  0
    0.7242   -0.2481    0.9648 C   0  0  0  0  0  0  0  0  0  0  0  0
   -3.3441   -0.0264   -0.7638 C   0  0  0  0  0  0  0  0  0  0  0  0
   -1.4664   -1.5089    0.2239 C   0  0  0  0  0  0  0  0  0  0  0  0
   -2.2199    2.1260   -0.3369 C   0  0  0  0  0  0  0  0  0  0  0  0
   -0.2087   -1.4884    1.1056 C   0  0  0  0  0  0  0  0  0  0  0  0
    1.9522   -0.4415   -0.0202 C   0  0  0  0  0  0  0  0  0  0  0  0
   -3.5002    1.5001   -0.9175 C   0  0  0  0  0  0  0  0  0  0  0  0
   -2.8159    0.0005    1.7325 C   0  0  0  0  0  0  0  0  0  0  0  0
    0.8074    2.2322    0.3401 C   0  0  0  0  0  0  0  0  0  0  0  0
    2.7907    0.8422   -0.0857 C   0  0  0  0  0  0  0  0  0  0  0  0
    2.8595   -1.5872    0.5257 C   0  0  0  0  0  0  0  0  0  0  0  0
   -4.6371   -0.7019   -0.4263 C   0  0  0  0  0  0  0  0  0  0  0  0
    1.5124   -0.7998   -1.4558 C   0  0  0  0  0  0  0  0  0  0  0  0
    2.0883    2.1094   -0.0216 C   0  0  0  0  0  0  0  0  0  0  0  0
    4.1947   -1.7157   -0.1976 C   0  0  0  0  0  0  0  0  0  0  0  0
    4.1301    0.8545   -0.1983 C   0  0  0  0  0  0  0  0  0  0  0  0
    4.9177   -0.3973   -0.2727 C   0  0  0  0  0  0  0  0  0  0  0  0
   -4.8170   -2.1089   -0.9289 C   0  0  0  0  0  0  0  0  0  0  0  0
  1 17  2  0
  2 22  2  0
  3  4  1  0
  3  7  1  0
  3  8  1  0
  3 13  1  0
  4  5  1  0
  4  9  1  0
  5  6  1  0
  5 14  1  0
  6 10  1  0
  6 11  1  0
  7 12  1  0
  7 17  1  0
  8 10  1  0
  9 12  1  0
 11 15  1  0
 11 16  1  0
 11 18  1  0
 14 19  2  0
 15 19  1  0
 15 21  2  0
 16 20  1  0
 17 23  1  0
 20 22  1  0
 21 22  1  0
M  END
>  <PUBCHEM_COMPOUND_CID>  (1) 
9051

>  <PUBCHEM_CONFORMER_RMSD>  (1) 
0.6

>  <PUBCHEM_CONFORMER_DIVERSEORDER>  (1) 
1
2

>  <PUBCHEM_MMFF94_PARTIAL_CHARGES>  (1) 
16
1 -0.57
11 0.14
14 -0.29
15 -0.14
17 0.45
19 -0.15
2 -0.57
20 0.06
21 -0.14
22 0.49
23 0.06
39 0.15
45 0.15
48 0.15
5 0.14
7 0.06

>  <PUBCHEM_EFFECTIVE_ROTOR_COUNT>  (1) 
2.4

>  <PUBCHEM_PHARMACOPHORE_FEATURES>  (1) 
6
1 1 acceptor
1 2 acceptor
5 3 4 7 9 12 rings
6 11 15 16 20 21 22 rings
6 3 4 5 6 8 10 rings
6 5 6 11 14 15 19 rings

>  <PUBCHEM_HEAVY_ATOM_COUNT>  (1) 
23

>  <PUBCHEM_ATOM_DEF_STEREO_COUNT>  (1) 
6

>  <PUBCHEM_ATOM_UDEF_STEREO_COUNT>  (1) 
0

>  <PUBCHEM_BOND_DEF_STEREO_COUNT>  (1) 
0

>  <PUBCHEM_BOND_UDEF_STEREO_COUNT>  (1) 
0

>  <PUBCHEM_ISOTOPIC_ATOM_COUNT>  (1) 
0

>  <PUBCHEM_COMPONENT_COUNT>  (1) 
1

>  <PUBCHEM_CACTVS_TAUTO_COUNT>  (1) 
6

>  <PUBCHEM_CONFORMER_ID>  (1) 
0000235B00000001

>  <PUBCHEM_MMFF94_ENERGY>  (1) 
74.7121

>  <PUBCHEM_FEATURE_SELFOVERLAP>  (1) 
30.551

>  <PUBCHEM_SHAPE_FINGERPRINT>  (1) 
10366900 7 17821445767974459192
10498660 4 17240748550515205493
11089746 13 12107788531545353734
12011746 2 18260546727442956836
12166972 35 17968099733084253012
12236239 1 17704357683816200376
12403259 226 18411129251604136909
12403259 415 18113890568264849253
12403260 363 18335417972000380192
12596599 1 17988379112851877223
12670546 177 18411979178455654751
13224815 77 17846501400646823662
13288520 33 18272653437001871037
13583140 156 15357705205553262888
13862211 1 18410292485286125738
13944108 23 16170286835926589517
14115302 16 17822581593650975542
14576447 43 18411695491765887278
14790565 3 17474952021839369081
15196674 1 18409165476533935148
15788980 27 18408042896789565764
16945 1 18336267954507495096
17349148 13 17989489619195134338
17492 89 18268427923849699518
18681886 176 18413103975325723632
19784866 170 10159701308583765064
19784866 240 17988931075714446517
19862831 5 18261391113713270592
200 152 18202845443896907992
20645477 70 18342177778262407252
20871999 31 18336542733498140397
21033648 29 17894618275625358957
21267235 1 18411707573545781726
21637258 2 16988552563862198663
221357 26 18408879633860347261
221490 88 18337112392090147483
22393880 68 18261381218124497005
23402539 116 18341330007310047996
23522609 53 18196121960458945521
23557571 272 18130510747021813585
23559900 14 18264203776300688904
2748010 2 17615413992062592105
2871803 45 18261666052023991869
3004659 81 18187364312305136596
335352 9 18411697682642255349
350125 39 18336265648569174745
351380 180 18408321098769127406
463206 1 18270677700538258879
465052 167 18130510832989939663
5104073 3 18411697655975848129
7495541 125 17988638648581810658
9709674 26 18335701701708054451

>  <PUBCHEM_SHAPE_MULTIPOLES>  (1) 
461.59
10.64
2.2
1.11
1.65
0.45
0.13
-3.4
-2.54
-0.25
-0.13
-0.56
-0.17
-0.06

>  <PUBCHEM_SHAPE_SELFOVERLAP>  (1) 
994.612

>  <PUBCHEM_SHAPE_VOLUME>  (1) 
252.8

>  <PUBCHEM_COORDINATE_TYPE>  (1) 
2
5
10

$$$$
