9053
     RDKit          3D

 27 30  0  0  1  0  0  0  0  0999 V2000
    3.3580   -2.9671   -0.4343 F   0  0  0  0  0  0  0  0  0  0  0  0
   -0.0330    2.1717   -1.4771 O   0  0  0  0  0  0  0  0  0  0  0  0
   -5.4771   -0.2608   -0.2442 O   0  0  0  0  0  0  0  0  0  0  0  0
   -5.8814    2.2509    0.8178 O   0  0  0  0  0  0  0  0  0  0  0  0
    5.9631    0.5546    1.7684 O   0  0  0  0  0  0  0  0  0  0  0  0
   -2.0114    0.1628   -0.1835 C   0  0  0  0  0  0  0  0  0  0  0  0
   -1.0406   -0.9986    0.1075 C   0  0  0  0  0  0  0  0  0  0  0  0
    0.3344   -0.8227   -0.5511 C   0  0  0  0  0  0  0  0  0  0  0  0
    0.9907    0.4912    0.0032 C   0  0  0  0  0  0  0  0  0  0  0  0
   -3.2482   -0.3538    0.5916 C   0  0  0  0  0  0  0  0  0  0  0  0
   -1.8656   -2.2440   -0.2074 C   0  0  0  0  0  0  0  0  0  0  0  0
   -1.3916    1.4480    0.3939 C   0  0  0  0  0  0  0  0  0  0  0  0
   -3.2941   -1.8709    0.2599 C   0  0  0  0  0  0  0  0  0  0  0  0
    0.0355    1.7200   -0.1318 C   0  0  0  0  0  0  0  0  0  0  0  0
    2.4640    0.6950   -0.5328 C   0  0  0  0  0  0  0  0  0  0  0  0
    1.2241   -2.0452   -0.2759 C   0  0  0  0  0  0  0  0  0  0  0  0
   -2.3460    0.3386   -1.6878 C   0  0  0  0  0  0  0  0  0  0  0  0
    2.6434   -1.8602   -0.7925 C   0  0  0  0  0  0  0  0  0  0  0  0
    3.2431   -0.5935   -0.2351 C   0  0  0  0  0  0  0  0  0  0  0  0
   -4.5242    0.3489    0.2390 C   0  0  0  0  0  0  0  0  0  0  0  0
   -3.7372   -2.6956    1.4646 C   0  0  0  0  0  0  0  0  0  0  0  0
    2.5483    0.9674   -2.0518 C   0  0  0  0  0  0  0  0  0  0  0  0
    3.1031    1.8961    0.1488 C   0  0  0  0  0  0  0  0  0  0  0  0
    4.3622   -0.6292    0.5056 C   0  0  0  0  0  0  0  0  0  0  0  0
   -4.5669    1.8377    0.5104 C   0  0  0  0  0  0  0  0  0  0  0  0
    4.2157    1.8641    0.8885 C   0  0  0  0  0  0  0  0  0  0  0  0
    4.9317    0.5946    1.1061 C   0  0  0  0  0  0  0  0  0  0  0  0
  1 18  1  0
  2 14  1  0
  3 20  2  0
  4 25  1  0
  5 27  2  0
  6  7  1  0
  6 10  1  0
  6 12  1  0
  6 17  1  0
  7  8  1  0
  7 11  1  0
  8  9  1  0
  8 16  1  0
  9 14  1  0
  9 15  1  0
 10 13  1  0
 10 20  1  0
 11 13  1  0
 12 14  1  0
 13 21  1  0
 15 19  1  0
 15 22  1  0
 15 23  1  0
 16 18  1  0
 18 19  1  0
 19 24  2  0
 20 25  1  0
 23 26  2  0
 24 27  1  0
 26 27  1  0
M  END
>  <PUBCHEM_COMPOUND_CID>  (1) 
9053

>  <PUBCHEM_CONFORMER_RMSD>  (1) 
0.8

>  <PUBCHEM_CONFORMER_DIVERSEORDER>  (1) 
1
2

>  <PUBCHEM_MMFF94_PARTIAL_CHARGES>  (1) 
21
1 -0.34
10 0.06
14 0.28
15 0.28
18 0.48
19 -0.28
2 -0.68
20 0.45
23 -0.29
24 -0.14
25 0.34
26 -0.14
27 0.54
3 -0.57
4 -0.68
5 -0.57
50 0.15
51 0.4
52 0.15
55 0.15
56 0.4

>  <PUBCHEM_EFFECTIVE_ROTOR_COUNT>  (1) 
3.4

>  <PUBCHEM_PHARMACOPHORE_FEATURES>  (1) 
10
1 2 acceptor
1 2 donor
1 3 acceptor
1 4 acceptor
1 4 donor
1 5 acceptor
5 6 7 10 11 13 rings
6 15 19 23 24 26 27 rings
6 6 7 8 9 12 14 rings
6 8 9 15 16 18 19 rings

>  <PUBCHEM_HEAVY_ATOM_COUNT>  (1) 
27

>  <PUBCHEM_ATOM_DEF_STEREO_COUNT>  (1) 
9

>  <PUBCHEM_ATOM_UDEF_STEREO_COUNT>  (1) 
0

>  <PUBCHEM_BOND_DEF_STEREO_COUNT>  (1) 
0

>  <PUBCHEM_BOND_UDEF_STEREO_COUNT>  (1) 
0

>  <PUBCHEM_ISOTOPIC_ATOM_COUNT>  (1) 
0

>  <PUBCHEM_COMPONENT_COUNT>  (1) 
1

>  <PUBCHEM_CACTVS_TAUTO_COUNT>  (1) 
4

>  <PUBCHEM_CONFORMER_ID>  (1) 
0000235D00000001

>  <PUBCHEM_MMFF94_ENERGY>  (1) 
87.8487

>  <PUBCHEM_FEATURE_SELFOVERLAP>  (1) 
50.853

>  <PUBCHEM_SHAPE_FINGERPRINT>  (1) 
10906281 52 18115039588281001428
1100329 8 16751559059564696751
11112241 14 17416665020384934513
11405975 8 18187368748331152923
11961588 58 13038893465722639728
12035758 1 18187655682928825569
12236239 1 17418088810991993767
12403259 118 18338796822423769538
12403814 3 17676204689209397469
12422481 6 18335697230715807664
12633257 1 17603584161833531426
12788726 201 16845297085713959857
13140716 1 18408887304292460995
13224815 77 18338242660121291286
13583140 156 17703226333975615483
13675066 3 18409171025562986355
14178342 30 18337112362035873783
14223421 5 18411696552744063862
14341114 328 17968094257090426216
14790565 3 17977394059683356020
15196674 1 18411421742976412683
15238133 3 18410302384320969620
15375358 24 18343867731628475335
15788980 27 16732977652347019381
15840311 113 17985839134061313361
16945 1 18341618126696124316
17349148 13 18187081806093150262
17980427 23 18188485899833056900
1813 80 17095246908072203348
19141452 34 18334858324992587733
20511986 3 18059560365878244617
20691752 17 17313105267233918979
20715895 44 18339079264285567233
21033648 29 17988347261511418032
21304253 335 18340212899291158669
21421861 104 17969212357437289338
21452121 103 18343017766327779098
21756936 100 17556285496229128256
21859007 373 17606387762309247685
22182313 1 18042957679826686548
23503953 91 18260271849589026477
23559900 14 18337403634160684294
335352 9 18339085865228087495
34797466 226 16773801407059201237
34934 24 18272084998249173887
350125 39 18339365171884344012
3633792 109 18338785716667380253
3680242 22 18188771639174144338
392239 28 17845653801799248730
394222 165 17099480204545119500
4340502 62 18202563977404714888
460360 51 18267888153934105329
495365 180 17703785881982635150
5104073 3 18335703866165935019
59755656 215 18341616984614709662
7064713 232 18411136965349160564
9709674 26 18340774758075018791

>  <PUBCHEM_SHAPE_MULTIPOLES>  (1) 
524.9
11.39
2.82
1.31
1.62
0.9
-0.24
-2.62
4.81
1.03
0.19
-0.73
-0.22
0.67

>  <PUBCHEM_SHAPE_SELFOVERLAP>  (1) 
1131.509

>  <PUBCHEM_SHAPE_VOLUME>  (1) 
290.4

>  <PUBCHEM_COORDINATE_TYPE>  (1) 
2
5
10

$$$$
