9056
     RDKit          3D

 22 26  0  0  0  0  0  0  0  0999 V2000
   -2.8597   -0.2745   -0.0674 C   0  0  0  0  0  0  0  0  0  0  0  0
   -3.5158   -1.6395   -0.1778 C   0  0  0  0  0  0  0  0  0  0  0  0
   -1.4352   -0.1552   -0.0513 C   0  0  0  0  0  0  0  0  0  0  0  0
   -3.6638    0.8775    0.0751 C   0  0  0  0  0  0  0  0  0  0  0  0
   -5.0104   -1.6039   -0.4923 C   0  0  0  0  0  0  0  0  0  0  0  0
   -5.1718    0.8135    0.0754 C   0  0  0  0  0  0  0  0  0  0  0  0
   -5.7144   -0.5779    0.3787 C   0  0  0  0  0  0  0  0  0  0  0  0
    0.8431   -1.0981   -0.1069 C   0  0  0  0  0  0  0  0  0  0  0  0
   -0.8519    1.1287    0.0548 C   0  0  0  0  0  0  0  0  0  0  0  0
    1.4215    0.1828   -0.0376 C   0  0  0  0  0  0  0  0  0  0  0  0
    1.7318   -2.3142   -0.2199 C   0  0  0  0  0  0  0  0  0  0  0  0
   -0.5532   -1.2548   -0.1289 C   0  0  0  0  0  0  0  0  0  0  0  0
    3.0299   -2.1324    0.5671 C   0  0  0  0  0  0  0  0  0  0  0  0
    0.5492    1.2788    0.0572 C   0  0  0  0  0  0  0  0  0  0  0  0
    2.8992    0.3160   -0.0478 C   0  0  0  0  0  0  0  0  0  0  0  0
   -3.0590    2.1343    0.1717 C   0  0  0  0  0  0  0  0  0  0  0  0
    3.6961   -0.8196    0.2320 C   0  0  0  0  0  0  0  0  0  0  0  0
   -1.6733    2.2571    0.1601 C   0  0  0  0  0  0  0  0  0  0  0  0
    3.5616    1.5214   -0.3399 C   0  0  0  0  0  0  0  0  0  0  0  0
    5.0956   -0.7261    0.2556 C   0  0  0  0  0  0  0  0  0  0  0  0
    4.9573    1.6034   -0.3299 C   0  0  0  0  0  0  0  0  0  0  0  0
    5.7230    0.4828   -0.0281 C   0  0  0  0  0  0  0  0  0  0  0  0
  1  2  1  0
  1  3  1  0
  1  4  2  0
  2  5  1  0
  3  9  2  0
  3 12  1  0
  4  6  1  0
  4 16  1  0
  5  7  1  0
  6  7  1  0
  8 10  1  0
  8 11  1  0
  8 12  2  0
  9 14  1  0
  9 18  1  0
 10 14  2  0
 10 15  1  0
 11 13  1  0
 13 17  1  0
 15 17  2  0
 15 19  1  0
 16 18  2  0
 17 20  1  0
 19 21  2  0
 20 22  2  0
 21 22  1  0
M  END
>  <PUBCHEM_COMPOUND_CID>  (1) 
9056

>  <PUBCHEM_CONFORMER_RMSD>  (1) 
0.6

>  <PUBCHEM_CONFORMER_DIVERSEORDER>  (1) 
1

>  <PUBCHEM_MMFF94_PARTIAL_CHARGES>  (1) 
24
1 -0.14
11 0.14
12 -0.15
13 0.14
14 -0.15
16 -0.15
17 -0.14
18 -0.15
19 -0.15
2 0.14
20 -0.15
21 -0.15
22 -0.15
33 0.15
36 0.15
37 0.15
38 0.15
39 0.15
4 -0.14
40 0.15
41 0.15
42 0.15
6 0.14
8 -0.14

>  <PUBCHEM_EFFECTIVE_ROTOR_COUNT>  (1) 
1.2

>  <PUBCHEM_PHARMACOPHORE_FEATURES>  (1) 
5
6 1 2 4 5 6 7 rings
6 1 3 4 9 16 18 rings
6 15 17 19 20 21 22 rings
6 3 8 9 10 12 14 rings
6 8 10 11 13 15 17 rings

>  <PUBCHEM_HEAVY_ATOM_COUNT>  (1) 
22

>  <PUBCHEM_ATOM_DEF_STEREO_COUNT>  (1) 
0

>  <PUBCHEM_ATOM_UDEF_STEREO_COUNT>  (1) 
0

>  <PUBCHEM_BOND_DEF_STEREO_COUNT>  (1) 
0

>  <PUBCHEM_BOND_UDEF_STEREO_COUNT>  (1) 
0

>  <PUBCHEM_ISOTOPIC_ATOM_COUNT>  (1) 
0

>  <PUBCHEM_COMPONENT_COUNT>  (1) 
1

>  <PUBCHEM_CACTVS_TAUTO_COUNT>  (1) 
1

>  <PUBCHEM_CONFORMER_ID>  (1) 
0000236000000001

>  <PUBCHEM_MMFF94_ENERGY>  (1) 
63.8892

>  <PUBCHEM_FEATURE_SELFOVERLAP>  (1) 
25.462

>  <PUBCHEM_SHAPE_FINGERPRINT>  (1) 
10 15 18338507647663052176
10090160 65 18187080680495597342
10595046 47 18410011048088225968
10616163 171 18412545409553242895
10906281 52 18337691779168435475
11488393 25 17273436992623294150
11578080 2 17242437331513204223
11963148 33 18339072800112704943
12107183 9 17689152314198375800
12166972 35 17894915152465615204
12236239 1 18259703397792964028
12403259 415 18130497596064432560
12788726 201 17417255321212440177
13140716 1 18123189279496774187
13167823 11 18410009909964278970
13224815 77 18411703157823379822
13533116 47 17095795526173484306
13862211 1 18411978096013126175
14341114 176 18409172086372416207
14341114 328 18412546496142733691
14528608 73 18410294735400375196
14787075 74 18408884061681368683
14790565 3 18340491156994434012
15196674 1 18410855438658600078
15788980 27 17022902337330948199
15927050 60 17406272612578427804
17349148 13 18040718069119455216
17492 89 18267021656919956906
17834072 33 18409448089576499086
17844677 252 18268719324489900162
17857418 61 18410289207624510275
1813 80 17240490173645421535
18681886 176 18412822500285865504
19489759 90 14562524077145955029
19591789 44 18196933481422128257
200 152 18413668019778471513
20511986 3 18335405868687334821
21033648 29 13190621714784487412
21065198 48 18337108969048652890
21236236 1 18413389826457715233
21267235 1 18410863139841189766
21421861 104 18042963164473718699
21709351 56 18333446530424423508
23402539 116 18410851079588600255
23522609 53 18125752134229072137
23559900 14 18054504699560536254
239999 70 18272094872975216638
245318 6 17243879045093734964
3004659 81 18334858303776214100
335352 9 18411136926514977284
34797466 226 17274830194093300364
34934 24 18411134710950168615
350125 39 18411418418893486056
3545911 37 18409168800769933564
4073 2 17968103052703875074
4214541 1 18410292471668072173
4325135 7 18410292514680698127
4340502 62 17167581600620876714
474 4 17894356600843255252
474229 33 18411982476742579071
5104073 3 18338797810260954176
5283173 99 17968928687764114181
5312544 6 18262522623185349956
5486654 2 18411422855473260270
59755656 215 18412270515073046062
67856867 119 18334859475717438380
7495541 125 17989483052295660176
9709674 26 18337398149271110634

>  <PUBCHEM_SHAPE_MULTIPOLES>  (1) 
452.75
12.75
2.38
0.67
0.25
0.06
0
0.05
0.12
0.11
0
-0.01
0.04
-0.69

>  <PUBCHEM_SHAPE_SELFOVERLAP>  (1) 
1023.056

>  <PUBCHEM_SHAPE_VOLUME>  (1) 
220.2

>  <PUBCHEM_COORDINATE_TYPE>  (1) 
2
5
10

$$$$
