9057
     RDKit          3D

 22 26  0  0  0  0  0  0  0  0999 V2000
   -0.8483   -1.1065   -0.1180 C   0  0  0  0  0  0  0  0  0  0  0  0
   -1.7443   -2.3148   -0.2553 C   0  0  0  0  0  0  0  0  0  0  0  0
   -1.4182    0.1760   -0.0328 C   0  0  0  0  0  0  0  0  0  0  0  0
   -3.0455   -2.1370    0.5273 C   0  0  0  0  0  0  0  0  0  0  0  0
   -2.8947    0.3200   -0.0469 C   0  0  0  0  0  0  0  0  0  0  0  0
   -3.7010   -0.8142    0.2109 C   0  0  0  0  0  0  0  0  0  0  0  0
    1.4437   -0.1829   -0.0339 C   0  0  0  0  0  0  0  0  0  0  0  0
    0.5479   -1.2723   -0.1348 C   0  0  0  0  0  0  0  0  0  0  0  0
    0.8626    1.1023    0.0783 C   0  0  0  0  0  0  0  0  0  0  0  0
   -0.5378    1.2627    0.0778 C   0  0  0  0  0  0  0  0  0  0  0  0
    2.8787   -0.3117   -0.0370 C   0  0  0  0  0  0  0  0  0  0  0  0
   -3.5475    1.5347   -0.3215 C   0  0  0  0  0  0  0  0  0  0  0  0
   -5.0998   -0.7110    0.2307 C   0  0  0  0  0  0  0  0  0  0  0  0
    3.6783    0.8551    0.0755 C   0  0  0  0  0  0  0  0  0  0  0  0
    1.6840    2.2281    0.1888 C   0  0  0  0  0  0  0  0  0  0  0  0
    3.0697    2.1071    0.1874 C   0  0  0  0  0  0  0  0  0  0  0  0
   -4.9427    1.6265   -0.3154 C   0  0  0  0  0  0  0  0  0  0  0  0
    3.5680   -1.5459   -0.1458 C   0  0  0  0  0  0  0  0  0  0  0  0
   -5.7175    0.5068   -0.0353 C   0  0  0  0  0  0  0  0  0  0  0  0
    5.0808    0.7649    0.0763 C   0  0  0  0  0  0  0  0  0  0  0  0
    4.9635   -1.6220   -0.1438 C   0  0  0  0  0  0  0  0  0  0  0  0
    5.7201   -0.4659   -0.0327 C   0  0  0  0  0  0  0  0  0  0  0  0
  1  2  1  0
  1  3  2  0
  1  8  1  0
  2  4  1  0
  3  5  1  0
  3 10  1  0
  4  6  1  0
  5  6  2  0
  5 12  1  0
  6 13  1  0
  7  8  2  0
  7  9  1  0
  7 11  1  0
  9 10  2  0
  9 15  1  0
 11 14  2  0
 11 18  1  0
 12 17  2  0
 13 19  2  0
 14 16  1  0
 14 20  1  0
 15 16  2  0
 17 19  1  0
 18 21  2  0
 20 22  2  0
 21 22  1  0
M  END
>  <PUBCHEM_COMPOUND_CID>  (1) 
9057

>  <PUBCHEM_CONFORMER_RMSD>  (1) 
0.6

>  <PUBCHEM_CONFORMER_DIVERSEORDER>  (1) 
1

>  <PUBCHEM_MMFF94_PARTIAL_CHARGES>  (1) 
28
1 -0.14
10 -0.15
12 -0.15
13 -0.15
15 -0.15
16 -0.15
17 -0.15
18 -0.15
19 -0.15
2 0.14
20 -0.15
21 -0.15
22 -0.15
27 0.15
28 0.15
29 0.15
30 0.15
31 0.15
32 0.15
33 0.15
34 0.15
35 0.15
36 0.15
37 0.15
38 0.15
4 0.14
6 -0.14
8 -0.15

>  <PUBCHEM_EFFECTIVE_ROTOR_COUNT>  (1) 
0.4

>  <PUBCHEM_PHARMACOPHORE_FEATURES>  (1) 
5
6 1 2 3 4 5 6 rings
6 1 3 7 8 9 10 rings
6 11 14 18 20 21 22 rings
6 5 6 12 13 17 19 rings
6 7 9 11 14 15 16 rings

>  <PUBCHEM_HEAVY_ATOM_COUNT>  (1) 
22

>  <PUBCHEM_ATOM_DEF_STEREO_COUNT>  (1) 
0

>  <PUBCHEM_ATOM_UDEF_STEREO_COUNT>  (1) 
0

>  <PUBCHEM_BOND_DEF_STEREO_COUNT>  (1) 
0

>  <PUBCHEM_BOND_UDEF_STEREO_COUNT>  (1) 
0

>  <PUBCHEM_ISOTOPIC_ATOM_COUNT>  (1) 
0

>  <PUBCHEM_COMPONENT_COUNT>  (1) 
1

>  <PUBCHEM_CACTVS_TAUTO_COUNT>  (1) 
1

>  <PUBCHEM_CONFORMER_ID>  (1) 
0000236100000001

>  <PUBCHEM_MMFF94_ENERGY>  (1) 
75.4297

>  <PUBCHEM_FEATURE_SELFOVERLAP>  (1) 
25.466

>  <PUBCHEM_SHAPE_FINGERPRINT>  (1) 
10 15 18337101372074874728
10906281 52 18200894888694209028
11405975 8 18409729590301921344
11578080 2 16986854973126289650
12107183 9 17688869739694200152
12236239 1 18410575080373386376
12403259 226 18268706281059500121
12403259 415 18334005082394961765
12788726 201 17703520912724025456
13140716 1 18339923813247024202
13402501 40 18410573959471344349
13533116 47 17417812795188105254
13862211 1 18412259510760100382
14341114 176 18409736170265872961
14790565 3 18410297964825904608
14866123 147 17407126456846203914
15042514 8 18191873538440658379
15099037 51 18411981342971277335
15183329 4 18410293588211538281
15196674 1 18410855481602998279
15256400 18 18410575080521397765
15788980 27 18260269654739198089
1601671 61 18410855456281652428
16087824 20 18266462005754821413
17349148 13 17703794716735624849
17492 89 18192151726991882059
17844677 252 18409455794901257137
1813 80 16950561099458286300
19141452 34 18412261765586236951
200 152 17917990577269701985
20645477 70 18271810090599374830
21033648 29 18188192248387087637
21065198 57 18338236080083499345
21133410 127 17753600540971609357
21267235 1 18410582794129648115
21279426 13 18266459797829355943
21421861 104 17823403930223869682
21682296 61 18129670673131390974
21859007 373 17970604347199914101
221357 26 18411976953810457229
221490 88 18264495155603391866
2215653 11 18343018874065247390
23402539 116 18273208699385838853
23559900 14 18341609343440739080
3004659 81 18261114046227521974
335352 9 18411136913635311156
34934 24 18412257355282434770
350125 39 18410014329691556261
351380 180 18411981368973079173
3545911 37 18411983572054068096
3680242 22 18262233305687956538
4015057 19 18269545195594031537
4073 2 18041002894719458914
4214541 1 18410012143584552241
460360 51 18195834914665961066
495365 180 17417800790664472232
5104073 3 18410856598299770920
542803 24 17313106358345172084
559249 180 18336260163320775522
59755656 215 18336828597825991279
6138700 20 18337955563359846926
6328613 192 18334584563830427780
633830 44 17386284410450483456
77779 3 18337110163002094712
9709674 26 18263928919683789803
9995097 60 18413106186548182744
9996256 80 18341050800508943543

>  <PUBCHEM_SHAPE_MULTIPOLES>  (1) 
452.75
12.72
2.35
0.65
0
0.07
0
-0.08
0.09
-0.03
-0.03
-0.08
0.02
0.58

>  <PUBCHEM_SHAPE_SELFOVERLAP>  (1) 
1040.055

>  <PUBCHEM_SHAPE_VOLUME>  (1) 
213.9

>  <PUBCHEM_COORDINATE_TYPE>  (1) 
2
5
10

$$$$
