9062
     RDKit          3D

 11 11  0  0  1  0  0  0  0  0999 V2000
    0.8277    0.9858   -0.5863 O   0  0  0  0  0  0  0  0  0  0  0  0
   -0.2993   -2.2874    0.6663 O   0  0  0  0  0  0  0  0  0  0  0  0
   -2.7410   -1.0881   -0.2878 O   0  0  0  0  0  0  0  0  0  0  0  0
   -0.2489    2.3081    1.0671 O   0  0  0  0  0  0  0  0  0  0  0  0
    3.2754   -0.0989   -0.0078 O   0  0  0  0  0  0  0  0  0  0  0  0
   -0.3416   -1.1048   -0.1285 C   0  0  0  0  0  0  0  0  0  0  0  0
   -1.6251   -0.3330    0.1791 C   0  0  0  0  0  0  0  0  0  0  0  0
    0.8960   -0.2417    0.1441 C   0  0  0  0  0  0  0  0  0  0  0  0
   -1.6115    1.0284   -0.5135 C   0  0  0  0  0  0  0  0  0  0  0  0
   -0.3104    1.7845   -0.2563 C   0  0  0  0  0  0  0  0  0  0  0  0
    2.1787   -0.9528   -0.2763 C   0  0  0  0  0  0  0  0  0  0  0  0
  1  8  1  0
  1 10  1  0
  2  6  1  0
  3  7  1  0
  4 10  1  0
  5 11  1  0
  6  7  1  0
  6  8  1  0
  7  9  1  0
  8 11  1  0
  9 10  1  0
M  END
>  <PUBCHEM_COMPOUND_CID>  (1) 
9062

>  <PUBCHEM_CONFORMER_RMSD>  (1) 
0.6

>  <PUBCHEM_CONFORMER_DIVERSEORDER>  (1) 
1
4
3
6
5
2

>  <PUBCHEM_MMFF94_PARTIAL_CHARGES>  (1) 
14
1 -0.56
10 0.56
11 0.28
2 -0.68
20 0.4
21 0.4
22 0.4
23 0.4
3 -0.68
4 -0.68
5 -0.68
6 0.28
7 0.28
8 0.28

>  <PUBCHEM_EFFECTIVE_ROTOR_COUNT>  (1) 
2.2

>  <PUBCHEM_PHARMACOPHORE_FEATURES>  (1) 
10
1 1 acceptor
1 2 acceptor
1 2 donor
1 3 acceptor
1 3 donor
1 4 acceptor
1 4 donor
1 5 acceptor
1 5 donor
6 1 6 7 8 9 10 rings

>  <PUBCHEM_HEAVY_ATOM_COUNT>  (1) 
11

>  <PUBCHEM_ATOM_DEF_STEREO_COUNT>  (1) 
4

>  <PUBCHEM_ATOM_UDEF_STEREO_COUNT>  (1) 
0

>  <PUBCHEM_BOND_DEF_STEREO_COUNT>  (1) 
0

>  <PUBCHEM_BOND_UDEF_STEREO_COUNT>  (1) 
0

>  <PUBCHEM_ISOTOPIC_ATOM_COUNT>  (1) 
0

>  <PUBCHEM_COMPONENT_COUNT>  (1) 
1

>  <PUBCHEM_CACTVS_TAUTO_COUNT>  (1) 
1

>  <PUBCHEM_CONFORMER_ID>  (1) 
0000236600000001

>  <PUBCHEM_MMFF94_ENERGY>  (1) 
21.8212

>  <PUBCHEM_FEATURE_SELFOVERLAP>  (1) 
50.795

>  <PUBCHEM_SHAPE_FINGERPRINT>  (1) 
12423570 1 17389939294602234333
13024252 1 13045954481671574492
14128692 85 18335424603076327764
16945 1 18187090597527364326
18185500 45 18191866725888556703
193761 8 17616536597766383159
23552423 10 18043817476692859022
241688 4 18410289233373312633
2748010 2 18336820978765030629
5084963 1 18342175578796091843
66348 1 17760649165880371127

>  <PUBCHEM_SHAPE_MULTIPOLES>  (1) 
197.03
3.16
2.19
0.77
1.82
0.23
0.07
-0.63
-0.37
-0.71
0.47
-0.08
0.17
-0.05

>  <PUBCHEM_SHAPE_SELFOVERLAP>  (1) 
388.768

>  <PUBCHEM_SHAPE_VOLUME>  (1) 
115.8

>  <PUBCHEM_COORDINATE_TYPE>  (1) 
2
5
10

$$$$
