9063
     RDKit          3D

 27 28  0  0  1  0  0  0  0  0999 V2000
    2.2908    3.0597   -1.6294 S   0  0  0  0  0  0  0  0  0  0  0  0
    1.9209    0.6011   -0.6159 O   0  0  0  0  0  0  0  0  0  0  0  0
    3.1730   -1.4007    2.1979 O   0  0  0  0  0  0  0  0  0  0  0  0
    3.1272    1.3425    2.6133 O   0  0  0  0  0  0  0  0  0  0  0  0
    4.7094    1.3872   -0.6713 O   0  0  0  0  0  0  0  0  0  0  0  0
    2.3142   -1.3430   -2.2540 O   0  0  0  0  0  0  0  0  0  0  0  0
   -1.1565   -1.7425    1.5249 O   0  0  0  0  0  0  0  0  0  0  0  0
   -3.5296   -1.8783    0.3343 N   0  0  0  0  0  0  0  0  0  0  0  0
   -0.0806   -1.4048   -0.5116 N   0  0  0  0  0  0  0  0  0  0  0  0
   -4.0639    0.3649    0.5339 C   0  0  0  0  0  0  0  0  0  0  0  0
   -2.4584   -1.1871   -0.3927 C   0  0  0  0  0  0  0  0  0  0  0  0
   -2.8036    0.3022   -0.3269 C   0  0  0  0  0  0  0  0  0  0  0  0
   -4.6988   -0.9974    0.2925 C   0  0  0  0  0  0  0  0  0  0  0  0
    1.8510   -0.3192    0.4788 C   0  0  0  0  0  0  0  0  0  0  0  0
    1.2742   -1.6254   -0.0581 C   0  0  0  0  0  0  0  0  0  0  0  0
    3.2463   -0.5210    1.0823 C   0  0  0  0  0  0  0  0  0  0  0  0
   -4.9789    1.5263    0.1850 C   0  0  0  0  0  0  0  0  0  0  0  0
    3.8606    0.8195    1.5061 C   0  0  0  0  0  0  0  0  0  0  0  0
   -1.1807   -1.4834    0.3245 C   0  0  0  0  0  0  0  0  0  0  0  0
    3.8069    1.8206    0.3459 C   0  0  0  0  0  0  0  0  0  0  0  0
    2.1521   -2.2442   -1.1617 C   0  0  0  0  0  0  0  0  0  0  0  0
    2.3789    1.8983   -0.2225 C   0  0  0  0  0  0  0  0  0  0  0  0
   -3.8193   -3.2031   -0.1975 C   0  0  0  0  0  0  0  0  0  0  0  0
   -4.2611    2.8676    0.3251 C   0  0  0  0  0  0  0  0  0  0  0  0
    1.5785   -3.5464   -1.7093 C   0  0  0  0  0  0  0  0  0  0  0  0
   -5.1852    4.0312    0.0036 C   0  0  0  0  0  0  0  0  0  0  0  0
    0.5326    2.8755   -1.9972 C   0  0  0  0  0  0  0  0  0  0  0  0
  1 22  1  0
  1 27  1  0
  2 14  1  0
  2 22  1  0
  3 16  1  0
  4 18  1  0
  5 20  1  0
  6 21  1  0
  7 19  2  0
  8 11  1  0
  8 13  1  0
  8 23  1  0
  9 15  1  0
  9 19  1  0
 10 12  1  0
 10 13  1  0
 10 17  1  0
 11 12  1  0
 11 19  1  0
 14 15  1  0
 14 16  1  0
 15 21  1  0
 16 18  1  0
 17 24  1  0
 18 20  1  0
 20 22  1  0
 21 25  1  0
 24 26  1  0
M  END
>  <PUBCHEM_COMPOUND_CID>  (1) 
9063

>  <PUBCHEM_CONFORMER_RMSD>  (1) 
1

>  <PUBCHEM_CONFORMER_DIVERSEORDER>  (1) 
1
143
44
40
48
227
146
30
53
110
235
177
168
224
251
125
141
140
212
194
70
131
191
35
107
102
50
254
225
169
91
173
69
65
99
122
231
23
260
127
113
60
97
136
183
208
161
210
128
26
138
154
51
200
89
230
139
41
52
58
214
205
15
117
163
39
162
190
253
151
95
93
5
10
246
188
118
152
85
121
237
166
181
198
62
4
153
175
104
156
111
217
124
96
220
33
74
47
42
234
56
180
262
9
192
160
196
240
211
27
13
101
17
164
76
249
150
18
171
29
119
195
248
87
174
63
61
157
137
182
258
31
147
223
129
114
159
185
11
120
221
232
142
172
165
245
233
218
36
209
16
81
176
123
116
55
145
67
167
130
229
77
73
179
257
170
199
213
132
8
255
184
49
259
133
250
105
103
201
28
186
54
83
92
86
134
88
239
252
72
57
197
106
90
206
12
158
193
108
228
115
25
109
202
46
261
204
144
75
98
242
45
68
82
236
135
38
94
71
226
148
78
247
238
19
66
79
189
21
126
80
244
112
43
178
100
187
6
22
2
222
7
155
84
215
3
203
149
34
24
64
32
14
219
20
216
243
59
241
263
207
37
256

>  <PUBCHEM_MMFF94_PARTIAL_CHARGES>  (1) 
26
1 -0.46
11 0.33
13 0.27
14 0.28
15 0.3
16 0.28
18 0.28
19 0.57
2 -0.56
20 0.28
21 0.28
22 0.51
23 0.27
27 0.23
3 -0.68
4 -0.68
41 0.37
5 -0.68
52 0.4
53 0.4
57 0.4
58 0.4
6 -0.68
7 -0.57
8 -0.81
9 -0.73

>  <PUBCHEM_EFFECTIVE_ROTOR_COUNT>  (1) 
10.2

>  <PUBCHEM_PHARMACOPHORE_FEATURES>  (1) 
16
1 2 acceptor
1 26 hydrophobe
1 27 hydrophobe
1 3 acceptor
1 3 donor
1 4 acceptor
1 4 donor
1 5 acceptor
1 5 donor
1 6 acceptor
1 6 donor
1 7 acceptor
1 8 cation
1 9 donor
5 8 10 11 12 13 rings
6 2 14 16 18 20 22 rings

>  <PUBCHEM_HEAVY_ATOM_COUNT>  (1) 
27

>  <PUBCHEM_ATOM_DEF_STEREO_COUNT>  (1) 
7

>  <PUBCHEM_ATOM_UDEF_STEREO_COUNT>  (1) 
2

>  <PUBCHEM_BOND_DEF_STEREO_COUNT>  (1) 
0

>  <PUBCHEM_BOND_UDEF_STEREO_COUNT>  (1) 
0

>  <PUBCHEM_ISOTOPIC_ATOM_COUNT>  (1) 
0

>  <PUBCHEM_COMPONENT_COUNT>  (1) 
1

>  <PUBCHEM_CACTVS_TAUTO_COUNT>  (1) 
2

>  <PUBCHEM_CONFORMER_ID>  (1) 
0000236700000001

>  <PUBCHEM_MMFF94_ENERGY>  (1) 
60.3051

>  <PUBCHEM_FEATURE_SELFOVERLAP>  (1) 
81.225

>  <PUBCHEM_SHAPE_FINGERPRINT>  (1) 
10670039 82 18339932639616307980
10764073 3 17980736283089427234
11513181 2 18058168337123987029
12107183 9 18118389649349124667
12422481 6 18338781326735777432
12633257 1 17531794874634609112
12788726 201 18192992841045580411
12978246 48 18336551530230187409
13583140 156 17314777723304611111
13965767 371 18197755839453846050
14178342 30 18409164433200001007
14251764 38 18335423478354396473
14790565 3 18117285967888924212
15210252 30 17752796561419994316
1601671 61 18335421305248514476
17093844 170 18338803291040643580
19078846 21 18040721320552051807
20715895 44 18122898742820226705
21033648 29 17987788760970308384
21864079 5 18261683644378782841
23419403 2 17412163375732905278
235170 7 14979950359659860953
23558518 356 18334580165910497411
23559900 14 17915741985607442783
38570 142 17243875755338488692
474 4 18260829353661066563
484985 159 15438976526996450792
5895379 119 18409172125059147169
6287921 2 18340781406927083991
6823239 73 18340782446203460228
7064713 232 18410284800957137193
7808743 9 17696185194882541352

>  <PUBCHEM_SHAPE_MULTIPOLES>  (1) 
514.32
10.57
4.65
1.82
9.52
1.36
-0.15
5.97
-2.55
2.89
1.96
-2.6
0.06
0.09

>  <PUBCHEM_SHAPE_SELFOVERLAP>  (1) 
1023.334

>  <PUBCHEM_SHAPE_VOLUME>  (1) 
308.5

>  <PUBCHEM_COORDINATE_TYPE>  (1) 
2
5
10

$$$$
