907
     RDKit          3D

 12 11  0  0  1  0  0  0  0  0999 V2000
   -0.6478    2.0185    1.3405 O   0  0  0  0  0  0  0  0  0  0  0  0
    0.3594    2.9276   -0.4756 O   0  0  0  0  0  0  0  0  0  0  0  0
   -2.4977   -1.3413   -1.2144 O   0  0  0  0  0  0  0  0  0  0  0  0
   -1.2210   -0.1892    0.3511 N   0  0  0  0  0  0  0  0  0  0  0  0
    3.9333   -1.4841    0.7237 N   0  0  0  0  0  0  0  0  0  0  0  0
    0.8389   -0.0654   -1.0253 C   0  0  0  0  0  0  0  0  0  0  0  0
   -0.4603    0.6304   -0.5914 C   0  0  0  0  0  0  0  0  0  0  0  0
    1.7965   -0.4052    0.1280 C   0  0  0  0  0  0  0  0  0  0  0  0
    3.0424   -1.1456   -0.3522 C   0  0  0  0  0  0  0  0  0  0  0  0
   -0.1937    1.9757    0.0598 C   0  0  0  0  0  0  0  0  0  0  0  0
   -2.1689   -1.0981   -0.0563 C   0  0  0  0  0  0  0  0  0  0  0  0
   -2.7810   -1.8233    1.1121 C   0  0  0  0  0  0  0  0  0  0  0  0
  1 10  1  0
  2 10  2  0
  3 11  2  0
  4  7  1  0
  4 11  1  0
  5  9  1  0
  6  7  1  0
  6  8  1  0
  7 10  1  0
  8  9  1  0
 11 12  1  0
M  END
>  <PUBCHEM_COMPOUND_CID>  (1) 
907

>  <PUBCHEM_CONFORMER_RMSD>  (1) 
0.6

>  <PUBCHEM_CONFORMER_DIVERSEORDER>  (1) 
1
118
92
103
136
30
114
81
25
129
31
111
127
38
124
56
36
101
79
133
130
60
131
68
134
72
126
137
106
100
90
74
108
42
121
132
87
138
9
120
37
39
107
80
86
135
112
93
110
18
54
125
128
59
14
95
77
17
23
116
119
29
104
65
122
76
123
102
16
91
113
40
27
63
53
70
98
34
78
109
57
50
94
117
13
115
52
61
8
46
105
66
84
51
62
85
88
83
82
89
21
3
45
97
44
64
41
96
75
35
55
19
11
22
67
58
33
43
71
49
26
73
28
99
6
48
2
7
12
69
10
20
4
24
32
47
5
15

>  <PUBCHEM_MMFF94_PARTIAL_CHARGES>  (1) 
14
1 -0.65
10 0.66
11 0.57
12 0.06
2 -0.57
20 0.37
21 0.36
22 0.36
26 0.5
3 -0.57
4 -0.73
5 -0.99
7 0.36
9 0.27

>  <PUBCHEM_EFFECTIVE_ROTOR_COUNT>  (1) 
6

>  <PUBCHEM_PHARMACOPHORE_FEATURES>  (1) 
7
1 1 acceptor
1 2 acceptor
1 3 acceptor
1 4 donor
1 5 cation
1 5 donor
3 1 2 10 anion

>  <PUBCHEM_HEAVY_ATOM_COUNT>  (1) 
12

>  <PUBCHEM_ATOM_DEF_STEREO_COUNT>  (1) 
0

>  <PUBCHEM_ATOM_UDEF_STEREO_COUNT>  (1) 
1

>  <PUBCHEM_BOND_DEF_STEREO_COUNT>  (1) 
0

>  <PUBCHEM_BOND_UDEF_STEREO_COUNT>  (1) 
0

>  <PUBCHEM_ISOTOPIC_ATOM_COUNT>  (1) 
0

>  <PUBCHEM_COMPONENT_COUNT>  (1) 
1

>  <PUBCHEM_CACTVS_TAUTO_COUNT>  (1) 
2

>  <PUBCHEM_CONFORMER_ID>  (1) 
0000038B00000001

>  <PUBCHEM_MMFF94_ENERGY>  (1) 
9.8675

>  <PUBCHEM_FEATURE_SELFOVERLAP>  (1) 
35.581

>  <PUBCHEM_SHAPE_FINGERPRINT>  (1) 
1 1 17617381027017901885
11357001 24 18192713345568199490
17841504 4 18192722352273063075
18186145 218 7997701925596834794
20645477 70 17975969088440045239
20671657 53 17385442124730823190
20711985 344 18192694679429321577
20871998 184 18199475363332305862
21061003 4 18412546543466742019
23500284 5 18260836951284413010
23526113 38 17970605571481240863
3086196 2 18338508639167312386
528862 383 17980762958450618796
81228 2 18268437823532278744

>  <PUBCHEM_SHAPE_MULTIPOLES>  (1) 
219.38
4.67
2.67
1.11
2.82
2.04
0.03
-4.93
0.8
-0.19
0.45
-0.37
-0.08
-0.24

>  <PUBCHEM_SHAPE_SELFOVERLAP>  (1) 
413.16

>  <PUBCHEM_SHAPE_VOLUME>  (1) 
135.5

>  <PUBCHEM_COORDINATE_TYPE>  (1) 
2
5
10

$$$$
