9070
     RDKit          3D

 12 12  0  0  0  0  0  0  0  0999 V2000
    3.7773    0.2153   -0.1583 N   0  0  0  0  0  0  0  0  0  0  0  0
    4.6043    0.3563    0.9959 N   0  0  0  0  0  0  0  0  0  0  0  0
   -0.0058    0.1210   -0.5022 C   0  0  0  0  0  0  0  0  0  0  0  0
    1.4291    0.0708   -0.9142 C   0  0  0  0  0  0  0  0  0  0  0  0
   -0.6883   -1.0394   -0.1368 C   0  0  0  0  0  0  0  0  0  0  0  0
    2.3839    0.2432    0.2730 C   0  0  0  0  0  0  0  0  0  0  0  0
   -0.6628    1.3512   -0.4855 C   0  0  0  0  0  0  0  0  0  0  0  0
   -2.0281   -0.9695    0.2453 C   0  0  0  0  0  0  0  0  0  0  0  0
   -2.6851    0.2609    0.2618 C   0  0  0  0  0  0  0  0  0  0  0  0
   -2.0024    1.4212   -0.1036 C   0  0  0  0  0  0  0  0  0  0  0  0
   -0.0045   -2.3674   -0.1452 C   0  0  0  0  0  0  0  0  0  0  0  0
   -4.1175    0.3363    0.6698 C   0  0  0  0  0  0  0  0  0  0  0  0
  1  2  1  0
  1  6  1  0
  3  4  1  0
  3  5  2  0
  3  7  1  0
  4  6  1  0
  5  8  1  0
  5 11  1  0
  7 10  2  0
  8  9  2  0
  9 10  1  0
  9 12  1  0
M  END
>  <PUBCHEM_COMPOUND_CID>  (1) 
9070

>  <PUBCHEM_CONFORMER_RMSD>  (1) 
0.6

>  <PUBCHEM_CONFORMER_DIVERSEORDER>  (1) 
2
8
4
9
5
7
6
1
3

>  <PUBCHEM_MMFF94_PARTIAL_CHARGES>  (1) 
18
1 -0.63
10 -0.15
11 0.14
12 0.14
17 0.15
18 0.15
19 0.15
2 -0.72
26 0.36
27 0.36
28 0.36
3 -0.14
4 0.14
5 -0.14
6 0.27
7 -0.15
8 -0.15
9 -0.14

>  <PUBCHEM_EFFECTIVE_ROTOR_COUNT>  (1) 
3

>  <PUBCHEM_PHARMACOPHORE_FEATURES>  (1) 
3
1 1 donor
1 2 donor
6 3 5 7 8 9 10 rings

>  <PUBCHEM_HEAVY_ATOM_COUNT>  (1) 
12

>  <PUBCHEM_ATOM_DEF_STEREO_COUNT>  (1) 
0

>  <PUBCHEM_ATOM_UDEF_STEREO_COUNT>  (1) 
0

>  <PUBCHEM_BOND_DEF_STEREO_COUNT>  (1) 
0

>  <PUBCHEM_BOND_UDEF_STEREO_COUNT>  (1) 
0

>  <PUBCHEM_ISOTOPIC_ATOM_COUNT>  (1) 
0

>  <PUBCHEM_COMPONENT_COUNT>  (1) 
1

>  <PUBCHEM_CACTVS_TAUTO_COUNT>  (1) 
1

>  <PUBCHEM_CONFORMER_ID>  (1) 
0000236E00000002

>  <PUBCHEM_MMFF94_ENERGY>  (1) 
23.8706

>  <PUBCHEM_FEATURE_SELFOVERLAP>  (1) 
16.548

>  <PUBCHEM_SHAPE_FINGERPRINT>  (1) 
11132069 177 18410860957944776607
11401426 45 18410290307626807037
12119455 92 17418092100667917236
12251169 10 18335419088802601524
12346645 44 18130231445699351673
13024252 1 14129051509025582005
13380535 76 18335989705320352819
15219456 202 18266743480524874991
15775835 57 18342176656764311538
16945 1 18263381256035614797
17846911 113 18413390929768379681
20510252 161 18270965643704062305
20645464 45 18130790074673015012
20645476 183 17243044463589808615
20871998 184 18270407233562708414
21119208 17 12319735869188460760
21293036 1 10735877253168778537
21501502 16 18053945327230223180
22926399 37 13901905643916513162
23402539 116 18342729737336372581
23463225 33 18186805755338491582
23559900 14 18270981093529029940
2748010 2 17973738969541239677
43471831 8 18261110725353256194
53812653 166 18343586230903060009
7364860 26 18055077557903289343

>  <PUBCHEM_SHAPE_MULTIPOLES>  (1) 
236.99
6.46
1.63
0.84
4.93
0.84
-0.02
-1.73
-2.54
-0.51
0.15
0.28
-0.07
0.15

>  <PUBCHEM_SHAPE_SELFOVERLAP>  (1) 
477.714

>  <PUBCHEM_SHAPE_VOLUME>  (1) 
139.7

>  <PUBCHEM_COORDINATE_TYPE>  (1) 
2
5
10

$$$$
