9073
     RDKit          3D

 23 26  0  0  1  0  0  0  0  0999 V2000
    5.2181   -0.3649    0.3879 O   0  0  0  0  0  0  0  0  0  0  0  0
   -0.1324    1.1323   -0.8813 O   0  0  0  0  0  0  0  0  0  0  0  0
   -0.9893    2.1416    1.0029 O   0  0  0  0  0  0  0  0  0  0  0  0
   -3.7622    2.2517    1.0782 O   0  0  0  0  0  0  0  0  0  0  0  0
    2.6089   -1.0919   -0.0852 N   0  0  0  0  0  0  0  0  0  0  0  0
    3.2530   -0.1946   -1.1632 C   0  0  0  0  0  0  0  0  0  0  0  0
    2.7197   -0.0164    1.1326 C   0  0  0  0  0  0  0  0  0  0  0  0
    4.4684    0.4600   -0.4934 C   0  0  0  0  0  0  0  0  0  0  0  0
    4.2218    0.4551    1.0117 C   0  0  0  0  0  0  0  0  0  0  0  0
    2.1760    0.8803   -1.5490 C   0  0  0  0  0  0  0  0  0  0  0  0
    1.3402    0.7115    1.0180 C   0  0  0  0  0  0  0  0  0  0  0  0
    1.1974    1.3937   -0.4112 C   0  0  0  0  0  0  0  0  0  0  0  0
    1.2417   -1.6770   -0.4792 C   0  0  0  0  0  0  0  0  0  0  0  0
    3.4410   -2.3719    0.2315 C   0  0  0  0  0  0  0  0  0  0  0  0
   -1.1392    1.5648   -0.0666 C   0  0  0  0  0  0  0  0  0  0  0  0
   -2.4851    1.2119   -0.6933 C   0  0  0  0  0  0  0  0  0  0  0  0
   -3.5372    2.2688   -0.3282 C   0  0  0  0  0  0  0  0  0  0  0  0
   -2.9173   -0.1927   -0.3033 C   0  0  0  0  0  0  0  0  0  0  0  0
   -3.6973   -0.9197   -1.1804 C   0  0  0  0  0  0  0  0  0  0  0  0
   -2.5172   -0.7010    0.9164 C   0  0  0  0  0  0  0  0  0  0  0  0
   -4.0938   -2.2083   -0.8229 C   0  0  0  0  0  0  0  0  0  0  0  0
   -2.9136   -1.9897    1.2737 C   0  0  0  0  0  0  0  0  0  0  0  0
   -3.7018   -2.7434    0.4041 C   0  0  0  0  0  0  0  0  0  0  0  0
  1  8  1  0
  1  9  1  0
  2 12  1  0
  2 15  1  0
  3 15  2  0
  4 17  1  0
  5  6  1  0
  5  7  1  0
  5 13  1  0
  5 14  1  0
  6  8  1  0
  6 10  1  0
  7  9  1  0
  7 11  1  0
  8  9  1  0
 10 12  1  0
 11 12  1  0
 15 16  1  0
 16 17  1  0
 16 18  1  0
 18 19  2  0
 18 20  1  0
 19 21  1  0
 20 22  2  0
 21 23  2  0
 22 23  1  0
M  CHG  1   5   1
M  END
>  <PUBCHEM_COMPOUND_CID>  (1) 
9073

>  <PUBCHEM_CONFORMER_RMSD>  (1) 
0.8

>  <PUBCHEM_CONFORMER_DIVERSEORDER>  (1) 
1
21
22
16
32
2
30
31
26
19
8
24
14
7
11
25
20
28
5
6
29
33
17
18
27
15
9
23
10
3
12
13
4

>  <PUBCHEM_MMFF94_PARTIAL_CHARGES>  (1) 
29
1 -0.3
12 0.28
13 0.5
14 0.5
15 0.66
16 0.2
17 0.28
18 -0.14
19 -0.15
2 -0.43
20 -0.15
21 -0.15
22 -0.15
23 -0.15
26 0.1
27 0.1
3 -0.57
4 -0.68
42 0.15
43 0.15
44 0.4
45 0.15
46 0.15
47 0.15
5 -1.01
6 0.6
7 0.6
8 -0.05
9 -0.05

>  <PUBCHEM_EFFECTIVE_ROTOR_COUNT>  (1) 
6

>  <PUBCHEM_PHARMACOPHORE_FEATURES>  (1) 
8
1 1 acceptor
1 3 acceptor
1 4 acceptor
1 4 donor
1 5 cation
6 1 5 6 7 8 9 rings
6 18 19 20 21 22 23 rings
8 5 6 7 8 9 10 11 12 rings

>  <PUBCHEM_HEAVY_ATOM_COUNT>  (1) 
23

>  <PUBCHEM_ATOM_DEF_STEREO_COUNT>  (1) 
4

>  <PUBCHEM_ATOM_UDEF_STEREO_COUNT>  (1) 
1

>  <PUBCHEM_BOND_DEF_STEREO_COUNT>  (1) 
0

>  <PUBCHEM_BOND_UDEF_STEREO_COUNT>  (1) 
0

>  <PUBCHEM_ISOTOPIC_ATOM_COUNT>  (1) 
0

>  <PUBCHEM_COMPONENT_COUNT>  (1) 
1

>  <PUBCHEM_CACTVS_TAUTO_COUNT>  (1) 
1

>  <PUBCHEM_CONFORMER_ID>  (1) 
0000237100000001

>  <PUBCHEM_MMFF94_ENERGY>  (1) 
127.2929

>  <PUBCHEM_FEATURE_SELFOVERLAP>  (1) 
43.531

>  <PUBCHEM_SHAPE_FINGERPRINT>  (1) 
10366900 7 18341325699236518483
10616163 171 18410576184269970735
11370993 144 16988018101767442195
11552529 35 17917991706825105931
12346177 29 18410006624799711301
12363563 72 18267586982353529839
12500047 106 18338511924648787445
12506688 2 18267588086044008859
12553582 1 18265348376700587227
12596599 1 17530969080993350414
12616971 3 17386011641752452308
12714826 92 18271254901635915893
12788726 201 18337096896686933177
13224815 77 18411983572022419670
13544653 18 18412824719818599706
13583140 156 17774711013525167368
13631057 29 18338236080268226206
14081887 123 18342170046936178736
14178342 30 18411140195006389473
14787075 74 18057320794016098072
15788980 27 15574712487038247660
15880784 105 17417808512562294791
16752209 62 18261946427499767267
17349148 13 17967533484743498122
17357779 13 18338788030968859407
17980427 23 17895199930583282860
19141452 34 18262519182758238229
19862831 5 16733255845989821451
20281475 54 18335420153637934428
20626108 58 17968365840689226512
20775530 9 17684376439837197099
23402539 116 17676486121273533340
23557571 272 18272936020074843227
23559900 14 18269833125943082586
3004659 81 17823126990431955631
312423 11 18189628300592923709
339767 52 18261097621333903670
4921388 177 18187088338654024675
5104073 3 18342168939214411922
5309563 4 18122629624422416707
5924683 9 18341609330708583983
633830 44 16516261630132843980
9709674 26 18411700945947085494

>  <PUBCHEM_SHAPE_MULTIPOLES>  (1) 
444.87
9.85
2.8
1.31
3.25
0.47
0
2.95
-0.06
-3.14
-0.29
0
-0.07
-0.26

>  <PUBCHEM_SHAPE_SELFOVERLAP>  (1) 
941.33

>  <PUBCHEM_SHAPE_VOLUME>  (1) 
246.7

>  <PUBCHEM_COORDINATE_TYPE>  (1) 
2
5
10

$$$$
