9076
     RDKit          3D

 10 10  0  0  0  0  0  0  0  0999 V2000
    1.8689   -0.4425    0.4021 O   0  0  0  0  0  0  0  0  0  0  0  0
   -3.6011    0.3010   -0.2699 N   0  0  0  0  0  0  0  0  0  0  0  0
    0.5305   -0.2603    0.2367 C   0  0  0  0  0  0  0  0  0  0  0  0
   -0.0040    1.0282    0.2403 C   0  0  0  0  0  0  0  0  0  0  0  0
   -0.3073   -1.3624    0.0652 C   0  0  0  0  0  0  0  0  0  0  0  0
   -2.2138    0.1127   -0.0991 C   0  0  0  0  0  0  0  0  0  0  0  0
    2.7285    0.5951   -0.0674 C   0  0  0  0  0  0  0  0  0  0  0  0
   -1.3761    1.2147    0.0724 C   0  0  0  0  0  0  0  0  0  0  0  0
   -1.6795   -1.1758   -0.1027 C   0  0  0  0  0  0  0  0  0  0  0  0
    4.0540   -0.0106   -0.4777 C   0  0  0  0  0  0  0  0  0  0  0  0
  1  3  1  0
  1  7  1  0
  2  6  1  0
  3  4  2  0
  3  5  1  0
  4  8  1  0
  5  9  2  0
  6  8  2  0
  6  9  1  0
  7 10  1  0
M  END
>  <PUBCHEM_COMPOUND_CID>  (1) 
9076

>  <PUBCHEM_CONFORMER_RMSD>  (1) 
0.4

>  <PUBCHEM_CONFORMER_DIVERSEORDER>  (1) 
1
2
6
5
3
4

>  <PUBCHEM_MMFF94_PARTIAL_CHARGES>  (1) 
15
1 -0.36
11 0.15
12 0.15
15 0.15
16 0.15
2 -0.9
20 0.4
21 0.4
3 0.08
4 -0.15
5 -0.15
6 0.1
7 0.28
8 -0.15
9 -0.15

>  <PUBCHEM_EFFECTIVE_ROTOR_COUNT>  (1) 
2

>  <PUBCHEM_PHARMACOPHORE_FEATURES>  (1) 
4
1 1 acceptor
1 2 cation
1 2 donor
6 3 4 5 6 8 9 rings

>  <PUBCHEM_HEAVY_ATOM_COUNT>  (1) 
10

>  <PUBCHEM_ATOM_DEF_STEREO_COUNT>  (1) 
0

>  <PUBCHEM_ATOM_UDEF_STEREO_COUNT>  (1) 
0

>  <PUBCHEM_BOND_DEF_STEREO_COUNT>  (1) 
0

>  <PUBCHEM_BOND_UDEF_STEREO_COUNT>  (1) 
0

>  <PUBCHEM_ISOTOPIC_ATOM_COUNT>  (1) 
0

>  <PUBCHEM_COMPONENT_COUNT>  (1) 
1

>  <PUBCHEM_CACTVS_TAUTO_COUNT>  (1) 
1

>  <PUBCHEM_CONFORMER_ID>  (1) 
0000237400000001

>  <PUBCHEM_MMFF94_ENERGY>  (1) 
38.4805

>  <PUBCHEM_FEATURE_SELFOVERLAP>  (1) 
20.297

>  <PUBCHEM_SHAPE_FINGERPRINT>  (1) 
11062470 55 15068622681919520229
12032990 46 18340492273923320795
12897270 3 18412544323195126484
12932764 1 17168130274255726412
13024252 1 17603870022108968971
14325111 11 18410011005381269568
14911166 2 18412819196881034445
14993402 34 18261108582206234365
15310529 11 16805873022663487585
15775835 57 18113338600510745804
16945 1 18340475721039955001
20201158 50 17988931063267479182
21040471 1 18340196397884096651
21293036 1 18411134744866769453
23235685 24 18411131424893966261
23402539 116 18201430363778774420
23402655 69 18196070172629046597
23552423 10 18116992397787584328
2748010 2 18051401061792310705
369184 2 13334731353730635672

>  <PUBCHEM_SHAPE_MULTIPOLES>  (1) 
194.94
5.48
1.28
0.66
3.59
0.11
0.01
-0.48
1.06
-0.44
-0.04
0.09
0
-0.02

>  <PUBCHEM_SHAPE_SELFOVERLAP>  (1) 
396.157

>  <PUBCHEM_SHAPE_VOLUME>  (1) 
114.5

>  <PUBCHEM_COORDINATE_TYPE>  (1) 
2
5
10

$$$$
