9077
     RDKit          3D

 16 17  0  0  0  0  0  0  0  0999 V2000
    1.9977    0.5278    0.0008 O   0  0  0  0  0  0  0  0  0  0  0  0
    5.4805    0.2121    0.0005 O   0  0  0  0  0  0  0  0  0  0  0  0
    4.1758    1.9775    0.0012 O   0  0  0  0  0  0  0  0  0  0  0  0
   -1.3010   -0.8820   -0.0007 N   0  0  0  0  0  0  0  0  0  0  0  0
    4.3200    0.7192    0.0006 N   0  0  0  0  0  0  0  0  0  0  0  0
    1.0712   -0.4476    0.0001 C   0  0  0  0  0  0  0  0  0  0  0  0
    1.6195   -1.6878   -0.0012 C   0  0  0  0  0  0  0  0  0  0  0  0
   -2.5905   -0.3410   -0.0002 C   0  0  0  0  0  0  0  0  0  0  0  0
    3.1972   -0.1106   -0.0005 C   0  0  0  0  0  0  0  0  0  0  0  0
    3.0186   -1.4744   -0.0018 C   0  0  0  0  0  0  0  0  0  0  0  0
   -0.3203   -0.0303    0.0011 C   0  0  0  0  0  0  0  0  0  0  0  0
   -3.2330   -0.0690   -1.2081 C   0  0  0  0  0  0  0  0  0  0  0  0
   -3.2342   -0.0726    1.2080 C   0  0  0  0  0  0  0  0  0  0  0  0
   -4.5189    0.4713   -1.2079 C   0  0  0  0  0  0  0  0  0  0  0  0
   -4.5202    0.4678    1.2081 C   0  0  0  0  0  0  0  0  0  0  0  0
   -5.1624    0.7397    0.0001 C   0  0  0  0  0  0  0  0  0  0  0  0
  1  6  1  0
  1  9  1  0
  2  5  1  0
  3  5  2  0
  4  8  1  0
  4 11  2  0
  5  9  1  0
  6  7  2  0
  6 11  1  0
  7 10  1  0
  8 12  2  0
  8 13  1  0
  9 10  2  0
 12 14  1  0
 13 15  2  0
 14 16  2  0
 15 16  1  0
M  CHG  2   2  -1   5   1
M  END
>  <PUBCHEM_COMPOUND_CID>  (1) 
9077

>  <PUBCHEM_CONFORMER_RMSD>  (1) 
0.6

>  <PUBCHEM_CONFORMER_DIVERSEORDER>  (1) 
1
2
3

>  <PUBCHEM_MMFF94_PARTIAL_CHARGES>  (1) 
24
1 -0.28
10 -0.15
11 0.47
12 -0.15
13 -0.15
14 -0.15
15 -0.15
16 -0.15
17 0.15
18 0.15
19 0.06
2 -0.52
20 0.15
21 0.15
22 0.15
23 0.15
24 0.15
3 -0.52
4 -0.63
5 0.96
6 0.05
7 -0.15
8 0.18
9 0.22

>  <PUBCHEM_EFFECTIVE_ROTOR_COUNT>  (1) 
3

>  <PUBCHEM_PHARMACOPHORE_FEATURES>  (1) 
7
1 1 acceptor
1 2 acceptor
1 2 anion
1 3 acceptor
1 4 acceptor
5 1 6 7 9 10 rings
6 8 12 13 14 15 16 rings

>  <PUBCHEM_HEAVY_ATOM_COUNT>  (1) 
16

>  <PUBCHEM_ATOM_DEF_STEREO_COUNT>  (1) 
0

>  <PUBCHEM_ATOM_UDEF_STEREO_COUNT>  (1) 
0

>  <PUBCHEM_BOND_DEF_STEREO_COUNT>  (1) 
0

>  <PUBCHEM_BOND_UDEF_STEREO_COUNT>  (1) 
0

>  <PUBCHEM_ISOTOPIC_ATOM_COUNT>  (1) 
0

>  <PUBCHEM_COMPONENT_COUNT>  (1) 
1

>  <PUBCHEM_CACTVS_TAUTO_COUNT>  (1) 
1

>  <PUBCHEM_CONFORMER_ID>  (1) 
0000237500000001

>  <PUBCHEM_MMFF94_ENERGY>  (1) 
32.5062

>  <PUBCHEM_FEATURE_SELFOVERLAP>  (1) 
35.615

>  <PUBCHEM_SHAPE_FINGERPRINT>  (1) 
10014705 185 18334289890460953079
10912923 1 18060134319633142195
11089746 13 17775280578092124264
11471102 20 18411980243749864774
11543360 7 15985101954925741122
12236239 1 17703789206250424991
13631057 29 18126838520631879439
13675066 3 17458348528628220915
13760787 5 18272369733137769111
14123238 8 17676489453830369543
14251718 22 14836118875263035544
14528608 73 17917988412395383048
15375358 24 18040152907432027859
17834072 33 17917425458252294823
17834076 25 18272932717308335075
17870717 6 14189579650273960037
18186145 218 18335988596728186526
1986462 14 14333411142711255451
200 152 18060413604170964711
20279233 1 17676491627152627075
20325693 3 15698001838716158221
204376 136 18409450297337934443
20645477 56 17894629257993579423
20645477 70 18337950078285845894
22854114 59 17967817137063003331
23048698 100 18272373031741269891
23402539 116 16774077358270112744
23402655 69 18131067125691102911
23557571 272 16660923270818243358
23559900 14 16878507817536192826
2916195 48 17967529090786492173
300161 21 17775278344339754483
3268164 11 15697711516006942185
34797466 226 14907897236192011512
3545911 37 18334580148165859403
42 15 13406793319934501131
449060 50 18334861623274406423
474 4 18410856607127315464
4990 188 13830134988016707908
5104073 3 18335137609088046674
542803 24 17846780693817103739
543368 44 17775000245355447633
5924683 9 17386012835943427811
602551 16 16009042716687375131
633830 44 18129953269300105647
8272917 22 18201442415457338358
90127 26 18261961730526057157

>  <PUBCHEM_SHAPE_MULTIPOLES>  (1) 
301.7
12.15
1.28
0.99
1.71
0.03
0
4.15
0
1.62
0
-1.53
0.04
0

>  <PUBCHEM_SHAPE_SELFOVERLAP>  (1) 
650.95

>  <PUBCHEM_SHAPE_VOLUME>  (1) 
166.7

>  <PUBCHEM_COORDINATE_TYPE>  (1) 
2
5
10

$$$$
