9083
     RDKit          3D

 11 10  0  0  0  0  0  0  0  0999 V2000
   -2.2484   -0.2328    0.1263 S   0  0  0  0  0  0  0  0  0  0  0  0
    2.3867    0.0276    0.0802 S   0  0  0  0  0  0  0  0  0  0  0  0
   -1.3528    0.9935   -0.4770 O   0  0  0  0  0  0  0  0  0  0  0  0
    0.8094    0.0105   -0.3463 O   0  0  0  0  0  0  0  0  0  0  0  0
   -1.7359   -1.4958   -0.3647 O   0  0  0  0  0  0  0  0  0  0  0  0
   -2.4954    0.0003    1.5347 O   0  0  0  0  0  0  0  0  0  0  0  0
    3.0955    1.0053   -0.7200 O   0  0  0  0  0  0  0  0  0  0  0  0
    2.4944   -0.0062    1.5245 O   0  0  0  0  0  0  0  0  0  0  0  0
   -0.0024    1.1423   -0.0514 C   0  0  0  0  0  0  0  0  0  0  0  0
   -3.7363    0.1410   -0.7649 C   0  0  0  0  0  0  0  0  0  0  0  0
    2.7853   -1.5857   -0.5414 C   0  0  0  0  0  0  0  0  0  0  0  0
  1  3  1  0
  1  5  2  0
  1  6  2  0
  1 10  1  0
  2  4  1  0
  2  7  2  0
  2  8  2  0
  2 11  1  0
  3  9  1  0
  4  9  1  0
M  END
>  <PUBCHEM_COMPOUND_CID>  (1) 
9083

>  <PUBCHEM_CONFORMER_RMSD>  (1) 
0.6

>  <PUBCHEM_CONFORMER_DIVERSEORDER>  (1) 
1
5
4
9
21
25
10
20
18
2
24
11
6
12
8
13
23
16
7
22
15
14
3
19
17
27
26

>  <PUBCHEM_MMFF94_PARTIAL_CHARGES>  (1) 
11
1 1.38
10 0.11
11 0.11
2 1.38
3 -0.46
4 -0.46
5 -0.65
6 -0.65
7 -0.65
8 -0.65
9 0.56

>  <PUBCHEM_EFFECTIVE_ROTOR_COUNT>  (1) 
4

>  <PUBCHEM_PHARMACOPHORE_FEATURES>  (1) 
4
1 5 acceptor
1 6 acceptor
1 7 acceptor
1 8 acceptor

>  <PUBCHEM_HEAVY_ATOM_COUNT>  (1) 
11

>  <PUBCHEM_ATOM_DEF_STEREO_COUNT>  (1) 
0

>  <PUBCHEM_ATOM_UDEF_STEREO_COUNT>  (1) 
0

>  <PUBCHEM_BOND_DEF_STEREO_COUNT>  (1) 
0

>  <PUBCHEM_BOND_UDEF_STEREO_COUNT>  (1) 
0

>  <PUBCHEM_ISOTOPIC_ATOM_COUNT>  (1) 
0

>  <PUBCHEM_COMPONENT_COUNT>  (1) 
1

>  <PUBCHEM_CACTVS_TAUTO_COUNT>  (1) 
1

>  <PUBCHEM_CONFORMER_ID>  (1) 
0000237B00000001

>  <PUBCHEM_MMFF94_ENERGY>  (1) 
7.697

>  <PUBCHEM_FEATURE_SELFOVERLAP>  (1) 
20.332

>  <PUBCHEM_SHAPE_FINGERPRINT>  (1) 
11062470 55 17894344492882054981
12932764 1 18409168839509100196
13296908 3 17967258602050982819
14390081 3 9223227442528051774
15310529 11 17022619792875784181
20201158 50 18410291397889227542
20279233 1 18410006637315101046
20281407 28 18412263943245230749
20645477 70 18335980878703695398
20711985 344 17752766831572234556
3248919 1 18410291402152429360
57812782 119 14333125260876488037
581208 293 18342450448229158918

>  <PUBCHEM_SHAPE_MULTIPOLES>  (1) 
198.86
6.19
1.3
1.09
0.85
0.38
0.43
0.68
-0.45
-0.54
-0.24
0.06
-0.09
0.05

>  <PUBCHEM_SHAPE_SELFOVERLAP>  (1) 
349.529

>  <PUBCHEM_SHAPE_VOLUME>  (1) 
131.3

>  <PUBCHEM_COORDINATE_TYPE>  (1) 
2
5
10

$$$$
