9084
     RDKit          3D

  7  6  0  0  0  0  0  0  0  0999 V2000
   -1.3312   -1.2235   -0.1042 O   0  0  0  0  0  0  0  0  0  0  0  0
    1.3309   -1.2236   -0.1045 O   0  0  0  0  0  0  0  0  0  0  0  0
   -1.9985    0.9514   -0.3456 O   0  0  0  0  0  0  0  0  0  0  0  0
    1.9987    0.9513   -0.3454 O   0  0  0  0  0  0  0  0  0  0  0  0
    0.0000    0.4903    0.8153 C   0  0  0  0  0  0  0  0  0  0  0  0
   -1.2297    0.0271    0.0422 C   0  0  0  0  0  0  0  0  0  0  0  0
    1.2298    0.0270    0.0422 C   0  0  0  0  0  0  0  0  0  0  0  0
  1  6  1  0
  2  7  1  0
  3  6  2  0
  4  7  2  0
  5  6  1  0
  5  7  1  0
M  CHG  2   1  -1   2  -1
M  END
>  <PUBCHEM_COMPOUND_CID>  (1) 
9084

>  <PUBCHEM_CONFORMER_RMSD>  (1) 
0.4

>  <PUBCHEM_CONFORMER_DIVERSEORDER>  (1) 
1
2
3
4

>  <PUBCHEM_MMFF94_PARTIAL_CHARGES>  (1) 
7
1 -0.9
2 -0.9
3 -0.9
4 -0.9
5 -0.21
6 0.91
7 0.91

>  <PUBCHEM_EFFECTIVE_ROTOR_COUNT>  (1) 
2

>  <PUBCHEM_PHARMACOPHORE_FEATURES>  (1) 
7
1 1 acceptor
1 2 acceptor
1 3 acceptor
1 4 acceptor
1 5 anion
3 1 3 6 anion
3 2 4 7 anion

>  <PUBCHEM_HEAVY_ATOM_COUNT>  (1) 
7

>  <PUBCHEM_ATOM_DEF_STEREO_COUNT>  (1) 
0

>  <PUBCHEM_ATOM_UDEF_STEREO_COUNT>  (1) 
0

>  <PUBCHEM_BOND_DEF_STEREO_COUNT>  (1) 
0

>  <PUBCHEM_BOND_UDEF_STEREO_COUNT>  (1) 
0

>  <PUBCHEM_ISOTOPIC_ATOM_COUNT>  (1) 
0

>  <PUBCHEM_COMPONENT_COUNT>  (1) 
1

>  <PUBCHEM_CACTVS_TAUTO_COUNT>  (1) 
1

>  <PUBCHEM_CONFORMER_ID>  (1) 
0000237C00000001

>  <PUBCHEM_MMFF94_ENERGY>  (1) 
7.4891

>  <PUBCHEM_FEATURE_SELFOVERLAP>  (1) 
36.227

>  <PUBCHEM_SHAPE_FINGERPRINT>  (1) 
16714656 1 18051700141592093326
20096714 4 18187927235713456505
21040471 1 18340761559624395041
24536 1 18335404781865436483
29004967 10 18339651125783950760

>  <PUBCHEM_SHAPE_MULTIPOLES>  (1) 
120.58
2.48
1.18
0.7
0
0.25
-0.1
-0.35
0.44
0
0.08
0
-0.09
0

>  <PUBCHEM_SHAPE_SELFOVERLAP>  (1) 
230.748

>  <PUBCHEM_SHAPE_VOLUME>  (1) 
73.4

>  <PUBCHEM_COORDINATE_TYPE>  (1) 
2
5
10

$$$$
