9093
     RDKit          3D

 10 11  0  0  0  0  0  0  0  0999 V2000
   -0.7783   -0.1755    1.0939 O   0  0  0  0  0  0  0  0  0  0  0  0
   -1.4512    0.1665   -1.1283 O   0  0  0  0  0  0  0  0  0  0  0  0
   -0.3179    0.0389   -0.2528 C   0  0  0  0  0  0  0  0  0  0  0  0
    0.5183   -1.1616   -0.7069 C   0  0  0  0  0  0  0  0  0  0  0  0
    0.5030    1.3316   -0.2964 C   0  0  0  0  0  0  0  0  0  0  0  0
    1.8237   -1.2834    0.0764 C   0  0  0  0  0  0  0  0  0  0  0  0
    1.8100    1.2111    0.4850 C   0  0  0  0  0  0  0  0  0  0  0  0
    2.6316    0.0105    0.0232 C   0  0  0  0  0  0  0  0  0  0  0  0
   -2.1697   -0.4610    0.9622 C   0  0  0  0  0  0  0  0  0  0  0  0
   -2.5695    0.3229   -0.2563 C   0  0  0  0  0  0  0  0  0  0  0  0
  1  3  1  0
  1  9  1  0
  2  3  1  0
  2 10  1  0
  3  4  1  0
  3  5  1  0
  4  6  1  0
  5  7  1  0
  6  8  1  0
  7  8  1  0
  9 10  1  0
M  END
>  <PUBCHEM_COMPOUND_CID>  (1) 
9093

>  <PUBCHEM_CONFORMER_RMSD>  (1) 
0.4

>  <PUBCHEM_CONFORMER_DIVERSEORDER>  (1) 
1
4
3
2

>  <PUBCHEM_MMFF94_PARTIAL_CHARGES>  (1) 
5
1 -0.56
10 0.28
2 -0.56
3 0.56
9 0.28

>  <PUBCHEM_EFFECTIVE_ROTOR_COUNT>  (1) 
1.8

>  <PUBCHEM_PHARMACOPHORE_FEATURES>  (1) 
4
1 1 acceptor
1 2 acceptor
5 1 2 3 9 10 rings
6 3 4 5 6 7 8 rings

>  <PUBCHEM_HEAVY_ATOM_COUNT>  (1) 
10

>  <PUBCHEM_ATOM_DEF_STEREO_COUNT>  (1) 
0

>  <PUBCHEM_ATOM_UDEF_STEREO_COUNT>  (1) 
0

>  <PUBCHEM_BOND_DEF_STEREO_COUNT>  (1) 
0

>  <PUBCHEM_BOND_UDEF_STEREO_COUNT>  (1) 
0

>  <PUBCHEM_ISOTOPIC_ATOM_COUNT>  (1) 
0

>  <PUBCHEM_COMPONENT_COUNT>  (1) 
1

>  <PUBCHEM_CACTVS_TAUTO_COUNT>  (1) 
1

>  <PUBCHEM_CONFORMER_ID>  (1) 
0000238500000001

>  <PUBCHEM_MMFF94_ENERGY>  (1) 
16.0365

>  <PUBCHEM_FEATURE_SELFOVERLAP>  (1) 
20.348

>  <PUBCHEM_SHAPE_FINGERPRINT>  (1) 
10857977 72 17822010955674328857
12423570 1 15521471191668043037
12716758 59 17241321352854246451
15775835 57 17561085838344168208
16945 1 18343018895708869044
18185500 45 17704065196622372998
20201158 50 18187363194848989074
21040471 1 18198339765705780788
21922407 69 17203609272141955346
23235685 24 18341613762951361584
29004967 10 18408608041297182594
369184 2 18334854996076545731
5084963 1 18270679903887610218

>  <PUBCHEM_SHAPE_MULTIPOLES>  (1) 
194.06
3.5
1.3
0.98
0.45
0.03
-0.05
0
-0.36
-0.68
0.05
0.38
-0.05
0.24

>  <PUBCHEM_SHAPE_SELFOVERLAP>  (1) 
395.589

>  <PUBCHEM_SHAPE_VOLUME>  (1) 
112.3

>  <PUBCHEM_COORDINATE_TYPE>  (1) 
2
5
10

$$$$
