9095
     RDKit          3D

 24 28  0  0  0  0  0  0  0  0999 V2000
    0.3920    2.1898    0.4408 Si  0  0  0  0  0  4  0  0  0  0  0  0
    2.1943   -0.3922    0.4508 Si  0  0  0  0  0  4  0  0  0  0  0  0
   -2.1935    0.3932    0.4519 Si  0  0  0  0  0  4  0  0  0  0  0  0
   -0.3916   -2.1891    0.4397 Si  0  0  0  0  0  4  0  0  0  0  0  0
    1.6051    1.1176    0.8176 O   0  0  0  0  0  0  0  0  0  0  0  0
   -1.1187    1.6076    0.8158 O   0  0  0  0  0  0  0  0  0  0  0  0
    1.1193   -1.6070    0.8133 O   0  0  0  0  0  0  0  0  0  0  0  0
   -1.6043   -1.1171    0.8176 O   0  0  0  0  0  0  0  0  0  0  0  0
    0.7202    3.9402    1.2121 C   0  0  0  0  0  0  0  0  0  0  0  0
    0.5062    2.8746   -1.3651 C   0  0  0  0  0  0  0  0  0  0  0  0
    3.9345   -0.7176    1.2464 C   0  0  0  0  0  0  0  0  0  0  0  0
    2.9043   -0.5060   -1.3454 C   0  0  0  0  0  0  0  0  0  0  0  0
   -3.9344    0.7167    1.2465 C   0  0  0  0  0  0  0  0  0  0  0  0
   -2.9022    0.5079   -1.3447 C   0  0  0  0  0  0  0  0  0  0  0  0
   -0.5079   -2.8749   -1.3655 C   0  0  0  0  0  0  0  0  0  0  0  0
   -0.7192   -3.9391    1.2125 C   0  0  0  0  0  0  0  0  0  0  0  0
    0.5593    4.9278    0.0412 C   0  0  0  0  0  0  0  0  0  0  0  0
    1.1388    4.2715   -1.2213 C   0  0  0  0  0  0  0  0  0  0  0  0
    4.9378   -0.5563    0.0892 C   0  0  0  0  0  0  0  0  0  0  0  0
    4.2995   -1.1375   -1.1819 C   0  0  0  0  0  0  0  0  0  0  0  0
   -4.9366    0.5525    0.0887 C   0  0  0  0  0  0  0  0  0  0  0  0
   -4.2992    1.1355   -1.1818 C   0  0  0  0  0  0  0  0  0  0  0  0
   -1.1424   -4.2709   -1.2201 C   0  0  0  0  0  0  0  0  0  0  0  0
   -0.5614   -4.9273    0.0417 C   0  0  0  0  0  0  0  0  0  0  0  0
  1  5  1  0
  1  6  1  0
  1  9  1  0
  1 10  1  0
  2  5  1  0
  2  7  1  0
  2 11  1  0
  2 12  1  0
  3  6  1  0
  3  8  1  0
  3 13  1  0
  3 14  1  0
  4  7  1  0
  4  8  1  0
  4 15  1  0
  4 16  1  0
  9 17  1  0
 10 18  1  0
 11 19  1  0
 12 20  1  0
 13 21  1  0
 14 22  1  0
 15 23  1  0
 16 24  1  0
 17 18  1  0
 19 20  1  0
 21 22  1  0
 23 24  1  0
M  END
>  <PUBCHEM_COMPOUND_CID>  (1) 
9095

>  <PUBCHEM_CONFORMER_RMSD>  (1) 
0.8

>  <PUBCHEM_CONFORMER_DIVERSEORDER>  (1) 
1
3
2

>  <PUBCHEM_MMFF94_PARTIAL_CHARGES>  (1) 
16
1 0.76
10 -0.08
11 -0.08
12 -0.08
13 -0.08
14 -0.08
15 -0.08
16 -0.08
2 0.76
3 0.76
4 0.76
5 -0.59
6 -0.59
7 -0.59
8 -0.59
9 -0.08

>  <PUBCHEM_EFFECTIVE_ROTOR_COUNT>  (1) 
4

>  <PUBCHEM_PHARMACOPHORE_FEATURES>  (1) 
4
5 1 9 10 17 18 rings
5 2 11 12 19 20 rings
5 3 13 14 21 22 rings
5 4 15 16 23 24 rings

>  <PUBCHEM_HEAVY_ATOM_COUNT>  (1) 
24

>  <PUBCHEM_ATOM_DEF_STEREO_COUNT>  (1) 
0

>  <PUBCHEM_ATOM_UDEF_STEREO_COUNT>  (1) 
0

>  <PUBCHEM_BOND_DEF_STEREO_COUNT>  (1) 
0

>  <PUBCHEM_BOND_UDEF_STEREO_COUNT>  (1) 
0

>  <PUBCHEM_ISOTOPIC_ATOM_COUNT>  (1) 
0

>  <PUBCHEM_COMPONENT_COUNT>  (1) 
1

>  <PUBCHEM_CACTVS_TAUTO_COUNT>  (1) 
1

>  <PUBCHEM_CONFORMER_ID>  (1) 
0000238700000001

>  <PUBCHEM_MMFF94_ENERGY>  (1) 
22.1228

>  <PUBCHEM_FEATURE_SELFOVERLAP>  (1) 
20.3

>  <PUBCHEM_SHAPE_FINGERPRINT>  (1) 
10190108 129 17692569656757254697
10930396 42 18049968248440060552
1100329 8 18338797921924808947
11578080 2 17391330172368750198
12553582 1 18264779774164360729
12788726 201 18264773164879442336
13149001 5 18338800133854097764
133893 2 17318998821779483512
13911987 19 18262245429910764292
14790565 3 18339653239061692240
14955137 171 18339660966039348595
15439362 3 18267858557278733721
15484559 13 18195784337864937135
1813 80 18342462499696921116
19319366 153 17749108889973774106
20028762 73 18201722899093500255
20600515 1 18271817817108441920
20775438 99 17694753596241189799
20905425 154 17765717914563695751
21285901 2 17987244330942130518
22113638 7 18410854377870269220
23419403 2 15970382831361335625
23558518 356 17904470054275761963
266924 87 17977667506964334686
283562 15 18196656181581235360
3027735 51 17979075989954861544
3060560 45 18339347592171842099
3084891 72 18338516331316829858
3084891 8 18122624942247810546
3178227 256 18337122224103809811
340366 18 18337675316279007133
350125 39 17975701906628543049
469060 322 18193010222071404504
484985 159 14611279480580152580
70251023 43 17548979958437024503
9981440 41 16755997925587583296

>  <PUBCHEM_SHAPE_MULTIPOLES>  (1) 
543.28
6.85
6.81
1.55
0.01
0
-0.25
-0.01
-0.62
0
-0.77
0
0
-0.03

>  <PUBCHEM_SHAPE_SELFOVERLAP>  (1) 
1058.255

>  <PUBCHEM_SHAPE_VOLUME>  (1) 
323.3

>  <PUBCHEM_COORDINATE_TYPE>  (1) 
2
5
10

$$$$
