9099
     RDKit          3D

 11 12  0  0  0  0  0  0  0  0999 V2000
    1.5385   -0.9200   -1.1818 S   0  0  0  0  0  0  0  0  0  0  0  0
    1.5390    0.9126    1.1867 S   0  0  0  0  0  0  0  0  0  0  0  0
    0.4476   -0.0021    0.0015 C   0  0  0  0  0  0  0  0  0  0  0  0
   -0.3695    1.0118   -0.8220 C   0  0  0  0  0  0  0  0  0  0  0  0
   -0.3739   -1.0135    0.8236 C   0  0  0  0  0  0  0  0  0  0  0  0
   -1.6271    1.5507   -0.1323 C   0  0  0  0  0  0  0  0  0  0  0  0
   -1.6315   -1.5491    0.1316 C   0  0  0  0  0  0  0  0  0  0  0  0
   -2.8529    0.6690   -0.3718 C   0  0  0  0  0  0  0  0  0  0  0  0
   -2.8555   -0.6644    0.3685 C   0  0  0  0  0  0  0  0  0  0  0  0
    3.0941   -0.6976   -0.2868 C   0  0  0  0  0  0  0  0  0  0  0  0
    3.0912    0.7028    0.2827 C   0  0  0  0  0  0  0  0  0  0  0  0
  1  3  1  0
  1 10  1  0
  2  3  1  0
  2 11  1  0
  3  4  1  0
  3  5  1  0
  4  6  1  0
  5  7  1  0
  6  8  1  0
  7  9  1  0
  8  9  1  0
 10 11  1  0
M  END
>  <PUBCHEM_COMPOUND_CID>  (1) 
9099

>  <PUBCHEM_CONFORMER_RMSD>  (1) 
0.4

>  <PUBCHEM_CONFORMER_DIVERSEORDER>  (1) 
1
7
5
6
2
3
4

>  <PUBCHEM_MMFF94_PARTIAL_CHARGES>  (1) 
5
1 -0.46
10 0.23
11 0.23
2 -0.46
3 0.46

>  <PUBCHEM_EFFECTIVE_ROTOR_COUNT>  (1) 
2

>  <PUBCHEM_PHARMACOPHORE_FEATURES>  (1) 
2
5 1 2 3 10 11 rings
7 3 4 5 6 7 8 9 rings

>  <PUBCHEM_HEAVY_ATOM_COUNT>  (1) 
11

>  <PUBCHEM_ATOM_DEF_STEREO_COUNT>  (1) 
0

>  <PUBCHEM_ATOM_UDEF_STEREO_COUNT>  (1) 
0

>  <PUBCHEM_BOND_DEF_STEREO_COUNT>  (1) 
0

>  <PUBCHEM_BOND_UDEF_STEREO_COUNT>  (1) 
0

>  <PUBCHEM_ISOTOPIC_ATOM_COUNT>  (1) 
0

>  <PUBCHEM_COMPONENT_COUNT>  (1) 
1

>  <PUBCHEM_CACTVS_TAUTO_COUNT>  (1) 
1

>  <PUBCHEM_CONFORMER_ID>  (1) 
0000238B00000001

>  <PUBCHEM_MMFF94_ENERGY>  (1) 
24.0345

>  <PUBCHEM_FEATURE_SELFOVERLAP>  (1) 
10.149

>  <PUBCHEM_SHAPE_FINGERPRINT>  (1) 
10608611 8 18341608222296168512
10857977 72 18334852852919571921
11132069 177 18336538399844678672
12138202 97 18410283705539367279
12423570 1 11492778351768615643
12716758 59 18335704892689582691
12932764 1 18202284735963972374
13839132 238 18339921502634012957
14325111 11 18408321064504477324
14993402 34 16877944936064455662
15219456 202 18343582949569144728
15310529 11 16630527310786571601
15775835 57 17968375632866365409
16945 1 18411136935120696707
17844478 74 18412271648511505481
18175812 5 18343300400723970700
20201158 50 18201722816839618942
20645464 45 18413668002477270051
20645476 183 16805611369035051971
20871998 184 18340772653762615847
21501502 16 18412826889040756800
22802520 49 18338808796792831087
23235685 24 18260261911314200493
23402539 116 18339067268293872327
23552423 10 17968380155450973814
23559900 14 18338234852741295550
2748010 2 18191302882713767575
29004967 10 17560804294879848742
369184 2 18412825784991601114
5084963 1 18410014325143160512
53812653 166 18338516335579765281
57812782 119 18343297059239407728
6333449 129 18410572881518981447
75552 356 18187644738602964761
77492 1 16443345377426633734

>  <PUBCHEM_SHAPE_MULTIPOLES>  (1) 
234.07
4.75
1.58
1.08
0.56
0
0
0
0
-0.36
0
0.27
0
0.75

>  <PUBCHEM_SHAPE_SELFOVERLAP>  (1) 
437.517

>  <PUBCHEM_SHAPE_VOLUME>  (1) 
142.5

>  <PUBCHEM_COORDINATE_TYPE>  (1) 
2
5
10

$$$$
