9101
     RDKit          3D

  5  6  0  0  1  0  0  0  0  0999 V2000
    0.3411    0.7466   -0.3141 C   0  0  0  0  0  0  0  0  0  0  0  0
    0.3411   -0.7467   -0.3139 C   0  0  0  0  0  0  0  0  0  0  0  0
    1.4528    0.0000    0.3510 C   0  0  0  0  0  0  0  0  0  0  0  0
   -1.0674    0.7718    0.1386 C   0  0  0  0  0  0  0  0  0  0  0  0
   -1.0676   -0.7717    0.1385 C   0  0  0  0  0  0  0  0  0  0  0  0
  1  2  1  0
  1  3  1  0
  1  4  1  0
  2  3  1  0
  2  5  1  0
  4  5  1  0
M  END
>  <PUBCHEM_COMPOUND_CID>  (1) 
9101

>  <PUBCHEM_CONFORMER_RMSD>  (1) 
0.4

>  <PUBCHEM_CONFORMER_DIVERSEORDER>  (1) 
1

>  <PUBCHEM_MMFF94_PARTIAL_CHARGES>  (1) 
9
1 -0.18
2 -0.18
3 -0.2
4 0.08
5 0.08
6 0.1
7 0.1
8 0.1
9 0.1

>  <PUBCHEM_EFFECTIVE_ROTOR_COUNT>  (1) 
0.6

>  <PUBCHEM_PHARMACOPHORE_FEATURES>  (1) 
1
5 1 2 3 4 5 rings

>  <PUBCHEM_HEAVY_ATOM_COUNT>  (1) 
5

>  <PUBCHEM_ATOM_DEF_STEREO_COUNT>  (1) 
0

>  <PUBCHEM_ATOM_UDEF_STEREO_COUNT>  (1) 
2

>  <PUBCHEM_BOND_DEF_STEREO_COUNT>  (1) 
0

>  <PUBCHEM_BOND_UDEF_STEREO_COUNT>  (1) 
0

>  <PUBCHEM_ISOTOPIC_ATOM_COUNT>  (1) 
0

>  <PUBCHEM_COMPONENT_COUNT>  (1) 
1

>  <PUBCHEM_CACTVS_TAUTO_COUNT>  (1) 
1

>  <PUBCHEM_CONFORMER_ID>  (1) 
0000238D00000001

>  <PUBCHEM_MMFF94_ENERGY>  (1) 
12.2792

>  <PUBCHEM_FEATURE_SELFOVERLAP>  (1) 
5.074

>  <PUBCHEM_SHAPE_FINGERPRINT>  (1) 
20096714 4 18341896238397034808
21015797 1 9364027594419253133
21040471 1 18194406589042934941
29004967 10 14634874128080810808
5943 1 10922930762431952511

>  <PUBCHEM_SHAPE_MULTIPOLES>  (1) 
102.9
1.54
1.08
0.69
0.14
0
0
0
0.2
-0.18
-0.04
0.04
0
0

>  <PUBCHEM_SHAPE_SELFOVERLAP>  (1) 
210.497

>  <PUBCHEM_SHAPE_VOLUME>  (1) 
62.8

>  <PUBCHEM_COORDINATE_TYPE>  (1) 
2
5
10

$$$$
