9103
     RDKit          3D

 26 32  0  0  0  0  0  0  0  0999 V2000
    1.4221    0.0000    0.0002 C   0  0  0  0  0  0  0  0  0  0  0  0
   -1.4221    0.0000    0.0001 C   0  0  0  0  0  0  0  0  0  0  0  0
    0.7164   -1.2307    0.0002 C   0  0  0  0  0  0  0  0  0  0  0  0
   -0.7163   -1.2307    0.0002 C   0  0  0  0  0  0  0  0  0  0  0  0
    0.7163    1.2307    0.0001 C   0  0  0  0  0  0  0  0  0  0  0  0
   -0.7164    1.2307    0.0001 C   0  0  0  0  0  0  0  0  0  0  0  0
    2.8550    0.0000    0.0001 C   0  0  0  0  0  0  0  0  0  0  0  0
   -2.8549    0.0000    0.0000 C   0  0  0  0  0  0  0  0  0  0  0  0
    3.5801    1.2129    0.0000 C   0  0  0  0  0  0  0  0  0  0  0  0
   -3.5800    1.2128    0.0000 C   0  0  0  0  0  0  0  0  0  0  0  0
    3.5801   -1.2129    0.0000 C   0  0  0  0  0  0  0  0  0  0  0  0
   -3.5801   -1.2129   -0.0001 C   0  0  0  0  0  0  0  0  0  0  0  0
    1.4882   -2.4183    0.0002 C   0  0  0  0  0  0  0  0  0  0  0  0
   -1.4881   -2.4182    0.0000 C   0  0  0  0  0  0  0  0  0  0  0  0
    1.4881    2.4183    0.0001 C   0  0  0  0  0  0  0  0  0  0  0  0
   -1.4881    2.4183    0.0001 C   0  0  0  0  0  0  0  0  0  0  0  0
    2.8823    2.4139    0.0001 C   0  0  0  0  0  0  0  0  0  0  0  0
   -2.8823    2.4139    0.0000 C   0  0  0  0  0  0  0  0  0  0  0  0
    2.8824   -2.4139    0.0001 C   0  0  0  0  0  0  0  0  0  0  0  0
   -2.8824   -2.4139   -0.0001 C   0  0  0  0  0  0  0  0  0  0  0  0
    4.9833    1.2027   -0.0002 C   0  0  0  0  0  0  0  0  0  0  0  0
   -4.9833    1.2027   -0.0001 C   0  0  0  0  0  0  0  0  0  0  0  0
    4.9832   -1.2027   -0.0003 C   0  0  0  0  0  0  0  0  0  0  0  0
   -4.9833   -1.2027   -0.0002 C   0  0  0  0  0  0  0  0  0  0  0  0
    5.6810    0.0000   -0.0004 C   0  0  0  0  0  0  0  0  0  0  0  0
   -5.6810   -0.0001   -0.0002 C   0  0  0  0  0  0  0  0  0  0  0  0
  1  3  1  0
  1  5  1  0
  1  7  2  0
  2  4  2  0
  2  6  1  0
  2  8  1  0
  3  4  1  0
  3 13  2  0
  4 14  1  0
  5  6  2  0
  5 15  1  0
  6 16  1  0
  7  9  1  0
  7 11  1  0
  8 10  2  0
  8 12  1  0
  9 17  1  0
  9 21  2  0
 10 18  1  0
 10 22  1  0
 11 19  2  0
 11 23  1  0
 12 20  1  0
 12 24  2  0
 13 19  1  0
 14 20  2  0
 15 17  2  0
 16 18  2  0
 21 25  1  0
 22 26  2  0
 23 25  2  0
 24 26  1  0
M  END
>  <PUBCHEM_COMPOUND_CID>  (1) 
9103

>  <PUBCHEM_CONFORMER_RMSD>  (1) 
0.6

>  <PUBCHEM_CONFORMER_DIVERSEORDER>  (1) 
1

>  <PUBCHEM_MMFF94_PARTIAL_CHARGES>  (1) 
28
13 -0.15
14 -0.15
15 -0.15
16 -0.15
17 -0.15
18 -0.15
19 -0.15
20 -0.15
21 -0.15
22 -0.15
23 -0.15
24 -0.15
25 -0.15
26 -0.15
27 0.15
28 0.15
29 0.15
30 0.15
31 0.15
32 0.15
33 0.15
34 0.15
35 0.15
36 0.15
37 0.15
38 0.15
39 0.15
40 0.15

>  <PUBCHEM_EFFECTIVE_ROTOR_COUNT>  (1) 
0

>  <PUBCHEM_PHARMACOPHORE_FEATURES>  (1) 
7
6 1 2 3 4 5 6 rings
6 1 3 7 11 13 19 rings
6 1 5 7 9 15 17 rings
6 2 4 8 12 14 20 rings
6 2 6 8 10 16 18 rings
6 7 9 11 21 23 25 rings
6 8 10 12 22 24 26 rings

>  <PUBCHEM_HEAVY_ATOM_COUNT>  (1) 
26

>  <PUBCHEM_ATOM_DEF_STEREO_COUNT>  (1) 
0

>  <PUBCHEM_ATOM_UDEF_STEREO_COUNT>  (1) 
0

>  <PUBCHEM_BOND_DEF_STEREO_COUNT>  (1) 
0

>  <PUBCHEM_BOND_UDEF_STEREO_COUNT>  (1) 
0

>  <PUBCHEM_ISOTOPIC_ATOM_COUNT>  (1) 
0

>  <PUBCHEM_COMPONENT_COUNT>  (1) 
1

>  <PUBCHEM_CACTVS_TAUTO_COUNT>  (1) 
1

>  <PUBCHEM_CONFORMER_ID>  (1) 
0000238F00000001

>  <PUBCHEM_MMFF94_ENERGY>  (1) 
106.1196

>  <PUBCHEM_FEATURE_SELFOVERLAP>  (1) 
35.775

>  <PUBCHEM_SHAPE_FINGERPRINT>  (1) 
10 15 18337381743387382696
10616163 171 18411420652081158310
10675989 125 16606306972467146725
10906281 52 18338536186623292586
10967382 1 18410855468734057061
1100329 8 18410856602589462680
11135609 12 17823434845419214435
11513181 2 18059574633702262855
12107183 9 17690280408807113418
12788726 201 17632304423706684593
12838862 33 18338497699416286240
13140716 1 18266741470348181769
13224815 77 18410573985151451162
13402501 40 18410855464423129092
138480 1 17762336912066610247
14341114 176 18410579482720230472
14790565 3 18410579487004908097
15196674 1 18410855460128161792
15219462 58 15719386209551910220
15927050 60 17405148907463066573
1601671 61 18411418410609201218
17492 89 18410856533981684587
1813 80 17167864162139774348
18681886 176 18341889732143859448
19591789 44 18410573985151483617
200 152 18131349713359729281
20028762 73 18201433700889898510
20775438 99 16403050729270964471
21033648 29 17822837737153629141
21133410 171 17188912238054776406
21236236 1 18412826871613019753
21267235 1 18410864260516482595
21279426 13 18338517421905674719
21421861 104 17969212357395117322
221490 88 18336834177030524778
23227448 37 18413106177789852647
23402539 116 18342451565152602231
23559900 14 18412538846911844952
23566358 2 18339641131405602631
3004659 81 18333452032868106500
335352 9 18410573972266549685
338550 245 18334580174099278324
34934 24 18410852165888700483
350125 39 18410576188480567788
3545911 37 18410856563934776364
3633792 109 18338789015239388165
3680242 22 18262515888723947042
4073 2 18041285460058810490
4093350 32 17131559332300076183
4214541 1 18410856551145027877
4280585 95 17622736319388719526
474 4 17749114425954074142
5104073 3 18410856555344823232
59755656 215 18410577275476364262
9709674 26 18411987939978188718
9981440 41 17253433912428553064

>  <PUBCHEM_SHAPE_MULTIPOLES>  (1) 
535.07
11.37
3.09
0.62
0
0
0
0
0
0
0
0
0
0

>  <PUBCHEM_SHAPE_SELFOVERLAP>  (1) 
1288.618

>  <PUBCHEM_SHAPE_VOLUME>  (1) 
232.5

>  <PUBCHEM_COORDINATE_TYPE>  (1) 
2
5
10

$$$$
