9109
     RDKit          3D

 20 24  0  0  0  0  0  0  0  0999 V2000
   -4.4667   -0.5860    0.0004 N   0  0  0  0  0  0  0  0  0  0  0  0
   -0.3011    0.2106   -0.0004 C   0  0  0  0  0  0  0  0  0  0  0  0
   -1.6976   -0.0540   -0.0002 C   0  0  0  0  0  0  0  0  0  0  0  0
    0.6413   -0.8523   -0.0003 C   0  0  0  0  0  0  0  0  0  0  0  0
    0.1341    1.5536   -0.0003 C   0  0  0  0  0  0  0  0  0  0  0  0
    2.0463   -0.5472   -0.0002 C   0  0  0  0  0  0  0  0  0  0  0  0
   -2.1693   -1.3777   -0.0001 C   0  0  0  0  0  0  0  0  0  0  0  0
   -2.6293    1.0041    0.0000 C   0  0  0  0  0  0  0  0  0  0  0  0
    2.4586    0.8092   -0.0001 C   0  0  0  0  0  0  0  0  0  0  0  0
    1.5036    1.8320   -0.0001 C   0  0  0  0  0  0  0  0  0  0  0  0
    0.1196   -2.1686   -0.0001 C   0  0  0  0  0  0  0  0  0  0  0  0
   -0.8068    2.5951   -0.0001 C   0  0  0  0  0  0  0  0  0  0  0  0
   -1.2534   -2.4300   -0.0002 C   0  0  0  0  0  0  0  0  0  0  0  0
   -2.1744    2.3264    0.0000 C   0  0  0  0  0  0  0  0  0  0  0  0
    3.0739   -1.5246    0.0000 C   0  0  0  0  0  0  0  0  0  0  0  0
   -3.5505   -1.5787    0.0003 C   0  0  0  0  0  0  0  0  0  0  0  0
    3.8248    1.1406    0.0003 C   0  0  0  0  0  0  0  0  0  0  0  0
   -3.9858    0.6764    0.0003 C   0  0  0  0  0  0  0  0  0  0  0  0
    4.4285   -1.1814    0.0001 C   0  0  0  0  0  0  0  0  0  0  0  0
    4.8042    0.1524    0.0005 C   0  0  0  0  0  0  0  0  0  0  0  0
  1 16  2  0
  1 18  1  0
  2  3  1  0
  2  4  2  0
  2  5  1  0
  3  7  2  0
  3  8  1  0
  4  6  1  0
  4 11  1  0
  5 10  2  0
  5 12  1  0
  6  9  2  0
  6 15  1  0
  7 13  1  0
  7 16  1  0
  8 14  1  0
  8 18  2  0
  9 10  1  0
  9 17  1  0
 11 13  2  0
 12 14  2  0
 15 19  2  0
 17 20  2  0
 19 20  1  0
M  END
>  <PUBCHEM_COMPOUND_CID>  (1) 
9109

>  <PUBCHEM_CONFORMER_RMSD>  (1) 
0.6

>  <PUBCHEM_CONFORMER_DIVERSEORDER>  (1) 
1

>  <PUBCHEM_MMFF94_PARTIAL_CHARGES>  (1) 
23
1 -0.62
10 -0.15
11 -0.15
12 -0.15
13 -0.15
14 -0.15
15 -0.15
16 0.16
17 -0.15
18 0.16
19 -0.15
20 -0.15
21 0.15
22 0.15
23 0.15
24 0.15
25 0.15
26 0.15
27 0.15
28 0.15
29 0.15
30 0.15
31 0.15

>  <PUBCHEM_EFFECTIVE_ROTOR_COUNT>  (1) 
0

>  <PUBCHEM_PHARMACOPHORE_FEATURES>  (1) 
6
1 1 acceptor
6 1 3 7 8 16 18 rings
6 2 3 4 7 11 13 rings
6 2 3 5 8 12 14 rings
6 2 4 5 6 9 10 rings
6 6 9 15 17 19 20 rings

>  <PUBCHEM_HEAVY_ATOM_COUNT>  (1) 
20

>  <PUBCHEM_ATOM_DEF_STEREO_COUNT>  (1) 
0

>  <PUBCHEM_ATOM_UDEF_STEREO_COUNT>  (1) 
0

>  <PUBCHEM_BOND_DEF_STEREO_COUNT>  (1) 
0

>  <PUBCHEM_BOND_UDEF_STEREO_COUNT>  (1) 
0

>  <PUBCHEM_ISOTOPIC_ATOM_COUNT>  (1) 
0

>  <PUBCHEM_COMPONENT_COUNT>  (1) 
1

>  <PUBCHEM_CACTVS_TAUTO_COUNT>  (1) 
1

>  <PUBCHEM_CONFORMER_ID>  (1) 
0000239500000001

>  <PUBCHEM_MMFF94_ENERGY>  (1) 
74.1592

>  <PUBCHEM_FEATURE_SELFOVERLAP>  (1) 
30.602

>  <PUBCHEM_SHAPE_FINGERPRINT>  (1) 
10319926 262 18197191730402645914
10411042 1 18050287265114734627
10493431 412 18126576609114943257
10616163 171 18411703192563251254
10693767 8 18057582417849756967
10759866 29 18114472231696227590
10967382 1 18410575123317791077
11132069 177 18412259532266306120
11458722 379 18409168792180050894
11578080 2 17459722931401674252
11680986 33 18122341556290306225
12011746 2 18411135831377425005
12236239 1 17749107782045816466
12403259 226 18412538816810072552
12403814 3 17603583023841310773
12553582 1 18339355387389739326
13140716 1 18339087093941895571
13221675 6 18410009944339783122
13583140 156 14405190529762887862
138480 1 15600610001546046561
13862211 1 18410851083868158783
14790565 3 18267593420489174089
15042514 8 18337956804341794387
15196674 1 18410575084668399141
15442244 35 18337389327845796754
15536298 74 18342175583407368856
16752209 62 18337380565537298624
16945 1 18194683893553640653
17492 89 18337390435663237178
17804303 29 18413110575778172208
1813 80 17385722517270124372
19141452 34 18202284744833650863
19591789 44 18338517417816786074
200 152 18059849580565364389
20028762 73 18058169617141331191
20510252 161 18343584001641200632
20775438 99 16618097598492848439
20905425 154 18125160433283945230
21029758 11 18342171193914063961
21029758 27 18260838141222040021
21267235 1 18410302418733227914
221490 88 18191311678458695330
2334 1 18338799034600906725
23402539 116 18342730832278921319
23463225 33 18409167731307207156
23557571 272 18272942596350262140
23559900 14 18342172302385183912
238 59 16382511323360839293
2748010 2 18338794619453745221
2871803 45 18335697230420278493
335352 9 18338516322420453141
34934 24 18339355391937940178
350125 39 18410296891047222336
4214541 1 18410856517070113124
43471831 8 18262797346157057578
474 4 17168997845208027564
5104073 3 18411419505351037560
69090 78 18413386535964094822
7097593 13 17465085051799294450
8809292 202 18334579070118557795
9709674 26 18413113840270101350

>  <PUBCHEM_SHAPE_MULTIPOLES>  (1) 
406.61
7.94
2.71
0.61
3.33
0.25
0
-1.02
0
-0.93
0
0.02
0
0

>  <PUBCHEM_SHAPE_SELFOVERLAP>  (1) 
960.229

>  <PUBCHEM_SHAPE_VOLUME>  (1) 
201.4

>  <PUBCHEM_COORDINATE_TYPE>  (1) 
2
5
10

$$$$
