9114
     RDKit          3D

 28 35  0  0  0  0  0  0  0  0999 V2000
   -0.4537   -0.7075    0.0003 C   0  0  0  0  0  0  0  0  0  0  0  0
   -0.4536    0.7075    0.0004 C   0  0  0  0  0  0  0  0  0  0  0  0
    0.7894   -1.4068    0.0001 C   0  0  0  0  0  0  0  0  0  0  0  0
    0.7896    1.4067    0.0001 C   0  0  0  0  0  0  0  0  0  0  0  0
    2.0168   -0.7042    0.0002 C   0  0  0  0  0  0  0  0  0  0  0  0
    2.0169    0.7040    0.0003 C   0  0  0  0  0  0  0  0  0  0  0  0
   -1.6783   -1.4232    0.0003 C   0  0  0  0  0  0  0  0  0  0  0  0
   -1.6781    1.4232    0.0004 C   0  0  0  0  0  0  0  0  0  0  0  0
    0.8184   -2.8186   -0.0004 C   0  0  0  0  0  0  0  0  0  0  0  0
    0.8188    2.8186   -0.0001 C   0  0  0  0  0  0  0  0  0  0  0  0
    3.2475   -1.4069    0.0000 C   0  0  0  0  0  0  0  0  0  0  0  0
    3.2476    1.4066    0.0001 C   0  0  0  0  0  0  0  0  0  0  0  0
   -2.9225   -0.7107    0.0000 C   0  0  0  0  0  0  0  0  0  0  0  0
   -2.9224    0.7108    0.0003 C   0  0  0  0  0  0  0  0  0  0  0  0
   -1.5951   -2.8366    0.0004 C   0  0  0  0  0  0  0  0  0  0  0  0
   -1.5947    2.8366    0.0001 C   0  0  0  0  0  0  0  0  0  0  0  0
   -0.3806   -3.5201    0.0001 C   0  0  0  0  0  0  0  0  0  0  0  0
   -0.3801    3.5202   -0.0003 C   0  0  0  0  0  0  0  0  0  0  0  0
    2.0402   -3.5030   -0.0003 C   0  0  0  0  0  0  0  0  0  0  0  0
    2.0406    3.5030   -0.0005 C   0  0  0  0  0  0  0  0  0  0  0  0
    3.2432   -2.8042   -0.0003 C   0  0  0  0  0  0  0  0  0  0  0  0
    3.2434    2.8039   -0.0002 C   0  0  0  0  0  0  0  0  0  0  0  0
    4.4530   -0.6963    0.0000 C   0  0  0  0  0  0  0  0  0  0  0  0
    4.4529    0.6961    0.0000 C   0  0  0  0  0  0  0  0  0  0  0  0
   -4.1826   -1.3711   -0.0006 C   0  0  0  0  0  0  0  0  0  0  0  0
   -4.1823    1.3714    0.0002 C   0  0  0  0  0  0  0  0  0  0  0  0
   -5.3973   -0.6886   -0.0005 C   0  0  0  0  0  0  0  0  0  0  0  0
   -5.3971    0.6891   -0.0001 C   0  0  0  0  0  0  0  0  0  0  0  0
  1  2  2  0
  1  3  1  0
  1  7  1  0
  2  4  1  0
  2  8  1  0
  3  5  2  0
  3  9  1  0
  4  6  2  0
  4 10  1  0
  5  6  1  0
  5 11  1  0
  6 12  1  0
  7 13  1  0
  7 15  2  0
  8 14  1  0
  8 16  2  0
  9 17  2  0
  9 19  1  0
 10 18  2  0
 10 20  1  0
 11 21  1  0
 11 23  2  0
 12 22  1  0
 12 24  2  0
 13 14  2  0
 13 25  1  0
 14 26  1  0
 15 17  1  0
 16 18  1  0
 19 21  2  0
 20 22  2  0
 23 24  1  0
 25 27  2  0
 26 28  2  0
 27 28  1  0
M  END
>  <PUBCHEM_COMPOUND_CID>  (1) 
9114

>  <PUBCHEM_CONFORMER_RMSD>  (1) 
0.6

>  <PUBCHEM_CONFORMER_DIVERSEORDER>  (1) 
1

>  <PUBCHEM_MMFF94_PARTIAL_CHARGES>  (1) 
28
15 -0.15
16 -0.15
17 -0.15
18 -0.15
19 -0.15
20 -0.15
21 -0.15
22 -0.15
23 -0.15
24 -0.15
25 -0.15
26 -0.15
27 -0.15
28 -0.15
29 0.15
30 0.15
31 0.15
32 0.15
33 0.15
34 0.15
35 0.15
36 0.15
37 0.15
38 0.15
39 0.15
40 0.15
41 0.15
42 0.15

>  <PUBCHEM_EFFECTIVE_ROTOR_COUNT>  (1) 
0

>  <PUBCHEM_PHARMACOPHORE_FEATURES>  (1) 
8
6 1 2 3 4 5 6 rings
6 1 2 7 8 13 14 rings
6 1 3 7 9 15 17 rings
6 13 14 25 26 27 28 rings
6 2 4 8 10 16 18 rings
6 3 5 9 11 19 21 rings
6 4 6 10 12 20 22 rings
6 5 6 11 12 23 24 rings

>  <PUBCHEM_HEAVY_ATOM_COUNT>  (1) 
28

>  <PUBCHEM_ATOM_DEF_STEREO_COUNT>  (1) 
0

>  <PUBCHEM_ATOM_UDEF_STEREO_COUNT>  (1) 
0

>  <PUBCHEM_BOND_DEF_STEREO_COUNT>  (1) 
0

>  <PUBCHEM_BOND_UDEF_STEREO_COUNT>  (1) 
0

>  <PUBCHEM_ISOTOPIC_ATOM_COUNT>  (1) 
0

>  <PUBCHEM_COMPONENT_COUNT>  (1) 
1

>  <PUBCHEM_CACTVS_TAUTO_COUNT>  (1) 
1

>  <PUBCHEM_CONFORMER_ID>  (1) 
0000239A00000001

>  <PUBCHEM_MMFF94_ENERGY>  (1) 
117.5533

>  <PUBCHEM_FEATURE_SELFOVERLAP>  (1) 
40.927

>  <PUBCHEM_SHAPE_FINGERPRINT>  (1) 
10411042 1 18050568434980053155
10693767 8 18129923629978937415
10967382 1 18410856606958302342
1100329 8 18338514252557595410
11513181 2 18059574633596624847
11578080 2 16952239911821691639
12403259 226 18192147088379060508
12553582 1 18411125923083194630
12788726 201 17775021093069031233
12838862 33 18339060671261262448
13122387 1 17906171750599316836
13140716 1 18266170824293375002
13402501 40 18409730664043738500
138480 1 18338516326689039747
14178342 30 17475781530426696944
14784336 7 17988072431102782761
14790565 3 18193284215262746036
15081414 286 18341059514459399987
15196674 1 18410856560088143503
15320467 1 18410575067504315237
15927050 60 18124597745639819254
16087824 20 17690001133624908277
16728300 4 17462535366297251674
17093844 170 18411976996854965464
19591789 44 18410574032649441925
19930381 70 18410009897237496235
20028762 73 18273209820098633423
20642791 178 17972323090459572580
20739085 24 18263386740683140689
20905425 154 18197500623606470206
21197605 99 18195253449847946955
21267235 1 18411145722618587567
21421861 104 18116431436208842971
22113638 7 18339355378673106966
23227448 37 18341331209827505855
2334 1 17978511167632900450
23559900 14 18411695461263123520
335352 9 18410574028639162238
338550 245 18263364844374986620
350125 39 18410012109420064172
3680242 22 18335417924513076018
3882209 13 16964316840732145459
5104073 3 18409731768372606417
5265222 85 17759254272700126156
59755656 215 18410015403728818686
6443956 14 18337112254661795541
9709674 26 18410016524372488651

>  <PUBCHEM_SHAPE_MULTIPOLES>  (1) 
576.23
8.57
4.82
0.62
6.42
0
0
0
0
-2.51
0
0
0
0

>  <PUBCHEM_SHAPE_SELFOVERLAP>  (1) 
1406.888

>  <PUBCHEM_SHAPE_VOLUME>  (1) 
245.9

>  <PUBCHEM_COORDINATE_TYPE>  (1) 
2
5
10

$$$$
