912
     RDKit          3D

  9  9  0  0  0  0  0  0  0  0999 V2000
   -3.0189    0.3018   -0.1945 N   0  0  0  0  0  0  0  0  0  0  0  0
    1.6884    1.0532    0.2863 N   0  0  0  0  0  0  0  0  0  0  0  0
    2.6659   -0.9275    0.0563 N   0  0  0  0  0  0  0  0  0  0  0  0
   -0.6162    0.6866   -0.5837 C   0  0  0  0  0  0  0  0  0  0  0  0
   -1.6725   -0.1420    0.1499 C   0  0  0  0  0  0  0  0  0  0  0  0
    0.7789    0.2187   -0.2505 C   0  0  0  0  0  0  0  0  0  0  0  0
    1.3699   -0.9862   -0.3917 C   0  0  0  0  0  0  0  0  0  0  0  0
   -4.0212   -0.5184    0.4703 C   0  0  0  0  0  0  0  0  0  0  0  0
    2.8256    0.3140    0.4577 C   0  0  0  0  0  0  0  0  0  0  0  0
  1  5  1  0
  1  8  1  0
  2  6  1  0
  2  9  1  0
  3  7  1  0
  3  9  2  0
  4  5  1  0
  4  6  1  0
  6  7  2  0
M  END
>  <PUBCHEM_COMPOUND_CID>  (1) 
912

>  <PUBCHEM_CONFORMER_RMSD>  (1) 
0.6

>  <PUBCHEM_CONFORMER_DIVERSEORDER>  (1) 
1
4
6
2
5
3

>  <PUBCHEM_MMFF94_PARTIAL_CHARGES>  (1) 
13
1 -0.9
14 0.36
15 0.27
16 0.15
2 0.03
20 0.15
3 -0.57
4 0.18
5 0.27
6 -0.33
7 0.08
8 0.27
9 0.04

>  <PUBCHEM_EFFECTIVE_ROTOR_COUNT>  (1) 
3

>  <PUBCHEM_PHARMACOPHORE_FEATURES>  (1) 
5
1 1 cation
1 1 donor
1 2 donor
3 2 3 9 cation
5 2 3 6 7 9 rings

>  <PUBCHEM_HEAVY_ATOM_COUNT>  (1) 
9

>  <PUBCHEM_ATOM_DEF_STEREO_COUNT>  (1) 
0

>  <PUBCHEM_ATOM_UDEF_STEREO_COUNT>  (1) 
0

>  <PUBCHEM_BOND_DEF_STEREO_COUNT>  (1) 
0

>  <PUBCHEM_BOND_UDEF_STEREO_COUNT>  (1) 
0

>  <PUBCHEM_ISOTOPIC_ATOM_COUNT>  (1) 
0

>  <PUBCHEM_COMPONENT_COUNT>  (1) 
1

>  <PUBCHEM_CACTVS_TAUTO_COUNT>  (1) 
2

>  <PUBCHEM_CONFORMER_ID>  (1) 
0000039000000001

>  <PUBCHEM_MMFF94_ENERGY>  (1) 
2.2142

>  <PUBCHEM_FEATURE_SELFOVERLAP>  (1) 
25.371

>  <PUBCHEM_SHAPE_FINGERPRINT>  (1) 
10219947 1 18342175574479876205
11062470 55 18186801387546629541
12932764 1 17704065201112707565
14325111 11 18411418414777451069
14390081 3 11312059833626067791
20201158 50 18334577932115839099
20645477 70 18269829840140627543
20871998 22 17629489584019538654
29004967 10 18340200804699896776

>  <PUBCHEM_SHAPE_MULTIPOLES>  (1) 
170.27
5.94
1
0.72
5.17
0.06
-0.01
0.92
1.2
-0.4
-0.03
0.01
-0.01
0.3

>  <PUBCHEM_SHAPE_SELFOVERLAP>  (1) 
337.111

>  <PUBCHEM_SHAPE_VOLUME>  (1) 
102.6

>  <PUBCHEM_COORDINATE_TYPE>  (1) 
2
5
10

$$$$
