9120
     RDKit          3D

 36 44  0  0  0  0  0  0  0  0999 V2000
    0.7158    0.4343    0.0013 C   0  0  0  0  0  0  0  0  0  0  0  0
   -0.7158    0.4344    0.0015 C   0  0  0  0  0  0  0  0  0  0  0  0
    1.4205    1.6638    0.0004 C   0  0  0  0  0  0  0  0  0  0  0  0
   -1.4206    1.6637    0.0008 C   0  0  0  0  0  0  0  0  0  0  0  0
    1.4417   -0.7982    0.0018 C   0  0  0  0  0  0  0  0  0  0  0  0
   -1.4416   -0.7982    0.0020 C   0  0  0  0  0  0  0  0  0  0  0  0
    0.7091    2.9093   -0.0001 C   0  0  0  0  0  0  0  0  0  0  0  0
   -0.7092    2.9093    0.0002 C   0  0  0  0  0  0  0  0  0  0  0  0
    2.8780   -0.8190    0.0013 C   0  0  0  0  0  0  0  0  0  0  0  0
   -2.8781   -0.8189    0.0015 C   0  0  0  0  0  0  0  0  0  0  0  0
    3.5612    0.4050    0.0002 C   0  0  0  0  0  0  0  0  0  0  0  0
   -3.5613    0.4050    0.0010 C   0  0  0  0  0  0  0  0  0  0  0  0
    2.8336    1.5994   -0.0002 C   0  0  0  0  0  0  0  0  0  0  0  0
   -2.8336    1.5995    0.0008 C   0  0  0  0  0  0  0  0  0  0  0  0
    0.6953   -1.9830    0.0030 C   0  0  0  0  0  0  0  0  0  0  0  0
   -0.6952   -1.9831    0.0030 C   0  0  0  0  0  0  0  0  0  0  0  0
    3.6843   -1.9929    0.0013 C   0  0  0  0  0  0  0  0  0  0  0  0
   -3.6842   -1.9929    0.0011 C   0  0  0  0  0  0  0  0  0  0  0  0
    1.3673    4.1737   -0.0007 C   0  0  0  0  0  0  0  0  0  0  0  0
   -1.3674    4.1737   -0.0003 C   0  0  0  0  0  0  0  0  0  0  0  0
    4.9695    0.4473   -0.0008 C   0  0  0  0  0  0  0  0  0  0  0  0
   -4.9695    0.4474    0.0003 C   0  0  0  0  0  0  0  0  0  0  0  0
    5.0924   -1.9620    0.0003 C   0  0  0  0  0  0  0  0  0  0  0  0
   -5.0923   -1.9621   -0.0002 C   0  0  0  0  0  0  0  0  0  0  0  0
    5.7452   -0.7188   -0.0006 C   0  0  0  0  0  0  0  0  0  0  0  0
   -5.7452   -0.7189   -0.0004 C   0  0  0  0  0  0  0  0  0  0  0  0
    0.6879    5.3898   -0.0013 C   0  0  0  0  0  0  0  0  0  0  0  0
   -0.6879    5.3899   -0.0011 C   0  0  0  0  0  0  0  0  0  0  0  0
    5.8603   -3.1398   -0.0007 C   0  0  0  0  0  0  0  0  0  0  0  0
   -5.8602   -3.1398   -0.0012 C   0  0  0  0  0  0  0  0  0  0  0  0
    7.1502   -0.6744   -0.0020 C   0  0  0  0  0  0  0  0  0  0  0  0
   -7.1501   -0.6745   -0.0018 C   0  0  0  0  0  0  0  0  0  0  0  0
    7.2542   -3.0835   -0.0021 C   0  0  0  0  0  0  0  0  0  0  0  0
   -7.2543   -3.0834   -0.0029 C   0  0  0  0  0  0  0  0  0  0  0  0
    7.8990   -1.8510   -0.0024 C   0  0  0  0  0  0  0  0  0  0  0  0
   -7.8990   -1.8511   -0.0029 C   0  0  0  0  0  0  0  0  0  0  0  0
  1  2  2  0
  1  3  1  0
  1  5  1  0
  2  4  1  0
  2  6  1  0
  3  7  1  0
  3 13  2  0
  4  8  1  0
  4 14  2  0
  5  9  1  0
  5 15  2  0
  6 10  1  0
  6 16  2  0
  7  8  2  0
  7 19  1  0
  8 20  1  0
  9 11  2  0
  9 17  1  0
 10 12  2  0
 10 18  1  0
 11 13  1  0
 11 21  1  0
 12 14  1  0
 12 22  1  0
 15 16  1  0
 17 23  2  0
 18 24  2  0
 19 27  2  0
 20 28  2  0
 21 25  2  0
 22 26  2  0
 23 25  1  0
 23 29  1  0
 24 26  1  0
 24 30  1  0
 25 31  1  0
 26 32  1  0
 27 28  1  0
 29 33  2  0
 30 34  2  0
 31 35  2  0
 32 36  2  0
 33 35  1  0
 34 36  1  0
M  END
>  <PUBCHEM_COMPOUND_CID>  (1) 
9120

>  <PUBCHEM_CONFORMER_RMSD>  (1) 
0.6

>  <PUBCHEM_CONFORMER_DIVERSEORDER>  (1) 
1

>  <PUBCHEM_MMFF94_PARTIAL_CHARGES>  (1) 
40
13 -0.15
14 -0.15
15 -0.15
16 -0.15
17 -0.15
18 -0.15
19 -0.15
20 -0.15
21 -0.15
22 -0.15
27 -0.15
28 -0.15
29 -0.15
30 -0.15
31 -0.15
32 -0.15
33 -0.15
34 -0.15
35 -0.15
36 -0.15
37 0.15
38 0.15
39 0.15
40 0.15
41 0.15
42 0.15
43 0.15
44 0.15
45 0.15
46 0.15
47 0.15
48 0.15
49 0.15
50 0.15
51 0.15
52 0.15
53 0.15
54 0.15
55 0.15
56 0.15

>  <PUBCHEM_EFFECTIVE_ROTOR_COUNT>  (1) 
0

>  <PUBCHEM_PHARMACOPHORE_FEATURES>  (1) 
9
6 1 2 3 4 7 8 rings
6 1 2 5 6 15 16 rings
6 1 3 5 9 11 13 rings
6 10 12 18 22 24 26 rings
6 2 4 6 10 12 14 rings
6 23 25 29 31 33 35 rings
6 24 26 30 32 34 36 rings
6 7 8 19 20 27 28 rings
6 9 11 17 21 23 25 rings

>  <PUBCHEM_HEAVY_ATOM_COUNT>  (1) 
36

>  <PUBCHEM_ATOM_DEF_STEREO_COUNT>  (1) 
0

>  <PUBCHEM_ATOM_UDEF_STEREO_COUNT>  (1) 
0

>  <PUBCHEM_BOND_DEF_STEREO_COUNT>  (1) 
0

>  <PUBCHEM_BOND_UDEF_STEREO_COUNT>  (1) 
0

>  <PUBCHEM_ISOTOPIC_ATOM_COUNT>  (1) 
0

>  <PUBCHEM_COMPONENT_COUNT>  (1) 
1

>  <PUBCHEM_CACTVS_TAUTO_COUNT>  (1) 
1

>  <PUBCHEM_CONFORMER_ID>  (1) 
000023A000000001

>  <PUBCHEM_MMFF94_ENERGY>  (1) 
150.8727

>  <PUBCHEM_FEATURE_SELFOVERLAP>  (1) 
45.91

>  <PUBCHEM_SHAPE_FINGERPRINT>  (1) 
10050765 1 18410855460166195913
10100884 174 18260545602964496466
10169797 241 17905634416285387079
10411042 1 18410575084663078915
11227688 84 18267847442050331391
11297750 10 18342727508370581408
11331351 85 17917713508734420677
11456790 92 18340499928398854251
11672396 167 18269269227383300719
11756154 67 18411421700037341399
12013929 94 18337108966205457386
12107183 9 18341907273254994513
12166972 35 17967534588064797038
12516196 113 18410291423732988234
12645989 146 18412265068690816495
12788726 201 18189049803031600816
13248334 5 18050286161049904096
13383668 362 17912069861488205978
13811026 1 18410847767841838605
138480 1 14879751447802267968
14028597 1 17749655304645679114
14040222 275 18266764470241391590
14068700 675 18334017168617302380
14068700 686 18127692626307370958
14117953 113 18343019974357967511
14347332 77 18337671906681830462
14394314 77 18337957771051885929
14725015 67 18411978032158647442
14955137 171 18410575123613190263
15131766 46 15767206294405960472
15324884 4 18054470747802194849
15351339 4 17894901889364200851
15419008 47 17967805059815265567
15439362 3 18049159170722144929
15927050 60 17620194672930622420
16087824 20 18194401092530041517
16090146 7 17024050193702199138
16990366 60 18334570286963672698
16991971 28 18412267245959465903
16992752 21 18339090311315453660
17492 89 18122625213633175163
17686467 74 18343012286582395592
18608769 82 18339923689210177688
18681886 176 18411974797589370307
19246450 95 18053965974182969281
19301679 30 18339358540429445974
19611394 137 18188503496267245587
20721686 56 18335985358338306250
21133410 127 17536581165390955493
21267235 1 18410577283686698243
21927370 108 18338252487433785043
23522609 53 18122378793372822112
23559900 14 18337946918017448035
24771750 20 17683530906531183460
24893989 43 17411910861114323247
25019877 29 17131834274109713351
255183 451 18412826923184250159
283562 15 18190181187316222458
3004659 81 18113052748962529346
3103668 31 18189331278220068037
335352 9 18410290290647248725
3383291 50 18334293184285164802
3627633 1 18338235947025007061
4046055 25 18261395503512998884
4144715 1 18043532927194447243
44880168 125 17203044085244316654
58902169 19 18059282280427615359
6057620 51 18333457534979870478
6058803 2 17826801335528371674
6376802 137 17988931054403102481
6697151 62 18195218166722473061
6698420 124 17194046596894982608
6700243 42 17842589291426683788
9555976 147 17488199248085838299
9896288 288 17986396585638528337
9962374 69 18268986669641989751

>  <PUBCHEM_SHAPE_MULTIPOLES>  (1) 
740.86
19.21
6.04
0.62
0
9.51
0
-27.04
-0.02
0
0
0
0
0

>  <PUBCHEM_SHAPE_SELFOVERLAP>  (1) 
1768.344

>  <PUBCHEM_SHAPE_VOLUME>  (1) 
330.6

>  <PUBCHEM_COORDINATE_TYPE>  (1) 
2
5
10

$$$$
