9122
     RDKit          3D

 24 29  0  0  0  0  0  0  0  0999 V2000
    0.0000    0.7081   -0.0001 C   0  0  0  0  0  0  0  0  0  0  0  0
   -0.0001   -0.7079   -0.0001 C   0  0  0  0  0  0  0  0  0  0  0  0
    1.2435    1.4151    0.0003 C   0  0  0  0  0  0  0  0  0  0  0  0
    1.2434   -1.4151   -0.0004 C   0  0  0  0  0  0  0  0  0  0  0  0
   -1.2436    1.4152   -0.0001 C   0  0  0  0  0  0  0  0  0  0  0  0
   -1.2435   -1.4150    0.0000 C   0  0  0  0  0  0  0  0  0  0  0  0
    2.4895    0.7080    0.0003 C   0  0  0  0  0  0  0  0  0  0  0  0
    2.4896   -0.7080   -0.0006 C   0  0  0  0  0  0  0  0  0  0  0  0
   -2.4895    0.7080   -0.0001 C   0  0  0  0  0  0  0  0  0  0  0  0
   -2.4895   -0.7080   -0.0002 C   0  0  0  0  0  0  0  0  0  0  0  0
    1.1940    2.8260    0.0002 C   0  0  0  0  0  0  0  0  0  0  0  0
    1.1939   -2.8260    0.0003 C   0  0  0  0  0  0  0  0  0  0  0  0
   -1.1940    2.8261   -0.0002 C   0  0  0  0  0  0  0  0  0  0  0  0
   -1.1941   -2.8259    0.0010 C   0  0  0  0  0  0  0  0  0  0  0  0
    0.0000    3.5232   -0.0001 C   0  0  0  0  0  0  0  0  0  0  0  0
   -0.0001   -3.5231    0.0011 C   0  0  0  0  0  0  0  0  0  0  0  0
    3.7543    1.3669    0.0012 C   0  0  0  0  0  0  0  0  0  0  0  0
    3.7542   -1.3669   -0.0015 C   0  0  0  0  0  0  0  0  0  0  0  0
   -3.7543    1.3668    0.0002 C   0  0  0  0  0  0  0  0  0  0  0  0
   -3.7540   -1.3669   -0.0007 C   0  0  0  0  0  0  0  0  0  0  0  0
    4.9706    0.6877    0.0007 C   0  0  0  0  0  0  0  0  0  0  0  0
    4.9707   -0.6879   -0.0010 C   0  0  0  0  0  0  0  0  0  0  0  0
   -4.9706    0.6877    0.0001 C   0  0  0  0  0  0  0  0  0  0  0  0
   -4.9705   -0.6880   -0.0003 C   0  0  0  0  0  0  0  0  0  0  0  0
  1  2  2  0
  1  3  1  0
  1  5  1  0
  2  4  1  0
  2  6  1  0
  3  7  1  0
  3 11  2  0
  4  8  1  0
  4 12  2  0
  5  9  2  0
  5 13  1  0
  6 10  2  0
  6 14  1  0
  7  8  2  0
  7 17  1  0
  8 18  1  0
  9 10  1  0
  9 19  1  0
 10 20  1  0
 11 15  1  0
 12 16  1  0
 13 15  2  0
 14 16  2  0
 17 21  2  0
 18 22  2  0
 19 23  2  0
 20 24  2  0
 21 22  1  0
 23 24  1  0
M  END
>  <PUBCHEM_COMPOUND_CID>  (1) 
9122

>  <PUBCHEM_CONFORMER_RMSD>  (1) 
0.6

>  <PUBCHEM_CONFORMER_DIVERSEORDER>  (1) 
1

>  <PUBCHEM_MMFF94_PARTIAL_CHARGES>  (1) 
28
11 -0.15
12 -0.15
13 -0.15
14 -0.15
15 -0.15
16 -0.15
17 -0.15
18 -0.15
19 -0.15
20 -0.15
21 -0.15
22 -0.15
23 -0.15
24 -0.15
25 0.15
26 0.15
27 0.15
28 0.15
29 0.15
30 0.15
31 0.15
32 0.15
33 0.15
34 0.15
35 0.15
36 0.15
37 0.15
38 0.15

>  <PUBCHEM_EFFECTIVE_ROTOR_COUNT>  (1) 
0

>  <PUBCHEM_PHARMACOPHORE_FEATURES>  (1) 
6
6 1 2 3 4 7 8 rings
6 1 2 5 6 9 10 rings
6 1 3 5 11 13 15 rings
6 2 4 6 12 14 16 rings
6 7 8 17 18 21 22 rings
6 9 10 19 20 23 24 rings

>  <PUBCHEM_HEAVY_ATOM_COUNT>  (1) 
24

>  <PUBCHEM_ATOM_DEF_STEREO_COUNT>  (1) 
0

>  <PUBCHEM_ATOM_UDEF_STEREO_COUNT>  (1) 
0

>  <PUBCHEM_BOND_DEF_STEREO_COUNT>  (1) 
0

>  <PUBCHEM_BOND_UDEF_STEREO_COUNT>  (1) 
0

>  <PUBCHEM_ISOTOPIC_ATOM_COUNT>  (1) 
0

>  <PUBCHEM_COMPONENT_COUNT>  (1) 
1

>  <PUBCHEM_CACTVS_TAUTO_COUNT>  (1) 
1

>  <PUBCHEM_CONFORMER_ID>  (1) 
000023A200000001

>  <PUBCHEM_MMFF94_ENERGY>  (1) 
106.0604

>  <PUBCHEM_FEATURE_SELFOVERLAP>  (1) 
30.607

>  <PUBCHEM_SHAPE_FINGERPRINT>  (1) 
10411042 1 17617941774033622754
10498660 4 18337673009860470351
10616163 171 18266741285691058993
10675989 125 17324066050255609533
10693767 8 18130487674985579863
10906281 52 18338537281834652321
10967382 1 18410855485908547558
1100329 8 18266741457463279674
11112241 14 16627689634595362016
12011746 2 18410575088958046492
12035758 1 18338799030026371840
12553582 1 18338503196974009380
12788726 201 18341339911831940208
12838862 33 18338778074881388609
12839892 36 18193821657811059010
13140716 1 18266741470348181816
13402501 40 18410856563934756868
138480 1 17762055436947435810
13862211 1 18410569587105167398
14178342 30 17834663908317777904
14223421 5 18050568447732085991
14765038 42 18200333072612518233
14787075 74 18260550025941092091
14790565 3 18410582785540226657
15196674 1 18410855460128161797
15209289 33 18413106186463845109
15927050 60 17692816299254158845
1601671 61 18411136922330779473
16728300 4 17390198487600064858
16945 1 18410575084663078918
19319366 153 17822008748694642138
19591789 44 18410572889934797157
19930381 70 18337953381220723699
20028762 73 18129662049259430751
20510252 161 18342738464662698560
20642791 178 18261126200468576869
20739085 24 18191893178682407913
20775438 99 16618381272207926023
20905425 154 18053665767761356526
21267235 1 18410583885051198343
21279426 13 18338517413315740143
21421861 104 17900261901290873003
22113638 7 18339357577648889804
221490 88 18191592058577422163
23227448 37 18341894151148820599
2334 1 18410856606884429831
23402539 116 18343576356551888958
23558518 356 17829337886366179056
23559900 14 18270679887547056880
23566358 2 18123749755538503287
238 59 17757505860369544973
266924 87 18193550061064119037
2748010 2 18266740362246619162
283562 15 18340487746890842440
3004659 81 18259705593201623948
3178227 256 18336559304209754819
335352 9 18410855464423129535
34934 24 18410851070729893394
350125 39 18266177236874966858
3680242 22 18335420106419791866
484989 97 18047748484761743495
5104073 3 18410855455833195466
5486654 2 18410859867239569292
59755656 215 18265616480995635023
6138700 20 18410857616687515350
7832392 63 18267862976925746330
9709674 26 18122063362726807163

>  <PUBCHEM_SHAPE_MULTIPOLES>  (1) 
493.91
8.61
3.83
0.62
0
0
0
0
0
0
0
0
0
0

>  <PUBCHEM_SHAPE_SELFOVERLAP>  (1) 
1166.627

>  <PUBCHEM_SHAPE_VOLUME>  (1) 
222.6

>  <PUBCHEM_COORDINATE_TYPE>  (1) 
2
5
10

$$$$
