9127
     RDKit          3D

 28 34  0  0  0  0  0  0  0  0999 V2000
   -0.8479    0.4868    0.0003 C   0  0  0  0  0  0  0  0  0  0  0  0
   -2.1022    1.1604    0.0001 C   0  0  0  0  0  0  0  0  0  0  0  0
   -0.8242   -0.9279    0.0005 C   0  0  0  0  0  0  0  0  0  0  0  0
    0.3744    1.2357    0.0003 C   0  0  0  0  0  0  0  0  0  0  0  0
   -3.3238    0.4370   -0.0002 C   0  0  0  0  0  0  0  0  0  0  0  0
    1.6432    0.5647    0.0003 C   0  0  0  0  0  0  0  0  0  0  0  0
   -2.0522   -1.6761    0.0001 C   0  0  0  0  0  0  0  0  0  0  0  0
   -3.2985   -0.9935   -0.0002 C   0  0  0  0  0  0  0  0  0  0  0  0
    1.6576   -0.8391    0.0008 C   0  0  0  0  0  0  0  0  0  0  0  0
   -2.1308    2.5821    0.0002 C   0  0  0  0  0  0  0  0  0  0  0  0
    0.4480   -1.5446    0.0009 C   0  0  0  0  0  0  0  0  0  0  0  0
    0.2789    2.6412    0.0004 C   0  0  0  0  0  0  0  0  0  0  0  0
   -0.9434    3.3018    0.0005 C   0  0  0  0  0  0  0  0  0  0  0  0
    2.9111    1.2113   -0.0003 C   0  0  0  0  0  0  0  0  0  0  0  0
   -4.5253    1.1931   -0.0005 C   0  0  0  0  0  0  0  0  0  0  0  0
    2.8748   -1.5477    0.0011 C   0  0  0  0  0  0  0  0  0  0  0  0
   -3.3413    3.2778    0.0001 C   0  0  0  0  0  0  0  0  0  0  0  0
    4.1332    0.5115   -0.0003 C   0  0  0  0  0  0  0  0  0  0  0  0
   -2.0861   -3.0996   -0.0001 C   0  0  0  0  0  0  0  0  0  0  0  0
    4.1130   -0.8927    0.0005 C   0  0  0  0  0  0  0  0  0  0  0  0
   -4.4861   -1.7775   -0.0006 C   0  0  0  0  0  0  0  0  0  0  0  0
   -4.5370    2.5851   -0.0004 C   0  0  0  0  0  0  0  0  0  0  0  0
   -3.2702   -3.8347   -0.0005 C   0  0  0  0  0  0  0  0  0  0  0  0
   -4.4763   -3.1703   -0.0006 C   0  0  0  0  0  0  0  0  0  0  0  0
    5.3704    1.1795   -0.0013 C   0  0  0  0  0  0  0  0  0  0  0  0
    5.3264   -1.6024    0.0005 C   0  0  0  0  0  0  0  0  0  0  0  0
    6.5682    0.4644   -0.0013 C   0  0  0  0  0  0  0  0  0  0  0  0
    6.5462   -0.9264   -0.0004 C   0  0  0  0  0  0  0  0  0  0  0  0
  1  2  2  0
  1  3  1  0
  1  4  1  0
  2  5  1  0
  2 10  1  0
  3  7  1  0
  3 11  2  0
  4  6  1  0
  4 12  2  0
  5  8  1  0
  5 15  2  0
  6  9  2  0
  6 14  1  0
  7  8  2  0
  7 19  1  0
  8 21  1  0
  9 11  1  0
  9 16  1  0
 10 13  2  0
 10 17  1  0
 12 13  1  0
 14 18  2  0
 15 22  1  0
 16 20  2  0
 17 22  2  0
 18 20  1  0
 18 25  1  0
 19 23  2  0
 20 26  1  0
 21 24  2  0
 23 24  1  0
 25 27  2  0
 26 28  2  0
 27 28  1  0
M  END
>  <PUBCHEM_COMPOUND_CID>  (1) 
9127

>  <PUBCHEM_CONFORMER_RMSD>  (1) 
0.6

>  <PUBCHEM_CONFORMER_DIVERSEORDER>  (1) 
1

>  <PUBCHEM_MMFF94_PARTIAL_CHARGES>  (1) 
32
11 -0.15
12 -0.15
13 -0.15
14 -0.15
15 -0.15
16 -0.15
17 -0.15
19 -0.15
21 -0.15
22 -0.15
23 -0.15
24 -0.15
25 -0.15
26 -0.15
27 -0.15
28 -0.15
29 0.15
30 0.15
31 0.15
32 0.15
33 0.15
34 0.15
35 0.15
36 0.15
37 0.15
38 0.15
39 0.15
40 0.15
41 0.15
42 0.15
43 0.15
44 0.15

>  <PUBCHEM_EFFECTIVE_ROTOR_COUNT>  (1) 
0

>  <PUBCHEM_PHARMACOPHORE_FEATURES>  (1) 
7
6 1 2 3 5 7 8 rings
6 1 2 4 10 12 13 rings
6 1 3 4 6 9 11 rings
6 18 20 25 26 27 28 rings
6 2 5 10 15 17 22 rings
6 6 9 14 16 18 20 rings
6 7 8 19 21 23 24 rings

>  <PUBCHEM_HEAVY_ATOM_COUNT>  (1) 
28

>  <PUBCHEM_ATOM_DEF_STEREO_COUNT>  (1) 
0

>  <PUBCHEM_ATOM_UDEF_STEREO_COUNT>  (1) 
0

>  <PUBCHEM_BOND_DEF_STEREO_COUNT>  (1) 
0

>  <PUBCHEM_BOND_UDEF_STEREO_COUNT>  (1) 
0

>  <PUBCHEM_ISOTOPIC_ATOM_COUNT>  (1) 
0

>  <PUBCHEM_COMPONENT_COUNT>  (1) 
1

>  <PUBCHEM_CACTVS_TAUTO_COUNT>  (1) 
1

>  <PUBCHEM_CONFORMER_ID>  (1) 
000023A700000001

>  <PUBCHEM_MMFF94_ENERGY>  (1) 
115.0949

>  <PUBCHEM_FEATURE_SELFOVERLAP>  (1) 
35.715

>  <PUBCHEM_SHAPE_FINGERPRINT>  (1) 
10050765 1 18410574024671917712
10319926 262 18269257025079798810
10411042 1 18194402432079562499
10483366 6 18339346536512110823
10595046 47 18334859459286031566
10616163 171 18411700988986533062
10675989 125 16966317895823012813
10693767 8 17624679543082289759
10906281 52 18129112142583103445
10967382 1 18194682558551976129
1100329 8 18410858763623222481
11135609 187 18120645835279856685
11227688 84 17256816014237267383
11578080 2 13685199491416111769
11756154 67 17328581718952747314
12107183 9 17974842870636817586
12166972 35 17677612128137782190
12236239 1 17967534558701632252
12403259 226 18269833288677508649
12788726 201 18334287703890564035
12838862 33 18265034861484678413
13140716 1 18341614862289182537
13782708 43 17703507791936623902
138480 1 16249128391211123617
13911987 19 18118668934620917189
14415360 78 18192979440700767989
14765038 42 18057338192960581569
14790565 3 17979922605582740705
14844126 61 18408887360570076451
14866123 147 18411704288249247923
15042514 8 18410857672337174985
15131766 46 15505228948331112839
15196674 1 18410855460666277440
15250474 111 18261661594075461506
15320467 1 18338799039018310630
15361156 5 18042140812250542662
15400415 2 17978509724198108120
15927050 60 18267583503583644007
16087824 20 18410292490177211525
17492 89 18265895954512310587
17844677 252 18410299146548046310
18608769 82 18341328998726099560
19591789 44 18339360876189021600
19958102 18 18191865617818838414
20511986 3 17749660784311908320
20775438 99 16689306348300700063
21033648 29 17631998823998658682
21133410 171 17474047437060092634
21236236 1 18413107259952409559
21267235 1 18337678623414881275
22182313 1 17845952757171879150
23227448 37 18411700950315912396
23402539 116 18411415107510286540
23557571 272 18272093798858605614
23559900 14 18341886399112685336
23569943 247 14475852775680365036
255183 451 17837773692342966271
3178227 256 18337125475774328689
335352 9 18410572929576135231
350125 39 18411703217974274433
3882209 13 16975295936634477758
4073 2 18260553329641511034
4214541 1 18410855443380919712
4616759 239 17988069012060551848
484989 97 18263354941478166567
5104073 3 18341888589772243018
5171179 24 17915445297935321305
57527306 92 15357963527199954439
59755656 215 18269277864034083438
6700243 42 17770255873950514918
70251023 43 17975976784926137219
7237137 82 18333736840138234596
9709674 26 18270966730768378294

>  <PUBCHEM_SHAPE_MULTIPOLES>  (1) 
576.23
12.92
4.27
0.62
18.5
0.37
0
2.64
0
-6.75
0
0
0
0

>  <PUBCHEM_SHAPE_SELFOVERLAP>  (1) 
1369.065

>  <PUBCHEM_SHAPE_VOLUME>  (1) 
258.7

>  <PUBCHEM_COORDINATE_TYPE>  (1) 
2
5
10

$$$$
