9130
     RDKit          3D

 28 34  0  0  0  0  0  0  0  0999 V2000
    2.8943   -0.7081   -0.0001 C   0  0  0  0  0  0  0  0  0  0  0  0
    2.8943    0.7080   -0.0001 C   0  0  0  0  0  0  0  0  0  0  0  0
    0.4287   -0.7103    0.0005 C   0  0  0  0  0  0  0  0  0  0  0  0
    0.4287    0.7104    0.0004 C   0  0  0  0  0  0  0  0  0  0  0  0
    1.6726   -1.4266    0.0002 C   0  0  0  0  0  0  0  0  0  0  0  0
    1.6727    1.4267    0.0001 C   0  0  0  0  0  0  0  0  0  0  0  0
    4.1388   -1.4029   -0.0004 C   0  0  0  0  0  0  0  0  0  0  0  0
    4.1389    1.4029   -0.0003 C   0  0  0  0  0  0  0  0  0  0  0  0
   -0.8314   -1.3706    0.0006 C   0  0  0  0  0  0  0  0  0  0  0  0
   -0.8314    1.3707    0.0006 C   0  0  0  0  0  0  0  0  0  0  0  0
   -2.0645   -0.6978    0.0006 C   0  0  0  0  0  0  0  0  0  0  0  0
   -2.0645    0.6979    0.0006 C   0  0  0  0  0  0  0  0  0  0  0  0
    1.7658   -2.8429    0.0003 C   0  0  0  0  0  0  0  0  0  0  0  0
    1.7659    2.8428    0.0003 C   0  0  0  0  0  0  0  0  0  0  0  0
    5.3419   -0.6943   -0.0008 C   0  0  0  0  0  0  0  0  0  0  0  0
    5.3419    0.6942   -0.0007 C   0  0  0  0  0  0  0  0  0  0  0  0
    4.1687   -2.7982   -0.0003 C   0  0  0  0  0  0  0  0  0  0  0  0
    4.1688    2.7982    0.0000 C   0  0  0  0  0  0  0  0  0  0  0  0
   -3.2904   -1.3889    0.0005 C   0  0  0  0  0  0  0  0  0  0  0  0
   -3.2905    1.3890    0.0005 C   0  0  0  0  0  0  0  0  0  0  0  0
    2.9861   -3.5165    0.0000 C   0  0  0  0  0  0  0  0  0  0  0  0
    2.9863    3.5165    0.0002 C   0  0  0  0  0  0  0  0  0  0  0  0
   -4.5175   -0.7054    0.0000 C   0  0  0  0  0  0  0  0  0  0  0  0
   -4.5174    0.7054   -0.0001 C   0  0  0  0  0  0  0  0  0  0  0  0
   -5.7425   -1.3930   -0.0001 C   0  0  0  0  0  0  0  0  0  0  0  0
   -5.7426    1.3931   -0.0007 C   0  0  0  0  0  0  0  0  0  0  0  0
   -6.9508   -0.6957   -0.0006 C   0  0  0  0  0  0  0  0  0  0  0  0
   -6.9508    0.6956   -0.0011 C   0  0  0  0  0  0  0  0  0  0  0  0
  1  2  1  0
  1  5  2  0
  1  7  1  0
  2  6  2  0
  2  8  1  0
  3  4  1  0
  3  5  1  0
  3  9  2  0
  4  6  1  0
  4 10  2  0
  5 13  1  0
  6 14  1  0
  7 15  1  0
  7 17  2  0
  8 16  1  0
  8 18  2  0
  9 11  1  0
 10 12  1  0
 11 12  2  0
 11 19  1  0
 12 20  1  0
 13 21  2  0
 14 22  2  0
 15 16  2  0
 17 21  1  0
 18 22  1  0
 19 23  2  0
 20 24  2  0
 23 24  1  0
 23 25  1  0
 24 26  1  0
 25 27  2  0
 26 28  2  0
 27 28  1  0
M  END
>  <PUBCHEM_COMPOUND_CID>  (1) 
9130

>  <PUBCHEM_CONFORMER_RMSD>  (1) 
0.6

>  <PUBCHEM_CONFORMER_DIVERSEORDER>  (1) 
1

>  <PUBCHEM_MMFF94_PARTIAL_CHARGES>  (1) 
32
10 -0.15
13 -0.15
14 -0.15
15 -0.15
16 -0.15
17 -0.15
18 -0.15
19 -0.15
20 -0.15
21 -0.15
22 -0.15
25 -0.15
26 -0.15
27 -0.15
28 -0.15
29 0.15
30 0.15
31 0.15
32 0.15
33 0.15
34 0.15
35 0.15
36 0.15
37 0.15
38 0.15
39 0.15
40 0.15
41 0.15
42 0.15
43 0.15
44 0.15
9 -0.15

>  <PUBCHEM_EFFECTIVE_ROTOR_COUNT>  (1) 
0

>  <PUBCHEM_PHARMACOPHORE_FEATURES>  (1) 
7
6 1 2 3 4 5 6 rings
6 1 2 7 8 15 16 rings
6 1 5 7 13 17 21 rings
6 11 12 19 20 23 24 rings
6 2 6 8 14 18 22 rings
6 23 24 25 26 27 28 rings
6 3 4 9 10 11 12 rings

>  <PUBCHEM_HEAVY_ATOM_COUNT>  (1) 
28

>  <PUBCHEM_ATOM_DEF_STEREO_COUNT>  (1) 
0

>  <PUBCHEM_ATOM_UDEF_STEREO_COUNT>  (1) 
0

>  <PUBCHEM_BOND_DEF_STEREO_COUNT>  (1) 
0

>  <PUBCHEM_BOND_UDEF_STEREO_COUNT>  (1) 
0

>  <PUBCHEM_ISOTOPIC_ATOM_COUNT>  (1) 
0

>  <PUBCHEM_COMPONENT_COUNT>  (1) 
1

>  <PUBCHEM_CACTVS_TAUTO_COUNT>  (1) 
1

>  <PUBCHEM_CONFORMER_ID>  (1) 
000023AA00000001

>  <PUBCHEM_MMFF94_ENERGY>  (1) 
110.4705

>  <PUBCHEM_FEATURE_SELFOVERLAP>  (1) 
35.721

>  <PUBCHEM_SHAPE_FINGERPRINT>  (1) 
10165383 225 18261397814759441516
10411042 1 18050568448598061126
10595046 47 18342457075943860725
10693767 8 18130515133064892030
10835480 77 18336257969331134621
10967382 1 18410856534809002086
1100329 8 18339639062112612930
11135609 187 18337956817564325984
11578080 2 13697025984513137612
11719270 70 18411131468292038896
11963148 33 18335414724837254627
12107183 9 17909838635090406713
12166972 35 18202282476668750449
12236239 1 18060420214289092121
12403259 415 17968086517702141189
12730499 353 18337398235069690739
12788726 201 17346608443647993353
12838862 33 18339907299994888000
13009979 54 17702107958856815426
13140716 1 18266169720887654592
13402501 40 18334295370280007941
13533116 47 18343301465923540785
1361 2 18409448128400055490
13782708 43 17604147017604147443
13785724 45 17911528592514506870
138480 1 18338798897605064898
14170010 4 18410854360648384008
14341114 176 18411705361695549091
14790565 3 17904769130329703548
15183329 4 18410855443565607633
15196674 1 18410573985673651585
15250474 111 18129085870706283647
15439362 3 18121222249934710508
15927050 60 18125158497007990830
16120349 18 18410853266455090381
16992752 21 17760652465498014202
17492 89 18123750846856536430
17844677 252 18340211804338092617
1813 80 17022905631581492269
18681886 176 18343297063998988754
19427546 62 18264208196027329506
1979834 28 18059565846526208810
20028762 73 18272932717667746222
20511986 3 17917699249358387605
21033648 29 17240754074270130133
21033650 10 16081930313614496221
21133410 127 17896594166682986829
21197605 99 18266744768984123211
21267235 1 18340492166828836734
21279426 13 18263923237906073181
21859007 373 17532074017987728925
22149856 69 18265632029869153139
23522609 53 17844832411401756585
23559900 14 18411132537190243457
239999 70 18272939306215773342
24771293 8 18129080386512607128
255183 451 17985272872234660486
27425 322 16443913915417720664
3004659 81 18333732399205171624
335352 9 18410576206551532686
3411729 13 18335136540189555584
350125 39 18410575080690293813
3633792 109 18337946806570084733
3882209 13 16819359405032198051
4015057 19 18410847790213474025
4073 2 18114467867877956555
4093350 32 17346602971759249044
4144715 1 18335149652951388275
46194498 28 17749111097249302188
5104073 3 18408328774640479611
513532 50 18131362899394489036
57527306 92 15410597226210215074
59755656 215 18408606971771256748
6443956 14 18409169879402817460
67856867 119 18413386557829152537
70251023 43 18049728417234870082
8272917 22 18411983576596968422
9709674 26 18335706052531498667
9995097 60 18409165519799917837

>  <PUBCHEM_SHAPE_MULTIPOLES>  (1) 
576.23
15.18
3.54
0.62
21.82
0
0
0
-0.01
-5.28
0
0
0
0

>  <PUBCHEM_SHAPE_SELFOVERLAP>  (1) 
1370.51

>  <PUBCHEM_SHAPE_VOLUME>  (1) 
257.4

>  <PUBCHEM_COORDINATE_TYPE>  (1) 
2
5
10

$$$$
