9131
     RDKit          3D

 22 27  0  0  0  0  0  0  0  0999 V2000
   -0.3992    0.3615    0.0005 C   0  0  0  0  0  0  0  0  0  0  0  0
    0.9385    0.7276    0.0005 C   0  0  0  0  0  0  0  0  0  0  0  0
   -0.8517   -0.9459    0.0006 C   0  0  0  0  0  0  0  0  0  0  0  0
   -1.4541    1.2567    0.0004 C   0  0  0  0  0  0  0  0  0  0  0  0
    1.8920   -0.3025    0.0003 C   0  0  0  0  0  0  0  0  0  0  0  0
   -2.3079   -0.9005    0.0003 C   0  0  0  0  0  0  0  0  0  0  0  0
   -2.6846    0.4773    0.0002 C   0  0  0  0  0  0  0  0  0  0  0  0
    1.2514    2.0940    0.0002 C   0  0  0  0  0  0  0  0  0  0  0  0
    1.4631   -1.6647    0.0002 C   0  0  0  0  0  0  0  0  0  0  0  0
    0.0763   -1.9764    0.0004 C   0  0  0  0  0  0  0  0  0  0  0  0
    3.2533    0.0543   -0.0002 C   0  0  0  0  0  0  0  0  0  0  0  0
   -1.1756    2.6121    0.0002 C   0  0  0  0  0  0  0  0  0  0  0  0
    0.1752    3.0278    0.0001 C   0  0  0  0  0  0  0  0  0  0  0  0
    2.6149    2.4277   -0.0005 C   0  0  0  0  0  0  0  0  0  0  0  0
    3.5987    1.4232   -0.0005 C   0  0  0  0  0  0  0  0  0  0  0  0
   -3.2599   -1.9013   -0.0001 C   0  0  0  0  0  0  0  0  0  0  0  0
   -4.0133    0.8549   -0.0006 C   0  0  0  0  0  0  0  0  0  0  0  0
    2.4508   -2.6580    0.0000 C   0  0  0  0  0  0  0  0  0  0  0  0
    4.2058   -0.9752   -0.0004 C   0  0  0  0  0  0  0  0  0  0  0  0
    3.8067   -2.3153   -0.0004 C   0  0  0  0  0  0  0  0  0  0  0  0
   -4.6043   -1.5180   -0.0004 C   0  0  0  0  0  0  0  0  0  0  0  0
   -4.9759   -0.1589   -0.0006 C   0  0  0  0  0  0  0  0  0  0  0  0
  1  2  2  0
  1  3  1  0
  1  4  1  0
  2  5  1  0
  2  8  1  0
  3  6  1  0
  3 10  2  0
  4  7  1  0
  4 12  2  0
  5  9  2  0
  5 11  1  0
  6  7  2  0
  6 16  1  0
  7 17  1  0
  8 13  2  0
  8 14  1  0
  9 10  1  0
  9 18  1  0
 11 15  1  0
 11 19  2  0
 12 13  1  0
 14 15  2  0
 16 21  2  0
 17 22  2  0
 18 20  2  0
 19 20  1  0
 21 22  1  0
M  END
>  <PUBCHEM_COMPOUND_CID>  (1) 
9131

>  <PUBCHEM_CONFORMER_RMSD>  (1) 
0.6

>  <PUBCHEM_CONFORMER_DIVERSEORDER>  (1) 
1

>  <PUBCHEM_MMFF94_PARTIAL_CHARGES>  (1) 
24
10 -0.15
12 -0.15
13 -0.15
14 -0.15
15 -0.15
16 -0.15
17 -0.15
18 -0.15
19 -0.15
20 -0.15
21 -0.15
22 -0.15
23 0.15
24 0.15
25 0.15
26 0.15
27 0.15
28 0.15
29 0.15
30 0.15
31 0.15
32 0.15
33 0.15
34 0.15

>  <PUBCHEM_EFFECTIVE_ROTOR_COUNT>  (1) 
0

>  <PUBCHEM_PHARMACOPHORE_FEATURES>  (1) 
6
5 1 3 4 6 7 rings
6 1 2 3 5 9 10 rings
6 1 2 4 8 12 13 rings
6 2 5 8 11 14 15 rings
6 5 9 11 18 19 20 rings
6 6 7 16 17 21 22 rings

>  <PUBCHEM_HEAVY_ATOM_COUNT>  (1) 
22

>  <PUBCHEM_ATOM_DEF_STEREO_COUNT>  (1) 
0

>  <PUBCHEM_ATOM_UDEF_STEREO_COUNT>  (1) 
0

>  <PUBCHEM_BOND_DEF_STEREO_COUNT>  (1) 
0

>  <PUBCHEM_BOND_UDEF_STEREO_COUNT>  (1) 
0

>  <PUBCHEM_ISOTOPIC_ATOM_COUNT>  (1) 
0

>  <PUBCHEM_COMPONENT_COUNT>  (1) 
1

>  <PUBCHEM_CACTVS_TAUTO_COUNT>  (1) 
1

>  <PUBCHEM_CONFORMER_ID>  (1) 
000023AB00000001

>  <PUBCHEM_MMFF94_ENERGY>  (1) 
97.8451

>  <PUBCHEM_FEATURE_SELFOVERLAP>  (1) 
30.86

>  <PUBCHEM_SHAPE_FINGERPRINT>  (1) 
10319926 262 17763154979742706042
10411042 1 18266741281713174434
10616163 171 18412829057835918983
10863032 1 18340488962376792089
10906281 52 18189911961992824488
10967382 1 18338799042974582980
1100329 8 17039787266673606163
11471102 20 18410290345542878421
11578080 2 17241873307796827470
116883 192 18268150864029894356
11963148 33 17830731320098269411
12236239 1 17846500353207728779
12403259 226 18337948974800523356
12553582 1 18339071610131508806
12838862 33 18267566074500731740
13140716 1 18339925909191038792
138480 1 18410575106386354916
14178342 30 18122894348978564064
14223421 5 18410570643883361116
14790565 3 17904771324900067508
14866123 147 17620477908938915411
15042514 8 17689431590685255882
15196674 1 18410856572772643777
15230672 131 13867263941501147675
15442244 35 18340208492491026569
15536298 74 18342176691092206306
15927050 60 17909267232915107356
16087824 20 18049726218380588149
16945 1 18266740177673886144
17492 89 18339642351451608263
1813 80 17458628908277495277
19591789 44 18338799025831909951
200 152 18202560692276862311
20645477 70 18335414716383423875
20691752 17 17749389265011153137
20739085 24 18264794128324768001
20905425 154 18341335496325816236
21267235 1 18411146813603961007
21279426 13 18336540500721996797
21421861 104 18115020788586557978
221490 88 18335708294546599195
22182313 1 18263905718365675220
23184049 29 18266742385461117262
2334 1 18338799021473398732
23366157 5 18113619023188852836
23559900 14 18411412891370452184
2748010 2 18410566271664806044
335352 9 18266741286150073277
34934 24 18340762736371555119
350125 39 18410856543119589192
3886686 26 16749275408959841578
46194498 28 17604423132825189421
484985 159 15295716681668623610
5104073 3 18411139143166540899
59755656 215 18410295835323485678
6443956 14 18408887342968018884
7364860 26 18412262877971937546
9709674 26 18335705004701987667
9981440 41 17473818901833604489

>  <PUBCHEM_SHAPE_MULTIPOLES>  (1) 
452.75
8.18
3.31
0.62
4.6
0.85
0
-3.19
0
-1.7
0
0
0
0

>  <PUBCHEM_SHAPE_SELFOVERLAP>  (1) 
1089.082

>  <PUBCHEM_SHAPE_VOLUME>  (1) 
203.6

>  <PUBCHEM_COORDINATE_TYPE>  (1) 
2
5
10

$$$$
