9133
     RDKit          3D

 16 19  0  0  0  0  0  0  0  0999 V2000
   -0.7340    2.4023    0.0000 N   0  0  0  0  0  0  0  0  0  0  0  0
    0.7053   -0.0003    0.0002 C   0  0  0  0  0  0  0  0  0  0  0  0
   -0.7067   -0.0057    0.0003 C   0  0  0  0  0  0  0  0  0  0  0  0
    1.4252   -1.2165    0.0001 C   0  0  0  0  0  0  0  0  0  0  0  0
   -1.4064   -1.2345    0.0002 C   0  0  0  0  0  0  0  0  0  0  0  0
    1.3928    1.2253    0.0001 C   0  0  0  0  0  0  0  0  0  0  0  0
   -1.3898    1.2276    0.0001 C   0  0  0  0  0  0  0  0  0  0  0  0
    0.7160   -2.4260    0.0002 C   0  0  0  0  0  0  0  0  0  0  0  0
   -0.6814   -2.4349   -0.0001 C   0  0  0  0  0  0  0  0  0  0  0  0
    2.8285   -1.1793   -0.0002 C   0  0  0  0  0  0  0  0  0  0  0  0
   -2.8056   -1.2168   -0.0003 C   0  0  0  0  0  0  0  0  0  0  0  0
    2.7962    1.2387    0.0000 C   0  0  0  0  0  0  0  0  0  0  0  0
    0.6203    2.3826   -0.0002 C   0  0  0  0  0  0  0  0  0  0  0  0
   -2.7802    1.2006    0.0001 C   0  0  0  0  0  0  0  0  0  0  0  0
    3.5075    0.0401   -0.0002 C   0  0  0  0  0  0  0  0  0  0  0  0
   -3.4876   -0.0034   -0.0003 C   0  0  0  0  0  0  0  0  0  0  0  0
  1  7  2  0
  1 13  1  0
  2  3  2  0
  2  4  1  0
  2  6  1  0
  3  5  1  0
  3  7  1  0
  4  8  1  0
  4 10  2  0
  5  9  1  0
  5 11  2  0
  6 12  1  0
  6 13  2  0
  7 14  1  0
  8  9  2  0
 10 15  1  0
 11 16  1  0
 12 15  2  0
 14 16  2  0
M  END
>  <PUBCHEM_COMPOUND_CID>  (1) 
9133

>  <PUBCHEM_CONFORMER_RMSD>  (1) 
0.4

>  <PUBCHEM_CONFORMER_DIVERSEORDER>  (1) 
1

>  <PUBCHEM_MMFF94_PARTIAL_CHARGES>  (1) 
20
1 -0.62
10 -0.15
11 -0.15
12 -0.15
13 0.16
14 -0.15
15 -0.15
16 -0.15
17 0.15
18 0.15
19 0.15
20 0.15
21 0.15
22 0.15
23 0.15
24 0.15
25 0.15
7 0.31
8 -0.15
9 -0.15

>  <PUBCHEM_EFFECTIVE_ROTOR_COUNT>  (1) 
0

>  <PUBCHEM_PHARMACOPHORE_FEATURES>  (1) 
5
1 1 acceptor
6 1 2 3 6 7 13 rings
6 2 3 4 5 8 9 rings
6 2 4 6 10 12 15 rings
6 3 5 7 11 14 16 rings

>  <PUBCHEM_HEAVY_ATOM_COUNT>  (1) 
16

>  <PUBCHEM_ATOM_DEF_STEREO_COUNT>  (1) 
0

>  <PUBCHEM_ATOM_UDEF_STEREO_COUNT>  (1) 
0

>  <PUBCHEM_BOND_DEF_STEREO_COUNT>  (1) 
0

>  <PUBCHEM_BOND_UDEF_STEREO_COUNT>  (1) 
0

>  <PUBCHEM_ISOTOPIC_ATOM_COUNT>  (1) 
0

>  <PUBCHEM_COMPONENT_COUNT>  (1) 
1

>  <PUBCHEM_CACTVS_TAUTO_COUNT>  (1) 
1

>  <PUBCHEM_CONFORMER_ID>  (1) 
000023AD00000001

>  <PUBCHEM_MMFF94_ENERGY>  (1) 
55.3362

>  <PUBCHEM_FEATURE_SELFOVERLAP>  (1) 
25.512

>  <PUBCHEM_SHAPE_FINGERPRINT>  (1) 
10967382 1 18410575097553359495
11132069 177 18412538804030276008
11471102 20 18410288104050017381
12382932 28 18411698781272804474
13140716 1 18410573942207059890
13221675 6 18410575088974032870
13380535 76 18410854364917185314
13897977 150 18338514145130548509
14614273 12 18115864096983623573
14790565 3 18338538385647321153
15196674 1 18410855464423135590
15309172 13 18411709772305202491
15536298 74 18343864416098332550
16945 1 18122624946542803810
193761 8 17762336916244818438
19591789 44 18410579487010455690
20510252 161 18272369750344285344
20588541 1 18410858758668319886
20905425 154 18053102822250738470
21267235 1 18410583885056719942
21501502 16 18410856551055142730
22721475 48 18410578383208628676
2334 1 18410575119022823782
23402539 116 18342446054593692262
23419403 2 16041883028775245571
23463225 33 18408039598201895944
23559900 14 18270688679629955092
2748010 2 18410574002331333415
2897 32 18337111168056116540
335352 9 18122624942247817462
5104073 3 18410575084663086418
528886 8 18411414016388139714
53812653 166 18342173384099361344
589210 1 17762056532168578567
7364860 26 18198061365757258302
8809292 202 18261397753680151274

>  <PUBCHEM_SHAPE_MULTIPOLES>  (1) 
324.29
4.83
2.75
0.61
0.01
0.08
0
-0.13
0
-0.01
0
0
0.01
0

>  <PUBCHEM_SHAPE_SELFOVERLAP>  (1) 
761.282

>  <PUBCHEM_SHAPE_VOLUME>  (1) 
162.8

>  <PUBCHEM_COORDINATE_TYPE>  (1) 
2
5
10

$$$$
