9138
     RDKit          3D

 28 34  0  0  0  0  0  0  0  0999 V2000
    2.5290    0.2557    0.0006 C   0  0  0  0  0  0  0  0  0  0  0  0
    1.4500   -0.6681    0.0014 C   0  0  0  0  0  0  0  0  0  0  0  0
    0.0965   -0.1781    0.0017 C   0  0  0  0  0  0  0  0  0  0  0  0
    3.8800   -0.1931   -0.0001 C   0  0  0  0  0  0  0  0  0  0  0  0
    2.2734    1.6436    0.0005 C   0  0  0  0  0  0  0  0  0  0  0  0
   -0.1301    1.2174    0.0013 C   0  0  0  0  0  0  0  0  0  0  0  0
    0.9535    2.1022    0.0007 C   0  0  0  0  0  0  0  0  0  0  0  0
    4.1694   -1.5745   -0.0003 C   0  0  0  0  0  0  0  0  0  0  0  0
    4.9472    0.7380   -0.0010 C   0  0  0  0  0  0  0  0  0  0  0  0
   -2.3682   -0.4992    0.0019 C   0  0  0  0  0  0  0  0  0  0  0  0
   -1.0548   -1.0079    0.0023 C   0  0  0  0  0  0  0  0  0  0  0  0
   -2.5621    0.8904    0.0012 C   0  0  0  0  0  0  0  0  0  0  0  0
    1.7889   -2.0408    0.0013 C   0  0  0  0  0  0  0  0  0  0  0  0
   -1.4396    1.7298    0.0011 C   0  0  0  0  0  0  0  0  0  0  0  0
    3.3407    2.5519   -0.0003 C   0  0  0  0  0  0  0  0  0  0  0  0
    3.1138   -2.4854    0.0005 C   0  0  0  0  0  0  0  0  0  0  0  0
    4.6607    2.1059   -0.0010 C   0  0  0  0  0  0  0  0  0  0  0  0
   -3.4891   -1.3486    0.0016 C   0  0  0  0  0  0  0  0  0  0  0  0
   -3.8696    1.4071    0.0002 C   0  0  0  0  0  0  0  0  0  0  0  0
    5.5036   -2.0085   -0.0014 C   0  0  0  0  0  0  0  0  0  0  0  0
    6.2722    0.2777   -0.0020 C   0  0  0  0  0  0  0  0  0  0  0  0
   -4.7975   -0.8371    0.0004 C   0  0  0  0  0  0  0  0  0  0  0  0
   -4.9905    0.5610   -0.0002 C   0  0  0  0  0  0  0  0  0  0  0  0
    6.5475   -1.0873   -0.0023 C   0  0  0  0  0  0  0  0  0  0  0  0
   -5.9173   -1.6854   -0.0009 C   0  0  0  0  0  0  0  0  0  0  0  0
   -6.2982    1.0744   -0.0017 C   0  0  0  0  0  0  0  0  0  0  0  0
   -7.2095   -1.1598   -0.0026 C   0  0  0  0  0  0  0  0  0  0  0  0
   -7.3998    0.2186   -0.0029 C   0  0  0  0  0  0  0  0  0  0  0  0
  1  2  2  0
  1  4  1  0
  1  5  1  0
  2  3  1  0
  2 13  1  0
  3  6  2  0
  3 11  1  0
  4  8  2  0
  4  9  1  0
  5  7  2  0
  5 15  1  0
  6  7  1  0
  6 14  1  0
  8 16  1  0
  8 20  1  0
  9 17  1  0
  9 21  2  0
 10 11  2  0
 10 12  1  0
 10 18  1  0
 12 14  2  0
 12 19  1  0
 13 16  2  0
 15 17  2  0
 18 22  2  0
 19 23  2  0
 20 24  2  0
 21 24  1  0
 22 23  1  0
 22 25  1  0
 23 26  1  0
 25 27  2  0
 26 28  2  0
 27 28  1  0
M  END
>  <PUBCHEM_COMPOUND_CID>  (1) 
9138

>  <PUBCHEM_CONFORMER_RMSD>  (1) 
0.6

>  <PUBCHEM_CONFORMER_DIVERSEORDER>  (1) 
1

>  <PUBCHEM_MMFF94_PARTIAL_CHARGES>  (1) 
32
11 -0.15
13 -0.15
14 -0.15
15 -0.15
16 -0.15
17 -0.15
18 -0.15
19 -0.15
20 -0.15
21 -0.15
24 -0.15
25 -0.15
26 -0.15
27 -0.15
28 -0.15
29 0.15
30 0.15
31 0.15
32 0.15
33 0.15
34 0.15
35 0.15
36 0.15
37 0.15
38 0.15
39 0.15
40 0.15
41 0.15
42 0.15
43 0.15
44 0.15
7 -0.15

>  <PUBCHEM_EFFECTIVE_ROTOR_COUNT>  (1) 
0

>  <PUBCHEM_PHARMACOPHORE_FEATURES>  (1) 
7
6 1 2 3 5 6 7 rings
6 1 2 4 8 13 16 rings
6 1 4 5 9 15 17 rings
6 10 12 18 19 22 23 rings
6 22 23 25 26 27 28 rings
6 3 6 10 11 12 14 rings
6 4 8 9 20 21 24 rings

>  <PUBCHEM_HEAVY_ATOM_COUNT>  (1) 
28

>  <PUBCHEM_ATOM_DEF_STEREO_COUNT>  (1) 
0

>  <PUBCHEM_ATOM_UDEF_STEREO_COUNT>  (1) 
0

>  <PUBCHEM_BOND_DEF_STEREO_COUNT>  (1) 
0

>  <PUBCHEM_BOND_UDEF_STEREO_COUNT>  (1) 
0

>  <PUBCHEM_ISOTOPIC_ATOM_COUNT>  (1) 
0

>  <PUBCHEM_COMPONENT_COUNT>  (1) 
1

>  <PUBCHEM_CACTVS_TAUTO_COUNT>  (1) 
1

>  <PUBCHEM_CONFORMER_ID>  (1) 
000023B200000001

>  <PUBCHEM_MMFF94_ENERGY>  (1) 
105.144

>  <PUBCHEM_FEATURE_SELFOVERLAP>  (1) 
35.727

>  <PUBCHEM_SHAPE_FINGERPRINT>  (1) 
10050765 1 18122344584252961548
10299344 5 18272091604473215099
10411042 1 18122626060132206982
10595046 47 18413108385851169025
10835480 77 18336539448513258741
11135609 187 18192998334208758784
11497681 19 18267577087403521327
11524674 6 16702301269922747895
11578080 2 13552626031657982188
117089 54 17698736809416088942
11719270 70 18272086089166027686
11963148 33 18409441488387137654
12107183 9 17837215870505714593
12166972 35 18334860527873772876
12236239 1 18130788966893225409
12516196 113 18272930518253541673
12788726 201 17346326972955706953
13402501 40 18407760334906827243
13533116 47 18343301487235022376
13685833 64 18409450280231424675
13782708 43 17749385931974490026
14170010 4 18410291419749062448
14251764 18 18343866619616950529
14341114 176 18411140237955822103
14933364 13 18408887339179109277
15183329 4 18409446973465367953
15196674 1 18410575089000419617
15361156 5 17968105277918693295
15510794 2 18113621210498500683
15927050 60 17695623340177402716
16728300 4 17390199579065343314
17492 89 18122623847649127586
17844677 252 18411424981756397673
17857418 61 18411138026037115153
1813 80 17167861963053364741
18681886 176 18343014506257762586
20028762 73 18272088275531468622
21033650 10 16443339815945730605
21130935 74 18272089404907056595
21197605 99 18340771558435497286
21267235 1 18412549782351877822
21279426 13 18336543824752260213
21792934 111 18341881970489473065
221357 26 18409166597699747452
22149856 69 18339936982434587721
23522609 53 18122095102277538732
23559900 14 18338230570194762489
23569943 247 17605829218522780723
255183 451 17985273967788989566
27425 322 16226898911945267736
3004659 81 18260546723148216776
335352 9 18410295818164813014
34797466 226 16630529553160725528
350125 39 18411418401555224916
3545911 37 18409729564759093973
3633792 109 18410569549452859573
397830 11 14763481898975284039
4073 2 18041283286884518963
4093350 32 16988846103586906460
4325135 7 18411700984638668935
46194498 28 17603865641337728156
465052 167 18272653428981635926
5104073 3 18412545400963049209
59755656 215 18334577932052548406

>  <PUBCHEM_SHAPE_MULTIPOLES>  (1) 
576.23
18.53
2.55
0.62
16.21
0.14
0
-4.08
0.02
-2.24
0
0
0
0

>  <PUBCHEM_SHAPE_SELFOVERLAP>  (1) 
1372.151

>  <PUBCHEM_SHAPE_VOLUME>  (1) 
256.7

>  <PUBCHEM_COORDINATE_TYPE>  (1) 
2
5
10

$$$$
