9139
     RDKit          3D

 32 39  0  0  0  0  0  0  0  0999 V2000
   -3.6810   -0.2329    0.0006 C   0  0  0  0  0  0  0  0  0  0  0  0
   -2.5741    0.6574    0.0014 C   0  0  0  0  0  0  0  0  0  0  0  0
   -1.2364    0.1258    0.0025 C   0  0  0  0  0  0  0  0  0  0  0  0
   -5.0176    0.2574   -0.0009 C   0  0  0  0  0  0  0  0  0  0  0  0
   -1.0528   -1.2759    0.0021 C   0  0  0  0  0  0  0  0  0  0  0  0
   -3.4683   -1.6279    0.0011 C   0  0  0  0  0  0  0  0  0  0  0  0
    1.2370    0.3705    0.0038 C   0  0  0  0  0  0  0  0  0  0  0  0
    1.3878   -1.0239    0.0023 C   0  0  0  0  0  0  0  0  0  0  0  0
   -2.1633   -2.1271    0.0018 C   0  0  0  0  0  0  0  0  0  0  0  0
   -5.2642    1.6471   -0.0019 C   0  0  0  0  0  0  0  0  0  0  0  0
   -0.0599    0.9197    0.0038 C   0  0  0  0  0  0  0  0  0  0  0  0
   -6.1130   -0.6404   -0.0016 C   0  0  0  0  0  0  0  0  0  0  0  0
    0.2402   -1.8286    0.0018 C   0  0  0  0  0  0  0  0  0  0  0  0
   -2.8705    2.0398    0.0005 C   0  0  0  0  0  0  0  0  0  0  0  0
   -4.5632   -2.5029    0.0005 C   0  0  0  0  0  0  0  0  0  0  0  0
   -4.1810    2.5249   -0.0010 C   0  0  0  0  0  0  0  0  0  0  0  0
    3.6767    0.6322    0.0034 C   0  0  0  0  0  0  0  0  0  0  0  0
    3.8261   -0.7682    0.0009 C   0  0  0  0  0  0  0  0  0  0  0  0
    2.3842    1.1838    0.0048 C   0  0  0  0  0  0  0  0  0  0  0  0
    2.6792   -1.5797    0.0008 C   0  0  0  0  0  0  0  0  0  0  0  0
   -5.8688   -2.0165   -0.0007 C   0  0  0  0  0  0  0  0  0  0  0  0
   -6.5843    2.1220   -0.0036 C   0  0  0  0  0  0  0  0  0  0  0  0
   -7.4231   -0.1394   -0.0033 C   0  0  0  0  0  0  0  0  0  0  0  0
    4.8221    1.4463    0.0042 C   0  0  0  0  0  0  0  0  0  0  0  0
    5.1174   -1.3227   -0.0019 C   0  0  0  0  0  0  0  0  0  0  0  0
   -7.6563    1.2335   -0.0044 C   0  0  0  0  0  0  0  0  0  0  0  0
    6.1136    0.8936    0.0012 C   0  0  0  0  0  0  0  0  0  0  0  0
    6.2633   -0.5103   -0.0024 C   0  0  0  0  0  0  0  0  0  0  0  0
    7.2592    1.7067    0.0013 C   0  0  0  0  0  0  0  0  0  0  0  0
    7.5545   -1.0635   -0.0067 C   0  0  0  0  0  0  0  0  0  0  0  0
    8.5345    1.1414   -0.0031 C   0  0  0  0  0  0  0  0  0  0  0  0
    8.6819   -0.2420   -0.0074 C   0  0  0  0  0  0  0  0  0  0  0  0
  1  2  1  0
  1  4  1  0
  1  6  2  0
  2  3  2  0
  2 14  1  0
  3  5  1  0
  3 11  1  0
  4 10  2  0
  4 12  1  0
  5  9  2  0
  5 13  1  0
  6  9  1  0
  6 15  1  0
  7  8  1  0
  7 11  2  0
  7 19  1  0
  8 13  2  0
  8 20  1  0
 10 16  1  0
 10 22  1  0
 12 21  1  0
 12 23  2  0
 14 16  2  0
 15 21  2  0
 17 18  1  0
 17 19  2  0
 17 24  1  0
 18 20  2  0
 18 25  1  0
 22 26  2  0
 23 26  1  0
 24 27  2  0
 25 28  2  0
 27 28  1  0
 27 29  1  0
 28 30  1  0
 29 31  2  0
 30 32  2  0
 31 32  1  0
M  END
>  <PUBCHEM_COMPOUND_CID>  (1) 
9139

>  <PUBCHEM_CONFORMER_RMSD>  (1) 
0.6

>  <PUBCHEM_CONFORMER_DIVERSEORDER>  (1) 
1

>  <PUBCHEM_MMFF94_PARTIAL_CHARGES>  (1) 
36
11 -0.15
13 -0.15
14 -0.15
15 -0.15
16 -0.15
19 -0.15
20 -0.15
21 -0.15
22 -0.15
23 -0.15
24 -0.15
25 -0.15
26 -0.15
29 -0.15
30 -0.15
31 -0.15
32 -0.15
33 0.15
34 0.15
35 0.15
36 0.15
37 0.15
38 0.15
39 0.15
40 0.15
41 0.15
42 0.15
43 0.15
44 0.15
45 0.15
46 0.15
47 0.15
48 0.15
49 0.15
50 0.15
9 -0.15

>  <PUBCHEM_EFFECTIVE_ROTOR_COUNT>  (1) 
0

>  <PUBCHEM_PHARMACOPHORE_FEATURES>  (1) 
8
6 1 2 3 5 6 9 rings
6 1 2 4 10 14 16 rings
6 1 4 6 12 15 21 rings
6 17 18 24 25 27 28 rings
6 27 28 29 30 31 32 rings
6 3 5 7 8 11 13 rings
6 4 10 12 22 23 26 rings
6 7 8 17 18 19 20 rings

>  <PUBCHEM_HEAVY_ATOM_COUNT>  (1) 
32

>  <PUBCHEM_ATOM_DEF_STEREO_COUNT>  (1) 
0

>  <PUBCHEM_ATOM_UDEF_STEREO_COUNT>  (1) 
0

>  <PUBCHEM_BOND_DEF_STEREO_COUNT>  (1) 
0

>  <PUBCHEM_BOND_UDEF_STEREO_COUNT>  (1) 
0

>  <PUBCHEM_ISOTOPIC_ATOM_COUNT>  (1) 
0

>  <PUBCHEM_COMPONENT_COUNT>  (1) 
1

>  <PUBCHEM_CACTVS_TAUTO_COUNT>  (1) 
1

>  <PUBCHEM_CONFORMER_ID>  (1) 
000023B300000001

>  <PUBCHEM_MMFF94_ENERGY>  (1) 
120.5137

>  <PUBCHEM_FEATURE_SELFOVERLAP>  (1) 
40.829

>  <PUBCHEM_SHAPE_FINGERPRINT>  (1) 
10 15 18260268538126926593
10050765 1 18122344571457483596
10076449 9 17846499253812152355
100830 39 18410292484664016685
10299344 5 18259984877555063962
10411042 1 17978228589663030343
10580692 12 18411419514421304954
10666366 153 18130235887450001230
11007060 377 18334862744128996155
11135926 11 18261383438760154927
11315181 36 18334858329561965601
11524674 6 16702303485524570351
11578080 2 16952512617160992455
11719270 70 18131068217441510566
12236239 1 18259703402156477098
13811026 1 18343586222650950038
13885169 127 18410855460207464968
14118638 360 15430304799079049328
14251764 18 18333448751164906678
14394314 77 18338802204736229633
14933364 13 18411982464316411640
15021287 119 17530689822478331813
15183329 4 18411136926852658770
15419008 145 18188478074830151568
15419008 47 17561077003987175624
15461852 350 17632571682699938711
15510794 2 18131072615878002622
15604295 49 18129092489641426296
1577012 14 18334288756152068434
15840311 113 18187087270146561484
15849732 13 18333732416248118580
15890870 6 18410571757229144829
15927050 60 18408038528645653579
16087824 20 18337390436522943789
16989713 51 17416677145679667327
18608769 82 18412261757011879601
18681886 176 18341043103199243969
19315958 150 18270405963222546725
19611394 137 17969798551858880523
19841028 212 18336543804127412666
21033648 29 18058996394091840160
21057603 40 16773525374312750566
21130935 74 18409728457190951138
21236236 1 18411136943700088303
21267235 1 18409452517672268875
21792934 111 18273205393110405760
21792961 116 17703795791205481594
23559900 14 18341887541726869513
23576562 1 16987702662216235225
3004659 81 18334574651224834256
335352 9 18411696591704633861
350125 39 18410854373633480101
4073 2 18113904900760633282
4098825 35 18410572894688765576
4325135 7 18409448089544915709
4339292 15 16630232728435253743
44280117 145 17916019239058258151
44802255 64 16950828260222187271
5265222 85 18200872984603936878
5758199 1 17822009809308776106
59567204 34 18411418410878376001
6086070 43 17346308340796720019
6669772 16 17131841940826913846
9831232 110 18201449022272568182
99344 41 18410573972715390454

>  <PUBCHEM_SHAPE_MULTIPOLES>  (1) 
658.54
25.5
2.49
0.62
24.8
0.05
0
-6.01
0.05
-2.77
0
0
0
0.01

>  <PUBCHEM_SHAPE_SELFOVERLAP>  (1) 
1572.746

>  <PUBCHEM_SHAPE_VOLUME>  (1) 
290.7

>  <PUBCHEM_COORDINATE_TYPE>  (1) 
2
5
10

$$$$
