9152
     RDKit          3D

 20 24  0  0  0  0  0  0  0  0999 V2000
    0.5241   -0.0556   -0.0007 C   0  0  0  0  0  0  0  0  0  0  0  0
   -1.7938   -0.1275   -0.0003 C   0  0  0  0  0  0  0  0  0  0  0  0
   -0.6605   -0.9339   -0.0006 C   0  0  0  0  0  0  0  0  0  0  0  0
    0.0153    1.2817   -0.0006 C   0  0  0  0  0  0  0  0  0  0  0  0
   -1.4360    1.2082   -0.0004 C   0  0  0  0  0  0  0  0  0  0  0  0
    1.9135   -0.2880   -0.0004 C   0  0  0  0  0  0  0  0  0  0  0  0
   -3.1144   -0.5826    0.0002 C   0  0  0  0  0  0  0  0  0  0  0  0
    2.7628    0.8559   -0.0001 C   0  0  0  0  0  0  0  0  0  0  0  0
    0.8462    2.3833   -0.0004 C   0  0  0  0  0  0  0  0  0  0  0  0
   -0.8513   -2.3060   -0.0004 C   0  0  0  0  0  0  0  0  0  0  0  0
   -2.4233    2.1787    0.0002 C   0  0  0  0  0  0  0  0  0  0  0  0
    2.2204    2.1600   -0.0001 C   0  0  0  0  0  0  0  0  0  0  0  0
   -3.2874   -1.9756    0.0004 C   0  0  0  0  0  0  0  0  0  0  0  0
   -4.1174    0.4052    0.0007 C   0  0  0  0  0  0  0  0  0  0  0  0
    2.5270   -1.5606   -0.0001 C   0  0  0  0  0  0  0  0  0  0  0  0
   -2.1627   -2.8208    0.0000 C   0  0  0  0  0  0  0  0  0  0  0  0
   -3.7670    1.7699    0.0008 C   0  0  0  0  0  0  0  0  0  0  0  0
    4.1571    0.6896    0.0006 C   0  0  0  0  0  0  0  0  0  0  0  0
    3.9165   -1.7026    0.0004 C   0  0  0  0  0  0  0  0  0  0  0  0
    4.7308   -0.5793    0.0009 C   0  0  0  0  0  0  0  0  0  0  0  0
  1  3  1  0
  1  4  1  0
  1  6  2  0
  2  3  1  0
  2  5  2  0
  2  7  1  0
  3 10  2  0
  4  5  1  0
  4  9  2  0
  5 11  1  0
  6  8  1  0
  6 15  1  0
  7 13  1  0
  7 14  2  0
  8 12  2  0
  8 18  1  0
  9 12  1  0
 10 16  1  0
 11 17  2  0
 13 16  2  0
 14 17  1  0
 15 19  2  0
 18 20  2  0
 19 20  1  0
M  END
>  <PUBCHEM_COMPOUND_CID>  (1) 
9152

>  <PUBCHEM_CONFORMER_RMSD>  (1) 
0.6

>  <PUBCHEM_CONFORMER_DIVERSEORDER>  (1) 
1

>  <PUBCHEM_MMFF94_PARTIAL_CHARGES>  (1) 
24
10 -0.15
11 -0.15
12 -0.15
13 -0.15
14 -0.15
15 -0.15
16 -0.15
17 -0.15
18 -0.15
19 -0.15
20 -0.15
21 0.15
22 0.15
23 0.15
24 0.15
25 0.15
26 0.15
27 0.15
28 0.15
29 0.15
30 0.15
31 0.15
32 0.15
9 -0.15

>  <PUBCHEM_EFFECTIVE_ROTOR_COUNT>  (1) 
0

>  <PUBCHEM_PHARMACOPHORE_FEATURES>  (1) 
5
5 1 2 3 4 5 rings
6 1 4 6 8 9 12 rings
6 2 3 7 10 13 16 rings
6 2 5 7 11 14 17 rings
6 6 8 15 18 19 20 rings

>  <PUBCHEM_HEAVY_ATOM_COUNT>  (1) 
20

>  <PUBCHEM_ATOM_DEF_STEREO_COUNT>  (1) 
0

>  <PUBCHEM_ATOM_UDEF_STEREO_COUNT>  (1) 
0

>  <PUBCHEM_BOND_DEF_STEREO_COUNT>  (1) 
0

>  <PUBCHEM_BOND_UDEF_STEREO_COUNT>  (1) 
0

>  <PUBCHEM_ISOTOPIC_ATOM_COUNT>  (1) 
0

>  <PUBCHEM_COMPONENT_COUNT>  (1) 
1

>  <PUBCHEM_CACTVS_TAUTO_COUNT>  (1) 
1

>  <PUBCHEM_CONFORMER_ID>  (1) 
000023C000000001

>  <PUBCHEM_MMFF94_ENERGY>  (1) 
88.5193

>  <PUBCHEM_FEATURE_SELFOVERLAP>  (1) 
25.694

>  <PUBCHEM_SHAPE_FINGERPRINT>  (1) 
10319926 262 18269813399606744506
10411042 1 18050287273768031207
10493431 412 18198069079972144425
10608611 8 18340203097864481136
10616163 171 18339646753739689662
10693767 8 17697010580354506599
10967382 1 18266459810698446119
1100329 8 18411984628711306577
11578080 2 17201906253432489595
12403259 226 18340763866317517905
12403814 3 17603867767272367853
12553582 1 17762619898913818783
13140716 1 18411708716117716145
138480 1 16825307711477057347
14178342 30 18265879410794159000
14223421 5 18268145555344996856
14790565 3 18051420569286810793
14866123 147 17047683981049461530
15042514 8 18336834194938757995
15099037 51 18337951195240430853
15196674 1 18410575097975248708
15442244 35 18410573993894379554
15536298 74 18341893008935049592
16945 1 18266741466206422373
17492 89 18337954609629453810
17804303 29 18412267245964435021
1813 80 17240483602683263516
19591789 44 18049724018533392851
200 152 17917705812290072381
20028762 73 18201716267653394135
20510252 161 18272089336224373321
20775438 99 16762208354315162847
20905425 154 18125448758748947030
21267235 1 18410302418754339922
21478907 32 18123467439461053751
21501502 16 18338520862195752877
221490 88 18264495151282037754
23184049 29 18339365282814989406
2334 1 18410576171358441545
23366157 5 18041838557916585820
23402539 116 18270953557697194204
23463225 33 18410012130694362692
23558518 356 18116434928085754451
23559900 14 18342737365557232870
238 59 16960090356530997037
2748010 2 18338800009342276709
3004659 81 18188778228624946102
335352 9 18338798905488157197
34934 24 18409442571039499922
350125 39 18410298008476996281
4214541 1 18410856551166003456
46194498 28 16743926808803082743
474 4 17241336909764162012
5104073 3 18411135857479571240
69090 78 18411416185462642575
7364860 26 18269554021582941872
7832392 63 18410571790697502024
8809292 202 18336266824719924187
9709674 26 18413111675421961350
9981440 41 17397266504620322880

>  <PUBCHEM_SHAPE_MULTIPOLES>  (1) 
411.59
7.98
2.96
0.62
3.54
0.4
0
0.74
0
-1.19
0
0
0
0

>  <PUBCHEM_SHAPE_SELFOVERLAP>  (1) 
969.588

>  <PUBCHEM_SHAPE_VOLUME>  (1) 
189.2

>  <PUBCHEM_COORDINATE_TYPE>  (1) 
2
5
10

$$$$
