9153
     RDKit          3D

 20 24  0  0  0  0  0  0  0  0999 V2000
   -0.1544   -0.5804    0.0003 C   0  0  0  0  0  0  0  0  0  0  0  0
   -0.4043    0.7822    0.0003 C   0  0  0  0  0  0  0  0  0  0  0  0
   -1.3580   -1.2789    0.0001 C   0  0  0  0  0  0  0  0  0  0  0  0
    1.1155   -1.1596    0.0003 C   0  0  0  0  0  0  0  0  0  0  0  0
   -1.8468    0.9813    0.0002 C   0  0  0  0  0  0  0  0  0  0  0  0
   -2.4439   -0.3089    0.0000 C   0  0  0  0  0  0  0  0  0  0  0  0
    2.2247   -0.2501    0.0003 C   0  0  0  0  0  0  0  0  0  0  0  0
    0.6569    1.6657    0.0002 C   0  0  0  0  0  0  0  0  0  0  0  0
    1.9751    1.1622    0.0002 C   0  0  0  0  0  0  0  0  0  0  0  0
   -1.3446   -2.6598   -0.0004 C   0  0  0  0  0  0  0  0  0  0  0  0
    1.1073   -2.5785    0.0001 C   0  0  0  0  0  0  0  0  0  0  0  0
   -2.6200    2.1270    0.0002 C   0  0  0  0  0  0  0  0  0  0  0  0
   -3.8175   -0.4616   -0.0003 C   0  0  0  0  0  0  0  0  0  0  0  0
   -0.1023   -3.3076   -0.0001 C   0  0  0  0  0  0  0  0  0  0  0  0
    3.5678   -0.6817    0.0001 C   0  0  0  0  0  0  0  0  0  0  0  0
    3.0567    2.0561   -0.0003 C   0  0  0  0  0  0  0  0  0  0  0  0
   -4.0094    1.9742   -0.0001 C   0  0  0  0  0  0  0  0  0  0  0  0
   -4.6007    0.6962   -0.0003 C   0  0  0  0  0  0  0  0  0  0  0  0
    4.6264    0.2285   -0.0003 C   0  0  0  0  0  0  0  0  0  0  0  0
    4.3715    1.5937   -0.0006 C   0  0  0  0  0  0  0  0  0  0  0  0
  1  2  1  0
  1  3  2  0
  1  4  1  0
  2  5  1  0
  2  8  2  0
  3  6  1  0
  3 10  1  0
  4  7  1  0
  4 11  2  0
  5  6  2  0
  5 12  1  0
  6 13  1  0
  7  9  2  0
  7 15  1  0
  8  9  1  0
  9 16  1  0
 10 14  2  0
 11 14  1  0
 12 17  2  0
 13 18  2  0
 15 19  2  0
 16 20  2  0
 17 18  1  0
 19 20  1  0
M  END
>  <PUBCHEM_COMPOUND_CID>  (1) 
9153

>  <PUBCHEM_CONFORMER_RMSD>  (1) 
0.6

>  <PUBCHEM_CONFORMER_DIVERSEORDER>  (1) 
1

>  <PUBCHEM_MMFF94_PARTIAL_CHARGES>  (1) 
24
10 -0.15
11 -0.15
12 -0.15
13 -0.15
14 -0.15
15 -0.15
16 -0.15
17 -0.15
18 -0.15
19 -0.15
20 -0.15
21 0.15
22 0.15
23 0.15
24 0.15
25 0.15
26 0.15
27 0.15
28 0.15
29 0.15
30 0.15
31 0.15
32 0.15
8 -0.15

>  <PUBCHEM_EFFECTIVE_ROTOR_COUNT>  (1) 
0

>  <PUBCHEM_PHARMACOPHORE_FEATURES>  (1) 
5
5 1 2 3 5 6 rings
6 1 2 4 7 8 9 rings
6 1 3 4 10 11 14 rings
6 5 6 12 13 17 18 rings
6 7 9 15 16 19 20 rings

>  <PUBCHEM_HEAVY_ATOM_COUNT>  (1) 
20

>  <PUBCHEM_ATOM_DEF_STEREO_COUNT>  (1) 
0

>  <PUBCHEM_ATOM_UDEF_STEREO_COUNT>  (1) 
0

>  <PUBCHEM_BOND_DEF_STEREO_COUNT>  (1) 
0

>  <PUBCHEM_BOND_UDEF_STEREO_COUNT>  (1) 
0

>  <PUBCHEM_ISOTOPIC_ATOM_COUNT>  (1) 
0

>  <PUBCHEM_COMPONENT_COUNT>  (1) 
1

>  <PUBCHEM_CACTVS_TAUTO_COUNT>  (1) 
1

>  <PUBCHEM_CONFORMER_ID>  (1) 
000023C100000001

>  <PUBCHEM_MMFF94_ENERGY>  (1) 
86.9475

>  <PUBCHEM_FEATURE_SELFOVERLAP>  (1) 
25.702

>  <PUBCHEM_SHAPE_FINGERPRINT>  (1) 
10319926 262 18054768845309624664
10411042 1 17257653846877961122
10493431 412 18411138060418231945
10608611 8 18269272542300701416
10616163 171 18194687192568513558
10693767 8 17842831131828313591
10948715 1 18410855455838670638
10967382 1 18410575041729236710
11370993 70 18410852161604022856
11578080 2 12966292583881088922
12035759 4 18127664172164515303
12173636 292 18339076107135971060
12390115 104 18270982192250028913
12403814 3 17676198100191599125
12553582 1 17184756234160750858
12592029 89 18336830801170614091
12644460 14 18189621535860806979
12788726 201 17756701197904442730
13140716 1 18050013478223643723
13380535 76 18411138038959213167
13544592 145 18271255949892662726
13583140 156 16878491423497980113
138480 1 17689997834356347139
14178342 30 18049425239782423440
14787075 74 18201153343152511301
14790565 3 18410864247674343904
15042514 8 18120377815586052971
15099037 51 18411704257936491918
15196674 1 18410573985167307876
15309172 13 18410864252274500025
15475509 8 16190040700526868653
15536298 74 18271244902551104774
16945 1 18410574032454302055
19591789 44 18410575071778196519
20510252 161 18270686496662409993
21267235 1 18410582785565944330
21478907 32 17835517502808745639
21524375 3 18334575732876240619
22182313 1 18267890378443022767
23227448 37 18340768246761816190
2334 1 18338799030295467880
23366157 5 17970353602771890338
23402539 116 18343012319976977565
23419403 2 17172347802933197222
23558518 356 17828762086324249768
23559900 14 18272371997445325132
238 59 17539931071717629837
25 1 18410289177295969135
2748010 2 18337682918413572527
3004659 81 18262246517793348838
3091708 16 9193532923554944603
335352 9 18410573955830660894
34934 24 18336822091646629536
350125 39 18266464385308108409
352729 6 18338805627159662135
474 4 18338798905862852729
474229 33 18410293648969074787
5104073 3 18409449180498388113
6138700 20 18195251010422366062
633830 44 18272652294693830829
69090 78 18411416241128386372
7364860 26 18196091032240515911
7808743 9 18193555795235972552
81228 2 17832128803491538019
8272917 22 18197219144445639781
84936 182 18129094533175011833
9709674 26 18342744065257828574

>  <PUBCHEM_SHAPE_MULTIPOLES>  (1) 
411.59
7.93
3.13
0.62
0.85
1.92
0
-4.7
0
-0.31
0
0
0
0

>  <PUBCHEM_SHAPE_SELFOVERLAP>  (1) 
970.112

>  <PUBCHEM_SHAPE_VOLUME>  (1) 
191.6

>  <PUBCHEM_COORDINATE_TYPE>  (1) 
2
5
10

$$$$
