916
     RDKit          3D

 17 16  0  0  0  0  0  0  0  0999 V2000
    6.9238    0.6048    1.2290 O   0  0  0  0  0  0  0  0  0  0  0  0
    1.7028   -1.0153    0.2887 N   0  0  0  0  0  0  0  0  0  0  0  0
   -4.4125    0.1832   -0.3034 N   0  0  0  0  0  0  0  0  0  0  0  0
    5.6954    0.2636   -0.7165 N   0  0  0  0  0  0  0  0  0  0  0  0
   -9.2992    0.8122   -0.3011 N   0  0  0  0  0  0  0  0  0  0  0  0
   -0.7265   -0.6992    0.3937 C   0  0  0  0  0  0  0  0  0  0  0  0
   -1.9508   -0.1373   -0.3364 C   0  0  0  0  0  0  0  0  0  0  0  0
    0.5495   -0.4675   -0.4155 C   0  0  0  0  0  0  0  0  0  0  0  0
   -3.2660   -0.3632    0.4124 C   0  0  0  0  0  0  0  0  0  0  0  0
    2.9243   -0.8100   -0.4767 C   0  0  0  0  0  0  0  0  0  0  0  0
    4.1506   -1.3836    0.2367 C   0  0  0  0  0  0  0  0  0  0  0  0
   -5.6465   -0.0577    0.4313 C   0  0  0  0  0  0  0  0  0  0  0  0
   -6.8682    0.4989   -0.3032 C   0  0  0  0  0  0  0  0  0  0  0  0
    5.4501   -1.1636   -0.5398 C   0  0  0  0  0  0  0  0  0  0  0  0
   -8.1758    0.2744    0.4583 C   0  0  0  0  0  0  0  0  0  0  0  0
    6.4121    1.0126    0.1897 C   0  0  0  0  0  0  0  0  0  0  0  0
    6.5370    2.4477   -0.2472 C   0  0  0  0  0  0  0  0  0  0  0  0
  1 16  2  0
  2  8  1  0
  2 10  1  0
  3  9  1  0
  3 12  1  0
  4 14  1  0
  4 16  1  0
  5 15  1  0
  6  7  1  0
  6  8  1  0
  7  9  1  0
 10 11  1  0
 11 14  1  0
 12 13  1  0
 13 15  1  0
 16 17  1  0
M  END
>  <PUBCHEM_COMPOUND_CID>  (1) 
916

>  <PUBCHEM_CONFORMER_RMSD>  (1) 
1

>  <PUBCHEM_CONFORMER_DIVERSEORDER>  (1) 
1
60
13
193
59
98
133
118
97
136
49
138
88
131
129
144
130
134
8
175
115
3
149
148
46
75
72
106
116
184
4
163
188
142
143
127
26
91
189
195
124
30
145
84
108
61
99
125
186
123
146
112
17
132
122
181
190
94
28
85
176
11
10
70
31
196
128
41
38
87
183
2
93
192
104
19
191
120
42
66
141
90
50
161
171
165
126
74
137
155
83
185
89
43
22
100
174
48
58
121
180
21
173
95
111
182
56
96
135
156
45
35
187
119
81
169
179
114
68
153
109
139
33
105
32
63
107
57
65
25
52
177
172
44
47
16
166
39
164
140
37
80
154
5
29
73
51
36
194
157
12
147
152
167
40
7
151
78
79
158
160
9
117
150
159
20
113
34
23
103
102
110
53
71
77
82
18
62
76
101
55
24
69
162
54
14
170
92
197
168
6
15
27
178
67
86
64

>  <PUBCHEM_MMFF94_PARTIAL_CHARGES>  (1) 
18
1 -0.57
10 0.27
12 0.27
14 0.3
15 0.27
16 0.57
17 0.06
2 -0.9
28 0.36
3 -0.9
31 0.36
4 -0.73
40 0.37
41 0.36
42 0.36
5 -0.99
8 0.27
9 0.27

>  <PUBCHEM_EFFECTIVE_ROTOR_COUNT>  (1) 
13

>  <PUBCHEM_PHARMACOPHORE_FEATURES>  (1) 
8
1 1 acceptor
1 2 cation
1 2 donor
1 3 cation
1 3 donor
1 4 donor
1 5 cation
1 5 donor

>  <PUBCHEM_HEAVY_ATOM_COUNT>  (1) 
17

>  <PUBCHEM_ATOM_DEF_STEREO_COUNT>  (1) 
0

>  <PUBCHEM_ATOM_UDEF_STEREO_COUNT>  (1) 
0

>  <PUBCHEM_BOND_DEF_STEREO_COUNT>  (1) 
0

>  <PUBCHEM_BOND_UDEF_STEREO_COUNT>  (1) 
0

>  <PUBCHEM_ISOTOPIC_ATOM_COUNT>  (1) 
0

>  <PUBCHEM_COMPONENT_COUNT>  (1) 
1

>  <PUBCHEM_CACTVS_TAUTO_COUNT>  (1) 
2

>  <PUBCHEM_CONFORMER_ID>  (1) 
0000039400000001

>  <PUBCHEM_MMFF94_ENERGY>  (1) 
-7.7755

>  <PUBCHEM_FEATURE_SELFOVERLAP>  (1) 
40.598

>  <PUBCHEM_SHAPE_FINGERPRINT>  (1) 
11315181 36 18202285802270974355
11638347 137 16443340953905790130
125118 31 18334016072978940796
14123256 10 17775284962826413529
14170010 4 18187087260501448828
14216079 64 9727640500930677760
14251757 52 18410854356342782985
14251764 18 17847065471935129153
14251764 46 17418374671452398270
14428016 248 17704079482812708897
14729087 3 17676485017867722405
155225 1 18272368707553514024
155225 6 17827367884681413828
16120349 18 18411696612636573421
195137 175 17561090181452799681
20157964 124 18412546496833979598
20281389 69 18260266321902605197
20397935 70 13334728021632645072
20735858 18 15285357318965289395
20812841 46 18411974751520681754
21095086 128 8718822086289281577
21130983 4 18341896294231447243
21150785 3 16774078475103891561
22224240 67 18040998440833351219
23035841 295 12396303660435027267
23521765 1 18341895165462332295
246663 6 11024106556100814823
28498 318 9727638293575801211
33684 2 15769773528985988223
34797466 226 18202570557695350998
444735 82 18259708912684609668
59682541 35 17967821557306907875
67123 10 18412825794673539367
8209 1 18412827963194284399

>  <PUBCHEM_SHAPE_MULTIPOLES>  (1) 
324.06
28.65
1.46
0.81
34.74
0.66
-0.07
13
-0.96
-3.69
0.07
-0.5
0.01
0.44

>  <PUBCHEM_SHAPE_SELFOVERLAP>  (1) 
588.381

>  <PUBCHEM_SHAPE_VOLUME>  (1) 
206.7

>  <PUBCHEM_COORDINATE_TYPE>  (1) 
2
5
10

$$$$
