9163
     RDKit          3D

 22 26  0  0  0  0  0  0  0  0999 V2000
   -0.6511    0.4065   -0.0003 C   0  0  0  0  0  0  0  0  0  0  0  0
    0.7600    0.0903   -0.0003 C   0  0  0  0  0  0  0  0  0  0  0  0
   -1.6292   -0.6308   -0.0001 C   0  0  0  0  0  0  0  0  0  0  0  0
    1.1644   -1.2631   -0.0002 C   0  0  0  0  0  0  0  0  0  0  0  0
   -3.0394   -0.3159    0.0000 C   0  0  0  0  0  0  0  0  0  0  0  0
    1.8044    1.0545   -0.0003 C   0  0  0  0  0  0  0  0  0  0  0  0
   -3.4457    1.0398    0.0001 C   0  0  0  0  0  0  0  0  0  0  0  0
    3.1712    0.7124   -0.0002 C   0  0  0  0  0  0  0  0  0  0  0  0
   -1.1558   -1.9580    0.0000 C   0  0  0  0  0  0  0  0  0  0  0  0
    3.5363   -0.6447   -0.0002 C   0  0  0  0  0  0  0  0  0  0  0  0
    0.2021   -2.2679   -0.0002 C   0  0  0  0  0  0  0  0  0  0  0  0
   -1.1262    1.7339   -0.0003 C   0  0  0  0  0  0  0  0  0  0  0  0
    2.5262   -1.6147   -0.0002 C   0  0  0  0  0  0  0  0  0  0  0  0
   -2.4844    2.0449   -0.0002 C   0  0  0  0  0  0  0  0  0  0  0  0
   -4.0819   -1.2806    0.0002 C   0  0  0  0  0  0  0  0  0  0  0  0
   -4.8079    1.3884    0.0002 C   0  0  0  0  0  0  0  0  0  0  0  0
    4.1789    1.6928    0.0000 C   0  0  0  0  0  0  0  0  0  0  0  0
    4.8974   -0.9953    0.0003 C   0  0  0  0  0  0  0  0  0  0  0  0
   -5.4341   -0.9249    0.0003 C   0  0  0  0  0  0  0  0  0  0  0  0
   -5.7976    0.4116    0.0004 C   0  0  0  0  0  0  0  0  0  0  0  0
    5.5267    1.3322    0.0004 C   0  0  0  0  0  0  0  0  0  0  0  0
    5.8858   -0.0114    0.0007 C   0  0  0  0  0  0  0  0  0  0  0  0
  1  2  1  0
  1  3  2  0
  1 12  1  0
  2  4  1  0
  2  6  2  0
  3  5  1  0
  3  9  1  0
  4 11  1  0
  4 13  2  0
  5  7  2  0
  5 15  1  0
  6  8  1  0
  7 14  1  0
  7 16  1  0
  8 10  2  0
  8 17  1  0
  9 11  2  0
 10 13  1  0
 10 18  1  0
 12 14  2  0
 15 19  2  0
 16 20  2  0
 17 21  2  0
 18 22  2  0
 19 20  1  0
 21 22  1  0
M  END
>  <PUBCHEM_COMPOUND_CID>  (1) 
9163

>  <PUBCHEM_CONFORMER_RMSD>  (1) 
0.6

>  <PUBCHEM_CONFORMER_DIVERSEORDER>  (1) 
1

>  <PUBCHEM_MMFF94_PARTIAL_CHARGES>  (1) 
28
11 -0.15
12 -0.15
13 -0.15
14 -0.15
15 -0.15
16 -0.15
17 -0.15
18 -0.15
19 -0.15
20 -0.15
21 -0.15
22 -0.15
23 0.15
24 0.15
25 0.15
26 0.15
27 0.15
28 0.15
29 0.15
30 0.15
31 0.15
32 0.15
33 0.15
34 0.15
35 0.15
36 0.15
6 -0.15
9 -0.15

>  <PUBCHEM_EFFECTIVE_ROTOR_COUNT>  (1) 
0

>  <PUBCHEM_PHARMACOPHORE_FEATURES>  (1) 
5
6 1 2 3 4 9 11 rings
6 1 3 5 7 12 14 rings
6 2 4 6 8 10 13 rings
6 5 7 15 16 19 20 rings
6 8 10 17 18 21 22 rings

>  <PUBCHEM_HEAVY_ATOM_COUNT>  (1) 
22

>  <PUBCHEM_ATOM_DEF_STEREO_COUNT>  (1) 
0

>  <PUBCHEM_ATOM_UDEF_STEREO_COUNT>  (1) 
0

>  <PUBCHEM_BOND_DEF_STEREO_COUNT>  (1) 
0

>  <PUBCHEM_BOND_UDEF_STEREO_COUNT>  (1) 
0

>  <PUBCHEM_ISOTOPIC_ATOM_COUNT>  (1) 
0

>  <PUBCHEM_COMPONENT_COUNT>  (1) 
1

>  <PUBCHEM_CACTVS_TAUTO_COUNT>  (1) 
1

>  <PUBCHEM_CONFORMER_ID>  (1) 
000023CB00000001

>  <PUBCHEM_MMFF94_ENERGY>  (1) 
82.8786

>  <PUBCHEM_FEATURE_SELFOVERLAP>  (1) 
25.468

>  <PUBCHEM_SHAPE_FINGERPRINT>  (1) 
10 15 18335975476600175432
10411042 1 17689999359455320295
10906281 52 18337974340481520231
11488393 25 17487917604413595343
11578080 2 16700034192694028218
12107183 9 17617376186589506416
12166972 35 18040720277097136508
12236239 1 18410011030903062542
12390115 104 18129114346006886497
12403259 415 18411971464467894928
12838862 33 18338497703769340805
12916748 109 18411704279121054454
13140716 1 18049726509588005537
13402501 40 18411699897985686072
13533116 47 17918276420624038342
13785724 45 17761770664090314290
13862211 1 18410852174599837455
14341114 176 18408328778123134275
14528608 73 18412544322936644326
14787075 74 18413105078430848139
14790565 3 18411986862041520209
15042514 8 18265337398827969459
15131766 46 16083354413464262500
15196674 1 18410855451538227207
15927050 60 17478892040026109501
17980427 23 13912606000942173927
1813 80 16877944923569834036
18681886 176 18412259567190657448
19489759 90 16081084866540007181
200 152 18131348600973710161
21236236 1 18412545427339403139
21267235 1 18410863148183133046
21279426 13 18339644417124168790
21315764 268 18334287674284799836
221357 26 18273216383224989732
23227448 37 18342174513644261294
23402539 116 18341889718826473407
23559900 14 18341607165686767112
3004659 81 18408325467652888862
335352 9 18410856560636938990
34797466 226 17489314117508855516
350125 39 18410575084848149964
351380 180 18410011039719824514
3545911 37 18409731755076363908
4073 2 18040722510511558114
4214541 1 18410575076136707680
4325135 7 18342454855203033063
474 4 17749114434776260228
474229 33 18411418418903821215
495365 180 17346588721448053730
5104073 3 18409730633973706603
5486654 2 18412547634493631517
59755656 215 18411986832351191918
59755656 520 17530961410340399042
7495541 125 17775279495454397656
9709674 26 18411707564602861062
9996256 80 18342457071116429399

>  <PUBCHEM_SHAPE_MULTIPOLES>  (1) 
452.75
13.19
2.18
0.62
1.68
0.15
0
-2.45
0
-0.15
0
0
0
0

>  <PUBCHEM_SHAPE_SELFOVERLAP>  (1) 
1051.797

>  <PUBCHEM_SHAPE_VOLUME>  (1) 
210.3

>  <PUBCHEM_COORDINATE_TYPE>  (1) 
2
5
10

$$$$
