9165
     RDKit          3D

 22 26  0  0  0  0  0  0  0  0999 V2000
   -1.4672    1.2808    0.0008 N   0  0  0  0  0  0  0  0  0  0  0  0
   -0.1955   -0.7642    0.0004 C   0  0  0  0  0  0  0  0  0  0  0  0
    1.0776   -1.4263    0.0001 C   0  0  0  0  0  0  0  0  0  0  0  0
   -0.2732    0.6409    0.0008 C   0  0  0  0  0  0  0  0  0  0  0  0
    2.2696   -0.6555    0.0001 C   0  0  0  0  0  0  0  0  0  0  0  0
    0.9097    1.3980    0.0005 C   0  0  0  0  0  0  0  0  0  0  0  0
    2.1844    0.7733   -0.0001 C   0  0  0  0  0  0  0  0  0  0  0  0
   -1.4368   -1.4462   -0.0001 C   0  0  0  0  0  0  0  0  0  0  0  0
   -2.6664   -0.7778    0.0000 C   0  0  0  0  0  0  0  0  0  0  0  0
   -2.6326    0.6148    0.0004 C   0  0  0  0  0  0  0  0  0  0  0  0
    1.2055   -2.8426    0.0002 C   0  0  0  0  0  0  0  0  0  0  0  0
    3.5096   -1.3520   -0.0001 C   0  0  0  0  0  0  0  0  0  0  0  0
    0.8451    2.8133    0.0003 C   0  0  0  0  0  0  0  0  0  0  0  0
    3.3242    1.6238   -0.0006 C   0  0  0  0  0  0  0  0  0  0  0  0
    2.4387   -3.4913    0.0000 C   0  0  0  0  0  0  0  0  0  0  0  0
    3.5960   -2.7427   -0.0002 C   0  0  0  0  0  0  0  0  0  0  0  0
    1.9847    3.6127   -0.0002 C   0  0  0  0  0  0  0  0  0  0  0  0
    3.2290    3.0156   -0.0009 C   0  0  0  0  0  0  0  0  0  0  0  0
   -3.8968   -1.4612   -0.0007 C   0  0  0  0  0  0  0  0  0  0  0  0
   -3.8426    1.3056    0.0003 C   0  0  0  0  0  0  0  0  0  0  0  0
   -5.0953   -0.7537   -0.0007 C   0  0  0  0  0  0  0  0  0  0  0  0
   -5.0676    0.6347   -0.0005 C   0  0  0  0  0  0  0  0  0  0  0  0
  1  4  2  0
  1 10  1  0
  2  3  1  0
  2  4  1  0
  2  8  2  0
  3  5  2  0
  3 11  1  0
  4  6  1  0
  5  7  1  0
  5 12  1  0
  6  7  2  0
  6 13  1  0
  7 14  1  0
  8  9  1  0
  9 10  2  0
  9 19  1  0
 10 20  1  0
 11 15  2  0
 12 16  2  0
 13 17  2  0
 14 18  2  0
 15 16  1  0
 17 18  1  0
 19 21  2  0
 20 22  2  0
 21 22  1  0
M  END
>  <PUBCHEM_COMPOUND_CID>  (1) 
9165

>  <PUBCHEM_CONFORMER_RMSD>  (1) 
0.6

>  <PUBCHEM_CONFORMER_DIVERSEORDER>  (1) 
1

>  <PUBCHEM_MMFF94_PARTIAL_CHARGES>  (1) 
29
1 -0.62
10 0.31
11 -0.15
12 -0.15
13 -0.15
14 -0.15
15 -0.15
16 -0.15
17 -0.15
18 -0.15
19 -0.15
20 -0.15
21 -0.15
22 -0.15
23 0.15
24 0.15
25 0.15
26 0.15
27 0.15
28 0.15
29 0.15
30 0.15
31 0.15
32 0.15
33 0.15
34 0.15
35 0.15
4 0.31
8 -0.15

>  <PUBCHEM_EFFECTIVE_ROTOR_COUNT>  (1) 
0

>  <PUBCHEM_PHARMACOPHORE_FEATURES>  (1) 
6
1 1 acceptor
6 1 2 4 8 9 10 rings
6 2 3 4 5 6 7 rings
6 3 5 11 12 15 16 rings
6 6 7 13 14 17 18 rings
6 9 10 19 20 21 22 rings

>  <PUBCHEM_HEAVY_ATOM_COUNT>  (1) 
22

>  <PUBCHEM_ATOM_DEF_STEREO_COUNT>  (1) 
0

>  <PUBCHEM_ATOM_UDEF_STEREO_COUNT>  (1) 
0

>  <PUBCHEM_BOND_DEF_STEREO_COUNT>  (1) 
0

>  <PUBCHEM_BOND_UDEF_STEREO_COUNT>  (1) 
0

>  <PUBCHEM_ISOTOPIC_ATOM_COUNT>  (1) 
0

>  <PUBCHEM_COMPONENT_COUNT>  (1) 
1

>  <PUBCHEM_CACTVS_TAUTO_COUNT>  (1) 
1

>  <PUBCHEM_CONFORMER_ID>  (1) 
000023CD00000001

>  <PUBCHEM_MMFF94_ENERGY>  (1) 
85.8032

>  <PUBCHEM_FEATURE_SELFOVERLAP>  (1) 
30.548

>  <PUBCHEM_SHAPE_FINGERPRINT>  (1) 
10319926 262 16975599436673222096
10411042 1 18122626050582345446
10616163 171 18194403527042664623
10693767 8 18130794447430251870
10967382 1 18338797922003929988
1100329 8 17907863898947849097
11370993 70 18194679504128914145
11578080 2 17241872221033042492
11963148 33 17903912602398633011
12107183 9 18053956048159730033
12173636 292 17690557906734207196
12403259 226 18262232210307596429
12553582 1 18122626059240351646
12592029 89 18338802345767634192
12730499 353 18264781024405590331
12788726 201 17613161771748625250
13009979 54 17773608117299431115
13140716 1 18337946904699886672
13533116 47 18342736343428544673
138480 1 18338797810609119360
13955234 65 18411983597792107033
14223421 5 18335703896684418435
14790565 3 18120662589203479828
15196674 1 18410855469372198119
15442244 35 18340489946098480249
15475509 35 16950563247094733803
15475509 8 17483989002169532661
15536298 74 18413388743745875627
15664445 248 18128554686383438830
15927050 60 18124596646729708054
16087824 20 17617943535007163405
16945 1 18122626329996987814
17492 89 18411136965782385267
17818456 19 17631178468244575473
18681886 176 18342452621799719418
18785283 64 18334296508631172076
19591789 44 17906456880530009834
19930381 70 18409727408743676609
20645477 70 18335133215673735331
20832881 197 18043814182500312179
21049683 271 18261408727685368868
21065198 57 18410012118252500947
21197605 99 17904490945477601819
21267235 1 18339651022858339767
21478907 32 17761492487104557018
221490 88 18408048415880914355
22393880 68 18270126828048159271
2255824 54 18411702110099402958
2334 1 18410856611712160068
23366157 5 18186802495368532590
23559900 14 18411412895549381531
25147074 1 18060420227580253871
2748010 2 18264498445590525422
3091708 16 9288055756583030314
314173 41 18339648815165866134
335352 9 18194683666521722101
3421961 26 18411416172651567898
350125 39 18409448107189333252
352729 6 17688873463736787148
3886686 26 16244594026902727682
394222 165 17898279757020833280
4409770 3 17180243310138152196
474 4 18338233885529414401
5104073 3 18409171021927286027
543358 83 18412550885836758481
59755656 215 18337111266835460181
6138700 20 18411143537482482524
6443956 14 18337111155366328606
7364860 26 18411136948221882912
7808743 9 17401202769122288488
8272917 22 18412267263349824725
84936 182 18200875204875228032
9709674 26 18335704974821793963
9981440 41 17977941607329393409

>  <PUBCHEM_SHAPE_MULTIPOLES>  (1) 
447.77
8.43
4.17
0.61
10.12
0.5
0
-0.7
0
-5.59
0
-0.01
0
0

>  <PUBCHEM_SHAPE_SELFOVERLAP>  (1) 
1042.276

>  <PUBCHEM_SHAPE_VOLUME>  (1) 
223.8

>  <PUBCHEM_COORDINATE_TYPE>  (1) 
2
5
10

$$$$
