9166
     RDKit          3D

 22 26  0  0  0  0  0  0  0  0999 V2000
   -1.4237   -1.3597    0.0004 N   0  0  0  0  0  0  0  0  0  0  0  0
   -1.4237    1.3598    0.0004 N   0  0  0  0  0  0  0  0  0  0  0  0
    2.2100   -0.7146    0.0002 C   0  0  0  0  0  0  0  0  0  0  0  0
    2.2101    0.7146    0.0003 C   0  0  0  0  0  0  0  0  0  0  0  0
    0.9705   -1.4033    0.0004 C   0  0  0  0  0  0  0  0  0  0  0  0
    0.9704    1.4033    0.0003 C   0  0  0  0  0  0  0  0  0  0  0  0
   -0.2467   -0.6989    0.0005 C   0  0  0  0  0  0  0  0  0  0  0  0
   -0.2468    0.6989    0.0004 C   0  0  0  0  0  0  0  0  0  0  0  0
    3.3941   -1.4994   -0.0001 C   0  0  0  0  0  0  0  0  0  0  0  0
    3.3942    1.4994    0.0003 C   0  0  0  0  0  0  0  0  0  0  0  0
    0.9750   -2.8182    0.0001 C   0  0  0  0  0  0  0  0  0  0  0  0
    0.9749    2.8181   -0.0003 C   0  0  0  0  0  0  0  0  0  0  0  0
   -2.5867   -0.6949    0.0002 C   0  0  0  0  0  0  0  0  0  0  0  0
   -2.5867    0.6948    0.0002 C   0  0  0  0  0  0  0  0  0  0  0  0
    3.3692   -2.8943   -0.0006 C   0  0  0  0  0  0  0  0  0  0  0  0
    3.3692    2.8944   -0.0001 C   0  0  0  0  0  0  0  0  0  0  0  0
    2.1560   -3.5557   -0.0005 C   0  0  0  0  0  0  0  0  0  0  0  0
    2.1561    3.5557   -0.0008 C   0  0  0  0  0  0  0  0  0  0  0  0
   -3.8020   -1.3778   -0.0001 C   0  0  0  0  0  0  0  0  0  0  0  0
   -3.8019    1.3779   -0.0001 C   0  0  0  0  0  0  0  0  0  0  0  0
   -5.0157   -0.6933   -0.0005 C   0  0  0  0  0  0  0  0  0  0  0  0
   -5.0157    0.6934   -0.0005 C   0  0  0  0  0  0  0  0  0  0  0  0
  1  7  2  0
  1 13  1  0
  2  8  2  0
  2 14  1  0
  3  4  1  0
  3  5  2  0
  3  9  1  0
  4  6  2  0
  4 10  1  0
  5  7  1  0
  5 11  1  0
  6  8  1  0
  6 12  1  0
  7  8  1  0
  9 15  2  0
 10 16  2  0
 11 17  2  0
 12 18  2  0
 13 14  2  0
 13 19  1  0
 14 20  1  0
 15 17  1  0
 16 18  1  0
 19 21  2  0
 20 22  2  0
 21 22  1  0
M  END
>  <PUBCHEM_COMPOUND_CID>  (1) 
9166

>  <PUBCHEM_CONFORMER_RMSD>  (1) 
0.6

>  <PUBCHEM_CONFORMER_DIVERSEORDER>  (1) 
1

>  <PUBCHEM_MMFF94_PARTIAL_CHARGES>  (1) 
30
1 -0.62
10 -0.15
11 -0.15
12 -0.15
13 0.31
14 0.31
15 -0.15
16 -0.15
17 -0.15
18 -0.15
19 -0.15
2 -0.62
20 -0.15
21 -0.15
22 -0.15
23 0.15
24 0.15
25 0.15
26 0.15
27 0.15
28 0.15
29 0.15
30 0.15
31 0.15
32 0.15
33 0.15
34 0.15
7 0.31
8 0.31
9 -0.15

>  <PUBCHEM_EFFECTIVE_ROTOR_COUNT>  (1) 
0

>  <PUBCHEM_PHARMACOPHORE_FEATURES>  (1) 
7
1 1 acceptor
1 2 acceptor
6 1 2 7 8 13 14 rings
6 13 14 19 20 21 22 rings
6 3 4 5 6 7 8 rings
6 3 5 9 11 15 17 rings
6 4 6 10 12 16 18 rings

>  <PUBCHEM_HEAVY_ATOM_COUNT>  (1) 
22

>  <PUBCHEM_ATOM_DEF_STEREO_COUNT>  (1) 
0

>  <PUBCHEM_ATOM_UDEF_STEREO_COUNT>  (1) 
0

>  <PUBCHEM_BOND_DEF_STEREO_COUNT>  (1) 
0

>  <PUBCHEM_BOND_UDEF_STEREO_COUNT>  (1) 
0

>  <PUBCHEM_ISOTOPIC_ATOM_COUNT>  (1) 
0

>  <PUBCHEM_COMPONENT_COUNT>  (1) 
1

>  <PUBCHEM_CACTVS_TAUTO_COUNT>  (1) 
1

>  <PUBCHEM_CONFORMER_ID>  (1) 
000023CE00000001

>  <PUBCHEM_MMFF94_ENERGY>  (1) 
83.3003

>  <PUBCHEM_FEATURE_SELFOVERLAP>  (1) 
35.644

>  <PUBCHEM_SHAPE_FINGERPRINT>  (1) 
10319926 262 17047657017852589424
10411042 1 18050568447896480134
10616163 171 18194403518468560783
10693767 8 18130793339297073478
10967382 1 18410856585699730694
1100329 8 17835523717510300569
11370993 70 18194679495517874041
11578080 2 17169251668414757414
11963148 33 17975688712875183995
12107183 9 17981897345983394409
12173636 292 17762615492219117300
12403259 226 18261951821936499661
12553582 1 18050853221476113226
12592029 89 18338801237666045856
12730499 353 18264781015836735259
12788726 201 17541386739287792578
13009979 54 17701830890131428675
13140716 1 18194112139286307138
13533116 47 18343016706029870169
138480 1 18338516327042428640
14223421 5 18335702780003366987
14790565 3 18120662580597720980
14844126 61 16964913827842238194
15196674 1 18410573985810795143
15230672 131 15239484186264587927
15442244 35 18268432339180938177
15475509 35 16950566537034388299
15475509 8 17340154176816354005
15536298 74 18342457045166835713
15927050 60 18124314067957003774
16087824 20 17545885928052698053
16945 1 18410575084752749696
17492 89 18411136948655185667
18681886 176 18342170038652926610
18785283 64 18334297599489522808
19591789 44 17978794832800351978
19930381 70 18409727400132675489
20645477 70 18335133207115449235
20739085 24 18260544558827961284
21065198 57 18410012109673050899
21197605 99 17976548530962518427
21267235 1 18267593415956615427
21478907 32 17689434884413397466
221490 88 18408329882267683915
22393880 68 18341902934256116685
2255824 54 18411702097209258790
2334 1 18410855494999570592
23366157 5 18187083957460341358
23559900 14 18411412886922491195
25147074 1 18060420214711091777
2748010 2 17903652009324989994
3091708 16 9288335032515425386
314173 41 18267873782683908470
335352 9 18194683653615747197
33824 294 18337672022028528664
3421961 26 18339358570007920098
350125 39 18409448098631040660
352729 6 17761213619357039628
3886686 26 16100478834537198762
394222 165 17970618813145204296
4409770 3 17108185703225728972
474 4 18338515351916196969
5104073 3 18408889534076190513
54173680 148 17329709821696621198
543358 83 18340493283230020945
6138700 20 18411143528892469972
6443956 14 18337112241971955492
7364860 26 18411138039127738852
7808743 9 17473260354623016352
8272917 22 18412267254775733869
84936 182 18200875191985051400
9709674 26 18335704961942160323
9981440 41 18049717713505754273

>  <PUBCHEM_SHAPE_MULTIPOLES>  (1) 
442.79
8.25
4.18
0.61
10.06
0
0
0
0
-5.56
0
-0.01
0
0

>  <PUBCHEM_SHAPE_SELFOVERLAP>  (1) 
1034.161

>  <PUBCHEM_SHAPE_VOLUME>  (1) 
221.8

>  <PUBCHEM_COORDINATE_TYPE>  (1) 
2
5
10

$$$$
