9173
     RDKit          3D

 18 21  0  0  0  0  0  0  0  0999 V2000
   -3.7540   -1.1391   -0.0005 N   0  0  0  0  0  0  0  0  0  0  0  0
    0.4252   -0.5576    0.0003 C   0  0  0  0  0  0  0  0  0  0  0  0
   -0.4375    0.5729    0.0002 C   0  0  0  0  0  0  0  0  0  0  0  0
    1.8603   -0.3910    0.0003 C   0  0  0  0  0  0  0  0  0  0  0  0
   -1.8721    0.3974    0.0001 C   0  0  0  0  0  0  0  0  0  0  0  0
    2.4045    0.9155    0.0000 C   0  0  0  0  0  0  0  0  0  0  0  0
    0.1689    1.8456   -0.0004 C   0  0  0  0  0  0  0  0  0  0  0  0
   -2.4294   -0.8982   -0.0003 C   0  0  0  0  0  0  0  0  0  0  0  0
   -0.1900   -1.8238    0.0001 C   0  0  0  0  0  0  0  0  0  0  0  0
    1.5518    2.0149   -0.0004 C   0  0  0  0  0  0  0  0  0  0  0  0
   -1.5760   -1.9816   -0.0003 C   0  0  0  0  0  0  0  0  0  0  0  0
    2.7954   -1.4595    0.0003 C   0  0  0  0  0  0  0  0  0  0  0  0
   -2.8142    1.4555    0.0004 C   0  0  0  0  0  0  0  0  0  0  0  0
    3.7956    1.1202   -0.0001 C   0  0  0  0  0  0  0  0  0  0  0  0
    4.1772   -1.2463    0.0001 C   0  0  0  0  0  0  0  0  0  0  0  0
    4.6779    0.0453   -0.0002 C   0  0  0  0  0  0  0  0  0  0  0  0
   -4.1839    1.2197    0.0005 C   0  0  0  0  0  0  0  0  0  0  0  0
   -4.5996   -0.0898   -0.0002 C   0  0  0  0  0  0  0  0  0  0  0  0
  1  8  2  0
  1 18  1  0
  2  3  2  0
  2  4  1  0
  2  9  1  0
  3  5  1  0
  3  7  1  0
  4  6  2  0
  4 12  1  0
  5  8  1  0
  5 13  2  0
  6 10  1  0
  6 14  1  0
  7 10  2  0
  8 11  1  0
  9 11  2  0
 12 15  2  0
 13 17  1  0
 14 16  2  0
 15 16  1  0
 17 18  2  0
M  END
>  <PUBCHEM_COMPOUND_CID>  (1) 
9173

>  <PUBCHEM_CONFORMER_RMSD>  (1) 
0.4

>  <PUBCHEM_CONFORMER_DIVERSEORDER>  (1) 
1

>  <PUBCHEM_MMFF94_PARTIAL_CHARGES>  (1) 
24
1 -0.62
10 -0.15
11 -0.15
12 -0.15
13 -0.15
14 -0.15
15 -0.15
16 -0.15
17 -0.15
18 0.16
19 0.15
20 0.15
21 0.15
22 0.15
23 0.15
24 0.15
25 0.15
26 0.15
27 0.15
28 0.15
29 0.15
7 -0.15
8 0.31
9 -0.15

>  <PUBCHEM_EFFECTIVE_ROTOR_COUNT>  (1) 
0

>  <PUBCHEM_PHARMACOPHORE_FEATURES>  (1) 
5
1 1 acceptor
6 1 5 8 13 17 18 rings
6 2 3 4 6 7 10 rings
6 2 3 5 8 9 11 rings
6 4 6 12 14 15 16 rings

>  <PUBCHEM_HEAVY_ATOM_COUNT>  (1) 
18

>  <PUBCHEM_ATOM_DEF_STEREO_COUNT>  (1) 
0

>  <PUBCHEM_ATOM_UDEF_STEREO_COUNT>  (1) 
0

>  <PUBCHEM_BOND_DEF_STEREO_COUNT>  (1) 
0

>  <PUBCHEM_BOND_UDEF_STEREO_COUNT>  (1) 
0

>  <PUBCHEM_ISOTOPIC_ATOM_COUNT>  (1) 
0

>  <PUBCHEM_COMPONENT_COUNT>  (1) 
1

>  <PUBCHEM_CACTVS_TAUTO_COUNT>  (1) 
1

>  <PUBCHEM_CONFORMER_ID>  (1) 
000023D500000001

>  <PUBCHEM_MMFF94_ENERGY>  (1) 
67.2916

>  <PUBCHEM_FEATURE_SELFOVERLAP>  (1) 
25.446

>  <PUBCHEM_SHAPE_FINGERPRINT>  (1) 
10062212 137 18343013398251223415
10608611 8 18339640147916380048
10616163 171 18268151027239158374
10967382 1 18410855421547335142
11132069 177 18411414003666768056
11471102 20 18410289211718998068
11578080 2 16914524738764751803
12011746 2 18410573967976870100
12403259 226 18339636849898630273
12403814 3 17676203559211135365
13140716 1 18410856576824940384
13221675 6 18408602573698423658
13675066 3 18409167748455356504
13862211 1 18410568461866122242
14115302 16 18187093870672109342
14178342 30 17980179101150431666
14790565 3 18267031556940932529
14866123 147 17191800281479701010
15099037 51 18410573968124692847
15196674 1 18410573989456980932
15375358 24 18343582941011008142
15442244 35 18411136926699651672
15536298 74 18342175579022769752
16945 1 18122625221425959524
17804303 29 18411703205157911781
1813 80 17167861963411956820
18186145 218 18040428884634269807
18522853 276 18341894095134462168
19591789 44 18337389318754747618
200 152 17989201560381497661
20510252 161 18272371927755430889
20645477 70 18342176635548191366
21029758 11 18343016692433175657
21267235 1 18410583881078224778
21279426 13 18194401087078838564
21421861 104 17823971239447757666
21501502 16 18266459991087059748
221490 88 18263651834084274554
2334 1 18410856598299769988
23402539 116 18272362062130792047
23463225 33 18409449184988364436
23559900 14 18343580772501176512
2748010 2 18410856572529966340
3004659 81 18260834748931437134
335352 9 18338798901187915132
34934 24 18411412938910549946
350125 39 18410578383947496801
3545911 37 18411983571980130608
4214541 1 18410855447428090593
474 4 17241616202871164516
495365 180 17417798574440190040
5104073 3 18410575097553256528
69090 78 18413666924398508167
7364860 26 18269835487996234632
77779 3 18410294717793205380
7832392 63 18340482369733790086
8809292 202 18261678167857910115
9709674 26 18411987991538973270
9981440 41 17327174858573401448

>  <PUBCHEM_SHAPE_MULTIPOLES>  (1) 
365.45
8.65
2.12
0.61
0.17
0.01
0
-0.04
0
-0.02
0
-0.02
-0.01
0

>  <PUBCHEM_SHAPE_SELFOVERLAP>  (1) 
841.403

>  <PUBCHEM_SHAPE_VOLUME>  (1) 
183.8

>  <PUBCHEM_COORDINATE_TYPE>  (1) 
2
5
10

$$$$
