9175
     RDKit          3D

 22 26  0  0  1  0  0  0  0  0999 V2000
   -1.4109    1.5913    0.4381 C   0  0  0  0  0  0  0  0  0  0  0  0
   -0.6708    0.2624    0.2359 C   0  0  0  0  0  0  0  0  0  0  0  0
   -0.7442    2.7540   -0.3135 C   0  0  0  0  0  0  0  0  0  0  0  0
    0.6791    0.2584    0.0703 C   0  0  0  0  0  0  0  0  0  0  0  0
    1.4109    1.5481   -0.0109 C   0  0  0  0  0  0  0  0  0  0  0  0
   -2.8871    1.5391    0.1183 C   0  0  0  0  0  0  0  0  0  0  0  0
    0.7478    2.7029   -0.2012 C   0  0  0  0  0  0  0  0  0  0  0  0
   -1.5116   -0.9345    0.2674 C   0  0  0  0  0  0  0  0  0  0  0  0
   -3.5624    0.3843   -0.0063 C   0  0  0  0  0  0  0  0  0  0  0  0
   -2.8524   -0.8973    0.1465 C   0  0  0  0  0  0  0  0  0  0  0  0
    1.4905   -0.9633   -0.0531 C   0  0  0  0  0  0  0  0  0  0  0  0
    2.8705    1.5472    0.0512 C   0  0  0  0  0  0  0  0  0  0  0  0
    2.8400   -0.9115   -0.0627 C   0  0  0  0  0  0  0  0  0  0  0  0
    3.5564    0.3873    0.0271 C   0  0  0  0  0  0  0  0  0  0  0  0
   -5.0029    0.3649   -0.2527 C   0  0  0  0  0  0  0  0  0  0  0  0
   -3.6416   -2.1307    0.1311 C   0  0  0  0  0  0  0  0  0  0  0  0
    3.6381   -2.1346   -0.1590 C   0  0  0  0  0  0  0  0  0  0  0  0
    5.0181    0.3740    0.0678 C   0  0  0  0  0  0  0  0  0  0  0  0
   -5.6583   -0.8094   -0.2826 C   0  0  0  0  0  0  0  0  0  0  0  0
   -4.9701   -2.0737   -0.0732 C   0  0  0  0  0  0  0  0  0  0  0  0
    4.9811   -2.0640   -0.1313 C   0  0  0  0  0  0  0  0  0  0  0  0
    5.6798   -0.7947   -0.0072 C   0  0  0  0  0  0  0  0  0  0  0  0
  1  2  1  0
  1  3  1  0
  1  6  1  0
  2  4  2  0
  2  8  1  0
  3  7  1  0
  4  5  1  0
  4 11  1  0
  5  7  2  0
  5 12  1  0
  6  9  2  0
  8 10  2  0
  9 10  1  0
  9 15  1  0
 10 16  1  0
 11 13  2  0
 12 14  2  0
 13 14  1  0
 13 17  1  0
 14 18  1  0
 15 19  2  0
 16 20  2  0
 17 21  2  0
 18 22  2  0
 19 20  1  0
 21 22  1  0
M  END
>  <PUBCHEM_COMPOUND_CID>  (1) 
9175

>  <PUBCHEM_CONFORMER_RMSD>  (1) 
0.6

>  <PUBCHEM_CONFORMER_DIVERSEORDER>  (1) 
1

>  <PUBCHEM_MMFF94_PARTIAL_CHARGES>  (1) 
29
1 0.28
11 -0.15
12 -0.15
15 -0.15
16 -0.15
17 -0.15
18 -0.15
19 -0.15
2 -0.14
20 -0.15
21 -0.15
22 -0.15
26 0.15
27 0.15
28 0.15
29 0.15
3 0.14
30 0.15
31 0.15
32 0.15
33 0.15
34 0.15
35 0.15
36 0.15
37 0.15
38 0.15
6 -0.29
7 -0.29
8 -0.15

>  <PUBCHEM_EFFECTIVE_ROTOR_COUNT>  (1) 
0.2

>  <PUBCHEM_PHARMACOPHORE_FEATURES>  (1) 
5
6 1 2 3 4 5 7 rings
6 1 2 6 8 9 10 rings
6 13 14 17 18 21 22 rings
6 4 5 11 12 13 14 rings
6 9 10 15 16 19 20 rings

>  <PUBCHEM_HEAVY_ATOM_COUNT>  (1) 
22

>  <PUBCHEM_ATOM_DEF_STEREO_COUNT>  (1) 
0

>  <PUBCHEM_ATOM_UDEF_STEREO_COUNT>  (1) 
1

>  <PUBCHEM_BOND_DEF_STEREO_COUNT>  (1) 
0

>  <PUBCHEM_BOND_UDEF_STEREO_COUNT>  (1) 
0

>  <PUBCHEM_ISOTOPIC_ATOM_COUNT>  (1) 
0

>  <PUBCHEM_COMPONENT_COUNT>  (1) 
1

>  <PUBCHEM_CACTVS_TAUTO_COUNT>  (1) 
1

>  <PUBCHEM_CONFORMER_ID>  (1) 
000023D700000001

>  <PUBCHEM_MMFF94_ENERGY>  (1) 
75.9062

>  <PUBCHEM_FEATURE_SELFOVERLAP>  (1) 
25.472

>  <PUBCHEM_SHAPE_FINGERPRINT>  (1) 
10 15 18271512188132016466
10622 236 17485627562918014503
10693767 8 17840005671404755239
10835480 77 18410564106864684557
10906281 52 18266200411843080930
11045515 52 18113899342693351973
11806522 49 18409168809697380792
12107183 9 17690562983438220962
12166972 35 17749112209466067796
12236239 1 17917713508612854475
12403259 226 18411412904134710336
12516196 113 18343580750503697768
13140716 1 18342179925208206032
13288520 33 18411983546410825949
13402501 40 18410856559661369350
13544653 18 18335990825815797441
13583140 156 14979388440023193809
13685833 64 18408608084795858651
138480 1 14879469972857322773
13862211 1 18409727352819385554
14341114 176 18411986870589055339
14866123 147 18196938760607296713
15196674 1 18410856559639815568
15352361 1 18410856559639796079
15927050 60 17622725740899469620
16087824 20 18265052428286326925
17492 89 18122062267784998907
17857418 61 18411698785620798394
1813 80 17530974540381937876
19141452 34 18340493257586993185
200 152 18202562882393613785
20028762 73 18202279229663724246
20261772 1 17917706920423510990
20374829 77 18408601452775243475
20403669 9 18341899566944013422
20645477 70 18334573594188229520
21033650 10 16733259032671400388
21236236 1 18342458085103199169
21267235 1 18410863161073251243
21279426 13 18336260150862979389
21756936 100 8069733062678131698
221357 26 18335132112136107375
221490 88 18191030199482513955
22393880 68 18113886153175228997
23402539 116 18411978053200395487
23522609 53 18123504697606339177
23557571 272 18200316515755989844
23559900 14 18411130377075160929
25147074 1 18339381711123594361
2838139 119 8070026640556385762
2871803 45 18333449820516934914
3004659 81 18186519908533388454
335352 9 18410573968963502085
3421961 26 18341048626733323960
350125 39 18412827992694806408
4073 2 18114748238557578682
4214541 1 18411138004836663241
46194498 28 17458904963111025789
463206 1 18268147732946650639
465052 167 18273218603607083126
5104073 3 18271807899754344456
5283173 99 18187919517821126637
59755656 215 18335419032583301247
67856867 119 18336265755632094964
7495541 125 17774998012014242586
8863177 126 17751938045240805987
9709674 26 18190745426155789667

>  <PUBCHEM_SHAPE_MULTIPOLES>  (1) 
452.75
12.39
2.78
0.65
0.13
0.67
0
-7.55
-0.72
-0.02
-0.15
-0.05
0.02
0.1

>  <PUBCHEM_SHAPE_SELFOVERLAP>  (1) 
1028.784

>  <PUBCHEM_SHAPE_VOLUME>  (1) 
221.3

>  <PUBCHEM_COORDINATE_TYPE>  (1) 
2
5
10

$$$$
