9177
     RDKit          3D

 22 26  0  0  0  0  0  0  0  0999 V2000
    0.0000    2.2246   -0.0007 N   0  0  0  0  0  0  0  0  0  0  0  0
    1.2460    0.1593   -0.0013 C   0  0  0  0  0  0  0  0  0  0  0  0
   -1.2461    0.1593   -0.0012 C   0  0  0  0  0  0  0  0  0  0  0  0
    2.5315   -0.4952   -0.0007 C   0  0  0  0  0  0  0  0  0  0  0  0
   -2.5314   -0.4951   -0.0008 C   0  0  0  0  0  0  0  0  0  0  0  0
    0.0000   -0.5101   -0.0016 C   0  0  0  0  0  0  0  0  0  0  0  0
    1.1672    1.5605   -0.0007 C   0  0  0  0  0  0  0  0  0  0  0  0
   -1.1672    1.5606   -0.0007 C   0  0  0  0  0  0  0  0  0  0  0  0
    3.7039    0.2987    0.0007 C   0  0  0  0  0  0  0  0  0  0  0  0
   -3.7038    0.2987    0.0007 C   0  0  0  0  0  0  0  0  0  0  0  0
    2.3394    2.2992    0.0001 C   0  0  0  0  0  0  0  0  0  0  0  0
   -2.3393    2.2993    0.0000 C   0  0  0  0  0  0  0  0  0  0  0  0
    3.5909    1.6887    0.0009 C   0  0  0  0  0  0  0  0  0  0  0  0
   -3.5908    1.6888    0.0009 C   0  0  0  0  0  0  0  0  0  0  0  0
    2.7144   -1.9009   -0.0013 C   0  0  0  0  0  0  0  0  0  0  0  0
   -2.7145   -1.9009   -0.0014 C   0  0  0  0  0  0  0  0  0  0  0  0
    4.9760   -0.2992    0.0019 C   0  0  0  0  0  0  0  0  0  0  0  0
   -4.9759   -0.2992    0.0020 C   0  0  0  0  0  0  0  0  0  0  0  0
    3.9841   -2.4849   -0.0002 C   0  0  0  0  0  0  0  0  0  0  0  0
   -3.9842   -2.4850   -0.0002 C   0  0  0  0  0  0  0  0  0  0  0  0
    5.1156   -1.6835    0.0018 C   0  0  0  0  0  0  0  0  0  0  0  0
   -5.1156   -1.6835    0.0018 C   0  0  0  0  0  0  0  0  0  0  0  0
  1  7  2  0
  1  8  1  0
  2  4  1  0
  2  6  2  0
  2  7  1  0
  3  5  1  0
  3  6  1  0
  3  8  2  0
  4  9  2  0
  4 15  1  0
  5 10  2  0
  5 16  1  0
  7 11  1  0
  8 12  1  0
  9 13  1  0
  9 17  1  0
 10 14  1  0
 10 18  1  0
 11 13  2  0
 12 14  2  0
 15 19  2  0
 16 20  2  0
 17 21  2  0
 18 22  2  0
 19 21  1  0
 20 22  1  0
M  END
>  <PUBCHEM_COMPOUND_CID>  (1) 
9177

>  <PUBCHEM_CONFORMER_RMSD>  (1) 
0.6

>  <PUBCHEM_CONFORMER_DIVERSEORDER>  (1) 
1

>  <PUBCHEM_MMFF94_PARTIAL_CHARGES>  (1) 
29
1 -0.62
11 -0.15
12 -0.15
13 -0.15
14 -0.15
15 -0.15
16 -0.15
17 -0.15
18 -0.15
19 -0.15
20 -0.15
21 -0.15
22 -0.15
23 0.15
24 0.15
25 0.15
26 0.15
27 0.15
28 0.15
29 0.15
30 0.15
31 0.15
32 0.15
33 0.15
34 0.15
35 0.15
6 -0.15
7 0.31
8 0.31

>  <PUBCHEM_EFFECTIVE_ROTOR_COUNT>  (1) 
0

>  <PUBCHEM_PHARMACOPHORE_FEATURES>  (1) 
6
1 1 acceptor
6 1 2 3 6 7 8 rings
6 2 4 7 9 11 13 rings
6 3 5 8 10 12 14 rings
6 4 9 15 17 19 21 rings
6 5 10 16 18 20 22 rings

>  <PUBCHEM_HEAVY_ATOM_COUNT>  (1) 
22

>  <PUBCHEM_ATOM_DEF_STEREO_COUNT>  (1) 
0

>  <PUBCHEM_ATOM_UDEF_STEREO_COUNT>  (1) 
0

>  <PUBCHEM_BOND_DEF_STEREO_COUNT>  (1) 
0

>  <PUBCHEM_BOND_UDEF_STEREO_COUNT>  (1) 
0

>  <PUBCHEM_ISOTOPIC_ATOM_COUNT>  (1) 
0

>  <PUBCHEM_COMPONENT_COUNT>  (1) 
1

>  <PUBCHEM_CACTVS_TAUTO_COUNT>  (1) 
1

>  <PUBCHEM_CONFORMER_ID>  (1) 
000023D900000001

>  <PUBCHEM_MMFF94_ENERGY>  (1) 
81.6451

>  <PUBCHEM_FEATURE_SELFOVERLAP>  (1) 
30.552

>  <PUBCHEM_SHAPE_FINGERPRINT>  (1) 
10616163 171 18412827979746607575
10622 236 17270299235973311063
10693767 8 18055895835990850359
1100329 8 16825025136455904131
11405975 8 18341897363799896425
11806522 49 18408041810331586452
11963148 33 17975971282704389226
12107183 9 17979640026381885539
12403259 226 18410569591400777804
12633257 1 18271818873759742921
13140716 1 18342740671848744153
13167823 11 18410572885640180643
13533116 47 18342457097070420785
13544653 18 18335426811037599267
13583140 156 17845919823230855480
138480 1 14879751447802404389
14341114 176 18411986857603692833
14866123 147 17406558000560131856
15196674 1 18410573985151704485
15352361 1 18410573985183327023
15442244 35 18411139095542202056
15536298 74 18413106169389685416
15927050 60 17766558337502127740
17492 89 18410293631204143363
17844677 252 18411989052332137056
17857418 61 18410853265431768915
1813 80 17458062676910979172
19141452 34 18338239245759720237
19591789 44 18410572885640135175
200 152 18273213097031488065
20028762 73 18201433705222029430
20261772 1 17917708036972641654
20281475 54 18410578387498568084
20645477 70 18335136527119894282
21065198 57 18411698772762497609
21267235 1 18410582785539700486
21279426 13 18335976489979971733
21673915 165 18410855481829981570
21792934 111 18412820297015141689
221490 88 18408890667509751474
22393880 68 17968646147376563549
23522609 53 18122379892884508356
23559900 14 18411129247187590609
239999 70 18202009863016452412
2871803 45 18261105300777392963
3004659 81 18187361038754255366
312423 11 18337403698252429221
314194 84 18197499739070475979
335352 9 18410573947330468533
3421961 26 18412542150015703312
350125 39 18411421712932812068
4073 2 18114749338074286314
4214541 1 18410855425968948449
46194498 28 17314502837165702077
463206 1 18267866279508131895
465052 167 18271531973849441198
5104073 3 18342738507248349224
559249 180 18263358097113226667
633830 44 16805332071417096492
67856867 119 18335138739286962924
77779 3 18410575084663143876
9709674 26 18334861666071222235
9981440 41 17470169618773414264

>  <PUBCHEM_SHAPE_MULTIPOLES>  (1) 
447.77
11.24
2.97
0.61
0
0.05
0
5.93
-0.01
0
0
0
0.01
0

>  <PUBCHEM_SHAPE_SELFOVERLAP>  (1) 
1042.654

>  <PUBCHEM_SHAPE_VOLUME>  (1) 
224.4

>  <PUBCHEM_COORDINATE_TYPE>  (1) 
2
5
10

$$$$
