9182
     RDKit          3D

 18 21  0  0  0  0  0  0  0  0999 V2000
    2.3841   -2.3073   -0.5842 S   0  0  0  0  0  0  0  0  0  0  0  0
   -0.6083    0.9532   -0.0614 N   0  0  0  0  0  0  0  0  0  0  0  0
   -0.1020   -1.3866    0.2118 C   0  0  0  0  0  0  0  0  0  0  0  0
    0.2935   -0.0553    0.0797 C   0  0  0  0  0  0  0  0  0  0  0  0
    1.7182    0.3420    0.0601 C   0  0  0  0  0  0  0  0  0  0  0  0
    0.8884   -2.4926    0.4234 C   0  0  0  0  0  0  0  0  0  0  0  0
   -1.4716   -1.6611    0.2220 C   0  0  0  0  0  0  0  0  0  0  0  0
    2.7420   -0.5871   -0.2295 C   0  0  0  0  0  0  0  0  0  0  0  0
   -2.4085   -0.6324    0.0773 C   0  0  0  0  0  0  0  0  0  0  0  0
   -1.9259    0.6793   -0.0647 C   0  0  0  0  0  0  0  0  0  0  0  0
    2.1020    1.6743    0.3144 C   0  0  0  0  0  0  0  0  0  0  0  0
    4.0849   -0.1810   -0.2800 C   0  0  0  0  0  0  0  0  0  0  0  0
   -3.7912   -0.8856    0.0749 C   0  0  0  0  0  0  0  0  0  0  0  0
   -2.8530    1.7078   -0.2088 C   0  0  0  0  0  0  0  0  0  0  0  0
    3.4413    2.0697    0.2743 C   0  0  0  0  0  0  0  0  0  0  0  0
    4.4317    1.1432   -0.0257 C   0  0  0  0  0  0  0  0  0  0  0  0
   -4.6981    0.1601   -0.0707 C   0  0  0  0  0  0  0  0  0  0  0  0
   -4.2276    1.4593   -0.2130 C   0  0  0  0  0  0  0  0  0  0  0  0
  1  6  1  0
  1  8  1  0
  2  4  2  0
  2 10  1  0
  3  4  1  0
  3  6  1  0
  3  7  2  0
  4  5  1  0
  5  8  2  0
  5 11  1  0
  7  9  1  0
  8 12  1  0
  9 10  2  0
  9 13  1  0
 10 14  1  0
 11 15  2  0
 12 16  2  0
 13 17  2  0
 14 18  2  0
 15 16  1  0
 17 18  1  0
M  END
>  <PUBCHEM_COMPOUND_CID>  (1) 
9182

>  <PUBCHEM_CONFORMER_RMSD>  (1) 
0.6

>  <PUBCHEM_CONFORMER_DIVERSEORDER>  (1) 
1

>  <PUBCHEM_MMFF94_PARTIAL_CHARGES>  (1) 
25
1 -0.33
10 0.31
11 -0.15
12 -0.15
13 -0.15
14 -0.15
15 -0.15
16 -0.15
17 -0.15
18 -0.15
2 -0.62
21 0.15
22 0.15
23 0.15
24 0.15
25 0.15
26 0.15
27 0.15
28 0.15
29 0.15
3 -0.14
4 0.31
6 0.37
7 -0.15
8 0.1

>  <PUBCHEM_EFFECTIVE_ROTOR_COUNT>  (1) 
0.4

>  <PUBCHEM_PHARMACOPHORE_FEATURES>  (1) 
5
1 2 acceptor
6 1 3 4 5 6 8 rings
6 2 3 4 7 9 10 rings
6 5 8 11 12 15 16 rings
6 9 10 13 14 17 18 rings

>  <PUBCHEM_HEAVY_ATOM_COUNT>  (1) 
18

>  <PUBCHEM_ATOM_DEF_STEREO_COUNT>  (1) 
0

>  <PUBCHEM_ATOM_UDEF_STEREO_COUNT>  (1) 
0

>  <PUBCHEM_BOND_DEF_STEREO_COUNT>  (1) 
0

>  <PUBCHEM_BOND_UDEF_STEREO_COUNT>  (1) 
0

>  <PUBCHEM_ISOTOPIC_ATOM_COUNT>  (1) 
0

>  <PUBCHEM_COMPONENT_COUNT>  (1) 
1

>  <PUBCHEM_CACTVS_TAUTO_COUNT>  (1) 
1

>  <PUBCHEM_CONFORMER_ID>  (1) 
000023DE00000001

>  <PUBCHEM_MMFF94_ENERGY>  (1) 
56.1304

>  <PUBCHEM_FEATURE_SELFOVERLAP>  (1) 
25.441

>  <PUBCHEM_SHAPE_FINGERPRINT>  (1) 
10411042 1 17329709821639462939
10498660 4 18334007268527975677
10608611 8 18410011030908356781
10616163 171 18339643455104728911
10646746 165 18407478864362039044
10967382 1 18410856542491581920
11132069 177 18187363255189540781
11370993 70 18410570721192597034
11471102 20 18412825763727787270
12403259 415 18410011052436486452
12592029 89 18407759227063741306
12644460 14 18188776028593706675
12730499 353 18410301306647895875
13140716 1 18336263457586805706
13380535 76 18410012178060530098
138480 1 17906452126044125702
15196674 1 18410293605391420455
15219456 202 18411140229397678967
15375358 24 18408041831368761498
15442244 35 18124597470455755658
15536298 74 18341332197485036031
16945 1 18411981351508711218
18186145 218 18272662228921336128
200 152 17775566446371894561
20510252 161 18341334474171131145
20645477 70 18201440233566264902
21267235 1 18411428292812225023
21524375 3 18408884061750057186
221490 88 18338243677902336107
22854114 111 18408603638850215562
23227448 37 18342174530813626463
23366157 5 17968660398031059698
23402539 116 18340760537379974268
23402655 69 18272932712960743837
23558518 356 17756703397106461194
23559900 14 18342174410981907042
25 1 18410853261505891414
2748010 2 18336839674641683838
3004659 81 18188217495080345454
3323516 105 18411705348378247622
335352 9 18338516344454653670
3545911 37 18410577288160883717
4028521 119 18335133190020119205
4214541 1 18410856559798363445
474 4 18040721389118677700
495365 180 17703217516634629680
4990 188 18131357397003351180
5104073 3 18335704897385354067
543358 83 18197221351583939858
58051976 378 18412542098096164245
6138700 20 18338802192135735574
6333272 397 18408603686158289360
633830 44 18413105056650030909
69090 78 18343017834730842143
7364860 26 18340768131104011222
77779 3 18411983554974471189
7808743 9 17976820110466187608
8272917 22 18272093746923521670
9709674 26 18411425015810440903

>  <PUBCHEM_SHAPE_MULTIPOLES>  (1) 
369.3
8.7
2.48
0.68
2.71
0.61
-0.01
-3.4
-0.61
-1.21
0.07
-0.09
0.07
0.54

>  <PUBCHEM_SHAPE_SELFOVERLAP>  (1) 
823.794

>  <PUBCHEM_SHAPE_VOLUME>  (1) 
196.3

>  <PUBCHEM_COORDINATE_TYPE>  (1) 
2
5
10

$$$$
