9184
     RDKit          3D

 22 26  0  0  0  0  0  0  0  0999 V2000
    0.5577    1.2459    0.0008 N   0  0  0  0  0  0  0  0  0  0  0  0
   -0.5577   -1.2460    0.0006 N   0  0  0  0  0  0  0  0  0  0  0  0
    1.3617    0.1660    0.0006 C   0  0  0  0  0  0  0  0  0  0  0  0
   -1.3616   -0.1661    0.0006 C   0  0  0  0  0  0  0  0  0  0  0  0
    2.7702    0.2845    0.0003 C   0  0  0  0  0  0  0  0  0  0  0  0
   -2.7702   -0.2845    0.0002 C   0  0  0  0  0  0  0  0  0  0  0  0
    0.7764   -1.1023    0.0007 C   0  0  0  0  0  0  0  0  0  0  0  0
   -0.7765    1.1024    0.0006 C   0  0  0  0  0  0  0  0  0  0  0  0
    3.5814   -0.8753   -0.0001 C   0  0  0  0  0  0  0  0  0  0  0  0
   -3.5814    0.8752    0.0000 C   0  0  0  0  0  0  0  0  0  0  0  0
    1.5844   -2.2314    0.0006 C   0  0  0  0  0  0  0  0  0  0  0  0
   -1.5844    2.2313    0.0005 C   0  0  0  0  0  0  0  0  0  0  0  0
    2.9721   -2.1295    0.0002 C   0  0  0  0  0  0  0  0  0  0  0  0
   -2.9722    2.1295    0.0002 C   0  0  0  0  0  0  0  0  0  0  0  0
    3.4167    1.5389   -0.0002 C   0  0  0  0  0  0  0  0  0  0  0  0
   -3.4167   -1.5388   -0.0002 C   0  0  0  0  0  0  0  0  0  0  0  0
    4.9816   -0.7579   -0.0007 C   0  0  0  0  0  0  0  0  0  0  0  0
   -4.9816    0.7580   -0.0006 C   0  0  0  0  0  0  0  0  0  0  0  0
    4.8094    1.6425   -0.0009 C   0  0  0  0  0  0  0  0  0  0  0  0
   -4.8094   -1.6425   -0.0009 C   0  0  0  0  0  0  0  0  0  0  0  0
    5.5913    0.4945   -0.0012 C   0  0  0  0  0  0  0  0  0  0  0  0
   -5.5914   -0.4945   -0.0012 C   0  0  0  0  0  0  0  0  0  0  0  0
  1  3  2  0
  1  8  1  0
  2  4  1  0
  2  7  2  0
  3  5  1  0
  3  7  1  0
  4  6  1  0
  4  8  2  0
  5  9  2  0
  5 15  1  0
  6 10  2  0
  6 16  1  0
  7 11  1  0
  8 12  1  0
  9 13  1  0
  9 17  1  0
 10 14  1  0
 10 18  1  0
 11 13  2  0
 12 14  2  0
 15 19  2  0
 16 20  2  0
 17 21  2  0
 18 22  2  0
 19 21  1  0
 20 22  1  0
M  END
>  <PUBCHEM_COMPOUND_CID>  (1) 
9184

>  <PUBCHEM_CONFORMER_RMSD>  (1) 
0.6

>  <PUBCHEM_CONFORMER_DIVERSEORDER>  (1) 
1

>  <PUBCHEM_MMFF94_PARTIAL_CHARGES>  (1) 
30
1 -0.62
11 -0.15
12 -0.15
13 -0.15
14 -0.15
15 -0.15
16 -0.15
17 -0.15
18 -0.15
19 -0.15
2 -0.62
20 -0.15
21 -0.15
22 -0.15
23 0.15
24 0.15
25 0.15
26 0.15
27 0.15
28 0.15
29 0.15
3 0.31
30 0.15
31 0.15
32 0.15
33 0.15
34 0.15
4 0.31
7 0.31
8 0.31

>  <PUBCHEM_EFFECTIVE_ROTOR_COUNT>  (1) 
0

>  <PUBCHEM_PHARMACOPHORE_FEATURES>  (1) 
7
1 1 acceptor
1 2 acceptor
6 1 2 3 4 7 8 rings
6 3 5 7 9 11 13 rings
6 4 6 8 10 12 14 rings
6 5 9 15 17 19 21 rings
6 6 10 16 18 20 22 rings

>  <PUBCHEM_HEAVY_ATOM_COUNT>  (1) 
22

>  <PUBCHEM_ATOM_DEF_STEREO_COUNT>  (1) 
0

>  <PUBCHEM_ATOM_UDEF_STEREO_COUNT>  (1) 
0

>  <PUBCHEM_BOND_DEF_STEREO_COUNT>  (1) 
0

>  <PUBCHEM_BOND_UDEF_STEREO_COUNT>  (1) 
0

>  <PUBCHEM_ISOTOPIC_ATOM_COUNT>  (1) 
0

>  <PUBCHEM_COMPONENT_COUNT>  (1) 
1

>  <PUBCHEM_CACTVS_TAUTO_COUNT>  (1) 
1

>  <PUBCHEM_CONFORMER_ID>  (1) 
000023E000000001

>  <PUBCHEM_MMFF94_ENERGY>  (1) 
78.3924

>  <PUBCHEM_FEATURE_SELFOVERLAP>  (1) 
35.65

>  <PUBCHEM_SHAPE_FINGERPRINT>  (1) 
10 15 18339068407220108296
10090160 65 18187361060229241334
10411042 1 17474388457853349942
10595046 47 18410855477308030984
10616163 171 18412545396842388343
10906281 52 18262539059697643697
11135609 12 17751094698463022427
11488393 25 17416144797246826078
11578080 2 17097195139655429783
11963148 33 18337102483760163307
12107183 9 17690280408807113435
12236239 1 18410856559639789597
12403259 226 18337104558555635316
12403259 415 18272080613283159488
12788726 201 17130713777894136593
13140716 1 17978510059109351689
13167823 11 18411698764124810934
13224815 77 18410855442948292634
13533116 47 17240754044015604666
13862211 1 18410852191732214391
14341114 176 18410299090101580743
14528608 73 18411702114489186012
14787075 74 18409728495106411707
14790565 3 18339929310821389868
15196674 1 18410856542459920389
15536298 74 18341050731404013686
15788980 27 16515683333970967727
15927050 60 17333653172393712628
15961568 22 18040439923339142020
17349148 13 17894915135042691028
17492 89 18339360734566747566
17844677 252 18341621360637634374
1813 80 17240489087124171197
18681886 176 18411979183425731808
19591789 44 18268709591893346008
200 152 18201718453252871561
20645477 70 18343023246801241326
21236236 1 18341613694638313585
21267235 1 18411145718366065134
21673915 165 18410293605396682231
221490 88 18338804412005930594
22393880 68 18265618684772826222
23402539 116 18409725188187432599
23559900 14 18268421343795388224
239999 70 18273220781482530374
245318 6 17099200919928280180
2871803 45 18408038502758628971
3004659 81 18334013874519472834
335352 9 18410855438653325758
34797466 226 17561090236649187540
34934 24 18410006620620625959
350125 39 18410855469314455180
3545911 37 18409168800722434837
4073 2 18113343041185514754
4214541 1 18410855417368698209
4325135 7 18410573993741386053
4340502 62 17022904553413072482
474 4 17822299006731409364
474229 33 18411418435962429550
5104073 3 18410856516690117530
5283173 99 18041830711021905565
5486654 2 18338520840842300710
59755656 215 18410579474721399790
67856867 119 18189056545914510092
7495541 125 17846774139602142864
77779 3 18411700945915215878
9709674 26 18410018697509928362

>  <PUBCHEM_SHAPE_MULTIPOLES>  (1) 
442.79
12.27
2.34
0.61
0
0
0
0
-0.01
0
0
0
0
0

>  <PUBCHEM_SHAPE_SELFOVERLAP>  (1) 
1035.367

>  <PUBCHEM_SHAPE_VOLUME>  (1) 
222.1

>  <PUBCHEM_COORDINATE_TYPE>  (1) 
2
5
10

$$$$
