9187
     RDKit          3D

 17 20  0  0  0  0  0  0  0  0999 V2000
   -4.5245   -0.1869    0.0000 S   0  0  0  0  0  0  0  0  0  0  0  0
   -0.5733   -0.1282   -0.0001 C   0  0  0  0  0  0  0  0  0  0  0  0
   -0.2364    1.2457    0.0001 C   0  0  0  0  0  0  0  0  0  0  0  0
   -1.9522   -0.5293   -0.0002 C   0  0  0  0  0  0  0  0  0  0  0  0
    1.8146   -0.7060    0.0002 C   0  0  0  0  0  0  0  0  0  0  0  0
    2.1454    0.6666   -0.0001 C   0  0  0  0  0  0  0  0  0  0  0  0
    0.4625   -1.0885    0.0001 C   0  0  0  0  0  0  0  0  0  0  0  0
    1.1165    1.6231    0.0000 C   0  0  0  0  0  0  0  0  0  0  0  0
   -2.9302    0.4716    0.0000 C   0  0  0  0  0  0  0  0  0  0  0  0
   -1.2491    2.2051    0.0002 C   0  0  0  0  0  0  0  0  0  0  0  0
   -2.5943    1.8370    0.0002 C   0  0  0  0  0  0  0  0  0  0  0  0
   -2.5707   -1.8325   -0.0002 C   0  0  0  0  0  0  0  0  0  0  0  0
    2.8454   -1.6605    0.0005 C   0  0  0  0  0  0  0  0  0  0  0  0
    3.4976    1.0473   -0.0004 C   0  0  0  0  0  0  0  0  0  0  0  0
   -3.9440   -1.7854   -0.0001 C   0  0  0  0  0  0  0  0  0  0  0  0
    4.1833   -1.2657    0.0002 C   0  0  0  0  0  0  0  0  0  0  0  0
    4.5092    0.0866   -0.0004 C   0  0  0  0  0  0  0  0  0  0  0  0
  1  9  1  0
  1 15  1  0
  2  3  2  0
  2  4  1  0
  2  7  1  0
  3  8  1  0
  3 10  1  0
  4  9  2  0
  4 12  1  0
  5  6  1  0
  5  7  2  0
  5 13  1  0
  6  8  2  0
  6 14  1  0
  9 11  1  0
 10 11  2  0
 12 15  2  0
 13 16  2  0
 14 17  2  0
 16 17  1  0
M  END
>  <PUBCHEM_COMPOUND_CID>  (1) 
9187

>  <PUBCHEM_CONFORMER_RMSD>  (1) 
0.4

>  <PUBCHEM_CONFORMER_DIVERSEORDER>  (1) 
1

>  <PUBCHEM_MMFF94_PARTIAL_CHARGES>  (1) 
22
1 -0.08
10 -0.15
11 -0.15
12 -0.15
13 -0.15
14 -0.15
15 -0.11
16 -0.15
17 -0.15
18 0.15
19 0.15
20 0.15
21 0.15
22 0.15
23 0.15
24 0.15
25 0.15
26 0.15
27 0.15
7 -0.15
8 -0.15
9 0.04

>  <PUBCHEM_EFFECTIVE_ROTOR_COUNT>  (1) 
0

>  <PUBCHEM_PHARMACOPHORE_FEATURES>  (1) 
4
5 1 4 9 12 15 rings
6 2 3 4 9 10 11 rings
6 2 3 5 6 7 8 rings
6 5 6 13 14 16 17 rings

>  <PUBCHEM_HEAVY_ATOM_COUNT>  (1) 
17

>  <PUBCHEM_ATOM_DEF_STEREO_COUNT>  (1) 
0

>  <PUBCHEM_ATOM_UDEF_STEREO_COUNT>  (1) 
0

>  <PUBCHEM_BOND_DEF_STEREO_COUNT>  (1) 
0

>  <PUBCHEM_BOND_UDEF_STEREO_COUNT>  (1) 
0

>  <PUBCHEM_ISOTOPIC_ATOM_COUNT>  (1) 
0

>  <PUBCHEM_COMPONENT_COUNT>  (1) 
1

>  <PUBCHEM_CACTVS_TAUTO_COUNT>  (1) 
1

>  <PUBCHEM_CONFORMER_ID>  (1) 
000023E300000001

>  <PUBCHEM_MMFF94_ENERGY>  (1) 
49.7708

>  <PUBCHEM_FEATURE_SELFOVERLAP>  (1) 
20.407

>  <PUBCHEM_SHAPE_FINGERPRINT>  (1) 
10608611 8 18411696561102149584
10616163 171 18412265012618669766
10618630 7 18409730681255301765
10967382 1 18338799038632162406
11132069 177 18410852153082575760
11471102 20 18410007762469886670
11806522 49 18336264625807334398
12032990 46 18410858780143182346
13140716 1 18268423543177483048
13221675 6 18411698798436992079
13288520 33 18412829058099604646
13296908 3 18411418397386715238
138480 1 15095924242996262413
14115302 16 17749680678558244871
14790565 3 17473269154757811097
15196674 1 18410573980867091812
15442244 35 18265613174245421610
15536298 74 18341894104114650352
16945 1 18338799025779123397
17492 89 18337671919156042322
17804303 29 18342178864472485969
1813 80 17458347450443646125
18186145 218 17603860126435896535
18522853 276 18412262839322617153
19141452 34 18272091621663887143
200 152 18131345328482859335
20261772 1 17989203797532419327
20281475 54 18411140238019333496
20510252 161 18271808965085886745
20645477 70 18412824681174931071
21029758 11 18342170077391521497
21267235 1 18410302401548083974
21501502 16 18410016507165940356
221490 88 18263369259611812307
23402539 116 18410848880349352663
23463225 33 18410294726399042316
23557571 272 18201166459798036732
23559900 14 18412257329317582216
2748010 2 18411975849618519468
2871803 45 18334852822691361511
3312278 4 18411700963142733361
335352 9 18194402190917140573
34934 24 18410567405572926435
4214541 1 18410856516753576032
474 4 17241339104613841092
4921388 177 16081378500574395139
5104073 3 18412262817921589104
69090 78 18341890779667674903
7364860 26 18268992166667151256
77779 3 18411139125728142958
83771 10 18411701014866788259
8809292 202 18333735744921742651
9709674 26 18340773645715568334

>  <PUBCHEM_SHAPE_MULTIPOLES>  (1) 
353.7
8.48
2.2
0.62
1.52
0.27
0
-2.61
0
-0.75
0
-0.02
0
0

>  <PUBCHEM_SHAPE_SELFOVERLAP>  (1) 
801.418

>  <PUBCHEM_SHAPE_VOLUME>  (1) 
184.7

>  <PUBCHEM_COORDINATE_TYPE>  (1) 
2
5
10

$$$$
