919
     RDKit          3D

 16 15  0  0  1  0  0  0  0  0999 V2000
    3.7667   -3.2654   -0.6926 O   0  0  0  0  0  0  0  0  0  0  0  0
    1.8938    1.9005   -1.6871 O   0  0  0  0  0  0  0  0  0  0  0  0
   -1.0090    0.7262    1.8482 O   0  0  0  0  0  0  0  0  0  0  0  0
    3.4899    2.2738   -0.1302 O   0  0  0  0  0  0  0  0  0  0  0  0
   -5.6586   -0.5721    0.3298 O   0  0  0  0  0  0  0  0  0  0  0  0
   -4.4185   -0.6657   -1.5706 O   0  0  0  0  0  0  0  0  0  0  0  0
    0.3007    0.6034   -0.0684 N   0  0  0  0  0  0  0  0  0  0  0  0
    1.5545    0.9813    0.5312 C   0  0  0  0  0  0  0  0  0  0  0  0
    2.3254   -0.2480    1.0255 C   0  0  0  0  0  0  0  0  0  0  0  0
    2.7026   -1.1997   -0.1115 C   0  0  0  0  0  0  0  0  0  0  0  0
    3.4316   -2.4316    0.4080 C   0  0  0  0  0  0  0  0  0  0  0  0
   -0.8874    0.5063    0.6461 C   0  0  0  0  0  0  0  0  0  0  0  0
    2.4108    1.7799   -0.4408 C   0  0  0  0  0  0  0  0  0  0  0  0
   -2.0446    0.0867   -0.2426 C   0  0  0  0  0  0  0  0  0  0  0  0
   -3.3582   -0.0253    0.5244 C   0  0  0  0  0  0  0  0  0  0  0  0
   -4.4998   -0.4504   -0.3694 C   0  0  0  0  0  0  0  0  0  0  0  0
  1 11  1  0
  2 13  1  0
  3 12  2  0
  4 13  2  0
  5 16  1  0
  6 16  2  0
  7  8  1  0
  7 12  1  0
  8  9  1  0
  8 13  1  0
  9 10  1  0
 10 11  1  0
 12 14  1  0
 14 15  1  0
 15 16  1  0
M  END
>  <PUBCHEM_COMPOUND_CID>  (1) 
919

>  <PUBCHEM_CONFORMER_RMSD>  (1) 
0.8

>  <PUBCHEM_CONFORMER_DIVERSEORDER>  (1) 
1
146
149
131
277
157
225
87
23
161
22
60
265
252
214
99
106
175
213
266
191
262
48
81
102
137
105
211
258
282
55
156
26
67
7
264
179
72
17
254
190
40
70
273
255
14
31
141
224
271
100
143
206
37
42
109
80
68
176
130
49
281
101
89
208
195
97
140
238
118
216
257
5
163
201
116
57
153
172
51
196
52
123
198
189
164
150
280
54
152
278
128
2
187
169
62
231
235
275
126
188
63
261
71
228
30
24
222
92
148
239
74
242
212
4
18
178
142
160
247
192
124
241
203
27
32
134
44
183
202
232
270
166
147
98
226
84
168
171
103
267
120
272
38
15
218
93
119
127
59
227
20
43
11
279
114
50
215
259
25
125
110
263
243
39
250
180
47
13
73
139
194
56
165
236
186
132
75
29
234
233
144
83
46
76
9
91
207
45
10
65
21
154
223
104
107
35
69
145
133
77
173
122
41
253
170
174
274
184
113
246
28
245
58
86
251
115
209
269
16
217
200
204
3
181
155
66
260
229
220
82
88
159
111
79
276
237
162
129
95
240
8
268
219
167
78
256
90
197
199
138
177
121
33
53
248
19
221
96
185
136
182
61
12
36
205
34
94
135
151
117
244
230
6
85
210
249
64
193
112
108
158

>  <PUBCHEM_MMFF94_PARTIAL_CHARGES>  (1) 
18
1 -0.68
11 0.28
12 0.57
13 0.66
14 0.06
15 0.06
16 0.66
2 -0.65
22 0.37
29 0.4
3 -0.57
30 0.5
31 0.5
4 -0.57
5 -0.65
6 -0.57
7 -0.73
8 0.36

>  <PUBCHEM_EFFECTIVE_ROTOR_COUNT>  (1) 
9

>  <PUBCHEM_PHARMACOPHORE_FEATURES>  (1) 
10
1 1 acceptor
1 1 donor
1 2 acceptor
1 3 acceptor
1 4 acceptor
1 5 acceptor
1 6 acceptor
1 7 donor
3 2 4 13 anion
3 5 6 16 anion

>  <PUBCHEM_HEAVY_ATOM_COUNT>  (1) 
16

>  <PUBCHEM_ATOM_DEF_STEREO_COUNT>  (1) 
0

>  <PUBCHEM_ATOM_UDEF_STEREO_COUNT>  (1) 
1

>  <PUBCHEM_BOND_DEF_STEREO_COUNT>  (1) 
0

>  <PUBCHEM_BOND_UDEF_STEREO_COUNT>  (1) 
0

>  <PUBCHEM_ISOTOPIC_ATOM_COUNT>  (1) 
0

>  <PUBCHEM_COMPONENT_COUNT>  (1) 
1

>  <PUBCHEM_CACTVS_TAUTO_COUNT>  (1) 
2

>  <PUBCHEM_CONFORMER_ID>  (1) 
0000039700000001

>  <PUBCHEM_MMFF94_ENERGY>  (1) 
17.1839

>  <PUBCHEM_FEATURE_SELFOVERLAP>  (1) 
50.869

>  <PUBCHEM_SHAPE_FINGERPRINT>  (1) 
12616999 72 18335984284617775832
13533116 47 18342738533666992443
13955234 65 18340486763448443744
14178000 29 18268433426055726798
14863182 85 18201995547743112250
15342816 4 17560514131453531677
15477762 27 18409448055681114458
17539 30 17684927999784431028
18186145 218 17313101943409202025
19784866 240 18271250408715190883
20281475 54 18201432623580340235
20388580 30 18339366262526676510
20645477 70 18333448755112032979
20671657 53 18188769431576784442
21054139 6 17983565596599868046
23557571 272 16806463572351131409
23598291 2 18339091371307582416
3057174 1 17902535979606344460
3060560 45 18262806293238385188
312423 11 18338811030618936881
4463277 69 18270393889325887166
4990 188 17530960293959365075
5281201 14 17967529065190612701
6025842 7 18337109063653997390
633830 44 17894906318118378177
7164475 11 18340205202657438881
7364860 26 18410576201982492392
81539 233 18041845146375020212
9841814 1 16773793740283940355

>  <PUBCHEM_SHAPE_MULTIPOLES>  (1) 
289.08
9.7
2.5
1.23
12.58
1.16
-0.05
4.75
-1.69
-5.24
-0.73
0.26
-0.24
-0.48

>  <PUBCHEM_SHAPE_SELFOVERLAP>  (1) 
556.738

>  <PUBCHEM_SHAPE_VOLUME>  (1) 
174.1

>  <PUBCHEM_COORDINATE_TYPE>  (1) 
2
5
10

$$$$
