9191
     RDKit          3D

 14 16  0  0  0  0  0  0  0  0999 V2000
   -1.4141   -1.5477   -0.0001 N   0  0  0  0  0  0  0  0  0  0  0  0
    0.6868   -0.3644   -0.0001 C   0  0  0  0  0  0  0  0  0  0  0  0
   -0.7258   -0.3834   -0.0001 C   0  0  0  0  0  0  0  0  0  0  0  0
    1.3901    0.8681    0.0000 C   0  0  0  0  0  0  0  0  0  0  0  0
   -1.4144    0.8495    0.0000 C   0  0  0  0  0  0  0  0  0  0  0  0
    0.6777    2.0692    0.0000 C   0  0  0  0  0  0  0  0  0  0  0  0
   -0.7121    2.0602    0.0000 C   0  0  0  0  0  0  0  0  0  0  0  0
    1.4480   -1.5530    0.0000 C   0  0  0  0  0  0  0  0  0  0  0  0
    2.7950    0.8777    0.0001 C   0  0  0  0  0  0  0  0  0  0  0  0
   -2.8163    0.8408    0.0000 C   0  0  0  0  0  0  0  0  0  0  0  0
    2.8443   -1.5281    0.0000 C   0  0  0  0  0  0  0  0  0  0  0  0
    3.5171   -0.3134    0.0000 C   0  0  0  0  0  0  0  0  0  0  0  0
   -3.5099   -0.3585    0.0001 C   0  0  0  0  0  0  0  0  0  0  0  0
   -2.7662   -1.5172    0.0001 C   0  0  0  0  0  0  0  0  0  0  0  0
  1  3  2  0
  1 14  1  0
  2  3  1  0
  2  4  2  0
  2  8  1  0
  3  5  1  0
  4  6  1  0
  4  9  1  0
  5  7  1  0
  5 10  2  0
  6  7  2  0
  8 11  2  0
  9 12  2  0
 10 13  1  0
 11 12  1  0
 13 14  2  0
M  END
>  <PUBCHEM_COMPOUND_CID>  (1) 
9191

>  <PUBCHEM_CONFORMER_RMSD>  (1) 
0.4

>  <PUBCHEM_CONFORMER_DIVERSEORDER>  (1) 
1

>  <PUBCHEM_MMFF94_PARTIAL_CHARGES>  (1) 
20
1 -0.62
10 -0.15
11 -0.15
12 -0.15
13 -0.15
14 0.16
15 0.15
16 0.15
17 0.15
18 0.15
19 0.15
20 0.15
21 0.15
22 0.15
23 0.15
3 0.31
6 -0.15
7 -0.15
8 -0.15
9 -0.15

>  <PUBCHEM_EFFECTIVE_ROTOR_COUNT>  (1) 
0

>  <PUBCHEM_PHARMACOPHORE_FEATURES>  (1) 
4
1 1 acceptor
6 1 3 5 10 13 14 rings
6 2 3 4 5 6 7 rings
6 2 4 8 9 11 12 rings

>  <PUBCHEM_HEAVY_ATOM_COUNT>  (1) 
14

>  <PUBCHEM_ATOM_DEF_STEREO_COUNT>  (1) 
0

>  <PUBCHEM_ATOM_UDEF_STEREO_COUNT>  (1) 
0

>  <PUBCHEM_BOND_DEF_STEREO_COUNT>  (1) 
0

>  <PUBCHEM_BOND_UDEF_STEREO_COUNT>  (1) 
0

>  <PUBCHEM_ISOTOPIC_ATOM_COUNT>  (1) 
0

>  <PUBCHEM_COMPONENT_COUNT>  (1) 
1

>  <PUBCHEM_CACTVS_TAUTO_COUNT>  (1) 
1

>  <PUBCHEM_CONFORMER_ID>  (1) 
000023E700000001

>  <PUBCHEM_MMFF94_ENERGY>  (1) 
45.8981

>  <PUBCHEM_FEATURE_SELFOVERLAP>  (1) 
20.354

>  <PUBCHEM_SHAPE_FINGERPRINT>  (1) 
10608611 8 18410569587115892300
10967382 1 18266459986802700230
11132069 177 18411694383421511088
11471102 20 18410288138219825701
11769659 78 18410569587115619458
12032990 46 18410580582221425667
12382932 28 18413388717780899768
13140716 1 18410856516721804562
13221675 6 18410575080384046310
14144814 61 18411419505377494947
14325111 11 18410856563945488256
15196674 1 18410573985151451142
15375462 189 18187930542854157675
15442244 35 18194683670436874498
15536298 74 18343584070750885208
16945 1 18410575084689725508
17844478 74 17967821535183399909
200 152 18059845191166862303
20201158 50 18409165519425533867
20510252 161 18129097823135784696
20645477 70 18119801663361807279
20871998 184 18129941178534267575
21267235 1 18410865355733240515
21501502 16 18411140212217816248
21501925 9 18410845586172486754
22721475 48 18410859853885006336
2334 1 18410575114749013954
23402539 116 18342163432533555534
23463225 33 18409730659885940820
23552423 10 18262521510424485397
23559900 14 18268987597391179690
2748010 2 18411134753277316972
3312278 4 18410014333764581248
335352 9 18122343471576630109
34934 24 18410845564523511814
5104073 3 18410573980861766090
528886 8 18411695500076123738
53812653 166 18271521009066751896
63268167 104 18410859884155655417
7364860 26 18197779005975054192
8809292 202 18260834816580080811

>  <PUBCHEM_SHAPE_MULTIPOLES>  (1) 
283.13
5.38
2.12
0.61
0.11
0.37
0
-1.53
0
-0.01
0
-0.01
0.01
0

>  <PUBCHEM_SHAPE_SELFOVERLAP>  (1) 
643.479

>  <PUBCHEM_SHAPE_VOLUME>  (1) 
146.9

>  <PUBCHEM_COORDINATE_TYPE>  (1) 
2
5
10

$$$$
