9193
     RDKit          3D

 13 15  0  0  0  0  0  0  0  0999 V2000
    1.9226    1.8703   -0.0002 S   0  0  0  0  0  0  0  0  0  0  0  0
   -0.5277    0.4000   -0.0002 C   0  0  0  0  0  0  0  0  0  0  0  0
    0.9040    0.4651   -0.0002 C   0  0  0  0  0  0  0  0  0  0  0  0
   -1.1475   -0.8738   -0.0001 C   0  0  0  0  0  0  0  0  0  0  0  0
    1.6843   -0.6991   -0.0001 C   0  0  0  0  0  0  0  0  0  0  0  0
   -0.3666   -2.0285    0.0000 C   0  0  0  0  0  0  0  0  0  0  0  0
    1.0274   -1.9510   -0.0001 C   0  0  0  0  0  0  0  0  0  0  0  0
   -1.3325    1.5611   -0.0002 C   0  0  0  0  0  0  0  0  0  0  0  0
   -2.5493   -0.9519    0.0001 C   0  0  0  0  0  0  0  0  0  0  0  0
    3.0889   -0.4006    0.0001 C   0  0  0  0  0  0  0  0  0  0  0  0
   -2.7236    1.4572    0.0001 C   0  0  0  0  0  0  0  0  0  0  0  0
    3.3501    0.9466    0.0004 C   0  0  0  0  0  0  0  0  0  0  0  0
   -3.3301    0.2047    0.0003 C   0  0  0  0  0  0  0  0  0  0  0  0
  1  3  1  0
  1 12  1  0
  2  3  2  0
  2  4  1  0
  2  8  1  0
  3  5  1  0
  4  6  2  0
  4  9  1  0
  5  7  2  0
  5 10  1  0
  6  7  1  0
  8 11  2  0
  9 13  2  0
 10 12  2  0
 11 13  1  0
M  END
>  <PUBCHEM_COMPOUND_CID>  (1) 
9193

>  <PUBCHEM_CONFORMER_RMSD>  (1) 
0.4

>  <PUBCHEM_CONFORMER_DIVERSEORDER>  (1) 
1

>  <PUBCHEM_MMFF94_PARTIAL_CHARGES>  (1) 
18
1 -0.08
10 -0.15
11 -0.15
12 -0.11
13 -0.15
14 0.15
15 0.15
16 0.15
17 0.15
18 0.15
19 0.15
20 0.15
21 0.15
3 0.04
6 -0.15
7 -0.15
8 -0.15
9 -0.15

>  <PUBCHEM_EFFECTIVE_ROTOR_COUNT>  (1) 
0

>  <PUBCHEM_PHARMACOPHORE_FEATURES>  (1) 
3
5 1 3 5 10 12 rings
6 2 3 4 5 6 7 rings
6 2 4 8 9 11 13 rings

>  <PUBCHEM_HEAVY_ATOM_COUNT>  (1) 
13

>  <PUBCHEM_ATOM_DEF_STEREO_COUNT>  (1) 
0

>  <PUBCHEM_ATOM_UDEF_STEREO_COUNT>  (1) 
0

>  <PUBCHEM_BOND_DEF_STEREO_COUNT>  (1) 
0

>  <PUBCHEM_BOND_UDEF_STEREO_COUNT>  (1) 
0

>  <PUBCHEM_ISOTOPIC_ATOM_COUNT>  (1) 
0

>  <PUBCHEM_COMPONENT_COUNT>  (1) 
1

>  <PUBCHEM_CACTVS_TAUTO_COUNT>  (1) 
1

>  <PUBCHEM_CONFORMER_ID>  (1) 
000023E900000001

>  <PUBCHEM_MMFF94_ENERGY>  (1) 
35.3857

>  <PUBCHEM_FEATURE_SELFOVERLAP>  (1) 
15.304

>  <PUBCHEM_SHAPE_FINGERPRINT>  (1) 
10608611 8 18410290298298653829
10967382 1 18410575071778190020
11132069 177 18412538829652464656
11471102 20 18338793421194838485
12491281 212 18410867537608041873
13140716 1 18266178528984708251
13380535 76 18410290311204544282
13897977 150 18410290294293564069
14144814 61 18409729556047827240
14325111 11 18410575084710766048
14614273 12 18260821566969742237
15196674 1 18410856563950672068
15442244 35 18123470466800398706
15536298 74 18271805679678452558
15775835 57 18410860957691750840
16945 1 18410573980914694503
17844478 74 18260841426935221219
18186145 218 18272094872347436228
193761 8 17474106493122649604
20201158 50 18411136909477558451
20510252 161 18271811279867459553
20645476 183 17751094685187840494
20871998 184 18127980916959057495
21501502 16 18338794507668589915
21524375 3 18410290319884143146
2334 1 18050568748379829061
23402539 116 18270105924421256398
23402655 69 18269541764168318149
23463225 33 18262796268420478746
23552423 10 18336827494288369279
23559900 14 18271815614713002332
25 1 18337673014165987012
2748010 2 17979074117206715062
5084963 1 18202565094111808754
528886 8 18410851070682141458
53812653 166 18342172258960393592
63268167 104 18339645512330266601
6333449 129 18411416254134666053
69090 78 18272646887329881391
7364860 26 18198061382979260542

>  <PUBCHEM_SHAPE_MULTIPOLES>  (1) 
271.38
5.05
2.16
0.62
0.08
0.25
0
-1.39
0
0.1
0
0.01
-0.01
0

>  <PUBCHEM_SHAPE_SELFOVERLAP>  (1) 
600.323

>  <PUBCHEM_SHAPE_VOLUME>  (1) 
146

>  <PUBCHEM_COORDINATE_TYPE>  (1) 
2
5
10

$$$$
