9195
     RDKit          3D

 17 20  0  0  0  0  0  0  0  0999 V2000
   -0.2443    0.4127    0.0004 C   0  0  0  0  0  0  0  0  0  0  0  0
    0.6998    1.6048    0.0006 C   0  0  0  0  0  0  0  0  0  0  0  0
    0.5019   -0.7892    0.0004 C   0  0  0  0  0  0  0  0  0  0  0  0
    2.0564    0.9357    0.0006 C   0  0  0  0  0  0  0  0  0  0  0  0
    1.9129   -0.4679    0.0004 C   0  0  0  0  0  0  0  0  0  0  0  0
   -1.6433    0.4117    0.0002 C   0  0  0  0  0  0  0  0  0  0  0  0
   -2.2959   -0.8464    0.0001 C   0  0  0  0  0  0  0  0  0  0  0  0
   -0.1365   -2.0156    0.0003 C   0  0  0  0  0  0  0  0  0  0  0  0
   -1.5343   -2.0376    0.0001 C   0  0  0  0  0  0  0  0  0  0  0  0
    3.3033    1.5360   -0.0001 C   0  0  0  0  0  0  0  0  0  0  0  0
    3.0289   -1.2883   -0.0002 C   0  0  0  0  0  0  0  0  0  0  0  0
   -2.4141    1.5897   -0.0001 C   0  0  0  0  0  0  0  0  0  0  0  0
   -3.6994   -0.8851   -0.0003 C   0  0  0  0  0  0  0  0  0  0  0  0
    4.4281    0.7094   -0.0007 C   0  0  0  0  0  0  0  0  0  0  0  0
    4.2923   -0.6892   -0.0007 C   0  0  0  0  0  0  0  0  0  0  0  0
   -3.8072    1.5270   -0.0004 C   0  0  0  0  0  0  0  0  0  0  0  0
   -4.4485    0.2923   -0.0005 C   0  0  0  0  0  0  0  0  0  0  0  0
  1  2  1  0
  1  3  2  0
  1  6  1  0
  2  4  1  0
  3  5  1  0
  3  8  1  0
  4  5  2  0
  4 10  1  0
  5 11  1  0
  6  7  2  0
  6 12  1  0
  7  9  1  0
  7 13  1  0
  8  9  2  0
 10 14  2  0
 11 15  2  0
 12 16  2  0
 13 17  2  0
 14 15  1  0
 16 17  1  0
M  END
>  <PUBCHEM_COMPOUND_CID>  (1) 
9195

>  <PUBCHEM_CONFORMER_RMSD>  (1) 
0.4

>  <PUBCHEM_CONFORMER_DIVERSEORDER>  (1) 
1

>  <PUBCHEM_MMFF94_PARTIAL_CHARGES>  (1) 
23
1 -0.14
10 -0.15
11 -0.15
12 -0.15
13 -0.15
14 -0.15
15 -0.15
16 -0.15
17 -0.15
2 0.29
20 0.15
21 0.15
22 0.15
23 0.15
24 0.15
25 0.15
26 0.15
27 0.15
28 0.15
29 0.15
4 -0.14
8 -0.15
9 -0.15

>  <PUBCHEM_EFFECTIVE_ROTOR_COUNT>  (1) 
0.2

>  <PUBCHEM_PHARMACOPHORE_FEATURES>  (1) 
4
5 1 2 3 4 5 rings
6 1 3 6 7 8 9 rings
6 4 5 10 11 14 15 rings
6 6 7 12 13 16 17 rings

>  <PUBCHEM_HEAVY_ATOM_COUNT>  (1) 
17

>  <PUBCHEM_ATOM_DEF_STEREO_COUNT>  (1) 
0

>  <PUBCHEM_ATOM_UDEF_STEREO_COUNT>  (1) 
0

>  <PUBCHEM_BOND_DEF_STEREO_COUNT>  (1) 
0

>  <PUBCHEM_BOND_UDEF_STEREO_COUNT>  (1) 
0

>  <PUBCHEM_ISOTOPIC_ATOM_COUNT>  (1) 
0

>  <PUBCHEM_COMPONENT_COUNT>  (1) 
1

>  <PUBCHEM_CACTVS_TAUTO_COUNT>  (1) 
1

>  <PUBCHEM_CONFORMER_ID>  (1) 
000023EB00000001

>  <PUBCHEM_MMFF94_ENERGY>  (1) 
60.0627

>  <PUBCHEM_FEATURE_SELFOVERLAP>  (1) 
20.484

>  <PUBCHEM_SHAPE_FINGERPRINT>  (1) 
10062212 137 18341321232496988719
10411042 1 16681193146488490178
10608611 8 18340484568751978824
10616163 171 18340208608423884902
10967382 1 18410575058919648902
11132069 177 18411414012103741328
11471102 20 18411416207132625492
11578080 2 16771253975666539611
12251169 10 18408602573861875980
12403814 3 17676483947539988613
12592029 89 18334860463528047387
13140716 1 18410010996574973082
13221675 6 18408884052964878827
13380535 76 18412265029903858535
13675066 3 18334580169608917634
138480 1 17690280413192712198
14144814 61 18409729564553222856
14178342 30 18050268560858494042
14866123 147 16904697978615091954
15042514 8 18265619977722142459
15196674 1 18410855464460097831
15309172 13 18411145722993173139
15375358 24 18272088305542796886
15442244 35 18338233769813171722
15536298 74 18342175566206394126
16945 1 18194683902085410054
17804303 29 18411985779561769716
1813 80 16878502324953223814
18186145 218 18410292467341294180
18522853 276 18413388739224282513
19591789 44 18337108964711916130
200 152 17989481931620237037
20510252 161 18343867701574526953
20645477 70 18342739581259425414
21267235 1 18410583885199105770
21501502 16 18338232786149635910
21524375 3 18410855447549487871
2334 1 18410575110443451680
23402539 116 18272080600239553789
23402655 69 18343300357663722860
23463225 33 18408322164095089990
23559900 14 18343864395087804170
2748010 2 18410858754373385223
3004659 81 18261965029868666582
335352 9 18266741290313132798
34934 24 18411412947489922050
350125 39 18410296930361233081
3545911 37 18411983572291464392
4214541 1 18410575080373574753
474 4 17241615107633482972
495365 180 17417798574529867288
4990 188 18059582368969367636
5104073 3 18410293622576565362
69090 78 18341610429824728743
7364860 26 18196653999384615750
77779 3 18410294713508813572
8809292 202 18334580186794360467
9709674 26 18413113882977194174
9981440 41 17180250418620932504

>  <PUBCHEM_SHAPE_MULTIPOLES>  (1) 
349.85
8.32
2.05
0.62
1.05
0.25
0
-1.52
0
-0.34
0
0
0
0

>  <PUBCHEM_SHAPE_SELFOVERLAP>  (1) 
804.602

>  <PUBCHEM_SHAPE_VOLUME>  (1) 
167.4

>  <PUBCHEM_COORDINATE_TYPE>  (1) 
2
5
10

$$$$
