9200
     RDKit          3D

 21 25  0  0  0  0  0  0  0  0999 V2000
    0.0000    0.8937   -0.0008 N   0  0  0  0  0  0  0  0  0  0  0  0
    1.1384    0.1183   -0.0006 C   0  0  0  0  0  0  0  0  0  0  0  0
   -1.1384    0.1183   -0.0004 C   0  0  0  0  0  0  0  0  0  0  0  0
    0.7157   -1.2111   -0.0003 C   0  0  0  0  0  0  0  0  0  0  0  0
   -0.7157   -1.2111   -0.0003 C   0  0  0  0  0  0  0  0  0  0  0  0
    2.5101    0.4795   -0.0004 C   0  0  0  0  0  0  0  0  0  0  0  0
   -2.5101    0.4795   -0.0002 C   0  0  0  0  0  0  0  0  0  0  0  0
    3.4684   -0.5628    0.0003 C   0  0  0  0  0  0  0  0  0  0  0  0
   -3.4684   -0.5628    0.0002 C   0  0  0  0  0  0  0  0  0  0  0  0
    1.6880   -2.2320    0.0000 C   0  0  0  0  0  0  0  0  0  0  0  0
   -1.6879   -2.2320   -0.0003 C   0  0  0  0  0  0  0  0  0  0  0  0
    3.0477   -1.8981    0.0004 C   0  0  0  0  0  0  0  0  0  0  0  0
   -3.0477   -1.8982    0.0000 C   0  0  0  0  0  0  0  0  0  0  0  0
    2.9219    1.8271   -0.0005 C   0  0  0  0  0  0  0  0  0  0  0  0
   -2.9219    1.8271   -0.0002 C   0  0  0  0  0  0  0  0  0  0  0  0
    4.8298   -0.2215    0.0009 C   0  0  0  0  0  0  0  0  0  0  0  0
   -4.8297   -0.2215    0.0006 C   0  0  0  0  0  0  0  0  0  0  0  0
    4.2810    2.1368    0.0000 C   0  0  0  0  0  0  0  0  0  0  0  0
   -4.2810    2.1367    0.0003 C   0  0  0  0  0  0  0  0  0  0  0  0
    5.2310    1.1169    0.0007 C   0  0  0  0  0  0  0  0  0  0  0  0
   -5.2310    1.1169    0.0008 C   0  0  0  0  0  0  0  0  0  0  0  0
  1  2  1  0
  1  3  1  0
  2  4  2  0
  2  6  1  0
  3  5  2  0
  3  7  1  0
  4  5  1  0
  4 10  1  0
  5 11  1  0
  6  8  2  0
  6 14  1  0
  7  9  2  0
  7 15  1  0
  8 12  1  0
  8 16  1  0
  9 13  1  0
  9 17  1  0
 10 12  2  0
 11 13  2  0
 14 18  2  0
 15 19  2  0
 16 20  2  0
 17 21  2  0
 18 20  1  0
 19 21  1  0
M  END
>  <PUBCHEM_COMPOUND_CID>  (1) 
9200

>  <PUBCHEM_CONFORMER_RMSD>  (1) 
0.6

>  <PUBCHEM_CONFORMER_DIVERSEORDER>  (1) 
1

>  <PUBCHEM_MMFF94_PARTIAL_CHARGES>  (1) 
28
1 0.03
10 -0.15
11 -0.15
12 -0.15
13 -0.15
14 -0.15
15 -0.15
16 -0.15
17 -0.15
18 -0.15
19 -0.15
2 -0.15
20 -0.15
21 -0.15
22 0.27
23 0.15
24 0.15
25 0.15
26 0.15
27 0.15
28 0.15
29 0.15
3 -0.15
30 0.15
31 0.15
32 0.15
33 0.15
34 0.15

>  <PUBCHEM_EFFECTIVE_ROTOR_COUNT>  (1) 
0

>  <PUBCHEM_PHARMACOPHORE_FEATURES>  (1) 
7
1 1 cation
1 1 donor
5 1 2 3 4 5 rings
6 2 4 6 8 10 12 rings
6 3 5 7 9 11 13 rings
6 6 8 14 16 18 20 rings
6 7 9 15 17 19 21 rings

>  <PUBCHEM_HEAVY_ATOM_COUNT>  (1) 
21

>  <PUBCHEM_ATOM_DEF_STEREO_COUNT>  (1) 
0

>  <PUBCHEM_ATOM_UDEF_STEREO_COUNT>  (1) 
0

>  <PUBCHEM_BOND_DEF_STEREO_COUNT>  (1) 
0

>  <PUBCHEM_BOND_UDEF_STEREO_COUNT>  (1) 
0

>  <PUBCHEM_ISOTOPIC_ATOM_COUNT>  (1) 
0

>  <PUBCHEM_COMPONENT_COUNT>  (1) 
1

>  <PUBCHEM_CACTVS_TAUTO_COUNT>  (1) 
1

>  <PUBCHEM_CONFORMER_ID>  (1) 
000023F000000001

>  <PUBCHEM_MMFF94_ENERGY>  (1) 
61.0092

>  <PUBCHEM_FEATURE_SELFOVERLAP>  (1) 
35.744

>  <PUBCHEM_SHAPE_FINGERPRINT>  (1) 
10 15 18260829349577297640
10411042 1 17402050496576354742
10608611 8 18410854360616540518
10616163 171 18339644545926175823
10646746 165 18410857676674165012
10967382 1 18410573950807543526
11595378 159 16878213173878529268
12107183 9 17833830469433960873
12390115 104 18270136667934583817
12788726 201 17417255316696056753
13140716 1 18334856078334821810
133893 2 16341762507369945695
138480 1 17690280408955786659
14341114 176 18410018723194939857
14528608 73 18413106173425975692
14790565 3 18410860961981781156
15196674 1 18410856563934990727
15536298 74 18413109437727876886
1601671 61 18409449189658092524
17492 89 18410012134900627163
1813 80 16732987509270571164
18681886 176 18272645762691982682
200 152 17989485234239149427
20645477 56 18334859407282291309
20645477 70 18201722804086748582
20715895 44 18050280371829218761
21033648 29 17895741929327843381
21065198 57 18409731768077583186
21267235 1 18410865355733247010
21279426 13 18340491058742800118
21304253 335 18334301945869878364
21421861 104 17823406103371819914
21709351 56 18410851088252485604
21859007 373 17243841386434958669
23227448 37 18412262865308686079
23402539 116 18343295981413756269
23402655 69 18343580733102289014
23559900 14 18271525278486121222
245318 6 17027140044387716500
3004659 81 18335987476743821326
335352 9 18410856526113819742
34797466 226 17775012318212903228
34934 24 18410852165888577059
350125 39 18338801224839269801
3545911 37 18410857659162168252
3680242 22 18263360309385303634
4073 2 18041284365564778050
4214541 1 18410573989494112069
4340502 62 17095529470150413123
474 4 17822296820287100548
495365 180 17417518199080589200
5104073 3 18335421253028243723
543358 83 18339645542780256834
59755656 215 18412550877763548580
633830 44 18410289246564371230
77779 3 18410575088958098182
8272917 22 18341897346836337398
9709674 26 18412269427829401207
9981440 41 18335699498295465002

>  <PUBCHEM_SHAPE_MULTIPOLES>  (1) 
427.19
11.19
2.55
0.61
0
0.17
0
-5.11
0
0
0
0
0
0

>  <PUBCHEM_SHAPE_SELFOVERLAP>  (1) 
997.276

>  <PUBCHEM_SHAPE_VOLUME>  (1) 
217.1

>  <PUBCHEM_COORDINATE_TYPE>  (1) 
2
5
10

$$$$
