9205
     RDKit          3D

 13 15  0  0  0  0  0  0  0  0999 V2000
   -1.5414    1.4964   -0.0001 N   0  0  0  0  0  0  0  0  0  0  0  0
   -0.0167   -1.8641    0.0001 C   0  0  0  0  0  0  0  0  0  0  0  0
    1.1559   -0.9006   -0.0001 C   0  0  0  0  0  0  0  0  0  0  0  0
   -1.1887   -0.9130   -0.0001 C   0  0  0  0  0  0  0  0  0  0  0  0
    0.6955    0.4365   -0.0002 C   0  0  0  0  0  0  0  0  0  0  0  0
   -0.7470    0.4164   -0.0001 C   0  0  0  0  0  0  0  0  0  0  0  0
    2.5071   -1.1968   -0.0001 C   0  0  0  0  0  0  0  0  0  0  0  0
    1.5879    1.4935    0.0000 C   0  0  0  0  0  0  0  0  0  0  0  0
   -2.5424   -1.1712    0.0001 C   0  0  0  0  0  0  0  0  0  0  0  0
    3.4095   -0.1310    0.0001 C   0  0  0  0  0  0  0  0  0  0  0  0
    2.9548    1.2000    0.0002 C   0  0  0  0  0  0  0  0  0  0  0  0
   -3.4072   -0.0780    0.0001 C   0  0  0  0  0  0  0  0  0  0  0  0
   -2.8672    1.2119    0.0001 C   0  0  0  0  0  0  0  0  0  0  0  0
  1  6  2  0
  1 13  1  0
  2  3  1  0
  2  4  1  0
  3  5  2  0
  3  7  1  0
  4  6  1  0
  4  9  2  0
  5  6  1  0
  5  8  1  0
  7 10  2  0
  8 11  2  0
  9 12  1  0
 10 11  1  0
 12 13  2  0
M  END
>  <PUBCHEM_COMPOUND_CID>  (1) 
9205

>  <PUBCHEM_CONFORMER_RMSD>  (1) 
0.4

>  <PUBCHEM_CONFORMER_DIVERSEORDER>  (1) 
1

>  <PUBCHEM_MMFF94_PARTIAL_CHARGES>  (1) 
19
1 -0.62
10 -0.15
11 -0.15
12 -0.15
13 0.16
16 0.15
17 0.15
18 0.15
19 0.15
2 0.29
20 0.15
21 0.15
22 0.15
3 -0.14
4 -0.14
6 0.31
7 -0.15
8 -0.15
9 -0.15

>  <PUBCHEM_EFFECTIVE_ROTOR_COUNT>  (1) 
0.2

>  <PUBCHEM_PHARMACOPHORE_FEATURES>  (1) 
4
1 1 acceptor
5 2 3 4 5 6 rings
6 1 4 6 9 12 13 rings
6 3 5 7 8 10 11 rings

>  <PUBCHEM_HEAVY_ATOM_COUNT>  (1) 
13

>  <PUBCHEM_ATOM_DEF_STEREO_COUNT>  (1) 
0

>  <PUBCHEM_ATOM_UDEF_STEREO_COUNT>  (1) 
0

>  <PUBCHEM_BOND_DEF_STEREO_COUNT>  (1) 
0

>  <PUBCHEM_BOND_UDEF_STEREO_COUNT>  (1) 
0

>  <PUBCHEM_ISOTOPIC_ATOM_COUNT>  (1) 
0

>  <PUBCHEM_COMPONENT_COUNT>  (1) 
1

>  <PUBCHEM_CACTVS_TAUTO_COUNT>  (1) 
1

>  <PUBCHEM_CONFORMER_ID>  (1) 
000023F500000001

>  <PUBCHEM_MMFF94_ENERGY>  (1) 
45.5318

>  <PUBCHEM_FEATURE_SELFOVERLAP>  (1) 
20.478

>  <PUBCHEM_SHAPE_FINGERPRINT>  (1) 
10608611 8 18410570690911983332
10967382 1 18410575076073254759
11132069 177 18412257341785525368
11471102 20 18409725145153188109
12032990 46 18410581686038635202
12491281 212 18339655459421926137
12932764 1 17560796683997359590
13380535 76 18410854369222676134
14144814 61 18410292505958920616
14325111 11 18410855468728827776
15196674 1 18410573989446444420
15219456 202 18411702084102661327
15442244 35 18194964041612180394
15536298 74 18343301462008205990
15775835 57 18411706495013118225
16945 1 18267021837350079754
17844478 74 18187656824909974225
18186145 218 18343025458318846012
193761 8 15816501321367126311
19973954 147 18410577287991974688
200 152 18131057247862232877
20201158 50 18412545392336222975
20510252 161 18272373096065572281
20871998 184 18129105696037756423
21267235 1 18410865360038718342
21501502 16 18410855468718115878
2334 1 18410574015221509957
23402539 116 18342444971945221255
23402655 69 18269542876496224045
23463225 33 18335699408290554834
23552423 10 18334012825851289287
23559900 14 18343587309863127878
2748010 2 18410293609686381421
5084963 1 18273496775310603898
5104073 3 18410575088958053707
528886 8 18410849958327861762
53812653 166 18342452660295513560
57096353 35 18339078327491586565
63268167 104 18412267203046261384
69090 78 18272082816595750159
7364860 26 18269836415503507118
8809292 202 18260835916128651363

>  <PUBCHEM_SHAPE_MULTIPOLES>  (1) 
262.55
5.4
1.8
0.61
0.16
0.07
0
-0.7
0
-0.04
0
-0.01
0.01
0

>  <PUBCHEM_SHAPE_SELFOVERLAP>  (1) 
593.51

>  <PUBCHEM_SHAPE_VOLUME>  (1) 
138.8

>  <PUBCHEM_COORDINATE_TYPE>  (1) 
2
5
10

$$$$
