9216
     RDKit          3D

 14 16  0  0  0  0  0  0  0  0999 V2000
    0.0000    1.4269    0.0001 O   0  0  0  0  0  0  0  0  0  0  0  0
    0.0000   -1.4269    0.0000 O   0  0  0  0  0  0  0  0  0  0  0  0
    1.1616    0.6970   -0.0001 C   0  0  0  0  0  0  0  0  0  0  0  0
   -1.1616    0.6971    0.0000 C   0  0  0  0  0  0  0  0  0  0  0  0
    1.1616   -0.6971    0.0000 C   0  0  0  0  0  0  0  0  0  0  0  0
   -1.1616   -0.6970    0.0000 C   0  0  0  0  0  0  0  0  0  0  0  0
    2.3668    1.3984    0.0000 C   0  0  0  0  0  0  0  0  0  0  0  0
   -2.3668    1.3984    0.0000 C   0  0  0  0  0  0  0  0  0  0  0  0
    2.3668   -1.3984   -0.0001 C   0  0  0  0  0  0  0  0  0  0  0  0
   -2.3668   -1.3984    0.0000 C   0  0  0  0  0  0  0  0  0  0  0  0
    3.5734    0.6981    0.0000 C   0  0  0  0  0  0  0  0  0  0  0  0
   -3.5734    0.6979    0.0000 C   0  0  0  0  0  0  0  0  0  0  0  0
    3.5734   -0.6979    0.0000 C   0  0  0  0  0  0  0  0  0  0  0  0
   -3.5733   -0.6980    0.0000 C   0  0  0  0  0  0  0  0  0  0  0  0
  1  3  1  0
  1  4  1  0
  2  5  1  0
  2  6  1  0
  3  5  2  0
  3  7  1  0
  4  6  2  0
  4  8  1  0
  5  9  1  0
  6 10  1  0
  7 11  2  0
  8 12  2  0
  9 13  2  0
 10 14  2  0
 11 13  1  0
 12 14  1  0
M  END
>  <PUBCHEM_COMPOUND_CID>  (1) 
9216

>  <PUBCHEM_CONFORMER_RMSD>  (1) 
0.4

>  <PUBCHEM_CONFORMER_DIVERSEORDER>  (1) 
1

>  <PUBCHEM_MMFF94_PARTIAL_CHARGES>  (1) 
22
1 -0.17
10 -0.15
11 -0.15
12 -0.15
13 -0.15
14 -0.15
15 0.15
16 0.15
17 0.15
18 0.15
19 0.15
2 -0.17
20 0.15
21 0.15
22 0.15
3 0.08
4 0.08
5 0.08
6 0.08
7 -0.15
8 -0.15
9 -0.15

>  <PUBCHEM_EFFECTIVE_ROTOR_COUNT>  (1) 
0.4

>  <PUBCHEM_PHARMACOPHORE_FEATURES>  (1) 
5
1 1 acceptor
1 2 acceptor
6 1 2 3 4 5 6 rings
6 3 5 7 9 11 13 rings
6 4 6 8 10 12 14 rings

>  <PUBCHEM_HEAVY_ATOM_COUNT>  (1) 
14

>  <PUBCHEM_ATOM_DEF_STEREO_COUNT>  (1) 
0

>  <PUBCHEM_ATOM_UDEF_STEREO_COUNT>  (1) 
0

>  <PUBCHEM_BOND_DEF_STEREO_COUNT>  (1) 
0

>  <PUBCHEM_BOND_UDEF_STEREO_COUNT>  (1) 
0

>  <PUBCHEM_ISOTOPIC_ATOM_COUNT>  (1) 
0

>  <PUBCHEM_COMPONENT_COUNT>  (1) 
1

>  <PUBCHEM_CACTVS_TAUTO_COUNT>  (1) 
1

>  <PUBCHEM_CONFORMER_ID>  (1) 
0000240000000001

>  <PUBCHEM_MMFF94_ENERGY>  (1) 
42.7133

>  <PUBCHEM_FEATURE_SELFOVERLAP>  (1) 
25.449

>  <PUBCHEM_SHAPE_FINGERPRINT>  (1) 
10608611 8 18410852165888668000
10967382 1 18410575067514942694
11132069 177 18411694391837378816
11471102 20 18410569582883838932
12032990 46 18410580582221386691
13221675 6 18410573985156855810
13296908 3 18410576184174895075
13380535 76 18410855464423525351
14144814 61 18410855451538227354
14325111 11 18410855464428592224
15196674 1 18410855460128161792
15219456 202 18411699885058293772
15442244 35 18194965141113304138
15536298 74 18343019991231445638
15775835 57 18410860957686385124
16945 1 18410573985151451142
17844478 74 18040722454576548053
18186145 218 18113616759545954574
18522853 276 18413668015219877240
193761 8 17546164099744792598
200 152 18059846286425636317
20201158 50 18411700967395554466
20510252 161 18272934895046931505
20645477 70 18340483379014597479
21267235 1 18410865360028194818
21501502 16 18410856563934756864
21501925 9 18409719664991293738
2334 1 18410575114727849991
23402539 116 18271515451057025174
23402655 69 18341325613585060109
23463225 33 18408603651919753300
23559900 14 18341890745840699466
2748010 2 18410856563934757039
3312278 4 18411985775345813417
335352 9 18122343467265819039
5104073 3 18410573989446419424
528886 8 18411132537090055514
53812653 166 18343578577303208040
57096353 35 18338797939104678510
69090 78 18343015593137676327
7364860 26 18343864416314564902
8809292 202 18261116295925598811
9709674 26 18411705399886589862

>  <PUBCHEM_SHAPE_MULTIPOLES>  (1) 
276.37
6.48
1.69
0.6
0
0
0
0
0
0
0
0
0
0

>  <PUBCHEM_SHAPE_SELFOVERLAP>  (1) 
623.461

>  <PUBCHEM_SHAPE_VOLUME>  (1) 
143.9

>  <PUBCHEM_COORDINATE_TYPE>  (1) 
2
5
10

$$$$
