9222
     RDKit          3D

  9 10  0  0  0  0  0  0  0  0999 V2000
   -1.5109   -1.1081   -0.0002 N   0  0  0  0  0  0  0  0  0  0  0  0
    0.8767   -1.4286    0.0001 N   0  0  0  0  0  0  0  0  0  0  0  0
   -0.2620    0.7432    0.0000 C   0  0  0  0  0  0  0  0  0  0  0  0
   -0.2204   -0.6480   -0.0001 C   0  0  0  0  0  0  0  0  0  0  0  0
   -1.6327    1.1137    0.0000 C   0  0  0  0  0  0  0  0  0  0  0  0
    0.9650    1.4262    0.0000 C   0  0  0  0  0  0  0  0  0  0  0  0
   -2.3775   -0.0460    0.0001 C   0  0  0  0  0  0  0  0  0  0  0  0
    2.1331    0.6660   -0.0001 C   0  0  0  0  0  0  0  0  0  0  0  0
    2.0287   -0.7186    0.0001 C   0  0  0  0  0  0  0  0  0  0  0  0
  1  4  1  0
  1  7  1  0
  2  4  2  0
  2  9  1  0
  3  4  1  0
  3  5  1  0
  3  6  2  0
  5  7  2  0
  6  8  1  0
  8  9  2  0
M  END
>  <PUBCHEM_COMPOUND_CID>  (1) 
9222

>  <PUBCHEM_CONFORMER_RMSD>  (1) 
0.4

>  <PUBCHEM_CONFORMER_DIVERSEORDER>  (1) 
1

>  <PUBCHEM_MMFF94_PARTIAL_CHARGES>  (1) 
14
1 0.03
10 0.15
11 0.27
12 0.15
13 0.15
14 0.15
15 0.15
2 -0.57
4 0.11
5 -0.15
6 -0.15
7 -0.3
8 -0.15
9 0.16

>  <PUBCHEM_EFFECTIVE_ROTOR_COUNT>  (1) 
0

>  <PUBCHEM_PHARMACOPHORE_FEATURES>  (1) 
5
1 1 cation
1 1 donor
1 2 acceptor
5 1 3 4 5 7 rings
6 2 3 4 6 8 9 rings

>  <PUBCHEM_HEAVY_ATOM_COUNT>  (1) 
9

>  <PUBCHEM_ATOM_DEF_STEREO_COUNT>  (1) 
0

>  <PUBCHEM_ATOM_UDEF_STEREO_COUNT>  (1) 
0

>  <PUBCHEM_BOND_DEF_STEREO_COUNT>  (1) 
0

>  <PUBCHEM_BOND_UDEF_STEREO_COUNT>  (1) 
0

>  <PUBCHEM_ISOTOPIC_ATOM_COUNT>  (1) 
0

>  <PUBCHEM_COMPONENT_COUNT>  (1) 
1

>  <PUBCHEM_CACTVS_TAUTO_COUNT>  (1) 
2

>  <PUBCHEM_CONFORMER_ID>  (1) 
0000240600000001

>  <PUBCHEM_MMFF94_ENERGY>  (1) 
14.1419

>  <PUBCHEM_FEATURE_SELFOVERLAP>  (1) 
25.484

>  <PUBCHEM_SHAPE_FINGERPRINT>  (1) 
12897270 3 18410292548866428061
16945 1 18410575088989766181
18185500 45 18411135797012424538
21040471 1 18266459982713500224
23402655 69 18196072384320945701
23552423 10 18333453148789541622
2748010 2 18410856559666176492
29004967 10 18334019384297953504
369184 2 18410569587115541609
5084963 1 18272372005001239552

>  <PUBCHEM_SHAPE_MULTIPOLES>  (1) 
175.25
2.99
1.5
0.6
0.22
0.01
0
0.01
0
-0.18
0
-0.01
0.02
0

>  <PUBCHEM_SHAPE_SELFOVERLAP>  (1) 
388.117

>  <PUBCHEM_SHAPE_VOLUME>  (1) 
93.4

>  <PUBCHEM_COORDINATE_TYPE>  (1) 
2
5
10

$$$$
