9224
     RDKit          3D

  9 10  0  0  0  0  0  0  0  0999 V2000
   -1.7771    1.3724    0.0000 S   0  0  0  0  0  0  0  0  0  0  0  0
    2.1861    0.6860    0.0001 N   0  0  0  0  0  0  0  0  0  0  0  0
   -0.2416   -0.7069    0.0000 C   0  0  0  0  0  0  0  0  0  0  0  0
   -0.1953    0.6902   -0.0001 C   0  0  0  0  0  0  0  0  0  0  0  0
   -1.5961   -1.1811   -0.0001 C   0  0  0  0  0  0  0  0  0  0  0  0
    0.9780   -1.4107    0.0000 C   0  0  0  0  0  0  0  0  0  0  0  0
    1.0227    1.3727   -0.0001 C   0  0  0  0  0  0  0  0  0  0  0  0
   -2.5193   -0.1623    0.0001 C   0  0  0  0  0  0  0  0  0  0  0  0
    2.1427   -0.6604    0.0000 C   0  0  0  0  0  0  0  0  0  0  0  0
  1  4  1  0
  1  8  1  0
  2  7  2  0
  2  9  1  0
  3  4  2  0
  3  5  1  0
  3  6  1  0
  4  7  1  0
  5  8  2  0
  6  9  2  0
M  END
>  <PUBCHEM_COMPOUND_CID>  (1) 
9224

>  <PUBCHEM_CONFORMER_RMSD>  (1) 
0.4

>  <PUBCHEM_CONFORMER_DIVERSEORDER>  (1) 
1

>  <PUBCHEM_MMFF94_PARTIAL_CHARGES>  (1) 
13
1 -0.08
10 0.15
11 0.15
12 0.15
13 0.15
14 0.15
2 -0.62
4 0.04
5 -0.15
6 -0.15
7 0.16
8 -0.11
9 0.16

>  <PUBCHEM_EFFECTIVE_ROTOR_COUNT>  (1) 
0

>  <PUBCHEM_PHARMACOPHORE_FEATURES>  (1) 
3
1 2 acceptor
5 1 3 4 5 8 rings
6 2 3 4 6 7 9 rings

>  <PUBCHEM_HEAVY_ATOM_COUNT>  (1) 
9

>  <PUBCHEM_ATOM_DEF_STEREO_COUNT>  (1) 
0

>  <PUBCHEM_ATOM_UDEF_STEREO_COUNT>  (1) 
0

>  <PUBCHEM_BOND_DEF_STEREO_COUNT>  (1) 
0

>  <PUBCHEM_BOND_UDEF_STEREO_COUNT>  (1) 
0

>  <PUBCHEM_ISOTOPIC_ATOM_COUNT>  (1) 
0

>  <PUBCHEM_COMPONENT_COUNT>  (1) 
1

>  <PUBCHEM_CACTVS_TAUTO_COUNT>  (1) 
1

>  <PUBCHEM_CONFORMER_ID>  (1) 
0000240800000001

>  <PUBCHEM_MMFF94_ENERGY>  (1) 
17.7703

>  <PUBCHEM_FEATURE_SELFOVERLAP>  (1) 
15.288

>  <PUBCHEM_SHAPE_FINGERPRINT>  (1) 
12897270 3 18410854403698101927
16945 1 18410856572635513223
18185500 45 18411417306290864267
193761 8 15384154631905411525
19973954 147 18410295804541406485
21040471 1 18410856533938635524
23402655 69 18196354954477341557
23552423 10 18333453144415492014
241688 4 18264208010953527808
2748010 2 18266740186163522684
29004967 10 18334299785511728155
369184 2 18410852161730461075
5084963 1 18272653467108827147

>  <PUBCHEM_SHAPE_MULTIPOLES>  (1) 
184.08
3.18
1.65
0.62
0.16
0.11
0
0.03
0
0.04
0
0.04
0.01
0

>  <PUBCHEM_SHAPE_SELFOVERLAP>  (1) 
390.253

>  <PUBCHEM_SHAPE_VOLUME>  (1) 
104.8

>  <PUBCHEM_COORDINATE_TYPE>  (1) 
2
5
10

$$$$
