9225
     RDKit          3D

  9 10  0  0  0  0  0  0  0  0999 V2000
   -1.8107    1.2950    0.0000 S   0  0  0  0  0  0  0  0  0  0  0  0
   -2.5493   -0.1873    0.0000 N   0  0  0  0  0  0  0  0  0  0  0  0
   -0.2389   -0.6902    0.0000 C   0  0  0  0  0  0  0  0  0  0  0  0
   -0.1943    0.7056    0.0000 C   0  0  0  0  0  0  0  0  0  0  0  0
    0.9811   -1.4016    0.0002 C   0  0  0  0  0  0  0  0  0  0  0  0
    1.0161    1.4163    0.0001 C   0  0  0  0  0  0  0  0  0  0  0  0
   -1.6046   -1.1219   -0.0001 C   0  0  0  0  0  0  0  0  0  0  0  0
    2.1929   -0.7032    0.0000 C   0  0  0  0  0  0  0  0  0  0  0  0
    2.2077    0.6874   -0.0001 C   0  0  0  0  0  0  0  0  0  0  0  0
  1  2  1  0
  1  4  1  0
  2  7  2  0
  3  4  2  0
  3  5  1  0
  3  7  1  0
  4  6  1  0
  5  8  2  0
  6  9  2  0
  8  9  1  0
M  END
>  <PUBCHEM_COMPOUND_CID>  (1) 
9225

>  <PUBCHEM_CONFORMER_RMSD>  (1) 
0.4

>  <PUBCHEM_CONFORMER_DIVERSEORDER>  (1) 
1

>  <PUBCHEM_MMFF94_PARTIAL_CHARGES>  (1) 
13
1 0.18
10 0.15
11 0.15
12 0.15
13 0.15
14 0.15
2 -0.51
4 0.04
5 -0.15
6 -0.15
7 0.14
8 -0.15
9 -0.15

>  <PUBCHEM_EFFECTIVE_ROTOR_COUNT>  (1) 
0

>  <PUBCHEM_PHARMACOPHORE_FEATURES>  (1) 
3
1 2 acceptor
5 1 2 3 4 7 rings
6 3 4 5 6 8 9 rings

>  <PUBCHEM_HEAVY_ATOM_COUNT>  (1) 
9

>  <PUBCHEM_ATOM_DEF_STEREO_COUNT>  (1) 
0

>  <PUBCHEM_ATOM_UDEF_STEREO_COUNT>  (1) 
0

>  <PUBCHEM_BOND_DEF_STEREO_COUNT>  (1) 
0

>  <PUBCHEM_BOND_UDEF_STEREO_COUNT>  (1) 
0

>  <PUBCHEM_ISOTOPIC_ATOM_COUNT>  (1) 
0

>  <PUBCHEM_COMPONENT_COUNT>  (1) 
1

>  <PUBCHEM_CACTVS_TAUTO_COUNT>  (1) 
1

>  <PUBCHEM_CONFORMER_ID>  (1) 
0000240900000001

>  <PUBCHEM_MMFF94_ENERGY>  (1) 
15.3697

>  <PUBCHEM_FEATURE_SELFOVERLAP>  (1) 
15.28

>  <PUBCHEM_SHAPE_FINGERPRINT>  (1) 
12897270 3 18410574028143322269
16945 1 18410575110443451687
18185500 45 18411135805602417594
193761 8 15456494804673891180
19973954 147 18410295808799476493
21040471 1 18266458900429149444
23402655 69 18268412557073536093
23552423 10 18333453144478763054
241688 4 18264490576957413712
2748010 2 18338797788844145716
29004967 10 18334861631721831930
5084963 1 18272373095917593056

>  <PUBCHEM_SHAPE_MULTIPOLES>  (1) 
184.08
3.21
1.64
0.62
0.29
0.08
0
0.07
0
0
0
0
0.01
0

>  <PUBCHEM_SHAPE_SELFOVERLAP>  (1) 
389.805

>  <PUBCHEM_SHAPE_VOLUME>  (1) 
105.1

>  <PUBCHEM_COORDINATE_TYPE>  (1) 
2
5
10

$$$$
