9227
     RDKit          3D

  9 10  0  0  0  0  0  0  0  0999 V2000
   -1.5188    1.1472    0.0001 N   0  0  0  0  0  0  0  0  0  0  0  0
   -1.6368   -1.0731   -0.0001 N   0  0  0  0  0  0  0  0  0  0  0  0
    2.1341    0.6358    0.0003 N   0  0  0  0  0  0  0  0  0  0  0  0
   -0.2210    0.7097   -0.0002 C   0  0  0  0  0  0  0  0  0  0  0  0
   -0.3189   -0.6781   -0.0003 C   0  0  0  0  0  0  0  0  0  0  0  0
    0.8534   -1.4409   -0.0001 C   0  0  0  0  0  0  0  0  0  0  0  0
    0.9964    1.3711   -0.0003 C   0  0  0  0  0  0  0  0  0  0  0  0
   -2.3283    0.0450    0.0003 C   0  0  0  0  0  0  0  0  0  0  0  0
    2.0399   -0.7168    0.0002 C   0  0  0  0  0  0  0  0  0  0  0  0
  1  4  1  0
  1  8  1  0
  2  5  1  0
  2  8  2  0
  3  7  2  0
  3  9  1  0
  4  5  2  0
  4  7  1  0
  5  6  1  0
  6  9  2  0
M  END
>  <PUBCHEM_COMPOUND_CID>  (1) 
9227

>  <PUBCHEM_CONFORMER_RMSD>  (1) 
0.4

>  <PUBCHEM_CONFORMER_DIVERSEORDER>  (1) 
1

>  <PUBCHEM_MMFF94_PARTIAL_CHARGES>  (1) 
14
1 0.03
10 0.27
11 0.15
12 0.15
13 0.15
14 0.15
2 -0.57
3 -0.62
4 -0.15
5 0.23
6 -0.15
7 0.16
8 0.04
9 0.16

>  <PUBCHEM_EFFECTIVE_ROTOR_COUNT>  (1) 
0

>  <PUBCHEM_PHARMACOPHORE_FEATURES>  (1) 
5
1 1 donor
1 3 acceptor
3 1 2 8 cation
5 1 2 4 5 8 rings
6 3 4 5 6 7 9 rings

>  <PUBCHEM_HEAVY_ATOM_COUNT>  (1) 
9

>  <PUBCHEM_ATOM_DEF_STEREO_COUNT>  (1) 
0

>  <PUBCHEM_ATOM_UDEF_STEREO_COUNT>  (1) 
0

>  <PUBCHEM_BOND_DEF_STEREO_COUNT>  (1) 
0

>  <PUBCHEM_BOND_UDEF_STEREO_COUNT>  (1) 
0

>  <PUBCHEM_ISOTOPIC_ATOM_COUNT>  (1) 
0

>  <PUBCHEM_COMPONENT_COUNT>  (1) 
1

>  <PUBCHEM_CACTVS_TAUTO_COUNT>  (1) 
3

>  <PUBCHEM_CONFORMER_ID>  (1) 
0000240B00000001

>  <PUBCHEM_MMFF94_ENERGY>  (1) 
14.2268

>  <PUBCHEM_FEATURE_SELFOVERLAP>  (1) 
25.485

>  <PUBCHEM_SHAPE_FINGERPRINT>  (1) 
16945 1 18410575080394504871
18185500 45 18338796715123518018
21040471 1 18266741470590891556
23552423 10 18333454239711312758
2748010 2 18410855473044718862
29004967 10 18334582338535740650
5084963 1 18272090521466171362

>  <PUBCHEM_SHAPE_MULTIPOLES>  (1) 
170.27
2.85
1.51
0.59
0.31
0.02
0
-0.03
0
-0.24
0
-0.01
-0.01
0

>  <PUBCHEM_SHAPE_SELFOVERLAP>  (1) 
377.209

>  <PUBCHEM_SHAPE_VOLUME>  (1) 
92.4

>  <PUBCHEM_COORDINATE_TYPE>  (1) 
2
5
10

$$$$
