9235
     RDKit          3D

  8  9  0  0  0  0  0  0  0  0999 V2000
    1.3007    0.0001   -0.0003 C   0  0  0  0  0  0  0  0  0  0  0  0
   -1.3007    0.0000    0.0003 C   0  0  0  0  0  0  0  0  0  0  0  0
    0.7680   -0.5998    1.3120 C   0  0  0  0  0  0  0  0  0  0  0  0
    0.7676    1.4364   -0.1369 C   0  0  0  0  0  0  0  0  0  0  0  0
    0.7674   -0.8366   -1.1757 C   0  0  0  0  0  0  0  0  0  0  0  0
   -0.7672   -0.5999    1.3124 C   0  0  0  0  0  0  0  0  0  0  0  0
   -0.7677    1.4363   -0.1364 C   0  0  0  0  0  0  0  0  0  0  0  0
   -0.7679   -0.8365   -1.1754 C   0  0  0  0  0  0  0  0  0  0  0  0
  1  3  1  0
  1  4  1  0
  1  5  1  0
  2  6  1  0
  2  7  1  0
  2  8  1  0
  3  6  1  0
  4  7  1  0
  5  8  1  0
M  END
>  <PUBCHEM_COMPOUND_CID>  (1) 
9235

>  <PUBCHEM_CONFORMER_RMSD>  (1) 
0.4

>  <PUBCHEM_CONFORMER_DIVERSEORDER>  (1) 
1

>  <PUBCHEM_MMFF94_PARTIAL_CHARGES>  (1) 
0

>  <PUBCHEM_EFFECTIVE_ROTOR_COUNT>  (1) 
1.2

>  <PUBCHEM_PHARMACOPHORE_FEATURES>  (1) 
1
8 1 2 3 4 5 6 7 8 rings

>  <PUBCHEM_HEAVY_ATOM_COUNT>  (1) 
8

>  <PUBCHEM_ATOM_DEF_STEREO_COUNT>  (1) 
0

>  <PUBCHEM_ATOM_UDEF_STEREO_COUNT>  (1) 
0

>  <PUBCHEM_BOND_DEF_STEREO_COUNT>  (1) 
0

>  <PUBCHEM_BOND_UDEF_STEREO_COUNT>  (1) 
0

>  <PUBCHEM_ISOTOPIC_ATOM_COUNT>  (1) 
0

>  <PUBCHEM_COMPONENT_COUNT>  (1) 
1

>  <PUBCHEM_CACTVS_TAUTO_COUNT>  (1) 
1

>  <PUBCHEM_CONFORMER_ID>  (1) 
0000241300000001

>  <PUBCHEM_MMFF94_ENERGY>  (1) 
15.5267

>  <PUBCHEM_FEATURE_SELFOVERLAP>  (1) 
5.074

>  <PUBCHEM_SHAPE_FINGERPRINT>  (1) 
12423570 1 9187617400493792929
13024252 1 8856268701081091524
137420 1 13100033655946035996
21040471 1 11533258362730515591
29004967 10 17765765365409757114
5943 1 15578142997381176581

>  <PUBCHEM_SHAPE_MULTIPOLES>  (1) 
164.64
1.48
1.4
1.4
0
0.53
-0.19
0
0
0
0.19
0
-0.53
0

>  <PUBCHEM_SHAPE_SELFOVERLAP>  (1) 
339.062

>  <PUBCHEM_SHAPE_VOLUME>  (1) 
89.5

>  <PUBCHEM_COORDINATE_TYPE>  (1) 
2
5
10

$$$$
