9236
     RDKit          3D

  8  9  0  0  0  0  0  0  0  0999 V2000
    1.0474    0.0548    1.2064 N   0  0  0  0  0  0  0  0  0  0  0  0
   -1.2619    0.0373    0.2784 C   0  0  0  0  0  0  0  0  0  0  0  0
    1.2498   -0.0382   -0.2506 C   0  0  0  0  0  0  0  0  0  0  0  0
   -0.8905    1.2380   -0.6063 C   0  0  0  0  0  0  0  0  0  0  0  0
   -0.9385   -1.2573   -0.4856 C   0  0  0  0  0  0  0  0  0  0  0  0
    0.6132    1.1976   -0.9091 C   0  0  0  0  0  0  0  0  0  0  0  0
    0.5669   -1.3119   -0.7771 C   0  0  0  0  0  0  0  0  0  0  0  0
   -0.3865    0.0797    1.5440 C   0  0  0  0  0  0  0  0  0  0  0  0
  1  3  1  0
  1  8  1  0
  2  4  1  0
  2  5  1  0
  2  8  1  0
  3  6  1  0
  3  7  1  0
  4  6  1  0
  5  7  1  0
M  END
>  <PUBCHEM_COMPOUND_CID>  (1) 
9236

>  <PUBCHEM_CONFORMER_RMSD>  (1) 
0.4

>  <PUBCHEM_CONFORMER_DIVERSEORDER>  (1) 
1

>  <PUBCHEM_MMFF94_PARTIAL_CHARGES>  (1) 
4
1 -0.9
21 0.36
3 0.27
8 0.27

>  <PUBCHEM_EFFECTIVE_ROTOR_COUNT>  (1) 
1.2

>  <PUBCHEM_PHARMACOPHORE_FEATURES>  (1) 
3
1 1 cation
1 1 donor
8 1 2 3 4 5 6 7 8 rings

>  <PUBCHEM_HEAVY_ATOM_COUNT>  (1) 
8

>  <PUBCHEM_ATOM_DEF_STEREO_COUNT>  (1) 
0

>  <PUBCHEM_ATOM_UDEF_STEREO_COUNT>  (1) 
0

>  <PUBCHEM_BOND_DEF_STEREO_COUNT>  (1) 
0

>  <PUBCHEM_BOND_UDEF_STEREO_COUNT>  (1) 
0

>  <PUBCHEM_ISOTOPIC_ATOM_COUNT>  (1) 
0

>  <PUBCHEM_COMPONENT_COUNT>  (1) 
1

>  <PUBCHEM_CACTVS_TAUTO_COUNT>  (1) 
1

>  <PUBCHEM_CONFORMER_ID>  (1) 
0000241400000001

>  <PUBCHEM_MMFF94_ENERGY>  (1) 
9.2893

>  <PUBCHEM_FEATURE_SELFOVERLAP>  (1) 
15.223

>  <PUBCHEM_SHAPE_FINGERPRINT>  (1) 
12423570 1 8321223012563122153
13024252 1 17775005627096824510
137420 1 14178948686449546665
21040471 1 11173510368756623695
29004967 10 14186247098684931070
5943 1 12551770192890490247

>  <PUBCHEM_SHAPE_MULTIPOLES>  (1) 
159.66
1.46
1.42
1.32
0.02
0.03
-0.49
0
0
0.07
0.55
-0.1
-0.02
-0.01

>  <PUBCHEM_SHAPE_SELFOVERLAP>  (1) 
328.513

>  <PUBCHEM_SHAPE_VOLUME>  (1) 
88.2

>  <PUBCHEM_COORDINATE_TYPE>  (1) 
2
5
10

$$$$
