9245
     RDKit          3D

  7  8  0  0  1  0  0  0  0  0999 V2000
   -0.9169   -0.8150   -0.3553 C   0  0  0  0  0  0  0  0  0  0  0  0
   -0.9790    0.6899   -0.4534 C   0  0  0  0  0  0  0  0  0  0  0  0
   -1.6735   -0.0132    0.6781 C   0  0  0  0  0  0  0  0  0  0  0  0
    0.3529   -1.5053    0.0441 C   0  0  0  0  0  0  0  0  0  0  0  0
    0.2535    1.5117   -0.2324 C   0  0  0  0  0  0  0  0  0  0  0  0
    1.5839   -0.6234   -0.1517 C   0  0  0  0  0  0  0  0  0  0  0  0
    1.3790    0.7552    0.4705 C   0  0  0  0  0  0  0  0  0  0  0  0
  1  2  1  0
  1  3  1  0
  1  4  1  0
  2  3  1  0
  2  5  1  0
  4  6  1  0
  5  7  1  0
  6  7  1  0
M  END
>  <PUBCHEM_COMPOUND_CID>  (1) 
9245

>  <PUBCHEM_CONFORMER_RMSD>  (1) 
0.4

>  <PUBCHEM_CONFORMER_DIVERSEORDER>  (1) 
1
2
3

>  <PUBCHEM_MMFF94_PARTIAL_CHARGES>  (1) 
9
1 -0.19
10 0.1
11 0.1
2 -0.19
3 -0.2
4 0.09
5 0.09
8 0.1
9 0.1

>  <PUBCHEM_EFFECTIVE_ROTOR_COUNT>  (1) 
1

>  <PUBCHEM_PHARMACOPHORE_FEATURES>  (1) 
1
7 1 2 3 4 5 6 7 rings

>  <PUBCHEM_HEAVY_ATOM_COUNT>  (1) 
7

>  <PUBCHEM_ATOM_DEF_STEREO_COUNT>  (1) 
0

>  <PUBCHEM_ATOM_UDEF_STEREO_COUNT>  (1) 
2

>  <PUBCHEM_BOND_DEF_STEREO_COUNT>  (1) 
0

>  <PUBCHEM_BOND_UDEF_STEREO_COUNT>  (1) 
0

>  <PUBCHEM_ISOTOPIC_ATOM_COUNT>  (1) 
0

>  <PUBCHEM_COMPONENT_COUNT>  (1) 
1

>  <PUBCHEM_CACTVS_TAUTO_COUNT>  (1) 
1

>  <PUBCHEM_CONFORMER_ID>  (1) 
0000241D00000001

>  <PUBCHEM_MMFF94_ENERGY>  (1) 
10.5481

>  <PUBCHEM_FEATURE_SELFOVERLAP>  (1) 
5.074

>  <PUBCHEM_SHAPE_FINGERPRINT>  (1) 
16714656 1 18409740547111665894
18185500 45 16175937908937662196
20096714 4 18343022206975757962
21040471 1 18267588102896901805
29004967 10 18260840279799158033

>  <PUBCHEM_SHAPE_MULTIPOLES>  (1) 
144.06
1.93
1.57
0.77
0.04
0
0.04
-0.04
0.24
0.24
-0.1
-0.1
0.04
0.08

>  <PUBCHEM_SHAPE_SELFOVERLAP>  (1) 
288.236

>  <PUBCHEM_SHAPE_VOLUME>  (1) 
84.8

>  <PUBCHEM_COORDINATE_TYPE>  (1) 
2
5
10

$$$$
