9249
     RDKit          3D

  7  9  0  0  0  0  0  0  0  0999 V2000
   -1.1057   -0.0001   -0.8308 C   0  0  0  0  0  0  0  0  0  0  0  0
   -1.2746    0.0001    0.6825 C   0  0  0  0  0  0  0  0  0  0  0  0
   -0.5619    1.1192   -0.0018 C   0  0  0  0  0  0  0  0  0  0  0  0
   -0.5619   -1.1191   -0.0016 C   0  0  0  0  0  0  0  0  0  0  0  0
    0.9221    1.2562    0.2049 C   0  0  0  0  0  0  0  0  0  0  0  0
    0.9221   -1.2562    0.2048 C   0  0  0  0  0  0  0  0  0  0  0  0
    1.6599    0.0000   -0.2580 C   0  0  0  0  0  0  0  0  0  0  0  0
  1  2  1  0
  1  3  1  0
  1  4  1  0
  2  3  1  0
  2  4  1  0
  3  5  1  0
  4  6  1  0
  5  7  1  0
  6  7  1  0
M  END
>  <PUBCHEM_COMPOUND_CID>  (1) 
9249

>  <PUBCHEM_CONFORMER_RMSD>  (1) 
0.4

>  <PUBCHEM_CONFORMER_DIVERSEORDER>  (1) 
1

>  <PUBCHEM_MMFF94_PARTIAL_CHARGES>  (1) 
10
1 -0.1
10 0.1
11 0.1
2 -0.1
3 -0.19
4 -0.19
5 0.09
6 0.09
8 0.1
9 0.1

>  <PUBCHEM_EFFECTIVE_ROTOR_COUNT>  (1) 
0.6

>  <PUBCHEM_PHARMACOPHORE_FEATURES>  (1) 
1
7 1 2 3 4 5 6 7 rings

>  <PUBCHEM_HEAVY_ATOM_COUNT>  (1) 
7

>  <PUBCHEM_ATOM_DEF_STEREO_COUNT>  (1) 
0

>  <PUBCHEM_ATOM_UDEF_STEREO_COUNT>  (1) 
0

>  <PUBCHEM_BOND_DEF_STEREO_COUNT>  (1) 
0

>  <PUBCHEM_BOND_UDEF_STEREO_COUNT>  (1) 
0

>  <PUBCHEM_ISOTOPIC_ATOM_COUNT>  (1) 
0

>  <PUBCHEM_COMPONENT_COUNT>  (1) 
1

>  <PUBCHEM_CACTVS_TAUTO_COUNT>  (1) 
1

>  <PUBCHEM_CONFORMER_ID>  (1) 
0000242100000001

>  <PUBCHEM_MMFF94_ENERGY>  (1) 
18.0212

>  <PUBCHEM_FEATURE_SELFOVERLAP>  (1) 
5.074

>  <PUBCHEM_SHAPE_FINGERPRINT>  (1) 
12423570 1 16386188682806481565
137420 1 10512192607730034725
20096714 4 18412548682354816856
21040471 1 18410011022329108101
29004967 10 18187938295275258521
5943 1 12396564239831424797

>  <PUBCHEM_SHAPE_MULTIPOLES>  (1) 
144.06
1.75
1.43
0.8
0.34
0
-0.04
0
-0.04
0.21
0.09
-0.17
0
0

>  <PUBCHEM_SHAPE_SELFOVERLAP>  (1) 
308.667

>  <PUBCHEM_SHAPE_VOLUME>  (1) 
81.4

>  <PUBCHEM_COORDINATE_TYPE>  (1) 
2
5
10

$$$$
