9258
     RDKit          3D

  5  5  0  0  0  0  0  0  0  0999 V2000
    1.5965   -0.0008   -0.0003 S   0  0  0  0  0  0  0  0  0  0  0  0
   -1.2242   -0.9600    0.3470 S   0  0  0  0  0  0  0  0  0  0  0  0
   -1.2231    0.9612   -0.3472 S   0  0  0  0  0  0  0  0  0  0  0  0
    0.4247   -1.3814   -0.2411 C   0  0  0  0  0  0  0  0  0  0  0  0
    0.4261    1.3810    0.2416 C   0  0  0  0  0  0  0  0  0  0  0  0
  1  4  1  0
  1  5  1  0
  2  3  1  0
  2  4  1  0
  3  5  1  0
M  END
>  <PUBCHEM_COMPOUND_CID>  (1) 
9258

>  <PUBCHEM_CONFORMER_RMSD>  (1) 
0.4

>  <PUBCHEM_CONFORMER_DIVERSEORDER>  (1) 
1
2

>  <PUBCHEM_MMFF94_PARTIAL_CHARGES>  (1) 
5
1 -0.46
2 -0.23
3 -0.23
4 0.46
5 0.46

>  <PUBCHEM_EFFECTIVE_ROTOR_COUNT>  (1) 
1

>  <PUBCHEM_PHARMACOPHORE_FEATURES>  (1) 
1
5 1 2 3 4 5 rings

>  <PUBCHEM_HEAVY_ATOM_COUNT>  (1) 
5

>  <PUBCHEM_ATOM_DEF_STEREO_COUNT>  (1) 
0

>  <PUBCHEM_ATOM_UDEF_STEREO_COUNT>  (1) 
0

>  <PUBCHEM_BOND_DEF_STEREO_COUNT>  (1) 
0

>  <PUBCHEM_BOND_UDEF_STEREO_COUNT>  (1) 
0

>  <PUBCHEM_ISOTOPIC_ATOM_COUNT>  (1) 
0

>  <PUBCHEM_COMPONENT_COUNT>  (1) 
1

>  <PUBCHEM_CACTVS_TAUTO_COUNT>  (1) 
1

>  <PUBCHEM_CONFORMER_ID>  (1) 
0000242A00000001

>  <PUBCHEM_MMFF94_ENERGY>  (1) 
1.9881

>  <PUBCHEM_FEATURE_SELFOVERLAP>  (1) 
5.074

>  <PUBCHEM_SHAPE_FINGERPRINT>  (1) 
139733 1 9726816957857044001
16714656 1 18121513611139171900
18185500 45 15959767695172116887
20096714 4 16250819439551168277
21015797 1 9287885331885098981
21040471 1 18192992621294853068
5943 1 16392037620683421887

>  <PUBCHEM_SHAPE_MULTIPOLES>  (1) 
114.45
1.91
1.74
0.74
0.18
0
0
0
0
-0.18
0
-0.05
0
0.22

>  <PUBCHEM_SHAPE_SELFOVERLAP>  (1) 
177.018

>  <PUBCHEM_SHAPE_VOLUME>  (1) 
82.6

>  <PUBCHEM_COORDINATE_TYPE>  (1) 
2
5
10

$$$$
