9265
     RDKit          3D

  7  7  0  0  0  0  0  0  0  0999 V2000
    1.5245    0.7520    0.1272 C   0  0  0  0  0  0  0  0  0  0  0  0
    1.5247   -0.7516   -0.1271 C   0  0  0  0  0  0  0  0  0  0  0  0
    0.3044    1.5024   -0.4042 C   0  0  0  0  0  0  0  0  0  0  0  0
    0.3049   -1.5023    0.4040 C   0  0  0  0  0  0  0  0  0  0  0  0
   -0.9549    1.2353    0.4139 C   0  0  0  0  0  0  0  0  0  0  0  0
   -0.9546   -1.2355   -0.4141 C   0  0  0  0  0  0  0  0  0  0  0  0
   -1.7489   -0.0003    0.0002 C   0  0  0  0  0  0  0  0  0  0  0  0
  1  2  1  0
  1  3  1  0
  2  4  1  0
  3  5  1  0
  4  6  1  0
  5  7  1  0
  6  7  1  0
M  END
>  <PUBCHEM_COMPOUND_CID>  (1) 
9265

>  <PUBCHEM_CONFORMER_RMSD>  (1) 
0.4

>  <PUBCHEM_CONFORMER_DIVERSEORDER>  (1) 
1

>  <PUBCHEM_MMFF94_PARTIAL_CHARGES>  (1) 
0

>  <PUBCHEM_EFFECTIVE_ROTOR_COUNT>  (1) 
1.4

>  <PUBCHEM_PHARMACOPHORE_FEATURES>  (1) 
1
7 1 2 3 4 5 6 7 rings

>  <PUBCHEM_HEAVY_ATOM_COUNT>  (1) 
7

>  <PUBCHEM_ATOM_DEF_STEREO_COUNT>  (1) 
0

>  <PUBCHEM_ATOM_UDEF_STEREO_COUNT>  (1) 
0

>  <PUBCHEM_BOND_DEF_STEREO_COUNT>  (1) 
0

>  <PUBCHEM_BOND_UDEF_STEREO_COUNT>  (1) 
0

>  <PUBCHEM_ISOTOPIC_ATOM_COUNT>  (1) 
0

>  <PUBCHEM_COMPONENT_COUNT>  (1) 
1

>  <PUBCHEM_CACTVS_TAUTO_COUNT>  (1) 
1

>  <PUBCHEM_CONFORMER_ID>  (1) 
0000243100000001

>  <PUBCHEM_MMFF94_ENERGY>  (1) 
5.9748

>  <PUBCHEM_FEATURE_SELFOVERLAP>  (1) 
5.074

>  <PUBCHEM_SHAPE_FINGERPRINT>  (1) 
16714656 1 18051705343003295150
18185500 45 18410851079314345391
20096714 4 18411421669993610691
21040471 1 18338518654571980608
241688 4 18410010992327504384
29004967 10 18041005028838046329

>  <PUBCHEM_SHAPE_MULTIPOLES>  (1) 
144.06
2
1.86
0.72
0.01
0
0
0
0
0.03
0
-0.03
0
-0.15

>  <PUBCHEM_SHAPE_SELFOVERLAP>  (1) 
268.013

>  <PUBCHEM_SHAPE_VOLUME>  (1) 
88.2

>  <PUBCHEM_COORDINATE_TYPE>  (1) 
2
5
10

$$$$
