9266
     RDKit          3D

  8  8  0  0  0  0  0  0  0  0999 V2000
    1.1751   -1.3033    0.3328 C   0  0  0  0  0  0  0  0  0  0  0  0
    1.9278    0.0013    0.0617 C   0  0  0  0  0  0  0  0  0  0  0  0
    0.0230   -1.5851   -0.6318 C   0  0  0  0  0  0  0  0  0  0  0  0
    1.1730    1.3045    0.3337 C   0  0  0  0  0  0  0  0  0  0  0  0
   -1.3736   -1.2951   -0.0822 C   0  0  0  0  0  0  0  0  0  0  0  0
    0.0212    1.5854   -0.6317 C   0  0  0  0  0  0  0  0  0  0  0  0
   -1.5711   -0.0009    0.7007 C   0  0  0  0  0  0  0  0  0  0  0  0
   -1.3755    1.2931   -0.0832 C   0  0  0  0  0  0  0  0  0  0  0  0
  1  2  1  0
  1  3  1  0
  2  4  1  0
  3  5  1  0
  4  6  1  0
  5  7  1  0
  6  8  1  0
  7  8  1  0
M  END
>  <PUBCHEM_COMPOUND_CID>  (1) 
9266

>  <PUBCHEM_CONFORMER_RMSD>  (1) 
0.4

>  <PUBCHEM_CONFORMER_DIVERSEORDER>  (1) 
1
2

>  <PUBCHEM_MMFF94_PARTIAL_CHARGES>  (1) 
0

>  <PUBCHEM_EFFECTIVE_ROTOR_COUNT>  (1) 
1.6

>  <PUBCHEM_PHARMACOPHORE_FEATURES>  (1) 
0

>  <PUBCHEM_HEAVY_ATOM_COUNT>  (1) 
8

>  <PUBCHEM_ATOM_DEF_STEREO_COUNT>  (1) 
0

>  <PUBCHEM_ATOM_UDEF_STEREO_COUNT>  (1) 
0

>  <PUBCHEM_BOND_DEF_STEREO_COUNT>  (1) 
0

>  <PUBCHEM_BOND_UDEF_STEREO_COUNT>  (1) 
0

>  <PUBCHEM_ISOTOPIC_ATOM_COUNT>  (1) 
0

>  <PUBCHEM_COMPONENT_COUNT>  (1) 
1

>  <PUBCHEM_CACTVS_TAUTO_COUNT>  (1) 
1

>  <PUBCHEM_CONFORMER_ID>  (1) 
0000243200000001

>  <PUBCHEM_MMFF94_ENERGY>  (1) 
12.1397

>  <PUBCHEM_FEATURE_SELFOVERLAP>  (1) 
0

>  <PUBCHEM_SHAPE_FINGERPRINT>  (1) 
16714656 1 18410867559378069396
18185500 45 17619344750421278198
21040471 1 18267019445042707396
21922407 69 15074307036749625039
241688 4 18194399115789056770
5084963 1 18199757005876070450
66348 1 18410571794723417957

>  <PUBCHEM_SHAPE_MULTIPOLES>  (1) 
164.64
2.21
2.09
0.81
0.17
0
0.01
0
-0.32
-0.06
0.29
-0.06
0
0

>  <PUBCHEM_SHAPE_SELFOVERLAP>  (1) 
305.283

>  <PUBCHEM_SHAPE_VOLUME>  (1) 
101

>  <PUBCHEM_COORDINATE_TYPE>  (1) 
2
5
10

$$$$
