9268
     RDKit          3D

 12 12  0  0  0  0  0  0  0  0999 V2000
   -0.2460   -1.7711    0.3232 C   0  0  0  0  0  0  0  0  0  0  0  0
   -1.5163   -1.7078   -0.5290 C   0  0  0  0  0  0  0  0  0  0  0  0
    0.9988   -2.0502   -0.5245 C   0  0  0  0  0  0  0  0  0  0  0  0
   -2.7051   -1.0643    0.1900 C   0  0  0  0  0  0  0  0  0  0  0  0
    2.3202   -1.6780    0.1671 C   0  0  0  0  0  0  0  0  0  0  0  0
   -2.5216    0.3619    0.7387 C   0  0  0  0  0  0  0  0  0  0  0  0
    2.4393   -0.2232    0.6513 C   0  0  0  0  0  0  0  0  0  0  0  0
   -2.2066    1.4598   -0.2885 C   0  0  0  0  0  0  0  0  0  0  0  0
    2.3052    0.8287   -0.4581 C   0  0  0  0  0  0  0  0  0  0  0  0
   -0.7386    1.6254   -0.7059 C   0  0  0  0  0  0  0  0  0  0  0  0
    1.6749    2.1495    0.0096 C   0  0  0  0  0  0  0  0  0  0  0  0
    0.1958    2.0693    0.4262 C   0  0  0  0  0  0  0  0  0  0  0  0
  1  2  1  0
  1  3  1  0
  2  4  1  0
  3  5  1  0
  4  6  1  0
  5  7  1  0
  6  8  1  0
  7  9  1  0
  8 10  1  0
  9 11  1  0
 10 12  1  0
 11 12  1  0
M  END
>  <PUBCHEM_COMPOUND_CID>  (1) 
9268

>  <PUBCHEM_CONFORMER_RMSD>  (1) 
0.6

>  <PUBCHEM_CONFORMER_DIVERSEORDER>  (1) 
1
3
4
5
2

>  <PUBCHEM_MMFF94_PARTIAL_CHARGES>  (1) 
0

>  <PUBCHEM_EFFECTIVE_ROTOR_COUNT>  (1) 
2.4

>  <PUBCHEM_PHARMACOPHORE_FEATURES>  (1) 
0

>  <PUBCHEM_HEAVY_ATOM_COUNT>  (1) 
12

>  <PUBCHEM_ATOM_DEF_STEREO_COUNT>  (1) 
0

>  <PUBCHEM_ATOM_UDEF_STEREO_COUNT>  (1) 
0

>  <PUBCHEM_BOND_DEF_STEREO_COUNT>  (1) 
0

>  <PUBCHEM_BOND_UDEF_STEREO_COUNT>  (1) 
0

>  <PUBCHEM_ISOTOPIC_ATOM_COUNT>  (1) 
0

>  <PUBCHEM_COMPONENT_COUNT>  (1) 
1

>  <PUBCHEM_CACTVS_TAUTO_COUNT>  (1) 
1

>  <PUBCHEM_CONFORMER_ID>  (1) 
0000243400000001

>  <PUBCHEM_MMFF94_ENERGY>  (1) 
13.383

>  <PUBCHEM_FEATURE_SELFOVERLAP>  (1) 
0

>  <PUBCHEM_SHAPE_FINGERPRINT>  (1) 
11987891 36 18408323297776597569
12382932 28 18341043013142152104
12696612 119 18409732841687369486
13897977 150 18409727353030362629
14251711 518 17547286065741465822
14251717 144 18267576923782936701
14251745 187 17837496610921944600
15775835 57 18338808921367838745
16945 1 18338796826771458279
17990270 104 18336547131555162104
19930374 2 17466477046567892736
20201158 50 18192707834977400481
21249577 28 18408044013649861358
22721475 48 18265901250196495468
2334 1 18410292523070217894
23590187 169 18339927138232459451
2748010 2 17762617291751989038
2897 32 18121781900328932893
57483677 51 18335144176192839396
66348 1 17977947122088343754

>  <PUBCHEM_SHAPE_MULTIPOLES>  (1) 
246.95
4.11
3.01
0.84
0.46
0.14
0
-0.28
-0.41
-0.48
0.24
0.05
0.02
-0.01

>  <PUBCHEM_SHAPE_SELFOVERLAP>  (1) 
454.564

>  <PUBCHEM_SHAPE_VOLUME>  (1) 
153.8

>  <PUBCHEM_COORDINATE_TYPE>  (1) 
2
5
10

$$$$
