9270
     RDKit          3D

 28 31  0  0  1  0  0  0  0  0999 V2000
    4.8319   -0.7521   -0.6327 O   0  0  0  0  0  0  0  0  0  0  0  0
   -6.1233    0.3541    0.1729 O   0  0  0  0  0  0  0  0  0  0  0  0
    6.4882    0.1116    0.7267 O   0  0  0  0  0  0  0  0  0  0  0  0
   -7.0056   -1.6195    0.9873 O   0  0  0  0  0  0  0  0  0  0  0  0
    2.4212   -0.2577   -0.4909 C   0  0  0  0  0  0  0  0  0  0  0  0
    1.6807    0.9288    0.1660 C   0  0  0  0  0  0  0  0  0  0  0  0
    0.2496    1.0972   -0.3528 C   0  0  0  0  0  0  0  0  0  0  0  0
   -0.5527   -0.2046   -0.0545 C   0  0  0  0  0  0  0  0  0  0  0  0
    3.8375   -0.0911    0.1385 C   0  0  0  0  0  0  0  0  0  0  0  0
    1.6510   -1.5478   -0.1539 C   0  0  0  0  0  0  0  0  0  0  0  0
    2.6580    2.0912    0.0084 C   0  0  0  0  0  0  0  0  0  0  0  0
    0.1746   -1.4663   -0.5834 C   0  0  0  0  0  0  0  0  0  0  0  0
   -2.0129   -0.0923   -0.5849 C   0  0  0  0  0  0  0  0  0  0  0  0
    4.0553    1.4446    0.1019 C   0  0  0  0  0  0  0  0  0  0  0  0
   -0.4524    2.3055    0.2830 C   0  0  0  0  0  0  0  0  0  0  0  0
    2.5292   -0.1445   -2.0407 C   0  0  0  0  0  0  0  0  0  0  0  0
   -2.6716    1.1890   -0.0905 C   0  0  0  0  0  0  0  0  0  0  0  0
   -1.8721    2.4553   -0.2550 C   0  0  0  0  0  0  0  0  0  0  0  0
   -2.8304   -1.3532   -0.2229 C   0  0  0  0  0  0  0  0  0  0  0  0
   -4.3285   -1.1235   -0.3653 C   0  0  0  0  0  0  0  0  0  0  0  0
    3.9262   -0.5833    1.5275 C   0  0  0  0  0  0  0  0  0  0  0  0
   -3.9067    1.2159    0.4415 C   0  0  0  0  0  0  0  0  0  0  0  0
   -4.7915    0.0099    0.5465 C   0  0  0  0  0  0  0  0  0  0  0  0
    6.1248   -0.5644   -0.2263 C   0  0  0  0  0  0  0  0  0  0  0  0
    3.9984   -0.9841    2.6567 C   0  0  0  0  0  0  0  0  0  0  0  0
    7.0580   -1.3163   -1.1264 C   0  0  0  0  0  0  0  0  0  0  0  0
   -7.0346   -0.6624    0.2256 C   0  0  0  0  0  0  0  0  0  0  0  0
   -8.1022   -0.4400   -0.8023 C   0  0  0  0  0  0  0  0  0  0  0  0
  1  9  1  0
  1 24  1  0
  2 23  1  0
  2 27  1  0
  3 24  2  0
  4 27  2  0
  5  6  1  0
  5  9  1  0
  5 10  1  0
  5 16  1  0
  6  7  1  0
  6 11  1  0
  7  8  1  0
  7 15  1  0
  8 12  1  0
  8 13  1  0
  9 14  1  0
  9 21  1  0
 10 12  1  0
 11 14  1  0
 13 17  1  0
 13 19  1  0
 15 18  1  0
 17 18  1  0
 17 22  2  0
 19 20  1  0
 20 23  1  0
 21 25  3  0
 22 23  1  0
 24 26  1  0
 27 28  1  0
M  END
>  <PUBCHEM_COMPOUND_CID>  (1) 
9270

>  <PUBCHEM_CONFORMER_RMSD>  (1) 
0.8

>  <PUBCHEM_CONFORMER_DIVERSEORDER>  (1) 
1
6
5
4
3
2

>  <PUBCHEM_MMFF94_PARTIAL_CHARGES>  (1) 
18
1 -0.43
13 0.14
17 -0.28
18 0.14
2 -0.43
21 -0.2
22 -0.29
23 0.42
24 0.66
25 -0.18
26 0.06
27 0.66
28 0.06
3 -0.57
4 -0.57
52 0.15
54 0.18
9 0.48

>  <PUBCHEM_EFFECTIVE_ROTOR_COUNT>  (1) 
6

>  <PUBCHEM_PHARMACOPHORE_FEATURES>  (1) 
7
1 25 hydrophobe
1 3 acceptor
1 4 acceptor
5 5 6 9 11 14 rings
6 13 17 19 20 22 23 rings
6 5 6 7 8 10 12 rings
6 7 8 13 15 17 18 rings

>  <PUBCHEM_HEAVY_ATOM_COUNT>  (1) 
28

>  <PUBCHEM_ATOM_DEF_STEREO_COUNT>  (1) 
7

>  <PUBCHEM_ATOM_UDEF_STEREO_COUNT>  (1) 
0

>  <PUBCHEM_BOND_DEF_STEREO_COUNT>  (1) 
0

>  <PUBCHEM_BOND_UDEF_STEREO_COUNT>  (1) 
0

>  <PUBCHEM_ISOTOPIC_ATOM_COUNT>  (1) 
0

>  <PUBCHEM_COMPONENT_COUNT>  (1) 
1

>  <PUBCHEM_CACTVS_TAUTO_COUNT>  (1) 
1

>  <PUBCHEM_CONFORMER_ID>  (1) 
0000243600000001

>  <PUBCHEM_MMFF94_ENERGY>  (1) 
76.8087

>  <PUBCHEM_FEATURE_SELFOVERLAP>  (1) 
35.614

>  <PUBCHEM_SHAPE_FINGERPRINT>  (1) 
10 15 18342167896001666888
106641 1 18342733044762007352
11646440 116 17704355472034676473
11719270 70 18413103953519201415
11796584 16 15068626006741439081
11963148 33 18408317800551989451
12166972 35 18410578391967914008
12236239 1 17822294540055066228
12403259 415 17703216344150911736
12516196 113 17775566451421333513
12788726 201 18261955145935426905
12838862 33 18340187645141596053
13140716 1 18268707384274855162
13533116 47 17458336408014221571
13685833 64 18411421717206407521
13862211 1 18413390960613645285
14117953 113 18343019982842030415
14251764 18 18202286922139268737
14341114 176 18343585140292765396
14849402 71 16845002533031539368
15183329 4 18333448734386185169
16087824 20 18338517414725177061
17349148 13 18187081741283596864
17492 89 18118960291652483978
1813 80 17822016402067764413
18681886 176 18410856560463008192
20028762 73 18272651259559603511
21033648 29 17274523336075862888
21150785 3 15502376733406156246
21267235 1 18412269427834071797
21781051 124 18263102035353050631
21792934 111 18343295977509633857
22122407 14 14045464492062967835
22224240 67 17275381018989912079
22956985 138 17903354814921963662
23522609 53 17972068922452861684
23557571 272 18131356267232065540
23559900 14 18343016714150774080
23569917 315 18130794486170048607
2838139 119 10879986935534593203
3004659 81 18260267455911316173
3009799 131 11963394045977759926
335352 9 18412828009763568494
3383291 50 18411704326994397563
3411729 13 18126559257273169560
350125 39 18413109463614056468
3545911 37 18060701671516520375
4073 2 17677617634317439147
4325135 7 18202845452871847711
4340502 62 15052017870375998317
465052 167 18335421270424370418
5104073 3 18129380388960004427
59755656 215 18409452453279752470

>  <PUBCHEM_SHAPE_MULTIPOLES>  (1) 
552.75
18.43
1.98
1.31
17.07
0.93
-0.47
-7.57
-0.63
0.24
0
-1.76
-0.45
0.2

>  <PUBCHEM_SHAPE_SELFOVERLAP>  (1) 
1176.256

>  <PUBCHEM_SHAPE_VOLUME>  (1) 
303.5

>  <PUBCHEM_COORDINATE_TYPE>  (1) 
2
5
10

$$$$
