9284
     RDKit          3D

 23 26  0  0  0  0  0  0  0  0999 V2000
    0.3363   -0.7356    0.0192 N   0  0  0  0  0  0  0  0  0  0  0  0
    0.2497    0.6882   -0.0175 N   0  0  0  0  0  0  0  0  0  0  0  0
   -0.9453   -1.2258    0.0224 N   0  0  0  0  0  0  0  0  0  0  0  0
   -1.0207    1.1292   -0.0379 N   0  0  0  0  0  0  0  0  0  0  0  0
    1.5207   -1.5396    0.0489 C   0  0  0  0  0  0  0  0  0  0  0  0
    1.3084    1.5931   -0.0315 C   0  0  0  0  0  0  0  0  0  0  0  0
   -1.6921   -0.0442   -0.0128 C   0  0  0  0  0  0  0  0  0  0  0  0
   -3.1270   -0.0938   -0.0218 C   0  0  0  0  0  0  0  0  0  0  0  0
    2.1007   -1.9587   -1.1444 C   0  0  0  0  0  0  0  0  0  0  0  0
    2.0831   -1.8958    1.2707 C   0  0  0  0  0  0  0  0  0  0  0  0
    1.1465    2.8493    0.5410 C   0  0  0  0  0  0  0  0  0  0  0  0
    2.5166    1.2291   -0.6146 C   0  0  0  0  0  0  0  0  0  0  0  0
   -3.7825   -1.3248    0.0046 C   0  0  0  0  0  0  0  0  0  0  0  0
   -3.8656    1.0890   -0.0571 C   0  0  0  0  0  0  0  0  0  0  0  0
    3.2544   -2.7419   -1.1157 C   0  0  0  0  0  0  0  0  0  0  0  0
    3.2370   -2.6790    1.2994 C   0  0  0  0  0  0  0  0  0  0  0  0
    2.2076    3.7545    0.5300 C   0  0  0  0  0  0  0  0  0  0  0  0
    3.5777    2.1344   -0.6254 C   0  0  0  0  0  0  0  0  0  0  0  0
    3.8226   -3.1021    0.1061 C   0  0  0  0  0  0  0  0  0  0  0  0
    3.4232    3.3972   -0.0531 C   0  0  0  0  0  0  0  0  0  0  0  0
   -5.1765   -1.3730   -0.0045 C   0  0  0  0  0  0  0  0  0  0  0  0
   -5.2597    1.0407   -0.0661 C   0  0  0  0  0  0  0  0  0  0  0  0
   -5.9150   -0.1904   -0.0398 C   0  0  0  0  0  0  0  0  0  0  0  0
  1  2  1  0
  1  3  2  0
  1  5  1  0
  2  4  1  0
  2  6  1  0
  3  7  1  0
  4  7  2  0
  5  9  2  0
  5 10  1  0
  6 11  2  0
  6 12  1  0
  7  8  1  0
  8 13  2  0
  8 14  1  0
  9 15  1  0
 10 16  2  0
 11 17  1  0
 12 18  2  0
 13 21  1  0
 14 22  2  0
 15 19  2  0
 16 19  1  0
 17 20  2  0
 18 20  1  0
 21 23  2  0
 22 23  1  0
M  CHG  1   1   1
M  END
>  <PUBCHEM_COMPOUND_CID>  (1) 
9284

>  <PUBCHEM_CONFORMER_RMSD>  (1) 
0.6

>  <PUBCHEM_CONFORMER_DIVERSEORDER>  (1) 
1
2

>  <PUBCHEM_MMFF94_PARTIAL_CHARGES>  (1) 
38
1 0.16
10 -0.15
11 -0.15
12 -0.15
13 -0.15
14 -0.15
15 -0.15
16 -0.15
17 -0.15
18 -0.15
19 -0.15
2 0.85
20 -0.15
21 -0.15
22 -0.15
23 -0.15
24 0.15
25 0.15
26 0.15
27 0.15
28 0.15
29 0.15
3 -0.18
30 0.15
31 0.15
32 0.15
33 0.15
34 0.15
35 0.15
36 0.15
37 0.15
38 0.15
4 -0.71
5 0.39
6 -0.02
7 0.46
8 0.05
9 -0.15

>  <PUBCHEM_EFFECTIVE_ROTOR_COUNT>  (1) 
3

>  <PUBCHEM_PHARMACOPHORE_FEATURES>  (1) 
5
3 3 4 7 cation
5 1 2 3 4 7 rings
6 5 9 10 15 16 19 rings
6 6 11 12 17 18 20 rings
6 8 13 14 21 22 23 rings

>  <PUBCHEM_HEAVY_ATOM_COUNT>  (1) 
23

>  <PUBCHEM_ATOM_DEF_STEREO_COUNT>  (1) 
0

>  <PUBCHEM_ATOM_UDEF_STEREO_COUNT>  (1) 
0

>  <PUBCHEM_BOND_DEF_STEREO_COUNT>  (1) 
0

>  <PUBCHEM_BOND_UDEF_STEREO_COUNT>  (1) 
0

>  <PUBCHEM_ISOTOPIC_ATOM_COUNT>  (1) 
0

>  <PUBCHEM_COMPONENT_COUNT>  (1) 
1

>  <PUBCHEM_CACTVS_TAUTO_COUNT>  (1) 
1

>  <PUBCHEM_CONFORMER_ID>  (1) 
0000244400000001

>  <PUBCHEM_MMFF94_ENERGY>  (1) 
96.9399

>  <PUBCHEM_FEATURE_SELFOVERLAP>  (1) 
25.374

>  <PUBCHEM_SHAPE_FINGERPRINT>  (1) 
10050765 1 18410574007765640555
10411042 1 18194966236504479574
10693767 8 17988374706310566622
1100329 8 17979358556038583385
11405975 8 18409451345984610083
11963148 33 17975970187936232107
12107183 9 18053390903488615385
12549972 3 17822589264905574785
12553582 1 18122355570563241427
12592029 89 18338234997920780064
12644460 14 18410580603970374267
12730499 353 18265906928617806753
12788726 201 17756996601391379458
13009979 54 17702397147241290402
13140716 1 18123181578910985088
13149001 5 17683490997684103804
13533116 47 18410009962368932963
138480 1 18339080385081633564
13878862 14 18263903507211963741
13955234 65 18411420652160020233
140371 6 17983863276751923645
14739800 52 17560792273372403065
14931854 50 18193589764585296884
14955137 171 18342451544020722026
15250474 111 18129368466790751831
15664445 248 18269846306882021710
15927050 60 18124032601559574230
17492 89 18411981395207931623
17844677 252 18338521842223587499
1813 80 18127412259004609998
18222031 100 18198904716771603422
18681886 176 18342454807790425322
18785283 64 18261669372086719012
20369508 70 18261672575800135827
20554085 129 17915448605413781736
20567600 347 18118120505428975546
20600515 1 17906996401542404904
20645477 70 18410856568578046407
20832881 197 18115871785233611267
21304303 172 17911237213411270016
21344244 78 18200297845432811209
21421861 104 18410015411880890432
21859007 373 17460289094291085997
221490 88 18408612465446229131
22182313 1 17676752215893184637
23366157 5 18259985993597811972
23419403 2 17897140482532485692
23557571 272 17909826531851505998
23559900 14 18339917130842524499
314173 41 18267023864580385935
3298306 158 18266746964007135092
3411729 13 18335698386114848752
3421961 26 18411416185367703642
38695281 34 18200597033055155638
3886686 26 16102172069279600874
4058900 60 18117574022575962948
4073 2 18115876368396258739
5104073 3 18408893932470848171
5385378 56 18340209690644919417
5895379 119 17487353550890416089
59755656 215 18335704987136866844
6138700 20 18411144658527170452
6443956 14 18410012096598537308
67856867 119 18412537739026053633
7364860 26 18412263951998630700
77188 2 18267020549371477004
81228 2 17621321234573619344
8272917 22 18411420647765085533
8863177 126 17969523614097337579
9709674 26 18336267933502280403
9841814 1 18261386702829493274
9981440 41 17977940507949653945

>  <PUBCHEM_SHAPE_MULTIPOLES>  (1) 
453.41
10.52
4.47
0.93
17.57
1.81
-0.05
-1.9
0.44
-8.04
-0.43
-0.86
-0.47
-0.17

>  <PUBCHEM_SHAPE_SELFOVERLAP>  (1) 
1001.754

>  <PUBCHEM_SHAPE_VOLUME>  (1) 
241

>  <PUBCHEM_COORDINATE_TYPE>  (1) 
2
5
10

$$$$
