9295
     RDKit          3D

 24 24  0  0  1  0  0  0  0  0999 V2000
   -1.5316    1.2943    0.4163 O   0  0  0  0  0  0  0  0  0  0  0  0
    4.6343    0.3946    0.0033 O   0  0  0  0  0  0  0  0  0  0  0  0
   -1.3271    1.7818   -1.8242 O   0  0  0  0  0  0  0  0  0  0  0  0
   -3.8798   -1.2310   -0.2887 N   0  0  0  0  0  0  0  0  0  0  0  0
   -3.6740    0.6229    1.3625 C   0  0  0  0  0  0  0  0  0  0  0  0
   -3.4633   -0.8771    1.0662 C   0  0  0  0  0  0  0  0  0  0  0  0
   -2.9355    1.5351    0.3539 C   0  0  0  0  0  0  0  0  0  0  0  0
   -3.2236    0.9652    2.7920 C   0  0  0  0  0  0  0  0  0  0  0  0
   -3.1815   -2.4339   -0.7419 C   0  0  0  0  0  0  0  0  0  0  0  0
   -5.3280   -1.4308   -0.3439 C   0  0  0  0  0  0  0  0  0  0  0  0
   -3.1924    3.0210    0.5802 C   0  0  0  0  0  0  0  0  0  0  0  0
   -3.5269   -3.6302    0.1285 C   0  0  0  0  0  0  0  0  0  0  0  0
   -5.7862   -1.7380   -1.7595 C   0  0  0  0  0  0  0  0  0  0  0  0
   -0.8491    1.4550   -0.7489 C   0  0  0  0  0  0  0  0  0  0  0  0
    0.5955    1.1747   -0.5513 C   0  0  0  0  0  0  0  0  0  0  0  0
    6.3799   -1.2840   -0.0587 C   0  0  0  0  0  0  0  0  0  0  0  0
    4.9877   -0.9107    0.4580 C   0  0  0  0  0  0  0  0  0  0  0  0
    1.0020    0.2573    0.4175 C   0  0  0  0  0  0  0  0  0  0  0  0
    1.5463    1.8296   -1.3342 C   0  0  0  0  0  0  0  0  0  0  0  0
    3.3099    0.6494   -0.1796 C   0  0  0  0  0  0  0  0  0  0  0  0
    7.4409   -0.2993    0.4372 C   0  0  0  0  0  0  0  0  0  0  0  0
    6.7399   -2.7076    0.3605 C   0  0  0  0  0  0  0  0  0  0  0  0
    2.3592   -0.0054    0.6034 C   0  0  0  0  0  0  0  0  0  0  0  0
    2.9035    1.5671   -1.1484 C   0  0  0  0  0  0  0  0  0  0  0  0
  1  7  1  0
  1 14  1  0
  2 17  1  0
  2 20  1  0
  3 14  2  0
  4  6  1  0
  4  9  1  0
  4 10  1  0
  5  6  1  0
  5  7  1  0
  5  8  1  0
  7 11  1  0
  9 12  1  0
 10 13  1  0
 14 15  1  0
 15 18  2  0
 15 19  1  0
 16 17  1  0
 16 21  1  0
 16 22  1  0
 18 23  1  0
 19 24  2  0
 20 23  2  0
 20 24  1  0
M  END
>  <PUBCHEM_COMPOUND_CID>  (1) 
9295

>  <PUBCHEM_CONFORMER_RMSD>  (1) 
1

>  <PUBCHEM_CONFORMER_DIVERSEORDER>  (1) 
1
103
88
52
57
26
18
108
67
116
87
46
69
109
80
37
93
95
75
99
10
12
61
28
77
8
19
14
16
97
104
82
119
118
71
29
96
31
15
89
13
91
32
81
120
49
34
30
115
68
76
6
50
21
107
53
24
11
79
72
9
110
111
25
44
58
41
74
59
38
55
39
114
105
102
35
42
85
45
27
2
84
70
94
43
20
98
48
112
113
47
51
56
7
83
23
92
73
117
66
22
36
101
86
60
5
54
90
33
65
100
63
3
40
17
4
64
62
106
78

>  <PUBCHEM_MMFF94_PARTIAL_CHARGES>  (1) 
20
1 -0.43
10 0.27
14 0.63
15 0.09
17 0.28
18 -0.15
19 -0.15
2 -0.36
20 0.08
23 -0.15
24 -0.15
3 -0.57
4 -0.81
48 0.15
49 0.15
56 0.15
57 0.15
6 0.27
7 0.28
9 0.27

>  <PUBCHEM_EFFECTIVE_ROTOR_COUNT>  (1) 
11

>  <PUBCHEM_PHARMACOPHORE_FEATURES>  (1) 
6
1 2 acceptor
1 3 acceptor
1 4 cation
1 8 hydrophobe
3 16 21 22 hydrophobe
6 15 18 19 20 23 24 rings

>  <PUBCHEM_HEAVY_ATOM_COUNT>  (1) 
24

>  <PUBCHEM_ATOM_DEF_STEREO_COUNT>  (1) 
0

>  <PUBCHEM_ATOM_UDEF_STEREO_COUNT>  (1) 
2

>  <PUBCHEM_BOND_DEF_STEREO_COUNT>  (1) 
0

>  <PUBCHEM_BOND_UDEF_STEREO_COUNT>  (1) 
0

>  <PUBCHEM_ISOTOPIC_ATOM_COUNT>  (1) 
0

>  <PUBCHEM_COMPONENT_COUNT>  (1) 
1

>  <PUBCHEM_CACTVS_TAUTO_COUNT>  (1) 
1

>  <PUBCHEM_CONFORMER_ID>  (1) 
0000244F00000001

>  <PUBCHEM_MMFF94_ENERGY>  (1) 
59.1698

>  <PUBCHEM_FEATURE_SELFOVERLAP>  (1) 
30.446

>  <PUBCHEM_SHAPE_FINGERPRINT>  (1) 
10 15 15626219139538216418
10622 236 18195518423053956543
11036077 4 18201160953565521771
11135926 11 15792011122188904688
11393246 34 18338795603181072110
12422481 6 18271528577242615990
12596602 18 17989204829157572226
12633257 1 17345215435487930993
12760667 363 18341325673846542591
13583140 156 17417805102411048384
14950920 106 17917713500392582104
15163728 17 7853582326326023632
15188451 53 18060133258528008071
15250474 111 18409172129765499806
15348495 7 18131627868796290624
15880784 105 18412828001590651120
17780758 139 18202284692824187776
17857418 61 18409730664502953790
17913733 40 14908188534159614838
18222031 100 18040710381787540888
18927931 339 17095818628348992272
20028762 73 18412260649559988902
21033648 29 15195301797554377097
21401589 2 13038898932852147596
23402539 116 17240770540932402528
23522609 53 18045815345857190964
23559900 14 18268420412310335185
23622692 118 18409727382805191445
3004659 81 18042112301703971071
312425 54 18201439147593478610
314194 84 18114190722555035232
328310 18 12107788484268922511
397830 11 17917135179288921144
4098825 35 11386359322988204432
441001 317 9511454520556291288
445580 204 9079116657421623214
484985 159 18337100199205814087
5104073 3 17989200443975032832
559249 180 18408322164496003597
5924683 9 18343303669468597393
59682541 35 11311775138004414127
7288768 16 12391523005014749109

>  <PUBCHEM_SHAPE_MULTIPOLES>  (1) 
471.32
16.52
3.31
1.59
25.33
1.67
-0.42
12.92
-1.19
-3.14
0.42
-2.12
-0.56
-2.49

>  <PUBCHEM_SHAPE_SELFOVERLAP>  (1) 
936.775

>  <PUBCHEM_SHAPE_VOLUME>  (1) 
282.5

>  <PUBCHEM_COORDINATE_TYPE>  (1) 
2
5
10

$$$$
