9302
     RDKit          3D

 11 11  0  0  0  0  0  0  0  0999 V2000
   -3.1153   -0.6068   -0.0740 O   0  0  0  0  0  0  0  0  0  0  0  0
    2.8904    0.4913   -1.0227 O   0  0  0  0  0  0  0  0  0  0  0  0
   -1.2656    0.7912    0.0646 N   0  0  0  0  0  0  0  0  0  0  0  0
    0.0910    0.9497    0.1470 N   0  0  0  0  0  0  0  0  0  0  0  0
    2.8416   -0.1738    1.2062 N   0  0  0  0  0  0  0  0  0  0  0  0
    0.3296   -1.4242   -0.4894 C   0  0  0  0  0  0  0  0  0  0  0  0
   -0.9939   -1.6441    0.1987 C   0  0  0  0  0  0  0  0  0  0  0  0
    0.8342   -0.0795   -0.0873 C   0  0  0  0  0  0  0  0  0  0  0  0
   -1.8969   -0.4480    0.0227 C   0  0  0  0  0  0  0  0  0  0  0  0
   -2.0221    2.0319    0.0550 C   0  0  0  0  0  0  0  0  0  0  0  0
    2.3071    0.1123   -0.0208 C   0  0  0  0  0  0  0  0  0  0  0  0
  1  9  2  0
  2 11  2  0
  3  4  1  0
  3  9  1  0
  3 10  1  0
  4  8  2  0
  5 11  1  0
  6  7  1  0
  6  8  1  0
  7  9  1  0
  8 11  1  0
M  END
>  <PUBCHEM_COMPOUND_CID>  (1) 
9302

>  <PUBCHEM_CONFORMER_RMSD>  (1) 
0.4

>  <PUBCHEM_CONFORMER_DIVERSEORDER>  (1) 
1
5
4
3
6
2

>  <PUBCHEM_MMFF94_PARTIAL_CHARGES>  (1) 
13
1 -0.57
10 0.3
11 0.63
19 0.37
2 -0.57
20 0.37
3 -0.3
4 -0.51
5 -0.8
6 0.06
7 0.06
8 0.39
9 0.57

>  <PUBCHEM_EFFECTIVE_ROTOR_COUNT>  (1) 
1.6

>  <PUBCHEM_PHARMACOPHORE_FEATURES>  (1) 
5
1 1 acceptor
1 2 acceptor
1 4 acceptor
1 5 donor
6 3 4 6 7 8 9 rings

>  <PUBCHEM_HEAVY_ATOM_COUNT>  (1) 
11

>  <PUBCHEM_ATOM_DEF_STEREO_COUNT>  (1) 
0

>  <PUBCHEM_ATOM_UDEF_STEREO_COUNT>  (1) 
0

>  <PUBCHEM_BOND_DEF_STEREO_COUNT>  (1) 
0

>  <PUBCHEM_BOND_UDEF_STEREO_COUNT>  (1) 
0

>  <PUBCHEM_ISOTOPIC_ATOM_COUNT>  (1) 
0

>  <PUBCHEM_COMPONENT_COUNT>  (1) 
1

>  <PUBCHEM_CACTVS_TAUTO_COUNT>  (1) 
2

>  <PUBCHEM_CONFORMER_ID>  (1) 
0000245600000001

>  <PUBCHEM_MMFF94_ENERGY>  (1) 
22.0462

>  <PUBCHEM_FEATURE_SELFOVERLAP>  (1) 
25.373

>  <PUBCHEM_SHAPE_FINGERPRINT>  (1) 
10857977 72 18271238421424265235
11206711 2 18412260636379083941
12897270 3 18413672417671982511
12932764 1 17561081401848523718
13380535 21 18055370054050417689
13380535 76 18266733572372809629
14325111 11 18411420570687613812
15310529 11 16950556722543609279
16945 1 18411981394505726967
20645464 45 17703781553045926186
20871998 184 18128823117090835871
21028194 46 18271806783200035642
21040471 1 18340207375725514078
23235685 24 18411700997607875799
23402655 69 18197481954185845365
23552423 10 18190184485809310158
2748010 2 18196380216894344231
369184 2 18409439315027015186
5084963 1 18059866064233160342

>  <PUBCHEM_SHAPE_MULTIPOLES>  (1) 
199.69
4.19
1.67
0.8
1.15
0.19
0.05
0.62
0.12
-1.15
-0.04
0.55
-0.01
-0.1

>  <PUBCHEM_SHAPE_SELFOVERLAP>  (1) 
405.728

>  <PUBCHEM_SHAPE_VOLUME>  (1) 
116

>  <PUBCHEM_COORDINATE_TYPE>  (1) 
2
5
10

$$$$
