9309
     RDKit          3D

  9  9  0  0  0  0  0  0  0  0999 V2000
    0.0904    0.1679    0.3927 C   0  0  0  0  0  0  0  0  0  0  0  0
    1.5095    0.3842    0.7968 C   0  0  0  0  0  0  0  0  0  0  0  0
   -0.7145    1.2581    0.0613 C   0  0  0  0  0  0  0  0  0  0  0  0
   -0.4324   -1.1246    0.3456 C   0  0  0  0  0  0  0  0  0  0  0  0
   -2.0417    1.0559   -0.3168 C   0  0  0  0  0  0  0  0  0  0  0  0
   -1.7597   -1.3267   -0.0326 C   0  0  0  0  0  0  0  0  0  0  0  0
   -2.5643   -0.2364   -0.3640 C   0  0  0  0  0  0  0  0  0  0  0  0
    2.4649    0.3586   -0.3680 C   0  0  0  0  0  0  0  0  0  0  0  0
    3.4478   -0.5370   -0.5150 C   0  0  0  0  0  0  0  0  0  0  0  0
  1  2  1  0
  1  3  2  0
  1  4  1  0
  2  8  1  0
  3  5  1  0
  4  6  2  0
  5  7  2  0
  6  7  1  0
  8  9  2  0
M  END
>  <PUBCHEM_COMPOUND_CID>  (1) 
9309

>  <PUBCHEM_CONFORMER_RMSD>  (1) 
0.4

>  <PUBCHEM_CONFORMER_DIVERSEORDER>  (1) 
1
4
7
2
6
3
5

>  <PUBCHEM_MMFF94_PARTIAL_CHARGES>  (1) 
17
1 -0.14
12 0.15
13 0.15
14 0.15
15 0.15
16 0.15
17 0.15
18 0.15
19 0.15
2 0.28
3 -0.15
4 -0.15
5 -0.15
6 -0.15
7 -0.15
8 -0.29
9 -0.3

>  <PUBCHEM_EFFECTIVE_ROTOR_COUNT>  (1) 
2

>  <PUBCHEM_PHARMACOPHORE_FEATURES>  (1) 
2
1 9 hydrophobe
6 1 3 4 5 6 7 rings

>  <PUBCHEM_HEAVY_ATOM_COUNT>  (1) 
9

>  <PUBCHEM_ATOM_DEF_STEREO_COUNT>  (1) 
0

>  <PUBCHEM_ATOM_UDEF_STEREO_COUNT>  (1) 
0

>  <PUBCHEM_BOND_DEF_STEREO_COUNT>  (1) 
0

>  <PUBCHEM_BOND_UDEF_STEREO_COUNT>  (1) 
0

>  <PUBCHEM_ISOTOPIC_ATOM_COUNT>  (1) 
0

>  <PUBCHEM_COMPONENT_COUNT>  (1) 
1

>  <PUBCHEM_CACTVS_TAUTO_COUNT>  (1) 
1

>  <PUBCHEM_CONFORMER_ID>  (1) 
0000245D00000001

>  <PUBCHEM_MMFF94_ENERGY>  (1) 
17.0152

>  <PUBCHEM_FEATURE_SELFOVERLAP>  (1) 
10.148

>  <PUBCHEM_SHAPE_FINGERPRINT>  (1) 
12716758 59 18411414007824533410
12897270 3 18408885152724270558
12932764 1 17749101188759567584
13024252 1 17240489121494464963
14325111 11 18408885118380473300
16714656 1 18408602573925172977
16945 1 18335408084943226577
20201158 50 18060142011835102094
20645464 45 18058145362906005312
20653085 51 17749399152010271676
21040471 1 18265034865409776609
23552423 10 18260545679587058882
2748010 2 17975682107092798907
29004967 10 16630527357904643824
369184 2 9943529587342675660
5084963 1 18413670218511713256

>  <PUBCHEM_SHAPE_MULTIPOLES>  (1) 
185.22
4.48
1.32
0.79
3.13
0.07
-0.04
0.46
1.14
-0.63
0
0.18
-0.01
0.18

>  <PUBCHEM_SHAPE_SELFOVERLAP>  (1) 
375.358

>  <PUBCHEM_SHAPE_VOLUME>  (1) 
104

>  <PUBCHEM_COORDINATE_TYPE>  (1) 
2
5
10

$$$$
