9312
     RDKit          3D

  7  7  0  0  0  0  0  0  0  0999 V2000
    0.6829   -1.1013    0.0002 O   0  0  0  0  0  0  0  0  0  0  0  0
   -0.7060   -1.1430   -0.0001 N   0  0  0  0  0  0  0  0  0  0  0  0
    1.0925    0.1930    0.0004 C   0  0  0  0  0  0  0  0  0  0  0  0
   -1.0902    0.1367   -0.0001 C   0  0  0  0  0  0  0  0  0  0  0  0
    0.0017    1.0217    0.0003 C   0  0  0  0  0  0  0  0  0  0  0  0
    2.5425    0.4214   -0.0005 C   0  0  0  0  0  0  0  0  0  0  0  0
   -2.5233    0.4716   -0.0002 C   0  0  0  0  0  0  0  0  0  0  0  0
  1  2  1  0
  1  3  1  0
  2  4  2  0
  3  5  2  0
  3  6  1  0
  4  5  1  0
  4  7  1  0
M  END
>  <PUBCHEM_COMPOUND_CID>  (1) 
9312

>  <PUBCHEM_CONFORMER_RMSD>  (1) 
0.4

>  <PUBCHEM_CONFORMER_DIVERSEORDER>  (1) 
1

>  <PUBCHEM_MMFF94_PARTIAL_CHARGES>  (1) 
8
1 -0.02
2 -0.41
3 -0.04
4 0.11
5 -0.15
6 0.18
7 0.18
8 0.15

>  <PUBCHEM_EFFECTIVE_ROTOR_COUNT>  (1) 
0

>  <PUBCHEM_PHARMACOPHORE_FEATURES>  (1) 
2
1 2 acceptor
5 1 2 3 4 5 rings

>  <PUBCHEM_HEAVY_ATOM_COUNT>  (1) 
7

>  <PUBCHEM_ATOM_DEF_STEREO_COUNT>  (1) 
0

>  <PUBCHEM_ATOM_UDEF_STEREO_COUNT>  (1) 
0

>  <PUBCHEM_BOND_DEF_STEREO_COUNT>  (1) 
0

>  <PUBCHEM_BOND_UDEF_STEREO_COUNT>  (1) 
0

>  <PUBCHEM_ISOTOPIC_ATOM_COUNT>  (1) 
0

>  <PUBCHEM_COMPONENT_COUNT>  (1) 
1

>  <PUBCHEM_CACTVS_TAUTO_COUNT>  (1) 
1

>  <PUBCHEM_CONFORMER_ID>  (1) 
0000246000000001

>  <PUBCHEM_MMFF94_ENERGY>  (1) 
2.4879

>  <PUBCHEM_FEATURE_SELFOVERLAP>  (1) 
10.148

>  <PUBCHEM_SHAPE_FINGERPRINT>  (1) 
14390081 3 18201716258213710833
16714656 1 18408888451164364268
20096714 4 18410856581119998257
21040471 1 18410573989457006917
23552423 10 18260551151681544006
29004967 10 17967542246081305489
5460574 1 9223232944402367265

>  <PUBCHEM_SHAPE_MULTIPOLES>  (1) 
133.21
3.05
1.1
0.59
0.08
0.17
0
-0.63
0
-0.03
0
0
-0.03
0

>  <PUBCHEM_SHAPE_SELFOVERLAP>  (1) 
267.549

>  <PUBCHEM_SHAPE_VOLUME>  (1) 
80.7

>  <PUBCHEM_COORDINATE_TYPE>  (1) 
2
5
10

$$$$
