933
     RDKit          3D

  2  1  0  0  0  0  0  0  0  0999 V2000
    0.7070    0.0000    0.0000 O   0  0  0  0  0  0  0  0  0  0  0  0
   -0.7070    0.0000    0.0000 N   0  0  0  0  0  0  0  0  0  0  0  0
  1  2  1  0
M  CHG  1   2   1
M  END
>  <PUBCHEM_COMPOUND_CID>  (1) 
933

>  <PUBCHEM_CONFORMER_RMSD>  (1) 
0.4

>  <PUBCHEM_CONFORMER_DIVERSEORDER>  (1) 
1

>  <PUBCHEM_MMFF94_PARTIAL_CHARGES>  (1) 
6
1 -0.15
2 -0.6
3 0.45
4 0.45
5 0.45
6 0.4

>  <PUBCHEM_EFFECTIVE_ROTOR_COUNT>  (1) 
0

>  <PUBCHEM_PHARMACOPHORE_FEATURES>  (1) 
1
1 2 donor

>  <PUBCHEM_HEAVY_ATOM_COUNT>  (1) 
2

>  <PUBCHEM_ATOM_DEF_STEREO_COUNT>  (1) 
0

>  <PUBCHEM_ATOM_UDEF_STEREO_COUNT>  (1) 
0

>  <PUBCHEM_BOND_DEF_STEREO_COUNT>  (1) 
0

>  <PUBCHEM_BOND_UDEF_STEREO_COUNT>  (1) 
0

>  <PUBCHEM_ISOTOPIC_ATOM_COUNT>  (1) 
0

>  <PUBCHEM_COMPONENT_COUNT>  (1) 
1

>  <PUBCHEM_CACTVS_TAUTO_COUNT>  (1) 
1

>  <PUBCHEM_CONFORMER_ID>  (1) 
000003A500000001

>  <PUBCHEM_MMFF94_ENERGY>  (1) 
0.1851

>  <PUBCHEM_FEATURE_SELFOVERLAP>  (1) 
5.074

>  <PUBCHEM_SHAPE_FINGERPRINT>  (1) 
260 1 18410856563945306375

>  <PUBCHEM_SHAPE_MULTIPOLES>  (1) 
30.31
1
0.5
0.5
0
0
0
0
0
0.01
0
0.01
0
0

>  <PUBCHEM_SHAPE_SELFOVERLAP>  (1) 
39.633

>  <PUBCHEM_SHAPE_VOLUME>  (1) 
25

>  <PUBCHEM_COORDINATE_TYPE>  (1) 
2
5
10

$$$$
