9330
     RDKit          3D

 24 25  0  0  0  0  0  0  0  0999 V2000
   -1.0361    0.2866    0.4310 O   0  0  0  0  0  0  0  0  0  0  0  0
    1.1294    0.2094    1.9920 O   0  0  0  0  0  0  0  0  0  0  0  0
    0.1598    2.0292   -0.4752 O   0  0  0  0  0  0  0  0  0  0  0  0
   -4.6871    0.6470    0.0746 N   0  0  0  0  0  0  0  0  0  0  0  0
    1.3494    0.1616    0.5675 C   0  0  0  0  0  0  0  0  0  0  0  0
   -3.4146    0.0344    0.4552 C   0  0  0  0  0  0  0  0  0  0  0  0
   -2.2480    0.9104    0.0271 C   0  0  0  0  0  0  0  0  0  0  0  0
    1.3190   -1.2923    0.0909 C   0  0  0  0  0  0  0  0  0  0  0  0
    2.6837    0.8237    0.2153 C   0  0  0  0  0  0  0  0  0  0  0  0
   -4.7472    0.8432   -1.3733 C   0  0  0  0  0  0  0  0  0  0  0  0
   -5.8068   -0.1787    0.5256 C   0  0  0  0  0  0  0  0  0  0  0  0
    0.1216    0.9568    0.1164 C   0  0  0  0  0  0  0  0  0  0  0  0
    1.7629   -2.2749    0.9456 C   0  0  0  0  0  0  0  0  0  0  0  0
    3.0500    0.9031   -1.1084 C   0  0  0  0  0  0  0  0  0  0  0  0
    0.8487   -1.5613   -1.1739 C   0  0  0  0  0  0  0  0  0  0  0  0
    3.4650    1.3143    1.2359 C   0  0  0  0  0  0  0  0  0  0  0  0
   -6.0373    1.5347   -1.7804 C   0  0  0  0  0  0  0  0  0  0  0  0
   -5.7602   -0.3932    2.0289 C   0  0  0  0  0  0  0  0  0  0  0  0
    1.7351   -3.6002    0.5113 C   0  0  0  0  0  0  0  0  0  0  0  0
    4.2658    1.5067   -1.4296 C   0  0  0  0  0  0  0  0  0  0  0  0
    0.8208   -2.8866   -1.6080 C   0  0  0  0  0  0  0  0  0  0  0  0
    4.6808    1.9180    0.9147 C   0  0  0  0  0  0  0  0  0  0  0  0
    1.2641   -3.9060   -0.7653 C   0  0  0  0  0  0  0  0  0  0  0  0
    5.0812    2.0141   -0.4181 C   0  0  0  0  0  0  0  0  0  0  0  0
  1  7  1  0
  1 12  1  0
  2  5  1  0
  3 12  2  0
  4  6  1  0
  4 10  1  0
  4 11  1  0
  5  8  1  0
  5  9  1  0
  5 12  1  0
  6  7  1  0
  8 13  2  0
  8 15  1  0
  9 14  2  0
  9 16  1  0
 10 17  1  0
 11 18  1  0
 13 19  1  0
 14 20  1  0
 15 21  2  0
 16 22  2  0
 19 23  2  0
 20 24  2  0
 21 23  1  0
 22 24  1  0
M  END
>  <PUBCHEM_COMPOUND_CID>  (1) 
9330

>  <PUBCHEM_CONFORMER_RMSD>  (1) 
1

>  <PUBCHEM_CONFORMER_DIVERSEORDER>  (1) 
1
23
34
22
43
57
68
55
21
24
20
39
32
75
36
27
10
18
64
73
42
12
37
6
52
28
61
44
19
60
17
67
50
59
31
8
9
29
74
41
47
53
63
16
13
56
2
30
15
46
70
4
71
49
3
33
11
76
48
25
40
62
65
38
54
14
45
26
35
58
72
7
5
69
66
51

>  <PUBCHEM_MMFF94_PARTIAL_CHARGES>  (1) 
33
1 -0.43
10 0.27
11 0.27
12 0.66
13 -0.15
14 -0.15
15 -0.15
16 -0.15
19 -0.15
2 -0.68
20 -0.15
21 -0.15
22 -0.15
23 -0.15
24 -0.15
3 -0.57
33 0.15
34 0.15
35 0.15
36 0.15
4 -0.81
43 0.4
44 0.15
45 0.15
46 0.15
47 0.15
48 0.15
49 0.15
5 0.63
6 0.27
7 0.28
8 -0.14
9 -0.14

>  <PUBCHEM_EFFECTIVE_ROTOR_COUNT>  (1) 
9

>  <PUBCHEM_PHARMACOPHORE_FEATURES>  (1) 
6
1 2 acceptor
1 2 donor
1 3 acceptor
1 4 cation
6 8 13 15 19 21 23 rings
6 9 14 16 20 22 24 rings

>  <PUBCHEM_HEAVY_ATOM_COUNT>  (1) 
24

>  <PUBCHEM_ATOM_DEF_STEREO_COUNT>  (1) 
0

>  <PUBCHEM_ATOM_UDEF_STEREO_COUNT>  (1) 
0

>  <PUBCHEM_BOND_DEF_STEREO_COUNT>  (1) 
0

>  <PUBCHEM_BOND_UDEF_STEREO_COUNT>  (1) 
0

>  <PUBCHEM_ISOTOPIC_ATOM_COUNT>  (1) 
0

>  <PUBCHEM_COMPONENT_COUNT>  (1) 
1

>  <PUBCHEM_CACTVS_TAUTO_COUNT>  (1) 
1

>  <PUBCHEM_CONFORMER_ID>  (1) 
0000247200000001

>  <PUBCHEM_MMFF94_ENERGY>  (1) 
62.8852

>  <PUBCHEM_FEATURE_SELFOVERLAP>  (1) 
30.446

>  <PUBCHEM_SHAPE_FINGERPRINT>  (1) 
10366900 7 17918267671749114305
10369192 42 18115034115891579372
10815517 723 17553212399341199327
10906281 52 18041012738584508441
11421498 54 17845950553806014721
11488393 25 18267311936901117882
11545043 162 12463568483335082357
11796584 16 12823307792332032373
11823591 26 18339349868747297052
12166972 35 11891333184018151207
12730499 353 18340499918959813739
12788726 201 17544479017146185174
13083527 12 18194388997094326010
13257819 37 18118429412651865734
13533116 47 18059569136908370883
14347424 109 18126301753157031233
146900 427 18202289104114290617
14790565 3 18193838369049025868
14863182 85 18335435572470235558
15849732 13 18113896075145905124
1601671 61 18335418006028082156
17134984 74 17772157995703640087
17980427 23 17024317533197291695
20197701 30 18412263982300902086
20567600 347 18410582785930123154
20645477 70 18339353051449912735
21033648 29 12902092280181222397
21033650 10 16154564034686763637
21054139 6 18129365163707147927
21065201 7 14045732708923183597
21344244 181 17702688634262015782
21421861 104 17844262734948748651
21521721 280 18200042866173023056
22224240 67 18270118040682461889
22393880 68 17773862255379001807
22956985 138 18043808680943151010
23557571 272 17313114016593679285
23559900 14 17896603877898278135
25222932 49 17531810281004443675
3060560 45 18412542132946811692
3178227 256 18411425041886102896
32027 91 17752477660578866155
404807 78 18121488323031954055
4340502 62 18272092720821755696
5104073 3 18261960627136551649
57359948 33 17895472536847822277
59755656 215 18188486878979728070
59755656 520 18270676580184271348
6025842 7 18340477872982282679
633830 44 17417528120028268481
6669772 16 18272093807971169902
81228 2 17836358629604108922
81539 233 18408322181243447182
8509985 295 9079114449191027137
9971528 1 11891328772585740440

>  <PUBCHEM_SHAPE_MULTIPOLES>  (1) 
471.32
12.3
3.54
1.68
19.98
4.72
0.02
-9.02
-0.19
-4.1
-0.91
0.99
0
1.18

>  <PUBCHEM_SHAPE_SELFOVERLAP>  (1) 
987.516

>  <PUBCHEM_SHAPE_VOLUME>  (1) 
265.7

>  <PUBCHEM_COORDINATE_TYPE>  (1) 
2
5
10

$$$$
