9337
     RDKit          3D

 12 11  0  0  0  0  0  0  0  0999 V2000
   -0.3931   -2.1383   -0.0247 Cl  0  0  0  0  0  0  0  0  0  0  0  0
    0.3931    2.1395   -0.0332 Cl  0  0  0  0  0  0  0  0  0  0  0  0
   -2.8563   -0.9660   -0.0159 F   0  0  0  0  0  0  0  0  0  0  0  0
   -2.2772    0.8367   -1.0663 F   0  0  0  0  0  0  0  0  0  0  0  0
   -2.2507    0.7948    1.1156 F   0  0  0  0  0  0  0  0  0  0  0  0
    2.8619    0.9636   -0.0271 F   0  0  0  0  0  0  0  0  0  0  0  0
    2.2354   -0.8467   -1.0718 F   0  0  0  0  0  0  0  0  0  0  0  0
    2.2853   -0.7887    1.1057 F   0  0  0  0  0  0  0  0  0  0  0  0
   -0.5424   -0.3997    0.0060 C   0  0  0  0  0  0  0  0  0  0  0  0
    0.5426    0.4007    0.0029 C   0  0  0  0  0  0  0  0  0  0  0  0
   -1.9677    0.0638    0.0072 C   0  0  0  0  0  0  0  0  0  0  0  0
    1.9690   -0.0596    0.0017 C   0  0  0  0  0  0  0  0  0  0  0  0
  1  9  1  0
  2 10  1  0
  3 11  1  0
  4 11  1  0
  5 11  1  0
  6 12  1  0
  7 12  1  0
  8 12  1  0
  9 10  2  0
  9 11  1  0
 10 12  1  0
M  END
>  <PUBCHEM_COMPOUND_CID>  (1) 
9337

>  <PUBCHEM_CONFORMER_RMSD>  (1) 
0.6

>  <PUBCHEM_CONFORMER_DIVERSEORDER>  (1) 
1

>  <PUBCHEM_MMFF94_PARTIAL_CHARGES>  (1) 
10
1 -0.14
11 1.16
12 1.16
2 -0.14
3 -0.34
4 -0.34
5 -0.34
6 -0.34
7 -0.34
8 -0.34

>  <PUBCHEM_EFFECTIVE_ROTOR_COUNT>  (1) 
2

>  <PUBCHEM_PHARMACOPHORE_FEATURES>  (1) 
0

>  <PUBCHEM_HEAVY_ATOM_COUNT>  (1) 
12

>  <PUBCHEM_ATOM_DEF_STEREO_COUNT>  (1) 
0

>  <PUBCHEM_ATOM_UDEF_STEREO_COUNT>  (1) 
0

>  <PUBCHEM_BOND_DEF_STEREO_COUNT>  (1) 
0

>  <PUBCHEM_BOND_UDEF_STEREO_COUNT>  (1) 
1

>  <PUBCHEM_ISOTOPIC_ATOM_COUNT>  (1) 
0

>  <PUBCHEM_COMPONENT_COUNT>  (1) 
1

>  <PUBCHEM_CACTVS_TAUTO_COUNT>  (1) 
1

>  <PUBCHEM_CONFORMER_ID>  (1) 
0000247900000001

>  <PUBCHEM_MMFF94_ENERGY>  (1) 
9.1595

>  <PUBCHEM_FEATURE_SELFOVERLAP>  (1) 
0

>  <PUBCHEM_SHAPE_FINGERPRINT>  (1) 
12524768 44 18341897393932946660
12932764 1 18041002821113904256
14325111 11 18410856568403836463
15310529 11 17240205438714698988
15775835 57 18187081771459183231
16945 1 18194402177995243532
20653091 64 18265336281698207048
21040471 1 18411419522668244198
23235685 24 18201722881037080075
23552423 10 18337961077722977430
2748010 2 18410856533869992463
29004967 10 18342458144768238248
3248919 1 18059851748975248486
369184 2 18187078451486334771
5084963 1 18343018925910803179

>  <PUBCHEM_SHAPE_MULTIPOLES>  (1) 
207.05
3.8
1.88
0.87
0
0
0.02
0
0.02
0
-0.04
0
0
-0.01

>  <PUBCHEM_SHAPE_SELFOVERLAP>  (1) 
399.864

>  <PUBCHEM_SHAPE_VOLUME>  (1) 
128.7

>  <PUBCHEM_COORDINATE_TYPE>  (1) 
2
5
10

$$$$
