9341
     RDKit          3D

 22 23  0  0  1  0  0  0  0  0999 V2000
    4.4192   -0.3490    2.2206 O   0  0  0  0  0  0  0  0  0  0  0  0
   -0.4451    0.1571    0.1911 O   0  0  0  0  0  0  0  0  0  0  0  0
   -3.4549   -1.3132    1.1525 O   0  0  0  0  0  0  0  0  0  0  0  0
   -4.2960    1.1932    0.5722 O   0  0  0  0  0  0  0  0  0  0  0  0
   -1.7093    0.5474    2.0719 O   0  0  0  0  0  0  0  0  0  0  0  0
    4.1137    0.9410   -0.8076 N   0  0  0  0  0  0  0  0  0  0  0  0
    3.2586    0.7593    0.4069 C   0  0  0  0  0  0  0  0  0  0  0  0
    3.6696   -0.5805    1.0303 C   0  0  0  0  0  0  0  0  0  0  0  0
    5.1577   -0.0885   -0.7633 C   0  0  0  0  0  0  0  0  0  0  0  0
    4.5452   -1.2571   -0.0125 C   0  0  0  0  0  0  0  0  0  0  0  0
    1.8465    0.7829   -0.0979 C   0  0  0  0  0  0  0  0  0  0  0  0
    3.2149    0.8036   -1.9757 C   0  0  0  0  0  0  0  0  0  0  0  0
    1.8281    0.8166   -1.4321 C   0  0  0  0  0  0  0  0  0  0  0  0
    0.6755    0.7906    0.8163 C   0  0  0  0  0  0  0  0  0  0  0  0
   -2.7117   -0.5899    0.1577 C   0  0  0  0  0  0  0  0  0  0  0  0
   -2.1562   -1.6556   -0.8345 C   0  0  0  0  0  0  0  0  0  0  0  0
   -3.6660    0.4520   -0.4799 C   0  0  0  0  0  0  0  0  0  0  0  0
   -1.5863    0.1025    0.9365 C   0  0  0  0  0  0  0  0  0  0  0  0
   -1.2658   -2.7008   -0.1418 C   0  0  0  0  0  0  0  0  0  0  0  0
   -3.2201   -2.3741   -1.6695 C   0  0  0  0  0  0  0  0  0  0  0  0
   -2.9696    1.4564   -1.3951 C   0  0  0  0  0  0  0  0  0  0  0  0
   -5.2477    2.1061    0.0538 C   0  0  0  0  0  0  0  0  0  0  0  0
  1  8  1  0
  2 14  1  0
  2 18  1  0
  3 15  1  0
  4 17  1  0
  4 22  1  0
  5 18  2  0
  6  7  1  0
  6  9  1  0
  6 12  1  0
  7  8  1  0
  7 11  1  0
  8 10  1  0
  9 10  1  0
 11 13  2  0
 11 14  1  0
 12 13  1  0
 15 16  1  0
 15 17  1  0
 15 18  1  0
 16 19  1  0
 16 20  1  0
 17 21  1  0
M  END
>  <PUBCHEM_COMPOUND_CID>  (1) 
9341

>  <PUBCHEM_CONFORMER_RMSD>  (1) 
1.2

>  <PUBCHEM_CONFORMER_DIVERSEORDER>  (1) 
1
86
63
76
137
71
101
23
161
152
128
6
145
195
113
123
190
180
66
170
49
102
115
97
96
119
192
178
112
139
9
165
79
59
12
124
157
175
185
172
189
60
149
67
90
44
191
181
146
37
108
118
132
4
176
36
121
57
81
22
196
91
80
116
179
143
138
19
3
155
106
65
168
174
89
142
58
105
187
85
104
42
14
61
2
94
72
117
169
164
144
125
171
194
148
131
183
48
99
151
150
24
82
31
62
21
173
130
78
28
88
95
103
74
84
197
110
27
163
13
136
135
98
43
18
45
25
46
133
193
56
77
114
166
167
16
51
122
141
140
184
8
158
53
73
188
26
10
41
134
92
50
160
34
29
32
38
39
120
40
75
156
154
100
87
107
126
11
70
69
182
17
33
68
30
159
147
52
35
7
83
47
109
127
177
162
153
54
20
93
64
15
55
5
111
186
129

>  <PUBCHEM_MMFF94_PARTIAL_CHARGES>  (1) 
20
1 -0.68
11 -0.28
12 0.41
13 -0.29
14 0.42
15 0.34
17 0.28
18 0.66
2 -0.43
22 0.28
3 -0.68
31 0.15
34 0.4
4 -0.56
46 0.4
5 -0.57
6 -0.81
7 0.41
8 0.28
9 0.27

>  <PUBCHEM_EFFECTIVE_ROTOR_COUNT>  (1) 
7.8

>  <PUBCHEM_PHARMACOPHORE_FEATURES>  (1) 
10
1 1 acceptor
1 1 donor
1 3 acceptor
1 3 donor
1 4 acceptor
1 5 acceptor
1 6 cation
3 16 19 20 hydrophobe
5 6 7 11 12 13 rings
5 6 7 8 9 10 rings

>  <PUBCHEM_HEAVY_ATOM_COUNT>  (1) 
22

>  <PUBCHEM_ATOM_DEF_STEREO_COUNT>  (1) 
0

>  <PUBCHEM_ATOM_UDEF_STEREO_COUNT>  (1) 
4

>  <PUBCHEM_BOND_DEF_STEREO_COUNT>  (1) 
0

>  <PUBCHEM_BOND_UDEF_STEREO_COUNT>  (1) 
0

>  <PUBCHEM_ISOTOPIC_ATOM_COUNT>  (1) 
0

>  <PUBCHEM_COMPONENT_COUNT>  (1) 
1

>  <PUBCHEM_CACTVS_TAUTO_COUNT>  (1) 
1

>  <PUBCHEM_CONFORMER_ID>  (1) 
0000247D00000001

>  <PUBCHEM_MMFF94_ENERGY>  (1) 
54.6702

>  <PUBCHEM_FEATURE_SELFOVERLAP>  (1) 
51.266

>  <PUBCHEM_SHAPE_FINGERPRINT>  (1) 
10062212 137 18261104188407360635
10366900 7 8358250449845773813
11578080 2 18339350989381067536
11796584 16 18202287974902284814
12236239 1 18261115179777030768
12346177 29 18060135479010464303
12363563 72 17131557253087498666
12592029 89 18188210892781707715
12633257 1 18411136930995041821
12670545 47 16056884658562141900
12714826 92 18270405026402912939
13167823 11 18260832630736833654
13533116 47 17488464070492978422
14004511 7 18260546718942907153
14251751 93 17822280233155149597
15375358 24 16845854585369582413
15788980 27 18411702097325160422
16752209 62 18270955859810909231
17349148 13 17561082505576023428
17818456 19 18264204704018951528
17834072 14 16845566539129767152
19433438 15 18333452057815101116
20600515 1 17986928856519521745
20645477 70 17240482503467054330
22854114 59 14117520943702072888
23402539 116 17846493708292286029
23559900 14 17632587050108754052
2838139 119 17677600983399775933
300161 21 18410008853924641504
44062 13 18343020012490439911
5104073 3 17894912953315791696
5281201 14 14273451466655921318
5283173 99 16199872726850213345
543358 83 17240487979481803856
559249 180 18341330015699957814
573450 72 18411412938319816647
58051976 100 18260552237933509125
633830 44 17603871117489127330
6913067 236 14979661144792996976
81228 2 17130729213384275008

>  <PUBCHEM_SHAPE_MULTIPOLES>  (1) 
418.42
11.21
2.12
1.73
3.87
1.23
-0.09
-1.86
0.29
-2.83
0.57
0.73
-0.07
-0.97

>  <PUBCHEM_SHAPE_SELFOVERLAP>  (1) 
855.969

>  <PUBCHEM_SHAPE_VOLUME>  (1) 
244.5

>  <PUBCHEM_COORDINATE_TYPE>  (1) 
2
5
10

$$$$
