9345
     RDKit          3D

 25 27  0  0  1  0  0  0  0  0999 V2000
   -2.4137   -1.2289   -1.9161 O   0  0  0  0  0  0  0  0  0  0  0  0
    4.2448   -1.5527    1.1922 O   0  0  0  0  0  0  0  0  0  0  0  0
    5.3949    0.5528   -0.2062 O   0  0  0  0  0  0  0  0  0  0  0  0
   -1.0142    1.1102   -0.6218 N   0  0  0  0  0  0  0  0  0  0  0  0
   -2.2897   -1.3583   -0.4935 C   0  0  0  0  0  0  0  0  0  0  0  0
   -3.0235   -0.1883    0.1982 C   0  0  0  0  0  0  0  0  0  0  0  0
   -0.2778    0.1425    0.2082 C   0  0  0  0  0  0  0  0  0  0  0  0
   -0.7780   -1.2833   -0.1564 C   0  0  0  0  0  0  0  0  0  0  0  0
   -2.4427    1.1669   -0.2738 C   0  0  0  0  0  0  0  0  0  0  0  0
   -4.5435   -0.1826    0.0081 C   0  0  0  0  0  0  0  0  0  0  0  0
   -2.8367   -2.7365   -0.1098 C   0  0  0  0  0  0  0  0  0  0  0  0
   -0.4160    2.4447   -0.6065 C   0  0  0  0  0  0  0  0  0  0  0  0
    1.2406    0.2448    0.0839 C   0  0  0  0  0  0  0  0  0  0  0  0
    0.9763    2.3860   -1.2304 C   0  0  0  0  0  0  0  0  0  0  0  0
   -5.2495    0.8757    0.8616 C   0  0  0  0  0  0  0  0  0  0  0  0
    1.8336    1.3308   -0.5862 C   0  0  0  0  0  0  0  0  0  0  0  0
   -2.0980   -3.8366   -0.8398 C   0  0  0  0  0  0  0  0  0  0  0  0
    2.0752   -0.7075    0.6927 C   0  0  0  0  0  0  0  0  0  0  0  0
    3.2297    1.4140   -0.6911 C   0  0  0  0  0  0  0  0  0  0  0  0
   -4.9809    0.7015    2.3571 C   0  0  0  0  0  0  0  0  0  0  0  0
   -4.7988    2.2683    0.4141 C   0  0  0  0  0  0  0  0  0  0  0  0
    3.4640   -0.6096    0.5955 C   0  0  0  0  0  0  0  0  0  0  0  0
    4.0409    0.4469   -0.1019 C   0  0  0  0  0  0  0  0  0  0  0  0
    4.5951   -2.6930    0.4107 C   0  0  0  0  0  0  0  0  0  0  0  0
    6.0681    1.2921    0.8113 C   0  0  0  0  0  0  0  0  0  0  0  0
  1  5  1  0
  2 22  1  0
  2 24  1  0
  3 23  1  0
  3 25  1  0
  4  7  1  0
  4  9  1  0
  4 12  1  0
  5  6  1  0
  5  8  1  0
  5 11  1  0
  6  9  1  0
  6 10  1  0
  7  8  1  0
  7 13  1  0
 10 15  1  0
 11 17  1  0
 12 14  1  0
 13 16  2  0
 13 18  1  0
 14 16  1  0
 15 20  1  0
 15 21  1  0
 16 19  1  0
 18 22  2  0
 19 23  2  0
 22 23  1  0
M  END
>  <PUBCHEM_COMPOUND_CID>  (1) 
9345

>  <PUBCHEM_CONFORMER_RMSD>  (1) 
0.8

>  <PUBCHEM_CONFORMER_DIVERSEORDER>  (1) 
1
3
7
6
2
5
4

>  <PUBCHEM_MMFF94_PARTIAL_CHARGES>  (1) 
20
1 -0.68
12 0.27
13 -0.14
14 0.14
16 -0.14
18 -0.15
19 -0.15
2 -0.36
22 0.08
23 0.08
24 0.28
25 0.28
3 -0.36
4 -0.81
41 0.4
45 0.15
46 0.15
5 0.28
7 0.41
9 0.27

>  <PUBCHEM_EFFECTIVE_ROTOR_COUNT>  (1) 
6.2

>  <PUBCHEM_PHARMACOPHORE_FEATURES>  (1) 
10
1 1 acceptor
1 1 donor
1 17 hydrophobe
1 2 acceptor
1 3 acceptor
1 4 cation
3 15 20 21 hydrophobe
6 13 16 18 19 22 23 rings
6 4 5 6 7 8 9 rings
6 4 7 12 13 14 16 rings

>  <PUBCHEM_HEAVY_ATOM_COUNT>  (1) 
25

>  <PUBCHEM_ATOM_DEF_STEREO_COUNT>  (1) 
0

>  <PUBCHEM_ATOM_UDEF_STEREO_COUNT>  (1) 
3

>  <PUBCHEM_BOND_DEF_STEREO_COUNT>  (1) 
0

>  <PUBCHEM_BOND_UDEF_STEREO_COUNT>  (1) 
0

>  <PUBCHEM_ISOTOPIC_ATOM_COUNT>  (1) 
0

>  <PUBCHEM_COMPONENT_COUNT>  (1) 
1

>  <PUBCHEM_CACTVS_TAUTO_COUNT>  (1) 
1

>  <PUBCHEM_CONFORMER_ID>  (1) 
0000248100000001

>  <PUBCHEM_MMFF94_ENERGY>  (1) 
106.8508

>  <PUBCHEM_FEATURE_SELFOVERLAP>  (1) 
50.796

>  <PUBCHEM_SHAPE_FINGERPRINT>  (1) 
10493431 412 18412830174907094123
10616163 171 18339359789895345894
10906281 52 17968387861566808196
11135926 11 18260540144165674342
11552529 35 17987509493079513327
11578080 2 17844803891863953857
12107183 9 18266457594527347187
12236239 1 18413672417830387416
12422481 6 18267868268098426283
12553582 1 18261101981110480100
12616971 3 17895192251155279572
12633257 1 18060413586664126184
12788726 201 17346041060871779752
13140716 1 18410290345595710475
13551218 46 18336548209729259355
13583140 156 14979957003419737030
14178342 30 18123174964386594499
14790565 3 18338801087564171401
15196674 1 18261671476367434492
15420108 30 18055627314629442879
15537594 2 18187370934780957062
16110190 28 18410291402532367482
17818456 19 18342746195350662617
1813 80 17095528366159175676
19141452 34 18411418418824583094
20261772 1 18408608045761221337
20600515 1 17702685348396132617
20681677 155 18343020012305446618
20739085 24 18187658954902854452
21033648 29 18271512110058681953
21267235 1 18187932712603841618
21421861 104 18041550335720067298
21703447 108 17554592264836798123
22182313 1 17978230461407902615
23402539 116 18335694001227325212
23559900 14 17561095695895414844
23569917 315 18272371928679350751
23622692 118 18053939830036094519
24771293 8 18192146221893971676
25147074 1 18193565686418411821
34934 24 18335415772855629960
3633792 109 18265032774377824045
5104073 3 18411131463723096890
5385378 56 17983590615639123913
5486654 36 18043536212216992907
56633871 153 18337953385542552083
7064713 232 18273211967676648467
7097593 13 18335984280533597341
7226269 152 17703796886121832585
7495541 125 14129063642445421268
9953998 17 18199446850068048650

>  <PUBCHEM_SHAPE_MULTIPOLES>  (1) 
491.9
12.11
3.24
1.27
5.6
2.39
-0.27
-1.76
-5.05
-1.01
0.86
-0.97
-0.09
-1.78

>  <PUBCHEM_SHAPE_SELFOVERLAP>  (1) 
1027.586

>  <PUBCHEM_SHAPE_VOLUME>  (1) 
278.2

>  <PUBCHEM_COORDINATE_TYPE>  (1) 
2
5
10

$$$$
