9352
     RDKit          3D

 21 23  0  0  0  0  0  0  0  0999 V2000
   -4.9100   -2.1600    0.0023 O   0  0  0  0  0  0  0  0  0  0  0  0
    4.9099   -2.1600   -0.0028 O   0  0  0  0  0  0  0  0  0  0  0  0
   -4.8059    0.1953    0.0000 N   0  0  0  0  0  0  0  0  0  0  0  0
    4.8061    0.1952    0.0008 N   0  0  0  0  0  0  0  0  0  0  0  0
    0.0000   -1.2376   -0.0005 C   0  0  0  0  0  0  0  0  0  0  0  0
   -1.1750   -0.2821   -0.0006 C   0  0  0  0  0  0  0  0  0  0  0  0
    1.1749   -0.2821   -0.0003 C   0  0  0  0  0  0  0  0  0  0  0  0
   -0.7236    1.0570   -0.0004 C   0  0  0  0  0  0  0  0  0  0  0  0
    0.7235    1.0570   -0.0002 C   0  0  0  0  0  0  0  0  0  0  0  0
   -2.5240   -0.5904   -0.0007 C   0  0  0  0  0  0  0  0  0  0  0  0
    2.5240   -0.5903    0.0000 C   0  0  0  0  0  0  0  0  0  0  0  0
   -1.6292    2.1046   -0.0001 C   0  0  0  0  0  0  0  0  0  0  0  0
    1.6292    2.1046    0.0002 C   0  0  0  0  0  0  0  0  0  0  0  0
   -3.4367    0.4659   -0.0004 C   0  0  0  0  0  0  0  0  0  0  0  0
    3.4367    0.4659    0.0002 C   0  0  0  0  0  0  0  0  0  0  0  0
   -2.9938    1.8000   -0.0001 C   0  0  0  0  0  0  0  0  0  0  0  0
    2.9939    1.8000    0.0003 C   0  0  0  0  0  0  0  0  0  0  0  0
   -5.4403   -1.0538   -0.0003 C   0  0  0  0  0  0  0  0  0  0  0  0
    5.4403   -1.0538    0.0009 C   0  0  0  0  0  0  0  0  0  0  0  0
   -6.9423   -0.9177    0.0002 C   0  0  0  0  0  0  0  0  0  0  0  0
    6.9423   -0.9177    0.0015 C   0  0  0  0  0  0  0  0  0  0  0  0
  1 18  2  0
  2 19  2  0
  3 14  1  0
  3 18  1  0
  4 15  1  0
  4 19  1  0
  5  6  1  0
  5  7  1  0
  6  8  2  0
  6 10  1  0
  7  9  2  0
  7 11  1  0
  8  9  1  0
  8 12  1  0
  9 13  1  0
 10 14  2  0
 11 15  2  0
 12 16  2  0
 13 17  2  0
 14 16  1  0
 15 17  1  0
 18 20  1  0
 19 21  1  0
M  END
>  <PUBCHEM_COMPOUND_CID>  (1) 
9352

>  <PUBCHEM_CONFORMER_RMSD>  (1) 
0.6

>  <PUBCHEM_CONFORMER_DIVERSEORDER>  (1) 
1
7
6
5
3
4
2

>  <PUBCHEM_MMFF94_PARTIAL_CHARGES>  (1) 
27
1 -0.57
10 -0.15
11 -0.15
12 -0.15
13 -0.15
14 0.12
15 0.12
16 -0.15
17 -0.15
18 0.57
19 0.57
2 -0.57
20 0.06
21 0.06
24 0.15
25 0.15
26 0.15
27 0.15
28 0.15
29 0.15
3 -0.55
30 0.37
31 0.37
4 -0.55
5 0.29
6 -0.14
7 -0.14

>  <PUBCHEM_EFFECTIVE_ROTOR_COUNT>  (1) 
4.2

>  <PUBCHEM_PHARMACOPHORE_FEATURES>  (1) 
7
1 1 acceptor
1 2 acceptor
1 3 donor
1 4 donor
5 5 6 7 8 9 rings
6 6 8 10 12 14 16 rings
6 7 9 11 13 15 17 rings

>  <PUBCHEM_HEAVY_ATOM_COUNT>  (1) 
21

>  <PUBCHEM_ATOM_DEF_STEREO_COUNT>  (1) 
0

>  <PUBCHEM_ATOM_UDEF_STEREO_COUNT>  (1) 
0

>  <PUBCHEM_BOND_DEF_STEREO_COUNT>  (1) 
0

>  <PUBCHEM_BOND_UDEF_STEREO_COUNT>  (1) 
0

>  <PUBCHEM_ISOTOPIC_ATOM_COUNT>  (1) 
0

>  <PUBCHEM_COMPONENT_COUNT>  (1) 
1

>  <PUBCHEM_CACTVS_TAUTO_COUNT>  (1) 
3

>  <PUBCHEM_CONFORMER_ID>  (1) 
0000248800000001

>  <PUBCHEM_MMFF94_ENERGY>  (1) 
72.6578

>  <PUBCHEM_FEATURE_SELFOVERLAP>  (1) 
35.685

>  <PUBCHEM_SHAPE_FINGERPRINT>  (1) 
10366900 7 16950282892740944368
106641 1 18060131064596285522
11524674 6 16702583839894683391
117890 112 9151172052029931630
11963148 33 18410848880271316286
12166972 35 17821731653930413333
12236239 1 18273497874964740897
12403259 226 18410568491894457252
12516196 113 18343581833431626816
12715332 25 17989483047763302998
12916754 54 18410294718047017177
13288520 33 18411138022011348677
13533116 47 18342738563410113936
13685833 64 18411982460116389986
13862211 1 18410856559645259203
14251764 18 18412547622099352952
14350574 20 18334575745771575180
15042514 8 18339643468348463295
15196674 1 18410575088958520420
16087824 20 18264768763287797549
1813 80 17531249414394795732
18222031 100 17676485060079163716
18681886 176 18409724080270616528
200 152 18201718448720774289
20028762 73 18272367594097077663
20645477 56 10303814272262252547
21130935 74 18201720622243569898
21150785 3 16515688857520683934
21236236 1 18340770356229276065
21267235 1 18410579482709609506
21682296 61 18271815557860945750
21709351 56 18186795877346520317
21792934 111 18272643559363600385
23035841 295 18409450293559620147
23402539 116 18411133637108137517
23522609 53 18122660268349675684
23559900 14 18262514922229684945
25147074 1 18338533983300288673
2871803 45 18187641427531443217
3004659 81 18113896078364615105
335352 9 18410291402912078485
34797466 226 17418098746064122316
350125 39 18411982459589284937
4073 2 18041564761818966651
4214541 1 18410856525380648257
465052 167 18341618147796563814
5104073 3 18272649026202704368
59755656 215 18260828181209237427
7495541 125 17775282815326934921
9709674 26 18335424628893539227

>  <PUBCHEM_SHAPE_MULTIPOLES>  (1) 
410.47
15.06
2.15
0.6
0
0.4
0
-9.39
0
0
0
0
0.02
0

>  <PUBCHEM_SHAPE_SELFOVERLAP>  (1) 
898.474

>  <PUBCHEM_SHAPE_VOLUME>  (1) 
223.8

>  <PUBCHEM_COORDINATE_TYPE>  (1) 
2
5
10

$$$$
