9354
     RDKit          3D

 10  9  0  0  1  0  0  0  0  0999 V2000
    0.3265   -1.7544   -1.1729 S   0  0  0  0  0  0  0  0  0  0  0  0
   -0.3186    1.7549   -1.1700 S   0  0  0  0  0  0  0  0  0  0  0  0
    2.1431    0.7147    1.3513 O   0  0  0  0  0  0  0  0  0  0  0  0
   -2.1799   -0.7160    1.3428 O   0  0  0  0  0  0  0  0  0  0  0  0
    2.8115   -0.2209   -0.6071 O   0  0  0  0  0  0  0  0  0  0  0  0
   -2.7942    0.2278   -0.6232 O   0  0  0  0  0  0  0  0  0  0  0  0
    0.5242   -0.5696    0.2089 C   0  0  0  0  0  0  0  0  0  0  0  0
   -0.5164    0.5661    0.2096 C   0  0  0  0  0  0  0  0  0  0  0  0
    1.9429   -0.0302    0.2315 C   0  0  0  0  0  0  0  0  0  0  0  0
   -1.9389    0.0276    0.2290 C   0  0  0  0  0  0  0  0  0  0  0  0
  1  7  1  0
  2  8  1  0
  3  9  1  0
  4 10  1  0
  5  9  2  0
  6 10  2  0
  7  8  1  0
  7  9  1  0
  8 10  1  0
M  END
>  <PUBCHEM_COMPOUND_CID>  (1) 
9354

>  <PUBCHEM_CONFORMER_RMSD>  (1) 
0.6

>  <PUBCHEM_CONFORMER_DIVERSEORDER>  (1) 
5
6
17
2
4
19
23
7
10
22
12
15
11
21
3
20
9
1
14
18
8
13
16

>  <PUBCHEM_MMFF94_PARTIAL_CHARGES>  (1) 
14
1 -0.41
10 0.66
13 0.18
14 0.18
15 0.5
16 0.5
2 -0.41
3 -0.65
4 -0.65
5 -0.57
6 -0.57
7 0.29
8 0.29
9 0.66

>  <PUBCHEM_EFFECTIVE_ROTOR_COUNT>  (1) 
3

>  <PUBCHEM_PHARMACOPHORE_FEATURES>  (1) 
6
1 3 acceptor
1 4 acceptor
1 5 acceptor
1 6 acceptor
3 3 5 9 anion
3 4 6 10 anion

>  <PUBCHEM_HEAVY_ATOM_COUNT>  (1) 
10

>  <PUBCHEM_ATOM_DEF_STEREO_COUNT>  (1) 
0

>  <PUBCHEM_ATOM_UDEF_STEREO_COUNT>  (1) 
2

>  <PUBCHEM_BOND_DEF_STEREO_COUNT>  (1) 
0

>  <PUBCHEM_BOND_UDEF_STEREO_COUNT>  (1) 
0

>  <PUBCHEM_ISOTOPIC_ATOM_COUNT>  (1) 
0

>  <PUBCHEM_COMPONENT_COUNT>  (1) 
1

>  <PUBCHEM_CACTVS_TAUTO_COUNT>  (1) 
1

>  <PUBCHEM_CONFORMER_ID>  (1) 
0000248A00000005

>  <PUBCHEM_MMFF94_ENERGY>  (1) 
17.0053

>  <PUBCHEM_FEATURE_SELFOVERLAP>  (1) 
30.566

>  <PUBCHEM_SHAPE_FINGERPRINT>  (1) 
10219947 1 18411706499550574789
10857977 72 18187645846614941017
12897270 3 18130218277113318205
14128692 85 15792595078199622387
16945 1 18411136943700088442
20653085 51 14189025543246562882
20711978 78 17558543608546739310
21040471 1 18059850727068561090
21922407 69 16660646189909560976
29004967 10 18335147483344024713
369184 2 15502372314000775177
5084963 1 18336546010795408170
528862 383 17463701135789299213

>  <PUBCHEM_SHAPE_MULTIPOLES>  (1) 
190.02
3.44
1.54
1.3
0.01
0
0.02
0.01
0.57
0
-0.71
0
0
0.59

>  <PUBCHEM_SHAPE_SELFOVERLAP>  (1) 
347.398

>  <PUBCHEM_SHAPE_VOLUME>  (1) 
122.5

>  <PUBCHEM_COORDINATE_TYPE>  (1) 
2
5
10

$$$$
