9356
     RDKit          3D

 23 22  0  0  1  0  0  0  0  0999 V2000
    0.8478    0.6168    0.2307 O   0  0  0  0  0  0  0  0  0  0  0  0
   -2.2574    0.3681    1.9263 O   0  0  0  0  0  0  0  0  0  0  0  0
   -1.2952    1.6642   -1.3767 O   0  0  0  0  0  0  0  0  0  0  0  0
   -4.2787    1.5530    0.3591 O   0  0  0  0  0  0  0  0  0  0  0  0
   -3.6410   -2.0186    0.3045 O   0  0  0  0  0  0  0  0  0  0  0  0
    2.6387    1.4725    1.4046 O   0  0  0  0  0  0  0  0  0  0  0  0
   -6.5391   -0.0284   -0.4592 O   0  0  0  0  0  0  0  0  0  0  0  0
   -5.8461   -2.0431   -1.2404 O   0  0  0  0  0  0  0  0  0  0  0  0
    4.2509   -0.3481    0.0312 N   0  0  0  0  0  0  0  0  0  0  0  0
    4.4914    0.3611   -1.2274 C   0  0  0  0  0  0  0  0  0  0  0  0
    5.0356   -1.5841    0.0737 C   0  0  0  0  0  0  0  0  0  0  0  0
   -2.1639    0.4065    0.5058 C   0  0  0  0  0  0  0  0  0  0  0  0
   -1.3652    1.6477    0.0489 C   0  0  0  0  0  0  0  0  0  0  0  0
   -3.5946    0.3746   -0.0769 C   0  0  0  0  0  0  0  0  0  0  0  0
    2.8326   -0.6334    0.1980 C   0  0  0  0  0  0  0  0  0  0  0  0
    0.0542    1.7300    0.6172 C   0  0  0  0  0  0  0  0  0  0  0  0
   -4.4398   -0.8441    0.3399 C   0  0  0  0  0  0  0  0  0  0  0  0
    5.8360    1.0812   -1.1804 C   0  0  0  0  0  0  0  0  0  0  0  0
    3.3524    1.3432   -1.4825 C   0  0  0  0  0  0  0  0  0  0  0  0
    5.2879   -1.9757    1.5262 C   0  0  0  0  0  0  0  0  0  0  0  0
    4.3099   -2.6975   -0.6762 C   0  0  0  0  0  0  0  0  0  0  0  0
    2.1380    0.6090    0.6971 C   0  0  0  0  0  0  0  0  0  0  0  0
   -5.6545   -1.0548   -0.5437 C   0  0  0  0  0  0  0  0  0  0  0  0
  1 16  1  0
  1 22  1  0
  2 12  1  0
  3 13  1  0
  4 14  1  0
  5 17  1  0
  6 22  2  0
  7 23  1  0
  8 23  2  0
  9 10  1  0
  9 11  1  0
  9 15  1  0
 10 18  1  0
 10 19  1  0
 11 20  1  0
 11 21  1  0
 12 13  1  0
 12 14  1  0
 13 16  1  0
 14 17  1  0
 15 22  1  0
 17 23  1  0
M  END
>  <PUBCHEM_COMPOUND_CID>  (1) 
9356

>  <PUBCHEM_CONFORMER_RMSD>  (1) 
1.4

>  <PUBCHEM_CONFORMER_DIVERSEORDER>  (1) 
1
69
48
2
35
17
49
10
72
15
19
30
66
3
63
37
16
22
28
70
55
6
5
51
23
68
8
25
56
60
27
57
42
32
50
71
33
20
64
76
7
29
26
41
52
31
53
58
39
38
11
40
12
43
65
34
62
21
9
24
4
18
47
13
54
67
73
46
44
59
36
45
74
61
75
14

>  <PUBCHEM_MMFF94_PARTIAL_CHARGES>  (1) 
24
1 -0.43
10 0.27
11 0.27
12 0.28
13 0.28
14 0.28
15 0.33
16 0.28
17 0.34
2 -0.68
22 0.66
23 0.66
3 -0.68
4 -0.68
46 0.4
47 0.4
48 0.4
49 0.4
5 -0.68
50 0.5
6 -0.57
7 -0.65
8 -0.57
9 -0.81

>  <PUBCHEM_EFFECTIVE_ROTOR_COUNT>  (1) 
11

>  <PUBCHEM_PHARMACOPHORE_FEATURES>  (1) 
15
1 2 acceptor
1 2 donor
1 3 acceptor
1 3 donor
1 4 acceptor
1 4 donor
1 5 acceptor
1 5 donor
1 6 acceptor
1 7 acceptor
1 8 acceptor
1 9 cation
3 10 18 19 hydrophobe
3 11 20 21 hydrophobe
3 7 8 23 anion

>  <PUBCHEM_HEAVY_ATOM_COUNT>  (1) 
23

>  <PUBCHEM_ATOM_DEF_STEREO_COUNT>  (1) 
0

>  <PUBCHEM_ATOM_UDEF_STEREO_COUNT>  (1) 
4

>  <PUBCHEM_BOND_DEF_STEREO_COUNT>  (1) 
0

>  <PUBCHEM_BOND_UDEF_STEREO_COUNT>  (1) 
0

>  <PUBCHEM_ISOTOPIC_ATOM_COUNT>  (1) 
0

>  <PUBCHEM_COMPONENT_COUNT>  (1) 
1

>  <PUBCHEM_CACTVS_TAUTO_COUNT>  (1) 
1

>  <PUBCHEM_CONFORMER_ID>  (1) 
0000248C00000001

>  <PUBCHEM_MMFF94_ENERGY>  (1) 
54.3227

>  <PUBCHEM_FEATURE_SELFOVERLAP>  (1) 
76.2

>  <PUBCHEM_SHAPE_FINGERPRINT>  (1) 
10447042 23 18335138704737008814
10595046 47 18335426751188158372
10670039 82 13118275911577860286
11796584 16 18195805172444691144
12596602 18 13039183715022436215
13533116 47 18060135478910159737
13675066 3 15051735253080456792
14251740 57 17845380955855505974
14251751 18 18271800198962514546
14251752 14 18187077309557959613
14251764 30 17346050991141720148
14347332 77 18041554720243326900
15183329 4 18413673509047343203
15250474 111 18408039589549294714
15537594 2 18060420235384497926
16760501 71 10087627226451724635
17857418 61 18413387635512730371
18222031 100 17988929989177735752
19377110 9 12103549923232250453
20028762 73 18340484470321983974
20281389 69 9871750187290752883
20281475 54 18411985736644044288
20374829 77 18409726227564217529
20403669 9 18343866606294660111
20645477 70 18261116232218221478
21033648 29 10954042389423783286
21315763 87 17632567249961970650
21637258 2 18060126657532512995
22950370 63 18341618100620670481
23522609 53 18196966359577076089
23559900 14 18270391815342233401
2838139 119 11458419176321185563
2871803 45 18186236221184433442
29717793 49 18114180821832517644
3004659 81 18334296436065198946
314194 84 18411709810817424915
34797466 226 16660652902980121245
351380 3 17918277566646849855
4259306 186 18411417310749433455
4325135 7 18333453157954508932
465052 167 17775289373910729580
5104073 3 17561363993791103745
559249 180 18340483366677808353
59682541 52 16515675603167375098
7495541 125 18343863316803249200
960060 61 18186522124309316728

>  <PUBCHEM_SHAPE_MULTIPOLES>  (1) 
421.39
16.29
2.39
1.37
9.57
0.98
0.11
8.03
-3.91
-1.21
-0.23
-0.8
-0.11
-1.68

>  <PUBCHEM_SHAPE_SELFOVERLAP>  (1) 
823.664

>  <PUBCHEM_SHAPE_VOLUME>  (1) 
253.9

>  <PUBCHEM_COORDINATE_TYPE>  (1) 
2
5
10

$$$$
