9372
     RDKit          3D

 16 17  0  0  0  0  0  0  0  0999 V2000
   -2.0315    4.1823   -0.1367 Cl  0  0  0  0  0  0  0  0  0  0  0  0
   -1.8442   -1.3755   -0.9355 O   0  0  0  0  0  0  0  0  0  0  0  0
    3.1164   -0.1897    1.0417 O   0  0  0  0  0  0  0  0  0  0  0  0
   -0.0356    0.6862   -0.0035 N   0  0  0  0  0  0  0  0  0  0  0  0
   -0.3078   -0.5553    0.7199 C   0  0  0  0  0  0  0  0  0  0  0  0
    1.2857    1.2042    0.3493 C   0  0  0  0  0  0  0  0  0  0  0  0
   -1.0681    1.6816    0.2830 C   0  0  0  0  0  0  0  0  0  0  0  0
   -1.6646   -1.1009    0.3674 C   0  0  0  0  0  0  0  0  0  0  0  0
    2.3650    0.2147    0.0040 C   0  0  0  0  0  0  0  0  0  0  0  0
   -0.7897    2.9585   -0.4948 C   0  0  0  0  0  0  0  0  0  0  0  0
   -2.7548   -1.3722    1.1193 C   0  0  0  0  0  0  0  0  0  0  0  0
    2.7306   -0.3547   -1.1662 C   0  0  0  0  0  0  0  0  0  0  0  0
   -3.7171   -1.8658    0.2064 C   0  0  0  0  0  0  0  0  0  0  0  0
    3.8174   -1.2005   -0.8395 C   0  0  0  0  0  0  0  0  0  0  0  0
   -3.1147   -1.8483   -1.0301 C   0  0  0  0  0  0  0  0  0  0  0  0
    4.0130   -1.0648    0.5153 C   0  0  0  0  0  0  0  0  0  0  0  0
  1 10  1  0
  2  8  1  0
  2 15  1  0
  3  9  1  0
  3 16  1  0
  4  5  1  0
  4  6  1  0
  4  7  1  0
  5  8  1  0
  6  9  1  0
  7 10  1  0
  8 11  2  0
  9 12  2  0
 11 13  1  0
 12 14  1  0
 13 15  2  0
 14 16  2  0
M  END
>  <PUBCHEM_COMPOUND_CID>  (1) 
9372

>  <PUBCHEM_CONFORMER_RMSD>  (1) 
0.8

>  <PUBCHEM_CONFORMER_DIVERSEORDER>  (1) 
1
8
29
14
21
38
6
25
32
5
31
15
4
17
37
7
23
28
22
13
36
27
19
18
3
16
11
34
39
33
2
20
26
35
9
30
24
10
12

>  <PUBCHEM_MMFF94_PARTIAL_CHARGES>  (1) 
22
1 -0.29
10 0.29
11 -0.15
12 -0.15
13 -0.15
14 -0.15
15 -0.01
16 -0.01
2 -0.28
25 0.15
26 0.15
27 0.15
28 0.15
29 0.15
3 -0.28
30 0.15
4 -0.81
5 0.45
6 0.45
7 0.27
8 -0.04
9 -0.04

>  <PUBCHEM_EFFECTIVE_ROTOR_COUNT>  (1) 
6

>  <PUBCHEM_PHARMACOPHORE_FEATURES>  (1) 
5
1 2 acceptor
1 3 acceptor
1 4 cation
5 2 8 11 13 15 rings
5 3 9 12 14 16 rings

>  <PUBCHEM_HEAVY_ATOM_COUNT>  (1) 
16

>  <PUBCHEM_ATOM_DEF_STEREO_COUNT>  (1) 
0

>  <PUBCHEM_ATOM_UDEF_STEREO_COUNT>  (1) 
0

>  <PUBCHEM_BOND_DEF_STEREO_COUNT>  (1) 
0

>  <PUBCHEM_BOND_UDEF_STEREO_COUNT>  (1) 
0

>  <PUBCHEM_ISOTOPIC_ATOM_COUNT>  (1) 
0

>  <PUBCHEM_COMPONENT_COUNT>  (1) 
1

>  <PUBCHEM_CACTVS_TAUTO_COUNT>  (1) 
1

>  <PUBCHEM_CONFORMER_ID>  (1) 
0000249C00000001

>  <PUBCHEM_MMFF94_ENERGY>  (1) 
20.1128

>  <PUBCHEM_FEATURE_SELFOVERLAP>  (1) 
25.371

>  <PUBCHEM_SHAPE_FINGERPRINT>  (1) 
104564 63 18336547118665011403
10618630 7 18410013268829242406
11322862 65 18050294665078803965
11578080 2 17631432583963203801
116883 192 18412262830843705877
11833330 49 18335414651832840121
12363563 72 18337110171661042850
12500047 106 18051129199258487060
12553582 1 18338527446565519694
12788726 201 18334867099215342616
13052359 8 18191583043425737097
13583140 156 14692569896862965027
13681431 1 18046346606702716277
14178000 22 17831567691884891552
14178342 30 18190446178799275426
15502708 8 18337955592949604500
15848700 24 18341326803116882143
15885798 251 18410859892930199747
15906896 17 18044106665351588841
16752209 62 18335693901889475315
17539 30 18339633460873924525
1813 80 18269290099873695959
18186145 218 17168422765454559083
20097449 115 18337954613818211545
20339313 130 18193844957797331059
20361792 2 18339644563142727879
20524608 308 18195811769224599696
20645477 70 18267580402168707487
20671657 53 18339078327855810347
20711985 344 18335696109534190625
21296965 67 18338797926420242659
21339142 126 18412545384010097475
21524375 3 17684090184192308649
2255824 54 17547856716576530125
22620623 9 18271250408672739804
23419403 2 17345165931241534489
23526113 38 17753327861806844843
23530152 11 17761207713824980589
23557571 272 18336254726224618056
23558518 356 18260271828409849072
23559900 14 17982728577164265554
25 1 11386630915376645578
3091708 16 9134966350148661113
4175511 71 18266189507501508105
58779409 8 18048880693268279085
6049 1 17989205919942309744
6992083 37 18129957787753251091
7164475 11 18335704918717784612
7364860 26 17761778772665996809
81228 2 18335136479617265657

>  <PUBCHEM_SHAPE_MULTIPOLES>  (1) 
314.42
6.82
3.67
1.07
4.63
5.23
-0.08
-4.7
-0.32
-4.86
-0.5
0.09
-0.38
0.13

>  <PUBCHEM_SHAPE_SELFOVERLAP>  (1) 
650.083

>  <PUBCHEM_SHAPE_VOLUME>  (1) 
183.5

>  <PUBCHEM_COORDINATE_TYPE>  (1) 
2
5
10

$$$$
