9387
     RDKit          3D

 26 25  0  0  0  0  0  0  0  0999 V2000
    0.6526   -2.4415   -0.0207 F   0  0  0  0  0  0  0  0  0  0  0  0
   -0.5920   -1.3148   -1.3957 F   0  0  0  0  0  0  0  0  0  0  0  0
   -1.5986   -1.6824    1.0817 F   0  0  0  0  0  0  0  0  0  0  0  0
    0.1213   -0.7466    2.0001 F   0  0  0  0  0  0  0  0  0  0  0  0
    0.9988    0.8701   -1.1557 F   0  0  0  0  0  0  0  0  0  0  0  0
    1.9777   -0.9610   -1.7907 F   0  0  0  0  0  0  0  0  0  0  0  0
   -0.3754    1.5978    0.7494 F   0  0  0  0  0  0  0  0  0  0  0  0
   -1.9798    0.8202    1.9868 F   0  0  0  0  0  0  0  0  0  0  0  0
    1.9746    0.4437    1.4426 F   0  0  0  0  0  0  0  0  0  0  0  0
    2.9694   -1.3592    0.7308 F   0  0  0  0  0  0  0  0  0  0  0  0
   -2.7776    2.1732   -0.1672 F   0  0  0  0  0  0  0  0  0  0  0  0
   -1.6901    0.8682   -1.5198 F   0  0  0  0  0  0  0  0  0  0  0  0
    4.5947    0.8225    0.8292 F   0  0  0  0  0  0  0  0  0  0  0  0
    4.2502    0.1202   -1.2065 F   0  0  0  0  0  0  0  0  0  0  0  0
    3.2602    1.9283   -0.4973 F   0  0  0  0  0  0  0  0  0  0  0  0
   -4.2719    0.0529    0.7380 F   0  0  0  0  0  0  0  0  0  0  0  0
   -4.3234    0.3017   -1.4297 F   0  0  0  0  0  0  0  0  0  0  0  0
   -3.1397   -1.2970   -0.5361 F   0  0  0  0  0  0  0  0  0  0  0  0
    0.2093   -1.1806   -0.3018 C   0  0  0  0  0  0  0  0  0  0  0  0
   -0.6462   -0.7290    0.8733 C   0  0  0  0  0  0  0  0  0  0  0  0
    1.4138   -0.3430   -0.7113 C   0  0  0  0  0  0  0  0  0  0  0  0
   -1.3308    0.6285    0.8005 C   0  0  0  0  0  0  0  0  0  0  0  0
    2.4964   -0.1483    0.3397 C   0  0  0  0  0  0  0  0  0  0  0  0
   -2.3236    0.8954   -0.3209 C   0  0  0  0  0  0  0  0  0  0  0  0
    3.6584    0.6909   -0.1343 C   0  0  0  0  0  0  0  0  0  0  0  0
   -3.5284   -0.0104   -0.3845 C   0  0  0  0  0  0  0  0  0  0  0  0
  1 19  1  0
  2 19  1  0
  3 20  1  0
  4 20  1  0
  5 21  1  0
  6 21  1  0
  7 22  1  0
  8 22  1  0
  9 23  1  0
 10 23  1  0
 11 24  1  0
 12 24  1  0
 13 25  1  0
 14 25  1  0
 15 25  1  0
 16 26  1  0
 17 26  1  0
 18 26  1  0
 19 20  1  0
 19 21  1  0
 20 22  1  0
 21 23  1  0
 22 24  1  0
 23 25  1  0
 24 26  1  0
M  END
>  <PUBCHEM_COMPOUND_CID>  (1) 
9387

>  <PUBCHEM_CONFORMER_RMSD>  (1) 
0.8

>  <PUBCHEM_CONFORMER_DIVERSEORDER>  (1) 
1
32
48
8
43
55
45
57
14
38
12
51
7
46
5
26
16
27
37
2
58
47
36
22
52
9
41
56
30
29
42
50
49
31
3
19
35
6
4
28
13
18
40
24
15
21
10
20
34
33
44
23
25
17
39
11
54
53

>  <PUBCHEM_MMFF94_PARTIAL_CHARGES>  (1) 
26
1 -0.34
10 -0.34
11 -0.34
12 -0.34
13 -0.34
14 -0.34
15 -0.34
16 -0.34
17 -0.34
18 -0.34
19 0.68
2 -0.34
20 0.68
21 0.68
22 0.68
23 0.68
24 0.68
25 1.02
26 1.02
3 -0.34
4 -0.34
5 -0.34
6 -0.34
7 -0.34
8 -0.34
9 -0.34

>  <PUBCHEM_EFFECTIVE_ROTOR_COUNT>  (1) 
7

>  <PUBCHEM_PHARMACOPHORE_FEATURES>  (1) 
0

>  <PUBCHEM_HEAVY_ATOM_COUNT>  (1) 
26

>  <PUBCHEM_ATOM_DEF_STEREO_COUNT>  (1) 
0

>  <PUBCHEM_ATOM_UDEF_STEREO_COUNT>  (1) 
0

>  <PUBCHEM_BOND_DEF_STEREO_COUNT>  (1) 
0

>  <PUBCHEM_BOND_UDEF_STEREO_COUNT>  (1) 
0

>  <PUBCHEM_ISOTOPIC_ATOM_COUNT>  (1) 
0

>  <PUBCHEM_COMPONENT_COUNT>  (1) 
1

>  <PUBCHEM_CACTVS_TAUTO_COUNT>  (1) 
1

>  <PUBCHEM_CONFORMER_ID>  (1) 
000024AB00000001

>  <PUBCHEM_MMFF94_ENERGY>  (1) 
16.6043

>  <PUBCHEM_FEATURE_SELFOVERLAP>  (1) 
0

>  <PUBCHEM_SHAPE_FINGERPRINT>  (1) 
10646746 165 18114178575543633388
10863032 1 18334008384865726274
10948715 1 18334292076214243208
11132069 177 18040150721177499871
11370993 70 17748819722161814858
12011746 2 17603585214438064604
12077114 3 15936408944349688893
121448 382 18272929457370563962
12251169 10 14201402694011035160
12403814 3 18335416877110566181
12491281 212 18131074787944336177
12633257 1 12396301418035045525
128620 24 18272653449923735045
12892183 10 14201400482024126876
13221675 6 13254797936433386519
13224815 77 17917994962056797416
13288520 33 10375604711039911696
13571099 52 17896037642136405533
13581323 91 17313392239752658499
13583140 156 16878233059756327984
14115302 16 12463567404570303745
14787075 74 18058724848699754631
15061688 2 18260540100219053525
15209289 33 11527952261480710252
15309172 13 17967813851128204722
15775835 57 18040714766257904132
16752209 62 12031519713884540587
16945 1 18260845786269108071
17349148 13 18201996582661321570
17357779 13 16627117875811573199
17804303 29 9367342656716524729
1813 80 13182740372286208712
18186145 218 18272656714278228156
19862831 5 16056886801402695460
200 152 16128660742936625174
21731516 1 13182444522296570669
23184049 59 12324241650637982005
23227448 37 17824546502645200068
23402539 116 17967807280329337015
23419403 2 17627229301413023699
23557571 272 18265065793348306643
23559900 14 18408882928353457930
296302 2 18344147003271119329
3286 77 17131545064292131192
3323516 105 15267334149916284962
351380 180 18040708173710218012
4340502 62 17168430355690263577
474 4 18410864239147277705
69090 78 18260824920996256746
74978 22 13623827049664831117
83771 10 11240001165571944292

>  <PUBCHEM_SHAPE_MULTIPOLES>  (1) 
404.14
7
1.69
1.51
1.19
0.15
-0.15
-1.93
0.97
-0.02
0.01
-0.15
0.07
0.04

>  <PUBCHEM_SHAPE_SELFOVERLAP>  (1) 
880.131

>  <PUBCHEM_SHAPE_VOLUME>  (1) 
216.2

>  <PUBCHEM_COORDINATE_TYPE>  (1) 
2
5
10

$$$$
