9389
     RDKit          3D

 32 31  0  0  0  0  0  0  0  0999 V2000
   -5.5619   -1.9925   -0.2095 Br  0  0  0  0  0  0  0  0  0  0  0  0
   -1.2466   -1.4707   -0.9045 F   0  0  0  0  0  0  0  0  0  0  0  0
    0.2433   -0.2324   -1.8873 F   0  0  0  0  0  0  0  0  0  0  0  0
    1.1329   -1.7517    0.1663 F   0  0  0  0  0  0  0  0  0  0  0  0
   -0.3221   -0.8805    1.5187 F   0  0  0  0  0  0  0  0  0  0  0  0
   -0.6708    1.9722   -0.4703 F   0  0  0  0  0  0  0  0  0  0  0  0
   -2.1248    1.0166   -1.7690 F   0  0  0  0  0  0  0  0  0  0  0  0
    0.7445    1.5723    1.2447 F   0  0  0  0  0  0  0  0  0  0  0  0
    2.0943    0.0342    1.9465 F   0  0  0  0  0  0  0  0  0  0  0  0
   -1.6672    0.8180    1.7060 F   0  0  0  0  0  0  0  0  0  0  0  0
   -3.0926    1.9824    0.5488 F   0  0  0  0  0  0  0  0  0  0  0  0
    1.8349    1.5221   -1.2281 F   0  0  0  0  0  0  0  0  0  0  0  0
    3.1994    1.9389    0.4065 F   0  0  0  0  0  0  0  0  0  0  0  0
   -2.7376   -1.5018    0.8456 F   0  0  0  0  0  0  0  0  0  0  0  0
   -4.1150   -0.1217    1.8061 F   0  0  0  0  0  0  0  0  0  0  0  0
    4.2641    0.5874   -1.6297 F   0  0  0  0  0  0  0  0  0  0  0  0
    2.8013   -1.0097   -1.4720 F   0  0  0  0  0  0  0  0  0  0  0  0
   -3.7162   -0.6475   -1.6614 F   0  0  0  0  0  0  0  0  0  0  0  0
   -5.1149    0.6553   -0.6174 F   0  0  0  0  0  0  0  0  0  0  0  0
    5.1064    0.1345    0.9197 F   0  0  0  0  0  0  0  0  0  0  0  0
    5.2104   -1.6282   -0.3491 F   0  0  0  0  0  0  0  0  0  0  0  0
    3.6405   -1.4622    1.1579 F   0  0  0  0  0  0  0  0  0  0  0  0
   -0.4874   -0.3464   -0.7514 C   0  0  0  0  0  0  0  0  0  0  0  0
    0.4475   -0.6030    0.4250 C   0  0  0  0  0  0  0  0  0  0  0  0
   -1.4268    0.8456   -0.6196 C   0  0  0  0  0  0  0  0  0  0  0  0
    1.4412    0.4751    0.8332 C   0  0  0  0  0  0  0  0  0  0  0  0
   -2.3982    0.8076    0.5534 C   0  0  0  0  0  0  0  0  0  0  0  0
    2.4782    0.9383   -0.1798 C   0  0  0  0  0  0  0  0  0  0  0  0
   -3.4015   -0.3323    0.6607 C   0  0  0  0  0  0  0  0  0  0  0  0
    3.4622   -0.0742   -0.7455 C   0  0  0  0  0  0  0  0  0  0  0  0
   -4.3762   -0.4749   -0.4928 C   0  0  0  0  0  0  0  0  0  0  0  0
    4.3590   -0.7707    0.2483 C   0  0  0  0  0  0  0  0  0  0  0  0
  1 31  1  0
  2 23  1  0
  3 23  1  0
  4 24  1  0
  5 24  1  0
  6 25  1  0
  7 25  1  0
  8 26  1  0
  9 26  1  0
 10 27  1  0
 11 27  1  0
 12 28  1  0
 13 28  1  0
 14 29  1  0
 15 29  1  0
 16 30  1  0
 17 30  1  0
 18 31  1  0
 19 31  1  0
 20 32  1  0
 21 32  1  0
 22 32  1  0
 23 24  1  0
 23 25  1  0
 24 26  1  0
 25 27  1  0
 26 28  1  0
 27 29  1  0
 28 30  1  0
 29 31  1  0
 30 32  1  0
M  END
>  <PUBCHEM_COMPOUND_CID>  (1) 
9389

>  <PUBCHEM_CONFORMER_RMSD>  (1) 
1.2

>  <PUBCHEM_CONFORMER_DIVERSEORDER>  (1) 
1
440
308
210
335
382
364
71
316
324
208
45
57
64
133
39
575
393
433
240
191
94
154
358
272
161
97
174
359
128
329
30
156
37
284
12
194
13
82
229
419
438
75
539
352
305
277
144
84
320
228
211
366
441
104
148
530
311
399
2
297
140
496
223
569
507
80
91
47
472
416
355
206
293
188
103
449
292
214
283
56
515
396
224
141
430
562
471
207
4
447
555
354
192
263
256
254
278
548
62
152
488
130
572
327
279
574
122
51
127
546
22
78
121
158
451
244
529
212
528
95
379
28
52
415
531
34
402
412
26
280
542
427
249
120
74
509
370
100
50
58
417
129
3
186
394
147
522
505
6
10
395
190
487
24
295
209
35
521
221
458
363
268
165
67
108
313
435
117
48
150
374
7

>  <PUBCHEM_MMFF94_PARTIAL_CHARGES>  (1) 
32
1 -0.23
10 -0.34
11 -0.34
12 -0.34
13 -0.34
14 -0.34
15 -0.34
16 -0.34
17 -0.34
18 -0.34
19 -0.34
2 -0.34
20 -0.34
21 -0.34
22 -0.34
23 0.68
24 0.68
25 0.68
26 0.68
27 0.68
28 0.68
29 0.68
3 -0.34
30 0.68
31 0.91
32 1.02
4 -0.34
5 -0.34
6 -0.34
7 -0.34
8 -0.34
9 -0.34

>  <PUBCHEM_EFFECTIVE_ROTOR_COUNT>  (1) 
9

>  <PUBCHEM_PHARMACOPHORE_FEATURES>  (1) 
1
1 1 hydrophobe

>  <PUBCHEM_HEAVY_ATOM_COUNT>  (1) 
32

>  <PUBCHEM_ATOM_DEF_STEREO_COUNT>  (1) 
0

>  <PUBCHEM_ATOM_UDEF_STEREO_COUNT>  (1) 
0

>  <PUBCHEM_BOND_DEF_STEREO_COUNT>  (1) 
0

>  <PUBCHEM_BOND_UDEF_STEREO_COUNT>  (1) 
0

>  <PUBCHEM_ISOTOPIC_ATOM_COUNT>  (1) 
0

>  <PUBCHEM_COMPONENT_COUNT>  (1) 
1

>  <PUBCHEM_CACTVS_TAUTO_COUNT>  (1) 
1

>  <PUBCHEM_CONFORMER_ID>  (1) 
000024AD00000001

>  <PUBCHEM_MMFF94_ENERGY>  (1) 
26.3662

>  <PUBCHEM_FEATURE_SELFOVERLAP>  (1) 
5.074

>  <PUBCHEM_SHAPE_FINGERPRINT>  (1) 
10366900 7 18411144661935953299
10498660 4 15502376741980136597
10863032 1 18262525908502671016
12011746 2 16081367449064314143
12166972 35 18041000695769750941
12236239 1 18411417306275001046
12403814 3 17632858616342822069
12592029 89 17775574121557996470
12633257 1 18201449072941224011
12670546 56 18412824698502025496
12788726 201 13479394055795320407
13224815 77 18343021107654034187
13581323 91 16845572011013119280
13675066 3 15052018948217402201
15209289 33 17846501434938263207
15788980 27 18411421687146950195
15848702 151 18261960643709758478
16752209 62 16950272997157087829
16945 1 18271242712560888996
17349148 13 18336267924753824007
1813 80 18271815630643131933
19862831 5 17458060469255421514
200 152 18410007745675100295
20028762 73 16987994041888854135
21267235 1 18343026596411514822
21682296 61 18058738974874396822
22393880 68 17604136104313391375
23402539 116 18412824672895673901
23559900 14 16588030134143049492
3286 77 18272932743020434993
34797466 226 16805892891472459983
34934 24 8502655908780060191
465052 167 18130510854981811935
5104073 3 17703794738437503755
7495541 125 18342737454996996718
9981440 41 16050083250914512826

>  <PUBCHEM_SHAPE_MULTIPOLES>  (1) 
511.74
10.36
1.76
1.58
1.24
0.06
0.02
-3.71
0.31
0.32
-0.03
-0.03
0.08
-0.18

>  <PUBCHEM_SHAPE_SELFOVERLAP>  (1) 
1107.645

>  <PUBCHEM_SHAPE_VOLUME>  (1) 
282.6

>  <PUBCHEM_COORDINATE_TYPE>  (1) 
2
5
10

$$$$
