9398
     RDKit          3D

 23 24  0  0  0  0  0  0  0  0999 V2000
   -0.0016    0.0060   -1.9168 S   0  0  0  0  0  0  0  0  0  0  0  0
   -4.5057   -1.5780    1.5097 F   0  0  0  0  0  0  0  0  0  0  0  0
    4.4992    1.5653    1.5252 F   0  0  0  0  0  0  0  0  0  0  0  0
    0.3904   -1.1884   -2.6517 O   0  0  0  0  0  0  0  0  0  0  0  0
   -0.3546    1.2192   -2.6428 O   0  0  0  0  0  0  0  0  0  0  0  0
   -4.1341    2.2834    0.3639 O   0  0  0  0  0  0  0  0  0  0  0  0
    4.1287   -2.2878    0.3512 O   0  0  0  0  0  0  0  0  0  0  0  0
   -5.2403    0.7387    1.4719 O   0  0  0  0  0  0  0  0  0  0  0  0
    5.2338   -0.7510    1.4715 O   0  0  0  0  0  0  0  0  0  0  0  0
   -4.2860    1.0973    0.7414 N   0  0  0  0  0  0  0  0  0  0  0  0
    4.2802   -1.1044    0.7375 N   0  0  0  0  0  0  0  0  0  0  0  0
   -1.3414   -0.4606   -0.8988 C   0  0  0  0  0  0  0  0  0  0  0  0
    1.3575    0.4723   -0.8786 C   0  0  0  0  0  0  0  0  0  0  0  0
   -2.2713    0.4946   -0.4883 C   0  0  0  0  0  0  0  0  0  0  0  0
    2.2666   -0.4929   -0.4897 C   0  0  0  0  0  0  0  0  0  0  0  0
   -1.4818   -1.7887   -0.4961 C   0  0  0  0  0  0  0  0  0  0  0  0
    1.4771    1.7904   -0.4818 C   0  0  0  0  0  0  0  0  0  0  0  0
   -3.3414    0.1220    0.3251 C   0  0  0  0  0  0  0  0  0  0  0  0
    3.3359   -0.1261    0.3273 C   0  0  0  0  0  0  0  0  0  0  0  0
   -2.5521   -2.1613    0.3171 C   0  0  0  0  0  0  0  0  0  0  0  0
    2.5466    2.1572    0.3351 C   0  0  0  0  0  0  0  0  0  0  0  0
   -3.4818   -1.2060    0.7279 C   0  0  0  0  0  0  0  0  0  0  0  0
    3.4759    1.1989    0.7398 C   0  0  0  0  0  0  0  0  0  0  0  0
  1  4  2  0
  1  5  2  0
  1 12  1  0
  1 13  1  0
  2 22  1  0
  3 23  1  0
  6 10  1  0
  7 11  1  0
  8 10  2  0
  9 11  2  0
 10 18  1  0
 11 19  1  0
 12 14  2  0
 12 16  1  0
 13 15  2  0
 13 17  1  0
 14 18  1  0
 15 19  1  0
 16 20  2  0
 17 21  2  0
 18 22  2  0
 19 23  2  0
 20 22  1  0
 21 23  1  0
M  CHG  4   6  -1   7  -1  10   1  11   1
M  END
>  <PUBCHEM_COMPOUND_CID>  (1) 
9398

>  <PUBCHEM_CONFORMER_RMSD>  (1) 
0.6

>  <PUBCHEM_CONFORMER_DIVERSEORDER>  (1) 
2
3
1

>  <PUBCHEM_MMFF94_PARTIAL_CHARGES>  (1) 
29
1 1.32
10 0.91
11 0.91
12 -0.01
13 -0.01
14 -0.15
15 -0.15
16 -0.15
17 -0.15
18 0.13
19 0.13
2 -0.19
20 -0.15
21 -0.15
22 0.19
23 0.19
24 0.15
25 0.15
26 0.15
27 0.15
28 0.15
29 0.15
3 -0.19
4 -0.65
5 -0.65
6 -0.52
7 -0.52
8 -0.52
9 -0.52

>  <PUBCHEM_EFFECTIVE_ROTOR_COUNT>  (1) 
4

>  <PUBCHEM_PHARMACOPHORE_FEATURES>  (1) 
10
1 4 acceptor
1 5 acceptor
1 6 acceptor
1 6 anion
1 7 acceptor
1 7 anion
1 8 acceptor
1 9 acceptor
6 12 14 16 18 20 22 rings
6 13 15 17 19 21 23 rings

>  <PUBCHEM_HEAVY_ATOM_COUNT>  (1) 
23

>  <PUBCHEM_ATOM_DEF_STEREO_COUNT>  (1) 
0

>  <PUBCHEM_ATOM_UDEF_STEREO_COUNT>  (1) 
0

>  <PUBCHEM_BOND_DEF_STEREO_COUNT>  (1) 
0

>  <PUBCHEM_BOND_UDEF_STEREO_COUNT>  (1) 
0

>  <PUBCHEM_ISOTOPIC_ATOM_COUNT>  (1) 
0

>  <PUBCHEM_COMPONENT_COUNT>  (1) 
1

>  <PUBCHEM_CACTVS_TAUTO_COUNT>  (1) 
1

>  <PUBCHEM_CONFORMER_ID>  (1) 
000024B600000002

>  <PUBCHEM_MMFF94_ENERGY>  (1) 
52.1208

>  <PUBCHEM_FEATURE_SELFOVERLAP>  (1) 
50.927

>  <PUBCHEM_SHAPE_FINGERPRINT>  (1) 
10498660 4 11671792533121646859
10759866 29 18267595765451529944
10764073 3 17978509728396870332
10928967 22 15719385165815887803
1100329 8 16321185984652803357
11370993 144 18411131403487740554
11552529 35 18122337149570035958
11640471 11 15626221307969277957
12107183 9 18266740177563026099
12363563 72 15358242909467034309
12467345 10 18410856546754888515
12553582 1 15791728611439155674
12596599 1 16805888519116534171
12633257 1 18410855451538227221
12670546 177 9223235143362163642
12670546 56 18342170107150162059
12707595 3 14201396135632949653
12714826 92 15864338130286470751
12892183 10 18338797926219776016
13103583 49 18259985946405854642
13533116 47 18116437123347266963
13583140 156 18268417091815052173
14178342 30 18260561030285958647
14251764 30 16153713089579369986
14289901 80 18266740379426488523
14420673 8 18189901902952960410
14790565 3 17978789335997587624
14957384 54 16558459924471330264
15061688 2 15697996323176362166
15209289 33 17603585222753868010
15475509 84 17916299442946286776
15527383 91 18408882924021365792
1813 80 16370725941478922622
18222031 100 16298668373379797867
193927 3 15647050477678432921
20429552 37 18127130779775318558
20429585 67 9582938221116973173
20693207 138 11747216935080221727
20715895 44 17915187806515141969
20871999 31 9151172039508961677
21065198 48 18338797939104677905
21065199 12 18410855503083109793
21403212 168 18189890916932415153
21713013 43 10809334555663346337
21756936 100 17628069320181956512
235170 7 10665221540656378442
23559900 14 18127719108658207597
2838139 119 12679173925891571922
312425 83 10302998442807549067
341906 21 15267051588761195858
3737641 26 17168980076569732210
4028521 119 12103852279901980946
474 4 13901907838397037410
5104073 3 18410855490192933771
57724786 102 16916801711624195808
5924683 9 18199742704136537367
633830 44 14260814817750351173
7097593 13 18336546135064688284
7970288 3 15719113547789114891

>  <PUBCHEM_SHAPE_MULTIPOLES>  (1) 
417.45
10.23
2.29
1.83
0.07
0
-1.11
0.02
7.76
0
0.38
-0.01
-0.01
-0.02

>  <PUBCHEM_SHAPE_SELFOVERLAP>  (1) 
898.632

>  <PUBCHEM_SHAPE_VOLUME>  (1) 
232.6

>  <PUBCHEM_COORDINATE_TYPE>  (1) 
2
5
10

$$$$
