9401
     RDKit          3D

 28 31  0  0  1  0  0  0  0  0999 V2000
    6.8589    1.7124    0.2772 O   0  0  0  0  0  0  0  0  0  0  0  0
   -1.3556   -1.1985   -0.4170 C   0  0  0  0  0  0  0  0  0  0  0  0
   -0.2954   -1.8406    0.4998 C   0  0  0  0  0  0  0  0  0  0  0  0
    1.1427   -1.5501    0.0589 C   0  0  0  0  0  0  0  0  0  0  0  0
    1.3722   -0.0112    0.0160 C   0  0  0  0  0  0  0  0  0  0  0  0
   -2.6351   -1.7355    0.2694 C   0  0  0  0  0  0  0  0  0  0  0  0
   -1.1734    0.3237   -0.3368 C   0  0  0  0  0  0  0  0  0  0  0  0
    2.8343    0.3424   -0.4721 C   0  0  0  0  0  0  0  0  0  0  0  0
   -0.7492   -3.2925    0.6173 C   0  0  0  0  0  0  0  0  0  0  0  0
    0.2488    0.7429   -0.7477 C   0  0  0  0  0  0  0  0  0  0  0  0
   -2.2868   -3.2078    0.5921 C   0  0  0  0  0  0  0  0  0  0  0  0
    2.1483   -2.2082    1.0154 C   0  0  0  0  0  0  0  0  0  0  0  0
   -3.9360   -1.5913   -0.5070 C   0  0  0  0  0  0  0  0  0  0  0  0
   -1.2769   -1.6619   -1.8929 C   0  0  0  0  0  0  0  0  0  0  0  0
    3.8713   -0.5590    0.2126 C   0  0  0  0  0  0  0  0  0  0  0  0
    3.1263    1.8274   -0.1022 C   0  0  0  0  0  0  0  0  0  0  0  0
    3.5398   -1.6787    0.8788 C   0  0  0  0  0  0  0  0  0  0  0  0
    2.9768    0.1579   -2.0021 C   0  0  0  0  0  0  0  0  0  0  0  0
    5.3197   -0.1370    0.1218 C   0  0  0  0  0  0  0  0  0  0  0  0
    4.5886    2.2407   -0.2631 C   0  0  0  0  0  0  0  0  0  0  0  0
   -4.2878   -0.1174   -0.8066 C   0  0  0  0  0  0  0  0  0  0  0  0
    5.5127    1.3215    0.5277 C   0  0  0  0  0  0  0  0  0  0  0  0
   -5.0844   -2.2404    0.2757 C   0  0  0  0  0  0  0  0  0  0  0  0
   -4.4247    0.7871    0.4262 C   0  0  0  0  0  0  0  0  0  0  0  0
   -4.7104    2.2187    0.0670 C   0  0  0  0  0  0  0  0  0  0  0  0
   -4.0322    3.3236    0.4308 C   0  0  0  0  0  0  0  0  0  0  0  0
   -4.4807    4.6804   -0.0453 C   0  0  0  0  0  0  0  0  0  0  0  0
   -2.8117    3.3515    1.3061 C   0  0  0  0  0  0  0  0  0  0  0  0
  1 22  1  0
  2  3  1  0
  2  6  1  0
  2  7  1  0
  2 14  1  0
  3  4  1  0
  3  9  1  0
  4  5  1  0
  4 12  1  0
  5  8  1  0
  5 10  1  0
  6 11  1  0
  6 13  1  0
  7 10  1  0
  8 15  1  0
  8 16  1  0
  8 18  1  0
  9 11  1  0
 12 17  1  0
 13 21  1  0
 13 23  1  0
 15 17  2  0
 15 19  1  0
 16 20  1  0
 19 22  1  0
 20 22  1  0
 21 24  1  0
 24 25  1  0
 25 26  2  3
 26 27  1  0
 26 28  1  0
M  END
>  <PUBCHEM_COMPOUND_CID>  (1) 
9401

>  <PUBCHEM_CONFORMER_RMSD>  (1) 
0.8

>  <PUBCHEM_CONFORMER_DIVERSEORDER>  (1) 
1
18
15
19
2
10
17
7
13
4
16
20
9
6
11
8
14
3
12
5

>  <PUBCHEM_MMFF94_PARTIAL_CHARGES>  (1) 
15
1 -0.68
12 0.14
15 -0.28
17 -0.29
19 0.14
22 0.28
24 0.14
25 -0.29
26 -0.28
27 0.14
28 0.14
49 0.15
65 0.4
66 0.15
8 0.14

>  <PUBCHEM_EFFECTIVE_ROTOR_COUNT>  (1) 
6

>  <PUBCHEM_PHARMACOPHORE_FEATURES>  (1) 
9
1 1 acceptor
1 1 donor
1 23 hydrophobe
3 26 27 28 hydrophobe
4 13 21 24 25 hydrophobe
5 2 3 6 9 11 rings
6 2 3 4 5 7 10 rings
6 4 5 8 12 15 17 rings
6 8 15 16 19 20 22 rings

>  <PUBCHEM_HEAVY_ATOM_COUNT>  (1) 
28

>  <PUBCHEM_ATOM_DEF_STEREO_COUNT>  (1) 
7

>  <PUBCHEM_ATOM_UDEF_STEREO_COUNT>  (1) 
1

>  <PUBCHEM_BOND_DEF_STEREO_COUNT>  (1) 
0

>  <PUBCHEM_BOND_UDEF_STEREO_COUNT>  (1) 
0

>  <PUBCHEM_ISOTOPIC_ATOM_COUNT>  (1) 
0

>  <PUBCHEM_COMPONENT_COUNT>  (1) 
1

>  <PUBCHEM_CACTVS_TAUTO_COUNT>  (1) 
1

>  <PUBCHEM_CONFORMER_ID>  (1) 
000024B900000001

>  <PUBCHEM_MMFF94_ENERGY>  (1) 
81.6409

>  <PUBCHEM_FEATURE_SELFOVERLAP>  (1) 
45.773

>  <PUBCHEM_SHAPE_FINGERPRINT>  (1) 
10411042 1 17762056940808741515
10675989 125 17186441240616908401
10906281 52 17676780859451976654
1100329 8 17977946787039034683
11513181 2 18201438030506895191
11578080 2 15696067758712718515
12107183 9 18047463431290882930
12390115 104 18411145709839310724
12422481 6 17750223712980241260
12788726 201 18266192788666559901
13073987 5 18408039619545279554
13140716 1 17830460840094391499
13965767 371 17824827741477668477
14251764 75 17767694863069247857
14394314 77 18340772555706985633
14466204 15 18411417319429402744
14739800 52 18340753914883393096
14790565 3 18337110077113291866
16112460 7 18188767245849861898
18603816 31 12830313966064929417
19309040 13 17129586731405689509
20739085 24 17752215997663169309
21033648 144 18261101925260328493
21033650 10 18266764483041689694
21236236 1 18412261752938685717
21279426 13 18341054025775941718
21304253 335 18260832579271189990
21421861 104 17749937870443868834
23522609 53 17749407974764947164
23559900 14 18337106882681172358
23569914 2 17126717134653143120
283562 15 18408317809694960875
3117164 225 18119526535766550739
3633792 109 18042386029008203263
3680242 22 18040985246925537154
397830 11 11530770366403148436
4144715 1 18335428945542192706
445580 37 18338808904874135900
44802255 64 17489307537966754756
460360 51 18265352654129389522
469060 322 18265638605342816049
5104073 3 18113333098473387794
5171179 24 17558813216946179433
5283173 99 18342459244385666568
550186 7 18201729456990960517
636775 72 18269829982344605456
6608658 132 18271514395191351063
7226269 152 18338795731549614041
7808743 9 18340767044814778865
9849439 229 18050294661649649173
9981440 41 18263089838446984841

>  <PUBCHEM_SHAPE_MULTIPOLES>  (1) 
570.36
12.84
4.67
1.16
8.04
3.17
-0.4
9.2
1.22
-6.71
1.26
0.14
-0.18
-0.95

>  <PUBCHEM_SHAPE_SELFOVERLAP>  (1) 
1186.507

>  <PUBCHEM_SHAPE_VOLUME>  (1) 
324.4

>  <PUBCHEM_COORDINATE_TYPE>  (1) 
2
5
10

$$$$
