9408
     RDKit          3D

 16 19  0  0  0  0  0  0  0  0999 V2000
    2.7941    1.1997    0.0001 N   0  0  0  0  0  0  0  0  0  0  0  0
   -0.7054    0.0031   -0.0002 C   0  0  0  0  0  0  0  0  0  0  0  0
    0.7114   -0.0075   -0.0001 C   0  0  0  0  0  0  0  0  0  0  0  0
   -1.4231   -1.2152   -0.0001 C   0  0  0  0  0  0  0  0  0  0  0  0
   -1.3957    1.2331    0.0000 C   0  0  0  0  0  0  0  0  0  0  0  0
    1.4071   -1.2346   -0.0001 C   0  0  0  0  0  0  0  0  0  0  0  0
    1.4488    1.1937   -0.0001 C   0  0  0  0  0  0  0  0  0  0  0  0
   -0.7144   -2.4248    0.0000 C   0  0  0  0  0  0  0  0  0  0  0  0
    0.6824   -2.4348    0.0000 C   0  0  0  0  0  0  0  0  0  0  0  0
   -0.6555    2.4210   -0.0001 C   0  0  0  0  0  0  0  0  0  0  0  0
    0.7429    2.3910   -0.0001 C   0  0  0  0  0  0  0  0  0  0  0  0
   -2.8255   -1.1834    0.0000 C   0  0  0  0  0  0  0  0  0  0  0  0
   -2.7986    1.2339    0.0002 C   0  0  0  0  0  0  0  0  0  0  0  0
    2.8018   -1.2183    0.0001 C   0  0  0  0  0  0  0  0  0  0  0  0
   -3.5070    0.0331    0.0001 C   0  0  0  0  0  0  0  0  0  0  0  0
    3.4366    0.0099    0.0002 C   0  0  0  0  0  0  0  0  0  0  0  0
  1  7  2  0
  1 16  1  0
  2  3  2  0
  2  4  1  0
  2  5  1  0
  3  6  1  0
  3  7  1  0
  4  8  2  0
  4 12  1  0
  5 10  1  0
  5 13  2  0
  6  9  2  0
  6 14  1  0
  7 11  1  0
  8  9  1  0
 10 11  2  0
 12 15  2  0
 13 15  1  0
 14 16  2  0
M  END
>  <PUBCHEM_COMPOUND_CID>  (1) 
9408

>  <PUBCHEM_CONFORMER_RMSD>  (1) 
0.4

>  <PUBCHEM_CONFORMER_DIVERSEORDER>  (1) 
1

>  <PUBCHEM_MMFF94_PARTIAL_CHARGES>  (1) 
20
1 -0.62
10 -0.15
11 -0.15
12 -0.15
13 -0.15
14 -0.15
15 -0.15
16 0.16
17 0.15
18 0.15
19 0.15
20 0.15
21 0.15
22 0.15
23 0.15
24 0.15
25 0.15
7 0.31
8 -0.15
9 -0.15

>  <PUBCHEM_EFFECTIVE_ROTOR_COUNT>  (1) 
0

>  <PUBCHEM_PHARMACOPHORE_FEATURES>  (1) 
5
1 1 acceptor
6 1 3 6 7 14 16 rings
6 2 3 4 6 8 9 rings
6 2 3 5 7 10 11 rings
6 2 4 5 12 13 15 rings

>  <PUBCHEM_HEAVY_ATOM_COUNT>  (1) 
16

>  <PUBCHEM_ATOM_DEF_STEREO_COUNT>  (1) 
0

>  <PUBCHEM_ATOM_UDEF_STEREO_COUNT>  (1) 
0

>  <PUBCHEM_BOND_DEF_STEREO_COUNT>  (1) 
0

>  <PUBCHEM_BOND_UDEF_STEREO_COUNT>  (1) 
0

>  <PUBCHEM_ISOTOPIC_ATOM_COUNT>  (1) 
0

>  <PUBCHEM_COMPONENT_COUNT>  (1) 
1

>  <PUBCHEM_CACTVS_TAUTO_COUNT>  (1) 
1

>  <PUBCHEM_CONFORMER_ID>  (1) 
000024C000000001

>  <PUBCHEM_MMFF94_ENERGY>  (1) 
55.4597

>  <PUBCHEM_FEATURE_SELFOVERLAP>  (1) 
25.511

>  <PUBCHEM_SHAPE_FINGERPRINT>  (1) 
10967382 1 18410575093290047207
11132069 177 18412537695886509144
11471102 20 18410288104092228389
12382932 28 18411980230458605809
13140716 1 18410855417189045299
13380535 76 18410571786139141355
13897977 150 18338514136577563173
14614273 12 18044089060243634861
14790565 3 18266762258022549548
15196674 1 18410855455833200999
15536298 74 18344145886737871398
16945 1 18410855447311883655
193761 8 17762055840726329639
19591789 44 18410860957702735567
20510252 161 18272368633705529400
20588541 1 18410577279396648437
20905425 154 18053101718407220126
21267235 1 18410865351454039011
21501502 16 18410575084673628423
22721475 48 18410859845310993441
2334 1 18410575114738405987
23402539 116 18342444942191907334
23419403 2 16041600445723346315
23463225 33 18408039593875280138
23559900 14 18270689783431314436
238 59 17757224333689858941
2748010 2 18410573998041634375
2897 32 18337111172314186564
335352 9 18050568443431824759
528886 8 18411414012061497922
53812653 166 18341891900464131312
589210 1 17762337319982170371
8809292 202 18261398840275222155

>  <PUBCHEM_SHAPE_MULTIPOLES>  (1) 
324.29
4.72
2.82
0.61
0.03
0.03
0
-0.05
0
-0.03
0
0.01
-0.01
0

>  <PUBCHEM_SHAPE_SELFOVERLAP>  (1) 
761.365

>  <PUBCHEM_SHAPE_VOLUME>  (1) 
162.6

>  <PUBCHEM_COORDINATE_TYPE>  (1) 
2
5
10

$$$$
