9412
     RDKit          3D

 13 13  0  0  0  0  0  0  0  0999 V2000
    2.4626   -2.3268   -0.0016 Br  0  0  0  0  0  0  0  0  0  0  0  0
   -0.5390   -2.0791    0.0075 O   0  0  0  0  0  0  0  0  0  0  0  0
   -0.9446    2.5629    0.0048 O   0  0  0  0  0  0  0  0  0  0  0  0
   -0.8117    0.2331    0.0005 N   0  0  0  0  0  0  0  0  0  0  0  0
    1.1136    1.5809    0.0003 N   0  0  0  0  0  0  0  0  0  0  0  0
   -2.2651    0.1069   -0.0030 C   0  0  0  0  0  0  0  0  0  0  0  0
   -2.7370   -0.6132    1.2535 C   0  0  0  0  0  0  0  0  0  0  0  0
   -2.7364   -0.6117   -1.2612 C   0  0  0  0  0  0  0  0  0  0  0  0
   -0.0553   -0.9471    0.0025 C   0  0  0  0  0  0  0  0  0  0  0  0
   -0.2675    1.5317    0.0015 C   0  0  0  0  0  0  0  0  0  0  0  0
    1.9423    0.4841   -0.0012 C   0  0  0  0  0  0  0  0  0  0  0  0
    1.4331   -0.7602   -0.0002 C   0  0  0  0  0  0  0  0  0  0  0  0
    3.4051    0.8386   -0.0034 C   0  0  0  0  0  0  0  0  0  0  0  0
  1 12  1  0
  2  9  2  0
  3 10  2  0
  4  6  1  0
  4  9  1  0
  4 10  1  0
  5 10  1  0
  5 11  1  0
  6  7  1  0
  6  8  1  0
  9 12  1  0
 11 12  2  0
 11 13  1  0
M  END
>  <PUBCHEM_COMPOUND_CID>  (1) 
9412

>  <PUBCHEM_CONFORMER_RMSD>  (1) 
0.4

>  <PUBCHEM_CONFORMER_DIVERSEORDER>  (1) 
1
2
3
4

>  <PUBCHEM_MMFF94_PARTIAL_CHARGES>  (1) 
12
1 -0.11
10 0.69
11 -0.03
12 0.12
13 0.14
2 -0.57
21 0.37
3 -0.57
4 -0.42
5 -0.54
6 0.3
9 0.62

>  <PUBCHEM_EFFECTIVE_ROTOR_COUNT>  (1) 
1

>  <PUBCHEM_PHARMACOPHORE_FEATURES>  (1) 
6
1 1 hydrophobe
1 2 acceptor
1 3 acceptor
1 5 donor
3 6 7 8 hydrophobe
6 4 5 9 10 11 12 rings

>  <PUBCHEM_HEAVY_ATOM_COUNT>  (1) 
13

>  <PUBCHEM_ATOM_DEF_STEREO_COUNT>  (1) 
0

>  <PUBCHEM_ATOM_UDEF_STEREO_COUNT>  (1) 
0

>  <PUBCHEM_BOND_DEF_STEREO_COUNT>  (1) 
0

>  <PUBCHEM_BOND_UDEF_STEREO_COUNT>  (1) 
0

>  <PUBCHEM_ISOTOPIC_ATOM_COUNT>  (1) 
0

>  <PUBCHEM_COMPONENT_COUNT>  (1) 
1

>  <PUBCHEM_CACTVS_TAUTO_COUNT>  (1) 
3

>  <PUBCHEM_CONFORMER_ID>  (1) 
000024C400000001

>  <PUBCHEM_MMFF94_ENERGY>  (1) 
26.5382

>  <PUBCHEM_FEATURE_SELFOVERLAP>  (1) 
30.446

>  <PUBCHEM_SHAPE_FINGERPRINT>  (1) 
11206711 2 18192716631186578174
12423570 1 10932742813141653114
12524768 44 18411983580691657358
12932764 1 17917710192977281752
13140716 1 18122908900100922480
13380535 76 18337664321648480802
14617773 55 17988079972178903689
15775835 57 18131355206422356417
161256 15 18340781342539185486
16945 1 18410574028354461604
17844478 74 17967541202588699817
193761 8 18122626054876624160
20201158 50 18334008427831145443
20588541 1 18337675320790297746
20645477 70 18339634556206811511
21501502 16 18267584602883631948
2334 1 18338517422275095264
23419403 2 16458747246103761408
23552423 10 18190462658230139030
23559900 14 17550106958109151102
241688 4 18121218680024687200
2748010 2 18266175024629140940
5084963 1 17987507126631550594
528886 8 18340201994015467307
63268167 104 18341888610714348187

>  <PUBCHEM_SHAPE_MULTIPOLES>  (1) 
251.78
4.5
2.4
0.86
0.58
0.18
0
-0.85
-0.01
0.9
0
-0.68
-0.22
0

>  <PUBCHEM_SHAPE_SELFOVERLAP>  (1) 
500.217

>  <PUBCHEM_SHAPE_VOLUME>  (1) 
152.9

>  <PUBCHEM_COORDINATE_TYPE>  (1) 
2
5
10

$$$$
