9422
     RDKit          3D

 19 22  0  0  0  0  0  0  0  0999 V2000
    0.3222    0.2804    0.0001 C   0  0  0  0  0  0  0  0  0  0  0  0
   -0.0621   -1.0830    0.0002 C   0  0  0  0  0  0  0  0  0  0  0  0
    1.7236    0.6154    0.0000 C   0  0  0  0  0  0  0  0  0  0  0  0
    0.9143   -2.0828    0.0002 C   0  0  0  0  0  0  0  0  0  0  0  0
    2.6856   -0.4283    0.0002 C   0  0  0  0  0  0  0  0  0  0  0  0
   -0.7257    1.2366    0.0001 C   0  0  0  0  0  0  0  0  0  0  0  0
   -2.0876    0.8795    0.0000 C   0  0  0  0  0  0  0  0  0  0  0  0
   -2.4391   -0.4824   -0.0002 C   0  0  0  0  0  0  0  0  0  0  0  0
   -1.4206   -1.4448    0.0000 C   0  0  0  0  0  0  0  0  0  0  0  0
    2.2673   -1.7608    0.0002 C   0  0  0  0  0  0  0  0  0  0  0  0
    2.2260    1.9412   -0.0004 C   0  0  0  0  0  0  0  0  0  0  0  0
    0.5722   -3.5425   -0.0004 C   0  0  0  0  0  0  0  0  0  0  0  0
    4.0602   -0.1356    0.0001 C   0  0  0  0  0  0  0  0  0  0  0  0
   -3.1048    1.8497    0.0000 C   0  0  0  0  0  0  0  0  0  0  0  0
   -3.7967   -0.8457   -0.0002 C   0  0  0  0  0  0  0  0  0  0  0  0
    3.5957    2.2188   -0.0002 C   0  0  0  0  0  0  0  0  0  0  0  0
    4.5132    1.1798   -0.0001 C   0  0  0  0  0  0  0  0  0  0  0  0
   -4.4488    1.4758    0.0002 C   0  0  0  0  0  0  0  0  0  0  0  0
   -4.7948    0.1286    0.0000 C   0  0  0  0  0  0  0  0  0  0  0  0
  1  2  1  0
  1  3  2  0
  1  6  1  0
  2  4  2  0
  2  9  1  0
  3  5  1  0
  3 11  1  0
  4 10  1  0
  4 12  1  0
  5 10  2  0
  5 13  1  0
  6  7  2  0
  7  8  1  0
  7 14  1  0
  8  9  2  0
  8 15  1  0
 11 16  2  0
 13 17  2  0
 14 18  2  0
 15 19  2  0
 16 17  1  0
 18 19  1  0
M  END
>  <PUBCHEM_COMPOUND_CID>  (1) 
9422

>  <PUBCHEM_CONFORMER_RMSD>  (1) 
0.4

>  <PUBCHEM_CONFORMER_DIVERSEORDER>  (1) 
1

>  <PUBCHEM_MMFF94_PARTIAL_CHARGES>  (1) 
24
10 -0.15
11 -0.15
12 0.14
13 -0.15
14 -0.15
15 -0.15
16 -0.15
17 -0.15
18 -0.15
19 -0.15
20 0.15
21 0.15
22 0.15
23 0.15
27 0.15
28 0.15
29 0.15
30 0.15
31 0.15
32 0.15
33 0.15
4 -0.14
6 -0.15
9 -0.15

>  <PUBCHEM_EFFECTIVE_ROTOR_COUNT>  (1) 
0

>  <PUBCHEM_PHARMACOPHORE_FEATURES>  (1) 
4
6 1 2 3 4 5 10 rings
6 1 2 6 7 8 9 rings
6 3 5 11 13 16 17 rings
6 7 8 14 15 18 19 rings

>  <PUBCHEM_HEAVY_ATOM_COUNT>  (1) 
19

>  <PUBCHEM_ATOM_DEF_STEREO_COUNT>  (1) 
0

>  <PUBCHEM_ATOM_UDEF_STEREO_COUNT>  (1) 
0

>  <PUBCHEM_BOND_DEF_STEREO_COUNT>  (1) 
0

>  <PUBCHEM_BOND_UDEF_STEREO_COUNT>  (1) 
0

>  <PUBCHEM_ISOTOPIC_ATOM_COUNT>  (1) 
0

>  <PUBCHEM_COMPONENT_COUNT>  (1) 
1

>  <PUBCHEM_CACTVS_TAUTO_COUNT>  (1) 
1

>  <PUBCHEM_CONFORMER_ID>  (1) 
000024CE00000001

>  <PUBCHEM_MMFF94_ENERGY>  (1) 
68.9753

>  <PUBCHEM_FEATURE_SELFOVERLAP>  (1) 
20.37

>  <PUBCHEM_SHAPE_FINGERPRINT>  (1) 
10411042 1 17402049994429002575
10608611 8 18336263436323153901
10616163 171 18410857698233858663
10693767 8 17986952938760125870
10948715 1 18410575119181261230
10967382 1 18410575054661604870
11370993 70 18410008857649656280
11471102 20 18411134693147807287
12107183 9 17549266930776364553
12173636 292 18267298914327694020
12390115 104 18197798758724911792
12592029 89 18409168792275074906
12644460 14 18262241001762623875
12788726 201 17395288474822613354
13140716 1 18409162212469430370
13380535 76 18408041818468178331
13583140 156 16734085985784951808
138480 1 17834113048270688994
14178342 30 17980470175299895328
14787075 74 18200591526949032915
14790565 3 18337117859985208492
15042514 8 17976261557884011826
15196674 1 18410855460128161797
15375358 24 18260831488370413651
15442244 35 17979919302620196243
15536298 74 18342177726205782934
16945 1 18194683670157208550
18186145 218 18272663332780808576
19591789 44 18339360871941760931
19784866 9 18340767057077052153
200 152 18131628989482021837
20157964 124 18338229346487785789
20510252 161 18270969066903338369
20645477 70 18271806761793927263
21267235 1 18411428297144018135
21421861 104 17899132719854793531
21524375 3 18334293201585410594
221490 88 18337681810423052755
22854114 111 18409167688309976909
23227448 37 18341893051557668823
2334 1 18338799030242759344
23366157 5 18042410123152351306
23402539 116 18271518797063603444
23558518 356 17612868610434465928
23559900 14 18196367026786274330
25 1 18410008832180552366
2748010 2 18337121158276861934
3091708 16 9263339812922085698
335352 9 18410573977358244894
33824 294 18408885113848220218
34934 24 18411695461938350215
350125 39 18409166580831121156
3545911 37 18410014333923161533
394222 165 18260260859073561530
4214541 1 18410573976831009601
4280585 95 17554339012070059174
474 4 18408041814262771329
474229 33 18337672030998622147
4990 188 17988934361739046164
5104073 3 18335985285677238617
543358 83 18197220247978006241
58051976 378 18413387618364379917
6138700 20 18267027159653816982
6333272 397 18410012147673687368
633830 44 18344146981601266988
69090 78 18340203089242670646
7364860 26 18268148660712080702
7808743 9 18049721021316880480
8272917 22 18341335474703208591
9709674 26 18410580556842304359
9981440 41 18336261327262214179

>  <PUBCHEM_SHAPE_MULTIPOLES>  (1) 
391.01
8.56
2.87
0.62
2.96
1.67
0
-4.39
0
-1.18
0
0
0
0

>  <PUBCHEM_SHAPE_SELFOVERLAP>  (1) 
895.829

>  <PUBCHEM_SHAPE_VOLUME>  (1) 
186.6

>  <PUBCHEM_COORDINATE_TYPE>  (1) 
2
5
10

$$$$
