9427
     RDKit          3D

 18 19  0  0  1  0  0  0  0  0999 V2000
    2.6557   -2.3798   -0.4728 F   0  0  0  0  0  0  0  0  0  0  0  0
   -1.4675   -0.5015    1.0566 O   0  0  0  0  0  0  0  0  0  0  0  0
   -1.6482    2.2895   -1.1875 O   0  0  0  0  0  0  0  0  0  0  0  0
   -3.7318    1.2978    0.2663 O   0  0  0  0  0  0  0  0  0  0  0  0
   -2.1036   -3.1579    0.4191 O   0  0  0  0  0  0  0  0  0  0  0  0
    1.1336    2.6870    0.6479 O   0  0  0  0  0  0  0  0  0  0  0  0
    4.4700   -0.3643   -0.2788 O   0  0  0  0  0  0  0  0  0  0  0  0
    0.5210    0.4593    0.2901 N   0  0  0  0  0  0  0  0  0  0  0  0
    2.7937    1.1677    0.1875 N   0  0  0  0  0  0  0  0  0  0  0  0
   -1.6145    0.9228   -0.8315 C   0  0  0  0  0  0  0  0  0  0  0  0
   -2.9928    0.3728   -0.5309 C   0  0  0  0  0  0  0  0  0  0  0  0
   -0.8850    0.6778    0.4782 C   0  0  0  0  0  0  0  0  0  0  0  0
   -2.6713   -0.8389    0.3332 C   0  0  0  0  0  0  0  0  0  0  0  0
   -2.4007   -2.1004   -0.4758 C   0  0  0  0  0  0  0  0  0  0  0  0
    1.4514    1.5229    0.3947 C   0  0  0  0  0  0  0  0  0  0  0  0
    0.9609   -0.8273   -0.0004 C   0  0  0  0  0  0  0  0  0  0  0  0
    2.2431   -1.1304   -0.1917 C   0  0  0  0  0  0  0  0  0  0  0  0
    3.2860   -0.0971   -0.1041 C   0  0  0  0  0  0  0  0  0  0  0  0
  1 17  1  0
  2 12  1  0
  2 13  1  0
  3 10  1  0
  4 11  1  0
  5 14  1  0
  6 15  2  0
  7 18  2  0
  8 12  1  0
  8 15  1  0
  8 16  1  0
  9 15  1  0
  9 18  1  0
 10 11  1  0
 10 12  1  0
 11 13  1  0
 13 14  1  0
 16 17  2  0
 17 18  1  0
M  END
>  <PUBCHEM_COMPOUND_CID>  (1) 
9427

>  <PUBCHEM_CONFORMER_RMSD>  (1) 
0.6

>  <PUBCHEM_CONFORMER_DIVERSEORDER>  (1) 
1
9
15
8
13
12
7
3
10
4
14
5
11
6
2

>  <PUBCHEM_MMFF94_PARTIAL_CHARGES>  (1) 
23
1 -0.15
10 0.28
11 0.28
12 0.58
13 0.28
14 0.28
15 0.69
16 -0.04
17 0.16
18 0.62
2 -0.56
25 0.4
26 0.4
27 0.15
28 0.37
29 0.4
3 -0.68
4 -0.68
5 -0.68
6 -0.57
7 -0.57
8 -0.47
9 -0.49

>  <PUBCHEM_EFFECTIVE_ROTOR_COUNT>  (1) 
3

>  <PUBCHEM_PHARMACOPHORE_FEATURES>  (1) 
12
1 2 acceptor
1 3 acceptor
1 3 donor
1 4 acceptor
1 4 donor
1 5 acceptor
1 5 donor
1 6 acceptor
1 7 acceptor
1 9 donor
5 2 10 11 12 13 rings
6 8 9 15 16 17 18 rings

>  <PUBCHEM_HEAVY_ATOM_COUNT>  (1) 
18

>  <PUBCHEM_ATOM_DEF_STEREO_COUNT>  (1) 
4

>  <PUBCHEM_ATOM_UDEF_STEREO_COUNT>  (1) 
0

>  <PUBCHEM_BOND_DEF_STEREO_COUNT>  (1) 
0

>  <PUBCHEM_BOND_UDEF_STEREO_COUNT>  (1) 
0

>  <PUBCHEM_ISOTOPIC_ATOM_COUNT>  (1) 
0

>  <PUBCHEM_COMPONENT_COUNT>  (1) 
1

>  <PUBCHEM_CACTVS_TAUTO_COUNT>  (1) 
3

>  <PUBCHEM_CONFORMER_ID>  (1) 
000024D300000001

>  <PUBCHEM_MMFF94_ENERGY>  (1) 
46.7416

>  <PUBCHEM_FEATURE_SELFOVERLAP>  (1) 
60.916

>  <PUBCHEM_SHAPE_FINGERPRINT>  (1) 
10608611 8 18410568521964009441
10967382 1 18339924805432098058
11132069 177 18412259571263903242
12500047 106 18409163294748350343
12932764 1 17894900828475038169
12969540 114 17896577550212698749
13380535 21 18410860987972702285
14115302 16 18335431148627735364
15219456 202 18338795718643801617
15375462 6 18122060063922768692
16945 1 18336530656145127521
17834074 16 18411419544058554735
19107657 46 18412826893362364334
200 152 17846211159299009540
20201158 50 18411136913820005034
21501502 16 18337109080702108049
221490 88 18267308823118133810
22721475 48 18410015454729972392
22802520 49 18335699494184652129
2334 1 17978225285613588267
23402539 116 17385437731026394572
23559900 14 18269545199282298593
238 59 16164640916747247093
2748010 2 18049716613999192577
2871803 45 18193266614676417719
3312278 4 18342742914069202650
34934 24 18340482283950612250
5493415 88 18341893043236538506
69090 78 18409443657703058103
74978 22 18341894103935373929
81228 2 18042681883424189329
8809292 202 18408605880965835362
93112 12 18411979182644899397
9709674 26 18341896315749079591

>  <PUBCHEM_SHAPE_MULTIPOLES>  (1) 
317.98
6.17
2.71
0.84
2.68
0.73
0.05
1.07
0.52
-0.82
0.05
-0.31
-0.16
0.7

>  <PUBCHEM_SHAPE_SELFOVERLAP>  (1) 
673.652

>  <PUBCHEM_SHAPE_VOLUME>  (1) 
178.3

>  <PUBCHEM_COORDINATE_TYPE>  (1) 
2
5
10

$$$$
