9431
     RDKit          3D

 20 22  0  0  0  0  0  0  0  0999 V2000
   -1.1390   -0.2405   -0.7922 N   0  0  0  0  0  0  0  0  0  0  0  0
    2.8192    0.4554    0.4101 N   0  0  0  0  0  0  0  0  0  0  0  0
    1.0456   -1.0866   -0.1556 C   0  0  0  0  0  0  0  0  0  0  0  0
    0.5237   -2.4913   -0.2830 C   0  0  0  0  0  0  0  0  0  0  0  0
    1.6323   -3.5419   -0.3335 C   0  0  0  0  0  0  0  0  0  0  0  0
    2.6742   -3.2724    0.7458 C   0  0  0  0  0  0  0  0  0  0  0  0
    3.3344   -1.9146    0.5162 C   0  0  0  0  0  0  0  0  0  0  0  0
    2.3450   -0.8082    0.2613 C   0  0  0  0  0  0  0  0  0  0  0  0
    0.2031   -0.0011   -0.3957 C   0  0  0  0  0  0  0  0  0  0  0  0
    0.6677    1.3109   -0.2422 C   0  0  0  0  0  0  0  0  0  0  0  0
    2.0013    1.4956    0.1670 C   0  0  0  0  0  0  0  0  0  0  0  0
   -1.7933   -1.4872   -0.5724 C   0  0  0  0  0  0  0  0  0  0  0  0
   -3.3070   -1.3328   -0.6943 C   0  0  0  0  0  0  0  0  0  0  0  0
   -3.8891   -0.3726    0.3477 C   0  0  0  0  0  0  0  0  0  0  0  0
   -0.1610    2.4201   -0.4844 C   0  0  0  0  0  0  0  0  0  0  0  0
    2.4663    2.7991    0.3188 C   0  0  0  0  0  0  0  0  0  0  0  0
   -5.4033   -0.2341    0.1882 C   0  0  0  0  0  0  0  0  0  0  0  0
    0.3283    3.7133   -0.3244 C   0  0  0  0  0  0  0  0  0  0  0  0
    1.6445    3.9027    0.0774 C   0  0  0  0  0  0  0  0  0  0  0  0
   -5.9931    0.6862    1.2451 C   0  0  0  0  0  0  0  0  0  0  0  0
  1  9  1  0
  1 12  1  0
  2  8  2  0
  2 11  1  0
  3  4  1  0
  3  8  1  0
  3  9  2  0
  4  5  1  0
  5  6  1  0
  6  7  1  0
  7  8  1  0
  9 10  1  0
 10 11  2  0
 10 15  1  0
 11 16  1  0
 12 13  1  0
 13 14  1  0
 14 17  1  0
 15 18  2  0
 16 19  2  0
 17 20  1  0
 18 19  1  0
M  END
>  <PUBCHEM_COMPOUND_CID>  (1) 
9431

>  <PUBCHEM_CONFORMER_RMSD>  (1) 
0.8

>  <PUBCHEM_CONFORMER_DIVERSEORDER>  (1) 
1
11
10
6
4
7
2
3
8
9
5

>  <PUBCHEM_MMFF94_PARTIAL_CHARGES>  (1) 
18
1 -0.87
11 0.31
12 0.37
15 -0.15
16 -0.15
18 -0.15
19 -0.15
2 -0.62
29 0.4
3 -0.14
36 0.15
37 0.15
4 0.14
40 0.15
41 0.15
7 0.14
8 0.17
9 0.1

>  <PUBCHEM_EFFECTIVE_ROTOR_COUNT>  (1) 
5.8

>  <PUBCHEM_PHARMACOPHORE_FEATURES>  (1) 
7
1 1 cation
1 1 donor
1 2 acceptor
1 20 hydrophobe
6 10 11 15 16 18 19 rings
6 2 3 8 9 10 11 rings
6 3 4 5 6 7 8 rings

>  <PUBCHEM_HEAVY_ATOM_COUNT>  (1) 
20

>  <PUBCHEM_ATOM_DEF_STEREO_COUNT>  (1) 
0

>  <PUBCHEM_ATOM_UDEF_STEREO_COUNT>  (1) 
0

>  <PUBCHEM_BOND_DEF_STEREO_COUNT>  (1) 
0

>  <PUBCHEM_BOND_UDEF_STEREO_COUNT>  (1) 
0

>  <PUBCHEM_ISOTOPIC_ATOM_COUNT>  (1) 
0

>  <PUBCHEM_COMPONENT_COUNT>  (1) 
1

>  <PUBCHEM_CACTVS_TAUTO_COUNT>  (1) 
4

>  <PUBCHEM_CONFORMER_ID>  (1) 
000024D700000001

>  <PUBCHEM_MMFF94_ENERGY>  (1) 
74.3795

>  <PUBCHEM_FEATURE_SELFOVERLAP>  (1) 
35.576

>  <PUBCHEM_SHAPE_FINGERPRINT>  (1) 
10411042 1 18194679272169492838
10465860 228 18267868457240758037
10688039 33 17969788479997157437
10967382 1 18337941407162950526
1100329 8 18194112148145377282
12107183 9 18269278950892820563
12553582 1 18339069389844608414
12633257 1 18041825329126833107
12788726 201 17901392194960542674
13052359 8 17110998245263516166
13140716 1 18192984048988568850
13785724 45 17982747272719367159
138480 1 18410289185885884212
13878862 14 18263063489034068701
14178342 30 17909809265602687914
14790565 3 18192435392597397900
15042514 8 17689432681179421266
15081414 286 18340488872166758671
15420108 30 18130211770248888534
15475509 8 17986980499516855668
15664445 248 18199767894034982302
15885798 251 18265053522848203467
16945 1 18121477301775710964
18785283 64 18334861674940640523
19591789 44 18265046024056629972
20157964 124 18339074991425681895
20739085 24 18261673778359512228
21041028 32 18192988223290709007
21478907 32 17977100154696308923
21665062 11 18411141329241577155
2255824 54 18339359785251770678
2334 1 18339060611421474468
23598291 2 17987222503649605983
238 59 17398893626967139374
2748010 2 18124003803534549772
3091708 16 9502827764850979506
3421961 26 18409167684368450731
352729 6 16895383487060709806
474 4 18267301118015116699
5283268 108 18266742368091675403
54173680 148 17689709766941947102
5939293 188 18411697703384264742
633830 44 18127977622798009789
6443956 14 18336265635203867751
79837 15 17617089652114882145
81228 2 17689970381225493388
8272917 22 18412268363056806671
84936 182 17984980659601689537
9981440 41 17906165510317869649

>  <PUBCHEM_SHAPE_MULTIPOLES>  (1) 
401.63
7.92
5.04
0.86
17.77
2.36
-0.07
-1.74
-3.08
-5.57
0.09
0.45
-0.1
-0.68

>  <PUBCHEM_SHAPE_SELFOVERLAP>  (1) 
854.199

>  <PUBCHEM_SHAPE_VOLUME>  (1) 
222.4

>  <PUBCHEM_COORDINATE_TYPE>  (1) 
2
5
10

$$$$
