9432
     RDKit          3D

 16 18  0  0  0  0  0  0  0  0999 V2000
    0.7762    1.6173   -0.0311 N   0  0  0  0  0  0  0  0  0  0  0  0
   -2.6718   -1.8143    0.1538 N   0  0  0  0  0  0  0  0  0  0  0  0
    3.9223   -1.1941    0.3399 C   0  0  0  0  0  0  0  0  0  0  0  0
    4.1741    0.0934   -0.4360 C   0  0  0  0  0  0  0  0  0  0  0  0
    2.5350   -1.7499    0.0206 C   0  0  0  0  0  0  0  0  0  0  0  0
    3.1607    1.1618   -0.0316 C   0  0  0  0  0  0  0  0  0  0  0  0
    1.4577   -0.7008    0.0471 C   0  0  0  0  0  0  0  0  0  0  0  0
    1.7404    0.6611   -0.0229 C   0  0  0  0  0  0  0  0  0  0  0  0
    0.1145   -1.0758    0.0784 C   0  0  0  0  0  0  0  0  0  0  0  0
   -0.8975   -0.1080    0.0638 C   0  0  0  0  0  0  0  0  0  0  0  0
   -0.5162    1.2455    0.0089 C   0  0  0  0  0  0  0  0  0  0  0  0
   -2.2571   -0.4618    0.1011 C   0  0  0  0  0  0  0  0  0  0  0  0
   -1.5204    2.2097   -0.0042 C   0  0  0  0  0  0  0  0  0  0  0  0
   -3.2417    0.5219    0.0863 C   0  0  0  0  0  0  0  0  0  0  0  0
   -2.8722    1.8599    0.0340 C   0  0  0  0  0  0  0  0  0  0  0  0
   -3.9038   -2.2660   -0.4081 C   0  0  0  0  0  0  0  0  0  0  0  0
  1  8  2  0
  1 11  1  0
  2 12  1  0
  2 16  1  0
  3  4  1  0
  3  5  1  0
  4  6  1  0
  5  7  1  0
  6  8  1  0
  7  8  1  0
  7  9  2  0
  9 10  1  0
 10 11  2  0
 10 12  1  0
 11 13  1  0
 12 14  2  0
 13 15  2  0
 14 15  1  0
M  END
>  <PUBCHEM_COMPOUND_CID>  (1) 
9432

>  <PUBCHEM_CONFORMER_RMSD>  (1) 
0.6

>  <PUBCHEM_CONFORMER_DIVERSEORDER>  (1) 
1
2

>  <PUBCHEM_MMFF94_PARTIAL_CHARGES>  (1) 
18
1 -0.62
11 0.31
12 0.1
13 -0.15
14 -0.15
15 -0.15
16 0.37
2 -0.87
25 0.15
26 0.15
27 0.15
28 0.15
29 0.4
5 0.14
6 0.14
7 -0.14
8 0.17
9 -0.15

>  <PUBCHEM_EFFECTIVE_ROTOR_COUNT>  (1) 
1.8

>  <PUBCHEM_PHARMACOPHORE_FEATURES>  (1) 
6
1 1 acceptor
1 2 cation
1 2 donor
6 1 7 8 9 10 11 rings
6 10 11 12 13 14 15 rings
6 3 4 5 6 7 8 rings

>  <PUBCHEM_HEAVY_ATOM_COUNT>  (1) 
16

>  <PUBCHEM_ATOM_DEF_STEREO_COUNT>  (1) 
0

>  <PUBCHEM_ATOM_UDEF_STEREO_COUNT>  (1) 
0

>  <PUBCHEM_BOND_DEF_STEREO_COUNT>  (1) 
0

>  <PUBCHEM_BOND_UDEF_STEREO_COUNT>  (1) 
0

>  <PUBCHEM_ISOTOPIC_ATOM_COUNT>  (1) 
0

>  <PUBCHEM_COMPONENT_COUNT>  (1) 
1

>  <PUBCHEM_CACTVS_TAUTO_COUNT>  (1) 
2

>  <PUBCHEM_CONFORMER_ID>  (1) 
000024D800000001

>  <PUBCHEM_MMFF94_ENERGY>  (1) 
53.3546

>  <PUBCHEM_FEATURE_SELFOVERLAP>  (1) 
30.501

>  <PUBCHEM_SHAPE_FINGERPRINT>  (1) 
10062212 137 18335133155370340930
10608611 8 18410853231372918808
10616163 171 18412546491927309998
10967382 1 18266178327168711170
11132069 177 18338231574979446984
11578080 2 17416948699391966081
11769659 78 18409164419966556162
11806522 49 18337106885979192070
12032990 46 18339928215636092078
12251169 10 18338518521438524576
12500047 106 18265608784520137981
12553582 1 18196927988523583863
13140716 1 18411698746939491992
13296908 3 18412826880429840182
13380535 76 18268990878065601567
13760787 19 18261680281298070822
14144814 61 18337955588939292072
14325111 11 18409731738128733200
14576447 43 18054219101536580071
14790565 3 16027633564929094073
14965852 173 18411136913761976315
15196674 1 18410575085216940870
15442244 35 18192992613126963722
15536298 74 18341331111480574912
16945 1 18195248814854807337
17492 89 18410011013961609658
17804303 29 18341335496114897320
18186145 218 17822011956771129814
19422 9 18408044009223038206
200 152 18272362118535254463
20281475 54 18409166584851664890
20510252 161 18343585174161913304
20871998 184 18202283602287733431
21267235 1 18410020926545051562
21501502 16 18408887321645844712
221490 88 18410018745239540554
2334 1 18410013255701403154
23402539 116 18335976523975797398
23463225 33 18335703793578855532
23557571 272 18201450176410072302
23559900 14 18198056972638684646
2748010 2 18411136926520297173
2871803 45 18336259145445207319
3312278 4 18412547591359433176
335352 9 18049724022981302364
34934 24 18335977562930433145
5104073 3 18411417302449500632
57096353 35 18261961850706072662
633830 44 16588597404912854092
69090 78 18338232640247504185
7364860 26 18268711791291726152
8809292 202 18334861605994421115
9709674 26 18270964518554356670

>  <PUBCHEM_SHAPE_MULTIPOLES>  (1) 
319.31
7.23
2.4
0.64
2.29
0.15
0.01
2.2
0.37
-1.77
0.07
0.04
0.03
-0.34

>  <PUBCHEM_SHAPE_SELFOVERLAP>  (1) 
698.286

>  <PUBCHEM_SHAPE_VOLUME>  (1) 
171.3

>  <PUBCHEM_COORDINATE_TYPE>  (1) 
2
5
10

$$$$
