9437
     RDKit          3D

 21 23  0  0  0  0  0  0  0  0999 V2000
   -5.0662    1.2990    0.0007 F   0  0  0  0  0  0  0  0  0  0  0  0
   -5.5531   -0.5268   -1.0888 F   0  0  0  0  0  0  0  0  0  0  0  0
   -5.5559   -0.5234    1.0904 F   0  0  0  0  0  0  0  0  0  0  0  0
    1.6890   -2.6338   -0.0004 O   0  0  0  0  0  0  0  0  0  0  0  0
   -3.1127   -1.6174   -0.0031 O   0  0  0  0  0  0  0  0  0  0  0  0
   -2.6135    0.6860   -0.0001 N   0  0  0  0  0  0  0  0  0  0  0  0
    1.5618    0.8630   -0.0006 C   0  0  0  0  0  0  0  0  0  0  0  0
    0.8803   -0.3664   -0.0001 C   0  0  0  0  0  0  0  0  0  0  0  0
    2.9874    0.6155   -0.0003 C   0  0  0  0  0  0  0  0  0  0  0  0
    3.2145   -0.7717    0.0004 C   0  0  0  0  0  0  0  0  0  0  0  0
    1.8960   -1.4403    0.0006 C   0  0  0  0  0  0  0  0  0  0  0  0
   -0.4960   -0.4699    0.0000 C   0  0  0  0  0  0  0  0  0  0  0  0
    0.8408    2.0439   -0.0012 C   0  0  0  0  0  0  0  0  0  0  0  0
   -1.2183    0.7234   -0.0006 C   0  0  0  0  0  0  0  0  0  0  0  0
    4.0643    1.4842   -0.0002 C   0  0  0  0  0  0  0  0  0  0  0  0
   -0.5576    1.9670   -0.0013 C   0  0  0  0  0  0  0  0  0  0  0  0
    4.4753   -1.3331    0.0011 C   0  0  0  0  0  0  0  0  0  0  0  0
    5.3549    0.9402    0.0005 C   0  0  0  0  0  0  0  0  0  0  0  0
    5.5576   -0.4533    0.0012 C   0  0  0  0  0  0  0  0  0  0  0  0
   -3.4483   -0.4378    0.0007 C   0  0  0  0  0  0  0  0  0  0  0  0
   -4.9003   -0.0483    0.0010 C   0  0  0  0  0  0  0  0  0  0  0  0
  1 21  1  0
  2 21  1  0
  3 21  1  0
  4 11  2  0
  5 20  2  0
  6 14  1  0
  6 20  1  0
  7  8  2  0
  7  9  1  0
  7 13  1  0
  8 11  1  0
  8 12  1  0
  9 10  2  0
  9 15  1  0
 10 11  1  0
 10 17  1  0
 12 14  2  0
 13 16  2  0
 14 16  1  0
 15 18  2  0
 17 19  2  0
 18 19  1  0
 20 21  1  0
M  END
>  <PUBCHEM_COMPOUND_CID>  (1) 
9437

>  <PUBCHEM_CONFORMER_RMSD>  (1) 
0.6

>  <PUBCHEM_CONFORMER_DIVERSEORDER>  (1) 
1
2
3
4

>  <PUBCHEM_MMFF94_PARTIAL_CHARGES>  (1) 
27
1 -0.34
10 0.09
11 0.4
12 -0.15
13 -0.15
14 0.12
15 -0.15
16 -0.15
17 -0.15
18 -0.15
19 -0.15
2 -0.34
20 0.57
21 1.08
22 0.15
23 0.15
24 0.15
25 0.15
26 0.15
27 0.15
28 0.15
29 0.37
3 -0.34
4 -0.57
5 -0.57
6 -0.55
8 0.09

>  <PUBCHEM_EFFECTIVE_ROTOR_COUNT>  (1) 
3

>  <PUBCHEM_PHARMACOPHORE_FEATURES>  (1) 
6
1 4 acceptor
1 5 acceptor
1 6 donor
5 7 8 9 10 11 rings
6 7 8 12 13 14 16 rings
6 9 10 15 17 18 19 rings

>  <PUBCHEM_HEAVY_ATOM_COUNT>  (1) 
21

>  <PUBCHEM_ATOM_DEF_STEREO_COUNT>  (1) 
0

>  <PUBCHEM_ATOM_UDEF_STEREO_COUNT>  (1) 
0

>  <PUBCHEM_BOND_DEF_STEREO_COUNT>  (1) 
0

>  <PUBCHEM_BOND_UDEF_STEREO_COUNT>  (1) 
0

>  <PUBCHEM_ISOTOPIC_ATOM_COUNT>  (1) 
0

>  <PUBCHEM_COMPONENT_COUNT>  (1) 
1

>  <PUBCHEM_CACTVS_TAUTO_COUNT>  (1) 
6

>  <PUBCHEM_CONFORMER_ID>  (1) 
000024DD00000001

>  <PUBCHEM_MMFF94_ENERGY>  (1) 
65.7268

>  <PUBCHEM_FEATURE_SELFOVERLAP>  (1) 
30.615

>  <PUBCHEM_SHAPE_FINGERPRINT>  (1) 
10090160 65 18260544532910107086
10447042 23 18336537253267596494
10906281 52 18263664938219411560
11471102 20 18410290328442253892
11806522 49 18410293601481691980
12107183 9 17550395033610767129
12236239 1 17775286070817108389
12516196 113 18130785676690106289
12596602 18 16988841709086107947
13533116 47 13829864474356005420
13685833 64 18334862740488097603
13862211 1 18411132533027404494
14251764 18 18273218595597267065
14528608 73 18413107286001924788
14790565 3 18411705425856658772
14863182 85 18340216219475159982
15196674 1 18410856576824952998
15375358 24 18260832604914354043
15788980 27 18114181955862080693
17492 89 18122059806800321978
17834072 33 18201998841360289189
19141452 34 18202282536940801575
200 152 18272931618034123217
20028762 73 18272364236076288846
20645477 70 18341049631702819838
21033650 10 15069748457515047886
21267235 1 18411427185164141934
21421861 104 17970343707161667482
21623969 137 18335153006973096379
21641784 216 18041858224355817332
221490 88 18191030207903714939
23402539 116 18342733026859341038
23559900 14 18409726304763073424
239999 70 18342743996912898222
26918003 58 18186522111339941099
2871803 45 18335137562201724846
3004659 81 18260266331014714124
314194 84 18342737425127644811
335352 9 18410855464449529278
33824 294 18408603643609731474
34797466 226 16271932670134855640
34934 24 18410851053755778511
350125 39 18410573986038161652
3545911 37 18410576201834649835
4072396 5 18261943103432333826
4073 2 18041003980845122363
4214541 1 18410855439212884261
42630746 31 18341894087261913350
4340502 62 16660358204163038528
4463277 17 18411700980322797280
465052 167 18343025497332267550
474229 33 18410011048621261762
5104073 3 18338515231620404536
5283173 99 17969212352852502765
542803 24 17385726893493476629
5486654 2 18411422843178864268
59755656 215 18410016499124963638
602551 16 15266765732754326773
7495541 125 14201410412046375221

>  <PUBCHEM_SHAPE_MULTIPOLES>  (1) 
393.63
12.56
1.98
0.67
9.49
0.12
0
1.15
0.01
-0.93
0
0.36
0.03
0

>  <PUBCHEM_SHAPE_SELFOVERLAP>  (1) 
884.18

>  <PUBCHEM_SHAPE_VOLUME>  (1) 
209.2

>  <PUBCHEM_COORDINATE_TYPE>  (1) 
2
5
10

$$$$
