9448
     RDKit          3D

 18 19  0  0  0  0  0  0  0  0999 V2000
    3.1799    2.1302   -0.1811 F   0  0  0  0  0  0  0  0  0  0  0  0
    4.5321   -0.2721    0.2035 N   0  0  0  0  0  0  0  0  0  0  0  0
   -1.0078   -0.1426   -0.5956 N   0  0  0  0  0  0  0  0  0  0  0  0
   -1.5975   -0.0404    0.5059 N   0  0  0  0  0  0  0  0  0  0  0  0
    3.1365   -0.2375    0.0021 C   0  0  0  0  0  0  0  0  0  0  0  0
    2.4871    0.9825   -0.1875 C   0  0  0  0  0  0  0  0  0  0  0  0
    2.4056   -1.4255   -0.0074 C   0  0  0  0  0  0  0  0  0  0  0  0
    0.3829   -0.1740   -0.3949 C   0  0  0  0  0  0  0  0  0  0  0  0
    1.1067    1.0142   -0.3865 C   0  0  0  0  0  0  0  0  0  0  0  0
    1.0254   -1.3937   -0.2063 C   0  0  0  0  0  0  0  0  0  0  0  0
    5.3075   -1.4179   -0.2281 C   0  0  0  0  0  0  0  0  0  0  0  0
    5.2106    0.8437    0.8322 C   0  0  0  0  0  0  0  0  0  0  0  0
   -2.9812   -0.0088    0.3066 C   0  0  0  0  0  0  0  0  0  0  0  0
   -3.7116   -1.1973    0.2973 C   0  0  0  0  0  0  0  0  0  0  0  0
   -3.6312    1.2107    0.1167 C   0  0  0  0  0  0  0  0  0  0  0  0
   -5.0917   -1.1663    0.0978 C   0  0  0  0  0  0  0  0  0  0  0  0
   -5.0115    1.2416   -0.0826 C   0  0  0  0  0  0  0  0  0  0  0  0
   -5.7417    0.0531   -0.0921 C   0  0  0  0  0  0  0  0  0  0  0  0
  1  6  1  0
  2  5  1  0
  2 11  1  0
  2 12  1  0
  3  4  2  0
  3  8  1  0
  4 13  1  0
  5  6  2  0
  5  7  1  0
  6  9  1  0
  7 10  2  0
  8  9  2  0
  8 10  1  0
 13 14  2  0
 13 15  1  0
 14 16  1  0
 15 17  2  0
 16 18  2  0
 17 18  1  0
M  END
>  <PUBCHEM_COMPOUND_CID>  (1) 
9448

>  <PUBCHEM_CONFORMER_RMSD>  (1) 
0.6

>  <PUBCHEM_CONFORMER_DIVERSEORDER>  (1) 
1
5
2
6
3
4

>  <PUBCHEM_MMFF94_PARTIAL_CHARGES>  (1) 
26
1 -0.19
10 -0.15
11 0.37
12 0.37
13 0.18
14 -0.15
15 -0.15
16 -0.15
17 -0.15
18 -0.15
19 0.15
2 -0.84
20 0.15
21 0.15
28 0.15
29 0.15
3 -0.18
30 0.15
31 0.15
32 0.15
4 -0.18
5 0.1
6 0.19
7 -0.15
8 0.18
9 -0.15

>  <PUBCHEM_EFFECTIVE_ROTOR_COUNT>  (1) 
3

>  <PUBCHEM_PHARMACOPHORE_FEATURES>  (1) 
3
1 2 cation
6 13 14 15 16 17 18 rings
6 5 6 7 8 9 10 rings

>  <PUBCHEM_HEAVY_ATOM_COUNT>  (1) 
18

>  <PUBCHEM_ATOM_DEF_STEREO_COUNT>  (1) 
0

>  <PUBCHEM_ATOM_UDEF_STEREO_COUNT>  (1) 
0

>  <PUBCHEM_BOND_DEF_STEREO_COUNT>  (1) 
0

>  <PUBCHEM_BOND_UDEF_STEREO_COUNT>  (1) 
0

>  <PUBCHEM_ISOTOPIC_ATOM_COUNT>  (1) 
0

>  <PUBCHEM_COMPONENT_COUNT>  (1) 
1

>  <PUBCHEM_CACTVS_TAUTO_COUNT>  (1) 
1

>  <PUBCHEM_CONFORMER_ID>  (1) 
000024E800000001

>  <PUBCHEM_MMFF94_ENERGY>  (1) 
62.7421

>  <PUBCHEM_FEATURE_SELFOVERLAP>  (1) 
15.223

>  <PUBCHEM_SHAPE_FINGERPRINT>  (1) 
10366900 7 17240485797010566424
10937287 8 16814352722857965564
12107183 9 17689716359711342489
12236239 1 17917990572811249935
12507557 5 18342176678661316609
128620 24 16559034883095197617
13167823 11 18410291432591980647
13533116 47 16773801355751981862
13675066 3 18273493485761176902
14251764 18 18333726936534252986
14341114 176 18411142428383907411
15196674 1 18410013255912607581
15788980 27 18343584049133591511
17834072 33 18411701006250544967
17844677 252 18342464715894296745
19489759 90 18334574633971027545
200 152 18273213097574741979
20645477 70 18341615875806590390
21267235 1 18410020931209121551
21682296 61 17843976853378433526
21709351 56 18408599266863639693
23402539 116 18408317787929532501
23559900 14 18409725197078157969
26918003 58 18335421279262185971
300161 21 18335977593654626091
3421961 26 18196371421034112518
351380 180 18408603669141905049
3545911 37 18409450263447122829
4073 2 17967821582090606059
42 15 18334297565287877661
4214541 1 18409168788465273853
42788 4 18412825776491376275
4463277 17 18408044005402785772
465052 167 18335423452647961058
5104073 3 18409452505193322345
542803 24 16950567674984455775
59755656 215 18335422313859135759
67856867 119 18336264668905207253
7495541 125 17131547357630827875
77779 3 18410014338618685191
9709674 26 18410020931462783879
9971528 1 17749391493988748204
9999458 23 18040435516786519998

>  <PUBCHEM_SHAPE_MULTIPOLES>  (1) 
348.21
13.84
1.63
0.71
4.12
0.15
-0.03
-0.18
-1.3
-0.61
0.04
-0.16
0.03
0.35

>  <PUBCHEM_SHAPE_SELFOVERLAP>  (1) 
743.367

>  <PUBCHEM_SHAPE_VOLUME>  (1) 
195.5

>  <PUBCHEM_COORDINATE_TYPE>  (1) 
2
5
10

$$$$
