9460
     RDKit          3D

 17 18  0  0  0  0  0  0  0  0999 V2000
    0.5178    1.0710   -0.3387 N   0  0  0  0  0  0  0  0  0  0  0  0
    1.8777    2.4156    1.0580 N   0  0  0  0  0  0  0  0  0  0  0  0
   -0.0122    3.3862    0.1362 N   0  0  0  0  0  0  0  0  0  0  0  0
   -0.5484    0.8019   -1.2697 C   0  0  0  0  0  0  0  0  0  0  0  0
   -1.6827    0.0692   -0.6362 C   0  0  0  0  0  0  0  0  0  0  0  0
    1.4334   -0.0127   -0.1304 C   0  0  0  0  0  0  0  0  0  0  0  0
   -1.6953   -1.3256   -0.6295 C   0  0  0  0  0  0  0  0  0  0  0  0
   -2.7314    0.7788   -0.0509 C   0  0  0  0  0  0  0  0  0  0  0  0
    0.7576    2.3335    0.2614 C   0  0  0  0  0  0  0  0  0  0  0  0
    1.2359   -0.8655    0.9408 C   0  0  0  0  0  0  0  0  0  0  0  0
    2.4918   -0.1787   -1.0056 C   0  0  0  0  0  0  0  0  0  0  0  0
   -2.7562   -2.0106   -0.0374 C   0  0  0  0  0  0  0  0  0  0  0  0
   -3.7922    0.0937    0.5415 C   0  0  0  0  0  0  0  0  0  0  0  0
    2.1268   -1.9195    1.1435 C   0  0  0  0  0  0  0  0  0  0  0  0
    3.3824   -1.2330   -0.8029 C   0  0  0  0  0  0  0  0  0  0  0  0
   -3.8046   -1.3010    0.5483 C   0  0  0  0  0  0  0  0  0  0  0  0
    3.1999   -2.1034    0.2717 C   0  0  0  0  0  0  0  0  0  0  0  0
  1  4  1  0
  1  6  1  0
  1  9  1  0
  2  9  1  0
  3  9  2  0
  4  5  1  0
  5  7  2  0
  5  8  1  0
  6 10  2  0
  6 11  1  0
  7 12  1  0
  8 13  2  0
 10 14  1  0
 11 15  2  0
 12 16  2  0
 13 16  1  0
 14 17  2  0
 15 17  1  0
M  END
>  <PUBCHEM_COMPOUND_CID>  (1) 
9460

>  <PUBCHEM_CONFORMER_RMSD>  (1) 
0.6

>  <PUBCHEM_CONFORMER_DIVERSEORDER>  (1) 
1
8
23
13
11
9
27
28
25
21
26
5
10
18
12
3
15
4
22
16
6
19
20
24
17
7
2
14

>  <PUBCHEM_MMFF94_PARTIAL_CHARGES>  (1) 
30
1 -0.52
10 -0.15
11 -0.15
12 -0.15
13 -0.15
14 -0.15
15 -0.15
16 -0.15
17 -0.15
2 -0.85
20 0.15
21 0.15
22 0.15
23 0.15
24 0.15
25 0.15
26 0.15
27 0.15
28 0.15
29 0.15
3 -0.85
30 0.4
31 0.4
32 0.4
4 0.51
5 -0.14
6 0.1
7 -0.15
8 -0.15
9 0.55

>  <PUBCHEM_EFFECTIVE_ROTOR_COUNT>  (1) 
4

>  <PUBCHEM_PHARMACOPHORE_FEATURES>  (1) 
5
1 2 donor
1 3 donor
4 1 2 3 9 cation
6 5 7 8 12 13 16 rings
6 6 10 11 14 15 17 rings

>  <PUBCHEM_HEAVY_ATOM_COUNT>  (1) 
17

>  <PUBCHEM_ATOM_DEF_STEREO_COUNT>  (1) 
0

>  <PUBCHEM_ATOM_UDEF_STEREO_COUNT>  (1) 
0

>  <PUBCHEM_BOND_DEF_STEREO_COUNT>  (1) 
0

>  <PUBCHEM_BOND_UDEF_STEREO_COUNT>  (1) 
0

>  <PUBCHEM_ISOTOPIC_ATOM_COUNT>  (1) 
0

>  <PUBCHEM_COMPONENT_COUNT>  (1) 
1

>  <PUBCHEM_CACTVS_TAUTO_COUNT>  (1) 
1

>  <PUBCHEM_CONFORMER_ID>  (1) 
000024F400000001

>  <PUBCHEM_MMFF94_ENERGY>  (1) 
68.0317

>  <PUBCHEM_FEATURE_SELFOVERLAP>  (1) 
25.419

>  <PUBCHEM_SHAPE_FINGERPRINT>  (1) 
104564 63 18051413963599741771
11578080 2 17896021209497170900
12506688 2 18335139760929821650
12507560 14 18343863291070095773
12553582 1 18410570643714835447
12714826 92 18042122063990263039
13533116 47 18266184014644973211
13538477 17 17903077729353382460
14178342 30 17980190108882436313
14223421 5 18122060064365795759
14787075 74 18261110824859612066
15375462 189 18260272914598497715
15490181 8 17472698503911398412
15906896 17 17693364547545030164
16752209 62 17904751194350654957
16945 1 18267857294309246631
17804303 29 18409738343999359767
17841504 4 18411138073624620783
18186145 218 11025801938089618142
19422 9 18187375289519216111
19784866 135 18051128095125195530
20291156 8 18334861571550448851
20645477 70 18267857466714990063
21524375 3 17479165818389575760
21731228 192 17477472578993757336
21731516 1 18409157805674995279
22445834 79 18337675333981323615
2255824 54 18191593153440726316
23419403 2 13928261981005603066
23557571 272 17914330179055501282
23598294 1 18051695434513704480
238078 22 18336840692912943062
2748010 2 18337933654298802885
3084891 72 17907287763729236901
31174 14 18337670948798401167
4175511 71 18342747299188860541
5902787 121 18409724045742020874
7097593 13 18269559493413260617
7364860 26 18270120265364543141
74978 22 18341045302707964855
81228 2 17840296723308663552
83771 10 18260270719891308415

>  <PUBCHEM_SHAPE_MULTIPOLES>  (1) 
334.91
6.09
2.96
1.09
2.48
2.08
0.02
-3.85
-0.43
-0.93
-0.73
-0.39
-0.04
0.1

>  <PUBCHEM_SHAPE_SELFOVERLAP>  (1) 
713.799

>  <PUBCHEM_SHAPE_VOLUME>  (1) 
182.6

>  <PUBCHEM_COORDINATE_TYPE>  (1) 
2
5
10

$$$$
