9462
     RDKit          3D

 14 15  0  0  0  0  0  0  0  0999 V2000
   -4.8577   -0.0001    0.0000 F   0  0  0  0  0  0  0  0  0  0  0  0
    4.9183   -0.0001    0.0001 N   0  0  0  0  0  0  0  0  0  0  0  0
    0.7182    0.0000   -0.0001 C   0  0  0  0  0  0  0  0  0  0  0  0
   -0.7285   -0.0001   -0.0002 C   0  0  0  0  0  0  0  0  0  0  0  0
    1.4157    1.1669    0.3126 C   0  0  0  0  0  0  0  0  0  0  0  0
    1.4157   -1.1668   -0.3127 C   0  0  0  0  0  0  0  0  0  0  0  0
   -1.4258    1.1668   -0.3127 C   0  0  0  0  0  0  0  0  0  0  0  0
   -1.4258   -1.1668    0.3125 C   0  0  0  0  0  0  0  0  0  0  0  0
    3.5080   -0.0001    0.0000 C   0  0  0  0  0  0  0  0  0  0  0  0
    2.8106    1.1668    0.3126 C   0  0  0  0  0  0  0  0  0  0  0  0
    2.8106   -1.1668   -0.3126 C   0  0  0  0  0  0  0  0  0  0  0  0
   -2.8207    1.1669   -0.3125 C   0  0  0  0  0  0  0  0  0  0  0  0
   -2.8206   -1.1668    0.3127 C   0  0  0  0  0  0  0  0  0  0  0  0
   -3.5181    0.0001    0.0003 C   0  0  0  0  0  0  0  0  0  0  0  0
  1 14  1  0
  2  9  1  0
  3  4  1  0
  3  5  2  0
  3  6  1  0
  4  7  2  0
  4  8  1  0
  5 10  1  0
  6 11  2  0
  7 12  1  0
  8 13  2  0
  9 10  2  0
  9 11  1  0
 12 14  2  0
 13 14  1  0
M  END
>  <PUBCHEM_COMPOUND_CID>  (1) 
9462

>  <PUBCHEM_CONFORMER_RMSD>  (1) 
0.4

>  <PUBCHEM_CONFORMER_DIVERSEORDER>  (1) 
1
2

>  <PUBCHEM_MMFF94_PARTIAL_CHARGES>  (1) 
22
1 -0.19
10 -0.15
11 -0.15
12 -0.15
13 -0.15
14 0.19
15 0.15
16 0.15
17 0.15
18 0.15
19 0.15
2 -0.9
20 0.15
21 0.15
22 0.15
23 0.4
24 0.4
5 -0.15
6 -0.15
7 -0.15
8 -0.15
9 0.1

>  <PUBCHEM_EFFECTIVE_ROTOR_COUNT>  (1) 
1

>  <PUBCHEM_PHARMACOPHORE_FEATURES>  (1) 
4
1 2 cation
1 2 donor
6 3 5 6 9 10 11 rings
6 4 7 8 12 13 14 rings

>  <PUBCHEM_HEAVY_ATOM_COUNT>  (1) 
14

>  <PUBCHEM_ATOM_DEF_STEREO_COUNT>  (1) 
0

>  <PUBCHEM_ATOM_UDEF_STEREO_COUNT>  (1) 
0

>  <PUBCHEM_BOND_DEF_STEREO_COUNT>  (1) 
0

>  <PUBCHEM_BOND_UDEF_STEREO_COUNT>  (1) 
0

>  <PUBCHEM_ISOTOPIC_ATOM_COUNT>  (1) 
0

>  <PUBCHEM_COMPONENT_COUNT>  (1) 
1

>  <PUBCHEM_CACTVS_TAUTO_COUNT>  (1) 
1

>  <PUBCHEM_CONFORMER_ID>  (1) 
000024F600000001

>  <PUBCHEM_MMFF94_ENERGY>  (1) 
53.0179

>  <PUBCHEM_FEATURE_SELFOVERLAP>  (1) 
20.297

>  <PUBCHEM_SHAPE_FINGERPRINT>  (1) 
10608611 8 18410851062087386656
11132069 177 18336820991507481665
11471102 20 18343300370822755748
11615757 297 17632861948825708016
12032990 46 18410579487009832072
12251169 10 18410855473018338478
13380535 76 18410575084674102630
13581323 91 17967248693513958116
14144814 61 18410856525285326144
14325111 11 18410573976577483725
15219456 202 18412262830722029077
15309172 13 17632863035563476591
15442244 35 18124315999979812122
16945 1 18410856559671438082
17802600 8 18410851066392741060
18175812 5 18338799017146744102
18186145 218 18339082566724663885
18522853 276 18343864411592602776
200 152 17775281668860686951
20201158 50 18413109450407037426
20279233 1 18410860957697110022
20510252 161 18340487755839447161
20528008 55 18411134753625482959
20645477 70 18201439117091331614
21267235 1 18410583885056564034
23402539 116 18410283718883062165
23402655 69 18271238331551971853
23557571 272 17967813808310557124
23559900 14 18338514119777768446
474 4 15865213462381676180
5104073 3 18410573942207053904
53812653 166 18411416207111617514
57812782 119 18410854360621828256
6333449 129 18408882940905835871
69090 78 18342171181134806631
8809292 202 18261678163494403586
9709674 26 18411143540828565927

>  <PUBCHEM_SHAPE_MULTIPOLES>  (1) 
275.86
8
1.42
0.66
0.28
0
0
0
0
-0.03
0
0.01
0
0.46

>  <PUBCHEM_SHAPE_SELFOVERLAP>  (1) 
602.977

>  <PUBCHEM_SHAPE_VOLUME>  (1) 
151.2

>  <PUBCHEM_COORDINATE_TYPE>  (1) 
2
5
10

$$$$
