9463
     RDKit          3D

 14 15  0  0  0  0  0  0  0  0999 V2000
   -5.0369   -0.8079    0.3605 F   0  0  0  0  0  0  0  0  0  0  0  0
   -2.3248   -0.3063    0.3056 O   0  0  0  0  0  0  0  0  0  0  0  0
    1.3262   -0.6112    0.0431 C   0  0  0  0  0  0  0  0  0  0  0  0
    1.6975    0.7542    0.0202 C   0  0  0  0  0  0  0  0  0  0  0  0
   -0.0330   -0.9516    0.1396 C   0  0  0  0  0  0  0  0  0  0  0  0
   -1.0120    0.0399    0.2128 C   0  0  0  0  0  0  0  0  0  0  0  0
    0.6989    1.7390    0.0943 C   0  0  0  0  0  0  0  0  0  0  0  0
   -0.6467    1.3827    0.1899 C   0  0  0  0  0  0  0  0  0  0  0  0
    2.3248   -1.5958   -0.0313 C   0  0  0  0  0  0  0  0  0  0  0  0
    3.0565    1.0948   -0.0765 C   0  0  0  0  0  0  0  0  0  0  0  0
    3.6703   -1.2393   -0.1268 C   0  0  0  0  0  0  0  0  0  0  0  0
    4.0355    0.1035   -0.1492 C   0  0  0  0  0  0  0  0  0  0  0  0
   -3.2755    0.5940   -0.2614 C   0  0  0  0  0  0  0  0  0  0  0  0
   -4.4806   -0.1958   -0.7207 C   0  0  0  0  0  0  0  0  0  0  0  0
  1 14  1  0
  2  6  1  0
  2 13  1  0
  3  4  1  0
  3  5  2  0
  3  9  1  0
  4  7  2  0
  4 10  1  0
  5  6  1  0
  6  8  2  0
  7  8  1  0
  9 11  2  0
 10 12  2  0
 11 12  1  0
 13 14  1  0
M  END
>  <PUBCHEM_COMPOUND_CID>  (1) 
9463

>  <PUBCHEM_CONFORMER_RMSD>  (1) 
0.6

>  <PUBCHEM_CONFORMER_DIVERSEORDER>  (1) 
1
5
12
8
13
11
7
10
3
6
4
9
2

>  <PUBCHEM_MMFF94_PARTIAL_CHARGES>  (1) 
19
1 -0.34
10 -0.15
11 -0.15
12 -0.15
13 0.28
14 0.34
15 0.15
16 0.15
17 0.15
18 0.15
19 0.15
2 -0.36
20 0.15
21 0.15
5 -0.15
6 0.08
7 -0.15
8 -0.15
9 -0.15

>  <PUBCHEM_EFFECTIVE_ROTOR_COUNT>  (1) 
3

>  <PUBCHEM_PHARMACOPHORE_FEATURES>  (1) 
3
1 2 acceptor
6 3 4 5 6 7 8 rings
6 3 4 9 10 11 12 rings

>  <PUBCHEM_HEAVY_ATOM_COUNT>  (1) 
14

>  <PUBCHEM_ATOM_DEF_STEREO_COUNT>  (1) 
0

>  <PUBCHEM_ATOM_UDEF_STEREO_COUNT>  (1) 
0

>  <PUBCHEM_BOND_DEF_STEREO_COUNT>  (1) 
0

>  <PUBCHEM_BOND_UDEF_STEREO_COUNT>  (1) 
0

>  <PUBCHEM_ISOTOPIC_ATOM_COUNT>  (1) 
0

>  <PUBCHEM_COMPONENT_COUNT>  (1) 
1

>  <PUBCHEM_CACTVS_TAUTO_COUNT>  (1) 
1

>  <PUBCHEM_CONFORMER_ID>  (1) 
000024F700000001

>  <PUBCHEM_MMFF94_ENERGY>  (1) 
41.6667

>  <PUBCHEM_FEATURE_SELFOVERLAP>  (1) 
15.249

>  <PUBCHEM_SHAPE_FINGERPRINT>  (1) 
11401426 45 18412537725946102712
11471102 20 18409446994671146500
11806522 49 18411981360077273909
12032990 46 18410858732914340367
13571099 22 18408888438247729332
13690532 89 18411981347176593223
13862211 1 18411695465880370246
14115302 16 17967824867751026190
14251717 144 18412261735584678318
14252887 29 17918000455562731070
14576447 43 18201144568413253671
14911166 2 18408890641882385526
14943859 89 12757156774594421265
14993402 34 18202283610576864078
15196674 1 18410856516727273748
15477762 27 18411418418687342036
16945 1 18337965527831166592
18186145 218 17894627020368235669
200 152 18273211976029141024
20201158 50 18335423447962253010
20279233 1 17967820452492906530
20645477 70 18410856533965444694
21267235 1 18412553089192053966
21501502 16 18195252118101499928
21501925 9 18339072705827795114
221490 88 18192153917688654771
23402539 116 18343013355048122108
23402655 69 18411694362200051237
23559900 14 18261111851246318570
2748010 2 17978237380763915136
2871803 45 18334574607605287118
33824 294 18409446981923719530
5104073 3 18340486673080090001
537710 114 18411985775535957708
581208 293 18412822499763645328
602551 16 15051155909210168709
69090 78 18412541033097567271
7364860 26 18270397312562865792

>  <PUBCHEM_SHAPE_MULTIPOLES>  (1) 
274.97
8.22
1.57
0.67
7.98
0.18
0.03
-2.07
0.92
-0.85
-0.04
0.17
-0.01
0.08

>  <PUBCHEM_SHAPE_SELFOVERLAP>  (1) 
591.57

>  <PUBCHEM_SHAPE_VOLUME>  (1) 
153

>  <PUBCHEM_COORDINATE_TYPE>  (1) 
2
5
10

$$$$
