9468
     RDKit          3D

 19 19  0  0  0  0  0  0  0  0999 V2000
    6.3973    1.1306   -0.6533 F   0  0  0  0  0  0  0  0  0  0  0  0
    0.3873   -0.1474    0.1661 O   0  0  0  0  0  0  0  0  0  0  0  0
    1.2169   -2.1495    0.9422 O   0  0  0  0  0  0  0  0  0  0  0  0
   -3.2907    0.1068    0.2267 N   0  0  0  0  0  0  0  0  0  0  0  0
   -4.2077    1.1862   -0.1441 C   0  0  0  0  0  0  0  0  0  0  0  0
   -3.5904   -1.1037   -0.5286 C   0  0  0  0  0  0  0  0  0  0  0  0
   -1.9038    0.5212    0.0074 C   0  0  0  0  0  0  0  0  0  0  0  0
   -3.8877    2.4496    0.6507 C   0  0  0  0  0  0  0  0  0  0  0  0
   -5.0184   -1.5642   -0.2468 C   0  0  0  0  0  0  0  0  0  0  0  0
   -0.9426   -0.5854    0.4113 C   0  0  0  0  0  0  0  0  0  0  0  0
   -4.8410    3.5814    0.2991 C   0  0  0  0  0  0  0  0  0  0  0  0
   -5.3493   -2.8392   -1.0071 C   0  0  0  0  0  0  0  0  0  0  0  0
    1.3752   -1.0313    0.4777 C   0  0  0  0  0  0  0  0  0  0  0  0
    2.7105   -0.4556    0.1775 C   0  0  0  0  0  0  0  0  0  0  0  0
    3.7924   -0.8486    0.9385 C   0  0  0  0  0  0  0  0  0  0  0  0
    2.8287    0.4534   -0.8541 C   0  0  0  0  0  0  0  0  0  0  0  0
    5.0472   -0.3088    0.6557 C   0  0  0  0  0  0  0  0  0  0  0  0
    4.0835    0.9928   -1.1369 C   0  0  0  0  0  0  0  0  0  0  0  0
    5.1928    0.6118   -0.3820 C   0  0  0  0  0  0  0  0  0  0  0  0
  1 19  1  0
  2 10  1  0
  2 13  1  0
  3 13  2  0
  4  5  1  0
  4  6  1  0
  4  7  1  0
  5  8  1  0
  6  9  1  0
  7 10  1  0
  8 11  1  0
  9 12  1  0
 13 14  1  0
 14 15  2  0
 14 16  1  0
 15 17  1  0
 16 18  2  0
 17 19  2  0
 18 19  1  0
M  END
>  <PUBCHEM_COMPOUND_CID>  (1) 
9468

>  <PUBCHEM_CONFORMER_RMSD>  (1) 
0.8

>  <PUBCHEM_CONFORMER_DIVERSEORDER>  (1) 
1
142
12
197
139
158
207
140
3
90
201
132
63
27
184
206
103
97
56
115
219
125
123
30
10
6
144
129
4
134
178
44
121
99
171
57
154
31
61
170
209
81
47
141
181
98
128
87
13
163
174
96
193
93
60
205
8
15
62
182
7
67
40
168
29
137
91
84
112
172
18
49
74
50
194
9
215
116
73
143
16
46
190
65
66
200
2
21
169
133
106
161
146
77
101
117
107
210
199
23
43
39
164
176
109
213
145
85
180
173
177
151
185
150
55
114
59
110
179
214
17
160
100
82
195
48
147
216
130
54
119
24
36
94
188
69
113
124
189
198
162
126
70
224
111
64
183
222
86
35
153
208
122
83
42
131
156
52
221
159
196
95
71
212
58
75
118
186
34
187
92
220
167
157
223
53
175
41
25
105
72
191
79
165
166
203
33
80
192
68
88
204
45
89
136
217
127
155
211
218
104
102
108
38
148
76
78
120
51
26
5
32
138
202
152
14
19
22
135
149
11
37
28
20

>  <PUBCHEM_MMFF94_PARTIAL_CHARGES>  (1) 
19
1 -0.19
10 0.28
13 0.63
14 0.09
15 -0.15
16 -0.15
17 -0.15
18 -0.15
19 0.19
2 -0.43
3 -0.57
38 0.15
39 0.15
4 -0.81
40 0.15
41 0.15
5 0.27
6 0.27
7 0.27

>  <PUBCHEM_EFFECTIVE_ROTOR_COUNT>  (1) 
9

>  <PUBCHEM_PHARMACOPHORE_FEATURES>  (1) 
5
1 11 hydrophobe
1 12 hydrophobe
1 3 acceptor
1 4 cation
6 14 15 16 17 18 19 rings

>  <PUBCHEM_HEAVY_ATOM_COUNT>  (1) 
19

>  <PUBCHEM_ATOM_DEF_STEREO_COUNT>  (1) 
0

>  <PUBCHEM_ATOM_UDEF_STEREO_COUNT>  (1) 
0

>  <PUBCHEM_BOND_DEF_STEREO_COUNT>  (1) 
0

>  <PUBCHEM_BOND_UDEF_STEREO_COUNT>  (1) 
0

>  <PUBCHEM_ISOTOPIC_ATOM_COUNT>  (1) 
0

>  <PUBCHEM_COMPONENT_COUNT>  (1) 
1

>  <PUBCHEM_CACTVS_TAUTO_COUNT>  (1) 
1

>  <PUBCHEM_CONFORMER_ID>  (1) 
000024FC00000001

>  <PUBCHEM_MMFF94_ENERGY>  (1) 
36.5158

>  <PUBCHEM_FEATURE_SELFOVERLAP>  (1) 
25.371

>  <PUBCHEM_SHAPE_FINGERPRINT>  (1) 
10595046 47 18408884053022985482
10912923 1 18187076239562496362
11056379 131 18343866632607776503
11101153 10 18264772241097866845
12107183 9 17903912254062267739
12236239 1 18335416880946902806
12616971 3 17968096365465915248
12788726 201 18410001166271279515
13073987 5 18408601461592142026
13631057 29 18340763840885441115
14528608 73 18333730247416110838
15778101 99 18341618062245539729
15806764 133 17203601610368634433
17834072 33 18335418001785537551
17844677 252 18272653475820341016
19377110 9 18260830393259300715
19427546 20 18410008845740733213
20300324 65 18410009957741610739
21033650 10 18196398994401613636
21054139 6 18262511606246407054
21065198 48 18334572417214261690
21426921 1 18342173367689534261
21618674 54 18340768139820637319
23081809 10 18186239520299454810
23402539 116 18411134732198190916
23402655 69 18410575046240592276
23557571 272 18131637793695363381
268830 7 17749103348927586200
2916195 48 18272082847008843464
34797466 226 17560806558301629844
4325135 7 18408884074645736239
5104073 3 18040435464824926416
6327066 14 18120369866382582845
633830 44 18188214204064478826
7808743 9 18340205168540170289

>  <PUBCHEM_SHAPE_MULTIPOLES>  (1) 
367.02
15.39
2.86
0.97
4.58
1.31
-0.07
2.55
-2.45
-7.22
0.01
0.58
-0.11
-2.44

>  <PUBCHEM_SHAPE_SELFOVERLAP>  (1) 
734.423

>  <PUBCHEM_SHAPE_VOLUME>  (1) 
218.7

>  <PUBCHEM_COORDINATE_TYPE>  (1) 
2
5
10

$$$$
