9470
     RDKit          3D

 16 17  0  0  1  0  0  0  0  0999 V2000
   -1.0938   -2.1523   -0.5448 O   0  0  0  0  0  0  0  0  0  0  0  0
    1.3313   -0.8531    0.3096 N   0  0  0  0  0  0  0  0  0  0  0  0
    3.7088   -1.0059    0.3220 N   0  0  0  0  0  0  0  0  0  0  0  0
   -1.1443   -1.0441    0.3637 C   0  0  0  0  0  0  0  0  0  0  0  0
    0.0746   -0.1303    0.1273 C   0  0  0  0  0  0  0  0  0  0  0  0
   -2.4357   -0.3215    0.1778 C   0  0  0  0  0  0  0  0  0  0  0  0
   -3.0388    0.3186    1.2606 C   0  0  0  0  0  0  0  0  0  0  0  0
   -3.0402   -0.2852   -1.0788 C   0  0  0  0  0  0  0  0  0  0  0  0
    2.5658   -0.2703    0.1360 C   0  0  0  0  0  0  0  0  0  0  0  0
   -4.2464    0.9946    1.0869 C   0  0  0  0  0  0  0  0  0  0  0  0
   -4.2478    0.3910   -1.2524 C   0  0  0  0  0  0  0  0  0  0  0  0
   -4.8509    1.0309   -0.1695 C   0  0  0  0  0  0  0  0  0  0  0  0
    2.6268    1.0833   -0.2342 C   0  0  0  0  0  0  0  0  0  0  0  0
    3.8668    1.6860   -0.4146 C   0  0  0  0  0  0  0  0  0  0  0  0
    4.8960   -0.3859    0.1376 C   0  0  0  0  0  0  0  0  0  0  0  0
    5.0279    0.9443   -0.2272 C   0  0  0  0  0  0  0  0  0  0  0  0
  1  4  1  0
  2  5  1  0
  2  9  1  0
  3  9  2  0
  3 15  1  0
  4  5  1  0
  4  6  1  0
  6  7  2  0
  6  8  1  0
  7 10  1  0
  8 11  2  0
  9 13  1  0
 10 12  2  0
 11 12  1  0
 13 14  2  0
 14 16  1  0
 15 16  2  0
M  END
>  <PUBCHEM_COMPOUND_CID>  (1) 
9470

>  <PUBCHEM_CONFORMER_RMSD>  (1) 
0.6

>  <PUBCHEM_CONFORMER_DIVERSEORDER>  (1) 
1
52
13
8
20
32
28
14
26
9
45
23
51
42
21
5
33
38
50
43
48
37
31
36
30
6
41
34
22
2
15
35
47
29
49
17
18
27
7
11
39
3
19
25
40
24
46
12
53
56
10
16
44
54
4
55

>  <PUBCHEM_MMFF94_PARTIAL_CHARGES>  (1) 
27
1 -0.68
10 -0.15
11 -0.15
12 -0.15
13 -0.15
14 -0.15
15 0.16
16 -0.15
2 -0.87
20 0.4
21 0.15
22 0.15
23 0.4
24 0.15
25 0.15
26 0.15
27 0.15
28 0.15
29 0.15
3 -0.62
30 0.15
4 0.42
5 0.37
6 -0.14
7 -0.15
8 -0.15
9 0.41

>  <PUBCHEM_EFFECTIVE_ROTOR_COUNT>  (1) 
4

>  <PUBCHEM_PHARMACOPHORE_FEATURES>  (1) 
7
1 1 acceptor
1 1 donor
1 2 cation
1 2 donor
1 3 acceptor
6 3 9 13 14 15 16 rings
6 6 7 8 10 11 12 rings

>  <PUBCHEM_HEAVY_ATOM_COUNT>  (1) 
16

>  <PUBCHEM_ATOM_DEF_STEREO_COUNT>  (1) 
0

>  <PUBCHEM_ATOM_UDEF_STEREO_COUNT>  (1) 
1

>  <PUBCHEM_BOND_DEF_STEREO_COUNT>  (1) 
0

>  <PUBCHEM_BOND_UDEF_STEREO_COUNT>  (1) 
0

>  <PUBCHEM_ISOTOPIC_ATOM_COUNT>  (1) 
0

>  <PUBCHEM_COMPONENT_COUNT>  (1) 
1

>  <PUBCHEM_CACTVS_TAUTO_COUNT>  (1) 
2

>  <PUBCHEM_CONFORMER_ID>  (1) 
000024FE00000001

>  <PUBCHEM_MMFF94_ENERGY>  (1) 
49.6703

>  <PUBCHEM_FEATURE_SELFOVERLAP>  (1) 
35.523

>  <PUBCHEM_SHAPE_FINGERPRINT>  (1) 
10014705 185 18261951941884139495
11046707 91 11314310568203389739
11089746 13 18060414738353801376
12236239 1 18131068220965662107
12596602 18 13551196593121455116
128620 24 11600005453187527024
13675066 3 17240485814243117854
14123260 362 18202007637701205321
1420 369 9079119964003148104
14252887 29 11097846377112190992
15239154 128 18261395576358474900
17834072 33 18342172306046778239
17834072 8 18410862045004123334
17870717 6 15052020073952748437
1813 80 9150890637135635347
18186145 218 18259706705155165402
19489759 90 16630808794184418296
200 152 10087641489852991563
20300324 65 17203326715329325905
20325693 3 16343704331489199669
20432913 95 9727636115531685388
204376 136 18408324380425211603
20645477 56 17748825224004306247
20645477 70 18335983078228175506
21033648 29 17749656450637523237
21033650 10 16843915034337527824
212847 35 18412262831212893072
21652331 79 18186518795604505324
231179 274 18113334193742424674
23402539 116 17846777390639327344
23402655 69 18411139182153522684
23403322 49 11600007643832013485
23559900 14 17703788146174108058
2838139 119 17970612010254773485
300161 21 18272083920697607816
3268164 11 16558747884690636217
351380 3 8358257046799339736
3545911 37 18334298686216352106
474 4 18341333301571322811
4921388 177 15626222455279329885
5104073 3 18188486995091551840
542803 24 18202566176448939416
5924683 9 16951136195806113227
633830 44 18271816657467272199
90127 26 17385726893704622492
9971528 1 18273214167306422272

>  <PUBCHEM_SHAPE_MULTIPOLES>  (1) 
313.44
12.13
1.47
1.02
4.5
0.15
0.01
-4.37
0.51
0.51
0.12
-1.28
-0.09
-0.6

>  <PUBCHEM_SHAPE_SELFOVERLAP>  (1) 
660.969

>  <PUBCHEM_SHAPE_VOLUME>  (1) 
174.6

>  <PUBCHEM_COORDINATE_TYPE>  (1) 
2
5
10

$$$$
