9471
     RDKit          3D

 14 14  0  0  0  0  0  0  0  0999 V2000
   -5.2033    1.3263    0.9338 F   0  0  0  0  0  0  0  0  0  0  0  0
   -0.4416   -0.2397   -0.1070 O   0  0  0  0  0  0  0  0  0  0  0  0
    0.6300   -2.2763   -0.1668 O   0  0  0  0  0  0  0  0  0  0  0  0
   -2.7995    0.1739   -0.1615 C   0  0  0  0  0  0  0  0  0  0  0  0
   -4.1911   -0.4527   -0.2170 C   0  0  0  0  0  0  0  0  0  0  0  0
   -1.7057   -0.8847   -0.1759 C   0  0  0  0  0  0  0  0  0  0  0  0
   -5.2804    0.6059   -0.2165 C   0  0  0  0  0  0  0  0  0  0  0  0
    1.9014   -0.2637   -0.0337 C   0  0  0  0  0  0  0  0  0  0  0  0
    0.6484   -1.0565   -0.1104 C   0  0  0  0  0  0  0  0  0  0  0  0
    3.0049   -0.8184    0.5817 C   0  0  0  0  0  0  0  0  0  0  0  0
    1.9237    1.0031   -0.5804 C   0  0  0  0  0  0  0  0  0  0  0  0
    4.1821   -0.0738    0.6536 C   0  0  0  0  0  0  0  0  0  0  0  0
    3.1011    1.7476   -0.5085 C   0  0  0  0  0  0  0  0  0  0  0  0
    4.2303    1.2090    0.1086 C   0  0  0  0  0  0  0  0  0  0  0  0
  1  7  1  0
  2  6  1  0
  2  9  1  0
  3  9  2  0
  4  5  1  0
  4  6  1  0
  5  7  1  0
  8  9  1  0
  8 10  2  0
  8 11  1  0
 10 12  1  0
 11 13  2  0
 12 14  2  0
 13 14  1  0
M  END
>  <PUBCHEM_COMPOUND_CID>  (1) 
9471

>  <PUBCHEM_CONFORMER_RMSD>  (1) 
0.6

>  <PUBCHEM_CONFORMER_DIVERSEORDER>  (1) 
1
80
197
31
154
120
173
30
78
65
118
159
72
190
157
33
177
166
189
134
184
25
212
7
92
210
160
171
14
111
218
100
194
15
127
124
147
176
101
135
214
70
191
99
36
112
121
193
133
83
3
98
195
122
125
132
84
22
71
28
79
90
152
48
86
82
161
149
215
168
153
123
95
217
209
2
64
126
41
46
55
142
185
45
162
11
6
167
74
138
58
32
77
40
119
150
146
175
67
183
106
4
91
206
110
128
21
12
151
174
116
169
76
216
144
10
57
130
59
38
26
164
18
200
50
102
139
8
96
9
211
131
205
54
202
13
5
201
34
213
145
52
27
35
182
141
204
49
19
198
16
29
23
62
158
136
61
196
63
165
188
199
129
207
44
73
203
89
178
42
51
208
88
170
117
24
137
107
60
114
180
108
56
81
179
39
47
143
87
94
104
97
69
113
75
115
17
85
66
103
172
163
105
68
192
187
181
93
20
43
37
186
140
155
148
109
156
53

>  <PUBCHEM_MMFF94_PARTIAL_CHARGES>  (1) 
17
1 -0.34
10 -0.15
11 -0.15
12 -0.15
13 -0.15
14 -0.15
2 -0.43
23 0.15
24 0.15
25 0.15
26 0.15
27 0.15
3 -0.57
6 0.28
7 0.34
8 0.09
9 0.63

>  <PUBCHEM_EFFECTIVE_ROTOR_COUNT>  (1) 
6

>  <PUBCHEM_PHARMACOPHORE_FEATURES>  (1) 
2
1 3 acceptor
6 8 10 11 12 13 14 rings

>  <PUBCHEM_HEAVY_ATOM_COUNT>  (1) 
14

>  <PUBCHEM_ATOM_DEF_STEREO_COUNT>  (1) 
0

>  <PUBCHEM_ATOM_UDEF_STEREO_COUNT>  (1) 
0

>  <PUBCHEM_BOND_DEF_STEREO_COUNT>  (1) 
0

>  <PUBCHEM_BOND_UDEF_STEREO_COUNT>  (1) 
0

>  <PUBCHEM_ISOTOPIC_ATOM_COUNT>  (1) 
0

>  <PUBCHEM_COMPONENT_COUNT>  (1) 
1

>  <PUBCHEM_CACTVS_TAUTO_COUNT>  (1) 
1

>  <PUBCHEM_CONFORMER_ID>  (1) 
000024FF00000001

>  <PUBCHEM_MMFF94_ENERGY>  (1) 
26.9168

>  <PUBCHEM_FEATURE_SELFOVERLAP>  (1) 
10.148

>  <PUBCHEM_SHAPE_FINGERPRINT>  (1) 
100836 57 18409173233155188092
10354089 29 18187366536286001088
10465860 228 18340772550414264782
10688039 33 17312818252029387989
114248 4 14333126390574238645
122479 349 18262520410892024970
12251169 10 17967810565567913646
13167372 99 18339079264528277297
13675066 3 16298100973998390007
13922767 16 18409726287799163464
14252887 29 12035722085838070776
15188451 53 14924232685531949545
19784866 9 18411416189715535667
212847 35 18342173384342201320
23402539 116 17917703634588666164
23402655 69 18272087236021924900
2916195 48 17774711090913674544
3060560 45 15339117948832669364
351380 3 7853571314515043097
4047638 21 18407478864499189066
42 15 17458059365438322403
449060 50 18409169892361552831
449060 62 18410009939981375862
474 4 18335422382841862665
5104073 3 18260544575595822347
633830 44 18413389847331308519
8272917 22 18410575041919686534
94968 8 9583520919140045556

>  <PUBCHEM_SHAPE_MULTIPOLES>  (1) 
269.1
10.98
1.64
0.75
12.82
0.16
0.05
-4.75
1.77
-0.72
-0.1
0.02
-0.1
-0.72

>  <PUBCHEM_SHAPE_SELFOVERLAP>  (1) 
545.444

>  <PUBCHEM_SHAPE_VOLUME>  (1) 
157.1

>  <PUBCHEM_COORDINATE_TYPE>  (1) 
2
5
10

$$$$
