9474
     RDKit          3D

 10 10  0  0  0  0  0  0  0  0999 V2000
   -2.3680    1.3670    0.0000 F   0  0  0  0  0  0  0  0  0  0  0  0
   -2.3678   -1.3671   -0.0001 F   0  0  0  0  0  0  0  0  0  0  0  0
    2.3677    1.3673   -0.0001 F   0  0  0  0  0  0  0  0  0  0  0  0
    2.3679   -1.3671    0.0000 F   0  0  0  0  0  0  0  0  0  0  0  0
   -1.2080    0.6974    0.0000 C   0  0  0  0  0  0  0  0  0  0  0  0
   -1.2079   -0.6974    0.0001 C   0  0  0  0  0  0  0  0  0  0  0  0
    1.2080    0.6974    0.0001 C   0  0  0  0  0  0  0  0  0  0  0  0
    1.2080   -0.6974   -0.0001 C   0  0  0  0  0  0  0  0  0  0  0  0
    0.0000    1.3948    0.0001 C   0  0  0  0  0  0  0  0  0  0  0  0
    0.0001   -1.3948    0.0001 C   0  0  0  0  0  0  0  0  0  0  0  0
  1  5  1  0
  2  6  1  0
  3  7  1  0
  4  8  1  0
  5  6  2  0
  5  9  1  0
  6 10  1  0
  7  8  1  0
  7  9  2  0
  8 10  2  0
M  END
>  <PUBCHEM_COMPOUND_CID>  (1) 
9474

>  <PUBCHEM_CONFORMER_RMSD>  (1) 
0.4

>  <PUBCHEM_CONFORMER_DIVERSEORDER>  (1) 
1

>  <PUBCHEM_MMFF94_PARTIAL_CHARGES>  (1) 
12
1 -0.19
10 -0.15
11 0.15
12 0.15
2 -0.19
3 -0.19
4 -0.19
5 0.19
6 0.19
7 0.19
8 0.19
9 -0.15

>  <PUBCHEM_EFFECTIVE_ROTOR_COUNT>  (1) 
0

>  <PUBCHEM_PHARMACOPHORE_FEATURES>  (1) 
1
6 5 6 7 8 9 10 rings

>  <PUBCHEM_HEAVY_ATOM_COUNT>  (1) 
10

>  <PUBCHEM_ATOM_DEF_STEREO_COUNT>  (1) 
0

>  <PUBCHEM_ATOM_UDEF_STEREO_COUNT>  (1) 
0

>  <PUBCHEM_BOND_DEF_STEREO_COUNT>  (1) 
0

>  <PUBCHEM_BOND_UDEF_STEREO_COUNT>  (1) 
0

>  <PUBCHEM_ISOTOPIC_ATOM_COUNT>  (1) 
0

>  <PUBCHEM_COMPONENT_COUNT>  (1) 
1

>  <PUBCHEM_CACTVS_TAUTO_COUNT>  (1) 
1

>  <PUBCHEM_CONFORMER_ID>  (1) 
0000250200000001

>  <PUBCHEM_MMFF94_ENERGY>  (1) 
13.4003

>  <PUBCHEM_FEATURE_SELFOVERLAP>  (1) 
5.074

>  <PUBCHEM_SHAPE_FINGERPRINT>  (1) 
16945 1 18409731750654640142
18185500 45 18192429658477674394
21040471 1 18410575101927584480
23552423 10 18261114075548565942
241688 4 18335983081968774392
2748010 2 18410855460128161959
29004967 10 18118125998486438363
5084963 1 18273214200811891339

>  <PUBCHEM_SHAPE_MULTIPOLES>  (1) 
176.7
2.94
1.81
0.57
0
0
0
0
0
0
0
0
0
0

>  <PUBCHEM_SHAPE_SELFOVERLAP>  (1) 
376.803

>  <PUBCHEM_SHAPE_VOLUME>  (1) 
98.1

>  <PUBCHEM_COORDINATE_TYPE>  (1) 
2
5
10

$$$$
