9478
     RDKit          3D

 20 21  0  0  0  0  0  0  0  0999 V2000
   -5.6381    1.1407    0.2119 O   0  0  0  0  0  0  0  0  0  0  0  0
   -2.2821   -1.7364   -0.5278 O   0  0  0  0  0  0  0  0  0  0  0  0
    6.0158   -0.2455   -0.1227 N   0  0  0  0  0  0  0  0  0  0  0  0
   -0.3325    0.1867   -0.5562 N   0  0  0  0  0  0  0  0  0  0  0  0
   -1.6730    0.4847   -0.3751 N   0  0  0  0  0  0  0  0  0  0  0  0
   -4.2604    1.1204    0.0316 N   0  0  0  0  0  0  0  0  0  0  0  0
    1.9035    0.4297    0.4013 C   0  0  0  0  0  0  0  0  0  0  0  0
    4.6349   -0.0188    0.0534 C   0  0  0  0  0  0  0  0  0  0  0  0
    0.4436    0.6698    0.5882 C   0  0  0  0  0  0  0  0  0  0  0  0
    2.6959    1.3972   -0.2164 C   0  0  0  0  0  0  0  0  0  0  0  0
    2.4767   -0.7621    0.8450 C   0  0  0  0  0  0  0  0  0  0  0  0
    4.0616    1.1729   -0.3904 C   0  0  0  0  0  0  0  0  0  0  0  0
    3.8424   -0.9864    0.6711 C   0  0  0  0  0  0  0  0  0  0  0  0
    6.9465    0.8655   -0.1342 C   0  0  0  0  0  0  0  0  0  0  0  0
    6.5239   -1.5939   -0.2806 C   0  0  0  0  0  0  0  0  0  0  0  0
   -2.5923   -0.5552   -0.3749 C   0  0  0  0  0  0  0  0  0  0  0  0
   -3.9897   -0.1571   -0.1491 C   0  0  0  0  0  0  0  0  0  0  0  0
   -5.0884   -0.9970   -0.1031 C   0  0  0  0  0  0  0  0  0  0  0  0
   -6.1196   -0.1260    0.1297 C   0  0  0  0  0  0  0  0  0  0  0  0
   -7.5689   -0.2891    0.2984 C   0  0  0  0  0  0  0  0  0  0  0  0
  1  6  1  0
  1 19  1  0
  2 16  2  0
  3  8  1  0
  3 14  1  0
  3 15  1  0
  4  5  1  0
  4  9  1  0
  5 16  1  0
  6 17  2  0
  7  9  1  0
  7 10  2  0
  7 11  1  0
  8 12  2  0
  8 13  1  0
 10 12  1  0
 11 13  2  0
 16 17  1  0
 17 18  1  0
 18 19  2  0
 19 20  1  0
M  END
>  <PUBCHEM_COMPOUND_CID>  (1) 
9478

>  <PUBCHEM_CONFORMER_RMSD>  (1) 
0.8

>  <PUBCHEM_CONFORMER_DIVERSEORDER>  (1) 
1
19
24
5
17
15
10
22
3
13
25
2
14
16
7
8
12
4
11
23
6
21
20
9
18

>  <PUBCHEM_MMFF94_PARTIAL_CHARGES>  (1) 
27
1 -0.02
10 -0.15
11 -0.15
12 -0.15
13 -0.15
14 0.37
15 0.37
16 0.72
17 0.2
18 -0.15
19 -0.04
2 -0.57
20 0.18
23 0.15
24 0.15
25 0.15
26 0.15
27 0.36
3 -0.84
34 0.37
35 0.15
4 -0.64
5 -0.42
6 -0.41
7 -0.14
8 0.1
9 0.41

>  <PUBCHEM_EFFECTIVE_ROTOR_COUNT>  (1) 
6

>  <PUBCHEM_PHARMACOPHORE_FEATURES>  (1) 
7
1 2 acceptor
1 3 cation
1 4 donor
1 5 donor
1 6 acceptor
5 1 6 17 18 19 rings
6 7 8 10 11 12 13 rings

>  <PUBCHEM_HEAVY_ATOM_COUNT>  (1) 
20

>  <PUBCHEM_ATOM_DEF_STEREO_COUNT>  (1) 
0

>  <PUBCHEM_ATOM_UDEF_STEREO_COUNT>  (1) 
0

>  <PUBCHEM_BOND_DEF_STEREO_COUNT>  (1) 
0

>  <PUBCHEM_BOND_UDEF_STEREO_COUNT>  (1) 
0

>  <PUBCHEM_ISOTOPIC_ATOM_COUNT>  (1) 
0

>  <PUBCHEM_COMPONENT_COUNT>  (1) 
1

>  <PUBCHEM_CACTVS_TAUTO_COUNT>  (1) 
2

>  <PUBCHEM_CONFORMER_ID>  (1) 
0000250600000001

>  <PUBCHEM_MMFF94_ENERGY>  (1) 
49.9356

>  <PUBCHEM_FEATURE_SELFOVERLAP>  (1) 
37.011

>  <PUBCHEM_SHAPE_FINGERPRINT>  (1) 
10299344 5 18409450284268065451
10354089 29 18260546732006988240
10968037 39 18186519916965028527
11089746 13 14261628430416354834
11315181 36 18409451401940789937
11524674 6 16917066681358333375
11796584 16 17561084743892515982
12107183 9 17688023116268515233
12236239 1 18413108355591251680
12516196 113 17846495946054513704
12730499 353 17022904545360902618
13533116 47 13901639493235467564
13685833 64 18409450284310192074
13914758 101 13973694897051349731
14123256 10 11602538728294368975
14170010 4 18113900490166817052
1420 363 16660645154611257640
14251752 14 18273214175078738018
14251764 18 18272932734862653279
14251764 46 18410011039503559627
14617045 38 18113618975754769978
14933364 13 18334858320534382453
15183329 4 18410854343547577795
17844677 252 18261116270488331733
19489759 90 15841555171939358323
20157964 124 9871752399093239904
20281389 69 18413106169353022073
21267235 1 18408326574820865588
22224240 67 15574713620566748936
23035841 295 18408884023338029178
23402539 116 17703784839128580173
23536379 177 18411982459705082784
23559900 14 18200867491140195257
28498 318 18341331115495915663
29717793 49 18272938219820850452
3004659 81 18408884031985713264
351380 180 10519985976017517550
3545911 37 18410291419258328553
4073 2 17895480344207173306
4214541 1 18410854369702522693
4325135 7 8142087559199453771
4463277 17 18411698790300816072
5385378 56 16988015907683109543
54446538 1 18408041814563769933
59755656 215 17775291530126970990
59755656 520 17603864529136545931
8209 1 18408603668936176605

>  <PUBCHEM_SHAPE_MULTIPOLES>  (1) 
379.93
20.83
1.38
0.74
9.24
0.15
0.05
1.83
-0.15
-0.93
-0.08
-0.18
0.06
-0.35

>  <PUBCHEM_SHAPE_SELFOVERLAP>  (1) 
794.974

>  <PUBCHEM_SHAPE_VOLUME>  (1) 
216.4

>  <PUBCHEM_COORDINATE_TYPE>  (1) 
2
5
10

$$$$
