9483
     RDKit          3D

 13 13  0  0  0  0  0  0  0  0999 V2000
   -3.3556   -0.1975   -0.4412 F   0  0  0  0  0  0  0  0  0  0  0  0
   -2.6592    1.0709    1.1745 F   0  0  0  0  0  0  0  0  0  0  0  0
   -2.2377    1.6131   -0.8887 F   0  0  0  0  0  0  0  0  0  0  0  0
    3.7141    1.3161   -0.9501 O   0  0  0  0  0  0  0  0  0  0  0  0
    2.5466    0.3503    0.8538 N   0  0  0  0  0  0  0  0  0  0  0  0
   -1.0068   -0.2104    0.0132 C   0  0  0  0  0  0  0  0  0  0  0  0
    0.1689    0.4256    0.4119 C   0  0  0  0  0  0  0  0  0  0  0  0
   -0.9841   -1.5589   -0.3430 C   0  0  0  0  0  0  0  0  0  0  0  0
    1.3673   -0.2870    0.4543 C   0  0  0  0  0  0  0  0  0  0  0  0
   -2.2884    0.5511   -0.0329 C   0  0  0  0  0  0  0  0  0  0  0  0
    0.2142   -2.2714   -0.3007 C   0  0  0  0  0  0  0  0  0  0  0  0
    1.3899   -1.6356    0.0982 C   0  0  0  0  0  0  0  0  0  0  0  0
    3.1308    0.8336   -0.0492 C   0  0  0  0  0  0  0  0  0  0  0  0
  1 10  1  0
  2 10  1  0
  3 10  1  0
  4 13  2  0
  5  9  1  0
  5 13  2  0
  6  7  2  0
  6  8  1  0
  6 10  1  0
  7  9  1  0
  8 11  2  0
  9 12  2  0
 11 12  1  0
M  END
>  <PUBCHEM_COMPOUND_CID>  (1) 
9483

>  <PUBCHEM_CONFORMER_RMSD>  (1) 
0.6

>  <PUBCHEM_CONFORMER_DIVERSEORDER>  (1) 
1
2
4
3

>  <PUBCHEM_MMFF94_PARTIAL_CHARGES>  (1) 
17
1 -0.34
10 1.16
11 -0.15
12 -0.15
13 0.79
14 0.15
15 0.15
16 0.15
17 0.15
2 -0.34
3 -0.34
4 -0.49
5 -0.48
6 -0.14
7 -0.15
8 -0.15
9 0.18

>  <PUBCHEM_EFFECTIVE_ROTOR_COUNT>  (1) 
2

>  <PUBCHEM_PHARMACOPHORE_FEATURES>  (1) 
2
1 5 acceptor
6 6 7 8 9 11 12 rings

>  <PUBCHEM_HEAVY_ATOM_COUNT>  (1) 
13

>  <PUBCHEM_ATOM_DEF_STEREO_COUNT>  (1) 
0

>  <PUBCHEM_ATOM_UDEF_STEREO_COUNT>  (1) 
0

>  <PUBCHEM_BOND_DEF_STEREO_COUNT>  (1) 
0

>  <PUBCHEM_BOND_UDEF_STEREO_COUNT>  (1) 
0

>  <PUBCHEM_ISOTOPIC_ATOM_COUNT>  (1) 
0

>  <PUBCHEM_COMPONENT_COUNT>  (1) 
1

>  <PUBCHEM_CACTVS_TAUTO_COUNT>  (1) 
1

>  <PUBCHEM_CONFORMER_ID>  (1) 
0000250B00000001

>  <PUBCHEM_MMFF94_ENERGY>  (1) 
24.0023

>  <PUBCHEM_FEATURE_SELFOVERLAP>  (1) 
10.148

>  <PUBCHEM_SHAPE_FINGERPRINT>  (1) 
11206711 2 18126834109008798295
12138202 97 18130231570301110166
12932764 1 15266766746387700267
13380535 21 18341342140408400138
13380535 76 18411975871299460938
14325111 11 18412539890519890755
14648413 74 17831014628898251653
15775835 57 18334013934338045052
16945 1 18200302359285345395
18186145 218 18272376330370949228
20645476 183 18261675982215506414
20645477 56 18268713990631213528
20653085 51 18262811782042649506
20671657 1 18341047437380667842
21028194 46 18411129234381550162
21040471 1 18342727538091869562
21501502 16 18341327795460257091
21524375 3 18410849975761237306
23419403 2 17190448105252559366
23552423 10 18125718989712591331
2748010 2 18341896277078426022
3071541 158 17977947882693558038
57177213 63 18411139095510365186
8030462 33 17559942252125789449
81228 2 17836917168083201146

>  <PUBCHEM_SHAPE_MULTIPOLES>  (1) 
234.86
5.01
1.91
0.87
1.17
0.9
-0.03
-2.97
0.66
0.03
0.29
0.04
-0.23
-0.35

>  <PUBCHEM_SHAPE_SELFOVERLAP>  (1) 
500.604

>  <PUBCHEM_SHAPE_VOLUME>  (1) 
130.7

>  <PUBCHEM_COORDINATE_TYPE>  (1) 
2
5
10

$$$$
