9494
     RDKit          3D

 10  9  0  0  0  0  0  0  0  0999 V2000
   -0.0059   -0.1565   -0.0056 N   0  0  0  0  0  0  0  0  0  0  0  0
    1.0752   -2.1906   -0.5244 N   0  0  0  0  0  0  0  0  0  0  0  0
   -0.9919   -2.2873    0.5051 N   0  0  0  0  0  0  0  0  0  0  0  0
   -1.1175    0.6213    0.5382 C   0  0  0  0  0  0  0  0  0  0  0  0
    1.1096    0.6189   -0.5455 C   0  0  0  0  0  0  0  0  0  0  0  0
   -2.1910    0.8431   -0.5221 C   0  0  0  0  0  0  0  0  0  0  0  0
    2.1651    0.8655    0.5274 C   0  0  0  0  0  0  0  0  0  0  0  0
   -0.0213   -1.5579    0.0160 C   0  0  0  0  0  0  0  0  0  0  0  0
   -3.3940    1.6114    0.0075 C   0  0  0  0  0  0  0  0  0  0  0  0
    3.3716    1.6321    0.0034 C   0  0  0  0  0  0  0  0  0  0  0  0
  1  4  1  0
  1  5  1  0
  1  8  1  0
  2  8  1  0
  3  8  2  0
  4  6  1  0
  5  7  1  0
  6  9  1  0
  7 10  1  0
M  END
>  <PUBCHEM_COMPOUND_CID>  (1) 
9494

>  <PUBCHEM_CONFORMER_RMSD>  (1) 
0.6

>  <PUBCHEM_CONFORMER_DIVERSEORDER>  (1) 
1
38
30
6
15
29
36
39
10
12
23
35
32
14
34
40
21
43
20
41
18
22
31
37
25
2
16
28
27
42
3
17
11
13
24
7
9
8
19
26
33
5
4

>  <PUBCHEM_MMFF94_PARTIAL_CHARGES>  (1) 
9
1 -0.79
2 -0.85
25 0.4
26 0.4
27 0.4
3 -0.85
4 0.37
5 0.37
8 0.55

>  <PUBCHEM_EFFECTIVE_ROTOR_COUNT>  (1) 
5

>  <PUBCHEM_PHARMACOPHORE_FEATURES>  (1) 
5
1 10 hydrophobe
1 2 donor
1 3 donor
1 9 hydrophobe
4 1 2 3 8 cation

>  <PUBCHEM_HEAVY_ATOM_COUNT>  (1) 
10

>  <PUBCHEM_ATOM_DEF_STEREO_COUNT>  (1) 
0

>  <PUBCHEM_ATOM_UDEF_STEREO_COUNT>  (1) 
0

>  <PUBCHEM_BOND_DEF_STEREO_COUNT>  (1) 
0

>  <PUBCHEM_BOND_UDEF_STEREO_COUNT>  (1) 
0

>  <PUBCHEM_ISOTOPIC_ATOM_COUNT>  (1) 
0

>  <PUBCHEM_COMPONENT_COUNT>  (1) 
1

>  <PUBCHEM_CACTVS_TAUTO_COUNT>  (1) 
1

>  <PUBCHEM_CONFORMER_ID>  (1) 
0000251600000001

>  <PUBCHEM_MMFF94_ENERGY>  (1) 
12.9701

>  <PUBCHEM_FEATURE_SELFOVERLAP>  (1) 
25.42

>  <PUBCHEM_SHAPE_FINGERPRINT>  (1) 
1 1 18337388223511427764
10149128 76 18410291397836512440
13380535 76 18410851066403134670
14325111 11 18410571794734331201
19021347 4 18408602578209610403
20645477 70 18126275343297736573
20711985 344 17906718551375660594
20871998 184 18051701228340184014
21040471 1 18408609175078936420
21499 59 18410001139942027005
21524375 3 18411124844772181060
23235685 24 18410851066382379940
23552423 10 18052532171763716577

>  <PUBCHEM_SHAPE_MULTIPOLES>  (1) 
190.85
4.52
2.47
0.76
0.07
1.69
0
-4.22
0
-0.01
0.02
0
-0.01
0.29

>  <PUBCHEM_SHAPE_SELFOVERLAP>  (1) 
344.858

>  <PUBCHEM_SHAPE_VOLUME>  (1) 
120.8

>  <PUBCHEM_COORDINATE_TYPE>  (1) 
2
5
10

$$$$
