9499
     RDKit          3D

 19 20  0  0  0  0  0  0  0  0999 V2000
    0.4303    2.5420    0.2893 O   0  0  0  0  0  0  0  0  0  0  0  0
   -5.7698   -0.3925    0.9549 O   0  0  0  0  0  0  0  0  0  0  0  0
   -5.2745   -1.7181   -0.7234 O   0  0  0  0  0  0  0  0  0  0  0  0
    2.4982    1.0412   -0.6837 N   0  0  0  0  0  0  0  0  0  0  0  0
    1.2306    0.5718   -0.6264 N   0  0  0  0  0  0  0  0  0  0  0  0
   -4.9627   -0.8175    0.0930 N   0  0  0  0  0  0  0  0  0  0  0  0
    5.2675   -1.5994    0.8129 C   0  0  0  0  0  0  0  0  0  0  0  0
    5.5522   -0.1043    0.6571 C   0  0  0  0  0  0  0  0  0  0  0  0
    3.7645   -1.8789    0.8727 C   0  0  0  0  0  0  0  0  0  0  0  0
    4.8605    0.4769   -0.5704 C   0  0  0  0  0  0  0  0  0  0  0  0
    3.0377   -1.3308   -0.3502 C   0  0  0  0  0  0  0  0  0  0  0  0
    3.3955    0.1236   -0.5331 C   0  0  0  0  0  0  0  0  0  0  0  0
    0.2453    1.3984   -0.1194 C   0  0  0  0  0  0  0  0  0  0  0  0
   -1.1209    0.8166   -0.0634 C   0  0  0  0  0  0  0  0  0  0  0  0
   -2.0057    1.2858    0.8848 C   0  0  0  0  0  0  0  0  0  0  0  0
   -1.4603   -0.1734   -0.9619 C   0  0  0  0  0  0  0  0  0  0  0  0
   -3.6571   -0.2623    0.0398 C   0  0  0  0  0  0  0  0  0  0  0  0
   -3.2883    0.7401    0.9370 C   0  0  0  0  0  0  0  0  0  0  0  0
   -2.7430   -0.7191   -0.9097 C   0  0  0  0  0  0  0  0  0  0  0  0
  1 13  2  0
  2  6  1  0
  3  6  2  0
  4  5  1  0
  4 12  2  3
  5 13  1  0
  6 17  1  0
  7  8  1  0
  7  9  1  0
  8 10  1  0
  9 11  1  0
 10 12  1  0
 11 12  1  0
 13 14  1  0
 14 15  2  0
 14 16  1  0
 15 18  1  0
 16 19  2  0
 17 18  2  0
 17 19  1  0
M  CHG  2   2  -1   6   1
M  END
>  <PUBCHEM_COMPOUND_CID>  (1) 
9499

>  <PUBCHEM_CONFORMER_RMSD>  (1) 
0.6

>  <PUBCHEM_CONFORMER_DIVERSEORDER>  (1) 
1
6
2
4
5
3

>  <PUBCHEM_MMFF94_PARTIAL_CHARGES>  (1) 
21
1 -0.57
10 0.06
11 0.06
12 0.33
13 0.54
14 0.09
15 -0.15
16 -0.15
17 0.13
18 -0.15
19 -0.15
2 -0.52
3 -0.52
30 0.37
31 0.15
32 0.15
33 0.15
34 0.15
4 -0.51
5 -0.37
6 0.91

>  <PUBCHEM_EFFECTIVE_ROTOR_COUNT>  (1) 
5

>  <PUBCHEM_PHARMACOPHORE_FEATURES>  (1) 
8
1 1 acceptor
1 2 acceptor
1 2 anion
1 3 acceptor
1 4 acceptor
1 5 donor
6 14 15 16 17 18 19 rings
6 7 8 9 10 11 12 rings

>  <PUBCHEM_HEAVY_ATOM_COUNT>  (1) 
19

>  <PUBCHEM_ATOM_DEF_STEREO_COUNT>  (1) 
0

>  <PUBCHEM_ATOM_UDEF_STEREO_COUNT>  (1) 
0

>  <PUBCHEM_BOND_DEF_STEREO_COUNT>  (1) 
0

>  <PUBCHEM_BOND_UDEF_STEREO_COUNT>  (1) 
0

>  <PUBCHEM_ISOTOPIC_ATOM_COUNT>  (1) 
0

>  <PUBCHEM_COMPONENT_COUNT>  (1) 
1

>  <PUBCHEM_CACTVS_TAUTO_COUNT>  (1) 
2

>  <PUBCHEM_CONFORMER_ID>  (1) 
0000251B00000001

>  <PUBCHEM_MMFF94_ENERGY>  (1) 
55.2639

>  <PUBCHEM_FEATURE_SELFOVERLAP>  (1) 
40.684

>  <PUBCHEM_SHAPE_FINGERPRINT>  (1) 
100836 57 9727635016088447324
10447042 23 18260260850599748766
10670039 82 7781526940170414766
12236239 1 18413110562808705460
12553582 1 18272928323873335356
12596602 18 17703791426975533346
12633257 1 16343690054443037954
12839892 36 17704356584879917503
12892183 10 16773804640710541660
13167823 11 18410293580091056614
13533116 47 18336266829294609232
13551218 46 18341896242623859238
13685833 64 17749396983536902123
1420 369 18336547127634857998
14251740 57 18272093739014608446
14251752 14 17895186663429214277
14251764 18 18413394233415764953
14341114 176 15482676784009007130
146900 427 18201716314892428160
15183329 4 15936399018859667861
15342168 16 10879986969303416296
15375462 189 18412543206725364020
15537594 2 18411984680409137286
15880784 105 18272653399012057394
17492 89 18192427464319663610
17857418 61 18410854373823358203
17862501 102 18272937141657334967
17870717 6 14923948920657096667
1813 80 18188504500946051852
19784866 240 18113623369474190983
200 152 18186519895147450076
20645477 56 13758077381115308285
20645477 70 17530683208618565830
21065198 48 18340209600914381264
21267235 1 18410018706753679006
212847 35 9727632796165517830
21315763 178 18411697686183075639
22079108 93 13614233798022847437
22646028 1 18408041793099073740
23366157 5 17982445198647137665
23559900 14 17969787573516782897
3004659 81 17894631431505519894
314194 84 18408606980366745443
3411729 13 17345182514617030400
351380 3 18413107268774745310
465052 167 18338806714292946287
4990 188 15502375651322213621
5104073 3 18199461083283354984
542803 24 11024108745917002796
559249 180 18335417916329069377
56616090 284 15864073174107440297
573450 72 18271528606684550353
59682541 35 18336256943092069952
76465 3 18409164406949869896

>  <PUBCHEM_SHAPE_MULTIPOLES>  (1) 
358.46
13.46
1.84
1.03
0.11
0.15
-0.05
-6.72
-2.38
-0.43
-0.2
0.12
-0.09
-1.3

>  <PUBCHEM_SHAPE_SELFOVERLAP>  (1) 
754.637

>  <PUBCHEM_SHAPE_VOLUME>  (1) 
200.6

>  <PUBCHEM_COORDINATE_TYPE>  (1) 
2
5
10

$$$$
