9517
     RDKit          3D

 14 13  0  0  0  0  0  0  0  0999 V2000
    6.5187    0.8583    0.8828 F   0  0  0  0  0  0  0  0  0  0  0  0
   -5.8425    1.4042   -0.7318 F   0  0  0  0  0  0  0  0  0  0  0  0
   -3.5234    0.2476    0.2198 O   0  0  0  0  0  0  0  0  0  0  0  0
   -2.4132   -1.7676    0.0282 O   0  0  0  0  0  0  0  0  0  0  0  0
    2.6211   -0.5320   -0.2029 C   0  0  0  0  0  0  0  0  0  0  0  0
    1.3690    0.3224    0.0046 C   0  0  0  0  0  0  0  0  0  0  0  0
    3.8893    0.3230   -0.1744 C   0  0  0  0  0  0  0  0  0  0  0  0
    0.0986   -0.5304   -0.0573 C   0  0  0  0  0  0  0  0  0  0  0  0
    5.1378   -0.5264   -0.4178 C   0  0  0  0  0  0  0  0  0  0  0  0
   -1.1704    0.2994    0.1153 C   0  0  0  0  0  0  0  0  0  0  0  0
    6.4036    0.3112   -0.3564 C   0  0  0  0  0  0  0  0  0  0  0  0
   -2.4198   -0.5463    0.1147 C   0  0  0  0  0  0  0  0  0  0  0  0
   -4.7782   -0.4403    0.2270 C   0  0  0  0  0  0  0  0  0  0  0  0
   -5.8907    0.5769    0.3483 C   0  0  0  0  0  0  0  0  0  0  0  0
  1 11  1  0
  2 14  1  0
  3 12  1  0
  3 13  1  0
  4 12  2  0
  5  6  1  0
  5  7  1  0
  6  8  1  0
  7  9  1  0
  8 10  1  0
  9 11  1  0
 10 12  1  0
 13 14  1  0
M  END
>  <PUBCHEM_COMPOUND_CID>  (1) 
9517

>  <PUBCHEM_CONFORMER_RMSD>  (1) 
1

>  <PUBCHEM_CONFORMER_DIVERSEORDER>  (1) 
1
88
150
50
110
132
9
19
31
121
87
26
135
116
76
147
99
8
34
60
49
14
109
107
66
70
41
90
4
72
84
93
38
130
118
16
13
74
3
22
141
59
100
36
62
82
2
91
128
32
131
102
138
108
79
39
97
114
124
18
64
21
112
136
45
78
5
144
54
61
24
126
148
129
104
127
43
20
142
53
10
51
119
139
89
95
122
23
103
28
81
134
58
30
73
25
140
17
80
46
85
52
11
69
94
29
48
98
83
101
15
40
37
68
125
111
71
12
77
35
92
33
113
106
56
96
6
120
27
146
145
55
117
137
42
86
115
7
47
149
65
44
75
63
57
105
143
67
133
123

>  <PUBCHEM_MMFF94_PARTIAL_CHARGES>  (1) 
9
1 -0.34
10 0.06
11 0.34
12 0.66
13 0.28
14 0.34
2 -0.34
3 -0.43
4 -0.57

>  <PUBCHEM_EFFECTIVE_ROTOR_COUNT>  (1) 
10

>  <PUBCHEM_PHARMACOPHORE_FEATURES>  (1) 
3
1 4 acceptor
3 5 7 9 hydrophobe
3 6 8 10 hydrophobe

>  <PUBCHEM_HEAVY_ATOM_COUNT>  (1) 
14

>  <PUBCHEM_ATOM_DEF_STEREO_COUNT>  (1) 
0

>  <PUBCHEM_ATOM_UDEF_STEREO_COUNT>  (1) 
0

>  <PUBCHEM_BOND_DEF_STEREO_COUNT>  (1) 
0

>  <PUBCHEM_BOND_UDEF_STEREO_COUNT>  (1) 
0

>  <PUBCHEM_ISOTOPIC_ATOM_COUNT>  (1) 
0

>  <PUBCHEM_COMPONENT_COUNT>  (1) 
1

>  <PUBCHEM_CACTVS_TAUTO_COUNT>  (1) 
1

>  <PUBCHEM_CONFORMER_ID>  (1) 
0000252D00000001

>  <PUBCHEM_MMFF94_ENERGY>  (1) 
2.8884

>  <PUBCHEM_FEATURE_SELFOVERLAP>  (1) 
15.223

>  <PUBCHEM_SHAPE_FINGERPRINT>  (1) 
10968037 39 18059858372036378013
117890 112 18413110537070608588
12091667 2 18260551134665055707
12714333 28 18202002127152591426
12815109 37 18341897393932927054
13533116 47 15482398543406778942
14123238 8 13038911027701559598
14251718 22 11959731564250441028
14251764 18 18260830397828574083
14251764 46 17240203240139810411
14729087 3 18410007723789261832
15048467 5 18407760330606416300
15242439 84 18059858376342011874
15501527 16 18408324371966743005
15716309 27 11819282156995898065
16079462 125 18272079505149669072
17834072 33 12319730375904079642
17834072 8 18344144787368798353
17834076 25 18334859419782058271
20281389 69 18260829280409388501
20621476 66 18410016515998604557
20645477 56 18334010588611048237
20645477 70 16916516831028635046
20681677 155 18261110798420279058
20767249 213 17846780714922681558
21150785 3 16630519648654768437
220451 1 15864070996975798474
23035841 295 11241970386417986864
23218964 4 18408605846547827774
23402539 116 18342454850929132279
23559900 14 17917986217508606001
300161 21 18412822486784005750
42788 4 18410577287981308270
4463277 17 18334577945021800916
59345606 91 18342739619887367174
8209 1 18273216395624315644

>  <PUBCHEM_SHAPE_MULTIPOLES>  (1) 
261.83
17.76
1.06
0.7
6.58
0.15
-0.01
-4.97
-0.11
-0.8
0.04
0.16
-0.09
0.63

>  <PUBCHEM_SHAPE_SELFOVERLAP>  (1) 
483.125

>  <PUBCHEM_SHAPE_VOLUME>  (1) 
164.6

>  <PUBCHEM_COORDINATE_TYPE>  (1) 
2
5
10

$$$$
