9518
     RDKit          3D

 13 12  0  0  0  0  0  0  0  0999 V2000
    6.0861    0.9445    0.7254 F   0  0  0  0  0  0  0  0  0  0  0  0
   -3.9564    0.5250   -0.0675 O   0  0  0  0  0  0  0  0  0  0  0  0
   -2.9285   -1.5029    0.3343 O   0  0  0  0  0  0  0  0  0  0  0  0
    2.1572   -0.5538   -0.0637 C   0  0  0  0  0  0  0  0  0  0  0  0
    0.9382    0.3678   -0.1378 C   0  0  0  0  0  0  0  0  0  0  0  0
    3.4595    0.2316   -0.2292 C   0  0  0  0  0  0  0  0  0  0  0  0
   -0.3655   -0.4247   -0.0051 C   0  0  0  0  0  0  0  0  0  0  0  0
    4.6760   -0.6948   -0.1912 C   0  0  0  0  0  0  0  0  0  0  0  0
   -1.6017    0.4643   -0.1066 C   0  0  0  0  0  0  0  0  0  0  0  0
    5.9744    0.0830   -0.3203 C   0  0  0  0  0  0  0  0  0  0  0  0
   -2.8853   -0.3052    0.0837 C   0  0  0  0  0  0  0  0  0  0  0  0
   -5.2390   -0.0905    0.0871 C   0  0  0  0  0  0  0  0  0  0  0  0
   -6.3151    0.9559   -0.1091 C   0  0  0  0  0  0  0  0  0  0  0  0
  1 10  1  0
  2 11  1  0
  2 12  1  0
  3 11  2  0
  4  5  1  0
  4  6  1  0
  5  7  1  0
  6  8  1  0
  7  9  1  0
  8 10  1  0
  9 11  1  0
 12 13  1  0
M  END
>  <PUBCHEM_COMPOUND_CID>  (1) 
9518

>  <PUBCHEM_CONFORMER_RMSD>  (1) 
1

>  <PUBCHEM_CONFORMER_DIVERSEORDER>  (1) 
1
85
35
34
58
31
450
37
352
39
26
6
13
4
485
452
291
12
86
40
3
9
201
132
303
396
413
469
8
274
316
61
155
24
245
29
394
145
240
126
2
81
49
51
65
479
187
160
63
323
56
79
298
180
147
55
402
354
428
225
360
456
395
476
18
481
214
62
207
314
41
73
108
337
449

>  <PUBCHEM_MMFF94_PARTIAL_CHARGES>  (1) 
7
1 -0.34
10 0.34
11 0.66
12 0.28
2 -0.43
3 -0.57
9 0.06

>  <PUBCHEM_EFFECTIVE_ROTOR_COUNT>  (1) 
9

>  <PUBCHEM_PHARMACOPHORE_FEATURES>  (1) 
3
1 3 acceptor
3 4 6 8 hydrophobe
3 5 7 9 hydrophobe

>  <PUBCHEM_HEAVY_ATOM_COUNT>  (1) 
13

>  <PUBCHEM_ATOM_DEF_STEREO_COUNT>  (1) 
0

>  <PUBCHEM_ATOM_UDEF_STEREO_COUNT>  (1) 
0

>  <PUBCHEM_BOND_DEF_STEREO_COUNT>  (1) 
0

>  <PUBCHEM_BOND_UDEF_STEREO_COUNT>  (1) 
0

>  <PUBCHEM_ISOTOPIC_ATOM_COUNT>  (1) 
0

>  <PUBCHEM_COMPONENT_COUNT>  (1) 
1

>  <PUBCHEM_CACTVS_TAUTO_COUNT>  (1) 
1

>  <PUBCHEM_CONFORMER_ID>  (1) 
0000252E00000001

>  <PUBCHEM_MMFF94_ENERGY>  (1) 
2.1795

>  <PUBCHEM_FEATURE_SELFOVERLAP>  (1) 
15.223

>  <PUBCHEM_SHAPE_FINGERPRINT>  (1) 
10968037 39 18343584044965166325
11401426 45 18334576849725869670
117890 112 18412827962540137096
12091667 2 18412265039184512743
12714333 28 18202001023135025736
12815109 37 18410575080368118125
13533116 47 17916866812120458638
14123238 8 13830133888520936782
14251718 22 17561081414812507911
14729087 3 18335697218042318021
15048467 5 18409730651238178781
15242439 84 18273215304649946482
15501527 16 18335421232191833293
17834072 33 12607397797833724514
17834076 25 18335421261913407663
187816 3 15052014563351439071
20279233 1 18060148634532319199
20281389 69 18187927248767507813
20621476 66 18410579453331023941
20645477 56 18260265240077222845
20645477 70 17274267123949328294
20681677 155 18187644721481540603
20767249 213 17988924470329064845
21130983 4 18408889546655500196
220451 1 15791733018735121042
22485316 2 18409729565007208694
23218964 4 18334013874039463973
23402539 116 18408600383307391935
23521765 1 18341895186050718069
23559900 14 18272363213514583737
300161 21 18408036308072610218
42788 4 18343302561277136756
4463277 17 18412545405279264049
59345606 91 18413388735024078742
8209 1 18342739606912768645

>  <PUBCHEM_SHAPE_MULTIPOLES>  (1) 
248.52
16.72
0.99
0.65
2.87
0.13
0
-3.56
-0.4
-0.35
-0.06
0.24
-0.03
0.42

>  <PUBCHEM_SHAPE_SELFOVERLAP>  (1) 
454.227

>  <PUBCHEM_SHAPE_VOLUME>  (1) 
158.1

>  <PUBCHEM_COORDINATE_TYPE>  (1) 
2
5
10

$$$$
