9519
     RDKit          3D

 10  9  0  0  0  0  0  0  0  0999 V2000
    4.3362    0.8579    0.6174 F   0  0  0  0  0  0  0  0  0  0  0  0
   -4.5487    0.1641    0.1585 F   0  0  0  0  0  0  0  0  0  0  0  0
   -2.3129   -1.2419    0.2963 O   0  0  0  0  0  0  0  0  0  0  0  0
    1.6785    0.2190   -0.3025 C   0  0  0  0  0  0  0  0  0  0  0  0
    0.3080   -0.4188   -0.0577 C   0  0  0  0  0  0  0  0  0  0  0  0
    2.8075   -0.7872   -0.0694 C   0  0  0  0  0  0  0  0  0  0  0  0
   -0.8394    0.5672   -0.2528 C   0  0  0  0  0  0  0  0  0  0  0  0
    4.1723   -0.1530   -0.2764 C   0  0  0  0  0  0  0  0  0  0  0  0
   -2.1986   -0.0517    0.0038 C   0  0  0  0  0  0  0  0  0  0  0  0
   -3.4029    0.8445   -0.1172 C   0  0  0  0  0  0  0  0  0  0  0  0
  1  8  1  0
  2 10  1  0
  3  9  2  0
  4  5  1  0
  4  6  1  0
  5  7  1  0
  6  8  1  0
  7  9  1  0
  9 10  1  0
M  END
>  <PUBCHEM_COMPOUND_CID>  (1) 
9519

>  <PUBCHEM_CONFORMER_RMSD>  (1) 
0.6

>  <PUBCHEM_CONFORMER_DIVERSEORDER>  (1) 
1
294
302
6
105
280
188
202
229
21
299
298
305
265
238
290
301
9
293
264
63
12
56
159
230
8
104
266
176
15
287
284
14
286
253
35
10
197
295
174
13
289
243
24
308
156
269
124
273
7
58
281
292
38
169
309
300
245
5
97
173
3
71
250
128
42
22
224
57
191
272
200
268
136
248
277
282
182
36
86
95
134
210
130
278
233
214
252
80
157
257
193
18
288
147
235
67
74
239
164
303
148
279
246
204
40
43
255
31
98
261
29
283
33
59
65
168
179
215
195
207
206
306
251
140
171
276
109
263
149
96
73
116
163
131
52
271
103
83
185
307
218
62
162
69
54
186
48
161
231
212
270
70
2
137
216
205
49
50
115
146
44
187
304
11
30
203
213
121
158
192
113
166
228
175
46
196
221
211
249
285
119
201
242
296
25
122
102
26
82
77
199
39
226
297
240
75
28
53
78
64
165
234
89
244
85
167
232
139
41
184
101
4
227
55
274
72
209
91
237
19
60
20
236
129
208
90
178
120
34
247
142
258
126
170
260
17
291
138
144
114
61
150
220
194
254
223
275
154
132
99
88
100
172
152
180
94
225
256
92
190
81
259
151
110
16
181
47
45
219
127
84
32
117
135
183
27
262
112
51
198
107
87
79
108
68
189
125
37
106
143
93
241
153
23
141
145
66
118
217
76
222
133
123
111
160
267
155
177

>  <PUBCHEM_MMFF94_PARTIAL_CHARGES>  (1) 
7
1 -0.34
10 0.4
2 -0.34
3 -0.57
7 0.06
8 0.34
9 0.45

>  <PUBCHEM_EFFECTIVE_ROTOR_COUNT>  (1) 
6

>  <PUBCHEM_PHARMACOPHORE_FEATURES>  (1) 
2
1 3 acceptor
4 4 5 6 7 hydrophobe

>  <PUBCHEM_HEAVY_ATOM_COUNT>  (1) 
10

>  <PUBCHEM_ATOM_DEF_STEREO_COUNT>  (1) 
0

>  <PUBCHEM_ATOM_UDEF_STEREO_COUNT>  (1) 
0

>  <PUBCHEM_BOND_DEF_STEREO_COUNT>  (1) 
0

>  <PUBCHEM_BOND_UDEF_STEREO_COUNT>  (1) 
0

>  <PUBCHEM_ISOTOPIC_ATOM_COUNT>  (1) 
0

>  <PUBCHEM_COMPONENT_COUNT>  (1) 
1

>  <PUBCHEM_CACTVS_TAUTO_COUNT>  (1) 
3

>  <PUBCHEM_CONFORMER_ID>  (1) 
0000252F00000001

>  <PUBCHEM_MMFF94_ENERGY>  (1) 
1.4973

>  <PUBCHEM_FEATURE_SELFOVERLAP>  (1) 
10.148

>  <PUBCHEM_SHAPE_FINGERPRINT>  (1) 
11062470 55 18272933808198327804
11987891 38 10953741088466713776
12932764 1 16153980335149950310
14123238 8 18113901563180179453
14325111 11 18410293601455305278
17834076 25 18259706696696904708
190213 19 17603871082881404055
20279233 1 18271814509820061438
20645477 70 17845939511682726670
20719005 15 18409450275714904775
22485316 2 18411134736145193302
23402539 116 18412256225843153949
42788 4 18272370854366761501
449060 50 18413390933941871853

>  <PUBCHEM_SHAPE_MULTIPOLES>  (1) 
185.38
8.87
0.97
0.65
1.5
0.09
0.01
-1.12
-0.69
-0.11
-0.06
0.19
-0.03
0.31

>  <PUBCHEM_SHAPE_SELFOVERLAP>  (1) 
338.888

>  <PUBCHEM_SHAPE_VOLUME>  (1) 
117.2

>  <PUBCHEM_COORDINATE_TYPE>  (1) 
2
5
10

$$$$
