9524
     RDKit          3D

  7  6  0  0  0  0  0  0  0  0999 V2000
    2.7885   -0.2409   -0.0001 F   0  0  0  0  0  0  0  0  0  0  0  0
   -0.8715   -0.0241    0.0000 N   0  0  0  0  0  0  0  0  0  0  0  0
    0.4921   -0.6986    0.0424 C   0  0  0  0  0  0  0  0  0  0  0  0
   -0.9922    0.7965   -1.2761 C   0  0  0  0  0  0  0  0  0  0  0  0
   -1.9628   -1.0845    0.0264 C   0  0  0  0  0  0  0  0  0  0  0  0
   -1.0232    0.8902    1.2072 C   0  0  0  0  0  0  0  0  0  0  0  0
    1.5691    0.3613    0.0002 C   0  0  0  0  0  0  0  0  0  0  0  0
  1  7  1  0
  2  3  1  0
  2  4  1  0
  2  5  1  0
  2  6  1  0
  3  7  1  0
M  CHG  1   2   1
M  END
>  <PUBCHEM_COMPOUND_CID>  (1) 
9524

>  <PUBCHEM_CONFORMER_RMSD>  (1) 
0.4

>  <PUBCHEM_CONFORMER_DIVERSEORDER>  (1) 
1
2
3

>  <PUBCHEM_MMFF94_PARTIAL_CHARGES>  (1) 
7
1 -0.34
2 -1.01
3 0.5
4 0.5
5 0.5
6 0.5
7 0.34

>  <PUBCHEM_EFFECTIVE_ROTOR_COUNT>  (1) 
2

>  <PUBCHEM_PHARMACOPHORE_FEATURES>  (1) 
1
1 2 cation

>  <PUBCHEM_HEAVY_ATOM_COUNT>  (1) 
7

>  <PUBCHEM_ATOM_DEF_STEREO_COUNT>  (1) 
0

>  <PUBCHEM_ATOM_UDEF_STEREO_COUNT>  (1) 
0

>  <PUBCHEM_BOND_DEF_STEREO_COUNT>  (1) 
0

>  <PUBCHEM_BOND_UDEF_STEREO_COUNT>  (1) 
0

>  <PUBCHEM_ISOTOPIC_ATOM_COUNT>  (1) 
0

>  <PUBCHEM_COMPONENT_COUNT>  (1) 
1

>  <PUBCHEM_CACTVS_TAUTO_COUNT>  (1) 
1

>  <PUBCHEM_CONFORMER_ID>  (1) 
0000253400000001

>  <PUBCHEM_MMFF94_ENERGY>  (1) 
21.9764

>  <PUBCHEM_FEATURE_SELFOVERLAP>  (1) 
5.074

>  <PUBCHEM_SHAPE_FINGERPRINT>  (1) 
137420 1 13161518492527088953
16714656 1 18040994072387049583
20096714 4 17702114559952471696
21040471 1 17628658361264648641
23552449 1 17967522467688439820
24536 1 18130781201307569570
29004967 10 17561085859824194674
5084963 1 18334012813314456074
5460574 1 9367353630368632426
5943 1 17829370017417297421

>  <PUBCHEM_SHAPE_MULTIPOLES>  (1) 
131.8
2.79
1.1
1.07
1.89
0.03
0.05
0.54
-0.02
-0.45
-0.03
-0.45
-0.41
-0.01

>  <PUBCHEM_SHAPE_SELFOVERLAP>  (1) 
229.995

>  <PUBCHEM_SHAPE_VOLUME>  (1) 
90.7

>  <PUBCHEM_COORDINATE_TYPE>  (1) 
2
5
10

$$$$
