953
     RDKit          3D

 12 11  0  0  1  0  0  0  0  0999 V2000
   -2.8596   -0.0564    0.2686 P   0  0  0  0  0  0  0  0  0  0  0  0
   -1.2784   -0.3920    0.2072 O   0  0  0  0  0  0  0  0  0  0  0  0
    3.2930   -1.5050    0.4482 O   0  0  0  0  0  0  0  0  0  0  0  0
   -3.4688   -0.8399   -1.0083 O   0  0  0  0  0  0  0  0  0  0  0  0
   -2.9152    1.4946   -0.1856 O   0  0  0  0  0  0  0  0  0  0  0  0
    4.0614    0.5845    0.0186 O   0  0  0  0  0  0  0  0  0  0  0  0
   -3.5219   -0.3567    1.5814 O   0  0  0  0  0  0  0  0  0  0  0  0
    1.5966    1.6738    0.0932 N   0  0  0  0  0  0  0  0  0  0  0  0
    0.8946   -0.5112   -0.8756 C   0  0  0  0  0  0  0  0  0  0  0  0
    1.6558    0.2199    0.2410 C   0  0  0  0  0  0  0  0  0  0  0  0
   -0.5800   -0.1353   -1.0022 C   0  0  0  0  0  0  0  0  0  0  0  0
    3.1224   -0.1765    0.2135 C   0  0  0  0  0  0  0  0  0  0  0  0
  1  2  1  0
  1  4  1  0
  1  5  1  0
  1  7  2  0
  2 11  1  0
  3 12  1  0
  6 12  2  0
  8 10  1  0
  9 10  1  0
  9 11  1  0
 10 12  1  0
M  END
>  <PUBCHEM_COMPOUND_CID>  (1) 
953

>  <PUBCHEM_CONFORMER_RMSD>  (1) 
0.6

>  <PUBCHEM_CONFORMER_DIVERSEORDER>  (1) 
3
58
54
43
56
2
41
12
25
14
39
11
51
63
40
48
27
59
32
19
45
47
44
7
50
9
29
62
8
53
15
13
4
18
52
37
31
64
57
21
17
33
22
55
16
30
60
34
46
24
1
61
38
23
26
42
35
10
49
6
20
5
28
36

>  <PUBCHEM_MMFF94_PARTIAL_CHARGES>  (1) 
16
1 1.51
10 0.33
11 0.28
12 0.66
18 0.36
19 0.36
2 -0.55
20 0.5
21 0.5
22 0.5
3 -0.65
4 -0.77
5 -0.77
6 -0.57
7 -0.7
8 -0.99

>  <PUBCHEM_EFFECTIVE_ROTOR_COUNT>  (1) 
5

>  <PUBCHEM_PHARMACOPHORE_FEATURES>  (1) 
9
1 3 acceptor
1 4 acceptor
1 5 acceptor
1 6 acceptor
1 7 acceptor
1 8 cation
1 8 donor
3 3 6 12 anion
4 1 4 5 7 anion

>  <PUBCHEM_HEAVY_ATOM_COUNT>  (1) 
12

>  <PUBCHEM_ATOM_DEF_STEREO_COUNT>  (1) 
0

>  <PUBCHEM_ATOM_UDEF_STEREO_COUNT>  (1) 
1

>  <PUBCHEM_BOND_DEF_STEREO_COUNT>  (1) 
0

>  <PUBCHEM_BOND_UDEF_STEREO_COUNT>  (1) 
0

>  <PUBCHEM_ISOTOPIC_ATOM_COUNT>  (1) 
0

>  <PUBCHEM_COMPONENT_COUNT>  (1) 
1

>  <PUBCHEM_CACTVS_TAUTO_COUNT>  (1) 
1

>  <PUBCHEM_CONFORMER_ID>  (1) 
000003B900000003

>  <PUBCHEM_MMFF94_ENERGY>  (1) 
-20.9631

>  <PUBCHEM_FEATURE_SELFOVERLAP>  (1) 
45.767

>  <PUBCHEM_SHAPE_FINGERPRINT>  (1) 
10219947 1 18343864403150179294
12251169 10 18410295847390800743
124424 183 18335694988595224989
12897270 3 9511461117251582994
12932764 1 18341617031236708183
13296908 3 15502375664085770375
14144814 61 18272646857217604982
14325111 11 18342453733794594878
15775835 57 15625951910604107515
177051 138 17241055395916279275
17834069 15 18410571747478907717
190213 19 17167581587624957590
19107657 47 18412252935328460213
20279233 1 16298378063338783258
20281407 28 16153423926568942182
20645477 70 18261941956281030846
20871999 31 10663807543598067929
21119208 17 10015588293840398016
22485316 2 15502367937513412258
23402539 116 18412252940330179701
23557571 272 13470692568170520137
3248919 1 17603588529852142991
449060 23 15502378893906581394
449060 50 17968383450112909076
528716 315 8214137478046427505
57812782 119 18259701211723006793

>  <PUBCHEM_SHAPE_MULTIPOLES>  (1) 
210.61
7.36
1.22
1.02
0.03
0.3
0.1
-0.33
1.45
0.28
-0.04
-0.8
-0.18
-0.2

>  <PUBCHEM_SHAPE_SELFOVERLAP>  (1) 
386.06

>  <PUBCHEM_SHAPE_VOLUME>  (1) 
133.6

>  <PUBCHEM_COORDINATE_TYPE>  (1) 
2
5
10

$$$$
