9531
     RDKit          3D

 15 14  0  0  0  0  0  0  0  0999 V2000
   -7.1480   -1.1648    0.5662 F   0  0  0  0  0  0  0  0  0  0  0  0
    7.9089   -0.5646   -0.0514 F   0  0  0  0  0  0  0  0  0  0  0  0
    0.4591   -1.2435   -0.2167 O   0  0  0  0  0  0  0  0  0  0  0  0
   -2.0043   -0.0226   -0.1300 C   0  0  0  0  0  0  0  0  0  0  0  0
   -3.2846    0.8054    0.0235 C   0  0  0  0  0  0  0  0  0  0  0  0
   -0.7419    0.7998    0.1143 C   0  0  0  0  0  0  0  0  0  0  0  0
   -4.5289   -0.0581   -0.1936 C   0  0  0  0  0  0  0  0  0  0  0  0
    3.0545   -0.2231   -0.0433 C   0  0  0  0  0  0  0  0  0  0  0  0
    1.8470    0.6956    0.1353 C   0  0  0  0  0  0  0  0  0  0  0  0
    4.3820    0.5274    0.1017 C   0  0  0  0  0  0  0  0  0  0  0  0
    0.5205   -0.0294   -0.0202 C   0  0  0  0  0  0  0  0  0  0  0  0
   -5.8476    0.7059   -0.0376 C   0  0  0  0  0  0  0  0  0  0  0  0
    5.5743   -0.4132   -0.0538 C   0  0  0  0  0  0  0  0  0  0  0  0
   -7.0827   -0.1358   -0.3180 C   0  0  0  0  0  0  0  0  0  0  0  0
    6.8916    0.3209    0.1236 C   0  0  0  0  0  0  0  0  0  0  0  0
  1 14  1  0
  2 15  1  0
  3 11  2  0
  4  5  1  0
  4  6  1  0
  5  7  1  0
  6 11  1  0
  7 12  1  0
  8  9  1  0
  8 10  1  0
  9 11  1  0
 10 13  1  0
 12 14  1  0
 13 15  1  0
M  END
>  <PUBCHEM_COMPOUND_CID>  (1) 
9531

>  <PUBCHEM_CONFORMER_RMSD>  (1) 
1.2

>  <PUBCHEM_CONFORMER_DIVERSEORDER>  (1) 
1
33
52
5
41
21
32
50
10
11
66
29
70
45
61
69
46
63
28
37
15
43
20
60
26
2
55
30
64
59
47
17
22
13
42
56
58
12
68
9
62
48
44
36
14
7
54
34
6
16
40
18
3
53
31
39
23
49
67
4
57
24
51
25
8
35
38
19
27
65

>  <PUBCHEM_MMFF94_PARTIAL_CHARGES>  (1) 
8
1 -0.34
11 0.45
14 0.34
15 0.34
2 -0.34
3 -0.57
6 0.06
9 0.06

>  <PUBCHEM_EFFECTIVE_ROTOR_COUNT>  (1) 
11

>  <PUBCHEM_PHARMACOPHORE_FEATURES>  (1) 
3
1 3 acceptor
4 8 9 10 13 hydrophobe
5 4 5 6 7 12 hydrophobe

>  <PUBCHEM_HEAVY_ATOM_COUNT>  (1) 
15

>  <PUBCHEM_ATOM_DEF_STEREO_COUNT>  (1) 
0

>  <PUBCHEM_ATOM_UDEF_STEREO_COUNT>  (1) 
0

>  <PUBCHEM_BOND_DEF_STEREO_COUNT>  (1) 
0

>  <PUBCHEM_BOND_UDEF_STEREO_COUNT>  (1) 
0

>  <PUBCHEM_ISOTOPIC_ATOM_COUNT>  (1) 
0

>  <PUBCHEM_COMPONENT_COUNT>  (1) 
1

>  <PUBCHEM_CACTVS_TAUTO_COUNT>  (1) 
3

>  <PUBCHEM_CONFORMER_ID>  (1) 
0000253B00000001

>  <PUBCHEM_MMFF94_ENERGY>  (1) 
2.7125

>  <PUBCHEM_FEATURE_SELFOVERLAP>  (1) 
15.223

>  <PUBCHEM_SHAPE_FINGERPRINT>  (1) 
10968037 39 18334294267259383445
11315181 36 18408044018456824033
12091667 2 16660363671857106109
13533116 47 16443333244503148304
14123256 10 18411700980290798015
1420 363 18343587347921558983
14251764 18 18410009927402539626
14251764 46 18413388735820559869
14729087 3 10159704581987323579
17834076 25 15357697483001402820
18006028 8 17989486320507556209
20621476 8 9943813287418569840
20735858 18 18131068229893330358
21150785 3 16950564385002518726
21267235 1 18341898493175873809
22224240 67 15502374547800546416
23035841 295 17632294588352356239
23402539 116 17704345580624896597
23521765 1 18341894091039889860
246663 6 18273218590706090334
33532 11 18187642467146157410
33684 2 18333448733626386833
3545911 37 18342737416326499334
42788 4 18411699885538569053
57583515 80 16298387959555324009
59755656 520 18260822722089649967
8209 1 18335420166717969604

>  <PUBCHEM_SHAPE_MULTIPOLES>  (1) 
288.28
22.34
0.95
0.63
2.69
0.06
0
3.13
-0.38
-0.41
-0.03
-0.18
0.01
0.29

>  <PUBCHEM_SHAPE_SELFOVERLAP>  (1) 
527.951

>  <PUBCHEM_SHAPE_VOLUME>  (1) 
182.3

>  <PUBCHEM_COORDINATE_TYPE>  (1) 
2
5
10

$$$$
