9533
     RDKit          3D

  7  6  0  0  0  0  0  0  0  0999 V2000
    3.9273    0.4576   -0.0039 Cl  0  0  0  0  0  0  0  0  0  0  0  0
   -3.9309    0.4538    0.0039 Cl  0  0  0  0  0  0  0  0  0  0  0  0
    0.0068   -0.4911    0.0000 N   0  0  0  0  0  0  0  0  0  0  0  0
    1.1985    0.3248    0.0003 C   0  0  0  0  0  0  0  0  0  0  0  0
   -1.2016    0.3302   -0.0003 C   0  0  0  0  0  0  0  0  0  0  0  0
    2.4504   -0.5382    0.0061 C   0  0  0  0  0  0  0  0  0  0  0  0
   -2.4506   -0.5371   -0.0062 C   0  0  0  0  0  0  0  0  0  0  0  0
  1  6  1  0
  2  7  1  0
  3  4  1  0
  3  5  1  0
  4  6  1  0
  5  7  1  0
M  END
>  <PUBCHEM_COMPOUND_CID>  (1) 
9533

>  <PUBCHEM_CONFORMER_RMSD>  (1) 
0.6

>  <PUBCHEM_CONFORMER_DIVERSEORDER>  (1) 
1
14
12
18
11
3
19
5
8
16
15
17
2
9
20
10
4
6
13
7

>  <PUBCHEM_MMFF94_PARTIAL_CHARGES>  (1) 
8
1 -0.29
12 0.36
2 -0.29
3 -0.9
4 0.27
5 0.27
6 0.29
7 0.29

>  <PUBCHEM_EFFECTIVE_ROTOR_COUNT>  (1) 
4

>  <PUBCHEM_PHARMACOPHORE_FEATURES>  (1) 
2
1 3 cation
1 3 donor

>  <PUBCHEM_HEAVY_ATOM_COUNT>  (1) 
7

>  <PUBCHEM_ATOM_DEF_STEREO_COUNT>  (1) 
0

>  <PUBCHEM_ATOM_UDEF_STEREO_COUNT>  (1) 
0

>  <PUBCHEM_BOND_DEF_STEREO_COUNT>  (1) 
0

>  <PUBCHEM_BOND_UDEF_STEREO_COUNT>  (1) 
0

>  <PUBCHEM_ISOTOPIC_ATOM_COUNT>  (1) 
0

>  <PUBCHEM_COMPONENT_COUNT>  (1) 
1

>  <PUBCHEM_CACTVS_TAUTO_COUNT>  (1) 
1

>  <PUBCHEM_CONFORMER_ID>  (1) 
0000253D00000001

>  <PUBCHEM_MMFF94_ENERGY>  (1) 
-2.9268

>  <PUBCHEM_FEATURE_SELFOVERLAP>  (1) 
10.148

>  <PUBCHEM_SHAPE_FINGERPRINT>  (1) 
11062470 55 18410575084668379649
14325111 11 18410573985156901282
20211469 26 10592043553096914521
20719005 15 18410293622803417707
5460574 1 9295290542946155138

>  <PUBCHEM_SHAPE_MULTIPOLES>  (1) 
142.82
7.62
0.82
0.62
0.02
0
0
-1.22
0
0
0
0
-0.01
0

>  <PUBCHEM_SHAPE_SELFOVERLAP>  (1) 
230.487

>  <PUBCHEM_SHAPE_VOLUME>  (1) 
99.7

>  <PUBCHEM_COORDINATE_TYPE>  (1) 
2
5
10

$$$$
