9534
     RDKit          3D

 10  9  0  0  0  0  0  0  0  0999 V2000
    4.3652   -0.9771    0.5810 F   0  0  0  0  0  0  0  0  0  0  0  0
   -4.4250    0.5562    0.2181 O   0  0  0  0  0  0  0  0  0  0  0  0
   -3.3311   -1.3729   -0.2717 O   0  0  0  0  0  0  0  0  0  0  0  0
    0.4658    0.7081    0.0455 C   0  0  0  0  0  0  0  0  0  0  0  0
    1.7678   -0.0560   -0.2116 C   0  0  0  0  0  0  0  0  0  0  0  0
   -0.7861   -0.1617   -0.0846 C   0  0  0  0  0  0  0  0  0  0  0  0
    3.0182    0.8203   -0.1083 C   0  0  0  0  0  0  0  0  0  0  0  0
   -2.0546    0.6526    0.1696 C   0  0  0  0  0  0  0  0  0  0  0  0
    4.2838    0.0131   -0.3468 C   0  0  0  0  0  0  0  0  0  0  0  0
   -3.3040   -0.1827    0.0088 C   0  0  0  0  0  0  0  0  0  0  0  0
  1  9  1  0
  2 10  1  0
  3 10  2  0
  4  5  1  0
  4  6  1  0
  5  7  1  0
  6  8  1  0
  7  9  1  0
  8 10  1  0
M  END
>  <PUBCHEM_COMPOUND_CID>  (1) 
9534

>  <PUBCHEM_CONFORMER_RMSD>  (1) 
0.6

>  <PUBCHEM_CONFORMER_DIVERSEORDER>  (1) 
1
186
31
188
23
177
44
46
2
192
45
182
36
175
40
27
145
191
15
189
181
12
187
26
3
112
152
123
61
109
183
68
35
49
81
180
185
7
147
37
138
83
53
97
95
155
86
57
88
54
87
149
168
20
93
73
82
29
139
170
142
11
146
85
10
43
136
101
80
42
153
184
14
130
91
134
129
114
75
176
65
18
165
143
167
76
66
19
131
135
132
33
173
63
41
116
38
163
94
51
84
159
126
60
22
128
13
55
118
39
70
96
6
178
59
121
107
89
47
104
78
69
122
21
125
190
103
137
156
157
127
162
48
119
171
151
100
161
172
58
148
166
160
56
72
71
67
98
164
64
25
99
158
62
179
50
115
133
169
174
92
79
141
34
124
16
32
28
52
154
144
110
111
106
17
113
74
102
140
9
150
4
8
30
105
117
24
108
77
90
120
5

>  <PUBCHEM_MMFF94_PARTIAL_CHARGES>  (1) 
7
1 -0.34
10 0.66
2 -0.65
23 0.5
3 -0.57
8 0.06
9 0.34

>  <PUBCHEM_EFFECTIVE_ROTOR_COUNT>  (1) 
6

>  <PUBCHEM_PHARMACOPHORE_FEATURES>  (1) 
4
1 2 acceptor
1 3 acceptor
3 2 3 10 anion
5 4 5 6 7 8 hydrophobe

>  <PUBCHEM_HEAVY_ATOM_COUNT>  (1) 
10

>  <PUBCHEM_ATOM_DEF_STEREO_COUNT>  (1) 
0

>  <PUBCHEM_ATOM_UDEF_STEREO_COUNT>  (1) 
0

>  <PUBCHEM_BOND_DEF_STEREO_COUNT>  (1) 
0

>  <PUBCHEM_BOND_UDEF_STEREO_COUNT>  (1) 
0

>  <PUBCHEM_ISOTOPIC_ATOM_COUNT>  (1) 
0

>  <PUBCHEM_COMPONENT_COUNT>  (1) 
1

>  <PUBCHEM_CACTVS_TAUTO_COUNT>  (1) 
1

>  <PUBCHEM_CONFORMER_ID>  (1) 
0000253E00000001

>  <PUBCHEM_MMFF94_ENERGY>  (1) 
1.5926

>  <PUBCHEM_FEATURE_SELFOVERLAP>  (1) 
20.355

>  <PUBCHEM_SHAPE_FINGERPRINT>  (1) 
11062470 55 18409732871699308597
11987891 27 18407755950045742574
11987891 38 18409169904829931082
12932764 1 14129334160686350401
14123238 8 17418092135370611564
14325111 11 18412546539102949597
177051 138 18413109446707961222
18186145 218 15647053802083613284
190213 19 16917073260699213876
20279233 1 17203335515611703629
20645477 70 12613019575286376016
20719005 15 18410857667751907957
20828058 44 18131070441390011639
22485316 2 18410290328568743948
23402539 116 18412537708623873988
42 15 18411136922647244970

>  <PUBCHEM_SHAPE_MULTIPOLES>  (1) 
186.78
9.49
1.01
0.64
1.58
0.14
0
1.31
-0.32
-0.17
-0.02
0.18
0.02
-0.37

>  <PUBCHEM_SHAPE_SELFOVERLAP>  (1) 
340.122

>  <PUBCHEM_SHAPE_VOLUME>  (1) 
118.7

>  <PUBCHEM_COORDINATE_TYPE>  (1) 
2
5
10

$$$$
