9537
     RDKit          3D

  9  8  0  0  0  0  0  0  0  0999 V2000
   -4.8899    0.1289    0.0425 F   0  0  0  0  0  0  0  0  0  0  0  0
    4.7941   -0.5969    0.0194 N   0  0  0  0  0  0  0  0  0  0  0  0
   -0.0177    0.5817   -0.0223 C   0  0  0  0  0  0  0  0  0  0  0  0
   -1.2090   -0.3798   -0.0284 C   0  0  0  0  0  0  0  0  0  0  0  0
    1.3103   -0.1842    0.0098 C   0  0  0  0  0  0  0  0  0  0  0  0
   -2.5612    0.3317    0.0089 C   0  0  0  0  0  0  0  0  0  0  0  0
    2.5296    0.7390   -0.0110 C   0  0  0  0  0  0  0  0  0  0  0  0
   -3.7504   -0.6122   -0.0250 C   0  0  0  0  0  0  0  0  0  0  0  0
    3.7943   -0.0083    0.0062 C   0  0  0  0  0  0  0  0  0  0  0  0
  1  8  1  0
  2  9  3  0
  3  4  1  0
  3  5  1  0
  4  6  1  0
  5  7  1  0
  6  8  1  0
  7  9  1  0
M  END
>  <PUBCHEM_COMPOUND_CID>  (1) 
9537

>  <PUBCHEM_CONFORMER_RMSD>  (1) 
0.6

>  <PUBCHEM_CONFORMER_DIVERSEORDER>  (1) 
1
75
30
14
78
62
38
67
8
2
73
45
34
70
7
27
19
66
31
32
71
64
22
41
39
13
65
26
50
77
9
43
46
79
18
15
42
6
37
60
48
72
12
51
69
47
16
25
57
53
58
36
11
35
10
17
63
24
55
74
52
59
49
3
29
68
21
61
76
20
5
54
56
23
28
44
4
40
33

>  <PUBCHEM_MMFF94_PARTIAL_CHARGES>  (1) 
5
1 -0.34
2 -0.56
7 0.2
8 0.34
9 0.36

>  <PUBCHEM_EFFECTIVE_ROTOR_COUNT>  (1) 
5

>  <PUBCHEM_PHARMACOPHORE_FEATURES>  (1) 
2
1 2 acceptor
5 3 4 5 6 7 hydrophobe

>  <PUBCHEM_HEAVY_ATOM_COUNT>  (1) 
9

>  <PUBCHEM_ATOM_DEF_STEREO_COUNT>  (1) 
0

>  <PUBCHEM_ATOM_UDEF_STEREO_COUNT>  (1) 
0

>  <PUBCHEM_BOND_DEF_STEREO_COUNT>  (1) 
0

>  <PUBCHEM_BOND_UDEF_STEREO_COUNT>  (1) 
0

>  <PUBCHEM_ISOTOPIC_ATOM_COUNT>  (1) 
0

>  <PUBCHEM_COMPONENT_COUNT>  (1) 
1

>  <PUBCHEM_CACTVS_TAUTO_COUNT>  (1) 
1

>  <PUBCHEM_CONFORMER_ID>  (1) 
0000254100000001

>  <PUBCHEM_MMFF94_ENERGY>  (1) 
-0.0798

>  <PUBCHEM_FEATURE_SELFOVERLAP>  (1) 
10.148

>  <PUBCHEM_SHAPE_FINGERPRINT>  (1) 
11062470 55 9367348136852168812
114248 4 11314030175278862765
12932764 1 15502923242409248268
14123238 8 10447927273946397721
17834076 25 14707206613137294973
18342897 14 9295290542687880766
20719005 15 18410573989446431431
20828058 44 17704071823957565871
21119208 17 17167581596167386902
21293036 1 12468355752124009244
22485316 2 18343861138774684566
23402539 116 17489863826457846301
42788 4 18410573989451732165

>  <PUBCHEM_SHAPE_MULTIPOLES>  (1) 
172.96
9.81
0.81
0.6
0.73
0.02
0
-1.43
-0.1
-0.13
0
-0.01
0
-0.02

>  <PUBCHEM_SHAPE_SELFOVERLAP>  (1) 
308.625

>  <PUBCHEM_SHAPE_VOLUME>  (1) 
110.1

>  <PUBCHEM_COORDINATE_TYPE>  (1) 
2
5
10

$$$$
