954
     RDKit          3D

 15 14  0  0  1  0  0  0  0  0999 V2000
    0.1974    0.1009    0.0836 O   0  0  0  0  0  0  0  0  0  0  0  0
   -4.6932    1.6262    0.8486 O   0  0  0  0  0  0  0  0  0  0  0  0
   -5.5500    0.4718   -0.9049 O   0  0  0  0  0  0  0  0  0  0  0  0
    1.4141   -1.8213    0.4628 O   0  0  0  0  0  0  0  0  0  0  0  0
    6.2320   -0.1200   -0.1414 O   0  0  0  0  0  0  0  0  0  0  0  0
    4.8980    1.7041   -0.3769 O   0  0  0  0  0  0  0  0  0  0  0  0
   -3.7657   -1.5337   -0.6563 N   0  0  0  0  0  0  0  0  0  0  0  0
   -2.2261    0.2861    0.0677 C   0  0  0  0  0  0  0  0  0  0  0  0
   -3.5862   -0.4038    0.2551 C   0  0  0  0  0  0  0  0  0  0  0  0
   -1.0129   -0.6247    0.2417 C   0  0  0  0  0  0  0  0  0  0  0  0
    2.5421    0.2932    0.0260 C   0  0  0  0  0  0  0  0  0  0  0  0
   -4.7094    0.5815   -0.0218 C   0  0  0  0  0  0  0  0  0  0  0  0
    1.3538   -0.6240    0.2202 C   0  0  0  0  0  0  0  0  0  0  0  0
    3.8776   -0.4392    0.0743 C   0  0  0  0  0  0  0  0  0  0  0  0
    5.0284    0.5030   -0.1789 C   0  0  0  0  0  0  0  0  0  0  0  0
  1 10  1  0
  1 13  1  0
  2 12  1  0
  3 12  2  0
  4 13  2  0
  5 15  1  0
  6 15  2  0
  7  9  1  0
  8  9  1  0
  8 10  1  0
  9 12  1  0
 11 13  1  0
 11 14  1  0
 14 15  1  0
M  END
>  <PUBCHEM_COMPOUND_CID>  (1) 
954

>  <PUBCHEM_CONFORMER_RMSD>  (1) 
0.8

>  <PUBCHEM_CONFORMER_DIVERSEORDER>  (1) 
1
219
51
193
74
101
210
42
226
152
214
156
87
191
154
54
110
85
172
20
162
150
237
37
7
86
33
212
232
12
242
43
89
230
202
44
137
139
188
158
34
228
88
143
90
73
72
18
116
240
71
184
48
195
99
238
27
22
112
84
91
170
161
146
17
234
207
62
157
222
183
168
125
218
59
11
4
111
83
213
94
50
145
176
115
135
233
93
131
107
227
215
32
13
81
231
120
204
60
130
198
221
174
38
235
155
180
140
98
129
117
124
178
80
61
192
21
14
147
114
55
181
187
9
46
58
65
211
205
75
144
102
141
35
41
25
169
67
201
69
209
6
8
128
127
171
203
2
151
153
15
45
24
122
30
216
39
109
78
57
95
239
223
189
113
56
70
40
31
194
200
208
148
132
106
52
26
79
206
92
167
68
197
199
217
165
138
134
164
82
118
179
96
182
241
224
19
220
3
149
76
229
66
175
236
136
36
190
28
133
29
63
53
159
166
49
97
186
23
173
103
177
104
108
10
142
47
225
160
16
121
105
77
64
163
123
126
5
100
196
185
119

>  <PUBCHEM_MMFF94_PARTIAL_CHARGES>  (1) 
18
1 -0.43
10 0.28
11 0.06
12 0.66
13 0.66
14 0.06
15 0.66
2 -0.65
23 0.36
24 0.36
27 0.5
28 0.5
3 -0.57
4 -0.57
5 -0.65
6 -0.57
7 -0.99
9 0.33

>  <PUBCHEM_EFFECTIVE_ROTOR_COUNT>  (1) 
8

>  <PUBCHEM_PHARMACOPHORE_FEATURES>  (1) 
9
1 2 acceptor
1 3 acceptor
1 4 acceptor
1 5 acceptor
1 6 acceptor
1 7 cation
1 7 donor
3 2 3 12 anion
3 5 6 15 anion

>  <PUBCHEM_HEAVY_ATOM_COUNT>  (1) 
15

>  <PUBCHEM_ATOM_DEF_STEREO_COUNT>  (1) 
0

>  <PUBCHEM_ATOM_UDEF_STEREO_COUNT>  (1) 
1

>  <PUBCHEM_BOND_DEF_STEREO_COUNT>  (1) 
0

>  <PUBCHEM_BOND_UDEF_STEREO_COUNT>  (1) 
0

>  <PUBCHEM_ISOTOPIC_ATOM_COUNT>  (1) 
0

>  <PUBCHEM_COMPONENT_COUNT>  (1) 
1

>  <PUBCHEM_CACTVS_TAUTO_COUNT>  (1) 
1

>  <PUBCHEM_CONFORMER_ID>  (1) 
000003BA00000001

>  <PUBCHEM_MMFF94_ENERGY>  (1) 
12.678

>  <PUBCHEM_FEATURE_SELFOVERLAP>  (1) 
45.79

>  <PUBCHEM_SHAPE_FINGERPRINT>  (1) 
10014705 185 18259980466755545909
100836 57 18259991478613894796
10912923 1 18334851723185028362
11401426 45 18335138700056828439
12091667 2 18341614836418976418
12596602 18 13190343478413681636
12714333 28 18343300370880784584
13288520 33 10879993562579271379
13533116 47 16733253561589486184
14251718 22 16845851299856653645
14252887 29 11242241931984106400
14350574 20 12607397806534441791
14455015 7 12031785890082117965
14528608 73 18412823616281023572
15048467 5 18408322164332713661
15242439 84 17489867145960995059
15501527 16 18334860523936722147
17834072 33 18201717383505334542
17834076 25 18261110772676393859
20281389 69 18113051631938878997
20645477 56 17530400629366002079
20645477 70 18130509608998464094
212847 35 18335703871373758416
23402539 116 18342453759669867830
23402655 69 18342738502916431803
300161 21 18186794777544585723
3545911 37 18410292510781447475
42 15 10953459626374567123
42788 4 18409730668523328624
441001 317 18202285784099607681
49783359 22 10881402049627492649
542803 24 18407760326321907632

>  <PUBCHEM_SHAPE_MULTIPOLES>  (1) 
268.5
14.71
1.35
0.72
4.31
0.03
0.01
-4.68
1.86
-0.21
-0.05
-0.49
-0.03
-0.68

>  <PUBCHEM_SHAPE_SELFOVERLAP>  (1) 
517.449

>  <PUBCHEM_SHAPE_VOLUME>  (1) 
161.9

>  <PUBCHEM_COORDINATE_TYPE>  (1) 
2
5
10

$$$$
