9544
     RDKit          3D

 12 11  0  0  0  0  0  0  0  0999 V2000
    7.0679   -0.5898    0.1353 Cl  0  0  0  0  0  0  0  0  0  0  0  0
   -5.8855   -1.1610   -0.4654 F   0  0  0  0  0  0  0  0  0  0  0  0
    0.5235    0.5492   -0.1032 C   0  0  0  0  0  0  0  0  0  0  0  0
   -0.7909   -0.1702    0.2178 C   0  0  0  0  0  0  0  0  0  0  0  0
    1.7633   -0.3176    0.1303 C   0  0  0  0  0  0  0  0  0  0  0  0
   -2.0354    0.6673   -0.0858 C   0  0  0  0  0  0  0  0  0  0  0  0
    3.0784    0.4026   -0.1881 C   0  0  0  0  0  0  0  0  0  0  0  0
   -3.3146   -0.0886    0.2821 C   0  0  0  0  0  0  0  0  0  0  0  0
    4.3605   -0.3915    0.0815 C   0  0  0  0  0  0  0  0  0  0  0  0
   -4.5611    0.7333   -0.0507 C   0  0  0  0  0  0  0  0  0  0  0  0
    5.6287    0.3914   -0.2334 C   0  0  0  0  0  0  0  0  0  0  0  0
   -5.8350   -0.0252    0.2797 C   0  0  0  0  0  0  0  0  0  0  0  0
  1 11  1  0
  2 12  1  0
  3  4  1  0
  3  5  1  0
  4  6  1  0
  5  7  1  0
  6  8  1  0
  7  9  1  0
  8 10  1  0
  9 11  1  0
 10 12  1  0
M  END
>  <PUBCHEM_COMPOUND_CID>  (1) 
9544

>  <PUBCHEM_CONFORMER_RMSD>  (1) 
1

>  <PUBCHEM_CONFORMER_DIVERSEORDER>  (1) 
1
33
294
82
431
419
35
430
26
5
362
345
241
93
420
251
46
48
277
44
212
49
107
242
190
462
234
173
476
385
255
380
387
28
185
471
327
370
186
140
2
418
298
201
10
448
75
372
261
491
502
389
178
428
9
114
334
475
329
74
64
259
302
7
270
396
307
467
253
16
40
258
344
443
437
309
409
67
421
96
163
109
99
80

>  <PUBCHEM_MMFF94_PARTIAL_CHARGES>  (1) 
4
1 -0.29
11 0.29
12 0.34
2 -0.34

>  <PUBCHEM_EFFECTIVE_ROTOR_COUNT>  (1) 
9

>  <PUBCHEM_PHARMACOPHORE_FEATURES>  (1) 
0

>  <PUBCHEM_HEAVY_ATOM_COUNT>  (1) 
12

>  <PUBCHEM_ATOM_DEF_STEREO_COUNT>  (1) 
0

>  <PUBCHEM_ATOM_UDEF_STEREO_COUNT>  (1) 
0

>  <PUBCHEM_BOND_DEF_STEREO_COUNT>  (1) 
0

>  <PUBCHEM_BOND_UDEF_STEREO_COUNT>  (1) 
0

>  <PUBCHEM_ISOTOPIC_ATOM_COUNT>  (1) 
0

>  <PUBCHEM_COMPONENT_COUNT>  (1) 
1

>  <PUBCHEM_CACTVS_TAUTO_COUNT>  (1) 
1

>  <PUBCHEM_CONFORMER_ID>  (1) 
0000254800000001

>  <PUBCHEM_MMFF94_ENERGY>  (1) 
-0.5602

>  <PUBCHEM_FEATURE_SELFOVERLAP>  (1) 
0

>  <PUBCHEM_SHAPE_FINGERPRINT>  (1) 
12091667 2 18040718056846515569
12815109 37 12324241667717630868
13533116 47 16878214274233734832
14123238 8 18186520999006740689
1420 363 16702025283286083870
14251718 22 18412826888829792737
14251764 46 17847061077640012628
14729087 3 10881396551774065175
17834072 33 18341332274836606453
17834076 25 18411419505736067520
20621476 38 18340206272874396254
20621476 8 17458624467297018205
20645477 70 18264208024492972906
20767249 13 18408042909410788488
20767249 213 7997966873412490978
21130983 4 11671777183298751970
23035841 295 18343019990894095378
23402539 116 18409444782873901981
23521765 1 18341895186050724552
42788 4 18335421261897771716
57583515 80 17240202127611515833
8209 1 18186239528609820965

>  <PUBCHEM_SHAPE_MULTIPOLES>  (1) 
241.55
18.54
0.88
0.65
5.81
0.03
-0.01
3.22
0.37
-0.31
0.05
-0.07
0.02
-0.3

>  <PUBCHEM_SHAPE_SELFOVERLAP>  (1) 
420.929

>  <PUBCHEM_SHAPE_VOLUME>  (1) 
159.3

>  <PUBCHEM_COORDINATE_TYPE>  (1) 
2
5
10

$$$$
