9547
     RDKit          3D

 12 11  0  0  0  0  0  0  0  0999 V2000
    3.6668    0.9510   -1.1873 F   0  0  0  0  0  0  0  0  0  0  0  0
    4.8070    1.2225    0.6581 O   0  0  0  0  0  0  0  0  0  0  0  0
   -1.3312    0.0531    0.2632 C   0  0  0  0  0  0  0  0  0  0  0  0
   -0.1887   -0.8306   -0.2433 C   0  0  0  0  0  0  0  0  0  0  0  0
   -2.6806   -0.4206   -0.2816 C   0  0  0  0  0  0  0  0  0  0  0  0
    1.1574   -0.3828    0.3299 C   0  0  0  0  0  0  0  0  0  0  0  0
   -3.8642    0.4159    0.2127 C   0  0  0  0  0  0  0  0  0  0  0  0
    2.2950   -1.2883   -0.1521 C   0  0  0  0  0  0  0  0  0  0  0  0
   -5.2189   -0.1014   -0.2722 C   0  0  0  0  0  0  0  0  0  0  0  0
    3.6465   -0.8843    0.4300 C   0  0  0  0  0  0  0  0  0  0  0  0
   -6.3585    0.7696    0.2346 C   0  0  0  0  0  0  0  0  0  0  0  0
    4.0693    0.4960    0.0079 C   0  0  0  0  0  0  0  0  0  0  0  0
  1 12  1  0
  2 12  2  0
  3  4  1  0
  3  5  1  0
  4  6  1  0
  5  7  1  0
  6  8  1  0
  7  9  1  0
  8 10  1  0
  9 11  1  0
 10 12  1  0
M  END
>  <PUBCHEM_COMPOUND_CID>  (1) 
9547

>  <PUBCHEM_CONFORMER_RMSD>  (1) 
0.8

>  <PUBCHEM_CONFORMER_DIVERSEORDER>  (1) 
1
290
69
126
273
2
319
204
179
83
304
291
3
55
150
314
19
220
91
184
62
114
66
5
196
191
35
51
232
194
38
57
205
286
138
302
178
121
31
60
93
87
306
269
253
95
4
233
151
323
23
18
146
21
297
49
236
261
183
199
266
71
33
80
110
244
6
240
228
14
256
127
300
28
230
139
133
311
48
116
72
9
143
77
267
26
200
293
320
27
225
169
303
296
210
79
89
165
272
298
29
30
218
281
50
166
96
120
111
313
131
59
88
247
185
263
276
213
145
90
104
309
97
136
65
279
212
157
221
190
22
137
164
141
241
75
17
45
322
106
63
229
214
130
308
119
246
41
211
264
16
207
310
208
82
172
318
73
107
32
305
299
20
197
74
43
289
124
34
128
39
129
56
239
132
315
85
102
117
123
76
40
243
288
203
316
198
292
159
160
140
223
142
47
54
177
152
101
188
64
219
227
284
113
175
125
231
53
259
92
12
275
162
154
171
70
258
307
68
86
201
237
94
122
294
262
176
285
238
46
115
242
148
7
161
67
317
58
42
274
135
158
321
215
44
245
109
155
144
36
202
84
174
252
189
105
134
295
278
10
163
249
112
15
312
234
81
301
149
11
254
24
156
206
8
251
277
193
99
37
13
226
282
98
181
61
186
100
235
257
147
182
25
52
173
280
118
108
265
224
78
268
170
209
271
217
248
187
168
250
153
255
270
195
222
180
103
260
192
216
283
167
287

>  <PUBCHEM_MMFF94_PARTIAL_CHARGES>  (1) 
4
1 -0.22
10 0.06
12 0.73
2 -0.57

>  <PUBCHEM_EFFECTIVE_ROTOR_COUNT>  (1) 
8

>  <PUBCHEM_PHARMACOPHORE_FEATURES>  (1) 
1
1 11 hydrophobe

>  <PUBCHEM_HEAVY_ATOM_COUNT>  (1) 
12

>  <PUBCHEM_ATOM_DEF_STEREO_COUNT>  (1) 
0

>  <PUBCHEM_ATOM_UDEF_STEREO_COUNT>  (1) 
0

>  <PUBCHEM_BOND_DEF_STEREO_COUNT>  (1) 
0

>  <PUBCHEM_BOND_UDEF_STEREO_COUNT>  (1) 
0

>  <PUBCHEM_ISOTOPIC_ATOM_COUNT>  (1) 
0

>  <PUBCHEM_COMPONENT_COUNT>  (1) 
1

>  <PUBCHEM_CACTVS_TAUTO_COUNT>  (1) 
1

>  <PUBCHEM_CONFORMER_ID>  (1) 
0000254B00000001

>  <PUBCHEM_MMFF94_ENERGY>  (1) 
-2.2493

>  <PUBCHEM_FEATURE_SELFOVERLAP>  (1) 
5.074

>  <PUBCHEM_SHAPE_FINGERPRINT>  (1) 
11287383 113 17967256412139959915
117890 112 18409730630327753801
12714333 28 17988922283984995961
13533116 47 17458900423320193810
14123238 8 18342737412564288415
14251718 22 17847058913419672183
14251732 16 18337673118041969163
14455015 7 10663819710876277669
15048467 5 18343581841647105913
15242439 84 13398626160923114639
17834072 33 18202278126388988567
17834076 25 18060418006501971595
20605781 2 18413669119184584867
20645477 70 18200877257975350230
20767249 13 12901547940658457259
20767249 213 18413669106916815873
212847 35 18201715141738199554
23402539 116 12035446151923293795
23402655 69 18060415828484164615
23532345 1 18333736801325480890
23590187 198 11169912784391348785
300161 21 18412537713472735487
4047638 21 18259704493331507882
42 15 11241968170309632299
42788 4 18411418389276770107
449060 50 18333731299757159239
522135 26 13901907808711872974
5374978 207 18113331990466348128
57483677 66 9727625103826414401
59345606 91 18413669106647849057
7062679 6 17631459978003212633

>  <PUBCHEM_SHAPE_MULTIPOLES>  (1) 
233.81
14.04
1.13
0.77
11.97
0.01
0.08
4.74
-0.46
-1.08
0
-0.37
0.08
-0.29

>  <PUBCHEM_SHAPE_SELFOVERLAP>  (1) 
423.186

>  <PUBCHEM_SHAPE_VOLUME>  (1) 
150.1

>  <PUBCHEM_COORDINATE_TYPE>  (1) 
2
5
10

$$$$
