9556
     RDKit          3D

 19 19  0  0  0  0  0  0  0  0999 V2000
    1.4259    1.7872   -1.5313 F   0  0  0  0  0  0  0  0  0  0  0  0
    2.3116    1.8598    0.4510 F   0  0  0  0  0  0  0  0  0  0  0  0
    1.4045   -0.9313   -1.4976 F   0  0  0  0  0  0  0  0  0  0  0  0
    3.3484   -0.0168   -1.1633 F   0  0  0  0  0  0  0  0  0  0  0  0
    1.1694   -1.3590    1.2575 F   0  0  0  0  0  0  0  0  0  0  0  0
    3.1443   -0.4717    1.5308 F   0  0  0  0  0  0  0  0  0  0  0  0
    2.9089   -2.2614    0.3069 F   0  0  0  0  0  0  0  0  0  0  0  0
   -0.1235    1.5410    1.3743 O   0  0  0  0  0  0  0  0  0  0  0  0
   -0.7835    0.3314   -0.5282 N   0  0  0  0  0  0  0  0  0  0  0  0
    1.4837    1.1229   -0.3417 C   0  0  0  0  0  0  0  0  0  0  0  0
    2.1316   -0.2311   -0.5903 C   0  0  0  0  0  0  0  0  0  0  0  0
    0.1002    1.0347    0.2786 C   0  0  0  0  0  0  0  0  0  0  0  0
    2.3362   -1.0830    0.6388 C   0  0  0  0  0  0  0  0  0  0  0  0
   -2.1469    0.0513   -0.2763 C   0  0  0  0  0  0  0  0  0  0  0  0
   -2.8746   -0.6714   -1.2076 C   0  0  0  0  0  0  0  0  0  0  0  0
   -2.7270    0.5067    0.8964 C   0  0  0  0  0  0  0  0  0  0  0  0
   -4.2194   -0.9463   -0.9594 C   0  0  0  0  0  0  0  0  0  0  0  0
   -4.0718    0.2318    1.1446 C   0  0  0  0  0  0  0  0  0  0  0  0
   -4.8180   -0.4947    0.2168 C   0  0  0  0  0  0  0  0  0  0  0  0
  1 10  1  0
  2 10  1  0
  3 11  1  0
  4 11  1  0
  5 13  1  0
  6 13  1  0
  7 13  1  0
  8 12  2  0
  9 12  1  0
  9 14  1  0
 10 11  1  0
 10 12  1  0
 11 13  1  0
 14 15  2  0
 14 16  1  0
 15 17  1  0
 16 18  2  0
 17 19  2  0
 18 19  1  0
M  END
>  <PUBCHEM_COMPOUND_CID>  (1) 
9556

>  <PUBCHEM_CONFORMER_RMSD>  (1) 
0.6

>  <PUBCHEM_CONFORMER_DIVERSEORDER>  (1) 
1
19
11
14
25
26
8
22
4
23
16
5
15
7
13
24
17
18
2
6
9
27
21
10
12
20
3

>  <PUBCHEM_MMFF94_PARTIAL_CHARGES>  (1) 
25
1 -0.34
10 0.74
11 0.68
12 0.57
13 1.02
14 0.12
15 -0.15
16 -0.15
17 -0.15
18 -0.15
19 -0.15
2 -0.34
20 0.37
21 0.15
22 0.15
23 0.15
24 0.15
25 0.15
3 -0.34
4 -0.34
5 -0.34
6 -0.34
7 -0.34
8 -0.57
9 -0.55

>  <PUBCHEM_EFFECTIVE_ROTOR_COUNT>  (1) 
5

>  <PUBCHEM_PHARMACOPHORE_FEATURES>  (1) 
3
1 8 acceptor
1 9 donor
6 14 15 16 17 18 19 rings

>  <PUBCHEM_HEAVY_ATOM_COUNT>  (1) 
19

>  <PUBCHEM_ATOM_DEF_STEREO_COUNT>  (1) 
0

>  <PUBCHEM_ATOM_UDEF_STEREO_COUNT>  (1) 
0

>  <PUBCHEM_BOND_DEF_STEREO_COUNT>  (1) 
0

>  <PUBCHEM_BOND_UDEF_STEREO_COUNT>  (1) 
0

>  <PUBCHEM_ISOTOPIC_ATOM_COUNT>  (1) 
0

>  <PUBCHEM_COMPONENT_COUNT>  (1) 
1

>  <PUBCHEM_CACTVS_TAUTO_COUNT>  (1) 
2

>  <PUBCHEM_CONFORMER_ID>  (1) 
0000255400000001

>  <PUBCHEM_MMFF94_ENERGY>  (1) 
31.2047

>  <PUBCHEM_FEATURE_SELFOVERLAP>  (1) 
15.223

>  <PUBCHEM_SHAPE_FINGERPRINT>  (1) 
10646746 165 15123240879538510915
11578080 2 18268690762784133865
12173636 292 12901815135085407515
12553582 1 18413390917052140031
128620 24 14057008234746189911
12932764 1 18410293614440531565
13705890 14 17240480307963162584
14144814 61 17775010119838318405
14178342 30 17203888552954964943
14289901 80 14476954606247133247
15239191 94 18412263956636703687
15375462 189 18413673495661417859
16945 1 18335135414612679348
1813 80 18266751185949652270
18186145 218 18261115196819710951
19422 9 18341900701384825147
19786989 88 17460040797361736421
20279233 1 17385720344169471041
20361792 2 18335699416869992045
20442098 301 17561080328365130199
20559304 39 17847065505936118945
20645477 70 18114174242396554167
20671657 53 17822287920882813082
21501925 9 17846208977893518489
21730867 7 17603588555632476555
2255824 54 18336551624038349284
22646028 28 18411416181331543443
232386 152 17918273168916791229
23557571 272 14620507978478473503
3323516 105 17240208737676941603
4175511 335 17530967955917699118
474 4 18051971716722694393
5161694 15 17459456785115302135
5262128 65 15647348385416666759
5374978 207 17131833196789916963
90316 7 17917436385103199217

>  <PUBCHEM_SHAPE_MULTIPOLES>  (1) 
329.24
7.74
1.62
1.41
6.37
0.07
0.01
-2.14
-0.71
-0.99
-0.11
-0.55
-0.06
-1.05

>  <PUBCHEM_SHAPE_SELFOVERLAP>  (1) 
704.428

>  <PUBCHEM_SHAPE_VOLUME>  (1) 
181.2

>  <PUBCHEM_COORDINATE_TYPE>  (1) 
2
5
10

$$$$
