9560
     RDKit          2D

 14 13  0  0  0  0  0  0  0  0999 V2000
    0.0000    0.0000    0.0000 P   0  0  0  0  0  0  0  0  0  0  0  0
    0.0000    0.0000    0.0000 O   0  0  0  0  0  0  0  0  0  0  0  0
    0.0000    0.0000    0.0000 O   0  0  0  0  0  0  0  0  0  0  0  0
    0.0000    0.0000    0.0000 O   0  0  0  0  0  0  0  0  0  0  0  0
    0.0000    0.0000    0.0000 O   0  0  0  0  0  0  0  0  0  0  0  0
    0.0000    0.0000    0.0000 O   0  0  0  0  0  0  0  0  0  0  0  0
    0.0000    0.0000    0.0000 O   0  0  0  0  0  0  0  0  0  0  0  0
    0.0000    0.0000    0.0000 C   0  0  0  0  0  0  0  0  0  0  0  0
    0.0000    0.0000    0.0000 C   0  0  0  0  0  0  0  0  0  0  0  0
    0.0000    0.0000    0.0000 C   0  0  0  0  0  0  0  0  0  0  0  0
    0.0000    0.0000    0.0000 C   0  0  0  0  0  0  0  0  0  0  0  0
    0.0000    0.0000    0.0000 C   0  0  0  0  0  0  0  0  0  0  0  0
    0.0000    0.0000    0.0000 C   0  0  0  0  0  0  0  0  0  0  0  0
    0.0000    0.0000    0.0000 C   0  0  0  0  0  0  0  0  0  0  0  0
  1  2  1  0
  1  3  1  0
  1  4  1  0
  1  5  2  0
  2  8  1  0
  3 11  1  0
  4 12  1  0
  6 13  1  0
  6 14  1  0
  7 13  2  0
  8  9  1  0
  8 10  2  3
 10 13  1  0
M  END
>  <PUBCHEM_COMPOUND_CID>  (1) 
9560

>  <PUBCHEM_CONFORMER_RMSD>  (1) 
0.6

>  <PUBCHEM_CONFORMER_DIVERSEORDER>  (1) 
17
46
71
42
57
60
116
81
36
143
38
32
56
39
141
112
28
137
105
44
136
9
80
120
138
126
61
23
139
14
41
8
21
88
114
102
53
82
5
124
10
115
106
107
134
4
63
122
54
97
47
78
22
33
144
87
7
65
95
58
132
135
89
59
94
93
2
117
37
79
51
77
128
129
83
140
72
35
25
84
74
15
133
100
29
64
110
18
20
131
73
13
99
6
19
75
24
11
127
1
92
96
98
34
50
119
12
113
90
67
101
68
104
109
49
108
66
85
40
62
3
45
70
125
76
55
86
26
16
121
31
111
130
43
91
69
103
118
142
52
27
48
30
123

>  <PUBCHEM_MMFF94_PARTIAL_CHARGES>  (1) 
15
1 1.51
10 -0.14
11 0.28
12 0.28
13 0.71
14 0.28
18 0.15
2 -0.35
3 -0.55
4 -0.55
5 -0.7
6 -0.43
7 -0.57
8 -0.06
9 0.14

>  <PUBCHEM_EFFECTIVE_ROTOR_COUNT>  (1) 
6

>  <PUBCHEM_PHARMACOPHORE_FEATURES>  (1) 
2
1 5 acceptor
1 7 acceptor

>  <PUBCHEM_HEAVY_ATOM_COUNT>  (1) 
14

>  <PUBCHEM_ATOM_DEF_STEREO_COUNT>  (1) 
0

>  <PUBCHEM_ATOM_UDEF_STEREO_COUNT>  (1) 
0

>  <PUBCHEM_BOND_DEF_STEREO_COUNT>  (1) 
0

>  <PUBCHEM_BOND_UDEF_STEREO_COUNT>  (1) 
1

>  <PUBCHEM_ISOTOPIC_ATOM_COUNT>  (1) 
0

>  <PUBCHEM_COMPONENT_COUNT>  (1) 
1

>  <PUBCHEM_CACTVS_TAUTO_COUNT>  (1) 
1

$$$$
