9563
     RDKit          3D

 30 33  0  0  1  0  0  0  0  0999 V2000
    1.8763    0.3144   -1.1475 F   0  0  0  0  0  0  0  0  0  0  0  0
   -3.0132    2.1622    0.7471 O   0  0  0  0  0  0  0  0  0  0  0  0
    0.3987   -2.1073    1.0625 O   0  0  0  0  0  0  0  0  0  0  0  0
   -3.5997    0.7443   -2.1335 O   0  0  0  0  0  0  0  0  0  0  0  0
   -5.5460   -0.4573   -0.6034 O   0  0  0  0  0  0  0  0  0  0  0  0
    6.6586   -0.4574   -1.7349 O   0  0  0  0  0  0  0  0  0  0  0  0
   -6.1236   -1.9110    1.0966 O   0  0  0  0  0  0  0  0  0  0  0  0
   -1.2508    0.4655    0.4606 C   0  0  0  0  0  0  0  0  0  0  0  0
   -0.1200    1.4912    0.7068 C   0  0  0  0  0  0  0  0  0  0  0  0
    1.2511    0.8649    1.0623 C   0  0  0  0  0  0  0  0  0  0  0  0
    1.7054   -0.2673    0.0919 C   0  0  0  0  0  0  0  0  0  0  0  0
   -2.3294    1.3635   -0.2143 C   0  0  0  0  0  0  0  0  0  0  0  0
   -0.7571   -0.6591   -0.4918 C   0  0  0  0  0  0  0  0  0  0  0  0
   -0.1464    2.4050   -0.5350 C   0  0  0  0  0  0  0  0  0  0  0  0
    0.5774   -1.3093   -0.0970 C   0  0  0  0  0  0  0  0  0  0  0  0
    3.1226   -0.8555    0.4805 C   0  0  0  0  0  0  0  0  0  0  0  0
   -1.5441    2.2819   -1.1513 C   0  0  0  0  0  0  0  0  0  0  0  0
    2.3226    1.9655    1.1923 C   0  0  0  0  0  0  0  0  0  0  0  0
   -1.7593   -0.1221    1.7927 C   0  0  0  0  0  0  0  0  0  0  0  0
    3.6840    1.4042    1.5832 C   0  0  0  0  0  0  0  0  0  0  0  0
    4.0925    0.3238    0.6152 C   0  0  0  0  0  0  0  0  0  0  0  0
   -3.4096    0.6044   -0.9261 C   0  0  0  0  0  0  0  0  0  0  0  0
    3.1429   -1.6406    1.8123 C   0  0  0  0  0  0  0  0  0  0  0  0
    3.5921   -1.8330   -0.5887 C   0  0  0  0  0  0  0  0  0  0  0  0
    5.2225    0.4471   -0.0987 C   0  0  0  0  0  0  0  0  0  0  0  0
   -4.2418   -0.3326   -0.0768 C   0  0  0  0  0  0  0  0  0  0  0  0
    4.7148   -1.7150   -1.3041 C   0  0  0  0  0  0  0  0  0  0  0  0
    5.6174   -0.5680   -1.0963 C   0  0  0  0  0  0  0  0  0  0  0  0
   -6.3989   -1.2842    0.0826 C   0  0  0  0  0  0  0  0  0  0  0  0
   -7.7391   -1.3183   -0.5873 C   0  0  0  0  0  0  0  0  0  0  0  0
  1 11  1  0
  2 12  1  0
  3 15  1  0
  4 22  2  0
  5 26  1  0
  5 29  1  0
  6 28  2  0
  7 29  2  0
  8  9  1  0
  8 12  1  0
  8 13  1  0
  8 19  1  0
  9 10  1  0
  9 14  1  0
 10 11  1  0
 10 18  1  0
 11 15  1  0
 11 16  1  0
 12 17  1  0
 12 22  1  0
 13 15  1  0
 14 17  1  0
 16 21  1  0
 16 23  1  0
 16 24  1  0
 18 20  1  0
 20 21  1  0
 21 25  2  0
 22 26  1  0
 24 27  2  0
 25 28  1  0
 27 28  1  0
 29 30  1  0
M  END
>  <PUBCHEM_COMPOUND_CID>  (1) 
9563

>  <PUBCHEM_CONFORMER_RMSD>  (1) 
1

>  <PUBCHEM_CONFORMER_DIVERSEORDER>  (1) 
1
457
152
352
94
97
372
120
607
104
46
509
323
324
117
246
145
587
218
350
209
600
62
506
369
244
163
33
282
242
384
461
44
329
87
141
270
500
398
110
411
9
456
298
78
144
291
86
40
118
183
21
463
356
275
166
517
450
43
124
561
439
77
68
156
52
147
90
158
212
429
512
193
458
235
215
128
50
180
84
370
267
280
239
5
296
548
266
10
544
521
366
174
16
28
367
252
220
531
428
73
45
100
41
76
524
288
14
446
309
314
258
259
572
567
49
71
424
59
38
223
171
452
165
609
20
489
182
312
351
603
51
303
397
393
31
416
245
25
575
241
249
162
263
88
254
39
272
135
111
2
387
109
24
176
54
67
199
273
138
115
290
371
12
187
29
23
285
469
563
256
149
492
18
56
7
79
191
27
37
80
155
173
53
584
89
236
91
81
434

>  <PUBCHEM_MMFF94_PARTIAL_CHARGES>  (1) 
26
1 -0.34
11 0.34
12 0.34
15 0.28
16 0.28
2 -0.68
20 0.14
21 -0.28
22 0.45
24 -0.29
25 -0.14
26 0.34
27 -0.14
28 0.54
29 0.66
3 -0.68
30 0.06
4 -0.57
5 -0.43
50 0.15
51 0.4
52 0.4
53 0.15
56 0.15
6 -0.57
7 -0.57

>  <PUBCHEM_EFFECTIVE_ROTOR_COUNT>  (1) 
5.4

>  <PUBCHEM_PHARMACOPHORE_FEATURES>  (1) 
11
1 2 acceptor
1 2 donor
1 3 acceptor
1 3 donor
1 4 acceptor
1 6 acceptor
1 7 acceptor
5 8 9 12 14 17 rings
6 10 11 16 18 20 21 rings
6 16 21 24 25 27 28 rings
6 8 9 10 11 13 15 rings

>  <PUBCHEM_HEAVY_ATOM_COUNT>  (1) 
30

>  <PUBCHEM_ATOM_DEF_STEREO_COUNT>  (1) 
2

>  <PUBCHEM_ATOM_UDEF_STEREO_COUNT>  (1) 
5

>  <PUBCHEM_BOND_DEF_STEREO_COUNT>  (1) 
0

>  <PUBCHEM_BOND_UDEF_STEREO_COUNT>  (1) 
0

>  <PUBCHEM_ISOTOPIC_ATOM_COUNT>  (1) 
0

>  <PUBCHEM_COMPONENT_COUNT>  (1) 
1

>  <PUBCHEM_CACTVS_TAUTO_COUNT>  (1) 
6

>  <PUBCHEM_CONFORMER_ID>  (1) 
0000255B00000001

>  <PUBCHEM_MMFF94_ENERGY>  (1) 
96.0643

>  <PUBCHEM_FEATURE_SELFOVERLAP>  (1) 
56.022

>  <PUBCHEM_SHAPE_FINGERPRINT>  (1) 
10076449 9 17989216936770684054
10366900 7 18186805764223955648
10498660 4 18040715819126512412
11089746 13 13190339075766033327
11578080 2 14491331901627311981
11961588 58 17168151160892618512
11963148 33 18261103123652130339
12011746 2 18333454261128114179
12166972 35 17632863035647775592
12236239 1 14562521886696816265
12422481 6 17490153015306525903
12623949 98 17917721170861359415
13224815 77 18335416816606639896
13402501 40 18408604790529802651
13533116 47 17417809590868085832
13673619 4 18202566172122609465
13782708 43 18337675200842995442
14341114 176 17561362893804766792
14955137 171 18059857320112405261
15142383 8 15195292988518203363
15721738 202 17917714604103997619
15788980 27 12463559665276561116
16728433 281 16589965164120396677
17349148 13 17530683182500693345
17492 89 18118955897721806467
18608769 82 18338516455786433234
20028762 73 17988639722830784343
20511986 3 13190341317807637784
20715895 44 8430316839839177318
21150785 3 18040722484799516622
21267235 1 17988929963650226334
21344244 181 18131078138425912254
221357 26 18272651238242385512
22182313 1 18266435707542980293
22393880 68 18337945671680516020
23522609 53 18126035756183041593
23559900 14 17603873359483304205
23569914 152 17120833411703554261
2838139 119 11891322137483929631
404807 78 17386862770926606923
4093350 32 15913332429309515512
46194498 28 18411136953029092876
465052 167 17704073984473581636
484989 97 18115884055522957954
5104073 3 18129934581464618408
57527295 17 18121515553039883330
59755656 215 18407760343592097195
6669772 16 17901680584934885628

>  <PUBCHEM_SHAPE_MULTIPOLES>  (1) 
574.9
14.77
2.32
1.59
15.26
0.5
-0.03
-8.62
3.78
0.28
-0.14
-0.77
-0.02
1.38

>  <PUBCHEM_SHAPE_SELFOVERLAP>  (1) 
1244.996

>  <PUBCHEM_SHAPE_VOLUME>  (1) 
313.9

>  <PUBCHEM_COORDINATE_TYPE>  (1) 
2
5
10

$$$$
