9564
     RDKit          3D

 18 18  0  0  0  0  0  0  0  0999 V2000
   -1.3375    2.0525    0.0596 S   0  0  0  0  0  0  0  0  0  0  0  0
   -1.1801    2.4479    1.4460 O   0  0  0  0  0  0  0  0  0  0  0  0
   -2.1367    2.8535   -0.8473 O   0  0  0  0  0  0  0  0  0  0  0  0
    1.3421    1.0527    1.2709 O   0  0  0  0  0  0  0  0  0  0  0  0
    2.4521    1.2006   -0.7497 N   0  0  0  0  0  0  0  0  0  0  0  0
    0.2031    1.7861   -0.6318 N   0  0  0  0  0  0  0  0  0  0  0  0
   -3.6015   -3.4448   -0.0506 N   0  0  0  0  0  0  0  0  0  0  0  0
    3.8479   -0.7825   -0.3939 C   0  0  0  0  0  0  0  0  0  0  0  0
    3.7474    0.7366   -0.2670 C   0  0  0  0  0  0  0  0  0  0  0  0
    5.2083   -1.2884    0.0874 C   0  0  0  0  0  0  0  0  0  0  0  0
   -2.0103    0.4185    0.0266 C   0  0  0  0  0  0  0  0  0  0  0  0
    5.3034   -2.8032   -0.0026 C   0  0  0  0  0  0  0  0  0  0  0  0
    1.3573    1.3171    0.0723 C   0  0  0  0  0  0  0  0  0  0  0  0
   -1.8108   -0.4166    1.1125 C   0  0  0  0  0  0  0  0  0  0  0  0
   -2.7244    0.0036   -1.0844 C   0  0  0  0  0  0  0  0  0  0  0  0
   -3.0636   -2.1411   -0.0246 C   0  0  0  0  0  0  0  0  0  0  0  0
   -2.3415   -1.7063    1.0866 C   0  0  0  0  0  0  0  0  0  0  0  0
   -3.2551   -1.2862   -1.1101 C   0  0  0  0  0  0  0  0  0  0  0  0
  1  2  2  0
  1  3  2  0
  1  6  1  0
  1 11  1  0
  4 13  2  0
  5  9  1  0
  5 13  1  0
  6 13  1  0
  7 16  1  0
  8  9  1  0
  8 10  1  0
 10 12  1  0
 11 14  2  0
 11 15  1  0
 14 17  1  0
 15 18  2  0
 16 17  2  0
 16 18  1  0
M  END
>  <PUBCHEM_COMPOUND_CID>  (1) 
9564

>  <PUBCHEM_CONFORMER_RMSD>  (1) 
0.8

>  <PUBCHEM_CONFORMER_DIVERSEORDER>  (1) 
1
51
54
22
29
63
26
34
62
31
43
16
15
60
56
46
12
20
33
42
67
50
13
6
24
65
57
58
18
14
64
35
11
40
59
21
48
28
30
23
69
39
44
55
19
9
8
49
38
45
68
7
37
32
25
53
66
36
4
61
41
70
10
3
27
52
17
2
5
47

>  <PUBCHEM_MMFF94_PARTIAL_CHARGES>  (1) 
23
1 1.45
11 -0.01
13 0.87
14 -0.15
15 -0.15
16 0.1
17 -0.15
18 -0.15
2 -0.65
25 0.37
26 0.42
3 -0.65
30 0.15
31 0.15
32 0.15
33 0.15
34 0.4
35 0.4
4 -0.57
5 -0.73
6 -0.79
7 -0.9
9 0.3

>  <PUBCHEM_EFFECTIVE_ROTOR_COUNT>  (1) 
7

>  <PUBCHEM_PHARMACOPHORE_FEATURES>  (1) 
9
1 12 hydrophobe
1 2 acceptor
1 3 acceptor
1 4 acceptor
1 5 donor
1 6 donor
1 7 cation
1 7 donor
6 11 14 15 16 17 18 rings

>  <PUBCHEM_HEAVY_ATOM_COUNT>  (1) 
18

>  <PUBCHEM_ATOM_DEF_STEREO_COUNT>  (1) 
0

>  <PUBCHEM_ATOM_UDEF_STEREO_COUNT>  (1) 
0

>  <PUBCHEM_BOND_DEF_STEREO_COUNT>  (1) 
0

>  <PUBCHEM_BOND_UDEF_STEREO_COUNT>  (1) 
0

>  <PUBCHEM_ISOTOPIC_ATOM_COUNT>  (1) 
0

>  <PUBCHEM_COMPONENT_COUNT>  (1) 
1

>  <PUBCHEM_CACTVS_TAUTO_COUNT>  (1) 
3

>  <PUBCHEM_CONFORMER_ID>  (1) 
0000255C00000001

>  <PUBCHEM_MMFF94_ENERGY>  (1) 
19.4269

>  <PUBCHEM_FEATURE_SELFOVERLAP>  (1) 
45.735

>  <PUBCHEM_SHAPE_FINGERPRINT>  (1) 
10968037 57 18343308062898699558
11036077 51 17839468786726540744
122479 349 9223241736321877980
12555020 224 18192141599295078365
12824470 246 18201168753030959160
13994607 96 12035449424007884871
14251731 5 18339365265888743390
14251740 79 18260548875053569170
14251764 30 17824278205071642651
14866123 147 18340208501724507027
15099037 8 18408891737136462820
15342168 16 8069762800926486367
15352361 1 18410292544904231318
19141452 34 18192716644404068396
20281475 54 18339650030889381160
20403669 9 18342179955600226262
20602899 9 18194392291398078229
20621476 51 18343016675443613438
21864079 5 9295299321949141430
23403322 49 18409448119678485870
23503958 8 18341613690137189424
23559900 14 18339630218342758664
23728640 28 18268436724200031905
27216 239 10447931684972840991
5365585 94 18187655721035600162
559249 180 18046061567171674888
633830 44 16516263833831154316
9709674 26 18408882945343383868

>  <PUBCHEM_SHAPE_MULTIPOLES>  (1) 
341.73
9.52
3.61
1.13
15.32
1.02
-0.17
8.91
1.21
-1.82
-0.08
-0.71
-0.2
-0.05

>  <PUBCHEM_SHAPE_SELFOVERLAP>  (1) 
675.852

>  <PUBCHEM_SHAPE_VOLUME>  (1) 
203.4

>  <PUBCHEM_COORDINATE_TYPE>  (1) 
2
5
10

$$$$
