9571
     RDKit          3D

 19 19  0  0  1  0  0  0  0  0999 V2000
   -4.6483   -0.5957    2.0719 Cl  0  0  0  0  0  0  0  0  0  0  0  0
   -2.0360    3.6142   -1.9027 Cl  0  0  0  0  0  0  0  0  0  0  0  0
    2.9062    0.6109   -1.3022 O   0  0  0  0  0  0  0  0  0  0  0  0
    2.2961    2.4223   -0.0825 O   0  0  0  0  0  0  0  0  0  0  0  0
   -1.1881    0.2568    0.1739 N   0  0  0  0  0  0  0  0  0  0  0  0
    3.2037    1.1243    2.1802 N   0  0  0  0  0  0  0  0  0  0  0  0
   -0.4445   -0.8719   -0.2345 C   0  0  0  0  0  0  0  0  0  0  0  0
    0.7832   -1.1716    0.3451 C   0  0  0  0  0  0  0  0  0  0  0  0
    1.3573   -0.3004    1.4275 C   0  0  0  0  0  0  0  0  0  0  0  0
   -2.1514    0.1489    1.2503 C   0  0  0  0  0  0  0  0  0  0  0  0
   -0.9858    1.5389   -0.4695 C   0  0  0  0  0  0  0  0  0  0  0  0
    2.7181    0.3104    1.0627 C   0  0  0  0  0  0  0  0  0  0  0  0
   -0.9545   -1.6969   -1.2370 C   0  0  0  0  0  0  0  0  0  0  0  0
    1.5075   -2.2856   -0.0647 C   0  0  0  0  0  0  0  0  0  0  0  0
   -3.4589   -0.4483    0.7542 C   0  0  0  0  0  0  0  0  0  0  0  0
   -2.2700    2.0329   -1.1169 C   0  0  0  0  0  0  0  0  0  0  0  0
   -0.2337   -2.8162   -1.6532 C   0  0  0  0  0  0  0  0  0  0  0  0
    0.9972   -3.1105   -1.0671 C   0  0  0  0  0  0  0  0  0  0  0  0
    2.6019    1.2376   -0.1356 C   0  0  0  0  0  0  0  0  0  0  0  0
  1 15  1  0
  2 16  1  0
  3 19  1  0
  4 19  2  0
  5  7  1  0
  5 10  1  0
  5 11  1  0
  6 12  1  0
  7  8  2  0
  7 13  1  0
  8  9  1  0
  8 14  1  0
  9 12  1  0
 10 15  1  0
 11 16  1  0
 12 19  1  0
 13 17  2  0
 14 18  2  0
 17 18  1  0
M  END
>  <PUBCHEM_COMPOUND_CID>  (1) 
9571

>  <PUBCHEM_CONFORMER_RMSD>  (1) 
0.8

>  <PUBCHEM_CONFORMER_DIVERSEORDER>  (1) 
1
67
37
69
92
88
33
105
145
125
139
107
52
137
104
144
85
15
20
56
141
9
103
138
136
82
74
80
142
133
59
127
98
84
150
29
95
66
120
70
132
102
147
48
140
86
41
12
10
143
89
17
64
75
148
126
71
16
76
4
7
111
78
130
90
34
13
114
51
27
83
81
118
124
106
93
101
108
99
135
77
110
58
53
39
62
65
44
112
22
2
63
57
94
61
18
117
49
128
35
60
100
97
115
31
72
55
119
113
96
131
42
91
30
3
5
28
79
21
46
149
123
43
50
38
122
54
47
32
14
8
134
26
40
68
129
116
109
6
23
24
19
11
36
45
25
73
87
121
146

>  <PUBCHEM_MMFF94_PARTIAL_CHARGES>  (1) 
26
1 -0.29
10 0.37
11 0.37
12 0.33
13 -0.15
14 -0.15
15 0.29
16 0.29
17 -0.15
18 -0.15
19 0.66
2 -0.29
27 0.15
28 0.15
3 -0.65
33 0.15
34 0.15
35 0.36
36 0.36
37 0.5
4 -0.57
5 -0.84
6 -0.99
7 0.1
8 -0.14
9 0.14

>  <PUBCHEM_EFFECTIVE_ROTOR_COUNT>  (1) 
8

>  <PUBCHEM_PHARMACOPHORE_FEATURES>  (1) 
7
1 3 acceptor
1 4 acceptor
1 5 cation
1 6 cation
1 6 donor
3 3 4 19 anion
6 7 8 13 14 17 18 rings

>  <PUBCHEM_HEAVY_ATOM_COUNT>  (1) 
19

>  <PUBCHEM_ATOM_DEF_STEREO_COUNT>  (1) 
0

>  <PUBCHEM_ATOM_UDEF_STEREO_COUNT>  (1) 
1

>  <PUBCHEM_BOND_DEF_STEREO_COUNT>  (1) 
0

>  <PUBCHEM_BOND_UDEF_STEREO_COUNT>  (1) 
0

>  <PUBCHEM_ISOTOPIC_ATOM_COUNT>  (1) 
0

>  <PUBCHEM_COMPONENT_COUNT>  (1) 
1

>  <PUBCHEM_CACTVS_TAUTO_COUNT>  (1) 
1

>  <PUBCHEM_CONFORMER_ID>  (1) 
0000256300000001

>  <PUBCHEM_MMFF94_ENERGY>  (1) 
56.9203

>  <PUBCHEM_FEATURE_SELFOVERLAP>  (1) 
35.579

>  <PUBCHEM_SHAPE_FINGERPRINT>  (1) 
10165383 225 18129964362984203984
10906281 52 17404574481715271738
11221954 11 18045486535280649613
12532896 13 17774441723392067050
14142880 1 17691119761507832656
14614273 12 18056452132042176278
16945 1 18260823830085152146
17357779 13 16902979437355351598
18981168 100 18340198583795675140
20511035 2 18046324363187961232
21524375 3 18340769329420940594
22112679 90 17905028597861619824
22182313 1 18268706104733453062
23419403 2 18053107224586798975
23526113 38 17546729253549628543
23557571 272 18041291959082560181
23558518 356 17900243231516813237
23559900 14 17750521676252330003
238 59 17841125797935684453
2748010 2 18195800774028992916
3060560 45 18269010815166671916
31174 14 18056774134763049195
3250762 1 18046916982896867149
458136 41 18058752259112953219
6049 1 18120948208907052595
633830 44 16917360237893054113
6442390 28 17845102946268653643
81228 2 17766826604673921650
9999458 23 17702407163500663385

>  <PUBCHEM_SHAPE_MULTIPOLES>  (1) 
373.05
5.59
3.69
2.02
3.59
0.98
-0.34
1.39
-3.23
0.15
2.72
0.6
0.09
2.43

>  <PUBCHEM_SHAPE_SELFOVERLAP>  (1) 
734.932

>  <PUBCHEM_SHAPE_VOLUME>  (1) 
225.2

>  <PUBCHEM_COORDINATE_TYPE>  (1) 
2
5
10

$$$$
