9573
     RDKit          3D

 17 18  0  0  0  0  0  0  0  0999 V2000
    5.1923    1.6542    0.7837 F   0  0  0  0  0  0  0  0  0  0  0  0
    3.0202    0.2564   -0.1932 O   0  0  0  0  0  0  0  0  0  0  0  0
    2.1808   -1.8656   -0.0429 O   0  0  0  0  0  0  0  0  0  0  0  0
    0.7866    0.0181   -0.0976 N   0  0  0  0  0  0  0  0  0  0  0  0
   -1.6463    0.3008   -0.0229 C   0  0  0  0  0  0  0  0  0  0  0  0
   -2.9263   -0.2973    0.0584 C   0  0  0  0  0  0  0  0  0  0  0  0
   -0.5048   -0.5173   -0.0200 C   0  0  0  0  0  0  0  0  0  0  0  0
   -1.5457    1.6992   -0.1047 C   0  0  0  0  0  0  0  0  0  0  0  0
   -3.0272   -1.6958    0.1399 C   0  0  0  0  0  0  0  0  0  0  0  0
   -0.6234   -1.9051    0.0620 C   0  0  0  0  0  0  0  0  0  0  0  0
   -4.0680    0.5205    0.0554 C   0  0  0  0  0  0  0  0  0  0  0  0
   -1.8823   -2.4932    0.1415 C   0  0  0  0  0  0  0  0  0  0  0  0
   -2.6906    2.4964   -0.1061 C   0  0  0  0  0  0  0  0  0  0  0  0
   -3.9495    1.9082   -0.0262 C   0  0  0  0  0  0  0  0  0  0  0  0
    2.0022   -0.6554   -0.1047 C   0  0  0  0  0  0  0  0  0  0  0  0
    4.3472   -0.2825   -0.2111 C   0  0  0  0  0  0  0  0  0  0  0  0
    5.3349    0.8583   -0.3115 C   0  0  0  0  0  0  0  0  0  0  0  0
  1 17  1  0
  2 15  1  0
  2 16  1  0
  3 15  2  0
  4  7  1  0
  4 15  1  0
  5  6  1  0
  5  7  2  0
  5  8  1  0
  6  9  2  0
  6 11  1  0
  7 10  1  0
  8 13  2  0
  9 12  1  0
 10 12  2  0
 11 14  2  0
 13 14  1  0
 16 17  1  0
M  END
>  <PUBCHEM_COMPOUND_CID>  (1) 
9573

>  <PUBCHEM_CONFORMER_RMSD>  (1) 
0.6

>  <PUBCHEM_CONFORMER_DIVERSEORDER>  (1) 
1
40
42
38
26
22
39
6
36
16
34
32
46
5
18
14
31
3
28
47
33
25
20
30
13
29
37
2
48
41
44
12
21
9
15
19
23
4
27
43
11
7
24
17
8
49
45
10
35

>  <PUBCHEM_MMFF94_PARTIAL_CHARGES>  (1) 
23
1 -0.34
10 -0.15
11 -0.15
12 -0.15
13 -0.15
14 -0.15
15 0.78
16 0.28
17 0.34
18 0.15
19 0.15
2 -0.43
20 0.15
21 0.15
22 0.15
23 0.37
24 0.15
25 0.15
3 -0.57
4 -0.55
7 0.12
8 -0.15
9 -0.15

>  <PUBCHEM_EFFECTIVE_ROTOR_COUNT>  (1) 
5

>  <PUBCHEM_PHARMACOPHORE_FEATURES>  (1) 
4
1 3 acceptor
1 4 donor
6 5 6 7 9 10 12 rings
6 5 6 8 11 13 14 rings

>  <PUBCHEM_HEAVY_ATOM_COUNT>  (1) 
17

>  <PUBCHEM_ATOM_DEF_STEREO_COUNT>  (1) 
0

>  <PUBCHEM_ATOM_UDEF_STEREO_COUNT>  (1) 
0

>  <PUBCHEM_BOND_DEF_STEREO_COUNT>  (1) 
0

>  <PUBCHEM_BOND_UDEF_STEREO_COUNT>  (1) 
0

>  <PUBCHEM_ISOTOPIC_ATOM_COUNT>  (1) 
0

>  <PUBCHEM_COMPONENT_COUNT>  (1) 
1

>  <PUBCHEM_CACTVS_TAUTO_COUNT>  (1) 
2

>  <PUBCHEM_CONFORMER_ID>  (1) 
0000256500000001

>  <PUBCHEM_MMFF94_ENERGY>  (1) 
47.532

>  <PUBCHEM_FEATURE_SELFOVERLAP>  (1) 
20.324

>  <PUBCHEM_SHAPE_FINGERPRINT>  (1) 
10014705 185 18408603660330463317
10319926 262 18340190969868458914
10411042 1 17761776573411412235
10493431 412 18340497647444626393
10608611 8 18412544288534694754
11595378 159 17676754410447749848
12107183 9 17901657173520978114
12173636 292 18337391543684736647
12390115 104 18127710256979120921
13214271 11 18341048600810195223
14508225 48 18053932129449909271
14790565 3 18053671278584998081
15042514 8 18264216975110015339
15196674 1 18410013195603762863
16087824 20 18411698804277903751
16945 1 18337673014973192915
1741750 31 18340488872214043050
17834072 32 18338801108812135052
20510252 161 18341899550238605587
20645477 56 18409736131563564620
20645477 70 16988574450999806134
22224240 67 18339936922632151665
23227448 37 18412262878151643244
23402539 116 18412539938424200159
23557571 272 18342470273803426686
23559900 14 18200030613164193982
245318 6 16737785989185969900
2748010 2 17903930955072203295
3071541 12 17619070530235492471
3545911 37 18410579461656818316
4214541 1 18410294701219984700
441001 317 18412261753112733064
474 4 17530974609201543620
5104073 3 18335704901437936090
573450 72 18260536840966526170
633830 44 17984139254123088085
7364860 26 17547572579158108287
9709674 26 18341338820499089294
9981440 41 18334294266489958971

>  <PUBCHEM_SHAPE_MULTIPOLES>  (1) 
325.86
9.74
2.6
0.63
14.67
0.16
-0.01
-5.04
-0.3
-1.99
-0.1
0.12
-0.05
0.38

>  <PUBCHEM_SHAPE_SELFOVERLAP>  (1) 
697.936

>  <PUBCHEM_SHAPE_VOLUME>  (1) 
180.3

>  <PUBCHEM_COORDINATE_TYPE>  (1) 
2
5
10

$$$$
