9576
     RDKit          3D

 14 15  0  0  0  0  0  0  0  0999 V2000
   -3.0605   -2.3616    0.0460 F   0  0  0  0  0  0  0  0  0  0  0  0
    2.7634   -0.8197    0.3414 N   0  0  0  0  0  0  0  0  0  0  0  0
   -0.2491    2.3181   -0.0212 N   0  0  0  0  0  0  0  0  0  0  0  0
    0.9466    0.5128   -0.5096 C   0  0  0  0  0  0  0  0  0  0  0  0
   -0.3928    0.1043   -0.2569 C   0  0  0  0  0  0  0  0  0  0  0  0
    2.0796   -0.3629   -0.8712 C   0  0  0  0  0  0  0  0  0  0  0  0
   -1.1221    1.2557    0.0473 C   0  0  0  0  0  0  0  0  0  0  0  0
    1.0034    1.8791   -0.3574 C   0  0  0  0  0  0  0  0  0  0  0  0
   -1.0568   -1.1385   -0.2577 C   0  0  0  0  0  0  0  0  0  0  0  0
   -2.4876    1.2264    0.3521 C   0  0  0  0  0  0  0  0  0  0  0  0
    3.2730    0.3219    1.0983 C   0  0  0  0  0  0  0  0  0  0  0  0
    3.8502   -1.7347   -0.0016 C   0  0  0  0  0  0  0  0  0  0  0  0
   -2.4224   -1.1832    0.0453 C   0  0  0  0  0  0  0  0  0  0  0  0
   -3.1250   -0.0177    0.3451 C   0  0  0  0  0  0  0  0  0  0  0  0
  1 13  1  0
  2  6  1  0
  2 11  1  0
  2 12  1  0
  3  7  1  0
  3  8  1  0
  4  5  1  0
  4  6  1  0
  4  8  2  0
  5  7  2  0
  5  9  1  0
  7 10  1  0
  9 13  2  0
 10 14  2  0
 13 14  1  0
M  END
>  <PUBCHEM_COMPOUND_CID>  (1) 
9576

>  <PUBCHEM_CONFORMER_RMSD>  (1) 
0.6

>  <PUBCHEM_CONFORMER_DIVERSEORDER>  (1) 
1
3
4
2

>  <PUBCHEM_MMFF94_PARTIAL_CHARGES>  (1) 
18
1 -0.19
10 -0.15
11 0.27
12 0.27
13 0.19
14 -0.15
17 0.15
18 0.27
19 0.15
2 -0.81
20 0.15
27 0.15
3 0.03
4 -0.18
6 0.45
7 -0.15
8 -0.3
9 -0.15

>  <PUBCHEM_EFFECTIVE_ROTOR_COUNT>  (1) 
2

>  <PUBCHEM_PHARMACOPHORE_FEATURES>  (1) 
5
1 2 cation
1 3 cation
1 3 donor
5 3 4 5 7 8 rings
6 5 7 9 10 13 14 rings

>  <PUBCHEM_HEAVY_ATOM_COUNT>  (1) 
14

>  <PUBCHEM_ATOM_DEF_STEREO_COUNT>  (1) 
0

>  <PUBCHEM_ATOM_UDEF_STEREO_COUNT>  (1) 
0

>  <PUBCHEM_BOND_DEF_STEREO_COUNT>  (1) 
0

>  <PUBCHEM_BOND_UDEF_STEREO_COUNT>  (1) 
0

>  <PUBCHEM_ISOTOPIC_ATOM_COUNT>  (1) 
0

>  <PUBCHEM_COMPONENT_COUNT>  (1) 
1

>  <PUBCHEM_CACTVS_TAUTO_COUNT>  (1) 
1

>  <PUBCHEM_CONFORMER_ID>  (1) 
0000256800000001

>  <PUBCHEM_MMFF94_ENERGY>  (1) 
28.3685

>  <PUBCHEM_FEATURE_SELFOVERLAP>  (1) 
25.463

>  <PUBCHEM_SHAPE_FINGERPRINT>  (1) 
10130415 120 18335708251607170257
10618630 7 18335139782657794278
11132069 177 18410006603013333138
11769659 78 18335983159483913831
12202030 40 16516820349469418265
12251169 10 18342459235605684928
12382932 28 18342738498679305010
13296908 3 18410572881661497142
15375462 189 18113058220676888370
16945 1 18339935809365267797
17804303 29 18198629826464664438
17834072 14 18268128989882853173
18186145 218 11025792055607175382
20361792 2 17095243596879141124
20559304 39 18195251237226801461
20645477 70 18046620381235828663
20871998 184 18273213062798448006
20871998 22 18411140276737232262
21501502 16 18266749145834846525
21501925 9 18340482395419191307
21650355 55 18338224965030118200
232386 152 18408330981589160942
23388829 49 17912066554458281108
23402539 116 18200584797110203557
23463225 33 18409735062090275758
23552423 10 18046639068374367365
23559900 14 18340201878858393814
2748010 2 18342179968257858989
5902787 121 18335420209414448042
6338986 31 18127116692387868647
7364860 26 18196938983544701532
81228 2 18267596701463964217

>  <PUBCHEM_SHAPE_MULTIPOLES>  (1) 
270.88
5.77
2.19
0.81
2.69
0
-0.04
3.02
-1.2
-0.66
0.06
0.41
-0.06
-0.01

>  <PUBCHEM_SHAPE_SELFOVERLAP>  (1) 
582.027

>  <PUBCHEM_SHAPE_VOLUME>  (1) 
152.9

>  <PUBCHEM_COORDINATE_TYPE>  (1) 
2
5
10

$$$$
