9577
     RDKit          3D

 16 17  0  0  1  0  0  0  0  0999 V2000
    2.5530    2.7040   -0.5745 F   0  0  0  0  0  0  0  0  0  0  0  0
   -1.5719    0.6462    1.8131 O   0  0  0  0  0  0  0  0  0  0  0  0
   -2.3313    2.1401    0.2758 O   0  0  0  0  0  0  0  0  0  0  0  0
    1.1096   -2.4728    0.3876 N   0  0  0  0  0  0  0  0  0  0  0  0
   -4.0346    0.1580   -0.6459 N   0  0  0  0  0  0  0  0  0  0  0  0
   -0.4869   -1.2185   -0.5096 C   0  0  0  0  0  0  0  0  0  0  0  0
   -1.7835   -0.7899   -1.0729 C   0  0  0  0  0  0  0  0  0  0  0  0
    0.6719   -0.4101   -0.3409 C   0  0  0  0  0  0  0  0  0  0  0  0
   -2.7755   -0.2448   -0.0162 C   0  0  0  0  0  0  0  0  0  0  0  0
    1.6587   -1.2210    0.2236 C   0  0  0  0  0  0  0  0  0  0  0  0
   -0.1868   -2.4811   -0.0527 C   0  0  0  0  0  0  0  0  0  0  0  0
    0.9769    0.9379   -0.6152 C   0  0  0  0  0  0  0  0  0  0  0  0
    2.9405   -0.7495    0.5288 C   0  0  0  0  0  0  0  0  0  0  0  0
    2.2549    1.4235   -0.3153 C   0  0  0  0  0  0  0  0  0  0  0  0
   -2.2149    0.9870    0.6663 C   0  0  0  0  0  0  0  0  0  0  0  0
    3.2201    0.5910    0.2479 C   0  0  0  0  0  0  0  0  0  0  0  0
  1 14  1  0
  2 15  1  0
  3 15  2  0
  4 10  1  0
  4 11  1  0
  5  9  1  0
  6  7  1  0
  6  8  1  0
  6 11  2  0
  7  9  1  0
  8 10  2  0
  8 12  1  0
  9 15  1  0
 10 13  1  0
 12 14  2  0
 13 16  2  0
 14 16  1  0
M  END
>  <PUBCHEM_COMPOUND_CID>  (1) 
9577

>  <PUBCHEM_CONFORMER_RMSD>  (1) 
0.6

>  <PUBCHEM_CONFORMER_DIVERSEORDER>  (1) 
2
20
21
6
7
26
17
16
8
19
24
10
25
5
22
13
15
9
14
18
12
3
4
1
11
23

>  <PUBCHEM_MMFF94_PARTIAL_CHARGES>  (1) 
23
1 -0.19
10 -0.15
11 -0.3
12 -0.15
13 -0.15
14 0.19
15 0.66
16 -0.15
2 -0.65
20 0.15
21 0.27
22 0.15
23 0.15
24 0.36
25 0.36
26 0.15
27 0.5
3 -0.57
4 0.03
5 -0.99
6 -0.18
7 0.18
9 0.33

>  <PUBCHEM_EFFECTIVE_ROTOR_COUNT>  (1) 
3

>  <PUBCHEM_PHARMACOPHORE_FEATURES>  (1) 
9
1 2 acceptor
1 3 acceptor
1 4 cation
1 4 donor
1 5 cation
1 5 donor
3 2 3 15 anion
5 4 6 8 10 11 rings
6 8 10 12 13 14 16 rings

>  <PUBCHEM_HEAVY_ATOM_COUNT>  (1) 
16

>  <PUBCHEM_ATOM_DEF_STEREO_COUNT>  (1) 
0

>  <PUBCHEM_ATOM_UDEF_STEREO_COUNT>  (1) 
1

>  <PUBCHEM_BOND_DEF_STEREO_COUNT>  (1) 
0

>  <PUBCHEM_BOND_UDEF_STEREO_COUNT>  (1) 
0

>  <PUBCHEM_ISOTOPIC_ATOM_COUNT>  (1) 
0

>  <PUBCHEM_COMPONENT_COUNT>  (1) 
1

>  <PUBCHEM_CACTVS_TAUTO_COUNT>  (1) 
1

>  <PUBCHEM_CONFORMER_ID>  (1) 
0000256900000002

>  <PUBCHEM_MMFF94_ENERGY>  (1) 
20.1671

>  <PUBCHEM_FEATURE_SELFOVERLAP>  (1) 
45.818

>  <PUBCHEM_SHAPE_FINGERPRINT>  (1) 
11471102 22 18113625551317551338
11640471 11 17773602607173141657
12491281 212 18335988678754168594
12696612 119 18265900163590764814
13618510 140 18409452517793536292
14787075 74 18123469642758028087
15490181 8 18412270553279429910
15775835 57 18273501156351462073
16945 1 18409173181636763846
192875 21 18338781356394398513
20510252 161 17762342813572630034
20559304 39 18340485577800105574
21130352 189 17545324077282888983
21524375 3 18343585169872168454
22094290 62 18410011052789362174
23402539 116 17987787643772369999
23557571 272 16628826507932414462
2748010 2 18191875723913971014
305870 269 18338237063768361478
353137 74 18272369810573605633
474 4 18408602573698313161
526903 126 17838897388377191104
537710 114 18201997759614028009
63268167 104 18410288073552807406
6333272 397 18409449210705602571
7364860 26 18129382592278590654
7832392 63 17980483352053837025

>  <PUBCHEM_SHAPE_MULTIPOLES>  (1) 
300.3
5.21
2.48
0.99
1.58
0.07
0.21
-2.04
0.02
-0.86
-0.04
0.38
-0.13
-0.81

>  <PUBCHEM_SHAPE_SELFOVERLAP>  (1) 
650.46

>  <PUBCHEM_SHAPE_VOLUME>  (1) 
165.2

>  <PUBCHEM_COORDINATE_TYPE>  (1) 
2
5
10

$$$$
