9579
     RDKit          3D

 12 12  0  0  0  0  0  0  0  0999 V2000
    3.0874   -0.0042    0.0004 Cl  0  0  0  0  0  0  0  0  0  0  0  0
    1.3200   -2.3795   -0.0012 F   0  0  0  0  0  0  0  0  0  0  0  0
    1.3276    2.3751   -0.0011 F   0  0  0  0  0  0  0  0  0  0  0  0
   -1.3931    2.3698   -0.0008 F   0  0  0  0  0  0  0  0  0  0  0  0
   -1.4009   -2.3653   -0.0010 F   0  0  0  0  0  0  0  0  0  0  0  0
   -2.7639    0.0042   -0.0004 F   0  0  0  0  0  0  0  0  0  0  0  0
    1.3654   -0.0022    0.0002 C   0  0  0  0  0  0  0  0  0  0  0  0
    0.6660   -1.2091    0.0007 C   0  0  0  0  0  0  0  0  0  0  0  0
    0.6699    1.2068    0.0004 C   0  0  0  0  0  0  0  0  0  0  0  0
   -0.7250    1.2090    0.0007 C   0  0  0  0  0  0  0  0  0  0  0  0
   -0.7289   -1.2069    0.0011 C   0  0  0  0  0  0  0  0  0  0  0  0
   -1.4244    0.0022    0.0010 C   0  0  0  0  0  0  0  0  0  0  0  0
  1  7  1  0
  2  8  1  0
  3  9  1  0
  4 10  1  0
  5 11  1  0
  6 12  1  0
  7  8  2  0
  7  9  1  0
  8 11  1  0
  9 10  2  0
 10 12  1  0
 11 12  2  0
M  END
>  <PUBCHEM_COMPOUND_CID>  (1) 
9579

>  <PUBCHEM_CONFORMER_RMSD>  (1) 
0.4

>  <PUBCHEM_CONFORMER_DIVERSEORDER>  (1) 
1

>  <PUBCHEM_MMFF94_PARTIAL_CHARGES>  (1) 
12
1 -0.18
10 0.19
11 0.19
12 0.19
2 -0.19
3 -0.19
4 -0.19
5 -0.19
6 -0.19
7 0.18
8 0.19
9 0.19

>  <PUBCHEM_EFFECTIVE_ROTOR_COUNT>  (1) 
0

>  <PUBCHEM_PHARMACOPHORE_FEATURES>  (1) 
1
6 7 8 9 10 11 12 rings

>  <PUBCHEM_HEAVY_ATOM_COUNT>  (1) 
12

>  <PUBCHEM_ATOM_DEF_STEREO_COUNT>  (1) 
0

>  <PUBCHEM_ATOM_UDEF_STEREO_COUNT>  (1) 
0

>  <PUBCHEM_BOND_DEF_STEREO_COUNT>  (1) 
0

>  <PUBCHEM_BOND_UDEF_STEREO_COUNT>  (1) 
0

>  <PUBCHEM_ISOTOPIC_ATOM_COUNT>  (1) 
0

>  <PUBCHEM_COMPONENT_COUNT>  (1) 
1

>  <PUBCHEM_CACTVS_TAUTO_COUNT>  (1) 
1

>  <PUBCHEM_CONFORMER_ID>  (1) 
0000256B00000001

>  <PUBCHEM_MMFF94_ENERGY>  (1) 
14.4849

>  <PUBCHEM_FEATURE_SELFOVERLAP>  (1) 
5.074

>  <PUBCHEM_SHAPE_FINGERPRINT>  (1) 
16945 1 18410855460170359814
18185500 45 18410854386407631702
193761 8 18410573985156725895
21040471 1 18266740182105938532
2334 1 17978511167232012804
23552423 10 17972879438894713692
23559900 14 18199756835311924366
241688 4 17906171754604166624
2748010 2 18122342651222039004
5084963 1 18131069363453434224
528886 8 18339637961783093346
66348 1 18410855443069618410

>  <PUBCHEM_SHAPE_MULTIPOLES>  (1) 
212.46
3.07
2.55
0.57
0.87
0
0
0
0
-0.26
0
0.05
0
0

>  <PUBCHEM_SHAPE_SELFOVERLAP>  (1) 
448.817

>  <PUBCHEM_SHAPE_VOLUME>  (1) 
120.3

>  <PUBCHEM_COORDINATE_TYPE>  (1) 
2
5
10

$$$$
