9583
     RDKit          3D

  8  8  0  0  0  0  0  0  0  0999 V2000
    2.2751   -1.2076   -0.0001 Cl  0  0  0  0  0  0  0  0  0  0  0  0
    1.4928    1.6531    0.0000 F   0  0  0  0  0  0  0  0  0  0  0  0
    0.6726   -0.5785    0.0002 C   0  0  0  0  0  0  0  0  0  0  0  0
    0.4589    0.7999    0.0000 C   0  0  0  0  0  0  0  0  0  0  0  0
   -0.4143   -1.4527    0.0000 C   0  0  0  0  0  0  0  0  0  0  0  0
   -0.8416    1.3041    0.0000 C   0  0  0  0  0  0  0  0  0  0  0  0
   -1.7149   -0.9484   -0.0001 C   0  0  0  0  0  0  0  0  0  0  0  0
   -1.9286    0.4300    0.0000 C   0  0  0  0  0  0  0  0  0  0  0  0
  1  3  1  0
  2  4  1  0
  3  4  2  0
  3  5  1  0
  4  6  1  0
  5  7  2  0
  6  8  2  0
  7  8  1  0
M  END
>  <PUBCHEM_COMPOUND_CID>  (1) 
9583

>  <PUBCHEM_CONFORMER_RMSD>  (1) 
0.4

>  <PUBCHEM_CONFORMER_DIVERSEORDER>  (1) 
1

>  <PUBCHEM_MMFF94_PARTIAL_CHARGES>  (1) 
12
1 -0.18
10 0.15
11 0.15
12 0.15
2 -0.19
3 0.18
4 0.19
5 -0.15
6 -0.15
7 -0.15
8 -0.15
9 0.15

>  <PUBCHEM_EFFECTIVE_ROTOR_COUNT>  (1) 
0

>  <PUBCHEM_PHARMACOPHORE_FEATURES>  (1) 
1
6 3 4 5 6 7 8 rings

>  <PUBCHEM_HEAVY_ATOM_COUNT>  (1) 
8

>  <PUBCHEM_ATOM_DEF_STEREO_COUNT>  (1) 
0

>  <PUBCHEM_ATOM_UDEF_STEREO_COUNT>  (1) 
0

>  <PUBCHEM_BOND_DEF_STEREO_COUNT>  (1) 
0

>  <PUBCHEM_BOND_UDEF_STEREO_COUNT>  (1) 
0

>  <PUBCHEM_ISOTOPIC_ATOM_COUNT>  (1) 
0

>  <PUBCHEM_COMPONENT_COUNT>  (1) 
1

>  <PUBCHEM_CACTVS_TAUTO_COUNT>  (1) 
1

>  <PUBCHEM_CONFORMER_ID>  (1) 
0000256F00000001

>  <PUBCHEM_MMFF94_ENERGY>  (1) 
14.1525

>  <PUBCHEM_FEATURE_SELFOVERLAP>  (1) 
5.074

>  <PUBCHEM_SHAPE_FINGERPRINT>  (1) 
16714656 1 18122909728786978110
18185500 45 18192429667057098427
21040471 1 18266459995556269057
23552423 10 18261395606365080806
2748010 2 18410009978878778711
29004967 10 18267309728886695970
5084963 1 18201714025030923587

>  <PUBCHEM_SHAPE_MULTIPOLES>  (1) 
159.23
2.61
1.77
0.61
0.82
0.32
0
-0.48
0
0.12
0
0
-0.03
0

>  <PUBCHEM_SHAPE_SELFOVERLAP>  (1) 
322.477

>  <PUBCHEM_SHAPE_VOLUME>  (1) 
93.8

>  <PUBCHEM_COORDINATE_TYPE>  (1) 
2
5
10

$$$$
