9586
     RDKit          3D

 13 13  0  0  1  0  0  0  0  0999 V2000
   -3.1153   -2.2013    0.2318 F   0  0  0  0  0  0  0  0  0  0  0  0
    0.8788    0.6802    1.8497 O   0  0  0  0  0  0  0  0  0  0  0  0
    3.0444    0.1870    0.0151 N   0  0  0  0  0  0  0  0  0  0  0  0
    0.6841    0.8350    0.4375 C   0  0  0  0  0  0  0  0  0  0  0  0
    1.6507   -0.0977   -0.3193 C   0  0  0  0  0  0  0  0  0  0  0  0
   -0.7432    0.5548    0.1096 C   0  0  0  0  0  0  0  0  0  0  0  0
    3.9398   -0.7184   -0.6887 C   0  0  0  0  0  0  0  0  0  0  0  0
   -1.2715   -0.7177    0.3274 C   0  0  0  0  0  0  0  0  0  0  0  0
   -1.5503    1.5649   -0.4139 C   0  0  0  0  0  0  0  0  0  0  0  0
    5.3895   -0.4399   -0.3497 C   0  0  0  0  0  0  0  0  0  0  0  0
   -2.6072   -0.9800    0.0217 C   0  0  0  0  0  0  0  0  0  0  0  0
   -2.8857    1.3027   -0.7195 C   0  0  0  0  0  0  0  0  0  0  0  0
   -3.4141    0.0304   -0.5016 C   0  0  0  0  0  0  0  0  0  0  0  0
  1 11  1  0
  2  4  1  0
  3  5  1  0
  3  7  1  0
  4  5  1  0
  4  6  1  0
  6  8  2  0
  6  9  1  0
  7 10  1  0
  8 11  1  0
  9 12  2  0
 11 13  2  0
 12 13  1  0
M  END
>  <PUBCHEM_COMPOUND_CID>  (1) 
9586

>  <PUBCHEM_CONFORMER_RMSD>  (1) 
0.6

>  <PUBCHEM_CONFORMER_DIVERSEORDER>  (1) 
1
45
36
37
50
21
5
24
11
44
46
18
48
38
33
32
39
7
28
6
47
26
42
12
25
49
2
41
43
40
31
34
10
20
19
30
8
3
23
16
35
9
14
13
17
15
22
27
29
4

>  <PUBCHEM_MMFF94_PARTIAL_CHARGES>  (1) 
18
1 -0.19
11 0.19
12 -0.15
13 -0.15
17 0.36
2 -0.68
20 0.15
21 0.15
25 0.4
26 0.15
27 0.15
3 -0.9
4 0.42
5 0.27
6 -0.14
7 0.27
8 -0.15
9 -0.15

>  <PUBCHEM_EFFECTIVE_ROTOR_COUNT>  (1) 
4

>  <PUBCHEM_PHARMACOPHORE_FEATURES>  (1) 
5
1 2 acceptor
1 2 donor
1 3 cation
1 3 donor
6 6 8 9 11 12 13 rings

>  <PUBCHEM_HEAVY_ATOM_COUNT>  (1) 
13

>  <PUBCHEM_ATOM_DEF_STEREO_COUNT>  (1) 
0

>  <PUBCHEM_ATOM_UDEF_STEREO_COUNT>  (1) 
1

>  <PUBCHEM_BOND_DEF_STEREO_COUNT>  (1) 
0

>  <PUBCHEM_BOND_UDEF_STEREO_COUNT>  (1) 
0

>  <PUBCHEM_ISOTOPIC_ATOM_COUNT>  (1) 
0

>  <PUBCHEM_COMPONENT_COUNT>  (1) 
1

>  <PUBCHEM_CACTVS_TAUTO_COUNT>  (1) 
1

>  <PUBCHEM_CONFORMER_ID>  (1) 
0000257200000001

>  <PUBCHEM_MMFF94_ENERGY>  (1) 
17.7975

>  <PUBCHEM_FEATURE_SELFOVERLAP>  (1) 
25.374

>  <PUBCHEM_SHAPE_FINGERPRINT>  (1) 
10465860 250 18131346380691896080
11127187 94 18335419075854324983
11543360 7 18187654626118911812
12186901 62 18186798054810250709
12932764 1 17313371327694388629
13024252 1 15936415533314979873
14911166 2 18335691729189905213
15219456 202 18201429345877001304
16945 1 18189033388004341273
17870717 6 18340500958531803750
18186145 218 15647058196209521756
1986462 14 18334859407118631262
200 152 17203322286875113396
20201158 50 18130508552393823862
20281407 28 18343022207134039546
20300324 65 18041002847247867588
20325693 3 18259989249415059655
20432913 95 16415481524054923062
20645476 183 17240477005697950867
20645477 56 18262237703423386757
20671657 53 18273221876604335772
20711985 327 15051728699065780296
20871998 22 17975978988328456843
20871999 31 18259978271705536997
21061003 4 17346882260091190824
21119208 17 17967534553968795860
21499 59 14996004341599796000
22094290 60 18334013886718774004
22485316 2 18409446964907140246
22959321 105 18410862057867939092
23175994 123 17632580443879490144
23402539 116 16660363662997899630
23403322 49 18271810086198983878
23557571 272 18342179912782474004
23559900 14 18340481172044452610
2748010 2 17973707358719311717
53748568 43 17240474789162289505
573450 72 18041267778274109874

>  <PUBCHEM_SHAPE_MULTIPOLES>  (1) 
249.41
8.27
1.48
0.96
11.36
0.37
-0.32
2.14
2.26
-1.65
0.01
0.18
-0.18
0.61

>  <PUBCHEM_SHAPE_SELFOVERLAP>  (1) 
501.808

>  <PUBCHEM_SHAPE_VOLUME>  (1) 
147.6

>  <PUBCHEM_COORDINATE_TYPE>  (1) 
2
5
10

$$$$
