9587
     RDKit          3D

 19 20  0  0  0  0  0  0  0  0999 V2000
   -2.3286   -2.4536   -0.0476 F   0  0  0  0  0  0  0  0  0  0  0  0
   -5.1496    2.2321   -0.1161 F   0  0  0  0  0  0  0  0  0  0  0  0
    5.1609    0.1209   -0.1864 N   0  0  0  0  0  0  0  0  0  0  0  0
   -0.3798    0.0501    0.6146 N   0  0  0  0  0  0  0  0  0  0  0  0
   -0.9706   -0.0728   -0.4840 N   0  0  0  0  0  0  0  0  0  0  0  0
    3.7650    0.1033    0.0152 C   0  0  0  0  0  0  0  0  0  0  0  0
    3.0425    1.2964   -0.0021 C   0  0  0  0  0  0  0  0  0  0  0  0
    3.1069   -1.1074    0.2321 C   0  0  0  0  0  0  0  0  0  0  0  0
    1.0041    0.0685    0.4143 C   0  0  0  0  0  0  0  0  0  0  0  0
    1.6621    1.2790    0.1975 C   0  0  0  0  0  0  0  0  0  0  0  0
    1.7264   -1.1248    0.4316 C   0  0  0  0  0  0  0  0  0  0  0  0
    5.9466    1.2692    0.2191 C   0  0  0  0  0  0  0  0  0  0  0  0
    5.8296   -1.0151   -0.7892 C   0  0  0  0  0  0  0  0  0  0  0  0
   -2.3613   -0.0914   -0.2822 C   0  0  0  0  0  0  0  0  0  0  0  0
   -3.0134   -1.3014   -0.0664 C   0  0  0  0  0  0  0  0  0  0  0  0
   -3.0758    1.1025   -0.3000 C   0  0  0  0  0  0  0  0  0  0  0  0
   -4.4562    1.0861   -0.1002 C   0  0  0  0  0  0  0  0  0  0  0  0
   -4.3939   -1.3176    0.1335 C   0  0  0  0  0  0  0  0  0  0  0  0
   -5.1152   -0.1239    0.1165 C   0  0  0  0  0  0  0  0  0  0  0  0
  1 15  1  0
  2 17  1  0
  3  6  1  0
  3 12  1  0
  3 13  1  0
  4  5  2  0
  4  9  1  0
  5 14  1  0
  6  7  2  0
  6  8  1  0
  7 10  1  0
  8 11  2  0
  9 10  2  0
  9 11  1  0
 14 15  2  0
 14 16  1  0
 15 18  1  0
 16 17  2  0
 17 19  1  0
 18 19  2  0
M  END
>  <PUBCHEM_COMPOUND_CID>  (1) 
9587

>  <PUBCHEM_CONFORMER_RMSD>  (1) 
0.6

>  <PUBCHEM_CONFORMER_DIVERSEORDER>  (1) 
1
6
8
2
4
7
3
5

>  <PUBCHEM_MMFF94_PARTIAL_CHARGES>  (1) 
26
1 -0.19
10 -0.15
11 -0.15
12 0.37
13 0.37
14 0.18
15 0.19
16 -0.15
17 0.19
18 -0.15
19 -0.15
2 -0.19
20 0.15
21 0.15
22 0.15
23 0.15
3 -0.84
30 0.15
31 0.15
32 0.15
4 -0.18
5 -0.18
6 0.1
7 -0.15
8 -0.15
9 0.18

>  <PUBCHEM_EFFECTIVE_ROTOR_COUNT>  (1) 
3

>  <PUBCHEM_PHARMACOPHORE_FEATURES>  (1) 
3
1 3 cation
6 14 15 16 17 18 19 rings
6 6 7 8 9 10 11 rings

>  <PUBCHEM_HEAVY_ATOM_COUNT>  (1) 
19

>  <PUBCHEM_ATOM_DEF_STEREO_COUNT>  (1) 
0

>  <PUBCHEM_ATOM_UDEF_STEREO_COUNT>  (1) 
0

>  <PUBCHEM_BOND_DEF_STEREO_COUNT>  (1) 
0

>  <PUBCHEM_BOND_UDEF_STEREO_COUNT>  (1) 
0

>  <PUBCHEM_ISOTOPIC_ATOM_COUNT>  (1) 
0

>  <PUBCHEM_COMPONENT_COUNT>  (1) 
1

>  <PUBCHEM_CACTVS_TAUTO_COUNT>  (1) 
1

>  <PUBCHEM_CONFORMER_ID>  (1) 
0000257300000001

>  <PUBCHEM_MMFF94_ENERGY>  (1) 
61.7489

>  <PUBCHEM_FEATURE_SELFOVERLAP>  (1) 
15.223

>  <PUBCHEM_SHAPE_FINGERPRINT>  (1) 
10616163 171 18339079397255726815
11287383 113 18410856594590404200
12107183 9 17760080714211007297
12236239 1 18059858363441240248
12788726 201 17773878597228585377
13167823 11 18408884065870996602
13760787 19 18408037398957438715
14251731 8 18341895177619078069
14251764 18 18201723964149508601
14341114 176 18411423916377492572
15042514 8 18193279818213124011
15183329 4 18411420566519253522
15196674 1 18410291406584676618
15242433 33 18409728439414488850
15788980 27 18335143102672639418
17834072 33 18411981381826410524
17844677 252 18411707616052661360
19489759 90 10807938158626498327
200 152 18131351929293744394
20281389 69 18187080624750855741
20621476 66 18129951074788342305
20645477 56 18408319973999535053
20645477 70 17989211408926546414
20681677 155 18335137591939552619
21267235 1 18336272322853069435
21709351 56 18335414698913437420
221490 88 18193562392030887050
2297311 6 18412270536310225997
23402539 116 18409725170865132060
23402655 69 18408884031769428776
23536379 177 18410011031457015592
23557571 272 18412268336912547653
23559900 14 18271799163712125920
2916195 48 18341323513699662216
29717793 49 17489311846056510476
300161 21 18334286561302090354
3004659 81 18335986381500975454
34797466 226 17917440877506991756
3545911 37 18410575080716420689
4073 2 18114185289252834946
4214541 1 18410573989821088233
42788 4 18410855464776608936
4463277 17 18411982468790928352
4990 188 18341899593325571366
5104073 3 18334853909307298472
542803 24 17167582687284226484
559249 180 18411979131010710070
59755656 215 18341336587506108854
59755656 520 16732706038588899355
6327066 14 17970900056705864573
633830 44 17895472635046500106
77779 3 18409448098419641299
9709674 26 18411704305012944135

>  <PUBCHEM_SHAPE_MULTIPOLES>  (1) 
361.52
14.26
1.81
0.7
5.28
0.08
0.01
-1.95
1.3
-1.15
0.03
0.23
0.04
0.45

>  <PUBCHEM_SHAPE_SELFOVERLAP>  (1) 
773.246

>  <PUBCHEM_SHAPE_VOLUME>  (1) 
202.7

>  <PUBCHEM_COORDINATE_TYPE>  (1) 
2
5
10

$$$$
