9588
     RDKit          3D

 11 11  0  0  0  0  0  0  0  0999 V2000
    2.6563    0.0079   -1.7709 Cl  0  0  0  0  0  0  0  0  0  0  0  0
    2.1110   -0.0027    0.2021 S   0  0  0  0  0  0  0  0  0  0  0  0
   -3.7560    0.0035   -0.1101 F   0  0  0  0  0  0  0  0  0  0  0  0
    2.5572   -1.2756    0.7368 O   0  0  0  0  0  0  0  0  0  0  0  0
    2.5843    1.2634    0.7304 O   0  0  0  0  0  0  0  0  0  0  0  0
    0.3674   -0.0010    0.1093 C   0  0  0  0  0  0  0  0  0  0  0  0
   -0.3280    1.2078    0.0790 C   0  0  0  0  0  0  0  0  0  0  0  0
   -0.3299   -1.2081    0.0656 C   0  0  0  0  0  0  0  0  0  0  0  0
   -1.7209    1.2093    0.0050 C   0  0  0  0  0  0  0  0  0  0  0  0
   -1.7229   -1.2066   -0.0084 C   0  0  0  0  0  0  0  0  0  0  0  0
   -2.4184    0.0021   -0.0388 C   0  0  0  0  0  0  0  0  0  0  0  0
  1  2  1  0
  2  4  2  0
  2  5  2  0
  2  6  1  0
  3 11  1  0
  6  7  2  0
  6  8  1  0
  7  9  1  0
  8 10  2  0
  9 11  2  0
 10 11  1  0
M  END
>  <PUBCHEM_COMPOUND_CID>  (1) 
9588

>  <PUBCHEM_CONFORMER_RMSD>  (1) 
0.4

>  <PUBCHEM_CONFORMER_DIVERSEORDER>  (1) 
1

>  <PUBCHEM_MMFF94_PARTIAL_CHARGES>  (1) 
15
1 -0.19
10 -0.15
11 0.19
12 0.15
13 0.15
14 0.15
15 0.15
2 1.49
3 -0.19
4 -0.65
5 -0.65
6 -0.01
7 -0.15
8 -0.15
9 -0.15

>  <PUBCHEM_EFFECTIVE_ROTOR_COUNT>  (1) 
1

>  <PUBCHEM_PHARMACOPHORE_FEATURES>  (1) 
1
6 6 7 8 9 10 11 rings

>  <PUBCHEM_HEAVY_ATOM_COUNT>  (1) 
11

>  <PUBCHEM_ATOM_DEF_STEREO_COUNT>  (1) 
0

>  <PUBCHEM_ATOM_UDEF_STEREO_COUNT>  (1) 
0

>  <PUBCHEM_BOND_DEF_STEREO_COUNT>  (1) 
0

>  <PUBCHEM_BOND_UDEF_STEREO_COUNT>  (1) 
0

>  <PUBCHEM_ISOTOPIC_ATOM_COUNT>  (1) 
0

>  <PUBCHEM_COMPONENT_COUNT>  (1) 
1

>  <PUBCHEM_CACTVS_TAUTO_COUNT>  (1) 
1

>  <PUBCHEM_CONFORMER_ID>  (1) 
0000257400000001

>  <PUBCHEM_MMFF94_ENERGY>  (1) 
13.7926

>  <PUBCHEM_FEATURE_SELFOVERLAP>  (1) 
5.074

>  <PUBCHEM_SHAPE_FINGERPRINT>  (1) 
12524768 44 18202285843954589596
12897270 3 18412549820547530662
12932764 1 18410578387519309809
14325111 11 18410849949964864905
15775835 57 18335141981607053904
16945 1 18409452500734745921
18186145 218 18272654515397676657
20201158 50 17846223245679976030
20645464 45 18131064961190953650
20645476 183 17895206539947243815
20653085 51 17560253435338513249
20711985 344 17985851245109159704
21040471 1 18337391534894328513
23402655 69 18123728896106777933
23552423 10 18189336942716700868
2748010 2 18123187072247587207
3248919 1 17168142368551335715
369184 2 18411692192898460827
5084963 1 17822571590714217568
7364860 26 18341610400371815946
8030462 33 18261398836159310374

>  <PUBCHEM_SHAPE_MULTIPOLES>  (1) 
213.08
4.82
1.39
1.01
0.75
0
-0.4
-0.01
-0.57
0.03
0.2
-1.04
0
-0.01

>  <PUBCHEM_SHAPE_SELFOVERLAP>  (1) 
421.996

>  <PUBCHEM_SHAPE_VOLUME>  (1) 
129.5

>  <PUBCHEM_COORDINATE_TYPE>  (1) 
2
5
10

$$$$
