9591
     RDKit          3D

  8  8  0  0  0  0  0  0  0  0999 V2000
    2.8275    0.4776    0.0001 F   0  0  0  0  0  0  0  0  0  0  0  0
    0.5542   -0.2860   -0.0001 C   0  0  0  0  0  0  0  0  0  0  0  0
    0.1418    1.0466   -0.0001 C   0  0  0  0  0  0  0  0  0  0  0  0
   -0.3935   -1.3093    0.0000 C   0  0  0  0  0  0  0  0  0  0  0  0
    2.0085   -0.6165    0.0000 C   0  0  0  0  0  0  0  0  0  0  0  0
   -1.2184    1.3557    0.0000 C   0  0  0  0  0  0  0  0  0  0  0  0
   -1.7538   -1.0002    0.0001 C   0  0  0  0  0  0  0  0  0  0  0  0
   -2.1663    0.3322    0.0000 C   0  0  0  0  0  0  0  0  0  0  0  0
  1  5  1  0
  2  3  2  0
  2  4  1  0
  2  5  1  0
  3  6  1  0
  4  7  2  0
  6  8  2  0
  7  8  1  0
M  END
>  <PUBCHEM_COMPOUND_CID>  (1) 
9591

>  <PUBCHEM_CONFORMER_RMSD>  (1) 
0.4

>  <PUBCHEM_CONFORMER_DIVERSEORDER>  (1) 
1
2

>  <PUBCHEM_MMFF94_PARTIAL_CHARGES>  (1) 
13
1 -0.34
10 0.15
13 0.15
14 0.15
15 0.15
2 -0.14
3 -0.15
4 -0.15
5 0.48
6 -0.15
7 -0.15
8 -0.15
9 0.15

>  <PUBCHEM_EFFECTIVE_ROTOR_COUNT>  (1) 
1

>  <PUBCHEM_PHARMACOPHORE_FEATURES>  (1) 
1
6 2 3 4 6 7 8 rings

>  <PUBCHEM_HEAVY_ATOM_COUNT>  (1) 
8

>  <PUBCHEM_ATOM_DEF_STEREO_COUNT>  (1) 
0

>  <PUBCHEM_ATOM_UDEF_STEREO_COUNT>  (1) 
0

>  <PUBCHEM_BOND_DEF_STEREO_COUNT>  (1) 
0

>  <PUBCHEM_BOND_UDEF_STEREO_COUNT>  (1) 
0

>  <PUBCHEM_ISOTOPIC_ATOM_COUNT>  (1) 
0

>  <PUBCHEM_COMPONENT_COUNT>  (1) 
1

>  <PUBCHEM_CACTVS_TAUTO_COUNT>  (1) 
1

>  <PUBCHEM_CONFORMER_ID>  (1) 
0000257700000001

>  <PUBCHEM_MMFF94_ENERGY>  (1) 
15.6706

>  <PUBCHEM_FEATURE_SELFOVERLAP>  (1) 
5.074

>  <PUBCHEM_SHAPE_FINGERPRINT>  (1) 
10857977 72 18339352080148760218
16714656 1 18411420604883763399
18185500 45 18335420200782321831
21040471 1 18194683661672736513
23552423 10 18260834752456212470
29004967 10 18336553797228380538
369184 2 16370722634348809904
5084963 1 18200027322517073130

>  <PUBCHEM_SHAPE_MULTIPOLES>  (1) 
157.36
3.07
1.43
0.6
1.55
0.02
0
0.15
0
-0.39
0
-0.04
-0.01
0

>  <PUBCHEM_SHAPE_SELFOVERLAP>  (1) 
323.02

>  <PUBCHEM_SHAPE_VOLUME>  (1) 
91.1

>  <PUBCHEM_COORDINATE_TYPE>  (1) 
2
5
10

$$$$
