9592
     RDKit          3D

 19 20  0  0  0  0  0  0  0  0999 V2000
   -4.9487   -2.3580    0.1958 F   0  0  0  0  0  0  0  0  0  0  0  0
   -4.9471    2.3700   -0.0755 F   0  0  0  0  0  0  0  0  0  0  0  0
    5.3055   -0.0132   -0.1730 N   0  0  0  0  0  0  0  0  0  0  0  0
   -0.2402    0.0357    0.5945 N   0  0  0  0  0  0  0  0  0  0  0  0
   -0.8270   -0.0280   -0.5113 N   0  0  0  0  0  0  0  0  0  0  0  0
    3.9083   -0.0007    0.0201 C   0  0  0  0  0  0  0  0  0  0  0  0
    3.2184    1.2115    0.0458 C   0  0  0  0  0  0  0  0  0  0  0  0
    3.2164   -1.2005    0.1857 C   0  0  0  0  0  0  0  0  0  0  0  0
    1.1450    0.0242    0.4026 C   0  0  0  0  0  0  0  0  0  0  0  0
    1.8368    1.2239    0.2371 C   0  0  0  0  0  0  0  0  0  0  0  0
    1.8346   -1.1881    0.3769 C   0  0  0  0  0  0  0  0  0  0  0  0
    6.1193    1.0965    0.2816 C   0  0  0  0  0  0  0  0  0  0  0  0
    5.9471   -1.1425   -0.8164 C   0  0  0  0  0  0  0  0  0  0  0  0
   -2.2189   -0.0165   -0.3179 C   0  0  0  0  0  0  0  0  0  0  0  0
   -2.9023    1.1951   -0.2924 C   0  0  0  0  0  0  0  0  0  0  0  0
   -2.9032   -1.2169   -0.1540 C   0  0  0  0  0  0  0  0  0  0  0  0
   -4.2849   -1.2054    0.0376 C   0  0  0  0  0  0  0  0  0  0  0  0
   -4.2840    1.2066   -0.1010 C   0  0  0  0  0  0  0  0  0  0  0  0
   -4.9753    0.0064    0.0640 C   0  0  0  0  0  0  0  0  0  0  0  0
  1 17  1  0
  2 18  1  0
  3  6  1  0
  3 12  1  0
  3 13  1  0
  4  5  2  0
  4  9  1  0
  5 14  1  0
  6  7  2  0
  6  8  1  0
  7 10  1  0
  8 11  2  0
  9 10  2  0
  9 11  1  0
 14 15  2  0
 14 16  1  0
 15 18  1  0
 16 17  2  0
 17 19  1  0
 18 19  2  0
M  END
>  <PUBCHEM_COMPOUND_CID>  (1) 
9592

>  <PUBCHEM_CONFORMER_RMSD>  (1) 
0.6

>  <PUBCHEM_CONFORMER_DIVERSEORDER>  (1) 
1
2
3

>  <PUBCHEM_MMFF94_PARTIAL_CHARGES>  (1) 
26
1 -0.19
10 -0.15
11 -0.15
12 0.37
13 0.37
14 0.18
15 -0.15
16 -0.15
17 0.19
18 0.19
19 -0.15
2 -0.19
20 0.15
21 0.15
22 0.15
23 0.15
3 -0.84
30 0.15
31 0.15
32 0.15
4 -0.18
5 -0.18
6 0.1
7 -0.15
8 -0.15
9 0.18

>  <PUBCHEM_EFFECTIVE_ROTOR_COUNT>  (1) 
3

>  <PUBCHEM_PHARMACOPHORE_FEATURES>  (1) 
3
1 3 cation
6 14 15 16 17 18 19 rings
6 6 7 8 9 10 11 rings

>  <PUBCHEM_HEAVY_ATOM_COUNT>  (1) 
19

>  <PUBCHEM_ATOM_DEF_STEREO_COUNT>  (1) 
0

>  <PUBCHEM_ATOM_UDEF_STEREO_COUNT>  (1) 
0

>  <PUBCHEM_BOND_DEF_STEREO_COUNT>  (1) 
0

>  <PUBCHEM_BOND_UDEF_STEREO_COUNT>  (1) 
0

>  <PUBCHEM_ISOTOPIC_ATOM_COUNT>  (1) 
0

>  <PUBCHEM_COMPONENT_COUNT>  (1) 
1

>  <PUBCHEM_CACTVS_TAUTO_COUNT>  (1) 
1

>  <PUBCHEM_CONFORMER_ID>  (1) 
0000257800000001

>  <PUBCHEM_MMFF94_ENERGY>  (1) 
61.7503

>  <PUBCHEM_FEATURE_SELFOVERLAP>  (1) 
15.223

>  <PUBCHEM_SHAPE_FINGERPRINT>  (1) 
10366900 7 16877939460007747977
10595046 47 18334575776010315510
10912923 1 17821441357269782680
11287383 113 18411701010909437600
11315181 36 18114180869367321117
12107183 9 17759798144123079217
12236239 1 18060139834244263920
12616971 3 14189294902094190395
13073987 5 18334573533942695210
13167823 11 18410290332705748031
13288520 33 18411701006720101759
13533116 47 14189304721328270286
14251718 22 18409449210858407970
14251732 16 18337952410821722560
14341114 176 18411705374037093029
15196674 1 18410572881666726394
15778101 99 18339364067967349273
15788980 27 17489866046517913052
17834072 33 18409167727249603684
17844677 252 18412270561695226169
200 152 18202002144227050298
20645477 70 18272654507282638902
21267235 1 18408610288071636451
21709351 56 18334571360578376332
220451 1 17967535636374602314
2297311 6 18412832386767804805
23081809 10 17603586322798102394
23402539 116 18259700103584631644
23402655 69 18410853239867492068
23536379 177 18410855447818279488
23557571 272 18412549807699740557
23559900 14 18339633542705117369
2916195 48 18341042025827454680
29717793 49 17418097568889356652
300161 21 18114174212057099543
3004659 81 18336549322901378974
3545911 37 18410855439123038105
4073 2 18114187457863289730
4214541 1 18410573977020614857
42788 4 18411418414824943308
4463277 17 18413108360134197160
4990 188 18342181055296073822
5104073 3 18409725149316280882
542803 24 17022905640187217980
59755656 520 16805327673691806891
6327066 14 17971464097591541533
77779 3 18410009940271493729

>  <PUBCHEM_SHAPE_MULTIPOLES>  (1) 
361.52
15.01
1.81
0.7
5.16
0.01
-0.02
0.03
-1.13
-1.65
0.01
0.26
-0.05
0.58

>  <PUBCHEM_SHAPE_SELFOVERLAP>  (1) 
772.589

>  <PUBCHEM_SHAPE_VOLUME>  (1) 
203

>  <PUBCHEM_COORDINATE_TYPE>  (1) 
2
5
10

$$$$
