9596
     RDKit          3D

 12 12  0  0  0  0  0  0  0  0999 V2000
    3.6808    1.0398    0.0126 F   0  0  0  0  0  0  0  0  0  0  0  0
    2.9699   -0.7107    1.1002 F   0  0  0  0  0  0  0  0  0  0  0  0
    3.0002   -0.7162   -1.0854 F   0  0  0  0  0  0  0  0  0  0  0  0
    0.4029   -0.4365   -0.0132 N   0  0  0  0  0  0  0  0  0  0  0  0
    1.3671    0.6198   -0.0182 C   0  0  0  0  0  0  0  0  0  0  0  0
   -0.9882   -0.2038   -0.0067 C   0  0  0  0  0  0  0  0  0  0  0  0
    2.7633    0.0474    0.0024 C   0  0  0  0  0  0  0  0  0  0  0  0
   -1.4772    1.1026   -0.0049 C   0  0  0  0  0  0  0  0  0  0  0  0
   -1.8752   -1.2805   -0.0015 C   0  0  0  0  0  0  0  0  0  0  0  0
   -2.8529    1.3325    0.0021 C   0  0  0  0  0  0  0  0  0  0  0  0
   -3.2510   -1.0505    0.0054 C   0  0  0  0  0  0  0  0  0  0  0  0
   -3.7398    0.2560    0.0073 C   0  0  0  0  0  0  0  0  0  0  0  0
  1  7  1  0
  2  7  1  0
  3  7  1  0
  4  5  1  0
  4  6  1  0
  5  7  1  0
  6  8  2  0
  6  9  1  0
  8 10  1  0
  9 11  2  0
 10 12  2  0
 11 12  1  0
M  END
>  <PUBCHEM_COMPOUND_CID>  (1) 
9596

>  <PUBCHEM_CONFORMER_RMSD>  (1) 
0.6

>  <PUBCHEM_CONFORMER_DIVERSEORDER>  (1) 
1
3
2

>  <PUBCHEM_MMFF94_PARTIAL_CHARGES>  (1) 
18
1 -0.34
10 -0.15
11 -0.15
12 -0.15
15 0.4
16 0.15
17 0.15
18 0.15
19 0.15
2 -0.34
20 0.15
3 -0.34
4 -0.87
5 0.37
6 0.1
7 1.02
8 -0.15
9 -0.15

>  <PUBCHEM_EFFECTIVE_ROTOR_COUNT>  (1) 
3

>  <PUBCHEM_PHARMACOPHORE_FEATURES>  (1) 
3
1 4 cation
1 4 donor
6 6 8 9 10 11 12 rings

>  <PUBCHEM_HEAVY_ATOM_COUNT>  (1) 
12

>  <PUBCHEM_ATOM_DEF_STEREO_COUNT>  (1) 
0

>  <PUBCHEM_ATOM_UDEF_STEREO_COUNT>  (1) 
0

>  <PUBCHEM_BOND_DEF_STEREO_COUNT>  (1) 
0

>  <PUBCHEM_BOND_UDEF_STEREO_COUNT>  (1) 
0

>  <PUBCHEM_ISOTOPIC_ATOM_COUNT>  (1) 
0

>  <PUBCHEM_COMPONENT_COUNT>  (1) 
1

>  <PUBCHEM_CACTVS_TAUTO_COUNT>  (1) 
1

>  <PUBCHEM_CONFORMER_ID>  (1) 
0000257C00000001

>  <PUBCHEM_MMFF94_ENERGY>  (1) 
31.9055

>  <PUBCHEM_FEATURE_SELFOVERLAP>  (1) 
15.223

>  <PUBCHEM_SHAPE_FINGERPRINT>  (1) 
10608611 8 18342736312488600001
12932764 1 17894910702594263076
13024252 1 15502374530910671185
13296908 3 18060142028735233870
14144814 61 18333448729220604419
14325111 11 18410856551097405701
15669948 3 18340762745035648087
15775835 57 18187646890244547056
18186145 218 18333732398920438996
190213 19 16950281806108456161
20201158 50 18131354102631663527
20279233 1 17847058882954065374
20510252 161 18272374157186264433
20645477 70 17560807576298401006
20871998 184 18201162169347650479
23402539 116 18343574154087942191
23463225 33 18260824852329592554
23559900 14 18272089353752070582
3248919 1 18059853939440321896
57812782 119 18202279199698204885
6333449 129 18342455946145785949

>  <PUBCHEM_SHAPE_MULTIPOLES>  (1) 
220.15
6.95
1.3
0.73
3.15
0.07
0
0.17
0.02
-0.68
0
0.37
-0.1
0

>  <PUBCHEM_SHAPE_SELFOVERLAP>  (1) 
453.965

>  <PUBCHEM_SHAPE_VOLUME>  (1) 
127

>  <PUBCHEM_COORDINATE_TYPE>  (1) 
2
5
10

$$$$
