9598
     RDKit          3D

 19 20  0  0  0  0  0  0  0  0999 V2000
   -4.9668    2.0334   -0.1415 F   0  0  0  0  0  0  0  0  0  0  0  0
   -6.2208   -0.3657    0.2417 F   0  0  0  0  0  0  0  0  0  0  0  0
    5.3781    0.0852   -0.1667 N   0  0  0  0  0  0  0  0  0  0  0  0
   -0.1663   -0.0812    0.5935 N   0  0  0  0  0  0  0  0  0  0  0  0
   -0.7475   -0.1977   -0.5109 N   0  0  0  0  0  0  0  0  0  0  0  0
    3.9812    0.0435    0.0246 C   0  0  0  0  0  0  0  0  0  0  0  0
    3.2406    1.2256    0.0187 C   0  0  0  0  0  0  0  0  0  0  0  0
    3.3403   -1.1800    0.2199 C   0  0  0  0  0  0  0  0  0  0  0  0
    1.2185   -0.0390    0.4034 C   0  0  0  0  0  0  0  0  0  0  0  0
    1.8594    1.1844    0.2081 C   0  0  0  0  0  0  0  0  0  0  0  0
    1.9589   -1.2212    0.4093 C   0  0  0  0  0  0  0  0  0  0  0  0
    6.1432    1.2395    0.2604 C   0  0  0  0  0  0  0  0  0  0  0  0
    6.0683   -1.0320   -0.7804 C   0  0  0  0  0  0  0  0  0  0  0  0
   -2.1391   -0.2403   -0.3194 C   0  0  0  0  0  0  0  0  0  0  0  0
   -2.8734    0.9415   -0.3255 C   0  0  0  0  0  0  0  0  0  0  0  0
   -2.7721   -1.4641   -0.1250 C   0  0  0  0  0  0  0  0  0  0  0  0
   -4.2547    0.8992   -0.1353 C   0  0  0  0  0  0  0  0  0  0  0  0
   -4.1532   -1.5064    0.0652 C   0  0  0  0  0  0  0  0  0  0  0  0
   -4.8945   -0.3248    0.0599 C   0  0  0  0  0  0  0  0  0  0  0  0
  1 17  1  0
  2 19  1  0
  3  6  1  0
  3 12  1  0
  3 13  1  0
  4  5  2  0
  4  9  1  0
  5 14  1  0
  6  7  2  0
  6  8  1  0
  7 10  1  0
  8 11  2  0
  9 10  2  0
  9 11  1  0
 14 15  2  0
 14 16  1  0
 15 17  1  0
 16 18  2  0
 17 19  2  0
 18 19  1  0
M  END
>  <PUBCHEM_COMPOUND_CID>  (1) 
9598

>  <PUBCHEM_CONFORMER_RMSD>  (1) 
0.6

>  <PUBCHEM_CONFORMER_DIVERSEORDER>  (1) 
1
6
2
3
4
5

>  <PUBCHEM_MMFF94_PARTIAL_CHARGES>  (1) 
26
1 -0.19
10 -0.15
11 -0.15
12 0.37
13 0.37
14 0.18
15 -0.15
16 -0.15
17 0.19
18 -0.15
19 0.19
2 -0.19
20 0.15
21 0.15
22 0.15
23 0.15
3 -0.84
30 0.15
31 0.15
32 0.15
4 -0.18
5 -0.18
6 0.1
7 -0.15
8 -0.15
9 0.18

>  <PUBCHEM_EFFECTIVE_ROTOR_COUNT>  (1) 
3

>  <PUBCHEM_PHARMACOPHORE_FEATURES>  (1) 
3
1 3 cation
6 14 15 16 17 18 19 rings
6 6 7 8 9 10 11 rings

>  <PUBCHEM_HEAVY_ATOM_COUNT>  (1) 
19

>  <PUBCHEM_ATOM_DEF_STEREO_COUNT>  (1) 
0

>  <PUBCHEM_ATOM_UDEF_STEREO_COUNT>  (1) 
0

>  <PUBCHEM_BOND_DEF_STEREO_COUNT>  (1) 
0

>  <PUBCHEM_BOND_UDEF_STEREO_COUNT>  (1) 
0

>  <PUBCHEM_ISOTOPIC_ATOM_COUNT>  (1) 
0

>  <PUBCHEM_COMPONENT_COUNT>  (1) 
1

>  <PUBCHEM_CACTVS_TAUTO_COUNT>  (1) 
1

>  <PUBCHEM_CONFORMER_ID>  (1) 
0000257E00000001

>  <PUBCHEM_MMFF94_ENERGY>  (1) 
61.7421

>  <PUBCHEM_FEATURE_SELFOVERLAP>  (1) 
15.223

>  <PUBCHEM_SHAPE_FINGERPRINT>  (1) 
10354089 29 18260266352299698552
10366900 7 16805038532146081993
10968037 39 18334012817947195935
11287383 113 18410575119608314848
11315181 36 17967534601340101357
12107183 9 17688023120289013473
12236239 1 17988927773137764602
13073987 5 18334574607726580747
13167823 11 18410290336984962559
13533116 47 13182474230933738396
1420 363 17968099741331354354
14251764 18 18202004343872706947
14341114 176 18410860966276241780
14933364 13 18411984663213209580
15183329 4 18411983520857332442
15196674 1 18410009923044346650
15778101 99 18340208480239523641
15788980 27 17418371411086592580
17834072 33 18411417327971422590
17844677 252 18412270544483779921
200 152 18202565089827436538
20281389 69 18335137579060198000
20645477 70 18342459188883660950
20681677 155 18335136496701929539
21267235 1 18336271214767246859
21709351 56 18335977644577094748
2297311 6 18411987953221416493
23035841 295 18410857646535872218
23402539 116 18334289881580868164
23402655 69 18410571777833699082
23536379 177 18411418406287736896
23557571 272 18410296886788899373
23559900 14 18340480179358738569
29717793 49 17489594429166341044
300161 21 18187638098478172999
3004659 81 18336549331454409750
34797466 226 17988650726552209940
3545911 37 18410573989741837081
4073 2 18041284365374971434
4214541 1 18410573981299725413
42788 4 18410855464739620718
4463277 17 18412263943640973520
5104073 3 18334853896411853561
542803 24 16950284005205545310
54446538 1 18334575763152216269
59755656 215 18411985724233909198
59755656 520 17022620883903362947
6327066 14 17898842454109663573
77779 3 18409446994618398923

>  <PUBCHEM_SHAPE_MULTIPOLES>  (1) 
361.52
15.6
1.58
0.7
2.34
0.14
-0.02
1.02
-1.02
-0.4
-0.02
0.24
-0.05
0.47

>  <PUBCHEM_SHAPE_SELFOVERLAP>  (1) 
773.041

>  <PUBCHEM_SHAPE_VOLUME>  (1) 
203

>  <PUBCHEM_COORDINATE_TYPE>  (1) 
2
5
10

$$$$
