9600
     RDKit          3D

 19 19  0  0  0  0  0  0  0  0999 V2000
    6.9992    1.1664   -0.4032 F   0  0  0  0  0  0  0  0  0  0  0  0
   -1.3665    0.0959    0.3017 O   0  0  0  0  0  0  0  0  0  0  0  0
    2.0261   -1.0151    0.4067 O   0  0  0  0  0  0  0  0  0  0  0  0
   -0.3842   -1.8665   -0.4143 O   0  0  0  0  0  0  0  0  0  0  0  0
   -5.0054    0.2565   -0.2630 N   0  0  0  0  0  0  0  0  0  0  0  0
   -3.6800    0.6909    0.1768 C   0  0  0  0  0  0  0  0  0  0  0  0
   -5.3863   -0.9845    0.4104 C   0  0  0  0  0  0  0  0  0  0  0  0
   -5.9963    1.3014   -0.0080 C   0  0  0  0  0  0  0  0  0  0  0  0
   -2.6382   -0.3744   -0.1256 C   0  0  0  0  0  0  0  0  0  0  0  0
   -6.7349   -1.4836   -0.0797 C   0  0  0  0  0  0  0  0  0  0  0  0
   -5.6165    2.5991   -0.7008 C   0  0  0  0  0  0  0  0  0  0  0  0
   -0.3146   -0.7569    0.0965 C   0  0  0  0  0  0  0  0  0  0  0  0
    0.9520   -0.1166    0.6003 C   0  0  0  0  0  0  0  0  0  0  0  0
    3.2705   -0.4686    0.2047 C   0  0  0  0  0  0  0  0  0  0  0  0
    3.5836    0.7550    0.7814 C   0  0  0  0  0  0  0  0  0  0  0  0
    4.1976   -1.1483   -0.5741 C   0  0  0  0  0  0  0  0  0  0  0  0
    4.8470    1.3091    0.5754 C   0  0  0  0  0  0  0  0  0  0  0  0
    5.4610   -0.5942   -0.7799 C   0  0  0  0  0  0  0  0  0  0  0  0
    5.7858    0.6345   -0.2052 C   0  0  0  0  0  0  0  0  0  0  0  0
  1 19  1  0
  2  9  1  0
  2 12  1  0
  3 13  1  0
  3 14  1  0
  4 12  2  0
  5  6  1  0
  5  7  1  0
  5  8  1  0
  6  9  1  0
  7 10  1  0
  8 11  1  0
 12 13  1  0
 14 15  2  0
 14 16  1  0
 15 17  1  0
 16 18  2  0
 17 19  2  0
 18 19  1  0
M  END
>  <PUBCHEM_COMPOUND_CID>  (1) 
9600

>  <PUBCHEM_CONFORMER_RMSD>  (1) 
1

>  <PUBCHEM_CONFORMER_DIVERSEORDER>  (1) 
1
238
569
106
422
556
29
216
366
15
410
361
362
278
165
137
576
318
11
2
407
41
222
46
55
523
589
5
167
125
287
330
18
214
209
38
169
3
183
31
593
37
482
81
34
398
8
6
139
239
91
17
333
544
142
58
374
67
16
494
27
138
71
440
111
54
426
280
180
33
28
279
236
507
92
405
7
21
471
95
101
123
379
217
66
124
177
519
72
264

>  <PUBCHEM_MMFF94_PARTIAL_CHARGES>  (1) 
21
1 -0.19
12 0.66
13 0.34
14 0.08
15 -0.15
16 -0.15
17 -0.15
18 -0.15
19 0.19
2 -0.43
3 -0.36
36 0.15
37 0.15
38 0.15
39 0.15
4 -0.57
5 -0.81
6 0.27
7 0.27
8 0.27
9 0.28

>  <PUBCHEM_EFFECTIVE_ROTOR_COUNT>  (1) 
9

>  <PUBCHEM_PHARMACOPHORE_FEATURES>  (1) 
4
1 3 acceptor
1 4 acceptor
1 5 cation
6 14 15 16 17 18 19 rings

>  <PUBCHEM_HEAVY_ATOM_COUNT>  (1) 
19

>  <PUBCHEM_ATOM_DEF_STEREO_COUNT>  (1) 
0

>  <PUBCHEM_ATOM_UDEF_STEREO_COUNT>  (1) 
0

>  <PUBCHEM_BOND_DEF_STEREO_COUNT>  (1) 
0

>  <PUBCHEM_BOND_UDEF_STEREO_COUNT>  (1) 
0

>  <PUBCHEM_ISOTOPIC_ATOM_COUNT>  (1) 
0

>  <PUBCHEM_COMPONENT_COUNT>  (1) 
1

>  <PUBCHEM_CACTVS_TAUTO_COUNT>  (1) 
1

>  <PUBCHEM_CONFORMER_ID>  (1) 
0000258000000001

>  <PUBCHEM_MMFF94_ENERGY>  (1) 
38.2936

>  <PUBCHEM_FEATURE_SELFOVERLAP>  (1) 
20.305

>  <PUBCHEM_SHAPE_FINGERPRINT>  (1) 
11315181 36 17385445453810115939
11796584 16 9727636102889604013
12091667 2 18260832605404782523
12236239 1 18260265235244347738
12730499 353 18343869918115560198
12916748 109 18343022189954086026
13167372 99 18260828155455017548
13533116 47 12966862195639671892
13668630 136 12967122809396112613
14251718 22 18410856568556973267
14251732 16 18410856594384805731
14528608 73 18412542102449160131
14933364 13 18413953884306821217
15183329 4 16272207479068901013
15348495 7 8430301442703187831
15475509 35 11599458919654484756
15778101 99 18340488860173549761
17844677 252 18413394237273044833
18335252 98 18342182201731049539
20281389 69 18407757036403521112
20645477 70 17989213603755217254
21150785 3 18341897428044920998
220451 1 13039192502430331197
221357 26 17917712379596144872
22224240 67 15357695327544940760
22289505 5 18201718445090614256
22896161 15 18337110163609087515
23081809 10 17821723910399472067
23424782 7 18341614879753998643
23559900 14 16773224202098794970
26918003 58 8286201651731659818
2767999 5 16805321102175519823
2916195 48 18409726279051070953
29717793 49 15410903968194527760
300161 21 14851604409771214170
3014965 18 18271525278401627982
3545911 37 18272090526183248722
4073 2 18113343015579423251
4325135 7 18411418445185308695
59755656 520 17821443586516779634

>  <PUBCHEM_SHAPE_MULTIPOLES>  (1) 
361.15
20.32
1.82
0.79
5.1
0.59
0.01
5.15
2.59
2.31
0.28
-0.33
0.06
1.03

>  <PUBCHEM_SHAPE_SELFOVERLAP>  (1) 
723.345

>  <PUBCHEM_SHAPE_VOLUME>  (1) 
214.4

>  <PUBCHEM_COORDINATE_TYPE>  (1) 
2
5
10

$$$$
