9601
     RDKit          3D

 11 11  0  0  0  0  0  0  0  0999 V2000
    3.8318    0.4496   -0.0004 F   0  0  0  0  0  0  0  0  0  0  0  0
   -2.5987    1.4031   -0.0022 O   0  0  0  0  0  0  0  0  0  0  0  0
   -1.5682   -0.7174    0.0005 N   0  0  0  0  0  0  0  0  0  0  0  0
   -0.2045   -0.4227    0.0010 C   0  0  0  0  0  0  0  0  0  0  0  0
    0.2219    0.9053    0.0016 C   0  0  0  0  0  0  0  0  0  0  0  0
    0.7323   -1.4562   -0.0003 C   0  0  0  0  0  0  0  0  0  0  0  0
    1.5853    1.1999    0.0008 C   0  0  0  0  0  0  0  0  0  0  0  0
    2.0958   -1.1617   -0.0010 C   0  0  0  0  0  0  0  0  0  0  0  0
    2.5223    0.1665   -0.0005 C   0  0  0  0  0  0  0  0  0  0  0  0
   -2.6467    0.1773    0.0005 C   0  0  0  0  0  0  0  0  0  0  0  0
   -3.9713   -0.5437   -0.0001 C   0  0  0  0  0  0  0  0  0  0  0  0
  1  9  1  0
  2 10  2  0
  3  4  1  0
  3 10  1  0
  4  5  2  0
  4  6  1  0
  5  7  1  0
  6  8  2  0
  7  9  2  0
  8  9  1  0
 10 11  1  0
M  END
>  <PUBCHEM_COMPOUND_CID>  (1) 
9601

>  <PUBCHEM_CONFORMER_RMSD>  (1) 
0.4

>  <PUBCHEM_CONFORMER_DIVERSEORDER>  (1) 
1
2

>  <PUBCHEM_MMFF94_PARTIAL_CHARGES>  (1) 
16
1 -0.19
10 0.57
11 0.06
12 0.15
13 0.15
14 0.37
15 0.15
16 0.15
2 -0.57
3 -0.55
4 0.12
5 -0.15
6 -0.15
7 -0.15
8 -0.15
9 0.19

>  <PUBCHEM_EFFECTIVE_ROTOR_COUNT>  (1) 
2

>  <PUBCHEM_PHARMACOPHORE_FEATURES>  (1) 
3
1 2 acceptor
1 3 donor
6 4 5 6 7 8 9 rings

>  <PUBCHEM_HEAVY_ATOM_COUNT>  (1) 
11

>  <PUBCHEM_ATOM_DEF_STEREO_COUNT>  (1) 
0

>  <PUBCHEM_ATOM_UDEF_STEREO_COUNT>  (1) 
0

>  <PUBCHEM_BOND_DEF_STEREO_COUNT>  (1) 
0

>  <PUBCHEM_BOND_UDEF_STEREO_COUNT>  (1) 
0

>  <PUBCHEM_ISOTOPIC_ATOM_COUNT>  (1) 
0

>  <PUBCHEM_COMPONENT_COUNT>  (1) 
1

>  <PUBCHEM_CACTVS_TAUTO_COUNT>  (1) 
2

>  <PUBCHEM_CONFORMER_ID>  (1) 
0000258100000001

>  <PUBCHEM_MMFF94_ENERGY>  (1) 
27.3278

>  <PUBCHEM_FEATURE_SELFOVERLAP>  (1) 
15.223

>  <PUBCHEM_SHAPE_FINGERPRINT>  (1) 
10219947 1 18186240640774235636
11062470 55 18411419518198982778
12032990 46 18411989022520709982
12932764 1 17275091826172981539
13380535 76 18408886264920879346
14144814 61 18411138013400178723
14325111 11 18410856538223040321
15775835 57 18272936041845059325
16945 1 18410575110533213414
17844478 74 18113625564603464157
20201158 50 18335140894969869579
20645477 70 18339636729650219231
20871998 22 17982735173506350438
21040471 1 18338517576936031490
23235685 24 18409442613762235024
23402539 116 18337099151254697655
23402655 69 18341040836131848845
2748010 2 18194680367422193292
3248919 1 16805898320184423739
528886 8 18411414033742140634
53812653 166 18343296011547053640

>  <PUBCHEM_SHAPE_MULTIPOLES>  (1) 
208.25
5.81
1.4
0.59
2.67
0.01
0
-0.26
0
-0.2
0
0
0.01
0

>  <PUBCHEM_SHAPE_SELFOVERLAP>  (1) 
430.143

>  <PUBCHEM_SHAPE_VOLUME>  (1) 
119.5

>  <PUBCHEM_COORDINATE_TYPE>  (1) 
2
5
10

$$$$
