9606
     RDKit          3D

  8  8  0  0  0  0  0  0  0  0999 V2000
   -2.3459    1.1016    0.0001 F   0  0  0  0  0  0  0  0  0  0  0  0
    1.2033    0.3027    0.0000 C   0  0  0  0  0  0  0  0  0  0  0  0
    0.0214    1.0435    0.0000 C   0  0  0  0  0  0  0  0  0  0  0  0
    1.1528   -1.0912    0.0000 C   0  0  0  0  0  0  0  0  0  0  0  0
    2.5209    1.0009    0.0000 C   0  0  0  0  0  0  0  0  0  0  0  0
   -1.2111    0.3904   -0.0002 C   0  0  0  0  0  0  0  0  0  0  0  0
   -0.0797   -1.7443    0.0000 C   0  0  0  0  0  0  0  0  0  0  0  0
   -1.2617   -1.0035    0.0000 C   0  0  0  0  0  0  0  0  0  0  0  0
  1  6  1  0
  2  3  2  0
  2  4  1  0
  2  5  1  0
  3  6  1  0
  4  7  2  0
  6  8  2  0
  7  8  1  0
M  END
>  <PUBCHEM_COMPOUND_CID>  (1) 
9606

>  <PUBCHEM_CONFORMER_RMSD>  (1) 
0.4

>  <PUBCHEM_CONFORMER_DIVERSEORDER>  (1) 
1

>  <PUBCHEM_MMFF94_PARTIAL_CHARGES>  (1) 
12
1 -0.19
10 0.15
14 0.15
15 0.15
2 -0.14
3 -0.15
4 -0.15
5 0.14
6 0.19
7 -0.15
8 -0.15
9 0.15

>  <PUBCHEM_EFFECTIVE_ROTOR_COUNT>  (1) 
0

>  <PUBCHEM_PHARMACOPHORE_FEATURES>  (1) 
1
6 2 3 4 6 7 8 rings

>  <PUBCHEM_HEAVY_ATOM_COUNT>  (1) 
8

>  <PUBCHEM_ATOM_DEF_STEREO_COUNT>  (1) 
0

>  <PUBCHEM_ATOM_UDEF_STEREO_COUNT>  (1) 
0

>  <PUBCHEM_BOND_DEF_STEREO_COUNT>  (1) 
0

>  <PUBCHEM_BOND_UDEF_STEREO_COUNT>  (1) 
0

>  <PUBCHEM_ISOTOPIC_ATOM_COUNT>  (1) 
0

>  <PUBCHEM_COMPONENT_COUNT>  (1) 
1

>  <PUBCHEM_CACTVS_TAUTO_COUNT>  (1) 
1

>  <PUBCHEM_CONFORMER_ID>  (1) 
0000258600000001

>  <PUBCHEM_MMFF94_ENERGY>  (1) 
15.8281

>  <PUBCHEM_FEATURE_SELFOVERLAP>  (1) 
5.074

>  <PUBCHEM_SHAPE_FINGERPRINT>  (1) 
16714656 1 18122630714910742190
18185500 45 17258498842600088107
20096714 4 18410856516700796043
21040471 1 18410575097679901568
23552423 10 18188492488281109910
241688 4 16826717284829985098
2748010 2 18410579478441230502
29004967 10 17974859358577831931
5084963 1 17985834958492491826

>  <PUBCHEM_SHAPE_MULTIPOLES>  (1) 
157.36
2.67
1.68
0.6
0.78
0.4
0
-1.02
0
-0.34
0
0.03
0.02
0

>  <PUBCHEM_SHAPE_SELFOVERLAP>  (1) 
325.036

>  <PUBCHEM_SHAPE_VOLUME>  (1) 
91.3

>  <PUBCHEM_COORDINATE_TYPE>  (1) 
2
5
10

$$$$
