9607
     RDKit          3D

 18 17  0  0  0  0  0  0  0  0999 V2000
    9.8157   -0.3140    0.1188 F   0  0  0  0  0  0  0  0  0  0  0  0
   -2.7109   -1.5023   -0.0295 O   0  0  0  0  0  0  0  0  0  0  0  0
   -6.3425    0.6243    0.0557 O   0  0  0  0  0  0  0  0  0  0  0  0
   -5.3862   -1.4728    0.0270 O   0  0  0  0  0  0  0  0  0  0  0  0
    2.3941   -0.2575   -0.0287 C   0  0  0  0  0  0  0  0  0  0  0  0
    3.6956    0.5504   -0.0187 C   0  0  0  0  0  0  0  0  0  0  0  0
    1.1028    0.5579   -0.1502 C   0  0  0  0  0  0  0  0  0  0  0  0
    4.9536   -0.3195    0.0177 C   0  0  0  0  0  0  0  0  0  0  0  0
   -0.1657   -0.3001   -0.0962 C   0  0  0  0  0  0  0  0  0  0  0  0
    6.2208    0.5383    0.0048 C   0  0  0  0  0  0  0  0  0  0  0  0
   -1.4391    0.5452   -0.1272 C   0  0  0  0  0  0  0  0  0  0  0  0
    7.4770   -0.3266    0.0752 C   0  0  0  0  0  0  0  0  0  0  0  0
   -2.7224   -0.2739   -0.0807 C   0  0  0  0  0  0  0  0  0  0  0  0
    8.7405    0.5137    0.0267 C   0  0  0  0  0  0  0  0  0  0  0  0
   -4.0079    0.5320   -0.0372 C   0  0  0  0  0  0  0  0  0  0  0  0
   -5.2948   -0.2534    0.0248 C   0  0  0  0  0  0  0  0  0  0  0  0
   -7.6442    0.0303    0.0934 C   0  0  0  0  0  0  0  0  0  0  0  0
   -8.6864    1.1280    0.1242 C   0  0  0  0  0  0  0  0  0  0  0  0
  1 14  1  0
  2 13  2  0
  3 16  1  0
  3 17  1  0
  4 16  2  0
  5  6  1  0
  5  7  1  0
  6  8  1  0
  7  9  1  0
  8 10  1  0
  9 11  1  0
 10 12  1  0
 11 13  1  0
 12 14  1  0
 13 15  1  0
 15 16  1  0
 17 18  1  0
M  END
>  <PUBCHEM_COMPOUND_CID>  (1) 
9607

>  <PUBCHEM_CONFORMER_RMSD>  (1) 
1

>  <PUBCHEM_CONFORMER_DIVERSEORDER>  (1) 
1
78
47
30
17
11
113
81
39
116
49
102
42
67
57
100
66
101
31
35
44
63
20
5
15
46
83
89
68
103
13
107
25
59
40
96
38
65
27
19
18
111
21
109
3
87
52
84
75
97
94
92
43
70
72
60
6
98
95
76
88
2
110
16
82
48
79
115
93
28
24
51
61
22
41
33
85
10
99
36
91
108
53
37
71
77
32
55
104
90
56
73
9
106
50
114
69
74
23
7
45
117
14
26
29
4
54
86
62
64
34
8
12
80
105
112
58

>  <PUBCHEM_MMFF94_PARTIAL_CHARGES>  (1) 
10
1 -0.34
11 0.06
13 0.45
14 0.34
15 0.12
16 0.66
17 0.28
2 -0.57
3 -0.43
4 -0.57

>  <PUBCHEM_EFFECTIVE_ROTOR_COUNT>  (1) 
13

>  <PUBCHEM_PHARMACOPHORE_FEATURES>  (1) 
3
1 15 anion
1 2 acceptor
1 4 acceptor

>  <PUBCHEM_HEAVY_ATOM_COUNT>  (1) 
18

>  <PUBCHEM_ATOM_DEF_STEREO_COUNT>  (1) 
0

>  <PUBCHEM_ATOM_UDEF_STEREO_COUNT>  (1) 
0

>  <PUBCHEM_BOND_DEF_STEREO_COUNT>  (1) 
0

>  <PUBCHEM_BOND_UDEF_STEREO_COUNT>  (1) 
0

>  <PUBCHEM_ISOTOPIC_ATOM_COUNT>  (1) 
0

>  <PUBCHEM_COMPONENT_COUNT>  (1) 
1

>  <PUBCHEM_CACTVS_TAUTO_COUNT>  (1) 
5

>  <PUBCHEM_CONFORMER_ID>  (1) 
0000258700000001

>  <PUBCHEM_MMFF94_ENERGY>  (1) 
5.7716

>  <PUBCHEM_FEATURE_SELFOVERLAP>  (1) 
15.231

>  <PUBCHEM_SHAPE_FINGERPRINT>  (1) 
10299344 5 18040714771032951962
11315181 36 18060142058942332587
12091667 2 17022901255225997389
13533116 47 14045470994426442399
13885169 127 18413390908267279856
14123256 10 14923943449185200960
14251764 18 18187361030776244194
14251764 46 18410856559639796064
14428016 248 17022911146662638556
15510794 2 18131919260230411119
155225 1 18343303627363378577
18006028 8 17561363980489677672
18335252 98 11097851882685478912
20621476 8 18260265243802607892
21095086 128 7853857183005881728
21150785 3 8070028870066262428
21304253 13 18409730677562591893
22224240 67 15267340726160003540
23035841 295 18187081767639015138
232437 2 18408323293502930690
23402539 116 18201715181131273085
23521765 1 18341894095577456756
23581129 1 18409449184756359724
246663 6 12973606629543858405
28498 318 18202566159817553670
33684 2 18410855455833200993
4325135 7 18187083953777239012
5283156 175 18040716953303463196
59567204 34 18059859408021231385
59682541 35 11458430145709649940
67123 10 18410855473018344940
8209 1 18343864415919042972

>  <PUBCHEM_SHAPE_MULTIPOLES>  (1) 
345.55
31.6
1.01
0.6
24.93
0.16
0
-3.89
-1.89
-1.16
0
0.01
-0.02
-0.09

>  <PUBCHEM_SHAPE_SELFOVERLAP>  (1) 
641.582

>  <PUBCHEM_SHAPE_VOLUME>  (1) 
216.1

>  <PUBCHEM_COORDINATE_TYPE>  (1) 
2
5
10

$$$$
