9614
     RDKit          3D

  9  8  0  0  0  0  0  0  0  0999 V2000
   -4.0519   -1.0133   -0.3704 F   0  0  0  0  0  0  0  0  0  0  0  0
    4.8905    0.0651   -0.1879 N   0  0  0  0  0  0  0  0  0  0  0  0
   -0.0901    0.5991   -0.1241 C   0  0  0  0  0  0  0  0  0  0  0  0
    1.1009   -0.2954    0.2267 C   0  0  0  0  0  0  0  0  0  0  0  0
   -1.4144   -0.0674    0.2561 C   0  0  0  0  0  0  0  0  0  0  0  0
    2.4542    0.3191   -0.1447 C   0  0  0  0  0  0  0  0  0  0  0  0
   -2.6060    0.8086   -0.1228 C   0  0  0  0  0  0  0  0  0  0  0  0
    3.6396   -0.5880    0.1834 C   0  0  0  0  0  0  0  0  0  0  0  0
   -3.9229    0.1723    0.2837 C   0  0  0  0  0  0  0  0  0  0  0  0
  1  9  1  0
  2  8  1  0
  3  4  1  0
  3  5  1  0
  4  6  1  0
  5  7  1  0
  6  8  1  0
  7  9  1  0
M  END
>  <PUBCHEM_COMPOUND_CID>  (1) 
9614

>  <PUBCHEM_CONFORMER_RMSD>  (1) 
0.6

>  <PUBCHEM_CONFORMER_DIVERSEORDER>  (1) 
2
64
167
120
147
161
1
160
44
79
115
4
146
56
168
5
36
157
51
55
63
83
129
65
151
41
54
159
100
27
141
109
154
74
158
12
94
136
66
80
93
30
19
130
169
47
21
118
162
24
78
133
71
149
117
125
28
132
25
16
26
163
43
166
144
87
121
6
9
97
134
119
164
128
15
140
165
49
31
156
14
40
88
61
150
17
59
18
123
58
98
13
85
53
143
7
20
48
73
152
23
33
72
155
34
138
112
70
11
86
124
8
148
137
102
104
3
81
37
67
116
84
142
32
45
101
62
126
106
46
131
127
107
90
77
22
145
52
153
50
110
113
10
69
57
135
111
95
139
82
75
76
60
108
42
99
91
103
92
105
29
122
35
89
39
96
68
38
114

>  <PUBCHEM_MMFF94_PARTIAL_CHARGES>  (1) 
6
1 -0.34
2 -0.99
24 0.36
25 0.36
8 0.27
9 0.34

>  <PUBCHEM_EFFECTIVE_ROTOR_COUNT>  (1) 
6

>  <PUBCHEM_PHARMACOPHORE_FEATURES>  (1) 
3
1 2 cation
1 2 donor
5 3 4 5 6 7 hydrophobe

>  <PUBCHEM_HEAVY_ATOM_COUNT>  (1) 
9

>  <PUBCHEM_ATOM_DEF_STEREO_COUNT>  (1) 
0

>  <PUBCHEM_ATOM_UDEF_STEREO_COUNT>  (1) 
0

>  <PUBCHEM_BOND_DEF_STEREO_COUNT>  (1) 
0

>  <PUBCHEM_BOND_UDEF_STEREO_COUNT>  (1) 
0

>  <PUBCHEM_ISOTOPIC_ATOM_COUNT>  (1) 
0

>  <PUBCHEM_COMPONENT_COUNT>  (1) 
1

>  <PUBCHEM_CACTVS_TAUTO_COUNT>  (1) 
1

>  <PUBCHEM_CONFORMER_ID>  (1) 
0000258E00000002

>  <PUBCHEM_MMFF94_ENERGY>  (1) 
-4.6748

>  <PUBCHEM_FEATURE_SELFOVERLAP>  (1) 
15.223

>  <PUBCHEM_SHAPE_FINGERPRINT>  (1) 
11062470 55 7853572413551566272
12932764 1 15554152671570424897
14123238 8 18409730668718526972
14325111 11 18408603630260287513
17834072 33 18339363067118390364
17834076 25 12901544633269836781
18342897 14 15051736378192888435
190213 19 17561365067052787849
20645477 70 18187927210624661130
20719005 15 18408886230892911106
20828058 21 18202285788415394404
20828058 44 17846779615595819615
21293036 1 17822010908556302064
22485316 2 18410853235345768914
23402539 116 18260823782877344341
42788 4 18334858307480519592

>  <PUBCHEM_SHAPE_MULTIPOLES>  (1) 
172.96
9.33
0.86
0.64
2.78
0.02
-0.02
1.15
0.42
-0.36
0.04
-0.08
0.01
-0.21

>  <PUBCHEM_SHAPE_SELFOVERLAP>  (1) 
303.332

>  <PUBCHEM_SHAPE_VOLUME>  (1) 
113.8

>  <PUBCHEM_COORDINATE_TYPE>  (1) 
2
5
10

$$$$
