9616
     RDKit          3D

 11 10  0  0  0  0  0  0  0  0999 V2000
   -5.0590    0.8268    0.7183 F   0  0  0  0  0  0  0  0  0  0  0  0
    4.9577    0.8536   -0.1196 O   0  0  0  0  0  0  0  0  0  0  0  0
    4.1071   -1.1952    0.3866 O   0  0  0  0  0  0  0  0  0  0  0  0
   -1.0901   -0.5471   -0.0948 C   0  0  0  0  0  0  0  0  0  0  0  0
    0.0809    0.4322   -0.1984 C   0  0  0  0  0  0  0  0  0  0  0  0
   -2.4310    0.1681   -0.2698 C   0  0  0  0  0  0  0  0  0  0  0  0
    1.4204   -0.2811    0.0107 C   0  0  0  0  0  0  0  0  0  0  0  0
   -3.6024   -0.8062   -0.1340 C   0  0  0  0  0  0  0  0  0  0  0  0
    2.6136    0.6657   -0.1198 C   0  0  0  0  0  0  0  0  0  0  0  0
   -4.9381   -0.0961   -0.2722 C   0  0  0  0  0  0  0  0  0  0  0  0
    3.9409   -0.0208    0.0930 C   0  0  0  0  0  0  0  0  0  0  0  0
  1 10  1  0
  2 11  1  0
  3 11  2  0
  4  5  1  0
  4  6  1  0
  5  7  1  0
  6  8  1  0
  7  9  1  0
  8 10  1  0
  9 11  1  0
M  END
>  <PUBCHEM_COMPOUND_CID>  (1) 
9616

>  <PUBCHEM_CONFORMER_RMSD>  (1) 
0.8

>  <PUBCHEM_CONFORMER_DIVERSEORDER>  (1) 
1
79
70
47
76
35
26
80
75
9
62
27
38
28
77
51
3
48
73
33
6
31
21
72
25
59
14
74
36
58
20
7
50
24
43
19
5
39
18
10
57
17
45
44
63
29
11
15
78
12
71
55
69
13
64
37
46
61
42
2
40
22
23
53
68
30
41
4
34
32
54
8
16
67
49
56
65
60
66
52

>  <PUBCHEM_MMFF94_PARTIAL_CHARGES>  (1) 
7
1 -0.34
10 0.34
11 0.66
2 -0.65
26 0.5
3 -0.57
9 0.06

>  <PUBCHEM_EFFECTIVE_ROTOR_COUNT>  (1) 
7

>  <PUBCHEM_PHARMACOPHORE_FEATURES>  (1) 
5
1 2 acceptor
1 3 acceptor
3 2 3 11 anion
3 4 6 8 hydrophobe
3 5 7 9 hydrophobe

>  <PUBCHEM_HEAVY_ATOM_COUNT>  (1) 
11

>  <PUBCHEM_ATOM_DEF_STEREO_COUNT>  (1) 
0

>  <PUBCHEM_ATOM_UDEF_STEREO_COUNT>  (1) 
0

>  <PUBCHEM_BOND_DEF_STEREO_COUNT>  (1) 
0

>  <PUBCHEM_BOND_UDEF_STEREO_COUNT>  (1) 
0

>  <PUBCHEM_ISOTOPIC_ATOM_COUNT>  (1) 
0

>  <PUBCHEM_COMPONENT_COUNT>  (1) 
1

>  <PUBCHEM_CACTVS_TAUTO_COUNT>  (1) 
1

>  <PUBCHEM_CONFORMER_ID>  (1) 
0000259000000001

>  <PUBCHEM_MMFF94_ENERGY>  (1) 
1.16

>  <PUBCHEM_FEATURE_SELFOVERLAP>  (1) 
25.429

>  <PUBCHEM_SHAPE_FINGERPRINT>  (1) 
11062470 55 18060138755906779255
11287383 113 14707215443310604356
114248 4 10665230349766073247
14123238 8 18342737429285150375
15242433 33 18410011057042397910
15242439 84 13830133905648039108
15501527 16 18337391544365718421
17834072 33 18272366524833973007
17834076 25 17775286070869810550
18342897 14 18273215308955554177
20645477 70 18335136445858926658
20719005 15 18335419071205845079
20767249 13 11240000053064651445
22485316 2 18409444812585296870
23402539 116 17632571652450557405
366044 4 18335700559358036731
42 15 18335138682866513758
42788 4 18342738528696583741
522135 26 18334856117564104870

>  <PUBCHEM_SHAPE_MULTIPOLES>  (1) 
207.36
12
0.95
0.66
2.09
0.09
0
-0.8
0.9
-0.3
0.05
0.23
-0.02
-0.43

>  <PUBCHEM_SHAPE_SELFOVERLAP>  (1) 
378.2

>  <PUBCHEM_SHAPE_VOLUME>  (1) 
131.7

>  <PUBCHEM_COORDINATE_TYPE>  (1) 
2
5
10

$$$$
