9619
     RDKit          3D

 14 13  0  0  0  0  0  0  0  0999 V2000
    7.1543   -1.1355    0.5189 F   0  0  0  0  0  0  0  0  0  0  0  0
   -8.1097   -0.5131   -0.0887 O   0  0  0  0  0  0  0  0  0  0  0  0
   -0.5170   -0.2699   -0.1121 C   0  0  0  0  0  0  0  0  0  0  0  0
    0.7589    0.5389    0.1416 C   0  0  0  0  0  0  0  0  0  0  0  0
   -1.8343    0.4641    0.1589 C   0  0  0  0  0  0  0  0  0  0  0  0
    2.0392   -0.2134   -0.2274 C   0  0  0  0  0  0  0  0  0  0  0  0
   -3.1083   -0.3222   -0.1656 C   0  0  0  0  0  0  0  0  0  0  0  0
    3.2819    0.6272    0.0751 C   0  0  0  0  0  0  0  0  0  0  0  0
   -4.4248    0.3848    0.1725 C   0  0  0  0  0  0  0  0  0  0  0  0
    4.5647   -0.1353   -0.2617 C   0  0  0  0  0  0  0  0  0  0  0  0
   -5.6983   -0.4271   -0.0922 C   0  0  0  0  0  0  0  0  0  0  0  0
    5.8055    0.7177    0.0077 C   0  0  0  0  0  0  0  0  0  0  0  0
   -6.9959    0.3303    0.1645 C   0  0  0  0  0  0  0  0  0  0  0  0
    7.0839   -0.0464   -0.2915 C   0  0  0  0  0  0  0  0  0  0  0  0
  1 14  1  0
  2 13  1  0
  3  4  1  0
  3  5  1  0
  4  6  1  0
  5  7  1  0
  6  8  1  0
  7  9  1  0
  8 10  1  0
  9 11  1  0
 10 12  1  0
 11 13  1  0
 12 14  1  0
M  END
>  <PUBCHEM_COMPOUND_CID>  (1) 
9619

>  <PUBCHEM_CONFORMER_RMSD>  (1) 
1.2

>  <PUBCHEM_CONFORMER_DIVERSEORDER>  (1) 
1
35
19
10
2
60
14
7
11
9
15
31
16
20
29
47
44
36
8
38
50
43
57
17
32
3
13
25
27
5
41
59
28
52
62
6
48
33
37
26
46
49
24
54
53
18
34
21
56
12
40
23
30
39
4
58
45
61
55
22
51
42

>  <PUBCHEM_MMFF94_PARTIAL_CHARGES>  (1) 
5
1 -0.34
13 0.28
14 0.34
2 -0.68
39 0.4

>  <PUBCHEM_EFFECTIVE_ROTOR_COUNT>  (1) 
11

>  <PUBCHEM_PHARMACOPHORE_FEATURES>  (1) 
2
1 2 acceptor
1 2 donor

>  <PUBCHEM_HEAVY_ATOM_COUNT>  (1) 
14

>  <PUBCHEM_ATOM_DEF_STEREO_COUNT>  (1) 
0

>  <PUBCHEM_ATOM_UDEF_STEREO_COUNT>  (1) 
0

>  <PUBCHEM_BOND_DEF_STEREO_COUNT>  (1) 
0

>  <PUBCHEM_BOND_UDEF_STEREO_COUNT>  (1) 
0

>  <PUBCHEM_ISOTOPIC_ATOM_COUNT>  (1) 
0

>  <PUBCHEM_COMPONENT_COUNT>  (1) 
1

>  <PUBCHEM_CACTVS_TAUTO_COUNT>  (1) 
1

>  <PUBCHEM_CONFORMER_ID>  (1) 
0000259300000001

>  <PUBCHEM_MMFF94_ENERGY>  (1) 
0.8825

>  <PUBCHEM_FEATURE_SELFOVERLAP>  (1) 
10.148

>  <PUBCHEM_SHAPE_FINGERPRINT>  (1) 
12091667 2 18040435495638594401
13533116 47 17530954753636189690
14123256 10 17846781806319108919
14251764 18 18343585131301702923
14251764 46 18410856563934756866
14729087 3 14476967757737707043
15716309 27 18413106173526176391
17834076 25 18410575088958059213
18006028 8 17632577154251124025
20281389 69 18412824694434327168
20621476 8 17385720283807813871
21315763 28 18410855473477657621
22224240 67 14405181768087490348
23035841 295 18343301474529221463
23402539 116 17989201560102111460
23521765 1 18341895194645933901
28498 318 18260828172560780510
33532 11 18114177515130232314
33684 2 18410573985156732387
42788 4 18413389839194820084
57583515 80 18260551130348918113
59755656 520 18187640336531323711
8209 1 18408886239430176165

>  <PUBCHEM_SHAPE_MULTIPOLES>  (1) 
274.97
24.15
0.83
0.64
6.72
0
0
2.99
0.51
-0.42
0.04
-0.18
0.01
-0.3

>  <PUBCHEM_SHAPE_SELFOVERLAP>  (1) 
490.021

>  <PUBCHEM_SHAPE_VOLUME>  (1) 
178.1

>  <PUBCHEM_COORDINATE_TYPE>  (1) 
2
5
10

$$$$
