9627
     RDKit          3D

  5  4  0  0  0  0  0  0  0  0999 V2000
   -0.0001   -0.0346   -0.0001 Si  0  0  0  0  0  4  0  0  0  0  0  0
   -0.0016   -0.9660   -1.2996 F   0  0  0  0  0  0  0  0  0  0  0  0
   -0.0003   -0.9611    1.3029 F   0  0  0  0  0  0  0  0  0  0  0  0
   -1.5380    0.9821   -0.0011 C   0  0  0  0  0  0  0  0  0  0  0  0
    1.5401    0.9796   -0.0022 C   0  0  0  0  0  0  0  0  0  0  0  0
  1  2  1  0
  1  3  1  0
  1  4  1  0
  1  5  1  0
M  END
>  <PUBCHEM_COMPOUND_CID>  (1) 
9627

>  <PUBCHEM_CONFORMER_RMSD>  (1) 
0.4

>  <PUBCHEM_CONFORMER_DIVERSEORDER>  (1) 
1

>  <PUBCHEM_MMFF94_PARTIAL_CHARGES>  (1) 
5
1 0.98
2 -0.41
3 -0.41
4 -0.08
5 -0.08

>  <PUBCHEM_EFFECTIVE_ROTOR_COUNT>  (1) 
0

>  <PUBCHEM_PHARMACOPHORE_FEATURES>  (1) 
0

>  <PUBCHEM_HEAVY_ATOM_COUNT>  (1) 
5

>  <PUBCHEM_ATOM_DEF_STEREO_COUNT>  (1) 
0

>  <PUBCHEM_ATOM_UDEF_STEREO_COUNT>  (1) 
0

>  <PUBCHEM_BOND_DEF_STEREO_COUNT>  (1) 
0

>  <PUBCHEM_BOND_UDEF_STEREO_COUNT>  (1) 
0

>  <PUBCHEM_ISOTOPIC_ATOM_COUNT>  (1) 
0

>  <PUBCHEM_COMPONENT_COUNT>  (1) 
1

>  <PUBCHEM_CACTVS_TAUTO_COUNT>  (1) 
1

>  <PUBCHEM_CONFORMER_ID>  (1) 
0000259B00000001

>  <PUBCHEM_MMFF94_ENERGY>  (1) 
-0.3023

>  <PUBCHEM_FEATURE_SELFOVERLAP>  (1) 
0

>  <PUBCHEM_SHAPE_FINGERPRINT>  (1) 
16714656 1 17843959488482146861
20096714 4 18410851044944388800
5943 1 11794130050519931233

>  <PUBCHEM_SHAPE_MULTIPOLES>  (1) 
106.56
1.61
1.28
1.12
0
0.01
0
-0.81
0
0
0
0
0.44
0

>  <PUBCHEM_SHAPE_SELFOVERLAP>  (1) 
173.233

>  <PUBCHEM_SHAPE_VOLUME>  (1) 
73.5

>  <PUBCHEM_COORDINATE_TYPE>  (1) 
2
5
10

$$$$
