9642
     RDKit          3D

 35 39  0  0  1  0  0  0  0  0999 V2000
    1.9057   -0.1729   -1.1881 F   0  0  0  0  0  0  0  0  0  0  0  0
    4.7282    2.4646    0.7845 F   0  0  0  0  0  0  0  0  0  0  0  0
   -2.3267    1.0053   -1.1334 O   0  0  0  0  0  0  0  0  0  0  0  0
   -2.4470    3.1669   -0.2188 O   0  0  0  0  0  0  0  0  0  0  0  0
    0.7983   -2.3686    1.4316 O   0  0  0  0  0  0  0  0  0  0  0  0
   -4.3714    0.8420    1.4032 O   0  0  0  0  0  0  0  0  0  0  0  0
   -5.2140   -1.3806    0.0063 O   0  0  0  0  0  0  0  0  0  0  0  0
    6.6152   -0.9682   -2.1641 O   0  0  0  0  0  0  0  0  0  0  0  0
   -4.8129   -3.5391   -0.7129 O   0  0  0  0  0  0  0  0  0  0  0  0
   -1.0158    0.0726    0.7496 C   0  0  0  0  0  0  0  0  0  0  0  0
    0.0696    1.1466    0.5126 C   0  0  0  0  0  0  0  0  0  0  0  0
    1.4702    0.7025    0.9564 C   0  0  0  0  0  0  0  0  0  0  0  0
   -2.2670    0.8603    0.2833 C   0  0  0  0  0  0  0  0  0  0  0  0
    1.8813   -0.5715    0.1397 C   0  0  0  0  0  0  0  0  0  0  0  0
   -2.0509    2.2774    0.8213 C   0  0  0  0  0  0  0  0  0  0  0  0
   -0.5409    2.4136    1.1160 C   0  0  0  0  0  0  0  0  0  0  0  0
   -0.6391   -1.1548   -0.1010 C   0  0  0  0  0  0  0  0  0  0  0  0
    0.7861   -1.6803    0.1907 C   0  0  0  0  0  0  0  0  0  0  0  0
    3.3557   -1.0345    0.4688 C   0  0  0  0  0  0  0  0  0  0  0  0
    2.4834    1.8407    0.7530 C   0  0  0  0  0  0  0  0  0  0  0  0
   -1.1783   -0.3195    2.2437 C   0  0  0  0  0  0  0  0  0  0  0  0
    3.9091    1.4092    1.0665 C   0  0  0  0  0  0  0  0  0  0  0  0
   -3.5690    0.2371    0.6937 C   0  0  0  0  0  0  0  0  0  0  0  0
   -2.6347    2.3777   -1.3951 C   0  0  0  0  0  0  0  0  0  0  0  0
    4.2751    0.1797    0.2723 C   0  0  0  0  0  0  0  0  0  0  0  0
    3.5470   -1.5480    1.9147 C   0  0  0  0  0  0  0  0  0  0  0  0
    3.7590   -2.1847   -0.4427 C   0  0  0  0  0  0  0  0  0  0  0  0
   -3.8302   -1.1653    0.1866 C   0  0  0  0  0  0  0  0  0  0  0  0
   -4.0906    2.4796   -1.8341 C   0  0  0  0  0  0  0  0  0  0  0  0
   -1.7117    2.9047   -2.4901 C   0  0  0  0  0  0  0  0  0  0  0  0
    5.3161    0.1921   -0.5754 C   0  0  0  0  0  0  0  0  0  0  0  0
    4.7932   -2.1750   -1.2890 C   0  0  0  0  0  0  0  0  0  0  0  0
    5.6538   -0.9841   -1.4030 C   0  0  0  0  0  0  0  0  0  0  0  0
   -5.5787   -2.6209   -0.4524 C   0  0  0  0  0  0  0  0  0  0  0  0
   -7.0681   -2.7044   -0.5943 C   0  0  0  0  0  0  0  0  0  0  0  0
  1 14  1  0
  2 22  1  0
  3 13  1  0
  3 24  1  0
  4 15  1  0
  4 24  1  0
  5 18  1  0
  6 23  2  0
  7 28  1  0
  7 34  1  0
  8 33  2  0
  9 34  2  0
 10 11  1  0
 10 13  1  0
 10 17  1  0
 10 21  1  0
 11 12  1  0
 11 16  1  0
 12 14  1  0
 12 20  1  0
 13 15  1  0
 13 23  1  0
 14 18  1  0
 14 19  1  0
 15 16  1  0
 17 18  1  0
 19 25  1  0
 19 26  1  0
 19 27  1  0
 20 22  1  0
 22 25  1  0
 23 28  1  0
 24 29  1  0
 24 30  1  0
 25 31  2  0
 27 32  2  0
 31 33  1  0
 32 33  1  0
 34 35  1  0
M  END
>  <PUBCHEM_COMPOUND_CID>  (1) 
9642

>  <PUBCHEM_CONFORMER_RMSD>  (1) 
0.8

>  <PUBCHEM_CONFORMER_DIVERSEORDER>  (1) 
1
9
8
6
5
2
4
10
3
7

>  <PUBCHEM_MMFF94_PARTIAL_CHARGES>  (1) 
29
1 -0.34
13 0.34
14 0.34
15 0.28
18 0.28
19 0.28
2 -0.34
22 0.48
23 0.45
24 0.56
25 -0.28
27 -0.29
28 0.34
3 -0.56
31 -0.14
32 -0.14
33 0.54
34 0.66
35 0.06
4 -0.56
5 -0.68
53 0.15
54 0.4
6 -0.57
63 0.15
64 0.15
7 -0.43
8 -0.57
9 -0.57

>  <PUBCHEM_EFFECTIVE_ROTOR_COUNT>  (1) 
5.6

>  <PUBCHEM_PHARMACOPHORE_FEATURES>  (1) 
13
1 3 acceptor
1 4 acceptor
1 5 acceptor
1 5 donor
1 6 acceptor
1 8 acceptor
1 9 acceptor
3 24 29 30 hydrophobe
5 10 11 13 15 16 rings
5 3 4 13 15 24 rings
6 10 11 12 14 17 18 rings
6 12 14 19 20 22 25 rings
6 19 25 27 31 32 33 rings

>  <PUBCHEM_HEAVY_ATOM_COUNT>  (1) 
35

>  <PUBCHEM_ATOM_DEF_STEREO_COUNT>  (1) 
9

>  <PUBCHEM_ATOM_UDEF_STEREO_COUNT>  (1) 
0

>  <PUBCHEM_BOND_DEF_STEREO_COUNT>  (1) 
0

>  <PUBCHEM_BOND_UDEF_STEREO_COUNT>  (1) 
0

>  <PUBCHEM_ISOTOPIC_ATOM_COUNT>  (1) 
0

>  <PUBCHEM_COMPONENT_COUNT>  (1) 
1

>  <PUBCHEM_CACTVS_TAUTO_COUNT>  (1) 
2

>  <PUBCHEM_CONFORMER_ID>  (1) 
000025AA00000001

>  <PUBCHEM_MMFF94_ENERGY>  (1) 
116.0077

>  <PUBCHEM_FEATURE_SELFOVERLAP>  (1) 
66.736

>  <PUBCHEM_SHAPE_FINGERPRINT>  (1) 
10366900 7 18040721385050473210
11315621 246 18412268341360976735
11477941 20 17894921719269969324
11497681 19 18058448875186169703
11578080 2 17535195444850630341
12403259 415 18334861576183195272
12422481 6 15698008422389554629
12633046 712 17775562040200049841
12788726 201 18260261962722478939
131258 38 16123279939606010535
13224815 77 18339640036521550224
13690498 29 18409452462112072439
13782708 43 18410296900090876666
14347332 77 18410571756106129306
14787075 74 18337107968284401890
14955137 171 17203331112985577201
15082195 135 17675922084287023164
15361156 5 18262818314392904041
17349148 13 17313108539951207562
17492 89 18342736274145312570
17980427 23 16298966259299764919
18608769 82 18342737459745638226
21033648 29 18260829268141847088
21641784 216 17822005415435607989
22122407 14 13334740123933100911
221357 26 18341896303064299730
22182313 1 18199446874803838120
22393880 68 18335699391179166438
23559900 14 18272086046754100200
350125 39 18336557014185388921
46194498 28 18272938254280776830
469060 322 18113334237019262317
497634 4 18130515166965083193
6086070 43 18114736037367613692
7237137 82 18334016055872314143

>  <PUBCHEM_SHAPE_MULTIPOLES>  (1) 
664.65
13.63
3.71
1.83
0.4
0.08
0.38
-9.3
5.52
4.54
1.07
-0.58
0.56
1.31

>  <PUBCHEM_SHAPE_SELFOVERLAP>  (1) 
1453.157

>  <PUBCHEM_SHAPE_VOLUME>  (1) 
362.3

>  <PUBCHEM_COORDINATE_TYPE>  (1) 
2
5
10

$$$$
