9646
     RDKit          3D

 22 26  0  0  1  0  0  0  0  0999 V2000
   -1.8594   -0.9324    1.3118 O   0  0  0  0  0  0  0  0  0  0  0  0
    2.4291   -1.5313   -0.1022 O   0  0  0  0  0  0  0  0  0  0  0  0
   -2.0162   -2.9612   -0.4983 O   0  0  0  0  0  0  0  0  0  0  0  0
   -4.1878    0.7460    0.7736 O   0  0  0  0  0  0  0  0  0  0  0  0
    3.0602    1.1443    0.4655 N   0  0  0  0  0  0  0  0  0  0  0  0
    0.4109   -0.4420    0.6552 C   0  0  0  0  0  0  0  0  0  0  0  0
    1.4243   -0.5809   -0.4727 C   0  0  0  0  0  0  0  0  0  0  0  0
    1.9737    0.9109   -0.4977 C   0  0  0  0  0  0  0  0  0  0  0  0
   -0.6100   -1.5631    0.8830 C   0  0  0  0  0  0  0  0  0  0  0  0
    1.2047   -0.0030    1.9647 C   0  0  0  0  0  0  0  0  0  0  0  0
   -0.6021    0.5957    0.1709 C   0  0  0  0  0  0  0  0  0  0  0  0
    0.7991   -1.1707   -1.7524 C   0  0  0  0  0  0  0  0  0  0  0  0
    1.0415    1.8342   -1.3428 C   0  0  0  0  0  0  0  0  0  0  0  0
    2.7467    0.4093    1.7404 C   0  0  0  0  0  0  0  0  0  0  0  0
   -0.3797    1.6492   -0.7496 C   0  0  0  0  0  0  0  0  0  0  0  0
    0.1341   -2.5160   -1.4417 C   0  0  0  0  0  0  0  0  0  0  0  0
   -0.9373   -2.3770   -0.3783 C   0  0  0  0  0  0  0  0  0  0  0  0
   -1.8559    0.2657    0.6357 C   0  0  0  0  0  0  0  0  0  0  0  0
    4.3901    0.8984   -0.0545 C   0  0  0  0  0  0  0  0  0  0  0  0
   -1.4762    2.4348   -1.0901 C   0  0  0  0  0  0  0  0  0  0  0  0
   -2.9456    1.0466    0.3194 C   0  0  0  0  0  0  0  0  0  0  0  0
   -2.7441    2.1423   -0.5402 C   0  0  0  0  0  0  0  0  0  0  0  0
  1  9  1  0
  1 18  1  0
  2  7  1  0
  3 17  2  0
  4 21  1  0
  5  8  1  0
  5 14  1  0
  5 19  1  0
  6  7  1  0
  6  9  1  0
  6 10  1  0
  6 11  1  0
  7  8  1  0
  7 12  1  0
  8 13  1  0
  9 17  1  0
 10 14  1  0
 11 15  2  0
 11 18  1  0
 12 16  1  0
 13 15  1  0
 15 20  1  0
 16 17  1  0
 18 21  2  0
 20 22  2  0
 21 22  1  0
M  END
>  <PUBCHEM_COMPOUND_CID>  (1) 
9646

>  <PUBCHEM_CONFORMER_RMSD>  (1) 
0.6

>  <PUBCHEM_CONFORMER_DIVERSEORDER>  (1) 
1

>  <PUBCHEM_MMFF94_PARTIAL_CHARGES>  (1) 
24
1 -0.36
11 -0.14
13 0.14
14 0.27
15 -0.14
16 0.06
17 0.45
18 0.08
19 0.27
2 -0.68
20 -0.15
21 0.08
22 -0.15
3 -0.57
35 0.4
39 0.15
4 -0.53
40 0.15
41 0.45
5 -0.81
6 0.14
7 0.28
8 0.27
9 0.34

>  <PUBCHEM_EFFECTIVE_ROTOR_COUNT>  (1) 
1.4

>  <PUBCHEM_PHARMACOPHORE_FEATURES>  (1) 
11
1 1 acceptor
1 2 acceptor
1 2 donor
1 3 acceptor
1 4 donor
1 5 cation
5 1 6 9 11 18 rings
6 11 15 18 20 21 22 rings
6 5 6 7 8 10 14 rings
6 6 7 8 11 13 15 rings
6 6 7 9 12 16 17 rings

>  <PUBCHEM_HEAVY_ATOM_COUNT>  (1) 
22

>  <PUBCHEM_ATOM_DEF_STEREO_COUNT>  (1) 
4

>  <PUBCHEM_ATOM_UDEF_STEREO_COUNT>  (1) 
0

>  <PUBCHEM_BOND_DEF_STEREO_COUNT>  (1) 
0

>  <PUBCHEM_BOND_UDEF_STEREO_COUNT>  (1) 
0

>  <PUBCHEM_ISOTOPIC_ATOM_COUNT>  (1) 
0

>  <PUBCHEM_COMPONENT_COUNT>  (1) 
1

>  <PUBCHEM_CACTVS_TAUTO_COUNT>  (1) 
9

>  <PUBCHEM_CONFORMER_ID>  (1) 
000025AE00000001

>  <PUBCHEM_MMFF94_ENERGY>  (1) 
131.425

>  <PUBCHEM_FEATURE_SELFOVERLAP>  (1) 
57.231

>  <PUBCHEM_SHAPE_FINGERPRINT>  (1) 
10165383 225 18201452375528585376
10863032 1 17561071510348859063
10871710 139 17759813932518324356
10948715 1 18413107238588576704
11578080 2 17701533137751256528
12011746 2 18260265226754867500
12035758 1 18196935466156371154
12423570 1 8018911255677468450
13140716 1 18045230576593907017
13172582 1 18333736831421854801
13681431 1 17122539848990625118
141345 1 12442458477792176094
144361 1 17690048704038048326
14817 1 9343267861520368191
15852999 172 18201717332008093803
15881359 60 18190718921595854693
16945 1 18114758121361423524
17357779 13 17628616846438034343
1813 80 15069463710395749850
18981168 100 16913951893660348040
20905425 154 17322389298658399755
22112679 90 18049167970618744541
22182313 1 18263943059116691055
22344851 262 18334862765872720904
22802520 49 17399810297869132445
2334 1 18189055291710102453
23388829 49 17760362592941120860
23419403 2 17049333269881754442
23559900 14 17972610879523505094
238 59 17907838627449346461
25 1 17632578206164430272
2748010 2 18045228141484307997
34934 24 18040996280042684524
4340502 62 17846790602596780211
495365 180 17837467688659892925
5845 1 11053373871335242310
69090 78 18410292505964273233
7364860 26 17690271612978068541
81228 2 17981016906982039843
84936 31 17413854445463130775

>  <PUBCHEM_SHAPE_MULTIPOLES>  (1) 
424.29
4.91
2.83
1.58
0.87
1.2
-0.17
-2.48
-1.2
-1.37
1.3
0.45
0.19
0.3

>  <PUBCHEM_SHAPE_SELFOVERLAP>  (1) 
958.193

>  <PUBCHEM_SHAPE_VOLUME>  (1) 
220.5

>  <PUBCHEM_COORDINATE_TYPE>  (1) 
2
5
10

$$$$
