9647
     RDKit          3D

 23 26  0  0  1  0  0  0  0  0999 V2000
   -0.2195    0.0960    1.4852 F   0  0  0  0  0  0  0  0  0  0  0  0
    0.5151   -2.3650   -1.0081 O   0  0  0  0  0  0  0  0  0  0  0  0
    4.8959   -0.7282    1.1431 O   0  0  0  0  0  0  0  0  0  0  0  0
   -5.7396    0.2680    0.4611 O   0  0  0  0  0  0  0  0  0  0  0  0
    0.6395    0.7362   -0.6342 C   0  0  0  0  0  0  0  0  0  0  0  0
   -0.1852   -0.3288    0.1666 C   0  0  0  0  0  0  0  0  0  0  0  0
    2.0173    0.8519    0.0298 C   0  0  0  0  0  0  0  0  0  0  0  0
    2.7919   -0.4860   -0.0578 C   0  0  0  0  0  0  0  0  0  0  0  0
   -1.6832   -0.3536   -0.3055 C   0  0  0  0  0  0  0  0  0  0  0  0
    0.5539   -1.6925    0.2410 C   0  0  0  0  0  0  0  0  0  0  0  0
    2.0189   -1.5504    0.7245 C   0  0  0  0  0  0  0  0  0  0  0  0
   -0.1037    2.0780   -0.7886 C   0  0  0  0  0  0  0  0  0  0  0  0
    3.0334    1.8895   -0.4375 C   0  0  0  0  0  0  0  0  0  0  0  0
   -2.2928    1.0234   -0.0103 C   0  0  0  0  0  0  0  0  0  0  0  0
    4.0966   -0.0101    0.5575 C   0  0  0  0  0  0  0  0  0  0  0  0
   -1.3597    2.2115    0.0657 C   0  0  0  0  0  0  0  0  0  0  0  0
    4.3080    1.4759    0.3171 C   0  0  0  0  0  0  0  0  0  0  0  0
   -2.4883   -1.4089    0.4978 C   0  0  0  0  0  0  0  0  0  0  0  0
    3.1557   -0.9690   -1.4767 C   0  0  0  0  0  0  0  0  0  0  0  0
   -1.8366   -0.6471   -1.8179 C   0  0  0  0  0  0  0  0  0  0  0  0
   -3.9898   -1.3476    0.2325 C   0  0  0  0  0  0  0  0  0  0  0  0
   -3.5941    1.2004    0.2749 C   0  0  0  0  0  0  0  0  0  0  0  0
   -4.5337    0.0565    0.3397 C   0  0  0  0  0  0  0  0  0  0  0  0
  1  6  1  0
  2 10  1  0
  3 15  2  0
  4 23  2  0
  5  6  1  0
  5  7  1  0
  5 12  1  0
  6  9  1  0
  6 10  1  0
  7  8  1  0
  7 13  1  0
  8 11  1  0
  8 15  1  0
  8 19  1  0
  9 14  1  0
  9 18  1  0
  9 20  1  0
 10 11  1  0
 12 16  1  0
 13 17  1  0
 14 16  1  0
 14 22  2  0
 15 17  1  0
 18 21  1  0
 21 23  1  0
 22 23  1  0
M  END
>  <PUBCHEM_COMPOUND_CID>  (1) 
9647

>  <PUBCHEM_CONFORMER_RMSD>  (1) 
0.6

>  <PUBCHEM_CONFORMER_DIVERSEORDER>  (1) 
1

>  <PUBCHEM_MMFF94_PARTIAL_CHARGES>  (1) 
17
1 -0.34
10 0.28
14 -0.28
15 0.45
16 0.14
17 0.06
2 -0.68
21 0.06
22 -0.14
23 0.49
3 -0.57
4 -0.57
47 0.15
48 0.4
6 0.34
8 0.06
9 0.14

>  <PUBCHEM_EFFECTIVE_ROTOR_COUNT>  (1) 
1.6

>  <PUBCHEM_PHARMACOPHORE_FEATURES>  (1) 
8
1 2 acceptor
1 2 donor
1 3 acceptor
1 4 acceptor
5 7 8 13 15 17 rings
6 5 6 7 8 10 11 rings
6 5 6 9 12 14 16 rings
6 9 14 18 21 22 23 rings

>  <PUBCHEM_HEAVY_ATOM_COUNT>  (1) 
23

>  <PUBCHEM_ATOM_DEF_STEREO_COUNT>  (1) 
5

>  <PUBCHEM_ATOM_UDEF_STEREO_COUNT>  (1) 
1

>  <PUBCHEM_BOND_DEF_STEREO_COUNT>  (1) 
0

>  <PUBCHEM_BOND_UDEF_STEREO_COUNT>  (1) 
0

>  <PUBCHEM_ISOTOPIC_ATOM_COUNT>  (1) 
0

>  <PUBCHEM_COMPONENT_COUNT>  (1) 
1

>  <PUBCHEM_CACTVS_TAUTO_COUNT>  (1) 
10

>  <PUBCHEM_CONFORMER_ID>  (1) 
000025AF00000001

>  <PUBCHEM_MMFF94_ENERGY>  (1) 
84.0678

>  <PUBCHEM_FEATURE_SELFOVERLAP>  (1) 
40.692

>  <PUBCHEM_SHAPE_FINGERPRINT>  (1) 
10062212 137 18336823195057709011
10863032 1 18342463659432341373
10906281 52 18263383467943843601
10948715 1 18342459239847709725
10967382 1 18408887338609462045
11132069 177 18409169900381801065
11578080 2 14259700935658349785
12236239 1 18201999941325461103
12403259 226 18189890929706644444
12403259 415 17749097899078337356
12403814 3 18343857818997021485
12592029 89 18410578357560417386
12633257 1 18113903766693795827
12788726 201 18201451276186191496
13140716 1 18336545035510771568
13214271 11 18411134745146383279
13221675 6 18411138009036633165
13224815 77 18409728465020521956
13583140 156 16517063264219312276
13675066 3 18059856172870840562
14178342 30 18122337983109955904
14223421 5 18264208010948162029
14341114 328 18409169926067124529
14787075 74 18340205318483912073
14790565 3 18192723464369568636
15196674 1 18335984254537011561
15375358 24 18409450271889552747
15536298 74 18413394228229345084
15788980 27 15068619396723232451
1601671 61 18413673521431312665
16945 1 18265053522457573060
17349148 13 17603583019604235664
17980427 23 17915717955913865360
1813 80 17168151121779094469
18186145 218 18260827103129585806
200 152 18334851749276403227
20510252 161 18200878370471898825
21267235 1 18335148578692742395
21421861 104 17896313610685546491
22182313 1 18268991977392548558
23184049 59 18408322215571446116
23227448 37 18341612654865656143
23402539 116 18410565219186711527
23557571 272 18340773641378052132
23559900 14 18270118981433345094
2748010 2 18409450305837769804
296302 2 18343021133297302400
3286 77 17967810535782587516
335352 9 18335420144931799639
34797466 226 16629972151851519393
34934 24 18410289207962120333
350125 39 18408885135982725424
42630746 31 18342177756291633543
4340502 62 16056881342314737350
474 4 18115030817483308748
5104073 3 18336269028307192681
69090 78 18343017808944999694
7097593 13 17392465606992369426
9709674 26 18410581677491054535

>  <PUBCHEM_SHAPE_MULTIPOLES>  (1) 
448.45
8.91
2.16
1.13
2.42
0.27
0.3
0.36
-2.07
-0.34
0.2
-0.3
-0.27
-0.11

>  <PUBCHEM_SHAPE_SELFOVERLAP>  (1) 
977.959

>  <PUBCHEM_SHAPE_VOLUME>  (1) 
244.9

>  <PUBCHEM_COORDINATE_TYPE>  (1) 
2
5
10

$$$$
