965
     RDKit          3D

 20 19  0  0  0  0  0  0  0  0999 V2000
   -6.3094   -0.9359   -1.3357 O   0  0  0  0  0  0  0  0  0  0  0  0
   -6.1506    0.3643    0.5250 O   0  0  0  0  0  0  0  0  0  0  0  0
    2.5736   -2.0952   -0.4352 C   0  0  0  0  0  0  0  0  0  0  0  0
    2.8753   -1.2849   -1.6976 C   0  0  0  0  0  0  0  0  0  0  0  0
    1.1443   -2.6456   -0.3936 C   0  0  0  0  0  0  0  0  0  0  0  0
    0.3128    2.1103    0.0609 C   0  0  0  0  0  0  0  0  0  0  0  0
   -1.1370    1.9513    0.5234 C   0  0  0  0  0  0  0  0  0  0  0  0
    4.3285   -0.8007   -1.7726 C   0  0  0  0  0  0  0  0  0  0  0  0
    1.1232    2.9473    1.0554 C   0  0  0  0  0  0  0  0  0  0  0  0
   -1.9408    1.0884   -0.4517 C   0  0  0  0  0  0  0  0  0  0  0  0
    0.8080   -3.5378    0.8057 C   0  0  0  0  0  0  0  0  0  0  0  0
    4.7867    0.0956   -0.6158 C   0  0  0  0  0  0  0  0  0  0  0  0
    2.5761    3.1547    0.6172 C   0  0  0  0  0  0  0  0  0  0  0  0
   -3.3828    0.9035    0.0311 C   0  0  0  0  0  0  0  0  0  0  0  0
    0.8975   -2.8676    2.1782 C   0  0  0  0  0  0  0  0  0  0  0  0
    4.0163    1.3813   -0.5285 C   0  0  0  0  0  0  0  0  0  0  0  0
    3.3472    1.8695    0.5273 C   0  0  0  0  0  0  0  0  0  0  0  0
   -4.2205    0.0679   -0.9368 C   0  0  0  0  0  0  0  0  0  0  0  0
   -0.0014   -1.6499    2.3222 C   0  0  0  0  0  0  0  0  0  0  0  0
   -5.6470   -0.1167   -0.4789 C   0  0  0  0  0  0  0  0  0  0  0  0
  1 20  1  0
  2 20  2  0
  3  4  1  0
  3  5  1  0
  4  8  1  0
  5 11  1  0
  6  7  1  0
  6  9  1  0
  7 10  1  0
  8 12  1  0
  9 13  1  0
 10 14  1  0
 11 15  1  0
 12 16  1  0
 13 17  1  0
 14 18  1  0
 15 19  1  0
 16 17  2  0
 18 20  1  0
M  END
>  <PUBCHEM_COMPOUND_CID>  (1) 
965

>  <PUBCHEM_CONFORMER_RMSD>  (1) 
1.4

>  <PUBCHEM_CONFORMER_DIVERSEORDER>  (1) 
1
24
29
35
8
87
69
18
52
97
81
22
46
19
80
41
49
38
17
2
51
57
75
93
66
48
90
7
4
89
25
67
6
32
54
61
14
96
79
39
65
44
50
95
64
55
11
30
16
36
63
91
42
45
77
26
28
21
5
53
62
34
3
60
27
86
13
56
78
92
88
98
20
73
58
59
43
84
82
47
15
33
40
72
68
74
76
23
70
83
85
9
31
71
37
94
12
10

>  <PUBCHEM_MMFF94_PARTIAL_CHARGES>  (1) 
11
1 -0.65
12 0.14
13 0.14
16 -0.29
17 -0.29
18 0.06
2 -0.57
20 0.66
47 0.15
48 0.15
54 0.5

>  <PUBCHEM_EFFECTIVE_ROTOR_COUNT>  (1) 
15

>  <PUBCHEM_PHARMACOPHORE_FEATURES>  (1) 
4
1 1 acceptor
1 19 hydrophobe
1 2 acceptor
3 1 2 20 anion

>  <PUBCHEM_HEAVY_ATOM_COUNT>  (1) 
20

>  <PUBCHEM_ATOM_DEF_STEREO_COUNT>  (1) 
0

>  <PUBCHEM_ATOM_UDEF_STEREO_COUNT>  (1) 
0

>  <PUBCHEM_BOND_DEF_STEREO_COUNT>  (1) 
0

>  <PUBCHEM_BOND_UDEF_STEREO_COUNT>  (1) 
1

>  <PUBCHEM_ISOTOPIC_ATOM_COUNT>  (1) 
0

>  <PUBCHEM_COMPONENT_COUNT>  (1) 
1

>  <PUBCHEM_CACTVS_TAUTO_COUNT>  (1) 
1

>  <PUBCHEM_CONFORMER_ID>  (1) 
000003C500000001

>  <PUBCHEM_MMFF94_ENERGY>  (1) 
-0.0629

>  <PUBCHEM_FEATURE_SELFOVERLAP>  (1) 
20.354

>  <PUBCHEM_SHAPE_FINGERPRINT>  (1) 
10316853 100 18263650713446249031
11186622 123 18267020553371610313
114674 6 18412823607791679592
13402501 40 18337960090196886932
13533116 47 17846500382782532673
13617811 41 17458343053394206461
14931854 50 18338528439066469118
15110567 62 18411702071307436861
15324115 91 17385721348849076627
19026451 147 18266452118665779002
20567600 347 18114177519213767746
20645477 70 18341045306713431236
21197605 99 17984418813127919710
238 59 18337116683221392778
437795 51 18262533554330519803
444735 86 18338784655414565893
57359948 33 16227425432413496039
59755656 215 18333724711667918789

>  <PUBCHEM_SHAPE_MULTIPOLES>  (1) 
399.85
11.71
4.32
1.77
20.9
0.99
0.54
-0.81
-6.25
-3.83
2.22
-0.71
1.34
0.49

>  <PUBCHEM_SHAPE_SELFOVERLAP>  (1) 
734.299

>  <PUBCHEM_SHAPE_VOLUME>  (1) 
252.2

>  <PUBCHEM_COORDINATE_TYPE>  (1) 
2
5
10

$$$$
