9657
     RDKit          3D

 19 19  0  0  1  0  0  0  0  0999 V2000
    0.8284    0.9235    2.0836 O   0  0  0  0  0  0  0  0  0  0  0  0
   -4.4654   -0.9281   -0.7355 O   0  0  0  0  0  0  0  0  0  0  0  0
    2.8853   -2.0010   -0.2118 N   0  0  0  0  0  0  0  0  0  0  0  0
    1.7426   -1.3008    0.4273 C   0  0  0  0  0  0  0  0  0  0  0  0
    1.7652    0.1703    0.0069 C   0  0  0  0  0  0  0  0  0  0  0  0
    0.6405    1.0237    0.6611 C   0  0  0  0  0  0  0  0  0  0  0  0
    2.8846   -3.4912    0.1543 C   0  0  0  0  0  0  0  0  0  0  0  0
    4.2193   -1.3969    0.2473 C   0  0  0  0  0  0  0  0  0  0  0  0
    2.8092   -1.8846   -1.7402 C   0  0  0  0  0  0  0  0  0  0  0  0
   -0.7477    0.4928    0.2815 C   0  0  0  0  0  0  0  0  0  0  0  0
    0.7084    2.5135    0.3493 C   0  0  0  0  0  0  0  0  0  0  0  0
   -1.1549    0.6015   -1.0260 C   0  0  0  0  0  0  0  0  0  0  0  0
   -1.5252   -0.0688    1.2653 C   0  0  0  0  0  0  0  0  0  0  0  0
    1.5528    3.1337   -0.4899 C   0  0  0  0  0  0  0  0  0  0  0  0
   -2.4173    0.1191   -1.3713 C   0  0  0  0  0  0  0  0  0  0  0  0
   -2.7876   -0.5515    0.9201 C   0  0  0  0  0  0  0  0  0  0  0  0
   -3.2337   -0.4576   -0.3983 C   0  0  0  0  0  0  0  0  0  0  0  0
    1.5440    4.6078   -0.7321 C   0  0  0  0  0  0  0  0  0  0  0  0
   -5.2483   -1.5055    0.3083 C   0  0  0  0  0  0  0  0  0  0  0  0
  1  6  1  0
  2 17  1  0
  2 19  1  0
  3  4  1  0
  3  7  1  0
  3  8  1  0
  3  9  1  0
  4  5  1  0
  5  6  1  0
  6 10  1  0
  6 11  1  0
 10 12  2  0
 10 13  1  0
 11 14  2  0
 12 15  1  0
 13 16  2  0
 14 18  1  0
 15 17  2  0
 16 17  1  0
M  CHG  1   3   1
M  END
>  <PUBCHEM_COMPOUND_CID>  (1) 
9657

>  <PUBCHEM_CONFORMER_RMSD>  (1) 
0.8

>  <PUBCHEM_CONFORMER_DIVERSEORDER>  (1) 
1
4
10
9
2
7
11
3
6
8
5
12

>  <PUBCHEM_MMFF94_PARTIAL_CHARGES>  (1) 
25
1 -0.68
10 -0.14
11 -0.29
12 -0.15
13 -0.15
14 -0.29
15 -0.15
16 -0.15
17 0.08
18 0.14
19 0.28
2 -0.36
3 -1.01
33 0.15
34 0.4
35 0.15
36 0.15
37 0.15
38 0.15
39 0.15
4 0.5
6 0.56
7 0.5
8 0.5
9 0.5

>  <PUBCHEM_EFFECTIVE_ROTOR_COUNT>  (1) 
6

>  <PUBCHEM_PHARMACOPHORE_FEATURES>  (1) 
6
1 1 acceptor
1 1 donor
1 18 hydrophobe
1 2 acceptor
1 3 cation
6 10 12 13 15 16 17 rings

>  <PUBCHEM_HEAVY_ATOM_COUNT>  (1) 
19

>  <PUBCHEM_ATOM_DEF_STEREO_COUNT>  (1) 
0

>  <PUBCHEM_ATOM_UDEF_STEREO_COUNT>  (1) 
0

>  <PUBCHEM_BOND_DEF_STEREO_COUNT>  (1) 
0

>  <PUBCHEM_BOND_UDEF_STEREO_COUNT>  (1) 
1

>  <PUBCHEM_ISOTOPIC_ATOM_COUNT>  (1) 
0

>  <PUBCHEM_COMPONENT_COUNT>  (1) 
1

>  <PUBCHEM_CACTVS_TAUTO_COUNT>  (1) 
1

>  <PUBCHEM_CONFORMER_ID>  (1) 
000025B900000001

>  <PUBCHEM_MMFF94_ENERGY>  (1) 
69.4818

>  <PUBCHEM_FEATURE_SELFOVERLAP>  (1) 
30.446

>  <PUBCHEM_SHAPE_FINGERPRINT>  (1) 
11045515 52 18116155472002454292
11101153 10 18263656083141403854
11578080 2 17701233868672531584
12363563 72 18337672997144906074
12553582 1 18266197044826617546
12592029 89 18194119840025973196
12730499 353 17975144437375001825
12788726 201 17757272574562209608
13533116 47 18200032997192881227
13681431 1 18410011044147199944
13911882 115 17682412690895514987
13911987 19 18044122205265621444
13955234 65 18266743669777729841
15342816 4 18340775827733112534
15502722 9 18265616661468813061
15806764 133 18114168719379887285
15906896 17 17325503102819488648
17539 30 17905601108391415948
1813 80 18200606803810250958
18785283 64 18190458461878519600
18915476 22 18046080499266300841
19786989 88 18046332300430241281
20361792 2 18270961237167446990
20388580 30 18342178868767401327
20645477 70 18263636432954225027
20671657 53 18411136892208180955
21296965 67 18341610361015451243
21304303 282 16818229124342388740
21524375 3 17322379853936262312
21665056 4 16898207539710908222
2255824 54 18269558393405702262
23114952 82 18187925135654128461
23419403 2 14138262139354077144
23526113 38 18186239523961504251
23557571 272 18045202853096456232
23559900 14 18337382842402722035
23566358 27 18266738180809707415
23598291 2 18057347052876518169
23728640 28 16967731867554033194
3057174 1 17833845137006110036
3060560 45 18120935272387079188
314173 41 18411987957221517407
3729539 64 18046374043724190636
458136 41 18050291663207997529
6025842 7 18194681694978537911
633830 44 7925621207265088154
7364860 26 18337106894574589748
81228 2 17978508633597454120
8272917 22 18267871755912745941
84936 31 18265331900752586828

>  <PUBCHEM_SHAPE_MULTIPOLES>  (1) 
374.29
7.35
4.2
1.36
7.18
4.29
-0.02
-7.11
0.89
-5.55
0.89
0.02
-0.02
0.17

>  <PUBCHEM_SHAPE_SELFOVERLAP>  (1) 
751.135

>  <PUBCHEM_SHAPE_VOLUME>  (1) 
223

>  <PUBCHEM_COORDINATE_TYPE>  (1) 
2
5
10

$$$$
