9674
     RDKit          3D

 14 13  0  0  0  0  0  0  0  0999 V2000
    2.7757   -0.1079   -0.0015 F   0  0  0  0  0  0  0  0  0  0  0  0
    1.7762   -1.7149   -1.0724 F   0  0  0  0  0  0  0  0  0  0  0  0
    1.7374   -1.6752    1.1013 F   0  0  0  0  0  0  0  0  0  0  0  0
    1.9695    1.7730   -0.0013 F   0  0  0  0  0  0  0  0  0  0  0  0
    0.1061    2.0228   -1.0917 F   0  0  0  0  0  0  0  0  0  0  0  0
    0.1045    2.0215    1.0874 F   0  0  0  0  0  0  0  0  0  0  0  0
   -0.9207   -1.9621   -0.0055 F   0  0  0  0  0  0  0  0  0  0  0  0
   -1.9652    0.1575   -0.0052 O   0  0  0  0  0  0  0  0  0  0  0  0
    0.4092   -0.0565   -0.0029 C   0  0  0  0  0  0  0  0  0  0  0  0
    1.6624   -0.8865   -0.0025 C   0  0  0  0  0  0  0  0  0  0  0  0
    0.6570    1.4265   -0.0022 C   0  0  0  0  0  0  0  0  0  0  0  0
   -0.8179   -0.6113   -0.0044 C   0  0  0  0  0  0  0  0  0  0  0  0
   -3.1398   -0.6451   -0.0067 C   0  0  0  0  0  0  0  0  0  0  0  0
   -4.3544    0.2583    0.0076 C   0  0  0  0  0  0  0  0  0  0  0  0
  1 10  1  0
  2 10  1  0
  3 10  1  0
  4 11  1  0
  5 11  1  0
  6 11  1  0
  7 12  1  0
  8 12  1  0
  8 13  1  0
  9 10  1  0
  9 11  1  0
  9 12  2  3
 13 14  1  0
M  END
>  <PUBCHEM_COMPOUND_CID>  (1) 
9674

>  <PUBCHEM_CONFORMER_RMSD>  (1) 
0.6

>  <PUBCHEM_CONFORMER_DIVERSEORDER>  (1) 
1
2
3

>  <PUBCHEM_MMFF94_PARTIAL_CHARGES>  (1) 
13
1 -0.34
10 1.16
11 1.16
12 0.23
13 0.28
2 -0.34
3 -0.34
4 -0.34
5 -0.34
6 -0.34
7 -0.15
8 -0.36
9 -0.28

>  <PUBCHEM_EFFECTIVE_ROTOR_COUNT>  (1) 
4

>  <PUBCHEM_PHARMACOPHORE_FEATURES>  (1) 
1
1 8 acceptor

>  <PUBCHEM_HEAVY_ATOM_COUNT>  (1) 
14

>  <PUBCHEM_ATOM_DEF_STEREO_COUNT>  (1) 
0

>  <PUBCHEM_ATOM_UDEF_STEREO_COUNT>  (1) 
0

>  <PUBCHEM_BOND_DEF_STEREO_COUNT>  (1) 
0

>  <PUBCHEM_BOND_UDEF_STEREO_COUNT>  (1) 
0

>  <PUBCHEM_ISOTOPIC_ATOM_COUNT>  (1) 
0

>  <PUBCHEM_COMPONENT_COUNT>  (1) 
1

>  <PUBCHEM_CACTVS_TAUTO_COUNT>  (1) 
1

>  <PUBCHEM_CONFORMER_ID>  (1) 
000025CA00000001

>  <PUBCHEM_MMFF94_ENERGY>  (1) 
11.784

>  <PUBCHEM_FEATURE_SELFOVERLAP>  (1) 
5.074

>  <PUBCHEM_SHAPE_FINGERPRINT>  (1) 
10130415 120 18261670368376622699
10219947 1 18202003196689417815
10980938 120 18341049704869906609
12932764 1 17822004312035453903
13380535 21 18192726758883017939
13380535 76 18194959866782805155
13922767 16 18411694370942803937
14325111 11 18338799022132807687
14344429 50 18335143089687653831
14648413 74 17970635314266934977
14993402 34 18343025479883437863
15775835 57 18199473328103415213
161256 15 18408037394736311508
16945 1 18270697440439624336
20511035 2 18123469654972588294
20606313 2 18412824673117239543
20645477 70 18411978083814137183
20653091 64 18408890663104001529
20871998 22 18269557126548969182
21040471 1 17402049392911268516
21501502 16 18194398020825993479
23552423 10 18118400876673151911
23559900 14 17840604905162868916
2748010 2 18122616167782651292
63268167 104 18412830209219411857
7364860 26 18200595920436923601

>  <PUBCHEM_SHAPE_MULTIPOLES>  (1) 
231.33
4.75
2.08
0.82
5.78
0.46
0
-0.51
0
-1.08
0.01
-0.24
0.04
0

>  <PUBCHEM_SHAPE_SELFOVERLAP>  (1) 
466.145

>  <PUBCHEM_SHAPE_VOLUME>  (1) 
136.9

>  <PUBCHEM_COORDINATE_TYPE>  (1) 
2
5
10

$$$$
