9678
     RDKit          3D

 12 11  0  0  0  0  0  0  0  0999 V2000
   -0.3170    1.7465    0.0059 F   0  0  0  0  0  0  0  0  0  0  0  0
    0.3168   -1.7460   -0.0063 F   0  0  0  0  0  0  0  0  0  0  0  0
   -2.8003    1.0211    0.0093 F   0  0  0  0  0  0  0  0  0  0  0  0
   -2.2395   -0.7632   -1.1070 F   0  0  0  0  0  0  0  0  0  0  0  0
   -2.2832   -0.8092    1.0698 F   0  0  0  0  0  0  0  0  0  0  0  0
    2.8000   -1.0215   -0.0091 F   0  0  0  0  0  0  0  0  0  0  0  0
    2.2839    0.8092   -1.0695 F   0  0  0  0  0  0  0  0  0  0  0  0
    2.2394    0.7626    1.1073 F   0  0  0  0  0  0  0  0  0  0  0  0
   -0.5314    0.4095    0.0021 C   0  0  0  0  0  0  0  0  0  0  0  0
    0.5313   -0.4091   -0.0025 C   0  0  0  0  0  0  0  0  0  0  0  0
   -1.9516   -0.0381    0.0040 C   0  0  0  0  0  0  0  0  0  0  0  0
    1.9517    0.0381   -0.0040 C   0  0  0  0  0  0  0  0  0  0  0  0
  1  9  1  0
  2 10  1  0
  3 11  1  0
  4 11  1  0
  5 11  1  0
  6 12  1  0
  7 12  1  0
  8 12  1  0
  9 10  2  0
  9 11  1  0
 10 12  1  0
M  END
>  <PUBCHEM_COMPOUND_CID>  (1) 
9678

>  <PUBCHEM_CONFORMER_RMSD>  (1) 
0.6

>  <PUBCHEM_CONFORMER_DIVERSEORDER>  (1) 
1

>  <PUBCHEM_MMFF94_PARTIAL_CHARGES>  (1) 
12
1 -0.15
10 0.01
11 1.16
12 1.16
2 -0.15
3 -0.34
4 -0.34
5 -0.34
6 -0.34
7 -0.34
8 -0.34
9 0.01

>  <PUBCHEM_EFFECTIVE_ROTOR_COUNT>  (1) 
2

>  <PUBCHEM_PHARMACOPHORE_FEATURES>  (1) 
0

>  <PUBCHEM_HEAVY_ATOM_COUNT>  (1) 
12

>  <PUBCHEM_ATOM_DEF_STEREO_COUNT>  (1) 
0

>  <PUBCHEM_ATOM_UDEF_STEREO_COUNT>  (1) 
0

>  <PUBCHEM_BOND_DEF_STEREO_COUNT>  (1) 
0

>  <PUBCHEM_BOND_UDEF_STEREO_COUNT>  (1) 
1

>  <PUBCHEM_ISOTOPIC_ATOM_COUNT>  (1) 
0

>  <PUBCHEM_COMPONENT_COUNT>  (1) 
1

>  <PUBCHEM_CACTVS_TAUTO_COUNT>  (1) 
1

>  <PUBCHEM_CONFORMER_ID>  (1) 
000025CE00000001

>  <PUBCHEM_MMFF94_ENERGY>  (1) 
2.6237

>  <PUBCHEM_FEATURE_SELFOVERLAP>  (1) 
0

>  <PUBCHEM_SHAPE_FINGERPRINT>  (1) 
10857977 72 18335420218067601897
12897270 3 18411418380016825132
12932764 1 18060143162474627079
14325111 11 18410293614165958380
14390081 3 18272927211334490953
15775835 57 18202281394436977650
16945 1 18266740383721455622
21040471 1 18410855507636669570
23235685 24 18186804651436853444
23552423 10 18261112928692142558
29004967 10 18408608075656940577
3248919 1 18113332033194429291
369184 2 18060413625334538931
5084963 1 18336548226966871402

>  <PUBCHEM_SHAPE_MULTIPOLES>  (1) 
188.76
3.98
1.32
0.86
0
0
0
0
0
0
0
0
0
0

>  <PUBCHEM_SHAPE_SELFOVERLAP>  (1) 
383.981

>  <PUBCHEM_SHAPE_VOLUME>  (1) 
110.6

>  <PUBCHEM_COORDINATE_TYPE>  (1) 
2
5
10

$$$$
