9684
     RDKit          3D

 21 24  0  0  1  0  0  0  0  0999 V2000
   -4.9776   -1.3343    0.6812 O   0  0  0  0  0  0  0  0  0  0  0  0
    4.4539   -2.3016   -0.1915 O   0  0  0  0  0  0  0  0  0  0  0  0
    5.5985    0.1997    0.1974 O   0  0  0  0  0  0  0  0  0  0  0  0
   -2.9203    0.0188    0.5605 C   0  0  0  0  0  0  0  0  0  0  0  0
   -2.3149    0.8456   -0.5973 C   0  0  0  0  0  0  0  0  0  0  0  0
   -0.7766    0.9737   -0.6324 C   0  0  0  0  0  0  0  0  0  0  0  0
   -0.0453   -0.3533   -0.3157 C   0  0  0  0  0  0  0  0  0  0  0  0
   -4.3387   -0.2622    0.0122 C   0  0  0  0  0  0  0  0  0  0  0  0
   -2.1234   -1.2800    0.8120 C   0  0  0  0  0  0  0  0  0  0  0  0
   -2.8574    0.1568   -1.8703 C   0  0  0  0  0  0  0  0  0  0  0  0
   -0.6190   -1.0453    0.9341 C   0  0  0  0  0  0  0  0  0  0  0  0
   -4.1417   -0.5640   -1.4687 C   0  0  0  0  0  0  0  0  0  0  0  0
   -0.2659    2.0941    0.2871 C   0  0  0  0  0  0  0  0  0  0  0  0
   -3.0479    0.8120    1.8717 C   0  0  0  0  0  0  0  0  0  0  0  0
    1.4596   -0.1741   -0.1814 C   0  0  0  0  0  0  0  0  0  0  0  0
    1.2184    2.3507    0.0406 C   0  0  0  0  0  0  0  0  0  0  0  0
    2.0430    1.0905    0.0196 C   0  0  0  0  0  0  0  0  0  0  0  0
    2.2925   -1.3050   -0.2509 C   0  0  0  0  0  0  0  0  0  0  0  0
    3.4382    1.1979    0.1386 C   0  0  0  0  0  0  0  0  0  0  0  0
    3.6758   -1.1859   -0.1213 C   0  0  0  0  0  0  0  0  0  0  0  0
    4.2487    0.0658    0.0744 C   0  0  0  0  0  0  0  0  0  0  0  0
  1  8  1  0
  2 20  1  0
  3 21  1  0
  4  5  1  0
  4  8  1  0
  4  9  1  0
  4 14  1  0
  5  6  1  0
  5 10  1  0
  6  7  1  0
  6 13  1  0
  7 11  1  0
  7 15  1  0
  8 12  1  0
  9 11  1  0
 10 12  1  0
 13 16  1  0
 15 17  2  0
 15 18  1  0
 16 17  1  0
 17 19  1  0
 18 20  2  0
 19 21  2  0
 20 21  1  0
M  END
>  <PUBCHEM_COMPOUND_CID>  (1) 
9684

>  <PUBCHEM_CONFORMER_RMSD>  (1) 
0.6

>  <PUBCHEM_CONFORMER_DIVERSEORDER>  (1) 
1
4
28
14
23
27
2
22
24
12
9
7
15
18
8
13
25
3
19
20
11
17
16
10
26
5
21
6

>  <PUBCHEM_MMFF94_PARTIAL_CHARGES>  (1) 
17
1 -0.68
15 -0.14
16 0.14
17 -0.14
18 -0.15
19 -0.15
2 -0.53
20 0.08
21 0.08
3 -0.53
41 0.4
42 0.15
43 0.15
44 0.45
45 0.45
7 0.14
8 0.28

>  <PUBCHEM_EFFECTIVE_ROTOR_COUNT>  (1) 
1.4

>  <PUBCHEM_PHARMACOPHORE_FEATURES>  (1) 
8
1 1 acceptor
1 1 donor
1 2 donor
1 3 donor
5 4 5 8 10 12 rings
6 15 17 18 19 20 21 rings
6 4 5 6 7 9 11 rings
6 6 7 13 15 16 17 rings

>  <PUBCHEM_HEAVY_ATOM_COUNT>  (1) 
21

>  <PUBCHEM_ATOM_DEF_STEREO_COUNT>  (1) 
0

>  <PUBCHEM_ATOM_UDEF_STEREO_COUNT>  (1) 
5

>  <PUBCHEM_BOND_DEF_STEREO_COUNT>  (1) 
0

>  <PUBCHEM_BOND_UDEF_STEREO_COUNT>  (1) 
0

>  <PUBCHEM_ISOTOPIC_ATOM_COUNT>  (1) 
0

>  <PUBCHEM_COMPONENT_COUNT>  (1) 
1

>  <PUBCHEM_CACTVS_TAUTO_COUNT>  (1) 
31

>  <PUBCHEM_CONFORMER_ID>  (1) 
000025D400000001

>  <PUBCHEM_MMFF94_ENERGY>  (1) 
67.7655

>  <PUBCHEM_FEATURE_SELFOVERLAP>  (1) 
40.828

>  <PUBCHEM_SHAPE_FINGERPRINT>  (1) 
10062212 137 17989208135944889849
10366900 7 18413388757068744744
11471102 20 18410009966268300276
11796584 16 16588296160391422498
12107183 9 17269211461809899298
12236239 1 17418375813290907876
12403259 415 17967806185081248997
12403814 3 17060624395706065585
12596602 18 16630520778278652970
12670546 56 17203602705163457136
12714826 92 17168155524183895401
13134695 92 18343578572855597484
13140716 1 18124591148791748056
13224815 77 18272652324937657188
13533116 47 18272091651374990233
13544653 18 18408325458419506180
13583140 156 16370724846394338472
14289901 80 16128661846716794430
14386348 63 18259985989561249026
15196674 1 18410575037772009456
15209289 33 18409171013005028371
15375358 24 18260824921476168288
15375462 189 17988923392113230816
15848702 151 18201444644487102071
16945 1 18335988648325796925
17349148 13 18342452660021135410
17357779 13 18261944193811006997
1813 80 18270415922402848300
18186145 218 17895188874804420173
18785283 64 18045220694027334588
19489759 90 16153420649535269183
200 152 18201995538767711479
20028762 73 18129945718843324727
20279233 1 18040716969718623218
20645477 70 18260829328038773852
21033648 29 17895180130372734269
21267235 1 18411428310471940774
21279426 13 18116989988247589151
23175994 123 18260552216553930165
23184049 59 18273217495310120846
23402539 116 18341046337404653932
23493267 7 15719390608014386273
23559900 14 18187080629641610146
3286 77 18337397144723107757
34797466 226 16371021701680604390
5104073 3 18270113501323822208
59755656 215 17530960298629437667
69090 78 18409164441441730451
9709674 26 18410295770577372094

>  <PUBCHEM_SHAPE_MULTIPOLES>  (1) 
414.56
9.71
1.91
1.22
3.88
0.31
-0.06
-3.32
-0.11
1.22
0.16
-1.7
0.02
0.19

>  <PUBCHEM_SHAPE_SELFOVERLAP>  (1) 
905.681

>  <PUBCHEM_SHAPE_VOLUME>  (1) 
223.7

>  <PUBCHEM_COORDINATE_TYPE>  (1) 
2
5
10

$$$$
