9685
     RDKit          3D

 21 24  0  0  1  0  0  0  0  0999 V2000
    5.1339    1.0605    0.5845 O   0  0  0  0  0  0  0  0  0  0  0  0
   -4.5123    2.2519   -0.2572 O   0  0  0  0  0  0  0  0  0  0  0  0
   -5.6145   -0.2621    0.1718 O   0  0  0  0  0  0  0  0  0  0  0  0
    2.3128   -0.7833   -0.5548 C   0  0  0  0  0  0  0  0  0  0  0  0
    2.8918    0.0982    0.5798 C   0  0  0  0  0  0  0  0  0  0  0  0
    0.7770   -0.9318   -0.5979 C   0  0  0  0  0  0  0  0  0  0  0  0
    0.0221    0.3841   -0.2973 C   0  0  0  0  0  0  0  0  0  0  0  0
    2.0618    1.3623    0.8434 C   0  0  0  0  0  0  0  0  0  0  0  0
    2.8587   -0.1295   -1.8364 C   0  0  0  0  0  0  0  0  0  0  0  0
    0.5680    1.0836    0.9600 C   0  0  0  0  0  0  0  0  0  0  0  0
    0.2856   -2.0476    0.3388 C   0  0  0  0  0  0  0  0  0  0  0  0
    4.2235    0.5237   -0.0361 C   0  0  0  0  0  0  0  0  0  0  0  0
    4.3047    0.2068   -1.5059 C   0  0  0  0  0  0  0  0  0  0  0  0
    3.1535   -0.6912    1.8636 C   0  0  0  0  0  0  0  0  0  0  0  0
   -1.4803    0.1801   -0.1771 C   0  0  0  0  0  0  0  0  0  0  0  0
   -1.1944   -2.3344    0.0988 C   0  0  0  0  0  0  0  0  0  0  0  0
   -2.0421   -1.0906    0.0446 C   0  0  0  0  0  0  0  0  0  0  0  0
   -2.3327    1.2942   -0.2768 C   0  0  0  0  0  0  0  0  0  0  0  0
   -3.4359   -1.2213    0.1534 C   0  0  0  0  0  0  0  0  0  0  0  0
   -3.7147    1.1522   -0.1577 C   0  0  0  0  0  0  0  0  0  0  0  0
   -4.2664   -0.1058    0.0585 C   0  0  0  0  0  0  0  0  0  0  0  0
  1 12  2  0
  2 20  1  0
  3 21  1  0
  4  5  1  0
  4  6  1  0
  4  9  1  0
  5  8  1  0
  5 12  1  0
  5 14  1  0
  6  7  1  0
  6 11  1  0
  7 10  1  0
  7 15  1  0
  8 10  1  0
  9 13  1  0
 11 16  1  0
 12 13  1  0
 15 17  2  0
 15 18  1  0
 16 17  1  0
 17 19  1  0
 18 20  2  0
 19 21  2  0
 20 21  1  0
M  END
>  <PUBCHEM_COMPOUND_CID>  (1) 
9685

>  <PUBCHEM_CONFORMER_RMSD>  (1) 
0.6

>  <PUBCHEM_CONFORMER_DIVERSEORDER>  (1) 
3
7
8
12
10
9
14
13
19
15
2
17
5
18
6
4
11
1
16

>  <PUBCHEM_MMFF94_PARTIAL_CHARGES>  (1) 
18
1 -0.57
12 0.45
13 0.06
15 -0.14
16 0.14
17 -0.14
18 -0.15
19 -0.15
2 -0.53
20 0.08
21 0.08
3 -0.53
40 0.15
41 0.15
42 0.45
43 0.45
5 0.06
7 0.14

>  <PUBCHEM_EFFECTIVE_ROTOR_COUNT>  (1) 
1.2

>  <PUBCHEM_PHARMACOPHORE_FEATURES>  (1) 
7
1 1 acceptor
1 2 donor
1 3 donor
5 4 5 9 12 13 rings
6 15 17 18 19 20 21 rings
6 4 5 6 7 8 10 rings
6 6 7 11 15 16 17 rings

>  <PUBCHEM_HEAVY_ATOM_COUNT>  (1) 
21

>  <PUBCHEM_ATOM_DEF_STEREO_COUNT>  (1) 
0

>  <PUBCHEM_ATOM_UDEF_STEREO_COUNT>  (1) 
4

>  <PUBCHEM_BOND_DEF_STEREO_COUNT>  (1) 
0

>  <PUBCHEM_BOND_UDEF_STEREO_COUNT>  (1) 
0

>  <PUBCHEM_ISOTOPIC_ATOM_COUNT>  (1) 
0

>  <PUBCHEM_COMPONENT_COUNT>  (1) 
1

>  <PUBCHEM_CACTVS_TAUTO_COUNT>  (1) 
62

>  <PUBCHEM_CONFORMER_ID>  (1) 
000025D500000003

>  <PUBCHEM_MMFF94_ENERGY>  (1) 
58.2529

>  <PUBCHEM_FEATURE_SELFOVERLAP>  (1) 
35.726

>  <PUBCHEM_SHAPE_FINGERPRINT>  (1) 
10366900 7 18409167736235274947
10498660 4 18337954493728263645
10646746 165 18410854369206475110
10759866 29 18113340786728285778
12107183 9 17246654980650017169
12236239 1 17240482528477026991
12390115 104 18199200511949805945
12403259 415 18272366490738342673
12403814 3 17313100852386983565
12596602 18 16515973656907511753
12670546 56 15430031042026512861
12788726 201 17988644047651523832
12916748 109 18409453596030547201
12969540 114 17632287965349255885
13134695 92 16272212990039423736
13140716 1 18048039855010242667
13224815 77 18260265226944401015
13544592 145 18272943704193543646
13583140 156 16371016238708861765
13760787 19 17894915156691854330
14289901 80 15936402347290484621
14341114 328 16805331002033030077
14386348 63 17917717915476134110
15196674 1 18410572838748760419
15375358 24 18131631209953558220
15848702 151 16486988258055480503
15880784 105 14562818789233003369
1601671 61 18410014308095348564
16752209 62 18409444825502048699
16945 1 18341045302307180974
17804303 29 18339644554890130603
18186145 218 17918279731558384083
200 152 15339125627938801670
20233049 118 18410013247570586316
20645477 70 16917079832421222638
21033648 29 17632289064934879633
21279426 13 18199755730270673300
221357 26 17846500309952373705
23175994 123 17418100939911312985
23402539 116 18340197574467720119
23493267 7 18041013850838295210
23557571 272 17916868061665713663
23559900 14 18271531905767988614
26918003 58 12829205581308609941
296302 2 17846498162194003310
3004659 81 18335423418536012654
4028521 119 18201722838335333453
4340502 62 16081093688254926139
4990 188 17989211425451930414
5104073 3 18262805047570950875
633830 44 18201995517203607157
69090 78 17917708037257458607
9709674 26 18129662048641550215

>  <PUBCHEM_SHAPE_MULTIPOLES>  (1) 
414.56
9.85
1.86
1.22
3.58
0.32
-0.05
-3.02
-0.43
1.33
0.18
-1.7
0.03
0.34

>  <PUBCHEM_SHAPE_SELFOVERLAP>  (1) 
911.253

>  <PUBCHEM_SHAPE_VOLUME>  (1) 
222.7

>  <PUBCHEM_COORDINATE_TYPE>  (1) 
2
5
10

$$$$
