9688
     RDKit          3D

 14 15  0  0  0  0  0  0  0  0999 V2000
    0.3981    2.4040    0.0296 O   0  0  0  0  0  0  0  0  0  0  0  0
    3.3115   -2.0511    0.0041 O   0  0  0  0  0  0  0  0  0  0  0  0
    0.4011    0.0210    0.0117 C   0  0  0  0  0  0  0  0  0  0  0  0
   -1.0678   -0.1047    0.0038 C   0  0  0  0  0  0  0  0  0  0  0  0
    1.0495    1.3641    0.0063 C   0  0  0  0  0  0  0  0  0  0  0  0
    1.1582   -1.0858    0.0069 C   0  0  0  0  0  0  0  0  0  0  0  0
   -1.7685   -0.1732    1.2079 C   0  0  0  0  0  0  0  0  0  0  0  0
   -1.7568   -0.1553   -1.2079 C   0  0  0  0  0  0  0  0  0  0  0  0
    2.6353   -1.0284   -0.0008 C   0  0  0  0  0  0  0  0  0  0  0  0
    2.5265    1.4144   -0.0166 C   0  0  0  0  0  0  0  0  0  0  0  0
   -3.1583   -0.2923    1.2003 C   0  0  0  0  0  0  0  0  0  0  0  0
   -3.1465   -0.2743   -1.2155 C   0  0  0  0  0  0  0  0  0  0  0  0
    3.2650    0.3043   -0.0185 C   0  0  0  0  0  0  0  0  0  0  0  0
   -3.8473   -0.3427   -0.0114 C   0  0  0  0  0  0  0  0  0  0  0  0
  1  5  2  0
  2  9  2  0
  3  4  1  0
  3  5  1  0
  3  6  2  0
  4  7  2  0
  4  8  1  0
  5 10  1  0
  6  9  1  0
  7 11  1  0
  8 12  2  0
  9 13  1  0
 10 13  2  0
 11 14  2  0
 12 14  1  0
M  END
>  <PUBCHEM_COMPOUND_CID>  (1) 
9688

>  <PUBCHEM_CONFORMER_RMSD>  (1) 
0.4

>  <PUBCHEM_CONFORMER_DIVERSEORDER>  (1) 
1
3
2

>  <PUBCHEM_MMFF94_PARTIAL_CHARGES>  (1) 
22
1 -0.57
10 -0.14
11 -0.15
12 -0.15
13 -0.14
14 -0.15
15 0.15
16 0.15
17 0.15
18 0.15
19 0.15
2 -0.57
20 0.15
21 0.15
22 0.15
3 -0.01
4 0.03
5 0.54
6 -0.14
7 -0.15
8 -0.15
9 0.54

>  <PUBCHEM_EFFECTIVE_ROTOR_COUNT>  (1) 
1

>  <PUBCHEM_PHARMACOPHORE_FEATURES>  (1) 
4
1 1 acceptor
1 2 acceptor
6 3 5 6 9 10 13 rings
6 4 7 8 11 12 14 rings

>  <PUBCHEM_HEAVY_ATOM_COUNT>  (1) 
14

>  <PUBCHEM_ATOM_DEF_STEREO_COUNT>  (1) 
0

>  <PUBCHEM_ATOM_UDEF_STEREO_COUNT>  (1) 
0

>  <PUBCHEM_BOND_DEF_STEREO_COUNT>  (1) 
0

>  <PUBCHEM_BOND_UDEF_STEREO_COUNT>  (1) 
0

>  <PUBCHEM_ISOTOPIC_ATOM_COUNT>  (1) 
0

>  <PUBCHEM_COMPONENT_COUNT>  (1) 
1

>  <PUBCHEM_CACTVS_TAUTO_COUNT>  (1) 
1

>  <PUBCHEM_CONFORMER_ID>  (1) 
000025D800000001

>  <PUBCHEM_MMFF94_ENERGY>  (1) 
39.0547

>  <PUBCHEM_FEATURE_SELFOVERLAP>  (1) 
20.297

>  <PUBCHEM_SHAPE_FINGERPRINT>  (1) 
10219947 1 18342177764929118822
10980938 120 18411699928319294060
11031198 65 18261678189359023004
11471102 20 18408882957853654964
11578080 2 17415243249029890097
12236239 1 17703793638883397803
12932764 1 17775284984269705377
13296908 3 18186802469651684259
13538477 17 17346032385274945055
14144814 61 18131071549649764495
14251717 144 18411695512808259118
14993402 34 18131633408570658206
15219456 202 17968095352006445077
15775835 57 17632021939364789793
16945 1 18338797922230997668
17844478 74 17894633660240125293
1813 80 17986128335330248734
18186145 218 18413110571419869055
19049666 15 17822561712368648973
19422 9 17989488528315769207
200 152 18272644667295909015
20201158 50 18186519908048156914
20279233 1 17749387087362637219
20361792 2 18342172232953167494
204376 136 18122903402822695968
20645477 70 18410003312958127975
20715346 28 17749391511358176579
20871998 22 18128262177609337998
21639500 275 18267858565625146261
22802520 49 17895747405146998901
23557571 272 16732985353160195020
23559900 14 16950557753958408442
2748010 2 18266448816131054636
474 4 17771613835420352696
63268167 104 18341610459794463312
77492 1 17703793643167802595
81228 2 17975976462560821104

>  <PUBCHEM_SHAPE_MULTIPOLES>  (1) 
276.37
6.3
1.62
1.04
1.37
0.38
0.01
-1.49
0.03
-1.79
-0.01
1.06
-0.07
0.01

>  <PUBCHEM_SHAPE_SELFOVERLAP>  (1) 
600.759

>  <PUBCHEM_SHAPE_VOLUME>  (1) 
149.7

>  <PUBCHEM_COORDINATE_TYPE>  (1) 
2
5
10

$$$$
