9709
     RDKit          3D

  9  9  0  0  0  0  0  0  0  0999 V2000
   -1.6346    1.7953    0.0004 F   0  0  0  0  0  0  0  0  0  0  0  0
    2.8801    0.3795    0.0007 F   0  0  0  0  0  0  0  0  0  0  0  0
   -2.5229   -0.8425   -0.0008 N   0  0  0  0  0  0  0  0  0  0  0  0
   -1.1477   -0.5291    0.0009 C   0  0  0  0  0  0  0  0  0  0  0  0
   -0.7334    0.8027    0.0001 C   0  0  0  0  0  0  0  0  0  0  0  0
   -0.2014   -1.5539    0.0006 C   0  0  0  0  0  0  0  0  0  0  0  0
    0.6272    1.1098   -0.0006 C   0  0  0  0  0  0  0  0  0  0  0  0
    1.1592   -1.2469   -0.0004 C   0  0  0  0  0  0  0  0  0  0  0  0
    1.5735    0.0850   -0.0009 C   0  0  0  0  0  0  0  0  0  0  0  0
  1  5  1  0
  2  9  1  0
  3  4  1  0
  4  5  2  0
  4  6  1  0
  5  7  1  0
  6  8  2  0
  7  9  2  0
  8  9  1  0
M  END
>  <PUBCHEM_COMPOUND_CID>  (1) 
9709

>  <PUBCHEM_CONFORMER_RMSD>  (1) 
0.4

>  <PUBCHEM_CONFORMER_DIVERSEORDER>  (1) 
1

>  <PUBCHEM_MMFF94_PARTIAL_CHARGES>  (1) 
14
1 -0.19
10 0.15
11 0.15
12 0.15
13 0.4
14 0.4
2 -0.19
3 -0.9
4 0.1
5 0.19
6 -0.15
7 -0.15
8 -0.15
9 0.19

>  <PUBCHEM_EFFECTIVE_ROTOR_COUNT>  (1) 
0

>  <PUBCHEM_PHARMACOPHORE_FEATURES>  (1) 
3
1 3 cation
1 3 donor
6 4 5 6 7 8 9 rings

>  <PUBCHEM_HEAVY_ATOM_COUNT>  (1) 
9

>  <PUBCHEM_ATOM_DEF_STEREO_COUNT>  (1) 
0

>  <PUBCHEM_ATOM_UDEF_STEREO_COUNT>  (1) 
0

>  <PUBCHEM_BOND_DEF_STEREO_COUNT>  (1) 
0

>  <PUBCHEM_BOND_UDEF_STEREO_COUNT>  (1) 
0

>  <PUBCHEM_ISOTOPIC_ATOM_COUNT>  (1) 
0

>  <PUBCHEM_COMPONENT_COUNT>  (1) 
1

>  <PUBCHEM_CACTVS_TAUTO_COUNT>  (1) 
1

>  <PUBCHEM_CONFORMER_ID>  (1) 
000025ED00000001

>  <PUBCHEM_MMFF94_ENERGY>  (1) 
26.2535

>  <PUBCHEM_FEATURE_SELFOVERLAP>  (1) 
15.223

>  <PUBCHEM_SHAPE_FINGERPRINT>  (1) 
16714656 1 18339082704211064086
16945 1 18410575136276701894
18185500 45 18195243557793803062
21040471 1 18194682557855682884
23402655 69 18268128904743357893
23552423 10 18189059707136799710
2748010 2 18267023864521909126
29004967 10 18262806279720291963
5084963 1 18202005455699530914

>  <PUBCHEM_SHAPE_MULTIPOLES>  (1) 
165.69
2.82
1.68
0.58
0.42
0.11
0
0.08
0
-0.41
0
0.01
-0.02
0

>  <PUBCHEM_SHAPE_SELFOVERLAP>  (1) 
348.548

>  <PUBCHEM_SHAPE_VOLUME>  (1) 
93.9

>  <PUBCHEM_COORDINATE_TYPE>  (1) 
2
5
10

$$$$
