9712
     RDKit          3D

 10 10  0  0  0  0  0  0  0  0999 V2000
    1.7996   -0.0004   -0.0004 Si  0  0  0  0  0  4  0  0  0  0  0  0
    2.3105   -0.0005    1.5103 F   0  0  0  0  0  0  0  0  0  0  0  0
    2.3242   -1.3041   -0.7538 F   0  0  0  0  0  0  0  0  0  0  0  0
    2.3193    1.3066   -0.7520 F   0  0  0  0  0  0  0  0  0  0  0  0
   -0.0641   -0.0003   -0.0004 C   0  0  0  0  0  0  0  0  0  0  0  0
   -0.7615    1.2077   -0.0005 C   0  0  0  0  0  0  0  0  0  0  0  0
   -0.7615   -1.2083   -0.0006 C   0  0  0  0  0  0  0  0  0  0  0  0
   -2.1564    1.2077   -0.0007 C   0  0  0  0  0  0  0  0  0  0  0  0
   -2.1564   -1.2082   -0.0009 C   0  0  0  0  0  0  0  0  0  0  0  0
   -2.8539   -0.0003   -0.0010 C   0  0  0  0  0  0  0  0  0  0  0  0
  1  2  1  0
  1  3  1  0
  1  4  1  0
  1  5  1  0
  5  6  2  0
  5  7  1  0
  6  8  1  0
  7  9  2  0
  8 10  2  0
  9 10  1  0
M  END
>  <PUBCHEM_COMPOUND_CID>  (1) 
9712

>  <PUBCHEM_CONFORMER_RMSD>  (1) 
0.4

>  <PUBCHEM_CONFORMER_DIVERSEORDER>  (1) 
1

>  <PUBCHEM_MMFF94_PARTIAL_CHARGES>  (1) 
15
1 1.45
10 -0.15
11 0.15
12 0.15
13 0.15
14 0.15
15 0.15
2 -0.41
3 -0.41
4 -0.41
5 -0.22
6 -0.15
7 -0.15
8 -0.15
9 -0.15

>  <PUBCHEM_EFFECTIVE_ROTOR_COUNT>  (1) 
1

>  <PUBCHEM_PHARMACOPHORE_FEATURES>  (1) 
1
6 5 6 7 8 9 10 rings

>  <PUBCHEM_HEAVY_ATOM_COUNT>  (1) 
10

>  <PUBCHEM_ATOM_DEF_STEREO_COUNT>  (1) 
0

>  <PUBCHEM_ATOM_UDEF_STEREO_COUNT>  (1) 
0

>  <PUBCHEM_BOND_DEF_STEREO_COUNT>  (1) 
0

>  <PUBCHEM_BOND_UDEF_STEREO_COUNT>  (1) 
0

>  <PUBCHEM_ISOTOPIC_ATOM_COUNT>  (1) 
0

>  <PUBCHEM_COMPONENT_COUNT>  (1) 
1

>  <PUBCHEM_CACTVS_TAUTO_COUNT>  (1) 
1

>  <PUBCHEM_CONFORMER_ID>  (1) 
000025F000000001

>  <PUBCHEM_MMFF94_ENERGY>  (1) 
16.075

>  <PUBCHEM_FEATURE_SELFOVERLAP>  (1) 
5.074

>  <PUBCHEM_SHAPE_FINGERPRINT>  (1) 
10857977 72 18341887541272681987
12524768 44 18336550507373037541
12716758 59 18342455885731465683
12897270 3 18339653355077796612
14325111 11 18410578366303124629
15775835 57 17675926477896238996
16945 1 18260827038694552571
19973954 147 18411987944256993940
20201158 50 18059014977824895134
20645464 45 17774991406074998794
20653085 51 18263938660917426457
21040471 1 18339359643739226921
23552423 10 18334579027100423319
2748010 2 18412547583022608823
29004967 10 16558751217189235442
3248919 1 18411412916960842885
369184 2 17095235934578402521
5084963 1 18270967829841882977

>  <PUBCHEM_SHAPE_MULTIPOLES>  (1) 
202.19
4.22
1.47
0.87
0.15
0
0.17
0
0
-0.23
-0.17
0.58
0
0

>  <PUBCHEM_SHAPE_SELFOVERLAP>  (1) 
405.33

>  <PUBCHEM_SHAPE_VOLUME>  (1) 
117.7

>  <PUBCHEM_COORDINATE_TYPE>  (1) 
2
5
10

$$$$
