9713
     RDKit          3D

 12 12  0  0  0  0  0  0  0  0999 V2000
    2.4906   -1.2518   -0.0001 F   0  0  0  0  0  0  0  0  0  0  0  0
    2.4898    0.6268   -1.0838 F   0  0  0  0  0  0  0  0  0  0  0  0
    2.4682    0.6294    1.0906 F   0  0  0  0  0  0  0  0  0  0  0  0
   -2.1634   -2.2860   -0.0001 F   0  0  0  0  0  0  0  0  0  0  0  0
   -2.1637    2.2849   -0.0021 F   0  0  0  0  0  0  0  0  0  0  0  0
   -0.1514    1.1993   -0.0011 N   0  0  0  0  0  0  0  0  0  0  0  0
   -0.1513   -1.2003    0.0000 N   0  0  0  0  0  0  0  0  0  0  0  0
   -2.2294   -0.0005   -0.0007 N   0  0  0  0  0  0  0  0  0  0  0  0
    0.4517   -0.0004   -0.0006 C   0  0  0  0  0  0  0  0  0  0  0  0
    1.9427   -0.0003   -0.0006 C   0  0  0  0  0  0  0  0  0  0  0  0
   -1.4919   -1.1226   -0.0002 C   0  0  0  0  0  0  0  0  0  0  0  0
   -1.4919    1.1216   -0.0013 C   0  0  0  0  0  0  0  0  0  0  0  0
  1 10  1  0
  2 10  1  0
  3 10  1  0
  4 11  1  0
  5 12  1  0
  6  9  2  0
  6 12  1  0
  7  9  1  0
  7 11  2  0
  8 11  1  0
  8 12  2  0
  9 10  1  0
M  END
>  <PUBCHEM_COMPOUND_CID>  (1) 
9713

>  <PUBCHEM_CONFORMER_RMSD>  (1) 
0.4

>  <PUBCHEM_CONFORMER_DIVERSEORDER>  (1) 
1

>  <PUBCHEM_MMFF94_PARTIAL_CHARGES>  (1) 
12
1 -0.34
10 1.16
11 0.81
12 0.81
2 -0.34
3 -0.34
4 -0.19
5 -0.19
6 -0.62
7 -0.62
8 -0.62
9 0.48

>  <PUBCHEM_EFFECTIVE_ROTOR_COUNT>  (1) 
1

>  <PUBCHEM_PHARMACOPHORE_FEATURES>  (1) 
4
3 6 7 9 cation
3 6 8 12 cation
3 7 8 11 cation
6 6 7 8 9 11 12 rings

>  <PUBCHEM_HEAVY_ATOM_COUNT>  (1) 
12

>  <PUBCHEM_ATOM_DEF_STEREO_COUNT>  (1) 
0

>  <PUBCHEM_ATOM_UDEF_STEREO_COUNT>  (1) 
0

>  <PUBCHEM_BOND_DEF_STEREO_COUNT>  (1) 
0

>  <PUBCHEM_BOND_UDEF_STEREO_COUNT>  (1) 
0

>  <PUBCHEM_ISOTOPIC_ATOM_COUNT>  (1) 
0

>  <PUBCHEM_COMPONENT_COUNT>  (1) 
1

>  <PUBCHEM_CACTVS_TAUTO_COUNT>  (1) 
1

>  <PUBCHEM_CONFORMER_ID>  (1) 
000025F100000001

>  <PUBCHEM_MMFF94_ENERGY>  (1) 
13.0054

>  <PUBCHEM_FEATURE_SELFOVERLAP>  (1) 
23.07

>  <PUBCHEM_SHAPE_FINGERPRINT>  (1) 
1 1 17761768464744226789
10857977 72 18197487635287821898
12716758 59 18340765940396039467
12897270 3 18338521961918234398
12932764 1 17917993905748115102
16945 1 18410574019701152033
19973954 147 18412261757201998024
20871998 184 18201158844705197311
21040471 1 18338797784533496897
23552423 10 18259705592637511162
23559900 14 18128540354642100062
241688 4 18194401315107698585
2748010 2 18121505652728211773
369184 2 18202557376002823763
5084963 1 18262801752835200824
81228 2 18410007775803220537

>  <PUBCHEM_SHAPE_MULTIPOLES>  (1) 
195.64
3.72
1.9
0.7
1.39
0.1
0
0
0.01
-1.51
0
0.39
-0.1
0

>  <PUBCHEM_SHAPE_SELFOVERLAP>  (1) 
413.338

>  <PUBCHEM_SHAPE_VOLUME>  (1) 
109.2

>  <PUBCHEM_COORDINATE_TYPE>  (1) 
2
5
10

$$$$
