9720
     RDKit          3D

 20 21  0  0  0  0  0  0  0  0999 V2000
   -4.7925    1.8591   -0.0064 F   0  0  0  0  0  0  0  0  0  0  0  0
   -3.2774    2.0521    1.5335 F   0  0  0  0  0  0  0  0  0  0  0  0
   -2.7883    2.5180   -0.5335 F   0  0  0  0  0  0  0  0  0  0  0  0
    5.8222    0.5696    0.6037 O   0  0  0  0  0  0  0  0  0  0  0  0
    4.9742    1.8392   -0.9795 O   0  0  0  0  0  0  0  0  0  0  0  0
    0.0031   -1.8676    0.2371 N   0  0  0  0  0  0  0  0  0  0  0  0
    4.8755    0.9070   -0.1464 N   0  0  0  0  0  0  0  0  0  0  0  0
   -1.3356   -1.4825    0.0151 C   0  0  0  0  0  0  0  0  0  0  0  0
    1.2241   -1.1724    0.1409 C   0  0  0  0  0  0  0  0  0  0  0  0
   -3.0508    0.2191    0.0139 C   0  0  0  0  0  0  0  0  0  0  0  0
   -1.7270   -0.1617    0.2338 C   0  0  0  0  0  0  0  0  0  0  0  0
   -2.2678   -2.4226   -0.4239 C   0  0  0  0  0  0  0  0  0  0  0  0
   -3.9831   -0.7209   -0.4250 C   0  0  0  0  0  0  0  0  0  0  0  0
    2.2962   -1.5248    0.9623 C   0  0  0  0  0  0  0  0  0  0  0  0
    1.3647   -0.1294   -0.7762 C   0  0  0  0  0  0  0  0  0  0  0  0
   -3.5916   -2.0417   -0.6441 C   0  0  0  0  0  0  0  0  0  0  0  0
   -3.4700    1.6308    0.2484 C   0  0  0  0  0  0  0  0  0  0  0  0
    3.6444    0.2058   -0.0496 C   0  0  0  0  0  0  0  0  0  0  0  0
    3.5055   -0.8362    0.8672 C   0  0  0  0  0  0  0  0  0  0  0  0
    2.5741    0.5591   -0.8714 C   0  0  0  0  0  0  0  0  0  0  0  0
  1 17  1  0
  2 17  1  0
  3 17  1  0
  4  7  1  0
  5  7  2  0
  6  8  1  0
  6  9  1  0
  7 18  1  0
  8 11  1  0
  8 12  2  0
  9 14  2  0
  9 15  1  0
 10 11  2  0
 10 13  1  0
 10 17  1  0
 12 16  1  0
 13 16  2  0
 14 19  1  0
 15 20  2  0
 18 19  2  0
 18 20  1  0
M  CHG  2   4  -1   7   1
M  END
>  <PUBCHEM_COMPOUND_CID>  (1) 
9720

>  <PUBCHEM_CONFORMER_RMSD>  (1) 
0.6

>  <PUBCHEM_CONFORMER_DIVERSEORDER>  (1) 
1
3
7
6
8
2
4
5

>  <PUBCHEM_MMFF94_PARTIAL_CHARGES>  (1) 
29
1 -0.34
10 -0.14
11 -0.15
12 -0.15
13 -0.15
14 -0.15
15 -0.15
16 -0.15
17 1.16
18 0.13
19 -0.15
2 -0.34
20 -0.15
21 0.4
22 0.15
23 0.15
24 0.15
25 0.15
26 0.15
27 0.15
28 0.15
29 0.15
3 -0.34
4 -0.52
5 -0.52
6 -0.6
7 0.91
8 0.1
9 0.1

>  <PUBCHEM_EFFECTIVE_ROTOR_COUNT>  (1) 
4

>  <PUBCHEM_PHARMACOPHORE_FEATURES>  (1) 
7
1 4 acceptor
1 4 anion
1 5 acceptor
1 6 cation
1 6 donor
6 8 10 11 12 13 16 rings
6 9 14 15 18 19 20 rings

>  <PUBCHEM_HEAVY_ATOM_COUNT>  (1) 
20

>  <PUBCHEM_ATOM_DEF_STEREO_COUNT>  (1) 
0

>  <PUBCHEM_ATOM_UDEF_STEREO_COUNT>  (1) 
0

>  <PUBCHEM_BOND_DEF_STEREO_COUNT>  (1) 
0

>  <PUBCHEM_BOND_UDEF_STEREO_COUNT>  (1) 
0

>  <PUBCHEM_ISOTOPIC_ATOM_COUNT>  (1) 
0

>  <PUBCHEM_COMPONENT_COUNT>  (1) 
1

>  <PUBCHEM_CACTVS_TAUTO_COUNT>  (1) 
1

>  <PUBCHEM_CONFORMER_ID>  (1) 
000025F800000001

>  <PUBCHEM_MMFF94_ENERGY>  (1) 
65.2811

>  <PUBCHEM_FEATURE_SELFOVERLAP>  (1) 
35.6

>  <PUBCHEM_SHAPE_FINGERPRINT>  (1) 
10382601 240 17676202425767264482
10498660 4 18201721734449838272
10646746 165 18272367594502323794
10670039 82 18335148609205958884
10937287 8 17483411724675379873
12107183 9 17975685100643281074
12236239 1 18187640340440922334
12390115 104 18059590048724275345
12596602 18 17240481463393872224
12788726 201 18266446793107370155
12916748 109 18338524130834994910
14142880 1 18260827082150686677
14251764 38 18197496444736017584
14251764 75 17768820766980972465
14466204 15 18409721881637861616
14739800 52 18124576825429387352
14767858 380 18199165353748266237
15196674 1 18409446964353291182
15209294 21 18334293171625998164
15342168 16 18054514608646089801
1741750 31 18200595796225971371
17834072 32 18339081480293350597
1813 80 12894528722687663106
20300324 65 18341893051763591727
20510252 161 18343586244168211803
20645477 56 18272937115792852059
20739085 24 17531529776801078318
21065198 48 18333443240337322394
23402539 116 18269267022983123719
235170 7 16702031880540856940
23557571 272 18060142076038026191
23559900 14 17916023456748076782
245318 6 16809557697194188460
3268164 11 17988916808170875087
341906 21 18272079509497052890
3472631 163 18341334418341967445
34797466 226 17487911201302379020
4214541 1 18412261740058850726
441001 317 18343018921547238224
474 4 17821729468039738474
5048184 11 18338238167617005337
5104073 3 18260543424993194298
633830 44 18187088377752335718
636775 72 17905611352812667836
7808743 9 18413107230104254401
9981440 41 18408885152545767619

>  <PUBCHEM_SHAPE_MULTIPOLES>  (1) 
368.07
11.07
2.52
0.95
8.6
0.51
0.1
5.24
-0.11
-2.74
0.02
0.22
0.14
-1.53

>  <PUBCHEM_SHAPE_SELFOVERLAP>  (1) 
795.951

>  <PUBCHEM_SHAPE_VOLUME>  (1) 
202.5

>  <PUBCHEM_COORDINATE_TYPE>  (1) 
2
5
10

$$$$
