9722
     RDKit          3D

 15 15  0  0  0  0  0  0  0  0999 V2000
    3.9526   -0.9452    1.0881 F   0  0  0  0  0  0  0  0  0  0  0  0
    5.0262    0.6191    0.0117 F   0  0  0  0  0  0  0  0  0  0  0  0
    3.9704   -0.9431   -1.0927 F   0  0  0  0  0  0  0  0  0  0  0  0
    1.5222   -0.1650   -0.0010 O   0  0  0  0  0  0  0  0  0  0  0  0
    0.1649    1.6757   -0.0014 O   0  0  0  0  0  0  0  0  0  0  0  0
   -0.7054   -0.5022    0.0003 N   0  0  0  0  0  0  0  0  0  0  0  0
   -2.0877   -0.3133    0.0008 C   0  0  0  0  0  0  0  0  0  0  0  0
    2.6680    0.6946   -0.0026 C   0  0  0  0  0  0  0  0  0  0  0  0
   -2.9427   -1.4154    0.0015 C   0  0  0  0  0  0  0  0  0  0  0  0
   -2.6147    0.9782   -0.0006 C   0  0  0  0  0  0  0  0  0  0  0  0
    3.9164   -0.1489   -0.0028 C   0  0  0  0  0  0  0  0  0  0  0  0
   -4.3247   -1.2261    0.0008 C   0  0  0  0  0  0  0  0  0  0  0  0
   -3.9967    1.1675   -0.0013 C   0  0  0  0  0  0  0  0  0  0  0  0
    0.3029    0.4585   -0.0005 C   0  0  0  0  0  0  0  0  0  0  0  0
   -4.8516    0.0655   -0.0005 C   0  0  0  0  0  0  0  0  0  0  0  0
  1 11  1  0
  2 11  1  0
  3 11  1  0
  4  8  1  0
  4 14  1  0
  5 14  2  0
  6  7  1  0
  6 14  1  0
  7  9  2  0
  7 10  1  0
  8 11  1  0
  9 12  1  0
 10 13  2  0
 12 15  2  0
 13 15  1  0
M  END
>  <PUBCHEM_COMPOUND_CID>  (1) 
9722

>  <PUBCHEM_CONFORMER_RMSD>  (1) 
0.6

>  <PUBCHEM_CONFORMER_DIVERSEORDER>  (1) 
1
17
28
14
30
2
18
16
5
23
19
25
8
9
27
4
24
29
3
26
20
15
11
6
22
7
10
21
12
13

>  <PUBCHEM_MMFF94_PARTIAL_CHARGES>  (1) 
21
1 -0.34
10 -0.15
11 1.02
12 -0.15
13 -0.15
14 0.78
15 -0.15
18 0.37
19 0.15
2 -0.34
20 0.15
21 0.15
22 0.15
23 0.15
3 -0.34
4 -0.43
5 -0.57
6 -0.55
7 0.12
8 0.28
9 -0.15

>  <PUBCHEM_EFFECTIVE_ROTOR_COUNT>  (1) 
5

>  <PUBCHEM_PHARMACOPHORE_FEATURES>  (1) 
3
1 5 acceptor
1 6 donor
6 7 9 10 12 13 15 rings

>  <PUBCHEM_HEAVY_ATOM_COUNT>  (1) 
15

>  <PUBCHEM_ATOM_DEF_STEREO_COUNT>  (1) 
0

>  <PUBCHEM_ATOM_UDEF_STEREO_COUNT>  (1) 
0

>  <PUBCHEM_BOND_DEF_STEREO_COUNT>  (1) 
0

>  <PUBCHEM_BOND_UDEF_STEREO_COUNT>  (1) 
0

>  <PUBCHEM_ISOTOPIC_ATOM_COUNT>  (1) 
0

>  <PUBCHEM_COMPONENT_COUNT>  (1) 
1

>  <PUBCHEM_CACTVS_TAUTO_COUNT>  (1) 
2

>  <PUBCHEM_CONFORMER_ID>  (1) 
000025FA00000001

>  <PUBCHEM_MMFF94_ENERGY>  (1) 
31.0417

>  <PUBCHEM_FEATURE_SELFOVERLAP>  (1) 
15.223

>  <PUBCHEM_SHAPE_FINGERPRINT>  (1) 
10465860 250 18131910459921191953
10680689 15 18259991461534317401
11401426 45 18411134744887881293
12032990 46 18342461443155409069
124424 183 18343300383945118913
13167823 11 18333729117512904762
13288520 33 18411702106210526615
13533116 47 15698008383529257054
13675066 3 17988922283916378541
14123238 8 18413107277148142020
14251718 22 18411140276942973580
14252887 29 17846505824626837926
15242433 33 18260548922334970066
17804303 29 18411701015188762457
17834072 33 18337112375153163796
18186145 218 17023181668992565892
1986462 14 18408323285260831029
200 152 17489585675938472197
20279233 1 17846787308082635639
20645477 70 17703796864773447246
21267235 1 18337117847384493451
22485316 2 18408319990804721458
22646028 1 18259981578413610242
2297311 6 18272101490897294845
2306618 200 18130795547200088745
23175994 123 17418379099431688521
23402539 116 18202275906181144549
23559900 14 18272647978399469152
300161 21 18186794790418788624
42 15 18410573989446418439
4214541 1 18410573976867750981
42788 4 18410856572714666980
5104073 3 18339926012739889313
542803 24 13470689265092756090
573450 72 18334566919845819251
77779 3 18410294726404349421
9981440 41 17106789856135521113

>  <PUBCHEM_SHAPE_MULTIPOLES>  (1) 
270.15
11.05
1.35
0.69
6.19
0.06
0
-1.37
0
-0.8
0
0.38
-0.11
0

>  <PUBCHEM_SHAPE_SELFOVERLAP>  (1) 
559.436

>  <PUBCHEM_SHAPE_VOLUME>  (1) 
153.9

>  <PUBCHEM_COORDINATE_TYPE>  (1) 
2
5
10

$$$$
