9723
     RDKit          3D

 20 21  0  0  0  0  0  0  0  0999 V2000
   -1.2774    3.2620   -0.6475 O   0  0  0  0  0  0  0  0  0  0  0  0
    1.2704    3.2650    0.6463 O   0  0  0  0  0  0  0  0  0  0  0  0
   -2.6774    1.1358    0.5183 N   0  0  0  0  0  0  0  0  0  0  0  0
    2.6748    1.1367   -0.5186 N   0  0  0  0  0  0  0  0  0  0  0  0
   -1.3315    1.2437    0.5424 N   0  0  0  0  0  0  0  0  0  0  0  0
    1.3275    1.2449   -0.5404 N   0  0  0  0  0  0  0  0  0  0  0  0
   -3.9755   -2.6218   -0.5197 C   0  0  0  0  0  0  0  0  0  0  0  0
    3.9823   -2.6176    0.5197 C   0  0  0  0  0  0  0  0  0  0  0  0
   -4.8686   -1.3835   -0.6170 C   0  0  0  0  0  0  0  0  0  0  0  0
   -2.4930   -2.2438   -0.5294 C   0  0  0  0  0  0  0  0  0  0  0  0
    4.8731   -1.3775    0.6145 C   0  0  0  0  0  0  0  0  0  0  0  0
    2.4990   -2.2427    0.5316 C   0  0  0  0  0  0  0  0  0  0  0  0
   -4.5736   -0.3860    0.4971 C   0  0  0  0  0  0  0  0  0  0  0  0
   -2.1521   -1.2617    0.5857 C   0  0  0  0  0  0  0  0  0  0  0  0
    4.5740   -0.3814   -0.4998 C   0  0  0  0  0  0  0  0  0  0  0  0
    2.1541   -1.2620   -0.5835 C   0  0  0  0  0  0  0  0  0  0  0  0
   -3.0964   -0.0867    0.5218 C   0  0  0  0  0  0  0  0  0  0  0  0
    3.0962   -0.0849   -0.5221 C   0  0  0  0  0  0  0  0  0  0  0  0
   -0.7490    2.3302   -0.0621 C   0  0  0  0  0  0  0  0  0  0  0  0
    0.7433    2.3313    0.0627 C   0  0  0  0  0  0  0  0  0  0  0  0
  1 19  2  0
  2 20  2  0
  3  5  1  0
  3 17  2  3
  4  6  1  0
  4 18  2  3
  5 19  1  0
  6 20  1  0
  7  9  1  0
  7 10  1  0
  8 11  1  0
  8 12  1  0
  9 13  1  0
 10 14  1  0
 11 15  1  0
 12 16  1  0
 13 17  1  0
 14 17  1  0
 15 18  1  0
 16 18  1  0
 19 20  1  0
M  END
>  <PUBCHEM_COMPOUND_CID>  (1) 
9723

>  <PUBCHEM_CONFORMER_RMSD>  (1) 
0.8

>  <PUBCHEM_CONFORMER_DIVERSEORDER>  (1) 
1
13
6
7
2
14
4
12
9
10
3
5
8
11

>  <PUBCHEM_MMFF94_PARTIAL_CHARGES>  (1) 
16
1 -0.57
13 0.06
14 0.06
15 0.06
16 0.06
17 0.33
18 0.33
19 0.63
2 -0.57
20 0.63
3 -0.51
4 -0.51
41 0.37
42 0.37
5 -0.37
6 -0.37

>  <PUBCHEM_EFFECTIVE_ROTOR_COUNT>  (1) 
7

>  <PUBCHEM_PHARMACOPHORE_FEATURES>  (1) 
8
1 1 acceptor
1 2 acceptor
1 3 acceptor
1 4 acceptor
1 5 donor
1 6 donor
6 7 9 10 13 14 17 rings
6 8 11 12 15 16 18 rings

>  <PUBCHEM_HEAVY_ATOM_COUNT>  (1) 
20

>  <PUBCHEM_ATOM_DEF_STEREO_COUNT>  (1) 
0

>  <PUBCHEM_ATOM_UDEF_STEREO_COUNT>  (1) 
0

>  <PUBCHEM_BOND_DEF_STEREO_COUNT>  (1) 
0

>  <PUBCHEM_BOND_UDEF_STEREO_COUNT>  (1) 
0

>  <PUBCHEM_ISOTOPIC_ATOM_COUNT>  (1) 
0

>  <PUBCHEM_COMPONENT_COUNT>  (1) 
1

>  <PUBCHEM_CACTVS_TAUTO_COUNT>  (1) 
3

>  <PUBCHEM_CONFORMER_ID>  (1) 
000025FB00000001

>  <PUBCHEM_MMFF94_ENERGY>  (1) 
40.3646

>  <PUBCHEM_FEATURE_SELFOVERLAP>  (1) 
40.609

>  <PUBCHEM_SHAPE_FINGERPRINT>  (1) 
12553582 1 18410586084074453895
12596599 1 17987821672766756586
12633257 1 18200609033193624385
13533116 47 18057042639360122683
13631057 29 18411421679416878212
13828863 39 16340857815996176154
138480 1 14879752547308257216
14081887 123 18196923393166273842
14787075 74 18339370764095709436
15352361 1 18410855464428728655
15537594 2 18265072325798131506
19141452 34 18268718220910438033
20291156 8 18410857659151579747
20403669 9 18412831274065463119
20621476 51 18267859484890923138
20621476 91 18266155319815046826
20645477 70 18118398686292572089
21250096 35 18411136939426492891
21673915 165 18410011001466344362
22113638 7 18341609386153464127
23559900 14 18269829981832389009
339767 52 18411408510203604075
3421961 26 18340204214640484665
4283 87 18340763870459686375
46194498 28 17242165984443917477
463206 1 18335989747848084939
556388 4 18196089065430395919
7064713 232 17775012245536179635

>  <PUBCHEM_SHAPE_MULTIPOLES>  (1) 
379.93
10.28
3.89
0.86
0.03
2.12
0
-8.23
0
-0.01
0
0
-0.1
-1.03

>  <PUBCHEM_SHAPE_SELFOVERLAP>  (1) 
771.841

>  <PUBCHEM_SHAPE_VOLUME>  (1) 
217.4

>  <PUBCHEM_COORDINATE_TYPE>  (1) 
2
5
10

$$$$
