9725
     RDKit          3D

 13 13  0  0  0  0  0  0  0  0999 V2000
   -0.2871   -0.8899    0.6010 O   0  0  0  0  0  0  0  0  0  0  0  0
    3.2373    0.0827   -0.1469 N   0  0  0  0  0  0  0  0  0  0  0  0
    2.0514   -0.8482    0.0607 C   0  0  0  0  0  0  0  0  0  0  0  0
    3.4520    0.9182    1.1069 C   0  0  0  0  0  0  0  0  0  0  0  0
    4.4857   -0.7412   -0.4275 C   0  0  0  0  0  0  0  0  0  0  0  0
    2.9602    1.0021   -1.3277 C   0  0  0  0  0  0  0  0  0  0  0  0
    0.8169   -0.0246    0.3704 C   0  0  0  0  0  0  0  0  0  0  0  0
   -1.5289   -0.4058    0.2821 C   0  0  0  0  0  0  0  0  0  0  0  0
   -1.7783    0.9590    0.3676 C   0  0  0  0  0  0  0  0  0  0  0  0
   -2.5265   -1.2853   -0.1223 C   0  0  0  0  0  0  0  0  0  0  0  0
   -3.0428    1.4511    0.0443 C   0  0  0  0  0  0  0  0  0  0  0  0
   -3.7909   -0.7932   -0.4459 C   0  0  0  0  0  0  0  0  0  0  0  0
   -4.0491    0.5750   -0.3627 C   0  0  0  0  0  0  0  0  0  0  0  0
  1  7  1  0
  1  8  1  0
  2  3  1  0
  2  4  1  0
  2  5  1  0
  2  6  1  0
  3  7  1  0
  8  9  2  0
  8 10  1  0
  9 11  1  0
 10 12  2  0
 11 13  2  0
 12 13  1  0
M  CHG  1   2   1
M  END
>  <PUBCHEM_COMPOUND_CID>  (1) 
9725

>  <PUBCHEM_CONFORMER_RMSD>  (1) 
0.6

>  <PUBCHEM_CONFORMER_DIVERSEORDER>  (1) 
2
6
9
3
8
1
5
12
11
10
4
7

>  <PUBCHEM_MMFF94_PARTIAL_CHARGES>  (1) 
18
1 -0.36
10 -0.15
11 -0.15
12 -0.15
13 -0.15
2 -1.01
27 0.15
28 0.15
29 0.15
3 0.5
30 0.15
31 0.15
4 0.5
5 0.5
6 0.5
7 0.28
8 0.08
9 -0.15

>  <PUBCHEM_EFFECTIVE_ROTOR_COUNT>  (1) 
4

>  <PUBCHEM_PHARMACOPHORE_FEATURES>  (1) 
3
1 1 acceptor
1 2 cation
6 8 9 10 11 12 13 rings

>  <PUBCHEM_HEAVY_ATOM_COUNT>  (1) 
13

>  <PUBCHEM_ATOM_DEF_STEREO_COUNT>  (1) 
0

>  <PUBCHEM_ATOM_UDEF_STEREO_COUNT>  (1) 
0

>  <PUBCHEM_BOND_DEF_STEREO_COUNT>  (1) 
0

>  <PUBCHEM_BOND_UDEF_STEREO_COUNT>  (1) 
0

>  <PUBCHEM_ISOTOPIC_ATOM_COUNT>  (1) 
0

>  <PUBCHEM_COMPONENT_COUNT>  (1) 
1

>  <PUBCHEM_CACTVS_TAUTO_COUNT>  (1) 
1

>  <PUBCHEM_CONFORMER_ID>  (1) 
000025FD00000002

>  <PUBCHEM_MMFF94_ENERGY>  (1) 
50.4149

>  <PUBCHEM_FEATURE_SELFOVERLAP>  (1) 
15.223

>  <PUBCHEM_SHAPE_FINGERPRINT>  (1) 
11132069 177 18334851723221983765
12162725 195 18259989288017043636
12173636 292 18340761547203762517
12932764 1 18131072653345784850
13296908 3 17632858641795848520
14252887 29 8574712425319091620
14445660 50 9007059075635581374
15239191 94 11600009842470218716
17802600 8 18333445448008424356
18186145 218 17022903471228668422
190213 19 18333730229882755158
19107657 162 8790880804548493937
19107657 47 15864063273812184164
1986462 14 18272934920837522071
200 152 16774076258710947267
20279233 1 17346600772382649974
20281407 28 12391515282299670347
20281475 54 12535627176088215324
20300324 65 18342737433875510183
20645477 56 18340771434250288497
20645477 70 17131838655440311814
20671657 53 17203612583746344384
20871999 31 18341316878228222183
21119208 17 18408605846563691086
22485316 2 17275382118443406862
23402539 116 18341606005950151446
23402655 69 18409449146238888764
23557571 272 18130793343095907741
23559900 14 18201715150702544010
3248919 1 17894914052805936650
4028521 119 18334850581124641101
449060 50 11963397344855573418
93112 12 18413672413419349470
9971528 1 18114179723201767028

>  <PUBCHEM_SHAPE_MULTIPOLES>  (1) 
256.68
9.07
1.36
0.94
2.79
0.11
-0.09
0.38
-1.41
-0.5
-0.02
0.7
0.2
-0.01

>  <PUBCHEM_SHAPE_SELFOVERLAP>  (1) 
509.099

>  <PUBCHEM_SHAPE_VOLUME>  (1) 
155.7

>  <PUBCHEM_COORDINATE_TYPE>  (1) 
2
5
10

$$$$
