9733
     RDKit          3D

  9  8  0  0  0  0  0  0  0  0999 V2000
    3.5335   -0.1412   -0.4712 F   0  0  0  0  0  0  0  0  0  0  0  0
    1.3206    1.3279   -0.3842 O   0  0  0  0  0  0  0  0  0  0  0  0
    0.1810   -0.3587    0.7420 N   0  0  0  0  0  0  0  0  0  0  0  0
   -2.0297    0.0446   -0.3354 C   0  0  0  0  0  0  0  0  0  0  0  0
   -1.1033    0.3237    0.8606 C   0  0  0  0  0  0  0  0  0  0  0  0
   -2.2609   -1.4631   -0.4688 C   0  0  0  0  0  0  0  0  0  0  0  0
   -3.3763    0.7628   -0.2156 C   0  0  0  0  0  0  0  0  0  0  0  0
    1.2729    0.2129    0.1281 C   0  0  0  0  0  0  0  0  0  0  0  0
    2.4621   -0.7089    0.1445 C   0  0  0  0  0  0  0  0  0  0  0  0
  1  9  1  0
  2  8  2  0
  3  5  1  0
  3  8  1  0
  4  5  1  0
  4  6  1  0
  4  7  1  0
  8  9  1  0
M  END
>  <PUBCHEM_COMPOUND_CID>  (1) 
9733

>  <PUBCHEM_CONFORMER_RMSD>  (1) 
0.6

>  <PUBCHEM_CONFORMER_DIVERSEORDER>  (1) 
1
4
6
5
2
3
7

>  <PUBCHEM_MMFF94_PARTIAL_CHARGES>  (1) 
7
1 -0.34
19 0.37
2 -0.57
3 -0.73
5 0.3
8 0.57
9 0.4

>  <PUBCHEM_EFFECTIVE_ROTOR_COUNT>  (1) 
4

>  <PUBCHEM_PHARMACOPHORE_FEATURES>  (1) 
3
1 2 acceptor
1 3 donor
3 4 6 7 hydrophobe

>  <PUBCHEM_HEAVY_ATOM_COUNT>  (1) 
9

>  <PUBCHEM_ATOM_DEF_STEREO_COUNT>  (1) 
0

>  <PUBCHEM_ATOM_UDEF_STEREO_COUNT>  (1) 
0

>  <PUBCHEM_BOND_DEF_STEREO_COUNT>  (1) 
0

>  <PUBCHEM_BOND_UDEF_STEREO_COUNT>  (1) 
0

>  <PUBCHEM_ISOTOPIC_ATOM_COUNT>  (1) 
0

>  <PUBCHEM_COMPONENT_COUNT>  (1) 
1

>  <PUBCHEM_CACTVS_TAUTO_COUNT>  (1) 
2

>  <PUBCHEM_CONFORMER_ID>  (1) 
0000260500000001

>  <PUBCHEM_MMFF94_ENERGY>  (1) 
4.4531

>  <PUBCHEM_FEATURE_SELFOVERLAP>  (1) 
15.223

>  <PUBCHEM_SHAPE_FINGERPRINT>  (1) 
10857977 72 11097862895350520639
11062470 55 16630803292331377129
12897270 3 18261384598448323135
12932764 1 17895181208372114857
14128692 85 18272088352576329994
14325111 11 18410009965751192650
14390081 3 16877657967935330109
15310529 11 18199748227163202093
20201158 50 17275105011617254503
20211469 26 12175617360997363861
20653085 51 18187087273507669657
21293036 1 17894917329902750602
23552423 10 18337103574738741907
29004967 10 13830136108665652994
3248919 1 16773525437813722169
9939556 21 18410854390939859061

>  <PUBCHEM_SHAPE_MULTIPOLES>  (1) 
167.09
5.33
1.17
0.8
1.13
0.19
-0.09
0.15
1.06
-0.46
0.16
-0.06
-0.02
-0.2

>  <PUBCHEM_SHAPE_SELFOVERLAP>  (1) 
305.117

>  <PUBCHEM_SHAPE_VOLUME>  (1) 
107

>  <PUBCHEM_COORDINATE_TYPE>  (1) 
2
5
10

$$$$
