9746
     RDKit          3D

  7  7  0  0  0  0  0  0  0  0999 V2000
    2.2983    0.0490    0.0001 F   0  0  0  0  0  0  0  0  0  0  0  0
    0.3623   -1.1963    0.0000 N   0  0  0  0  0  0  0  0  0  0  0  0
   -1.1231    1.1717    0.0000 C   0  0  0  0  0  0  0  0  0  0  0  0
    0.2665    1.2194    0.0000 C   0  0  0  0  0  0  0  0  0  0  0  0
   -1.7710   -0.0587    0.0001 C   0  0  0  0  0  0  0  0  0  0  0  0
    0.9567    0.0180    0.0000 C   0  0  0  0  0  0  0  0  0  0  0  0
   -0.9897   -1.2030    0.0000 C   0  0  0  0  0  0  0  0  0  0  0  0
  1  6  1  0
  2  6  2  0
  2  7  1  0
  3  4  2  0
  3  5  1  0
  4  6  1  0
  5  7  2  0
M  END
>  <PUBCHEM_COMPOUND_CID>  (1) 
9746

>  <PUBCHEM_CONFORMER_RMSD>  (1) 
0.4

>  <PUBCHEM_CONFORMER_DIVERSEORDER>  (1) 
1

>  <PUBCHEM_MMFF94_PARTIAL_CHARGES>  (1) 
11
1 -0.19
10 0.15
11 0.15
2 -0.62
3 -0.15
4 -0.15
5 -0.15
6 0.5
7 0.16
8 0.15
9 0.15

>  <PUBCHEM_EFFECTIVE_ROTOR_COUNT>  (1) 
0

>  <PUBCHEM_PHARMACOPHORE_FEATURES>  (1) 
2
1 2 acceptor
6 2 3 4 5 6 7 rings

>  <PUBCHEM_HEAVY_ATOM_COUNT>  (1) 
7

>  <PUBCHEM_ATOM_DEF_STEREO_COUNT>  (1) 
0

>  <PUBCHEM_ATOM_UDEF_STEREO_COUNT>  (1) 
0

>  <PUBCHEM_BOND_DEF_STEREO_COUNT>  (1) 
0

>  <PUBCHEM_BOND_UDEF_STEREO_COUNT>  (1) 
0

>  <PUBCHEM_ISOTOPIC_ATOM_COUNT>  (1) 
0

>  <PUBCHEM_COMPONENT_COUNT>  (1) 
1

>  <PUBCHEM_CACTVS_TAUTO_COUNT>  (1) 
1

>  <PUBCHEM_CONFORMER_ID>  (1) 
0000261200000001

>  <PUBCHEM_MMFF94_ENERGY>  (1) 
13.2899

>  <PUBCHEM_FEATURE_SELFOVERLAP>  (1) 
10.148

>  <PUBCHEM_SHAPE_FINGERPRINT>  (1) 
16714656 1 18410580586653374212
20096714 4 18122908624953775377
21040471 1 18266740173326275269
23552423 10 18260555485235077854
29004967 10 18187656803203100713

>  <PUBCHEM_SHAPE_MULTIPOLES>  (1) 
131.8
2.11
1.43
0.59
0.64
0.02
0
-0.03
0
-0.27
0
-0.04
0.02
0

>  <PUBCHEM_SHAPE_SELFOVERLAP>  (1) 
272.238

>  <PUBCHEM_SHAPE_VOLUME>  (1) 
75.6

>  <PUBCHEM_COORDINATE_TYPE>  (1) 
2
5
10

$$$$
