9749
     RDKit          3D

 11 10  0  0  0  0  0  0  0  0999 V2000
    3.6312    1.0935   -0.2309 F   0  0  0  0  0  0  0  0  0  0  0  0
   -1.4153    0.3810    0.1721 O   0  0  0  0  0  0  0  0  0  0  0  0
   -2.5482   -1.5479   -0.3659 O   0  0  0  0  0  0  0  0  0  0  0  0
    1.7595   -0.4762   -1.2776 O   0  0  0  0  0  0  0  0  0  0  0  0
    0.7864   -0.8384    0.8079 N   0  0  0  0  0  0  0  0  0  0  0  0
   -0.2757   -1.7068    0.3888 C   0  0  0  0  0  0  0  0  0  0  0  0
   -1.5403   -0.9662    0.0217 C   0  0  0  0  0  0  0  0  0  0  0  0
   -2.5743    1.1537   -0.1578 C   0  0  0  0  0  0  0  0  0  0  0  0
    1.7213   -0.2919   -0.0641 C   0  0  0  0  0  0  0  0  0  0  0  0
   -2.2689    2.6198    0.0631 C   0  0  0  0  0  0  0  0  0  0  0  0
    2.7243    0.5794    0.6424 C   0  0  0  0  0  0  0  0  0  0  0  0
  1 11  1  0
  2  7  1  0
  2  8  1  0
  3  7  2  0
  4  9  2  0
  5  6  1  0
  5  9  1  0
  6  7  1  0
  8 10  1  0
  9 11  1  0
M  END
>  <PUBCHEM_COMPOUND_CID>  (1) 
9749

>  <PUBCHEM_CONFORMER_RMSD>  (1) 
0.6

>  <PUBCHEM_CONFORMER_DIVERSEORDER>  (1) 
2
65
176
89
189
33
26
191
110
137
74
156
34
164
103
170
36
172
102
190
131
124
72
63
173
107
174
47
14
122
4
57
119
78
179
92
49
112
114
127
182
165
3
43
150
32
79
16
155
52
109
60
7
48
181
152
1
21
12
108
54
104
23
31
70
168
18
161
178
53
134
111
75
99
6
27
95
113
141
25
30
132
159
128
139
117
116
140
175
37
24
187
93
8
77
17
19
45
98
163
143
69
123
153
80
87
83
183
144
55
154
11
129
147
146
167
88
177
100
76
148
38
184
51
105
171
115
61
135
96
158
64
68
86
29
118
15
5
59
46
125
40
82
39
62
56
66
121
94
157
169
97
85
44
133
13
166
185
28
10
151
136
67
101
91
58
84
71
106
9
142
186
149
130
126
145
120
81
162
20
50
138
41
188
90
42
35
73
22
160
180

>  <PUBCHEM_MMFF94_PARTIAL_CHARGES>  (1) 
11
1 -0.34
11 0.4
14 0.37
2 -0.43
3 -0.57
4 -0.57
5 -0.73
6 0.36
7 0.66
8 0.28
9 0.57

>  <PUBCHEM_EFFECTIVE_ROTOR_COUNT>  (1) 
6

>  <PUBCHEM_PHARMACOPHORE_FEATURES>  (1) 
3
1 3 acceptor
1 4 acceptor
1 5 donor

>  <PUBCHEM_HEAVY_ATOM_COUNT>  (1) 
11

>  <PUBCHEM_ATOM_DEF_STEREO_COUNT>  (1) 
0

>  <PUBCHEM_ATOM_UDEF_STEREO_COUNT>  (1) 
0

>  <PUBCHEM_BOND_DEF_STEREO_COUNT>  (1) 
0

>  <PUBCHEM_BOND_UDEF_STEREO_COUNT>  (1) 
0

>  <PUBCHEM_ISOTOPIC_ATOM_COUNT>  (1) 
0

>  <PUBCHEM_COMPONENT_COUNT>  (1) 
1

>  <PUBCHEM_CACTVS_TAUTO_COUNT>  (1) 
2

>  <PUBCHEM_CONFORMER_ID>  (1) 
0000261500000002

>  <PUBCHEM_MMFF94_ENERGY>  (1) 
8.2594

>  <PUBCHEM_FEATURE_SELFOVERLAP>  (1) 
15.223

>  <PUBCHEM_SHAPE_FINGERPRINT>  (1) 
100427 49 17905893935108854811
10149128 76 18267299820602937209
12932764 1 17774999141622607834
13839132 238 18412266112330257500
14390081 3 18338515235999572121
15775835 57 18261111829122564064
18342897 96 18413384328340244957
19837323 101 18408612452360769875
19973954 147 18411983580717855696
20653085 51 18338808801108800146
20671657 1 17976540516136058675
21040471 1 18195240010572777299
21524375 3 18192989327365978603
22802520 49 18057620784058647814
23402539 116 18196922477689932215
23557571 272 18200882888745462295
305870 269 18115021905499899410

>  <PUBCHEM_SHAPE_MULTIPOLES>  (1) 
196.51
4.96
2.2
0.82
1.99
0.66
-0.09
2.75
-0.33
-1.77
0.1
0.35
-0.08
-0.08

>  <PUBCHEM_SHAPE_SELFOVERLAP>  (1) 
369.677

>  <PUBCHEM_SHAPE_VOLUME>  (1) 
121.3

>  <PUBCHEM_COORDINATE_TYPE>  (1) 
2
5
10

$$$$
