9754
     RDKit          3D

  6  5  0  0  0  0  0  0  0  0999 V2000
    3.3300   -0.6317    0.1360 I   0  0  0  0  0  0  0  0  0  0  0  0
   -2.3173   -0.9808   -0.2942 F   0  0  0  0  0  0  0  0  0  0  0  0
    0.3533   -0.0398    0.1958 C   0  0  0  0  0  0  0  0  0  0  0  0
   -0.8583    0.8486   -0.0953 C   0  0  0  0  0  0  0  0  0  0  0  0
    1.6439    0.6067   -0.3061 C   0  0  0  0  0  0  0  0  0  0  0  0
   -2.1515    0.1971    0.3637 C   0  0  0  0  0  0  0  0  0  0  0  0
  1  5  1  0
  2  6  1  0
  3  4  1  0
  3  5  1  0
  4  6  1  0
M  END
>  <PUBCHEM_COMPOUND_CID>  (1) 
9754

>  <PUBCHEM_CONFORMER_RMSD>  (1) 
0.4

>  <PUBCHEM_CONFORMER_DIVERSEORDER>  (1) 
2
21
15
20
3
9
1
14
16
18
6
19
4
17
7
11
5
10
13
8
12

>  <PUBCHEM_MMFF94_PARTIAL_CHARGES>  (1) 
4
1 -0.19
2 -0.34
5 0.19
6 0.34

>  <PUBCHEM_EFFECTIVE_ROTOR_COUNT>  (1) 
3

>  <PUBCHEM_PHARMACOPHORE_FEATURES>  (1) 
1
1 1 hydrophobe

>  <PUBCHEM_HEAVY_ATOM_COUNT>  (1) 
6

>  <PUBCHEM_ATOM_DEF_STEREO_COUNT>  (1) 
0

>  <PUBCHEM_ATOM_UDEF_STEREO_COUNT>  (1) 
0

>  <PUBCHEM_BOND_DEF_STEREO_COUNT>  (1) 
0

>  <PUBCHEM_BOND_UDEF_STEREO_COUNT>  (1) 
0

>  <PUBCHEM_ISOTOPIC_ATOM_COUNT>  (1) 
0

>  <PUBCHEM_COMPONENT_COUNT>  (1) 
1

>  <PUBCHEM_CACTVS_TAUTO_COUNT>  (1) 
1

>  <PUBCHEM_CONFORMER_ID>  (1) 
0000261A00000002

>  <PUBCHEM_MMFF94_ENERGY>  (1) 
0.3609

>  <PUBCHEM_FEATURE_SELFOVERLAP>  (1) 
5.074

>  <PUBCHEM_SHAPE_FINGERPRINT>  (1) 
14325111 11 18410575072258244448
20651381 32 14779542358058269242
21293036 1 15068631495498321210
29004967 10 16343709828482836128
5460574 1 10015578402889476192

>  <PUBCHEM_SHAPE_MULTIPOLES>  (1) 
128.14
5.17
1.02
0.71
2.02
0.06
-0.03
1.41
-0.15
-0.07
0.07
0.13
0.02
-0.18

>  <PUBCHEM_SHAPE_SELFOVERLAP>  (1) 
202.61

>  <PUBCHEM_SHAPE_VOLUME>  (1) 
92.7

>  <PUBCHEM_COORDINATE_TYPE>  (1) 
2
5
10

$$$$
