9758
     RDKit          3D

  9  8  0  0  0  0  0  0  0  0999 V2000
    3.7490   -0.8539    0.5707 F   0  0  0  0  0  0  0  0  0  0  0  0
   -1.3060   -0.4587   -0.1369 O   0  0  0  0  0  0  0  0  0  0  0  0
   -2.8975    1.1524    0.3196 O   0  0  0  0  0  0  0  0  0  0  0  0
    1.0691   -0.1713   -0.2404 C   0  0  0  0  0  0  0  0  0  0  0  0
    2.2304    0.8094   -0.0935 C   0  0  0  0  0  0  0  0  0  0  0  0
   -0.2726    0.5070   -0.0014 C   0  0  0  0  0  0  0  0  0  0  0  0
    3.5671    0.1334   -0.3459 C   0  0  0  0  0  0  0  0  0  0  0  0
   -2.5803    0.0017    0.0506 C   0  0  0  0  0  0  0  0  0  0  0  0
   -3.5592   -1.1199   -0.1228 C   0  0  0  0  0  0  0  0  0  0  0  0
  1  7  1  0
  2  6  1  0
  2  8  1  0
  3  8  2  0
  4  5  1  0
  4  6  1  0
  5  7  1  0
  8  9  1  0
M  END
>  <PUBCHEM_COMPOUND_CID>  (1) 
9758

>  <PUBCHEM_CONFORMER_RMSD>  (1) 
0.6

>  <PUBCHEM_CONFORMER_DIVERSEORDER>  (1) 
1
35
33
49
61
51
75
16
81
53
42
14
47
82
13
36
66
85
37
62
78
10
69
3
84
64
48
57
76
17
95
30
9
6
4
22
12
55
20
58
38
29
83
11
50
24
8
41
59
93
31
5
43
54
77
25
26
92
60
96
18
7
40
90
91
65
15
73
71
45
72
32
94
79
52
27
63
68
88
56
70
28
80
89
87
34
39
86
74
2
46
44
67
23
21
19

>  <PUBCHEM_MMFF94_PARTIAL_CHARGES>  (1) 
7
1 -0.34
2 -0.43
3 -0.57
6 0.28
7 0.34
8 0.66
9 0.06

>  <PUBCHEM_EFFECTIVE_ROTOR_COUNT>  (1) 
5

>  <PUBCHEM_PHARMACOPHORE_FEATURES>  (1) 
1
1 3 acceptor

>  <PUBCHEM_HEAVY_ATOM_COUNT>  (1) 
9

>  <PUBCHEM_ATOM_DEF_STEREO_COUNT>  (1) 
0

>  <PUBCHEM_ATOM_UDEF_STEREO_COUNT>  (1) 
0

>  <PUBCHEM_BOND_DEF_STEREO_COUNT>  (1) 
0

>  <PUBCHEM_BOND_UDEF_STEREO_COUNT>  (1) 
0

>  <PUBCHEM_ISOTOPIC_ATOM_COUNT>  (1) 
0

>  <PUBCHEM_COMPONENT_COUNT>  (1) 
1

>  <PUBCHEM_CACTVS_TAUTO_COUNT>  (1) 
1

>  <PUBCHEM_CONFORMER_ID>  (1) 
0000261E00000001

>  <PUBCHEM_MMFF94_ENERGY>  (1) 
3.9226

>  <PUBCHEM_FEATURE_SELFOVERLAP>  (1) 
5.074

>  <PUBCHEM_SHAPE_FINGERPRINT>  (1) 
11062470 55 18344148090003431188
12932764 1 16486970695802351133
14325111 11 18411139151461043004
177051 138 18413389843331531910
18342897 69 18271806873499947799
190213 19 17313385651351941132
20211469 26 18335697273813147703
20645477 70 13984923122446842776
22485316 2 18333445456566352998
23402539 116 18202274793847970437

>  <PUBCHEM_SHAPE_MULTIPOLES>  (1) 
166.2
7.35
1.04
0.64
1.45
0.03
-0.01
-1.4
0.29
-0.43
0.06
0.14
-0.02
-0.34

>  <PUBCHEM_SHAPE_SELFOVERLAP>  (1) 
302.098

>  <PUBCHEM_SHAPE_VOLUME>  (1) 
106.1

>  <PUBCHEM_COORDINATE_TYPE>  (1) 
2
5
10

$$$$
