976
     RDKit          3D

  8  7  0  0  0  0  0  0  0  0999 V2000
   -0.1287    1.5170    0.0839 O   0  0  0  0  0  0  0  0  0  0  0  0
   -2.5093    0.7279   -0.1743 O   0  0  0  0  0  0  0  0  0  0  0  0
   -1.8350   -1.4600   -0.0272 O   0  0  0  0  0  0  0  0  0  0  0  0
    0.8938   -0.7005    0.2098 C   0  0  0  0  0  0  0  0  0  0  0  0
   -0.2344    0.2993    0.0858 C   0  0  0  0  0  0  0  0  0  0  0  0
    2.2018    0.0091    0.3648 C   0  0  0  0  0  0  0  0  0  0  0  0
   -1.6188   -0.2656   -0.0631 C   0  0  0  0  0  0  0  0  0  0  0  0
    3.2305   -0.1272   -0.4796 C   0  0  0  0  0  0  0  0  0  0  0  0
  1  5  2  0
  2  7  1  0
  3  7  2  0
  4  5  1  0
  4  6  1  0
  5  7  1  0
  6  8  2  0
M  END
>  <PUBCHEM_COMPOUND_CID>  (1) 
976

>  <PUBCHEM_CONFORMER_RMSD>  (1) 
0.6

>  <PUBCHEM_CONFORMER_DIVERSEORDER>  (1) 
1
3
4
2

>  <PUBCHEM_MMFF94_PARTIAL_CHARGES>  (1) 
12
1 -0.57
11 0.15
12 0.15
13 0.15
14 0.5
2 -0.65
3 -0.57
4 0.2
5 0.51
6 -0.29
7 0.72
8 -0.3

>  <PUBCHEM_EFFECTIVE_ROTOR_COUNT>  (1) 
3

>  <PUBCHEM_PHARMACOPHORE_FEATURES>  (1) 
5
1 1 acceptor
1 2 acceptor
1 3 acceptor
1 8 hydrophobe
3 2 3 7 anion

>  <PUBCHEM_HEAVY_ATOM_COUNT>  (1) 
8

>  <PUBCHEM_ATOM_DEF_STEREO_COUNT>  (1) 
0

>  <PUBCHEM_ATOM_UDEF_STEREO_COUNT>  (1) 
0

>  <PUBCHEM_BOND_DEF_STEREO_COUNT>  (1) 
0

>  <PUBCHEM_BOND_UDEF_STEREO_COUNT>  (1) 
0

>  <PUBCHEM_ISOTOPIC_ATOM_COUNT>  (1) 
0

>  <PUBCHEM_COMPONENT_COUNT>  (1) 
1

>  <PUBCHEM_CACTVS_TAUTO_COUNT>  (1) 
3

>  <PUBCHEM_CONFORMER_ID>  (1) 
000003D000000001

>  <PUBCHEM_MMFF94_ENERGY>  (1) 
7.6783

>  <PUBCHEM_FEATURE_SELFOVERLAP>  (1) 
25.441

>  <PUBCHEM_SHAPE_FINGERPRINT>  (1) 
10857977 72 18269542983289865210
12897270 3 18412265021577395214
12932741 1 17917701426991189728
12932764 1 17531239552580041404
14128692 85 18266182918525693478
14325111 11 18408886243920335202
14390081 3 18410851058024242216
15310529 11 16660638518833953353
16714656 1 18411981334275756662
21040471 1 18266170630666548513
23552423 10 18260829353608098076
29004967 10 16774081778118469018
369184 2 12829490354714578684
5460574 1 10159697997385467466

>  <PUBCHEM_SHAPE_MULTIPOLES>  (1) 
147.03
4.14
1.17
0.64
1.81
0.04
0
-0.25
-0.57
-0.55
0.01
0.19
-0.01
0.02

>  <PUBCHEM_SHAPE_SELFOVERLAP>  (1) 
279.918

>  <PUBCHEM_SHAPE_VOLUME>  (1) 
89.5

>  <PUBCHEM_COORDINATE_TYPE>  (1) 
2
5
10

$$$$
