9762
     RDKit          3D

  7  6  0  0  0  0  0  0  0  0999 V2000
    2.7422   -1.0405   -0.3281 F   0  0  0  0  0  0  0  0  0  0  0  0
    0.1082    0.0190    0.1785 C   0  0  0  0  0  0  0  0  0  0  0  0
    1.3730    0.8477   -0.0537 C   0  0  0  0  0  0  0  0  0  0  0  0
   -1.1384    0.7583   -0.3078 C   0  0  0  0  0  0  0  0  0  0  0  0
    2.6185    0.1035    0.3960 C   0  0  0  0  0  0  0  0  0  0  0  0
   -2.3542   -0.0251   -0.0479 C   0  0  0  0  0  0  0  0  0  0  0  0
   -3.3492   -0.6629    0.1630 C   0  0  0  0  0  0  0  0  0  0  0  0
  1  5  1  0
  2  3  1  0
  2  4  1  0
  3  5  1  0
  4  6  1  0
  6  7  3  0
M  END
>  <PUBCHEM_COMPOUND_CID>  (1) 
9762

>  <PUBCHEM_CONFORMER_RMSD>  (1) 
0.4

>  <PUBCHEM_CONFORMER_DIVERSEORDER>  (1) 
1
22
20
21
19
2
18
3
16
10
15
12
4
11
8
13
17
14
9
5
7
6

>  <PUBCHEM_MMFF94_PARTIAL_CHARGES>  (1) 
6
1 -0.34
16 0.18
4 0.2
5 0.34
6 -0.2
7 -0.18

>  <PUBCHEM_EFFECTIVE_ROTOR_COUNT>  (1) 
3

>  <PUBCHEM_PHARMACOPHORE_FEATURES>  (1) 
2
1 7 hydrophobe
4 2 3 4 6 hydrophobe

>  <PUBCHEM_HEAVY_ATOM_COUNT>  (1) 
7

>  <PUBCHEM_ATOM_DEF_STEREO_COUNT>  (1) 
0

>  <PUBCHEM_ATOM_UDEF_STEREO_COUNT>  (1) 
0

>  <PUBCHEM_BOND_DEF_STEREO_COUNT>  (1) 
0

>  <PUBCHEM_BOND_UDEF_STEREO_COUNT>  (1) 
0

>  <PUBCHEM_ISOTOPIC_ATOM_COUNT>  (1) 
0

>  <PUBCHEM_COMPONENT_COUNT>  (1) 
1

>  <PUBCHEM_CACTVS_TAUTO_COUNT>  (1) 
1

>  <PUBCHEM_CONFORMER_ID>  (1) 
0000262200000001

>  <PUBCHEM_MMFF94_ENERGY>  (1) 
0.0204

>  <PUBCHEM_FEATURE_SELFOVERLAP>  (1) 
10.149

>  <PUBCHEM_SHAPE_FINGERPRINT>  (1) 
12932764 1 17131824382878988264
14325111 11 18410573998210543289
14390081 3 9295289439065733079
21293036 1 15357985585170556591
29004967 10 18272930522717300904
5460574 1 10231759997838424937

>  <PUBCHEM_SHAPE_MULTIPOLES>  (1) 
136.78
5.35
0.96
0.66
0.96
0.01
0.02
1.57
0.18
-0.2
-0.07
-0.05
0
0.2

>  <PUBCHEM_SHAPE_SELFOVERLAP>  (1) 
242.779

>  <PUBCHEM_SHAPE_VOLUME>  (1) 
88.5

>  <PUBCHEM_COORDINATE_TYPE>  (1) 
2
5
10

$$$$
