9763
     RDKit          3D

  7  6  0  0  0  0  0  0  0  0999 V2000
   -2.7317    0.9364   -0.2928 F   0  0  0  0  0  0  0  0  0  0  0  0
   -0.1811    0.0365    0.2324 O   0  0  0  0  0  0  0  0  0  0  0  0
    3.4331    0.0477   -0.1505 O   0  0  0  0  0  0  0  0  0  0  0  0
    1.0899   -0.4416   -0.1911 C   0  0  0  0  0  0  0  0  0  0  0  0
   -1.2253   -0.8434   -0.1601 C   0  0  0  0  0  0  0  0  0  0  0  0
    2.1602    0.5359    0.2553 C   0  0  0  0  0  0  0  0  0  0  0  0
   -2.5452   -0.2715    0.3067 C   0  0  0  0  0  0  0  0  0  0  0  0
  1  7  1  0
  2  4  1  0
  2  5  1  0
  3  6  1  0
  4  6  1  0
  5  7  1  0
M  END
>  <PUBCHEM_COMPOUND_CID>  (1) 
9763

>  <PUBCHEM_CONFORMER_RMSD>  (1) 
0.6

>  <PUBCHEM_CONFORMER_DIVERSEORDER>  (1) 
2
28
29
25
1
4
27
8
30
7
17
20
24
13
19
26
15
3
12
23
9
18
16
5
14
6
11
21
10
22

>  <PUBCHEM_MMFF94_PARTIAL_CHARGES>  (1) 
8
1 -0.34
16 0.4
2 -0.56
3 -0.68
4 0.28
5 0.28
6 0.28
7 0.34

>  <PUBCHEM_EFFECTIVE_ROTOR_COUNT>  (1) 
4

>  <PUBCHEM_PHARMACOPHORE_FEATURES>  (1) 
3
1 2 acceptor
1 3 acceptor
1 3 donor

>  <PUBCHEM_HEAVY_ATOM_COUNT>  (1) 
7

>  <PUBCHEM_ATOM_DEF_STEREO_COUNT>  (1) 
0

>  <PUBCHEM_ATOM_UDEF_STEREO_COUNT>  (1) 
0

>  <PUBCHEM_BOND_DEF_STEREO_COUNT>  (1) 
0

>  <PUBCHEM_BOND_UDEF_STEREO_COUNT>  (1) 
0

>  <PUBCHEM_ISOTOPIC_ATOM_COUNT>  (1) 
0

>  <PUBCHEM_COMPONENT_COUNT>  (1) 
1

>  <PUBCHEM_CACTVS_TAUTO_COUNT>  (1) 
1

>  <PUBCHEM_CONFORMER_ID>  (1) 
0000262300000002

>  <PUBCHEM_MMFF94_ENERGY>  (1) 
5.7995

>  <PUBCHEM_FEATURE_SELFOVERLAP>  (1) 
15.223

>  <PUBCHEM_SHAPE_FINGERPRINT>  (1) 
11062470 55 13542468661018919322
14325111 11 18410856581367983066
14390081 3 18341890801026388921
20651381 32 18060421279114089958
29004967 10 12468632824579906430
5460574 1 9151179748347594994

>  <PUBCHEM_SHAPE_MULTIPOLES>  (1) 
125.04
5.04
0.87
0.62
1.44
0.01
0.02
0.8
-0.09
-0.31
-0.05
-0.06
0
0.17

>  <PUBCHEM_SHAPE_SELFOVERLAP>  (1) 
218.248

>  <PUBCHEM_SHAPE_VOLUME>  (1) 
82.7

>  <PUBCHEM_COORDINATE_TYPE>  (1) 
2
5
10

$$$$
