9767
     RDKit          3D

  8  7  0  0  0  0  0  0  0  0999 V2000
   -3.4980    0.8236   -0.4111 F   0  0  0  0  0  0  0  0  0  0  0  0
    4.1016   -0.2620   -0.2525 N   0  0  0  0  0  0  0  0  0  0  0  0
   -0.8008    0.1622    0.3085 C   0  0  0  0  0  0  0  0  0  0  0  0
    0.5990   -0.3335   -0.0710 C   0  0  0  0  0  0  0  0  0  0  0  0
   -1.8757   -0.8465   -0.1023 C   0  0  0  0  0  0  0  0  0  0  0  0
    1.7014    0.6602    0.2982 C   0  0  0  0  0  0  0  0  0  0  0  0
   -3.2694   -0.3477    0.2396 C   0  0  0  0  0  0  0  0  0  0  0  0
    3.0420    0.1437   -0.0095 C   0  0  0  0  0  0  0  0  0  0  0  0
  1  7  1  0
  2  8  3  0
  3  4  1  0
  3  5  1  0
  4  6  1  0
  5  7  1  0
  6  8  1  0
M  END
>  <PUBCHEM_COMPOUND_CID>  (1) 
9767

>  <PUBCHEM_CONFORMER_RMSD>  (1) 
0.6

>  <PUBCHEM_CONFORMER_DIVERSEORDER>  (1) 
1
33
13
11
27
6
31
9
29
26
24
32
8
14
30
25
4
7
28
2
20
21
15
18
17
12
10
5
22
23
3
19
16

>  <PUBCHEM_MMFF94_PARTIAL_CHARGES>  (1) 
5
1 -0.34
2 -0.56
6 0.2
7 0.34
8 0.36

>  <PUBCHEM_EFFECTIVE_ROTOR_COUNT>  (1) 
4

>  <PUBCHEM_PHARMACOPHORE_FEATURES>  (1) 
2
1 2 acceptor
4 3 4 5 6 hydrophobe

>  <PUBCHEM_HEAVY_ATOM_COUNT>  (1) 
8

>  <PUBCHEM_ATOM_DEF_STEREO_COUNT>  (1) 
0

>  <PUBCHEM_ATOM_UDEF_STEREO_COUNT>  (1) 
0

>  <PUBCHEM_BOND_DEF_STEREO_COUNT>  (1) 
0

>  <PUBCHEM_BOND_UDEF_STEREO_COUNT>  (1) 
0

>  <PUBCHEM_ISOTOPIC_ATOM_COUNT>  (1) 
0

>  <PUBCHEM_COMPONENT_COUNT>  (1) 
1

>  <PUBCHEM_CACTVS_TAUTO_COUNT>  (1) 
1

>  <PUBCHEM_CONFORMER_ID>  (1) 
0000262700000001

>  <PUBCHEM_MMFF94_ENERGY>  (1) 
-0.1094

>  <PUBCHEM_FEATURE_SELFOVERLAP>  (1) 
10.148

>  <PUBCHEM_SHAPE_FINGERPRINT>  (1) 
11062470 55 18410856568456538506
12932764 1 15791999138581125962
14325111 11 18340205288360936690
14390081 3 18410849980214219825
20719005 15 18411982477085366427
3248919 1 15410626933422515430

>  <PUBCHEM_SHAPE_MULTIPOLES>  (1) 
152.38
7.08
0.85
0.65
1.53
0.01
0.02
0.03
-0.6
-0.26
-0.02
-0.08
0.02
0.22

>  <PUBCHEM_SHAPE_SELFOVERLAP>  (1) 
271.741

>  <PUBCHEM_SHAPE_VOLUME>  (1) 
96.8

>  <PUBCHEM_COORDINATE_TYPE>  (1) 
2
5
10

$$$$
