9768
     RDKit          3D

  8  7  0  0  0  0  0  0  0  0999 V2000
    3.4044    1.0309   -0.3353 F   0  0  0  0  0  0  0  0  0  0  0  0
   -4.1311    0.5331    0.0937 O   0  0  0  0  0  0  0  0  0  0  0  0
   -0.5345   -0.5937   -0.1680 C   0  0  0  0  0  0  0  0  0  0  0  0
    0.7799    0.0458    0.2842 C   0  0  0  0  0  0  0  0  0  0  0  0
   -1.7348    0.2829    0.2012 C   0  0  0  0  0  0  0  0  0  0  0  0
    1.9796   -0.8108   -0.1127 C   0  0  0  0  0  0  0  0  0  0  0  0
   -3.0543   -0.3218   -0.2628 C   0  0  0  0  0  0  0  0  0  0  0  0
    3.2908   -0.1664    0.2998 C   0  0  0  0  0  0  0  0  0  0  0  0
  1  8  1  0
  2  7  1  0
  3  4  1  0
  3  5  1  0
  4  6  1  0
  5  7  1  0
  6  8  1  0
M  END
>  <PUBCHEM_COMPOUND_CID>  (1) 
9768

>  <PUBCHEM_CONFORMER_RMSD>  (1) 
0.6

>  <PUBCHEM_CONFORMER_DIVERSEORDER>  (1) 
2
45
81
71
60
55
77
1
28
12
73
21
56
72
36
7
59
74
17
58
57
82
79
20
76
10
24
30
80
35
78
39
32
5
69
33
48
63
25
27
70
19
49
4
31
61
9
15
51
8
62
16
43
11
75
23
22
50
66
14
46
13
68
64
54
41
18
65
34
6
38
44
42
67
40
47
29
37
3
26
52
53

>  <PUBCHEM_MMFF94_PARTIAL_CHARGES>  (1) 
5
1 -0.34
2 -0.68
21 0.4
7 0.28
8 0.34

>  <PUBCHEM_EFFECTIVE_ROTOR_COUNT>  (1) 
5

>  <PUBCHEM_PHARMACOPHORE_FEATURES>  (1) 
3
1 2 acceptor
1 2 donor
4 3 4 5 6 hydrophobe

>  <PUBCHEM_HEAVY_ATOM_COUNT>  (1) 
8

>  <PUBCHEM_ATOM_DEF_STEREO_COUNT>  (1) 
0

>  <PUBCHEM_ATOM_UDEF_STEREO_COUNT>  (1) 
0

>  <PUBCHEM_BOND_DEF_STEREO_COUNT>  (1) 
0

>  <PUBCHEM_BOND_UDEF_STEREO_COUNT>  (1) 
0

>  <PUBCHEM_ISOTOPIC_ATOM_COUNT>  (1) 
0

>  <PUBCHEM_COMPONENT_COUNT>  (1) 
1

>  <PUBCHEM_CACTVS_TAUTO_COUNT>  (1) 
1

>  <PUBCHEM_CONFORMER_ID>  (1) 
0000262800000002

>  <PUBCHEM_MMFF94_ENERGY>  (1) 
-0.1678

>  <PUBCHEM_FEATURE_SELFOVERLAP>  (1) 
15.223

>  <PUBCHEM_SHAPE_FINGERPRINT>  (1) 
11062470 55 18335420162317396779
12932764 1 16128363844663802147
14325111 11 18411699880942921383
14390081 3 18261109668827613756
190213 19 16988844985913928794
20719005 15 18410573989768353723
21293036 1 16630807729122180154
5460574 1 10953459621905610922

>  <PUBCHEM_SHAPE_MULTIPOLES>  (1) 
151.49
7.07
0.87
0.64
2
0
-0.01
1.33
0.18
-0.31
0.05
-0.07
0
-0.2

>  <PUBCHEM_SHAPE_SELFOVERLAP>  (1) 
265.057

>  <PUBCHEM_SHAPE_VOLUME>  (1) 
99.9

>  <PUBCHEM_COORDINATE_TYPE>  (1) 
2
5
10

$$$$
