9770
     RDKit          3D

  8  7  0  0  0  0  0  0  0  0999 V2000
    3.3914    1.0212    0.3144 F   0  0  0  0  0  0  0  0  0  0  0  0
   -2.9474   -0.3112    0.2293 O   0  0  0  0  0  0  0  0  0  0  0  0
    0.7567    0.0571   -0.2820 C   0  0  0  0  0  0  0  0  0  0  0  0
   -0.5668   -0.5606    0.1642 C   0  0  0  0  0  0  0  0  0  0  0  0
    1.9437   -0.8180    0.1236 C   0  0  0  0  0  0  0  0  0  0  0  0
   -1.7509    0.3248   -0.1979 C   0  0  0  0  0  0  0  0  0  0  0  0
    3.2654   -0.1915   -0.2867 C   0  0  0  0  0  0  0  0  0  0  0  0
   -4.0921    0.4783   -0.0649 C   0  0  0  0  0  0  0  0  0  0  0  0
  1  7  1  0
  2  6  1  0
  2  8  1  0
  3  4  1  0
  3  5  1  0
  4  6  1  0
  5  7  1  0
M  END
>  <PUBCHEM_COMPOUND_CID>  (1) 
9770

>  <PUBCHEM_CONFORMER_RMSD>  (1) 
0.6

>  <PUBCHEM_CONFORMER_DIVERSEORDER>  (1) 
1
71
38
35
66
58
20
49
77
15
70
21
69
45
53
67
2
19
13
6
33
41
54
7
76
61
57
50
63
28
16
59
44
8
74
27
30
46
32
40
60
65
26
64
56
24
18
39
11
12
42
34
31
62
43
17
52
10
36
55
68
9
47
22
4
29
51
3
72
23
75
73
5
37
14
48
25

>  <PUBCHEM_MMFF94_PARTIAL_CHARGES>  (1) 
5
1 -0.34
2 -0.56
6 0.28
7 0.34
8 0.28

>  <PUBCHEM_EFFECTIVE_ROTOR_COUNT>  (1) 
5

>  <PUBCHEM_PHARMACOPHORE_FEATURES>  (1) 
1
1 2 acceptor

>  <PUBCHEM_HEAVY_ATOM_COUNT>  (1) 
8

>  <PUBCHEM_ATOM_DEF_STEREO_COUNT>  (1) 
0

>  <PUBCHEM_ATOM_UDEF_STEREO_COUNT>  (1) 
0

>  <PUBCHEM_BOND_DEF_STEREO_COUNT>  (1) 
0

>  <PUBCHEM_BOND_UDEF_STEREO_COUNT>  (1) 
0

>  <PUBCHEM_ISOTOPIC_ATOM_COUNT>  (1) 
0

>  <PUBCHEM_COMPONENT_COUNT>  (1) 
1

>  <PUBCHEM_CACTVS_TAUTO_COUNT>  (1) 
1

>  <PUBCHEM_CONFORMER_ID>  (1) 
0000262A00000001

>  <PUBCHEM_MMFF94_ENERGY>  (1) 
5.3811

>  <PUBCHEM_FEATURE_SELFOVERLAP>  (1) 
5.074

>  <PUBCHEM_SHAPE_FINGERPRINT>  (1) 
11062470 55 18410012126383460639
12932764 1 18334565833013488302
14325111 11 18409730651338399055
14390081 3 18410292506090847744
177051 138 11169909481118334448
190213 19 17060339617129370767
20719005 15 18410293610024088823
21293036 1 14836402549262995314
5460574 1 10663817472802716311

>  <PUBCHEM_SHAPE_MULTIPOLES>  (1) 
151.49
7.22
0.87
0.64
2.54
0.03
0.02
1.38
-0.13
-0.36
-0.05
-0.06
0
0.17

>  <PUBCHEM_SHAPE_SELFOVERLAP>  (1) 
264.605

>  <PUBCHEM_SHAPE_VOLUME>  (1) 
100.6

>  <PUBCHEM_COORDINATE_TYPE>  (1) 
2
5
10

$$$$
