9783
     RDKit          3D

 11 10  0  0  0  0  0  0  0  0999 V2000
    0.3026    0.3981    1.7331 F   0  0  0  0  0  0  0  0  0  0  0  0
    0.7854    1.7972    0.1381 F   0  0  0  0  0  0  0  0  0  0  0  0
    1.3599   -0.2947   -1.5494 F   0  0  0  0  0  0  0  0  0  0  0  0
    2.5122   -0.3114    0.3014 F   0  0  0  0  0  0  0  0  0  0  0  0
    0.8689   -1.7220    0.0243 F   0  0  0  0  0  0  0  0  0  0  0  0
   -1.7814   -0.5212    0.5295 O   0  0  0  0  0  0  0  0  0  0  0  0
   -1.4555    0.9688   -1.2028 O   0  0  0  0  0  0  0  0  0  0  0  0
    0.3102    0.5458    0.3810 C   0  0  0  0  0  0  0  0  0  0  0  0
    1.2715   -0.4548   -0.2107 C   0  0  0  0  0  0  0  0  0  0  0  0
   -1.0677    0.3814   -0.2011 C   0  0  0  0  0  0  0  0  0  0  0  0
   -3.1059   -0.7872    0.0568 C   0  0  0  0  0  0  0  0  0  0  0  0
  1  8  1  0
  2  8  1  0
  3  9  1  0
  4  9  1  0
  5  9  1  0
  6 10  1  0
  6 11  1  0
  7 10  2  0
  8  9  1  0
  8 10  1  0
M  END
>  <PUBCHEM_COMPOUND_CID>  (1) 
9783

>  <PUBCHEM_CONFORMER_RMSD>  (1) 
0.6

>  <PUBCHEM_CONFORMER_DIVERSEORDER>  (1) 
1
4
3
2

>  <PUBCHEM_MMFF94_PARTIAL_CHARGES>  (1) 
11
1 -0.34
10 0.66
11 0.28
2 -0.34
3 -0.34
4 -0.34
5 -0.34
6 -0.43
7 -0.57
8 0.74
9 1.02

>  <PUBCHEM_EFFECTIVE_ROTOR_COUNT>  (1) 
3

>  <PUBCHEM_PHARMACOPHORE_FEATURES>  (1) 
1
1 7 acceptor

>  <PUBCHEM_HEAVY_ATOM_COUNT>  (1) 
11

>  <PUBCHEM_ATOM_DEF_STEREO_COUNT>  (1) 
0

>  <PUBCHEM_ATOM_UDEF_STEREO_COUNT>  (1) 
0

>  <PUBCHEM_BOND_DEF_STEREO_COUNT>  (1) 
0

>  <PUBCHEM_BOND_UDEF_STEREO_COUNT>  (1) 
0

>  <PUBCHEM_ISOTOPIC_ATOM_COUNT>  (1) 
0

>  <PUBCHEM_COMPONENT_COUNT>  (1) 
1

>  <PUBCHEM_CACTVS_TAUTO_COUNT>  (1) 
1

>  <PUBCHEM_CONFORMER_ID>  (1) 
0000263700000001

>  <PUBCHEM_MMFF94_ENERGY>  (1) 
5.7733

>  <PUBCHEM_FEATURE_SELFOVERLAP>  (1) 
5.074

>  <PUBCHEM_SHAPE_FINGERPRINT>  (1) 
12423570 1 17315928654111452397
12897270 3 17749966534390976631
137420 1 15685979859438843448
16945 1 18340503238890359979
20653091 64 18060146478484811539
29004967 10 18343301440000548232
5084963 1 17842531192675634141

>  <PUBCHEM_SHAPE_MULTIPOLES>  (1) 
178.27
3.12
1.27
1.12
1.84
0.07
0
-0.96
0.12
-0.17
0.04
-0.17
0.14
0.29

>  <PUBCHEM_SHAPE_SELFOVERLAP>  (1) 
357.757

>  <PUBCHEM_SHAPE_VOLUME>  (1) 
105.4

>  <PUBCHEM_COORDINATE_TYPE>  (1) 
2
5
10

$$$$
