9789
     RDKit          3D

  8  7  0  0  0  0  0  0  0  0999 V2000
    0.6676    1.5506   -0.0020 F   0  0  0  0  0  0  0  0  0  0  0  0
    1.6645   -0.0502   -1.0966 F   0  0  0  0  0  0  0  0  0  0  0  0
    1.6999   -0.0315    1.0799 F   0  0  0  0  0  0  0  0  0  0  0  0
   -2.6126    0.6938    0.0009 N   0  0  0  0  0  0  0  0  0  0  0  0
    0.9105    0.2141    0.0021 C   0  0  0  0  0  0  0  0  0  0  0  0
   -0.3590   -0.5782    0.0046 C   0  0  0  0  0  0  0  0  0  0  0  0
   -0.3676   -1.9194    0.0087 C   0  0  0  0  0  0  0  0  0  0  0  0
   -1.6034    0.1208    0.0025 C   0  0  0  0  0  0  0  0  0  0  0  0
  1  5  1  0
  2  5  1  0
  3  5  1  0
  4  8  3  0
  5  6  1  0
  6  7  2  0
  6  8  1  0
M  END
>  <PUBCHEM_COMPOUND_CID>  (1) 
9789

>  <PUBCHEM_CONFORMER_RMSD>  (1) 
0.4

>  <PUBCHEM_CONFORMER_DIVERSEORDER>  (1) 
1

>  <PUBCHEM_MMFF94_PARTIAL_CHARGES>  (1) 
10
1 -0.34
10 0.15
2 -0.34
3 -0.34
4 -0.56
5 1.16
6 -0.07
7 -0.3
8 0.49
9 0.15

>  <PUBCHEM_EFFECTIVE_ROTOR_COUNT>  (1) 
1

>  <PUBCHEM_PHARMACOPHORE_FEATURES>  (1) 
2
1 4 acceptor
1 7 hydrophobe

>  <PUBCHEM_HEAVY_ATOM_COUNT>  (1) 
8

>  <PUBCHEM_ATOM_DEF_STEREO_COUNT>  (1) 
0

>  <PUBCHEM_ATOM_UDEF_STEREO_COUNT>  (1) 
0

>  <PUBCHEM_BOND_DEF_STEREO_COUNT>  (1) 
0

>  <PUBCHEM_BOND_UDEF_STEREO_COUNT>  (1) 
0

>  <PUBCHEM_ISOTOPIC_ATOM_COUNT>  (1) 
0

>  <PUBCHEM_COMPONENT_COUNT>  (1) 
1

>  <PUBCHEM_CACTVS_TAUTO_COUNT>  (1) 
1

>  <PUBCHEM_CONFORMER_ID>  (1) 
0000263D00000001

>  <PUBCHEM_MMFF94_ENERGY>  (1) 
3.8129

>  <PUBCHEM_FEATURE_SELFOVERLAP>  (1) 
10.148

>  <PUBCHEM_SHAPE_FINGERPRINT>  (1) 
20096714 4 18409167748655835849
21040471 1 18410575089116444675
24536 1 17844537797106626267
5084963 1 18130798870950679395

>  <PUBCHEM_SHAPE_MULTIPOLES>  (1) 
137.83
2.45
1.44
0.79
1.01
0.52
-0.01
-0.77
0.01
0.15
0
-0.38
0.02
0

>  <PUBCHEM_SHAPE_SELFOVERLAP>  (1) 
269.266

>  <PUBCHEM_SHAPE_VOLUME>  (1) 
83

>  <PUBCHEM_COORDINATE_TYPE>  (1) 
2
5
10

$$$$
