9790
     RDKit          3D

  8  7  0  0  1  0  0  0  0  0999 V2000
   -0.6932   -2.0497   -0.1282 Cl  0  0  0  0  0  0  0  0  0  0  0  0
   -2.2577    0.9026   -0.6573 Cl  0  0  0  0  0  0  0  0  0  0  0  0
    1.9071   -0.7390   -0.1374 F   0  0  0  0  0  0  0  0  0  0  0  0
    0.5422    0.4966   -1.2939 F   0  0  0  0  0  0  0  0  0  0  0  0
   -0.2815   -0.5071    0.7001 C   0  0  0  0  0  0  0  0  0  0  0  0
    0.8899    0.1607   -0.0258 C   0  0  0  0  0  0  0  0  0  0  0  0
   -1.5434    0.3431    0.8743 C   0  0  0  0  0  0  0  0  0  0  0  0
    1.4366    1.3928    0.6682 C   0  0  0  0  0  0  0  0  0  0  0  0
  1  5  1  0
  2  7  1  0
  3  6  1  0
  4  6  1  0
  5  6  1  0
  5  7  1  0
  6  8  1  0
M  END
>  <PUBCHEM_COMPOUND_CID>  (1) 
9790

>  <PUBCHEM_CONFORMER_RMSD>  (1) 
0.4

>  <PUBCHEM_CONFORMER_DIVERSEORDER>  (1) 
1
4
6
7
14
5
9
13
8
17
12
16
11
3
10
15
2
18

>  <PUBCHEM_MMFF94_PARTIAL_CHARGES>  (1) 
7
1 -0.29
2 -0.29
3 -0.34
4 -0.34
5 0.29
6 0.68
7 0.29

>  <PUBCHEM_EFFECTIVE_ROTOR_COUNT>  (1) 
2

>  <PUBCHEM_PHARMACOPHORE_FEATURES>  (1) 
0

>  <PUBCHEM_HEAVY_ATOM_COUNT>  (1) 
8

>  <PUBCHEM_ATOM_DEF_STEREO_COUNT>  (1) 
0

>  <PUBCHEM_ATOM_UDEF_STEREO_COUNT>  (1) 
1

>  <PUBCHEM_BOND_DEF_STEREO_COUNT>  (1) 
0

>  <PUBCHEM_BOND_UDEF_STEREO_COUNT>  (1) 
0

>  <PUBCHEM_ISOTOPIC_ATOM_COUNT>  (1) 
0

>  <PUBCHEM_COMPONENT_COUNT>  (1) 
1

>  <PUBCHEM_CACTVS_TAUTO_COUNT>  (1) 
1

>  <PUBCHEM_CONFORMER_ID>  (1) 
0000263E00000001

>  <PUBCHEM_MMFF94_ENERGY>  (1) 
10.0813

>  <PUBCHEM_FEATURE_SELFOVERLAP>  (1) 
0

>  <PUBCHEM_SHAPE_FINGERPRINT>  (1) 
137420 1 10585500217571185980
21040471 1 18335422386973371097
23552449 1 17979063117943286593
24536 1 16987462925578148346
29004967 10 18127415557423052674
5084963 1 18041013829442151329

>  <PUBCHEM_SHAPE_MULTIPOLES>  (1) 
153.83
2.45
1.71
1.03
0.29
0.79
-0.08
-0.85
-0.16
0.28
-0.02
0.13
-0.18
0.26

>  <PUBCHEM_SHAPE_SELFOVERLAP>  (1) 
269.806

>  <PUBCHEM_SHAPE_VOLUME>  (1) 
104.1

>  <PUBCHEM_COORDINATE_TYPE>  (1) 
2
5
10

$$$$
