9795
     RDKit          3D

 13 13  0  0  0  0  0  0  0  0999 V2000
    1.8740    2.0803   -0.0013 F   0  0  0  0  0  0  0  0  0  0  0  0
    2.0595    0.2115    1.0836 F   0  0  0  0  0  0  0  0  0  0  0  0
    2.0370    0.2055   -1.0908 F   0  0  0  0  0  0  0  0  0  0  0  0
   -0.4368   -2.9213   -0.0001 O   0  0  0  0  0  0  0  0  0  0  0  0
    1.3967   -1.7139    0.0006 O   0  0  0  0  0  0  0  0  0  0  0  0
    0.1468   -1.8116    0.0009 N   0  0  0  0  0  0  0  0  0  0  0  0
   -0.0312    0.6335    0.0013 C   0  0  0  0  0  0  0  0  0  0  0  0
   -0.6355   -0.6238    0.0020 C   0  0  0  0  0  0  0  0  0  0  0  0
   -0.8181    1.7853    0.0005 C   0  0  0  0  0  0  0  0  0  0  0  0
    1.4563    0.7811    0.0004 C   0  0  0  0  0  0  0  0  0  0  0  0
   -2.0264   -0.7291    0.0019 C   0  0  0  0  0  0  0  0  0  0  0  0
   -2.2090    1.6798    0.0003 C   0  0  0  0  0  0  0  0  0  0  0  0
   -2.8132    0.4226    0.0009 C   0  0  0  0  0  0  0  0  0  0  0  0
  1 10  1  0
  2 10  1  0
  3 10  1  0
  4  6  1  0
  5  6  2  0
  6  8  1  0
  7  8  2  0
  7  9  1  0
  7 10  1  0
  8 11  1  0
  9 12  2  0
 11 13  2  0
 12 13  1  0
M  CHG  2   4  -1   6   1
M  END
>  <PUBCHEM_COMPOUND_CID>  (1) 
9795

>  <PUBCHEM_CONFORMER_RMSD>  (1) 
0.6

>  <PUBCHEM_CONFORMER_DIVERSEORDER>  (1) 
1

>  <PUBCHEM_MMFF94_PARTIAL_CHARGES>  (1) 
17
1 -0.34
10 1.16
11 -0.15
12 -0.15
13 -0.15
14 0.15
15 0.15
16 0.15
17 0.15
2 -0.34
3 -0.34
4 -0.52
5 -0.52
6 0.91
7 -0.14
8 0.13
9 -0.15

>  <PUBCHEM_EFFECTIVE_ROTOR_COUNT>  (1) 
2

>  <PUBCHEM_PHARMACOPHORE_FEATURES>  (1) 
4
1 4 acceptor
1 4 anion
1 5 acceptor
6 7 8 9 11 12 13 rings

>  <PUBCHEM_HEAVY_ATOM_COUNT>  (1) 
13

>  <PUBCHEM_ATOM_DEF_STEREO_COUNT>  (1) 
0

>  <PUBCHEM_ATOM_UDEF_STEREO_COUNT>  (1) 
0

>  <PUBCHEM_BOND_DEF_STEREO_COUNT>  (1) 
0

>  <PUBCHEM_BOND_UDEF_STEREO_COUNT>  (1) 
0

>  <PUBCHEM_ISOTOPIC_ATOM_COUNT>  (1) 
0

>  <PUBCHEM_COMPONENT_COUNT>  (1) 
1

>  <PUBCHEM_CACTVS_TAUTO_COUNT>  (1) 
1

>  <PUBCHEM_CONFORMER_ID>  (1) 
0000264300000001

>  <PUBCHEM_MMFF94_ENERGY>  (1) 
39.544

>  <PUBCHEM_FEATURE_SELFOVERLAP>  (1) 
20.379

>  <PUBCHEM_SHAPE_FINGERPRINT>  (1) 
12423570 1 17463981154856512036
12524768 44 18053388978599136397
16945 1 18338798888677741061
18185500 45 17618507579912526687
193761 8 18338517559482154534
20871998 184 17695915809689778774
21040471 1 18410856593999527942
22802520 49 17983604036720561102
2334 1 18410856590047445517
23552423 10 18192434069767588629
23559900 14 18270977799690326268
241688 4 17112974067822121185
2748010 2 18409732867667923069
5084963 1 18131638880390829921
66348 1 18410015433445020509
7364860 26 18055910983479776031

>  <PUBCHEM_SHAPE_MULTIPOLES>  (1) 
228.99
3.17
2.49
0.7
0.92
1.1
0
-0.87
0
-0.49
0
-0.23
-0.08
0

>  <PUBCHEM_SHAPE_SELFOVERLAP>  (1) 
492.214

>  <PUBCHEM_SHAPE_VOLUME>  (1) 
126.3

>  <PUBCHEM_COORDINATE_TYPE>  (1) 
2
5
10

$$$$
