9797
     RDKit          3D

 30 37  0  0  0  0  0  0  0  0999 V2000
    0.0000    0.7084    0.0001 C   0  0  0  0  0  0  0  0  0  0  0  0
    0.0000   -0.7083    0.0000 C   0  0  0  0  0  0  0  0  0  0  0  0
    1.2563    1.3801   -0.2737 C   0  0  0  0  0  0  0  0  0  0  0  0
   -1.2563    1.3801    0.2740 C   0  0  0  0  0  0  0  0  0  0  0  0
    1.2564   -1.3800    0.2738 C   0  0  0  0  0  0  0  0  0  0  0  0
   -1.2563   -1.3800   -0.2738 C   0  0  0  0  0  0  0  0  0  0  0  0
    2.4823    0.6831   -0.1673 C   0  0  0  0  0  0  0  0  0  0  0  0
   -2.4824    0.6831    0.1672 C   0  0  0  0  0  0  0  0  0  0  0  0
    2.4824   -0.6830    0.1672 C   0  0  0  0  0  0  0  0  0  0  0  0
   -2.4824   -0.6831   -0.1674 C   0  0  0  0  0  0  0  0  0  0  0  0
    3.7271    1.3497   -0.3720 C   0  0  0  0  0  0  0  0  0  0  0  0
   -3.7271    1.3496    0.3717 C   0  0  0  0  0  0  0  0  0  0  0  0
    3.7271   -1.3496    0.3718 C   0  0  0  0  0  0  0  0  0  0  0  0
   -3.7271   -1.3498   -0.3719 C   0  0  0  0  0  0  0  0  0  0  0  0
    1.3519    2.7201   -0.7320 C   0  0  0  0  0  0  0  0  0  0  0  0
   -1.3520    2.7198    0.7324 C   0  0  0  0  0  0  0  0  0  0  0  0
    1.3521   -2.7199    0.7322 C   0  0  0  0  0  0  0  0  0  0  0  0
   -1.3519   -2.7199   -0.7319 C   0  0  0  0  0  0  0  0  0  0  0  0
    4.9316    0.6672   -0.1911 C   0  0  0  0  0  0  0  0  0  0  0  0
   -4.9316    0.6673    0.1901 C   0  0  0  0  0  0  0  0  0  0  0  0
    4.9315   -0.6672    0.1907 C   0  0  0  0  0  0  0  0  0  0  0  0
   -4.9315   -0.6672   -0.1912 C   0  0  0  0  0  0  0  0  0  0  0  0
    3.7528    2.6893   -0.7574 C   0  0  0  0  0  0  0  0  0  0  0  0
   -3.7529    2.6892    0.7573 C   0  0  0  0  0  0  0  0  0  0  0  0
    3.7529   -2.6892    0.7573 C   0  0  0  0  0  0  0  0  0  0  0  0
   -3.7528   -2.6894   -0.7571 C   0  0  0  0  0  0  0  0  0  0  0  0
    2.5659    3.3678   -0.9593 C   0  0  0  0  0  0  0  0  0  0  0  0
   -2.5661    3.3676    0.9600 C   0  0  0  0  0  0  0  0  0  0  0  0
    2.5662   -3.3677    0.9595 C   0  0  0  0  0  0  0  0  0  0  0  0
   -2.5659   -3.3679   -0.9590 C   0  0  0  0  0  0  0  0  0  0  0  0
  1  2  2  0
  1  3  1  0
  1  4  1  0
  2  5  1  0
  2  6  1  0
  3  7  1  0
  3 15  2  0
  4  8  2  0
  4 16  1  0
  5  9  1  0
  5 17  2  0
  6 10  2  0
  6 18  1  0
  7  9  2  0
  7 11  1  0
  8 10  1  0
  8 12  1  0
  9 13  1  0
 10 14  1  0
 11 19  2  0
 11 23  1  0
 12 20  1  0
 12 24  2  0
 13 21  2  0
 13 25  1  0
 14 22  1  0
 14 26  2  0
 15 27  1  0
 16 28  2  0
 17 29  1  0
 18 30  2  0
 19 21  1  0
 20 22  2  0
 23 27  2  0
 24 28  1  0
 25 29  2  0
 26 30  1  0
M  END
>  <PUBCHEM_COMPOUND_CID>  (1) 
9797

>  <PUBCHEM_CONFORMER_RMSD>  (1) 
0.6

>  <PUBCHEM_CONFORMER_DIVERSEORDER>  (1) 
1
2

>  <PUBCHEM_MMFF94_PARTIAL_CHARGES>  (1) 
32
15 -0.15
16 -0.15
17 -0.15
18 -0.15
19 -0.15
20 -0.15
21 -0.15
22 -0.15
23 -0.15
24 -0.15
25 -0.15
26 -0.15
27 -0.15
28 -0.15
29 -0.15
30 -0.15
31 0.15
32 0.15
33 0.15
34 0.15
35 0.15
36 0.15
37 0.15
38 0.15
39 0.15
40 0.15
41 0.15
42 0.15
43 0.15
44 0.15
45 0.15
46 0.15

>  <PUBCHEM_EFFECTIVE_ROTOR_COUNT>  (1) 
0

>  <PUBCHEM_PHARMACOPHORE_FEATURES>  (1) 
8
6 1 2 3 5 7 9 rings
6 1 2 4 6 8 10 rings
6 3 7 11 15 23 27 rings
6 4 8 12 16 24 28 rings
6 5 9 13 17 25 29 rings
6 6 10 14 18 26 30 rings
6 7 9 11 13 19 21 rings
6 8 10 12 14 20 22 rings

>  <PUBCHEM_HEAVY_ATOM_COUNT>  (1) 
30

>  <PUBCHEM_ATOM_DEF_STEREO_COUNT>  (1) 
0

>  <PUBCHEM_ATOM_UDEF_STEREO_COUNT>  (1) 
0

>  <PUBCHEM_BOND_DEF_STEREO_COUNT>  (1) 
0

>  <PUBCHEM_BOND_UDEF_STEREO_COUNT>  (1) 
0

>  <PUBCHEM_ISOTOPIC_ATOM_COUNT>  (1) 
0

>  <PUBCHEM_COMPONENT_COUNT>  (1) 
1

>  <PUBCHEM_CACTVS_TAUTO_COUNT>  (1) 
1

>  <PUBCHEM_CONFORMER_ID>  (1) 
0000264500000001

>  <PUBCHEM_MMFF94_ENERGY>  (1) 
150.2951

>  <PUBCHEM_FEATURE_SELFOVERLAP>  (1) 
40.882

>  <PUBCHEM_SHAPE_FINGERPRINT>  (1) 
10074138 170 15013979887614489122
10369192 42 15908513424131150296
10616163 171 18413109484840836799
10675989 125 18048309234858069797
1100329 8 18410855490192932992
11007060 377 18050022270676547020
11135609 187 18043811098724713436
11513181 2 17916583112086926191
11756154 67 17978796705860663870
12107183 9 17834394518846177946
12553582 1 18126559261799699207
12788726 201 18270972356769087473
13140716 1 18194682789683527961
13583140 156 17749958748068702857
14117953 113 17690557485948543213
14178342 30 18339907286851211840
14394314 77 18343305881757245537
14790565 3 18410860961981365412
15001296 14 18336545009740987073
15250474 111 18411695508507913183
15297060 5 17702669821803761315
15420108 30 17980204084711766656
15927050 60 16396344889214261103
16728300 4 16020561947787927691
17492 89 18410014333881385883
17818456 19 18343302522343038257
18681886 176 18341889736544406170
19319366 153 18047467021973433767
20511986 3 18338782472927620388
20715895 44 17978789013705936357
20739085 24 17619089243007191768
20764821 26 16103886911806016141
20775438 99 15752865621495399430
21033648 29 17771040727631373635
21133410 221 14733897970751696451
21267235 1 18410582781244791655
21857420 4 15402402762889149438
22393880 68 18341339993278005068
23559900 14 18271803575128841736
24771293 8 18339632426757191680
335352 9 18410855430063391245
338550 245 18335704961641252604
350125 39 18411419475808927273
463206 1 18267024036394376043
474 4 18187646946406124002
5081480 168 17126524603599640078
5104073 3 18338516326689014763
5312544 6 18262804080871220036
6823239 73 17916318134506607134
7097593 13 18337670806800729644
9981440 41 17758396657877624200

>  <PUBCHEM_SHAPE_MULTIPOLES>  (1) 
617.39
9.74
4.73
0.92
0
0
0
0
0
0
0
0
0
-2.92

>  <PUBCHEM_SHAPE_SELFOVERLAP>  (1) 
1489.688

>  <PUBCHEM_SHAPE_VOLUME>  (1) 
269.3

>  <PUBCHEM_COORDINATE_TYPE>  (1) 
2
5
10

$$$$
