9802
     RDKit          3D

 27 29  0  0  0  0  0  0  0  0999 V2000
   -7.3268    0.5801    0.0019 F   0  0  0  0  0  0  0  0  0  0  0  0
   -7.5010   -1.3004   -1.0892 F   0  0  0  0  0  0  0  0  0  0  0  0
   -7.5040   -1.2996    1.0900 F   0  0  0  0  0  0  0  0  0  0  0  0
    7.3267    0.5801    0.0005 F   0  0  0  0  0  0  0  0  0  0  0  0
    7.5002   -1.3012    1.0902 F   0  0  0  0  0  0  0  0  0  0  0  0
    7.5048   -1.2987   -1.0890 F   0  0  0  0  0  0  0  0  0  0  0  0
   -4.9122   -1.9676   -0.0045 O   0  0  0  0  0  0  0  0  0  0  0  0
    4.9121   -1.9675    0.0032 O   0  0  0  0  0  0  0  0  0  0  0  0
   -4.8059    0.3869    0.0006 N   0  0  0  0  0  0  0  0  0  0  0  0
    4.8061    0.3868   -0.0003 N   0  0  0  0  0  0  0  0  0  0  0  0
    0.0000   -1.0460   -0.0008 C   0  0  0  0  0  0  0  0  0  0  0  0
   -1.1750   -0.0904   -0.0006 C   0  0  0  0  0  0  0  0  0  0  0  0
    1.1749   -0.0905   -0.0008 C   0  0  0  0  0  0  0  0  0  0  0  0
   -0.7236    1.2486   -0.0003 C   0  0  0  0  0  0  0  0  0  0  0  0
    0.7235    1.2486   -0.0004 C   0  0  0  0  0  0  0  0  0  0  0  0
   -2.5240   -0.3987   -0.0005 C   0  0  0  0  0  0  0  0  0  0  0  0
    2.5240   -0.3987   -0.0007 C   0  0  0  0  0  0  0  0  0  0  0  0
   -1.6292    2.2963    0.0002 C   0  0  0  0  0  0  0  0  0  0  0  0
    1.6292    2.2962   -0.0001 C   0  0  0  0  0  0  0  0  0  0  0  0
   -3.4367    0.6576    0.0000 C   0  0  0  0  0  0  0  0  0  0  0  0
    3.4367    0.6576   -0.0005 C   0  0  0  0  0  0  0  0  0  0  0  0
   -2.9938    1.9916    0.0005 C   0  0  0  0  0  0  0  0  0  0  0  0
    2.9939    1.9916   -0.0003 C   0  0  0  0  0  0  0  0  0  0  0  0
   -5.4407   -0.8609    0.0003 C   0  0  0  0  0  0  0  0  0  0  0  0
    5.4407   -0.8609   -0.0005 C   0  0  0  0  0  0  0  0  0  0  0  0
   -6.9374   -0.7203    0.0011 C   0  0  0  0  0  0  0  0  0  0  0  0
    6.9375   -0.7203    0.0000 C   0  0  0  0  0  0  0  0  0  0  0  0
  1 26  1  0
  2 26  1  0
  3 26  1  0
  4 27  1  0
  5 27  1  0
  6 27  1  0
  7 24  2  0
  8 25  2  0
  9 20  1  0
  9 24  1  0
 10 21  1  0
 10 25  1  0
 11 12  1  0
 11 13  1  0
 12 14  2  0
 12 16  1  0
 13 15  2  0
 13 17  1  0
 14 15  1  0
 14 18  1  0
 15 19  1  0
 16 20  2  0
 17 21  2  0
 18 22  2  0
 19 23  2  0
 20 22  1  0
 21 23  1  0
 24 26  1  0
 25 27  1  0
M  END
>  <PUBCHEM_COMPOUND_CID>  (1) 
9802

>  <PUBCHEM_CONFORMER_RMSD>  (1) 
0.8

>  <PUBCHEM_CONFORMER_DIVERSEORDER>  (1) 
1
3
2

>  <PUBCHEM_MMFF94_PARTIAL_CHARGES>  (1) 
33
1 -0.34
10 -0.55
11 0.29
12 -0.14
13 -0.14
16 -0.15
17 -0.15
18 -0.15
19 -0.15
2 -0.34
20 0.12
21 0.12
22 -0.15
23 -0.15
24 0.57
25 0.57
26 1.08
27 1.08
3 -0.34
30 0.15
31 0.15
32 0.15
33 0.15
34 0.15
35 0.15
36 0.37
37 0.37
4 -0.34
5 -0.34
6 -0.34
7 -0.57
8 -0.57
9 -0.55

>  <PUBCHEM_EFFECTIVE_ROTOR_COUNT>  (1) 
6.2

>  <PUBCHEM_PHARMACOPHORE_FEATURES>  (1) 
7
1 10 donor
1 7 acceptor
1 8 acceptor
1 9 donor
5 11 12 13 14 15 rings
6 12 14 16 18 20 22 rings
6 13 15 17 19 21 23 rings

>  <PUBCHEM_HEAVY_ATOM_COUNT>  (1) 
27

>  <PUBCHEM_ATOM_DEF_STEREO_COUNT>  (1) 
0

>  <PUBCHEM_ATOM_UDEF_STEREO_COUNT>  (1) 
0

>  <PUBCHEM_BOND_DEF_STEREO_COUNT>  (1) 
0

>  <PUBCHEM_BOND_UDEF_STEREO_COUNT>  (1) 
0

>  <PUBCHEM_ISOTOPIC_ATOM_COUNT>  (1) 
0

>  <PUBCHEM_COMPONENT_COUNT>  (1) 
1

>  <PUBCHEM_CACTVS_TAUTO_COUNT>  (1) 
3

>  <PUBCHEM_CONFORMER_ID>  (1) 
0000264A00000001

>  <PUBCHEM_MMFF94_ENERGY>  (1) 
76.3724

>  <PUBCHEM_FEATURE_SELFOVERLAP>  (1) 
35.685

>  <PUBCHEM_SHAPE_FINGERPRINT>  (1) 
10 15 11671783775878138767
10050765 1 18122344566814454119
106641 1 17917423242829781576
11135926 11 18409724050728468247
11524674 6 16702301269701182327
11963148 33 18410848876134500607
12166972 35 17821730554408385501
12516196 113 18272087180752001760
12760667 363 18413670223465979001
13288520 33 18410856547087560925
13383668 362 18055339491358714656
13533116 47 18342738567536477624
13685833 64 18412263935066798296
13862211 1 18410575088958078693
13885169 127 18411981326335175233
14251764 18 18343304777438277840
14556957 393 16009041531323952799
15131766 46 15480389915587326640
15849732 13 18273214201223127486
16087824 20 18264768771745785365
18335252 114 10737282468079667818
18335252 98 18272934904570392942
18681886 176 18410848880264989257
20028762 73 18272932734430884046
21049683 271 18410578414218580868
21130935 74 18130508514256368530
21150785 3 15719112465457504518
21267235 1 18410859862469893536
21781051 124 18042703838706793043
21792934 111 18201711860774160401
21792961 116 18114455687835624781
22224240 67 16200429173964256510
23035841 295 18410293618898860075
23522609 53 18122377698156414980
23559900 14 18189333635850781185
300161 21 9151174246510540401
3004659 81 18114177557789475265
335352 9 18410011065463443247
3383291 50 18410854369249544114
34797466 226 17418379112960369588
350125 39 18411981360082827973
4073 2 17969225705631084251
4340502 62 14548742810829760252
465052 167 18341335564723370669
5104073 3 18273210872370766016
5758199 1 8790889592552306405
59682541 52 13046216131976156912
59755656 215 18260829284889186587
59755656 520 17313099782961960019
6138700 20 18408322185955067907
636775 8 18261685830206504310

>  <PUBCHEM_SHAPE_MULTIPOLES>  (1) 
490.3
21.7
2.12
0.71
0
0.69
0
-13.15
0.01
0
0
0
-0.15
0

>  <PUBCHEM_SHAPE_SELFOVERLAP>  (1) 
1083.454

>  <PUBCHEM_SHAPE_VOLUME>  (1) 
264

>  <PUBCHEM_COORDINATE_TYPE>  (1) 
2
5
10

$$$$
