9804
     RDKit          3D

 24 24  0  0  0  0  0  0  0  0999 V2000
    0.8528   -0.1555   -0.1072 O   0  0  0  0  0  0  0  0  0  0  0  0
    0.0110    1.8066   -0.9680 O   0  0  0  0  0  0  0  0  0  0  0  0
   -2.4723    2.2189    0.0813 O   0  0  0  0  0  0  0  0  0  0  0  0
   -4.9254    1.0314    0.4826 O   0  0  0  0  0  0  0  0  0  0  0  0
   -5.1680   -1.7221    0.3275 O   0  0  0  0  0  0  0  0  0  0  0  0
    4.5802   -0.1916    0.0677 N   0  0  0  0  0  0  0  0  0  0  0  0
    3.1626   -0.7270    0.2083 C   0  0  0  0  0  0  0  0  0  0  0  0
    4.7111    0.5579   -1.2503 C   0  0  0  0  0  0  0  0  0  0  0  0
    5.5651   -1.3516    0.0916 C   0  0  0  0  0  0  0  0  0  0  0  0
    4.8821    0.7542    1.2211 C   0  0  0  0  0  0  0  0  0  0  0  0
    2.1808    0.3245   -0.2696 C   0  0  0  0  0  0  0  0  0  0  0  0
    4.4100   -0.3871   -2.3930 C   0  0  0  0  0  0  0  0  0  0  0  0
    5.4303   -2.0926    1.4039 C   0  0  0  0  0  0  0  0  0  0  0  0
    6.2924    1.2829    1.0760 C   0  0  0  0  0  0  0  0  0  0  0  0
   -0.1409    0.6898   -0.4979 C   0  0  0  0  0  0  0  0  0  0  0  0
   -1.4736    0.0737   -0.2762 C   0  0  0  0  0  0  0  0  0  0  0  0
   -2.5898    0.8618    0.0042 C   0  0  0  0  0  0  0  0  0  0  0  0
   -1.6005   -1.3132   -0.3532 C   0  0  0  0  0  0  0  0  0  0  0  0
   -3.8331    0.2628    0.2079 C   0  0  0  0  0  0  0  0  0  0  0  0
   -2.8435   -1.9122   -0.1495 C   0  0  0  0  0  0  0  0  0  0  0  0
   -3.9599   -1.1243    0.1309 C   0  0  0  0  0  0  0  0  0  0  0  0
   -2.1692    2.7695    1.3605 C   0  0  0  0  0  0  0  0  0  0  0  0
   -5.6916    1.4876   -0.6296 C   0  0  0  0  0  0  0  0  0  0  0  0
   -5.2106   -3.1445    0.2312 C   0  0  0  0  0  0  0  0  0  0  0  0
  1 11  1  0
  1 15  1  0
  2 15  2  0
  3 17  1  0
  3 22  1  0
  4 19  1  0
  4 23  1  0
  5 21  1  0
  5 24  1  0
  6  7  1  0
  6  8  1  0
  6  9  1  0
  6 10  1  0
  7 11  1  0
  8 12  1  0
  9 13  1  0
 10 14  1  0
 15 16  1  0
 16 17  2  0
 16 18  1  0
 17 19  1  0
 18 20  2  0
 19 21  2  0
 20 21  1  0
M  CHG  1   6   1
M  END
>  <PUBCHEM_COMPOUND_CID>  (1) 
9804

>  <PUBCHEM_CONFORMER_RMSD>  (1) 
1

>  <PUBCHEM_CONFORMER_DIVERSEORDER>  (1) 
1
40
60
76
35
49
78
65
2
37
14
57
12
73
27
80
4
15
46
24
70
29
79
5
34
18
42
19
13
77
47
51
50
3
44
48
30
52
17
38
7
61
16
31
71
36
25
75
32
39
45
67
20
62
68
10
22
9
64
28
26
33
63
6
11
53
56
8
81
21
69
41
23
74
43
82
58
55
59
54
66
72

>  <PUBCHEM_MMFF94_PARTIAL_CHARGES>  (1) 
23
1 -0.43
10 0.5
11 0.28
15 0.63
16 0.09
17 0.08
18 -0.15
19 0.08
2 -0.57
20 -0.15
21 0.08
22 0.28
23 0.28
24 0.28
3 -0.36
4 -0.36
44 0.15
45 0.15
5 -0.36
6 -1.01
7 0.5
8 0.5
9 0.5

>  <PUBCHEM_EFFECTIVE_ROTOR_COUNT>  (1) 
11

>  <PUBCHEM_PHARMACOPHORE_FEATURES>  (1) 
6
1 2 acceptor
1 3 acceptor
1 4 acceptor
1 5 acceptor
1 6 cation
6 16 17 18 19 20 21 rings

>  <PUBCHEM_HEAVY_ATOM_COUNT>  (1) 
24

>  <PUBCHEM_ATOM_DEF_STEREO_COUNT>  (1) 
0

>  <PUBCHEM_ATOM_UDEF_STEREO_COUNT>  (1) 
0

>  <PUBCHEM_BOND_DEF_STEREO_COUNT>  (1) 
0

>  <PUBCHEM_BOND_UDEF_STEREO_COUNT>  (1) 
0

>  <PUBCHEM_ISOTOPIC_ATOM_COUNT>  (1) 
0

>  <PUBCHEM_COMPONENT_COUNT>  (1) 
1

>  <PUBCHEM_CACTVS_TAUTO_COUNT>  (1) 
1

>  <PUBCHEM_CONFORMER_ID>  (1) 
0000264C00000001

>  <PUBCHEM_MMFF94_ENERGY>  (1) 
115.258

>  <PUBCHEM_FEATURE_SELFOVERLAP>  (1) 
30.462

>  <PUBCHEM_SHAPE_FINGERPRINT>  (1) 
10595046 47 18333735741032716764
11315181 36 18409170995814856416
12107183 9 17689432690180501370
12236239 1 17967535670660312214
12596602 18 18408598176073828354
12616971 3 17095243622511788374
13073987 5 18412259537225924898
13167823 11 18334573517253559626
14341114 176 18342739615766726872
15788980 27 17385723569679289510
17349148 13 17312824862210213890
17844677 252 18272094890007295144
17857418 61 18259983743552082482
1813 80 17385439930055074772
20645477 70 15791736291626592914
21033648 29 16630239208728220568
21267235 1 18336275642963256311
220451 1 18187654578494515102
2297311 6 18201454591662793941
23081809 10 17530688727092541166
23402539 116 18411696587035107191
23559900 14 18341885325175702073
239999 70 18202289122016898062
3004659 81 18113621154020431790
34797466 226 17632863027216284324
4073 2 18187366562778654362
4214541 1 18410292488705185252
5104073 3 18342740731967341049
559249 180 18261107461779192327
67856867 119 18261957478403692972
7226269 152 18272087150782559665
90127 26 17274830108225459900

>  <PUBCHEM_SHAPE_MULTIPOLES>  (1) 
459.58
16.33
2.65
1.3
9.11
0.47
0.4
3.67
-2.38
-3.44
-0.8
2.18
-0.15
-0.06

>  <PUBCHEM_SHAPE_SELFOVERLAP>  (1) 
926.322

>  <PUBCHEM_SHAPE_VOLUME>  (1) 
272

>  <PUBCHEM_COORDINATE_TYPE>  (1) 
2
5
10

$$$$
