9806
     RDKit          3D

 11 11  0  0  0  0  0  0  0  0999 V2000
    0.3109   -2.6307    0.0022 Br  0  0  0  0  0  0  0  0  0  0  0  0
    2.0177    1.5975   -0.0002 F   0  0  0  0  0  0  0  0  0  0  0  0
    2.1167   -0.2787    1.0833 F   0  0  0  0  0  0  0  0  0  0  0  0
    2.0945   -0.2819   -1.0912 F   0  0  0  0  0  0  0  0  0  0  0  0
    0.0479    0.2400    0.0008 C   0  0  0  0  0  0  0  0  0  0  0  0
   -0.6255   -0.9815    0.0011 C   0  0  0  0  0  0  0  0  0  0  0  0
   -0.6733    1.4340    0.0007 C   0  0  0  0  0  0  0  0  0  0  0  0
    1.5405    0.3191    0.0003 C   0  0  0  0  0  0  0  0  0  0  0  0
   -2.0201   -1.0091    0.0012 C   0  0  0  0  0  0  0  0  0  0  0  0
   -2.0679    1.4065    0.0008 C   0  0  0  0  0  0  0  0  0  0  0  0
   -2.7413    0.1848    0.0011 C   0  0  0  0  0  0  0  0  0  0  0  0
  1  6  1  0
  2  8  1  0
  3  8  1  0
  4  8  1  0
  5  6  2  0
  5  7  1  0
  5  8  1  0
  6  9  1  0
  7 10  2  0
  9 11  2  0
 10 11  1  0
M  END
>  <PUBCHEM_COMPOUND_CID>  (1) 
9806

>  <PUBCHEM_CONFORMER_RMSD>  (1) 
0.4

>  <PUBCHEM_CONFORMER_DIVERSEORDER>  (1) 
1

>  <PUBCHEM_MMFF94_PARTIAL_CHARGES>  (1) 
15
1 -0.11
10 -0.15
11 -0.15
12 0.15
13 0.15
14 0.15
15 0.15
2 -0.34
3 -0.34
4 -0.34
5 -0.14
6 0.11
7 -0.15
8 1.16
9 -0.15

>  <PUBCHEM_EFFECTIVE_ROTOR_COUNT>  (1) 
1

>  <PUBCHEM_PHARMACOPHORE_FEATURES>  (1) 
2
1 1 hydrophobe
6 5 6 7 9 10 11 rings

>  <PUBCHEM_HEAVY_ATOM_COUNT>  (1) 
11

>  <PUBCHEM_ATOM_DEF_STEREO_COUNT>  (1) 
0

>  <PUBCHEM_ATOM_UDEF_STEREO_COUNT>  (1) 
0

>  <PUBCHEM_BOND_DEF_STEREO_COUNT>  (1) 
0

>  <PUBCHEM_BOND_UDEF_STEREO_COUNT>  (1) 
0

>  <PUBCHEM_ISOTOPIC_ATOM_COUNT>  (1) 
0

>  <PUBCHEM_COMPONENT_COUNT>  (1) 
1

>  <PUBCHEM_CACTVS_TAUTO_COUNT>  (1) 
1

>  <PUBCHEM_CONFORMER_ID>  (1) 
0000264E00000001

>  <PUBCHEM_MMFF94_ENERGY>  (1) 
19.5477

>  <PUBCHEM_FEATURE_SELFOVERLAP>  (1) 
10.148

>  <PUBCHEM_SHAPE_FINGERPRINT>  (1) 
12423570 1 14298252729236052846
12524768 44 18197503028524366165
12897270 3 18410295791851618629
16945 1 18338517435144016997
18185500 45 17831013898553312315
193761 8 17978509737435223105
20871998 184 17911525607459111639
21040471 1 18410293575474381411
23552423 10 18263930929934147559
23559900 14 18199760142262779518
241688 4 17329147966558875627
2748010 2 18337955717809279973
29004967 10 16487536957175616025
369184 2 18040708190932135801
5084963 1 18131639971270130185
66348 1 18409449210700269323

>  <PUBCHEM_SHAPE_MULTIPOLES>  (1) 
210.5
3.27
2.23
0.75
0.48
1.19
0
-0.75
0.01
-0.4
0
-0.29
0.04
0

>  <PUBCHEM_SHAPE_SELFOVERLAP>  (1) 
429.622

>  <PUBCHEM_SHAPE_VOLUME>  (1) 
125.8

>  <PUBCHEM_COORDINATE_TYPE>  (1) 
2
5
10

$$$$
