9808
     RDKit          3D

 10 10  0  0  0  0  0  0  0  0999 V2000
    2.7219   -1.4406   -0.4944 Cl  0  0  0  0  0  0  0  0  0  0  0  0
    0.0951    2.1725   -0.2285 F   0  0  0  0  0  0  0  0  0  0  0  0
    2.2536    0.9327    0.5274 O   0  0  0  0  0  0  0  0  0  0  0  0
    0.2616   -0.1810    0.0499 C   0  0  0  0  0  0  0  0  0  0  0  0
   -0.4998    0.9771   -0.1070 C   0  0  0  0  0  0  0  0  0  0  0  0
   -0.3693   -1.4187    0.1757 C   0  0  0  0  0  0  0  0  0  0  0  0
   -1.8920    0.8977   -0.1379 C   0  0  0  0  0  0  0  0  0  0  0  0
   -1.7616   -1.4982    0.1447 C   0  0  0  0  0  0  0  0  0  0  0  0
   -2.5229   -0.3400   -0.0121 C   0  0  0  0  0  0  0  0  0  0  0  0
    1.7135   -0.1015    0.0822 C   0  0  0  0  0  0  0  0  0  0  0  0
  1 10  1  0
  2  5  1  0
  3 10  2  0
  4  5  2  0
  4  6  1  0
  4 10  1  0
  5  7  1  0
  6  8  2  0
  7  9  2  0
  8  9  1  0
M  END
>  <PUBCHEM_COMPOUND_CID>  (1) 
9808

>  <PUBCHEM_CONFORMER_RMSD>  (1) 
0.4

>  <PUBCHEM_CONFORMER_DIVERSEORDER>  (1) 
2
6
3
1
4
5

>  <PUBCHEM_MMFF94_PARTIAL_CHARGES>  (1) 
14
1 -0.21
10 0.69
11 0.15
12 0.15
13 0.15
14 0.15
2 -0.19
3 -0.57
4 0.09
5 0.19
6 -0.15
7 -0.15
8 -0.15
9 -0.15

>  <PUBCHEM_EFFECTIVE_ROTOR_COUNT>  (1) 
1

>  <PUBCHEM_PHARMACOPHORE_FEATURES>  (1) 
1
6 4 5 6 7 8 9 rings

>  <PUBCHEM_HEAVY_ATOM_COUNT>  (1) 
10

>  <PUBCHEM_ATOM_DEF_STEREO_COUNT>  (1) 
0

>  <PUBCHEM_ATOM_UDEF_STEREO_COUNT>  (1) 
0

>  <PUBCHEM_BOND_DEF_STEREO_COUNT>  (1) 
0

>  <PUBCHEM_BOND_UDEF_STEREO_COUNT>  (1) 
0

>  <PUBCHEM_ISOTOPIC_ATOM_COUNT>  (1) 
0

>  <PUBCHEM_COMPONENT_COUNT>  (1) 
1

>  <PUBCHEM_CACTVS_TAUTO_COUNT>  (1) 
1

>  <PUBCHEM_CONFORMER_ID>  (1) 
0000265000000002

>  <PUBCHEM_MMFF94_ENERGY>  (1) 
24.4455

>  <PUBCHEM_FEATURE_SELFOVERLAP>  (1) 
5.074

>  <PUBCHEM_SHAPE_FINGERPRINT>  (1) 
10857977 72 18265320875586991969
12032990 46 18409175398188152179
12524768 44 18411978083080615026
12716758 59 18335417920170537907
16945 1 18194684997486660895
20201158 50 18200876158642810550
21040471 1 18263640667338103277
23552423 10 18259989283769782870
23559900 14 18053663569767301206
241688 4 18337675221779216385
2748010 2 18410007732447398047
29004967 10 18339363088097237666
369184 2 15123498164853474966
5084963 1 18201153235303555922

>  <PUBCHEM_SHAPE_MULTIPOLES>  (1) 
194.52
3.59
1.86
0.66
1.28
0.29
-0.01
-0.9
-0.21
-0.03
-0.05
0.1
-0.03
0.35

>  <PUBCHEM_SHAPE_SELFOVERLAP>  (1) 
399.617

>  <PUBCHEM_SHAPE_VOLUME>  (1) 
112.9

>  <PUBCHEM_COORDINATE_TYPE>  (1) 
2
5
10

$$$$
