9815
     RDKit          3D

 11 10  0  0  0  0  0  0  0  0999 V2000
   -0.2506    1.9168   -0.0006 Cl  0  0  0  0  0  0  0  0  0  0  0  0
   -2.7592    0.8863   -0.0032 F   0  0  0  0  0  0  0  0  0  0  0  0
   -2.2627   -0.9289    1.0972 F   0  0  0  0  0  0  0  0  0  0  0  0
   -2.3088   -0.9496   -1.0751 F   0  0  0  0  0  0  0  0  0  0  0  0
    2.8365   -1.2476   -0.0003 F   0  0  0  0  0  0  0  0  0  0  0  0
    2.3122    0.5589   -1.0950 F   0  0  0  0  0  0  0  0  0  0  0  0
    2.3102    0.5606    1.0903 F   0  0  0  0  0  0  0  0  0  0  0  0
   -0.5033    0.1941   -0.0034 C   0  0  0  0  0  0  0  0  0  0  0  0
    0.5719   -0.6098   -0.0033 C   0  0  0  0  0  0  0  0  0  0  0  0
   -1.9429   -0.2004   -0.0047 C   0  0  0  0  0  0  0  0  0  0  0  0
    1.9968   -0.1803   -0.0020 C   0  0  0  0  0  0  0  0  0  0  0  0
  1  8  1  0
  2 10  1  0
  3 10  1  0
  4 10  1  0
  5 11  1  0
  6 11  1  0
  7 11  1  0
  8  9  2  0
  8 10  1  0
  9 11  1  0
M  END
>  <PUBCHEM_COMPOUND_CID>  (1) 
9815

>  <PUBCHEM_CONFORMER_RMSD>  (1) 
0.4

>  <PUBCHEM_CONFORMER_DIVERSEORDER>  (1) 
1

>  <PUBCHEM_MMFF94_PARTIAL_CHARGES>  (1) 
11
1 -0.14
10 1.16
11 1.16
12 0.15
2 -0.34
3 -0.34
4 -0.34
5 -0.34
6 -0.34
7 -0.34
9 -0.29

>  <PUBCHEM_EFFECTIVE_ROTOR_COUNT>  (1) 
2

>  <PUBCHEM_PHARMACOPHORE_FEATURES>  (1) 
0

>  <PUBCHEM_HEAVY_ATOM_COUNT>  (1) 
11

>  <PUBCHEM_ATOM_DEF_STEREO_COUNT>  (1) 
0

>  <PUBCHEM_ATOM_UDEF_STEREO_COUNT>  (1) 
0

>  <PUBCHEM_BOND_DEF_STEREO_COUNT>  (1) 
0

>  <PUBCHEM_BOND_UDEF_STEREO_COUNT>  (1) 
1

>  <PUBCHEM_ISOTOPIC_ATOM_COUNT>  (1) 
0

>  <PUBCHEM_COMPONENT_COUNT>  (1) 
1

>  <PUBCHEM_CACTVS_TAUTO_COUNT>  (1) 
1

>  <PUBCHEM_CONFORMER_ID>  (1) 
0000265700000001

>  <PUBCHEM_MMFF94_ENERGY>  (1) 
6.9

>  <PUBCHEM_FEATURE_SELFOVERLAP>  (1) 
0

>  <PUBCHEM_SHAPE_FINGERPRINT>  (1) 
10857977 72 18337386140462916769
12897270 3 18335426755081646780
12932764 1 18131637798000938562
20653085 51 14996563932656663871
23235687 12 17418372493449973598
23552423 10 18187367584368836522
29004967 10 18409731793620157056
3248919 1 18040992964179888138
369184 2 17988637493435957483
5084963 1 18262801757325262480

>  <PUBCHEM_SHAPE_MULTIPOLES>  (1) 
184.6
4.14
1.39
0.9
0.37
0.56
0
-0.88
-0.01
-0.14
0
0.01
-0.06
0

>  <PUBCHEM_SHAPE_SELFOVERLAP>  (1) 
359.984

>  <PUBCHEM_SHAPE_VOLUME>  (1) 
113.8

>  <PUBCHEM_COORDINATE_TYPE>  (1) 
2
5
10

$$$$
