9819
     RDKit          3D

 13 13  0  0  0  0  0  0  0  0999 V2000
   -2.4602    0.6105   -0.1343 S   0  0  0  0  0  0  0  0  0  0  0  0
   -3.1709    0.5048    1.2825 F   0  0  0  0  0  0  0  0  0  0  0  0
   -2.1604    2.0189   -0.3052 O   0  0  0  0  0  0  0  0  0  0  0  0
   -3.3203   -0.1181   -1.0465 O   0  0  0  0  0  0  0  0  0  0  0  0
    3.7636    1.3319   -0.9619 O   0  0  0  0  0  0  0  0  0  0  0  0
    2.5824    0.4064    0.8542 N   0  0  0  0  0  0  0  0  0  0  0  0
   -0.9450   -0.2494   -0.0260 C   0  0  0  0  0  0  0  0  0  0  0  0
    0.2119    0.4219    0.3701 C   0  0  0  0  0  0  0  0  0  0  0  0
   -0.8914   -1.6086   -0.3351 C   0  0  0  0  0  0  0  0  0  0  0  0
    1.4222   -0.2661    0.4571 C   0  0  0  0  0  0  0  0  0  0  0  0
    0.3189   -2.2966   -0.2480 C   0  0  0  0  0  0  0  0  0  0  0  0
    1.4757   -1.6253    0.1480 C   0  0  0  0  0  0  0  0  0  0  0  0
    3.1735    0.8696   -0.0550 C   0  0  0  0  0  0  0  0  0  0  0  0
  1  2  1  0
  1  3  2  0
  1  4  2  0
  1  7  1  0
  5 13  2  0
  6 10  1  0
  6 13  2  0
  7  8  2  0
  7  9  1  0
  8 10  1  0
  9 11  2  0
 10 12  2  0
 11 12  1  0
M  END
>  <PUBCHEM_COMPOUND_CID>  (1) 
9819

>  <PUBCHEM_CONFORMER_RMSD>  (1) 
0.6

>  <PUBCHEM_CONFORMER_DIVERSEORDER>  (1) 
2
1
7
6
5
8
3
4

>  <PUBCHEM_MMFF94_PARTIAL_CHARGES>  (1) 
17
1 1.51
10 0.18
11 -0.15
12 -0.15
13 0.79
14 0.15
15 0.15
16 0.15
17 0.15
2 -0.2
3 -0.65
4 -0.65
5 -0.49
6 -0.48
7 -0.01
8 -0.15
9 -0.15

>  <PUBCHEM_EFFECTIVE_ROTOR_COUNT>  (1) 
2

>  <PUBCHEM_PHARMACOPHORE_FEATURES>  (1) 
2
1 6 acceptor
6 7 8 9 10 11 12 rings

>  <PUBCHEM_HEAVY_ATOM_COUNT>  (1) 
13

>  <PUBCHEM_ATOM_DEF_STEREO_COUNT>  (1) 
0

>  <PUBCHEM_ATOM_UDEF_STEREO_COUNT>  (1) 
0

>  <PUBCHEM_BOND_DEF_STEREO_COUNT>  (1) 
0

>  <PUBCHEM_BOND_UDEF_STEREO_COUNT>  (1) 
0

>  <PUBCHEM_ISOTOPIC_ATOM_COUNT>  (1) 
0

>  <PUBCHEM_COMPONENT_COUNT>  (1) 
1

>  <PUBCHEM_CACTVS_TAUTO_COUNT>  (1) 
1

>  <PUBCHEM_CONFORMER_ID>  (1) 
0000265B00000002

>  <PUBCHEM_MMFF94_ENERGY>  (1) 
21.2114

>  <PUBCHEM_FEATURE_SELFOVERLAP>  (1) 
10.148

>  <PUBCHEM_SHAPE_FINGERPRINT>  (1) 
11206711 2 18127116687792123503
12932764 1 17775273942140772473
13380535 21 18341622524458155834
13380535 76 18411691093466506394
13705890 14 14692569953061107836
14325111 11 18340480084673973633
14648413 74 17904199222407358617
14897335 6 18339912792820079802
15775835 57 18273495650377364297
16945 1 18340197578773308179
18186145 218 17846778511852677720
20645477 56 18339927146880546280
20653085 51 18262247732588156394
21040471 1 18341882013697563082
21501502 16 18268984294102315215
21524375 3 18411973672328777538
23419403 2 17049989918451692007
23552423 10 18124870166762263583
2748010 2 18194114114607383181
3071541 158 17979073778289583118
458136 41 18269573679178841763
57096353 35 18129643275861466453
57177213 63 18409444756644980126
5902787 121 9583226258497957988
81228 2 17765704007538979018

>  <PUBCHEM_SHAPE_MULTIPOLES>  (1) 
241.52
5.37
1.98
0.9
0.66
0.72
-0.04
-3.12
0.64
0.21
0.29
-0.15
-0.13
-0.4

>  <PUBCHEM_SHAPE_SELFOVERLAP>  (1) 
498.746

>  <PUBCHEM_SHAPE_VOLUME>  (1) 
138.8

>  <PUBCHEM_COORDINATE_TYPE>  (1) 
2
5
10

$$$$
