9824
     RDKit          3D

 23 24  0  0  1  0  0  0  0  0999 V2000
    5.7155    0.1350    1.2819 Cl  0  0  0  0  0  0  0  0  0  0  0  0
    0.7503    2.1428   -0.3717 S   0  0  0  0  0  0  0  0  0  0  0  0
    0.7731    3.1569   -1.4085 O   0  0  0  0  0  0  0  0  0  0  0  0
    1.4190    2.3777    0.8936 O   0  0  0  0  0  0  0  0  0  0  0  0
    3.9627    0.4513   -0.9743 O   0  0  0  0  0  0  0  0  0  0  0  0
    1.2935    0.6665   -1.0138 N   0  0  0  0  0  0  0  0  0  0  0  0
    1.8701   -0.3610   -0.1164 C   0  0  0  0  0  0  0  0  0  0  0  0
    1.6396   -1.7491   -0.7144 C   0  0  0  0  0  0  0  0  0  0  0  0
    0.2410   -2.2605   -0.4712 C   0  0  0  0  0  0  0  0  0  0  0  0
    3.3491   -0.0195   -0.0161 C   0  0  0  0  0  0  0  0  0  0  0  0
   -0.9396    1.7791   -0.0020 C   0  0  0  0  0  0  0  0  0  0  0  0
   -0.0243   -2.9968    0.6730 C   0  0  0  0  0  0  0  0  0  0  0  0
   -0.7544   -1.9848   -1.3959 C   0  0  0  0  0  0  0  0  0  0  0  0
    4.0022   -0.3066    1.3187 C   0  0  0  0  0  0  0  0  0  0  0  0
   -1.2645    1.2768    1.2463 C   0  0  0  0  0  0  0  0  0  0  0  0
   -1.9063    2.0032   -0.9668 C   0  0  0  0  0  0  0  0  0  0  0  0
   -3.5853    1.2088    0.5784 C   0  0  0  0  0  0  0  0  0  0  0  0
   -2.5978    0.9892    1.5386 C   0  0  0  0  0  0  0  0  0  0  0  0
   -3.2396    1.7158   -0.6743 C   0  0  0  0  0  0  0  0  0  0  0  0
   -1.3171   -3.4695    0.8982 C   0  0  0  0  0  0  0  0  0  0  0  0
   -2.0473   -2.4574   -1.1706 C   0  0  0  0  0  0  0  0  0  0  0  0
   -2.3287   -3.1998   -0.0235 C   0  0  0  0  0  0  0  0  0  0  0  0
   -5.0110    0.9019    0.8909 C   0  0  0  0  0  0  0  0  0  0  0  0
  1 14  1  0
  2  3  2  0
  2  4  2  0
  2  6  1  0
  2 11  1  0
  5 10  2  0
  6  7  1  0
  7  8  1  0
  7 10  1  0
  8  9  1  0
  9 12  2  0
  9 13  1  0
 10 14  1  0
 11 15  2  0
 11 16  1  0
 12 20  1  0
 13 21  2  0
 15 18  1  0
 16 19  2  0
 17 18  2  0
 17 19  1  0
 17 23  1  0
 20 22  2  0
 21 22  1  0
M  END
>  <PUBCHEM_COMPOUND_CID>  (1) 
9824

>  <PUBCHEM_CONFORMER_RMSD>  (1) 
0.8

>  <PUBCHEM_CONFORMER_DIVERSEORDER>  (1) 
1
150
36
88
135
2
44
143
111
134
39
117
132
123
91
133
10
54
149
83
3
12
90
15
8
73
102
130
128
153
152
141
114
29
56
70
63
89
62
144
9
68
142
126
99
127
115
72
66
92
48
94
87
137
19
147
59
121
85
16
81
27
95
71
40
139
98
104
25
136
60
65
55
14
119
67
79
113
108
6
47
50
93
52
46
64
100
34
4
45
26
145
124
103
109
140
32
118
22
61
42
97
122
18
24
148
57
7
105
96
20
23
101
76
112
41
125
107
138
21
116
75
110
106
58
17
120
80
74
69
5
28
86
82
38
49
13
35
151
51
84
31
129
37
33
30
146
11
77
131
78
43
53

>  <PUBCHEM_MMFF94_PARTIAL_CHARGES>  (1) 
33
1 -0.29
10 0.45
11 -0.01
12 -0.15
13 -0.15
14 0.35
15 -0.15
16 -0.15
17 -0.14
18 -0.15
19 -0.15
2 1.45
20 -0.15
21 -0.15
22 -0.15
23 0.14
27 0.42
28 0.15
29 0.15
3 -0.65
32 0.15
33 0.15
34 0.15
35 0.15
36 0.15
37 0.15
38 0.15
4 -0.65
5 -0.57
6 -0.91
7 0.42
8 0.14
9 -0.14

>  <PUBCHEM_EFFECTIVE_ROTOR_COUNT>  (1) 
7

>  <PUBCHEM_PHARMACOPHORE_FEATURES>  (1) 
6
1 3 acceptor
1 4 acceptor
1 5 acceptor
1 6 donor
6 11 15 16 17 18 19 rings
6 9 12 13 20 21 22 rings

>  <PUBCHEM_HEAVY_ATOM_COUNT>  (1) 
23

>  <PUBCHEM_ATOM_DEF_STEREO_COUNT>  (1) 
0

>  <PUBCHEM_ATOM_UDEF_STEREO_COUNT>  (1) 
1

>  <PUBCHEM_BOND_DEF_STEREO_COUNT>  (1) 
0

>  <PUBCHEM_BOND_UDEF_STEREO_COUNT>  (1) 
0

>  <PUBCHEM_ISOTOPIC_ATOM_COUNT>  (1) 
0

>  <PUBCHEM_COMPONENT_COUNT>  (1) 
1

>  <PUBCHEM_CACTVS_TAUTO_COUNT>  (1) 
3

>  <PUBCHEM_CONFORMER_ID>  (1) 
0000266000000001

>  <PUBCHEM_MMFF94_ENERGY>  (1) 
39.9255

>  <PUBCHEM_FEATURE_SELFOVERLAP>  (1) 
30.465

>  <PUBCHEM_SHAPE_FINGERPRINT>  (1) 
104564 63 17765169645093127429
10493431 412 18271807887138636081
1100329 8 18411981398938065336
11578080 2 17130982234487330250
12422481 6 18126030332271966771
12633257 1 18199730523783035192
13052359 8 18408035221482898498
13140716 1 18340766064997875696
13583140 156 16950553347047545852
14178342 30 18051707550606442657
14787075 74 17703496744921795665
14866123 147 18336251354855087362
15338160 23 18127110087313905704
16728300 4 17242996974136397794
17138139 8 17842806002717651173
17492 54 18409720738986332151
19591789 44 17617380580879879974
20261772 1 18336265665563888528
20905425 154 17614005092744995867
21041028 32 17978227493280149486
21197605 99 18196953256565227315
21236236 1 18270392906342586242
23419403 2 16915079957782126579
23558518 356 18120373417370061233
23559900 14 18130515167613877860
3052486 1 18336562602191094198
35225 105 17407901831392089090
427121 178 18130511812273969042
4340502 62 18130796620820580201
469060 322 18113609097672595087
5104073 3 18196065912142341000
6438718 38 18130226055146604551
7471813 234 17839726407370428446
81228 2 18339355366247439598

>  <PUBCHEM_SHAPE_MULTIPOLES>  (1) 
456.46
7.7
4.29
1.46
6.11
2.85
-0.08
-2.8
-3.29
-2.57
0.5
0.03
-0.16
-0.34

>  <PUBCHEM_SHAPE_SELFOVERLAP>  (1) 
935.038

>  <PUBCHEM_SHAPE_VOLUME>  (1) 
264.2

>  <PUBCHEM_COORDINATE_TYPE>  (1) 
2
5
10

$$$$
