9827
     RDKit          3D

 11 11  0  0  1  0  0  0  0  0999 V2000
    3.8091    0.0219   -0.3268 F   0  0  0  0  0  0  0  0  0  0  0  0
   -2.1811   -1.2701    0.8418 O   0  0  0  0  0  0  0  0  0  0  0  0
   -3.9661    0.5010   -0.5649 N   0  0  0  0  0  0  0  0  0  0  0  0
   -1.7546    0.0475    0.4702 C   0  0  0  0  0  0  0  0  0  0  0  0
   -0.2782    0.0401    0.2593 C   0  0  0  0  0  0  0  0  0  0  0  0
   -2.5223    0.4960   -0.7893 C   0  0  0  0  0  0  0  0  0  0  0  0
    0.3534   -1.1104   -0.2128 C   0  0  0  0  0  0  0  0  0  0  0  0
    0.4708    1.1845    0.5335 C   0  0  0  0  0  0  0  0  0  0  0  0
    1.7342   -1.1166   -0.4104 C   0  0  0  0  0  0  0  0  0  0  0  0
    1.8516    1.1782    0.3356 C   0  0  0  0  0  0  0  0  0  0  0  0
    2.4832    0.0277   -0.1363 C   0  0  0  0  0  0  0  0  0  0  0  0
  1 11  1  0
  2  4  1  0
  3  6  1  0
  4  5  1  0
  4  6  1  0
  5  7  2  0
  5  8  1  0
  7  9  1  0
  8 10  2  0
  9 11  2  0
 10 11  1  0
M  END
>  <PUBCHEM_COMPOUND_CID>  (1) 
9827

>  <PUBCHEM_CONFORMER_RMSD>  (1) 
0.4

>  <PUBCHEM_CONFORMER_DIVERSEORDER>  (1) 
2
3
6
5
4
1

>  <PUBCHEM_MMFF94_PARTIAL_CHARGES>  (1) 
18
1 -0.19
10 -0.15
11 0.19
15 0.15
16 0.15
17 0.15
18 0.15
19 0.4
2 -0.68
20 0.36
21 0.36
3 -0.99
4 0.42
5 -0.14
6 0.27
7 -0.15
8 -0.15
9 -0.15

>  <PUBCHEM_EFFECTIVE_ROTOR_COUNT>  (1) 
2

>  <PUBCHEM_PHARMACOPHORE_FEATURES>  (1) 
5
1 2 acceptor
1 2 donor
1 3 cation
1 3 donor
6 5 7 8 9 10 11 rings

>  <PUBCHEM_HEAVY_ATOM_COUNT>  (1) 
11

>  <PUBCHEM_ATOM_DEF_STEREO_COUNT>  (1) 
0

>  <PUBCHEM_ATOM_UDEF_STEREO_COUNT>  (1) 
1

>  <PUBCHEM_BOND_DEF_STEREO_COUNT>  (1) 
0

>  <PUBCHEM_BOND_UDEF_STEREO_COUNT>  (1) 
0

>  <PUBCHEM_ISOTOPIC_ATOM_COUNT>  (1) 
0

>  <PUBCHEM_COMPONENT_COUNT>  (1) 
1

>  <PUBCHEM_CACTVS_TAUTO_COUNT>  (1) 
1

>  <PUBCHEM_CONFORMER_ID>  (1) 
0000266300000002

>  <PUBCHEM_MMFF94_ENERGY>  (1) 
20.026

>  <PUBCHEM_FEATURE_SELFOVERLAP>  (1) 
25.374

>  <PUBCHEM_SHAPE_FINGERPRINT>  (1) 
10219947 1 17918277545520068830
11062470 55 18410292488710518541
11401426 45 18130497579100360004
12138202 97 18113330925436083143
12251169 10 7853564743125260013
124424 183 18260825982148532618
12897270 3 18412826884492692389
12932764 1 17894349998956067673
14325111 11 18339642346928923680
14911166 2 18343868818524246276
14993402 34 17418372493365662300
15219456 202 18336828709648063153
16945 1 18131639993045666554
19026448 5 16588024649675469226
20201158 50 18411700963153263255
20645477 70 18199745848004995799
21040471 1 18127128800011101288
21293036 1 18344144791210000756
23402539 116 17895461575505680909
23402655 69 18270953545472104109
25 1 18337667499918608885
2748010 2 18055920046103259808
29004967 10 18343029886588260474
5084963 1 18189625001883505696
528886 8 18342453737994584178

>  <PUBCHEM_SHAPE_MULTIPOLES>  (1) 
208.25
5.25
1.27
0.82
1.66
0.06
0.01
-0.41
-1.16
-0.28
0.12
0.36
0.03
0.46

>  <PUBCHEM_SHAPE_SELFOVERLAP>  (1) 
427.48

>  <PUBCHEM_SHAPE_VOLUME>  (1) 
121.2

>  <PUBCHEM_COORDINATE_TYPE>  (1) 
2
5
10

$$$$
