9828
     RDKit          3D

 10 10  0  0  0  0  0  0  0  0999 V2000
    3.4573   -0.0644   -0.0012 F   0  0  0  0  0  0  0  0  0  0  0  0
   -2.7810    1.1405    0.0003 O   0  0  0  0  0  0  0  0  0  0  0  0
   -0.6703    0.0475    0.0004 C   0  0  0  0  0  0  0  0  0  0  0  0
   -0.0058   -1.1790    0.0007 C   0  0  0  0  0  0  0  0  0  0  0  0
    0.0597    1.2361    0.0001 C   0  0  0  0  0  0  0  0  0  0  0  0
   -2.1241    0.0868   -0.0003 C   0  0  0  0  0  0  0  0  0  0  0  0
    1.3886   -1.2168    0.0007 C   0  0  0  0  0  0  0  0  0  0  0  0
    1.4541    1.1983    0.0000 C   0  0  0  0  0  0  0  0  0  0  0  0
    2.1185   -0.0281    0.0004 C   0  0  0  0  0  0  0  0  0  0  0  0
   -2.8971   -1.2208   -0.0010 C   0  0  0  0  0  0  0  0  0  0  0  0
  1  9  1  0
  2  6  2  0
  3  4  2  0
  3  5  1  0
  3  6  1  0
  4  7  1  0
  5  8  2  0
  6 10  1  0
  7  9  2  0
  8  9  1  0
M  END
>  <PUBCHEM_COMPOUND_CID>  (1) 
9828

>  <PUBCHEM_CONFORMER_RMSD>  (1) 
0.4

>  <PUBCHEM_CONFORMER_DIVERSEORDER>  (1) 
1
2

>  <PUBCHEM_MMFF94_PARTIAL_CHARGES>  (1) 
14
1 -0.19
10 0.06
11 0.15
12 0.15
13 0.15
14 0.15
2 -0.57
3 0.09
4 -0.15
5 -0.15
6 0.42
7 -0.15
8 -0.15
9 0.19

>  <PUBCHEM_EFFECTIVE_ROTOR_COUNT>  (1) 
1

>  <PUBCHEM_PHARMACOPHORE_FEATURES>  (1) 
2
1 2 acceptor
6 3 4 5 7 8 9 rings

>  <PUBCHEM_HEAVY_ATOM_COUNT>  (1) 
10

>  <PUBCHEM_ATOM_DEF_STEREO_COUNT>  (1) 
0

>  <PUBCHEM_ATOM_UDEF_STEREO_COUNT>  (1) 
0

>  <PUBCHEM_BOND_DEF_STEREO_COUNT>  (1) 
0

>  <PUBCHEM_BOND_UDEF_STEREO_COUNT>  (1) 
0

>  <PUBCHEM_ISOTOPIC_ATOM_COUNT>  (1) 
0

>  <PUBCHEM_COMPONENT_COUNT>  (1) 
1

>  <PUBCHEM_CACTVS_TAUTO_COUNT>  (1) 
2

>  <PUBCHEM_CONFORMER_ID>  (1) 
0000266400000001

>  <PUBCHEM_MMFF94_ENERGY>  (1) 
23.526

>  <PUBCHEM_FEATURE_SELFOVERLAP>  (1) 
10.148

>  <PUBCHEM_SHAPE_FINGERPRINT>  (1) 
10857977 72 18411408535988745123
12032990 46 18412271635748202070
12897270 3 18410007758449245431
12932764 1 17458057145087897429
14128692 85 18342739675568954823
14325111 11 18410574011026905856
16945 1 18410575046024242980
193761 8 17473825026741161282
20201158 50 18408602561056329243
21040471 1 18338516472907864352
23235685 24 18410288103802123336
23402655 69 18268695127303810965
23552423 10 18333453148789502623
2748010 2 18338796848188441445
29004967 10 18409452466132369098
5084963 1 18270965751241229177
528886 8 18411131407608589201

>  <PUBCHEM_SHAPE_MULTIPOLES>  (1) 
192.65
4.35
1.47
0.6
0.36
0.02
0
-0.31
0
0.23
0
0.01
-0.01
0

>  <PUBCHEM_SHAPE_SELFOVERLAP>  (1) 
402.069

>  <PUBCHEM_SHAPE_VOLUME>  (1) 
110.6

>  <PUBCHEM_COORDINATE_TYPE>  (1) 
2
5
10

$$$$
