9830
     RDKit          3D

 14 14  0  0  0  0  0  0  0  0999 V2000
    5.1616   -0.2852   -0.0004 Cl  0  0  0  0  0  0  0  0  0  0  0  0
   -3.0161    1.4962   -0.0015 F   0  0  0  0  0  0  0  0  0  0  0  0
   -3.7873   -0.2296   -1.0896 F   0  0  0  0  0  0  0  0  0  0  0  0
   -3.7907   -0.2237    1.0896 F   0  0  0  0  0  0  0  0  0  0  0  0
   -1.5526   -1.6943   -0.0013 O   0  0  0  0  0  0  0  0  0  0  0  0
   -0.6918    0.4999    0.0000 N   0  0  0  0  0  0  0  0  0  0  0  0
    0.6909    0.3144    0.0004 C   0  0  0  0  0  0  0  0  0  0  0  0
    1.5426    1.4189   -0.0009 C   0  0  0  0  0  0  0  0  0  0  0  0
    1.2215   -0.9757    0.0017 C   0  0  0  0  0  0  0  0  0  0  0  0
   -1.6959   -0.4763    0.0012 C   0  0  0  0  0  0  0  0  0  0  0  0
    2.9251    1.2335   -0.0011 C   0  0  0  0  0  0  0  0  0  0  0  0
    2.6040   -1.1612    0.0016 C   0  0  0  0  0  0  0  0  0  0  0  0
    3.4559   -0.0565    0.0002 C   0  0  0  0  0  0  0  0  0  0  0  0
   -3.0671    0.1397    0.0003 C   0  0  0  0  0  0  0  0  0  0  0  0
  1 13  1  0
  2 14  1  0
  3 14  1  0
  4 14  1  0
  5 10  2  0
  6  7  1  0
  6 10  1  0
  7  8  2  0
  7  9  1  0
  8 11  1  0
  9 12  2  0
 10 14  1  0
 11 13  2  0
 12 13  1  0
M  END
>  <PUBCHEM_COMPOUND_CID>  (1) 
9830

>  <PUBCHEM_CONFORMER_RMSD>  (1) 
0.6

>  <PUBCHEM_CONFORMER_DIVERSEORDER>  (1) 
1
2

>  <PUBCHEM_MMFF94_PARTIAL_CHARGES>  (1) 
19
1 -0.18
10 0.57
11 -0.15
12 -0.15
13 0.18
14 1.08
15 0.37
16 0.15
17 0.15
18 0.15
19 0.15
2 -0.34
3 -0.34
4 -0.34
5 -0.57
6 -0.55
7 0.12
8 -0.15
9 -0.15

>  <PUBCHEM_EFFECTIVE_ROTOR_COUNT>  (1) 
3

>  <PUBCHEM_PHARMACOPHORE_FEATURES>  (1) 
3
1 5 acceptor
1 6 donor
6 7 8 9 11 12 13 rings

>  <PUBCHEM_HEAVY_ATOM_COUNT>  (1) 
14

>  <PUBCHEM_ATOM_DEF_STEREO_COUNT>  (1) 
0

>  <PUBCHEM_ATOM_UDEF_STEREO_COUNT>  (1) 
0

>  <PUBCHEM_BOND_DEF_STEREO_COUNT>  (1) 
0

>  <PUBCHEM_BOND_UDEF_STEREO_COUNT>  (1) 
0

>  <PUBCHEM_ISOTOPIC_ATOM_COUNT>  (1) 
0

>  <PUBCHEM_COMPONENT_COUNT>  (1) 
1

>  <PUBCHEM_CACTVS_TAUTO_COUNT>  (1) 
2

>  <PUBCHEM_CONFORMER_ID>  (1) 
0000266600000001

>  <PUBCHEM_MMFF94_ENERGY>  (1) 
29.9074

>  <PUBCHEM_FEATURE_SELFOVERLAP>  (1) 
15.223

>  <PUBCHEM_SHAPE_FINGERPRINT>  (1) 
10130415 120 18342174470968745360
10608611 8 18409726283167001804
11062470 55 17989207040501310978
11132069 177 18411129269157928946
11401426 45 18411695500640457106
11471102 20 18410289225094536348
12251169 10 18410576197170482314
124424 183 18260264153054857962
13380535 76 18411699893780629918
13922767 16 18343579659925019416
14144814 61 18410575071862644697
14252887 29 18202291269136750254
14325111 11 18410574002342019232
15442244 35 18196092131946978288
17802600 8 18411693292336612237
18186145 218 17894912910217892248
190213 19 17603586330770858493
200 152 18059847372852006029
20201158 50 18410575076363541530
20279233 1 17894631452621647339
20645477 70 18337382730201400606
21267235 1 18411428318698014862
23402539 116 18130782348185358461
23402655 69 18341605976117800821
5104073 3 18411419552585095840
69090 78 18342172293415291719
8809292 202 18260271892697046242
93112 12 18410009978746844932

>  <PUBCHEM_SHAPE_MULTIPOLES>  (1) 
257.31
8.39
1.38
0.7
0.5
0.08
0
-0.19
0
0.17
0
-0.38
-0.03
0

>  <PUBCHEM_SHAPE_SELFOVERLAP>  (1) 
530.691

>  <PUBCHEM_SHAPE_VOLUME>  (1) 
148.4

>  <PUBCHEM_COORDINATE_TYPE>  (1) 
2
5
10

$$$$
