9831
     RDKit          3D

 12 12  0  0  0  0  0  0  0  0999 V2000
    4.6098   -0.2212    0.0060 F   0  0  0  0  0  0  0  0  0  0  0  0
    2.2171   -1.3345   -0.0025 O   0  0  0  0  0  0  0  0  0  0  0  0
    1.1500    0.7674   -0.0010 N   0  0  0  0  0  0  0  0  0  0  0  0
   -0.2083    0.4490   -0.0004 C   0  0  0  0  0  0  0  0  0  0  0  0
   -2.9247   -0.1868    0.0008 C   0  0  0  0  0  0  0  0  0  0  0  0
   -1.1629    1.4662    0.0000 C   0  0  0  0  0  0  0  0  0  0  0  0
   -0.6120   -0.8863   -0.0003 C   0  0  0  0  0  0  0  0  0  0  0  0
   -2.5210    1.1483    0.0007 C   0  0  0  0  0  0  0  0  0  0  0  0
   -1.9702   -1.2041    0.0003 C   0  0  0  0  0  0  0  0  0  0  0  0
   -4.3768   -0.5269    0.0008 C   0  0  0  0  0  0  0  0  0  0  0  0
    2.2441   -0.1083   -0.0021 C   0  0  0  0  0  0  0  0  0  0  0  0
    3.5549    0.6373   -0.0024 C   0  0  0  0  0  0  0  0  0  0  0  0
  1 12  1  0
  2 11  2  0
  3  4  1  0
  3 11  1  0
  4  6  2  0
  4  7  1  0
  5  8  2  0
  5  9  1  0
  5 10  1  0
  6  8  1  0
  7  9  2  0
 11 12  1  0
M  END
>  <PUBCHEM_COMPOUND_CID>  (1) 
9831

>  <PUBCHEM_CONFORMER_RMSD>  (1) 
0.6

>  <PUBCHEM_CONFORMER_DIVERSEORDER>  (1) 
1
3
2
4

>  <PUBCHEM_MMFF94_PARTIAL_CHARGES>  (1) 
17
1 -0.34
10 0.14
11 0.57
12 0.4
13 0.15
14 0.15
15 0.15
16 0.15
17 0.37
2 -0.57
3 -0.55
4 0.12
5 -0.14
6 -0.15
7 -0.15
8 -0.15
9 -0.15

>  <PUBCHEM_EFFECTIVE_ROTOR_COUNT>  (1) 
3

>  <PUBCHEM_PHARMACOPHORE_FEATURES>  (1) 
3
1 2 acceptor
1 3 donor
6 4 5 6 7 8 9 rings

>  <PUBCHEM_HEAVY_ATOM_COUNT>  (1) 
12

>  <PUBCHEM_ATOM_DEF_STEREO_COUNT>  (1) 
0

>  <PUBCHEM_ATOM_UDEF_STEREO_COUNT>  (1) 
0

>  <PUBCHEM_BOND_DEF_STEREO_COUNT>  (1) 
0

>  <PUBCHEM_BOND_UDEF_STEREO_COUNT>  (1) 
0

>  <PUBCHEM_ISOTOPIC_ATOM_COUNT>  (1) 
0

>  <PUBCHEM_COMPONENT_COUNT>  (1) 
1

>  <PUBCHEM_CACTVS_TAUTO_COUNT>  (1) 
2

>  <PUBCHEM_CONFORMER_ID>  (1) 
0000266700000001

>  <PUBCHEM_MMFF94_ENERGY>  (1) 
29.1882

>  <PUBCHEM_FEATURE_SELFOVERLAP>  (1) 
15.223

>  <PUBCHEM_SHAPE_FINGERPRINT>  (1) 
11062470 55 18411136952284761150
12032990 46 18336551611717780723
12932764 1 17131818855197770180
13024252 1 15791731901922232905
13380535 76 18409450288827088682
13690532 89 18334856130005849623
14144814 61 18410011009507399456
14325111 11 18410856516790512293
15219456 202 17988370251785739295
200 152 18060412526002330757
20201158 50 18412265042714783898
20510252 161 18201159854117477025
20528008 55 18342452672837497865
20645477 70 18339919299411060679
20871998 184 18201723993808513759
23402539 116 18201431489687797525
23463225 33 18336265660773204902
23552423 10 18188772876256379413
23559900 14 18341889659187424456
3312278 4 18335703870624607419
69090 78 18273209820193227751
7364860 26 18196091259995498056

>  <PUBCHEM_SHAPE_MULTIPOLES>  (1) 
228.83
7.34
1.34
0.59
3.86
0.08
0
-0.81
0.01
-0.38
0
-0.07
0.01
0

>  <PUBCHEM_SHAPE_SELFOVERLAP>  (1) 
470.189

>  <PUBCHEM_SHAPE_VOLUME>  (1) 
131.4

>  <PUBCHEM_COORDINATE_TYPE>  (1) 
2
5
10

$$$$
