9833
     RDKit          3D

 12 12  0  0  0  0  0  0  0  0999 V2000
    4.2398    0.5081    0.0015 F   0  0  0  0  0  0  0  0  0  0  0  0
   -4.5980    0.2105    0.0067 F   0  0  0  0  0  0  0  0  0  0  0  0
   -2.2086    1.3308   -0.0034 O   0  0  0  0  0  0  0  0  0  0  0  0
   -1.1355   -0.7680   -0.0010 N   0  0  0  0  0  0  0  0  0  0  0  0
    0.2220   -0.4458   -0.0011 C   0  0  0  0  0  0  0  0  0  0  0  0
    1.1795   -1.4600   -0.0005 C   0  0  0  0  0  0  0  0  0  0  0  0
    0.6215    0.8907   -0.0006 C   0  0  0  0  0  0  0  0  0  0  0  0
    2.5366   -1.1377    0.0007 C   0  0  0  0  0  0  0  0  0  0  0  0
    1.9787    1.2131    0.0005 C   0  0  0  0  0  0  0  0  0  0  0  0
    2.9363    0.1987    0.0012 C   0  0  0  0  0  0  0  0  0  0  0  0
   -2.2320    0.1044   -0.0022 C   0  0  0  0  0  0  0  0  0  0  0  0
   -3.5405   -0.6449   -0.0017 C   0  0  0  0  0  0  0  0  0  0  0  0
  1 10  1  0
  2 12  1  0
  3 11  2  0
  4  5  1  0
  4 11  1  0
  5  6  2  0
  5  7  1  0
  6  8  1  0
  7  9  2  0
  8 10  2  0
  9 10  1  0
 11 12  1  0
M  END
>  <PUBCHEM_COMPOUND_CID>  (1) 
9833

>  <PUBCHEM_CONFORMER_RMSD>  (1) 
0.6

>  <PUBCHEM_CONFORMER_DIVERSEORDER>  (1) 
1
3
2
4

>  <PUBCHEM_MMFF94_PARTIAL_CHARGES>  (1) 
17
1 -0.19
10 0.19
11 0.57
12 0.4
13 0.15
14 0.15
15 0.37
16 0.15
17 0.15
2 -0.34
3 -0.57
4 -0.55
5 0.12
6 -0.15
7 -0.15
8 -0.15
9 -0.15

>  <PUBCHEM_EFFECTIVE_ROTOR_COUNT>  (1) 
3

>  <PUBCHEM_PHARMACOPHORE_FEATURES>  (1) 
3
1 3 acceptor
1 4 donor
6 5 6 7 8 9 10 rings

>  <PUBCHEM_HEAVY_ATOM_COUNT>  (1) 
12

>  <PUBCHEM_ATOM_DEF_STEREO_COUNT>  (1) 
0

>  <PUBCHEM_ATOM_UDEF_STEREO_COUNT>  (1) 
0

>  <PUBCHEM_BOND_DEF_STEREO_COUNT>  (1) 
0

>  <PUBCHEM_BOND_UDEF_STEREO_COUNT>  (1) 
0

>  <PUBCHEM_ISOTOPIC_ATOM_COUNT>  (1) 
0

>  <PUBCHEM_COMPONENT_COUNT>  (1) 
1

>  <PUBCHEM_CACTVS_TAUTO_COUNT>  (1) 
2

>  <PUBCHEM_CONFORMER_ID>  (1) 
0000266900000001

>  <PUBCHEM_MMFF94_ENERGY>  (1) 
26.673

>  <PUBCHEM_FEATURE_SELFOVERLAP>  (1) 
15.223

>  <PUBCHEM_SHAPE_FINGERPRINT>  (1) 
10219947 1 18408325488410326582
10608611 8 18408599245362812205
11062470 55 18413108368090973147
11471102 20 18411133627995930879
12932764 1 17059761261207334499
13380535 76 18409168835156448498
14144814 61 18411419483965897027
14325111 11 18410575067488497477
15442244 35 18051695447145333682
15775835 57 18273215326198603503
18522853 276 18341892987096313817
200 152 18201994443893935943
20201158 50 18407761434550213507
20279233 1 17894355483961880379
20645477 70 18339638932752209671
20871998 22 18054509102239728814
23402539 116 18410002265207244495
23402655 69 18341325613748499453
3248919 1 14418140560692843139
528886 8 18411414038200638250
53812653 166 18342734161173786376

>  <PUBCHEM_SHAPE_MULTIPOLES>  (1) 
221.56
6.9
1.35
0.58
4.18
0.04
0
-0.5
0.01
-0.43
0
-0.03
0.01
0

>  <PUBCHEM_SHAPE_SELFOVERLAP>  (1) 
459.069

>  <PUBCHEM_SHAPE_VOLUME>  (1) 
126

>  <PUBCHEM_COORDINATE_TYPE>  (1) 
2
5
10

$$$$
