9836
     RDKit          3D

 16 17  0  0  0  0  0  0  0  0999 V2000
    6.4445    0.0000    0.1657 Cl  0  0  0  0  0  0  0  0  0  0  0  0
   -0.3967    0.0006    1.1059 S   0  0  0  0  0  0  0  0  0  0  0  0
   -6.0364   -0.0007   -0.6641 F   0  0  0  0  0  0  0  0  0  0  0  0
    1.9608   -0.0002   -0.3270 C   0  0  0  0  0  0  0  0  0  0  0  0
    0.4781   -0.0001   -0.4887 C   0  0  0  0  0  0  0  0  0  0  0  0
   -2.1036    0.0005    0.5706 C   0  0  0  0  0  0  0  0  0  0  0  0
    2.6540   -1.2081   -0.2509 C   0  0  0  0  0  0  0  0  0  0  0  0
    2.6541    1.2079   -0.2509 C   0  0  0  0  0  0  0  0  0  0  0  0
    4.0405   -1.2081   -0.0986 C   0  0  0  0  0  0  0  0  0  0  0  0
    4.0406    1.2080   -0.0986 C   0  0  0  0  0  0  0  0  0  0  0  0
   -2.7622   -1.2076    0.3645 C   0  0  0  0  0  0  0  0  0  0  0  0
   -2.7624    1.2084    0.3636 C   0  0  0  0  0  0  0  0  0  0  0  0
    4.7340   -0.0001   -0.0226 C   0  0  0  0  0  0  0  0  0  0  0  0
   -4.0931   -1.2080   -0.0530 C   0  0  0  0  0  0  0  0  0  0  0  0
   -4.0935    1.2079   -0.0537 C   0  0  0  0  0  0  0  0  0  0  0  0
   -4.7587   -0.0002   -0.2620 C   0  0  0  0  0  0  0  0  0  0  0  0
  1 13  1  0
  2  5  1  0
  2  6  1  0
  3 16  1  0
  4  5  1  0
  4  7  2  0
  4  8  1  0
  6 11  2  0
  6 12  1  0
  7  9  1  0
  8 10  2  0
  9 13  2  0
 10 13  1  0
 11 14  1  0
 12 15  2  0
 14 16  2  0
 15 16  1  0
M  END
>  <PUBCHEM_COMPOUND_CID>  (1) 
9836

>  <PUBCHEM_CONFORMER_RMSD>  (1) 
0.6

>  <PUBCHEM_CONFORMER_DIVERSEORDER>  (1) 
1
2
3
4
5
6

>  <PUBCHEM_MMFF94_PARTIAL_CHARGES>  (1) 
24
1 -0.18
10 -0.15
11 -0.15
12 -0.15
13 0.18
14 -0.15
15 -0.15
16 0.19
19 0.15
2 -0.33
20 0.15
21 0.15
22 0.15
23 0.15
24 0.15
25 0.15
26 0.15
3 -0.19
4 -0.14
5 0.37
6 0.1
7 -0.15
8 -0.15
9 -0.15

>  <PUBCHEM_EFFECTIVE_ROTOR_COUNT>  (1) 
3

>  <PUBCHEM_PHARMACOPHORE_FEATURES>  (1) 
2
6 4 7 8 9 10 13 rings
6 6 11 12 14 15 16 rings

>  <PUBCHEM_HEAVY_ATOM_COUNT>  (1) 
16

>  <PUBCHEM_ATOM_DEF_STEREO_COUNT>  (1) 
0

>  <PUBCHEM_ATOM_UDEF_STEREO_COUNT>  (1) 
0

>  <PUBCHEM_BOND_DEF_STEREO_COUNT>  (1) 
0

>  <PUBCHEM_BOND_UDEF_STEREO_COUNT>  (1) 
0

>  <PUBCHEM_ISOTOPIC_ATOM_COUNT>  (1) 
0

>  <PUBCHEM_COMPONENT_COUNT>  (1) 
1

>  <PUBCHEM_CACTVS_TAUTO_COUNT>  (1) 
1

>  <PUBCHEM_CONFORMER_ID>  (1) 
0000266C00000001

>  <PUBCHEM_MMFF94_ENERGY>  (1) 
36.8923

>  <PUBCHEM_FEATURE_SELFOVERLAP>  (1) 
10.149

>  <PUBCHEM_SHAPE_FINGERPRINT>  (1) 
10968037 39 18343301479103666271
11315181 36 18410859879707811200
11370993 70 18410294713519999707
11401426 45 18040154019654367226
12107183 9 17690562983495970378
12236239 1 17775004570629691734
12815109 37 18410573985167301390
128620 24 16056884619422295368
13167823 11 18411699885079782550
13533116 47 18270960150557019546
14123238 8 18273496766741670678
1420 363 13830132801873189948
14251718 22 18343863324854925010
15788980 27 18334297582272633050
17834072 33 18412263960662405388
17834072 8 17967813842569827735
17834076 25 18410011039503553130
18186145 218 17167860893637883009
19489759 90 18411136930883868849
200 152 18131632274678238313
20279233 1 18259995867980917602
20300324 65 18342739615988097393
20645477 70 18341615858990769990
23035841 295 13686297976192879412
23402539 116 18333446560219954405
23402655 69 18410859854217302758
23557571 272 18201725015752429441
23559900 14 18340482360869724680
26918003 58 18410575102112084074
29717793 49 17989213624902512356
300161 21 18334008389239756338
351380 180 18408603668989002072
3545911 37 18409168813591401969
4214541 1 18410294696550698345
42788 4 18410293614002454076
5104073 3 18411141320277058122
5283173 99 18335977558989647341
542803 24 18408325483883367641
59755656 520 16298383582825511547
67856867 119 18337672039514911636
7495541 125 17489021668737437043
77779 3 18410577288002407277
9709674 26 18411710880217477647
9971528 1 17748829626926053220

>  <PUBCHEM_SHAPE_MULTIPOLES>  (1) 
327.72
14.29
1.35
0.8
1.93
0
0.11
0
-1.35
-0.1
-0.02
-0.19
0
0

>  <PUBCHEM_SHAPE_SELFOVERLAP>  (1) 
674.174

>  <PUBCHEM_SHAPE_VOLUME>  (1) 
192.5

>  <PUBCHEM_COORDINATE_TYPE>  (1) 
2
5
10

$$$$
