9838
     RDKit          3D

 21 22  0  0  0  0  0  0  0  0999 V2000
   -6.1659   -1.2657   -0.0380 F   0  0  0  0  0  0  0  0  0  0  0  0
   -6.2945    0.7207    0.8232 F   0  0  0  0  0  0  0  0  0  0  0  0
   -6.0128    0.4840   -1.3201 F   0  0  0  0  0  0  0  0  0  0  0  0
    6.1418    0.0153    0.1212 N   0  0  0  0  0  0  0  0  0  0  0  0
    0.5840   -0.0622   -0.5479 N   0  0  0  0  0  0  0  0  0  0  0  0
    0.0169    0.0624    0.5630 N   0  0  0  0  0  0  0  0  0  0  0  0
    4.7418   -0.0042   -0.0470 C   0  0  0  0  0  0  0  0  0  0  0  0
    4.0499   -1.2143    0.0046 C   0  0  0  0  0  0  0  0  0  0  0  0
    4.0488    1.1866   -0.2656 C   0  0  0  0  0  0  0  0  0  0  0  0
    1.9792   -0.0426   -0.3799 C   0  0  0  0  0  0  0  0  0  0  0  0
    2.6651   -1.2335   -0.1624 C   0  0  0  0  0  0  0  0  0  0  0  0
    2.6642    1.1673   -0.4323 C   0  0  0  0  0  0  0  0  0  0  0  0
   -4.1415    0.0049    0.0663 C   0  0  0  0  0  0  0  0  0  0  0  0
    6.9461   -1.1192   -0.2871 C   0  0  0  0  0  0  0  0  0  0  0  0
    6.7964    1.1759    0.6917 C   0  0  0  0  0  0  0  0  0  0  0  0
   -1.3715    0.0433    0.3962 C   0  0  0  0  0  0  0  0  0  0  0  0
   -3.4482   -1.1861    0.2828 C   0  0  0  0  0  0  0  0  0  0  0  0
   -3.4497    1.2150    0.0147 C   0  0  0  0  0  0  0  0  0  0  0  0
   -2.0632   -1.1669    0.4479 C   0  0  0  0  0  0  0  0  0  0  0  0
   -2.0648    1.2342    0.1795 C   0  0  0  0  0  0  0  0  0  0  0  0
   -5.6221   -0.0147   -0.1110 C   0  0  0  0  0  0  0  0  0  0  0  0
  1 21  1  0
  2 21  1  0
  3 21  1  0
  4  7  1  0
  4 14  1  0
  4 15  1  0
  5  6  2  0
  5 10  1  0
  6 16  1  0
  7  8  2  0
  7  9  1  0
  8 11  1  0
  9 12  2  0
 10 11  2  0
 10 12  1  0
 13 17  2  0
 13 18  1  0
 13 21  1  0
 16 19  2  0
 16 20  1  0
 17 19  1  0
 18 20  2  0
M  END
>  <PUBCHEM_COMPOUND_CID>  (1) 
9838

>  <PUBCHEM_CONFORMER_RMSD>  (1) 
0.6

>  <PUBCHEM_CONFORMER_DIVERSEORDER>  (1) 
1
4
2
3

>  <PUBCHEM_MMFF94_PARTIAL_CHARGES>  (1) 
29
1 -0.34
10 0.18
11 -0.15
12 -0.15
13 -0.14
14 0.37
15 0.37
16 0.18
17 -0.15
18 -0.15
19 -0.15
2 -0.34
20 -0.15
21 1.16
22 0.15
23 0.15
24 0.15
25 0.15
3 -0.34
32 0.15
33 0.15
34 0.15
35 0.15
4 -0.84
5 -0.18
6 -0.18
7 0.1
8 -0.15
9 -0.15

>  <PUBCHEM_EFFECTIVE_ROTOR_COUNT>  (1) 
4

>  <PUBCHEM_PHARMACOPHORE_FEATURES>  (1) 
3
1 4 cation
6 13 16 17 18 19 20 rings
6 7 8 9 10 11 12 rings

>  <PUBCHEM_HEAVY_ATOM_COUNT>  (1) 
21

>  <PUBCHEM_ATOM_DEF_STEREO_COUNT>  (1) 
0

>  <PUBCHEM_ATOM_UDEF_STEREO_COUNT>  (1) 
0

>  <PUBCHEM_BOND_DEF_STEREO_COUNT>  (1) 
0

>  <PUBCHEM_BOND_UDEF_STEREO_COUNT>  (1) 
0

>  <PUBCHEM_ISOTOPIC_ATOM_COUNT>  (1) 
0

>  <PUBCHEM_COMPONENT_COUNT>  (1) 
1

>  <PUBCHEM_CACTVS_TAUTO_COUNT>  (1) 
1

>  <PUBCHEM_CONFORMER_ID>  (1) 
0000266E00000001

>  <PUBCHEM_MMFF94_ENERGY>  (1) 
64.6055

>  <PUBCHEM_FEATURE_SELFOVERLAP>  (1) 
15.223

>  <PUBCHEM_SHAPE_FINGERPRINT>  (1) 
10 15 18339353163541101488
10968037 39 18411419518647421143
11315181 36 18273217512732726193
11719270 70 18412823573880593918
12091667 2 17385724695250793251
12166972 35 18335143102720878852
12236239 1 17989487420430159774
12516196 113 18272651255396095392
13073987 5 18261110708220268665
13533116 47 18130505232890882906
14170010 4 18408604773523727324
14251764 18 18186239546090467948
14251764 46 18410573989446463914
15183329 4 18187361008968929257
15716309 27 17561082501180705990
19489759 90 18335421261850279569
200 152 18060138734780082889
20645477 70 18339927009067254454
21130935 74 18272373057500985378
21267235 1 18335991912458393026
220451 1 13984661468854933632
22224240 67 16128649752700955350
23035841 295 14836403627331409390
23402539 116 18409727378952939583
23536379 177 18410293596864783131
23559900 14 18339639048330984041
26918003 58 18333734640925003090
29717793 49 18202571666039486844
300161 21 18334571347846539202
3004659 81 18186519912818020640
34797466 226 17489875960030640292
351380 180 18409168822181395036
3545911 37 18408324380340347762
4073 2 17968383450371762194
4214541 1 18408606941675025301
4325135 7 18130786754927084981
5104073 3 18336552598927139938
542803 24 14261352453145391746
59755656 215 18040715840453779090
59755656 520 16298384690884960347
67856867 119 18263364853239520020
7495541 125 17846777450858404217

>  <PUBCHEM_SHAPE_MULTIPOLES>  (1) 
395.41
18.91
1.41
0.77
2.1
0.04
0.04
0.09
-0.12
0.5
-0.04
-0.25
-0.07
0.38

>  <PUBCHEM_SHAPE_SELFOVERLAP>  (1) 
844.861

>  <PUBCHEM_SHAPE_VOLUME>  (1) 
222

>  <PUBCHEM_COORDINATE_TYPE>  (1) 
2
5
10

$$$$
