9839
     RDKit          3D

  8  7  0  0  0  0  0  0  0  0999 V2000
    3.0099    0.0907   -0.3201 F   0  0  0  0  0  0  0  0  0  0  0  0
   -0.4404    0.6760    0.2054 O   0  0  0  0  0  0  0  0  0  0  0  0
    0.9056   -1.0829    0.8612 O   0  0  0  0  0  0  0  0  0  0  0  0
   -1.6221   -0.1191    0.2043 C   0  0  0  0  0  0  0  0  0  0  0  0
   -2.8383    0.7916    0.1333 C   0  0  0  0  0  0  0  0  0  0  0  0
   -1.5716   -1.0895   -0.9660 C   0  0  0  0  0  0  0  0  0  0  0  0
    0.7370   -0.0114    0.2949 C   0  0  0  0  0  0  0  0  0  0  0  0
    1.8200    0.7446   -0.4130 C   0  0  0  0  0  0  0  0  0  0  0  0
  1  8  1  0
  2  4  1  0
  2  7  1  0
  3  7  2  0
  4  5  1  0
  4  6  1  0
  7  8  1  0
M  END
>  <PUBCHEM_COMPOUND_CID>  (1) 
9839

>  <PUBCHEM_CONFORMER_RMSD>  (1) 
0.6

>  <PUBCHEM_CONFORMER_DIVERSEORDER>  (1) 
1
10
12
6
5
9
11
7
4
8
2
3

>  <PUBCHEM_MMFF94_PARTIAL_CHARGES>  (1) 
6
1 -0.34
2 -0.43
3 -0.57
4 0.28
7 0.66
8 0.4

>  <PUBCHEM_EFFECTIVE_ROTOR_COUNT>  (1) 
3

>  <PUBCHEM_PHARMACOPHORE_FEATURES>  (1) 
2
1 3 acceptor
3 4 5 6 hydrophobe

>  <PUBCHEM_HEAVY_ATOM_COUNT>  (1) 
8

>  <PUBCHEM_ATOM_DEF_STEREO_COUNT>  (1) 
0

>  <PUBCHEM_ATOM_UDEF_STEREO_COUNT>  (1) 
0

>  <PUBCHEM_BOND_DEF_STEREO_COUNT>  (1) 
0

>  <PUBCHEM_BOND_UDEF_STEREO_COUNT>  (1) 
0

>  <PUBCHEM_ISOTOPIC_ATOM_COUNT>  (1) 
0

>  <PUBCHEM_COMPONENT_COUNT>  (1) 
1

>  <PUBCHEM_CACTVS_TAUTO_COUNT>  (1) 
1

>  <PUBCHEM_CONFORMER_ID>  (1) 
0000266F00000001

>  <PUBCHEM_MMFF94_ENERGY>  (1) 
8.8476

>  <PUBCHEM_FEATURE_SELFOVERLAP>  (1) 
10.148

>  <PUBCHEM_SHAPE_FINGERPRINT>  (1) 
12932741 1 16415185815166105547
14390081 3 18408321103164652689
15310529 11 18040992904403695929
16714656 1 18131073731593410189
21040471 1 17917141698516460843
23552423 10 18340764956853829454
24536 1 17458889484080304849
29004967 10 17022624152230757313
5084963 1 16153991377595342196
5460574 1 10879993549341045489

>  <PUBCHEM_SHAPE_MULTIPOLES>  (1) 
145.62
3.88
1.08
0.84
0.63
0.17
0
-0.72
0.5
-0.4
0.08
0.03
0.18
-0.4

>  <PUBCHEM_SHAPE_SELFOVERLAP>  (1) 
268.303

>  <PUBCHEM_SHAPE_VOLUME>  (1) 
92.6

>  <PUBCHEM_COORDINATE_TYPE>  (1) 
2
5
10

$$$$
