9844
     RDKit          3D

  8  7  0  0  0  0  0  0  0  0999 V2000
    1.5361   -0.2912    1.2732 F   0  0  0  0  0  0  0  0  0  0  0  0
    2.3632    0.7841   -0.4351 F   0  0  0  0  0  0  0  0  0  0  0  0
    1.3957   -1.1538   -0.7251 F   0  0  0  0  0  0  0  0  0  0  0  0
   -1.0244   -0.1609    0.2289 O   0  0  0  0  0  0  0  0  0  0  0  0
    0.0148    0.6929   -0.2254 C   0  0  0  0  0  0  0  0  0  0  0  0
    1.3397    0.0024   -0.0310 C   0  0  0  0  0  0  0  0  0  0  0  0
   -2.2477    0.4013    0.0663 C   0  0  0  0  0  0  0  0  0  0  0  0
   -3.3775   -0.2749   -0.1518 C   0  0  0  0  0  0  0  0  0  0  0  0
  1  6  1  0
  2  6  1  0
  3  6  1  0
  4  5  1  0
  4  7  1  0
  5  6  1  0
  7  8  2  0
M  END
>  <PUBCHEM_COMPOUND_CID>  (1) 
9844

>  <PUBCHEM_CONFORMER_RMSD>  (1) 
0.6

>  <PUBCHEM_CONFORMER_DIVERSEORDER>  (1) 
1
2
3

>  <PUBCHEM_MMFF94_PARTIAL_CHARGES>  (1) 
11
1 -0.34
11 0.15
12 0.15
13 0.15
2 -0.34
3 -0.34
4 -0.36
5 0.28
6 1.02
7 -0.07
8 -0.3

>  <PUBCHEM_EFFECTIVE_ROTOR_COUNT>  (1) 
3

>  <PUBCHEM_PHARMACOPHORE_FEATURES>  (1) 
1
1 4 acceptor

>  <PUBCHEM_HEAVY_ATOM_COUNT>  (1) 
8

>  <PUBCHEM_ATOM_DEF_STEREO_COUNT>  (1) 
0

>  <PUBCHEM_ATOM_UDEF_STEREO_COUNT>  (1) 
0

>  <PUBCHEM_BOND_DEF_STEREO_COUNT>  (1) 
0

>  <PUBCHEM_BOND_UDEF_STEREO_COUNT>  (1) 
0

>  <PUBCHEM_ISOTOPIC_ATOM_COUNT>  (1) 
0

>  <PUBCHEM_COMPONENT_COUNT>  (1) 
1

>  <PUBCHEM_CACTVS_TAUTO_COUNT>  (1) 
1

>  <PUBCHEM_CONFORMER_ID>  (1) 
0000267400000001

>  <PUBCHEM_MMFF94_ENERGY>  (1) 
12.3431

>  <PUBCHEM_FEATURE_SELFOVERLAP>  (1) 
5.074

>  <PUBCHEM_SHAPE_FINGERPRINT>  (1) 
12932764 1 17530685390330135341
14390081 3 16950000340043648061
21040471 1 18060133271223129222
23552423 10 18266466408074323863
29004967 10 18272932717456041217
3248919 1 18412822474083427865
5460574 1 10159702386979265485

>  <PUBCHEM_SHAPE_MULTIPOLES>  (1) 
136.95
4.32
0.86
0.8
2.91
0.02
0.13
0.15
-0.22
-0.24
-0.11
-0.31
0.11
-0.05

>  <PUBCHEM_SHAPE_SELFOVERLAP>  (1) 
257.078

>  <PUBCHEM_SHAPE_VOLUME>  (1) 
86.2

>  <PUBCHEM_COORDINATE_TYPE>  (1) 
2
5
10

$$$$
