9846
     RDKit          3D

 12 11  0  0  0  0  0  0  0  0999 V2000
   -6.5666    0.1584   -0.1779 Br  0  0  0  0  0  0  0  0  0  0  0  0
    4.8341   -1.3568   -0.5957 F   0  0  0  0  0  0  0  0  0  0  0  0
    2.4964   -0.1436    0.2325 O   0  0  0  0  0  0  0  0  0  0  0  0
    1.2992    1.7669   -0.2549 O   0  0  0  0  0  0  0  0  0  0  0  0
   -2.3727   -0.5655    0.1646 C   0  0  0  0  0  0  0  0  0  0  0  0
   -1.1769    0.3747   -0.0223 C   0  0  0  0  0  0  0  0  0  0  0  0
   -3.7224    0.1186   -0.0714 C   0  0  0  0  0  0  0  0  0  0  0  0
    0.1598   -0.3334    0.2032 C   0  0  0  0  0  0  0  0  0  0  0  0
   -4.9040   -0.8249    0.0821 C   0  0  0  0  0  0  0  0  0  0  0  0
    1.3544    0.5798    0.0357 C   0  0  0  0  0  0  0  0  0  0  0  0
    3.7200    0.5824    0.0772 C   0  0  0  0  0  0  0  0  0  0  0  0
    4.8787   -0.3568    0.3269 C   0  0  0  0  0  0  0  0  0  0  0  0
  1  9  1  0
  2 12  1  0
  3 10  1  0
  3 11  1  0
  4 10  2  0
  5  6  1  0
  5  7  1  0
  6  8  1  0
  7  9  1  0
  8 10  1  0
 11 12  1  0
M  END
>  <PUBCHEM_COMPOUND_CID>  (1) 
9846

>  <PUBCHEM_CONFORMER_RMSD>  (1) 
0.8

>  <PUBCHEM_CONFORMER_DIVERSEORDER>  (1) 
1
243
412
152
361
65
399
95
369
104
401
179
85
73
78
184
56
18
237
403
64
48
374
366
256
363
39
268
305
51
392
312
416
263
316
169
14
352
323
411
79
364
8
212
348
249
173
28
413
385
96
200
106
196
394
414
303
10
128
334
354
176
320
239
381
311
410
89
137
233
365
3
370
171
300
407
248
117
13
296
82
387
298
9
61
375
110
12
25
376
19
397
189
404
222
338
153
126
107
358
389
294
313
172
146
99
162
384
340
76
132
205
91
52
118
341
373
265
116
308
164
409
93
160
220
250
408
11
143
335
400
103
247
218
380
227
193
406
22
58
135
38
388
379
362
272
124
177
87
377
66
378
245
269
318
260
230
210
415
33
386
157
396
122
72
371
84
102
405
310
337
94
321
31
127
223
356
289
307
90
229
302
367
130
339
15
216
36
154
349
359
83
113
283
182
55
16
372
206
92
214
134
100
391
43
398
60
299
271
50
306
123
114
382
174
17
136
5
166
131
336
395
138
402
351
120
255
235
68
23
282
2
286
204
35
77
280
121
304
70
244
225
101
266
258
332
57
187
261
208
195
347
40
284
279
141
139
159
238
108
360
326
291
6
186
53
145
158
346
7
129
188
236
4
234
290
342
350
328
331
194
183
59
45
343
62
254
219
327
142
241
240
75
54
314
34
27
246
24
209
148
309
47
111
167
333
253
115
147
221
275
355
383
344
277
228
270
20
287
165
21
29
86
345
252
109
161
140
185
144
213
324
88
295
41
74
232
150
191
63
368
211
37
149
276
32
273
151
170
175
133
357
125
353
97
242
69
26
202
281
226
192
231
44
292
390
112
80
317
217
278
259
293
190
180
199
330
257
315
201
168
319
329
30
325
197
215
46
181
301
274
207
322
81
393
264
267
105
156
297
285
203
71
155
42
49
119
262
163
251
67
98
178
288
224
198

>  <PUBCHEM_MMFF94_PARTIAL_CHARGES>  (1) 
9
1 -0.23
10 0.66
11 0.28
12 0.34
2 -0.34
3 -0.43
4 -0.57
8 0.06
9 0.23

>  <PUBCHEM_EFFECTIVE_ROTOR_COUNT>  (1) 
8

>  <PUBCHEM_PHARMACOPHORE_FEATURES>  (1) 
3
1 1 hydrophobe
1 4 acceptor
4 5 6 7 8 hydrophobe

>  <PUBCHEM_HEAVY_ATOM_COUNT>  (1) 
12

>  <PUBCHEM_ATOM_DEF_STEREO_COUNT>  (1) 
0

>  <PUBCHEM_ATOM_UDEF_STEREO_COUNT>  (1) 
0

>  <PUBCHEM_BOND_DEF_STEREO_COUNT>  (1) 
0

>  <PUBCHEM_BOND_UDEF_STEREO_COUNT>  (1) 
0

>  <PUBCHEM_ISOTOPIC_ATOM_COUNT>  (1) 
0

>  <PUBCHEM_COMPONENT_COUNT>  (1) 
1

>  <PUBCHEM_CACTVS_TAUTO_COUNT>  (1) 
1

>  <PUBCHEM_CONFORMER_ID>  (1) 
0000267600000001

>  <PUBCHEM_MMFF94_ENERGY>  (1) 
3.9875

>  <PUBCHEM_FEATURE_SELFOVERLAP>  (1) 
15.223

>  <PUBCHEM_SHAPE_FINGERPRINT>  (1) 
11287383 113 9583514326412673487
114248 4 9151176454708903239
11858739 19 18202566150668735823
13533116 47 16630531696112231158
13690532 89 18412263938934439194
14123238 8 11815900063534187411
1420 363 17821732745495320515
14251718 22 10665229255076939897
14251732 16 9439392537299202781
15242439 84 17894910750482293211
17834072 33 18339361967105531117
17834072 8 18334013886739918455
17834076 25 8502657008565799659
20279233 1 13758081839533805557
20605781 2 8934998170140724062
20621476 8 18336264540715155549
20645477 70 18412827963104795638
20767249 13 15626224628564455683
20767249 213 11312052162455846099
21354914 41 18186801387752273383
23218964 4 18335136488713030487
23402539 116 17917705817080898941
42 15 17989490722901340155
42788 4 18409165524305836241
57483677 66 18342454859313812455
8209 1 18410572889934790657

>  <PUBCHEM_SHAPE_MULTIPOLES>  (1) 
233.88
14.58
1.09
0.65
9.05
0.16
0
-2.52
0.76
-0.65
0.1
-0.01
-0.04
0.26

>  <PUBCHEM_SHAPE_SELFOVERLAP>  (1) 
415.998

>  <PUBCHEM_SHAPE_VOLUME>  (1) 
153.2

>  <PUBCHEM_COORDINATE_TYPE>  (1) 
2
5
10

$$$$
