9850
     RDKit          3D

  7  6  0  0  0  0  0  0  0  0999 V2000
    2.3240   -1.0976    0.3772 F   0  0  0  0  0  0  0  0  0  0  0  0
   -3.0294   -0.4274    0.1613 O   0  0  0  0  0  0  0  0  0  0  0  0
   -0.8434    0.1463   -0.4841 N   0  0  0  0  0  0  0  0  0  0  0  0
    1.3710    1.0271    0.0644 C   0  0  0  0  0  0  0  0  0  0  0  0
    0.0017    0.6336    0.6073 C   0  0  0  0  0  0  0  0  0  0  0  0
    2.1111   -0.1422   -0.5661 C   0  0  0  0  0  0  0  0  0  0  0  0
   -1.9350   -0.1398   -0.1600 C   0  0  0  0  0  0  0  0  0  0  0  0
  1  6  1  0
  2  7  2  0
  3  5  1  0
  3  7  2  0
  4  5  1  0
  4  6  1  0
M  END
>  <PUBCHEM_COMPOUND_CID>  (1) 
9850

>  <PUBCHEM_CONFORMER_RMSD>  (1) 
0.4

>  <PUBCHEM_CONFORMER_DIVERSEORDER>  (1) 
1
38
39
4
7
40
32
2
26
34
15
3
24
11
33
31
29
8
19
13
41
18
37
9
25
30
27
36
5
6
10
23
14
20
35
17
22
28
16
12
21

>  <PUBCHEM_MMFF94_PARTIAL_CHARGES>  (1) 
6
1 -0.34
2 -0.49
3 -0.55
5 0.25
6 0.34
7 0.79

>  <PUBCHEM_EFFECTIVE_ROTOR_COUNT>  (1) 
3

>  <PUBCHEM_PHARMACOPHORE_FEATURES>  (1) 
1
1 3 acceptor

>  <PUBCHEM_HEAVY_ATOM_COUNT>  (1) 
7

>  <PUBCHEM_ATOM_DEF_STEREO_COUNT>  (1) 
0

>  <PUBCHEM_ATOM_UDEF_STEREO_COUNT>  (1) 
0

>  <PUBCHEM_BOND_DEF_STEREO_COUNT>  (1) 
0

>  <PUBCHEM_BOND_UDEF_STEREO_COUNT>  (1) 
0

>  <PUBCHEM_ISOTOPIC_ATOM_COUNT>  (1) 
0

>  <PUBCHEM_COMPONENT_COUNT>  (1) 
1

>  <PUBCHEM_CACTVS_TAUTO_COUNT>  (1) 
1

>  <PUBCHEM_CONFORMER_ID>  (1) 
0000267A00000001

>  <PUBCHEM_MMFF94_ENERGY>  (1) 
2.0195

>  <PUBCHEM_FEATURE_SELFOVERLAP>  (1) 
5.074

>  <PUBCHEM_SHAPE_FINGERPRINT>  (1) 
14390081 3 11241970390865811719
23552333 60 18131357431405436936
23552449 11 18060410343963876064
29004967 10 18409729594718428608
5460574 1 10665218263680733413

>  <PUBCHEM_SHAPE_MULTIPOLES>  (1) 
125.93
3.95
0.96
0.73
1.67
0.06
0.01
-1.12
-0.02
-0.5
-0.1
-0.13
0
-0.1

>  <PUBCHEM_SHAPE_SELFOVERLAP>  (1) 
230.154

>  <PUBCHEM_SHAPE_VOLUME>  (1) 
79.1

>  <PUBCHEM_COORDINATE_TYPE>  (1) 
2
5
10

$$$$
