9853
     RDKit          3D

  8  7  0  0  0  0  0  0  0  0999 V2000
   -4.4543    0.6024   -0.1443 S   0  0  0  0  0  0  0  0  0  0  0  0
    3.4729    1.0224    0.3648 F   0  0  0  0  0  0  0  0  0  0  0  0
   -0.4775   -0.5836    0.1792 C   0  0  0  0  0  0  0  0  0  0  0  0
    0.8301    0.0882   -0.2463 C   0  0  0  0  0  0  0  0  0  0  0  0
   -1.7248    0.2397   -0.1614 C   0  0  0  0  0  0  0  0  0  0  0  0
    2.0347   -0.8077    0.0519 C   0  0  0  0  0  0  0  0  0  0  0  0
   -3.0216   -0.4264    0.2919 C   0  0  0  0  0  0  0  0  0  0  0  0
    3.3405   -0.1350   -0.3358 C   0  0  0  0  0  0  0  0  0  0  0  0
  1  7  1  0
  2  8  1  0
  3  4  1  0
  3  5  1  0
  4  6  1  0
  5  7  1  0
  6  8  1  0
M  END
>  <PUBCHEM_COMPOUND_CID>  (1) 
9853

>  <PUBCHEM_CONFORMER_RMSD>  (1) 
0.6

>  <PUBCHEM_CONFORMER_DIVERSEORDER>  (1) 
1
46
50
58
2
22
72
48
51
11
53
21
12
61
24
47
78
6
69
18
16
5
15
32
81
38
82
54
80
19
56
25
62
59
35
33
36
20
44
71
42
75
52
73
31
55
29
26
41
45
66
70
37
60
13
77
63
79
49
34
74
10
9
40
23
30
64
17
76
57
7
68
3
14
43
4
27
8
39
67
65
28

>  <PUBCHEM_MMFF94_PARTIAL_CHARGES>  (1) 
5
1 -0.41
2 -0.34
21 0.18
7 0.23
8 0.34

>  <PUBCHEM_EFFECTIVE_ROTOR_COUNT>  (1) 
5

>  <PUBCHEM_PHARMACOPHORE_FEATURES>  (1) 
1
4 3 4 5 6 hydrophobe

>  <PUBCHEM_HEAVY_ATOM_COUNT>  (1) 
8

>  <PUBCHEM_ATOM_DEF_STEREO_COUNT>  (1) 
0

>  <PUBCHEM_ATOM_UDEF_STEREO_COUNT>  (1) 
0

>  <PUBCHEM_BOND_DEF_STEREO_COUNT>  (1) 
0

>  <PUBCHEM_BOND_UDEF_STEREO_COUNT>  (1) 
0

>  <PUBCHEM_ISOTOPIC_ATOM_COUNT>  (1) 
0

>  <PUBCHEM_COMPONENT_COUNT>  (1) 
1

>  <PUBCHEM_CACTVS_TAUTO_COUNT>  (1) 
1

>  <PUBCHEM_CONFORMER_ID>  (1) 
0000267D00000001

>  <PUBCHEM_MMFF94_ENERGY>  (1) 
0.7295

>  <PUBCHEM_FEATURE_SELFOVERLAP>  (1) 
5.074

>  <PUBCHEM_SHAPE_FINGERPRINT>  (1) 
11062470 55 18410856551387465127
14325111 11 18409450280184133707
14390081 3 18411136939674185360
177051 138 8646771096839968393
17834076 25 17967818240610992743
18342897 14 16443349775330869845
190213 19 17132116840039413615
20645477 70 18201158732967794359
20719005 15 18409449180925557623
21293036 1 16415478255236481777
5460574 1 10447928360483634662

>  <PUBCHEM_SHAPE_MULTIPOLES>  (1) 
161.21
8.17
0.91
0.67
2.71
0.03
0.01
1.82
0.01
-0.17
-0.06
0
0.01
0.25

>  <PUBCHEM_SHAPE_SELFOVERLAP>  (1) 
272.619

>  <PUBCHEM_SHAPE_VOLUME>  (1) 
109.6

>  <PUBCHEM_COORDINATE_TYPE>  (1) 
2
5
10

$$$$
