9854
     RDKit          3D

  9  8  0  0  0  0  0  0  0  0999 V2000
   -3.9157   -1.1540    0.4011 F   0  0  0  0  0  0  0  0  0  0  0  0
   -0.1072    0.7464    0.1393 C   0  0  0  0  0  0  0  0  0  0  0  0
   -1.3597   -0.0315   -0.2696 C   0  0  0  0  0  0  0  0  0  0  0  0
    1.1634   -0.0672   -0.1292 C   0  0  0  0  0  0  0  0  0  0  0  0
   -2.6289    0.7634    0.0274 C   0  0  0  0  0  0  0  0  0  0  0  0
    2.4384    0.6650    0.2931 C   0  0  0  0  0  0  0  0  0  0  0  0
   -3.8786   -0.0154   -0.3419 C   0  0  0  0  0  0  0  0  0  0  0  0
    3.6485   -0.1305    0.0422 C   0  0  0  0  0  0  0  0  0  0  0  0
    4.6397   -0.7763   -0.1624 C   0  0  0  0  0  0  0  0  0  0  0  0
  1  7  1  0
  2  3  1  0
  2  4  1  0
  3  5  1  0
  4  6  1  0
  5  7  1  0
  6  8  1  0
  8  9  3  0
M  END
>  <PUBCHEM_COMPOUND_CID>  (1) 
9854

>  <PUBCHEM_CONFORMER_RMSD>  (1) 
0.6

>  <PUBCHEM_CONFORMER_DIVERSEORDER>  (1) 
2
74
18
68
8
51
75
47
1
69
65
21
3
70
40
6
60
72
27
67
34
71
15
58
10
64
19
32
38
12
26
49
73
35
61
31
16
59
23
43
46
20
45
30
41
29
4
50
52
66
7
42
5
54
39
48
14
28
9
55
17
33
22
24
53
11
57
56
37
13
25
36
62
44
63

>  <PUBCHEM_MMFF94_PARTIAL_CHARGES>  (1) 
6
1 -0.34
22 0.18
6 0.2
7 0.34
8 -0.2
9 -0.18

>  <PUBCHEM_EFFECTIVE_ROTOR_COUNT>  (1) 
5

>  <PUBCHEM_PHARMACOPHORE_FEATURES>  (1) 
3
1 9 hydrophobe
3 2 3 5 hydrophobe
3 4 6 8 hydrophobe

>  <PUBCHEM_HEAVY_ATOM_COUNT>  (1) 
9

>  <PUBCHEM_ATOM_DEF_STEREO_COUNT>  (1) 
0

>  <PUBCHEM_ATOM_UDEF_STEREO_COUNT>  (1) 
0

>  <PUBCHEM_BOND_DEF_STEREO_COUNT>  (1) 
0

>  <PUBCHEM_BOND_UDEF_STEREO_COUNT>  (1) 
0

>  <PUBCHEM_ISOTOPIC_ATOM_COUNT>  (1) 
0

>  <PUBCHEM_COMPONENT_COUNT>  (1) 
1

>  <PUBCHEM_CACTVS_TAUTO_COUNT>  (1) 
1

>  <PUBCHEM_CONFORMER_ID>  (1) 
0000267E00000002

>  <PUBCHEM_MMFF94_ENERGY>  (1) 
-0.2552

>  <PUBCHEM_FEATURE_SELFOVERLAP>  (1) 
15.252

>  <PUBCHEM_SHAPE_FINGERPRINT>  (1) 
11062470 55 9007056872496524612
11987891 38 18409450258767449450
12032990 46 18412265042693593936
12932764 1 17022888073760570652
14123238 8 17489585675637895692
14252887 29 17275108293557798526
14325111 11 18411980264887117096
177051 138 18410292531665414208
17834072 33 18260553372306113484
17834074 16 18412266125089123878
17834076 25 13839983300681607837
18342897 14 12031784769148531002
190213 19 18411133636680934312
1986462 14 18334294236472166445
20211469 26 18413387635639181417
20719005 15 18341894086739556902
20767249 213 11600008739412657971
21119208 17 16515404066533574638
21293036 1 15357698582866367596
22485316 2 18260261941146720002
23402655 69 12468635028045984706
42 15 18131914845119470732

>  <PUBCHEM_SHAPE_MULTIPOLES>  (1) 
177.94
9.36
0.95
0.65
1.52
0.04
0.01
2.74
0.04
-0.2
-0.07
-0.06
0.01
0.26

>  <PUBCHEM_SHAPE_SELFOVERLAP>  (1) 
318.35

>  <PUBCHEM_SHAPE_VOLUME>  (1) 
114.5

>  <PUBCHEM_COORDINATE_TYPE>  (1) 
2
5
10

$$$$
