9855
     RDKit          3D

  9  8  0  0  0  0  0  0  0  0999 V2000
   -4.0420    1.0256   -0.3760 F   0  0  0  0  0  0  0  0  0  0  0  0
    4.8567   -0.0681   -0.2113 O   0  0  0  0  0  0  0  0  0  0  0  0
   -0.0871   -0.5889   -0.1329 C   0  0  0  0  0  0  0  0  0  0  0  0
    1.1012    0.2913    0.2608 C   0  0  0  0  0  0  0  0  0  0  0  0
   -1.4126    0.0478    0.2918 C   0  0  0  0  0  0  0  0  0  0  0  0
    2.4564   -0.3061   -0.1350 C   0  0  0  0  0  0  0  0  0  0  0  0
   -2.6039   -0.8146   -0.1291 C   0  0  0  0  0  0  0  0  0  0  0  0
    3.6552    0.5836    0.1728 C   0  0  0  0  0  0  0  0  0  0  0  0
   -3.9239   -0.1705    0.2590 C   0  0  0  0  0  0  0  0  0  0  0  0
  1  9  1  0
  2  8  1  0
  3  4  1  0
  3  5  1  0
  4  6  1  0
  5  7  1  0
  6  8  1  0
  7  9  1  0
M  END
>  <PUBCHEM_COMPOUND_CID>  (1) 
9855

>  <PUBCHEM_CONFORMER_RMSD>  (1) 
0.6

>  <PUBCHEM_CONFORMER_DIVERSEORDER>  (1) 
1
77
155
4
161
165
166
84
136
23
2
156
38
135
159
168
63
8
149
67
178
43
47
163
109
72
12
114
130
15
157
53
75
46
176
41
167
3
50
152
71
111
91
83
30
150
99
6
65
112
92
121
22
58
181
51
18
117
66
142
7
126
171
11
182
133
151
16
81
48
59
134
131
25
10
172
21
89
119
36
128
179
73
35
76
88
24
180
70
14
144
68
174
64
125
34
153
90
120
29
110
146
86
93
132
169
19
162
44
60
170
127
20
33
175
145
164
137
82
129
107
52
27
177
148
96
56
39
17
154
80
113
173
5
140
106
124
87
141
28
158
101
143
118
13
79
139
123
105
9
147
62
26
102
37
103
78
160
69
61
42
97
54
95
104
55
98
100
32
74
122
57
115
40
45
85
138
94
31
108
49
116

>  <PUBCHEM_MMFF94_PARTIAL_CHARGES>  (1) 
5
1 -0.34
2 -0.68
24 0.4
8 0.28
9 0.34

>  <PUBCHEM_EFFECTIVE_ROTOR_COUNT>  (1) 
6

>  <PUBCHEM_PHARMACOPHORE_FEATURES>  (1) 
3
1 2 acceptor
1 2 donor
5 3 4 5 6 7 hydrophobe

>  <PUBCHEM_HEAVY_ATOM_COUNT>  (1) 
9

>  <PUBCHEM_ATOM_DEF_STEREO_COUNT>  (1) 
0

>  <PUBCHEM_ATOM_UDEF_STEREO_COUNT>  (1) 
0

>  <PUBCHEM_BOND_DEF_STEREO_COUNT>  (1) 
0

>  <PUBCHEM_BOND_UDEF_STEREO_COUNT>  (1) 
0

>  <PUBCHEM_ISOTOPIC_ATOM_COUNT>  (1) 
0

>  <PUBCHEM_COMPONENT_COUNT>  (1) 
1

>  <PUBCHEM_CACTVS_TAUTO_COUNT>  (1) 
1

>  <PUBCHEM_CONFORMER_ID>  (1) 
0000267F00000001

>  <PUBCHEM_MMFF94_ENERGY>  (1) 
-0.0375

>  <PUBCHEM_FEATURE_SELFOVERLAP>  (1) 
15.223

>  <PUBCHEM_SHAPE_FINGERPRINT>  (1) 
11062470 55 18408604768495212202
12932764 1 15502642866801773115
14123238 8 11241971486224740954
14325111 11 18412262852281501923
17834076 25 18410013238516259178
18342897 14 16732701649127092972
190213 19 17489310806189004498
20645477 70 17988366962099792790
20719005 15 18411982481026873379
20767249 213 17530962467656156029
21119208 17 17989488528283763238
22485316 2 18273493485735076054
23402539 116 18201431484812594412
42788 4 18408041827638088640

>  <PUBCHEM_SHAPE_MULTIPOLES>  (1) 
172.07
9.23
0.86
0.64
2.73
0.03
0.02
1.17
-0.51
-0.37
-0.05
-0.09
0.01
0.21

>  <PUBCHEM_SHAPE_SELFOVERLAP>  (1) 
302.314

>  <PUBCHEM_SHAPE_VOLUME>  (1) 
112.9

>  <PUBCHEM_COORDINATE_TYPE>  (1) 
2
5
10

$$$$
