9859
     RDKit          3D

 18 17  0  0  0  0  0  0  0  0999 V2000
   10.6394   -0.3335    0.0452 F   0  0  0  0  0  0  0  0  0  0  0  0
  -10.6207    0.2999   -0.0955 F   0  0  0  0  0  0  0  0  0  0  0  0
    0.6265   -0.4127    0.0018 C   0  0  0  0  0  0  0  0  0  0  0  0
   -0.6423    0.4397    0.0888 C   0  0  0  0  0  0  0  0  0  0  0  0
    1.9165    0.4144    0.0117 C   0  0  0  0  0  0  0  0  0  0  0  0
   -1.9318   -0.3882    0.0773 C   0  0  0  0  0  0  0  0  0  0  0  0
    3.1882   -0.4370    0.0028 C   0  0  0  0  0  0  0  0  0  0  0  0
   -3.2040    0.4623    0.0865 C   0  0  0  0  0  0  0  0  0  0  0  0
    4.4425    0.4415   -0.0176 C   0  0  0  0  0  0  0  0  0  0  0  0
   -4.4570   -0.4161    0.0516 C   0  0  0  0  0  0  0  0  0  0  0  0
    5.7135   -0.4091   -0.0635 C   0  0  0  0  0  0  0  0  0  0  0  0
   -5.7311    0.4317    0.0275 C   0  0  0  0  0  0  0  0  0  0  0  0
    7.0014    0.4200   -0.0782 C   0  0  0  0  0  0  0  0  0  0  0  0
   -6.9822   -0.4493    0.0253 C   0  0  0  0  0  0  0  0  0  0  0  0
    8.3049   -0.3787   -0.0648 C   0  0  0  0  0  0  0  0  0  0  0  0
   -8.2833    0.3472   -0.0672 C   0  0  0  0  0  0  0  0  0  0  0  0
    9.5521    0.4841    0.0099 C   0  0  0  0  0  0  0  0  0  0  0  0
   -9.5326   -0.5161   -0.0415 C   0  0  0  0  0  0  0  0  0  0  0  0
  1 17  1  0
  2 18  1  0
  3  4  1  0
  3  5  1  0
  4  6  1  0
  5  7  1  0
  6  8  1  0
  7  9  1  0
  8 10  1  0
  9 11  1  0
 10 12  1  0
 11 13  1  0
 12 14  1  0
 13 15  1  0
 14 16  1  0
 15 17  1  0
 16 18  1  0
M  END
>  <PUBCHEM_COMPOUND_CID>  (1) 
9859

>  <PUBCHEM_CONFORMER_RMSD>  (1) 
1.4

>  <PUBCHEM_CONFORMER_DIVERSEORDER>  (1) 
1
28
32
2
40
36
4
15
12
11
22
19
5
35
31
37
10
13
27
8
3
20
34
16
26
25
7
18
33
17
29
30
6
38
24
23
14
9
39
21

>  <PUBCHEM_MMFF94_PARTIAL_CHARGES>  (1) 
4
1 -0.34
17 0.34
18 0.34
2 -0.34

>  <PUBCHEM_EFFECTIVE_ROTOR_COUNT>  (1) 
15

>  <PUBCHEM_PHARMACOPHORE_FEATURES>  (1) 
0

>  <PUBCHEM_HEAVY_ATOM_COUNT>  (1) 
18

>  <PUBCHEM_ATOM_DEF_STEREO_COUNT>  (1) 
0

>  <PUBCHEM_ATOM_UDEF_STEREO_COUNT>  (1) 
0

>  <PUBCHEM_BOND_DEF_STEREO_COUNT>  (1) 
0

>  <PUBCHEM_BOND_UDEF_STEREO_COUNT>  (1) 
0

>  <PUBCHEM_ISOTOPIC_ATOM_COUNT>  (1) 
0

>  <PUBCHEM_COMPONENT_COUNT>  (1) 
1

>  <PUBCHEM_CACTVS_TAUTO_COUNT>  (1) 
1

>  <PUBCHEM_CONFORMER_ID>  (1) 
0000268300000001

>  <PUBCHEM_MMFF94_ENERGY>  (1) 
-1.5556

>  <PUBCHEM_FEATURE_SELFOVERLAP>  (1) 
0

>  <PUBCHEM_SHAPE_FINGERPRINT>  (1) 
14123256 10 18410856559639789575
14251764 46 18410573989446418438
14251920 1 18410855455833200995
15510794 2 18411142437032533246
232437 2 18411981364599243927
23521765 1 18341895194640646149
23581129 1 18409449189051203591
33684 2 18410292510180015242
67123 10 18410856568229724165
8209 1 18410575088958046208

>  <PUBCHEM_SHAPE_MULTIPOLES>  (1) 
355.88
40.93
0.78
0.61
0.82
0
0
-0.45
-1.04
-0.01
0
-0.01
0
0.02

>  <PUBCHEM_SHAPE_SELFOVERLAP>  (1) 
639.846

>  <PUBCHEM_SHAPE_VOLUME>  (1) 
229.1

>  <PUBCHEM_COORDINATE_TYPE>  (1) 
2
5
10

$$$$
