9874
     RDKit          3D

 19 18  0  0  0  0  0  0  0  0999 V2000
    0.8454   -1.8331    0.6825 F   0  0  0  0  0  0  0  0  0  0  0  0
   -0.8453   -1.8334   -0.6816 F   0  0  0  0  0  0  0  0  0  0  0  0
    1.4096   -1.1070   -1.8596 F   0  0  0  0  0  0  0  0  0  0  0  0
   -0.0394    0.5068   -1.7971 F   0  0  0  0  0  0  0  0  0  0  0  0
   -1.4095   -1.1059    1.8603 F   0  0  0  0  0  0  0  0  0  0  0  0
    0.0395    0.5079    1.7965 F   0  0  0  0  0  0  0  0  0  0  0  0
    3.0122    0.0089   -0.2206 O   0  0  0  0  0  0  0  0  0  0  0  0
   -3.0122    0.0090    0.2206 O   0  0  0  0  0  0  0  0  0  0  0  0
    1.6161    1.8387   -0.0502 O   0  0  0  0  0  0  0  0  0  0  0  0
   -1.6161    1.8386    0.0493 O   0  0  0  0  0  0  0  0  0  0  0  0
    0.0001   -1.0108    0.0002 C   0  0  0  0  0  0  0  0  0  0  0  0
    0.8086   -0.2180   -1.0179 C   0  0  0  0  0  0  0  0  0  0  0  0
   -0.8085   -0.2175    1.0179 C   0  0  0  0  0  0  0  0  0  0  0  0
    1.8370    0.6807   -0.3804 C   0  0  0  0  0  0  0  0  0  0  0  0
   -1.8370    0.6808    0.3799 C   0  0  0  0  0  0  0  0  0  0  0  0
    4.0684    0.7536    0.3937 C   0  0  0  0  0  0  0  0  0  0  0  0
   -4.0686    0.7534   -0.3940 C   0  0  0  0  0  0  0  0  0  0  0  0
    5.2958   -0.1262    0.4983 C   0  0  0  0  0  0  0  0  0  0  0  0
   -5.2960   -0.1265   -0.4979 C   0  0  0  0  0  0  0  0  0  0  0  0
  1 11  1  0
  2 11  1  0
  3 12  1  0
  4 12  1  0
  5 13  1  0
  6 13  1  0
  7 14  1  0
  7 16  1  0
  8 15  1  0
  8 17  1  0
  9 14  2  0
 10 15  2  0
 11 12  1  0
 11 13  1  0
 12 14  1  0
 13 15  1  0
 16 18  1  0
 17 19  1  0
M  END
>  <PUBCHEM_COMPOUND_CID>  (1) 
9874

>  <PUBCHEM_CONFORMER_RMSD>  (1) 
0.8

>  <PUBCHEM_CONFORMER_DIVERSEORDER>  (1) 
1
8
18
4
17
41
70
73
23
69
19
3
10
33
51
46
68
52
34
64
27
14
37
62
29
57
2
74
55
40
35
16
22
45
39
13
30
54
32
28
75
67
42
76
47
56
38
61
50
77
5
53
63
12
20
49
60
58
59
25
48
36
21
26
72
9
65
66
15
24
31
71
7
11
44
6
43

>  <PUBCHEM_MMFF94_PARTIAL_CHARGES>  (1) 
17
1 -0.34
10 -0.57
11 0.68
12 0.74
13 0.74
14 0.66
15 0.66
16 0.28
17 0.28
2 -0.34
3 -0.34
4 -0.34
5 -0.34
6 -0.34
7 -0.43
8 -0.43
9 -0.57

>  <PUBCHEM_EFFECTIVE_ROTOR_COUNT>  (1) 
8

>  <PUBCHEM_PHARMACOPHORE_FEATURES>  (1) 
2
1 10 acceptor
1 9 acceptor

>  <PUBCHEM_HEAVY_ATOM_COUNT>  (1) 
19

>  <PUBCHEM_ATOM_DEF_STEREO_COUNT>  (1) 
0

>  <PUBCHEM_ATOM_UDEF_STEREO_COUNT>  (1) 
0

>  <PUBCHEM_BOND_DEF_STEREO_COUNT>  (1) 
0

>  <PUBCHEM_BOND_UDEF_STEREO_COUNT>  (1) 
0

>  <PUBCHEM_ISOTOPIC_ATOM_COUNT>  (1) 
0

>  <PUBCHEM_COMPONENT_COUNT>  (1) 
1

>  <PUBCHEM_CACTVS_TAUTO_COUNT>  (1) 
1

>  <PUBCHEM_CONFORMER_ID>  (1) 
0000269200000001

>  <PUBCHEM_MMFF94_ENERGY>  (1) 
11.6856

>  <PUBCHEM_FEATURE_SELFOVERLAP>  (1) 
10.149

>  <PUBCHEM_SHAPE_FINGERPRINT>  (1) 
12011746 2 18113336388681683716
12119455 92 18334006190179499758
124424 183 18260271858432116760
12592029 89 18060135406280999662
13464513 79 13614227214270700677
13571099 52 18128266600950873024
15207287 21 18410860957686333153
15852999 172 17894923914209240395
16945 1 18338819856322821862
17862501 102 18334851714684595361
18511873 20 15719116880683832836
187816 3 16773797012938262352
192875 21 18410578400441888488
200 152 16845575305094714749
20344682 1 17917991680997455285
23402539 116 18412818097348431085
23557571 272 18201719514342396025
23559900 14 18041283266042762616
265663 24 18410852161598559718
351380 180 18411415116074204496
57426455 19 14764346054594361348
69090 78 18202843266385334310

>  <PUBCHEM_SHAPE_MULTIPOLES>  (1) 
323.89
8.02
1.46
1.35
0
0.09
0
-1.27
0
0
0
0
0.28
0.18

>  <PUBCHEM_SHAPE_SELFOVERLAP>  (1) 
657.617

>  <PUBCHEM_SHAPE_VOLUME>  (1) 
186.9

>  <PUBCHEM_COORDINATE_TYPE>  (1) 
2
5
10

$$$$
