9875
     RDKit          3D

 29 32  0  0  1  0  0  0  0  0999 V2000
    3.7129    3.4074    0.2501 Cl  0  0  0  0  0  0  0  0  0  0  0  0
   -3.9310   -0.5543   -0.9363 O   0  0  0  0  0  0  0  0  0  0  0  0
   -3.1933   -0.0164    2.3361 O   0  0  0  0  0  0  0  0  0  0  0  0
    6.8524   -0.5326   -1.0750 O   0  0  0  0  0  0  0  0  0  0  0  0
   -5.5743    0.5468    0.2571 O   0  0  0  0  0  0  0  0  0  0  0  0
   -1.4711   -0.4463   -0.4525 C   0  0  0  0  0  0  0  0  0  0  0  0
   -0.6383    0.8622   -0.2239 C   0  0  0  0  0  0  0  0  0  0  0  0
    0.7041    0.6473    0.5251 C   0  0  0  0  0  0  0  0  0  0  0  0
   -2.9398   -0.0617   -0.0453 C   0  0  0  0  0  0  0  0  0  0  0  0
    1.4346   -0.5790   -0.0626 C   0  0  0  0  0  0  0  0  0  0  0  0
   -1.5756    1.8260    0.5217 C   0  0  0  0  0  0  0  0  0  0  0  0
   -2.9785    1.4771    0.0279 C   0  0  0  0  0  0  0  0  0  0  0  0
   -0.8881   -1.6049    0.3920 C   0  0  0  0  0  0  0  0  0  0  0  0
    0.6050   -1.8640    0.1559 C   0  0  0  0  0  0  0  0  0  0  0  0
    2.9329   -0.6766    0.3946 C   0  0  0  0  0  0  0  0  0  0  0  0
   -1.4022   -0.8566   -1.9455 C   0  0  0  0  0  0  0  0  0  0  0  0
    1.5710    1.8802    0.4804 C   0  0  0  0  0  0  0  0  0  0  0  0
    3.6548    0.6345    0.0191 C   0  0  0  0  0  0  0  0  0  0  0  0
   -3.3832   -0.6234    1.2833 C   0  0  0  0  0  0  0  0  0  0  0  0
    3.5883   -1.8763   -0.3436 C   0  0  0  0  0  0  0  0  0  0  0  0
   -3.3159    2.1794   -1.2882 C   0  0  0  0  0  0  0  0  0  0  0  0
    3.0653   -0.8807    1.9237 C   0  0  0  0  0  0  0  0  0  0  0  0
    2.8910    1.8709    0.2289 C   0  0  0  0  0  0  0  0  0  0  0  0
    5.1014   -1.9092   -0.2093 C   0  0  0  0  0  0  0  0  0  0  0  0
    4.9066    0.6418   -0.4784 C   0  0  0  0  0  0  0  0  0  0  0  0
   -4.0714   -1.9613    1.2567 C   0  0  0  0  0  0  0  0  0  0  0  0
    5.7028   -0.5999   -0.6426 C   0  0  0  0  0  0  0  0  0  0  0  0
   -5.2148   -0.1701   -0.6670 C   0  0  0  0  0  0  0  0  0  0  0  0
   -6.1456   -0.7603   -1.6825 C   0  0  0  0  0  0  0  0  0  0  0  0
  1 23  1  0
  2  9  1  0
  2 28  1  0
  3 19  2  0
  4 27  2  0
  5 28  2  0
  6  7  1  0
  6  9  1  0
  6 13  1  0
  6 16  1  0
  7  8  1  0
  7 11  1  0
  8 10  1  0
  8 17  1  0
  9 12  1  0
  9 19  1  0
 10 14  1  0
 10 15  1  0
 11 12  1  0
 12 21  1  0
 13 14  1  0
 15 18  1  0
 15 20  1  0
 15 22  1  0
 17 23  2  0
 18 23  1  0
 18 25  2  0
 19 26  1  0
 20 24  1  0
 24 27  1  0
 25 27  1  0
 28 29  1  0
M  END
>  <PUBCHEM_COMPOUND_CID>  (1) 
9875

>  <PUBCHEM_CONFORMER_RMSD>  (1) 
0.8

>  <PUBCHEM_CONFORMER_DIVERSEORDER>  (1) 
2
22
13
5
25
19
16
7
17
3
14
8
18
12
21
6
20
9
1
24
23
10
15
11
4

>  <PUBCHEM_MMFF94_PARTIAL_CHARGES>  (1) 
20
1 -0.14
15 0.14
17 -0.29
18 -0.14
19 0.45
2 -0.43
23 0.14
24 0.06
25 -0.14
26 0.06
27 0.49
28 0.66
29 0.06
3 -0.57
4 -0.57
43 0.15
5 -0.57
54 0.15
8 0.14
9 0.34

>  <PUBCHEM_EFFECTIVE_ROTOR_COUNT>  (1) 
4.4

>  <PUBCHEM_PHARMACOPHORE_FEATURES>  (1) 
7
1 3 acceptor
1 4 acceptor
1 5 acceptor
5 6 7 9 11 12 rings
6 15 18 20 24 25 27 rings
6 6 7 8 10 13 14 rings
6 8 10 15 17 18 23 rings

>  <PUBCHEM_HEAVY_ATOM_COUNT>  (1) 
29

>  <PUBCHEM_ATOM_DEF_STEREO_COUNT>  (1) 
4

>  <PUBCHEM_ATOM_UDEF_STEREO_COUNT>  (1) 
3

>  <PUBCHEM_BOND_DEF_STEREO_COUNT>  (1) 
0

>  <PUBCHEM_BOND_UDEF_STEREO_COUNT>  (1) 
0

>  <PUBCHEM_ISOTOPIC_ATOM_COUNT>  (1) 
0

>  <PUBCHEM_COMPONENT_COUNT>  (1) 
1

>  <PUBCHEM_CACTVS_TAUTO_COUNT>  (1) 
4

>  <PUBCHEM_CONFORMER_ID>  (1) 
0000269300000002

>  <PUBCHEM_MMFF94_ENERGY>  (1) 
106.8278

>  <PUBCHEM_FEATURE_SELFOVERLAP>  (1) 
35.625

>  <PUBCHEM_SHAPE_FINGERPRINT>  (1) 
10366900 7 18113615664439888649
11045977 3 18259989305186597275
11315181 36 17749115491084883990
12011746 2 18260828202625538575
12107698 1 18343017774722599884
12166972 35 17774999102609115585
12236239 1 17632577166829758673
12403259 415 18259977167677844085
12596602 18 16630519656901961146
12788726 201 18261385586438968825
13224815 77 18334855021714506841
13533116 47 18059288867831436024
13583140 156 18335424551563074223
13782708 43 18113616781042358011
14294032 229 16342315558246156865
14341114 176 18333739013259739121
15196674 1 18412260601787243060
15788980 27 18342176652769829566
17349148 13 16917063369400152373
17844677 252 18342461430582146236
1813 80 18059867112832882900
18222031 100 18272925020890607538
18608769 82 18188779473479497378
18681886 176 18272926133761780448
200 152 18060133246112506955
20028762 73 17988917873112385454
20612939 158 18341334487240772420
20645477 70 18411129260330942276
21033648 29 17822560677118312653
21267235 1 18343025492657316559
21424621 283 16661758862060970165
21682296 61 18058458612262333422
21792961 116 18188497870418730278
221357 26 18411695474259087604
221490 88 18409453604789481912
22393880 68 18187078442849005392
23522609 53 17986701274803321600
23559900 14 18113336435778728217
23569914 152 17473797564884218015
23569943 247 17272026268013760334
300161 21 15647051560015817170
3004659 81 18410849966944462280
335352 9 18412827975519829021
34797466 226 16443360762110673902
350125 39 18410295787245785116
3633792 109 18343012298950689637
4015057 19 18338512045340369121
5104073 3 18410572868623849216
59755656 215 18261390022870705407
9709674 26 18409164424192912809

>  <PUBCHEM_SHAPE_MULTIPOLES>  (1) 
575.2
13.45
2.52
1.44
1.9
1.41
0.2
-2.34
-3.63
1.82
0.17
-1.23
-0.35
0.66

>  <PUBCHEM_SHAPE_SELFOVERLAP>  (1) 
1234.463

>  <PUBCHEM_SHAPE_VOLUME>  (1) 
317.1

>  <PUBCHEM_COORDINATE_TYPE>  (1) 
2
5
10

$$$$
