9881
     RDKit          3D

 10  9  0  0  0  0  0  0  0  0999 V2000
   -1.0884   -1.4473   -0.7982 F   0  0  0  0  0  0  0  0  0  0  0  0
   -0.5104    0.4840   -1.6557 F   0  0  0  0  0  0  0  0  0  0  0  0
    1.6639    0.6554   -0.2103 O   0  0  0  0  0  0  0  0  0  0  0  0
    1.2336   -1.4077    0.7289 O   0  0  0  0  0  0  0  0  0  0  0  0
   -1.3910    1.6571    0.3870 O   0  0  0  0  0  0  0  0  0  0  0  0
   -1.9753   -0.2838    1.2427 O   0  0  0  0  0  0  0  0  0  0  0  0
   -1.3530    0.4209    0.4376 N   0  0  0  0  0  0  0  0  0  0  0  0
   -0.4590   -0.2775   -0.5378 C   0  0  0  0  0  0  0  0  0  0  0  0
    0.8951   -0.4359    0.0652 C   0  0  0  0  0  0  0  0  0  0  0  0
    2.9845    0.6348    0.3407 C   0  0  0  0  0  0  0  0  0  0  0  0
  1  8  1  0
  2  8  1  0
  3  9  1  0
  3 10  1  0
  4  9  2  0
  5  7  1  0
  6  7  2  0
  7  8  1  0
  8  9  1  0
M  CHG  2   5  -1   7   1
M  END
>  <PUBCHEM_COMPOUND_CID>  (1) 
9881

>  <PUBCHEM_CONFORMER_RMSD>  (1) 
0.6

>  <PUBCHEM_CONFORMER_DIVERSEORDER>  (1) 
1
8
7
9
3
6
10
2
4
5

>  <PUBCHEM_MMFF94_PARTIAL_CHARGES>  (1) 
10
1 -0.34
10 0.28
2 -0.34
3 -0.43
4 -0.57
5 -0.52
6 -0.52
7 0.8
8 0.98
9 0.66

>  <PUBCHEM_EFFECTIVE_ROTOR_COUNT>  (1) 
3

>  <PUBCHEM_PHARMACOPHORE_FEATURES>  (1) 
4
1 4 acceptor
1 5 acceptor
1 5 anion
1 6 acceptor

>  <PUBCHEM_HEAVY_ATOM_COUNT>  (1) 
10

>  <PUBCHEM_ATOM_DEF_STEREO_COUNT>  (1) 
0

>  <PUBCHEM_ATOM_UDEF_STEREO_COUNT>  (1) 
0

>  <PUBCHEM_BOND_DEF_STEREO_COUNT>  (1) 
0

>  <PUBCHEM_BOND_UDEF_STEREO_COUNT>  (1) 
0

>  <PUBCHEM_ISOTOPIC_ATOM_COUNT>  (1) 
0

>  <PUBCHEM_COMPONENT_COUNT>  (1) 
1

>  <PUBCHEM_CACTVS_TAUTO_COUNT>  (1) 
1

>  <PUBCHEM_CONFORMER_ID>  (1) 
0000269900000001

>  <PUBCHEM_MMFF94_ENERGY>  (1) 
13.61

>  <PUBCHEM_FEATURE_SELFOVERLAP>  (1) 
20.377

>  <PUBCHEM_SHAPE_FINGERPRINT>  (1) 
15310529 11 16916789664435836132
20653085 51 17202784720600612560
21040471 1 17774154587494940098
21922407 69 18339908372945284978
24536 1 18264469716295858762
29004967 10 17095527326439414315
369184 2 18271235123190088160

>  <PUBCHEM_SHAPE_MULTIPOLES>  (1) 
162.79
2.98
1.3
1.09
2.02
0.02
0.2
-0.71
-0.76
-0.23
-0.08
-0.43
0.04
-0.22

>  <PUBCHEM_SHAPE_SELFOVERLAP>  (1) 
319.688

>  <PUBCHEM_SHAPE_VOLUME>  (1) 
98.3

>  <PUBCHEM_COORDINATE_TYPE>  (1) 
2
5
10

$$$$
