9882
     RDKit          3D

 16 17  0  0  1  0  0  0  0  0999 V2000
    3.9951    0.0315    1.4116 O   0  0  0  0  0  0  0  0  0  0  0  0
   -3.0611    0.5606   -0.0303 N   0  0  0  0  0  0  0  0  0  0  0  0
   -0.7915    0.0380    0.2919 C   0  0  0  0  0  0  0  0  0  0  0  0
   -1.2747    0.8772    1.5022 C   0  0  0  0  0  0  0  0  0  0  0  0
   -1.8106    0.4663   -0.7854 C   0  0  0  0  0  0  0  0  0  0  0  0
   -0.9457   -1.4691    0.6046 C   0  0  0  0  0  0  0  0  0  0  0  0
   -2.7232    1.2702    1.2015 C   0  0  0  0  0  0  0  0  0  0  0  0
    0.6676    0.2918   -0.0815 C   0  0  0  0  0  0  0  0  0  0  0  0
   -0.5379   -2.3204   -0.5903 C   0  0  0  0  0  0  0  0  0  0  0  0
   -4.1240    1.2106   -0.7806 C   0  0  0  0  0  0  0  0  0  0  0  0
    1.6758    0.0430    0.8477 C   0  0  0  0  0  0  0  0  0  0  0  0
    0.9865    0.7709   -1.3506 C   0  0  0  0  0  0  0  0  0  0  0  0
   -0.7133   -3.8007   -0.2915 C   0  0  0  0  0  0  0  0  0  0  0  0
    3.0084    0.2743    0.5063 C   0  0  0  0  0  0  0  0  0  0  0  0
    2.3189    1.0021   -1.6920 C   0  0  0  0  0  0  0  0  0  0  0  0
    3.3298    0.7537   -0.7636 C   0  0  0  0  0  0  0  0  0  0  0  0
  1 14  1  0
  2  5  1  0
  2  7  1  0
  2 10  1  0
  3  4  1  0
  3  5  1  0
  3  6  1  0
  3  8  1  0
  4  7  1  0
  6  9  1  0
  8 11  2  0
  8 12  1  0
  9 13  1  0
 11 14  1  0
 12 15  2  0
 14 16  2  0
 15 16  1  0
M  END
>  <PUBCHEM_COMPOUND_CID>  (1) 
9882

>  <PUBCHEM_CONFORMER_RMSD>  (1) 
0.6

>  <PUBCHEM_CONFORMER_DIVERSEORDER>  (1) 
1
25
31
26
21
16
14
17
20
29
8
10
5
24
9
23
13
28
11
12
19
15
2
30
32
4
3
18
22
27
6
7

>  <PUBCHEM_MMFF94_PARTIAL_CHARGES>  (1) 
17
1 -0.53
10 0.27
11 -0.15
12 -0.15
14 0.08
15 -0.15
16 -0.15
2 -0.81
3 0.14
30 0.15
31 0.15
35 0.15
36 0.15
37 0.45
5 0.27
7 0.27
8 -0.14

>  <PUBCHEM_EFFECTIVE_ROTOR_COUNT>  (1) 
4

>  <PUBCHEM_PHARMACOPHORE_FEATURES>  (1) 
5
1 1 donor
1 13 hydrophobe
1 2 cation
5 2 3 4 5 7 rings
6 8 11 12 14 15 16 rings

>  <PUBCHEM_HEAVY_ATOM_COUNT>  (1) 
16

>  <PUBCHEM_ATOM_DEF_STEREO_COUNT>  (1) 
0

>  <PUBCHEM_ATOM_UDEF_STEREO_COUNT>  (1) 
1

>  <PUBCHEM_BOND_DEF_STEREO_COUNT>  (1) 
0

>  <PUBCHEM_BOND_UDEF_STEREO_COUNT>  (1) 
0

>  <PUBCHEM_ISOTOPIC_ATOM_COUNT>  (1) 
0

>  <PUBCHEM_COMPONENT_COUNT>  (1) 
1

>  <PUBCHEM_CACTVS_TAUTO_COUNT>  (1) 
3

>  <PUBCHEM_CONFORMER_ID>  (1) 
0000269A00000001

>  <PUBCHEM_MMFF94_ENERGY>  (1) 
48.1056

>  <PUBCHEM_FEATURE_SELFOVERLAP>  (1) 
25.371

>  <PUBCHEM_SHAPE_FINGERPRINT>  (1) 
11578080 2 17683490172929193317
12119455 92 18040987411156511221
12138202 97 18271253814592452438
121448 382 18202272624546529375
12500047 106 18341332275327015478
12592029 89 18041278768879350411
12788726 201 18048321342339436274
13294875 104 17052758265787316944
13538477 17 18335705008922588576
14115302 16 18411981381989966856
14181834 199 17980196392393508919
14617773 55 17898851519983056766
14817 1 15793978048994779543
15207287 21 17561358478826040038
15309172 13 18335712619499233009
15669948 3 18191596452228830118
15775835 57 18041007270763690460
15852999 172 18201445769932070790
15906896 17 18042695072873701227
16752209 62 18266173010263592415
16945 1 18200887252242291904
18186145 218 18059585641513206061
18534176 82 17916880139092118164
19868273 293 18334581273405021660
20645476 183 18261961837489049446
21524375 3 18259983760626235657
23184049 59 18042115479947842330
23402539 116 17917413337712433453
23419403 2 16340305912498868035
23557571 272 17913775187249263536
23559900 14 18130517401023414260
23598291 2 17749389308208895398
25610 137 12823292411842622313
2748010 2 18266766634783673639
305870 269 18126291843812884257
3071541 236 18342176716899284131
3250762 1 17623835126287670689
5845 1 12685942617781602703
633830 44 17846511283393432929
69090 78 18187638124284841653
6992083 37 18186795902915506318
7364860 26 17839463289305103131
74978 22 18339932626926402652
7615 1 17898003779638755356
77492 1 18041283274146926288
81228 2 17982742058143539251
81539 233 18262514772132526959
84936 31 18051968126388049727
88987 49 18268434705834291540
90525 40 18188782750223013374

>  <PUBCHEM_SHAPE_MULTIPOLES>  (1) 
318.42
5.77
2.46
1.47
0.84
4.05
-0.02
-3.32
-0.1
-1.49
0.46
0.47
-0.5
-0.47

>  <PUBCHEM_SHAPE_SELFOVERLAP>  (1) 
662.291

>  <PUBCHEM_SHAPE_VOLUME>  (1) 
184.8

>  <PUBCHEM_COORDINATE_TYPE>  (1) 
2
5
10

$$$$
