9889
     RDKit          3D

  5  4  0  0  0  0  0  0  0  0999 V2000
   -1.8947    0.0109    0.0046 F   0  0  0  0  0  0  0  0  0  0  0  0
    0.4160    1.3133   -0.0012 O   0  0  0  0  0  0  0  0  0  0  0  0
    0.4695    0.0846   -0.0017 C   0  0  0  0  0  0  0  0  0  0  0  0
   -0.7749   -0.7613   -0.0051 C   0  0  0  0  0  0  0  0  0  0  0  0
    1.7841   -0.6475    0.0034 C   0  0  0  0  0  0  0  0  0  0  0  0
  1  4  1  0
  2  3  2  0
  3  4  1  0
  3  5  1  0
M  END
>  <PUBCHEM_COMPOUND_CID>  (1) 
9889

>  <PUBCHEM_CONFORMER_RMSD>  (1) 
0.4

>  <PUBCHEM_CONFORMER_DIVERSEORDER>  (1) 
1
2
3

>  <PUBCHEM_MMFF94_PARTIAL_CHARGES>  (1) 
5
1 -0.34
2 -0.57
3 0.45
4 0.4
5 0.06

>  <PUBCHEM_EFFECTIVE_ROTOR_COUNT>  (1) 
1

>  <PUBCHEM_PHARMACOPHORE_FEATURES>  (1) 
1
1 2 acceptor

>  <PUBCHEM_HEAVY_ATOM_COUNT>  (1) 
5

>  <PUBCHEM_ATOM_DEF_STEREO_COUNT>  (1) 
0

>  <PUBCHEM_ATOM_UDEF_STEREO_COUNT>  (1) 
0

>  <PUBCHEM_BOND_DEF_STEREO_COUNT>  (1) 
0

>  <PUBCHEM_BOND_UDEF_STEREO_COUNT>  (1) 
0

>  <PUBCHEM_ISOTOPIC_ATOM_COUNT>  (1) 
0

>  <PUBCHEM_COMPONENT_COUNT>  (1) 
1

>  <PUBCHEM_CACTVS_TAUTO_COUNT>  (1) 
3

>  <PUBCHEM_CONFORMER_ID>  (1) 
000026A100000001

>  <PUBCHEM_MMFF94_ENERGY>  (1) 
1.0064

>  <PUBCHEM_FEATURE_SELFOVERLAP>  (1) 
5.074

>  <PUBCHEM_SHAPE_FINGERPRINT>  (1) 
139733 1 9295282841974906338
16714656 1 18340775823369151086
20096714 4 18267588098733764329
21015797 1 9653276139918668882
29004967 10 18408046208104005562
5460574 1 9223231849132985251
5943 1 12129849360615227988

>  <PUBCHEM_SHAPE_MULTIPOLES>  (1) 
89.75
2.04
1.08
0.57
0.18
0.26
0
-0.44
0
-0.13
0
-0.04
-0.03
0

>  <PUBCHEM_SHAPE_SELFOVERLAP>  (1) 
157.656

>  <PUBCHEM_SHAPE_VOLUME>  (1) 
59.3

>  <PUBCHEM_COORDINATE_TYPE>  (1) 
2
5
10

$$$$
