989
     RDKit          3D

  9  9  0  0  1  0  0  0  0  0999 V2000
   -0.9227    1.4417   -0.0551 O   0  0  0  0  0  0  0  0  0  0  0  0
   -0.2160   -2.0015    0.0072 O   0  0  0  0  0  0  0  0  0  0  0  0
   -2.4770   -0.2479   -0.0734 O   0  0  0  0  0  0  0  0  0  0  0  0
    1.0202    0.1156   -0.0038 C   0  0  0  0  0  0  0  0  0  0  0  0
   -0.1594   -0.6975    0.5250 C   0  0  0  0  0  0  0  0  0  0  0  0
    0.4892    1.5314    0.1928 C   0  0  0  0  0  0  0  0  0  0  0  0
    2.2978   -0.1286    0.8005 C   0  0  0  0  0  0  0  0  0  0  0  0
    1.3023   -0.1578   -1.4929 C   0  0  0  0  0  0  0  0  0  0  0  0
   -1.3344    0.1448    0.0998 C   0  0  0  0  0  0  0  0  0  0  0  0
  1  6  1  0
  1  9  1  0
  2  5  1  0
  3  9  2  0
  4  5  1  0
  4  6  1  0
  4  7  1  0
  4  8  1  0
  5  9  1  0
M  END
>  <PUBCHEM_COMPOUND_CID>  (1) 
989

>  <PUBCHEM_CONFORMER_RMSD>  (1) 
0.4

>  <PUBCHEM_CONFORMER_DIVERSEORDER>  (1) 
3
2
1
4

>  <PUBCHEM_MMFF94_PARTIAL_CHARGES>  (1) 
7
1 -0.43
19 0.4
2 -0.68
3 -0.57
5 0.34
6 0.28
9 0.66

>  <PUBCHEM_EFFECTIVE_ROTOR_COUNT>  (1) 
0.8

>  <PUBCHEM_PHARMACOPHORE_FEATURES>  (1) 
5
1 2 acceptor
1 2 donor
1 3 acceptor
3 4 7 8 hydrophobe
5 1 4 5 6 9 rings

>  <PUBCHEM_HEAVY_ATOM_COUNT>  (1) 
9

>  <PUBCHEM_ATOM_DEF_STEREO_COUNT>  (1) 
0

>  <PUBCHEM_ATOM_UDEF_STEREO_COUNT>  (1) 
1

>  <PUBCHEM_BOND_DEF_STEREO_COUNT>  (1) 
0

>  <PUBCHEM_BOND_UDEF_STEREO_COUNT>  (1) 
0

>  <PUBCHEM_ISOTOPIC_ATOM_COUNT>  (1) 
0

>  <PUBCHEM_COMPONENT_COUNT>  (1) 
1

>  <PUBCHEM_CACTVS_TAUTO_COUNT>  (1) 
3

>  <PUBCHEM_CONFORMER_ID>  (1) 
000003DD00000003

>  <PUBCHEM_MMFF94_ENERGY>  (1) 
16.015

>  <PUBCHEM_FEATURE_SELFOVERLAP>  (1) 
25.374

>  <PUBCHEM_SHAPE_FINGERPRINT>  (1) 
12423570 1 7850136469974839684
137420 1 17621595438096909854
16945 1 18340474668778352656
18185500 45 18115302405466058826
21040471 1 18409172107852436539
23552423 10 17971764263431804714
24536 1 17558012763516033922
29004967 10 16559033770271276674
5084963 1 18059850649679950752

>  <PUBCHEM_SHAPE_MULTIPOLES>  (1) 
167.61
2.42
1.48
0.98
0.37
0.08
-0.32
0.1
0.18
0.19
0.07
-0.53
0.08
0.04

>  <PUBCHEM_SHAPE_SELFOVERLAP>  (1) 
339.363

>  <PUBCHEM_SHAPE_VOLUME>  (1) 
101.1

>  <PUBCHEM_COORDINATE_TYPE>  (1) 
2
5
10

$$$$
