9896
     RDKit          3D

 22 25  0  0  1  0  0  0  0  0999 V2000
   -3.5843   -1.7718    0.6128 O   0  0  0  0  0  0  0  0  0  0  0  0
   -1.6666   -0.7399   -0.5298 C   0  0  0  0  0  0  0  0  0  0  0  0
   -0.9940    0.6420   -0.3614 C   0  0  0  0  0  0  0  0  0  0  0  0
    0.5128    0.6556   -0.6891 C   0  0  0  0  0  0  0  0  0  0  0  0
    1.3081   -0.4556    0.0376 C   0  0  0  0  0  0  0  0  0  0  0  0
   -3.0259   -0.5242    0.2095 C   0  0  0  0  0  0  0  0  0  0  0  0
   -0.8204   -1.8480    0.1557 C   0  0  0  0  0  0  0  0  0  0  0  0
   -1.3667    1.0747    1.0684 C   0  0  0  0  0  0  0  0  0  0  0  0
    0.6601   -1.8256   -0.2257 C   0  0  0  0  0  0  0  0  0  0  0  0
   -2.6353    0.3040    1.4457 C   0  0  0  0  0  0  0  0  0  0  0  0
    2.8129   -0.4342   -0.3730 C   0  0  0  0  0  0  0  0  0  0  0  0
    1.1372    2.0341   -0.4189 C   0  0  0  0  0  0  0  0  0  0  0  0
   -1.8520   -1.1046   -2.0141 C   0  0  0  0  0  0  0  0  0  0  0  0
    2.5923    2.0756   -0.8719 C   0  0  0  0  0  0  0  0  0  0  0  0
    3.3949    0.9664   -0.2458 C   0  0  0  0  0  0  0  0  0  0  0  0
   -4.1018    0.2127   -0.6012 C   0  0  0  0  0  0  0  0  0  0  0  0
    3.6172   -1.4821    0.4309 C   0  0  0  0  0  0  0  0  0  0  0  0
    5.1192   -1.2333    0.3639 C   0  0  0  0  0  0  0  0  0  0  0  0
    4.5690    1.2159    0.3600 C   0  0  0  0  0  0  0  0  0  0  0  0
    5.4633    0.1487    0.9099 C   0  0  0  0  0  0  0  0  0  0  0  0
   -5.3275    0.4388    0.2219 C   0  0  0  0  0  0  0  0  0  0  0  0
   -5.8125    1.6507    0.5147 C   0  0  0  0  0  0  0  0  0  0  0  0
  1  6  1  0
  2  3  1  0
  2  6  1  0
  2  7  1  0
  2 13  1  0
  3  4  1  0
  3  8  1  0
  4  5  1  0
  4 12  1  0
  5  9  1  0
  5 11  1  0
  6 10  1  0
  6 16  1  0
  7  9  1  0
  8 10  1  0
 11 15  1  0
 11 17  1  0
 12 14  1  0
 14 15  1  0
 15 19  2  0
 16 21  1  0
 17 18  1  0
 18 20  1  0
 19 20  1  0
 21 22  2  0
M  END
>  <PUBCHEM_COMPOUND_CID>  (1) 
9896

>  <PUBCHEM_CONFORMER_RMSD>  (1) 
0.6

>  <PUBCHEM_CONFORMER_DIVERSEORDER>  (1) 
3
84
89
82
153
5
75
140
128
116
90
151
163
1
117
137
150
130
162
72
62
93
108
125
131
50
52
71
92
88
74
83
63
148
120
109
138
21
147
55
94
73
65
57
159
51
122
19
119
132
98
47
80
4
100
129
53
99
13
146
103
118
40
67
135
126
121
127
91
35
156
49
34
37
139
85
33
23
143
102
158
68
110
155
123
144
9
16
111
10
12
77
20
112
39
134
97
96
26
41
38
69
6
11
87
15
76
31
161
115
27
101
29
25
24
2
149
42
136
114
48
145
7
105
43
44
60
18
61
46
160
86
32
154
8
17
54
78
152
124
59
95
28
56
133
30
66
157
70
113
45
64
79
81
142
106
107
14
36
58
141
22
104

>  <PUBCHEM_MMFF94_PARTIAL_CHARGES>  (1) 
15
1 -0.68
11 0.14
14 0.14
15 -0.28
16 0.14
19 -0.29
20 0.14
21 -0.29
22 -0.3
46 0.4
49 0.15
52 0.15
53 0.15
54 0.15
6 0.28

>  <PUBCHEM_EFFECTIVE_ROTOR_COUNT>  (1) 
4

>  <PUBCHEM_PHARMACOPHORE_FEATURES>  (1) 
7
1 1 acceptor
1 1 donor
1 22 hydrophobe
5 2 3 6 8 10 rings
6 11 15 17 18 19 20 rings
6 2 3 4 5 7 9 rings
6 4 5 11 12 14 15 rings

>  <PUBCHEM_HEAVY_ATOM_COUNT>  (1) 
22

>  <PUBCHEM_ATOM_DEF_STEREO_COUNT>  (1) 
1

>  <PUBCHEM_ATOM_UDEF_STEREO_COUNT>  (1) 
5

>  <PUBCHEM_BOND_DEF_STEREO_COUNT>  (1) 
0

>  <PUBCHEM_BOND_UDEF_STEREO_COUNT>  (1) 
0

>  <PUBCHEM_ISOTOPIC_ATOM_COUNT>  (1) 
0

>  <PUBCHEM_COMPONENT_COUNT>  (1) 
1

>  <PUBCHEM_CACTVS_TAUTO_COUNT>  (1) 
1

>  <PUBCHEM_CONFORMER_ID>  (1) 
000026A800000003

>  <PUBCHEM_MMFF94_ENERGY>  (1) 
60.3017

>  <PUBCHEM_FEATURE_SELFOVERLAP>  (1) 
35.726

>  <PUBCHEM_SHAPE_FINGERPRINT>  (1) 
10062212 137 18271518805563971199
10366900 7 16226043414077529650
10369192 42 14927637971627025196
11089746 13 17775276170975825313
11405975 8 18114186366951859929
11578080 2 17914301749834260009
12236239 1 18202279203940450727
12251169 10 18410574002948524806
12507557 5 18408323306340061099
12553582 1 18335419089219391700
12592029 89 18260550000398089915
12633257 1 17530686532390594217
12788726 201 18059871562092707720
13140716 1 18335984289049873658
13533116 47 17988923323805217158
13583140 156 18270402827252907641
13675066 3 18341049704743267094
14251764 18 18410294722842637653
14341114 176 18334581226192016912
14466204 15 18340205193993716313
15196674 1 18409168848067360274
15238133 3 18042135284016047573
15788980 27 17530965795332488120
16945 1 18267888119743340471
17349148 13 18272650177174486478
1813 80 16877943837053877852
19141452 34 18408038532844557654
19784866 9 18411139117343923947
200 152 18272083916070266207
20511986 3 18201141209353052536
20715895 44 18339362934122545297
21033648 29 17531510053583352812
21267235 1 18335141952154394402
21304253 335 18341618087915175365
21421861 104 17822841001808451898
23184049 59 18409166619459349198
23402539 116 17917703621566536319
23557571 272 15051741884193223552
23559900 14 18413109472403964002
23598288 3 17844521308975870663
26918003 58 18334574654960541432
2838139 119 18336819802725278837
296302 2 18273216396093768613
335352 9 18408324358612544510
345986 75 18117824530991009440
34797466 226 15841271553120021008
34934 24 18272086114782272381
350125 39 18409168792475878876
404807 14 15546886927173488534
4340502 62 18186811253566810187
474 4 18410577301003496690
5104073 3 18261673782653992952
57724786 102 17749397004606083356
59755656 215 18341337669631989646
9981440 41 17330826332684259912

>  <PUBCHEM_SHAPE_MULTIPOLES>  (1) 
446.88
11.38
2.04
1.15
0.94
0.06
0.18
2.07
-2.92
-0.46
0.14
0.47
-0.04
-0.77

>  <PUBCHEM_SHAPE_SELFOVERLAP>  (1) 
947.46

>  <PUBCHEM_SHAPE_VOLUME>  (1) 
246.5

>  <PUBCHEM_COORDINATE_TYPE>  (1) 
2
5
10

$$$$
