9906
     RDKit          3D

 15 15  0  0  0  0  0  0  0  0999 V2000
   -0.6644    2.3742    0.0007 F   0  0  0  0  0  0  0  0  0  0  0  0
   -0.6646   -2.3734   -0.0008 F   0  0  0  0  0  0  0  0  0  0  0  0
   -2.7395    1.2519   -0.0007 F   0  0  0  0  0  0  0  0  0  0  0  0
   -2.7386   -0.6272   -1.0839 F   0  0  0  0  0  0  0  0  0  0  0  0
   -2.7174   -0.6289    1.0906 F   0  0  0  0  0  0  0  0  0  0  0  0
    2.0613   -2.3676   -0.0012 F   0  0  0  0  0  0  0  0  0  0  0  0
    2.0615    2.3682   -0.0002 F   0  0  0  0  0  0  0  0  0  0  0  0
    3.4284    0.0003   -0.0010 F   0  0  0  0  0  0  0  0  0  0  0  0
   -0.7007    0.0003   -0.0005 C   0  0  0  0  0  0  0  0  0  0  0  0
   -0.0032    1.2084   -0.0002 C   0  0  0  0  0  0  0  0  0  0  0  0
   -0.0032   -1.2076   -0.0006 C   0  0  0  0  0  0  0  0  0  0  0  0
   -2.1922    0.0004   -0.0007 C   0  0  0  0  0  0  0  0  0  0  0  0
    1.3917   -1.2076   -0.0007 C   0  0  0  0  0  0  0  0  0  0  0  0
    1.3917    1.2084   -0.0003 C   0  0  0  0  0  0  0  0  0  0  0  0
    2.0891    0.0003   -0.0005 C   0  0  0  0  0  0  0  0  0  0  0  0
  1 10  1  0
  2 11  1  0
  3 12  1  0
  4 12  1  0
  5 12  1  0
  6 13  1  0
  7 14  1  0
  8 15  1  0
  9 10  2  0
  9 11  1  0
  9 12  1  0
 10 14  1  0
 11 13  2  0
 13 15  1  0
 14 15  2  0
M  END
>  <PUBCHEM_COMPOUND_CID>  (1) 
9906

>  <PUBCHEM_CONFORMER_RMSD>  (1) 
0.4

>  <PUBCHEM_CONFORMER_DIVERSEORDER>  (1) 
1

>  <PUBCHEM_MMFF94_PARTIAL_CHARGES>  (1) 
15
1 -0.19
10 0.19
11 0.19
12 1.16
13 0.19
14 0.19
15 0.19
2 -0.19
3 -0.34
4 -0.34
5 -0.34
6 -0.19
7 -0.19
8 -0.19
9 -0.14

>  <PUBCHEM_EFFECTIVE_ROTOR_COUNT>  (1) 
1

>  <PUBCHEM_PHARMACOPHORE_FEATURES>  (1) 
1
6 9 10 11 13 14 15 rings

>  <PUBCHEM_HEAVY_ATOM_COUNT>  (1) 
15

>  <PUBCHEM_ATOM_DEF_STEREO_COUNT>  (1) 
0

>  <PUBCHEM_ATOM_UDEF_STEREO_COUNT>  (1) 
0

>  <PUBCHEM_BOND_DEF_STEREO_COUNT>  (1) 
0

>  <PUBCHEM_BOND_UDEF_STEREO_COUNT>  (1) 
0

>  <PUBCHEM_ISOTOPIC_ATOM_COUNT>  (1) 
0

>  <PUBCHEM_COMPONENT_COUNT>  (1) 
1

>  <PUBCHEM_CACTVS_TAUTO_COUNT>  (1) 
1

>  <PUBCHEM_CONFORMER_ID>  (1) 
000026B200000001

>  <PUBCHEM_MMFF94_ENERGY>  (1) 
16.8394

>  <PUBCHEM_FEATURE_SELFOVERLAP>  (1) 
5.074

>  <PUBCHEM_SHAPE_FINGERPRINT>  (1) 
10967382 1 18338798884050276004
11206711 2 18336830788491485964
11471102 20 18265329508988429301
11471102 22 18263385675266903419
12423570 1 17605552364962073285
12524768 44 18336546109279001602
13140716 1 18266740379848533922
16945 1 18410855477571853030
17844478 74 17968106347328496689
17990270 104 18336826394507638322
193761 8 17545883088888326470
20201158 50 18334855004566240507
21501502 16 18194964028548014752
2334 1 17906171007659677902
23402655 69 18267850702352567005
23463225 33 18263641758644970410
23552423 10 18410011030977071589
23559900 14 17478613409230716606
241688 4 17906171754936482504
2748010 2 18122904227165746758
5084963 1 18131626802895145457
528886 8 18410851032222640617
63268167 104 18341895151785944923

>  <PUBCHEM_SHAPE_MULTIPOLES>  (1) 
250.5
3.97
2.35
0.68
0.44
0.08
0
0
0.01
-0.74
0
0.33
-0.08
0

>  <PUBCHEM_SHAPE_SELFOVERLAP>  (1) 
546.145

>  <PUBCHEM_SHAPE_VOLUME>  (1) 
136.3

>  <PUBCHEM_COORDINATE_TYPE>  (1) 
2
5
10

$$$$
