9907
     RDKit          3D

 38 47  0  0  0  0  0  0  0  0999 V2000
   -1.0914   -0.1948   -0.2189 C   0  0  0  0  0  0  0  0  0  0  0  0
   -1.9767    0.8770    0.0322 C   0  0  0  0  0  0  0  0  0  0  0  0
    0.8359    1.3905   -0.1789 C   0  0  0  0  0  0  0  0  0  0  0  0
    0.3315    0.0737   -0.1251 C   0  0  0  0  0  0  0  0  0  0  0  0
   -0.0832    2.4592   -0.2763 C   0  0  0  0  0  0  0  0  0  0  0  0
   -1.4762    2.2157   -0.1896 C   0  0  0  0  0  0  0  0  0  0  0  0
   -1.6755   -1.4813   -0.5516 C   0  0  0  0  0  0  0  0  0  0  0  0
   -3.3160    0.5523    0.4867 C   0  0  0  0  0  0  0  0  0  0  0  0
   -3.0329   -1.7518   -0.2615 C   0  0  0  0  0  0  0  0  0  0  0  0
   -3.8352   -0.7519    0.3166 C   0  0  0  0  0  0  0  0  0  0  0  0
    2.2468    1.6464   -0.1600 C   0  0  0  0  0  0  0  0  0  0  0  0
    0.4036    3.7864   -0.4385 C   0  0  0  0  0  0  0  0  0  0  0  0
    3.1782    0.5686    0.0027 C   0  0  0  0  0  0  0  0  0  0  0  0
    1.2868   -0.9413    0.1071 C   0  0  0  0  0  0  0  0  0  0  0  0
    2.6706   -0.7298    0.1578 C   0  0  0  0  0  0  0  0  0  0  0  0
   -3.5998   -3.0340   -0.5247 C   0  0  0  0  0  0  0  0  0  0  0  0
   -5.1727   -1.0668    0.6996 C   0  0  0  0  0  0  0  0  0  0  0  0
   -2.3188    3.3356   -0.4143 C   0  0  0  0  0  0  0  0  0  0  0  0
    2.6706    2.9822   -0.3020 C   0  0  0  0  0  0  0  0  0  0  0  0
   -0.9805   -2.5085   -1.2423 C   0  0  0  0  0  0  0  0  0  0  0  0
    1.7710    4.0300   -0.4515 C   0  0  0  0  0  0  0  0  0  0  0  0
   -4.1557    1.4598    1.1836 C   0  0  0  0  0  0  0  0  0  0  0  0
   -0.4764    4.8580   -0.5891 C   0  0  0  0  0  0  0  0  0  0  0  0
    4.5938    0.7068    0.0422 C   0  0  0  0  0  0  0  0  0  0  0  0
   -4.9202   -3.3091   -0.1635 C   0  0  0  0  0  0  0  0  0  0  0  0
   -5.6954   -2.3383    0.4557 C   0  0  0  0  0  0  0  0  0  0  0  0
    3.5353   -1.8225    0.3606 C   0  0  0  0  0  0  0  0  0  0  0  0
   -1.8380    4.6301   -0.5990 C   0  0  0  0  0  0  0  0  0  0  0  0
   -2.8408   -4.0241   -1.1476 C   0  0  0  0  0  0  0  0  0  0  0  0
   -5.9698   -0.1076    1.3229 C   0  0  0  0  0  0  0  0  0  0  0  0
   -1.5393   -3.7544   -1.5267 C   0  0  0  0  0  0  0  0  0  0  0  0
   -5.4544    1.1478    1.5850 C   0  0  0  0  0  0  0  0  0  0  0  0
    5.4672   -0.3806    0.2360 C   0  0  0  0  0  0  0  0  0  0  0  0
    4.9269   -1.6668    0.4009 C   0  0  0  0  0  0  0  0  0  0  0  0
    6.8627   -0.2132    0.2722 C   0  0  0  0  0  0  0  0  0  0  0  0
    5.7888   -2.7595    0.5985 C   0  0  0  0  0  0  0  0  0  0  0  0
    7.7079   -1.3055    0.4687 C   0  0  0  0  0  0  0  0  0  0  0  0
    7.1712   -2.5783    0.6318 C   0  0  0  0  0  0  0  0  0  0  0  0
  1  2  2  0
  1  4  1  0
  1  7  1  0
  2  6  1  0
  2  8  1  0
  3  4  1  0
  3  5  2  0
  3 11  1  0
  4 14  2  0
  5  6  1  0
  5 12  1  0
  6 18  2  0
  7  9  2  0
  7 20  1  0
  8 10  2  0
  8 22  1  0
  9 10  1  0
  9 16  1  0
 10 17  1  0
 11 13  1  0
 11 19  2  0
 12 21  2  0
 12 23  1  0
 13 15  2  0
 13 24  1  0
 14 15  1  0
 15 27  1  0
 16 25  1  0
 16 29  2  0
 17 26  1  0
 17 30  2  0
 18 28  1  0
 19 21  1  0
 20 31  2  0
 22 32  2  0
 23 28  2  0
 24 33  2  0
 25 26  2  0
 27 34  2  0
 29 31  1  0
 30 32  1  0
 33 34  1  0
 33 35  1  0
 34 36  1  0
 35 37  2  0
 36 38  2  0
 37 38  1  0
M  END
>  <PUBCHEM_COMPOUND_CID>  (1) 
9907

>  <PUBCHEM_CONFORMER_RMSD>  (1) 
0.6

>  <PUBCHEM_CONFORMER_DIVERSEORDER>  (1) 
1
2

>  <PUBCHEM_MMFF94_PARTIAL_CHARGES>  (1) 
40
14 -0.15
18 -0.15
19 -0.15
20 -0.15
21 -0.15
22 -0.15
23 -0.15
24 -0.15
25 -0.15
26 -0.15
27 -0.15
28 -0.15
29 -0.15
30 -0.15
31 -0.15
32 -0.15
35 -0.15
36 -0.15
37 -0.15
38 -0.15
39 0.15
40 0.15
41 0.15
42 0.15
43 0.15
44 0.15
45 0.15
46 0.15
47 0.15
48 0.15
49 0.15
50 0.15
51 0.15
52 0.15
53 0.15
54 0.15
55 0.15
56 0.15
57 0.15
58 0.15

>  <PUBCHEM_EFFECTIVE_ROTOR_COUNT>  (1) 
0

>  <PUBCHEM_PHARMACOPHORE_FEATURES>  (1) 
10
6 1 2 3 4 5 6 rings
6 1 2 7 8 9 10 rings
6 13 15 24 27 33 34 rings
6 3 4 11 13 14 15 rings
6 3 5 11 12 19 21 rings
6 33 34 35 36 37 38 rings
6 5 6 12 18 23 28 rings
6 7 9 16 20 29 31 rings
6 8 10 17 22 30 32 rings
6 9 10 16 17 25 26 rings

>  <PUBCHEM_HEAVY_ATOM_COUNT>  (1) 
38

>  <PUBCHEM_ATOM_DEF_STEREO_COUNT>  (1) 
0

>  <PUBCHEM_ATOM_UDEF_STEREO_COUNT>  (1) 
0

>  <PUBCHEM_BOND_DEF_STEREO_COUNT>  (1) 
0

>  <PUBCHEM_BOND_UDEF_STEREO_COUNT>  (1) 
0

>  <PUBCHEM_ISOTOPIC_ATOM_COUNT>  (1) 
0

>  <PUBCHEM_COMPONENT_COUNT>  (1) 
1

>  <PUBCHEM_CACTVS_TAUTO_COUNT>  (1) 
1

>  <PUBCHEM_CONFORMER_ID>  (1) 
000026B300000001

>  <PUBCHEM_MMFF94_ENERGY>  (1) 
185.5927

>  <PUBCHEM_FEATURE_SELFOVERLAP>  (1) 
51.08

>  <PUBCHEM_SHAPE_FINGERPRINT>  (1) 
10290309 65 18125159329862653886
10411042 1 18408882974964971814
10462674 296 18126552655882237270
10622 236 17697866313649237831
10940486 97 18199749309226468319
11524674 6 17203605965080915814
117089 54 18190189077267169563
11756154 67 18410577292344957990
12107183 9 18412833486442865747
12107698 1 18187650167763568992
12128747 34 15839614439237071102
12422481 6 17847066579525222702
13140716 1 18341615944826630313
13383668 254 15625351629940273082
14117953 113 18340770352171621085
14279260 333 17823131217128649322
14394314 77 18409168796517086688
14790565 3 17398964154752817549
14856354 85 18410016545863474646
15021287 119 18410016567464560835
15042514 8 18410291372193322300
15230672 131 17689716360398320030
15274700 242 18116413887801504162
15276724 80 18409729548133021988
15320467 1 18410008819465332466
15361156 5 18187656816399303752
15927050 60 17690848178610736724
16087824 20 18337105650115768669
16110190 28 18413672409288133378
16728300 4 17825662253496986323
16992752 21 18409457986257251046
16993438 75 18116992179119428957
17492 89 18049724315482820083
18608769 82 18411976950317025184
19246450 95 18197232351961264553
19311894 1 18337665420770426610
19319366 153 17967540073281989202
208703 8 18334572494761498467
21033648 29 17915440732168814688
21796203 349 18046664266699274993
229767 44 18342742879720189171
23522609 53 18119560758409252636
23559900 14 18267013054511231291
25019877 29 17561086882659570799
3504750 166 18267007389782365650
4409770 3 18190171292213271677
44880168 125 17632575999300898790
463206 1 18189900988203748546
513202 73 18262803960437789914
563151 97 17617384321274350309
56633871 153 18412263943134422041
56638632 33 18199749326970547921
6058803 2 17838907276172030567
6700243 42 17985576427948638724
9555976 147 17775020011248274235
9896288 288 18122064208777297224

>  <PUBCHEM_SHAPE_MULTIPOLES>  (1) 
782.02
15.32
6.13
1.03
19.43
4.28
0.03
-13.79
6.23
-2.96
-2.3
-0.98
-0.33
-1.9

>  <PUBCHEM_SHAPE_SELFOVERLAP>  (1) 
1889.559

>  <PUBCHEM_SHAPE_VOLUME>  (1) 
340.8

>  <PUBCHEM_COORDINATE_TYPE>  (1) 
2
5
10

$$$$
