9915
     RDKit          3D

 21 24  0  0  1  0  0  0  0  0999 V2000
   -5.6759    0.3202   -0.4953 F   0  0  0  0  0  0  0  0  0  0  0  0
    4.8634    1.2923   -0.7529 O   0  0  0  0  0  0  0  0  0  0  0  0
   -0.0338    0.3908    0.4944 C   0  0  0  0  0  0  0  0  0  0  0  0
    0.6571   -1.0037    0.5695 C   0  0  0  0  0  0  0  0  0  0  0  0
    2.1972   -0.9331    0.4379 C   0  0  0  0  0  0  0  0  0  0  0  0
   -1.6069    0.2717    0.5893 C   0  0  0  0  0  0  0  0  0  0  0  0
    2.7630    0.0049   -0.6525 C   0  0  0  0  0  0  0  0  0  0  0  0
   -2.1301   -0.7520   -0.4615 C   0  0  0  0  0  0  0  0  0  0  0  0
    0.4833    1.1826   -0.7247 C   0  0  0  0  0  0  0  0  0  0  0  0
    2.0046    1.3466   -0.6952 C   0  0  0  0  0  0  0  0  0  0  0  0
    0.0555   -2.0070   -0.4320 C   0  0  0  0  0  0  0  0  0  0  0  0
    2.8582   -0.4357    1.7444 C   0  0  0  0  0  0  0  0  0  0  0  0
    4.2237    0.1705   -0.1719 C   0  0  0  0  0  0  0  0  0  0  0  0
   -1.4618   -2.1224   -0.3192 C   0  0  0  0  0  0  0  0  0  0  0  0
   -2.3153    1.6329    0.3252 C   0  0  0  0  0  0  0  0  0  0  0  0
    4.1325    0.3017    1.3431 C   0  0  0  0  0  0  0  0  0  0  0  0
   -3.6609   -0.8796   -0.4473 C   0  0  0  0  0  0  0  0  0  0  0  0
   -1.9572   -0.1642    2.0432 C   0  0  0  0  0  0  0  0  0  0  0  0
    2.7795   -0.6222   -2.0568 C   0  0  0  0  0  0  0  0  0  0  0  0
   -3.8428    1.5335    0.3186 C   0  0  0  0  0  0  0  0  0  0  0  0
   -4.3331    0.4721   -0.6563 C   0  0  0  0  0  0  0  0  0  0  0  0
  1 21  1  0
  2 13  1  0
  3  4  1  0
  3  6  1  0
  3  9  1  0
  4  5  1  0
  4 11  1  0
  5  7  1  0
  5 12  1  0
  6  8  1  0
  6 15  1  0
  6 18  1  0
  7 10  1  0
  7 13  1  0
  7 19  1  0
  8 14  1  0
  8 17  1  0
  9 10  1  0
 11 14  1  0
 12 16  1  0
 13 16  1  0
 15 20  1  0
 17 21  1  0
 20 21  1  0
M  END
>  <PUBCHEM_COMPOUND_CID>  (1) 
9915

>  <PUBCHEM_CONFORMER_RMSD>  (1) 
0.6

>  <PUBCHEM_CONFORMER_DIVERSEORDER>  (1) 
2
29
48
51
42
50
35
11
7
30
52
15
32
41
14
13
23
25
5
10
46
53
3
47
8
6
17
22
33
18
16
27
12
19
44
1
31
26
28
43
21
34
20
9
45
40
39
4
37
36
38
49
54
24

>  <PUBCHEM_MMFF94_PARTIAL_CHARGES>  (1) 
5
1 -0.34
13 0.28
2 -0.68
21 0.34
52 0.4

>  <PUBCHEM_EFFECTIVE_ROTOR_COUNT>  (1) 
2.2

>  <PUBCHEM_PHARMACOPHORE_FEATURES>  (1) 
6
1 2 acceptor
1 2 donor
5 5 7 12 13 16 rings
6 3 4 5 7 9 10 rings
6 3 4 6 8 11 14 rings
6 6 8 15 17 20 21 rings

>  <PUBCHEM_HEAVY_ATOM_COUNT>  (1) 
21

>  <PUBCHEM_ATOM_DEF_STEREO_COUNT>  (1) 
3

>  <PUBCHEM_ATOM_UDEF_STEREO_COUNT>  (1) 
5

>  <PUBCHEM_BOND_DEF_STEREO_COUNT>  (1) 
0

>  <PUBCHEM_BOND_UDEF_STEREO_COUNT>  (1) 
0

>  <PUBCHEM_ISOTOPIC_ATOM_COUNT>  (1) 
0

>  <PUBCHEM_COMPONENT_COUNT>  (1) 
1

>  <PUBCHEM_CACTVS_TAUTO_COUNT>  (1) 
1

>  <PUBCHEM_CONFORMER_ID>  (1) 
000026BB00000002

>  <PUBCHEM_MMFF94_ENERGY>  (1) 
73.7827

>  <PUBCHEM_FEATURE_SELFOVERLAP>  (1) 
30.672

>  <PUBCHEM_SHAPE_FINGERPRINT>  (1) 
10062212 137 18261103102170959787
10366900 7 16988850496836933106
10498660 4 18272369732958577113
10646746 165 18201715137306192464
10863032 1 17203615848005943430
11132069 177 18413106151861396677
11370993 70 17989486325002736934
11578080 2 17680670939559238060
11640471 11 18041286555649666238
12011746 2 17346882273487873412
12236239 1 18114176440955306627
12403814 3 17748818606034475997
12592029 89 18334859390224001491
12670545 2 18260827098560331349
12670546 56 16877935001842192061
128620 24 17775564234648398897
12916748 109 18411986849572959973
13134695 92 17167853163039810924
13224815 77 18335430070632940593
13533116 47 17131558236725018575
13538477 17 18187925131380201594
13583140 156 17313392265828638545
14289901 80 15985104102367282098
14739800 52 18197198443205024952
15238133 3 17168146693747056988
15375358 24 17846493755383672686
15775835 57 18187083970587953438
1601671 61 18335700520391834988
16752209 62 18339085891040075845
16945 1 18337122223339061146
17349148 13 18412538808298979847
17980427 23 18055892511221419188
1813 80 9871748022263258954
18186145 218 17775014444253174626
19862831 5 17775287136264351459
200 152 18408882958275583081
20645476 183 18334573589898965751
20715895 44 17900807263854909597
23175994 123 15502368976906112334
23227448 37 17844231042116247120
23402539 116 18200865261983304407
23419403 2 16472831139535957438
23503953 91 15430040997539262452
23557571 272 17774719899855058391
23559900 14 17917994979948745086
2838139 119 17169527659557378149
296302 2 18409446994328196580
3472631 163 18337110163318931116
34934 24 17967813881609791660
4028521 119 17846497028153929547
4409770 3 15739086911032286894
474 4 17749111101317148968
633830 44 17531537576556406222
69090 78 17632573859683965503
7495541 125 17240772821612589537
74978 22 18189057645362216756
8272917 22 17313378976920314922
9709674 26 18060706112465329478

>  <PUBCHEM_SHAPE_MULTIPOLES>  (1) 
419.03
9.01
1.71
1.48
2.24
0.36
0.3
-2.56
-1.11
0.64
-0.24
-0.99
0.07
-0.28

>  <PUBCHEM_SHAPE_SELFOVERLAP>  (1) 
888.537

>  <PUBCHEM_SHAPE_VOLUME>  (1) 
233.9

>  <PUBCHEM_COORDINATE_TYPE>  (1) 
2
5
10

$$$$
