9921
     RDKit          3D

 20 23  0  0  0  0  0  0  0  0999 V2000
    2.3455   -2.9421    0.0016 F   0  0  0  0  0  0  0  0  0  0  0  0
    0.4300   -0.9928    0.0004 N   0  0  0  0  0  0  0  0  0  0  0  0
   -0.1912    1.3186    0.0006 C   0  0  0  0  0  0  0  0  0  0  0  0
   -0.5360   -0.0453    0.0005 C   0  0  0  0  0  0  0  0  0  0  0  0
    1.1642    1.6653    0.0004 C   0  0  0  0  0  0  0  0  0  0  0  0
   -1.9055   -0.3922    0.0003 C   0  0  0  0  0  0  0  0  0  0  0  0
    2.1532    0.6791    0.0000 C   0  0  0  0  0  0  0  0  0  0  0  0
   -2.9042    0.6157    0.0003 C   0  0  0  0  0  0  0  0  0  0  0  0
    1.7345   -0.6586    0.0001 C   0  0  0  0  0  0  0  0  0  0  0  0
   -1.1816    2.3086    0.0009 C   0  0  0  0  0  0  0  0  0  0  0  0
   -2.5266    1.9599    0.0006 C   0  0  0  0  0  0  0  0  0  0  0  0
    1.5673    3.1144   -0.0011 C   0  0  0  0  0  0  0  0  0  0  0  0
    3.5226    0.9986   -0.0005 C   0  0  0  0  0  0  0  0  0  0  0  0
   -2.3325   -1.7374   -0.0002 C   0  0  0  0  0  0  0  0  0  0  0  0
    2.7112   -1.6510   -0.0001 C   0  0  0  0  0  0  0  0  0  0  0  0
   -4.2637    0.2611   -0.0002 C   0  0  0  0  0  0  0  0  0  0  0  0
    4.4801   -0.0113   -0.0009 C   0  0  0  0  0  0  0  0  0  0  0  0
   -3.6877   -2.0751   -0.0010 C   0  0  0  0  0  0  0  0  0  0  0  0
    4.0730   -1.3392   -0.0005 C   0  0  0  0  0  0  0  0  0  0  0  0
   -4.6525   -1.0763   -0.0011 C   0  0  0  0  0  0  0  0  0  0  0  0
  1 15  1  0
  2  4  2  0
  2  9  1  0
  3  4  1  0
  3  5  2  0
  3 10  1  0
  4  6  1  0
  5  7  1  0
  5 12  1  0
  6  8  2  0
  6 14  1  0
  7  9  2  0
  7 13  1  0
  8 11  1  0
  8 16  1  0
  9 15  1  0
 10 11  2  0
 13 17  2  0
 14 18  2  0
 15 19  2  0
 16 20  2  0
 17 19  1  0
 18 20  1  0
M  END
>  <PUBCHEM_COMPOUND_CID>  (1) 
9921

>  <PUBCHEM_CONFORMER_RMSD>  (1) 
0.6

>  <PUBCHEM_CONFORMER_DIVERSEORDER>  (1) 
1

>  <PUBCHEM_MMFF94_PARTIAL_CHARGES>  (1) 
25
1 -0.19
10 -0.15
11 -0.15
12 0.14
13 -0.15
14 -0.15
15 0.19
16 -0.15
17 -0.15
18 -0.15
19 -0.15
2 -0.62
20 -0.15
21 0.15
22 0.15
26 0.15
27 0.15
28 0.15
29 0.15
30 0.15
31 0.15
32 0.15
4 0.31
5 -0.14
9 0.31

>  <PUBCHEM_EFFECTIVE_ROTOR_COUNT>  (1) 
0

>  <PUBCHEM_PHARMACOPHORE_FEATURES>  (1) 
5
1 2 acceptor
6 2 3 4 5 7 9 rings
6 3 4 6 8 10 11 rings
6 6 8 14 16 18 20 rings
6 7 9 13 15 17 19 rings

>  <PUBCHEM_HEAVY_ATOM_COUNT>  (1) 
20

>  <PUBCHEM_ATOM_DEF_STEREO_COUNT>  (1) 
0

>  <PUBCHEM_ATOM_UDEF_STEREO_COUNT>  (1) 
0

>  <PUBCHEM_BOND_DEF_STEREO_COUNT>  (1) 
0

>  <PUBCHEM_BOND_UDEF_STEREO_COUNT>  (1) 
0

>  <PUBCHEM_ISOTOPIC_ATOM_COUNT>  (1) 
0

>  <PUBCHEM_COMPONENT_COUNT>  (1) 
1

>  <PUBCHEM_CACTVS_TAUTO_COUNT>  (1) 
1

>  <PUBCHEM_CONFORMER_ID>  (1) 
000026C100000001

>  <PUBCHEM_MMFF94_ENERGY>  (1) 
73.0874

>  <PUBCHEM_FEATURE_SELFOVERLAP>  (1) 
25.458

>  <PUBCHEM_SHAPE_FINGERPRINT>  (1) 
10616163 171 18412547591343881775
10967382 1 18410574019563937028
11471102 20 18410008879251125844
11578080 2 17416944275433395289
11806522 49 18408322206992054420
12506688 2 18342740710608730464
12553582 1 18411129242839856198
12839892 36 18266158575321596802
13140716 1 17978783837895006146
138480 1 18338797939153014649
14178342 30 18339349769920968560
14223421 5 18410851079277688424
14790565 3 17616821371405435253
14866123 147 17333655972733033987
15042514 8 18050283674648039202
15196674 1 18410855451548919620
15352361 1 18410855455886117439
15442244 35 18339644438667674161
15536298 74 18342457096727834688
16945 1 18410575097564194816
17492 89 18338234856129596699
17804303 29 18412830183238799677
1813 80 17458347446143436557
19141452 34 18342460352977579287
19591789 44 18051414259984237734
200 152 18202559609981864663
20261772 1 17989203788958244031
20645477 70 18191017001137618959
21267235 1 18410865351512061302
21421861 104 17970062253749587538
21501502 16 18410017619388487652
221490 88 18263650730388481715
2255824 54 18263930015164291780
2334 1 18338797814835540872
23366157 5 18041559273141120052
23402539 116 18410567383786866815
23463225 33 18411420643702122869
23557571 272 18201164235200019806
23559900 14 18411693309521808280
2748010 2 18340481145757885604
2871803 45 18408037416205814606
335352 9 18410856517333981085
34934 24 18337946796988256250
350125 39 18410858793113090889
4214541 1 18338516343890020929
4280585 95 17621049655740753286
4921388 177 16081379600122907195
5104073 3 18412544292845571720
7364860 26 18340485689733395688
8809292 202 18261395580674502395
9709674 26 18410017628052574091
9981440 41 17399515018499157776

>  <PUBCHEM_SHAPE_MULTIPOLES>  (1) 
399.34
8.37
2.93
0.61
1.25
0.53
0
-3.44
0
-0.55
0
0.01
0.02
0

>  <PUBCHEM_SHAPE_SELFOVERLAP>  (1) 
920.645

>  <PUBCHEM_SHAPE_VOLUME>  (1) 
208.1

>  <PUBCHEM_COORDINATE_TYPE>  (1) 
2
5
10

$$$$
