9922
     RDKit          3D

 15 17  0  0  0  0  0  0  0  0999 V2000
   -0.7702   -3.2254    0.0017 O   0  0  0  0  0  0  0  0  0  0  0  0
    1.8013   -2.5358    0.0212 O   0  0  0  0  0  0  0  0  0  0  0  0
   -2.1317    1.2994   -0.0426 N   0  0  0  0  0  0  0  0  0  0  0  0
   -3.3893    0.9657   -0.7013 C   0  0  0  0  0  0  0  0  0  0  0  0
   -3.3105    1.0703    0.7849 C   0  0  0  0  0  0  0  0  0  0  0  0
   -1.1558    0.3359   -0.0266 C   0  0  0  0  0  0  0  0  0  0  0  0
    0.2773    0.7491   -0.0149 C   0  0  0  0  0  0  0  0  0  0  0  0
   -1.4842   -0.9679   -0.0210 C   0  0  0  0  0  0  0  0  0  0  0  0
    1.3040   -0.2138    0.0009 C   0  0  0  0  0  0  0  0  0  0  0  0
    0.6735    2.0998   -0.0183 C   0  0  0  0  0  0  0  0  0  0  0  0
   -0.4775   -2.0399   -0.0031 C   0  0  0  0  0  0  0  0  0  0  0  0
    0.9649   -1.6467    0.0072 C   0  0  0  0  0  0  0  0  0  0  0  0
    2.6584    0.1495    0.0114 C   0  0  0  0  0  0  0  0  0  0  0  0
    2.0243    2.4668   -0.0069 C   0  0  0  0  0  0  0  0  0  0  0  0
    3.0154    1.4930    0.0074 C   0  0  0  0  0  0  0  0  0  0  0  0
  1 11  2  0
  2 12  2  0
  3  4  1  0
  3  5  1  0
  3  6  1  0
  4  5  1  0
  6  7  1  0
  6  8  2  0
  7  9  2  0
  7 10  1  0
  8 11  1  0
  9 12  1  0
  9 13  1  0
 10 14  2  0
 11 12  1  0
 13 15  2  0
 14 15  1  0
M  END
>  <PUBCHEM_COMPOUND_CID>  (1) 
9922

>  <PUBCHEM_CONFORMER_RMSD>  (1) 
0.6

>  <PUBCHEM_CONFORMER_DIVERSEORDER>  (1) 
1

>  <PUBCHEM_MMFF94_PARTIAL_CHARGES>  (1) 
24
1 -0.57
10 -0.15
11 0.56
12 0.48
13 -0.15
14 -0.15
15 -0.15
16 0.1
17 0.1
18 0.1
19 0.1
2 -0.57
20 0.15
21 0.15
22 0.15
23 0.15
24 0.15
3 -0.44
4 -0.03
5 -0.03
6 0.07
7 0.03
8 -0.14
9 0.09

>  <PUBCHEM_EFFECTIVE_ROTOR_COUNT>  (1) 
1.6

>  <PUBCHEM_PHARMACOPHORE_FEATURES>  (1) 
5
1 1 acceptor
1 2 acceptor
1 3 cation
6 6 7 8 9 11 12 rings
6 7 9 10 13 14 15 rings

>  <PUBCHEM_HEAVY_ATOM_COUNT>  (1) 
15

>  <PUBCHEM_ATOM_DEF_STEREO_COUNT>  (1) 
0

>  <PUBCHEM_ATOM_UDEF_STEREO_COUNT>  (1) 
0

>  <PUBCHEM_BOND_DEF_STEREO_COUNT>  (1) 
0

>  <PUBCHEM_BOND_UDEF_STEREO_COUNT>  (1) 
0

>  <PUBCHEM_ISOTOPIC_ATOM_COUNT>  (1) 
0

>  <PUBCHEM_COMPONENT_COUNT>  (1) 
1

>  <PUBCHEM_CACTVS_TAUTO_COUNT>  (1) 
1

>  <PUBCHEM_CONFORMER_ID>  (1) 
000026C200000001

>  <PUBCHEM_MMFF94_ENERGY>  (1) 
61.8397

>  <PUBCHEM_FEATURE_SELFOVERLAP>  (1) 
25.401

>  <PUBCHEM_SHAPE_FINGERPRINT>  (1) 
1 1 18409730638342695069
10967382 1 18410855417204921068
10980938 120 18409448050916850017
11471102 20 18193835947219986909
11680611 10 17827332660957260352
11680986 33 18410018714684367074
12654215 9 17973154037512946989
13140716 1 18338514256889642216
13380535 21 18337403715416259741
13380535 76 18411131476206733519
13380536 305 18339649914677136511
13897977 150 18409729547610873333
14251717 144 18338789006010617277
14790565 3 18123489189159583900
15309172 13 18410017636974590905
16945 1 18410573968103749588
18186145 218 18343025454187629949
193761 8 18338516455633452406
19591789 44 18337965578748658658
20510252 161 17765718314058983984
20645477 70 18263917744896154445
21501502 16 18120652693687831276
21524375 3 18335416902273734339
21639500 275 18337936905979436165
2334 1 18122062275973578132
23402539 116 17263562609263904318
23558518 356 17901384812222152408
23559900 14 18271257097171599076
23598291 2 17915734272272901853
238 59 17829004850592066813
25 1 18410013217083926156
257057 1 17183612201002055483
2748010 2 18409739434420029319
3060560 45 18338792317193038965
3071541 250 17980211785466399710
350125 39 18049449432784828608
528886 8 18411132558797338336
53812653 166 18413107268758881992
63268167 104 18340485548004541825
7364860 26 18340768117918045684
81228 2 17615969245587411321
8272917 22 18268713801700196765

>  <PUBCHEM_SHAPE_MULTIPOLES>  (1) 
291.97
4.54
3.17
0.68
1.46
2.02
0.01
-2.81
0.03
-0.48
0.02
0.25
-0.12
-0.04

>  <PUBCHEM_SHAPE_SELFOVERLAP>  (1) 
645.298

>  <PUBCHEM_SHAPE_VOLUME>  (1) 
157.4

>  <PUBCHEM_COORDINATE_TYPE>  (1) 
2
5
10

$$$$
