9923
     RDKit          3D

 13 13  0  0  0  0  0  0  0  0999 V2000
   -1.0725    2.3738   -0.2195 F   0  0  0  0  0  0  0  0  0  0  0  0
   -1.0724   -2.3738   -0.2199 F   0  0  0  0  0  0  0  0  0  0  0  0
    1.6376   -2.3679    0.0739 F   0  0  0  0  0  0  0  0  0  0  0  0
    1.6375    2.3679    0.0737 F   0  0  0  0  0  0  0  0  0  0  0  0
    2.9966    0.0000    0.2210 F   0  0  0  0  0  0  0  0  0  0  0  0
   -3.2057    0.0001    0.8974 O   0  0  0  0  0  0  0  0  0  0  0  0
   -1.1084   -0.0001   -0.2241 C   0  0  0  0  0  0  0  0  0  0  0  0
   -0.4151    1.2080   -0.1489 C   0  0  0  0  0  0  0  0  0  0  0  0
   -0.4150   -1.2080   -0.1487 C   0  0  0  0  0  0  0  0  0  0  0  0
   -2.5912   -0.0001   -0.3853 C   0  0  0  0  0  0  0  0  0  0  0  0
    0.9718   -1.2079    0.0018 C   0  0  0  0  0  0  0  0  0  0  0  0
    0.9717    1.2080    0.0016 C   0  0  0  0  0  0  0  0  0  0  0  0
    1.6651    0.0000    0.0769 C   0  0  0  0  0  0  0  0  0  0  0  0
  1  8  1  0
  2  9  1  0
  3 11  1  0
  4 12  1  0
  5 13  1  0
  6 10  1  0
  7  8  2  0
  7  9  1  0
  7 10  1  0
  8 12  1  0
  9 11  2  0
 11 13  1  0
 12 13  2  0
M  END
>  <PUBCHEM_COMPOUND_CID>  (1) 
9923

>  <PUBCHEM_CONFORMER_RMSD>  (1) 
0.4

>  <PUBCHEM_CONFORMER_DIVERSEORDER>  (1) 
1
2

>  <PUBCHEM_MMFF94_PARTIAL_CHARGES>  (1) 
14
1 -0.19
10 0.42
11 0.19
12 0.19
13 0.19
16 0.4
2 -0.19
3 -0.19
4 -0.19
5 -0.19
6 -0.68
7 -0.14
8 0.19
9 0.19

>  <PUBCHEM_EFFECTIVE_ROTOR_COUNT>  (1) 
1

>  <PUBCHEM_PHARMACOPHORE_FEATURES>  (1) 
3
1 6 acceptor
1 6 donor
6 7 8 9 11 12 13 rings

>  <PUBCHEM_HEAVY_ATOM_COUNT>  (1) 
13

>  <PUBCHEM_ATOM_DEF_STEREO_COUNT>  (1) 
0

>  <PUBCHEM_ATOM_UDEF_STEREO_COUNT>  (1) 
0

>  <PUBCHEM_BOND_DEF_STEREO_COUNT>  (1) 
0

>  <PUBCHEM_BOND_UDEF_STEREO_COUNT>  (1) 
0

>  <PUBCHEM_ISOTOPIC_ATOM_COUNT>  (1) 
0

>  <PUBCHEM_COMPONENT_COUNT>  (1) 
1

>  <PUBCHEM_CACTVS_TAUTO_COUNT>  (1) 
1

>  <PUBCHEM_CONFORMER_ID>  (1) 
000026C300000001

>  <PUBCHEM_MMFF94_ENERGY>  (1) 
19.1967

>  <PUBCHEM_FEATURE_SELFOVERLAP>  (1) 
15.223

>  <PUBCHEM_SHAPE_FINGERPRINT>  (1) 
11471102 22 18263667141875160595
12423570 1 12171460214875296378
12524768 44 18409164454294587615
13140716 1 18266734877757998912
16945 1 18410568487672433654
193761 8 18410849962664968588
20588541 1 18410859862628129646
21040471 1 17905887329148700484
2334 1 17977943819374498766
23552423 10 18045494472406001518
23559900 14 17262718777683610694
241688 4 17906451030668391480
2748010 2 18050842226301436638
5084963 1 18131343094640981361
528886 8 18339636870903559184
66348 1 17690837865507925013

>  <PUBCHEM_SHAPE_MULTIPOLES>  (1) 
225.3
3.4
2.42
0.65
0.93
0
-0.03
0
-0.53
-0.6
0.11
0.23
0
0

>  <PUBCHEM_SHAPE_SELFOVERLAP>  (1) 
482.861

>  <PUBCHEM_SHAPE_VOLUME>  (1) 
124.9

>  <PUBCHEM_COORDINATE_TYPE>  (1) 
2
5
10

$$$$
