9929
     RDKit          3D

 22 24  0  0  0  0  0  0  0  0999 V2000
   -0.9601    0.7133    0.0180 O   0  0  0  0  0  0  0  0  0  0  0  0
    3.6168   -2.9506   -0.0360 N   0  0  0  0  0  0  0  0  0  0  0  0
    1.7452   -1.6252    0.8770 C   0  0  0  0  0  0  0  0  0  0  0  0
    0.4700   -0.9003    0.5614 C   0  0  0  0  0  0  0  0  0  0  0  0
    2.3892   -2.2307   -0.3728 C   0  0  0  0  0  0  0  0  0  0  0  0
    0.3476    0.4147    0.2351 C   0  0  0  0  0  0  0  0  0  0  0  0
   -0.8116   -1.4649    0.5525 C   0  0  0  0  0  0  0  0  0  0  0  0
   -1.6588   -0.4359    0.2130 C   0  0  0  0  0  0  0  0  0  0  0  0
    1.2591    1.5135    0.0760 C   0  0  0  0  0  0  0  0  0  0  0  0
   -3.0789   -0.3317    0.0296 C   0  0  0  0  0  0  0  0  0  0  0  0
    4.6026   -2.0377    0.5415 C   0  0  0  0  0  0  0  0  0  0  0  0
    4.1638   -3.6106   -1.2209 C   0  0  0  0  0  0  0  0  0  0  0  0
    1.8364    1.7741   -1.1703 C   0  0  0  0  0  0  0  0  0  0  0  0
    1.5745    2.3299    1.1663 C   0  0  0  0  0  0  0  0  0  0  0  0
   -3.8959   -1.4530    0.2051 C   0  0  0  0  0  0  0  0  0  0  0  0
   -3.6557    0.8916   -0.3255 C   0  0  0  0  0  0  0  0  0  0  0  0
    2.7210    2.8413   -1.3250 C   0  0  0  0  0  0  0  0  0  0  0  0
    2.4591    3.3971    1.0115 C   0  0  0  0  0  0  0  0  0  0  0  0
    3.0323    3.6529   -0.2341 C   0  0  0  0  0  0  0  0  0  0  0  0
   -5.2757   -1.3518    0.0274 C   0  0  0  0  0  0  0  0  0  0  0  0
   -5.0355    0.9928   -0.5032 C   0  0  0  0  0  0  0  0  0  0  0  0
   -5.8455   -0.1289   -0.3267 C   0  0  0  0  0  0  0  0  0  0  0  0
  1  6  1  0
  1  8  1  0
  2  5  1  0
  2 11  1  0
  2 12  1  0
  3  4  1  0
  3  5  1  0
  4  6  2  0
  4  7  1  0
  6  9  1  0
  7  8  2  0
  8 10  1  0
  9 13  2  0
  9 14  1  0
 10 15  2  0
 10 16  1  0
 13 17  1  0
 14 18  2  0
 15 20  1  0
 16 21  2  0
 17 19  2  0
 18 19  1  0
 20 22  2  0
 21 22  1  0
M  END
>  <PUBCHEM_COMPOUND_CID>  (1) 
9929

>  <PUBCHEM_CONFORMER_RMSD>  (1) 
0.8

>  <PUBCHEM_CONFORMER_DIVERSEORDER>  (1) 
1
15
18
16
12
10
6
14
8
13
5
17
2
11
4
7
3
9

>  <PUBCHEM_MMFF94_PARTIAL_CHARGES>  (1) 
33
1 -0.28
10 0.05
11 0.27
12 0.27
13 -0.15
14 -0.15
15 -0.15
16 -0.15
17 -0.15
18 -0.15
19 -0.15
2 -0.81
20 -0.15
21 -0.15
22 -0.15
27 0.15
3 0.18
34 0.15
35 0.15
36 0.15
37 0.15
38 0.15
39 0.15
4 -0.18
40 0.15
41 0.15
42 0.15
43 0.15
5 0.27
6 0.09
7 -0.15
8 0.09
9 0.05

>  <PUBCHEM_EFFECTIVE_ROTOR_COUNT>  (1) 
5

>  <PUBCHEM_PHARMACOPHORE_FEATURES>  (1) 
5
1 1 acceptor
1 2 cation
5 1 4 6 7 8 rings
6 10 15 16 20 21 22 rings
6 9 13 14 17 18 19 rings

>  <PUBCHEM_HEAVY_ATOM_COUNT>  (1) 
22

>  <PUBCHEM_ATOM_DEF_STEREO_COUNT>  (1) 
0

>  <PUBCHEM_ATOM_UDEF_STEREO_COUNT>  (1) 
0

>  <PUBCHEM_BOND_DEF_STEREO_COUNT>  (1) 
0

>  <PUBCHEM_BOND_UDEF_STEREO_COUNT>  (1) 
0

>  <PUBCHEM_ISOTOPIC_ATOM_COUNT>  (1) 
0

>  <PUBCHEM_COMPONENT_COUNT>  (1) 
1

>  <PUBCHEM_CACTVS_TAUTO_COUNT>  (1) 
1

>  <PUBCHEM_CONFORMER_ID>  (1) 
000026C900000001

>  <PUBCHEM_MMFF94_ENERGY>  (1) 
51.0732

>  <PUBCHEM_FEATURE_SELFOVERLAP>  (1) 
25.373

>  <PUBCHEM_SHAPE_FINGERPRINT>  (1) 
10190108 129 17547303658271252667
1100329 8 18052261691771986929
11045515 52 18046070358948637454
11582403 64 16268243916251226704
11963148 33 17757829309841437611
12730499 353 18194976355499650459
12788726 201 17612314052483612290
13004483 165 18050838928073268262
13009979 54 17845102774548395073
13533116 47 18412545444725065675
13540713 4 18041850622643199147
13590594 115 18121227489029563449
13757389 114 17263871095553852340
13955234 65 18340207491652870763
14170010 4 18411131433294055513
14178000 29 18270681952629747758
14508225 48 18123755249387496934
14931854 50 18120405192667077476
14955137 171 18271524191421428686
15238133 3 17203058374874128209
15475509 8 17910685263106327503
15502722 9 18337111271251369635
15664445 248 18337955567776322058
15775530 1 17825410692935960890
15927050 60 17981323706040716350
167882 2 18335707199598606652
1813 80 18058176024704320782
18222031 100 18269837519305002850
18785283 64 18261950855637397040
20028762 73 17187860147181488171
20238998 120 18268986484826033672
20388580 30 18340492170833595262
20554085 129 17914041251873248128
20612939 158 18407478860568095245
20771845 65 18059856104230615698
21120745 212 17839761274594860292
21304303 172 17841997680433698360
21304303 282 17122796495172802188
221490 88 18335425694520663115
22182313 1 17677592246950401397
23366157 5 18114176471088766562
23557571 272 17981326682105224286
23559900 14 18339912741502038083
23566358 27 18339918320348245959
283562 15 17903361399290918970
312423 11 18342465829050209105
3298306 158 18195537106529984580
3411729 13 18261382412610864728
350125 39 18334856091562692781
495365 180 18198902702827333744
5081480 168 18260540087507946535
5104073 3 18333450963616435961
5265222 85 17686915212760666868
532947 4 18339651139507551014
5385378 56 18340213006354241369
59755656 215 18336829792206909012
6443956 14 18411416181568660568
67856867 119 18340199782476542387
7364860 26 18411979191292810960
7471813 234 18130499743521505065
77188 2 18268991986642008440
7808743 9 17541378380949494909
81228 2 17761510096966050722
9709674 26 18262236728988024051
9841814 1 18115014230219223114
9971528 1 18271516499034612475
9981440 41 17906445876681561880

>  <PUBCHEM_SHAPE_MULTIPOLES>  (1) 
441.9
10.72
4.55
1.05
14.24
0.77
0.1
-3.98
1.8
-9.32
0.56
-0.88
0.27
0.71

>  <PUBCHEM_SHAPE_SELFOVERLAP>  (1) 
954.972

>  <PUBCHEM_SHAPE_VOLUME>  (1) 
246.1

>  <PUBCHEM_COORDINATE_TYPE>  (1) 
2
5
10

$$$$
