993
     RDKit          3D

 10 10  0  0  1  0  0  0  0  0999 V2000
    0.4069   -1.1913    0.1183 O   0  0  0  0  0  0  0  0  0  0  0  0
   -0.0370    2.2853   -0.6131 O   0  0  0  0  0  0  0  0  0  0  0  0
   -2.4840    0.8254    0.6140 O   0  0  0  0  0  0  0  0  0  0  0  0
   -1.7123   -2.0135   -0.5389 O   0  0  0  0  0  0  0  0  0  0  0  0
    3.1773   -0.6729   -0.0247 O   0  0  0  0  0  0  0  0  0  0  0  0
   -0.1320    1.1012    0.1544 C   0  0  0  0  0  0  0  0  0  0  0  0
    0.9268    0.0941   -0.2569 C   0  0  0  0  0  0  0  0  0  0  0  0
   -1.3958    0.3308   -0.1461 C   0  0  0  0  0  0  0  0  0  0  0  0
   -1.0175   -1.0808    0.2761 C   0  0  0  0  0  0  0  0  0  0  0  0
    2.2677    0.3218    0.4169 C   0  0  0  0  0  0  0  0  0  0  0  0
  1  7  1  0
  1  9  1  0
  2  6  1  0
  3  8  1  0
  4  9  1  0
  5 10  1  0
  6  7  1  0
  6  8  1  0
  7 10  1  0
  8  9  1  0
M  END
>  <PUBCHEM_COMPOUND_CID>  (1) 
993

>  <PUBCHEM_CONFORMER_RMSD>  (1) 
0.4

>  <PUBCHEM_CONFORMER_DIVERSEORDER>  (1) 
7
46
61
6
44
51
10
19
9
23
65
48
4
59
52
30
8
62
32
2
47
31
54
13
60
22
29
41
15
36
24
27
11
57
26
55
53
21
58
40
50
3
25
20
49
12
37
45
33
16
63
43
56
18
1
35
42
64
14
34
39
5
38
28
17

>  <PUBCHEM_MMFF94_PARTIAL_CHARGES>  (1) 
14
1 -0.56
10 0.28
17 0.4
18 0.4
19 0.4
2 -0.68
20 0.4
3 -0.68
4 -0.68
5 -0.68
6 0.28
7 0.28
8 0.28
9 0.56

>  <PUBCHEM_EFFECTIVE_ROTOR_COUNT>  (1) 
2

>  <PUBCHEM_PHARMACOPHORE_FEATURES>  (1) 
10
1 1 acceptor
1 2 acceptor
1 2 donor
1 3 acceptor
1 3 donor
1 4 acceptor
1 4 donor
1 5 acceptor
1 5 donor
5 1 6 7 8 9 rings

>  <PUBCHEM_HEAVY_ATOM_COUNT>  (1) 
10

>  <PUBCHEM_ATOM_DEF_STEREO_COUNT>  (1) 
0

>  <PUBCHEM_ATOM_UDEF_STEREO_COUNT>  (1) 
4

>  <PUBCHEM_BOND_DEF_STEREO_COUNT>  (1) 
0

>  <PUBCHEM_BOND_UDEF_STEREO_COUNT>  (1) 
0

>  <PUBCHEM_ISOTOPIC_ATOM_COUNT>  (1) 
0

>  <PUBCHEM_COMPONENT_COUNT>  (1) 
1

>  <PUBCHEM_CACTVS_TAUTO_COUNT>  (1) 
1

>  <PUBCHEM_CONFORMER_ID>  (1) 
000003E100000007

>  <PUBCHEM_MMFF94_ENERGY>  (1) 
21.8049

>  <PUBCHEM_FEATURE_SELFOVERLAP>  (1) 
50.79

>  <PUBCHEM_SHAPE_FINGERPRINT>  (1) 
13024252 1 16732988591607558352
14128692 85 18124598840597847790
16714656 1 18336829697469383624
16945 1 18339073787853695840
18185500 45 18335137630567799746
20871998 184 18272655670390464646
21040471 1 18340211782356769473
23552423 10 18046908457049083438
241688 4 18336818796731668825
2748010 2 18338794636464750916
29004967 10 17676215640764254216
369184 2 18341888589281631906

>  <PUBCHEM_SHAPE_MULTIPOLES>  (1) 
176.45
3.23
1.85
0.69
1.8
0.21
0.01
-0.67
0.33
-0.69
-0.33
-0.08
0.06
-0.2

>  <PUBCHEM_SHAPE_SELFOVERLAP>  (1) 
350.893

>  <PUBCHEM_SHAPE_VOLUME>  (1) 
105.6

>  <PUBCHEM_COORDINATE_TYPE>  (1) 
2
5
10

$$$$
