9931
     RDKit          3D

 23 25  0  0  0  0  0  0  0  0999 V2000
   -1.3518    0.7043    0.0233 O   0  0  0  0  0  0  0  0  0  0  0  0
    4.6063   -2.6574   -0.5223 N   0  0  0  0  0  0  0  0  0  0  0  0
    1.6285   -1.0696    1.2463 C   0  0  0  0  0  0  0  0  0  0  0  0
    2.4587   -1.6514    0.0971 C   0  0  0  0  0  0  0  0  0  0  0  0
    0.2795   -0.5977    0.7917 C   0  0  0  0  0  0  0  0  0  0  0  0
    3.8406   -2.0883    0.5804 C   0  0  0  0  0  0  0  0  0  0  0  0
   -0.0328    0.6492    0.3451 C   0  0  0  0  0  0  0  0  0  0  0  0
   -0.8883   -1.3702    0.7536 C   0  0  0  0  0  0  0  0  0  0  0  0
   -1.8652   -0.5285    0.2747 C   0  0  0  0  0  0  0  0  0  0  0  0
    0.6954    1.8715    0.1467 C   0  0  0  0  0  0  0  0  0  0  0  0
   -3.2652   -0.6810   -0.0034 C   0  0  0  0  0  0  0  0  0  0  0  0
    5.9196   -3.1089   -0.0587 C   0  0  0  0  0  0  0  0  0  0  0  0
    4.7575   -1.6814   -1.6028 C   0  0  0  0  0  0  0  0  0  0  0  0
    1.3139    2.1319   -1.0796 C   0  0  0  0  0  0  0  0  0  0  0  0
    0.7908    2.8081    1.1800 C   0  0  0  0  0  0  0  0  0  0  0  0
   -3.8990   -1.9076    0.2186 C   0  0  0  0  0  0  0  0  0  0  0  0
   -4.0055    0.3966   -0.4997 C   0  0  0  0  0  0  0  0  0  0  0  0
    2.0218    3.3184   -1.2710 C   0  0  0  0  0  0  0  0  0  0  0  0
    1.4985    3.9949    0.9886 C   0  0  0  0  0  0  0  0  0  0  0  0
    2.1141    4.2499   -0.2368 C   0  0  0  0  0  0  0  0  0  0  0  0
   -5.2594   -2.0552   -0.0529 C   0  0  0  0  0  0  0  0  0  0  0  0
   -5.3657    0.2491   -0.7711 C   0  0  0  0  0  0  0  0  0  0  0  0
   -5.9926   -0.9769   -0.5477 C   0  0  0  0  0  0  0  0  0  0  0  0
  1  7  1  0
  1  9  1  0
  2  6  1  0
  2 12  1  0
  2 13  1  0
  3  4  1  0
  3  5  1  0
  4  6  1  0
  5  7  2  0
  5  8  1  0
  7 10  1  0
  8  9  2  0
  9 11  1  0
 10 14  2  0
 10 15  1  0
 11 16  2  0
 11 17  1  0
 14 18  1  0
 15 19  2  0
 16 21  1  0
 17 22  2  0
 18 20  2  0
 19 20  1  0
 21 23  2  0
 22 23  1  0
M  END
>  <PUBCHEM_COMPOUND_CID>  (1) 
9931

>  <PUBCHEM_CONFORMER_RMSD>  (1) 
0.8

>  <PUBCHEM_CONFORMER_DIVERSEORDER>  (1) 
1
22
30
18
28
11
32
16
24
34
4
33
35
27
31
39
40
14
29
19
41
6
10
15
37
38
2
17
7
23
20
25
21
3
36
26
8
12
13
5
9

>  <PUBCHEM_MMFF94_PARTIAL_CHARGES>  (1) 
33
1 -0.28
10 0.05
11 0.05
12 0.27
13 0.27
14 -0.15
15 -0.15
16 -0.15
17 -0.15
18 -0.15
19 -0.15
2 -0.81
20 -0.15
21 -0.15
22 -0.15
23 -0.15
3 0.18
30 0.15
37 0.15
38 0.15
39 0.15
40 0.15
41 0.15
42 0.15
43 0.15
44 0.15
45 0.15
46 0.15
5 -0.18
6 0.27
7 0.09
8 -0.15
9 0.09

>  <PUBCHEM_EFFECTIVE_ROTOR_COUNT>  (1) 
6

>  <PUBCHEM_PHARMACOPHORE_FEATURES>  (1) 
5
1 1 acceptor
1 2 cation
5 1 5 7 8 9 rings
6 10 14 15 18 19 20 rings
6 11 16 17 21 22 23 rings

>  <PUBCHEM_HEAVY_ATOM_COUNT>  (1) 
23

>  <PUBCHEM_ATOM_DEF_STEREO_COUNT>  (1) 
0

>  <PUBCHEM_ATOM_UDEF_STEREO_COUNT>  (1) 
0

>  <PUBCHEM_BOND_DEF_STEREO_COUNT>  (1) 
0

>  <PUBCHEM_BOND_UDEF_STEREO_COUNT>  (1) 
0

>  <PUBCHEM_ISOTOPIC_ATOM_COUNT>  (1) 
0

>  <PUBCHEM_COMPONENT_COUNT>  (1) 
1

>  <PUBCHEM_CACTVS_TAUTO_COUNT>  (1) 
1

>  <PUBCHEM_CONFORMER_ID>  (1) 
000026CB00000001

>  <PUBCHEM_MMFF94_ENERGY>  (1) 
51.5105

>  <PUBCHEM_FEATURE_SELFOVERLAP>  (1) 
25.373

>  <PUBCHEM_SHAPE_FINGERPRINT>  (1) 
10411042 1 18339078194532625530
1100329 8 18267586793555077185
11045515 52 18189338974542290940
12516196 113 18412542076911971610
12730499 353 18049450532823561515
12788726 201 17900256408080747738
13009979 54 18060147505182592265
13540713 4 17896885550791826395
13590594 115 18264778670785235009
13757389 114 17695085309286992864
13955234 65 18196655309449270681
14178000 29 18342174449182997050
14508225 48 18338796689796702500
14556957 393 18044118777781635726
14739800 52 11963377570868835239
14931854 50 18118151206614831244
14955137 171 18342453729505188055
15475509 8 18126856988758259787
15775530 1 17753631314020907298
167882 2 18263930010847972060
17492 89 18267861869199360439
1813 80 18130233670281739230
18222031 100 18341326712901833802
20028762 73 16754388730180961619
20238998 120 18341044126003262792
20388580 30 18411984667418434654
20642791 239 17604733117673328358
20771845 65 18131067130022877211
20775438 99 17977650232691435551
21120745 212 18127422155105203920
21304303 172 18057605356800176625
21344244 246 18337959021034789102
22849341 161 18269289997005458561
23366157 5 17968647341245505891
23557571 272 18124875660284008574
23559900 14 18339913896800813427
23566358 27 18267578199098307247
249057 3 18339919313102505749
255183 313 17550967887659059632
283562 15 18047190757229740754
3004659 81 18040998385078267802
3298306 158 18050297156671674884
340366 18 18201150031448539759
4280585 95 18336540526122690962
5081480 168 18260817207561885813
5104073 3 18187357792887699491
532947 4 18266185105328906112
5385378 56 18195251237485732537
54076057 127 18193566781999394179
59755656 215 18265051516919303724
6443956 14 18410852183527453864
6669772 16 18053107508376511244
7164475 11 17901947435938056986
7364860 26 18339073912339279833
7399639 24 18057305220902883690
77188 2 18341330011848115248
9709674 26 18190174771300305155
9841814 1 18114727296412776443

>  <PUBCHEM_SHAPE_MULTIPOLES>  (1) 
462.48
11.77
5.05
1.16
8.44
5.12
0.12
-13.11
3.89
-8.49
0.01
-0.83
0.31
0.47

>  <PUBCHEM_SHAPE_SELFOVERLAP>  (1) 
993.12

>  <PUBCHEM_SHAPE_VOLUME>  (1) 
258.9

>  <PUBCHEM_COORDINATE_TYPE>  (1) 
2
5
10

$$$$
