9937
     RDKit          3D

 11 11  0  0  0  0  0  0  0  0999 V2000
    3.4936    0.0434   -0.0006 F   0  0  0  0  0  0  0  0  0  0  0  0
   -0.7078   -2.1586    0.0000 O   0  0  0  0  0  0  0  0  0  0  0  0
   -2.5870    1.4631   -0.0002 O   0  0  0  0  0  0  0  0  0  0  0  0
   -2.7230   -0.7279   -0.0004 O   0  0  0  0  0  0  0  0  0  0  0  0
   -2.0501    0.3301    0.0000 N   0  0  0  0  0  0  0  0  0  0  0  0
   -0.6309    0.2421    0.0003 C   0  0  0  0  0  0  0  0  0  0  0  0
    0.0076   -0.9980    0.0003 C   0  0  0  0  0  0  0  0  0  0  0  0
    0.1239    1.4152    0.0002 C   0  0  0  0  0  0  0  0  0  0  0  0
    1.4009   -1.0652    0.0002 C   0  0  0  0  0  0  0  0  0  0  0  0
    1.5172    1.3480    0.0001 C   0  0  0  0  0  0  0  0  0  0  0  0
    2.1556    0.1078    0.0000 C   0  0  0  0  0  0  0  0  0  0  0  0
  1 11  1  0
  2  7  1  0
  3  5  1  0
  4  5  2  0
  5  6  1  0
  6  7  2  0
  6  8  1  0
  7  9  1  0
  8 10  2  0
  9 11  2  0
 10 11  1  0
M  CHG  2   3  -1   5   1
M  END
>  <PUBCHEM_COMPOUND_CID>  (1) 
9937

>  <PUBCHEM_CONFORMER_RMSD>  (1) 
0.4

>  <PUBCHEM_CONFORMER_DIVERSEORDER>  (1) 
1

>  <PUBCHEM_MMFF94_PARTIAL_CHARGES>  (1) 
15
1 -0.19
10 -0.15
11 0.19
12 0.15
13 0.15
14 0.15
15 0.45
2 -0.53
3 -0.52
4 -0.52
5 0.91
6 0.13
7 0.08
8 -0.15
9 -0.15

>  <PUBCHEM_EFFECTIVE_ROTOR_COUNT>  (1) 
1

>  <PUBCHEM_PHARMACOPHORE_FEATURES>  (1) 
5
1 2 donor
1 3 acceptor
1 3 anion
1 4 acceptor
6 6 7 8 9 10 11 rings

>  <PUBCHEM_HEAVY_ATOM_COUNT>  (1) 
11

>  <PUBCHEM_ATOM_DEF_STEREO_COUNT>  (1) 
0

>  <PUBCHEM_ATOM_UDEF_STEREO_COUNT>  (1) 
0

>  <PUBCHEM_BOND_DEF_STEREO_COUNT>  (1) 
0

>  <PUBCHEM_BOND_UDEF_STEREO_COUNT>  (1) 
0

>  <PUBCHEM_ISOTOPIC_ATOM_COUNT>  (1) 
0

>  <PUBCHEM_COMPONENT_COUNT>  (1) 
1

>  <PUBCHEM_CACTVS_TAUTO_COUNT>  (1) 
4

>  <PUBCHEM_CONFORMER_ID>  (1) 
000026D100000001

>  <PUBCHEM_MMFF94_ENERGY>  (1) 
30.6415

>  <PUBCHEM_FEATURE_SELFOVERLAP>  (1) 
25.453

>  <PUBCHEM_SHAPE_FINGERPRINT>  (1) 
14325111 11 18410855447343649088
16945 1 18338516447027297286
193761 8 17834114530112962244
21040471 1 18410574011063770656
23235685 24 18412258415738456224
23402655 69 18196637516080869021
23552423 10 17972315389429599646
23559900 14 18342747313128589852
2748010 2 18266742376649688598
29004967 10 18335707108924336576
5084963 1 18201439211479845809
528886 8 18338792317087634497
53812653 166 18342172237269383248

>  <PUBCHEM_SHAPE_MULTIPOLES>  (1) 
196.51
3.79
1.76
0.57
0.19
0.29
0
-0.46
0
-0.4
0
0.04
-0.01
0

>  <PUBCHEM_SHAPE_SELFOVERLAP>  (1) 
417.558

>  <PUBCHEM_SHAPE_VOLUME>  (1) 
110.3

>  <PUBCHEM_COORDINATE_TYPE>  (1) 
2
5
10

$$$$
