9948
     RDKit          3D

 15 16  0  0  0  0  0  0  0  0999 V2000
   -0.0100    1.5286    0.0174 O   0  0  0  0  0  0  0  0  0  0  0  0
    0.4898   -0.8296   -0.0554 C   0  0  0  0  0  0  0  0  0  0  0  0
    1.9510   -0.4537   -0.0239 C   0  0  0  0  0  0  0  0  0  0  0  0
   -0.4733    0.3698   -0.0122 C   0  0  0  0  0  0  0  0  0  0  0  0
   -1.9101    0.1461   -0.0044 C   0  0  0  0  0  0  0  0  0  0  0  0
    2.6214   -0.2305   -1.2165 C   0  0  0  0  0  0  0  0  0  0  0  0
    2.5971   -0.3377    1.1971 C   0  0  0  0  0  0  0  0  0  0  0  0
   -2.4137   -1.1544   -0.0360 C   0  0  0  0  0  0  0  0  0  0  0  0
   -2.7849    1.2319    0.0353 C   0  0  0  0  0  0  0  0  0  0  0  0
    3.9719    0.1172   -1.1875 C   0  0  0  0  0  0  0  0  0  0  0  0
    3.9477    0.0101    1.2259 C   0  0  0  0  0  0  0  0  0  0  0  0
    4.6350    0.2375    0.0336 C   0  0  0  0  0  0  0  0  0  0  0  0
   -3.7920   -1.3691   -0.0282 C   0  0  0  0  0  0  0  0  0  0  0  0
   -4.1632    1.0171    0.0432 C   0  0  0  0  0  0  0  0  0  0  0  0
   -4.6666   -0.2834    0.0116 C   0  0  0  0  0  0  0  0  0  0  0  0
  1  4  2  0
  2  3  1  0
  2  4  1  0
  3  6  2  0
  3  7  1  0
  4  5  1  0
  5  8  2  0
  5  9  1  0
  6 10  1  0
  7 11  2  0
  8 13  1  0
  9 14  2  0
 10 12  2  0
 11 12  1  0
 13 15  2  0
 14 15  1  0
M  END
>  <PUBCHEM_COMPOUND_CID>  (1) 
9948

>  <PUBCHEM_CONFORMER_RMSD>  (1) 
0.6

>  <PUBCHEM_CONFORMER_DIVERSEORDER>  (1) 
1
13
12
18
14
20
5
10
4
3
7
6
9
16
19
15
17
2
11
8

>  <PUBCHEM_MMFF94_PARTIAL_CHARGES>  (1) 
25
1 -0.57
10 -0.15
11 -0.15
12 -0.15
13 -0.15
14 -0.15
15 -0.15
18 0.15
19 0.15
2 0.2
20 0.15
21 0.15
22 0.15
23 0.15
24 0.15
25 0.15
26 0.15
27 0.15
3 -0.14
4 0.42
5 0.09
6 -0.15
7 -0.15
8 -0.15
9 -0.15

>  <PUBCHEM_EFFECTIVE_ROTOR_COUNT>  (1) 
3

>  <PUBCHEM_PHARMACOPHORE_FEATURES>  (1) 
3
1 1 acceptor
6 3 6 7 10 11 12 rings
6 5 8 9 13 14 15 rings

>  <PUBCHEM_HEAVY_ATOM_COUNT>  (1) 
15

>  <PUBCHEM_ATOM_DEF_STEREO_COUNT>  (1) 
0

>  <PUBCHEM_ATOM_UDEF_STEREO_COUNT>  (1) 
0

>  <PUBCHEM_BOND_DEF_STEREO_COUNT>  (1) 
0

>  <PUBCHEM_BOND_UDEF_STEREO_COUNT>  (1) 
0

>  <PUBCHEM_ISOTOPIC_ATOM_COUNT>  (1) 
0

>  <PUBCHEM_COMPONENT_COUNT>  (1) 
1

>  <PUBCHEM_CACTVS_TAUTO_COUNT>  (1) 
2

>  <PUBCHEM_CONFORMER_ID>  (1) 
000026DC00000001

>  <PUBCHEM_MMFF94_ENERGY>  (1) 
41.2773

>  <PUBCHEM_FEATURE_SELFOVERLAP>  (1) 
15.223

>  <PUBCHEM_SHAPE_FINGERPRINT>  (1) 
10680689 15 17632576059065754583
10912923 1 17676488354039193041
11132069 177 18411700971917134831
11471102 20 15841832253153884538
11552529 35 14835548302006811623
11615757 297 14836402536209398843
12236239 1 17821728338700599478
12403814 3 17385722474584058997
13167823 11 17603864494349110634
13296908 3 17918275341885360863
13760787 5 17240202131537179079
14123238 8 14779268617774378555
14252887 29 17775011188778831414
14386348 63 17846784009141635167
15375358 24 18059855060558733111
17804303 29 18342175605061657449
18186145 218 13190339045643129565
19026448 4 17346599668454631435
19026448 5 17458344134712951887
19050596 39 17894348873611377904
200 152 16443059499929148695
20279233 1 17846780702048550190
20281475 54 18114175345934091403
22485316 2 18131069329041117287
22646028 1 17748542645220870483
22854114 59 17346877857813100178
2297311 6 18201731651592595581
23048698 100 16950282901514988202
23402539 116 16515397469727578311
23557571 272 18272378524814751884
23559900 14 18271250409068534654
300161 21 17822004319955144285
3268164 11 18341321237229514125
449060 50 16917062300011194456
474 4 16879644893190507412
4990 188 17917717881280069046
5104073 3 18270402689645454859
5281201 14 16988852657142562784
542803 24 17748829609213193300
573450 72 18114453492331902507
633830 44 14117529747936753893

>  <PUBCHEM_SHAPE_MULTIPOLES>  (1) 
302.82
10.22
1.21
1.01
0.29
0.07
-0.01
0.04
-0.09
1.21
0
-1.3
-0.04
-0.09

>  <PUBCHEM_SHAPE_SELFOVERLAP>  (1) 
650.114

>  <PUBCHEM_SHAPE_VOLUME>  (1) 
166.6

>  <PUBCHEM_COORDINATE_TYPE>  (1) 
2
5
10

$$$$
