9955
     RDKit          3D

 10 11  0  0  0  0  0  0  0  0999 V2000
    2.0595   -0.8900    0.0000 N   0  0  0  0  0  0  0  0  0  0  0  0
    1.6708    1.3048    0.0001 N   0  0  0  0  0  0  0  0  0  0  0  0
   -0.7561    1.1626    0.0000 N   0  0  0  0  0  0  0  0  0  0  0  0
   -1.6110   -1.1222    0.0001 N   0  0  0  0  0  0  0  0  0  0  0  0
   -3.0539    0.7225    0.0000 N   0  0  0  0  0  0  0  0  0  0  0  0
    0.7004   -0.7542   -0.0001 C   0  0  0  0  0  0  0  0  0  0  0  0
    0.4841    0.6172    0.0000 C   0  0  0  0  0  0  0  0  0  0  0  0
   -0.3611   -1.6377    0.0000 C   0  0  0  0  0  0  0  0  0  0  0  0
    2.5970    0.3701    0.0000 C   0  0  0  0  0  0  0  0  0  0  0  0
   -1.7297    0.2269   -0.0001 C   0  0  0  0  0  0  0  0  0  0  0  0
  1  6  1  0
  1  9  1  0
  2  7  1  0
  2  9  2  0
  3  7  1  0
  3 10  2  0
  4  8  2  0
  4 10  1  0
  5 10  1  0
  6  7  2  0
  6  8  1  0
M  END
>  <PUBCHEM_COMPOUND_CID>  (1) 
9955

>  <PUBCHEM_CONFORMER_RMSD>  (1) 
0.4

>  <PUBCHEM_CONFORMER_DIVERSEORDER>  (1) 
1

>  <PUBCHEM_MMFF94_PARTIAL_CHARGES>  (1) 
15
1 0.03
10 0.72
11 0.27
12 0.15
13 0.15
14 0.4
15 0.4
2 -0.57
3 -0.57
4 -0.62
5 -0.9
6 -0.15
7 0.48
8 0.16
9 0.04

>  <PUBCHEM_EFFECTIVE_ROTOR_COUNT>  (1) 
0

>  <PUBCHEM_PHARMACOPHORE_FEATURES>  (1) 
6
1 1 donor
1 5 donor
3 1 2 9 cation
4 3 4 5 10 cation
5 1 2 6 7 9 rings
6 3 4 6 7 8 10 rings

>  <PUBCHEM_HEAVY_ATOM_COUNT>  (1) 
10

>  <PUBCHEM_ATOM_DEF_STEREO_COUNT>  (1) 
0

>  <PUBCHEM_ATOM_UDEF_STEREO_COUNT>  (1) 
0

>  <PUBCHEM_BOND_DEF_STEREO_COUNT>  (1) 
0

>  <PUBCHEM_BOND_UDEF_STEREO_COUNT>  (1) 
0

>  <PUBCHEM_ISOTOPIC_ATOM_COUNT>  (1) 
0

>  <PUBCHEM_COMPONENT_COUNT>  (1) 
1

>  <PUBCHEM_CACTVS_TAUTO_COUNT>  (1) 
9

>  <PUBCHEM_CONFORMER_ID>  (1) 
000026E300000001

>  <PUBCHEM_MMFF94_ENERGY>  (1) 
20.8458

>  <PUBCHEM_FEATURE_SELFOVERLAP>  (1) 
30.578

>  <PUBCHEM_SHAPE_FINGERPRINT>  (1) 
14325111 11 18410856559951162337
16945 1 18410575050340289798
18185500 45 18193555798992271918
21040471 1 18410574032522698438
23235685 24 18411695474132311437
23402655 69 18268695127367127493
23552423 10 18260830457499258126
241688 4 17187572641705950290
2748010 2 18338800138127998551
29004967 10 14996274829928765856
5084963 1 18201717297584902609
528886 8 18411414012050902905

>  <PUBCHEM_SHAPE_MULTIPOLES>  (1) 
180.89
3.46
1.49
0.57
0.57
0.28
0
-0.77
0
0.08
0
-0.02
0.01
0

>  <PUBCHEM_SHAPE_SELFOVERLAP>  (1) 
399.438

>  <PUBCHEM_SHAPE_VOLUME>  (1) 
94.4

>  <PUBCHEM_COORDINATE_TYPE>  (1) 
2
5
10

$$$$
