9962
     RDKit          3D

 10 10  0  0  0  0  0  0  0  0999 V2000
    1.7688   -0.0348    0.0015 Si  0  0  0  0  0  4  0  0  0  0  0  0
    2.2484   -1.5664    0.0831 F   0  0  0  0  0  0  0  0  0  0  0  0
   -0.0947   -0.0063    0.0004 C   0  0  0  0  0  0  0  0  0  0  0  0
    2.4588    0.8373    1.4953 C   0  0  0  0  0  0  0  0  0  0  0  0
    2.4603    0.6741   -1.5756 C   0  0  0  0  0  0  0  0  0  0  0  0
   -0.7736    1.2121   -0.0125 C   0  0  0  0  0  0  0  0  0  0  0  0
   -0.8104   -1.2034    0.0122 C   0  0  0  0  0  0  0  0  0  0  0  0
   -2.1683    1.2334   -0.0136 C   0  0  0  0  0  0  0  0  0  0  0  0
   -2.2052   -1.1822    0.0110 C   0  0  0  0  0  0  0  0  0  0  0  0
   -2.8842    0.0362   -0.0019 C   0  0  0  0  0  0  0  0  0  0  0  0
  1  2  1  0
  1  3  1  0
  1  4  1  0
  1  5  1  0
  3  6  2  0
  3  7  1  0
  6  8  1  0
  7  9  2  0
  8 10  2  0
  9 10  1  0
M  END
>  <PUBCHEM_COMPOUND_CID>  (1) 
9962

>  <PUBCHEM_CONFORMER_RMSD>  (1) 
0.4

>  <PUBCHEM_CONFORMER_DIVERSEORDER>  (1) 
1
2
3

>  <PUBCHEM_MMFF94_PARTIAL_CHARGES>  (1) 
15
1 0.79
10 -0.15
17 0.15
18 0.15
19 0.15
2 -0.41
20 0.15
21 0.15
3 -0.22
4 -0.08
5 -0.08
6 -0.15
7 -0.15
8 -0.15
9 -0.15

>  <PUBCHEM_EFFECTIVE_ROTOR_COUNT>  (1) 
1

>  <PUBCHEM_PHARMACOPHORE_FEATURES>  (1) 
1
6 3 6 7 8 9 10 rings

>  <PUBCHEM_HEAVY_ATOM_COUNT>  (1) 
10

>  <PUBCHEM_ATOM_DEF_STEREO_COUNT>  (1) 
0

>  <PUBCHEM_ATOM_UDEF_STEREO_COUNT>  (1) 
0

>  <PUBCHEM_BOND_DEF_STEREO_COUNT>  (1) 
0

>  <PUBCHEM_BOND_UDEF_STEREO_COUNT>  (1) 
0

>  <PUBCHEM_ISOTOPIC_ATOM_COUNT>  (1) 
0

>  <PUBCHEM_COMPONENT_COUNT>  (1) 
1

>  <PUBCHEM_CACTVS_TAUTO_COUNT>  (1) 
1

>  <PUBCHEM_CONFORMER_ID>  (1) 
000026EA00000001

>  <PUBCHEM_MMFF94_ENERGY>  (1) 
15.4118

>  <PUBCHEM_FEATURE_SELFOVERLAP>  (1) 
5.074

>  <PUBCHEM_SHAPE_FINGERPRINT>  (1) 
10857977 72 18339918333085045329
12326174 3 16773795888073549126
12716758 59 18411697647649403515
12897270 3 18264220251731497844
12932741 1 17775290477553858900
12932764 1 18131355223612878967
14325111 11 18410855421716244153
14390081 3 18201432588587592833
15310529 11 16443343212858153189
15775835 57 18340774758027247168
16945 1 18337954605365290437
170605 34 17096102397186294612
19973954 147 18272646831416289336
20645464 45 17917986208960849536
20653085 51 17095518444842737549
20711985 344 16913999997193680080
21040471 1 18338235968519955053
23552423 10 18186803547635877443
2748010 2 18411699855267913895
3248919 1 17967810569852285923
369184 2 18131342008114430331
5084963 1 18261957319188488248
8030462 33 18411419518236003671

>  <PUBCHEM_SHAPE_MULTIPOLES>  (1) 
216.73
4.5
1.47
1.11
0.43
0.19
-0.06
-0.19
-0.02
0.23
0.05
-1.16
-0.28
0.05

>  <PUBCHEM_SHAPE_SELFOVERLAP>  (1) 
422.273

>  <PUBCHEM_SHAPE_VOLUME>  (1) 
131

>  <PUBCHEM_COORDINATE_TYPE>  (1) 
2
5
10

$$$$
