9966
     RDKit          3D

 13 13  0  0  0  0  0  0  0  0999 V2000
    3.1865    1.2389   -0.0014 F   0  0  0  0  0  0  0  0  0  0  0  0
    3.1672   -0.6386    1.0843 F   0  0  0  0  0  0  0  0  0  0  0  0
    3.1446   -0.6430   -1.0901 F   0  0  0  0  0  0  0  0  0  0  0  0
   -3.6421   -1.2011    0.0005 O   0  0  0  0  0  0  0  0  0  0  0  0
   -3.8147    1.0653   -0.0002 O   0  0  0  0  0  0  0  0  0  0  0  0
    1.1350    0.0081    0.0012 C   0  0  0  0  0  0  0  0  0  0  0  0
    0.4498    1.2231   -0.0002 C   0  0  0  0  0  0  0  0  0  0  0  0
    0.4252   -1.1928    0.0024 C   0  0  0  0  0  0  0  0  0  0  0  0
   -1.6546    0.0367    0.0006 C   0  0  0  0  0  0  0  0  0  0  0  0
   -0.9449    1.2375   -0.0005 C   0  0  0  0  0  0  0  0  0  0  0  0
   -0.9696   -1.1784    0.0021 C   0  0  0  0  0  0  0  0  0  0  0  0
    2.6265   -0.0070    0.0007 C   0  0  0  0  0  0  0  0  0  0  0  0
   -3.1089    0.0514    0.0006 C   0  0  0  0  0  0  0  0  0  0  0  0
  1 12  1  0
  2 12  1  0
  3 12  1  0
  4 13  1  0
  5 13  2  0
  6  7  2  0
  6  8  1  0
  6 12  1  0
  7 10  1  0
  8 11  2  0
  9 10  2  0
  9 11  1  0
  9 13  1  0
M  END
>  <PUBCHEM_COMPOUND_CID>  (1) 
9966

>  <PUBCHEM_CONFORMER_RMSD>  (1) 
0.6

>  <PUBCHEM_CONFORMER_DIVERSEORDER>  (1) 
1

>  <PUBCHEM_MMFF94_PARTIAL_CHARGES>  (1) 
18
1 -0.34
10 -0.15
11 -0.15
12 1.16
13 0.63
14 0.15
15 0.15
16 0.15
17 0.15
18 0.5
2 -0.34
3 -0.34
4 -0.65
5 -0.57
6 -0.14
7 -0.15
8 -0.15
9 0.09

>  <PUBCHEM_EFFECTIVE_ROTOR_COUNT>  (1) 
2

>  <PUBCHEM_PHARMACOPHORE_FEATURES>  (1) 
4
1 4 acceptor
1 5 acceptor
3 4 5 13 anion
6 6 7 8 9 10 11 rings

>  <PUBCHEM_HEAVY_ATOM_COUNT>  (1) 
13

>  <PUBCHEM_ATOM_DEF_STEREO_COUNT>  (1) 
0

>  <PUBCHEM_ATOM_UDEF_STEREO_COUNT>  (1) 
0

>  <PUBCHEM_BOND_DEF_STEREO_COUNT>  (1) 
0

>  <PUBCHEM_BOND_UDEF_STEREO_COUNT>  (1) 
0

>  <PUBCHEM_ISOTOPIC_ATOM_COUNT>  (1) 
0

>  <PUBCHEM_COMPONENT_COUNT>  (1) 
1

>  <PUBCHEM_CACTVS_TAUTO_COUNT>  (1) 
1

>  <PUBCHEM_CONFORMER_ID>  (1) 
000026EE00000001

>  <PUBCHEM_MMFF94_ENERGY>  (1) 
27.3629

>  <PUBCHEM_FEATURE_SELFOVERLAP>  (1) 
20.355

>  <PUBCHEM_SHAPE_FINGERPRINT>  (1) 
10130415 120 18261386745858053376
10219947 1 18411420613563375253
11062470 55 18334013886903429161
11132069 177 18342452625745767025
12032990 46 18412834594180684231
12932764 1 17676482834995603141
13296908 3 18272654545267022199
14144814 61 18407476665380903667
14325111 11 18410855473208339937
14993402 34 18261395567604750333
16945 1 18410575054629969347
18186145 218 18333731307972417637
19026448 4 16487254365723614691
19026448 5 16443066092909650287
193761 8 17546164108461327719
20645476 183 17677067835554261054
20645477 70 17703512082170706839
23402539 116 18271514347572183422
23402655 69 18196637529203024301
23463225 33 18334289829888409666
23552423 10 17971755724920502956
23559900 14 18343022173449508494
2748010 2 18194119852836560863
528886 8 18411695470243357283

>  <PUBCHEM_SHAPE_MULTIPOLES>  (1) 
233.97
6.03
1.38
0.71
0.89
0.07
0
-0.01
-0.01
0.25
0
-0.41
-0.08
0

>  <PUBCHEM_SHAPE_SELFOVERLAP>  (1) 
497.94

>  <PUBCHEM_SHAPE_VOLUME>  (1) 
131.6

>  <PUBCHEM_COORDINATE_TYPE>  (1) 
2
5
10

$$$$
