9975
     RDKit          3D

  9  9  0  0  0  0  0  0  0  0999 V2000
    2.7219   -1.1158    0.0006 F   0  0  0  0  0  0  0  0  0  0  0  0
   -2.0284   -0.9181    0.0000 O   0  0  0  0  0  0  0  0  0  0  0  0
   -0.8212   -0.2895    0.0002 C   0  0  0  0  0  0  0  0  0  0  0  0
    0.3550   -1.0394   -0.0002 C   0  0  0  0  0  0  0  0  0  0  0  0
   -0.7600    1.1040    0.0003 C   0  0  0  0  0  0  0  0  0  0  0  0
    1.5924   -0.3957   -0.0005 C   0  0  0  0  0  0  0  0  0  0  0  0
    0.4776    1.7477    0.0001 C   0  0  0  0  0  0  0  0  0  0  0  0
    1.6538    0.9978   -0.0003 C   0  0  0  0  0  0  0  0  0  0  0  0
   -3.1911   -0.0910   -0.0001 C   0  0  0  0  0  0  0  0  0  0  0  0
  1  6  1  0
  2  3  1  0
  2  9  1  0
  3  4  2  0
  3  5  1  0
  4  6  1  0
  5  7  2  0
  6  8  2  0
  7  8  1  0
M  END
>  <PUBCHEM_COMPOUND_CID>  (1) 
9975

>  <PUBCHEM_CONFORMER_RMSD>  (1) 
0.4

>  <PUBCHEM_CONFORMER_DIVERSEORDER>  (1) 
1
2

>  <PUBCHEM_MMFF94_PARTIAL_CHARGES>  (1) 
13
1 -0.19
10 0.15
11 0.15
12 0.15
13 0.15
2 -0.36
3 0.08
4 -0.15
5 -0.15
6 0.19
7 -0.15
8 -0.15
9 0.28

>  <PUBCHEM_EFFECTIVE_ROTOR_COUNT>  (1) 
1

>  <PUBCHEM_PHARMACOPHORE_FEATURES>  (1) 
2
1 2 acceptor
6 3 4 5 6 7 8 rings

>  <PUBCHEM_HEAVY_ATOM_COUNT>  (1) 
9

>  <PUBCHEM_ATOM_DEF_STEREO_COUNT>  (1) 
0

>  <PUBCHEM_ATOM_UDEF_STEREO_COUNT>  (1) 
0

>  <PUBCHEM_BOND_DEF_STEREO_COUNT>  (1) 
0

>  <PUBCHEM_BOND_UDEF_STEREO_COUNT>  (1) 
0

>  <PUBCHEM_ISOTOPIC_ATOM_COUNT>  (1) 
0

>  <PUBCHEM_COMPONENT_COUNT>  (1) 
1

>  <PUBCHEM_CACTVS_TAUTO_COUNT>  (1) 
1

>  <PUBCHEM_CONFORMER_ID>  (1) 
000026F700000001

>  <PUBCHEM_MMFF94_ENERGY>  (1) 
27.6313

>  <PUBCHEM_FEATURE_SELFOVERLAP>  (1) 
10.148

>  <PUBCHEM_SHAPE_FINGERPRINT>  (1) 
16945 1 18266740370905320384
18185500 45 18341330110120172766
21040471 1 17906171002995659844
23402655 69 18340755002037659029
23552423 10 18260831522355560030
241688 4 18337110042933226632
2748010 2 18410568457629105948
29004967 10 18335140946319488665
5084963 1 18272088283746031707

>  <PUBCHEM_SHAPE_MULTIPOLES>  (1) 
172.07
3.56
1.54
0.59
1.84
0.4
0
-0.89
0
-0.54
0
0.01
0.03
0

>  <PUBCHEM_SHAPE_SELFOVERLAP>  (1) 
355.439

>  <PUBCHEM_SHAPE_VOLUME>  (1) 
99.9

>  <PUBCHEM_COORDINATE_TYPE>  (1) 
2
5
10

$$$$
