9979
     RDKit          3D

 16 16  0  0  0  0  0  0  0  0999 V2000
   -3.7287    1.5489   -0.0670 F   0  0  0  0  0  0  0  0  0  0  0  0
   -4.4843   -0.1228   -1.2466 F   0  0  0  0  0  0  0  0  0  0  0  0
   -4.6159   -0.1749    0.9281 F   0  0  0  0  0  0  0  0  0  0  0  0
    4.0245   -0.4238    0.3410 O   0  0  0  0  0  0  0  0  0  0  0  0
   -2.3611   -1.6838   -0.0724 O   0  0  0  0  0  0  0  0  0  0  0  0
   -1.4385    0.4820    0.0411 N   0  0  0  0  0  0  0  0  0  0  0  0
   -0.0642    0.2543    0.1166 C   0  0  0  0  0  0  0  0  0  0  0  0
    2.6840   -0.2015    0.2666 C   0  0  0  0  0  0  0  0  0  0  0  0
    0.8182    1.3318    0.1960 C   0  0  0  0  0  0  0  0  0  0  0  0
    0.4276   -1.0510    0.1122 C   0  0  0  0  0  0  0  0  0  0  0  0
    2.1923    1.1039    0.2710 C   0  0  0  0  0  0  0  0  0  0  0  0
    1.8017   -1.2788    0.1872 C   0  0  0  0  0  0  0  0  0  0  0  0
    4.8801    0.5716   -0.2185 C   0  0  0  0  0  0  0  0  0  0  0  0
   -2.4689   -0.4625   -0.0437 C   0  0  0  0  0  0  0  0  0  0  0  0
    6.1526   -0.0886   -0.7048 C   0  0  0  0  0  0  0  0  0  0  0  0
   -3.8192    0.1951   -0.1067 C   0  0  0  0  0  0  0  0  0  0  0  0
  1 16  1  0
  2 16  1  0
  3 16  1  0
  4  8  1  0
  4 13  1  0
  5 14  2  0
  6  7  1  0
  6 14  1  0
  7  9  2  0
  7 10  1  0
  8 11  2  0
  8 12  1  0
  9 11  1  0
 10 12  2  0
 13 15  1  0
 14 16  1  0
M  END
>  <PUBCHEM_COMPOUND_CID>  (1) 
9979

>  <PUBCHEM_CONFORMER_RMSD>  (1) 
0.6

>  <PUBCHEM_CONFORMER_DIVERSEORDER>  (1) 
1
7
2
5
3
4
8
6

>  <PUBCHEM_MMFF94_PARTIAL_CHARGES>  (1) 
20
1 -0.34
10 -0.15
11 -0.15
12 -0.15
13 0.28
14 0.57
16 1.08
17 0.15
18 0.15
19 0.15
2 -0.34
20 0.15
21 0.37
3 -0.34
4 -0.36
5 -0.57
6 -0.55
7 0.12
8 0.08
9 -0.15

>  <PUBCHEM_EFFECTIVE_ROTOR_COUNT>  (1) 
5

>  <PUBCHEM_PHARMACOPHORE_FEATURES>  (1) 
4
1 4 acceptor
1 5 acceptor
1 6 donor
6 7 8 9 10 11 12 rings

>  <PUBCHEM_HEAVY_ATOM_COUNT>  (1) 
16

>  <PUBCHEM_ATOM_DEF_STEREO_COUNT>  (1) 
0

>  <PUBCHEM_ATOM_UDEF_STEREO_COUNT>  (1) 
0

>  <PUBCHEM_BOND_DEF_STEREO_COUNT>  (1) 
0

>  <PUBCHEM_BOND_UDEF_STEREO_COUNT>  (1) 
0

>  <PUBCHEM_ISOTOPIC_ATOM_COUNT>  (1) 
0

>  <PUBCHEM_COMPONENT_COUNT>  (1) 
1

>  <PUBCHEM_CACTVS_TAUTO_COUNT>  (1) 
2

>  <PUBCHEM_CONFORMER_ID>  (1) 
000026FB00000001

>  <PUBCHEM_MMFF94_ENERGY>  (1) 
41.534

>  <PUBCHEM_FEATURE_SELFOVERLAP>  (1) 
20.297

>  <PUBCHEM_SHAPE_FINGERPRINT>  (1) 
11287383 113 16298393487077909680
11401426 45 18411697708063730240
11471102 20 18410287012980585482
12670543 26 18340493270888269430
13760787 19 17821444677580546642
13862211 1 18413101750121551834
14123238 8 13190341275094984090
14144814 61 18410853240168127209
14911166 2 18411983576908029204
14993402 34 18342457054210476954
15048467 5 17385443228674210980
15242433 33 18335420158249549186
17834072 33 17632292415109648772
17834072 8 18413387644313408420
17834076 25 17917714595308178179
18186145 218 18338789113205561928
200 152 17703790327321194418
20645477 70 18340486656291129846
21267235 1 18340774822826380795
23402539 116 14620797084984152792
23402655 69 18341043017716824085
23559900 14 18200865296332857064
2916195 48 13984664789122954012
3545911 37 18410857672326619075
42788 4 18335140895302074860
4463277 17 18412829092876230224
4990 188 18060144236902208148
5104073 3 18339921640320731250
542803 24 17095242518895162132
68521 5 18343304726104879560

>  <PUBCHEM_SHAPE_MULTIPOLES>  (1) 
290.73
11.19
1.31
0.75
4.14
0.02
0.07
-0.56
2.09
-0.27
-0.06
-0.2
0.01
0

>  <PUBCHEM_SHAPE_SELFOVERLAP>  (1) 
601.81

>  <PUBCHEM_SHAPE_VOLUME>  (1) 
166.4

>  <PUBCHEM_COORDINATE_TYPE>  (1) 
2
5
10

$$$$
