9982
     RDKit          3D

 12 12  0  0  1  0  0  0  0  0999 V2000
    2.7012    0.2540    0.4359 N   0  0  0  0  0  0  0  0  0  0  0  0
    1.3635    0.0515   -0.1283 C   0  0  0  0  0  0  0  0  0  0  0  0
    0.3026    0.3431    0.9486 C   0  0  0  0  0  0  0  0  0  0  0  0
   -1.1167    0.2014    0.4532 C   0  0  0  0  0  0  0  0  0  0  0  0
    1.2785   -1.3782   -0.6631 C   0  0  0  0  0  0  0  0  0  0  0  0
    3.7214    0.0451   -0.5779 C   0  0  0  0  0  0  0  0  0  0  0  0
   -1.7593    1.3026   -0.0901 C   0  0  0  0  0  0  0  0  0  0  0  0
   -1.7505   -1.0271    0.5502 C   0  0  0  0  0  0  0  0  0  0  0  0
    5.1127    0.2520   -0.0158 C   0  0  0  0  0  0  0  0  0  0  0  0
   -3.0703    1.1718   -0.5480 C   0  0  0  0  0  0  0  0  0  0  0  0
   -3.0616   -1.1578    0.0922 C   0  0  0  0  0  0  0  0  0  0  0  0
   -3.7214   -0.0584   -0.4569 C   0  0  0  0  0  0  0  0  0  0  0  0
  1  2  1  0
  1  6  1  0
  2  3  1  0
  2  5  1  0
  3  4  1  0
  4  7  2  0
  4  8  1  0
  6  9  1  0
  7 10  1  0
  8 11  2  0
 10 12  2  0
 11 12  1  0
M  END
>  <PUBCHEM_COMPOUND_CID>  (1) 
9982

>  <PUBCHEM_CONFORMER_RMSD>  (1) 
0.6

>  <PUBCHEM_CONFORMER_DIVERSEORDER>  (1) 
2
14
25
13
20
26
5
21
19
4
7
17
16
3
11
6
1
24
23
8
9
27
18
10
15
22
12

>  <PUBCHEM_MMFF94_PARTIAL_CHARGES>  (1) 
16
1 -0.9
10 -0.15
11 -0.15
12 -0.15
16 0.36
2 0.27
22 0.15
23 0.15
27 0.15
28 0.15
29 0.15
3 0.14
4 -0.14
6 0.27
7 -0.15
8 -0.15

>  <PUBCHEM_EFFECTIVE_ROTOR_COUNT>  (1) 
4

>  <PUBCHEM_PHARMACOPHORE_FEATURES>  (1) 
3
1 1 cation
1 1 donor
6 4 7 8 10 11 12 rings

>  <PUBCHEM_HEAVY_ATOM_COUNT>  (1) 
12

>  <PUBCHEM_ATOM_DEF_STEREO_COUNT>  (1) 
0

>  <PUBCHEM_ATOM_UDEF_STEREO_COUNT>  (1) 
1

>  <PUBCHEM_BOND_DEF_STEREO_COUNT>  (1) 
0

>  <PUBCHEM_BOND_UDEF_STEREO_COUNT>  (1) 
0

>  <PUBCHEM_ISOTOPIC_ATOM_COUNT>  (1) 
0

>  <PUBCHEM_COMPONENT_COUNT>  (1) 
1

>  <PUBCHEM_CACTVS_TAUTO_COUNT>  (1) 
1

>  <PUBCHEM_CONFORMER_ID>  (1) 
000026FE00000002

>  <PUBCHEM_MMFF94_ENERGY>  (1) 
18.1671

>  <PUBCHEM_FEATURE_SELFOVERLAP>  (1) 
15.223

>  <PUBCHEM_SHAPE_FINGERPRINT>  (1) 
11062470 55 17385442128824940182
12162725 195 17894638075513978476
12897270 3 18413388735129599785
12932764 1 14117515385671682482
13024252 1 17095244726866944529
15775835 57 17095236991156240101
17134986 127 17253423505854455797
18534176 82 18334298690564255403
200 152 17275382101506007237
20201158 50 18272370862735234463
20279233 1 18272375265013409486
20300324 65 18333732441907080621
20645476 183 17385435544999194115
20645477 56 18334576794208195797
20645477 70 17845659140713012654
20871999 31 18335408081165152871
21061003 4 17703794764233499161
21119208 17 18186519912369413452
21293036 1 17918274255575107012
22485316 2 13254801213635864756
23402539 116 18186794799040436967
23402655 69 18200305516497784221
23557571 272 18409453570160783197
23559900 14 18339921511893854010
265663 24 18040712572115191466
573450 72 18040984129848801272
57812782 119 18413109472256199380
58051976 378 18342176652711853046
6333449 129 18409729556358940009

>  <PUBCHEM_SHAPE_MULTIPOLES>  (1) 
241.97
8.19
1.26
0.85
8.31
0.11
-0.03
-0.66
1.26
-0.86
0.11
-0.01
0.01
0.39

>  <PUBCHEM_SHAPE_SELFOVERLAP>  (1) 
480.732

>  <PUBCHEM_SHAPE_VOLUME>  (1) 
144.4

>  <PUBCHEM_COORDINATE_TYPE>  (1) 
2
5
10

$$$$
