9983
     RDKit          3D

 13 13  0  0  0  0  0  0  0  0999 V2000
   -2.1539    1.7430   -0.4412 O   0  0  0  0  0  0  0  0  0  0  0  0
   -3.6645   -0.5722   -0.1586 O   0  0  0  0  0  0  0  0  0  0  0  0
    4.8235    0.9658   -0.5842 O   0  0  0  0  0  0  0  0  0  0  0  0
    0.4805   -0.7520    0.0047 C   0  0  0  0  0  0  0  0  0  0  0  0
   -0.1534    0.4746   -0.1934 C   0  0  0  0  0  0  0  0  0  0  0  0
   -1.5457    0.5394   -0.2486 C   0  0  0  0  0  0  0  0  0  0  0  0
   -0.2779   -1.9139    0.1479 C   0  0  0  0  0  0  0  0  0  0  0  0
   -2.3042   -0.6224   -0.1054 C   0  0  0  0  0  0  0  0  0  0  0  0
   -1.6704   -1.8490    0.0931 C   0  0  0  0  0  0  0  0  0  0  0  0
    1.9322   -0.8196    0.0617 C   0  0  0  0  0  0  0  0  0  0  0  0
    2.7641    0.2156    0.3183 C   0  0  0  0  0  0  0  0  0  0  0  0
    4.2529    0.0939    0.3816 C   0  0  0  0  0  0  0  0  0  0  0  0
   -2.4831    2.4967    0.7240 C   0  0  0  0  0  0  0  0  0  0  0  0
  1  6  1  0
  1 13  1  0
  2  8  1  0
  3 12  1  0
  4  5  2  0
  4  7  1  0
  4 10  1  0
  5  6  1  0
  6  8  2  0
  7  9  2  0
  8  9  1  0
 10 11  2  0
 11 12  1  0
M  END
>  <PUBCHEM_COMPOUND_CID>  (1) 
9983

>  <PUBCHEM_CONFORMER_RMSD>  (1) 
0.6

>  <PUBCHEM_CONFORMER_DIVERSEORDER>  (1) 
2
4
3
7
6
5
1

>  <PUBCHEM_MMFF94_PARTIAL_CHARGES>  (1) 
20
1 -0.36
10 -0.18
11 -0.29
12 0.42
13 0.28
14 0.15
15 0.15
16 0.15
17 0.15
18 0.15
2 -0.53
24 0.45
25 0.4
3 -0.68
4 0.03
5 -0.15
6 0.08
7 -0.15
8 0.08
9 -0.15

>  <PUBCHEM_EFFECTIVE_ROTOR_COUNT>  (1) 
3

>  <PUBCHEM_PHARMACOPHORE_FEATURES>  (1) 
5
1 1 acceptor
1 2 donor
1 3 acceptor
1 3 donor
6 4 5 6 7 8 9 rings

>  <PUBCHEM_HEAVY_ATOM_COUNT>  (1) 
13

>  <PUBCHEM_ATOM_DEF_STEREO_COUNT>  (1) 
0

>  <PUBCHEM_ATOM_UDEF_STEREO_COUNT>  (1) 
0

>  <PUBCHEM_BOND_DEF_STEREO_COUNT>  (1) 
0

>  <PUBCHEM_BOND_UDEF_STEREO_COUNT>  (1) 
1

>  <PUBCHEM_ISOTOPIC_ATOM_COUNT>  (1) 
0

>  <PUBCHEM_COMPONENT_COUNT>  (1) 
1

>  <PUBCHEM_CACTVS_TAUTO_COUNT>  (1) 
3

>  <PUBCHEM_CONFORMER_ID>  (1) 
000026FF00000002

>  <PUBCHEM_MMFF94_ENERGY>  (1) 
41.0716

>  <PUBCHEM_FEATURE_SELFOVERLAP>  (1) 
25.371

>  <PUBCHEM_SHAPE_FINGERPRINT>  (1) 
10608611 8 18342452651900699144
12346645 44 18337953389641729947
12390115 104 18128836169612609969
13024252 1 12107778606144925551
13839132 238 18270965622255151318
13897977 58 18261959643092882116
14123255 52 18051132497371896953
14325111 11 18337950095749966874
14614273 12 18114734928801639679
15042514 8 18265334091255057523
15219456 202 18130230350425013286
15669948 3 18338225072525950986
15775835 57 18261956241362843104
16945 1 18409736179066972991
1741750 31 18342174410775873680
18186145 218 18196373624256486980
20510252 161 18342458123298624905
20645477 70 16702034054516670726
20671657 1 17834965161281503383
20871998 184 18270965755610666767
21501502 16 18267296539058149026
21524375 3 18196360438269135618
22485316 2 9511460018325381276
23402539 116 18341039805091901391
23557571 272 18130515209524392054
23559900 14 18200314287475331782
2748010 2 18193281780374400783
3071541 12 17836368146529320495
6333449 129 18411132515652168149

>  <PUBCHEM_SHAPE_MULTIPOLES>  (1) 
249.93
6.85
2.12
0.7
8.32
0.57
0.03
2.49
-0.21
-1.98
0.28
0.04
0.13
-0.37

>  <PUBCHEM_SHAPE_SELFOVERLAP>  (1) 
512.35

>  <PUBCHEM_SHAPE_VOLUME>  (1) 
145.2

>  <PUBCHEM_COORDINATE_TYPE>  (1) 
2
5
10

$$$$
