9988
     RDKit          3D

  7  6  0  0  0  0  0  0  0  0999 V2000
    2.8286   -0.2349   -0.0112 F   0  0  0  0  0  0  0  0  0  0  0  0
   -0.6982   -0.4540    0.0020 O   0  0  0  0  0  0  0  0  0  0  0  0
    0.6930    1.3898    0.0027 O   0  0  0  0  0  0  0  0  0  0  0  0
   -1.8441    0.4035   -0.0020 C   0  0  0  0  0  0  0  0  0  0  0  0
   -3.0965   -0.4470   -0.0038 C   0  0  0  0  0  0  0  0  0  0  0  0
    0.5086    0.1802    0.0040 C   0  0  0  0  0  0  0  0  0  0  0  0
    1.6086   -0.8376    0.0085 C   0  0  0  0  0  0  0  0  0  0  0  0
  1  7  1  0
  2  4  1  0
  2  6  1  0
  3  6  2  0
  4  5  1  0
  6  7  1  0
M  END
>  <PUBCHEM_COMPOUND_CID>  (1) 
9988

>  <PUBCHEM_CONFORMER_RMSD>  (1) 
0.4

>  <PUBCHEM_CONFORMER_DIVERSEORDER>  (1) 
1
22
20
19
15
37
25
11
27
38
21
16
9
4
2
14
26
3
13
28
30
33
24
36
8
23
35
7
6
17
5
18
12
10
29
31
32
34

>  <PUBCHEM_MMFF94_PARTIAL_CHARGES>  (1) 
6
1 -0.34
2 -0.43
3 -0.57
4 0.28
6 0.66
7 0.4

>  <PUBCHEM_EFFECTIVE_ROTOR_COUNT>  (1) 
3

>  <PUBCHEM_PHARMACOPHORE_FEATURES>  (1) 
1
1 3 acceptor

>  <PUBCHEM_HEAVY_ATOM_COUNT>  (1) 
7

>  <PUBCHEM_ATOM_DEF_STEREO_COUNT>  (1) 
0

>  <PUBCHEM_ATOM_UDEF_STEREO_COUNT>  (1) 
0

>  <PUBCHEM_BOND_DEF_STEREO_COUNT>  (1) 
0

>  <PUBCHEM_BOND_UDEF_STEREO_COUNT>  (1) 
0

>  <PUBCHEM_ISOTOPIC_ATOM_COUNT>  (1) 
0

>  <PUBCHEM_COMPONENT_COUNT>  (1) 
1

>  <PUBCHEM_CACTVS_TAUTO_COUNT>  (1) 
1

>  <PUBCHEM_CONFORMER_ID>  (1) 
0000270400000001

>  <PUBCHEM_MMFF94_ENERGY>  (1) 
1.5575

>  <PUBCHEM_FEATURE_SELFOVERLAP>  (1) 
5.074

>  <PUBCHEM_SHAPE_FINGERPRINT>  (1) 
20096714 4 18339643459488996577
23552423 10 17972044638902201278
29004967 10 18410295783055968666
5460574 1 9295286144730890947

>  <PUBCHEM_SHAPE_MULTIPOLES>  (1) 
125.04
4.12
1.01
0.57
1.19
0.22
0
-0.9
0.01
-0.19
0
0.05
-0.01
0

>  <PUBCHEM_SHAPE_SELFOVERLAP>  (1) 
226.061

>  <PUBCHEM_SHAPE_VOLUME>  (1) 
80.3

>  <PUBCHEM_COORDINATE_TYPE>  (1) 
2
5
10

$$$$
