9991
     RDKit          3D

 13 12  0  0  0  0  0  0  0  0999 V2000
   -1.3160   -0.2157   -0.1244 N   0  0  0  0  0  0  0  0  0  0  0  0
    1.4596   -0.2955    0.0445 N   0  0  0  0  0  0  0  0  0  0  0  0
   -2.6850   -0.3216    0.0937 N   0  0  0  0  0  0  0  0  0  0  0  0
    2.8040   -0.4934   -0.2527 N   0  0  0  0  0  0  0  0  0  0  0  0
   -4.6454    1.0577    0.1289 N   0  0  0  0  0  0  0  0  0  0  0  0
   -2.6022    1.9714   -0.3332 N   0  0  0  0  0  0  0  0  0  0  0  0
    4.8913    0.5494   -0.1865 N   0  0  0  0  0  0  0  0  0  0  0  0
    3.0934    1.7391    0.5718 N   0  0  0  0  0  0  0  0  0  0  0  0
   -0.6970   -1.3475   -0.0096 C   0  0  0  0  0  0  0  0  0  0  0  0
   -1.3193   -2.6763    0.3114 C   0  0  0  0  0  0  0  0  0  0  0  0
    0.7784   -1.3456   -0.2542 C   0  0  0  0  0  0  0  0  0  0  0  0
   -3.2971    0.8270   -0.0252 C   0  0  0  0  0  0  0  0  0  0  0  0
    3.5354    0.5509    0.0355 C   0  0  0  0  0  0  0  0  0  0  0  0
  1  3  1  0
  1  9  2  0
  2  4  1  0
  2 11  2  0
  3 12  2  0
  4 13  2  0
  5 12  1  0
  6 12  1  0
  7 13  1  0
  8 13  1  0
  9 10  1  0
  9 11  1  0
M  END
>  <PUBCHEM_COMPOUND_CID>  (1) 
9991

>  <PUBCHEM_CONFORMER_RMSD>  (1) 
0.6

>  <PUBCHEM_CONFORMER_DIVERSEORDER>  (1) 
1
3
4
2

>  <PUBCHEM_MMFF94_PARTIAL_CHARGES>  (1) 
22
1 -0.45
10 0.06
11 0.39
12 0.55
13 0.55
17 0.06
18 0.4
19 0.4
2 -0.45
20 0.4
21 0.4
22 0.4
23 0.4
24 0.4
25 0.4
3 -0.45
4 -0.45
5 -0.85
6 -0.85
7 -0.85
8 -0.85
9 0.39

>  <PUBCHEM_EFFECTIVE_ROTOR_COUNT>  (1) 
3

>  <PUBCHEM_PHARMACOPHORE_FEATURES>  (1) 
8
1 1 acceptor
1 2 acceptor
1 5 donor
1 6 donor
1 7 donor
1 8 donor
4 3 5 6 12 cation
4 4 7 8 13 cation

>  <PUBCHEM_HEAVY_ATOM_COUNT>  (1) 
13

>  <PUBCHEM_ATOM_DEF_STEREO_COUNT>  (1) 
0

>  <PUBCHEM_ATOM_UDEF_STEREO_COUNT>  (1) 
0

>  <PUBCHEM_BOND_DEF_STEREO_COUNT>  (1) 
0

>  <PUBCHEM_BOND_UDEF_STEREO_COUNT>  (1) 
2

>  <PUBCHEM_ISOTOPIC_ATOM_COUNT>  (1) 
0

>  <PUBCHEM_COMPONENT_COUNT>  (1) 
1

>  <PUBCHEM_CACTVS_TAUTO_COUNT>  (1) 
8

>  <PUBCHEM_CONFORMER_ID>  (1) 
0000270700000001

>  <PUBCHEM_MMFF94_ENERGY>  (1) 
38.6274

>  <PUBCHEM_FEATURE_SELFOVERLAP>  (1) 
40.71

>  <PUBCHEM_SHAPE_FINGERPRINT>  (1) 
10608611 8 18269835470736769912
122479 349 18410576214239685642
13081056 2 18412266095008119325
14123255 52 18409164385627877807
14252887 29 13551468138571269744
14897335 6 18411134727576565622
15501527 16 18411985784088930184
1741750 31 18412825789297390970
17834072 32 18410015467726118356
17834072 8 18201447948255709454
18186145 218 18201728292696041906
20281407 28 8646768910765067774
20374829 77 10015580584595855517
20645477 56 18410016550089161662
20645477 70 17131565959656485318
20671657 53 13398627242796100122
20767249 271 18410568492099477600
20871998 22 9222933864560815535
21499 59 18338228272424058999
21524375 3 18411135801402681679
23402539 116 18341604932229498007
23402655 69 17989487394254336524
23403322 49 9655581798590857317
23500284 214 18410298012165139859
23557571 272 18200324345222894854
6430166 295 18410570687244302352

>  <PUBCHEM_SHAPE_MULTIPOLES>  (1) 
227.69
8.46
2.22
0.61
3.41
0.78
-0.01
-5.51
-0.09
-1.3
-0.17
0.06
0
0.41

>  <PUBCHEM_SHAPE_SELFOVERLAP>  (1) 
438.65

>  <PUBCHEM_SHAPE_VOLUME>  (1) 
136.4

>  <PUBCHEM_COORDINATE_TYPE>  (1) 
2
5
10

$$$$
