9996
     RDKit          3D

  4  3  0  0  0  0  0  0  0  0999 V2000
   -1.7750    0.1594   -0.0074 F   0  0  0  0  0  0  0  0  0  0  0  0
    1.8291   -0.1580   -0.0070 N   0  0  0  0  0  0  0  0  0  0  0  0
    0.5356    0.5074    0.0073 C   0  0  0  0  0  0  0  0  0  0  0  0
   -0.5898   -0.5088    0.0071 C   0  0  0  0  0  0  0  0  0  0  0  0
  1  4  1  0
  2  3  1  0
  3  4  1  0
M  END
>  <PUBCHEM_COMPOUND_CID>  (1) 
9996

>  <PUBCHEM_CONFORMER_RMSD>  (1) 
0.4

>  <PUBCHEM_CONFORMER_DIVERSEORDER>  (1) 
1
2
3

>  <PUBCHEM_MMFF94_PARTIAL_CHARGES>  (1) 
6
1 -0.34
10 0.36
2 -0.99
3 0.27
4 0.34
9 0.36

>  <PUBCHEM_EFFECTIVE_ROTOR_COUNT>  (1) 
1

>  <PUBCHEM_PHARMACOPHORE_FEATURES>  (1) 
2
1 2 cation
1 2 donor

>  <PUBCHEM_HEAVY_ATOM_COUNT>  (1) 
4

>  <PUBCHEM_ATOM_DEF_STEREO_COUNT>  (1) 
0

>  <PUBCHEM_ATOM_UDEF_STEREO_COUNT>  (1) 
0

>  <PUBCHEM_BOND_DEF_STEREO_COUNT>  (1) 
0

>  <PUBCHEM_BOND_UDEF_STEREO_COUNT>  (1) 
0

>  <PUBCHEM_ISOTOPIC_ATOM_COUNT>  (1) 
0

>  <PUBCHEM_COMPONENT_COUNT>  (1) 
1

>  <PUBCHEM_CACTVS_TAUTO_COUNT>  (1) 
1

>  <PUBCHEM_CONFORMER_ID>  (1) 
0000270C00000001

>  <PUBCHEM_MMFF94_ENERGY>  (1) 
-3.9111

>  <PUBCHEM_FEATURE_SELFOVERLAP>  (1) 
10.148

>  <PUBCHEM_SHAPE_FINGERPRINT>  (1) 
139733 1 9151174255279491744
20096714 4 18336266837578465165
21015797 1 9293557712356964642
5460574 1 9295293836938086370

>  <PUBCHEM_SHAPE_MULTIPOLES>  (1) 
70.06
2.09
0.72
0.56
0.07
0
0
0.03
0.01
0
0
0.01
0
0

>  <PUBCHEM_SHAPE_SELFOVERLAP>  (1) 
113.727

>  <PUBCHEM_SHAPE_VOLUME>  (1) 
49.2

>  <PUBCHEM_COORDINATE_TYPE>  (1) 
2
5
10

$$$$
