9998
     RDKit          3D

  4  3  0  0  0  0  0  0  0  0999 V2000
    1.3576    0.6113    0.1515 F   0  0  0  0  0  0  0  0  0  0  0  0
   -0.6302   -0.6305    0.2805 C   0  0  0  0  0  0  0  0  0  0  0  0
    0.7695   -0.5288   -0.2981 C   0  0  0  0  0  0  0  0  0  0  0  0
   -1.4969    0.5480   -0.1339 C   0  0  0  0  0  0  0  0  0  0  0  0
  1  3  1  0
  2  3  1  0
  2  4  1  0
M  END
>  <PUBCHEM_COMPOUND_CID>  (1) 
9998

>  <PUBCHEM_CONFORMER_RMSD>  (1) 
0.4

>  <PUBCHEM_CONFORMER_DIVERSEORDER>  (1) 
2
3
1

>  <PUBCHEM_MMFF94_PARTIAL_CHARGES>  (1) 
2
1 -0.34
3 0.34

>  <PUBCHEM_EFFECTIVE_ROTOR_COUNT>  (1) 
1

>  <PUBCHEM_PHARMACOPHORE_FEATURES>  (1) 
1
1 4 hydrophobe

>  <PUBCHEM_HEAVY_ATOM_COUNT>  (1) 
4

>  <PUBCHEM_ATOM_DEF_STEREO_COUNT>  (1) 
0

>  <PUBCHEM_ATOM_UDEF_STEREO_COUNT>  (1) 
0

>  <PUBCHEM_BOND_DEF_STEREO_COUNT>  (1) 
0

>  <PUBCHEM_BOND_UDEF_STEREO_COUNT>  (1) 
0

>  <PUBCHEM_ISOTOPIC_ATOM_COUNT>  (1) 
0

>  <PUBCHEM_COMPONENT_COUNT>  (1) 
1

>  <PUBCHEM_CACTVS_TAUTO_COUNT>  (1) 
1

>  <PUBCHEM_CONFORMER_ID>  (1) 
0000270E00000002

>  <PUBCHEM_MMFF94_ENERGY>  (1) 
-2.7223

>  <PUBCHEM_FEATURE_SELFOVERLAP>  (1) 
5.074

>  <PUBCHEM_SHAPE_FINGERPRINT>  (1) 
139733 1 7780070035470478102
20096714 4 18411137996088512049
21015797 1 9223231844901289003
5943 1 10822469441622393527

>  <PUBCHEM_SHAPE_MULTIPOLES>  (1) 
75.04
1.79
0.91
0.64
0.19
0.03
-0.02
-0.4
-0.05
-0.02
0.03
0.02
0.03
0.12

>  <PUBCHEM_SHAPE_SELFOVERLAP>  (1) 
121.756

>  <PUBCHEM_SHAPE_VOLUME>  (1) 
52.9

>  <PUBCHEM_COORDINATE_TYPE>  (1) 
2
5
10

$$$$
