10000
     RDKit          3D

  7  6  0  0  0  0  0  0  0  0999 V2000
   -3.1442   -0.2334    0.0045 Cl  0  0  0  0  0  0  0  0  0  0  0  0
    1.8745   -1.0226   -0.0009 F   0  0  0  0  0  0  0  0  0  0  0  0
    1.1693    0.7424    1.0760 F   0  0  0  0  0  0  0  0  0  0  0  0
    1.1284    0.7042   -1.1039 F   0  0  0  0  0  0  0  0  0  0  0  0
   -0.4576   -0.6201    0.0280 C   0  0  0  0  0  0  0  0  0  0  0  0
    0.9426   -0.0462    0.0043 C   0  0  0  0  0  0  0  0  0  0  0  0
   -1.5130    0.4758   -0.0080 C   0  0  0  0  0  0  0  0  0  0  0  0
  1  7  1  0
  2  6  1  0
  3  6  1  0
  4  6  1  0
  5  6  1  0
  5  7  1  0
M  END
>  <PUBCHEM_COMPOUND_CID>  (1) 
10000

>  <PUBCHEM_CONFORMER_RMSD>  (1) 
0.4

>  <PUBCHEM_CONFORMER_DIVERSEORDER>  (1) 
1
2
3

>  <PUBCHEM_MMFF94_PARTIAL_CHARGES>  (1) 
6
1 -0.29
2 -0.34
3 -0.34
4 -0.34
6 1.02
7 0.29

>  <PUBCHEM_EFFECTIVE_ROTOR_COUNT>  (1) 
2

>  <PUBCHEM_PHARMACOPHORE_FEATURES>  (1) 
0

>  <PUBCHEM_HEAVY_ATOM_COUNT>  (1) 
7

>  <PUBCHEM_ATOM_DEF_STEREO_COUNT>  (1) 
0

>  <PUBCHEM_ATOM_UDEF_STEREO_COUNT>  (1) 
0

>  <PUBCHEM_BOND_DEF_STEREO_COUNT>  (1) 
0

>  <PUBCHEM_BOND_UDEF_STEREO_COUNT>  (1) 
0

>  <PUBCHEM_ISOTOPIC_ATOM_COUNT>  (1) 
0

>  <PUBCHEM_COMPONENT_COUNT>  (1) 
1

>  <PUBCHEM_CACTVS_TAUTO_COUNT>  (1) 
1

>  <PUBCHEM_CONFORMER_ID>  (1) 
0000271000000001

>  <PUBCHEM_MMFF94_ENERGY>  (1) 
4.8609

>  <PUBCHEM_FEATURE_SELFOVERLAP>  (1) 
0

>  <PUBCHEM_SHAPE_FINGERPRINT>  (1) 
20096714 4 17458917036105643669
21040471 1 18338236080284121739
24536 1 18040995176309520215
29004967 10 18334579005620097851
5084963 1 18334576811266238883
5460574 1 9367345933771361771
5943 1 12961570348916660172

>  <PUBCHEM_SHAPE_MULTIPOLES>  (1) 
124.11
3.5
0.91
0.83
2.77
0.06
0
0.34
0
-0.22
0
-0.27
-0.18
0.01

>  <PUBCHEM_SHAPE_SELFOVERLAP>  (1) 
220.612

>  <PUBCHEM_SHAPE_VOLUME>  (1) 
83.4

>  <PUBCHEM_COORDINATE_TYPE>  (1) 
2
5
10

$$$$
