10023
     RDKit          3D

  6  5  0  0  0  0  0  0  0  0999 V2000
    3.0623   -0.5857    0.1237 Cl  0  0  0  0  0  0  0  0  0  0  0  0
   -2.2983   -0.9412   -0.2690 F   0  0  0  0  0  0  0  0  0  0  0  0
    0.3971   -0.0753    0.2223 C   0  0  0  0  0  0  0  0  0  0  0  0
   -0.7756    0.8413   -0.1309 C   0  0  0  0  0  0  0  0  0  0  0  0
    1.7138    0.5010   -0.2815 C   0  0  0  0  0  0  0  0  0  0  0  0
   -2.0992    0.2599    0.3355 C   0  0  0  0  0  0  0  0  0  0  0  0
  1  5  1  0
  2  6  1  0
  3  4  1  0
  3  5  1  0
  4  6  1  0
M  END
>  <PUBCHEM_COMPOUND_CID>  (1) 
10023

>  <PUBCHEM_CONFORMER_RMSD>  (1) 
0.4

>  <PUBCHEM_CONFORMER_DIVERSEORDER>  (1) 
2
21
3
20
14
17
1
15
7
16
5
10
4
8
19
13
18
6
11
12
9

>  <PUBCHEM_MMFF94_PARTIAL_CHARGES>  (1) 
4
1 -0.29
2 -0.34
5 0.29
6 0.34

>  <PUBCHEM_EFFECTIVE_ROTOR_COUNT>  (1) 
3

>  <PUBCHEM_PHARMACOPHORE_FEATURES>  (1) 
0

>  <PUBCHEM_HEAVY_ATOM_COUNT>  (1) 
6

>  <PUBCHEM_ATOM_DEF_STEREO_COUNT>  (1) 
0

>  <PUBCHEM_ATOM_UDEF_STEREO_COUNT>  (1) 
0

>  <PUBCHEM_BOND_DEF_STEREO_COUNT>  (1) 
0

>  <PUBCHEM_BOND_UDEF_STEREO_COUNT>  (1) 
0

>  <PUBCHEM_ISOTOPIC_ATOM_COUNT>  (1) 
0

>  <PUBCHEM_COMPONENT_COUNT>  (1) 
1

>  <PUBCHEM_CACTVS_TAUTO_COUNT>  (1) 
1

>  <PUBCHEM_CONFORMER_ID>  (1) 
0000272700000002

>  <PUBCHEM_MMFF94_ENERGY>  (1) 
-0.3947

>  <PUBCHEM_FEATURE_SELFOVERLAP>  (1) 
0

>  <PUBCHEM_SHAPE_FINGERPRINT>  (1) 
139733 1 9295297131420842377
14390081 3 8358251536493299510
16714656 1 18409168805096419439
29004967 10 16343708724660390824
5460574 1 9943804482756575416

>  <PUBCHEM_SHAPE_MULTIPOLES>  (1) 
118.07
4.37
0.94
0.66
1.49
0.02
-0.02
1.09
-0.07
-0.15
0.06
0.01
0
-0.17

>  <PUBCHEM_SHAPE_SELFOVERLAP>  (1) 
195.114

>  <PUBCHEM_SHAPE_VOLUME>  (1) 
81.8

>  <PUBCHEM_COORDINATE_TYPE>  (1) 
2
5
10

$$$$
