10022
     RDKit          3D

  6  5  0  0  0  0  0  0  0  0999 V2000
    3.1664   -0.6254    0.1198 Br  0  0  0  0  0  0  0  0  0  0  0  0
   -2.2927   -0.9698   -0.2772 F   0  0  0  0  0  0  0  0  0  0  0  0
    0.3817   -0.0453    0.2203 C   0  0  0  0  0  0  0  0  0  0  0  0
   -0.8128    0.8469   -0.1209 C   0  0  0  0  0  0  0  0  0  0  0  0
    1.6791    0.5647   -0.2826 C   0  0  0  0  0  0  0  0  0  0  0  0
   -2.1216    0.2290    0.3406 C   0  0  0  0  0  0  0  0  0  0  0  0
  1  5  1  0
  2  6  1  0
  3  4  1  0
  3  5  1  0
  4  6  1  0
M  END
>  <PUBCHEM_COMPOUND_CID>  (1) 
10022

>  <PUBCHEM_CONFORMER_RMSD>  (1) 
0.4

>  <PUBCHEM_CONFORMER_DIVERSEORDER>  (1) 
2
21
14
17
3
15
20
1
19
16
18
4
8
12
5
7
6
13
10
9
11

>  <PUBCHEM_MMFF94_PARTIAL_CHARGES>  (1) 
4
1 -0.23
2 -0.34
5 0.23
6 0.34

>  <PUBCHEM_EFFECTIVE_ROTOR_COUNT>  (1) 
3

>  <PUBCHEM_PHARMACOPHORE_FEATURES>  (1) 
1
1 1 hydrophobe

>  <PUBCHEM_HEAVY_ATOM_COUNT>  (1) 
6

>  <PUBCHEM_ATOM_DEF_STEREO_COUNT>  (1) 
0

>  <PUBCHEM_ATOM_UDEF_STEREO_COUNT>  (1) 
0

>  <PUBCHEM_BOND_DEF_STEREO_COUNT>  (1) 
0

>  <PUBCHEM_BOND_UDEF_STEREO_COUNT>  (1) 
0

>  <PUBCHEM_ISOTOPIC_ATOM_COUNT>  (1) 
0

>  <PUBCHEM_COMPONENT_COUNT>  (1) 
1

>  <PUBCHEM_CACTVS_TAUTO_COUNT>  (1) 
1

>  <PUBCHEM_CONFORMER_ID>  (1) 
0000272600000002

>  <PUBCHEM_MMFF94_ENERGY>  (1) 
-0.1555

>  <PUBCHEM_FEATURE_SELFOVERLAP>  (1) 
5.074

>  <PUBCHEM_SHAPE_FINGERPRINT>  (1) 
14390081 3 8358251536519666758
16714656 1 18408605855106068367
20651381 32 14562805526447761890
29004967 10 16415484843742720104
5460574 1 10159694690424218824

>  <PUBCHEM_SHAPE_MULTIPOLES>  (1) 
122.15
4.67
0.98
0.68
1.74
0.04
-0.02
1.25
-0.09
-0.11
0.07
0.05
0
-0.17

>  <PUBCHEM_SHAPE_SELFOVERLAP>  (1) 
198.119

>  <PUBCHEM_SHAPE_VOLUME>  (1) 
86.5

>  <PUBCHEM_COORDINATE_TYPE>  (1) 
2
5
10

$$$$
