10031
     RDKit          3D

 11 10  0  0  0  0  0  0  0  0999 V2000
    5.3680   -1.2419    0.6788 Cl  0  0  0  0  0  0  0  0  0  0  0  0
   -5.1568   -0.8552   -0.8915 F   0  0  0  0  0  0  0  0  0  0  0  0
   -0.0226   -0.1681    0.0564 C   0  0  0  0  0  0  0  0  0  0  0  0
    1.2307    0.7091    0.0113 C   0  0  0  0  0  0  0  0  0  0  0  0
   -1.2875    0.6802    0.2174 C   0  0  0  0  0  0  0  0  0  0  0  0
    2.5198   -0.0856   -0.2215 C   0  0  0  0  0  0  0  0  0  0  0  0
   -2.5430   -0.1947    0.2242 C   0  0  0  0  0  0  0  0  0  0  0  0
    3.7755    0.7923   -0.2461 C   0  0  0  0  0  0  0  0  0  0  0  0
   -3.8384    0.6034    0.3944 C   0  0  0  0  0  0  0  0  0  0  0  0
    5.0497    0.0079   -0.5462 C   0  0  0  0  0  0  0  0  0  0  0  0
   -5.0954   -0.2475    0.3226 C   0  0  0  0  0  0  0  0  0  0  0  0
  1 10  1  0
  2 11  1  0
  3  4  1  0
  3  5  1  0
  4  6  1  0
  5  7  1  0
  6  8  1  0
  7  9  1  0
  8 10  1  0
  9 11  1  0
M  END
>  <PUBCHEM_COMPOUND_CID>  (1) 
10031

>  <PUBCHEM_CONFORMER_RMSD>  (1) 
0.8

>  <PUBCHEM_CONFORMER_DIVERSEORDER>  (1) 
1
69
57
2
45
179
114
180
14
138
177
124
84
48
50
21
164
71
77
198
190
172
30
117
17
67
133
182
52
7
56
80
143
3
6
121
4
102
79
195
92
87
110
82
175
160
98
11
127
192
27
140
139
191
25
59
78
76
12
162
193
128
5
81
183
100
9
185
64
62
159
70
44
66
15
108
178
89
173
28
129
130
184
29
83
105
171
26
13
111
166
35
53
31
113
197
46
106
189
161
194
153
169
36
47
40
137
103
142
170
144
75
186
157
39
74
90
60
58
149
37
196
18
91
154
125
72
119
20
24
135
122
99
43
19
23
38
150
32
68
136
42
165
151
187
16
188
86
41
96
146
168
85
34
126
93
33
51
88
131
132
65
176
181
115
152
8
112
155
158
116
156
101
134
10
107
22
174
167
73
54
104
55
123
145
141
109
63
97
61
95
148
94
49
147
120
163
118

>  <PUBCHEM_MMFF94_PARTIAL_CHARGES>  (1) 
4
1 -0.29
10 0.29
11 0.34
2 -0.34

>  <PUBCHEM_EFFECTIVE_ROTOR_COUNT>  (1) 
8

>  <PUBCHEM_PHARMACOPHORE_FEATURES>  (1) 
0

>  <PUBCHEM_HEAVY_ATOM_COUNT>  (1) 
11

>  <PUBCHEM_ATOM_DEF_STEREO_COUNT>  (1) 
0

>  <PUBCHEM_ATOM_UDEF_STEREO_COUNT>  (1) 
0

>  <PUBCHEM_BOND_DEF_STEREO_COUNT>  (1) 
0

>  <PUBCHEM_BOND_UDEF_STEREO_COUNT>  (1) 
0

>  <PUBCHEM_ISOTOPIC_ATOM_COUNT>  (1) 
0

>  <PUBCHEM_COMPONENT_COUNT>  (1) 
1

>  <PUBCHEM_CACTVS_TAUTO_COUNT>  (1) 
1

>  <PUBCHEM_CONFORMER_ID>  (1) 
0000272F00000001

>  <PUBCHEM_MMFF94_ENERGY>  (1) 
-0.7309

>  <PUBCHEM_FEATURE_SELFOVERLAP>  (1) 
0

>  <PUBCHEM_SHAPE_FINGERPRINT>  (1) 
100836 57 7997970184594892879
10912923 1 18272378572175241808
11287383 113 14549013299506655550
13690532 89 18407761430402848192
14123238 8 18343304772958564316
15048467 5 9079114457891965306
15242439 84 16081090385129825288
17834072 33 18341895207631056124
17834072 8 16660364770783152138
17834076 25 10953458535415931144
18342897 14 7925911469581121758
20645477 70 17968376754570494890
20719005 15 18342460343780970252
20767249 13 18411419509598498640
23402539 116 18342454829359674853
23402655 69 11386367053870950912
42788 4 18409451388090471792
449060 50 12247681560795375776
522135 26 17749111089328876940
542803 24 8502654805004944738
57483677 66 18260830414301808394

>  <PUBCHEM_SHAPE_MULTIPOLES>  (1) 
220.97
14.08
1.01
0.77
1.5
0.12
-0.04
3.79
-0.67
-0.78
0.07
0.14
0.08
-0.74

>  <PUBCHEM_SHAPE_SELFOVERLAP>  (1) 
383.771

>  <PUBCHEM_SHAPE_VOLUME>  (1) 
146.2

>  <PUBCHEM_COORDINATE_TYPE>  (1) 
2
5
10

$$$$
