10035
     RDKit          3D

 12 11  0  0  0  0  0  0  0  0999 V2000
   -5.7051    1.0726    0.5211 F   0  0  0  0  0  0  0  0  0  0  0  0
   -0.7218    0.1411   -0.1944 O   0  0  0  0  0  0  0  0  0  0  0  0
    6.5103   -0.3569    0.2941 N   0  0  0  0  0  0  0  0  0  0  0  0
    1.6538    0.4437   -0.2403 C   0  0  0  0  0  0  0  0  0  0  0  0
   -3.1149    0.0543   -0.2272 C   0  0  0  0  0  0  0  0  0  0  0  0
    0.5110   -0.5118    0.0756 C   0  0  0  0  0  0  0  0  0  0  0  0
   -1.8313   -0.7031    0.0820 C   0  0  0  0  0  0  0  0  0  0  0  0
    3.0148   -0.1943    0.0448 C   0  0  0  0  0  0  0  0  0  0  0  0
   -4.3526   -0.7918    0.0640 C   0  0  0  0  0  0  0  0  0  0  0  0
    4.1842    0.7532   -0.2262 C   0  0  0  0  0  0  0  0  0  0  0  0
   -5.6318   -0.0388   -0.2582 C   0  0  0  0  0  0  0  0  0  0  0  0
    5.4833    0.1318    0.0648 C   0  0  0  0  0  0  0  0  0  0  0  0
  1 11  1  0
  2  6  1  0
  2  7  1  0
  3 12  3  0
  4  6  1  0
  4  8  1  0
  5  7  1  0
  5  9  1  0
  8 10  1  0
  9 11  1  0
 10 12  1  0
M  END
>  <PUBCHEM_COMPOUND_CID>  (1) 
10035

>  <PUBCHEM_CONFORMER_RMSD>  (1) 
0.8

>  <PUBCHEM_CONFORMER_DIVERSEORDER>  (1) 
1
254
60
263
46
112
24
131
231
138
261
11
199
162
222
47
108
65
176
201
5
149
257
68
181
137
184
258
180
82
228
183
53
139
97
25
255
3
121
191
248
158
151
29
6
189
260
230
113
237
70
132
38
95
81
161
110
40
229
179
14
225
235
259
140
87
187
236
127
195
223
59
71
212
249
86
101
175
252
220
20
106
73
169
136
240
245
153
172
64
144
84
66
9
168
200
50
10
170
188
23
58
4
146
119
226
49
123
177
241
43
205
167
13
207
227
48
163
171
52
202
148
2
147
17
51
160
100
85
186
233
213
194
214
12
69
256
224
196
76
166
104
185
27
178
156
244
165
90
18
198
75
96
209
210
250
150
111
117
7
217
164
142
246
77
190
159
74
206
242
39
173
109
221
238
72
99
265
192
31
54
219
15
94
193
92
232
61
57
218
133
67
30
234
115
130
141
22
247
41
107
135
211
262
55
114
243
34
122
8
251
128
120
197
216
80
16
56
19
253
32
88
63
152
21
116
239
93
33
126
105
204
174
182
103
79
154
125
129
215
28
62
83
102
45
264
155
89
98
44
91
134
42
208
35
26
145
124
203
78
118
37
157
143
36

>  <PUBCHEM_MMFF94_PARTIAL_CHARGES>  (1) 
8
1 -0.34
10 0.2
11 0.34
12 0.36
2 -0.56
3 -0.56
6 0.28
7 0.28

>  <PUBCHEM_EFFECTIVE_ROTOR_COUNT>  (1) 
8

>  <PUBCHEM_PHARMACOPHORE_FEATURES>  (1) 
2
1 2 acceptor
1 3 acceptor

>  <PUBCHEM_HEAVY_ATOM_COUNT>  (1) 
12

>  <PUBCHEM_ATOM_DEF_STEREO_COUNT>  (1) 
0

>  <PUBCHEM_ATOM_UDEF_STEREO_COUNT>  (1) 
0

>  <PUBCHEM_BOND_DEF_STEREO_COUNT>  (1) 
0

>  <PUBCHEM_BOND_UDEF_STEREO_COUNT>  (1) 
0

>  <PUBCHEM_ISOTOPIC_ATOM_COUNT>  (1) 
0

>  <PUBCHEM_COMPONENT_COUNT>  (1) 
1

>  <PUBCHEM_CACTVS_TAUTO_COUNT>  (1) 
1

>  <PUBCHEM_CONFORMER_ID>  (1) 
0000273300000001

>  <PUBCHEM_MMFF94_ENERGY>  (1) 
5.7129

>  <PUBCHEM_FEATURE_SELFOVERLAP>  (1) 
10.149

>  <PUBCHEM_SHAPE_FINGERPRINT>  (1) 
12091667 2 17989487437794775191
12714333 28 16271928211626083623
12815109 37 15985105219116645330
13533116 47 18339356371639292810
14123238 8 10303817583465616950
1420 363 14706928436452848632
14251718 22 9511462221042275884
14251764 46 18409729573649676447
17834076 25 18341894099635040735
20281389 69 18260265256851423301
20621476 8 18335985268333896893
20645477 70 17988649532577974614
20767249 213 13614519675652181418
23218964 4 18409446990233663398
23402539 116 18131346432009886221
23521765 1 18341894099439881430
300161 21 16558746806416175830
42788 4 18410855477313305749
8209 1 18409448094288204366

>  <PUBCHEM_SHAPE_MULTIPOLES>  (1) 
228.83
16.5
0.86
0.64
2.87
0.03
-0.01
1.16
1.17
-0.37
0.04
-0.11
0.02
-0.32

>  <PUBCHEM_SHAPE_SELFOVERLAP>  (1) 
414.565

>  <PUBCHEM_SHAPE_VOLUME>  (1) 
144.4

>  <PUBCHEM_COORDINATE_TYPE>  (1) 
2
5
10

$$$$
