10033
     RDKit          3D

 11 10  0  0  0  0  0  0  0  0999 V2000
   -6.0773   -0.1320   -0.0592 F   0  0  0  0  0  0  0  0  0  0  0  0
    5.3023    1.1294   -0.0502 O   0  0  0  0  0  0  0  0  0  0  0  0
    0.1190    0.2426    0.0927 C   0  0  0  0  0  0  0  0  0  0  0  0
   -1.2283   -0.4814    0.0154 C   0  0  0  0  0  0  0  0  0  0  0  0
    1.3225   -0.7002    0.0149 C   0  0  0  0  0  0  0  0  0  0  0  0
   -2.4297    0.4662    0.0186 C   0  0  0  0  0  0  0  0  0  0  0  0
    2.6396    0.0840    0.0234 C   0  0  0  0  0  0  0  0  0  0  0  0
   -3.7451   -0.3090   -0.0281 C   0  0  0  0  0  0  0  0  0  0  0  0
    3.8623   -0.8287   -0.0198 C   0  0  0  0  0  0  0  0  0  0  0  0
   -4.9458    0.6193    0.0110 C   0  0  0  0  0  0  0  0  0  0  0  0
    5.1804   -0.0903   -0.0186 C   0  0  0  0  0  0  0  0  0  0  0  0
  1 10  1  0
  2 11  2  0
  3  4  1  0
  3  5  1  0
  4  6  1  0
  5  7  1  0
  6  8  1  0
  7  9  1  0
  8 10  1  0
  9 11  1  0
M  END
>  <PUBCHEM_COMPOUND_CID>  (1) 
10033

>  <PUBCHEM_CONFORMER_RMSD>  (1) 
0.8

>  <PUBCHEM_CONFORMER_DIVERSEORDER>  (1) 
1
76
176
173
5
103
51
111
169
31
172
87
163
15
177
3
68
93
40
29
79
157
44
136
48
161
19
20
64
16
118
184
25
27
4
183
84
170
54
41
47
62
13
101
8
24
168
115
78
39
34
83
106
165
22
155
82
36
181
139
56
89
45
12
134
67
180
130
77
95
107
166
122
149
14
100
75
171
30
92
182
63
57
154
178
2
90
143
175
119
112
185
135
94
6
85
49
17
116
158
33
32
167
53
160
60
65
61
127
97
81
164
133
99
43
28
23
10
140
102
174
50
71
52
58
46
91
35
109
108
72
74
11
150
114
55
80
96
156
66
162
104
142
70
159
129
59
26
88
69
179
38
138
121
21
9
152
98
86
126
42
124
117
128
105
73
18
7
151
131
110
113
137
120
147
148
141
145
132
125
123
37
144
153
146

>  <PUBCHEM_MMFF94_PARTIAL_CHARGES>  (1) 
6
1 -0.34
10 0.34
11 0.45
2 -0.57
28 0.06
9 0.06

>  <PUBCHEM_EFFECTIVE_ROTOR_COUNT>  (1) 
8

>  <PUBCHEM_PHARMACOPHORE_FEATURES>  (1) 
1
1 2 acceptor

>  <PUBCHEM_HEAVY_ATOM_COUNT>  (1) 
11

>  <PUBCHEM_ATOM_DEF_STEREO_COUNT>  (1) 
0

>  <PUBCHEM_ATOM_UDEF_STEREO_COUNT>  (1) 
0

>  <PUBCHEM_BOND_DEF_STEREO_COUNT>  (1) 
0

>  <PUBCHEM_BOND_UDEF_STEREO_COUNT>  (1) 
0

>  <PUBCHEM_ISOTOPIC_ATOM_COUNT>  (1) 
0

>  <PUBCHEM_COMPONENT_COUNT>  (1) 
1

>  <PUBCHEM_CACTVS_TAUTO_COUNT>  (1) 
2

>  <PUBCHEM_CONFORMER_ID>  (1) 
0000273100000001

>  <PUBCHEM_MMFF94_ENERGY>  (1) 
-0.1131

>  <PUBCHEM_FEATURE_SELFOVERLAP>  (1) 
5.074

>  <PUBCHEM_SHAPE_FINGERPRINT>  (1) 
11287383 113 18260832621919941930
114248 4 18410573980861758611
12815109 37 17967813842743862101
13533116 47 17095795526368500682
14123238 8 18411138030321532943
14251718 22 18412262848329309035
15242439 84 13758352275906527583
15501527 16 18335421206643815981
17834072 33 18059852895710456596
17834076 25 17775284958631581814
187816 3 15985386690004454827
20605781 2 18411418427730950768
20645477 70 18129947763389649574
20719005 15 18411136922230572050
20767249 13 11530482229019498843
20767249 213 18260550038788973252
22485316 2 18334011687790697826
22896161 15 18338517547066627631
23402539 116 18333726927459210135
366044 4 18333732416359193411
42788 4 18410575076073144325
59345606 91 18412262835017132792

>  <PUBCHEM_SHAPE_MULTIPOLES>  (1) 
213.23
14.14
0.89
0.6
3.59
0.05
0
1.95
0.35
-0.53
0
-0.01
-0.01
-0.03

>  <PUBCHEM_SHAPE_SELFOVERLAP>  (1) 
381.882

>  <PUBCHEM_SHAPE_VOLUME>  (1) 
137.3

>  <PUBCHEM_COORDINATE_TYPE>  (1) 
2
5
10

$$$$
