10045
     RDKit          3D

  7  6  0  0  1  0  0  0  0  0999 V2000
   -1.4698    1.2488    0.0106 O   0  0  0  0  0  0  0  0  0  0  0  0
    0.6310   -0.0283   -0.0165 C   0  0  0  0  0  0  0  0  0  0  0  0
   -0.8631    0.0406   -0.4542 C   0  0  0  0  0  0  0  0  0  0  0  0
    1.3951    1.2148   -0.5088 C   0  0  0  0  0  0  0  0  0  0  0  0
    0.7050   -0.0607    1.5252 C   0  0  0  0  0  0  0  0  0  0  0  0
    1.3389   -1.2871   -0.5520 C   0  0  0  0  0  0  0  0  0  0  0  0
   -1.7371   -1.1281   -0.0044 C   0  0  0  0  0  0  0  0  0  0  0  0
  1  3  1  0
  2  3  1  0
  2  4  1  0
  2  5  1  0
  2  6  1  0
  3  7  1  0
M  END
>  <PUBCHEM_COMPOUND_CID>  (1) 
10045

>  <PUBCHEM_CONFORMER_RMSD>  (1) 
0.4

>  <PUBCHEM_CONFORMER_DIVERSEORDER>  (1) 
1
2

>  <PUBCHEM_MMFF94_PARTIAL_CHARGES>  (1) 
3
1 -0.68
21 0.4
3 0.28

>  <PUBCHEM_EFFECTIVE_ROTOR_COUNT>  (1) 
1

>  <PUBCHEM_PHARMACOPHORE_FEATURES>  (1) 
3
1 1 acceptor
1 1 donor
4 2 4 5 6 hydrophobe

>  <PUBCHEM_HEAVY_ATOM_COUNT>  (1) 
7

>  <PUBCHEM_ATOM_DEF_STEREO_COUNT>  (1) 
0

>  <PUBCHEM_ATOM_UDEF_STEREO_COUNT>  (1) 
1

>  <PUBCHEM_BOND_DEF_STEREO_COUNT>  (1) 
0

>  <PUBCHEM_BOND_UDEF_STEREO_COUNT>  (1) 
0

>  <PUBCHEM_ISOTOPIC_ATOM_COUNT>  (1) 
0

>  <PUBCHEM_COMPONENT_COUNT>  (1) 
1

>  <PUBCHEM_CACTVS_TAUTO_COUNT>  (1) 
1

>  <PUBCHEM_CONFORMER_ID>  (1) 
0000273D00000001

>  <PUBCHEM_MMFF94_ENERGY>  (1) 
16.9742

>  <PUBCHEM_FEATURE_SELFOVERLAP>  (1) 
15.223

>  <PUBCHEM_SHAPE_FINGERPRINT>  (1) 
137420 1 14317869227729584978
16714656 1 17836371818847236324
20096714 4 18261396602644655629
21040471 1 18123180213016159885
24536 1 18338781364984131869
29004967 10 18121233231305379099
5943 1 17268673869490754738

>  <PUBCHEM_SHAPE_MULTIPOLES>  (1) 
138.19
2.09
1.41
1.06
0.62
0
-0.47
-0.07
0.23
-0.07
0.25
-0.32
-0.06
0

>  <PUBCHEM_SHAPE_SELFOVERLAP>  (1) 
247.939

>  <PUBCHEM_SHAPE_VOLUME>  (1) 
90.9

>  <PUBCHEM_COORDINATE_TYPE>  (1) 
2
5
10

$$$$
