10054
     RDKit          3D

 28 32  0  0  1  0  0  0  0  0999 V2000
   -1.5684   -1.5316   -0.6929 O   0  0  0  0  0  0  0  0  0  0  0  0
    1.8448    2.8272    0.1886 O   0  0  0  0  0  0  0  0  0  0  0  0
    5.4356   -0.6866    2.4275 O   0  0  0  0  0  0  0  0  0  0  0  0
   -5.9857    0.6005   -0.2507 O   0  0  0  0  0  0  0  0  0  0  0  0
   -6.4606   -1.6505   -0.3080 O   0  0  0  0  0  0  0  0  0  0  0  0
   -0.7191   -0.5849   -0.0253 C   0  0  0  0  0  0  0  0  0  0  0  0
    0.6683   -0.6731   -0.7185 C   0  0  0  0  0  0  0  0  0  0  0  0
    1.6818    0.4313   -0.2780 C   0  0  0  0  0  0  0  0  0  0  0  0
   -1.3549    0.8273   -0.0797 C   0  0  0  0  0  0  0  0  0  0  0  0
    3.0732    0.2841   -1.0379 C   0  0  0  0  0  0  0  0  0  0  0  0
    1.0134    1.8253   -0.3916 C   0  0  0  0  0  0  0  0  0  0  0  0
    3.6198   -1.1737   -0.8553 C   0  0  0  0  0  0  0  0  0  0  0  0
   -0.3193    1.8902    0.3586 C   0  0  0  0  0  0  0  0  0  0  0  0
   -2.4778    0.7658    1.0073 C   0  0  0  0  0  0  0  0  0  0  0  0
    1.2632   -2.0881   -0.5740 C   0  0  0  0  0  0  0  0  0  0  0  0
   -0.7126   -0.9151    1.4764 C   0  0  0  0  0  0  0  0  0  0  0  0
    2.6012   -2.2352   -1.2847 C   0  0  0  0  0  0  0  0  0  0  0  0
   -1.9551   -0.2316    2.0629 C   0  0  0  0  0  0  0  0  0  0  0  0
    4.1874    1.2505   -0.5344 C   0  0  0  0  0  0  0  0  0  0  0  0
   -1.8896    1.1979   -1.4770 C   0  0  0  0  0  0  0  0  0  0  0  0
    4.1061   -1.4490    0.5850 C   0  0  0  0  0  0  0  0  0  0  0  0
    2.9095    0.5882   -2.5509 C   0  0  0  0  0  0  0  0  0  0  0  0
    4.6267    0.9940    0.9010 C   0  0  0  0  0  0  0  0  0  0  0  0
    5.1390   -0.4322    1.0586 C   0  0  0  0  0  0  0  0  0  0  0  0
   -3.8466    0.3726    0.5327 C   0  0  0  0  0  0  0  0  0  0  0  0
   -4.8449    1.3808    0.1218 C   0  0  0  0  0  0  0  0  0  0  0  0
   -4.3334   -0.8603    0.4194 C   0  0  0  0  0  0  0  0  0  0  0  0
   -5.7021   -0.7237   -0.0810 C   0  0  0  0  0  0  0  0  0  0  0  0
  1  6  1  0
  2 11  1  0
  3 24  1  0
  4 26  1  0
  4 28  1  0
  5 28  2  0
  6  7  1  0
  6  9  1  0
  6 16  1  0
  7  8  1  0
  7 15  1  0
  8 10  1  0
  8 11  1  0
  9 13  1  0
  9 14  1  0
  9 20  1  0
 10 12  1  0
 10 19  1  0
 10 22  1  0
 11 13  1  0
 12 17  1  0
 12 21  1  0
 14 18  1  0
 14 25  1  0
 15 17  1  0
 16 18  1  0
 19 23  1  0
 21 24  1  0
 23 24  1  0
 25 26  1  0
 25 27  2  0
 27 28  1  0
M  END
>  <PUBCHEM_COMPOUND_CID>  (1) 
10054

>  <PUBCHEM_CONFORMER_RMSD>  (1) 
0.8

>  <PUBCHEM_CONFORMER_DIVERSEORDER>  (1) 
1
14
4
19
12
23
11
6
24
22
3
13
20
18
15
16
2
7
9
8
5
10
21
17

>  <PUBCHEM_MMFF94_PARTIAL_CHARGES>  (1) 
17
1 -0.68
11 0.28
14 0.14
2 -0.68
24 0.28
25 -0.28
26 0.42
27 -0.14
28 0.71
3 -0.68
4 -0.43
5 -0.57
57 0.4
58 0.4
6 0.28
61 0.15
62 0.4

>  <PUBCHEM_EFFECTIVE_ROTOR_COUNT>  (1) 
3.6

>  <PUBCHEM_PHARMACOPHORE_FEATURES>  (1) 
12
1 1 acceptor
1 1 donor
1 2 acceptor
1 2 donor
1 3 acceptor
1 3 donor
1 5 acceptor
5 4 25 26 27 28 rings
5 6 9 14 16 18 rings
6 10 12 19 21 23 24 rings
6 6 7 8 9 11 13 rings
6 7 8 10 12 15 17 rings

>  <PUBCHEM_HEAVY_ATOM_COUNT>  (1) 
28

>  <PUBCHEM_ATOM_DEF_STEREO_COUNT>  (1) 
7

>  <PUBCHEM_ATOM_UDEF_STEREO_COUNT>  (1) 
2

>  <PUBCHEM_BOND_DEF_STEREO_COUNT>  (1) 
0

>  <PUBCHEM_BOND_UDEF_STEREO_COUNT>  (1) 
0

>  <PUBCHEM_ISOTOPIC_ATOM_COUNT>  (1) 
0

>  <PUBCHEM_COMPONENT_COUNT>  (1) 
1

>  <PUBCHEM_CACTVS_TAUTO_COUNT>  (1) 
1

>  <PUBCHEM_CONFORMER_ID>  (1) 
0000274600000001

>  <PUBCHEM_MMFF94_ENERGY>  (1) 
98.1915

>  <PUBCHEM_FEATURE_SELFOVERLAP>  (1) 
61.124

>  <PUBCHEM_SHAPE_FINGERPRINT>  (1) 
10366900 7 18187664478494320202
10906281 52 18263103092009580600
11595378 159 16128380320126591227
11796584 16 16660370285405148754
12166972 35 18113620058576716780
12236239 1 18259701203143693275
12403260 363 17530965752477929965
12422481 6 18336541621038144966
12467345 10 18131633413409106943
12592029 89 18341898497528649051
12596602 18 16702305641867131995
12788726 201 17968391047810504708
13140716 1 18198336445733127192
13224815 77 18341905060639467598
13533116 47 17240478088003199770
13583140 156 17969517080681478944
13782708 43 17386300886673070971
14251758 9 13695867030474635379
14840074 17 12319452208184199193
15183329 4 15647051551715811939
15788980 27 17313109644264230673
16728300 4 17461975719036803650
16945 1 18269298839994993156
17349148 13 18187091623971826420
17980427 23 17344888906278326516
18222031 100 18271818895065793852
1979834 28 17988646281023733694
200 152 18130794451740574657
20511986 3 17917702449694552967
21285901 2 18114187397691179581
21304304 249 18334290938660430954
22079108 93 17203601605978857370
22149856 69 17987818370892013419
23402539 116 17676203559606696189
23559900 14 17386306336564614566
3004659 81 18186528687288247286
3286 77 18409451392765494357
34797466 226 15913331311995370505
3680242 22 18335704901316473474
4072396 5 18409726249123345874
4340502 62 17489585675384889574
439807 62 18197495341731295423
474 4 17131828798738222384
5104073 3 17916875599507210051
5283173 99 18188490156108931485
58260988 393 16343710906356260443
59755656 215 18340215102931505462
6004065 56 18271515507387985105
6913067 236 18410286999911074031
70251023 43 17911252623807175790
8509985 295 17967533476037609800
8988823 20 18335982055856998084

>  <PUBCHEM_SHAPE_MULTIPOLES>  (1) 
546.88
12.37
2.13
1.67
9.88
0.19
-0.15
-2.18
-1.98
-0.7
0.33
-1.73
-0.14
-0.15

>  <PUBCHEM_SHAPE_SELFOVERLAP>  (1) 
1184.132

>  <PUBCHEM_SHAPE_VOLUME>  (1) 
298.5

>  <PUBCHEM_COORDINATE_TYPE>  (1) 
2
5
10

$$$$
