10058
     RDKit          3D

 41 46  0  0  1  0  0  0  0  0999 V2000
    3.2127   -0.7256   -1.5536 O   0  0  0  0  0  0  0  0  0  0  0  0
    5.7484    1.4671    0.0037 O   0  0  0  0  0  0  0  0  0  0  0  0
   -5.1028    2.0632    0.0947 O   0  0  0  0  0  0  0  0  0  0  0  0
    7.3121   -2.7997    0.0465 O   0  0  0  0  0  0  0  0  0  0  0  0
   -6.2643    0.7452   -1.4537 O   0  0  0  0  0  0  0  0  0  0  0  0
    5.4810    3.6124    0.8184 O   0  0  0  0  0  0  0  0  0  0  0  0
    7.8283   -2.1501   -2.1000 O   0  0  0  0  0  0  0  0  0  0  0  0
   -8.4385   -1.0398    1.5598 O   0  0  0  0  0  0  0  0  0  0  0  0
   -8.3234   -2.2768   -1.0501 O   0  0  0  0  0  0  0  0  0  0  0  0
    2.6743   -0.1304   -0.3622 C   0  0  0  0  0  0  0  0  0  0  0  0
    1.1309   -0.1113   -0.5513 C   0  0  0  0  0  0  0  0  0  0  0  0
    3.1414   -0.9253    0.8904 C   0  0  0  0  0  0  0  0  0  0  0  0
    0.3508    0.2882    0.7332 C   0  0  0  0  0  0  0  0  0  0  0  0
   -1.2113    0.3031    0.5107 C   0  0  0  0  0  0  0  0  0  0  0  0
   -1.5073    1.2512   -0.6940 C   0  0  0  0  0  0  0  0  0  0  0  0
    4.6163   -0.4427    1.0950 C   0  0  0  0  0  0  0  0  0  0  0  0
    2.3095   -0.5089    2.1358 C   0  0  0  0  0  0  0  0  0  0  0  0
    0.8001   -0.5845    1.9183 C   0  0  0  0  0  0  0  0  0  0  0  0
    3.3235    1.2585   -0.1868 C   0  0  0  0  0  0  0  0  0  0  0  0
    0.7202    0.7636   -1.7544 C   0  0  0  0  0  0  0  0  0  0  0  0
    4.5750    1.0483    0.6836 C   0  0  0  0  0  0  0  0  0  0  0  0
   -0.7899    0.8049   -1.9702 C   0  0  0  0  0  0  0  0  0  0  0  0
   -1.9341    0.8902    1.7584 C   0  0  0  0  0  0  0  0  0  0  0  0
    3.0345   -2.4537    0.7127 C   0  0  0  0  0  0  0  0  0  0  0  0
   -3.0069    1.4601   -0.9394 C   0  0  0  0  0  0  0  0  0  0  0  0
   -1.7503   -1.1306    0.2673 C   0  0  0  0  0  0  0  0  0  0  0  0
   -3.4272    1.1426    1.5382 C   0  0  0  0  0  0  0  0  0  0  0  0
   -3.6967    2.0052    0.3102 C   0  0  0  0  0  0  0  0  0  0  0  0
    5.6909   -1.2202    0.3898 C   0  0  0  0  0  0  0  0  0  0  0  0
    6.3863   -2.3489    1.0410 C   0  0  0  0  0  0  0  0  0  0  0  0
    6.1470   -1.0213   -0.8439 C   0  0  0  0  0  0  0  0  0  0  0  0
    6.0913    2.7837    0.1566 C   0  0  0  0  0  0  0  0  0  0  0  0
    7.1852   -2.0276   -1.0718 C   0  0  0  0  0  0  0  0  0  0  0  0
   -5.6427    0.7722   -0.1688 C   0  0  0  0  0  0  0  0  0  0  0  0
   -6.6731    0.4649    0.9111 C   0  0  0  0  0  0  0  0  0  0  0  0
    7.3432    3.0805   -0.6121 C   0  0  0  0  0  0  0  0  0  0  0  0
   -7.3479   -0.8782    0.6571 C   0  0  0  0  0  0  0  0  0  0  0  0
   -6.7868   -0.5458   -1.7810 C   0  0  0  0  0  0  0  0  0  0  0  0
   -7.8739   -0.9521   -0.7776 C   0  0  0  0  0  0  0  0  0  0  0  0
   -7.3332   -0.4754   -3.2035 C   0  0  0  0  0  0  0  0  0  0  0  0
   -7.9925   -1.4566    2.8417 C   0  0  0  0  0  0  0  0  0  0  0  0
  1 10  1  0
  2 21  1  0
  2 32  1  0
  3 28  1  0
  3 34  1  0
  4 30  1  0
  4 33  1  0
  5 34  1  0
  5 38  1  0
  6 32  2  0
  7 33  2  0
  8 37  1  0
  8 41  1  0
  9 39  1  0
 10 11  1  0
 10 12  1  0
 10 19  1  0
 11 13  1  0
 11 20  1  0
 12 16  1  0
 12 17  1  0
 12 24  1  0
 13 14  1  0
 13 18  1  0
 14 15  1  0
 14 23  1  0
 14 26  1  0
 15 22  1  0
 15 25  1  0
 16 21  1  0
 16 29  1  0
 17 18  1  0
 19 21  1  0
 20 22  1  0
 23 27  1  0
 25 28  1  0
 27 28  1  0
 29 30  1  0
 29 31  2  0
 31 33  1  0
 32 36  1  0
 34 35  1  0
 35 37  1  0
 37 39  1  0
 38 39  1  0
 38 40  1  0
M  END
>  <PUBCHEM_COMPOUND_CID>  (1) 
10058

>  <PUBCHEM_CONFORMER_RMSD>  (1) 
1.2

>  <PUBCHEM_CONFORMER_DIVERSEORDER>  (1) 
1
73
17
116
55
46
5
11
43
26
90
53
102
67
36
117
123
6
10
54
136
25
3
41
104
28
50
37
4
71
72
83
77
63
18
109
115
87
42
22
39
29
103
60
124
118
65
48
111
24
101
93
7
70
30
134
21
61
100
64
95
132
68
52
94
105
16
133
80
125
27
14
92
122
34
76
58
107
45
40
81
75
8
108
88
12
91
38
130
78
114
84
120
13
127
98
97
85
32
44
89
20
49
135
15
96
112
74
2
110
66
99
106
113
51
129
131
19
56
86
47
33
23
79
59
69
57
119
35
128
9
126
31
82
121
62

>  <PUBCHEM_MMFF94_PARTIAL_CHARGES>  (1) 
27
1 -0.68
10 0.28
16 0.14
2 -0.43
21 0.28
28 0.28
29 -0.28
3 -0.56
30 0.42
31 -0.14
32 0.66
33 0.71
34 0.56
36 0.06
37 0.28
38 0.28
39 0.28
4 -0.43
41 0.28
5 -0.56
6 -0.57
7 -0.57
70 0.4
73 0.15
8 -0.56
86 0.4
9 -0.68

>  <PUBCHEM_EFFECTIVE_ROTOR_COUNT>  (1) 
9.8

>  <PUBCHEM_PHARMACOPHORE_FEATURES>  (1) 
15
1 1 acceptor
1 1 donor
1 3 acceptor
1 5 acceptor
1 6 acceptor
1 7 acceptor
1 8 acceptor
1 9 acceptor
1 9 donor
5 10 12 16 19 21 rings
5 4 29 30 31 33 rings
6 10 11 12 13 17 18 rings
6 11 13 14 15 20 22 rings
6 14 15 23 25 27 28 rings
6 5 34 35 37 38 39 rings

>  <PUBCHEM_HEAVY_ATOM_COUNT>  (1) 
41

>  <PUBCHEM_ATOM_DEF_STEREO_COUNT>  (1) 
10

>  <PUBCHEM_ATOM_UDEF_STEREO_COUNT>  (1) 
3

>  <PUBCHEM_BOND_DEF_STEREO_COUNT>  (1) 
0

>  <PUBCHEM_BOND_UDEF_STEREO_COUNT>  (1) 
0

>  <PUBCHEM_ISOTOPIC_ATOM_COUNT>  (1) 
0

>  <PUBCHEM_COMPONENT_COUNT>  (1) 
1

>  <PUBCHEM_CACTVS_TAUTO_COUNT>  (1) 
1

>  <PUBCHEM_CONFORMER_ID>  (1) 
0000274A00000001

>  <PUBCHEM_MMFF94_ENERGY>  (1) 
145.7174

>  <PUBCHEM_FEATURE_SELFOVERLAP>  (1) 
76.369

>  <PUBCHEM_SHAPE_FINGERPRINT>  (1) 
10391435 84 17749667502400129187
10677351 14 18409446973655356821
11135926 11 15913044262720900477
11456790 92 13758067468442150062
11672396 43 17703231711449120158
12107698 1 18340207363553359824
12166972 35 18342455920134071464
13782708 43 18335416803478963015
13811026 1 17967250914238897225
150020 25 17967246495092043775
15064986 266 18336554850133905625
15131766 46 18126840719760870132
15145347 29 17703514393507080367
15183329 4 14418131803813747909
15328829 1 17967812777877062919
15336146 87 17822570504657893260
15461852 350 16081094779598976019
1577012 14 18060423507939015881
18365409 1 18193559097570087862
21781051 124 16559032722668496348
21792938 703 18189056559580101371
22149856 69 15841562846407775138
23522609 53 17488762171652420761
23559900 14 16443644436121261156
23569943 247 17389093443880332098
23576562 1 14563397145445690039
24771293 8 17603302661214378277
2747138 104 17821452365561664537
3178227 256 15554441898952808706
397638 26 12679462011033421431
4173938 306 16805313422906188345
44880568 143 16732977610062271661
4516262 110 18340199821781043164
4625314 4 18340765953824676053
4760202 70 18198335367991774581
484989 97 17386300882346344539
6004065 56 17458910443611043045
6086070 43 15068634807102807469
9831232 110 18128538172239499510
9962374 69 18343298142462976350

>  <PUBCHEM_SHAPE_MULTIPOLES>  (1) 
790.94
27.25
2.83
2.22
23.5
0.81
0.53
-9.29
4.93
-5.8
-0.28
3.42
-0.6
1.68

>  <PUBCHEM_SHAPE_SELFOVERLAP>  (1) 
1689.524

>  <PUBCHEM_SHAPE_VOLUME>  (1) 
434.9

>  <PUBCHEM_COORDINATE_TYPE>  (1) 
2
5
10

$$$$
