10059
     RDKit          3D

 29 33  0  0  1  0  0  0  0  0999 V2000
   -0.1929   -3.0259   -0.4904 O   0  0  0  0  0  0  0  0  0  0  0  0
   -2.4729   -2.2730    1.4353 O   0  0  0  0  0  0  0  0  0  0  0  0
    6.0302    1.8054    1.1225 O   0  0  0  0  0  0  0  0  0  0  0  0
   -5.5923    0.0259    0.3993 O   0  0  0  0  0  0  0  0  0  0  0  0
   -6.9783    1.7578   -0.0976 O   0  0  0  0  0  0  0  0  0  0  0  0
    0.0334   -1.6519   -0.1359 C   0  0  0  0  0  0  0  0  0  0  0  0
    1.4706   -1.2761   -0.6067 C   0  0  0  0  0  0  0  0  0  0  0  0
    1.7798    0.2359   -0.4348 C   0  0  0  0  0  0  0  0  0  0  0  0
   -1.0937   -0.7327   -0.7471 C   0  0  0  0  0  0  0  0  0  0  0  0
    3.2446    0.6168   -0.8802 C   0  0  0  0  0  0  0  0  0  0  0  0
    4.2778   -0.3046   -0.1523 C   0  0  0  0  0  0  0  0  0  0  0  0
    0.6866    1.1269   -1.0671 C   0  0  0  0  0  0  0  0  0  0  0  0
   -0.5005    0.3688   -1.6545 C   0  0  0  0  0  0  0  0  0  0  0  0
   -1.7890   -0.1119    0.5137 C   0  0  0  0  0  0  0  0  0  0  0  0
   -0.1555   -1.5860    1.4021 C   0  0  0  0  0  0  0  0  0  0  0  0
    2.5381   -2.1607    0.0686 C   0  0  0  0  0  0  0  0  0  0  0  0
   -1.6052   -1.1629    1.6114 C   0  0  0  0  0  0  0  0  0  0  0  0
    3.9580   -1.7946   -0.3492 C   0  0  0  0  0  0  0  0  0  0  0  0
    3.5847    2.1017   -0.5535 C   0  0  0  0  0  0  0  0  0  0  0  0
   -2.0952   -1.5274   -1.6253 C   0  0  0  0  0  0  0  0  0  0  0  0
    4.4165    0.0204    1.3535 C   0  0  0  0  0  0  0  0  0  0  0  0
    3.4194    0.4517   -2.4147 C   0  0  0  0  0  0  0  0  0  0  0  0
    3.7125    2.4032    0.9393 C   0  0  0  0  0  0  0  0  0  0  0  0
    4.7292    1.4914    1.6146 C   0  0  0  0  0  0  0  0  0  0  0  0
   -3.1998    0.3603    0.3566 C   0  0  0  0  0  0  0  0  0  0  0  0
   -3.4281    1.7308   -0.0213 C   0  0  0  0  0  0  0  0  0  0  0  0
   -4.2703   -0.4176    0.5464 C   0  0  0  0  0  0  0  0  0  0  0  0
   -4.6691    2.2027   -0.1746 C   0  0  0  0  0  0  0  0  0  0  0  0
   -5.8387    1.3255    0.0418 C   0  0  0  0  0  0  0  0  0  0  0  0
  1  6  1  0
  2 17  1  0
  3 24  1  0
  4 27  1  0
  4 29  1  0
  5 29  2  0
  6  7  1  0
  6  9  1  0
  6 15  1  0
  7  8  1  0
  7 16  1  0
  8 10  1  0
  8 12  1  0
  9 13  1  0
  9 14  1  0
  9 20  1  0
 10 11  1  0
 10 19  1  0
 10 22  1  0
 11 18  1  0
 11 21  1  0
 12 13  1  0
 14 17  1  0
 14 25  1  0
 15 17  1  0
 16 18  1  0
 19 23  1  0
 21 24  1  0
 23 24  1  0
 25 26  1  0
 25 27  2  0
 26 28  2  0
 28 29  1  0
M  END
>  <PUBCHEM_COMPOUND_CID>  (1) 
10059

>  <PUBCHEM_CONFORMER_RMSD>  (1) 
0.8

>  <PUBCHEM_CONFORMER_DIVERSEORDER>  (1) 
1
8
19
13
14
4
10
16
6
20
18
12
3
9
17
2
5
11
7
15

>  <PUBCHEM_MMFF94_PARTIAL_CHARGES>  (1) 
20
1 -0.68
14 0.14
17 0.28
2 -0.68
24 0.28
25 -0.14
26 -0.15
27 -0.07
28 -0.14
29 0.71
3 -0.68
4 -0.23
5 -0.57
58 0.4
59 0.4
6 0.28
60 0.15
61 0.15
62 0.4
63 0.15

>  <PUBCHEM_EFFECTIVE_ROTOR_COUNT>  (1) 
3.2

>  <PUBCHEM_PHARMACOPHORE_FEATURES>  (1) 
12
1 1 acceptor
1 1 donor
1 2 acceptor
1 2 donor
1 3 acceptor
1 3 donor
1 5 acceptor
5 6 9 14 15 17 rings
6 10 11 19 21 23 24 rings
6 4 25 26 27 28 29 rings
6 6 7 8 9 12 13 rings
6 7 8 10 11 16 18 rings

>  <PUBCHEM_HEAVY_ATOM_COUNT>  (1) 
29

>  <PUBCHEM_ATOM_DEF_STEREO_COUNT>  (1) 
7

>  <PUBCHEM_ATOM_UDEF_STEREO_COUNT>  (1) 
2

>  <PUBCHEM_BOND_DEF_STEREO_COUNT>  (1) 
0

>  <PUBCHEM_BOND_UDEF_STEREO_COUNT>  (1) 
0

>  <PUBCHEM_ISOTOPIC_ATOM_COUNT>  (1) 
0

>  <PUBCHEM_COMPONENT_COUNT>  (1) 
1

>  <PUBCHEM_CACTVS_TAUTO_COUNT>  (1) 
1

>  <PUBCHEM_CONFORMER_ID>  (1) 
0000274B00000001

>  <PUBCHEM_MMFF94_ENERGY>  (1) 
122.0909

>  <PUBCHEM_FEATURE_SELFOVERLAP>  (1) 
61.161

>  <PUBCHEM_SHAPE_FINGERPRINT>  (1) 
10319926 262 18113902675888316322
10692045 39 18336536111086143946
11089746 13 18201719535410596060
11135609 12 8430321195627371820
11578080 2 17559657598609438640
11961588 58 16559022822447144393
12166972 35 15984828073889027144
12403259 415 18342188777135478139
12422481 6 17968084288139224068
12633257 1 16877941672116001634
12670546 177 11023833889812183424
13140716 1 18113900489834390618
13224815 77 17823415075600620702
13402501 40 18342735230268040352
13533116 47 18339082570940639738
13583140 156 18200599218866500706
13692114 37 18334295396852438411
13911987 19 16845292761166954745
13965767 371 18261096501111959996
14178342 30 18191023619872528942
14251764 30 10665228150796130641
14251764 38 18272094863758112809
14347332 77 10519446094739975884
14739800 52 18336815404039970833
14955137 171 18051128086773014094
15238133 3 18186243939689349460
15840311 113 18342177718439015237
17349148 13 17894631495508049519
17492 54 15626221351071970592
1813 80 15285646498960491567
193927 3 12324232841755224488
20157964 124 18202563951840548405
20197701 30 18410291393995219323
20715895 44 18341891870441818273
20775438 99 9294416379732037960
20775530 9 14708859128017601168
21033648 29 18411426141154805792
21033650 10 13326311280631907770
21403212 168 17968082106554476049
21421861 104 16225765233810135748
21452121 103 18410289186112750594
21475661 188 18411697725006729544
21859007 373 17242154778822040333
22149856 69 18265078898358520811
22950370 63 8935002581409747113
23227448 37 18131064995598197253
23503953 91 17749392593747983468
23559900 14 18188504483850721086
2838139 119 18270957934907613813
335352 9 18188217498636815182
3472631 163 17917987304241060404
34797466 226 17561367258087560741
350125 39 18335424509172635820
4340502 62 18260552199764093857
437815 12 18053956052455080254
4394409 98 10654625568812461608
465052 167 11819279935928113713
474 4 18260275114017164663
495365 180 18343584027743216006
5104073 3 18334865978893341907
513532 50 18059582365017220564
57527293 21 16950842621985455590
57724786 102 18041560364410940852
6086070 43 17060053809411743712
7237137 82 16987988518623649135
7970288 3 8141823689394767400
8509985 295 17748830708667247260
86090 222 12901823844572982728
960060 61 13398631649500993668
9981440 41 18334017207414602091

>  <PUBCHEM_SHAPE_MULTIPOLES>  (1) 
567.46
12.64
2.71
1.61
9.49
0.29
-0.23
-8.96
2.78
-0.43
0.32
-1.26
0.05
1.04

>  <PUBCHEM_SHAPE_SELFOVERLAP>  (1) 
1228.509

>  <PUBCHEM_SHAPE_VOLUME>  (1) 
306.9

>  <PUBCHEM_COORDINATE_TYPE>  (1) 
2
5
10

$$$$
