10091
     RDKit          2D

 40 45  0  0  1  0  0  0  0  0999 V2000
    0.0000    0.0000    0.0000 O   0  0  0  0  0  0  0  0  0  0  0  0
    0.0000    0.0000    0.0000 O   0  0  0  0  0  0  0  0  0  0  0  0
    0.0000    0.0000    0.0000 O   0  0  0  0  0  0  0  0  0  0  0  0
    0.0000    0.0000    0.0000 O   0  0  0  0  0  0  0  0  0  0  0  0
    0.0000    0.0000    0.0000 O   0  0  0  0  0  0  0  0  0  0  0  0
    0.0000    0.0000    0.0000 O   0  0  0  0  0  0  0  0  0  0  0  0
    0.0000    0.0000    0.0000 O   0  0  0  0  0  0  0  0  0  0  0  0
    0.0000    0.0000    0.0000 O   0  0  0  0  0  0  0  0  0  0  0  0
    0.0000    0.0000    0.0000 O   0  0  0  0  0  0  0  0  0  0  0  0
    0.0000    0.0000    0.0000 C   0  0  0  0  0  0  0  0  0  0  0  0
    0.0000    0.0000    0.0000 C   0  0  0  0  0  0  0  0  0  0  0  0
    0.0000    0.0000    0.0000 C   0  0  0  0  0  0  0  0  0  0  0  0
    0.0000    0.0000    0.0000 C   0  0  0  0  0  0  0  0  0  0  0  0
    0.0000    0.0000    0.0000 C   0  0  0  0  0  0  0  0  0  0  0  0
    0.0000    0.0000    0.0000 C   0  0  0  0  0  0  0  0  0  0  0  0
    0.0000    0.0000    0.0000 C   0  0  0  0  0  0  0  0  0  0  0  0
    0.0000    0.0000    0.0000 C   0  0  0  0  0  0  0  0  0  0  0  0
    0.0000    0.0000    0.0000 C   0  0  0  0  0  0  0  0  0  0  0  0
    0.0000    0.0000    0.0000 C   0  0  0  0  0  0  0  0  0  0  0  0
    0.0000    0.0000    0.0000 C   0  0  0  0  0  0  0  0  0  0  0  0
    0.0000    0.0000    0.0000 C   0  0  0  0  0  0  0  0  0  0  0  0
    0.0000    0.0000    0.0000 C   0  0  0  0  0  0  0  0  0  0  0  0
    0.0000    0.0000    0.0000 C   0  0  0  0  0  0  0  0  0  0  0  0
    0.0000    0.0000    0.0000 C   0  0  0  0  0  0  0  0  0  0  0  0
    0.0000    0.0000    0.0000 C   0  0  0  0  0  0  0  0  0  0  0  0
    0.0000    0.0000    0.0000 C   0  0  0  0  0  0  0  0  0  0  0  0
    0.0000    0.0000    0.0000 C   0  0  0  0  0  0  0  0  0  0  0  0
    0.0000    0.0000    0.0000 C   0  0  0  0  0  0  0  0  0  0  0  0
    0.0000    0.0000    0.0000 C   0  0  0  0  0  0  0  0  0  0  0  0
    0.0000    0.0000    0.0000 C   0  0  0  0  0  0  0  0  0  0  0  0
    0.0000    0.0000    0.0000 C   0  0  0  0  0  0  0  0  0  0  0  0
    0.0000    0.0000    0.0000 C   0  0  0  0  0  0  0  0  0  0  0  0
    0.0000    0.0000    0.0000 C   0  0  0  0  0  0  0  0  0  0  0  0
    0.0000    0.0000    0.0000 C   0  0  0  0  0  0  0  0  0  0  0  0
    0.0000    0.0000    0.0000 C   0  0  0  0  0  0  0  0  0  0  0  0
    0.0000    0.0000    0.0000 C   0  0  0  0  0  0  0  0  0  0  0  0
    0.0000    0.0000    0.0000 C   0  0  0  0  0  0  0  0  0  0  0  0
    0.0000    0.0000    0.0000 C   0  0  0  0  0  0  0  0  0  0  0  0
    0.0000    0.0000    0.0000 C   0  0  0  0  0  0  0  0  0  0  0  0
    0.0000    0.0000    0.0000 C   0  0  0  0  0  0  0  0  0  0  0  0
  1 11  1  0
  2 26  1  0
  3 28  1  0
  3 32  1  0
  4 31  1  0
  4 35  1  0
  5 32  1  0
  5 37  1  0
  6 34  1  0
  7 36  1  0
  7 40  1  0
  8 35  2  0
  9 38  1  0
 10 11  1  0
 10 12  1  0
 10 19  1  0
 11 13  1  0
 11 20  1  0
 12 14  1  0
 12 16  1  0
 13 17  1  0
 13 18  1  0
 13 25  1  0
 14 15  1  0
 14 23  1  0
 14 26  1  0
 15 21  1  0
 15 24  1  0
 16 17  1  0
 18 22  1  0
 18 29  1  0
 19 21  1  0
 20 22  1  0
 23 27  1  0
 24 28  1  0
 27 28  1  0
 29 30  1  0
 29 31  2  0
 30 33  2  0
 32 34  1  0
 33 35  1  0
 34 36  1  0
 36 38  1  0
 37 38  1  0
 37 39  1  0
M  END
>  <PUBCHEM_COMPOUND_CID>  (1) 
10091

>  <PUBCHEM_CONFORMER_RMSD>  (1) 
1

>  <PUBCHEM_CONFORMER_DIVERSEORDER>  (1) 
18
174
96
32
67
75
43
90
156
178
114
230
161
180
14
21
87
85
158
112
218
60
89
23
182
122
115
19
13
169
170
224
229
204
41
194
136
103
131
118
71
190
26
220
116
34
48
153
82
181
63
223
88
183
94
146
159
199
24
50
100
216
76
142
101
73
167
86
140
35
111
135
187
206
70
110
4
202
162
129
147
37
125
22
126
72
201
219
99
83
152
77
137
127
130
154
231
145
54
166
3
197
49
78
29
113
10
196
222
61
79
173
52
221
25
46
91
120
8
214
57
80
11
186
5
200
106
31
227
74
109
165
144
108
232
192
95
98
141
217
81
17
40
68
38
185
93
102
168
171
150
205
191
51
211
121
179
208
65
132
149
209
160
225
33
28
139
128
138
6
188
228
124
151
15
105
172
45
123
175
143
117
44
203
226
97
64
189
163
27
92
176
69
107
56
36
30
213
58
84
66
9
62
20
104
16
2
177
164
184
155
195
53
207
133
47
210
157
59
198
42
148
212
39
12
215
134
193
1
7
119
55

>  <PUBCHEM_MMFF94_PARTIAL_CHARGES>  (1) 
31
1 -0.68
11 0.28
18 0.14
2 -0.68
26 0.28
28 0.28
29 -0.14
3 -0.56
30 -0.15
31 -0.07
32 0.56
33 -0.14
34 0.28
35 0.71
36 0.28
37 0.28
38 0.28
4 -0.23
40 0.28
5 -0.56
6 -0.68
69 0.4
7 -0.56
70 0.4
71 0.15
72 0.15
74 0.15
79 0.4
8 -0.57
83 0.4
9 -0.68

>  <PUBCHEM_EFFECTIVE_ROTOR_COUNT>  (1) 
8.4

>  <PUBCHEM_PHARMACOPHORE_FEATURES>  (1) 
18
1 1 acceptor
1 1 donor
1 2 acceptor
1 2 donor
1 3 acceptor
1 5 acceptor
1 6 acceptor
1 6 donor
1 7 acceptor
1 8 acceptor
1 9 acceptor
1 9 donor
5 11 13 18 20 22 rings
6 10 11 12 13 16 17 rings
6 10 12 14 15 19 21 rings
6 14 15 23 24 27 28 rings
6 4 29 30 31 33 35 rings
6 5 32 34 36 37 38 rings

>  <PUBCHEM_HEAVY_ATOM_COUNT>  (1) 
40

>  <PUBCHEM_ATOM_DEF_STEREO_COUNT>  (1) 
8

>  <PUBCHEM_ATOM_UDEF_STEREO_COUNT>  (1) 
5

>  <PUBCHEM_BOND_DEF_STEREO_COUNT>  (1) 
0

>  <PUBCHEM_BOND_UDEF_STEREO_COUNT>  (1) 
0

>  <PUBCHEM_ISOTOPIC_ATOM_COUNT>  (1) 
0

>  <PUBCHEM_COMPONENT_COUNT>  (1) 
1

>  <PUBCHEM_CACTVS_TAUTO_COUNT>  (1) 
1

$$$$
