1010
     RDKit          3D

 22 23  0  0  1  0  0  0  0  0999 V2000
    4.8734   -1.4673    0.2101 P   0  0  0  0  0  0  0  0  0  0  0  0
    0.7872   -0.0329    0.2083 O   0  0  0  0  0  0  0  0  0  0  0  0
   -0.8028    3.1646    0.4595 O   0  0  0  0  0  0  0  0  0  0  0  0
    1.7456    3.0780   -1.3014 O   0  0  0  0  0  0  0  0  0  0  0  0
    3.4308   -0.8888   -0.2413 O   0  0  0  0  0  0  0  0  0  0  0  0
    4.9745   -1.0691    1.7743 O   0  0  0  0  0  0  0  0  0  0  0  0
    5.9085   -0.4483   -0.5006 O   0  0  0  0  0  0  0  0  0  0  0  0
    5.0997   -2.9184   -0.0986 O   0  0  0  0  0  0  0  0  0  0  0  0
   -5.4500   -1.9817   -0.9046 O   0  0  0  0  0  0  0  0  0  0  0  0
   -5.7059   -0.6489    0.9189 O   0  0  0  0  0  0  0  0  0  0  0  0
   -1.5726    0.0329    0.0381 N   0  0  0  0  0  0  0  0  0  0  0  0
   -2.8341   -1.3335   -1.1807 N   0  0  0  0  0  0  0  0  0  0  0  0
   -3.0900    0.8159    1.6902 N   0  0  0  0  0  0  0  0  0  0  0  0
   -0.1904    2.0970   -0.2427 C   0  0  0  0  0  0  0  0  0  0  0  0
    1.3181    2.2236   -0.2577 C   0  0  0  0  0  0  0  0  0  0  0  0
   -0.3838    0.7643    0.4717 C   0  0  0  0  0  0  0  0  0  0  0  0
    1.7422    0.7825   -0.4925 C   0  0  0  0  0  0  0  0  0  0  0  0
    3.1395    0.4753    0.0155 C   0  0  0  0  0  0  0  0  0  0  0  0
   -2.8172    0.0619    0.6054 C   0  0  0  0  0  0  0  0  0  0  0  0
   -1.6335   -0.8193   -1.0315 C   0  0  0  0  0  0  0  0  0  0  0  0
   -3.5769   -0.7878   -0.1638 C   0  0  0  0  0  0  0  0  0  0  0  0
   -4.9623   -1.1000    0.0235 C   0  0  0  0  0  0  0  0  0  0  0  0
  1  5  1  0
  1  6  1  0
  1  7  1  0
  1  8  2  0
  2 16  1  0
  2 17  1  0
  3 14  1  0
  4 15  1  0
  5 18  1  0
  9 22  1  0
 10 22  2  0
 11 16  1  0
 11 19  1  0
 11 20  1  0
 12 20  2  0
 12 21  1  0
 13 19  1  0
 14 15  1  0
 14 16  1  0
 15 17  1  0
 17 18  1  0
 19 21  2  0
 21 22  1  0
M  END
>  <PUBCHEM_COMPOUND_CID>  (1) 
1010

>  <PUBCHEM_CONFORMER_RMSD>  (1) 
0.8

>  <PUBCHEM_CONFORMER_DIVERSEORDER>  (1) 
1
64
224
46
223
35
229
48
43
156
134
234
41
44
2
230
167
76
164
213
154
94
62
87
93
225
111
6
140
91
200
99
136
12
83
148
151
217
173
218
186
22
47
139
220
88
49
212
65
183
68
10
199
204
53
100
59
193
107
56
51
214
146
102
105
195
169
97
163
14
153
78
179
19
191
175
109
15
227
39
157
188
21
215
147
123
119
54
132
209
70
181
42
61
178
180
133
115
170
219
17
126
60
206
77
207
127
177
67
58
82
75
110
192
106
233
11
131
182
31
194
112
8
30
141
26
37
66
168
108
25
34
174
201
142
120
103
23
9
50
189
203
160
162
18
90
129
149
130
118
137
208
20
7
202
104
197
74
187
38
125
172
52
228
176
161
57
211
32
128
196
5
79
150
184
96
231
221
69
165
198
36
114
226
155
16
143
92
216
205
55
33
124
166
121
159
71
232
158
3
144
80
222
72
29
95
98
145
85
152
81
86
84
210
13
117
138
24
116
190
28
122
135
4
73
89
27
40
185
63
113
101
171
45

>  <PUBCHEM_MMFF94_PARTIAL_CHARGES>  (1) 
30
1 1.51
10 -0.57
11 0.05
12 -0.57
13 -0.88
14 0.28
15 0.28
16 0.54
17 0.28
18 0.28
19 -0.07
2 -0.56
20 0.04
21 0.14
22 0.81
29 0.4
3 -0.68
30 0.4
31 0.15
32 0.4
33 0.4
34 0.5
35 0.5
36 0.5
4 -0.68
5 -0.55
6 -0.77
7 -0.77
8 -0.7
9 -0.65

>  <PUBCHEM_EFFECTIVE_ROTOR_COUNT>  (1) 
6

>  <PUBCHEM_PHARMACOPHORE_FEATURES>  (1) 
17
1 10 acceptor
1 13 cation
1 13 donor
1 2 acceptor
1 3 acceptor
1 3 donor
1 4 acceptor
1 4 donor
1 6 acceptor
1 7 acceptor
1 8 acceptor
1 9 acceptor
3 11 12 20 cation
3 9 10 22 anion
4 1 6 7 8 anion
5 11 12 19 20 21 rings
5 2 14 15 16 17 rings

>  <PUBCHEM_HEAVY_ATOM_COUNT>  (1) 
22

>  <PUBCHEM_ATOM_DEF_STEREO_COUNT>  (1) 
0

>  <PUBCHEM_ATOM_UDEF_STEREO_COUNT>  (1) 
4

>  <PUBCHEM_BOND_DEF_STEREO_COUNT>  (1) 
0

>  <PUBCHEM_BOND_UDEF_STEREO_COUNT>  (1) 
0

>  <PUBCHEM_ISOTOPIC_ATOM_COUNT>  (1) 
0

>  <PUBCHEM_COMPONENT_COUNT>  (1) 
1

>  <PUBCHEM_CACTVS_TAUTO_COUNT>  (1) 
2

>  <PUBCHEM_CONFORMER_ID>  (1) 
000003F200000001

>  <PUBCHEM_MMFF94_ENERGY>  (1) 
7.835

>  <PUBCHEM_FEATURE_SELFOVERLAP>  (1) 
86.371

>  <PUBCHEM_SHAPE_FINGERPRINT>  (1) 
11265709 11 18410856559993535876
12107183 9 18341905069662068569
12236239 1 18201726201363427929
12553582 1 18410565185196426670
13009979 54 18202014247624459537
13533116 47 18271524311611480105
13551218 46 18272934881940879606
13583140 156 15482387539225435552
13955234 65 18122629623762878145
1420 369 18411134715092531882
14739800 52 17058927964569902208
15042514 8 18195530294258763336
1813 80 18333450928676623652
18222031 100 18410852174805325522
19784866 140 17967808332116276715
19784866 240 18410577301151209367
200 152 18113899346897978978
20388580 30 18334577970902407156
20645477 70 18042120015174915341
21267235 1 18412554218536272806
23175994 123 17967256398907041173
23402539 116 18410292471525309582
23557571 272 15338580300368305601
23559900 14 18115588295516156105
25147074 1 18266762271065583572
2838139 119 9439405709526536786
3004659 81 18113617889676332390
314194 84 18409175428221157922
3421961 26 18411134783706318688
34797466 226 15502386659191810534
351380 3 18410854356775747598
46194498 28 17168426072916702230
465052 167 18410863191096227271
5104073 3 17916313912680290795
559249 180 18339923714979896835
56616090 89 18409719652254442344
7970288 3 18408881819857081626
8863177 126 17751372887489519627
9981440 41 17188398911899428705

>  <PUBCHEM_SHAPE_MULTIPOLES>  (1) 
388.83
12.39
2.81
1.12
2.9
1.58
0.21
-11.44
1.38
1.82
-0.52
-0.21
0
-1.39

>  <PUBCHEM_SHAPE_SELFOVERLAP>  (1) 
803.613

>  <PUBCHEM_SHAPE_VOLUME>  (1) 
225.7

>  <PUBCHEM_COORDINATE_TYPE>  (1) 
2
5
10

$$$$
