10103
     RDKit          2D

 32 37  0  0  1  0  0  0  0  0999 V2000
    0.0000    0.0000    0.0000 O   0  0  0  0  0  0  0  0  0  0  0  0
    0.0000    0.0000    0.0000 O   0  0  0  0  0  0  0  0  0  0  0  0
    0.0000    0.0000    0.0000 O   0  0  0  0  0  0  0  0  0  0  0  0
    0.0000    0.0000    0.0000 O   0  0  0  0  0  0  0  0  0  0  0  0
    0.0000    0.0000    0.0000 O   0  0  0  0  0  0  0  0  0  0  0  0
    0.0000    0.0000    0.0000 O   0  0  0  0  0  0  0  0  0  0  0  0
    0.0000    0.0000    0.0000 C   0  0  0  0  0  0  0  0  0  0  0  0
    0.0000    0.0000    0.0000 C   0  0  0  0  0  0  0  0  0  0  0  0
    0.0000    0.0000    0.0000 C   0  0  0  0  0  0  0  0  0  0  0  0
    0.0000    0.0000    0.0000 C   0  0  0  0  0  0  0  0  0  0  0  0
    0.0000    0.0000    0.0000 C   0  0  0  0  0  0  0  0  0  0  0  0
    0.0000    0.0000    0.0000 C   0  0  0  0  0  0  0  0  0  0  0  0
    0.0000    0.0000    0.0000 C   0  0  0  0  0  0  0  0  0  0  0  0
    0.0000    0.0000    0.0000 C   0  0  0  0  0  0  0  0  0  0  0  0
    0.0000    0.0000    0.0000 C   0  0  0  0  0  0  0  0  0  0  0  0
    0.0000    0.0000    0.0000 C   0  0  0  0  0  0  0  0  0  0  0  0
    0.0000    0.0000    0.0000 C   0  0  0  0  0  0  0  0  0  0  0  0
    0.0000    0.0000    0.0000 C   0  0  0  0  0  0  0  0  0  0  0  0
    0.0000    0.0000    0.0000 C   0  0  0  0  0  0  0  0  0  0  0  0
    0.0000    0.0000    0.0000 C   0  0  0  0  0  0  0  0  0  0  0  0
    0.0000    0.0000    0.0000 C   0  0  0  0  0  0  0  0  0  0  0  0
    0.0000    0.0000    0.0000 C   0  0  0  0  0  0  0  0  0  0  0  0
    0.0000    0.0000    0.0000 C   0  0  0  0  0  0  0  0  0  0  0  0
    0.0000    0.0000    0.0000 C   0  0  0  0  0  0  0  0  0  0  0  0
    0.0000    0.0000    0.0000 C   0  0  0  0  0  0  0  0  0  0  0  0
    0.0000    0.0000    0.0000 C   0  0  0  0  0  0  0  0  0  0  0  0
    0.0000    0.0000    0.0000 C   0  0  0  0  0  0  0  0  0  0  0  0
    0.0000    0.0000    0.0000 C   0  0  0  0  0  0  0  0  0  0  0  0
    0.0000    0.0000    0.0000 C   0  0  0  0  0  0  0  0  0  0  0  0
    0.0000    0.0000    0.0000 C   0  0  0  0  0  0  0  0  0  0  0  0
    0.0000    0.0000    0.0000 C   0  0  0  0  0  0  0  0  0  0  0  0
    0.0000    0.0000    0.0000 C   0  0  0  0  0  0  0  0  0  0  0  0
  1  7  1  0
  1  9  1  0
  2 13  1  0
  2 29  1  0
  3 26  1  0
  4 30  1  0
  4 31  1  0
  5 29  2  0
  6 30  2  0
  7  8  1  0
  7  9  1  0
  7 10  1  0
  8 12  1  0
  8 15  1  0
  8 19  1  0
  9 13  1  0
 10 11  1  0
 10 17  1  0
 11 14  1  0
 11 16  1  0
 12 13  1  0
 12 22  1  0
 14 18  1  0
 14 21  1  0
 14 24  1  0
 15 16  1  0
 17 20  1  0
 18 20  1  0
 18 23  1  0
 21 25  1  0
 22 27  2  0
 22 28  1  0
 23 26  1  0
 25 26  1  0
 27 30  1  0
 28 31  2  0
 29 32  1  0
M  END
>  <PUBCHEM_COMPOUND_CID>  (1) 
10103

>  <PUBCHEM_CONFORMER_RMSD>  (1) 
0.8

>  <PUBCHEM_CONFORMER_DIVERSEORDER>  (1) 
24
66
10
18
41
56
50
8
14
67
64
59
30
68
38
4
49
19
60
46
25
45
53
13
2
42
57
15
47
39
54
32
11
35
27
43
37
33
69
29
40
23
44
17
62
28
70
16
34
12
6
3
71
61
63
48
20
58
9
26
7
36
1
51
31
65
22
5
55
21
52

>  <PUBCHEM_MMFF94_PARTIAL_CHARGES>  (1) 
25
1 -0.3
10 0.09
12 0.14
13 0.38
2 -0.43
22 -0.14
26 0.28
27 -0.14
28 -0.15
29 0.66
3 -0.68
30 0.71
31 -0.07
32 0.06
33 0.1
4 -0.23
5 -0.57
6 -0.57
60 0.15
61 0.15
62 0.4
63 0.15
7 -0.04
8 0.09
9 -0.05

>  <PUBCHEM_EFFECTIVE_ROTOR_COUNT>  (1) 
5.2

>  <PUBCHEM_PHARMACOPHORE_FEATURES>  (1) 
10
1 1 acceptor
1 3 acceptor
1 3 donor
1 5 acceptor
1 6 acceptor
6 1 7 8 9 12 13 rings
6 10 11 14 17 18 20 rings
6 14 18 21 23 25 26 rings
6 4 22 27 28 30 31 rings
6 7 8 10 11 15 16 rings

>  <PUBCHEM_HEAVY_ATOM_COUNT>  (1) 
32

>  <PUBCHEM_ATOM_DEF_STEREO_COUNT>  (1) 
6

>  <PUBCHEM_ATOM_UDEF_STEREO_COUNT>  (1) 
4

>  <PUBCHEM_BOND_DEF_STEREO_COUNT>  (1) 
0

>  <PUBCHEM_BOND_UDEF_STEREO_COUNT>  (1) 
0

>  <PUBCHEM_ISOTOPIC_ATOM_COUNT>  (1) 
0

>  <PUBCHEM_COMPONENT_COUNT>  (1) 
1

>  <PUBCHEM_CACTVS_TAUTO_COUNT>  (1) 
1

$$$$
