10118
     RDKit          3D

 23 26  0  0  1  0  0  0  0  0999 V2000
   -5.0138    0.6388    0.7188 O   0  0  0  0  0  0  0  0  0  0  0  0
    3.9102    1.7169    1.1895 O   0  0  0  0  0  0  0  0  0  0  0  0
    4.3704    1.5899   -1.0394 O   0  0  0  0  0  0  0  0  0  0  0  0
   -1.3866    0.8034    0.2480 C   0  0  0  0  0  0  0  0  0  0  0  0
   -0.9185   -0.6027    0.7645 C   0  0  0  0  0  0  0  0  0  0  0  0
    0.5681   -1.0567    0.3890 C   0  0  0  0  0  0  0  0  0  0  0  0
    1.5896    0.1440    0.5480 C   0  0  0  0  0  0  0  0  0  0  0  0
   -2.6689    1.1876    1.0198 C   0  0  0  0  0  0  0  0  0  0  0  0
   -0.3018    1.8451    0.4823 C   0  0  0  0  0  0  0  0  0  0  0  0
   -3.6949    0.2453    0.3960 C   0  0  0  0  0  0  0  0  0  0  0  0
   -2.0097   -1.6765    0.4932 C   0  0  0  0  0  0  0  0  0  0  0  0
    1.0230    1.4228   -0.1266 C   0  0  0  0  0  0  0  0  0  0  0  0
   -1.9300    0.8291   -1.2086 C   0  0  0  0  0  0  0  0  0  0  0  0
    3.0491   -0.1510    0.0270 C   0  0  0  0  0  0  0  0  0  0  0  0
    0.6689   -1.6401   -1.0446 C   0  0  0  0  0  0  0  0  0  0  0  0
   -3.4235   -1.1936    0.8530 C   0  0  0  0  0  0  0  0  0  0  0  0
   -3.3773    0.4170   -1.0692 C   0  0  0  0  0  0  0  0  0  0  0  0
    0.9257   -2.1868    1.3981 C   0  0  0  0  0  0  0  0  0  0  0  0
    3.0211   -0.7591   -1.3865 C   0  0  0  0  0  0  0  0  0  0  0  0
    2.0908   -1.9605   -1.5056 C   0  0  0  0  0  0  0  0  0  0  0  0
    3.8857   -1.0290    0.9808 C   0  0  0  0  0  0  0  0  0  0  0  0
    3.8481    1.1344   -0.0328 C   0  0  0  0  0  0  0  0  0  0  0  0
   -4.2258    0.2817   -2.0946 C   0  0  0  0  0  0  0  0  0  0  0  0
  1 10  1  0
  2 22  1  0
  3 22  2  0
  4  5  1  0
  4  8  1  0
  4  9  1  0
  4 13  1  0
  5  6  1  0
  5 11  1  0
  6  7  1  0
  6 15  1  0
  6 18  1  0
  7 12  1  0
  7 14  1  0
  8 10  1  0
  9 12  1  0
 10 16  1  0
 10 17  1  0
 11 16  1  0
 13 17  1  0
 14 19  1  0
 14 21  1  0
 14 22  1  0
 15 20  1  0
 17 23  2  0
 19 20  1  0
M  END
>  <PUBCHEM_COMPOUND_CID>  (1) 
10118

>  <PUBCHEM_CONFORMER_RMSD>  (1) 
0.6

>  <PUBCHEM_CONFORMER_DIVERSEORDER>  (1) 
1
8
3
13
5
4
10
9
12
2
6
7
11

>  <PUBCHEM_MMFF94_PARTIAL_CHARGES>  (1) 
13
1 -0.68
10 0.42
13 0.14
14 0.06
17 -0.28
2 -0.65
22 0.66
23 -0.3
3 -0.57
50 0.4
51 0.15
52 0.15
53 0.5

>  <PUBCHEM_EFFECTIVE_ROTOR_COUNT>  (1) 
3

>  <PUBCHEM_PHARMACOPHORE_FEATURES>  (1) 
8
1 1 acceptor
1 1 donor
1 2 acceptor
1 3 acceptor
3 2 3 22 anion
6 4 5 6 7 9 12 rings
6 6 7 14 15 19 20 rings
8 4 5 8 10 11 13 16 17 rings

>  <PUBCHEM_HEAVY_ATOM_COUNT>  (1) 
23

>  <PUBCHEM_ATOM_DEF_STEREO_COUNT>  (1) 
4

>  <PUBCHEM_ATOM_UDEF_STEREO_COUNT>  (1) 
2

>  <PUBCHEM_BOND_DEF_STEREO_COUNT>  (1) 
0

>  <PUBCHEM_BOND_UDEF_STEREO_COUNT>  (1) 
0

>  <PUBCHEM_ISOTOPIC_ATOM_COUNT>  (1) 
0

>  <PUBCHEM_COMPONENT_COUNT>  (1) 
1

>  <PUBCHEM_CACTVS_TAUTO_COUNT>  (1) 
1

>  <PUBCHEM_CONFORMER_ID>  (1) 
0000278600000001

>  <PUBCHEM_MMFF94_ENERGY>  (1) 
95.8613

>  <PUBCHEM_FEATURE_SELFOVERLAP>  (1) 
40.705

>  <PUBCHEM_SHAPE_FINGERPRINT>  (1) 
10366900 7 17989203771767682272
10498660 4 18113620096709202492
10646746 165 17894910715653244846
10759866 29 18113624521174227198
10863032 1 18410011065553120274
11132069 177 18335423499322428097
11370993 70 17458615696963490603
11543360 7 16917345965236759008
11578080 2 17459463338755237804
11961588 58 16878762986381080215
12173636 292 18338244747986976557
12236239 1 16702304546597334037
12403259 415 17749392533370437230
12403814 3 17385726911343284629
12553582 1 18202282506833955617
12670546 56 15068332432308975005
12788726 201 18057039108607531281
128620 24 18334861610310324853
12892183 10 15502367954799101120
12969540 114 18129942416044238756
13140716 1 18337110193225394665
13224815 77 18410857663467516158
13583140 156 17821721754130684546
13675066 3 16732984206308909635
13965767 371 13844171173200341109
14223421 5 18263928739279033640
14289901 80 17203608159745282985
14787075 74 18192155012572771971
15196674 1 18408326605006995267
15230672 131 13865863159228857027
15238133 3 11603651313803094951
15375358 24 18411978057410973069
15788980 27 16877657954971300464
16945 1 18261675865712968465
17349148 13 18270954657525501834
17492 54 18271231832955139004
18186145 218 18261401026687609342
19862831 5 18341328903571927269
200 152 17775563135041728145
20645477 70 18341896264130019358
20715895 44 17605819344788495117
21033648 29 17385994074967102620
23227448 37 17895761844816284141
23402539 116 18270954652924481842
23557571 272 18265069087403580226
23559900 14 18335144185479294574
2748010 2 18192993940066084497
296302 2 18408605872544445893
34934 24 18413670214517374315
4340502 62 16732992998898087083
474 4 18410581707692949680
5104073 3 18408608067130427331
633830 44 18340216197445921813
9709674 26 18200881668837606582

>  <PUBCHEM_SHAPE_MULTIPOLES>  (1) 
455.72
8.41
2.08
1.55
1.15
0.29
-0.55
-2.14
-0.75
-1.18
0.22
0.37
0.27
0.43

>  <PUBCHEM_SHAPE_SELFOVERLAP>  (1) 
984.034

>  <PUBCHEM_SHAPE_VOLUME>  (1) 
248.8

>  <PUBCHEM_COORDINATE_TYPE>  (1) 
2
5
10

$$$$
