10129
     RDKit          3D

 10 11  0  0  1  0  0  0  0  0999 V2000
   -1.1870    0.2283   -0.2330 C   0  0  0  0  0  0  0  0  0  0  0  0
    0.1039    0.9056    0.3155 C   0  0  0  0  0  0  0  0  0  0  0  0
   -0.7581   -0.9863    0.6379 C   0  0  0  0  0  0  0  0  0  0  0  0
   -0.1854    0.0878    1.6164 C   0  0  0  0  0  0  0  0  0  0  0  0
    1.3462    0.4545   -0.4745 C   0  0  0  0  0  0  0  0  0  0  0  0
    0.2988   -1.8401   -0.0716 C   0  0  0  0  0  0  0  0  0  0  0  0
    1.6003   -1.0454   -0.2311 C   0  0  0  0  0  0  0  0  0  0  0  0
   -1.3010    0.0163   -1.7284 C   0  0  0  0  0  0  0  0  0  0  0  0
   -2.4757    0.8935    0.2337 C   0  0  0  0  0  0  0  0  0  0  0  0
    2.5582    1.2859   -0.0650 C   0  0  0  0  0  0  0  0  0  0  0  0
  1  2  1  0
  1  3  1  0
  1  8  1  0
  1  9  1  0
  2  4  1  0
  2  5  1  0
  3  4  1  0
  3  6  1  0
  5  7  1  0
  5 10  1  0
  6  7  1  0
M  END
>  <PUBCHEM_COMPOUND_CID>  (1) 
10129

>  <PUBCHEM_CONFORMER_RMSD>  (1) 
0.4

>  <PUBCHEM_CONFORMER_DIVERSEORDER>  (1) 
1
2
3
4

>  <PUBCHEM_MMFF94_PARTIAL_CHARGES>  (1) 
0

>  <PUBCHEM_EFFECTIVE_ROTOR_COUNT>  (1) 
1

>  <PUBCHEM_PHARMACOPHORE_FEATURES>  (1) 
2
3 1 8 9 hydrophobe
7 1 2 3 4 5 6 7 rings

>  <PUBCHEM_HEAVY_ATOM_COUNT>  (1) 
10

>  <PUBCHEM_ATOM_DEF_STEREO_COUNT>  (1) 
0

>  <PUBCHEM_ATOM_UDEF_STEREO_COUNT>  (1) 
3

>  <PUBCHEM_BOND_DEF_STEREO_COUNT>  (1) 
0

>  <PUBCHEM_BOND_UDEF_STEREO_COUNT>  (1) 
0

>  <PUBCHEM_ISOTOPIC_ATOM_COUNT>  (1) 
0

>  <PUBCHEM_COMPONENT_COUNT>  (1) 
1

>  <PUBCHEM_CACTVS_TAUTO_COUNT>  (1) 
1

>  <PUBCHEM_CONFORMER_ID>  (1) 
0000279100000001

>  <PUBCHEM_MMFF94_ENERGY>  (1) 
36.0541

>  <PUBCHEM_FEATURE_SELFOVERLAP>  (1) 
10.148

>  <PUBCHEM_SHAPE_FINGERPRINT>  (1) 
12423570 1 17750524046841746583
13024252 1 14491575993214023948
137420 1 12707214581449318467
15557651 10 17096660806947664791
16945 1 18125168125707125915
18185500 45 17915733172144043342
20653085 51 17916883390303655664
21040471 1 18337117851162379096
23211744 25 17701800288552682555
23211744 41 17530958073002557861
23235685 24 18335139808274727732
241688 4 17186728208349414042
2748010 2 18337407014136025782
29004967 10 18120659024189882019
369184 2 18199757019082758144
5084963 1 16806176431906284119
528886 8 18411696577954704864
68250623 7 18200884976336918791

>  <PUBCHEM_SHAPE_MULTIPOLES>  (1) 
205.8
2.7
1.52
1.27
0.38
0.46
0.08
-1.17
0.33
0.46
-0.04
-0.45
-0.01
0

>  <PUBCHEM_SHAPE_SELFOVERLAP>  (1) 
424.377

>  <PUBCHEM_SHAPE_VOLUME>  (1) 
121.8

>  <PUBCHEM_COORDINATE_TYPE>  (1) 
2
5
10

$$$$
