10127
     RDKit          3D

 18 19  0  0  0  0  0  0  0  0999 V2000
    1.0218    0.4327    0.9526 S   0  0  0  0  0  0  0  0  0  0  0  0
    4.2981    0.7242   -1.6652 S   0  0  0  0  0  0  0  0  0  0  0  0
    1.2112    1.7902    1.4482 O   0  0  0  0  0  0  0  0  0  0  0  0
    1.4042   -0.6972    1.7906 O   0  0  0  0  0  0  0  0  0  0  0  0
   -5.1999   -1.4152   -0.5196 O   0  0  0  0  0  0  0  0  0  0  0  0
   -5.3890    0.7533   -0.8043 O   0  0  0  0  0  0  0  0  0  0  0  0
    1.7775    0.2961   -0.5855 N   0  0  0  0  0  0  0  0  0  0  0  0
   -4.7091   -0.2603   -0.5127 N   0  0  0  0  0  0  0  0  0  0  0  0
    3.7151   -0.8737    0.2814 N   0  0  0  0  0  0  0  0  0  0  0  0
   -0.6582    0.2293    0.5224 C   0  0  0  0  0  0  0  0  0  0  0  0
   -1.2253   -1.0451    0.5076 C   0  0  0  0  0  0  0  0  0  0  0  0
   -1.4336    1.3415    0.1941 C   0  0  0  0  0  0  0  0  0  0  0  0
   -3.3428   -0.0953   -0.1639 C   0  0  0  0  0  0  0  0  0  0  0  0
   -2.5676   -1.2073    0.1644 C   0  0  0  0  0  0  0  0  0  0  0  0
   -2.7758    1.1792   -0.1490 C   0  0  0  0  0  0  0  0  0  0  0  0
    3.2227   -0.0183   -0.5701 C   0  0  0  0  0  0  0  0  0  0  0  0
    5.5751   -0.1712   -0.9519 C   0  0  0  0  0  0  0  0  0  0  0  0
    5.0757   -0.9629    0.0609 C   0  0  0  0  0  0  0  0  0  0  0  0
  1  3  2  0
  1  4  2  0
  1  7  1  0
  1 10  1  0
  2 16  1  0
  2 17  1  0
  5  8  1  0
  6  8  2  0
  7 16  1  0
  8 13  1  0
  9 16  2  0
  9 18  1  0
 10 11  2  0
 10 12  1  0
 11 14  1  0
 12 15  2  0
 13 14  2  0
 13 15  1  0
 17 18  2  0
M  CHG  2   5  -1   8   1
M  END
>  <PUBCHEM_COMPOUND_CID>  (1) 
10127

>  <PUBCHEM_CONFORMER_RMSD>  (1) 
0.6

>  <PUBCHEM_CONFORMER_DIVERSEORDER>  (1) 
1
5
4
10
17
9
16
13
14
3
2
15
8
12
6
7
11

>  <PUBCHEM_MMFF94_PARTIAL_CHARGES>  (1) 
25
1 1.45
10 -0.01
11 -0.15
12 -0.15
13 0.13
14 -0.15
15 -0.15
16 0.52
17 -0.11
18 0.08
19 0.15
2 -0.08
20 0.15
21 0.42
22 0.15
23 0.15
24 0.15
25 0.15
3 -0.65
4 -0.65
5 -0.52
6 -0.52
7 -0.7
8 0.91
9 -0.57

>  <PUBCHEM_EFFECTIVE_ROTOR_COUNT>  (1) 
4

>  <PUBCHEM_PHARMACOPHORE_FEATURES>  (1) 
9
1 3 acceptor
1 4 acceptor
1 5 acceptor
1 5 anion
1 6 acceptor
1 7 donor
1 9 acceptor
5 2 9 16 17 18 rings
6 10 11 12 13 14 15 rings

>  <PUBCHEM_HEAVY_ATOM_COUNT>  (1) 
18

>  <PUBCHEM_ATOM_DEF_STEREO_COUNT>  (1) 
0

>  <PUBCHEM_ATOM_UDEF_STEREO_COUNT>  (1) 
0

>  <PUBCHEM_BOND_DEF_STEREO_COUNT>  (1) 
0

>  <PUBCHEM_BOND_UDEF_STEREO_COUNT>  (1) 
0

>  <PUBCHEM_ISOTOPIC_ATOM_COUNT>  (1) 
0

>  <PUBCHEM_COMPONENT_COUNT>  (1) 
1

>  <PUBCHEM_CACTVS_TAUTO_COUNT>  (1) 
2

>  <PUBCHEM_CONFORMER_ID>  (1) 
0000278F00000001

>  <PUBCHEM_MMFF94_ENERGY>  (1) 
27.8541

>  <PUBCHEM_FEATURE_SELFOVERLAP>  (1) 
45.776

>  <PUBCHEM_SHAPE_FINGERPRINT>  (1) 
10354089 29 10663817477841501758
11128504 68 17968096447080700484
12236239 1 17894630340035181022
12251169 10 10807931557393639738
12507560 40 9295025547759017944
12596602 18 11671779373120267150
12670546 177 18187086160947460534
12730499 353 15285362790642907016
12892183 10 11311784925733578038
13288520 33 18059858354882908613
13685833 64 17632297912746973927
14251751 18 17418087780089437095
14251752 14 18261669273286517261
14252887 29 15267348401234821812
14341114 176 11095888168288164182
14350574 20 18272652376640768971
14366163 111 17095520695047014572
14386348 63 17203894054618056526
14911166 2 18411980260792395627
17834072 33 18114181955751473542
17834072 8 17167868539318155366
17870717 6 18272382957236572415
17959699 21 17385444327716671804
1813 80 15554180224382130824
18186145 218 15791738524914719180
18222031 100 16917074360770069340
193927 3 16630539439805903044
19784866 170 7925913694448079609
19784866 240 16200156508076193853
200 152 16917068849815234675
20300324 65 18408889520548021357
20369508 70 18130502011554199480
20374829 77 18201998837365885375
20645476 183 17603584162340278259
20645477 56 12612753535862437659
20645477 70 17632577192879189232
20871999 31 18341054033896572584
21119208 17 17894352176652237990
22079108 93 14562820970918387457
22224240 67 14836110058486747206
231179 274 14418130721028256550
23175994 123 16702302351753118761
23402539 116 18410009905780166237
23402655 69 17530970193917101982
23536379 177 17967251983506457702
23557571 272 17917154897083226600
23558518 356 13481702081189270880
23559900 14 18341607169907809856
23622692 88 12607402195616784081
26918003 58 14692567728173187575
2916195 48 14852179489239761220
29717793 49 18336272258629033542
3004659 81 18334858265259230162
42 15 13183024020632337359
474 4 16153718647541305164
633830 44 14779554538580349690
7495541 125 18201156641376229792

>  <PUBCHEM_SHAPE_MULTIPOLES>  (1) 
339.71
12.2
1.37
1.25
0.68
0.02
0.31
-0.8
-6.06
-0.3
0.09
0.66
0.22
-0.69

>  <PUBCHEM_SHAPE_SELFOVERLAP>  (1) 
698.611

>  <PUBCHEM_SHAPE_VOLUME>  (1) 
195.8

>  <PUBCHEM_COORDINATE_TYPE>  (1) 
2
5
10

$$$$
