10131
     RDKit          3D

 13 13  0  0  1  0  0  0  0  0999 V2000
    3.6550    0.0120   -0.0124 O   0  0  0  0  0  0  0  0  0  0  0  0
    2.5689   -1.8974   -0.6455 O   0  0  0  0  0  0  0  0  0  0  0  0
   -4.0598   -0.0925   -0.9087 O   0  0  0  0  0  0  0  0  0  0  0  0
   -3.1072   -1.0641    0.9167 O   0  0  0  0  0  0  0  0  0  0  0  0
    0.6761    1.0004    0.0829 C   0  0  0  0  0  0  0  0  0  0  0  0
   -0.6664    0.4020    0.5519 C   0  0  0  0  0  0  0  0  0  0  0  0
    1.3559   -0.2432    0.6928 C   0  0  0  0  0  0  0  0  0  0  0  0
    0.0157   -0.9805    0.4894 C   0  0  0  0  0  0  0  0  0  0  0  0
    0.8562    1.1228   -1.4135 C   0  0  0  0  0  0  0  0  0  0  0  0
    1.0074    2.3199    0.7548 C   0  0  0  0  0  0  0  0  0  0  0  0
   -1.8472    0.5409   -0.4062 C   0  0  0  0  0  0  0  0  0  0  0  0
    2.5881   -0.8209   -0.0681 C   0  0  0  0  0  0  0  0  0  0  0  0
   -3.0426   -0.2993   -0.0341 C   0  0  0  0  0  0  0  0  0  0  0  0
  1 12  1  0
  2 12  2  0
  3 13  1  0
  4 13  2  0
  5  6  1  0
  5  7  1  0
  5  9  1  0
  5 10  1  0
  6  8  1  0
  6 11  1  0
  7  8  1  0
  7 12  1  0
 11 13  1  0
M  END
>  <PUBCHEM_COMPOUND_CID>  (1) 
10131

>  <PUBCHEM_CONFORMER_RMSD>  (1) 
0.6

>  <PUBCHEM_CONFORMER_DIVERSEORDER>  (1) 
9
15
11
24
1
16
23
25
12
26
13
14
17
20
10
18
3
19
6
4
8
7
22
2
5
21

>  <PUBCHEM_MMFF94_PARTIAL_CHARGES>  (1) 
10
1 -0.65
11 0.06
12 0.67
13 0.66
2 -0.57
26 0.5
27 0.5
3 -0.65
4 -0.57
7 0.05

>  <PUBCHEM_EFFECTIVE_ROTOR_COUNT>  (1) 
3.8

>  <PUBCHEM_PHARMACOPHORE_FEATURES>  (1) 
8
1 1 acceptor
1 2 acceptor
1 3 acceptor
1 4 acceptor
3 1 2 12 anion
3 3 4 13 anion
3 5 9 10 hydrophobe
4 5 6 7 8 rings

>  <PUBCHEM_HEAVY_ATOM_COUNT>  (1) 
13

>  <PUBCHEM_ATOM_DEF_STEREO_COUNT>  (1) 
0

>  <PUBCHEM_ATOM_UDEF_STEREO_COUNT>  (1) 
2

>  <PUBCHEM_BOND_DEF_STEREO_COUNT>  (1) 
0

>  <PUBCHEM_BOND_UDEF_STEREO_COUNT>  (1) 
0

>  <PUBCHEM_ISOTOPIC_ATOM_COUNT>  (1) 
0

>  <PUBCHEM_COMPONENT_COUNT>  (1) 
1

>  <PUBCHEM_CACTVS_TAUTO_COUNT>  (1) 
1

>  <PUBCHEM_CONFORMER_ID>  (1) 
0000279300000009

>  <PUBCHEM_MMFF94_ENERGY>  (1) 
23.8361

>  <PUBCHEM_FEATURE_SELFOVERLAP>  (1) 
40.708

>  <PUBCHEM_SHAPE_FINGERPRINT>  (1) 
10219947 1 17988924465849507262
11769659 78 18130221545409655854
11806522 49 18411695525735216019
12032990 46 18411143502352864042
14128692 85 18261402125930237773
14993402 34 18201720660734264558
15219456 202 18190459544173244729
15477762 27 18343579663750527207
16945 1 18271801358661622120
20201158 50 18408604751331498643
20233049 118 15719657793323498421
20645477 70 18341039813940266271
20711985 327 17561368382788795409
21293036 1 18040719160188821990
23402539 116 18262512581815289390
5084963 1 18040437723993515089
7364860 26 18270397333673543008
81228 2 18051696542594505752

>  <PUBCHEM_SHAPE_MULTIPOLES>  (1) 
244.06
5.38
1.7
1.03
3.33
0.46
0.17
-1.99
0.79
-1.03
-0.14
0.07
0.18
0.43

>  <PUBCHEM_SHAPE_SELFOVERLAP>  (1) 
492.802

>  <PUBCHEM_SHAPE_VOLUME>  (1) 
144.3

>  <PUBCHEM_COORDINATE_TYPE>  (1) 
2
5
10

$$$$
