10133
     RDKit          3D

 28 31  0  0  1  0  0  0  0  0999 V2000
   -2.2896    2.2896    1.1329 O   0  0  0  0  0  0  0  0  0  0  0  0
   -5.8692   -0.9070    2.3628 O   0  0  0  0  0  0  0  0  0  0  0  0
    7.4191   -1.2919   -0.5923 O   0  0  0  0  0  0  0  0  0  0  0  0
    6.4579    0.7449   -0.8820 O   0  0  0  0  0  0  0  0  0  0  0  0
    0.1029    1.0201    0.1893 C   0  0  0  0  0  0  0  0  0  0  0  0
    1.0947   -0.1011   -0.1877 C   0  0  0  0  0  0  0  0  0  0  0  0
   -1.2183    0.9436   -0.5905 C   0  0  0  0  0  0  0  0  0  0  0  0
   -1.8961   -0.4362   -0.2900 C   0  0  0  0  0  0  0  0  0  0  0  0
   -3.2643   -0.5935   -1.0572 C   0  0  0  0  0  0  0  0  0  0  0  0
    2.2896    0.3140    0.7057 C   0  0  0  0  0  0  0  0  0  0  0  0
   -4.2036    0.6035   -0.6900 C   0  0  0  0  0  0  0  0  0  0  0  0
    0.4464   -1.4389    0.1895 C   0  0  0  0  0  0  0  0  0  0  0  0
   -0.9164   -1.6244   -0.5006 C   0  0  0  0  0  0  0  0  0  0  0  0
   -2.1535    2.1264   -0.2755 C   0  0  0  0  0  0  0  0  0  0  0  0
    0.9434    2.2901    0.0892 C   0  0  0  0  0  0  0  0  0  0  0  0
    2.3454    1.8516    0.5504 C   0  0  0  0  0  0  0  0  0  0  0  0
   -3.5316    1.9716   -0.9250 C   0  0  0  0  0  0  0  0  0  0  0  0
   -3.9948   -1.9254   -0.7133 C   0  0  0  0  0  0  0  0  0  0  0  0
    1.4967   -0.1180   -1.6835 C   0  0  0  0  0  0  0  0  0  0  0  0
    3.6237   -0.3590    0.4169 C   0  0  0  0  0  0  0  0  0  0  0  0
   -4.7745    0.5021    0.7403 C   0  0  0  0  0  0  0  0  0  0  0  0
   -3.0453   -0.6179   -2.5939 C   0  0  0  0  0  0  0  0  0  0  0  0
   -4.5198   -1.9962    0.7141 C   0  0  0  0  0  0  0  0  0  0  0  0
   -5.4614   -0.8348    1.0006 C   0  0  0  0  0  0  0  0  0  0  0  0
    4.7126    0.1934    1.3594 C   0  0  0  0  0  0  0  0  0  0  0  0
    3.4804   -1.8802    0.5334 C   0  0  0  0  0  0  0  0  0  0  0  0
    6.0756   -0.4801    1.1880 C   0  0  0  0  0  0  0  0  0  0  0  0
    6.6501   -0.2459   -0.1911 C   0  0  0  0  0  0  0  0  0  0  0  0
  1 14  1  0
  2 24  1  0
  3 28  1  0
  4 28  2  0
  5  6  1  0
  5  7  1  0
  5 15  1  0
  6 10  1  0
  6 12  1  0
  6 19  1  0
  7  8  1  0
  7 14  1  0
  8  9  1  0
  8 13  1  0
  9 11  1  0
  9 18  1  0
  9 22  1  0
 10 16  1  0
 10 20  1  0
 11 17  1  0
 11 21  1  0
 12 13  1  0
 14 17  1  0
 15 16  1  0
 18 23  1  0
 20 25  1  0
 20 26  1  0
 21 24  1  0
 23 24  1  0
 25 27  1  0
 27 28  1  0
M  END
>  <PUBCHEM_COMPOUND_CID>  (1) 
10133

>  <PUBCHEM_CONFORMER_RMSD>  (1) 
0.8

>  <PUBCHEM_CONFORMER_DIVERSEORDER>  (1) 
1
5
3
4
2

>  <PUBCHEM_MMFF94_PARTIAL_CHARGES>  (1) 
11
1 -0.68
14 0.28
2 -0.68
24 0.28
27 0.06
28 0.66
3 -0.65
4 -0.57
61 0.4
65 0.4
68 0.5

>  <PUBCHEM_EFFECTIVE_ROTOR_COUNT>  (1) 
6.2

>  <PUBCHEM_PHARMACOPHORE_FEATURES>  (1) 
12
1 1 acceptor
1 1 donor
1 2 acceptor
1 2 donor
1 26 hydrophobe
1 3 acceptor
1 4 acceptor
3 3 4 28 anion
5 5 6 10 15 16 rings
6 5 6 7 8 12 13 rings
6 7 8 9 11 14 17 rings
6 9 11 18 21 23 24 rings

>  <PUBCHEM_HEAVY_ATOM_COUNT>  (1) 
28

>  <PUBCHEM_ATOM_DEF_STEREO_COUNT>  (1) 
10

>  <PUBCHEM_ATOM_UDEF_STEREO_COUNT>  (1) 
0

>  <PUBCHEM_BOND_DEF_STEREO_COUNT>  (1) 
0

>  <PUBCHEM_BOND_UDEF_STEREO_COUNT>  (1) 
0

>  <PUBCHEM_ISOTOPIC_ATOM_COUNT>  (1) 
0

>  <PUBCHEM_COMPONENT_COUNT>  (1) 
1

>  <PUBCHEM_CACTVS_TAUTO_COUNT>  (1) 
1

>  <PUBCHEM_CONFORMER_ID>  (1) 
0000279500000001

>  <PUBCHEM_MMFF94_ENERGY>  (1) 
98.3711

>  <PUBCHEM_FEATURE_SELFOVERLAP>  (1) 
61.077

>  <PUBCHEM_SHAPE_FINGERPRINT>  (1) 
10675989 125 16825575996399212613
11089746 13 11095882653218022170
11135609 12 18113905944363332721
12166972 35 17676492774114792876
12236239 1 17748825198893703508
12422481 6 17917714608119298557
12596602 18 17458340827941685736
12633257 1 17489305330380158329
12788726 201 18057880247892638216
13009979 54 18041002847016188125
13140716 1 18196369445095455147
13224815 77 18336262440175454533
13583140 156 18336815425662356797
13782708 43 16733255781987481274
13914758 101 13398638221106775274
14341114 176 18341891917976569768
14787075 74 18186517701025726176
14856354 85 18336831982450540439
14955137 171 18131071554298621256
15183329 4 18411412909019904334
15537594 2 18343297059424511446
15685185 35 17244723492047349196
16110190 28 18271806873199299985
17349148 13 17749107794324115408
17844677 252 17418086625249616992
1813 80 17386005014728457414
18608769 82 18334580182610487946
18927931 339 18409443696257686631
21033648 29 16773213142600101938
21150785 3 15502378945862797010
21267235 1 18410856576830240751
21859007 373 13181923366664697712
22182313 1 18059299746930421109
23081809 10 14908170985123800248
23402539 116 18200861946289631308
23522609 53 18194710204692854544
23559900 14 18129082559138727104
23569914 152 11968107609434555034
23569943 247 17773877494003226286
2838139 119 12247682656075574267
3004659 81 18335698301133426498
335352 9 18411129230730414845
34797466 226 18341904017574448724
350125 39 18409730677045074744
392239 28 18410016572075799035
4015057 19 13695881332409705102
5104073 3 18268419153905685826
59755656 215 18272647914096090622
999808 66 18260836998449795650

>  <PUBCHEM_SHAPE_MULTIPOLES>  (1) 
552.75
15.16
2.23
1.55
19.34
0.58
-0.21
-4.97
2.83
-1.4
0.16
-1.46
-0.27
0.43

>  <PUBCHEM_SHAPE_SELFOVERLAP>  (1) 
1158.271

>  <PUBCHEM_SHAPE_VOLUME>  (1) 
310.5

>  <PUBCHEM_COORDINATE_TYPE>  (1) 
2
5
10

$$$$
