10147
     RDKit          3D

 26 31  0  0  1  0  0  0  0  0999 V2000
    0.9615   -3.6137    0.0913 O   0  0  0  0  0  0  0  0  0  0  0  0
   -3.3043    2.3659    0.3020 O   0  0  0  0  0  0  0  0  0  0  0  0
   -4.8752    1.4299   -1.2619 O   0  0  0  0  0  0  0  0  0  0  0  0
    4.4655    1.8391    0.7428 O   0  0  0  0  0  0  0  0  0  0  0  0
    4.7190    1.2468   -1.5781 O   0  0  0  0  0  0  0  0  0  0  0  0
   -0.1813   -0.0204    2.2311 N   0  0  0  0  0  0  0  0  0  0  0  0
   -0.6236   -1.8401    0.5389 C   0  0  0  0  0  0  0  0  0  0  0  0
    0.4421   -1.0348    1.3530 C   0  0  0  0  0  0  0  0  0  0  0  0
    0.0729   -2.6886   -0.5426 C   0  0  0  0  0  0  0  0  0  0  0  0
   -1.7726   -0.9816    0.0149 C   0  0  0  0  0  0  0  0  0  0  0  0
    1.5740   -0.4461    0.5014 C   0  0  0  0  0  0  0  0  0  0  0  0
    0.8505   -1.8209   -1.5304 C   0  0  0  0  0  0  0  0  0  0  0  0
   -0.9809    0.9473    1.4684 C   0  0  0  0  0  0  0  0  0  0  0  0
    1.7590   -0.8261   -0.8528 C   0  0  0  0  0  0  0  0  0  0  0  0
   -1.9414    0.3353    0.4875 C   0  0  0  0  0  0  0  0  0  0  0  0
    2.4950    0.4425    1.0965 C   0  0  0  0  0  0  0  0  0  0  0  0
   -2.7301   -1.5181   -0.8806 C   0  0  0  0  0  0  0  0  0  0  0  0
   -0.9303   -0.6072    3.3415 C   0  0  0  0  0  0  0  0  0  0  0  0
   -3.0066    1.0728   -0.0129 C   0  0  0  0  0  0  0  0  0  0  0  0
    2.8026   -0.2633   -1.6116 C   0  0  0  0  0  0  0  0  0  0  0  0
    3.5124    0.9627    0.3238 C   0  0  0  0  0  0  0  0  0  0  0  0
   -3.9064    0.5431   -0.9069 C   0  0  0  0  0  0  0  0  0  0  0  0
    3.6582    0.6243   -0.9966 C   0  0  0  0  0  0  0  0  0  0  0  0
   -3.7999   -0.7535   -1.3539 C   0  0  0  0  0  0  0  0  0  0  0  0
   -4.4845    2.5851   -0.4949 C   0  0  0  0  0  0  0  0  0  0  0  0
    5.2244    2.0193   -0.4701 C   0  0  0  0  0  0  0  0  0  0  0  0
  1  9  1  0
  2 19  1  0
  2 25  1  0
  3 22  1  0
  3 25  1  0
  4 21  1  0
  4 26  1  0
  5 23  1  0
  5 26  1  0
  6  8  1  0
  6 13  1  0
  6 18  1  0
  7  8  1  0
  7  9  1  0
  7 10  1  0
  8 11  1  0
  9 12  1  0
 10 15  1  0
 10 17  2  0
 11 14  2  0
 11 16  1  0
 12 14  1  0
 13 15  1  0
 14 20  1  0
 15 19  2  0
 16 21  2  0
 17 24  1  0
 19 22  1  0
 20 23  2  0
 21 23  1  0
 22 24  2  0
M  END
>  <PUBCHEM_COMPOUND_CID>  (1) 
10147

>  <PUBCHEM_CONFORMER_RMSD>  (1) 
0.6

>  <PUBCHEM_CONFORMER_DIVERSEORDER>  (1) 
5
4
6
1
15
11
3
9
7
14
10
2
13
8
12
16

>  <PUBCHEM_MMFF94_PARTIAL_CHARGES>  (1) 
31
1 -0.68
10 -0.14
11 -0.14
12 0.14
13 0.41
14 -0.14
15 -0.14
16 -0.15
17 -0.15
18 0.27
19 0.08
2 -0.36
20 -0.15
21 0.08
22 0.08
23 0.08
24 -0.15
25 0.56
26 0.56
3 -0.36
34 0.15
35 0.15
39 0.15
4 -0.36
40 0.4
41 0.15
5 -0.36
6 -0.81
7 0.14
8 0.41
9 0.28

>  <PUBCHEM_EFFECTIVE_ROTOR_COUNT>  (1) 
2

>  <PUBCHEM_PHARMACOPHORE_FEATURES>  (1) 
13
1 1 acceptor
1 1 donor
1 2 acceptor
1 3 acceptor
1 4 acceptor
1 5 acceptor
1 6 cation
5 2 3 19 22 25 rings
5 4 5 21 23 26 rings
6 10 15 17 19 22 24 rings
6 11 14 16 20 21 23 rings
6 6 7 8 10 13 15 rings
6 7 8 9 11 12 14 rings

>  <PUBCHEM_HEAVY_ATOM_COUNT>  (1) 
26

>  <PUBCHEM_ATOM_DEF_STEREO_COUNT>  (1) 
0

>  <PUBCHEM_ATOM_UDEF_STEREO_COUNT>  (1) 
3

>  <PUBCHEM_BOND_DEF_STEREO_COUNT>  (1) 
0

>  <PUBCHEM_BOND_UDEF_STEREO_COUNT>  (1) 
0

>  <PUBCHEM_ISOTOPIC_ATOM_COUNT>  (1) 
0

>  <PUBCHEM_COMPONENT_COUNT>  (1) 
1

>  <PUBCHEM_CACTVS_TAUTO_COUNT>  (1) 
1

>  <PUBCHEM_CONFORMER_ID>  (1) 
000027A300000005

>  <PUBCHEM_MMFF94_ENERGY>  (1) 
78.9879

>  <PUBCHEM_FEATURE_SELFOVERLAP>  (1) 
66.426

>  <PUBCHEM_SHAPE_FINGERPRINT>  (1) 
10498660 4 18342736312583539189
10863032 1 18411696573723294495
10948715 1 18335136483838139290
11370993 70 18342735238809813564
11578080 2 16881925099580297362
11640471 11 17895185619103223683
11725454 13 18040429988509508060
11961588 58 18268977829802099013
12035759 4 17630895906139900715
12553582 1 15051734196323108751
12633257 1 15502377867662527652
12788726 201 17680139978221693706
12824470 246 11959740347638091388
12892183 10 12324249377094256868
13103583 49 7853581244036235869
13544653 18 11600002158879058710
13583140 156 18042695090591244696
13911987 19 16485568947927738544
13965767 371 17678167201152740141
13994607 96 17677065657784042556
14251757 17 17561078146068088893
14251764 38 18046346602661528444
14468879 13 18334305261726892929
14537116 161 16269657583811137713
14713325 29 18263088867384001059
14739800 52 18122039143891977216
14790565 3 17700140890186066417
15163728 17 18334867107910603606
15209289 33 10087644809826204364
17349148 13 12540709111106797603
17492 54 18337380643094948221
1813 80 12679183855185813360
192875 21 17845374358542651906
200 152 15410628007644341870
20775530 9 12462753675861933036
21731228 192 15646774491875694291
21756936 100 17603872255856135224
22393880 68 18202284680224135758
22907989 373 17840890756066759748
23184049 59 13984651564570638850
23419403 2 16911439573588361403
23559900 14 17701813289466810326
238 59 18200887153642647302
2838139 119 18335695070484901636
3472631 163 18260823791858052685
3737641 26 9871210348593898780
394222 165 18337665317659238538
4028521 119 18130791195770275180
4340502 62 16805610210211416801
474 4 17821728308314114085
57724786 102 17167871854932792060
58260988 393 17822013142672584043
633830 44 17749383715908216547
7097593 13 11026384756498245829
7970288 3 10592049054877201196
9981440 41 18334857246655629858

>  <PUBCHEM_SHAPE_MULTIPOLES>  (1) 
500.74
9.01
2.78
2.04
2.63
0.89
-1.49
-8.47
4.67
-0.56
0.46
-0.12
0.23
0.14

>  <PUBCHEM_SHAPE_SELFOVERLAP>  (1) 
1142.348

>  <PUBCHEM_SHAPE_VOLUME>  (1) 
257.2

>  <PUBCHEM_COORDINATE_TYPE>  (1) 
2
5
10

$$$$
