10151
     RDKit          3D

 20 22  0  0  0  0  0  0  0  0999 V2000
    2.6587    2.3669    0.0018 O   0  0  0  0  0  0  0  0  0  0  0  0
    1.6362   -3.0561   -0.0002 O   0  0  0  0  0  0  0  0  0  0  0  0
    0.1206    2.7656   -0.0016 O   0  0  0  0  0  0  0  0  0  0  0  0
   -0.8618   -2.4868   -0.0007 O   0  0  0  0  0  0  0  0  0  0  0  0
   -3.3917   -2.0871    0.0002 O   0  0  0  0  0  0  0  0  0  0  0  0
    1.0261    0.5814   -0.0006 C   0  0  0  0  0  0  0  0  0  0  0  0
    0.7619   -0.7899   -0.0005 C   0  0  0  0  0  0  0  0  0  0  0  0
   -1.7382   -0.3081    0.0000 C   0  0  0  0  0  0  0  0  0  0  0  0
   -1.4740    1.0631   -0.0005 C   0  0  0  0  0  0  0  0  0  0  0  0
   -0.0822    1.5580   -0.0010 C   0  0  0  0  0  0  0  0  0  0  0  0
   -0.6300   -1.2847    0.0002 C   0  0  0  0  0  0  0  0  0  0  0  0
    2.3498    1.0373   -0.0003 C   0  0  0  0  0  0  0  0  0  0  0  0
    1.8213   -1.7051   -0.0002 C   0  0  0  0  0  0  0  0  0  0  0  0
    3.4026    0.1217    0.0001 C   0  0  0  0  0  0  0  0  0  0  0  0
    3.1389   -1.2465    0.0001 C   0  0  0  0  0  0  0  0  0  0  0  0
   -3.0619   -0.7641    0.0007 C   0  0  0  0  0  0  0  0  0  0  0  0
   -2.5335    1.9784   -0.0003 C   0  0  0  0  0  0  0  0  0  0  0  0
    4.8229    0.5850    0.0010 C   0  0  0  0  0  0  0  0  0  0  0  0
   -4.1147    0.1514    0.0011 C   0  0  0  0  0  0  0  0  0  0  0  0
   -3.8510    1.5197    0.0006 C   0  0  0  0  0  0  0  0  0  0  0  0
  1 12  1  0
  2 13  1  0
  3 10  2  0
  4 11  2  0
  5 16  1  0
  6  7  2  0
  6 10  1  0
  6 12  1  0
  7 11  1  0
  7 13  1  0
  8  9  2  0
  8 11  1  0
  8 16  1  0
  9 10  1  0
  9 17  1  0
 12 14  2  0
 13 15  2  0
 14 15  1  0
 14 18  1  0
 16 19  2  0
 17 20  2  0
 19 20  1  0
M  END
>  <PUBCHEM_COMPOUND_CID>  (1) 
10151

>  <PUBCHEM_CONFORMER_RMSD>  (1) 
0.6

>  <PUBCHEM_CONFORMER_DIVERSEORDER>  (1) 
1

>  <PUBCHEM_MMFF94_PARTIAL_CHARGES>  (1) 
27
1 -0.53
10 0.4
11 0.4
12 0.08
13 0.08
14 -0.14
15 -0.15
16 0.08
17 -0.15
18 0.14
19 -0.15
2 -0.53
20 -0.15
21 0.15
22 0.15
26 0.15
27 0.15
28 0.45
29 0.45
3 -0.57
30 0.45
4 -0.57
5 -0.53
6 0.09
7 0.09
8 0.09
9 0.09

>  <PUBCHEM_EFFECTIVE_ROTOR_COUNT>  (1) 
0

>  <PUBCHEM_PHARMACOPHORE_FEATURES>  (1) 
8
1 1 donor
1 2 donor
1 3 acceptor
1 4 acceptor
1 5 donor
6 6 7 12 13 14 15 rings
6 6 7 8 9 10 11 rings
6 8 9 16 17 19 20 rings

>  <PUBCHEM_HEAVY_ATOM_COUNT>  (1) 
20

>  <PUBCHEM_ATOM_DEF_STEREO_COUNT>  (1) 
0

>  <PUBCHEM_ATOM_UDEF_STEREO_COUNT>  (1) 
0

>  <PUBCHEM_BOND_DEF_STEREO_COUNT>  (1) 
0

>  <PUBCHEM_BOND_UDEF_STEREO_COUNT>  (1) 
0

>  <PUBCHEM_ISOTOPIC_ATOM_COUNT>  (1) 
0

>  <PUBCHEM_COMPONENT_COUNT>  (1) 
1

>  <PUBCHEM_CACTVS_TAUTO_COUNT>  (1) 
186

>  <PUBCHEM_CONFORMER_ID>  (1) 
000027A700000001

>  <PUBCHEM_MMFF94_ENERGY>  (1) 
65.9905

>  <PUBCHEM_FEATURE_SELFOVERLAP>  (1) 
40.639

>  <PUBCHEM_SHAPE_FINGERPRINT>  (1) 
10062212 137 18410002243468813147
10411042 1 16248847620988935590
10608611 8 18410009918654427317
10616163 171 18411420639344007935
10863032 1 18340768139482559489
10967382 1 18338516318104360423
11132069 177 18410570669468535665
11471102 20 18410570648120163332
13132413 78 18412545431049022621
13140716 1 18193843639284634363
13221675 6 18411136935263257958
13380535 76 18409729560443157626
138480 1 17906171746357779138
14223421 5 18337390435445991343
14790565 3 18337117886008206812
15196674 1 18410856529622549734
15230672 131 13362865159891664203
15442244 35 18051130298221560170
15536298 74 18342739564015901598
16945 1 18266740366789525765
17492 89 18410573959757259147
19591789 44 18339363088118310502
200 152 18131625695278996781
20510252 161 18272090457026234240
21267235 1 18410583910953046327
21421861 104 17825665556458368098
21501502 16 18410008793251644019
221490 88 18409175423741548266
2334 1 18410855451796722531
23366157 5 17969509199875770474
23402539 116 18342449365934193798
23463225 33 18409166575945232181
23559900 14 18269834229781579510
2748010 2 18410576145773195759
335352 9 18122626050344092085
34934 24 18410568449223514687
350125 39 18337957920885162985
5104073 3 18410573959656117330
58051976 378 18412823564483128732
7364860 26 18269274565161784486
7832392 63 18339923710326057935
8809292 202 18261396684407192499
9709674 26 18411423903382243231

>  <PUBCHEM_SHAPE_MULTIPOLES>  (1) 
382.24
7.28
2.88
0.59
0.52
0.52
0
-0.97
0
0.07
0
0
-0.01
0

>  <PUBCHEM_SHAPE_SELFOVERLAP>  (1) 
869.659

>  <PUBCHEM_SHAPE_VOLUME>  (1) 
197.3

>  <PUBCHEM_COORDINATE_TYPE>  (1) 
2
5
10

$$$$
