10171
     RDKit          3D

 25 28  0  0  1  0  0  0  0  0999 V2000
    5.6428   -1.9948    0.5882 Br  0  0  0  0  0  0  0  0  0  0  0  0
   -3.4060   -0.4338   -1.7837 O   0  0  0  0  0  0  0  0  0  0  0  0
   -0.2618   -2.5101   -0.1759 N   0  0  0  0  0  0  0  0  0  0  0  0
    4.7597    0.7493    0.2204 N   0  0  0  0  0  0  0  0  0  0  0  0
   -4.1995    0.3757    0.2455 N   0  0  0  0  0  0  0  0  0  0  0  0
    0.7492   -1.4549   -0.4678 C   0  0  0  0  0  0  0  0  0  0  0  0
    0.2455   -0.0185   -0.1336 C   0  0  0  0  0  0  0  0  0  0  0  0
    2.1017   -1.8163    0.2517 C   0  0  0  0  0  0  0  0  0  0  0  0
   -2.0758   -0.8663    0.1179 C   0  0  0  0  0  0  0  0  0  0  0  0
   -1.5952   -2.1041   -0.6435 C   0  0  0  0  0  0  0  0  0  0  0  0
    3.0512   -0.6726    0.2076 C   0  0  0  0  0  0  0  0  0  0  0  0
    1.2425    1.0755   -0.1334 C   0  0  0  0  0  0  0  0  0  0  0  0
    2.5620    0.6380    0.0306 C   0  0  0  0  0  0  0  0  0  0  0  0
   -1.0438    0.2181    0.1657 C   0  0  0  0  0  0  0  0  0  0  0  0
    3.6304    1.5193    0.0440 C   0  0  0  0  0  0  0  0  0  0  0  0
    0.0915   -3.7997   -0.7784 C   0  0  0  0  0  0  0  0  0  0  0  0
   -3.2808   -0.2931   -0.5643 C   0  0  0  0  0  0  0  0  0  0  0  0
    4.4183   -0.5821    0.3231 C   0  0  0  0  0  0  0  0  0  0  0  0
    1.0391    2.4526   -0.2844 C   0  0  0  0  0  0  0  0  0  0  0  0
    3.4450    2.8946   -0.1040 C   0  0  0  0  0  0  0  0  0  0  0  0
    2.1243    3.3407   -0.2682 C   0  0  0  0  0  0  0  0  0  0  0  0
   -5.4136    0.9800   -0.2879 C   0  0  0  0  0  0  0  0  0  0  0  0
   -4.0113    0.5190    1.6869 C   0  0  0  0  0  0  0  0  0  0  0  0
   -5.1817    2.4186   -0.7016 C   0  0  0  0  0  0  0  0  0  0  0  0
   -4.6338   -0.6351    2.4452 C   0  0  0  0  0  0  0  0  0  0  0  0
  1 18  1  0
  2 17  2  0
  3  6  1  0
  3 10  1  0
  3 16  1  0
  4 15  1  0
  4 18  1  0
  5 17  1  0
  5 22  1  0
  5 23  1  0
  6  7  1  0
  6  8  1  0
  7 12  1  0
  7 14  2  0
  8 11  1  0
  9 10  1  0
  9 14  1  0
  9 17  1  0
 11 13  1  0
 11 18  2  0
 12 13  2  0
 12 19  1  0
 13 15  1  0
 15 20  2  0
 19 21  2  0
 20 21  1  0
 22 24  1  0
 23 25  1  0
M  END
>  <PUBCHEM_COMPOUND_CID>  (1) 
10171

>  <PUBCHEM_CONFORMER_RMSD>  (1) 
0.8

>  <PUBCHEM_CONFORMER_DIVERSEORDER>  (1) 
2
4
7
1
6
5
3

>  <PUBCHEM_MMFF94_PARTIAL_CHARGES>  (1) 
27
1 -0.06
10 0.27
11 -0.18
12 0.03
14 -0.29
15 -0.15
16 0.27
17 0.57
18 -0.09
19 -0.15
2 -0.57
20 -0.15
21 -0.15
22 0.3
23 0.3
3 -0.81
32 0.15
36 0.15
37 0.27
38 0.15
39 0.15
4 0.03
5 -0.66
6 0.41
7 -0.17
8 0.18
9 0.2

>  <PUBCHEM_EFFECTIVE_ROTOR_COUNT>  (1) 
4.8

>  <PUBCHEM_PHARMACOPHORE_FEATURES>  (1) 
9
1 1 hydrophobe
1 2 acceptor
1 3 cation
1 4 cation
1 4 donor
5 4 11 13 15 18 rings
6 12 13 15 19 20 21 rings
6 3 6 7 9 10 14 rings
6 6 7 8 11 12 13 rings

>  <PUBCHEM_HEAVY_ATOM_COUNT>  (1) 
25

>  <PUBCHEM_ATOM_DEF_STEREO_COUNT>  (1) 
2

>  <PUBCHEM_ATOM_UDEF_STEREO_COUNT>  (1) 
0

>  <PUBCHEM_BOND_DEF_STEREO_COUNT>  (1) 
0

>  <PUBCHEM_BOND_UDEF_STEREO_COUNT>  (1) 
0

>  <PUBCHEM_ISOTOPIC_ATOM_COUNT>  (1) 
0

>  <PUBCHEM_COMPONENT_COUNT>  (1) 
1

>  <PUBCHEM_CACTVS_TAUTO_COUNT>  (1) 
1

>  <PUBCHEM_CONFORMER_ID>  (1) 
000027BB00000002

>  <PUBCHEM_MMFF94_ENERGY>  (1) 
57.6391

>  <PUBCHEM_FEATURE_SELFOVERLAP>  (1) 
45.915

>  <PUBCHEM_SHAPE_FINGERPRINT>  (1) 
10369192 42 15361384322342852868
10411042 1 17547008529292749839
10967382 1 18410287034851099926
1100329 8 18410569604823327778
11045977 3 17894356574741220491
11545043 162 17385732395805655537
11578080 2 14203126745898544212
12236239 1 17917987274450374975
12553582 1 18336537232431336170
12633257 1 18411976975300877766
12788726 201 17988657271903521488
13140716 1 18337675325038097746
13402501 40 18115864114622896557
13583140 156 17531235193251754171
14117953 113 18197492935636207102
14178342 30 17835784671586341016
14466204 15 18266453209387005545
14790565 3 18410579487279643700
14955137 171 18337123275922767682
15081414 286 18270694060379587726
15196674 1 18411133679799522862
15420108 30 17266391171651135992
15475509 8 17914643608462125196
1601671 61 18409165485303172436
16087824 20 18265610979565210388
17349148 13 17988926694879427054
17492 89 18194396934479446510
17980427 23 17561078133647612216
19591789 44 18267020549466357638
20028762 73 18130498660978932406
20157964 124 18340202982892180165
20715895 44 18340482253970574945
20739085 24 18266477433292263608
20832881 197 18113896005951486826
21033648 29 17385988590520569893
21033650 10 16055785129279951520
21421861 104 17969201422893450992
21709351 56 18339913853734875303
23184049 59 18409169917577384092
23557571 272 13758355566400050899
23558518 356 17829041362293756362
23559900 14 18272366529888517466
23569917 315 18202001019157876103
2838139 119 18264758884451268109
3178227 256 18335713710605718466
335352 9 18410852145046607398
3459 110 18116448118442485155
34934 24 18337945805610264746
350125 39 18268149949661231327
4017518 198 17418094300710116942
474 4 18342458127857576283
5081480 168 17413903975168290159
5104073 3 18339922731269031922
543358 83 18339079397608641572
59755656 215 18267304219018980254
7832392 63 18267298923455594518
8863177 126 17822306728729570266
9981440 41 17257359173455902368

>  <PUBCHEM_SHAPE_MULTIPOLES>  (1) 
499.62
11.52
3.63
1.19
5.1
0.22
-0.54
2.31
-2.6
-2.47
0.9
1.96
-0.33
0

>  <PUBCHEM_SHAPE_SELFOVERLAP>  (1) 
1069.953

>  <PUBCHEM_SHAPE_VOLUME>  (1) 
285.3

>  <PUBCHEM_COORDINATE_TYPE>  (1) 
2
5
10

$$$$
