10189
     RDKit          3D

 15 16  0  0  0  0  0  0  0  0999 V2000
    1.0033    1.6849    0.0006 O   0  0  0  0  0  0  0  0  0  0  0  0
   -3.5888    0.4776   -0.0005 O   0  0  0  0  0  0  0  0  0  0  0  0
   -0.3290   -2.9764    0.0002 O   0  0  0  0  0  0  0  0  0  0  0  0
    2.2049   -2.2085   -0.0014 O   0  0  0  0  0  0  0  0  0  0  0  0
    0.3964   -0.6678    0.0006 C   0  0  0  0  0  0  0  0  0  0  0  0
    0.0626    0.6859    0.0007 C   0  0  0  0  0  0  0  0  0  0  0  0
   -0.6041   -1.6424    0.0004 C   0  0  0  0  0  0  0  0  0  0  0  0
   -1.2777    1.0731    0.0005 C   0  0  0  0  0  0  0  0  0  0  0  0
    1.8175   -1.0483    0.0002 C   0  0  0  0  0  0  0  0  0  0  0  0
   -2.2801    0.1025    0.0002 C   0  0  0  0  0  0  0  0  0  0  0  0
    2.3424    1.3287   -0.0001 C   0  0  0  0  0  0  0  0  0  0  0  0
   -1.9439   -1.2521    0.0001 C   0  0  0  0  0  0  0  0  0  0  0  0
    2.7875    0.0636   -0.0002 C   0  0  0  0  0  0  0  0  0  0  0  0
    3.2717    2.5013   -0.0004 C   0  0  0  0  0  0  0  0  0  0  0  0
   -3.8627    1.8777   -0.0009 C   0  0  0  0  0  0  0  0  0  0  0  0
  1  6  1  0
  1 11  1  0
  2 10  1  0
  2 15  1  0
  3  7  1  0
  4  9  2  0
  5  6  2  0
  5  7  1  0
  5  9  1  0
  6  8  1  0
  7 12  2  0
  8 10  2  0
  9 13  1  0
 10 12  1  0
 11 13  2  0
 11 14  1  0
M  END
>  <PUBCHEM_COMPOUND_CID>  (1) 
10189

>  <PUBCHEM_CONFORMER_RMSD>  (1) 
0.4

>  <PUBCHEM_CONFORMER_DIVERSEORDER>  (1) 
1
2

>  <PUBCHEM_MMFF94_PARTIAL_CHARGES>  (1) 
19
1 -0.16
10 0.08
11 -0.06
12 -0.15
13 -0.14
14 0.14
15 0.28
16 0.15
17 0.15
18 0.15
2 -0.36
22 0.45
3 -0.53
4 -0.57
5 0.09
6 0.08
7 0.08
8 -0.15
9 0.47

>  <PUBCHEM_EFFECTIVE_ROTOR_COUNT>  (1) 
1

>  <PUBCHEM_PHARMACOPHORE_FEATURES>  (1) 
6
1 1 acceptor
1 2 acceptor
1 3 donor
1 4 acceptor
6 1 5 6 9 11 13 rings
6 5 6 7 8 10 12 rings

>  <PUBCHEM_HEAVY_ATOM_COUNT>  (1) 
15

>  <PUBCHEM_ATOM_DEF_STEREO_COUNT>  (1) 
0

>  <PUBCHEM_ATOM_UDEF_STEREO_COUNT>  (1) 
0

>  <PUBCHEM_BOND_DEF_STEREO_COUNT>  (1) 
0

>  <PUBCHEM_BOND_UDEF_STEREO_COUNT>  (1) 
0

>  <PUBCHEM_ISOTOPIC_ATOM_COUNT>  (1) 
0

>  <PUBCHEM_COMPONENT_COUNT>  (1) 
1

>  <PUBCHEM_CACTVS_TAUTO_COUNT>  (1) 
14

>  <PUBCHEM_CONFORMER_ID>  (1) 
000027CD00000001

>  <PUBCHEM_MMFF94_ENERGY>  (1) 
48.386

>  <PUBCHEM_FEATURE_SELFOVERLAP>  (1) 
30.474

>  <PUBCHEM_SHAPE_FINGERPRINT>  (1) 
10411042 1 17185877195398853319
10608611 8 18409729577586220429
10967382 1 18410573937922706597
10980938 120 18410012139031213121
11471102 20 18265891350729408037
11680986 33 18409174311334488650
13140716 1 18408887308829683883
13380535 21 18337400434055970820
13380535 76 18339075003329486022
13380536 305 18339084778638128518
13897977 150 18409727352871957669
14251717 144 18339353064134127245
14325111 11 18410855473345665377
14648413 74 18409452466174677618
14897335 6 18339919410921545261
15442244 35 18196372507243541921
15536298 74 18343582928099563492
15775835 57 18409171038411114444
16945 1 18122626316653240963
18186145 218 18271250421811050317
193761 8 18338799030164008326
20510252 161 18054797448731122433
20645477 70 18338793395725591775
21501502 16 18338790221127782670
2334 1 18410855503315315531
23463225 33 18264487282580347419
23559900 14 18200039568572004412
25 1 18336264518670593877
2748010 2 18409174324214005271
3071541 12 18339928103929882708
528886 8 18411132515615193059
53812653 166 18342173405632414992
63268167 104 18341336617101153953
7364860 26 18341895160850678502
84936 182 18202276979142734321

>  <PUBCHEM_SHAPE_MULTIPOLES>  (1) 
285.22
5.41
2.82
0.59
1.9
0.77
0
-3.71
0
-0.73
0
-0.01
-0.02
0

>  <PUBCHEM_SHAPE_SELFOVERLAP>  (1) 
619.989

>  <PUBCHEM_SHAPE_VOLUME>  (1) 
156

>  <PUBCHEM_COORDINATE_TYPE>  (1) 
2
5
10

$$$$
