10195
     RDKit          3D

 12 12  0  0  0  0  0  0  0  0999 V2000
    0.5172   -2.3904   -0.5458 O   0  0  0  0  0  0  0  0  0  0  0  0
    0.5247    2.3834   -0.5561 O   0  0  0  0  0  0  0  0  0  0  0  0
   -3.2602    0.0048    0.4943 O   0  0  0  0  0  0  0  0  0  0  0  0
    2.9801   -0.0066   -0.0840 O   0  0  0  0  0  0  0  0  0  0  0  0
    1.5366    0.0175    1.5804 O   0  0  0  0  0  0  0  0  0  0  0  0
   -1.3572   -1.1730   -0.0247 N   0  0  0  0  0  0  0  0  0  0  0  0
   -1.3534    1.1742   -0.0297 N   0  0  0  0  0  0  0  0  0  0  0  0
    1.8271   -0.0037    0.3743 N   0  0  0  0  0  0  0  0  0  0  0  0
    0.7081   -0.0039   -0.5924 C   0  0  0  0  0  0  0  0  0  0  0  0
   -0.0279   -1.2971   -0.3900 C   0  0  0  0  0  0  0  0  0  0  0  0
   -0.0238    1.2926   -0.3956 C   0  0  0  0  0  0  0  0  0  0  0  0
   -2.0714    0.0022    0.1693 C   0  0  0  0  0  0  0  0  0  0  0  0
  1 10  2  0
  2 11  2  0
  3 12  2  0
  4  8  1  0
  5  8  2  0
  6 10  1  0
  6 12  1  0
  7 11  1  0
  7 12  1  0
  8  9  1  0
  9 10  1  0
  9 11  1  0
M  CHG  2   4  -1   8   1
M  END
>  <PUBCHEM_COMPOUND_CID>  (1) 
10195

>  <PUBCHEM_CONFORMER_RMSD>  (1) 
0.4

>  <PUBCHEM_CONFORMER_DIVERSEORDER>  (1) 
1
2
3

>  <PUBCHEM_MMFF94_PARTIAL_CHARGES>  (1) 
14
1 -0.57
10 0.57
11 0.57
12 0.69
14 0.37
15 0.37
2 -0.57
3 -0.57
4 -0.52
5 -0.52
6 -0.49
7 -0.49
8 0.8
9 0.36

>  <PUBCHEM_EFFECTIVE_ROTOR_COUNT>  (1) 
1.6

>  <PUBCHEM_PHARMACOPHORE_FEATURES>  (1) 
10
1 1 acceptor
1 2 acceptor
1 3 acceptor
1 4 acceptor
1 4 anion
1 5 acceptor
1 6 donor
1 7 donor
1 9 anion
6 6 7 9 10 11 12 rings

>  <PUBCHEM_HEAVY_ATOM_COUNT>  (1) 
12

>  <PUBCHEM_ATOM_DEF_STEREO_COUNT>  (1) 
0

>  <PUBCHEM_ATOM_UDEF_STEREO_COUNT>  (1) 
0

>  <PUBCHEM_BOND_DEF_STEREO_COUNT>  (1) 
0

>  <PUBCHEM_BOND_UDEF_STEREO_COUNT>  (1) 
0

>  <PUBCHEM_ISOTOPIC_ATOM_COUNT>  (1) 
0

>  <PUBCHEM_COMPONENT_COUNT>  (1) 
1

>  <PUBCHEM_CACTVS_TAUTO_COUNT>  (1) 
10

>  <PUBCHEM_CONFORMER_ID>  (1) 
000027D300000001

>  <PUBCHEM_MMFF94_ENERGY>  (1) 
23.1041

>  <PUBCHEM_FEATURE_SELFOVERLAP>  (1) 
50.912

>  <PUBCHEM_SHAPE_FINGERPRINT>  (1) 
10219947 1 18410296908405867921
10857977 72 18409161104299309033
12423570 1 12901845929156667154
14993402 34 18337672017770484884
161256 15 18053956051642222718
16945 1 18410569587300105949
18185500 45 17257646145494333399
193761 8 17689720757446623157
20653091 64 17827068816525763851
21040471 1 17981053229784160717
23235685 24 18412545409695264837
241688 4 17905060148606947801
2748010 2 18122068594081097167
5084963 1 18060142093191463103
528862 383 17971190567428010781
68250623 7 17756443907703445606

>  <PUBCHEM_SHAPE_MULTIPOLES>  (1) 
202.66
3.2
1.93
0.87
0.8
0.01
0.24
0
0.77
-0.18
-0.56
-0.29
-0.01
0

>  <PUBCHEM_SHAPE_SELFOVERLAP>  (1) 
423.268

>  <PUBCHEM_SHAPE_VOLUME>  (1) 
112.6

>  <PUBCHEM_COORDINATE_TYPE>  (1) 
2
5
10

$$$$
