10200
     RDKit          3D

 10 11  0  0  0  0  0  0  0  0999 V2000
   -2.8146   -1.5183   -0.0002 S   0  0  0  0  0  0  0  0  0  0  0  0
   -0.7155    1.7862    0.0000 N   0  0  0  0  0  0  0  0  0  0  0  0
   -0.2172   -0.3883    0.0001 C   0  0  0  0  0  0  0  0  0  0  0  0
    0.3338    0.8949    0.0001 C   0  0  0  0  0  0  0  0  0  0  0  0
   -1.6320   -0.2354    0.0001 C   0  0  0  0  0  0  0  0  0  0  0  0
   -1.9073    1.1127    0.0001 C   0  0  0  0  0  0  0  0  0  0  0  0
    0.6502   -1.4988    0.0001 C   0  0  0  0  0  0  0  0  0  0  0  0
    1.7143    1.1242   -0.0001 C   0  0  0  0  0  0  0  0  0  0  0  0
    2.0334   -1.2847    0.0001 C   0  0  0  0  0  0  0  0  0  0  0  0
    2.5550    0.0075   -0.0001 C   0  0  0  0  0  0  0  0  0  0  0  0
  1  5  1  0
  2  4  1  0
  2  6  1  0
  3  4  2  0
  3  5  1  0
  3  7  1  0
  4  8  1  0
  5  6  2  0
  7  9  2  0
  8 10  2  0
  9 10  1  0
M  END
>  <PUBCHEM_COMPOUND_CID>  (1) 
10200

>  <PUBCHEM_CONFORMER_RMSD>  (1) 
0.4

>  <PUBCHEM_CONFORMER_DIVERSEORDER>  (1) 
1

>  <PUBCHEM_MMFF94_PARTIAL_CHARGES>  (1) 
16
1 -0.24
10 -0.15
11 0.27
12 0.15
13 0.15
14 0.15
15 0.15
16 0.15
17 0.18
2 0.03
4 -0.15
5 0.05
6 -0.3
7 -0.15
8 -0.15
9 -0.15

>  <PUBCHEM_EFFECTIVE_ROTOR_COUNT>  (1) 
0

>  <PUBCHEM_PHARMACOPHORE_FEATURES>  (1) 
4
1 2 cation
1 2 donor
5 2 3 4 5 6 rings
6 3 4 7 8 9 10 rings

>  <PUBCHEM_HEAVY_ATOM_COUNT>  (1) 
10

>  <PUBCHEM_ATOM_DEF_STEREO_COUNT>  (1) 
0

>  <PUBCHEM_ATOM_UDEF_STEREO_COUNT>  (1) 
0

>  <PUBCHEM_BOND_DEF_STEREO_COUNT>  (1) 
0

>  <PUBCHEM_BOND_UDEF_STEREO_COUNT>  (1) 
0

>  <PUBCHEM_ISOTOPIC_ATOM_COUNT>  (1) 
0

>  <PUBCHEM_COMPONENT_COUNT>  (1) 
1

>  <PUBCHEM_CACTVS_TAUTO_COUNT>  (1) 
2

>  <PUBCHEM_CONFORMER_ID>  (1) 
000027D800000001

>  <PUBCHEM_MMFF94_ENERGY>  (1) 
15.1331

>  <PUBCHEM_FEATURE_SELFOVERLAP>  (1) 
20.389

>  <PUBCHEM_SHAPE_FINGERPRINT>  (1) 
10857977 72 18339912805251177859
11206711 2 18408045116997507940
12423570 1 10847380363650593388
12897270 3 18410291419279518671
14128692 85 18411987961489545726
16945 1 18194682570703596548
18185500 45 18192993712337813578
19973954 147 18411139091326226060
20201158 50 18262233438668470235
21040471 1 17978229361685407552
23552423 10 18260833678518884886
241688 4 18408604729766803184
2748010 2 18411416215363870516
29004967 10 18337112362067567947
369184 2 17313386660663955072
5084963 1 18272654562489037426

>  <PUBCHEM_SHAPE_MULTIPOLES>  (1) 
204.66
3.67
1.87
0.62
0.7
0.07
0
-1.08
0
0.29
0
0.02
-0.03
0

>  <PUBCHEM_SHAPE_SELFOVERLAP>  (1) 
439.675

>  <PUBCHEM_SHAPE_VOLUME>  (1) 
116

>  <PUBCHEM_COORDINATE_TYPE>  (1) 
2
5
10

$$$$
