10201
     RDKit          3D

 18 20  0  0  1  0  0  0  0  0999 V2000
   -1.5283    1.3238    0.5617 O   0  0  0  0  0  0  0  0  0  0  0  0
   -3.7401    1.8733    0.2606 O   0  0  0  0  0  0  0  0  0  0  0  0
    3.5746    2.0131   -0.5913 O   0  0  0  0  0  0  0  0  0  0  0  0
   -1.5437   -0.7623   -0.3865 C   0  0  0  0  0  0  0  0  0  0  0  0
   -0.8104    0.0905    0.6305 C   0  0  0  0  0  0  0  0  0  0  0  0
    1.2652   -1.3340    0.3188 C   0  0  0  0  0  0  0  0  0  0  0  0
   -1.1050   -2.2125   -0.2972 C   0  0  0  0  0  0  0  0  0  0  0  0
    0.6774    0.0974    0.3089 C   0  0  0  0  0  0  0  0  0  0  0  0
    0.4062   -2.2909   -0.5632 C   0  0  0  0  0  0  0  0  0  0  0  0
   -2.9859   -0.4319   -0.0494 C   0  0  0  0  0  0  0  0  0  0  0  0
   -2.8429    1.0452    0.2608 C   0  0  0  0  0  0  0  0  0  0  0  0
    1.3280   -1.8673    1.7683 C   0  0  0  0  0  0  0  0  0  0  0  0
    2.6798   -1.3830   -0.2092 C   0  0  0  0  0  0  0  0  0  0  0  0
    1.4122    1.1954    0.0194 C   0  0  0  0  0  0  0  0  0  0  0  0
   -3.9446   -0.6988   -1.1945 C   0  0  0  0  0  0  0  0  0  0  0  0
    3.4080   -0.3113   -0.5206 C   0  0  0  0  0  0  0  0  0  0  0  0
    2.8515    1.0449   -0.3710 C   0  0  0  0  0  0  0  0  0  0  0  0
    0.8980    2.6083    0.0538 C   0  0  0  0  0  0  0  0  0  0  0  0
  1  5  1  0
  1 11  1  0
  2 11  2  0
  3 17  2  0
  4  5  1  0
  4  7  1  0
  4 10  1  0
  5  8  1  0
  6  8  1  0
  6  9  1  0
  6 12  1  0
  6 13  1  0
  7  9  1  0
  8 14  2  0
 10 11  1  0
 10 15  1  0
 13 16  2  0
 14 17  1  0
 14 18  1  0
 16 17  1  0
M  END
>  <PUBCHEM_COMPOUND_CID>  (1) 
10201

>  <PUBCHEM_CONFORMER_RMSD>  (1) 
0.6

>  <PUBCHEM_CONFORMER_DIVERSEORDER>  (1) 
1

>  <PUBCHEM_MMFF94_PARTIAL_CHARGES>  (1) 
15
1 -0.43
10 0.06
11 0.66
13 -0.29
14 -0.12
16 -0.14
17 0.54
18 0.14
2 -0.57
29 0.15
3 -0.57
33 0.15
5 0.42
6 0.28
8 -0.28

>  <PUBCHEM_EFFECTIVE_ROTOR_COUNT>  (1) 
0.8

>  <PUBCHEM_PHARMACOPHORE_FEATURES>  (1) 
5
1 2 acceptor
1 3 acceptor
5 1 4 5 10 11 rings
6 4 5 6 7 8 9 rings
6 6 8 13 14 16 17 rings

>  <PUBCHEM_HEAVY_ATOM_COUNT>  (1) 
18

>  <PUBCHEM_ATOM_DEF_STEREO_COUNT>  (1) 
3

>  <PUBCHEM_ATOM_UDEF_STEREO_COUNT>  (1) 
1

>  <PUBCHEM_BOND_DEF_STEREO_COUNT>  (1) 
0

>  <PUBCHEM_BOND_UDEF_STEREO_COUNT>  (1) 
0

>  <PUBCHEM_ISOTOPIC_ATOM_COUNT>  (1) 
0

>  <PUBCHEM_COMPONENT_COUNT>  (1) 
1

>  <PUBCHEM_CACTVS_TAUTO_COUNT>  (1) 
2

>  <PUBCHEM_CONFORMER_ID>  (1) 
000027D900000001

>  <PUBCHEM_MMFF94_ENERGY>  (1) 
41.9085

>  <PUBCHEM_FEATURE_SELFOVERLAP>  (1) 
25.476

>  <PUBCHEM_SHAPE_FINGERPRINT>  (1) 
10062212 137 18270674273481150615
10756046 5 18343023289291647143
10863032 1 18335987557546424622
10948715 1 18336551598479321030
10967382 1 18411984701656795228
10980938 120 18408322155389117384
12491281 212 18337399347772233754
12644460 14 18192164698135403689
13009979 54 17915179009731068538
13140716 1 18339642222322001592
13221675 6 18341049709075424007
13583140 156 17095797819221698769
14289901 80 15936414429133929403
14787075 74 17682967952477628811
14993402 34 18412544284282179038
15196674 1 18412547599954525564
15536298 74 18272090491812882836
15775835 57 18335990821552628204
16752209 62 17845638301600017111
16945 1 18197781217993643530
18186145 218 17967537856698555966
19765921 60 18114741658967984602
21267235 1 18340497706819690391
21501502 16 18411413973860420775
21524375 3 18262234538105783678
22094290 62 18409450263077968138
22112679 90 18267565936655375786
231179 274 17749095699564367391
2334 1 18412263934544526425
23402539 116 18200588108287200718
23419403 2 11471676361510669825
23463225 33 18339079263826319386
23558518 356 17903074774109927776
23559900 14 18201165451319920868
25 1 18260835903549333966
2748010 2 18339937003471463082
298252 57 18341897449947311266
3060560 45 18198342862076625191
335352 9 18195812860040544966
34934 24 18338795602811566384
353137 74 18339359789704837523
474 4 17967818300841067132
528886 8 18341895143370297938
57096353 35 18342454893562417701
5939293 188 18340201882494348296
63268167 104 18409735092445216624
7364860 26 18201431536368234080
7832392 63 18413108363996453030
90525 40 18201441354705631847
9709674 26 18272378602282321446
9981440 41 17616526698637101200

>  <PUBCHEM_SHAPE_MULTIPOLES>  (1) 
352.82
5.93
2.68
0.99
2.39
0.36
-0.21
1.75
1.51
-0.68
-0.07
-0.02
-0.38
-0.85

>  <PUBCHEM_SHAPE_SELFOVERLAP>  (1) 
763.207

>  <PUBCHEM_SHAPE_VOLUME>  (1) 
193.5

>  <PUBCHEM_COORDINATE_TYPE>  (1) 
2
5
10

$$$$
