10211
     RDKit          3D

 24 26  0  0  1  0  0  0  0  0999 V2000
   -1.1695   -0.8399   -0.3814 O   0  0  0  0  0  0  0  0  0  0  0  0
   -3.4052    0.0868   -1.6310 O   0  0  0  0  0  0  0  0  0  0  0  0
   -4.1679   -1.5336    1.5692 O   0  0  0  0  0  0  0  0  0  0  0  0
    0.8426   -2.9446   -0.2507 O   0  0  0  0  0  0  0  0  0  0  0  0
   -0.2767    1.7597   -0.0921 O   0  0  0  0  0  0  0  0  0  0  0  0
    4.2709    0.1490    0.4078 O   0  0  0  0  0  0  0  0  0  0  0  0
   -0.7028    4.0083   -0.0042 O   0  0  0  0  0  0  0  0  0  0  0  0
   -4.0745   -0.0785   -0.3774 C   0  0  0  0  0  0  0  0  0  0  0  0
   -3.4250   -1.2650    0.3733 C   0  0  0  0  0  0  0  0  0  0  0  0
   -1.9679   -1.0395    0.7836 C   0  0  0  0  0  0  0  0  0  0  0  0
   -3.9428    1.2308    0.4079 C   0  0  0  0  0  0  0  0  0  0  0  0
   -5.5553   -0.3542   -0.6708 C   0  0  0  0  0  0  0  0  0  0  0  0
    0.1560   -0.5933   -0.1889 C   0  0  0  0  0  0  0  0  0  0  0  0
    1.1034   -1.6123   -0.1292 C   0  0  0  0  0  0  0  0  0  0  0  0
    0.6601    0.7014   -0.0369 C   0  0  0  0  0  0  0  0  0  0  0  0
    2.4658   -1.4050    0.0659 C   0  0  0  0  0  0  0  0  0  0  0  0
    2.0141    0.9718    0.1613 C   0  0  0  0  0  0  0  0  0  0  0  0
    2.9361   -0.0853    0.2149 C   0  0  0  0  0  0  0  0  0  0  0  0
    3.0568   -2.6962    0.0607 C   0  0  0  0  0  0  0  0  0  0  0  0
    2.4369    2.3557    0.3093 C   0  0  0  0  0  0  0  0  0  0  0  0
    2.0312   -3.5920   -0.1343 C   0  0  0  0  0  0  0  0  0  0  0  0
    1.5430    3.3458    0.2552 C   0  0  0  0  0  0  0  0  0  0  0  0
    0.1070    3.0891    0.0460 C   0  0  0  0  0  0  0  0  0  0  0  0
    5.0637    0.3410   -0.7585 C   0  0  0  0  0  0  0  0  0  0  0  0
  1 10  1  0
  1 13  1  0
  2  8  1  0
  3  9  1  0
  4 14  1  0
  4 21  1  0
  5 15  1  0
  5 23  1  0
  6 18  1  0
  6 24  1  0
  7 23  2  0
  8  9  1  0
  8 11  1  0
  8 12  1  0
  9 10  1  0
 13 14  2  0
 13 15  1  0
 14 16  1  0
 15 17  2  0
 16 18  2  0
 16 19  1  0
 17 18  1  0
 17 20  1  0
 19 21  2  0
 20 22  2  0
 22 23  1  0
M  END
>  <PUBCHEM_COMPOUND_CID>  (1) 
10211

>  <PUBCHEM_CONFORMER_RMSD>  (1) 
0.8

>  <PUBCHEM_CONFORMER_DIVERSEORDER>  (1) 
3
27
38
19
13
35
1
33
21
32
8
29
36
5
15
37
10
34
22
14
11
39
20
30
2
25
18
16
7
6
28
24
12
17
9
31
26
23
4

>  <PUBCHEM_MMFF94_PARTIAL_CHARGES>  (1) 
27
1 -0.36
10 0.28
13 0.08
14 0.14
15 0.08
17 0.03
18 0.08
19 -0.15
2 -0.68
20 -0.18
21 -0.01
22 -0.14
23 0.71
24 0.28
3 -0.68
34 0.4
35 0.4
36 0.15
37 0.15
38 0.15
39 0.15
4 -0.28
5 -0.23
6 -0.36
7 -0.57
8 0.28
9 0.28

>  <PUBCHEM_EFFECTIVE_ROTOR_COUNT>  (1) 
5

>  <PUBCHEM_PHARMACOPHORE_FEATURES>  (1) 
12
1 1 acceptor
1 2 acceptor
1 2 donor
1 3 acceptor
1 3 donor
1 4 acceptor
1 6 acceptor
1 7 acceptor
3 8 11 12 hydrophobe
5 4 14 16 19 21 rings
6 13 14 15 16 17 18 rings
6 5 15 17 20 22 23 rings

>  <PUBCHEM_HEAVY_ATOM_COUNT>  (1) 
24

>  <PUBCHEM_ATOM_DEF_STEREO_COUNT>  (1) 
1

>  <PUBCHEM_ATOM_UDEF_STEREO_COUNT>  (1) 
0

>  <PUBCHEM_BOND_DEF_STEREO_COUNT>  (1) 
0

>  <PUBCHEM_BOND_UDEF_STEREO_COUNT>  (1) 
0

>  <PUBCHEM_ISOTOPIC_ATOM_COUNT>  (1) 
0

>  <PUBCHEM_COMPONENT_COUNT>  (1) 
1

>  <PUBCHEM_CACTVS_TAUTO_COUNT>  (1) 
1

>  <PUBCHEM_CONFORMER_ID>  (1) 
000027E300000003

>  <PUBCHEM_MMFF94_ENERGY>  (1) 
84.048

>  <PUBCHEM_FEATURE_SELFOVERLAP>  (1) 
61.037

>  <PUBCHEM_SHAPE_FINGERPRINT>  (1) 
10366900 7 18187079589985185599
10411042 1 18195524784032260310
10693767 8 18131632262263608798
10906281 52 18262534640524715760
10967382 1 18411417319550332002
1100329 8 18267581502265261042
116883 192 18051693248143319902
12236239 1 17489869362580994063
12553582 1 18338807697280982571
12788726 201 17759242899230691107
13134695 92 18411131407645727031
13140716 1 18194392527942383458
13402501 40 18260827137579027145
13583140 156 18335986462810169319
138480 1 18411417293485505945
13911987 19 18263096551180246516
14790565 3 18338526356066261412
14866123 147 16895953540980274755
15042514 8 17329990196882454130
15081414 286 18340496585785344034
1601671 61 18409731768303968752
16945 1 18340196475673731126
19591789 44 18266463285770210756
19930381 70 18266455585152175475
20028762 73 17986110940069888287
20681677 76 18263362654685639387
21421861 104 18043811970560480546
21641784 216 18115324275751261028
221357 26 18336253558388919045
22289505 5 18335691711630026581
2334 1 17762895868285287658
23558518 356 17903075534424361344
23559900 14 18338229475088449497
266924 87 18337956675824526428
2748010 2 17978791534824663802
3060560 45 18343584075088323670
3091708 16 9142539803282988056
350125 39 17905895029888159002
352729 6 16609680909652917228
3886686 26 17046790572149831704
474 4 18341327911329168811
6438718 38 17628631947727688853
6443956 14 18409168805149193068
81228 2 17975138638631043042
9709674 26 18408041823486078955

>  <PUBCHEM_SHAPE_MULTIPOLES>  (1) 
452.82
8.86
4.2
0.88
7.68
1.75
0.02
-2.07
0.8
-2.76
-0.26
0.7
-0.14
0.43

>  <PUBCHEM_SHAPE_SELFOVERLAP>  (1) 
982.284

>  <PUBCHEM_SHAPE_VOLUME>  (1) 
250.2

>  <PUBCHEM_COORDINATE_TYPE>  (1) 
2
5
10

$$$$
