1025
     RDKit          2D

 23 25  0  0  1  0  0  0  0  0999 V2000
    0.0000    0.0000    0.0000 P   0  0  0  0  0  0  0  0  0  0  0  0
    0.0000    0.0000    0.0000 O   0  0  0  0  0  0  0  0  0  0  0  0
    0.0000    0.0000    0.0000 O   0  0  0  0  0  0  0  0  0  0  0  0
    0.0000    0.0000    0.0000 O   0  0  0  0  0  0  0  0  0  0  0  0
    0.0000    0.0000    0.0000 O   0  0  0  0  0  0  0  0  0  0  0  0
    0.0000    0.0000    0.0000 O   0  0  0  0  0  0  0  0  0  0  0  0
    0.0000    0.0000    0.0000 O   0  0  0  0  0  0  0  0  0  0  0  0
    0.0000    0.0000    0.0000 O   0  0  0  0  0  0  0  0  0  0  0  0
    0.0000    0.0000    0.0000 N   0  0  0  0  0  0  0  0  0  0  0  0
    0.0000    0.0000    0.0000 N   0  0  0  0  0  0  0  0  0  0  0  0
    0.0000    0.0000    0.0000 N   0  0  0  0  0  0  0  0  0  0  0  0
    0.0000    0.0000    0.0000 N   0  0  0  0  0  0  0  0  0  0  0  0
    0.0000    0.0000    0.0000 N   0  0  0  0  0  0  0  0  0  0  0  0
    0.0000    0.0000    0.0000 C   0  0  0  0  0  0  0  0  0  0  0  0
    0.0000    0.0000    0.0000 C   0  0  0  0  0  0  0  0  0  0  0  0
    0.0000    0.0000    0.0000 C   0  0  0  0  0  0  0  0  0  0  0  0
    0.0000    0.0000    0.0000 C   0  0  0  0  0  0  0  0  0  0  0  0
    0.0000    0.0000    0.0000 C   0  0  0  0  0  0  0  0  0  0  0  0
    0.0000    0.0000    0.0000 C   0  0  0  0  0  0  0  0  0  0  0  0
    0.0000    0.0000    0.0000 C   0  0  0  0  0  0  0  0  0  0  0  0
    0.0000    0.0000    0.0000 C   0  0  0  0  0  0  0  0  0  0  0  0
    0.0000    0.0000    0.0000 C   0  0  0  0  0  0  0  0  0  0  0  0
    0.0000    0.0000    0.0000 C   0  0  0  0  0  0  0  0  0  0  0  0
  1  2  1  0
  1  3  1  0
  1  7  1  0
  1  8  2  0
  2 14  1  0
  3 20  1  0
  4 15  1  0
  5 18  1  0
  6 22  2  0
  9 16  1  0
  9 17  1  0
 10 19  1  0
 10 21  1  0
 11 19  1  0
 11 23  2  0
 12 22  1  0
 12 23  1  0
 13 23  1  0
 14 15  1  0
 14 18  1  0
 15 17  1  0
 16 19  1  0
 16 22  1  0
 17 21  2  0
 18 20  1  0
M  CHG  1   7  -1
M  END
>  <PUBCHEM_COMPOUND_CID>  (1) 
1025

>  <PUBCHEM_CONFORMER_RMSD>  (1) 
0.8

>  <PUBCHEM_CONFORMER_DIVERSEORDER>  (1) 
75
12
270
517
410
404
250
226
134
441
155
510
363
369
272
308
358
33
554
455
391
35
431
440
430
109
204
2
74
241
571
251
85
296
175
534
288
495
340
327
120
525
538
502
393
319
82
563
481
290
142
150
505
170
15
567
547
306
406
198
124
249
37
281
382
342
429
3
103
446
301
110
493
56
130
191
4
136
396
289
229
144
426
232
72
151
504
532
206
268
256
24
118
573
126
245
186
338
10
361
16
168
235
255
531
466
375
128
59
106
181
568
45
179
76
96
100
343
428
160
278
125
354
461
77
132
225
329
148
318
129
127
277
209
262
7
409
347
89
498
164
70
159
381
309
49
91
383
557
444
234
230
47
199
302
8
220
95
193
529
213
131
86
470
5
69
523
50
542
535
283
137
401
163
63
187
294
219
293
388
581
279
105
123
324
88
149
38
6
1
28
111
263
399
84
202
71
11
53

>  <PUBCHEM_MMFF94_PARTIAL_CHARGES>  (1) 
31
1 1.44
10 -0.87
11 -0.7
12 -0.49
13 -0.85
14 0.28
15 0.42
16 0.43
17 -0.04
18 0.28
19 0.62
2 -0.55
20 0.28
21 -0.05
22 0.57
23 0.56
29 0.4
3 -0.55
32 0.15
33 0.4
34 0.4
35 0.37
36 0.4
37 0.4
38 0.4
4 -0.68
5 -0.68
6 -0.57
7 -0.95
8 -0.95
9 -0.87

>  <PUBCHEM_EFFECTIVE_ROTOR_COUNT>  (1) 
3.6

>  <PUBCHEM_PHARMACOPHORE_FEATURES>  (1) 
16
1 10 cation
1 10 donor
1 12 donor
1 13 donor
1 4 acceptor
1 4 donor
1 5 acceptor
1 5 donor
1 6 acceptor
1 7 acceptor
1 8 acceptor
1 9 cation
1 9 donor
6 1 2 3 14 18 20 rings
6 11 12 16 19 22 23 rings
6 9 10 16 17 19 21 rings

>  <PUBCHEM_HEAVY_ATOM_COUNT>  (1) 
23

>  <PUBCHEM_ATOM_DEF_STEREO_COUNT>  (1) 
0

>  <PUBCHEM_ATOM_UDEF_STEREO_COUNT>  (1) 
5

>  <PUBCHEM_BOND_DEF_STEREO_COUNT>  (1) 
0

>  <PUBCHEM_BOND_UDEF_STEREO_COUNT>  (1) 
0

>  <PUBCHEM_ISOTOPIC_ATOM_COUNT>  (1) 
0

>  <PUBCHEM_COMPONENT_COUNT>  (1) 
1

>  <PUBCHEM_CACTVS_TAUTO_COUNT>  (1) 
5

$$$$
