10259
     RDKit          3D

 21 22  0  0  1  0  0  0  0  0999 V2000
    0.4787   -0.6922    0.7727 O   0  0  0  0  0  0  0  0  0  0  0  0
    2.9625    0.0370   -1.6258 O   0  0  0  0  0  0  0  0  0  0  0  0
    0.9236    1.7788   -0.9286 O   0  0  0  0  0  0  0  0  0  0  0  0
    1.2611   -1.9174   -1.0091 O   0  0  0  0  0  0  0  0  0  0  0  0
   -3.5293    0.2946   -0.7137 N   0  0  0  0  0  0  0  0  0  0  0  0
   -2.3790    0.2403    0.2389 C   0  0  0  0  0  0  0  0  0  0  0  0
   -2.9569    0.5440    1.6207 C   0  0  0  0  0  0  0  0  0  0  0  0
   -4.7525    0.3264    0.1014 C   0  0  0  0  0  0  0  0  0  0  0  0
   -4.3312    1.1156    1.3245 C   0  0  0  0  0  0  0  0  0  0  0  0
   -1.7694   -1.1168    0.0725 C   0  0  0  0  0  0  0  0  0  0  0  0
   -3.4392   -0.9284   -1.5410 C   0  0  0  0  0  0  0  0  0  0  0  0
   -2.3683   -1.7681   -0.9284 C   0  0  0  0  0  0  0  0  0  0  0  0
   -0.6294   -1.5889    0.8990 C   0  0  0  0  0  0  0  0  0  0  0  0
    2.4912    0.0577   -0.2684 C   0  0  0  0  0  0  0  0  0  0  0  0
    3.6958   -0.3765    0.6199 C   0  0  0  0  0  0  0  0  0  0  0  0
    1.9529    1.4819    0.0229 C   0  0  0  0  0  0  0  0  0  0  0  0
    1.3572   -0.9744   -0.2320 C   0  0  0  0  0  0  0  0  0  0  0  0
    3.3363   -0.4386    2.1139 C   0  0  0  0  0  0  0  0  0  0  0  0
    4.3591   -1.6933    0.2061 C   0  0  0  0  0  0  0  0  0  0  0  0
    3.0074    2.5811   -0.0839 C   0  0  0  0  0  0  0  0  0  0  0  0
    0.3296    3.0372   -0.6615 C   0  0  0  0  0  0  0  0  0  0  0  0
  1 13  1  0
  1 17  1  0
  2 14  1  0
  3 16  1  0
  3 21  1  0
  4 17  2  0
  5  6  1  0
  5  8  1  0
  5 11  1  0
  6  7  1  0
  6 10  1  0
  7  9  1  0
  8  9  1  0
 10 12  2  0
 10 13  1  0
 11 12  1  0
 14 15  1  0
 14 16  1  0
 14 17  1  0
 15 18  1  0
 15 19  1  0
 16 20  1  0
M  END
>  <PUBCHEM_COMPOUND_CID>  (1) 
10259

>  <PUBCHEM_CONFORMER_RMSD>  (1) 
1.2

>  <PUBCHEM_CONFORMER_DIVERSEORDER>  (1) 
1
21
66
131
58
55
127
28
124
91
73
52
92
60
104
107
47
76
86
9
90
77
94
106
13
61
117
81
35
97
30
53
75
56
114
69
20
54
50
70
41
74
96
42
5
32
6
132
133
67
122
46
80
68
31
109
85
45
88
8
84
43
128
125
33
44
48
23
115
112
49
121
126
71
64
40
130
3
12
95
118
78
111
110
19
34
82
37
39
17
79
89
129
99
16
98
7
93
100
25
36
24
4
119
113
22
105
123
27
87
120
62
57
108
18
2
38
134
10
102
116
65
59
103
83
72
14
15
11
101
26
29
63
51

>  <PUBCHEM_MMFF94_PARTIAL_CHARGES>  (1) 
17
1 -0.43
10 -0.28
11 0.41
12 -0.29
13 0.42
14 0.34
16 0.28
17 0.66
2 -0.68
21 0.28
3 -0.56
31 0.15
4 -0.57
45 0.4
5 -0.81
6 0.41
8 0.27

>  <PUBCHEM_EFFECTIVE_ROTOR_COUNT>  (1) 
7.8

>  <PUBCHEM_PHARMACOPHORE_FEATURES>  (1) 
8
1 2 acceptor
1 2 donor
1 3 acceptor
1 4 acceptor
1 5 cation
3 15 18 19 hydrophobe
5 5 6 10 11 12 rings
5 5 6 7 8 9 rings

>  <PUBCHEM_HEAVY_ATOM_COUNT>  (1) 
21

>  <PUBCHEM_ATOM_DEF_STEREO_COUNT>  (1) 
0

>  <PUBCHEM_ATOM_UDEF_STEREO_COUNT>  (1) 
3

>  <PUBCHEM_BOND_DEF_STEREO_COUNT>  (1) 
0

>  <PUBCHEM_BOND_UDEF_STEREO_COUNT>  (1) 
0

>  <PUBCHEM_ISOTOPIC_ATOM_COUNT>  (1) 
0

>  <PUBCHEM_COMPONENT_COUNT>  (1) 
1

>  <PUBCHEM_CACTVS_TAUTO_COUNT>  (1) 
1

>  <PUBCHEM_CONFORMER_ID>  (1) 
0000281300000001

>  <PUBCHEM_MMFF94_ENERGY>  (1) 
45.9803

>  <PUBCHEM_FEATURE_SELFOVERLAP>  (1) 
40.972

>  <PUBCHEM_SHAPE_FINGERPRINT>  (1) 
10062212 137 18272081734290443087
10064457 181 16443357497935399594
10366900 7 16805323284446317427
10382601 240 18114743858234417576
104564 63 17971187037007098020
10646746 165 17346874555120458426
11086676 242 18187079525550152624
11370993 70 16774072951554669743
116883 192 18267305340020657996
12173636 292 17561363951120809839
12236239 1 18272929410811232227
12507557 5 18334571377990230371
12553582 1 18335987493153544356
12596599 1 18272655666459176269
12633257 1 18408038507143176271
128620 24 11743835871867544810
13134695 92 18187356628281739548
13140716 1 18337394936561142306
13224815 77 18341615983322755787
13583140 156 17676482899789709515
14004511 7 18341892969911325803
14178342 30 18272928327957831727
15238133 3 17750243499794561493
15295992 7 18187093874793036035
15375358 24 13973963190662431683
15653759 3 16153427250968522923
17349148 13 18342450448245204091
17492 89 18267580402200804294
17980427 23 17987502853365996608
18186145 218 17967529094807178954
18219364 16 17894908547058614327
192875 21 18270384096794976005
21033648 29 17023170643927510077
21864079 5 18341061812287970041
23175994 123 17458628860927242510
23402539 116 18339635651043449050
23419403 2 17700377387995624008
23557571 272 17203324559113571699
23559900 14 16343705374892374878
3052486 1 18044659689899391420
312423 11 18262805206073738119
3472631 163 16128096633864540561
474 4 18411419518468248651
5104073 3 18337392737854437363
57724786 102 17894639166203953108
58051976 378 10303807700972839306
5895379 119 17917723369969140488
5939293 188 18337673113214472644
7064713 232 17988363663680758977
74978 22 18261393420153088562
7615 1 18272088365355691363
7832392 63 18342748424596827781
9971528 1 18341888572492276282
9981440 41 17547840210906721960

>  <PUBCHEM_SHAPE_MULTIPOLES>  (1) 
403.71
8.71
2.48
1.51
3.01
1.52
-0.32
-0.2
-1.39
-1.4
0.6
0.17
-0.12
-1.17

>  <PUBCHEM_SHAPE_SELFOVERLAP>  (1) 
823.96

>  <PUBCHEM_SHAPE_VOLUME>  (1) 
237

>  <PUBCHEM_COORDINATE_TYPE>  (1) 
2
5
10

$$$$
