10250
     RDKit          3D

 12 13  0  0  0  0  0  0  0  0999 V2000
   -0.5292    2.6281    0.0001 O   0  0  0  0  0  0  0  0  0  0  0  0
   -3.2283   -1.1205   -0.0003 O   0  0  0  0  0  0  0  0  0  0  0  0
   -0.9486   -1.3934    0.0001 N   0  0  0  0  0  0  0  0  0  0  0  0
   -1.8938    0.7568   -0.0001 N   0  0  0  0  0  0  0  0  0  0  0  0
    1.7127    1.1219   -0.0002 N   0  0  0  0  0  0  0  0  0  0  0  0
    1.4112   -1.6694    0.0002 N   0  0  0  0  0  0  0  0  0  0  0  0
    0.5039    0.5247    0.0002 C   0  0  0  0  0  0  0  0  0  0  0  0
    0.3425   -0.8463    0.0004 C   0  0  0  0  0  0  0  0  0  0  0  0
   -0.6671    1.4103    0.0001 C   0  0  0  0  0  0  0  0  0  0  0  0
   -2.1004   -0.6241    0.0000 C   0  0  0  0  0  0  0  0  0  0  0  0
    2.7725    0.2909   -0.0004 C   0  0  0  0  0  0  0  0  0  0  0  0
    2.6245   -1.0790   -0.0001 C   0  0  0  0  0  0  0  0  0  0  0  0
  1  9  2  0
  2 10  2  0
  3  8  1  0
  3 10  1  0
  4  9  1  0
  4 10  1  0
  5  7  2  0
  5 11  1  0
  6  8  2  0
  6 12  1  0
  7  8  1  0
  7  9  1  0
 11 12  2  0
M  END
>  <PUBCHEM_COMPOUND_CID>  (1) 
10250

>  <PUBCHEM_CONFORMER_RMSD>  (1) 
0.4

>  <PUBCHEM_CONFORMER_DIVERSEORDER>  (1) 
1

>  <PUBCHEM_MMFF94_PARTIAL_CHARGES>  (1) 
16
1 -0.57
10 0.69
11 0.16
12 0.16
13 0.37
14 0.37
15 0.15
16 0.15
2 -0.57
3 -0.55
4 -0.49
5 -0.62
6 -0.62
7 0.4
8 0.43
9 0.54

>  <PUBCHEM_EFFECTIVE_ROTOR_COUNT>  (1) 
0

>  <PUBCHEM_PHARMACOPHORE_FEATURES>  (1) 
7
1 1 acceptor
1 2 acceptor
1 3 donor
1 4 donor
1 5 acceptor
6 3 4 7 8 9 10 rings
6 5 6 7 8 11 12 rings

>  <PUBCHEM_HEAVY_ATOM_COUNT>  (1) 
12

>  <PUBCHEM_ATOM_DEF_STEREO_COUNT>  (1) 
0

>  <PUBCHEM_ATOM_UDEF_STEREO_COUNT>  (1) 
0

>  <PUBCHEM_BOND_DEF_STEREO_COUNT>  (1) 
0

>  <PUBCHEM_BOND_UDEF_STEREO_COUNT>  (1) 
0

>  <PUBCHEM_ISOTOPIC_ATOM_COUNT>  (1) 
0

>  <PUBCHEM_COMPONENT_COUNT>  (1) 
1

>  <PUBCHEM_CACTVS_TAUTO_COUNT>  (1) 
9

>  <PUBCHEM_CONFORMER_ID>  (1) 
0000280A00000001

>  <PUBCHEM_MMFF94_ENERGY>  (1) 
29.1094

>  <PUBCHEM_FEATURE_SELFOVERLAP>  (1) 
35.605

>  <PUBCHEM_SHAPE_FINGERPRINT>  (1) 
11206711 2 18337114458164550516
12032990 46 18410300241190174547
12897270 3 18410572868581325566
161256 15 18341894112604410096
16945 1 18194682557871344738
193761 8 17978228253515370855
19973954 147 18267022765210598350
20201158 50 18335136526840605291
20871998 184 18201717301890504103
21040471 1 17906453221344454660
21501502 16 18338239245811987090
23552423 10 18260834760956183958
23559900 14 17406838381091328974
241688 4 18409730629736955905
2748010 2 18411133623795935141
5084963 1 18201157663604813666
528886 8 18339639069974456434

>  <PUBCHEM_SHAPE_MULTIPOLES>  (1) 
215.29
3.87
2.04
0.57
0.18
0.85
0
-1.28
0
0.35
0
-0.03
0
0

>  <PUBCHEM_SHAPE_SELFOVERLAP>  (1) 
471.367

>  <PUBCHEM_SHAPE_VOLUME>  (1) 
114.1

>  <PUBCHEM_COORDINATE_TYPE>  (1) 
2
5
10

$$$$
