10260
     RDKit          3D

 13 14  0  0  0  0  0  0  0  0999 V2000
    0.9203    2.5627    0.0085 S   0  0  0  0  0  0  0  0  0  0  0  0
   -1.0041    1.8225   -0.0347 S   0  0  0  0  0  0  0  0  0  0  0  0
    1.3627   -2.3970   -0.0237 O   0  0  0  0  0  0  0  0  0  0  0  0
   -3.4890   -0.1995   -1.0878 O   0  0  0  0  0  0  0  0  0  0  0  0
    2.9903    0.6481    0.0336 N   0  0  0  0  0  0  0  0  0  0  0  0
   -1.4766   -0.8007   -0.0683 N   0  0  0  0  0  0  0  0  0  0  0  0
    0.8554   -0.0634   -0.0151 C   0  0  0  0  0  0  0  0  0  0  0  0
    3.1958   -0.7840    0.0262 C   0  0  0  0  0  0  0  0  0  0  0  0
    1.6632    1.0043    0.0103 C   0  0  0  0  0  0  0  0  0  0  0  0
    1.7460   -1.2393   -0.0065 C   0  0  0  0  0  0  0  0  0  0  0  0
   -0.5834    0.1224   -0.0422 C   0  0  0  0  0  0  0  0  0  0  0  0
   -2.8007   -0.4127   -0.0913 C   0  0  0  0  0  0  0  0  0  0  0  0
   -3.3799   -0.2634    1.2911 C   0  0  0  0  0  0  0  0  0  0  0  0
  1  2  1  0
  1  9  1  0
  2 11  1  0
  3 10  2  0
  4 12  2  0
  5  8  1  0
  5  9  1  0
  6 11  2  0
  6 12  1  0
  7  9  2  0
  7 10  1  0
  7 11  1  0
  8 10  1  0
 12 13  1  0
M  END
>  <PUBCHEM_COMPOUND_CID>  (1) 
10260

>  <PUBCHEM_CONFORMER_RMSD>  (1) 
0.4

>  <PUBCHEM_CONFORMER_DIVERSEORDER>  (1) 
1
4
2
3

>  <PUBCHEM_MMFF94_PARTIAL_CHARGES>  (1) 
14
1 -0.1
10 0.49
11 0.58
12 0.72
13 0.06
16 0.4
2 -0.14
3 -0.57
4 -0.57
5 -0.87
6 -0.66
7 0.03
8 0.43
9 0.2

>  <PUBCHEM_EFFECTIVE_ROTOR_COUNT>  (1) 
1.4

>  <PUBCHEM_PHARMACOPHORE_FEATURES>  (1) 
8
1 3 acceptor
1 4 acceptor
1 5 cation
1 5 donor
1 6 acceptor
1 6 donor
5 1 2 7 9 11 rings
5 5 7 8 9 10 rings

>  <PUBCHEM_HEAVY_ATOM_COUNT>  (1) 
13

>  <PUBCHEM_ATOM_DEF_STEREO_COUNT>  (1) 
0

>  <PUBCHEM_ATOM_UDEF_STEREO_COUNT>  (1) 
0

>  <PUBCHEM_BOND_DEF_STEREO_COUNT>  (1) 
0

>  <PUBCHEM_BOND_UDEF_STEREO_COUNT>  (1) 
0

>  <PUBCHEM_ISOTOPIC_ATOM_COUNT>  (1) 
0

>  <PUBCHEM_COMPONENT_COUNT>  (1) 
1

>  <PUBCHEM_CACTVS_TAUTO_COUNT>  (1) 
9

>  <PUBCHEM_CONFORMER_ID>  (1) 
0000281400000001

>  <PUBCHEM_MMFF94_ENERGY>  (1) 
30.3119

>  <PUBCHEM_FEATURE_SELFOVERLAP>  (1) 
40.77

>  <PUBCHEM_SHAPE_FINGERPRINT>  (1) 
10219947 1 18411135861600418798
10967382 1 18338797926457256788
11206711 2 18335987458704089956
11471102 20 18409726283451526765
12032990 46 18410018702094682198
14144814 61 18413672409177045403
14251717 144 18340197600406432783
15501101 241 18261678167889539077
16945 1 18410856585436071044
17844478 74 17967540081744809749
193761 8 17906452126159364766
20201158 50 18334572438773422627
20645477 70 18411411787722509263
20871998 22 18198352766498140726
21061003 4 18410577288060656985
21501502 16 18194119620950667792
2334 1 17834394901129915158
23552423 10 18190185594142558948
2748010 2 18195805167928262348
449060 23 17916880031849792014
581208 293 18341604953894166702
63268167 104 18340206405158097721
7364860 26 18270679891145613880
77492 1 17703795859486978393
81228 2 18046625607672912280
8809292 202 18114188565648360379

>  <PUBCHEM_SHAPE_MULTIPOLES>  (1) 
253.53
5.23
2.22
0.81
2.58
0.8
-0.07
-1.55
-0.25
-1.16
0.01
0.68
-0.02
0.05

>  <PUBCHEM_SHAPE_SELFOVERLAP>  (1) 
518.022

>  <PUBCHEM_SHAPE_VOLUME>  (1) 
149.6

>  <PUBCHEM_COORDINATE_TYPE>  (1) 
2
5
10

$$$$
