1029
     RDKit          2D

 11 10  0  0  1  0  0  0  0  0999 V2000
    0.0000    0.0000    0.0000 O   0  0  0  0  0  0  0  0  0  0  0  0
    0.0000    0.0000    0.0000 O   0  0  0  0  0  0  0  0  0  0  0  0
    0.0000    0.0000    0.0000 O   0  0  0  0  0  0  0  0  0  0  0  0
    0.0000    0.0000    0.0000 N   0  0  0  0  0  0  0  0  0  0  0  0
    0.0000    0.0000    0.0000 N   0  0  0  0  0  0  0  0  0  0  0  0
    0.0000    0.0000    0.0000 C   0  0  0  0  0  0  0  0  0  0  0  0
    0.0000    0.0000    0.0000 C   0  0  0  0  0  0  0  0  0  0  0  0
    0.0000    0.0000    0.0000 C   0  0  0  0  0  0  0  0  0  0  0  0
    0.0000    0.0000    0.0000 C   0  0  0  0  0  0  0  0  0  0  0  0
    0.0000    0.0000    0.0000 C   0  0  0  0  0  0  0  0  0  0  0  0
    0.0000    0.0000    0.0000 C   0  0  0  0  0  0  0  0  0  0  0  0
  1  8  1  0
  2 11  1  0
  3 11  2  0
  4  9  1  0
  5 10  1  0
  6  7  1  0
  6  8  1  0
  7  9  1  0
  8 10  1  0
  9 11  1  0
M  END
>  <PUBCHEM_COMPOUND_CID>  (1) 
1029

>  <PUBCHEM_CONFORMER_RMSD>  (1) 
0.6

>  <PUBCHEM_CONFORMER_DIVERSEORDER>  (1) 
35
127
170
85
166
73
185
182
143
28
159
156
31
141
186
114
164
14
180
111
172
176
52
18
84
163
123
105
64
184
149
2
147
24
23
167
168
121
27
144
71
145
74
183
148
78
171
69
54
162
44
48
88
26
93
130
158
152
12
92
138
102
13
139
94
151
17
179
129
75
118
112
58
128
110
136
137
47
96
131
146
117
25
169
5
99
61
34
83
142
155
134
126
1
175
41
67
133
91
140
60
8
107
160
104
113
181
101
173
51
120
109
177
97
116
20
79
68
108
90
82
4
43
76
132
150
125
103
157
100
57
154
9
106
11
89
50
77
66
72
161
45
30
87
165
15
7
46
42
95
98
37
56
63
19
81
59
70
62
16
55
40
174
65
21
178
39
122
153
38
3
124
49
119
32
22
6
115
10
135
33
80
36
86
29
53

>  <PUBCHEM_MMFF94_PARTIAL_CHARGES>  (1) 
15
1 -0.68
10 0.27
11 0.66
2 -0.65
20 0.36
21 0.36
22 0.4
23 0.36
24 0.36
25 0.5
3 -0.57
4 -0.99
5 -0.99
8 0.28
9 0.33

>  <PUBCHEM_EFFECTIVE_ROTOR_COUNT>  (1) 
5

>  <PUBCHEM_PHARMACOPHORE_FEATURES>  (1) 
9
1 1 acceptor
1 1 donor
1 2 acceptor
1 3 acceptor
1 4 cation
1 4 donor
1 5 cation
1 5 donor
3 2 3 11 anion

>  <PUBCHEM_HEAVY_ATOM_COUNT>  (1) 
11

>  <PUBCHEM_ATOM_DEF_STEREO_COUNT>  (1) 
0

>  <PUBCHEM_ATOM_UDEF_STEREO_COUNT>  (1) 
2

>  <PUBCHEM_BOND_DEF_STEREO_COUNT>  (1) 
0

>  <PUBCHEM_BOND_UDEF_STEREO_COUNT>  (1) 
0

>  <PUBCHEM_ISOTOPIC_ATOM_COUNT>  (1) 
0

>  <PUBCHEM_COMPONENT_COUNT>  (1) 
1

>  <PUBCHEM_CACTVS_TAUTO_COUNT>  (1) 
1

$$$$
