10307
     RDKit          3D

 17 18  0  0  0  0  0  0  0  0999 V2000
    4.5577   -2.8897   -0.3658 Cl  0  0  0  0  0  0  0  0  0  0  0  0
    2.9108    4.0052    0.1805 Cl  0  0  0  0  0  0  0  0  0  0  0  0
    1.8761    0.1045    0.0254 N   0  0  0  0  0  0  0  0  0  0  0  0
    0.5073   -0.2281    0.0975 C   0  0  0  0  0  0  0  0  0  0  0  0
    2.8875   -0.8657    0.3946 C   0  0  0  0  0  0  0  0  0  0  0  0
    2.2893    1.4162   -0.4323 C   0  0  0  0  0  0  0  0  0  0  0  0
   -1.8260    0.3978   -0.1902 C   0  0  0  0  0  0  0  0  0  0  0  0
   -0.4591    0.7131   -0.2585 C   0  0  0  0  0  0  0  0  0  0  0  0
   -2.2184   -0.8904    0.2449 C   0  0  0  0  0  0  0  0  0  0  0  0
    0.1214   -1.4949    0.5254 C   0  0  0  0  0  0  0  0  0  0  0  0
   -1.2321   -1.8255    0.5990 C   0  0  0  0  0  0  0  0  0  0  0  0
    3.3067   -1.7002   -0.8054 C   0  0  0  0  0  0  0  0  0  0  0  0
    2.3932    2.3916    0.7297 C   0  0  0  0  0  0  0  0  0  0  0  0
   -2.8121    1.3329   -0.5447 C   0  0  0  0  0  0  0  0  0  0  0  0
   -3.5852   -1.2056    0.3131 C   0  0  0  0  0  0  0  0  0  0  0  0
   -4.1656    1.0027   -0.4707 C   0  0  0  0  0  0  0  0  0  0  0  0
   -4.5514   -0.2639   -0.0425 C   0  0  0  0  0  0  0  0  0  0  0  0
  1 12  1  0
  2 13  1  0
  3  4  1  0
  3  5  1  0
  3  6  1  0
  4  8  2  0
  4 10  1  0
  5 12  1  0
  6 13  1  0
  7  8  1  0
  7  9  2  0
  7 14  1  0
  9 11  1  0
  9 15  1  0
 10 11  2  0
 14 16  2  0
 15 17  2  0
 16 17  1  0
M  END
>  <PUBCHEM_COMPOUND_CID>  (1) 
10307

>  <PUBCHEM_CONFORMER_RMSD>  (1) 
0.6

>  <PUBCHEM_CONFORMER_DIVERSEORDER>  (1) 
6
28
63
45
50
62
69
85
83
37
68
60
23
79
82
7
40
72
65
61
66
64
70
73
25
32
34
53
81
38
20
74
11
55
43
49
39
58
77
59
57
80
46
35
87
8
86
31
27
10
29
44
12
36
16
75
14
13
48
84
67
24
71
26
41
51
76
52
19
18
4
33
3
17
42
54
5
56
2
1
47
9
78
21
30
15
22

>  <PUBCHEM_MMFF94_PARTIAL_CHARGES>  (1) 
22
1 -0.29
10 -0.15
11 -0.15
12 0.29
13 0.29
14 -0.15
15 -0.15
16 -0.15
17 -0.15
2 -0.29
22 0.15
23 0.15
24 0.15
29 0.15
3 -0.84
30 0.15
31 0.15
32 0.15
4 0.1
5 0.37
6 0.37
8 -0.15

>  <PUBCHEM_EFFECTIVE_ROTOR_COUNT>  (1) 
5

>  <PUBCHEM_PHARMACOPHORE_FEATURES>  (1) 
3
1 3 cation
6 4 7 8 9 10 11 rings
6 7 9 14 15 16 17 rings

>  <PUBCHEM_HEAVY_ATOM_COUNT>  (1) 
17

>  <PUBCHEM_ATOM_DEF_STEREO_COUNT>  (1) 
0

>  <PUBCHEM_ATOM_UDEF_STEREO_COUNT>  (1) 
0

>  <PUBCHEM_BOND_DEF_STEREO_COUNT>  (1) 
0

>  <PUBCHEM_BOND_UDEF_STEREO_COUNT>  (1) 
0

>  <PUBCHEM_ISOTOPIC_ATOM_COUNT>  (1) 
0

>  <PUBCHEM_COMPONENT_COUNT>  (1) 
1

>  <PUBCHEM_CACTVS_TAUTO_COUNT>  (1) 
1

>  <PUBCHEM_CONFORMER_ID>  (1) 
0000284300000006

>  <PUBCHEM_MMFF94_ENERGY>  (1) 
55.7975

>  <PUBCHEM_FEATURE_SELFOVERLAP>  (1) 
15.249

>  <PUBCHEM_SHAPE_FINGERPRINT>  (1) 
10608611 8 18336261331688990949
1100329 8 18053670165850845288
11680986 33 18334863869325953075
12032990 46 18335989696603746219
12403259 226 18335698304352279533
12403259 415 18113896044664532893
12788726 201 17903079924440698418
12916754 54 18412547622078448875
13134695 92 17560786707136718480
13140716 1 18333447655768918033
13955234 65 18341335603747257250
14178000 15 18343303626719533904
14250199 8 18413388739387611397
14790565 3 16394656464482062024
14866123 147 16971678014875947722
14911166 2 18262801739839828143
15196674 1 18335420192878020535
15219456 202 18410574028206658169
15536298 74 18409447011687413837
16945 1 18190450576634867459
17041 50 18337953385642122646
17492 89 18339641256197985655
17804303 29 18262239919536522207
18186145 218 18113893845366580759
200 152 17846211103696991487
20510252 161 18337955718184073537
20645477 56 18260828258534050797
20645477 70 18411697699052205399
20671657 1 18410859879887055252
20671657 53 18270970029308347594
20832881 197 18263929834606769450
21029758 11 18339361838810458490
21267235 1 18334865974646314315
221490 88 18336553792986491986
22943178 12 18261393398862718955
23175994 123 18269559342783521630
23366157 5 18114460167090959768
23402539 116 18055629512940574598
23559900 14 18411695487301894128
2748010 2 18260267490334163247
3004659 81 17897172325943244462
3286 77 18409168779316209502
335352 9 18265051332535805917
495365 180 18130218376008537256
5104073 3 18334015021328664689
633830 44 18410001131673410557
7364860 26 18340770433533230632
7808743 9 16969700573474089632
9709674 26 18336829791927437939
9971528 1 18271518702906599650
9981440 41 17907007731792940512

>  <PUBCHEM_SHAPE_MULTIPOLES>  (1) 
348.61
8.52
3.53
0.8
2.2
2.76
0.01
-1.94
1.05
-5.97
-0.2
-0.13
-0.03
1.22

>  <PUBCHEM_SHAPE_SELFOVERLAP>  (1) 
713.799

>  <PUBCHEM_SHAPE_VOLUME>  (1) 
202.5

>  <PUBCHEM_COORDINATE_TYPE>  (1) 
2
5
10

$$$$
