1031
     RDKit          3D

  4  3  0  0  0  0  0  0  0  0999 V2000
    1.8381   -0.1603   -0.0038 O   0  0  0  0  0  0  0  0  0  0  0  0
   -0.5300   -0.5081    0.0038 C   0  0  0  0  0  0  0  0  0  0  0  0
    0.5908    0.5200    0.0036 C   0  0  0  0  0  0  0  0  0  0  0  0
   -1.8989    0.1484   -0.0036 C   0  0  0  0  0  0  0  0  0  0  0  0
  1  3  1  0
  2  3  1  0
  2  4  1  0
M  END
>  <PUBCHEM_COMPOUND_CID>  (1) 
1031

>  <PUBCHEM_CONFORMER_RMSD>  (1) 
0.4

>  <PUBCHEM_CONFORMER_DIVERSEORDER>  (1) 
1
2
3

>  <PUBCHEM_MMFF94_PARTIAL_CHARGES>  (1) 
3
1 -0.68
12 0.4
3 0.28

>  <PUBCHEM_EFFECTIVE_ROTOR_COUNT>  (1) 
1

>  <PUBCHEM_PHARMACOPHORE_FEATURES>  (1) 
3
1 1 acceptor
1 1 donor
1 4 hydrophobe

>  <PUBCHEM_HEAVY_ATOM_COUNT>  (1) 
4

>  <PUBCHEM_ATOM_DEF_STEREO_COUNT>  (1) 
0

>  <PUBCHEM_ATOM_UDEF_STEREO_COUNT>  (1) 
0

>  <PUBCHEM_BOND_DEF_STEREO_COUNT>  (1) 
0

>  <PUBCHEM_BOND_UDEF_STEREO_COUNT>  (1) 
0

>  <PUBCHEM_ISOTOPIC_ATOM_COUNT>  (1) 
0

>  <PUBCHEM_COMPONENT_COUNT>  (1) 
1

>  <PUBCHEM_CACTVS_TAUTO_COUNT>  (1) 
1

>  <PUBCHEM_CONFORMER_ID>  (1) 
0000040700000001

>  <PUBCHEM_MMFF94_ENERGY>  (1) 
-1.6138

>  <PUBCHEM_FEATURE_SELFOVERLAP>  (1) 
15.223

>  <PUBCHEM_SHAPE_FINGERPRINT>  (1) 
139733 1 9223231849211957120
20096714 4 18408886273584290093
21015797 1 9221500114103197185
5460574 1 9223235147741520225

>  <PUBCHEM_SHAPE_MULTIPOLES>  (1) 
76.45
2.36
0.75
0.59
0.02
0.01
0
0.04
0.01
0.02
0
0.05
0
0

>  <PUBCHEM_SHAPE_SELFOVERLAP>  (1) 
122.597

>  <PUBCHEM_SHAPE_VOLUME>  (1) 
54.4

>  <PUBCHEM_COORDINATE_TYPE>  (1) 
2
5
10

$$$$
