10321
     RDKit          3D

 13 13  0  0  0  0  0  0  0  0999 V2000
   -0.5898   -2.5089   -0.0010 O   0  0  0  0  0  0  0  0  0  0  0  0
   -1.5477   -0.3383    0.0004 C   0  0  0  0  0  0  0  0  0  0  0  0
   -1.2980    1.0341    0.0008 C   0  0  0  0  0  0  0  0  0  0  0  0
   -2.8612   -0.8082   -0.0005 C   0  0  0  0  0  0  0  0  0  0  0  0
   -2.3614    1.9366    0.0004 C   0  0  0  0  0  0  0  0  0  0  0  0
   -3.9247    0.0945   -0.0010 C   0  0  0  0  0  0  0  0  0  0  0  0
   -3.6747    1.4668   -0.0006 C   0  0  0  0  0  0  0  0  0  0  0  0
   -0.4389   -1.2791    0.0006 C   0  0  0  0  0  0  0  0  0  0  0  0
    0.9353   -0.7892    0.0010 C   0  0  0  0  0  0  0  0  0  0  0  0
    2.0650   -0.3821    0.0010 C   0  0  0  0  0  0  0  0  0  0  0  0
    5.8577    0.9941   -0.0013 C   0  0  0  0  0  0  0  0  0  0  0  0
    3.3550    0.0851    0.0004 C   0  0  0  0  0  0  0  0  0  0  0  0
    4.4836    0.4946   -0.0003 C   0  0  0  0  0  0  0  0  0  0  0  0
  1  8  2  0
  2  3  2  0
  2  4  1  0
  2  8  1  0
  3  5  1  0
  4  6  2  0
  5  7  2  0
  6  7  1  0
  8  9  1  0
  9 10  3  0
 10 12  1  0
 11 13  1  0
 12 13  3  0
M  END
>  <PUBCHEM_COMPOUND_CID>  (1) 
10321

>  <PUBCHEM_CONFORMER_RMSD>  (1) 
0.4

>  <PUBCHEM_CONFORMER_DIVERSEORDER>  (1) 
1
2

>  <PUBCHEM_MMFF94_PARTIAL_CHARGES>  (1) 
16
1 -0.57
11 0.2
13 -0.2
14 0.15
15 0.15
16 0.15
17 0.15
18 0.15
2 0.09
3 -0.15
4 -0.15
5 -0.15
6 -0.15
7 -0.15
8 0.59
9 -0.1

>  <PUBCHEM_EFFECTIVE_ROTOR_COUNT>  (1) 
1

>  <PUBCHEM_PHARMACOPHORE_FEATURES>  (1) 
3
1 1 acceptor
1 11 hydrophobe
6 2 3 4 5 6 7 rings

>  <PUBCHEM_HEAVY_ATOM_COUNT>  (1) 
13

>  <PUBCHEM_ATOM_DEF_STEREO_COUNT>  (1) 
0

>  <PUBCHEM_ATOM_UDEF_STEREO_COUNT>  (1) 
0

>  <PUBCHEM_BOND_DEF_STEREO_COUNT>  (1) 
0

>  <PUBCHEM_BOND_UDEF_STEREO_COUNT>  (1) 
0

>  <PUBCHEM_ISOTOPIC_ATOM_COUNT>  (1) 
0

>  <PUBCHEM_COMPONENT_COUNT>  (1) 
1

>  <PUBCHEM_CACTVS_TAUTO_COUNT>  (1) 
1

>  <PUBCHEM_CONFORMER_ID>  (1) 
0000285100000001

>  <PUBCHEM_MMFF94_ENERGY>  (1) 
22.2553

>  <PUBCHEM_FEATURE_SELFOVERLAP>  (1) 
15.223

>  <PUBCHEM_SHAPE_FINGERPRINT>  (1) 
11132069 177 18260554385538619549
12346645 44 18336827494140708771
12390115 104 18128835074443402761
13214271 11 18409730673113838111
13897977 58 18335140916497459996
15501527 16 18412829101265698384
15775835 57 18336265652220128704
17834072 32 18410856534113267516
200 152 12319740271777780878
20300324 65 18202842166915885013
20510252 161 18343024358865253785
20645477 56 18412266159891363146
20645477 70 16845025533087492958
21524375 3 18409446960095370594
23402539 116 18341323474474906566
23402655 69 17917428696678806340
23557571 272 18130795615128358830
23559900 14 18273217465957616638
7364860 26 17981043012036325695

>  <PUBCHEM_SHAPE_MULTIPOLES>  (1) 
261.66
9.89
1.86
0.61
14.19
0.32
0
-4.93
0.01
-1.21
0
0
-0.02
0

>  <PUBCHEM_SHAPE_SELFOVERLAP>  (1) 
540.861

>  <PUBCHEM_SHAPE_VOLUME>  (1) 
148.1

>  <PUBCHEM_COORDINATE_TYPE>  (1) 
2
5
10

$$$$
