10331
     RDKit          3D

 12 13  0  0  0  0  0  0  0  0999 V2000
   -0.5377   -1.0323   -0.0001 O   0  0  0  0  0  0  0  0  0  0  0  0
   -3.4257    1.0921    0.0009 O   0  0  0  0  0  0  0  0  0  0  0  0
   -3.3446   -1.1794    0.0001 O   0  0  0  0  0  0  0  0  0  0  0  0
    0.8157    0.7766   -0.0003 C   0  0  0  0  0  0  0  0  0  0  0  0
    0.7591   -0.6134   -0.0001 C   0  0  0  0  0  0  0  0  0  0  0  0
   -0.5339    1.2177   -0.0006 C   0  0  0  0  0  0  0  0  0  0  0  0
   -1.3126    0.0836   -0.0004 C   0  0  0  0  0  0  0  0  0  0  0  0
    2.0770    1.3974   -0.0001 C   0  0  0  0  0  0  0  0  0  0  0  0
    1.8803   -1.4412    0.0000 C   0  0  0  0  0  0  0  0  0  0  0  0
    3.2234    0.5910    0.0005 C   0  0  0  0  0  0  0  0  0  0  0  0
    3.1242   -0.8027    0.0003 C   0  0  0  0  0  0  0  0  0  0  0  0
   -2.7251   -0.0894   -0.0001 C   0  0  0  0  0  0  0  0  0  0  0  0
  1  5  1  0
  1  7  1  0
  2 12  1  0
  3 12  2  0
  4  5  2  0
  4  6  1  0
  4  8  1  0
  5  9  1  0
  6  7  2  0
  7 12  1  0
  8 10  2  0
  9 11  2  0
 10 11  1  0
M  END
>  <PUBCHEM_COMPOUND_CID>  (1) 
10331

>  <PUBCHEM_CONFORMER_RMSD>  (1) 
0.4

>  <PUBCHEM_CONFORMER_DIVERSEORDER>  (1) 
1
2

>  <PUBCHEM_MMFF94_PARTIAL_CHARGES>  (1) 
17
1 -0.28
10 -0.15
11 -0.15
12 0.81
13 0.15
14 0.15
15 0.15
16 0.15
17 0.15
18 0.5
2 -0.65
3 -0.57
5 0.14
6 -0.15
7 0.05
8 -0.15
9 -0.15

>  <PUBCHEM_EFFECTIVE_ROTOR_COUNT>  (1) 
1

>  <PUBCHEM_PHARMACOPHORE_FEATURES>  (1) 
6
1 1 acceptor
1 2 acceptor
1 3 acceptor
3 2 3 12 anion
5 1 4 5 6 7 rings
6 4 5 8 9 10 11 rings

>  <PUBCHEM_HEAVY_ATOM_COUNT>  (1) 
12

>  <PUBCHEM_ATOM_DEF_STEREO_COUNT>  (1) 
0

>  <PUBCHEM_ATOM_UDEF_STEREO_COUNT>  (1) 
0

>  <PUBCHEM_BOND_DEF_STEREO_COUNT>  (1) 
0

>  <PUBCHEM_BOND_UDEF_STEREO_COUNT>  (1) 
0

>  <PUBCHEM_ISOTOPIC_ATOM_COUNT>  (1) 
0

>  <PUBCHEM_COMPONENT_COUNT>  (1) 
1

>  <PUBCHEM_CACTVS_TAUTO_COUNT>  (1) 
1

>  <PUBCHEM_CONFORMER_ID>  (1) 
0000285B00000001

>  <PUBCHEM_MMFF94_ENERGY>  (1) 
18.896

>  <PUBCHEM_FEATURE_SELFOVERLAP>  (1) 
30.609

>  <PUBCHEM_SHAPE_FINGERPRINT>  (1) 
10219947 1 18342739611112816334
10608611 8 18409162220933121405
11471102 20 18410288090669347276
11769659 78 18410287004037476379
12032990 46 18410581694665460590
12932764 1 17385998434437567827
13380535 76 18336826502335709234
14144814 61 18412545405273697121
14325111 11 18410855477403125925
16945 1 18410573981199388192
17844478 74 18040438784850463189
18186145 218 18113898234490945287
193761 8 17546164099945252646
20201158 50 18408323267748912202
20645477 70 18411976928072380167
20871998 22 18054510201867297174
21501925 9 18410563011552389970
23402655 69 18269260293465579725
23463225 33 18409166593341223300
23552423 10 18333452036297994902
2748010 2 18410293639751145974
3248919 1 17385729131329641233
528886 8 18411414038153048546

>  <PUBCHEM_SHAPE_MULTIPOLES>  (1) 
229.35
5.52
1.5
0.59
2.37
0
0
0.25
0
-0.29
0
-0.06
-0.01
0

>  <PUBCHEM_SHAPE_SELFOVERLAP>  (1) 
506.94

>  <PUBCHEM_SHAPE_VOLUME>  (1) 
125

>  <PUBCHEM_COORDINATE_TYPE>  (1) 
2
5
10

$$$$
