10338
     RDKit          3D

  6  5  0  0  1  0  0  0  0  0999 V2000
   -0.1803   -1.8953   -0.0147 O   0  0  0  0  0  0  0  0  0  0  0  0
    1.6803    1.2559   -0.0737 O   0  0  0  0  0  0  0  0  0  0  0  0
    0.0329   -0.5154   -0.3029 C   0  0  0  0  0  0  0  0  0  0  0  0
    1.4398   -0.1265    0.1477 C   0  0  0  0  0  0  0  0  0  0  0  0
   -1.0244    0.2641    0.4254 C   0  0  0  0  0  0  0  0  0  0  0  0
   -1.9484    1.0174   -0.1819 C   0  0  0  0  0  0  0  0  0  0  0  0
  1  3  1  0
  2  4  1  0
  3  4  1  0
  3  5  1  0
  5  6  2  0
M  END
>  <PUBCHEM_COMPOUND_CID>  (1) 
10338

>  <PUBCHEM_CONFORMER_RMSD>  (1) 
0.4

>  <PUBCHEM_CONFORMER_DIVERSEORDER>  (1) 
4
7
11
2
8
9
1
5
3
6
10

>  <PUBCHEM_MMFF94_PARTIAL_CHARGES>  (1) 
11
1 -0.68
10 0.15
11 0.4
12 0.4
13 0.15
14 0.15
2 -0.68
3 0.42
4 0.28
5 -0.29
6 -0.3

>  <PUBCHEM_EFFECTIVE_ROTOR_COUNT>  (1) 
2

>  <PUBCHEM_PHARMACOPHORE_FEATURES>  (1) 
5
1 1 acceptor
1 1 donor
1 2 acceptor
1 2 donor
1 6 hydrophobe

>  <PUBCHEM_HEAVY_ATOM_COUNT>  (1) 
6

>  <PUBCHEM_ATOM_DEF_STEREO_COUNT>  (1) 
0

>  <PUBCHEM_ATOM_UDEF_STEREO_COUNT>  (1) 
1

>  <PUBCHEM_BOND_DEF_STEREO_COUNT>  (1) 
0

>  <PUBCHEM_BOND_UDEF_STEREO_COUNT>  (1) 
0

>  <PUBCHEM_ISOTOPIC_ATOM_COUNT>  (1) 
0

>  <PUBCHEM_COMPONENT_COUNT>  (1) 
1

>  <PUBCHEM_CACTVS_TAUTO_COUNT>  (1) 
1

>  <PUBCHEM_CONFORMER_ID>  (1) 
0000286200000004

>  <PUBCHEM_MMFF94_ENERGY>  (1) 
5.1331

>  <PUBCHEM_FEATURE_SELFOVERLAP>  (1) 
25.371

>  <PUBCHEM_SHAPE_FINGERPRINT>  (1) 
16714656 1 18051986001735655423
20096714 4 18411138021810895040
21040471 1 18411699902375468928
23552449 1 17908419504364171552
29004967 10 17832711162444439355
5943 1 10690235936925955095

>  <PUBCHEM_SHAPE_MULTIPOLES>  (1) 
111.74
2.25
1.5
0.64
0.63
0.44
0.01
-0.99
-0.03
-0.39
-0.06
0.06
-0.01
0.02

>  <PUBCHEM_SHAPE_SELFOVERLAP>  (1) 
197.812

>  <PUBCHEM_SHAPE_VOLUME>  (1) 
73.2

>  <PUBCHEM_COORDINATE_TYPE>  (1) 
2
5
10

$$$$
