10336
     RDKit          3D

  6  5  0  0  0  0  0  0  0  0999 V2000
   -2.3584    0.1675    0.0002 O   0  0  0  0  0  0  0  0  0  0  0  0
    0.0182   -0.0802    0.0002 C   0  0  0  0  0  0  0  0  0  0  0  0
    1.1478    0.6476    0.0000 C   0  0  0  0  0  0  0  0  0  0  0  0
   -0.1087   -1.5708   -0.0001 C   0  0  0  0  0  0  0  0  0  0  0  0
    2.5539    0.1392    0.0001 C   0  0  0  0  0  0  0  0  0  0  0  0
   -1.2529    0.6967   -0.0003 C   0  0  0  0  0  0  0  0  0  0  0  0
  1  6  2  0
  2  3  2  0
  2  4  1  0
  2  6  1  0
  3  5  1  0
M  END
>  <PUBCHEM_COMPOUND_CID>  (1) 
10336

>  <PUBCHEM_CONFORMER_RMSD>  (1) 
0.4

>  <PUBCHEM_CONFORMER_DIVERSEORDER>  (1) 
1
2

>  <PUBCHEM_MMFF94_PARTIAL_CHARGES>  (1) 
8
1 -0.57
14 0.06
2 -0.12
3 -0.29
4 0.14
5 0.14
6 0.5
7 0.15

>  <PUBCHEM_EFFECTIVE_ROTOR_COUNT>  (1) 
1

>  <PUBCHEM_PHARMACOPHORE_FEATURES>  (1) 
3
1 1 acceptor
1 4 hydrophobe
1 5 hydrophobe

>  <PUBCHEM_HEAVY_ATOM_COUNT>  (1) 
6

>  <PUBCHEM_ATOM_DEF_STEREO_COUNT>  (1) 
0

>  <PUBCHEM_ATOM_UDEF_STEREO_COUNT>  (1) 
0

>  <PUBCHEM_BOND_DEF_STEREO_COUNT>  (1) 
0

>  <PUBCHEM_BOND_UDEF_STEREO_COUNT>  (1) 
1

>  <PUBCHEM_ISOTOPIC_ATOM_COUNT>  (1) 
0

>  <PUBCHEM_COMPONENT_COUNT>  (1) 
1

>  <PUBCHEM_CACTVS_TAUTO_COUNT>  (1) 
1

>  <PUBCHEM_CONFORMER_ID>  (1) 
0000286000000001

>  <PUBCHEM_MMFF94_ENERGY>  (1) 
2.9111

>  <PUBCHEM_FEATURE_SELFOVERLAP>  (1) 
15.223

>  <PUBCHEM_SHAPE_FINGERPRINT>  (1) 
16714656 1 18335140907749217916
20096714 4 18409729577522670072
21040471 1 18410573993920733796
29004967 10 9799686025888912572
5460574 1 9295290542861889024
5943 1 15040761405137764287

>  <PUBCHEM_SHAPE_MULTIPOLES>  (1) 
117.61
2.93
1.2
0.6
0.51
0.56
0
-0.62
0
-0.12
0
0.04
0
0

>  <PUBCHEM_SHAPE_SELFOVERLAP>  (1) 
212.145

>  <PUBCHEM_SHAPE_VOLUME>  (1) 
76

>  <PUBCHEM_COORDINATE_TYPE>  (1) 
2
5
10

$$$$
