10333
     RDKit          3D

  9  9  0  0  0  0  0  0  0  0999 V2000
   -1.6209    1.8314   -0.0006 O   0  0  0  0  0  0  0  0  0  0  0  0
    2.9119    0.3589   -0.0006 O   0  0  0  0  0  0  0  0  0  0  0  0
   -1.1451   -0.5179    0.0002 C   0  0  0  0  0  0  0  0  0  0  0  0
   -0.7188    0.8103    0.0005 C   0  0  0  0  0  0  0  0  0  0  0  0
   -0.2082   -1.5512   -0.0001 C   0  0  0  0  0  0  0  0  0  0  0  0
    0.6447    1.1052    0.0006 C   0  0  0  0  0  0  0  0  0  0  0  0
    1.5816    0.0717    0.0002 C   0  0  0  0  0  0  0  0  0  0  0  0
    1.1551   -1.2564   -0.0001 C   0  0  0  0  0  0  0  0  0  0  0  0
   -2.6003   -0.8520   -0.0002 C   0  0  0  0  0  0  0  0  0  0  0  0
  1  4  1  0
  2  7  1  0
  3  4  2  0
  3  5  1  0
  3  9  1  0
  4  6  1  0
  5  8  2  0
  6  7  2  0
  7  8  1  0
M  END
>  <PUBCHEM_COMPOUND_CID>  (1) 
10333

>  <PUBCHEM_CONFORMER_RMSD>  (1) 
0.4

>  <PUBCHEM_CONFORMER_DIVERSEORDER>  (1) 
1

>  <PUBCHEM_MMFF94_PARTIAL_CHARGES>  (1) 
14
1 -0.53
10 0.15
11 0.15
12 0.15
16 0.45
17 0.45
2 -0.53
3 -0.14
4 0.08
5 -0.15
6 -0.15
7 0.08
8 -0.15
9 0.14

>  <PUBCHEM_EFFECTIVE_ROTOR_COUNT>  (1) 
0

>  <PUBCHEM_PHARMACOPHORE_FEATURES>  (1) 
3
1 1 donor
1 2 donor
6 3 4 5 6 7 8 rings

>  <PUBCHEM_HEAVY_ATOM_COUNT>  (1) 
9

>  <PUBCHEM_ATOM_DEF_STEREO_COUNT>  (1) 
0

>  <PUBCHEM_ATOM_UDEF_STEREO_COUNT>  (1) 
0

>  <PUBCHEM_BOND_DEF_STEREO_COUNT>  (1) 
0

>  <PUBCHEM_BOND_UDEF_STEREO_COUNT>  (1) 
0

>  <PUBCHEM_ISOTOPIC_ATOM_COUNT>  (1) 
0

>  <PUBCHEM_COMPONENT_COUNT>  (1) 
1

>  <PUBCHEM_CACTVS_TAUTO_COUNT>  (1) 
9

>  <PUBCHEM_CONFORMER_ID>  (1) 
0000285D00000001

>  <PUBCHEM_MMFF94_ENERGY>  (1) 
21.6019

>  <PUBCHEM_FEATURE_SELFOVERLAP>  (1) 
15.223

>  <PUBCHEM_SHAPE_FINGERPRINT>  (1) 
15310529 11 14548752702323785722
16714656 1 18339645649837882574
16945 1 18410856606942614498
18185500 45 18195243549261897239
193761 8 18122626046139080967
21040471 1 18122624959496413892
23402655 69 18268130008565725261
23552423 10 18189059702799627902
2748010 2 18267023860205842830
29004967 10 18334862774304627379
5084963 1 18202005451378196354

>  <PUBCHEM_SHAPE_MULTIPOLES>  (1) 
173.48
3.07
1.7
0.6
0.38
0.21
0
-0.07
0
-0.44
0
-0.02
-0.02
0

>  <PUBCHEM_SHAPE_SELFOVERLAP>  (1) 
361.884

>  <PUBCHEM_SHAPE_VOLUME>  (1) 
99.7

>  <PUBCHEM_COORDINATE_TYPE>  (1) 
2
5
10

$$$$
