10356
     RDKit          3D

 11 11  0  0  0  0  0  0  0  0999 V2000
   -2.7773    1.1550    0.0011 O   0  0  0  0  0  0  0  0  0  0  0  0
   -2.9071   -1.1143   -0.0014 O   0  0  0  0  0  0  0  0  0  0  0  0
    1.3596   -1.1920    0.0002 C   0  0  0  0  0  0  0  0  0  0  0  0
    1.2897    1.2231    0.0001 C   0  0  0  0  0  0  0  0  0  0  0  0
    2.0219    0.0357    0.0001 C   0  0  0  0  0  0  0  0  0  0  0  0
   -0.7669   -0.0450    0.0005 C   0  0  0  0  0  0  0  0  0  0  0  0
   -0.0348   -1.2322    0.0004 C   0  0  0  0  0  0  0  0  0  0  0  0
   -0.1046    1.1826    0.0003 C   0  0  0  0  0  0  0  0  0  0  0  0
    2.1424   -2.4615    0.0000 C   0  0  0  0  0  0  0  0  0  0  0  0
    1.9977    2.5359   -0.0010 C   0  0  0  0  0  0  0  0  0  0  0  0
   -2.2205   -0.0872   -0.0004 C   0  0  0  0  0  0  0  0  0  0  0  0
  1 11  1  0
  2 11  2  0
  3  5  2  0
  3  7  1  0
  3  9  1  0
  4  5  1  0
  4  8  2  0
  4 10  1  0
  6  7  2  0
  6  8  1  0
  6 11  1  0
M  END
>  <PUBCHEM_COMPOUND_CID>  (1) 
10356

>  <PUBCHEM_CONFORMER_RMSD>  (1) 
0.4

>  <PUBCHEM_CONFORMER_DIVERSEORDER>  (1) 
1
2

>  <PUBCHEM_MMFF94_PARTIAL_CHARGES>  (1) 
15
1 -0.65
10 0.14
11 0.63
12 0.15
13 0.15
14 0.15
2 -0.57
21 0.5
3 -0.14
4 -0.14
5 -0.15
6 0.09
7 -0.15
8 -0.15
9 0.14

>  <PUBCHEM_EFFECTIVE_ROTOR_COUNT>  (1) 
1

>  <PUBCHEM_PHARMACOPHORE_FEATURES>  (1) 
4
1 1 acceptor
1 2 acceptor
3 1 2 11 anion
6 3 4 5 6 7 8 rings

>  <PUBCHEM_HEAVY_ATOM_COUNT>  (1) 
11

>  <PUBCHEM_ATOM_DEF_STEREO_COUNT>  (1) 
0

>  <PUBCHEM_ATOM_UDEF_STEREO_COUNT>  (1) 
0

>  <PUBCHEM_BOND_DEF_STEREO_COUNT>  (1) 
0

>  <PUBCHEM_BOND_UDEF_STEREO_COUNT>  (1) 
0

>  <PUBCHEM_ISOTOPIC_ATOM_COUNT>  (1) 
0

>  <PUBCHEM_COMPONENT_COUNT>  (1) 
1

>  <PUBCHEM_CACTVS_TAUTO_COUNT>  (1) 
1

>  <PUBCHEM_CONFORMER_ID>  (1) 
0000287400000001

>  <PUBCHEM_MMFF94_ENERGY>  (1) 
29.6313

>  <PUBCHEM_FEATURE_SELFOVERLAP>  (1) 
20.355

>  <PUBCHEM_SHAPE_FINGERPRINT>  (1) 
1 1 18338799047512260548
13380535 76 18120369015197511226
14128692 85 18339929190720405326
14325111 11 18266458891744568129
14648413 74 18408604738604676985
16945 1 18410575110527893190
17990270 104 18409728439266789379
19021347 11 18338515364769424246
19973954 147 18410293601460605953
20645477 70 18411130368870679631
20871998 22 18126288536767616302
21040471 1 17978229688282400032
21501502 16 18410856560088221461
23552423 10 18410294722267546791
241688 4 17978230457086515880
2748010 2 18123461688114053494
5084963 1 18129948991111440257
528862 383 18263352737125715194
63268167 104 18338522936691311225
7364860 26 18413951693736220200
81228 2 17547296597069626690

>  <PUBCHEM_SHAPE_MULTIPOLES>  (1) 
214.64
3.76
2.53
0.6
2.63
0.15
0
-0.19
0
-2.07
0
-0.05
0
0

>  <PUBCHEM_SHAPE_SELFOVERLAP>  (1) 
447.861

>  <PUBCHEM_SHAPE_VOLUME>  (1) 
124.1

>  <PUBCHEM_COORDINATE_TYPE>  (1) 
2
5
10

$$$$
