10365
     RDKit          3D

 12 12  0  0  0  0  0  0  0  0999 V2000
   -3.5400    0.2517    0.0009 O   0  0  0  0  0  0  0  0  0  0  0  0
    3.5109    0.2069   -0.0005 O   0  0  0  0  0  0  0  0  0  0  0  0
   -2.6345   -1.8331   -0.0003 O   0  0  0  0  0  0  0  0  0  0  0  0
    2.5821   -1.8678    0.0002 O   0  0  0  0  0  0  0  0  0  0  0  0
    1.2535    1.4159    0.0002 N   0  0  0  0  0  0  0  0  0  0  0  0
   -1.2045    0.0849   -0.0003 C   0  0  0  0  0  0  0  0  0  0  0  0
   -0.0181   -0.6402    0.0000 C   0  0  0  0  0  0  0  0  0  0  0  0
    1.1738    0.0663    0.0003 C   0  0  0  0  0  0  0  0  0  0  0  0
   -1.1634    1.4748   -0.0004 C   0  0  0  0  0  0  0  0  0  0  0  0
    0.0798    2.0867    0.0000 C   0  0  0  0  0  0  0  0  0  0  0  0
   -2.4835   -0.6069   -0.0004 C   0  0  0  0  0  0  0  0  0  0  0  0
    2.4438   -0.6392    0.0004 C   0  0  0  0  0  0  0  0  0  0  0  0
  1 11  1  0
  2 12  1  0
  3 11  2  0
  4 12  2  0
  5  8  2  0
  5 10  1  0
  6  7  2  0
  6  9  1  0
  6 11  1  0
  7  8  1  0
  8 12  1  0
  9 10  2  0
M  END
>  <PUBCHEM_COMPOUND_CID>  (1) 
10365

>  <PUBCHEM_CONFORMER_RMSD>  (1) 
0.6

>  <PUBCHEM_CONFORMER_DIVERSEORDER>  (1) 
1
4
2
3

>  <PUBCHEM_MMFF94_PARTIAL_CHARGES>  (1) 
17
1 -0.65
10 0.16
11 0.63
12 0.63
13 0.15
14 0.15
15 0.15
16 0.5
17 0.5
2 -0.65
3 -0.57
4 -0.57
5 -0.62
6 0.09
7 -0.15
8 0.4
9 -0.15

>  <PUBCHEM_EFFECTIVE_ROTOR_COUNT>  (1) 
2

>  <PUBCHEM_PHARMACOPHORE_FEATURES>  (1) 
8
1 1 acceptor
1 2 acceptor
1 3 acceptor
1 4 acceptor
1 5 acceptor
3 1 3 11 anion
3 2 4 12 anion
6 5 6 7 8 9 10 rings

>  <PUBCHEM_HEAVY_ATOM_COUNT>  (1) 
12

>  <PUBCHEM_ATOM_DEF_STEREO_COUNT>  (1) 
0

>  <PUBCHEM_ATOM_UDEF_STEREO_COUNT>  (1) 
0

>  <PUBCHEM_BOND_DEF_STEREO_COUNT>  (1) 
0

>  <PUBCHEM_BOND_UDEF_STEREO_COUNT>  (1) 
0

>  <PUBCHEM_ISOTOPIC_ATOM_COUNT>  (1) 
0

>  <PUBCHEM_COMPONENT_COUNT>  (1) 
1

>  <PUBCHEM_CACTVS_TAUTO_COUNT>  (1) 
1

>  <PUBCHEM_CONFORMER_ID>  (1) 
0000287D00000001

>  <PUBCHEM_MMFF94_ENERGY>  (1) 
33.3128

>  <PUBCHEM_FEATURE_SELFOVERLAP>  (1) 
40.728

>  <PUBCHEM_SHAPE_FINGERPRINT>  (1) 
10130415 120 18409166597710134753
10857977 72 18340756100836993528
14128692 85 18410296951192186045
16945 1 18410573985172784005
17990270 104 18264767847208490779
20201158 50 18408321103022097955
20281407 28 18411984654369931098
20645477 70 18120928667112486583
20711985 365 18193274083465620742
20871998 184 18129941161396531436
20871998 22 18342468027382660366
21501925 9 18268137833146720995
23463225 33 18411140207875285334
23552423 10 18262521523462348589
23559900 14 18267859494203057042
2748010 2 18266173010183938549
3312278 4 18409452500476374091
7364860 26 18125721429006232153

>  <PUBCHEM_SHAPE_MULTIPOLES>  (1) 
218.5
4.82
1.91
0.58
0.14
0.27
0
-1.87
0
-0.03
0
-0.01
0.02
0

>  <PUBCHEM_SHAPE_SELFOVERLAP>  (1) 
464.573

>  <PUBCHEM_SHAPE_VOLUME>  (1) 
120.5

>  <PUBCHEM_COORDINATE_TYPE>  (1) 
2
5
10

$$$$
