10366
     RDKit          3D

 12 12  0  0  0  0  0  0  0  0999 V2000
   -3.5392    0.2162    0.0001 O   0  0  0  0  0  0  0  0  0  0  0  0
    3.5390    0.2164   -0.0009 O   0  0  0  0  0  0  0  0  0  0  0  0
   -2.6193   -1.8624   -0.0005 O   0  0  0  0  0  0  0  0  0  0  0  0
    2.6195   -1.8624   -0.0006 O   0  0  0  0  0  0  0  0  0  0  0  0
    0.0000    2.1627   -0.0005 N   0  0  0  0  0  0  0  0  0  0  0  0
   -1.2027    0.0654    0.0003 C   0  0  0  0  0  0  0  0  0  0  0  0
    1.2025    0.0654    0.0012 C   0  0  0  0  0  0  0  0  0  0  0  0
    0.0000   -0.6326    0.0012 C   0  0  0  0  0  0  0  0  0  0  0  0
   -1.1488    1.4500   -0.0004 C   0  0  0  0  0  0  0  0  0  0  0  0
    1.1488    1.4499    0.0003 C   0  0  0  0  0  0  0  0  0  0  0  0
   -2.4751   -0.6343   -0.0005 C   0  0  0  0  0  0  0  0  0  0  0  0
    2.4752   -0.6343    0.0002 C   0  0  0  0  0  0  0  0  0  0  0  0
  1 11  1  0
  2 12  1  0
  3 11  2  0
  4 12  2  0
  5  9  2  0
  5 10  1  0
  6  8  2  0
  6  9  1  0
  6 11  1  0
  7  8  1  0
  7 10  2  0
  7 12  1  0
M  END
>  <PUBCHEM_COMPOUND_CID>  (1) 
10366

>  <PUBCHEM_CONFORMER_RMSD>  (1) 
0.6

>  <PUBCHEM_CONFORMER_DIVERSEORDER>  (1) 
1
3
2

>  <PUBCHEM_MMFF94_PARTIAL_CHARGES>  (1) 
17
1 -0.65
10 0.16
11 0.63
12 0.63
13 0.15
14 0.15
15 0.15
16 0.5
17 0.5
2 -0.65
3 -0.57
4 -0.57
5 -0.62
6 0.09
7 0.09
8 -0.15
9 0.16

>  <PUBCHEM_EFFECTIVE_ROTOR_COUNT>  (1) 
2

>  <PUBCHEM_PHARMACOPHORE_FEATURES>  (1) 
8
1 1 acceptor
1 2 acceptor
1 3 acceptor
1 4 acceptor
1 5 acceptor
3 1 3 11 anion
3 2 4 12 anion
6 5 6 7 8 9 10 rings

>  <PUBCHEM_HEAVY_ATOM_COUNT>  (1) 
12

>  <PUBCHEM_ATOM_DEF_STEREO_COUNT>  (1) 
0

>  <PUBCHEM_ATOM_UDEF_STEREO_COUNT>  (1) 
0

>  <PUBCHEM_BOND_DEF_STEREO_COUNT>  (1) 
0

>  <PUBCHEM_BOND_UDEF_STEREO_COUNT>  (1) 
0

>  <PUBCHEM_ISOTOPIC_ATOM_COUNT>  (1) 
0

>  <PUBCHEM_COMPONENT_COUNT>  (1) 
1

>  <PUBCHEM_CACTVS_TAUTO_COUNT>  (1) 
1

>  <PUBCHEM_CONFORMER_ID>  (1) 
0000287E00000001

>  <PUBCHEM_MMFF94_ENERGY>  (1) 
35.6001

>  <PUBCHEM_FEATURE_SELFOVERLAP>  (1) 
40.714

>  <PUBCHEM_SHAPE_FINGERPRINT>  (1) 
10130415 120 18408885126996716889
10857977 72 18340756100842268280
14128692 85 18410296955476590845
16945 1 18410855460128382661
17990270 104 18264486372226505371
20201158 50 18408039632329811594
20281407 28 18412266133668002298
20645477 70 18120928667112486591
20711985 365 18192992608499479086
20871998 184 18129941165696773494
20871998 22 18342468027403759374
21501925 9 18268137833136171491
23463225 33 18411140212175546870
23552423 10 18262521527752028165
23559900 14 18267859498497998362
2748010 2 18338792424519858613
3312278 4 18409171025510225930
7364860 26 18126002908272615865

>  <PUBCHEM_SHAPE_MULTIPOLES>  (1) 
218.5
4.86
1.89
0.58
0
0.24
0
-1.86
0
0
0
0
0.01
0

>  <PUBCHEM_SHAPE_SELFOVERLAP>  (1) 
464.692

>  <PUBCHEM_SHAPE_VOLUME>  (1) 
120.8

>  <PUBCHEM_COORDINATE_TYPE>  (1) 
2
5
10

$$$$
