10361
     RDKit          3D

 11 11  0  0  0  0  0  0  0  0999 V2000
   -2.7759    2.1996   -0.0001 I   0  0  0  0  0  0  0  0  0  0  0  0
   -3.0742   -0.9957    0.0000 F   0  0  0  0  0  0  0  0  0  0  0  0
    3.1506   -0.8176    0.0004 O   0  0  0  0  0  0  0  0  0  0  0  0
    2.8314    1.4330   -0.0002 O   0  0  0  0  0  0  0  0  0  0  0  0
    0.9434   -0.0365    0.0001 C   0  0  0  0  0  0  0  0  0  0  0  0
   -0.0089    0.9828    0.0003 C   0  0  0  0  0  0  0  0  0  0  0  0
    0.5369   -1.3708   -0.0002 C   0  0  0  0  0  0  0  0  0  0  0  0
   -1.3678    0.6675    0.0002 C   0  0  0  0  0  0  0  0  0  0  0  0
   -0.8218   -1.6861   -0.0002 C   0  0  0  0  0  0  0  0  0  0  0  0
   -1.7741   -0.6670    0.0000 C   0  0  0  0  0  0  0  0  0  0  0  0
    2.3602    0.2909   -0.0004 C   0  0  0  0  0  0  0  0  0  0  0  0
  1  8  1  0
  2 10  1  0
  3 11  1  0
  4 11  2  0
  5  6  2  0
  5  7  1  0
  5 11  1  0
  6  8  1  0
  7  9  2  0
  8 10  2  0
  9 10  1  0
M  END
>  <PUBCHEM_COMPOUND_CID>  (1) 
10361

>  <PUBCHEM_CONFORMER_RMSD>  (1) 
0.4

>  <PUBCHEM_CONFORMER_DIVERSEORDER>  (1) 
1
2

>  <PUBCHEM_MMFF94_PARTIAL_CHARGES>  (1) 
15
1 -0.08
10 0.19
11 0.63
12 0.15
13 0.15
14 0.15
15 0.5
2 -0.19
3 -0.65
4 -0.57
5 0.09
6 -0.15
7 -0.15
8 0.08
9 -0.15

>  <PUBCHEM_EFFECTIVE_ROTOR_COUNT>  (1) 
1

>  <PUBCHEM_PHARMACOPHORE_FEATURES>  (1) 
5
1 1 hydrophobe
1 3 acceptor
1 4 acceptor
3 3 4 11 anion
6 5 6 7 8 9 10 rings

>  <PUBCHEM_HEAVY_ATOM_COUNT>  (1) 
11

>  <PUBCHEM_ATOM_DEF_STEREO_COUNT>  (1) 
0

>  <PUBCHEM_ATOM_UDEF_STEREO_COUNT>  (1) 
0

>  <PUBCHEM_BOND_DEF_STEREO_COUNT>  (1) 
0

>  <PUBCHEM_BOND_UDEF_STEREO_COUNT>  (1) 
0

>  <PUBCHEM_ISOTOPIC_ATOM_COUNT>  (1) 
0

>  <PUBCHEM_COMPONENT_COUNT>  (1) 
1

>  <PUBCHEM_CACTVS_TAUTO_COUNT>  (1) 
1

>  <PUBCHEM_CONFORMER_ID>  (1) 
0000287900000001

>  <PUBCHEM_MMFF94_ENERGY>  (1) 
26.3547

>  <PUBCHEM_FEATURE_SELFOVERLAP>  (1) 
25.429

>  <PUBCHEM_SHAPE_FINGERPRINT>  (1) 
10608611 8 18413105074041318520
11206711 2 18411979182887687789
12932764 1 17561078154874236324
13380535 21 18267033747515788279
13380535 76 18267299820797804263
14325111 11 18410575076184147968
14897335 6 18267016155414354261
15775835 57 18261398780330224612
16945 1 18266459986797412487
19973954 147 18410576210203304652
20510252 161 18342740749332112049
20653085 51 18337119981360747480
20871998 184 18128542746031457631
21040471 1 18338516343890033925
21501502 16 18409728422060273479
21524375 3 18266456503958957941
23402539 116 18341882043862470231
23402655 69 18053366722981215221
23552423 10 18333450950014361742
23559900 14 18200315412846063830
241688 4 17979911945367761011
2748010 2 18411705344035593173
369184 2 18342457083874399362
5084963 1 18272933829741801154
528886 8 18266734688663555465
6333449 129 18411416177078676733

>  <PUBCHEM_SHAPE_MULTIPOLES>  (1) 
219.3
4.74
2.11
0.62
0.5
0.01
0
-2.04
0
-0.98
0
-0.12
-0.06
0

>  <PUBCHEM_SHAPE_SELFOVERLAP>  (1) 
441.619

>  <PUBCHEM_SHAPE_VOLUME>  (1) 
132.2

>  <PUBCHEM_COORDINATE_TYPE>  (1) 
2
5
10

$$$$
