10375
     RDKit          3D

 19 20  0  0  0  0  0  0  0  0999 V2000
    2.0688   -1.1420    0.1053 O   0  0  0  0  0  0  0  0  0  0  0  0
   -6.0930    0.6172    0.0329 O   0  0  0  0  0  0  0  0  0  0  0  0
    5.0483    1.7286   -0.1892 O   0  0  0  0  0  0  0  0  0  0  0  0
    3.6418   -2.7793    0.2187 O   0  0  0  0  0  0  0  0  0  0  0  0
   -2.0288   -0.1261    0.0609 C   0  0  0  0  0  0  0  0  0  0  0  0
   -0.5797   -0.3919    0.0702 C   0  0  0  0  0  0  0  0  0  0  0  0
    1.7789    0.2378   -0.0077 C   0  0  0  0  0  0  0  0  0  0  0  0
   -2.4891    1.1412    0.3791 C   0  0  0  0  0  0  0  0  0  0  0  0
   -2.9034   -1.1497   -0.2664 C   0  0  0  0  0  0  0  0  0  0  0  0
    0.3778    0.5456   -0.0112 C   0  0  0  0  0  0  0  0  0  0  0  0
   -4.7546    0.3719    0.0422 C   0  0  0  0  0  0  0  0  0  0  0  0
   -3.8612    1.3919    0.3698 C   0  0  0  0  0  0  0  0  0  0  0  0
   -4.2756   -0.8990   -0.2759 C   0  0  0  0  0  0  0  0  0  0  0  0
    2.7475    1.1568   -0.1015 C   0  0  0  0  0  0  0  0  0  0  0  0
    4.1151    0.7241   -0.0877 C   0  0  0  0  0  0  0  0  0  0  0  0
    4.4306   -0.5716    0.0170 C   0  0  0  0  0  0  0  0  0  0  0  0
    3.3638   -1.5884    0.1218 C   0  0  0  0  0  0  0  0  0  0  0  0
   -6.9503   -0.4704   -0.3110 C   0  0  0  0  0  0  0  0  0  0  0  0
    6.3630    1.2032   -0.1673 C   0  0  0  0  0  0  0  0  0  0  0  0
  1  7  1  0
  1 17  1  0
  2 11  1  0
  2 18  1  0
  3 15  1  0
  3 19  1  0
  4 17  2  0
  5  6  1  0
  5  8  2  0
  5  9  1  0
  6 10  2  0
  7 10  1  0
  7 14  2  0
  8 12  1  0
  9 13  2  0
 11 12  2  0
 11 13  1  0
 14 15  1  0
 15 16  2  0
 16 17  1  0
M  END
>  <PUBCHEM_COMPOUND_CID>  (1) 
10375

>  <PUBCHEM_CONFORMER_RMSD>  (1) 
0.6

>  <PUBCHEM_CONFORMER_DIVERSEORDER>  (1) 
1
10
9
6
8
5
3
2
7
4

>  <PUBCHEM_MMFF94_PARTIAL_CHARGES>  (1) 
27
1 -0.23
10 -0.15
11 0.08
12 -0.15
13 -0.15
14 -0.15
15 0.08
16 -0.14
17 0.71
18 0.28
19 0.28
2 -0.36
20 0.15
21 0.15
22 0.15
23 0.15
24 0.15
25 0.15
26 0.15
27 0.15
3 -0.36
4 -0.57
5 0.03
6 -0.18
7 0.08
8 -0.15
9 -0.15

>  <PUBCHEM_EFFECTIVE_ROTOR_COUNT>  (1) 
4

>  <PUBCHEM_PHARMACOPHORE_FEATURES>  (1) 
5
1 2 acceptor
1 3 acceptor
1 4 acceptor
6 1 7 14 15 16 17 rings
6 5 8 9 11 12 13 rings

>  <PUBCHEM_HEAVY_ATOM_COUNT>  (1) 
19

>  <PUBCHEM_ATOM_DEF_STEREO_COUNT>  (1) 
0

>  <PUBCHEM_ATOM_UDEF_STEREO_COUNT>  (1) 
0

>  <PUBCHEM_BOND_DEF_STEREO_COUNT>  (1) 
0

>  <PUBCHEM_BOND_UDEF_STEREO_COUNT>  (1) 
1

>  <PUBCHEM_ISOTOPIC_ATOM_COUNT>  (1) 
0

>  <PUBCHEM_COMPONENT_COUNT>  (1) 
1

>  <PUBCHEM_CACTVS_TAUTO_COUNT>  (1) 
1

>  <PUBCHEM_CONFORMER_ID>  (1) 
0000288700000001

>  <PUBCHEM_MMFF94_ENERGY>  (1) 
69.7514

>  <PUBCHEM_FEATURE_SELFOVERLAP>  (1) 
25.373

>  <PUBCHEM_SHAPE_FINGERPRINT>  (1) 
10411042 1 18049159970277119506
10595046 47 18413107260290032705
10912923 1 18130791118555757611
10968037 39 18412825811547362525
12107183 9 17692254036489873337
12236239 1 18411699868527264633
12788726 201 17417820499905429633
13073987 5 18411421670410355321
13167823 11 18413106134845395607
13533116 47 18342173336844470403
13760787 19 18272931648067375790
14251732 16 18410576227646729603
14251764 18 18411980264855267321
14341114 176 18410581673406694095
14461889 52 18261673791254626554
14528608 73 18413109493889415044
15196674 1 18339080393719203337
15242433 33 18413107264390022567
15250474 111 18271509966553606847
17834072 33 18413106164741043358
17844677 252 18338241453167071669
1813 80 17022908921299639700
18335252 98 18334863861633220259
19427546 62 18261395619745835266
200 152 18202280299753132137
20645477 70 18339924814365229454
21065198 48 18342742870945612369
21150785 3 16128656383624239680
21267235 1 18341057328146979526
220451 1 17989487433531579935
22224240 67 18261387897552983712
23081809 10 18060134311359380857
23402539 116 18202557368378409373
23402655 69 18341894108404381942
23536379 177 18410855443623474065
23559900 14 18341325708037540817
239999 70 18272376339430791846
29717793 49 17918279723163440238
300161 21 18408880750161252509
3004659 81 18410857616682136586
335352 9 18409453584053156366
33824 294 18333731300073780866
34797466 226 17489595592628172740
3545911 37 18410012156242737229
4073 2 18041285455795602146
4214541 1 18339924822923314033
42630746 31 18410856551946783734
4325135 7 18412262852202361412
474 4 18041284365316812164
5104073 3 18410014295157368697
542803 24 17418096511762931817
59755656 215 18408327679260346726
6025842 7 18411700968076341982
67856867 119 18265052612114930221
77779 3 18410857637771584915
8272917 22 18411703162725327110
90127 26 17968385524345002649
9971528 1 17894635829319799460

>  <PUBCHEM_SHAPE_MULTIPOLES>  (1) 
367.53
16.25
1.79
0.63
6.46
0.73
0
-2.29
-1.16
-2.01
0.1
0.09
-0.01
-0.67

>  <PUBCHEM_SHAPE_SELFOVERLAP>  (1) 
783.426

>  <PUBCHEM_SHAPE_VOLUME>  (1) 
204.6

>  <PUBCHEM_COORDINATE_TYPE>  (1) 
2
5
10

$$$$
