10379
     RDKit          3D

 15 16  0  0  0  0  0  0  0  0999 V2000
   -4.6958    1.2331    0.0001 O   0  0  0  0  0  0  0  0  0  0  0  0
    4.5141    1.5035   -0.0007 O   0  0  0  0  0  0  0  0  0  0  0  0
    0.0870   -1.5810    0.0004 N   0  0  0  0  0  0  0  0  0  0  0  0
   -1.1231   -0.8706   -0.0001 C   0  0  0  0  0  0  0  0  0  0  0  0
    1.1604   -0.8566    0.0003 C   0  0  0  0  0  0  0  0  0  0  0  0
   -1.7205   -0.5203   -1.2080 C   0  0  0  0  0  0  0  0  0  0  0  0
   -1.7192   -0.5181    1.2080 C   0  0  0  0  0  0  0  0  0  0  0  0
    1.0652    0.6224   -0.0008 C   0  0  0  0  0  0  0  0  0  0  0  0
    2.5189   -1.4442    0.0008 C   0  0  0  0  0  0  0  0  0  0  0  0
   -2.9223    0.1877   -1.2080 C   0  0  0  0  0  0  0  0  0  0  0  0
   -2.9211    0.1898    1.2081 C   0  0  0  0  0  0  0  0  0  0  0  0
   -3.5228    0.5427    0.0001 C   0  0  0  0  0  0  0  0  0  0  0  0
    2.1577    1.3890   -0.0011 C   0  0  0  0  0  0  0  0  0  0  0  0
    3.6100   -0.6755    0.0007 C   0  0  0  0  0  0  0  0  0  0  0  0
    3.5114    0.7982    0.0000 C   0  0  0  0  0  0  0  0  0  0  0  0
  1 12  1  0
  2 15  2  0
  3  4  1  0
  3  5  2  3
  4  6  2  0
  4  7  1  0
  5  8  1  0
  5  9  1  0
  6 10  1  0
  7 11  2  0
  8 13  2  0
  9 14  2  0
 10 12  2  0
 11 12  1  0
 13 15  1  0
 14 15  1  0
M  END
>  <PUBCHEM_COMPOUND_CID>  (1) 
10379

>  <PUBCHEM_CONFORMER_RMSD>  (1) 
0.4

>  <PUBCHEM_CONFORMER_DIVERSEORDER>  (1) 
1

>  <PUBCHEM_MMFF94_PARTIAL_CHARGES>  (1) 
24
1 -0.53
10 -0.15
11 -0.15
12 0.08
13 -0.14
14 -0.14
15 0.54
16 0.15
17 0.15
18 0.15
19 0.15
2 -0.57
20 0.15
21 0.15
22 0.15
23 0.15
24 0.45
3 -0.63
4 0.18
5 0.42
6 -0.15
7 -0.15
8 -0.14
9 -0.14

>  <PUBCHEM_EFFECTIVE_ROTOR_COUNT>  (1) 
1

>  <PUBCHEM_PHARMACOPHORE_FEATURES>  (1) 
5
1 1 donor
1 2 acceptor
1 3 acceptor
6 4 6 7 10 11 12 rings
6 5 8 9 13 14 15 rings

>  <PUBCHEM_HEAVY_ATOM_COUNT>  (1) 
15

>  <PUBCHEM_ATOM_DEF_STEREO_COUNT>  (1) 
0

>  <PUBCHEM_ATOM_UDEF_STEREO_COUNT>  (1) 
0

>  <PUBCHEM_BOND_DEF_STEREO_COUNT>  (1) 
0

>  <PUBCHEM_BOND_UDEF_STEREO_COUNT>  (1) 
0

>  <PUBCHEM_ISOTOPIC_ATOM_COUNT>  (1) 
0

>  <PUBCHEM_COMPONENT_COUNT>  (1) 
1

>  <PUBCHEM_CACTVS_TAUTO_COUNT>  (1) 
2

>  <PUBCHEM_CONFORMER_ID>  (1) 
0000288B00000001

>  <PUBCHEM_MMFF94_ENERGY>  (1) 
45.7043

>  <PUBCHEM_FEATURE_SELFOVERLAP>  (1) 
25.371

>  <PUBCHEM_SHAPE_FINGERPRINT>  (1) 
10465860 71 15554447422275210642
11132069 177 16877664552468380503
11471102 20 18410855443391423822
11543360 7 15482390966925991704
12236239 1 17775563109193004495
12251169 10 15791733018244399895
13214271 11 18261113006344204927
13581323 91 14923944539700809715
13705890 14 11743840257456363218
14144814 61 18343585152866320602
14897335 6 18343018921531634690
14993402 34 17203609285058447188
15219456 202 18113621183293684674
15342168 16 18261681470671995173
15653759 3 17095244721817694081
15775835 57 18273495680262826357
17844478 74 17676490531566480749
1813 80 17626958478224927374
18186145 218 18410576175943754246
19049666 15 17387402437561070023
200 152 18271521005120048031
20112054 13 18260548934982404156
20279233 1 17748543753417514850
20645464 45 17603303769478697331
20645476 183 17561074826564830407
20645477 70 18340205202783818590
20871999 31 16558738062390126109
22854114 59 18040719164636718091
22926399 37 18273777146908117345
231179 274 18261108573869448668
23402539 116 15051450457982951329
23402655 69 18130787845442797356
23559900 14 16588587483401607746
25 1 18409445886474735958
27216 239 18041562571527914185
2838139 119 18121207685468351909
474 4 18411136965307034032
5104073 3 18408040723277775490
74978 22 18130504248957788842
76465 3 11095899128981731620
77492 1 17703788089611844391
83771 10 9151174255327055471
90316 7 14129052578573010503

>  <PUBCHEM_SHAPE_MULTIPOLES>  (1) 
291.97
8.06
1.48
1.01
0.33
0.02
0
3.37
0
1
0
-0.95
-0.07
0

>  <PUBCHEM_SHAPE_SELFOVERLAP>  (1) 
632.398

>  <PUBCHEM_SHAPE_VOLUME>  (1) 
159.9

>  <PUBCHEM_COORDINATE_TYPE>  (1) 
2
5
10

$$$$
