10371
     RDKit          3D

  8  8  0  0  0  0  0  0  0  0999 V2000
   -2.8327   -0.4067   -0.0002 O   0  0  0  0  0  0  0  0  0  0  0  0
    1.2612   -1.3410    0.0000 N   0  0  0  0  0  0  0  0  0  0  0  0
   -0.5595    0.2497    0.0001 C   0  0  0  0  0  0  0  0  0  0  0  0
    0.3498    1.3016    0.0000 C   0  0  0  0  0  0  0  0  0  0  0  0
   -0.0573   -1.0417    0.0001 C   0  0  0  0  0  0  0  0  0  0  0  0
    1.7143    1.0338   -0.0001 C   0  0  0  0  0  0  0  0  0  0  0  0
    2.1148   -0.2927    0.0000 C   0  0  0  0  0  0  0  0  0  0  0  0
   -1.9908    0.4970    0.0002 C   0  0  0  0  0  0  0  0  0  0  0  0
  1  8  2  0
  2  5  2  0
  2  7  1  0
  3  4  2  0
  3  5  1  0
  3  8  1  0
  4  6  1  0
  6  7  2  0
M  END
>  <PUBCHEM_COMPOUND_CID>  (1) 
10371

>  <PUBCHEM_CONFORMER_RMSD>  (1) 
0.4

>  <PUBCHEM_CONFORMER_DIVERSEORDER>  (1) 
1
2

>  <PUBCHEM_MMFF94_PARTIAL_CHARGES>  (1) 
13
1 -0.57
10 0.15
11 0.15
12 0.15
13 0.06
2 -0.62
3 0.09
4 -0.15
5 0.16
6 -0.15
7 0.16
8 0.42
9 0.15

>  <PUBCHEM_EFFECTIVE_ROTOR_COUNT>  (1) 
1

>  <PUBCHEM_PHARMACOPHORE_FEATURES>  (1) 
3
1 1 acceptor
1 2 acceptor
6 2 3 4 5 6 7 rings

>  <PUBCHEM_HEAVY_ATOM_COUNT>  (1) 
8

>  <PUBCHEM_ATOM_DEF_STEREO_COUNT>  (1) 
0

>  <PUBCHEM_ATOM_UDEF_STEREO_COUNT>  (1) 
0

>  <PUBCHEM_BOND_DEF_STEREO_COUNT>  (1) 
0

>  <PUBCHEM_BOND_UDEF_STEREO_COUNT>  (1) 
0

>  <PUBCHEM_ISOTOPIC_ATOM_COUNT>  (1) 
0

>  <PUBCHEM_COMPONENT_COUNT>  (1) 
1

>  <PUBCHEM_CACTVS_TAUTO_COUNT>  (1) 
1

>  <PUBCHEM_CONFORMER_ID>  (1) 
0000288300000001

>  <PUBCHEM_MMFF94_ENERGY>  (1) 
18.425

>  <PUBCHEM_FEATURE_SELFOVERLAP>  (1) 
15.223

>  <PUBCHEM_SHAPE_FINGERPRINT>  (1) 
18185500 45 18342172232937265063
20096714 4 18339642342728836900
21040471 1 18266459999909226144
23552423 10 18117004281888349830
29004967 10 18335704918432921889
5084963 1 18413108363796077377

>  <PUBCHEM_SHAPE_MULTIPOLES>  (1) 
153.79
3.1
1.36
0.59
1.55
0.02
0
0.12
0
-0.43
0
-0.02
-0.02
0

>  <PUBCHEM_SHAPE_SELFOVERLAP>  (1) 
318.957

>  <PUBCHEM_SHAPE_VOLUME>  (1) 
86.8

>  <PUBCHEM_COORDINATE_TYPE>  (1) 
2
5
10

$$$$
