10382
     RDKit          3D

 11 11  0  0  0  0  0  0  0  0999 V2000
    3.9130    0.7533    1.0351 S   0  0  0  0  0  0  0  0  0  0  0  0
    1.7730   -1.5813   -0.1249 O   0  0  0  0  0  0  0  0  0  0  0  0
    0.7981    0.5520   -0.3252 N   0  0  0  0  0  0  0  0  0  0  0  0
   -0.5625    0.3067   -0.1378 C   0  0  0  0  0  0  0  0  0  0  0  0
   -1.4739    1.3617   -0.1805 C   0  0  0  0  0  0  0  0  0  0  0  0
   -1.0115   -0.9939    0.0911 C   0  0  0  0  0  0  0  0  0  0  0  0
    1.8541   -0.3708   -0.3171 C   0  0  0  0  0  0  0  0  0  0  0  0
   -2.8344    1.1162    0.0059 C   0  0  0  0  0  0  0  0  0  0  0  0
   -2.3719   -1.2395    0.2773 C   0  0  0  0  0  0  0  0  0  0  0  0
   -3.2833   -0.1844    0.2347 C   0  0  0  0  0  0  0  0  0  0  0  0
    3.1993    0.2800   -0.5587 C   0  0  0  0  0  0  0  0  0  0  0  0
  1 11  1  0
  2  7  2  0
  3  4  1  0
  3  7  1  0
  4  5  2  0
  4  6  1  0
  5  8  1  0
  6  9  2  0
  7 11  1  0
  8 10  2  0
  9 10  1  0
M  END
>  <PUBCHEM_COMPOUND_CID>  (1) 
10382

>  <PUBCHEM_CONFORMER_RMSD>  (1) 
0.6

>  <PUBCHEM_CONFORMER_DIVERSEORDER>  (1) 
1
3
4
2

>  <PUBCHEM_MMFF94_PARTIAL_CHARGES>  (1) 
18
1 -0.41
10 -0.15
11 0.29
12 0.37
13 0.15
14 0.15
15 0.15
16 0.15
17 0.15
2 -0.57
20 0.18
3 -0.55
4 0.12
5 -0.15
6 -0.15
7 0.57
8 -0.15
9 -0.15

>  <PUBCHEM_EFFECTIVE_ROTOR_COUNT>  (1) 
3

>  <PUBCHEM_PHARMACOPHORE_FEATURES>  (1) 
3
1 2 acceptor
1 3 donor
6 4 5 6 8 9 10 rings

>  <PUBCHEM_HEAVY_ATOM_COUNT>  (1) 
11

>  <PUBCHEM_ATOM_DEF_STEREO_COUNT>  (1) 
0

>  <PUBCHEM_ATOM_UDEF_STEREO_COUNT>  (1) 
0

>  <PUBCHEM_BOND_DEF_STEREO_COUNT>  (1) 
0

>  <PUBCHEM_BOND_UDEF_STEREO_COUNT>  (1) 
0

>  <PUBCHEM_ISOTOPIC_ATOM_COUNT>  (1) 
0

>  <PUBCHEM_COMPONENT_COUNT>  (1) 
1

>  <PUBCHEM_CACTVS_TAUTO_COUNT>  (1) 
2

>  <PUBCHEM_CONFORMER_ID>  (1) 
0000288E00000001

>  <PUBCHEM_MMFF94_ENERGY>  (1) 
29.3514

>  <PUBCHEM_FEATURE_SELFOVERLAP>  (1) 
15.223

>  <PUBCHEM_SHAPE_FINGERPRINT>  (1) 
10608611 8 18341048532238684040
10857977 72 18410009970077899448
11132069 177 18409448102493205396
12932764 1 17918272047661321126
13024252 1 14779267518890465701
14144814 61 18335704918411803280
14325111 11 18337394837924678269
15219456 202 18272089366383823230
16945 1 18335710463504635359
20201158 50 18411702092697942163
20279233 1 18413670205610863631
20528008 55 18341889692898420213
20645464 45 18201718461515738969
20871998 184 18272097144722986639
23402539 116 18411691115515888471
23552423 10 18113909259877819855
23559900 14 18339643343983770246
2748010 2 18264214608134044823
3248919 1 17676496050625901102
369184 2 18272371936629837903
53812653 166 18343579659671766464
6333449 129 18412260649068572773
7364860 26 18198340654964958294

>  <PUBCHEM_SHAPE_MULTIPOLES>  (1) 
219.37
6.48
1.42
0.79
3.74
0.13
-0.1
-1.01
-1.25
-0.47
-0.03
0.51
-0.07
0.42

>  <PUBCHEM_SHAPE_SELFOVERLAP>  (1) 
437.628

>  <PUBCHEM_SHAPE_VOLUME>  (1) 
130.3

>  <PUBCHEM_COORDINATE_TYPE>  (1) 
2
5
10

$$$$
