10386
     RDKit          3D

 13 13  0  0  0  0  0  0  0  0999 V2000
    3.6283   -1.8776    0.1270 O   0  0  0  0  0  0  0  0  0  0  0  0
   -3.0763   -0.1380    0.1274 N   0  0  0  0  0  0  0  0  0  0  0  0
   -1.6259    0.0263    0.5578 C   0  0  0  0  0  0  0  0  0  0  0  0
   -0.7279    0.1910   -0.6636 C   0  0  0  0  0  0  0  0  0  0  0  0
   -3.9561   -0.2977    1.3590 C   0  0  0  0  0  0  0  0  0  0  0  0
   -3.5159    1.0920   -0.6540 C   0  0  0  0  0  0  0  0  0  0  0  0
   -3.2077   -1.3722   -0.7533 C   0  0  0  0  0  0  0  0  0  0  0  0
    0.7387    0.2979   -0.3259 C   0  0  0  0  0  0  0  0  0  0  0  0
    1.5066   -0.8541   -0.2571 C   0  0  0  0  0  0  0  0  0  0  0  0
    1.2925    1.5466   -0.0901 C   0  0  0  0  0  0  0  0  0  0  0  0
    2.8623   -0.7550    0.0554 C   0  0  0  0  0  0  0  0  0  0  0  0
    2.6483    1.6458    0.2223 C   0  0  0  0  0  0  0  0  0  0  0  0
    3.4332    0.4950    0.2950 C   0  0  0  0  0  0  0  0  0  0  0  0
  1 11  1  0
  2  3  1  0
  2  5  1  0
  2  6  1  0
  2  7  1  0
  3  4  1  0
  4  8  1  0
  8  9  2  0
  8 10  1  0
  9 11  1  0
 10 12  2  0
 11 13  2  0
 12 13  1  0
M  CHG  1   2   1
M  END
>  <PUBCHEM_COMPOUND_CID>  (1) 
10386

>  <PUBCHEM_CONFORMER_RMSD>  (1) 
0.6

>  <PUBCHEM_CONFORMER_DIVERSEORDER>  (1) 
2
1
3

>  <PUBCHEM_MMFF94_PARTIAL_CHARGES>  (1) 
18
1 -0.53
10 -0.15
11 0.08
12 -0.15
13 -0.15
2 -1.01
27 0.15
28 0.15
29 0.15
3 0.5
30 0.15
31 0.45
4 0.14
5 0.5
6 0.5
7 0.5
8 -0.14
9 -0.15

>  <PUBCHEM_EFFECTIVE_ROTOR_COUNT>  (1) 
3

>  <PUBCHEM_PHARMACOPHORE_FEATURES>  (1) 
3
1 1 donor
1 2 cation
6 8 9 10 11 12 13 rings

>  <PUBCHEM_HEAVY_ATOM_COUNT>  (1) 
13

>  <PUBCHEM_ATOM_DEF_STEREO_COUNT>  (1) 
0

>  <PUBCHEM_ATOM_UDEF_STEREO_COUNT>  (1) 
0

>  <PUBCHEM_BOND_DEF_STEREO_COUNT>  (1) 
0

>  <PUBCHEM_BOND_UDEF_STEREO_COUNT>  (1) 
0

>  <PUBCHEM_ISOTOPIC_ATOM_COUNT>  (1) 
0

>  <PUBCHEM_COMPONENT_COUNT>  (1) 
1

>  <PUBCHEM_CACTVS_TAUTO_COUNT>  (1) 
9

>  <PUBCHEM_CONFORMER_ID>  (1) 
0000289200000002

>  <PUBCHEM_MMFF94_ENERGY>  (1) 
41.5608

>  <PUBCHEM_FEATURE_SELFOVERLAP>  (1) 
15.223

>  <PUBCHEM_SHAPE_FINGERPRINT>  (1) 
10219947 1 18272368655174584110
10608611 8 18335414681892180693
10922523 26 18260546697605208037
10980938 120 18341328989529477308
11471102 20 18411131429352587460
12032990 46 18187369804782363618
12251169 10 18343305876823136175
124424 183 18335134242155211917
12932764 1 18412270561985058373
13296908 3 18186521007760127653
13675066 3 18259707796192896577
14144814 61 18202283619214258213
14251717 144 18410285943317782374
14252887 29 18334576841515659136
14289901 80 18338795718833621249
14325111 11 18411979191208512285
15219456 202 18334289864163881981
15442244 35 18341332171862925312
15501101 241 18335417989222480196
15653759 3 18040157309937068929
18186145 218 18201726162386813045
19026448 4 18113617889280615353
19050596 39 18202566210966933507
19107657 162 17749113330737485323
200 152 18131058360369551893
20279233 1 17821723966175939899
20281407 28 17676771989442397754
20281475 54 18260833712841862478
20645477 70 18339071610189518431
20871998 22 18056483851087878934
22485316 2 18408317770296144886
23402655 69 18411980256239309876
3248919 1 17458345285980543205
42 15 18333737909711502995
57812782 119 18186516631214904777
581208 293 18336540616364009100
77492 1 17632573881116519373

>  <PUBCHEM_SHAPE_MULTIPOLES>  (1) 
256.68
7.78
1.6
0.92
3.01
0.07
0.13
1.12
1.11
-1.05
-0.12
0.87
0.03
0.09

>  <PUBCHEM_SHAPE_SELFOVERLAP>  (1) 
513.055

>  <PUBCHEM_SHAPE_VOLUME>  (1) 
154

>  <PUBCHEM_COORDINATE_TYPE>  (1) 
2
5
10

$$$$
