10403
     RDKit          3D

  9  9  0  0  0  0  0  0  0  0999 V2000
    2.0721    0.1711    1.0507 O   0  0  0  0  0  0  0  0  0  0  0  0
   -1.5442   -0.3398    0.8816 C   0  0  0  0  0  0  0  0  0  0  0  0
   -1.3073   -1.4640   -0.1316 C   0  0  0  0  0  0  0  0  0  0  0  0
   -1.7638    1.0467    0.2709 C   0  0  0  0  0  0  0  0  0  0  0  0
    0.1531   -1.9181   -0.2412 C   0  0  0  0  0  0  0  0  0  0  0  0
   -0.7479    1.5217   -0.7682 C   0  0  0  0  0  0  0  0  0  0  0  0
    1.1070   -0.9005   -0.8541 C   0  0  0  0  0  0  0  0  0  0  0  0
    0.6909    1.6048   -0.2723 C   0  0  0  0  0  0  0  0  0  0  0  0
    1.3400    0.2782    0.0642 C   0  0  0  0  0  0  0  0  0  0  0  0
  1  9  2  0
  2  3  1  0
  2  4  1  0
  3  5  1  0
  4  6  1  0
  5  7  1  0
  6  8  1  0
  7  9  1  0
  8  9  1  0
M  END
>  <PUBCHEM_COMPOUND_CID>  (1) 
10403

>  <PUBCHEM_CONFORMER_RMSD>  (1) 
0.4

>  <PUBCHEM_CONFORMER_DIVERSEORDER>  (1) 
1
8
6
9
7
2
4
5
3

>  <PUBCHEM_MMFF94_PARTIAL_CHARGES>  (1) 
4
1 -0.57
7 0.06
8 0.06
9 0.45

>  <PUBCHEM_EFFECTIVE_ROTOR_COUNT>  (1) 
1.4

>  <PUBCHEM_PHARMACOPHORE_FEATURES>  (1) 
1
1 1 acceptor

>  <PUBCHEM_HEAVY_ATOM_COUNT>  (1) 
9

>  <PUBCHEM_ATOM_DEF_STEREO_COUNT>  (1) 
0

>  <PUBCHEM_ATOM_UDEF_STEREO_COUNT>  (1) 
0

>  <PUBCHEM_BOND_DEF_STEREO_COUNT>  (1) 
0

>  <PUBCHEM_BOND_UDEF_STEREO_COUNT>  (1) 
0

>  <PUBCHEM_ISOTOPIC_ATOM_COUNT>  (1) 
0

>  <PUBCHEM_COMPONENT_COUNT>  (1) 
1

>  <PUBCHEM_CACTVS_TAUTO_COUNT>  (1) 
2

>  <PUBCHEM_CONFORMER_ID>  (1) 
000028A300000001

>  <PUBCHEM_MMFF94_ENERGY>  (1) 
11.718

>  <PUBCHEM_FEATURE_SELFOVERLAP>  (1) 
5.074

>  <PUBCHEM_SHAPE_FINGERPRINT>  (1) 
12423570 1 15301993672933302054
16945 1 18270686500989122835
18185500 45 17186159210897144047
20653085 51 13901341663313411312
21040471 1 18338804390203663293
21922407 69 15575866999758714469
241688 4 18339094699970481739
2748010 2 18194128408448428887
5084963 1 18058745708971088158
54338 74 18047446083843893498
66348 1 17978239253021327607

>  <PUBCHEM_SHAPE_MULTIPOLES>  (1) 
179.35
2.25
2.08
0.96
0.01
0.27
0.07
-0.18
0.51
0.24
-0.4
-0.14
-0.04
0.24

>  <PUBCHEM_SHAPE_SELFOVERLAP>  (1) 
343.186

>  <PUBCHEM_SHAPE_VOLUME>  (1) 
108

>  <PUBCHEM_COORDINATE_TYPE>  (1) 
2
5
10

$$$$
