10414
     RDKit          3D

 10  9  0  0  0  0  0  0  0  0999 V2000
    4.2055    0.1809   -0.1289 Cl  0  0  0  0  0  0  0  0  0  0  0  0
   -4.2070   -0.1683    0.1305 Cl  0  0  0  0  0  0  0  0  0  0  0  0
    0.4238    0.3728    0.2586 N   0  0  0  0  0  0  0  0  0  0  0  0
   -0.4265   -0.3816   -0.2596 N   0  0  0  0  0  0  0  0  0  0  0  0
    1.9323   -1.4824    0.0662 N   0  0  0  0  0  0  0  0  0  0  0  0
   -1.9223    1.4805   -0.0687 N   0  0  0  0  0  0  0  0  0  0  0  0
    2.6035    0.8295    0.0463 N   0  0  0  0  0  0  0  0  0  0  0  0
   -2.6091   -0.8277   -0.0445 N   0  0  0  0  0  0  0  0  0  0  0  0
    1.7108   -0.1183    0.1093 C   0  0  0  0  0  0  0  0  0  0  0  0
   -1.7109    0.1147   -0.1093 C   0  0  0  0  0  0  0  0  0  0  0  0
  1  7  1  0
  2  8  1  0
  3  4  2  0
  3  9  1  0
  4 10  1  0
  5  9  1  0
  6 10  1  0
  7  9  2  0
  8 10  2  0
M  END
>  <PUBCHEM_COMPOUND_CID>  (1) 
10414

>  <PUBCHEM_CONFORMER_RMSD>  (1) 
0.4

>  <PUBCHEM_CONFORMER_DIVERSEORDER>  (1) 
1
2
3
5
6
4

>  <PUBCHEM_MMFF94_PARTIAL_CHARGES>  (1) 
12
10 0.71
11 0.4
12 0.4
13 0.4
14 0.4
3 -0.21
4 -0.21
5 -0.85
6 -0.85
7 -0.45
8 -0.45
9 0.71

>  <PUBCHEM_EFFECTIVE_ROTOR_COUNT>  (1) 
2

>  <PUBCHEM_PHARMACOPHORE_FEATURES>  (1) 
4
1 5 donor
1 6 donor
4 3 5 7 9 cation
4 4 6 8 10 cation

>  <PUBCHEM_HEAVY_ATOM_COUNT>  (1) 
10

>  <PUBCHEM_ATOM_DEF_STEREO_COUNT>  (1) 
0

>  <PUBCHEM_ATOM_UDEF_STEREO_COUNT>  (1) 
0

>  <PUBCHEM_BOND_DEF_STEREO_COUNT>  (1) 
0

>  <PUBCHEM_BOND_UDEF_STEREO_COUNT>  (1) 
3

>  <PUBCHEM_ISOTOPIC_ATOM_COUNT>  (1) 
0

>  <PUBCHEM_COMPONENT_COUNT>  (1) 
1

>  <PUBCHEM_CACTVS_TAUTO_COUNT>  (1) 
3

>  <PUBCHEM_CONFORMER_ID>  (1) 
000028AE00000001

>  <PUBCHEM_MMFF94_ENERGY>  (1) 
30.814

>  <PUBCHEM_FEATURE_SELFOVERLAP>  (1) 
20.297

>  <PUBCHEM_SHAPE_FINGERPRINT>  (1) 
11062470 55 13190334681929853071
12932764 1 17489010609159674214
14325111 11 18410292475820289860
14390081 3 18412822486699538304
15310529 11 18341326717143520727
20645477 70 18338229354529360487
23402539 116 18114172068694547039
23552423 10 18262799540795382506

>  <PUBCHEM_SHAPE_MULTIPOLES>  (1) 
179.65
7.52
1.11
0.59
0.01
0
0
-0.02
0
-0.01
0
0
0
0

>  <PUBCHEM_SHAPE_SELFOVERLAP>  (1) 
327.514

>  <PUBCHEM_SHAPE_VOLUME>  (1) 
116.5

>  <PUBCHEM_COORDINATE_TYPE>  (1) 
2
5
10

$$$$
