10411
     RDKit          3D

  7  6  0  0  0  0  0  0  0  0999 V2000
   -2.6885   -0.6666    0.5089 F   0  0  0  0  0  0  0  0  0  0  0  0
    2.3787   -1.0640   -0.0709 O   0  0  0  0  0  0  0  0  0  0  0  0
    1.9030    1.1244    0.3009 O   0  0  0  0  0  0  0  0  0  0  0  0
   -0.8976    0.7270   -0.1015 C   0  0  0  0  0  0  0  0  0  0  0  0
    0.1038   -0.4158   -0.2711 C   0  0  0  0  0  0  0  0  0  0  0  0
   -2.3310    0.2995   -0.3785 C   0  0  0  0  0  0  0  0  0  0  0  0
    1.5317   -0.0045    0.0123 C   0  0  0  0  0  0  0  0  0  0  0  0
  1  6  1  0
  2  7  1  0
  3  7  2  0
  4  5  1  0
  4  6  1  0
  5  7  1  0
M  END
>  <PUBCHEM_COMPOUND_CID>  (1) 
10411

>  <PUBCHEM_CONFORMER_RMSD>  (1) 
0.4

>  <PUBCHEM_CONFORMER_DIVERSEORDER>  (1) 
1
18
21
17
23
9
25
16
5
6
24
8
20
14
13
12
22
15
2
19
10
3
7
4
11

>  <PUBCHEM_MMFF94_PARTIAL_CHARGES>  (1) 
7
1 -0.34
14 0.5
2 -0.65
3 -0.57
5 0.06
6 0.34
7 0.66

>  <PUBCHEM_EFFECTIVE_ROTOR_COUNT>  (1) 
3

>  <PUBCHEM_PHARMACOPHORE_FEATURES>  (1) 
3
1 2 acceptor
1 3 acceptor
3 2 3 7 anion

>  <PUBCHEM_HEAVY_ATOM_COUNT>  (1) 
7

>  <PUBCHEM_ATOM_DEF_STEREO_COUNT>  (1) 
0

>  <PUBCHEM_ATOM_UDEF_STEREO_COUNT>  (1) 
0

>  <PUBCHEM_BOND_DEF_STEREO_COUNT>  (1) 
0

>  <PUBCHEM_BOND_UDEF_STEREO_COUNT>  (1) 
0

>  <PUBCHEM_ISOTOPIC_ATOM_COUNT>  (1) 
0

>  <PUBCHEM_COMPONENT_COUNT>  (1) 
1

>  <PUBCHEM_CACTVS_TAUTO_COUNT>  (1) 
1

>  <PUBCHEM_CONFORMER_ID>  (1) 
000028AB00000001

>  <PUBCHEM_MMFF94_ENERGY>  (1) 
2.0391

>  <PUBCHEM_FEATURE_SELFOVERLAP>  (1) 
15.281

>  <PUBCHEM_SHAPE_FINGERPRINT>  (1) 
10857977 72 18188202225500585929
12932741 1 18187639189515833061
14390081 3 18343295989835138849
20096714 4 18272644684138245956
29004967 10 18409448102514304489
5460574 1 9439403536051051757

>  <PUBCHEM_SHAPE_MULTIPOLES>  (1) 
125.04
3.85
1.03
0.64
0.85
0.07
0.02
-0.53
-0.25
-0.34
-0.05
0.13
-0.01
0.26

>  <PUBCHEM_SHAPE_SELFOVERLAP>  (1) 
226.441

>  <PUBCHEM_SHAPE_VOLUME>  (1) 
79.9

>  <PUBCHEM_COORDINATE_TYPE>  (1) 
2
5
10

$$$$
