1042
     RDKit          3D

 21 22  0  0  1  0  0  0  0  0999 V2000
   -3.8633   -1.6389   -0.2485 P   0  0  0  0  0  0  0  0  0  0  0  0
   -0.7180    0.0599    0.0218 O   0  0  0  0  0  0  0  0  0  0  0  0
   -1.3221    3.3478    1.3164 O   0  0  0  0  0  0  0  0  0  0  0  0
    0.9885    3.0998   -0.7270 O   0  0  0  0  0  0  0  0  0  0  0  0
   -3.3307   -0.5836    0.8568 O   0  0  0  0  0  0  0  0  0  0  0  0
    2.7798    0.6756   -2.1006 O   0  0  0  0  0  0  0  0  0  0  0  0
   -2.7267   -1.5974   -1.3982 O   0  0  0  0  0  0  0  0  0  0  0  0
   -5.1054   -0.8554   -0.9253 O   0  0  0  0  0  0  0  0  0  0  0  0
   -4.1888   -3.0040    0.2830 O   0  0  0  0  0  0  0  0  0  0  0  0
    5.0616   -2.1108    0.7847 O   0  0  0  0  0  0  0  0  0  0  0  0
    3.9322   -0.7158   -0.6658 N   0  0  0  0  0  0  0  0  0  0  0  0
    2.9200   -1.4530    1.3082 N   0  0  0  0  0  0  0  0  0  0  0  0
   -1.0719    2.3747    0.3203 C   0  0  0  0  0  0  0  0  0  0  0  0
    0.4130    2.1444    0.1463 C   0  0  0  0  0  0  0  0  0  0  0  0
   -1.5386    0.9929    0.7444 C   0  0  0  0  0  0  0  0  0  0  0  0
    0.4432    0.7530   -0.4722 C   0  0  0  0  0  0  0  0  0  0  0  0
   -3.0012    0.7295    0.4336 C   0  0  0  0  0  0  0  0  0  0  0  0
    1.6686   -0.0192   -0.1173 C   0  0  0  0  0  0  0  0  0  0  0  0
    2.8253    0.0256   -1.0593 C   0  0  0  0  0  0  0  0  0  0  0  0
    1.7886   -0.7500    0.9980 C   0  0  0  0  0  0  0  0  0  0  0  0
    4.0459   -1.4752    0.5006 C   0  0  0  0  0  0  0  0  0  0  0  0
  1  5  1  0
  1  7  1  0
  1  8  1  0
  1  9  2  0
  2 15  1  0
  2 16  1  0
  3 13  1  0
  4 14  1  0
  5 17  1  0
  6 19  2  0
 10 21  2  0
 11 19  1  0
 11 21  1  0
 12 20  1  0
 12 21  1  0
 13 14  1  0
 13 15  1  0
 14 16  1  0
 15 17  1  0
 16 18  1  0
 18 19  1  0
 18 20  2  0
M  END
>  <PUBCHEM_COMPOUND_CID>  (1) 
1042

>  <PUBCHEM_CONFORMER_RMSD>  (1) 
0.8

>  <PUBCHEM_CONFORMER_DIVERSEORDER>  (1) 
2
104
34
70
21
9
160
48
129
36
63
30
7
184
127
28
42
151
49
24
91
134
161
156
107
26
50
157
158
164
3
22
99
35
175
170
51
93
119
165
20
69
166
146
79
6
97
143
185
13
80
33
136
174
84
55
37
74
111
176
167
113
142
8
173
188
61
105
96
47
153
147
59
46
27
43
106
88
133
148
168
180
101
125
65
1
100
139
116
186
85
32
76
144
75
162
44
17
82
66
39
90
78
182
109
83
169
140
181
60
118
145
64
114
92
62
137
121
94
131
135
189
5
154
110
14
95
25
138
77
68
23
102
152
177
16
41
126
123
81
71
163
128
179
103
86
89
120
52
190
172
72
67
56
183
40
73
45
112
132
149
15
108
19
159
98
115
58
124
130
57
187
38
29
18
155
12
178
10
31
171
141
54
150
117
122
87
53
11
4

>  <PUBCHEM_MMFF94_PARTIAL_CHARGES>  (1) 
28
1 1.51
10 -0.57
11 -0.49
12 -0.54
13 0.28
14 0.28
15 0.28
16 0.42
17 0.28
18 -0.12
19 0.62
2 -0.56
20 -0.04
21 0.69
28 0.4
29 0.4
3 -0.68
30 0.15
31 0.37
32 0.37
33 0.5
34 0.5
4 -0.68
5 -0.55
6 -0.57
7 -0.77
8 -0.77
9 -0.7

>  <PUBCHEM_EFFECTIVE_ROTOR_COUNT>  (1) 
5

>  <PUBCHEM_PHARMACOPHORE_FEATURES>  (1) 
15
1 10 acceptor
1 11 donor
1 12 donor
1 2 acceptor
1 3 acceptor
1 3 donor
1 4 acceptor
1 4 donor
1 6 acceptor
1 7 acceptor
1 8 acceptor
1 9 acceptor
4 1 7 8 9 anion
5 2 13 14 15 16 rings
6 11 12 18 19 20 21 rings

>  <PUBCHEM_HEAVY_ATOM_COUNT>  (1) 
21

>  <PUBCHEM_ATOM_DEF_STEREO_COUNT>  (1) 
0

>  <PUBCHEM_ATOM_UDEF_STEREO_COUNT>  (1) 
4

>  <PUBCHEM_BOND_DEF_STEREO_COUNT>  (1) 
0

>  <PUBCHEM_BOND_UDEF_STEREO_COUNT>  (1) 
0

>  <PUBCHEM_ISOTOPIC_ATOM_COUNT>  (1) 
0

>  <PUBCHEM_COMPONENT_COUNT>  (1) 
1

>  <PUBCHEM_CACTVS_TAUTO_COUNT>  (1) 
6

>  <PUBCHEM_CONFORMER_ID>  (1) 
0000041200000002

>  <PUBCHEM_MMFF94_ENERGY>  (1) 
13.8869

>  <PUBCHEM_FEATURE_SELFOVERLAP>  (1) 
76.209

>  <PUBCHEM_SHAPE_FINGERPRINT>  (1) 
10062212 137 18261399897063789881
11046707 91 18412824659752491131
11265709 11 18411135823077751097
11578080 2 18115289134134055748
12363563 72 18343023324073605687
12553582 1 18340782497838077731
12633257 1 15984814995255220683
13140716 1 18343867727613421065
13583140 156 17416100804144199514
14178342 30 17987247637776765211
14787075 74 18265905842176372716
15342816 4 18340779229135603950
15375462 189 18262815041632813489
15842332 3 18117021917351413908
16752209 62 18336819793596474539
18186145 218 14418142811108266669
18222031 100 18060419157453065031
18915474 69 18333454256912527734
200 152 17822295634965654730
20291156 8 18411983598066588459
20600515 1 18130230341566417065
20645477 70 18125722533561562871
20671657 53 18337110163403079845
21250096 35 18411695513188047683
21452121 199 18342172323285079009
21634736 98 18267309913723101599
22112679 90 18191321394018097216
221490 88 18118127106925831747
23402539 116 18337106770363286682
23419403 2 17984386794315896601
23557571 272 18200870652399297746
23559900 14 18338505413346283809
23598288 3 18044957687330498745
3004659 81 18113611287831849203
339767 52 18411971468857716799
602551 16 17988925544102946598
603831 33 18261970590948864388
7471813 234 18335419067317196228
76465 3 18410290311214950931
7970288 3 18411697716380624915
85463 6 18270668801339348695

>  <PUBCHEM_SHAPE_MULTIPOLES>  (1) 
373.23
8.82
3.2
1.28
0.87
1.56
0.31
-8.82
0.38
1.6
-0.59
-0.57
0.04
-1.66

>  <PUBCHEM_SHAPE_SELFOVERLAP>  (1) 
769.017

>  <PUBCHEM_SHAPE_VOLUME>  (1) 
215.5

>  <PUBCHEM_COORDINATE_TYPE>  (1) 
2
5
10

$$$$
