10426
     RDKit          3D

  8  7  0  0  0  0  0  0  0  0999 V2000
    1.2819    0.9500    1.4342 Cl  0  0  0  0  0  0  0  0  0  0  0  0
    1.3328    0.8330   -1.5040 Cl  0  0  0  0  0  0  0  0  0  0  0  0
    2.2500   -1.4133    0.0732 Cl  0  0  0  0  0  0  0  0  0  0  0  0
   -2.8418   -0.9304    0.0015 Cl  0  0  0  0  0  0  0  0  0  0  0  0
   -0.2594   -0.6986    0.0005 O   0  0  0  0  0  0  0  0  0  0  0  0
   -1.4102    1.2832   -0.0035 O   0  0  0  0  0  0  0  0  0  0  0  0
    1.0494   -0.0804   -0.0007 C   0  0  0  0  0  0  0  0  0  0  0  0
   -1.4028    0.0565   -0.0011 C   0  0  0  0  0  0  0  0  0  0  0  0
  1  7  1  0
  2  7  1  0
  3  7  1  0
  4  8  1  0
  5  7  1  0
  5  8  1  0
  6  8  2  0
M  END
>  <PUBCHEM_COMPOUND_CID>  (1) 
10426

>  <PUBCHEM_CONFORMER_RMSD>  (1) 
0.4

>  <PUBCHEM_CONFORMER_DIVERSEORDER>  (1) 
1
2
3

>  <PUBCHEM_MMFF94_PARTIAL_CHARGES>  (1) 
8
1 -0.29
2 -0.29
3 -0.29
4 -0.21
5 -0.43
6 -0.57
7 1.15
8 0.93

>  <PUBCHEM_EFFECTIVE_ROTOR_COUNT>  (1) 
2

>  <PUBCHEM_PHARMACOPHORE_FEATURES>  (1) 
1
1 6 acceptor

>  <PUBCHEM_HEAVY_ATOM_COUNT>  (1) 
8

>  <PUBCHEM_ATOM_DEF_STEREO_COUNT>  (1) 
0

>  <PUBCHEM_ATOM_UDEF_STEREO_COUNT>  (1) 
0

>  <PUBCHEM_BOND_DEF_STEREO_COUNT>  (1) 
0

>  <PUBCHEM_BOND_UDEF_STEREO_COUNT>  (1) 
0

>  <PUBCHEM_ISOTOPIC_ATOM_COUNT>  (1) 
0

>  <PUBCHEM_COMPONENT_COUNT>  (1) 
1

>  <PUBCHEM_CACTVS_TAUTO_COUNT>  (1) 
1

>  <PUBCHEM_CONFORMER_ID>  (1) 
000028BA00000001

>  <PUBCHEM_MMFF94_ENERGY>  (1) 
8.836

>  <PUBCHEM_FEATURE_SELFOVERLAP>  (1) 
5.074

>  <PUBCHEM_SHAPE_FINGERPRINT>  (1) 
12932764 1 18131075982472855823
14128692 85 18337122163452196646
20711978 78 16630245891475929497
23552423 10 18186241718895708699
23552449 11 17632858663307699091
24536 1 18040432213328739727
29004967 10 18266737059833610595
5084963 1 18334012765890526203
5943 1 8094995875719312992

>  <PUBCHEM_SHAPE_MULTIPOLES>  (1) 
160.38
3.51
1.43
1.22
2.26
0.15
-0.06
1.22
0.01
-0.41
0.06
-0.79
-0.51
-0.02

>  <PUBCHEM_SHAPE_SELFOVERLAP>  (1) 
266.307

>  <PUBCHEM_SHAPE_VOLUME>  (1) 
107.8

>  <PUBCHEM_COORDINATE_TYPE>  (1) 
2
5
10

$$$$
