10449
     RDKit          3D

  6  5  0  0  0  0  0  0  0  0999 V2000
    2.2689   -0.7551   -0.2339 F   0  0  0  0  0  0  0  0  0  0  0  0
   -2.6777   -0.0462   -0.2013 O   0  0  0  0  0  0  0  0  0  0  0  0
   -0.4094   -0.2617    0.3760 N   0  0  0  0  0  0  0  0  0  0  0  0
    0.4679    0.7395   -0.2326 C   0  0  0  0  0  0  0  0  0  0  0  0
    1.8923    0.4762    0.2051 C   0  0  0  0  0  0  0  0  0  0  0  0
   -1.5420   -0.1526    0.0867 C   0  0  0  0  0  0  0  0  0  0  0  0
  1  5  1  0
  2  6  2  0
  3  4  1  0
  3  6  2  0
  4  5  1  0
M  END
>  <PUBCHEM_COMPOUND_CID>  (1) 
10449

>  <PUBCHEM_CONFORMER_RMSD>  (1) 
0.4

>  <PUBCHEM_CONFORMER_DIVERSEORDER>  (1) 
1
14
2
8
11
6
3
10
12
4
5
13
9
7

>  <PUBCHEM_MMFF94_PARTIAL_CHARGES>  (1) 
6
1 -0.34
2 -0.49
3 -0.55
4 0.25
5 0.34
6 0.79

>  <PUBCHEM_EFFECTIVE_ROTOR_COUNT>  (1) 
2

>  <PUBCHEM_PHARMACOPHORE_FEATURES>  (1) 
1
1 3 acceptor

>  <PUBCHEM_HEAVY_ATOM_COUNT>  (1) 
6

>  <PUBCHEM_ATOM_DEF_STEREO_COUNT>  (1) 
0

>  <PUBCHEM_ATOM_UDEF_STEREO_COUNT>  (1) 
0

>  <PUBCHEM_BOND_DEF_STEREO_COUNT>  (1) 
0

>  <PUBCHEM_BOND_UDEF_STEREO_COUNT>  (1) 
0

>  <PUBCHEM_ISOTOPIC_ATOM_COUNT>  (1) 
0

>  <PUBCHEM_COMPONENT_COUNT>  (1) 
1

>  <PUBCHEM_CACTVS_TAUTO_COUNT>  (1) 
1

>  <PUBCHEM_CONFORMER_ID>  (1) 
000028D100000001

>  <PUBCHEM_MMFF94_ENERGY>  (1) 
1.3759

>  <PUBCHEM_FEATURE_SELFOVERLAP>  (1) 
5.074

>  <PUBCHEM_SHAPE_FINGERPRINT>  (1) 
139733 1 9655575201689687824
16714656 1 16805321089364445127
20096714 4 17531245123005054685
23552449 11 18272358776797295674
29004967 10 18409732889010968768
5460574 1 9655584010514585665

>  <PUBCHEM_SHAPE_MULTIPOLES>  (1) 
105.35
3.45
0.79
0.62
0.72
0.03
-0.01
-0.36
0.21
-0.3
0.03
-0.03
0.01
0.1

>  <PUBCHEM_SHAPE_SELFOVERLAP>  (1) 
191.787

>  <PUBCHEM_SHAPE_VOLUME>  (1) 
66.4

>  <PUBCHEM_COORDINATE_TYPE>  (1) 
2
5
10

$$$$
