10482
     RDKit          3D

  4  3  0  0  0  0  0  0  0  0999 V2000
    1.7078   -0.3588   -0.0002 Br  0  0  0  0  0  0  0  0  0  0  0  0
   -0.4202    1.2835   -0.0003 O   0  0  0  0  0  0  0  0  0  0  0  0
   -1.1450   -1.0178   -0.0002 C   0  0  0  0  0  0  0  0  0  0  0  0
   -0.1425    0.0931    0.0006 C   0  0  0  0  0  0  0  0  0  0  0  0
  1  4  1  0
  2  4  2  0
  3  4  1  0
M  END
>  <PUBCHEM_COMPOUND_CID>  (1) 
10482

>  <PUBCHEM_CONFORMER_RMSD>  (1) 
0.4

>  <PUBCHEM_CONFORMER_DIVERSEORDER>  (1) 
1

>  <PUBCHEM_MMFF94_PARTIAL_CHARGES>  (1) 
4
1 -0.14
2 -0.57
3 0.06
4 0.65

>  <PUBCHEM_EFFECTIVE_ROTOR_COUNT>  (1) 
0

>  <PUBCHEM_PHARMACOPHORE_FEATURES>  (1) 
1
1 1 hydrophobe

>  <PUBCHEM_HEAVY_ATOM_COUNT>  (1) 
4

>  <PUBCHEM_ATOM_DEF_STEREO_COUNT>  (1) 
0

>  <PUBCHEM_ATOM_UDEF_STEREO_COUNT>  (1) 
0

>  <PUBCHEM_BOND_DEF_STEREO_COUNT>  (1) 
0

>  <PUBCHEM_BOND_UDEF_STEREO_COUNT>  (1) 
0

>  <PUBCHEM_ISOTOPIC_ATOM_COUNT>  (1) 
0

>  <PUBCHEM_COMPONENT_COUNT>  (1) 
1

>  <PUBCHEM_CACTVS_TAUTO_COUNT>  (1) 
1

>  <PUBCHEM_CONFORMER_ID>  (1) 
000028F200000001

>  <PUBCHEM_MMFF94_ENERGY>  (1) 
1.3272

>  <PUBCHEM_FEATURE_SELFOVERLAP>  (1) 
5.074

>  <PUBCHEM_SHAPE_FINGERPRINT>  (1) 
139733 1 9222966862614864706
16714656 1 18339654351404733534
20096714 4 17905046945925023944
21015797 1 9871744693610512115
5943 1 11930013740525868345

>  <PUBCHEM_SHAPE_MULTIPOLES>  (1) 
82.39
1.91
1.21
0.63
0.8
0.21
0
-0.55
0
-0.35
0
0.07
-0.04
0

>  <PUBCHEM_SHAPE_SELFOVERLAP>  (1) 
128.927

>  <PUBCHEM_SHAPE_VOLUME>  (1) 
60.6

>  <PUBCHEM_COORDINATE_TYPE>  (1) 
2
5
10

$$$$
