10497
     RDKit          3D

 31 35  0  0  1  0  0  0  0  0999 V2000
    2.1080    1.4594   -0.4771 O   0  0  0  0  0  0  0  0  0  0  0  0
   -4.3451    1.5508   -0.9480 O   0  0  0  0  0  0  0  0  0  0  0  0
   -1.3614   -2.8634    0.3609 O   0  0  0  0  0  0  0  0  0  0  0  0
   -4.9853   -1.0798   -0.7055 O   0  0  0  0  0  0  0  0  0  0  0  0
   -3.8997   -0.1981   -2.6181 O   0  0  0  0  0  0  0  0  0  0  0  0
   -5.7333    0.6583    1.3593 O   0  0  0  0  0  0  0  0  0  0  0  0
    6.4111   -0.4291   -0.6567 O   0  0  0  0  0  0  0  0  0  0  0  0
    6.7842    1.8339   -0.4682 O   0  0  0  0  0  0  0  0  0  0  0  0
   -1.1923   -0.4356    0.0467 C   0  0  0  0  0  0  0  0  0  0  0  0
   -0.1852    0.6801   -0.3964 C   0  0  0  0  0  0  0  0  0  0  0  0
    1.2521    0.5047    0.1704 C   0  0  0  0  0  0  0  0  0  0  0  0
    1.8401   -0.9099   -0.0572 C   0  0  0  0  0  0  0  0  0  0  0  0
   -2.6547   -0.2054   -0.5785 C   0  0  0  0  0  0  0  0  0  0  0  0
   -3.1371    1.2576   -0.2280 C   0  0  0  0  0  0  0  0  0  0  0  0
   -0.5689   -1.8331   -0.2236 C   0  0  0  0  0  0  0  0  0  0  0  0
    0.8244   -1.9824    0.3939 C   0  0  0  0  0  0  0  0  0  0  0  0
    3.0652   -0.9411    0.9126 C   0  0  0  0  0  0  0  0  0  0  0  0
   -0.7262    2.0913   -0.1028 C   0  0  0  0  0  0  0  0  0  0  0  0
    1.3847    0.7056    1.6911 C   0  0  0  0  0  0  0  0  0  0  0  0
   -2.1163    2.3151   -0.6726 C   0  0  0  0  0  0  0  0  0  0  0  0
   -3.7297   -1.2153   -0.0275 C   0  0  0  0  0  0  0  0  0  0  0  0
    2.6209   -0.0959    2.1229 C   0  0  0  0  0  0  0  0  0  0  0  0
   -3.4479    1.4197    1.2858 C   0  0  0  0  0  0  0  0  0  0  0  0
   -2.5989   -0.3986   -2.1227 C   0  0  0  0  0  0  0  0  0  0  0  0
    2.2352   -1.1827   -1.5227 C   0  0  0  0  0  0  0  0  0  0  0  0
   -4.0043   -1.0464    1.4707 C   0  0  0  0  0  0  0  0  0  0  0  0
   -4.4211    0.3779    1.8391 C   0  0  0  0  0  0  0  0  0  0  0  0
    4.3594   -0.4176    0.3589 C   0  0  0  0  0  0  0  0  0  0  0  0
    5.3492   -1.3107   -0.2768 C   0  0  0  0  0  0  0  0  0  0  0  0
    4.7802    0.8444    0.3588 C   0  0  0  0  0  0  0  0  0  0  0  0
    6.0928    0.8461   -0.2890 C   0  0  0  0  0  0  0  0  0  0  0  0
  1 11  1  0
  2 14  1  0
  3 15  1  0
  4 21  1  0
  5 24  1  0
  6 27  1  0
  7 29  1  0
  7 31  1  0
  8 31  2  0
  9 10  1  0
  9 13  1  0
  9 15  1  0
 10 11  1  0
 10 18  1  0
 11 12  1  0
 11 19  1  0
 12 16  1  0
 12 17  1  0
 12 25  1  0
 13 14  1  0
 13 21  1  0
 13 24  1  0
 14 20  1  0
 14 23  1  0
 15 16  1  0
 17 22  1  0
 17 28  1  0
 18 20  1  0
 19 22  1  0
 21 26  1  0
 23 27  1  0
 26 27  1  0
 28 29  1  0
 28 30  2  0
 30 31  1  0
M  END
>  <PUBCHEM_COMPOUND_CID>  (1) 
10497

>  <PUBCHEM_CONFORMER_RMSD>  (1) 
0.8

>  <PUBCHEM_CONFORMER_DIVERSEORDER>  (1) 
3
5
8
18
23
1
2
24
21
7
11
16
9
13
19
22
15
10
20
6
17
14
12
4

>  <PUBCHEM_MMFF94_PARTIAL_CHARGES>  (1) 
26
1 -0.68
11 0.28
14 0.28
15 0.28
17 0.14
2 -0.68
21 0.28
24 0.28
27 0.28
28 -0.28
29 0.42
3 -0.68
30 -0.14
31 0.71
4 -0.68
5 -0.68
57 0.4
58 0.4
59 0.4
6 -0.68
60 0.4
63 0.4
64 0.15
65 0.4
7 -0.43
8 -0.57

>  <PUBCHEM_EFFECTIVE_ROTOR_COUNT>  (1) 
4.6

>  <PUBCHEM_PHARMACOPHORE_FEATURES>  (1) 
18
1 1 acceptor
1 1 donor
1 2 acceptor
1 2 donor
1 3 acceptor
1 3 donor
1 4 acceptor
1 4 donor
1 5 acceptor
1 5 donor
1 6 acceptor
1 6 donor
1 8 acceptor
5 11 12 17 19 22 rings
5 7 28 29 30 31 rings
6 13 14 21 23 26 27 rings
6 9 10 11 12 15 16 rings
6 9 10 13 14 18 20 rings

>  <PUBCHEM_HEAVY_ATOM_COUNT>  (1) 
31

>  <PUBCHEM_ATOM_DEF_STEREO_COUNT>  (1) 
8

>  <PUBCHEM_ATOM_UDEF_STEREO_COUNT>  (1) 
2

>  <PUBCHEM_BOND_DEF_STEREO_COUNT>  (1) 
0

>  <PUBCHEM_BOND_UDEF_STEREO_COUNT>  (1) 
0

>  <PUBCHEM_ISOTOPIC_ATOM_COUNT>  (1) 
0

>  <PUBCHEM_COMPONENT_COUNT>  (1) 
1

>  <PUBCHEM_CACTVS_TAUTO_COUNT>  (1) 
1

>  <PUBCHEM_CONFORMER_ID>  (1) 
0000290100000003

>  <PUBCHEM_MMFF94_ENERGY>  (1) 
127.7731

>  <PUBCHEM_FEATURE_SELFOVERLAP>  (1) 
91.731

>  <PUBCHEM_SHAPE_FINGERPRINT>  (1) 
10 15 18040156245202106088
10366900 7 18130775772331783627
10675989 125 16820211504636346068
10906281 52 18200048312417868086
11796584 16 14333404545789175910
12236239 1 18131917061106350184
12403259 415 18130213926216762000
12553582 1 18336536162098145864
12596602 18 17167863054365343856
12788726 201 17559964221115605000
13140716 1 18263934408725788755
13224815 77 18341607101483309795
13583140 156 16732975444670506213
13631057 29 16733553835247856219
13726171 33 18262522477040995696
13782708 43 17846779620302757190
13911987 19 18260813921885887583
14251758 9 13183025112013187496
14790565 3 18410299086229132888
14840074 17 18335423477905756964
14856354 85 16774080699812893172
14955137 171 18334871514711072968
15183329 4 16558751204932003068
15209289 33 18202279208293563811
15788980 27 18040999518553124550
1601671 61 17561365063417099738
17349148 13 18272651251317184882
20775530 9 16228314026370387395
21033648 144 18267574879241561804
21033648 29 17822275912455174412
21236236 1 18342739628234806102
22393880 68 15841543085563874766
23402539 116 18412259523950736668
23522609 53 17844832398021086376
23559900 14 18270388507605550392
2838139 119 18335979848935021636
32027 91 14853547109716087008
350125 39 18412266142395301417
5104073 3 17749946657678028496
542803 24 17989207040627937586
59755656 520 18272654545573542315
633830 44 15913031132847497168

>  <PUBCHEM_SHAPE_MULTIPOLES>  (1) 
591.01
13.15
2.13
1.7
12.39
0.08
0.07
-2.36
0.27
-0.42
0.13
-1.6
0.04
-0.2

>  <PUBCHEM_SHAPE_SELFOVERLAP>  (1) 
1288.773

>  <PUBCHEM_SHAPE_VOLUME>  (1) 
316.6

>  <PUBCHEM_COORDINATE_TYPE>  (1) 
2
5
10

$$$$
