10506
     RDKit          3D

 37 42  0  0  1  0  0  0  0  0999 V2000
   -3.5027    3.1250   -0.6969 O   0  0  0  0  0  0  0  0  0  0  0  0
    3.7091   -0.4798    0.0348 O   0  0  0  0  0  0  0  0  0  0  0  0
   -6.8760   -2.4574    0.7531 O   0  0  0  0  0  0  0  0  0  0  0  0
    5.1804   -1.4714   -1.5337 O   0  0  0  0  0  0  0  0  0  0  0  0
   -8.3996   -2.5662   -0.9681 O   0  0  0  0  0  0  0  0  0  0  0  0
    4.9182   -1.9568    2.0962 O   0  0  0  0  0  0  0  0  0  0  0  0
    6.0255    0.4953    1.2623 O   0  0  0  0  0  0  0  0  0  0  0  0
    8.1426    0.4926   -0.5655 O   0  0  0  0  0  0  0  0  0  0  0  0
   -2.9217    1.8246   -0.5108 C   0  0  0  0  0  0  0  0  0  0  0  0
   -1.5353    2.0325    0.1793 C   0  0  0  0  0  0  0  0  0  0  0  0
   -0.9342    0.7006    0.7084 C   0  0  0  0  0  0  0  0  0  0  0  0
   -3.9149    0.9267    0.3243 C   0  0  0  0  0  0  0  0  0  0  0  0
    0.5038    0.8700    1.3357 C   0  0  0  0  0  0  0  0  0  0  0  0
    1.4426    1.6023    0.3260 C   0  0  0  0  0  0  0  0  0  0  0  0
   -1.9167   -0.0508    1.6366 C   0  0  0  0  0  0  0  0  0  0  0  0
   -3.3240    0.5346    1.6913 C   0  0  0  0  0  0  0  0  0  0  0  0
   -4.1352   -0.3230   -0.5866 C   0  0  0  0  0  0  0  0  0  0  0  0
   -0.5501    2.7934   -0.7354 C   0  0  0  0  0  0  0  0  0  0  0  0
   -2.8399    1.1565   -1.9071 C   0  0  0  0  0  0  0  0  0  0  0  0
    0.8444    2.9377   -0.1384 C   0  0  0  0  0  0  0  0  0  0  0  0
   -4.0607    0.2528   -1.9965 C   0  0  0  0  0  0  0  0  0  0  0  0
    1.1400   -0.5030    1.7026 C   0  0  0  0  0  0  0  0  0  0  0  0
    1.8213    0.7249   -0.8894 C   0  0  0  0  0  0  0  0  0  0  0  0
   -5.2563    1.6539    0.6077 C   0  0  0  0  0  0  0  0  0  0  0  0
    0.4460    1.6961    2.6505 C   0  0  0  0  0  0  0  0  0  0  0  0
    1.5045   -1.3693    0.4975 C   0  0  0  0  0  0  0  0  0  0  0  0
    2.3956   -0.6348   -0.4983 C   0  0  0  0  0  0  0  0  0  0  0  0
   -5.3711   -1.1267   -0.3449 C   0  0  0  0  0  0  0  0  0  0  0  0
   -5.6069   -1.8210    0.9372 C   0  0  0  0  0  0  0  0  0  0  0  0
   -6.3776   -1.3252   -1.1918 C   0  0  0  0  0  0  0  0  0  0  0  0
    4.5292   -1.6055   -0.2667 C   0  0  0  0  0  0  0  0  0  0  0  0
   -7.3451   -2.1762   -0.4974 C   0  0  0  0  0  0  0  0  0  0  0  0
    5.5667   -1.8400    0.8370 C   0  0  0  0  0  0  0  0  0  0  0  0
    6.6274   -0.7380    0.8672 C   0  0  0  0  0  0  0  0  0  0  0  0
    6.1320   -0.4002   -1.5869 C   0  0  0  0  0  0  0  0  0  0  0  0
    7.2318   -0.5991   -0.5333 C   0  0  0  0  0  0  0  0  0  0  0  0
    6.7071   -0.3751   -3.0002 C   0  0  0  0  0  0  0  0  0  0  0  0
  1  9  1  0
  2 27  1  0
  2 31  1  0
  3 29  1  0
  3 32  1  0
  4 31  1  0
  4 35  1  0
  5 32  2  0
  6 33  1  0
  7 34  1  0
  8 36  1  0
  9 10  1  0
  9 12  1  0
  9 19  1  0
 10 11  1  0
 10 18  1  0
 11 13  1  0
 11 15  1  0
 12 16  1  0
 12 17  1  0
 12 24  1  0
 13 14  1  0
 13 22  1  0
 13 25  1  0
 14 20  1  0
 14 23  1  0
 15 16  1  0
 17 21  1  0
 17 28  1  0
 18 20  1  0
 19 21  1  0
 22 26  1  0
 23 27  1  0
 26 27  1  0
 28 29  1  0
 28 30  2  0
 30 32  1  0
 31 33  1  0
 33 34  1  0
 34 36  1  0
 35 36  1  0
 35 37  1  0
M  END
>  <PUBCHEM_COMPOUND_CID>  (1) 
10506

>  <PUBCHEM_CONFORMER_RMSD>  (1) 
1

>  <PUBCHEM_CONFORMER_DIVERSEORDER>  (1) 
2
167
58
98
62
85
120
115
113
63
144
112
37
33
48
119
54
40
152
68
50
82
29
97
52
70
118
154
137
78
28
94
89
12
76
60
18
64
93
132
114
141
80
77
103
140
71
44
135
133
150
104
49
31
105
51
79
128
15
59
53
162
159
146
22
65
164
61
17
66
27
161
42
169
88
4
13
166
107
111
108
168
157
139
67
100
131
21
138
34
124
84
41
69
14
153
102
74
57
75
11
5
109
155
20
38
16
134
46
30
35
163
55
136
147
149
45
121
126
92
1
101
123
130
6
95
165
83
87
143
151
8
39
106
122
26
99
127
110
142
81
116
90
73
36
10
24
158
145
43
96
160
9
56
156
91
23
32
129
3
25
47
148
86
117
72
7
19
125

>  <PUBCHEM_MMFF94_PARTIAL_CHARGES>  (1) 
25
1 -0.68
17 0.14
2 -0.56
27 0.28
28 -0.28
29 0.42
3 -0.43
30 -0.14
31 0.56
32 0.71
33 0.28
34 0.28
35 0.28
36 0.28
4 -0.56
5 -0.57
6 -0.68
67 0.4
7 -0.68
70 0.15
76 0.4
8 -0.68
80 0.4
81 0.4
9 0.28

>  <PUBCHEM_EFFECTIVE_ROTOR_COUNT>  (1) 
6.8

>  <PUBCHEM_PHARMACOPHORE_FEATURES>  (1) 
17
1 1 acceptor
1 1 donor
1 2 acceptor
1 4 acceptor
1 5 acceptor
1 6 acceptor
1 6 donor
1 7 acceptor
1 7 donor
1 8 acceptor
1 8 donor
5 3 28 29 30 32 rings
5 9 12 17 19 21 rings
6 10 11 13 14 18 20 rings
6 13 14 22 23 26 27 rings
6 4 31 33 34 35 36 rings
6 9 10 11 12 15 16 rings

>  <PUBCHEM_HEAVY_ATOM_COUNT>  (1) 
37

>  <PUBCHEM_ATOM_DEF_STEREO_COUNT>  (1) 
8

>  <PUBCHEM_ATOM_UDEF_STEREO_COUNT>  (1) 
5

>  <PUBCHEM_BOND_DEF_STEREO_COUNT>  (1) 
0

>  <PUBCHEM_BOND_UDEF_STEREO_COUNT>  (1) 
0

>  <PUBCHEM_ISOTOPIC_ATOM_COUNT>  (1) 
0

>  <PUBCHEM_COMPONENT_COUNT>  (1) 
1

>  <PUBCHEM_CACTVS_TAUTO_COUNT>  (1) 
1

>  <PUBCHEM_CONFORMER_ID>  (1) 
0000290A00000002

>  <PUBCHEM_MMFF94_ENERGY>  (1) 
128.5929

>  <PUBCHEM_FEATURE_SELFOVERLAP>  (1) 
86.602

>  <PUBCHEM_SHAPE_FINGERPRINT>  (1) 
10076449 9 18334018328411517563
10190108 129 15195295226792185494
117089 54 18194968659357177583
12422481 6 12391510871880181400
12633257 1 15769492140662809165
1361 4 18336544919816608810
13673619 4 18272368698504201641
13690498 29 18187075153669000253
13782708 43 18342449335642647571
13811026 1 18342165683180860009
14068700 675 18409166614879889525
14767858 380 17968099715983472098
15082195 135 17386016104576634900
15183329 4 16443067184200810050
15461852 350 18336270055738123958
15510800 12 18201163260470186831
16110190 28 13758069705786970443
18335252 98 17346601877049166230
19438510 23 10953730093914419063
19841028 212 18197776803590761199
19958102 18 16515688797349067626
20105231 36 15841558475032836836
20511986 3 15792023320201830320
20775438 99 17686042191711249131
21057603 130 18272658977916144307
21223535 225 14057270940663590431
21344244 246 17970072346764821789
21859007 373 12251898222622467718
23522609 53 18045249088124927764
23559900 14 17240772834249863917
2747138 104 17346598560917461698
2838139 119 14273731811502170455
3383291 50 18131349743499282783
3552219 110 15841557401301504128
3633792 109 15140955146023466328
4015057 19 17168441397708862060
439807 62 18186800292804976295
4461854 278 17775290512194160663
484989 97 17750805531089543611
5385378 56 10375603593810715020
54039377 194 17918280873982924383
57527295 17 17676476208615836073
58083652 198 14692276305999673778
6009941 240 17702951323173008097
6669772 16 18117841229877090156
9896288 288 16557645018851352651
999808 66 17203613679242761351

>  <PUBCHEM_SHAPE_MULTIPOLES>  (1) 
714.49
21.48
2.84
2.09
9.3
0.74
-0.16
-17.25
-6.63
-3.79
-0.05
1.7
0.01
-0.27

>  <PUBCHEM_SHAPE_SELFOVERLAP>  (1) 
1534.918

>  <PUBCHEM_SHAPE_VOLUME>  (1) 
391.4

>  <PUBCHEM_COORDINATE_TYPE>  (1) 
2
5
10

$$$$
