10502
     RDKit          3D

 39 44  0  0  1  0  0  0  0  0999 V2000
    3.8529   -3.0021   -0.2525 O   0  0  0  0  0  0  0  0  0  0  0  0
   -2.5064   -2.2754    0.6495 O   0  0  0  0  0  0  0  0  0  0  0  0
   -3.7219   -0.1800   -0.8520 O   0  0  0  0  0  0  0  0  0  0  0  0
   -1.0378   -0.6736    3.2230 O   0  0  0  0  0  0  0  0  0  0  0  0
    7.6851    2.0917    0.5457 O   0  0  0  0  0  0  0  0  0  0  0  0
   -4.6733    1.9900   -0.7204 O   0  0  0  0  0  0  0  0  0  0  0  0
    7.0686    3.9903   -0.5994 O   0  0  0  0  0  0  0  0  0  0  0  0
   -6.8555    0.9685   -2.2872 O   0  0  0  0  0  0  0  0  0  0  0  0
   -7.9866   -0.4442   -0.1729 O   0  0  0  0  0  0  0  0  0  0  0  0
   -6.9792    1.0915    2.0119 O   0  0  0  0  0  0  0  0  0  0  0  0
    3.1691   -1.7406   -0.3382 C   0  0  0  0  0  0  0  0  0  0  0  0
    1.7199   -1.9326    0.1821 C   0  0  0  0  0  0  0  0  0  0  0  0
    3.9753   -0.6505    0.4222 C   0  0  0  0  0  0  0  0  0  0  0  0
    0.9315   -0.6001    0.3216 C   0  0  0  0  0  0  0  0  0  0  0  0
   -0.5352   -0.8104    0.8580 C   0  0  0  0  0  0  0  0  0  0  0  0
   -1.2854   -1.8829    0.0004 C   0  0  0  0  0  0  0  0  0  0  0  0
    5.1991   -0.4673   -0.5214 C   0  0  0  0  0  0  0  0  0  0  0  0
    3.1403    0.6473    0.5547 C   0  0  0  0  0  0  0  0  0  0  0  0
    1.7499    0.4145    1.1458 C   0  0  0  0  0  0  0  0  0  0  0  0
    3.2790   -1.3042   -1.8124 C   0  0  0  0  0  0  0  0  0  0  0  0
    0.9452   -2.9586   -0.6618 C   0  0  0  0  0  0  0  0  0  0  0  0
   -0.4656   -3.1784   -0.1329 C   0  0  0  0  0  0  0  0  0  0  0  0
    4.6138   -0.5557   -1.9389 C   0  0  0  0  0  0  0  0  0  0  0  0
   -1.3559    0.5108    0.8705 C   0  0  0  0  0  0  0  0  0  0  0  0
   -1.6592   -1.3375   -1.4044 C   0  0  0  0  0  0  0  0  0  0  0  0
    4.4465   -1.1012    1.8189 C   0  0  0  0  0  0  0  0  0  0  0  0
   -1.6818    1.0395   -0.5259 C   0  0  0  0  0  0  0  0  0  0  0  0
   -2.4072   -0.0002   -1.3734 C   0  0  0  0  0  0  0  0  0  0  0  0
   -0.4998   -1.2793    2.3022 C   0  0  0  0  0  0  0  0  0  0  0  0
    6.0267    0.7568   -0.2960 C   0  0  0  0  0  0  0  0  0  0  0  0
    7.1861    0.7520    0.6190 C   0  0  0  0  0  0  0  0  0  0  0  0
    5.8545    1.9549   -0.8481 C   0  0  0  0  0  0  0  0  0  0  0  0
   -4.6394    0.7447   -1.4258 C   0  0  0  0  0  0  0  0  0  0  0  0
    6.9114    2.8156   -0.3146 C   0  0  0  0  0  0  0  0  0  0  0  0
   -6.0325    0.1207   -1.4845 C   0  0  0  0  0  0  0  0  0  0  0  0
   -6.6308   -0.0120   -0.0830 C   0  0  0  0  0  0  0  0  0  0  0  0
   -5.1502    1.8891    0.6252 C   0  0  0  0  0  0  0  0  0  0  0  0
   -6.5758    1.3212    0.6641 C   0  0  0  0  0  0  0  0  0  0  0  0
   -5.0753    3.2880    1.2308 C   0  0  0  0  0  0  0  0  0  0  0  0
  1 11  1  0
  2 16  1  0
  3 28  1  0
  3 33  1  0
  4 29  2  0
  5 31  1  0
  5 34  1  0
  6 33  1  0
  6 37  1  0
  7 34  2  0
  8 35  1  0
  9 36  1  0
 10 38  1  0
 11 12  1  0
 11 13  1  0
 11 20  1  0
 12 14  1  0
 12 21  1  0
 13 17  1  0
 13 18  1  0
 13 26  1  0
 14 15  1  0
 14 19  1  0
 15 16  1  0
 15 24  1  0
 15 29  1  0
 16 22  1  0
 16 25  1  0
 17 23  1  0
 17 30  1  0
 18 19  1  0
 20 23  1  0
 21 22  1  0
 24 27  1  0
 25 28  1  0
 27 28  1  0
 30 31  1  0
 30 32  2  0
 32 34  1  0
 33 35  1  0
 35 36  1  0
 36 38  1  0
 37 38  1  0
 37 39  1  0
M  END
>  <PUBCHEM_COMPOUND_CID>  (1) 
10502

>  <PUBCHEM_CONFORMER_RMSD>  (1) 
1

>  <PUBCHEM_CONFORMER_DIVERSEORDER>  (1) 
5
44
23
31
38
13
40
34
33
9
27
28
16
26
25
42
18
6
43
29
41
24
15
22
19
37
46
39
35
4
20
3
21
36
11
45
10
32
17
30
2
8
14
1
12
7

>  <PUBCHEM_MMFF94_PARTIAL_CHARGES>  (1) 
32
1 -0.68
10 -0.68
11 0.28
15 0.06
16 0.28
17 0.14
2 -0.68
28 0.28
29 0.45
3 -0.56
30 -0.28
31 0.42
32 -0.14
33 0.56
34 0.71
35 0.28
36 0.28
37 0.28
38 0.28
4 -0.57
5 -0.43
6 -0.56
65 0.4
66 0.06
67 0.4
7 -0.57
70 0.15
76 0.4
8 -0.68
80 0.4
81 0.4
9 -0.68

>  <PUBCHEM_EFFECTIVE_ROTOR_COUNT>  (1) 
7.8

>  <PUBCHEM_PHARMACOPHORE_FEATURES>  (1) 
20
1 1 acceptor
1 1 donor
1 10 acceptor
1 10 donor
1 2 acceptor
1 2 donor
1 3 acceptor
1 4 acceptor
1 6 acceptor
1 7 acceptor
1 8 acceptor
1 8 donor
1 9 acceptor
1 9 donor
5 11 13 17 20 23 rings
5 5 30 31 32 34 rings
6 11 12 13 14 18 19 rings
6 12 14 15 16 21 22 rings
6 15 16 24 25 27 28 rings
6 6 33 35 36 37 38 rings

>  <PUBCHEM_HEAVY_ATOM_COUNT>  (1) 
39

>  <PUBCHEM_ATOM_DEF_STEREO_COUNT>  (1) 
11

>  <PUBCHEM_ATOM_UDEF_STEREO_COUNT>  (1) 
2

>  <PUBCHEM_BOND_DEF_STEREO_COUNT>  (1) 
0

>  <PUBCHEM_BOND_UDEF_STEREO_COUNT>  (1) 
0

>  <PUBCHEM_ISOTOPIC_ATOM_COUNT>  (1) 
0

>  <PUBCHEM_COMPONENT_COUNT>  (1) 
1

>  <PUBCHEM_CACTVS_TAUTO_COUNT>  (1) 
1

>  <PUBCHEM_CONFORMER_ID>  (1) 
0000290600000005

>  <PUBCHEM_MMFF94_ENERGY>  (1) 
129.2348

>  <PUBCHEM_FEATURE_SELFOVERLAP>  (1) 
101.796

>  <PUBCHEM_SHAPE_FINGERPRINT>  (1) 
10 15 15213022665546237812
10074138 170 16226622903907758675
10319688 67 16660645193197561033
10554248 39 17845949441926637542
10673678 19 18341900649407679902
10675989 125 18337955567928783170
10906281 52 18272937124097969442
11007060 377 18113618984951015009
11135609 12 9511462208890772470
11135609 187 18060701684596503770
11135609 201 18261108616850874272
11578080 2 18337113457965015774
11796584 16 13901892406521313238
12422481 6 13695877986983862611
12633257 1 14996281462049698998
12760667 363 10159700200561343621
131258 38 10666670774702693424
1361 87 12894782705431220852
13673619 4 11095889267973995146
13690498 29 17273682355710003063
13726171 33 18338521966661698928
13782708 43 16952536775914786579
14394314 77 18341338790804200353
14790565 3 18268715995937731521
14849402 71 18341334474319460625
14856354 85 17775559863215600807
15082195 135 17275107245670193904
15183329 4 17418086594994753181
15324884 4 16340587370644063874
15685185 35 18267870660670289908
15840311 113 18196381321165533437
16126227 98 18340769333515181325
16994733 274 18411980226565059177
18393751 57 18113338613126947059
18608769 82 18338796822930606951
19438510 23 18187363264148513536
20715895 44 18410293640811709060
21033648 29 17895480336534967166
21521721 280 18410578366472092163
23522609 53 17702960140682630225
23569914 152 16339504016519231956
25269216 80 17060050489438779069
255183 313 16225765250542080331
2838139 119 18261950752515821854
3504750 166 11169910589889907399
3918712 181 18336257964762036037
392239 28 13984952788012770493
4098825 35 17917994957756542484
4112364 45 18113885092919797848
4258327 124 18339931527430586132
4340502 62 16732984193556214514
437815 12 10807931565667355495
439807 62 10591770900268087508
474113 269 8070036536509234529
504579 68 15985110725787127304
50677037 204 18410016506987547373
513202 73 9655582902634797003
5265222 85 17489583485194045333
563151 248 14345794972155577672
563151 74 17167857556933559170
5718773 13 8935005858538638716
5776283 40 18201717417897501632
6036956 94 18191595348871803996
6081469 158 9583524209285382881
6201320 82 18196108831519680620
6669772 16 17967527943745803923
6703917 75 18059861684195265463

>  <PUBCHEM_SHAPE_MULTIPOLES>  (1) 
743.91
21.01
3.32
1.91
5.24
0.88
-0.56
18.51
3.1
-3.23
0.06
1.32
-0.17
-0.92

>  <PUBCHEM_SHAPE_SELFOVERLAP>  (1) 
1609.143

>  <PUBCHEM_SHAPE_VOLUME>  (1) 
402.6

>  <PUBCHEM_COORDINATE_TYPE>  (1) 
2
5
10

$$$$
