10525
     RDKit          3D

 40 45  0  0  1  0  0  0  0  0999 V2000
   -2.0433    2.0002    2.3202 O   0  0  0  0  0  0  0  0  0  0  0  0
    3.1505   -1.2209    0.2327 O   0  0  0  0  0  0  0  0  0  0  0  0
    0.9061   -3.5781    1.1699 O   0  0  0  0  0  0  0  0  0  0  0  0
    4.3673    0.3077   -1.0381 O   0  0  0  0  0  0  0  0  0  0  0  0
   -7.7972    0.9765   -0.1600 O   0  0  0  0  0  0  0  0  0  0  0  0
    5.4356   -1.7894    1.7796 O   0  0  0  0  0  0  0  0  0  0  0  0
    6.8441    0.5670    1.4724 O   0  0  0  0  0  0  0  0  0  0  0  0
    7.9434    1.2390   -1.0203 O   0  0  0  0  0  0  0  0  0  0  0  0
   -9.4000   -0.4824   -0.8455 O   0  0  0  0  0  0  0  0  0  0  0  0
    4.0958    3.0490   -0.7962 O   0  0  0  0  0  0  0  0  0  0  0  0
   -2.0502    1.2098    1.1205 C   0  0  0  0  0  0  0  0  0  0  0  0
   -3.3312    0.2911    1.0654 C   0  0  0  0  0  0  0  0  0  0  0  0
   -0.7118    0.4137    1.1314 C   0  0  0  0  0  0  0  0  0  0  0  0
   -0.6620   -0.6855    0.0415 C   0  0  0  0  0  0  0  0  0  0  0  0
    0.7059   -1.4651    0.0059 C   0  0  0  0  0  0  0  0  0  0  0  0
   -2.9658   -1.2068    1.0983 C   0  0  0  0  0  0  0  0  0  0  0  0
   -4.0051    0.6843   -0.2888 C   0  0  0  0  0  0  0  0  0  0  0  0
   -1.8861   -1.6291    0.1059 C   0  0  0  0  0  0  0  0  0  0  0  0
   -2.1879    2.1901   -0.0708 C   0  0  0  0  0  0  0  0  0  0  0  0
    1.9350   -0.4923   -0.0054 C   0  0  0  0  0  0  0  0  0  0  0  0
    0.5064    1.3537    1.0332 C   0  0  0  0  0  0  0  0  0  0  0  0
   -3.6646    2.1639   -0.4389 C   0  0  0  0  0  0  0  0  0  0  0  0
    1.8213    0.5886    1.0841 C   0  0  0  0  0  0  0  0  0  0  0  0
   -4.2865    0.5429    2.2608 C   0  0  0  0  0  0  0  0  0  0  0  0
    0.8011   -2.3889   -1.2403 C   0  0  0  0  0  0  0  0  0  0  0  0
    0.7875   -2.3588    1.2299 C   0  0  0  0  0  0  0  0  0  0  0  0
   -5.4656    0.4005   -0.4238 C   0  0  0  0  0  0  0  0  0  0  0  0
    2.1385    0.1404   -1.3671 C   0  0  0  0  0  0  0  0  0  0  0  0
    0.8132   -1.6121   -2.5608 C   0  0  0  0  0  0  0  0  0  0  0  0
    1.6283   -0.3572   -2.5023 C   0  0  0  0  0  0  0  0  0  0  0  0
    4.2796   -0.3452    0.2292 C   0  0  0  0  0  0  0  0  0  0  0  0
   -5.8718   -0.8513   -1.0076 C   0  0  0  0  0  0  0  0  0  0  0  0
   -6.4267    1.2435   -0.0325 C   0  0  0  0  0  0  0  0  0  0  0  0
    5.5265   -1.1951    0.4883 C   0  0  0  0  0  0  0  0  0  0  0  0
   -7.1658   -1.1538   -1.1513 C   0  0  0  0  0  0  0  0  0  0  0  0
    6.8007   -0.3571    0.3855 C   0  0  0  0  0  0  0  0  0  0  0  0
    5.5043    1.1600   -1.2090 C   0  0  0  0  0  0  0  0  0  0  0  0
    6.8080    0.3879   -0.9491 C   0  0  0  0  0  0  0  0  0  0  0  0
   -8.2120   -0.2064   -0.7133 C   0  0  0  0  0  0  0  0  0  0  0  0
    5.3345    2.4659   -0.4335 C   0  0  0  0  0  0  0  0  0  0  0  0
  1 11  1  0
  2 20  1  0
  2 31  1  0
  3 26  2  0
  4 31  1  0
  4 37  1  0
  5 33  1  0
  5 39  1  0
  6 34  1  0
  7 36  1  0
  8 38  1  0
  9 39  2  0
 10 40  1  0
 11 12  1  0
 11 13  1  0
 11 19  1  0
 12 16  1  0
 12 17  1  0
 12 24  1  0
 13 14  1  0
 13 21  1  0
 14 15  1  0
 14 18  1  0
 15 20  1  0
 15 25  1  0
 15 26  1  0
 16 18  1  0
 17 22  1  0
 17 27  1  0
 19 22  1  0
 20 23  1  0
 20 28  1  0
 21 23  1  0
 25 29  1  0
 27 32  1  0
 27 33  2  0
 28 30  2  0
 29 30  1  0
 31 34  1  0
 32 35  2  0
 34 36  1  0
 35 39  1  0
 36 38  1  0
 37 38  1  0
 37 40  1  0
M  END
>  <PUBCHEM_COMPOUND_CID>  (1) 
10525

>  <PUBCHEM_CONFORMER_RMSD>  (1) 
1

>  <PUBCHEM_CONFORMER_DIVERSEORDER>  (1) 
1
25
21
17
6
15
18
12
23
26
9
10
20
2
11
3
19
24
8
14
4
27
13
7
22
16
5

>  <PUBCHEM_MMFF94_PARTIAL_CHARGES>  (1) 
40
1 -0.68
10 -0.68
11 0.28
15 0.06
17 0.14
2 -0.56
20 0.42
26 0.45
27 -0.14
28 -0.29
29 0.14
3 -0.57
30 -0.29
31 0.56
32 -0.15
33 -0.07
34 0.28
35 -0.14
36 0.28
37 0.28
38 0.28
39 0.71
4 -0.56
40 0.28
5 -0.23
6 -0.68
61 0.4
62 0.06
63 0.15
66 0.15
68 0.15
69 0.15
7 -0.68
71 0.15
75 0.4
78 0.4
79 0.4
8 -0.68
80 0.4
9 -0.57

>  <PUBCHEM_EFFECTIVE_ROTOR_COUNT>  (1) 
8

>  <PUBCHEM_PHARMACOPHORE_FEATURES>  (1) 
20
1 1 acceptor
1 1 donor
1 10 acceptor
1 10 donor
1 2 acceptor
1 3 acceptor
1 4 acceptor
1 6 acceptor
1 6 donor
1 7 acceptor
1 7 donor
1 8 acceptor
1 8 donor
1 9 acceptor
5 11 12 17 19 22 rings
6 11 12 13 14 16 18 rings
6 13 14 15 20 21 23 rings
6 15 20 25 28 29 30 rings
6 4 31 34 36 37 38 rings
6 5 27 32 33 35 39 rings

>  <PUBCHEM_HEAVY_ATOM_COUNT>  (1) 
40

>  <PUBCHEM_ATOM_DEF_STEREO_COUNT>  (1) 
7

>  <PUBCHEM_ATOM_UDEF_STEREO_COUNT>  (1) 
5

>  <PUBCHEM_BOND_DEF_STEREO_COUNT>  (1) 
0

>  <PUBCHEM_BOND_UDEF_STEREO_COUNT>  (1) 
0

>  <PUBCHEM_ISOTOPIC_ATOM_COUNT>  (1) 
0

>  <PUBCHEM_COMPONENT_COUNT>  (1) 
1

>  <PUBCHEM_CACTVS_TAUTO_COUNT>  (1) 
1

>  <PUBCHEM_CONFORMER_ID>  (1) 
0000291D00000001

>  <PUBCHEM_MMFF94_ENERGY>  (1) 
173.4812

>  <PUBCHEM_FEATURE_SELFOVERLAP>  (1) 
101.868

>  <PUBCHEM_SHAPE_FINGERPRINT>  (1) 
10076449 9 18131351930100768505
10674148 151 8718825392786099302
11421498 54 14476969943101113538
11963148 33 17775275063165051111
12422481 6 16877944893732078366
13150687 139 18334585633245804718
13617811 41 17489871544002660256
13673619 4 14045743707828117859
13782708 43 15339121221154754486
13811026 1 18113901546010859875
13914758 101 17458340806466887941
14068700 675 18201719557276673729
14118638 360 16702027427150179679
14294032 229 17988370260745452225
15082195 135 17846227682734731292
15131766 46 16807872099024626436
15183329 4 18410296917238798456
15461852 350 18408327709035441775
15840311 113 17821731641588427622
15849732 13 15791451522009344819
16728433 281 18047740509556627941
18365409 1 18041285481655687067
18608769 82 16128649782623165719
18681886 176 17418082244219223819
19301679 30 10231494998783549124
19319366 153 18261104146302466435
20105231 36 15195567914207897285
21033648 29 16371009675904193320
21223535 225 16009581362396769415
21344244 181 14333416648891309964
22149856 69 17274834514956857979
23559900 14 18187363285655550457
23569917 315 18201160941003549406
23569943 247 16412694163426717174
23576562 1 18196936784262899357
249057 3 15430042058949994731
2747138 104 16845570933081849475
34797466 226 14620507939385859650
3633792 109 18114461175785977106
4093350 32 15068609466421494688
4098825 35 18188484676031225165
4149490 64 17967255265695611027
4325135 7 18272089400754234845
437795 51 14405178473879345942
54039377 194 11095898055535391028
59755656 215 17775847908664462495
6081469 158 15502368998776646068
6371009 1 18334862714175552940
77296 10 17895203241623175298

>  <PUBCHEM_SHAPE_MULTIPOLES>  (1) 
764.49
21.19
2.55
1.87
12.89
0.19
-0.06
-4.05
-5.22
-1.17
0.18
-0.56
0.32
-1.78

>  <PUBCHEM_SHAPE_SELFOVERLAP>  (1) 
1663.583

>  <PUBCHEM_SHAPE_VOLUME>  (1) 
407

>  <PUBCHEM_COORDINATE_TYPE>  (1) 
2
5
10

$$$$
