10522
     RDKit          3D

 21 22  0  0  0  0  0  0  0  0999 V2000
    5.7392   -1.0146   -0.5615 Cl  0  0  0  0  0  0  0  0  0  0  0  0
   -3.8024   -3.8768   -0.4263 Cl  0  0  0  0  0  0  0  0  0  0  0  0
   -0.1131    1.0945    1.8689 O   0  0  0  0  0  0  0  0  0  0  0  0
   -1.7107    2.1633    0.0970 O   0  0  0  0  0  0  0  0  0  0  0  0
    0.2833    2.5981   -0.9627 O   0  0  0  0  0  0  0  0  0  0  0  0
    0.0628    0.6202    0.5033 C   0  0  0  0  0  0  0  0  0  0  0  0
    1.4736    0.2149    0.2384 C   0  0  0  0  0  0  0  0  0  0  0  0
   -0.9327   -0.5365    0.2644 C   0  0  0  0  0  0  0  0  0  0  0  0
   -0.4014    1.9090   -0.2159 C   0  0  0  0  0  0  0  0  0  0  0  0
    1.8435   -0.2357   -1.0287 C   0  0  0  0  0  0  0  0  0  0  0  0
   -1.2291   -1.3592    1.3177 C   0  0  0  0  0  0  0  0  0  0  0  0
    2.4227    0.2855    1.2583 C   0  0  0  0  0  0  0  0  0  0  0  0
   -1.4658   -0.6792   -0.9885 C   0  0  0  0  0  0  0  0  0  0  0  0
    3.1625   -0.6159   -1.2760 C   0  0  0  0  0  0  0  0  0  0  0  0
   -2.1272   -2.4045    1.1016 C   0  0  0  0  0  0  0  0  0  0  0  0
    3.7419   -0.0946    1.0108 C   0  0  0  0  0  0  0  0  0  0  0  0
   -2.3640   -1.7244   -1.2047 C   0  0  0  0  0  0  0  0  0  0  0  0
    4.1119   -0.5452   -0.2564 C   0  0  0  0  0  0  0  0  0  0  0  0
   -2.6948   -2.5870   -0.1596 C   0  0  0  0  0  0  0  0  0  0  0  0
   -2.2799    3.3259   -0.5133 C   0  0  0  0  0  0  0  0  0  0  0  0
   -3.7202    3.4619   -0.0671 C   0  0  0  0  0  0  0  0  0  0  0  0
  1 18  1  0
  2 19  1  0
  3  6  1  0
  4  9  1  0
  4 20  1  0
  5  9  2  0
  6  7  1  0
  6  8  1  0
  6  9  1  0
  7 10  2  0
  7 12  1  0
  8 11  2  0
  8 13  1  0
 10 14  1  0
 11 15  1  0
 12 16  2  0
 13 17  2  0
 14 18  2  0
 15 19  2  0
 16 18  1  0
 17 19  1  0
 20 21  1  0
M  END
>  <PUBCHEM_COMPOUND_CID>  (1) 
10522

>  <PUBCHEM_CONFORMER_RMSD>  (1) 
0.8

>  <PUBCHEM_CONFORMER_DIVERSEORDER>  (1) 
1
9
11
3
12
10
13
4
5
8
6
2
7

>  <PUBCHEM_MMFF94_PARTIAL_CHARGES>  (1) 
29
1 -0.18
10 -0.15
11 -0.15
12 -0.15
13 -0.15
14 -0.15
15 -0.15
16 -0.15
17 -0.15
18 0.18
19 0.18
2 -0.18
20 0.28
22 0.15
23 0.15
24 0.15
25 0.15
26 0.4
27 0.15
28 0.15
29 0.15
3 -0.68
30 0.15
4 -0.43
5 -0.57
6 0.63
7 -0.14
8 -0.14
9 0.66

>  <PUBCHEM_EFFECTIVE_ROTOR_COUNT>  (1) 
5

>  <PUBCHEM_PHARMACOPHORE_FEATURES>  (1) 
5
1 3 acceptor
1 3 donor
1 5 acceptor
6 7 10 12 14 16 18 rings
6 8 11 13 15 17 19 rings

>  <PUBCHEM_HEAVY_ATOM_COUNT>  (1) 
21

>  <PUBCHEM_ATOM_DEF_STEREO_COUNT>  (1) 
0

>  <PUBCHEM_ATOM_UDEF_STEREO_COUNT>  (1) 
0

>  <PUBCHEM_BOND_DEF_STEREO_COUNT>  (1) 
0

>  <PUBCHEM_BOND_UDEF_STEREO_COUNT>  (1) 
0

>  <PUBCHEM_ISOTOPIC_ATOM_COUNT>  (1) 
0

>  <PUBCHEM_COMPONENT_COUNT>  (1) 
1

>  <PUBCHEM_CACTVS_TAUTO_COUNT>  (1) 
1

>  <PUBCHEM_CONFORMER_ID>  (1) 
0000291A00000001

>  <PUBCHEM_MMFF94_ENERGY>  (1) 
56.377

>  <PUBCHEM_FEATURE_SELFOVERLAP>  (1) 
25.372

>  <PUBCHEM_SHAPE_FINGERPRINT>  (1) 
11101153 10 18117851104397281348
11578080 2 17845933056009433313
116883 192 18339920523687288237
12293681 4 18339345466711689831
12363563 72 18265334095623546422
12500047 106 18266740182432992692
12532896 13 18196081145389259365
12553582 1 18189909784175581650
12633257 1 14692021339577431270
12714826 92 18201731651814089654
12788726 201 18262249892645658305
13052359 8 18337386033547761021
13149001 5 18200860795365782656
13681431 1 17903073678924876765
13757389 114 18192164710751988388
13899415 180 18124297566123096463
13911987 19 17033902118081141532
13955234 65 17186165808574163651
15906896 17 18187656747468707257
16752209 62 18335133159675682419
16945 1 18410008814911083841
17357779 13 18201423835354579566
17539 30 18411415120416300463
1813 80 18126582329515223342
19591789 44 17977942385219451191
20361792 2 18267870673185530326
20567600 347 17904205828452370053
20602899 9 17983019950864070816
20645477 70 17687458379514473527
21041028 32 18264771154723588349
21344244 181 17842282467457851215
21452121 199 18048589610259426589
21524375 3 17903357004842717865
22224240 67 18197222447666647473
2255824 54 17044014360975661967
22620623 9 18413392020769083734
23419403 2 17345737702988937105
23557571 272 18190726725720346856
23558518 356 18261391182691600024
23559900 14 18127688241619956326
23598288 3 18116456815218060780
266924 87 17974295626878040460
298252 57 17971760969012774865
3729539 64 17332538873583933550
3759504 43 18190746323434695645
458136 41 17619917158394397577
59755656 520 18123183511340209484
633830 44 11098943719222826635
6669772 16 17909549454377981487
7364860 26 17399790991922513057
81228 2 18408315597053424681

>  <PUBCHEM_SHAPE_MULTIPOLES>  (1) 
418.3
7.86
4.16
1.35
9.35
1.67
0.25
-4.14
-1.41
-8.2
-0.65
0.27
-0.2
0.34

>  <PUBCHEM_SHAPE_SELFOVERLAP>  (1) 
877.483

>  <PUBCHEM_SHAPE_VOLUME>  (1) 
238

>  <PUBCHEM_COORDINATE_TYPE>  (1) 
2
5
10

$$$$
