10520
     RDKit          3D

 26 27  0  0  0  0  0  0  0  0999 V2000
    1.8093   -0.1227    2.1377 O   0  0  0  0  0  0  0  0  0  0  0  0
   -0.0239   -1.7647    0.0104 O   0  0  0  0  0  0  0  0  0  0  0  0
   -4.3861   -0.3672   -0.1677 N   0  0  0  0  0  0  0  0  0  0  0  0
   -0.8832    0.0465    1.1845 N   0  0  0  0  0  0  0  0  0  0  0  0
   -2.9586    0.1584   -0.1200 C   0  0  0  0  0  0  0  0  0  0  0  0
   -4.3651   -1.8872   -0.2404 C   0  0  0  0  0  0  0  0  0  0  0  0
   -5.0907    0.1898   -1.3963 C   0  0  0  0  0  0  0  0  0  0  0  0
   -5.1300    0.0704    1.0858 C   0  0  0  0  0  0  0  0  0  0  0  0
   -2.2547   -0.3782    1.1124 C   0  0  0  0  0  0  0  0  0  0  0  0
   -5.7865   -2.4035   -0.2877 C   0  0  0  0  0  0  0  0  0  0  0  0
   -5.1085    1.7007   -1.3183 C   0  0  0  0  0  0  0  0  0  0  0  0
    1.6248   -0.1475    0.7120 C   0  0  0  0  0  0  0  0  0  0  0  0
    0.1776   -0.6995    0.6096 C   0  0  0  0  0  0  0  0  0  0  0  0
   -0.6632    1.3127    1.8993 C   0  0  0  0  0  0  0  0  0  0  0  0
    1.7566    1.2837    0.1478 C   0  0  0  0  0  0  0  0  0  0  0  0
    2.6890   -1.0336    0.0575 C   0  0  0  0  0  0  0  0  0  0  0  0
    1.0367    1.6041   -0.9721 C   0  0  0  0  0  0  0  0  0  0  0  0
    2.6711   -1.1811   -1.3097 C   0  0  0  0  0  0  0  0  0  0  0  0
    2.5860    2.1590    0.7968 C   0  0  0  0  0  0  0  0  0  0  0  0
    3.6205   -1.6461    0.8628 C   0  0  0  0  0  0  0  0  0  0  0  0
    1.1555    2.8970   -1.4819 C   0  0  0  0  0  0  0  0  0  0  0  0
    3.6403   -1.9878   -1.9059 C   0  0  0  0  0  0  0  0  0  0  0  0
    2.7046    3.4520    0.2871 C   0  0  0  0  0  0  0  0  0  0  0  0
    4.5897   -2.4528    0.2664 C   0  0  0  0  0  0  0  0  0  0  0  0
    1.9892    3.8210   -0.8522 C   0  0  0  0  0  0  0  0  0  0  0  0
    4.5996   -2.6235   -1.1179 C   0  0  0  0  0  0  0  0  0  0  0  0
  1 12  1  0
  2 13  2  0
  3  5  1  0
  3  6  1  0
  3  7  1  0
  3  8  1  0
  4  9  1  0
  4 13  1  0
  4 14  1  0
  5  9  1  0
  6 10  1  0
  7 11  1  0
 12 13  1  0
 12 15  1  0
 12 16  1  0
 15 17  2  0
 15 19  1  0
 16 18  2  0
 16 20  1  0
 17 21  1  0
 18 22  1  0
 19 23  2  0
 20 24  2  0
 21 25  2  0
 22 26  2  0
 23 25  1  0
 24 26  1  0
M  CHG  1   3   1
M  END
>  <PUBCHEM_COMPOUND_CID>  (1) 
10520

>  <PUBCHEM_CONFORMER_RMSD>  (1) 
1

>  <PUBCHEM_CONFORMER_DIVERSEORDER>  (1) 
1
22
5
14
29
41
40
36
24
8
25
38
3
27
32
12
31
17
43
20
26
4
2
37
15
21
30
16
7
11
28
6
13
34
35
9
33
23
18
19
10
39
42

>  <PUBCHEM_MMFF94_PARTIAL_CHARGES>  (1) 
35
1 -0.68
12 0.63
13 0.57
14 0.3
15 -0.14
16 -0.14
17 -0.15
18 -0.15
19 -0.15
2 -0.57
20 -0.15
21 -0.15
22 -0.15
23 -0.15
24 -0.15
25 -0.15
26 -0.15
3 -1.01
4 -0.66
47 0.4
48 0.15
49 0.15
5 0.5
50 0.15
51 0.15
52 0.15
53 0.15
54 0.15
55 0.15
56 0.15
57 0.15
6 0.5
7 0.5
8 0.5
9 0.3

>  <PUBCHEM_EFFECTIVE_ROTOR_COUNT>  (1) 
9

>  <PUBCHEM_PHARMACOPHORE_FEATURES>  (1) 
6
1 1 acceptor
1 1 donor
1 2 acceptor
1 3 cation
6 15 17 19 21 23 25 rings
6 16 18 20 22 24 26 rings

>  <PUBCHEM_HEAVY_ATOM_COUNT>  (1) 
26

>  <PUBCHEM_ATOM_DEF_STEREO_COUNT>  (1) 
0

>  <PUBCHEM_ATOM_UDEF_STEREO_COUNT>  (1) 
0

>  <PUBCHEM_BOND_DEF_STEREO_COUNT>  (1) 
0

>  <PUBCHEM_BOND_UDEF_STEREO_COUNT>  (1) 
0

>  <PUBCHEM_ISOTOPIC_ATOM_COUNT>  (1) 
0

>  <PUBCHEM_COMPONENT_COUNT>  (1) 
1

>  <PUBCHEM_CACTVS_TAUTO_COUNT>  (1) 
1

>  <PUBCHEM_CONFORMER_ID>  (1) 
0000291800000001

>  <PUBCHEM_MMFF94_ENERGY>  (1) 
102.2317

>  <PUBCHEM_FEATURE_SELFOVERLAP>  (1) 
30.446

>  <PUBCHEM_SHAPE_FINGERPRINT>  (1) 
10930396 42 18190718918440676290
11405975 8 18411139130608594995
12422481 6 18122030291742619592
12616971 3 18131361799914717331
12788726 201 17753893814248659850
13009979 54 17988096499165521344
13134695 92 18334587819278182572
133893 2 18121813683477592944
13899415 180 18336817598736389230
14347329 18 15792844504684304637
14739800 52 12252464522069982111
14863182 85 17916863655324212522
15163728 17 17390806813687620388
15210252 30 16443355242998558564
15238133 3 16805595924158478216
15775530 1 17608396818802309242
17357779 13 18268422434922985260
17492 89 18337388344351312783
17844677 252 18407759244797244523
17980427 23 17916876720266827184
1813 80 18269844133680778206
18186145 218 18259987080868005971
18222031 100 18270123405603276210
20645477 70 18341898527677985203
20775438 99 18045775951731505235
21304303 282 16977562047357736380
21709351 56 18410286996117617439
22149856 69 17983872344003613883
22393880 68 18187356619792129071
23419403 2 17842528822539833832
23559900 14 18341607118589625099
249057 3 18339078169427388581
3004659 81 18273501186711794451
312423 11 18130521798489475489
340366 18 18413105061356851199
376196 1 17828759882748233552
4017518 198 17911532197321364540
4280585 95 18337668599335498986
44802255 64 17034189078242967532
46194498 28 18335421322201394143
5081480 168 18189356626784369045
5281201 14 18334294297129060205
59755656 215 18263083382752955492
6823239 73 18260539000913277525
7471813 234 18131350778195458696
9709674 26 18187927343620278593
9841814 1 18260824891390246778

>  <PUBCHEM_SHAPE_MULTIPOLES>  (1) 
513.37
11.5
3.92
1.69
16.51
2.68
-0.05
-7.45
3.11
-4.41
1.31
-0.28
0.2
0.86

>  <PUBCHEM_SHAPE_SELFOVERLAP>  (1) 
1069.543

>  <PUBCHEM_SHAPE_VOLUME>  (1) 
292

>  <PUBCHEM_COORDINATE_TYPE>  (1) 
2
5
10

$$$$
