10523
     RDKit          3D

 21 22  0  0  1  0  0  0  0  0999 V2000
    4.0031    0.5021   -1.8341 O   0  0  0  0  0  0  0  0  0  0  0  0
   -0.6128    0.5454    0.4606 O   0  0  0  0  0  0  0  0  0  0  0  0
   -4.0925    0.6223    0.5518 O   0  0  0  0  0  0  0  0  0  0  0  0
   -2.0183    0.2162    2.2507 O   0  0  0  0  0  0  0  0  0  0  0  0
   -3.6556   -2.0185    0.9572 O   0  0  0  0  0  0  0  0  0  0  0  0
    3.7083    0.1516   -0.5503 N   0  0  0  0  0  0  0  0  0  0  0  0
    2.2054   -0.0729   -0.3651 C   0  0  0  0  0  0  0  0  0  0  0  0
    1.7334    1.0542    0.5559 C   0  0  0  0  0  0  0  0  0  0  0  0
    4.0883    1.2554    0.4098 C   0  0  0  0  0  0  0  0  0  0  0  0
    2.0661   -1.5045    0.1512 C   0  0  0  0  0  0  0  0  0  0  0  0
    4.3613   -1.1646   -0.1980 C   0  0  0  0  0  0  0  0  0  0  0  0
    2.9593    1.3211    1.4209 C   0  0  0  0  0  0  0  0  0  0  0  0
    3.2812   -2.1996   -0.4286 C   0  0  0  0  0  0  0  0  0  0  0  0
    0.4765    0.7703    1.3609 C   0  0  0  0  0  0  0  0  0  0  0  0
   -2.8999    0.0619   -0.0212 C   0  0  0  0  0  0  0  0  0  0  0  0
   -1.8166    0.2760    1.0433 C   0  0  0  0  0  0  0  0  0  0  0  0
   -2.6088    0.8815   -1.3142 C   0  0  0  0  0  0  0  0  0  0  0  0
   -3.1515   -1.4494   -0.2575 C   0  0  0  0  0  0  0  0  0  0  0  0
   -2.5061    2.3954   -1.1072 C   0  0  0  0  0  0  0  0  0  0  0  0
   -3.6185    0.5920   -2.4375 C   0  0  0  0  0  0  0  0  0  0  0  0
   -1.9025   -2.2359   -0.6487 C   0  0  0  0  0  0  0  0  0  0  0  0
  1  6  1  0
  2 14  1  0
  2 16  1  0
  3 15  1  0
  4 16  2  0
  5 18  1  0
  6  7  1  0
  6  9  1  0
  6 11  1  0
  7  8  1  0
  7 10  1  0
  8 12  1  0
  8 14  1  0
  9 12  1  0
 10 13  1  0
 11 13  1  0
 15 16  1  0
 15 17  1  0
 15 18  1  0
 17 19  1  0
 17 20  1  0
 18 21  1  0
M  CHG  2   1  -1   6   1
M  END
>  <PUBCHEM_COMPOUND_CID>  (1) 
10523

>  <PUBCHEM_CONFORMER_RMSD>  (1) 
0.8

>  <PUBCHEM_CONFORMER_DIVERSEORDER>  (1) 
1
335
169
66
82
344
245
88
32
451
443
61
307
264
304
236
28
396
281
75
270
387
400
218
419
237
25
271
60
408
150
398
391
130
128
21
314
83
67
223
257
14
367
415
98
239
108
427
283
422
326
177
368
438
79
7
233
374
350
349
146
417
352
112
155
364
433
231
188
275
168
310
450
426
182
199
347
202
68
164
221
434
159
363
134
308
11
76
348
384
382
35
129
92
260
435
337
190
397
53
30
411
273
321
193
184
388
74
369
47
220
277
180
200
41
174
448
278
54
252
432
336
306
90
38
403
122
359
365
115
261
228
170
393
20
410
265
197
339
445
24
126
282
424
15
449
49
404
315
13
84
219
395
36
267
383
345
195
334
70
43
157
379
133
175
429
87
251
65
442
225
401
354
194
96
416
392
9
45
394
48
136
103
58
238
34
341
358
211
213
286
191
371
244
329
101
378
105
440
172
405
258
279
253
328
303
2
3
263
375
305
99
437
406
412
46
289
162
322
121
73
104
288
313
227
224
255
413
201
138
89
52
407
178
154
161
284
248
149
100
439
132
12
293
428
447
420
51
247
131
63
163
165
125
266
106
203
418
320
370
254
55
145
26
29
81
431
44
319
72
217
409
37
377
425
215
376
77
42
274
17
240
196
148
158
143
64
269
323
144
210
94
436
294
331
250
97
290
206
241
19
291
234
153
360
85
22
242
333
296
246
332
256
192
151
295
181
316
292
362
139
95
229
243
140
93
324
389
187
216
198
10
186
102
373
346
302
86
207
356
183
381
23
317
40
232
114
27
179
357
301
209
69
259
166
402
330
50
262
214
222
189
18
276
423
366
110
127
340
78
205
380
372
62
173
71
249
176
343
141
272
109
399
113
287
171
311
235
204
116
325
353
4
124
56
299
120
226
421
167
318
230
152
385
351
31
80
185
327
212
156
444
137
280
117
135
6
342
57
386
298
16
33
285
59
300
390
414
39
107
361
312
111
8
91
446
268
147
142
355
441
430
160
309
338
297
208
5
119
123
118

>  <PUBCHEM_MMFF94_PARTIAL_CHARGES>  (1) 
15
1 -0.75
11 0.26
14 0.28
15 0.34
16 0.66
18 0.28
2 -0.43
3 -0.68
4 -0.57
44 0.4
48 0.4
5 -0.68
6 -0.02
7 0.26
9 0.26

>  <PUBCHEM_EFFECTIVE_ROTOR_COUNT>  (1) 
7.2

>  <PUBCHEM_PHARMACOPHORE_FEATURES>  (1) 
9
1 1 anion
1 3 acceptor
1 3 donor
1 4 acceptor
1 5 acceptor
1 5 donor
3 17 19 20 hydrophobe
5 6 7 10 11 13 rings
5 6 7 8 9 12 rings

>  <PUBCHEM_HEAVY_ATOM_COUNT>  (1) 
21

>  <PUBCHEM_ATOM_DEF_STEREO_COUNT>  (1) 
3

>  <PUBCHEM_ATOM_UDEF_STEREO_COUNT>  (1) 
2

>  <PUBCHEM_BOND_DEF_STEREO_COUNT>  (1) 
0

>  <PUBCHEM_BOND_UDEF_STEREO_COUNT>  (1) 
0

>  <PUBCHEM_ISOTOPIC_ATOM_COUNT>  (1) 
0

>  <PUBCHEM_COMPONENT_COUNT>  (1) 
1

>  <PUBCHEM_CACTVS_TAUTO_COUNT>  (1) 
1

>  <PUBCHEM_CONFORMER_ID>  (1) 
0000291B00000001

>  <PUBCHEM_MMFF94_ENERGY>  (1) 
55.4345

>  <PUBCHEM_FEATURE_SELFOVERLAP>  (1) 
46.082

>  <PUBCHEM_SHAPE_FINGERPRINT>  (1) 
10498660 4 17676757708855720981
11759241 127 18044090383141288108
12173636 292 18340204094824394981
12553582 1 16128655283859261616
12596599 1 16343980325317430007
12707595 3 17775567546173620824
128620 24 18337955687623261138
13224815 77 18260827111666837674
13296908 3 18201997759017890272
14251751 93 18114460076385339955
14289901 80 18040438793408573806
15788980 27 17822006493788831962
18186145 218 18343866619400783176
19433438 38 18334292093457455058
19862831 5 18130783430263629962
200 152 17489580173526313697
20442098 301 16343706517110582164
20645477 70 17561078111998611492
21475661 188 11822326550153892695
21713013 43 18410016545683515686
221490 88 18341899601915726770
22646028 28 16415184694084871405
23402539 116 17385433328838033332
235170 7 18334288812007540956
23557571 272 18114169882799026801
23559900 14 18342451543920482280
312425 83 17676493817712497198
3268164 11 17313097575279463613
3472631 163 16877932811730417509
4028521 119 17458898237350488941
4921388 177 18113336423125993499
5161694 15 18041840610477936494
5281201 14 17895482431814181116
58051976 100 18411144636250285601

>  <PUBCHEM_SHAPE_MULTIPOLES>  (1) 
397.84
9.17
2.2
1.74
2.87
0.82
0.28
0.65
2.17
-0.17
0.13
-1.23
-0.54
1.18

>  <PUBCHEM_SHAPE_SELFOVERLAP>  (1) 
808.998

>  <PUBCHEM_SHAPE_VOLUME>  (1) 
232.2

>  <PUBCHEM_COORDINATE_TYPE>  (1) 
2
5
10

$$$$
