10535
     RDKit          3D

  9  8  0  0  0  0  0  0  0  0999 V2000
   -0.0930   -1.6722   -1.5245 Br  0  0  0  0  0  0  0  0  0  0  0  0
    1.5008   -0.2656    1.5823 O   0  0  0  0  0  0  0  0  0  0  0  0
    2.2903   -0.0166   -0.5431 N   0  0  0  0  0  0  0  0  0  0  0  0
   -0.1526   -0.1839   -0.2051 C   0  0  0  0  0  0  0  0  0  0  0  0
   -0.5183    1.1030   -0.9694 C   0  0  0  0  0  0  0  0  0  0  0  0
   -1.1659   -0.5813    0.8954 C   0  0  0  0  0  0  0  0  0  0  0  0
    1.2745   -0.1610    0.3762 C   0  0  0  0  0  0  0  0  0  0  0  0
   -0.4988    2.3571   -0.1023 C   0  0  0  0  0  0  0  0  0  0  0  0
   -2.6370   -0.5794    0.4904 C   0  0  0  0  0  0  0  0  0  0  0  0
  1  4  1  0
  2  7  2  0
  3  7  1  0
  4  5  1  0
  4  6  1  0
  4  7  1  0
  5  8  1  0
  6  9  1  0
M  END
>  <PUBCHEM_COMPOUND_CID>  (1) 
10535

>  <PUBCHEM_CONFORMER_RMSD>  (1) 
0.6

>  <PUBCHEM_CONFORMER_DIVERSEORDER>  (1) 
1
18
13
5
6
22
8
15
21
16
14
9
19
3
7
17
10
2
12
11
20
4

>  <PUBCHEM_MMFF94_PARTIAL_CHARGES>  (1) 
7
1 -0.23
2 -0.57
20 0.37
21 0.37
3 -0.8
4 0.29
7 0.57

>  <PUBCHEM_EFFECTIVE_ROTOR_COUNT>  (1) 
3

>  <PUBCHEM_PHARMACOPHORE_FEATURES>  (1) 
5
1 1 hydrophobe
1 2 acceptor
1 3 donor
1 8 hydrophobe
1 9 hydrophobe

>  <PUBCHEM_HEAVY_ATOM_COUNT>  (1) 
9

>  <PUBCHEM_ATOM_DEF_STEREO_COUNT>  (1) 
0

>  <PUBCHEM_ATOM_UDEF_STEREO_COUNT>  (1) 
0

>  <PUBCHEM_BOND_DEF_STEREO_COUNT>  (1) 
0

>  <PUBCHEM_BOND_UDEF_STEREO_COUNT>  (1) 
0

>  <PUBCHEM_ISOTOPIC_ATOM_COUNT>  (1) 
0

>  <PUBCHEM_COMPONENT_COUNT>  (1) 
1

>  <PUBCHEM_CACTVS_TAUTO_COUNT>  (1) 
2

>  <PUBCHEM_CONFORMER_ID>  (1) 
0000292700000001

>  <PUBCHEM_MMFF94_ENERGY>  (1) 
17.9958

>  <PUBCHEM_FEATURE_SELFOVERLAP>  (1) 
25.373

>  <PUBCHEM_SHAPE_FINGERPRINT>  (1) 
10219947 1 18270415974190089243
12423570 1 17911831224425660206
137420 1 11390256958685528901
14993402 34 18199195164129615919
16945 1 16660648513191339011
20653091 64 17752790170761806345
21040471 1 17613427848897943748
21922407 69 17023468525732116464
21930827 45 17761222015791386469
23552333 60 16515396365688926704
29004967 10 13984668070024403931
5084963 1 18201159858180250858
5943 1 15248300379695122407
68250623 7 17899432895467549158

>  <PUBCHEM_SHAPE_MULTIPOLES>  (1) 
180.31
2.44
1.9
1.41
0.36
0.52
-0.13
-0.36
-0.77
0.31
1.01
-0.16
-0.19
0.23

>  <PUBCHEM_SHAPE_SELFOVERLAP>  (1) 
321.873

>  <PUBCHEM_SHAPE_VOLUME>  (1) 
119.8

>  <PUBCHEM_COORDINATE_TYPE>  (1) 
2
5
10

$$$$
