10556
     RDKit          3D

  5  4  0  0  0  0  0  0  0  0999 V2000
   -2.1504    0.0383    0.5558 I   0  0  0  0  0  0  0  0  0  0  0  0
    0.7688   -0.0103   -0.4240 C   0  0  0  0  0  0  0  0  0  0  0  0
   -0.6607   -0.1114   -0.9823 C   0  0  0  0  0  0  0  0  0  0  0  0
    0.9937    1.2882    0.3569 C   0  0  0  0  0  0  0  0  0  0  0  0
    1.0486   -1.2049    0.4937 C   0  0  0  0  0  0  0  0  0  0  0  0
  1  3  1  0
  2  3  1  0
  2  4  1  0
  2  5  1  0
M  END
>  <PUBCHEM_COMPOUND_CID>  (1) 
10556

>  <PUBCHEM_CONFORMER_RMSD>  (1) 
0.4

>  <PUBCHEM_CONFORMER_DIVERSEORDER>  (1) 
1

>  <PUBCHEM_MMFF94_PARTIAL_CHARGES>  (1) 
2
1 -0.19
3 0.19

>  <PUBCHEM_EFFECTIVE_ROTOR_COUNT>  (1) 
1

>  <PUBCHEM_PHARMACOPHORE_FEATURES>  (1) 
2
1 1 hydrophobe
3 2 4 5 hydrophobe

>  <PUBCHEM_HEAVY_ATOM_COUNT>  (1) 
5

>  <PUBCHEM_ATOM_DEF_STEREO_COUNT>  (1) 
0

>  <PUBCHEM_ATOM_UDEF_STEREO_COUNT>  (1) 
0

>  <PUBCHEM_BOND_DEF_STEREO_COUNT>  (1) 
0

>  <PUBCHEM_BOND_UDEF_STEREO_COUNT>  (1) 
0

>  <PUBCHEM_ISOTOPIC_ATOM_COUNT>  (1) 
0

>  <PUBCHEM_COMPONENT_COUNT>  (1) 
1

>  <PUBCHEM_CACTVS_TAUTO_COUNT>  (1) 
1

>  <PUBCHEM_CONFORMER_ID>  (1) 
0000293C00000001

>  <PUBCHEM_MMFF94_ENERGY>  (1) 
6.6268

>  <PUBCHEM_FEATURE_SELFOVERLAP>  (1) 
10.149

>  <PUBCHEM_SHAPE_FINGERPRINT>  (1) 
139733 1 12894771632857792015
20096714 4 17845940748332341017
24536 1 17274833419655489353
29004967 10 18188489068964792562
5943 1 15728398128995860270

>  <PUBCHEM_SHAPE_MULTIPOLES>  (1) 
114.83
2.5
1.24
1.03
1.67
0.08
0.12
0.02
-0.55
-0.55
-0.27
0.14
-0.05
-0.05

>  <PUBCHEM_SHAPE_SELFOVERLAP>  (1) 
177.569

>  <PUBCHEM_SHAPE_VOLUME>  (1) 
85.8

>  <PUBCHEM_COORDINATE_TYPE>  (1) 
2
5
10

$$$$
