10550
     RDKit          3D

 11 12  0  0  1  0  0  0  0  0999 V2000
   -2.2907    1.6091    0.2985 O   0  0  0  0  0  0  0  0  0  0  0  0
    0.5539    0.2904   -0.0234 C   0  0  0  0  0  0  0  0  0  0  0  0
   -0.1988   -0.7199    0.7740 C   0  0  0  0  0  0  0  0  0  0  0  0
    0.4083    0.4748    1.4637 C   0  0  0  0  0  0  0  0  0  0  0  0
   -1.6374   -0.7372    0.3063 C   0  0  0  0  0  0  0  0  0  0  0  0
   -0.3863    0.9241   -1.0094 C   0  0  0  0  0  0  0  0  0  0  0  0
   -1.7987    0.5555   -0.5272 C   0  0  0  0  0  0  0  0  0  0  0  0
    1.9071   -0.0586   -0.5386 C   0  0  0  0  0  0  0  0  0  0  0  0
   -1.9076   -1.9754   -0.5457 C   0  0  0  0  0  0  0  0  0  0  0  0
    2.9420    1.0388   -0.2243 C   0  0  0  0  0  0  0  0  0  0  0  0
    2.4080   -1.4018    0.0259 C   0  0  0  0  0  0  0  0  0  0  0  0
  1  7  1  0
  2  3  1  0
  2  4  1  0
  2  6  1  0
  2  8  1  0
  3  4  1  0
  3  5  1  0
  5  7  1  0
  5  9  1  0
  6  7  1  0
  8 10  1  0
  8 11  1  0
M  END
>  <PUBCHEM_COMPOUND_CID>  (1) 
10550

>  <PUBCHEM_CONFORMER_RMSD>  (1) 
0.4

>  <PUBCHEM_CONFORMER_DIVERSEORDER>  (1) 
4
35
32
14
2
3
31
38
5
40
15
10
34
7
8
28
1
33
24
37
13
6
22
11
25
9
29
26
19
39
18
23
20
36
16
17
27
12
30
21

>  <PUBCHEM_MMFF94_PARTIAL_CHARGES>  (1) 
12
1 -0.68
12 0.1
13 0.1
14 0.1
2 -0.19
29 0.4
3 -0.19
4 -0.2
5 0.09
6 0.09
7 0.28
8 0.09

>  <PUBCHEM_EFFECTIVE_ROTOR_COUNT>  (1) 
1.8

>  <PUBCHEM_PHARMACOPHORE_FEATURES>  (1) 
4
1 1 acceptor
1 1 donor
3 8 10 11 hydrophobe
6 2 3 4 5 6 7 rings

>  <PUBCHEM_HEAVY_ATOM_COUNT>  (1) 
11

>  <PUBCHEM_ATOM_DEF_STEREO_COUNT>  (1) 
0

>  <PUBCHEM_ATOM_UDEF_STEREO_COUNT>  (1) 
4

>  <PUBCHEM_BOND_DEF_STEREO_COUNT>  (1) 
0

>  <PUBCHEM_BOND_UDEF_STEREO_COUNT>  (1) 
0

>  <PUBCHEM_ISOTOPIC_ATOM_COUNT>  (1) 
0

>  <PUBCHEM_COMPONENT_COUNT>  (1) 
1

>  <PUBCHEM_CACTVS_TAUTO_COUNT>  (1) 
1

>  <PUBCHEM_CONFORMER_ID>  (1) 
0000293600000004

>  <PUBCHEM_MMFF94_ENERGY>  (1) 
31.4628

>  <PUBCHEM_FEATURE_SELFOVERLAP>  (1) 
20.297

>  <PUBCHEM_SHAPE_FINGERPRINT>  (1) 
12423570 1 13086224747884410097
12716758 59 18343015549771168042
12897270 3 18263925612717019574
12932764 1 18340782510727981474
13024252 1 15791745095502519084
14128692 85 17983585387693207670
15310529 11 18272088331096192950
16945 1 18265619972861990538
20525323 117 18261393415968637548
20653085 51 18188788144823165448
21040471 1 18265318522256208313
21501502 16 18408600370754630190
21930827 45 18272076193676935105
23235687 12 18335134267924918158
23402539 116 17970335134512451982
23552423 10 18186800270844842930
2748010 2 18260270732813042670
29004967 10 17132116861667243946
369184 2 18342462534251104072
5084963 1 16661784145604850836
528886 8 18259984846941712226
68250623 7 18409167705574437054

>  <PUBCHEM_SHAPE_MULTIPOLES>  (1) 
220.51
3.6
1.66
1.06
1.44
0.37
-0.21
0.06
0.51
-0.57
0.17
-0.03
-0.11
-0.17

>  <PUBCHEM_SHAPE_SELFOVERLAP>  (1) 
451.333

>  <PUBCHEM_SHAPE_VOLUME>  (1) 
132.1

>  <PUBCHEM_COORDINATE_TYPE>  (1) 
2
5
10

$$$$
