10579
     RDKit          3D

 27 30  0  0  0  0  0  0  0  0999 V2000
   -3.9279    1.3987   -0.7232 S   0  0  0  0  0  0  0  0  0  0  0  0
    3.6422    1.4166    0.1351 S   0  0  0  0  0  0  0  0  0  0  0  0
   -4.7827   -0.7609    0.2236 N   0  0  0  0  0  0  0  0  0  0  0  0
    4.9272   -0.9020   -0.2432 N   0  0  0  0  0  0  0  0  0  0  0  0
   -5.8788    0.0719    0.2263 C   0  0  0  0  0  0  0  0  0  0  0  0
    5.9322    0.0676   -0.0627 C   0  0  0  0  0  0  0  0  0  0  0  0
   -4.8404   -2.1275    0.6986 C   0  0  0  0  0  0  0  0  0  0  0  0
    5.2875   -2.2872   -0.4765 C   0  0  0  0  0  0  0  0  0  0  0  0
   -3.7014   -0.2104   -0.2406 C   0  0  0  0  0  0  0  0  0  0  0  0
    3.6489   -0.3454   -0.1674 C   0  0  0  0  0  0  0  0  0  0  0  0
   -5.5941    1.3369   -0.2727 C   0  0  0  0  0  0  0  0  0  0  0  0
    5.4333    1.3720    0.1537 C   0  0  0  0  0  0  0  0  0  0  0  0
   -7.1686   -0.2546    0.6688 C   0  0  0  0  0  0  0  0  0  0  0  0
    7.3095   -0.1318   -0.0773 C   0  0  0  0  0  0  0  0  0  0  0  0
   -6.5849    2.3257   -0.3497 C   0  0  0  0  0  0  0  0  0  0  0  0
    6.2730    2.4592    0.3527 C   0  0  0  0  0  0  0  0  0  0  0  0
   -5.1982   -3.0866   -0.4207 C   0  0  0  0  0  0  0  0  0  0  0  0
    5.4359   -3.0340    0.8093 C   0  0  0  0  0  0  0  0  0  0  0  0
   -2.4281   -0.8591   -0.3494 C   0  0  0  0  0  0  0  0  0  0  0  0
    2.4654   -0.9661   -0.2922 C   0  0  0  0  0  0  0  0  0  0  0  0
   -8.1600    0.7287    0.5937 C   0  0  0  0  0  0  0  0  0  0  0  0
    8.1639    0.9580    0.1220 C   0  0  0  0  0  0  0  0  0  0  0  0
   -7.8716    1.9977    0.0924 C   0  0  0  0  0  0  0  0  0  0  0  0
    7.6496    2.2432    0.3355 C   0  0  0  0  0  0  0  0  0  0  0  0
   -1.2524   -0.2228   -0.2219 C   0  0  0  0  0  0  0  0  0  0  0  0
    1.2000   -0.2805   -0.1941 C   0  0  0  0  0  0  0  0  0  0  0  0
    0.0206   -0.9075   -0.3200 C   0  0  0  0  0  0  0  0  0  0  0  0
  1  9  1  0
  1 11  1  0
  2 10  1  0
  2 12  1  0
  3  5  1  0
  3  7  1  0
  3  9  2  0
  4  6  1  0
  4  8  1  0
  4 10  1  0
  5 11  2  0
  5 13  1  0
  6 12  2  0
  6 14  1  0
  7 17  1  0
  8 18  1  0
  9 19  1  0
 10 20  2  0
 11 15  1  0
 12 16  1  0
 13 21  2  0
 14 22  2  0
 15 23  2  0
 16 24  2  0
 19 25  2  0
 20 26  1  0
 21 23  1  0
 22 24  1  0
 25 27  1  0
 26 27  2  0
M  CHG  1   3   1
M  END
>  <PUBCHEM_COMPOUND_CID>  (1) 
10579

>  <PUBCHEM_CONFORMER_RMSD>  (1) 
0.8

>  <PUBCHEM_CONFORMER_DIVERSEORDER>  (1) 
1
10
5
3
7
2
8
13
9
12
11
4
14
6

>  <PUBCHEM_MMFF94_PARTIAL_CHARGES>  (1) 
38
1 -0.08
10 0.2
11 0.04
12 0.1
13 -0.15
14 -0.15
15 -0.15
16 -0.15
19 -0.11
2 -0.2
20 -0.15
21 -0.15
22 -0.15
23 -0.15
24 -0.15
25 -0.15
26 -0.15
27 -0.15
3 -0.18
32 0.15
33 0.15
34 0.15
35 0.15
4 -0.57
42 0.15
43 0.15
44 0.15
45 0.15
46 0.15
47 0.15
48 0.15
49 0.15
5 0.33
50 0.15
6 0.1
7 0.51
8 0.37
9 0.33

>  <PUBCHEM_EFFECTIVE_ROTOR_COUNT>  (1) 
5.4

>  <PUBCHEM_PHARMACOPHORE_FEATURES>  (1) 
5
1 4 cation
5 1 3 5 9 11 rings
5 2 4 6 10 12 rings
6 5 11 13 15 21 23 rings
6 6 12 14 16 22 24 rings

>  <PUBCHEM_HEAVY_ATOM_COUNT>  (1) 
27

>  <PUBCHEM_ATOM_DEF_STEREO_COUNT>  (1) 
0

>  <PUBCHEM_ATOM_UDEF_STEREO_COUNT>  (1) 
0

>  <PUBCHEM_BOND_DEF_STEREO_COUNT>  (1) 
0

>  <PUBCHEM_BOND_UDEF_STEREO_COUNT>  (1) 
3

>  <PUBCHEM_ISOTOPIC_ATOM_COUNT>  (1) 
0

>  <PUBCHEM_COMPONENT_COUNT>  (1) 
1

>  <PUBCHEM_CACTVS_TAUTO_COUNT>  (1) 
1

>  <PUBCHEM_CONFORMER_ID>  (1) 
0000295300000001

>  <PUBCHEM_MMFF94_ENERGY>  (1) 
74.7381

>  <PUBCHEM_FEATURE_SELFOVERLAP>  (1) 
25.51

>  <PUBCHEM_SHAPE_FINGERPRINT>  (1) 
10 15 18333450941614181961
10066227 112 18343862216827397593
10580692 12 18410012151889526818
10625338 131 18339635629600839872
10835480 77 18412261727010412085
11181472 205 17774452563746707680
11315181 36 17846501435724019579
11719270 70 17917710158628840414
125118 31 18341613685383877256
13383665 225 17968959517524636140
13740195 50 18334866013986446161
14251757 52 18412542107087051528
14347424 109 18337950100409178098
14933364 13 18410293609686374772
15183329 4 16487256573199823976
15419008 145 18189322499728894864
15461852 350 17489583498537766325
1577012 14 18272645757605939143
16989713 51 17273407499415201575
17093844 174 18187365441992402819
18608769 82 18409444812685861492
20157964 124 18341896273516356942
20281389 69 18335702706894113989
21033648 29 18271230725027610840
21130935 74 18333734593865758995
23576562 1 16342842387018767553
24771293 8 18041840735601960772
312425 54 17967814946419056299
335507 130 18336550537464533255
3383291 50 17168438155266750939
3663271 9 18408039628151103434
4073 2 18187368778443942586
4098825 35 18410291423558609960
4169191 19 18130509656764804177
44280117 145 18198904906472734335
444735 82 18335144228271297076
45377200 153 14708077400413381744
504579 68 13183021813098378973
504843 32 17417808491467761503
5265222 85 18411135840743592707
5758199 1 17749107798555948546
636775 72 18340207376744749593
67123 10 18342175583887410303
68570916 9 18336264664446385110
99344 41 18410011052710611154
9953998 17 18187085070648200781

>  <PUBCHEM_SHAPE_MULTIPOLES>  (1) 
553.38
30.05
2.95
0.77
0.39
1.04
0.02
-11.79
3.77
-0.74
0.17
0.26
0.08
0.6

>  <PUBCHEM_SHAPE_SELFOVERLAP>  (1) 
1172.094

>  <PUBCHEM_SHAPE_VOLUME>  (1) 
312.4

>  <PUBCHEM_COORDINATE_TYPE>  (1) 
2
5
10

$$$$
