10582
     RDKit          3D

 11 12  0  0  1  0  0  0  0  0999 V2000
   -2.7475   -1.3220    0.1359 O   0  0  0  0  0  0  0  0  0  0  0  0
    1.1272   -0.6694    0.1971 C   0  0  0  0  0  0  0  0  0  0  0  0
    1.5463    0.8112   -0.0769 C   0  0  0  0  0  0  0  0  0  0  0  0
   -0.0415   -0.3660   -0.8020 C   0  0  0  0  0  0  0  0  0  0  0  0
    1.0045    0.5539   -1.5201 C   0  0  0  0  0  0  0  0  0  0  0  0
    0.7036    1.8308    0.7093 C   0  0  0  0  0  0  0  0  0  0  0  0
   -1.1486    0.4218   -0.1617 C   0  0  0  0  0  0  0  0  0  0  0  0
    0.7542   -1.0324    1.6204 C   0  0  0  0  0  0  0  0  0  0  0  0
    2.1234   -1.7048   -0.3045 C   0  0  0  0  0  0  0  0  0  0  0  0
   -0.7603    1.4848    0.5675 C   0  0  0  0  0  0  0  0  0  0  0  0
   -2.5612   -0.0080   -0.3651 C   0  0  0  0  0  0  0  0  0  0  0  0
  1 11  1  0
  2  3  1  0
  2  4  1  0
  2  8  1  0
  2  9  1  0
  3  5  1  0
  3  6  1  0
  4  5  1  0
  4  7  1  0
  6 10  1  0
  7 10  2  0
  7 11  1  0
M  END
>  <PUBCHEM_COMPOUND_CID>  (1) 
10582

>  <PUBCHEM_CONFORMER_RMSD>  (1) 
0.4

>  <PUBCHEM_CONFORMER_DIVERSEORDER>  (1) 
2
1
3
4

>  <PUBCHEM_MMFF94_PARTIAL_CHARGES>  (1) 
8
1 -0.68
10 -0.29
11 0.42
24 0.15
27 0.4
4 0.12
6 0.14
7 -0.25

>  <PUBCHEM_EFFECTIVE_ROTOR_COUNT>  (1) 
1.6

>  <PUBCHEM_PHARMACOPHORE_FEATURES>  (1) 
4
1 1 acceptor
1 1 donor
3 2 8 9 hydrophobe
7 2 3 4 5 6 7 10 rings

>  <PUBCHEM_HEAVY_ATOM_COUNT>  (1) 
11

>  <PUBCHEM_ATOM_DEF_STEREO_COUNT>  (1) 
0

>  <PUBCHEM_ATOM_UDEF_STEREO_COUNT>  (1) 
2

>  <PUBCHEM_BOND_DEF_STEREO_COUNT>  (1) 
0

>  <PUBCHEM_BOND_UDEF_STEREO_COUNT>  (1) 
0

>  <PUBCHEM_ISOTOPIC_ATOM_COUNT>  (1) 
0

>  <PUBCHEM_COMPONENT_COUNT>  (1) 
1

>  <PUBCHEM_CACTVS_TAUTO_COUNT>  (1) 
1

>  <PUBCHEM_CONFORMER_ID>  (1) 
0000295600000002

>  <PUBCHEM_MMFF94_ENERGY>  (1) 
33.9032

>  <PUBCHEM_FEATURE_SELFOVERLAP>  (1) 
20.297

>  <PUBCHEM_SHAPE_FINGERPRINT>  (1) 
12423570 1 14731305781904098168
13024252 1 14423244365089122230
137420 1 10007743592093620356
14128692 85 18260836946983871950
16945 1 18271238447273404508
18185500 45 17899136009783988883
20653091 64 18334293154076993761
21040471 1 17548691232790393244
23552423 10 18113902645617478591
241688 4 18115875096384286272
2748010 2 18129654197509937364
29004967 10 18272366481662675875
5084963 1 18041002859768662149
68250623 7 18198920118945800268

>  <PUBCHEM_SHAPE_MULTIPOLES>  (1) 
220.51
2.86
1.76
1.23
1.68
0.22
-0.06
-1.37
0.24
-0.25
-0.36
-0.38
-0.03
-0.1

>  <PUBCHEM_SHAPE_SELFOVERLAP>  (1) 
461.672

>  <PUBCHEM_SHAPE_VOLUME>  (1) 
128

>  <PUBCHEM_COORDINATE_TYPE>  (1) 
2
5
10

$$$$
