10588
     RDKit          3D

  9  8  0  0  0  0  0  0  0  0999 V2000
    2.7305   -0.8352    0.0023 Cl  0  0  0  0  0  0  0  0  0  0  0  0
    1.3486    1.2542   -1.4645 Cl  0  0  0  0  0  0  0  0  0  0  0  0
    1.3450    1.2561    1.4634 Cl  0  0  0  0  0  0  0  0  0  0  0  0
   -1.0527    0.2445   -0.0008 O   0  0  0  0  0  0  0  0  0  0  0  0
    0.0038   -1.7956   -0.0001 O   0  0  0  0  0  0  0  0  0  0  0  0
   -2.3203   -0.4205    0.0001 C   0  0  0  0  0  0  0  0  0  0  0  0
   -3.4218    0.6179    0.0001 C   0  0  0  0  0  0  0  0  0  0  0  0
    0.0471   -0.5709   -0.0007 C   0  0  0  0  0  0  0  0  0  0  0  0
    1.3199    0.2496    0.0002 C   0  0  0  0  0  0  0  0  0  0  0  0
  1  9  1  0
  2  9  1  0
  3  9  1  0
  4  6  1  0
  4  8  1  0
  5  8  2  0
  6  7  1  0
  8  9  1  0
M  END
>  <PUBCHEM_COMPOUND_CID>  (1) 
10588

>  <PUBCHEM_CONFORMER_RMSD>  (1) 
0.6

>  <PUBCHEM_CONFORMER_DIVERSEORDER>  (1) 
1
5
6
7
3
4
8
2
9

>  <PUBCHEM_MMFF94_PARTIAL_CHARGES>  (1) 
8
1 -0.29
2 -0.29
3 -0.29
4 -0.43
5 -0.57
6 0.28
8 0.66
9 0.93

>  <PUBCHEM_EFFECTIVE_ROTOR_COUNT>  (1) 
3

>  <PUBCHEM_PHARMACOPHORE_FEATURES>  (1) 
1
1 5 acceptor

>  <PUBCHEM_HEAVY_ATOM_COUNT>  (1) 
9

>  <PUBCHEM_ATOM_DEF_STEREO_COUNT>  (1) 
0

>  <PUBCHEM_ATOM_UDEF_STEREO_COUNT>  (1) 
0

>  <PUBCHEM_BOND_DEF_STEREO_COUNT>  (1) 
0

>  <PUBCHEM_BOND_UDEF_STEREO_COUNT>  (1) 
0

>  <PUBCHEM_ISOTOPIC_ATOM_COUNT>  (1) 
0

>  <PUBCHEM_COMPONENT_COUNT>  (1) 
1

>  <PUBCHEM_CACTVS_TAUTO_COUNT>  (1) 
1

>  <PUBCHEM_CONFORMER_ID>  (1) 
0000295C00000001

>  <PUBCHEM_MMFF94_ENERGY>  (1) 
9.9794

>  <PUBCHEM_FEATURE_SELFOVERLAP>  (1) 
5.074

>  <PUBCHEM_SHAPE_FINGERPRINT>  (1) 
10219947 1 18114464470036312727
12932764 1 18059582459242886223
14325111 11 18410855486156525859
14344429 50 18060139851218554168
14390081 3 18201714068371006193
170605 34 16951699183944825684
20653085 51 17318764582795215372
21040471 1 18266459986829112967
23211744 41 16623485200898805576
23235685 24 18259983773279009565
23552423 10 18115306816297595638
24536 1 17753882015683152006
3248919 1 18041273383043017427
5084963 1 18334575754509137731
68250623 7 17025461025421962874

>  <PUBCHEM_SHAPE_MULTIPOLES>  (1) 
179.09
4.25
1.47
1.15
3.59
0.16
0
-0.23
0
-0.53
0
-0.71
-0.66
0

>  <PUBCHEM_SHAPE_SELFOVERLAP>  (1) 
311.052

>  <PUBCHEM_SHAPE_VOLUME>  (1) 
119.4

>  <PUBCHEM_COORDINATE_TYPE>  (1) 
2
5
10

$$$$
