10618
     RDKit          3D

 16 17  0  0  1  0  0  0  0  0999 V2000
    0.8448   -2.0780    0.0583 O   0  0  0  0  0  0  0  0  0  0  0  0
    0.6219    1.3810    0.1129 N   0  0  0  0  0  0  0  0  0  0  0  0
   -0.0173    0.1338    0.1774 N   0  0  0  0  0  0  0  0  0  0  0  0
    3.3928   -0.8669   -0.4009 N   0  0  0  0  0  0  0  0  0  0  0  0
    1.9659    1.1416   -0.1635 C   0  0  0  0  0  0  0  0  0  0  0  0
    2.2566   -0.1674   -0.1988 C   0  0  0  0  0  0  0  0  0  0  0  0
    0.9573   -0.8623    0.0561 C   0  0  0  0  0  0  0  0  0  0  0  0
   -1.4185   -0.0329    0.0441 C   0  0  0  0  0  0  0  0  0  0  0  0
    0.2249    2.4163    1.0622 C   0  0  0  0  0  0  0  0  0  0  0  0
    2.9313    2.2657   -0.3379 C   0  0  0  0  0  0  0  0  0  0  0  0
   -2.0186   -1.2494    0.3834 C   0  0  0  0  0  0  0  0  0  0  0  0
   -2.2109    1.0185   -0.4266 C   0  0  0  0  0  0  0  0  0  0  0  0
    3.6411   -2.1815    0.1536 C   0  0  0  0  0  0  0  0  0  0  0  0
   -3.3977   -1.4130    0.2531 C   0  0  0  0  0  0  0  0  0  0  0  0
   -3.5901    0.8551   -0.5567 C   0  0  0  0  0  0  0  0  0  0  0  0
   -4.1835   -0.3607   -0.2169 C   0  0  0  0  0  0  0  0  0  0  0  0
  1  7  2  0
  2  3  1  0
  2  5  1  0
  2  9  1  0
  3  7  1  0
  3  8  1  0
  4  6  1  0
  4 13  1  0
  5  6  2  0
  5 10  1  0
  6  7  1  0
  8 11  2  0
  8 12  1  0
 11 14  1  0
 12 15  2  0
 14 16  2  0
 15 16  1  0
M  END
>  <PUBCHEM_COMPOUND_CID>  (1) 
10618

>  <PUBCHEM_CONFORMER_RMSD>  (1) 
0.6

>  <PUBCHEM_CONFORMER_DIVERSEORDER>  (1) 
2
1
4
3

>  <PUBCHEM_MMFF94_PARTIAL_CHARGES>  (1) 
22
1 -0.57
10 0.14
11 -0.15
12 -0.15
13 0.37
14 -0.15
15 -0.15
16 -0.15
2 -0.49
23 0.4
24 0.15
25 0.15
29 0.15
3 -0.16
30 0.15
31 0.15
4 -0.87
5 -0.04
6 0.11
7 0.62
8 0.12
9 0.37

>  <PUBCHEM_EFFECTIVE_ROTOR_COUNT>  (1) 
2

>  <PUBCHEM_PHARMACOPHORE_FEATURES>  (1) 
5
1 1 acceptor
1 4 cation
1 4 donor
5 2 3 5 6 7 rings
6 8 11 12 14 15 16 rings

>  <PUBCHEM_HEAVY_ATOM_COUNT>  (1) 
16

>  <PUBCHEM_ATOM_DEF_STEREO_COUNT>  (1) 
0

>  <PUBCHEM_ATOM_UDEF_STEREO_COUNT>  (1) 
0

>  <PUBCHEM_BOND_DEF_STEREO_COUNT>  (1) 
0

>  <PUBCHEM_BOND_UDEF_STEREO_COUNT>  (1) 
0

>  <PUBCHEM_ISOTOPIC_ATOM_COUNT>  (1) 
0

>  <PUBCHEM_COMPONENT_COUNT>  (1) 
1

>  <PUBCHEM_CACTVS_TAUTO_COUNT>  (1) 
1

>  <PUBCHEM_CONFORMER_ID>  (1) 
0000297A00000002

>  <PUBCHEM_MMFF94_ENERGY>  (1) 
61.482

>  <PUBCHEM_FEATURE_SELFOVERLAP>  (1) 
25.371

>  <PUBCHEM_SHAPE_FINGERPRINT>  (1) 
10130415 120 18341331106584312073
10608611 8 18334853939768019477
10967382 1 18338799042921822472
11471102 20 18411696612694244901
116883 192 17984712116602468068
12032990 46 18412547578501047862
13140716 1 18412267207341287320
13296908 3 18411138056328785015
14115302 16 18115037307094211487
14325111 11 18336547213275611229
14617773 55 17845672364395090496
15196674 1 18409449211101105039
15219456 202 18335421309195023093
15442244 35 18339364050180708233
15536298 74 18412825806666839212
15775835 57 18198347449333636773
16945 1 18263926535945155384
18186145 218 18411430521915959100
200 152 18131624583077632967
20201158 50 18410012096350675887
20645477 70 18413389847500087359
20671657 53 18339084774543471982
21267235 1 18410583855192519375
21501502 16 18410857672511163857
21501925 9 18411973659596564242
221490 88 18335427905969864986
2334 1 18339364179124406272
23402539 116 18197488520341436526
23402655 69 18413101775949371781
23419403 2 17839986747235035976
23463225 33 18411138017537026798
23559900 14 18410849924500860330
2748010 2 18337955691765221524
2871803 45 18189045547083480839
335352 9 18265614273688400005
5104073 3 18409168831325153521
53812653 166 18198622339904319856
5493415 88 18411416198194661258
58051976 378 18266461086404440908
7364860 26 18412261765923626000
81228 2 17838910239150903704
8809292 202 18260553316160561971
93112 12 18407477756392339111
9709674 26 18261958560682437491

>  <PUBCHEM_SHAPE_MULTIPOLES>  (1) 
308.46
6.87
2.49
0.74
2.46
0.31
-0.06
-1.83
0.95
-1.99
-0.35
0.07
0.21
0.18

>  <PUBCHEM_SHAPE_SELFOVERLAP>  (1) 
653.323

>  <PUBCHEM_SHAPE_VOLUME>  (1) 
174.5

>  <PUBCHEM_COORDINATE_TYPE>  (1) 
2
5
10

$$$$
