10620
     RDKit          3D

 21 22  0  0  1  0  0  0  0  0999 V2000
   -0.8728   -3.0469    0.5409 O   0  0  0  0  0  0  0  0  0  0  0  0
    2.7561   -0.6102    0.0804 N   0  0  0  0  0  0  0  0  0  0  0  0
    3.6505   -0.7897   -1.1517 C   0  0  0  0  0  0  0  0  0  0  0  0
    2.5996    0.8755    0.4246 C   0  0  0  0  0  0  0  0  0  0  0  0
    1.3673   -1.1699   -0.2542 C   0  0  0  0  0  0  0  0  0  0  0  0
    4.9965   -0.0968   -0.9814 C   0  0  0  0  0  0  0  0  0  0  0  0
    3.9481    1.5645    0.5906 C   0  0  0  0  0  0  0  0  0  0  0  0
    4.8366    1.3760   -0.6310 C   0  0  0  0  0  0  0  0  0  0  0  0
    0.4526   -1.1046    0.9624 C   0  0  0  0  0  0  0  0  0  0  0  0
    3.2892   -1.4030    1.2734 C   0  0  0  0  0  0  0  0  0  0  0  0
   -0.9780   -1.6394    0.7638 C   0  0  0  0  0  0  0  0  0  0  0  0
   -1.8058   -0.9472   -0.3633 C   0  0  0  0  0  0  0  0  0  0  0  0
   -3.1713   -1.6585   -0.6548 C   0  0  0  0  0  0  0  0  0  0  0  0
   -2.0020    0.5468   -0.1016 C   0  0  0  0  0  0  0  0  0  0  0  0
   -4.1527   -1.5412    0.5192 C   0  0  0  0  0  0  0  0  0  0  0  0
   -3.8522   -1.0804   -1.9068 C   0  0  0  0  0  0  0  0  0  0  0  0
   -1.9522    1.4153   -1.1683 C   0  0  0  0  0  0  0  0  0  0  0  0
   -2.2216    0.9671    1.1905 C   0  0  0  0  0  0  0  0  0  0  0  0
   -2.1313    2.7778   -0.9299 C   0  0  0  0  0  0  0  0  0  0  0  0
   -2.4009    2.3297    1.4288 C   0  0  0  0  0  0  0  0  0  0  0  0
   -2.3556    3.2351    0.3685 C   0  0  0  0  0  0  0  0  0  0  0  0
  1 11  1  0
  2  3  1  0
  2  4  1  0
  2  5  1  0
  2 10  1  0
  3  6  1  0
  4  7  1  0
  5  9  1  0
  6  8  1  0
  7  8  1  0
  9 11  1  0
 11 12  1  0
 12 13  1  0
 12 14  1  0
 13 15  1  0
 13 16  1  0
 14 17  2  0
 14 18  1  0
 17 19  1  0
 18 20  2  0
 19 21  2  0
 20 21  1  0
M  CHG  1   2   1
M  END
>  <PUBCHEM_COMPOUND_CID>  (1) 
10620

>  <PUBCHEM_CONFORMER_RMSD>  (1) 
0.8

>  <PUBCHEM_CONFORMER_DIVERSEORDER>  (1) 
5
49
47
3
38
20
22
19
9
40
13
25
48
27
15
18
36
44
29
46
28
33
1
32
31
16
30
45
23
11
7
26
14
42
17
24
12
21
10
8
39
34
43
2
37
4
50
6
35
41

>  <PUBCHEM_MMFF94_PARTIAL_CHARGES>  (1) 
20
1 -0.68
10 0.5
11 0.28
12 0.14
14 -0.14
17 -0.15
18 -0.15
19 -0.15
2 -1.01
20 -0.15
21 -0.15
3 0.5
4 0.5
42 0.4
49 0.15
5 0.5
50 0.15
51 0.15
52 0.15
53 0.15

>  <PUBCHEM_EFFECTIVE_ROTOR_COUNT>  (1) 
7.2

>  <PUBCHEM_PHARMACOPHORE_FEATURES>  (1) 
6
1 1 acceptor
1 1 donor
1 2 cation
3 13 15 16 hydrophobe
6 14 17 18 19 20 21 rings
6 2 3 4 6 7 8 rings

>  <PUBCHEM_HEAVY_ATOM_COUNT>  (1) 
21

>  <PUBCHEM_ATOM_DEF_STEREO_COUNT>  (1) 
0

>  <PUBCHEM_ATOM_UDEF_STEREO_COUNT>  (1) 
2

>  <PUBCHEM_BOND_DEF_STEREO_COUNT>  (1) 
0

>  <PUBCHEM_BOND_UDEF_STEREO_COUNT>  (1) 
0

>  <PUBCHEM_ISOTOPIC_ATOM_COUNT>  (1) 
0

>  <PUBCHEM_COMPONENT_COUNT>  (1) 
1

>  <PUBCHEM_CACTVS_TAUTO_COUNT>  (1) 
1

>  <PUBCHEM_CONFORMER_ID>  (1) 
0000297C00000005

>  <PUBCHEM_MMFF94_ENERGY>  (1) 
62.5454

>  <PUBCHEM_FEATURE_SELFOVERLAP>  (1) 
30.446

>  <PUBCHEM_SHAPE_FINGERPRINT>  (1) 
10366900 7 18270678800492439356
10498660 4 18261104167016998244
10670039 82 18261689155223199220
10871710 139 18335424547664077357
11578080 2 14472797366010364651
11725454 13 16013234914697311765
11759241 127 18130508642624878654
12173636 292 18410013199961767487
12403260 363 18264471941274041130
12633257 1 18193553368425975644
12788726 201 18411974776198422939
13224815 77 18186522090186942244
13583140 156 17099186299594911553
14123250 116 18270399369619910041
14142880 1 18261675879109917693
14251751 93 18270404888652476084
14347332 77 18343017770528320718
14863182 85 13817685509829300959
15342168 16 17906739107432602081
15849732 13 17988649649164485887
17357779 13 18269268126741823241
18186145 218 18270121210732180072
20510252 161 18410572903067703563
21095088 737 18335133224058240500
21524375 3 18045782286802154371
21623110 236 18192160492846098740
21864079 5 18262241015053811088
221357 26 18272656770429294676
22182937 141 18341340980656467193
22907989 373 18059281081403700013
23227448 37 18341615863164398293
23352939 185 17987804141147760521
23402539 116 18341330093215052095
23557571 272 18339929323737719678
23559900 14 18336825398840428354
283562 15 18409448094425776755
312423 11 18260828159792163698
3268164 11 18343016696532691446
350125 39 18337393729691520147
4028521 119 18187920724553773942
469060 322 17458357367966224377
5048184 11 18265337200911151768
5252454 2 18191312572097346492
5281201 14 18060148626416839534
6049 1 17275091838952388922
7399639 24 17916297419705134586
7615 1 18188195499545026818

>  <PUBCHEM_SHAPE_MULTIPOLES>  (1) 
421.32
9.31
3.24
1.43
9.72
1.49
-0.17
0.53
-2.26
-2.95
0.43
-0.51
0
-0.6

>  <PUBCHEM_SHAPE_SELFOVERLAP>  (1) 
848.301

>  <PUBCHEM_SHAPE_VOLUME>  (1) 
247.2

>  <PUBCHEM_COORDINATE_TYPE>  (1) 
2
5
10

$$$$
