10628
     RDKit          3D

 10 10  0  0  0  0  0  0  0  0999 V2000
    0.9960    1.3374    0.1226 N   0  0  0  0  0  0  0  0  0  0  0  0
   -0.6423   -0.1159   -0.2459 C   0  0  0  0  0  0  0  0  0  0  0  0
    0.5773   -0.8284   -0.1345 C   0  0  0  0  0  0  0  0  0  0  0  0
   -0.3539    1.2212   -0.0827 C   0  0  0  0  0  0  0  0  0  0  0  0
    1.5736    0.0948    0.0937 C   0  0  0  0  0  0  0  0  0  0  0  0
   -1.9787   -0.6959   -0.4915 C   0  0  0  0  0  0  0  0  0  0  0  0
    0.7523   -2.2916   -0.2421 C   0  0  0  0  0  0  0  0  0  0  0  0
   -1.2265    2.4110   -0.1020 C   0  0  0  0  0  0  0  0  0  0  0  0
    3.0266   -0.0742    0.2876 C   0  0  0  0  0  0  0  0  0  0  0  0
   -2.7244   -1.0584    0.7948 C   0  0  0  0  0  0  0  0  0  0  0  0
  1  4  1  0
  1  5  1  0
  2  3  1  0
  2  4  2  0
  2  6  1  0
  3  5  2  0
  3  7  1  0
  4  8  1  0
  5  9  1  0
  6 10  1  0
M  END
>  <PUBCHEM_COMPOUND_CID>  (1) 
10628

>  <PUBCHEM_CONFORMER_RMSD>  (1) 
0.4

>  <PUBCHEM_CONFORMER_DIVERSEORDER>  (1) 
1
2
3

>  <PUBCHEM_MMFF94_PARTIAL_CHARGES>  (1) 
10
1 0.03
13 0.27
2 -0.18
3 -0.18
4 -0.33
5 -0.33
6 0.18
7 0.18
8 0.18
9 0.18

>  <PUBCHEM_EFFECTIVE_ROTOR_COUNT>  (1) 
1

>  <PUBCHEM_PHARMACOPHORE_FEATURES>  (1) 
4
1 1 cation
1 1 donor
1 10 hydrophobe
5 1 2 3 4 5 rings

>  <PUBCHEM_HEAVY_ATOM_COUNT>  (1) 
10

>  <PUBCHEM_ATOM_DEF_STEREO_COUNT>  (1) 
0

>  <PUBCHEM_ATOM_UDEF_STEREO_COUNT>  (1) 
0

>  <PUBCHEM_BOND_DEF_STEREO_COUNT>  (1) 
0

>  <PUBCHEM_BOND_UDEF_STEREO_COUNT>  (1) 
0

>  <PUBCHEM_ISOTOPIC_ATOM_COUNT>  (1) 
0

>  <PUBCHEM_COMPONENT_COUNT>  (1) 
1

>  <PUBCHEM_CACTVS_TAUTO_COUNT>  (1) 
1

>  <PUBCHEM_CONFORMER_ID>  (1) 
0000298400000001

>  <PUBCHEM_MMFF94_ENERGY>  (1) 
4.1198

>  <PUBCHEM_FEATURE_SELFOVERLAP>  (1) 
20.297

>  <PUBCHEM_SHAPE_FINGERPRINT>  (1) 
10219947 1 18339365295953254691
12423570 1 11100155398442858020
13380535 21 18052270504796113636
13380535 76 18050554158391722924
161256 15 18199766755357075327
16945 1 18412542123913473174
193761 8 18123186792721460526
21040471 1 17979070479512015580
21501502 16 18123183507055602830
23552423 10 18190465943933075990
2748010 2 18338504356626183733
29004967 10 18336549403666766707
5084963 1 17988917911834902082
68250623 7 18119248363772547762

>  <PUBCHEM_SHAPE_MULTIPOLES>  (1) 
200.81
3.34
2.27
0.72
0.54
0.44
0.03
-0.68
0.65
-0.64
-0.11
-0.2
-0.11
0.28

>  <PUBCHEM_SHAPE_SELFOVERLAP>  (1) 
405.366

>  <PUBCHEM_SHAPE_VOLUME>  (1) 
122.7

>  <PUBCHEM_COORDINATE_TYPE>  (1) 
2
5
10

$$$$
