10665
     RDKit          3D

 12 13  0  0  0  0  0  0  0  0999 V2000
   -3.0953    0.0001    0.0922 O   0  0  0  0  0  0  0  0  0  0  0  0
   -1.3462    2.3113   -0.0716 O   0  0  0  0  0  0  0  0  0  0  0  0
   -1.3466   -2.3112   -0.0715 O   0  0  0  0  0  0  0  0  0  0  0  0
   -1.7166    0.0000    0.0235 N   0  0  0  0  0  0  0  0  0  0  0  0
    0.4021    0.6966    0.0042 C   0  0  0  0  0  0  0  0  0  0  0  0
    0.4021   -0.6966    0.0042 C   0  0  0  0  0  0  0  0  0  0  0  0
   -0.9922    1.1502   -0.0127 C   0  0  0  0  0  0  0  0  0  0  0  0
   -0.9923   -1.1502   -0.0127 C   0  0  0  0  0  0  0  0  0  0  0  0
    1.5724    1.4262    0.0076 C   0  0  0  0  0  0  0  0  0  0  0  0
    1.5723   -1.4263    0.0076 C   0  0  0  0  0  0  0  0  0  0  0  0
    2.7702    0.7054    0.0146 C   0  0  0  0  0  0  0  0  0  0  0  0
    2.7701   -0.7055    0.0145 C   0  0  0  0  0  0  0  0  0  0  0  0
  1  4  1  0
  2  7  2  0
  3  8  2  0
  4  7  1  0
  4  8  1  0
  5  6  2  0
  5  7  1  0
  5  9  1  0
  6  8  1  0
  6 10  1  0
  9 11  2  0
 10 12  2  0
 11 12  1  0
M  END
>  <PUBCHEM_COMPOUND_CID>  (1) 
10665

>  <PUBCHEM_CONFORMER_RMSD>  (1) 
0.4

>  <PUBCHEM_CONFORMER_DIVERSEORDER>  (1) 
1

>  <PUBCHEM_MMFF94_PARTIAL_CHARGES>  (1) 
17
1 -0.44
10 -0.15
11 -0.15
12 -0.15
13 0.15
14 0.15
15 0.15
16 0.15
17 0.4
2 -0.57
3 -0.57
4 -0.08
5 0.09
6 0.09
7 0.54
8 0.54
9 -0.15

>  <PUBCHEM_EFFECTIVE_ROTOR_COUNT>  (1) 
0.2

>  <PUBCHEM_PHARMACOPHORE_FEATURES>  (1) 
4
1 2 acceptor
1 3 acceptor
5 4 5 6 7 8 rings
6 5 6 9 10 11 12 rings

>  <PUBCHEM_HEAVY_ATOM_COUNT>  (1) 
12

>  <PUBCHEM_ATOM_DEF_STEREO_COUNT>  (1) 
0

>  <PUBCHEM_ATOM_UDEF_STEREO_COUNT>  (1) 
0

>  <PUBCHEM_BOND_DEF_STEREO_COUNT>  (1) 
0

>  <PUBCHEM_BOND_UDEF_STEREO_COUNT>  (1) 
0

>  <PUBCHEM_ISOTOPIC_ATOM_COUNT>  (1) 
0

>  <PUBCHEM_COMPONENT_COUNT>  (1) 
1

>  <PUBCHEM_CACTVS_TAUTO_COUNT>  (1) 
1

>  <PUBCHEM_CONFORMER_ID>  (1) 
000029A900000001

>  <PUBCHEM_MMFF94_ENERGY>  (1) 
35.1619

>  <PUBCHEM_FEATURE_SELFOVERLAP>  (1) 
20.392

>  <PUBCHEM_SHAPE_FINGERPRINT>  (1) 
11206711 2 18337391522041238029
12423570 1 12463271584408307323
12524768 44 18412268354076572934
12897270 3 18339080501024612668
16945 1 18410854360838073622
193761 8 18410573985431019502
19973954 147 18410576175927825884
20871998 184 18201442535679375855
21040471 1 18338797784844655300
2334 1 17978510067846992066
23552423 10 18189054368497387782
23559900 14 18127699224089066894
2748010 2 18410575088958046364
369184 2 18411696595313798658
5084963 1 18130503016075321770
528886 8 18339637957572535082

>  <PUBCHEM_SHAPE_MULTIPOLES>  (1) 
224.37
3.69
2.08
0.59
0.25
0
0
0
0.06
-0.53
-0.05
0.06
0
0

>  <PUBCHEM_SHAPE_SELFOVERLAP>  (1) 
500.284

>  <PUBCHEM_SHAPE_VOLUME>  (1) 
121

>  <PUBCHEM_COORDINATE_TYPE>  (1) 
2
5
10

$$$$
