10677
     RDKit          3D

 16 17  0  0  0  0  0  0  0  0999 V2000
    4.1404    0.9151   -0.0011 O   0  0  0  0  0  0  0  0  0  0  0  0
    2.3951    2.2467   -0.0005 O   0  0  0  0  0  0  0  0  0  0  0  0
   -4.0850   -0.9564   -0.0016 O   0  0  0  0  0  0  0  0  0  0  0  0
   -4.2383    1.3115    0.0003 O   0  0  0  0  0  0  0  0  0  0  0  0
   -1.5252   -0.9660    0.0001 N   0  0  0  0  0  0  0  0  0  0  0  0
    2.9024    1.1022   -0.0003 N   0  0  0  0  0  0  0  0  0  0  0  0
    0.6381    0.0958    0.0005 C   0  0  0  0  0  0  0  0  0  0  0  0
   -0.1816   -1.0523    0.0002 C   0  0  0  0  0  0  0  0  0  0  0  0
    2.0376   -0.0314    0.0006 C   0  0  0  0  0  0  0  0  0  0  0  0
    0.0152    1.3511    0.0006 C   0  0  0  0  0  0  0  0  0  0  0  0
    0.4378   -2.2991    0.0001 C   0  0  0  0  0  0  0  0  0  0  0  0
    2.6303   -1.2908    0.0004 C   0  0  0  0  0  0  0  0  0  0  0  0
   -1.3692    1.4433    0.0005 C   0  0  0  0  0  0  0  0  0  0  0  0
   -2.0871    0.2645    0.0001 C   0  0  0  0  0  0  0  0  0  0  0  0
    1.8291   -2.4258    0.0001 C   0  0  0  0  0  0  0  0  0  0  0  0
   -3.5396    0.2916    0.0000 C   0  0  0  0  0  0  0  0  0  0  0  0
  1  6  1  0
  2  6  2  0
  3 16  1  0
  4 16  2  0
  5  8  2  0
  5 14  1  0
  6  9  1  0
  7  8  1  0
  7  9  1  0
  7 10  2  0
  8 11  1  0
  9 12  2  0
 10 13  1  0
 11 15  2  0
 12 15  1  0
 13 14  2  0
 14 16  1  0
M  CHG  2   1  -1   6   1
M  END
>  <PUBCHEM_COMPOUND_CID>  (1) 
10677

>  <PUBCHEM_CONFORMER_RMSD>  (1) 
0.6

>  <PUBCHEM_CONFORMER_DIVERSEORDER>  (1) 
1

>  <PUBCHEM_MMFF94_PARTIAL_CHARGES>  (1) 
21
1 -0.52
10 -0.15
11 -0.15
12 -0.15
13 -0.15
14 0.4
15 -0.15
16 0.63
17 0.15
18 0.15
19 0.15
2 -0.52
20 0.15
21 0.15
22 0.5
3 -0.65
4 -0.57
5 -0.62
6 0.91
8 0.31
9 0.13

>  <PUBCHEM_EFFECTIVE_ROTOR_COUNT>  (1) 
2

>  <PUBCHEM_PHARMACOPHORE_FEATURES>  (1) 
9
1 1 acceptor
1 1 anion
1 2 acceptor
1 3 acceptor
1 4 acceptor
1 5 acceptor
3 3 4 16 anion
6 5 7 8 10 13 14 rings
6 7 8 9 11 12 15 rings

>  <PUBCHEM_HEAVY_ATOM_COUNT>  (1) 
16

>  <PUBCHEM_ATOM_DEF_STEREO_COUNT>  (1) 
0

>  <PUBCHEM_ATOM_UDEF_STEREO_COUNT>  (1) 
0

>  <PUBCHEM_BOND_DEF_STEREO_COUNT>  (1) 
0

>  <PUBCHEM_BOND_UDEF_STEREO_COUNT>  (1) 
0

>  <PUBCHEM_ISOTOPIC_ATOM_COUNT>  (1) 
0

>  <PUBCHEM_COMPONENT_COUNT>  (1) 
1

>  <PUBCHEM_CACTVS_TAUTO_COUNT>  (1) 
1

>  <PUBCHEM_CONFORMER_ID>  (1) 
000029B500000001

>  <PUBCHEM_MMFF94_ENERGY>  (1) 
64.9695

>  <PUBCHEM_FEATURE_SELFOVERLAP>  (1) 
45.858

>  <PUBCHEM_SHAPE_FINGERPRINT>  (1) 
10608611 8 18335417903333657637
10967382 1 18410575110475080710
10980938 120 18411419505335264355
11132069 177 18411974780150420857
11471102 20 18338511950323119597
11806522 49 18338794637013682503
12346645 6 18411981334434064286
13140716 1 18194113251640879232
13380535 76 18408885169957186130
13897977 150 18409728473768718605
14251717 144 18411414008019835575
14325111 11 18410573976930853121
14576447 43 18057023900291580535
14897335 6 18412260657526794446
15196674 1 18410575076094321287
15219456 202 18334858277684663461
15375462 6 18336546027796052901
15442244 35 18052259488226208969
15501101 241 18260832544563129453
15536298 74 18343302531085914574
15775835 57 18343584053127768028
16945 1 18266740177594953250
18186145 218 18341619174467742789
193761 8 18050568439274357860
20559304 39 18338796689654440154
20645477 70 18341609253473207855
21267235 1 18339932519615679639
21501502 16 18267869371831324385
21524375 3 18337389443609414626
221490 88 18337117760884202603
22854114 111 18409167688373364918
2334 1 17834396005152917952
23402539 116 18271799159849480260
23402655 69 18342170034457510645
23463225 33 18337670819485255939
23559900 14 18267580217674985346
25 1 18409728473837251462
2748010 2 18265908027887146566
3071541 37 18334864891966045430
335352 9 18194401087321607031
33824 294 18408884031627244427
449060 62 18341896264235241473
4990 188 17988936565051864414
5104073 3 18409731725412435963
528886 8 18411414050900832898
53812653 166 18342454884983071320
58051976 378 18412541007227413509
581208 293 18411976953424984491
7364860 26 18341613651377300334
81539 233 18259702294123467126
9709674 26 18409735045211632467

>  <PUBCHEM_SHAPE_MULTIPOLES>  (1) 
295.83
6.37
2.35
0.58
3.94
0.45
0
-1.49
0
-1.48
0
-0.01
0.02
0

>  <PUBCHEM_SHAPE_SELFOVERLAP>  (1) 
655.783

>  <PUBCHEM_SHAPE_VOLUME>  (1) 
157.4

>  <PUBCHEM_COORDINATE_TYPE>  (1) 
2
5
10

$$$$
