10678
     RDKit          3D

 18 18  0  0  0  0  0  0  0  0999 V2000
    0.0002   -1.2558   -0.2426 O   0  0  0  0  0  0  0  0  0  0  0  0
    2.3939    0.0267    0.3000 O   0  0  0  0  0  0  0  0  0  0  0  0
   -2.3949    0.0236    0.3008 O   0  0  0  0  0  0  0  0  0  0  0  0
    0.0060   -2.1317    1.9283 O   0  0  0  0  0  0  0  0  0  0  0  0
    2.3544    0.9557   -1.8483 O   0  0  0  0  0  0  0  0  0  0  0  0
   -2.3576    0.9554   -1.8462 O   0  0  0  0  0  0  0  0  0  0  0  0
   -0.0006   -0.0009    0.2906 C   0  0  0  0  0  0  0  0  0  0  0  0
    1.2070    0.6423    0.5616 C   0  0  0  0  0  0  0  0  0  0  0  0
   -1.2089    0.6406    0.5628 C   0  0  0  0  0  0  0  0  0  0  0  0
    1.2065    1.9270    1.1050 C   0  0  0  0  0  0  0  0  0  0  0  0
   -1.2095    1.9254    1.1061 C   0  0  0  0  0  0  0  0  0  0  0  0
   -0.0018    2.5685    1.3771 C   0  0  0  0  0  0  0  0  0  0  0  0
    0.0027   -2.2831    0.7138 C   0  0  0  0  0  0  0  0  0  0  0  0
    2.8914    0.2673   -0.9906 C   0  0  0  0  0  0  0  0  0  0  0  0
   -2.8924    0.2635   -0.9900 C   0  0  0  0  0  0  0  0  0  0  0  0
    0.0035   -3.6183    0.0303 C   0  0  0  0  0  0  0  0  0  0  0  0
    4.1950   -0.4504   -1.1795 C   0  0  0  0  0  0  0  0  0  0  0  0
   -4.1949   -0.4559   -1.1792 C   0  0  0  0  0  0  0  0  0  0  0  0
  1  7  1  0
  1 13  1  0
  2  8  1  0
  2 14  1  0
  3  9  1  0
  3 15  1  0
  4 13  2  0
  5 14  2  0
  6 15  2  0
  7  8  2  0
  7  9  1  0
  8 10  1  0
  9 11  2  0
 10 12  2  0
 11 12  1  0
 13 16  1  0
 14 17  1  0
 15 18  1  0
M  END
>  <PUBCHEM_COMPOUND_CID>  (1) 
10678

>  <PUBCHEM_CONFORMER_RMSD>  (1) 
0.8

>  <PUBCHEM_CONFORMER_DIVERSEORDER>  (1) 
1
48
23
49
22
34
44
36
35
40
46
21
5
31
26
32
33
9
4
38
3
27
19
12
42
30
37
24
6
28
15
8
47
43
16
11
50
18
39
51
41
45
25
10
14
29
13
17
2
7
20

>  <PUBCHEM_MMFF94_PARTIAL_CHARGES>  (1) 
21
1 -0.23
10 -0.15
11 -0.15
12 -0.15
13 0.66
14 0.66
15 0.66
16 0.06
17 0.06
18 0.06
19 0.15
2 -0.23
20 0.15
21 0.15
3 -0.23
4 -0.57
5 -0.57
6 -0.57
7 0.08
8 0.08
9 0.08

>  <PUBCHEM_EFFECTIVE_ROTOR_COUNT>  (1) 
6

>  <PUBCHEM_PHARMACOPHORE_FEATURES>  (1) 
4
1 4 acceptor
1 5 acceptor
1 6 acceptor
6 7 8 9 10 11 12 rings

>  <PUBCHEM_HEAVY_ATOM_COUNT>  (1) 
18

>  <PUBCHEM_ATOM_DEF_STEREO_COUNT>  (1) 
0

>  <PUBCHEM_ATOM_UDEF_STEREO_COUNT>  (1) 
0

>  <PUBCHEM_BOND_DEF_STEREO_COUNT>  (1) 
0

>  <PUBCHEM_BOND_UDEF_STEREO_COUNT>  (1) 
0

>  <PUBCHEM_ISOTOPIC_ATOM_COUNT>  (1) 
0

>  <PUBCHEM_COMPONENT_COUNT>  (1) 
1

>  <PUBCHEM_CACTVS_TAUTO_COUNT>  (1) 
1

>  <PUBCHEM_CONFORMER_ID>  (1) 
000029B600000001

>  <PUBCHEM_MMFF94_ENERGY>  (1) 
55.3205

>  <PUBCHEM_FEATURE_SELFOVERLAP>  (1) 
20.297

>  <PUBCHEM_SHAPE_FINGERPRINT>  (1) 
10062212 137 17910684167916307070
10353120 184 18202002127152987689
108634 29 17184717717247956015
10906281 52 17986674972755683048
12592029 89 17313387777529701026
13149001 5 18196372739108426908
13544592 271 17627212800164775848
14181834 199 17613390577356475891
14943834 7 17692816986427365960
15163728 17 16879932754334856614
16945 1 18272933821051639824
18186145 218 18339915009017994741
187816 3 18413393133297410900
20511035 2 17119413310368139792
20645476 183 17749391507126805314
20645477 70 17701230738062839549
22112679 90 17771616854808144073
23382010 3 18261954179588656605
23388829 49 17906722610156873578
23402539 116 18201444627929679724
23419403 2 17837791271184185073
23526113 38 18128528447837143048
23559900 14 18341619257074454092
2748010 2 17839464732345426160
298252 57 17240482520161535436
3060560 45 18194372654912290613
3250762 1 17692809702178656081
34934 24 17914906331121550145
4175511 335 18192124071839225583
5845 1 9465649325552039775
68419 9 17767682763338369665
81228 2 17468191588785689907

>  <PUBCHEM_SHAPE_MULTIPOLES>  (1) 
335.22
5.12
3.01
1.68
0
1.83
-0.31
0.27
-4.11
0
1.71
0
-0.07
0

>  <PUBCHEM_SHAPE_SELFOVERLAP>  (1) 
696.234

>  <PUBCHEM_SHAPE_VOLUME>  (1) 
186.4

>  <PUBCHEM_COORDINATE_TYPE>  (1) 
2
5
10

$$$$
