10683
     RDKit          3D

 11 11  0  0  1  0  0  0  0  0999 V2000
    1.8580    0.8794   -0.1257 O   0  0  0  0  0  0  0  0  0  0  0  0
    0.1117   -2.0133    0.7423 O   0  0  0  0  0  0  0  0  0  0  0  0
    0.2479    2.4918   -0.0975 O   0  0  0  0  0  0  0  0  0  0  0  0
   -0.2096    0.2776    0.4334 N   0  0  0  0  0  0  0  0  0  0  0  0
    1.9227   -0.5313    0.1266 C   0  0  0  0  0  0  0  0  0  0  0  0
    0.5065   -0.8869    0.4808 C   0  0  0  0  0  0  0  0  0  0  0  0
   -1.6300    0.3706    0.7087 C   0  0  0  0  0  0  0  0  0  0  0  0
    0.5782    1.3245    0.0623 C   0  0  0  0  0  0  0  0  0  0  0  0
    2.3969   -1.2534   -1.1175 C   0  0  0  0  0  0  0  0  0  0  0  0
   -2.4465    0.1644   -0.5299 C   0  0  0  0  0  0  0  0  0  0  0  0
   -3.3357   -0.8234   -0.6835 C   0  0  0  0  0  0  0  0  0  0  0  0
  1  5  1  0
  1  8  1  0
  2  6  2  0
  3  8  2  0
  4  6  1  0
  4  7  1  0
  4  8  1  0
  5  6  1  0
  5  9  1  0
  7 10  1  0
 10 11  2  0
M  END
>  <PUBCHEM_COMPOUND_CID>  (1) 
10683

>  <PUBCHEM_CONFORMER_RMSD>  (1) 
0.6

>  <PUBCHEM_CONFORMER_DIVERSEORDER>  (1) 
1
8
3
6
7
4
2
5

>  <PUBCHEM_MMFF94_PARTIAL_CHARGES>  (1) 
13
1 -0.43
10 -0.29
11 -0.3
18 0.15
19 0.15
2 -0.57
20 0.15
3 -0.57
4 -0.42
5 0.34
6 0.57
7 0.44
8 0.78

>  <PUBCHEM_EFFECTIVE_ROTOR_COUNT>  (1) 
2.6

>  <PUBCHEM_PHARMACOPHORE_FEATURES>  (1) 
4
1 11 hydrophobe
1 2 acceptor
1 3 acceptor
5 1 4 5 6 8 rings

>  <PUBCHEM_HEAVY_ATOM_COUNT>  (1) 
11

>  <PUBCHEM_ATOM_DEF_STEREO_COUNT>  (1) 
0

>  <PUBCHEM_ATOM_UDEF_STEREO_COUNT>  (1) 
1

>  <PUBCHEM_BOND_DEF_STEREO_COUNT>  (1) 
0

>  <PUBCHEM_BOND_UDEF_STEREO_COUNT>  (1) 
0

>  <PUBCHEM_ISOTOPIC_ATOM_COUNT>  (1) 
0

>  <PUBCHEM_COMPONENT_COUNT>  (1) 
1

>  <PUBCHEM_CACTVS_TAUTO_COUNT>  (1) 
1

>  <PUBCHEM_CONFORMER_ID>  (1) 
000029BB00000001

>  <PUBCHEM_MMFF94_ENERGY>  (1) 
6.9839

>  <PUBCHEM_FEATURE_SELFOVERLAP>  (1) 
20.297

>  <PUBCHEM_SHAPE_FINGERPRINT>  (1) 
11206711 2 18117571621467062132
12423570 1 17175769861117831129
12897270 3 18259976085641062111
13380535 76 18049998097740145088
14128692 85 18202565068473925623
16945 1 18270408328789463416
18185500 45 18267018362863877819
20645477 70 18270386326548070151
21040471 1 18118121600424180904
23402539 116 18337673001961781838
23552423 10 18336551495168023253
241688 4 18269278971502584464
2748010 2 17473838693227279680
449060 23 18060141985875420263
5084963 1 18343581867237373265
53812653 217 17762911969453061629

>  <PUBCHEM_SHAPE_MULTIPOLES>  (1) 
203.79
3.85
1.91
0.91
2.43
0.67
0.07
-1.45
1.37
-0.52
0.02
-0.02
-0.27
0

>  <PUBCHEM_SHAPE_SELFOVERLAP>  (1) 
413.095

>  <PUBCHEM_SHAPE_VOLUME>  (1) 
121.1

>  <PUBCHEM_COORDINATE_TYPE>  (1) 
2
5
10

$$$$
