10697
     RDKit          3D

 10 10  0  0  0  0  0  0  0  0999 V2000
   -0.9794    2.4470   -0.0008 O   0  0  0  0  0  0  0  0  0  0  0  0
    3.0460   -0.1024   -0.0004 O   0  0  0  0  0  0  0  0  0  0  0  0
   -1.1019    0.0522    0.0004 C   0  0  0  0  0  0  0  0  0  0  0  0
   -0.4503   -1.1811    0.0003 C   0  0  0  0  0  0  0  0  0  0  0  0
   -0.3597    1.2333    0.0005 C   0  0  0  0  0  0  0  0  0  0  0  0
    0.9435   -1.2333    0.0001 C   0  0  0  0  0  0  0  0  0  0  0  0
    1.6858   -0.0523    0.0001 C   0  0  0  0  0  0  0  0  0  0  0  0
   -2.5959    0.1150    0.0001 C   0  0  0  0  0  0  0  0  0  0  0  0
    1.0342    1.1811    0.0003 C   0  0  0  0  0  0  0  0  0  0  0  0
   -1.2225   -2.4595   -0.0006 C   0  0  0  0  0  0  0  0  0  0  0  0
  1  5  1  0
  2  7  1  0
  3  4  2  0
  3  5  1  0
  3  8  1  0
  4  6  1  0
  4 10  1  0
  5  9  2  0
  6  7  2  0
  7  9  1  0
M  END
>  <PUBCHEM_COMPOUND_CID>  (1) 
10697

>  <PUBCHEM_CONFORMER_RMSD>  (1) 
0.4

>  <PUBCHEM_CONFORMER_DIVERSEORDER>  (1) 
1

>  <PUBCHEM_MMFF94_PARTIAL_CHARGES>  (1) 
14
1 -0.53
10 0.14
11 0.15
15 0.15
19 0.45
2 -0.53
20 0.45
3 -0.14
4 -0.14
5 0.08
6 -0.15
7 0.08
8 0.14
9 -0.15

>  <PUBCHEM_EFFECTIVE_ROTOR_COUNT>  (1) 
0

>  <PUBCHEM_PHARMACOPHORE_FEATURES>  (1) 
3
1 1 donor
1 2 donor
6 3 4 5 6 7 9 rings

>  <PUBCHEM_HEAVY_ATOM_COUNT>  (1) 
10

>  <PUBCHEM_ATOM_DEF_STEREO_COUNT>  (1) 
0

>  <PUBCHEM_ATOM_UDEF_STEREO_COUNT>  (1) 
0

>  <PUBCHEM_BOND_DEF_STEREO_COUNT>  (1) 
0

>  <PUBCHEM_BOND_UDEF_STEREO_COUNT>  (1) 
0

>  <PUBCHEM_ISOTOPIC_ATOM_COUNT>  (1) 
0

>  <PUBCHEM_COMPONENT_COUNT>  (1) 
1

>  <PUBCHEM_CACTVS_TAUTO_COUNT>  (1) 
17

>  <PUBCHEM_CONFORMER_ID>  (1) 
000029C900000001

>  <PUBCHEM_MMFF94_ENERGY>  (1) 
27.15

>  <PUBCHEM_FEATURE_SELFOVERLAP>  (1) 
15.223

>  <PUBCHEM_SHAPE_FINGERPRINT>  (1) 
12423570 1 18337969933955844570
16945 1 18410573976714523334
18185500 45 18265332987415962794
193761 8 17762056936117108901
20871998 184 18200878486388374062
21040471 1 18266740182121743298
23402655 69 18123169235882053485
23552423 10 17972035001058606806
2748010 2 18123750017636996478
5084963 1 18058727979388132498

>  <PUBCHEM_SHAPE_MULTIPOLES>  (1) 
194.06
2.93
2.3
0.6
0.87
0.18
0
-0.4
0
-0.89
0
-0.02
-0.02
0

>  <PUBCHEM_SHAPE_SELFOVERLAP>  (1) 
405.073

>  <PUBCHEM_SHAPE_VOLUME>  (1) 
112.3

>  <PUBCHEM_COORDINATE_TYPE>  (1) 
2
5
10

$$$$
