10709
     RDKit          3D

 15 15  0  0  0  0  0  0  0  0999 V2000
   -3.9790    0.9512   -0.0010 O   0  0  0  0  0  0  0  0  0  0  0  0
    1.8651   -2.0939   -1.0976 O   0  0  0  0  0  0  0  0  0  0  0  0
    1.8649   -2.0946    1.0976 O   0  0  0  0  0  0  0  0  0  0  0  0
    2.9148    1.2471    1.0962 O   0  0  0  0  0  0  0  0  0  0  0  0
    2.9124    1.2485   -1.0990 O   0  0  0  0  0  0  0  0  0  0  0  0
   -3.6766   -1.3016   -0.0017 O   0  0  0  0  0  0  0  0  0  0  0  0
    1.4665   -1.6404    0.0001 N   0  0  0  0  0  0  0  0  0  0  0  0
    2.3271    1.1029   -0.0009 N   0  0  0  0  0  0  0  0  0  0  0  0
    0.5274   -0.5699    0.0003 C   0  0  0  0  0  0  0  0  0  0  0  0
    0.9449    0.7610    0.0005 C   0  0  0  0  0  0  0  0  0  0  0  0
   -1.7776    0.1536    0.0013 C   0  0  0  0  0  0  0  0  0  0  0  0
   -0.8340   -0.8736    0.0013 C   0  0  0  0  0  0  0  0  0  0  0  0
    0.0012    1.7882    0.0019 C   0  0  0  0  0  0  0  0  0  0  0  0
   -1.3602    1.4846    0.0019 C   0  0  0  0  0  0  0  0  0  0  0  0
   -3.1970   -0.1631   -0.0010 C   0  0  0  0  0  0  0  0  0  0  0  0
  1 15  1  0
  2  7  1  0
  3  7  2  0
  4  8  1  0
  5  8  2  0
  6 15  2  0
  7  9  1  0
  8 10  1  0
  9 10  2  0
  9 12  1  0
 10 13  1  0
 11 12  2  0
 11 14  1  0
 11 15  1  0
 13 14  2  0
M  CHG  4   2  -1   4  -1   7   1   8   1
M  END
>  <PUBCHEM_COMPOUND_CID>  (1) 
10709

>  <PUBCHEM_CONFORMER_RMSD>  (1) 
0.6

>  <PUBCHEM_CONFORMER_DIVERSEORDER>  (1) 
1
2
3

>  <PUBCHEM_MMFF94_PARTIAL_CHARGES>  (1) 
19
1 -0.65
10 0.13
11 0.09
12 -0.15
13 -0.15
14 -0.15
15 0.63
16 0.15
17 0.15
18 0.15
19 0.5
2 -0.52
3 -0.52
4 -0.52
5 -0.52
6 -0.57
7 0.91
8 0.91
9 0.13

>  <PUBCHEM_EFFECTIVE_ROTOR_COUNT>  (1) 
3

>  <PUBCHEM_PHARMACOPHORE_FEATURES>  (1) 
10
1 1 acceptor
1 2 acceptor
1 2 anion
1 3 acceptor
1 4 acceptor
1 4 anion
1 5 acceptor
1 6 acceptor
3 1 6 15 anion
6 9 10 11 12 13 14 rings

>  <PUBCHEM_HEAVY_ATOM_COUNT>  (1) 
15

>  <PUBCHEM_ATOM_DEF_STEREO_COUNT>  (1) 
0

>  <PUBCHEM_ATOM_UDEF_STEREO_COUNT>  (1) 
0

>  <PUBCHEM_BOND_DEF_STEREO_COUNT>  (1) 
0

>  <PUBCHEM_BOND_UDEF_STEREO_COUNT>  (1) 
0

>  <PUBCHEM_ISOTOPIC_ATOM_COUNT>  (1) 
0

>  <PUBCHEM_COMPONENT_COUNT>  (1) 
1

>  <PUBCHEM_CACTVS_TAUTO_COUNT>  (1) 
1

>  <PUBCHEM_CONFORMER_ID>  (1) 
000029D500000001

>  <PUBCHEM_MMFF94_ENERGY>  (1) 
52.7652

>  <PUBCHEM_FEATURE_SELFOVERLAP>  (1) 
50.971

>  <PUBCHEM_SHAPE_FINGERPRINT>  (1) 
10980938 120 18412546526487001583
12932764 1 17560795559232899213
13140716 1 17978510072411245009
13296908 3 18261116244965914995
13380535 21 18411149038739502439
13380535 76 18336543931746731723
14576447 43 18057025025683723447
15219456 202 18262790775168025669
15536298 74 18343865489412862658
161256 15 18339645529594635660
16945 1 18338799030306205761
18186145 218 18187366463809464919
19021347 11 18336264638565642187
193761 8 18194683653019888161
20588541 1 18336269054034700065
20645476 183 17461731880831587772
20645477 70 18411978027916187391
20871998 22 18126003754571038166
21501502 16 18338802187065054825
2334 1 18410293575685540385
23402655 69 18341036447123866773
23463225 33 18334006207523048544
23552423 10 18261397685028947229
23557571 272 17481996631962409670
2748010 2 18337106744477386509
528862 383 18409161108414967094
53812653 166 18271801371536286537
57177213 63 18260838106730562828
7364860 26 18201436931052743022
81539 233 18261108608055022950

>  <PUBCHEM_SHAPE_MULTIPOLES>  (1) 
263.52
5.31
2.16
0.83
3.53
0.59
0
-0.23
0
-1.18
0
-0.63
0.11
0

>  <PUBCHEM_SHAPE_SELFOVERLAP>  (1) 
561.098

>  <PUBCHEM_SHAPE_VOLUME>  (1) 
146.7

>  <PUBCHEM_COORDINATE_TYPE>  (1) 
2
5
10

$$$$
