10700
     RDKit          3D

  8  8  0  0  0  0  0  0  0  0999 V2000
    0.8185   -1.4286    0.0004 S   0  0  0  0  0  0  0  0  0  0  0  0
   -2.1261    1.1787    0.0005 O   0  0  0  0  0  0  0  0  0  0  0  0
   -2.2060   -1.0929   -0.0002 O   0  0  0  0  0  0  0  0  0  0  0  0
   -0.0898    0.0232    0.0000 C   0  0  0  0  0  0  0  0  0  0  0  0
    0.7186    1.1387   -0.0001 C   0  0  0  0  0  0  0  0  0  0  0  0
    2.1019    0.7969   -0.0002 C   0  0  0  0  0  0  0  0  0  0  0  0
    2.2979   -0.5665    0.0001 C   0  0  0  0  0  0  0  0  0  0  0  0
   -1.5150   -0.0495   -0.0004 C   0  0  0  0  0  0  0  0  0  0  0  0
  1  4  1  0
  1  7  1  0
  2  8  1  0
  3  8  2  0
  4  5  2  0
  4  8  1  0
  5  6  1  0
  6  7  2  0
M  END
>  <PUBCHEM_COMPOUND_CID>  (1) 
10700

>  <PUBCHEM_CONFORMER_RMSD>  (1) 
0.4

>  <PUBCHEM_CONFORMER_DIVERSEORDER>  (1) 
1
2

>  <PUBCHEM_MMFF94_PARTIAL_CHARGES>  (1) 
12
1 -0.08
10 0.15
11 0.15
12 0.5
2 -0.65
3 -0.57
4 -0.05
5 -0.15
6 -0.15
7 -0.11
8 0.81
9 0.15

>  <PUBCHEM_EFFECTIVE_ROTOR_COUNT>  (1) 
1

>  <PUBCHEM_PHARMACOPHORE_FEATURES>  (1) 
4
1 2 acceptor
1 3 acceptor
3 2 3 8 anion
5 1 4 5 6 7 rings

>  <PUBCHEM_HEAVY_ATOM_COUNT>  (1) 
8

>  <PUBCHEM_ATOM_DEF_STEREO_COUNT>  (1) 
0

>  <PUBCHEM_ATOM_UDEF_STEREO_COUNT>  (1) 
0

>  <PUBCHEM_BOND_DEF_STEREO_COUNT>  (1) 
0

>  <PUBCHEM_BOND_UDEF_STEREO_COUNT>  (1) 
0

>  <PUBCHEM_ISOTOPIC_ATOM_COUNT>  (1) 
0

>  <PUBCHEM_COMPONENT_COUNT>  (1) 
1

>  <PUBCHEM_CACTVS_TAUTO_COUNT>  (1) 
1

>  <PUBCHEM_CONFORMER_ID>  (1) 
000029CC00000001

>  <PUBCHEM_MMFF94_ENERGY>  (1) 
8.7155

>  <PUBCHEM_FEATURE_SELFOVERLAP>  (1) 
20.355

>  <PUBCHEM_SHAPE_FINGERPRINT>  (1) 
12897270 3 18337951298150860367
14325111 11 18410855486304270880
14390081 3 18343016700812068160
18185500 45 18339922610751237122
20096714 4 18411418436046572200
21040471 1 18338516464539404388
23552423 10 18261397723773466638
24536 1 18337656568841718605
29004967 10 18410295796072667922
5084963 1 18272655700555105066

>  <PUBCHEM_SHAPE_MULTIPOLES>  (1) 
156.75
3.2
1.46
0.6
0.66
0.14
0
-0.07
0
-0.04
0
-0.06
0.02
0

>  <PUBCHEM_SHAPE_SELFOVERLAP>  (1) 
312.371

>  <PUBCHEM_SHAPE_VOLUME>  (1) 
93.7

>  <PUBCHEM_COORDINATE_TYPE>  (1) 
2
5
10

$$$$
