10721
     RDKit          3D

  9  9  0  0  0  0  0  0  0  0999 V2000
    3.0349    0.5727    0.0001 N   0  0  0  0  0  0  0  0  0  0  0  0
   -0.1380   -0.9507   -0.0002 C   0  0  0  0  0  0  0  0  0  0  0  0
    0.4573    0.3108   -0.0002 C   0  0  0  0  0  0  0  0  0  0  0  0
   -1.5282   -1.0659    0.0000 C   0  0  0  0  0  0  0  0  0  0  0  0
    0.6816   -2.2013    0.0001 C   0  0  0  0  0  0  0  0  0  0  0  0
   -0.3377    1.4570    0.0000 C   0  0  0  0  0  0  0  0  0  0  0  0
   -2.3231    0.0803    0.0001 C   0  0  0  0  0  0  0  0  0  0  0  0
   -1.7279    1.3417    0.0001 C   0  0  0  0  0  0  0  0  0  0  0  0
    1.8811    0.4555    0.0000 C   0  0  0  0  0  0  0  0  0  0  0  0
  1  9  3  0
  2  3  2  0
  2  4  1  0
  2  5  1  0
  3  6  1  0
  3  9  1  0
  4  7  2  0
  6  8  2  0
  7  8  1  0
M  END
>  <PUBCHEM_COMPOUND_CID>  (1) 
10721

>  <PUBCHEM_CONFORMER_RMSD>  (1) 
0.4

>  <PUBCHEM_CONFORMER_DIVERSEORDER>  (1) 
1

>  <PUBCHEM_MMFF94_PARTIAL_CHARGES>  (1) 
13
1 -0.56
10 0.15
14 0.15
15 0.15
16 0.15
2 -0.14
3 0.07
4 -0.15
5 0.14
6 -0.15
7 -0.15
8 -0.15
9 0.48

>  <PUBCHEM_EFFECTIVE_ROTOR_COUNT>  (1) 
0

>  <PUBCHEM_PHARMACOPHORE_FEATURES>  (1) 
2
1 1 acceptor
6 2 3 4 6 7 8 rings

>  <PUBCHEM_HEAVY_ATOM_COUNT>  (1) 
9

>  <PUBCHEM_ATOM_DEF_STEREO_COUNT>  (1) 
0

>  <PUBCHEM_ATOM_UDEF_STEREO_COUNT>  (1) 
0

>  <PUBCHEM_BOND_DEF_STEREO_COUNT>  (1) 
0

>  <PUBCHEM_BOND_UDEF_STEREO_COUNT>  (1) 
0

>  <PUBCHEM_ISOTOPIC_ATOM_COUNT>  (1) 
0

>  <PUBCHEM_COMPONENT_COUNT>  (1) 
1

>  <PUBCHEM_CACTVS_TAUTO_COUNT>  (1) 
1

>  <PUBCHEM_CONFORMER_ID>  (1) 
000029E100000001

>  <PUBCHEM_MMFF94_ENERGY>  (1) 
18.5681

>  <PUBCHEM_FEATURE_SELFOVERLAP>  (1) 
10.148

>  <PUBCHEM_SHAPE_FINGERPRINT>  (1) 
12423570 1 16744502982659373461
13024252 1 13551459389111035820
14325111 11 18410573981231231588
16714656 1 18338236071530598380
16945 1 18410575093458845765
193761 8 18050568430752741701
20645464 45 17916575574708977584
20871998 184 17983865759074462774
21040471 1 18410573950791836196
23235685 24 18409162212474815213
23402655 69 18267847412703069453
23552423 10 18263085409555272494
2748010 2 18193279589840521661
369184 2 18201435917308592392
5084963 1 18130790121796413912

>  <PUBCHEM_SHAPE_MULTIPOLES>  (1) 
180.23
3.12
1.9
0.61
1.24
0.75
0
-0.85
0
0.04
0
-0.03
0.01
0

>  <PUBCHEM_SHAPE_SELFOVERLAP>  (1) 
374.944

>  <PUBCHEM_SHAPE_VOLUME>  (1) 
101.7

>  <PUBCHEM_COORDINATE_TYPE>  (1) 
2
5
10

$$$$
