10720
     RDKit          3D

  9 10  0  0  1  0  0  0  0  0999 V2000
    0.6303    1.1176   -0.3634 C   0  0  0  0  0  0  0  0  0  0  0  0
    0.6307   -1.1173   -0.3635 C   0  0  0  0  0  0  0  0  0  0  0  0
    1.0263    0.0003   -1.3327 C   0  0  0  0  0  0  0  0  0  0  0  0
    1.5115    0.7765    0.8563 C   0  0  0  0  0  0  0  0  0  0  0  0
    1.5121   -0.7761    0.8560 C   0  0  0  0  0  0  0  0  0  0  0  0
   -0.7856    0.6725   -0.0519 C   0  0  0  0  0  0  0  0  0  0  0  0
   -0.7853   -0.6727   -0.0520 C   0  0  0  0  0  0  0  0  0  0  0  0
   -1.8705    1.6430    0.2257 C   0  0  0  0  0  0  0  0  0  0  0  0
   -1.8697   -1.6437    0.2257 C   0  0  0  0  0  0  0  0  0  0  0  0
  1  3  1  0
  1  4  1  0
  1  6  1  0
  2  3  1  0
  2  5  1  0
  2  7  1  0
  4  5  1  0
  6  7  2  0
  6  8  1  0
  7  9  1  0
M  END
>  <PUBCHEM_COMPOUND_CID>  (1) 
10720

>  <PUBCHEM_CONFORMER_RMSD>  (1) 
0.4

>  <PUBCHEM_CONFORMER_DIVERSEORDER>  (1) 
1

>  <PUBCHEM_MMFF94_PARTIAL_CHARGES>  (1) 
6
1 0.14
2 0.14
6 -0.28
7 -0.28
8 0.14
9 0.14

>  <PUBCHEM_EFFECTIVE_ROTOR_COUNT>  (1) 
0.6

>  <PUBCHEM_PHARMACOPHORE_FEATURES>  (1) 
1
7 1 2 3 4 5 6 7 rings

>  <PUBCHEM_HEAVY_ATOM_COUNT>  (1) 
9

>  <PUBCHEM_ATOM_DEF_STEREO_COUNT>  (1) 
0

>  <PUBCHEM_ATOM_UDEF_STEREO_COUNT>  (1) 
2

>  <PUBCHEM_BOND_DEF_STEREO_COUNT>  (1) 
0

>  <PUBCHEM_BOND_UDEF_STEREO_COUNT>  (1) 
0

>  <PUBCHEM_ISOTOPIC_ATOM_COUNT>  (1) 
0

>  <PUBCHEM_COMPONENT_COUNT>  (1) 
1

>  <PUBCHEM_CACTVS_TAUTO_COUNT>  (1) 
1

>  <PUBCHEM_CONFORMER_ID>  (1) 
000029E000000001

>  <PUBCHEM_MMFF94_ENERGY>  (1) 
29.9751

>  <PUBCHEM_FEATURE_SELFOVERLAP>  (1) 
5.074

>  <PUBCHEM_SHAPE_FINGERPRINT>  (1) 
12423570 1 11958363741810400412
13024252 1 13193957405635400128
137420 1 15746137739987864316
15557651 10 16986025984271637376
16945 1 18338504296559464352
21040471 1 18266466390757304621
29004967 10 15648992301217945802
5084963 1 16271062969221563532
68250623 7 18336274500274764470

>  <PUBCHEM_SHAPE_MULTIPOLES>  (1) 
185.22
2.24
1.73
1.02
0.62
0
-0.13
0
0.42
0.82
0.14
-0.45
0
0

>  <PUBCHEM_SHAPE_SELFOVERLAP>  (1) 
393.658

>  <PUBCHEM_SHAPE_VOLUME>  (1) 
106

>  <PUBCHEM_COORDINATE_TYPE>  (1) 
2
5
10

$$$$
