10747
     RDKit          3D

 11 12  0  0  1  0  0  0  0  0999 V2000
   -2.5345    0.4508    1.2526 O   0  0  0  0  0  0  0  0  0  0  0  0
   -2.2993    0.5075   -0.1527 C   0  0  0  0  0  0  0  0  0  0  0  0
   -2.1255   -0.9076   -0.6934 C   0  0  0  0  0  0  0  0  0  0  0  0
   -1.0640    1.3631   -0.4449 C   0  0  0  0  0  0  0  0  0  0  0  0
   -0.9195   -1.6028   -0.0616 C   0  0  0  0  0  0  0  0  0  0  0  0
    0.2458    0.6548   -0.1874 C   0  0  0  0  0  0  0  0  0  0  0  0
    0.3180   -0.7425   -0.0445 C   0  0  0  0  0  0  0  0  0  0  0  0
    1.4266    1.4126   -0.1420 C   0  0  0  0  0  0  0  0  0  0  0  0
    1.5641   -1.3491    0.1768 C   0  0  0  0  0  0  0  0  0  0  0  0
    2.6599    0.7967    0.0677 C   0  0  0  0  0  0  0  0  0  0  0  0
    2.7284   -0.5836    0.2295 C   0  0  0  0  0  0  0  0  0  0  0  0
  1  2  1  0
  2  3  1  0
  2  4  1  0
  3  5  1  0
  4  6  1  0
  5  7  1  0
  6  7  2  0
  6  8  1  0
  7  9  1  0
  8 10  2  0
  9 11  2  0
 10 11  1  0
M  END
>  <PUBCHEM_COMPOUND_CID>  (1) 
10747

>  <PUBCHEM_CONFORMER_RMSD>  (1) 
0.4

>  <PUBCHEM_CONFORMER_DIVERSEORDER>  (1) 
3
1
2

>  <PUBCHEM_MMFF94_PARTIAL_CHARGES>  (1) 
15
1 -0.68
10 -0.15
11 -0.15
19 0.15
2 0.28
20 0.15
21 0.4
22 0.15
23 0.15
4 0.14
5 0.14
6 -0.14
7 -0.14
8 -0.15
9 -0.15

>  <PUBCHEM_EFFECTIVE_ROTOR_COUNT>  (1) 
0.8

>  <PUBCHEM_PHARMACOPHORE_FEATURES>  (1) 
4
1 1 acceptor
1 1 donor
6 2 3 4 5 6 7 rings
6 6 7 8 9 10 11 rings

>  <PUBCHEM_HEAVY_ATOM_COUNT>  (1) 
11

>  <PUBCHEM_ATOM_DEF_STEREO_COUNT>  (1) 
0

>  <PUBCHEM_ATOM_UDEF_STEREO_COUNT>  (1) 
1

>  <PUBCHEM_BOND_DEF_STEREO_COUNT>  (1) 
0

>  <PUBCHEM_BOND_UDEF_STEREO_COUNT>  (1) 
0

>  <PUBCHEM_ISOTOPIC_ATOM_COUNT>  (1) 
0

>  <PUBCHEM_COMPONENT_COUNT>  (1) 
1

>  <PUBCHEM_CACTVS_TAUTO_COUNT>  (1) 
1

>  <PUBCHEM_CONFORMER_ID>  (1) 
000029FB00000003

>  <PUBCHEM_MMFF94_ENERGY>  (1) 
22.5285

>  <PUBCHEM_FEATURE_SELFOVERLAP>  (1) 
20.318

>  <PUBCHEM_SHAPE_FINGERPRINT>  (1) 
12423570 1 11098943693563298741
12524768 44 18411420574861417910
12696612 119 18335708247175059484
12932764 1 18335701624430369604
14325111 11 18410289220314434716
15775835 57 18412549820442256385
16945 1 18408319977946128430
17844478 74 17895204285257893385
193761 8 14590396048132650814
21040471 1 18410008857939767684
21501502 16 18411979204235832430
23552423 10 18261107530060507566
241688 4 18264198274352240985
2748010 2 17833544596605891526
29004967 10 17748830700187757384
369184 2 18409724067058380933
5084963 1 18343290474927968403
528886 8 18410284826520504514
63268167 104 18410569582825855553
66348 1 18049438441920904382

>  <PUBCHEM_SHAPE_MULTIPOLES>  (1) 
220.51
3.92
1.67
0.79
0.42
0.12
-0.11
-0.16
-0.39
0.09
0.1
-0.38
-0.04
-0.24

>  <PUBCHEM_SHAPE_SELFOVERLAP>  (1) 
467.813

>  <PUBCHEM_SHAPE_VOLUME>  (1) 
122.3

>  <PUBCHEM_COORDINATE_TYPE>  (1) 
2
5
10

$$$$
