10756
     RDKit          3D

 15 15  0  0  0  0  0  0  0  0999 V2000
   -1.0050   -0.5404   -0.8666 O   0  0  0  0  0  0  0  0  0  0  0  0
    3.1768    2.0814    0.4341 O   0  0  0  0  0  0  0  0  0  0  0  0
    1.0881    1.2234   -0.2426 N   0  0  0  0  0  0  0  0  0  0  0  0
   -3.1719    0.2768   -0.2587 C   0  0  0  0  0  0  0  0  0  0  0  0
   -4.4293    0.0266    0.5691 C   0  0  0  0  0  0  0  0  0  0  0  0
   -2.1530   -0.8404   -0.0850 C   0  0  0  0  0  0  0  0  0  0  0  0
    0.1950   -1.0250   -0.4146 C   0  0  0  0  0  0  0  0  0  0  0  0
   -5.4261    1.1656    0.4264 C   0  0  0  0  0  0  0  0  0  0  0  0
    1.2372   -0.1582   -0.1023 C   0  0  0  0  0  0  0  0  0  0  0  0
    0.3526   -2.3999   -0.2726 C   0  0  0  0  0  0  0  0  0  0  0  0
    2.4501   -0.6717    0.3569 C   0  0  0  0  0  0  0  0  0  0  0  0
    1.5655   -2.9136    0.1868 C   0  0  0  0  0  0  0  0  0  0  0  0
    2.6142   -2.0494    0.5015 C   0  0  0  0  0  0  0  0  0  0  0  0
    2.0293    2.2251    0.0247 C   0  0  0  0  0  0  0  0  0  0  0  0
    1.4765    3.5998   -0.2571 C   0  0  0  0  0  0  0  0  0  0  0  0
  1  6  1  0
  1  7  1  0
  2 14  2  0
  3  9  1  0
  3 14  1  0
  4  5  1  0
  4  6  1  0
  5  8  1  0
  7  9  2  0
  7 10  1  0
  9 11  1  0
 10 12  2  0
 11 13  2  0
 12 13  1  0
 14 15  1  0
M  END
>  <PUBCHEM_COMPOUND_CID>  (1) 
10756

>  <PUBCHEM_CONFORMER_RMSD>  (1) 
0.6

>  <PUBCHEM_CONFORMER_DIVERSEORDER>  (1) 
1
76
75
68
88
77
37
48
38
96
33
99
98
95
83
29
52
54
72
30
93
90
21
35
94
57
91
23
42
7
41
81
20
82
31
24
100
49
47
43
26
84
65
80
89
14
45
79
55
19
85
44
86
50
46
73
13
56
71
27
97
17
15
60
64
10
62
70
25
12
67
61
59
16
69
74
22
63
11
58
8
2
78
51
18
87
92
34
53
39
66
36
9
6
32
28
40
5
4
3

>  <PUBCHEM_MMFF94_PARTIAL_CHARGES>  (1) 
17
1 -0.36
10 -0.15
11 -0.15
12 -0.15
13 -0.15
14 0.57
15 0.06
2 -0.57
25 0.15
26 0.15
27 0.37
28 0.15
29 0.15
3 -0.55
6 0.28
7 0.08
9 0.12

>  <PUBCHEM_EFFECTIVE_ROTOR_COUNT>  (1) 
6

>  <PUBCHEM_PHARMACOPHORE_FEATURES>  (1) 
5
1 1 acceptor
1 2 acceptor
1 3 donor
1 8 hydrophobe
6 7 9 10 11 12 13 rings

>  <PUBCHEM_HEAVY_ATOM_COUNT>  (1) 
15

>  <PUBCHEM_ATOM_DEF_STEREO_COUNT>  (1) 
0

>  <PUBCHEM_ATOM_UDEF_STEREO_COUNT>  (1) 
0

>  <PUBCHEM_BOND_DEF_STEREO_COUNT>  (1) 
0

>  <PUBCHEM_BOND_UDEF_STEREO_COUNT>  (1) 
0

>  <PUBCHEM_ISOTOPIC_ATOM_COUNT>  (1) 
0

>  <PUBCHEM_COMPONENT_COUNT>  (1) 
1

>  <PUBCHEM_CACTVS_TAUTO_COUNT>  (1) 
2

>  <PUBCHEM_CONFORMER_ID>  (1) 
00002A0400000001

>  <PUBCHEM_MMFF94_ENERGY>  (1) 
40.3283

>  <PUBCHEM_FEATURE_SELFOVERLAP>  (1) 
25.372

>  <PUBCHEM_SHAPE_FINGERPRINT>  (1) 
10465860 228 18412262856618511353
12173636 292 17546726414180561804
14123255 52 18196372743567099865
14790565 3 18337115652656945860
18785283 64 18261397783750001976
20559304 39 18339366257920239039
20671657 1 18411705400097112351
20681677 76 18261664897126208437
21041028 32 18120930599393666846
21524375 3 18055351602570221021
21665062 11 18339368452817319505
2255824 54 18411982464021292039
23558518 356 18049437342636805614
23598291 2 18131056160956192415
305870 269 18337951323846791532
3071541 12 18411136982729463902
31174 14 18333730178812685247
474 4 18338794619538199753
49207404 50 18116445915113342243
54173680 148 17113252240080244342
5939293 188 18411418384401664574
7364860 26 18411419501040342574
81228 2 17329130387484540622
84936 182 18129376171481785929

>  <PUBCHEM_SHAPE_MULTIPOLES>  (1) 
291.97
7.36
3.72
0.74
14.39
2.31
0
2.1
-1.88
-4.44
0.03
0.1
-0.06
-0.3

>  <PUBCHEM_SHAPE_SELFOVERLAP>  (1) 
585.679

>  <PUBCHEM_SHAPE_VOLUME>  (1) 
172

>  <PUBCHEM_COORDINATE_TYPE>  (1) 
2
5
10

$$$$
