10752
     RDKit          3D

 14 15  0  0  0  0  0  0  0  0999 V2000
    0.2340   -1.6334   -0.0905 O   0  0  0  0  0  0  0  0  0  0  0  0
   -2.0084   -2.0697   -0.1354 O   0  0  0  0  0  0  0  0  0  0  0  0
   -3.5659   -0.1400    0.5851 O   0  0  0  0  0  0  0  0  0  0  0  0
   -3.0510    1.8339   -0.4488 O   0  0  0  0  0  0  0  0  0  0  0  0
    1.0067    0.6683    0.0346 C   0  0  0  0  0  0  0  0  0  0  0  0
    1.2817   -0.6937   -0.0324 C   0  0  0  0  0  0  0  0  0  0  0  0
   -0.3804    1.1066    0.0435 C   0  0  0  0  0  0  0  0  0  0  0  0
   -1.3717    0.2093   -0.0120 C   0  0  0  0  0  0  0  0  0  0  0  0
    2.0728    1.5694    0.0913 C   0  0  0  0  0  0  0  0  0  0  0  0
    2.5879   -1.1789   -0.0449 C   0  0  0  0  0  0  0  0  0  0  0  0
   -1.1028   -1.2445   -0.0835 C   0  0  0  0  0  0  0  0  0  0  0  0
    3.3886    1.0975    0.0798 C   0  0  0  0  0  0  0  0  0  0  0  0
    3.6452   -0.2737    0.0116 C   0  0  0  0  0  0  0  0  0  0  0  0
   -2.7367    0.7490    0.0017 C   0  0  0  0  0  0  0  0  0  0  0  0
  1  6  1  0
  1 11  1  0
  2 11  2  0
  3 14  1  0
  4 14  2  0
  5  6  2  0
  5  7  1  0
  5  9  1  0
  6 10  1  0
  7  8  2  0
  8 11  1  0
  8 14  1  0
  9 12  2  0
 10 13  2  0
 12 13  1  0
M  END
>  <PUBCHEM_COMPOUND_CID>  (1) 
10752

>  <PUBCHEM_CONFORMER_RMSD>  (1) 
0.4

>  <PUBCHEM_CONFORMER_DIVERSEORDER>  (1) 
1
3
2

>  <PUBCHEM_MMFF94_PARTIAL_CHARGES>  (1) 
20
1 -0.23
10 -0.15
11 0.71
12 -0.15
13 -0.15
14 0.71
15 0.15
16 0.15
17 0.15
18 0.15
19 0.15
2 -0.57
20 0.5
3 -0.65
4 -0.57
5 0.03
6 0.08
7 -0.18
8 0.03
9 -0.15

>  <PUBCHEM_EFFECTIVE_ROTOR_COUNT>  (1) 
1

>  <PUBCHEM_PHARMACOPHORE_FEATURES>  (1) 
7
1 2 acceptor
1 3 acceptor
1 4 acceptor
1 8 anion
3 3 4 14 anion
6 1 5 6 7 8 11 rings
6 5 6 9 10 12 13 rings

>  <PUBCHEM_HEAVY_ATOM_COUNT>  (1) 
14

>  <PUBCHEM_ATOM_DEF_STEREO_COUNT>  (1) 
0

>  <PUBCHEM_ATOM_UDEF_STEREO_COUNT>  (1) 
0

>  <PUBCHEM_BOND_DEF_STEREO_COUNT>  (1) 
0

>  <PUBCHEM_BOND_UDEF_STEREO_COUNT>  (1) 
0

>  <PUBCHEM_ISOTOPIC_ATOM_COUNT>  (1) 
0

>  <PUBCHEM_COMPONENT_COUNT>  (1) 
1

>  <PUBCHEM_CACTVS_TAUTO_COUNT>  (1) 
1

>  <PUBCHEM_CONFORMER_ID>  (1) 
00002A0000000001

>  <PUBCHEM_MMFF94_ENERGY>  (1) 
44.8613

>  <PUBCHEM_FEATURE_SELFOVERLAP>  (1) 
35.947

>  <PUBCHEM_SHAPE_FINGERPRINT>  (1) 
10608611 8 18411696616767945368
10922523 26 18408042896647271084
10967382 1 18411138000314790636
10980938 120 18409450254477490658
11132069 177 18412819196933749360
11471102 20 18339638945299046556
12251169 10 18409446998865841552
12382932 28 18341890818422503624
12932764 1 17531235154554564356
13380535 21 18339652221185272758
13380535 76 18412823573057297390
13581323 91 18187649123690772913
13897977 150 18412822508074063540
14144814 61 18411138013242092088
14325111 11 18410573980893686440
14897335 6 18412256242294951060
14911166 2 18341053995647678742
15219456 202 18410293596880717580
15279308 100 18410013191482797676
15442244 35 18339078173221111394
15536298 74 18343584058008232706
15775835 57 18409172129606925796
16945 1 18341052904551976846
17844478 74 18113626681110351297
18186145 218 18272095933098882764
20201158 50 18343021060520228774
20871998 184 18200880702686496359
21267235 1 18410583893773300562
21501502 16 18339077211032282046
2334 1 18267583687870929622
23402539 116 18201146676883499613
23402655 69 18270387297010179837
23463225 33 18408322185685919008
23552423 10 18261954167025416862
23559900 14 18272652334366277324
25 1 18266172825479395309
2748010 2 18340488962445318518
5104073 3 18410856555344829777
528886 8 18412257337775336240
53812653 166 18271803566485925968
63268167 104 18341335513368431432
6333449 129 18341327885374631695
69090 78 18342735234836644791
7364860 26 18270681957446882926
8809292 202 18335426785273388770

>  <PUBCHEM_SHAPE_MULTIPOLES>  (1) 
264.64
5.83
1.9
0.62
0.1
0.26
0.01
-1.09
0.21
0.41
-0.12
0.05
-0.03
0.17

>  <PUBCHEM_SHAPE_SELFOVERLAP>  (1) 
582.203

>  <PUBCHEM_SHAPE_VOLUME>  (1) 
141.8

>  <PUBCHEM_COORDINATE_TYPE>  (1) 
2
5
10

$$$$
