10778
     RDKit          3D

 11 11  0  0  0  0  0  0  0  0999 V2000
    1.2123    0.1077   -0.8326 O   0  0  0  0  0  0  0  0  0  0  0  0
    1.8337    0.3990    1.4055 O   0  0  0  0  0  0  0  0  0  0  0  0
   -0.7826   -0.9991   -0.0968 C   0  0  0  0  0  0  0  0  0  0  0  0
   -0.0947    0.1614   -0.4512 C   0  0  0  0  0  0  0  0  0  0  0  0
   -2.1205   -0.9258    0.2912 C   0  0  0  0  0  0  0  0  0  0  0  0
   -0.7445    1.3951   -0.4177 C   0  0  0  0  0  0  0  0  0  0  0  0
   -0.1032   -2.3282   -0.1270 C   0  0  0  0  0  0  0  0  0  0  0  0
   -2.7703    0.3080    0.3248 C   0  0  0  0  0  0  0  0  0  0  0  0
   -2.0823    1.4685   -0.0295 C   0  0  0  0  0  0  0  0  0  0  0  0
    2.1237    0.2428    0.2268 C   0  0  0  0  0  0  0  0  0  0  0  0
    3.5286    0.1707   -0.2936 C   0  0  0  0  0  0  0  0  0  0  0  0
  1  4  1  0
  1 10  1  0
  2 10  2  0
  3  4  2  0
  3  5  1  0
  3  7  1  0
  4  6  1  0
  5  8  2  0
  6  9  2  0
  8  9  1  0
 10 11  1  0
M  END
>  <PUBCHEM_COMPOUND_CID>  (1) 
10778

>  <PUBCHEM_CONFORMER_RMSD>  (1) 
0.4

>  <PUBCHEM_CONFORMER_DIVERSEORDER>  (1) 
2
12
9
11
15
19
20
7
8
18
3
4
13
16
1
17
14
6
5
10
21
22

>  <PUBCHEM_MMFF94_PARTIAL_CHARGES>  (1) 
15
1 -0.23
10 0.66
11 0.06
12 0.15
13 0.15
17 0.15
18 0.15
2 -0.57
3 -0.14
4 0.08
5 -0.15
6 -0.15
7 0.14
8 -0.15
9 -0.15

>  <PUBCHEM_EFFECTIVE_ROTOR_COUNT>  (1) 
2

>  <PUBCHEM_PHARMACOPHORE_FEATURES>  (1) 
2
1 2 acceptor
6 3 4 5 6 8 9 rings

>  <PUBCHEM_HEAVY_ATOM_COUNT>  (1) 
11

>  <PUBCHEM_ATOM_DEF_STEREO_COUNT>  (1) 
0

>  <PUBCHEM_ATOM_UDEF_STEREO_COUNT>  (1) 
0

>  <PUBCHEM_BOND_DEF_STEREO_COUNT>  (1) 
0

>  <PUBCHEM_BOND_UDEF_STEREO_COUNT>  (1) 
0

>  <PUBCHEM_ISOTOPIC_ATOM_COUNT>  (1) 
0

>  <PUBCHEM_COMPONENT_COUNT>  (1) 
1

>  <PUBCHEM_CACTVS_TAUTO_COUNT>  (1) 
1

>  <PUBCHEM_CONFORMER_ID>  (1) 
00002A1A00000002

>  <PUBCHEM_MMFF94_ENERGY>  (1) 
30.4248

>  <PUBCHEM_FEATURE_SELFOVERLAP>  (1) 
10.148

>  <PUBCHEM_SHAPE_FINGERPRINT>  (1) 
10857977 72 18410855499099528105
12423570 1 11430723779750004599
13024252 1 14345788353484067957
14325111 11 18410577249548252740
14993402 34 18187364358779650405
15076042 46 18188481368178049760
15775835 57 18341052934395202099
16945 1 18409167714433195613
20645464 45 18059560430308068088
20653085 51 15841550786113149937
20871998 184 18269845383157792583
21040471 1 18337959991254247319
23235685 24 18409165476502241269
23552423 10 17538573509775097589
2748010 2 17974581199769476525
369184 2 17703785942185945833
5084963 1 18131073752851936321
53812653 166 18271530788728325305
54338 74 18121201336936196263

>  <PUBCHEM_SHAPE_MULTIPOLES>  (1) 
214.64
4.25
1.72
0.85
2.56
0.79
-0.15
-0.94
-0.39
-0.77
0.13
0.29
-0.08
0.12

>  <PUBCHEM_SHAPE_SELFOVERLAP>  (1) 
442.647

>  <PUBCHEM_SHAPE_VOLUME>  (1) 
122.7

>  <PUBCHEM_COORDINATE_TYPE>  (1) 
2
5
10

$$$$
