10774
     RDKit          3D

 16 17  0  0  0  0  0  0  0  0999 V2000
   -0.6411    1.7198    1.0314 O   0  0  0  0  0  0  0  0  0  0  0  0
    1.2806    1.1206   -0.8232 N   0  0  0  0  0  0  0  0  0  0  0  0
    0.0440    0.5399   -0.8414 N   0  0  0  0  0  0  0  0  0  0  0  0
   -2.1920    0.2540    0.0555 C   0  0  0  0  0  0  0  0  0  0  0  0
    2.3776    0.3843   -0.3598 C   0  0  0  0  0  0  0  0  0  0  0  0
   -0.8878    0.8922    0.1353 C   0  0  0  0  0  0  0  0  0  0  0  0
   -3.3166    0.8984    0.5712 C   0  0  0  0  0  0  0  0  0  0  0  0
   -2.3187   -1.0024   -0.5371 C   0  0  0  0  0  0  0  0  0  0  0  0
    3.6827    0.8271   -0.6069 C   0  0  0  0  0  0  0  0  0  0  0  0
    2.1816   -0.8033    0.3555 C   0  0  0  0  0  0  0  0  0  0  0  0
   -4.5676    0.2865    0.4945 C   0  0  0  0  0  0  0  0  0  0  0  0
   -3.5699   -1.6143   -0.6139 C   0  0  0  0  0  0  0  0  0  0  0  0
    4.7755    0.0931   -0.1458 C   0  0  0  0  0  0  0  0  0  0  0  0
    3.2745   -1.5371    0.8167 C   0  0  0  0  0  0  0  0  0  0  0  0
   -4.6943   -0.9698   -0.0980 C   0  0  0  0  0  0  0  0  0  0  0  0
    4.5715   -1.0888    0.5660 C   0  0  0  0  0  0  0  0  0  0  0  0
  1  6  2  0
  2  3  1  0
  2  5  1  0
  3  6  1  0
  4  6  1  0
  4  7  2  0
  4  8  1  0
  5  9  2  0
  5 10  1  0
  7 11  1  0
  8 12  2  0
  9 13  1  0
 10 14  2  0
 11 15  2  0
 12 15  1  0
 13 16  2  0
 14 16  1  0
M  END
>  <PUBCHEM_COMPOUND_CID>  (1) 
10774

>  <PUBCHEM_CONFORMER_RMSD>  (1) 
0.6

>  <PUBCHEM_CONFORMER_DIVERSEORDER>  (1) 
2
17
12
15
4
9
13
1
8
16
5
7
3
14
11
6
10

>  <PUBCHEM_MMFF94_PARTIAL_CHARGES>  (1) 
28
1 -0.57
10 -0.15
11 -0.15
12 -0.15
13 -0.15
14 -0.15
15 -0.15
16 -0.15
17 0.4
18 0.37
19 0.15
2 -0.52
20 0.15
21 0.15
22 0.15
23 0.15
24 0.15
25 0.15
26 0.15
27 0.15
28 0.15
3 -0.41
4 0.09
5 0.1
6 0.54
7 -0.15
8 -0.15
9 -0.15

>  <PUBCHEM_EFFECTIVE_ROTOR_COUNT>  (1) 
4

>  <PUBCHEM_PHARMACOPHORE_FEATURES>  (1) 
5
1 1 acceptor
1 2 donor
1 3 donor
6 4 7 8 11 12 15 rings
6 5 9 10 13 14 16 rings

>  <PUBCHEM_HEAVY_ATOM_COUNT>  (1) 
16

>  <PUBCHEM_ATOM_DEF_STEREO_COUNT>  (1) 
0

>  <PUBCHEM_ATOM_UDEF_STEREO_COUNT>  (1) 
0

>  <PUBCHEM_BOND_DEF_STEREO_COUNT>  (1) 
0

>  <PUBCHEM_BOND_UDEF_STEREO_COUNT>  (1) 
0

>  <PUBCHEM_ISOTOPIC_ATOM_COUNT>  (1) 
0

>  <PUBCHEM_COMPONENT_COUNT>  (1) 
1

>  <PUBCHEM_CACTVS_TAUTO_COUNT>  (1) 
2

>  <PUBCHEM_CONFORMER_ID>  (1) 
00002A1600000002

>  <PUBCHEM_MMFF94_ENERGY>  (1) 
53.8614

>  <PUBCHEM_FEATURE_SELFOVERLAP>  (1) 
26.942

>  <PUBCHEM_SHAPE_FINGERPRINT>  (1) 
10062212 137 18413386557982419247
10465860 250 17989205949690647625
10616163 171 18341334486761179431
11046707 91 18342455950161210815
11578080 2 18265309816052551277
12107183 9 17762339106720260168
12236239 1 18409169908808068964
13167823 11 18408886234813481430
14251717 144 18040152924865072050
14251764 18 18411987966791932241
15242433 33 18408042918011357111
15375462 189 18410292523075473320
17834072 33 18409169930689230388
1798214 20 18260544532630480159
18186145 218 14851607691258265909
19050596 39 18412824677217014994
200 152 18260829297678636192
20281475 54 18337106869078670439
20645477 70 17312823762645903858
21250096 35 18411697690425035601
21267235 1 18409739460179341998
22485316 2 18409165515104160333
2255824 54 18189905386313550484
22646028 1 18408603664625287654
22646028 28 18408602565124462662
2297311 6 17703523133469699012
23366157 5 18053376892899483873
23402539 116 18411415098704100012
23559900 14 18343296002735917224
26918003 58 18040718069087729043
2871803 45 17530679879845072034
300161 21 18410287016922293885
33824 294 17749388157521696138
351380 180 10664103350163304770
351380 3 18407760330801900426
42 15 18410013230016014941
4214541 1 18408885101148123013
4921388 177 16081377409684395987
5104073 3 17987523770288952979
5374978 207 18059855069328067832
559249 180 18336260142236173107
573450 72 18342739602802417681
602551 16 17131544050611680766
76465 3 18058440075552430647

>  <PUBCHEM_SHAPE_MULTIPOLES>  (1) 
313.44
10.94
1.56
0.91
0.96
0.2
-0.02
3.06
-0.67
-0.12
-0.12
0.06
-0.04
-1.26

>  <PUBCHEM_SHAPE_SELFOVERLAP>  (1) 
670.419

>  <PUBCHEM_SHAPE_VOLUME>  (1) 
172.5

>  <PUBCHEM_COORDINATE_TYPE>  (1) 
2
5
10

$$$$
