10776
     RDKit          3D

 13 14  0  0  0  0  0  0  0  0999 V2000
    2.5418   -1.6282    0.0780 O   0  0  0  0  0  0  0  0  0  0  0  0
    3.4056    0.5365   -0.5347 O   0  0  0  0  0  0  0  0  0  0  0  0
   -4.2871   -0.2436    0.1389 N   0  0  0  0  0  0  0  0  0  0  0  0
   -1.9796    0.1577    0.9411 C   0  0  0  0  0  0  0  0  0  0  0  0
   -0.5483    0.2950    0.5420 C   0  0  0  0  0  0  0  0  0  0  0  0
   -2.8878   -0.1372   -0.2606 C   0  0  0  0  0  0  0  0  0  0  0  0
    1.5942   -0.6540    0.1506 C   0  0  0  0  0  0  0  0  0  0  0  0
    0.2784   -0.8309    0.5264 C   0  0  0  0  0  0  0  0  0  0  0  0
    2.0876    0.5821   -0.1992 C   0  0  0  0  0  0  0  0  0  0  0  0
   -0.0442    1.5580    0.1846 C   0  0  0  0  0  0  0  0  0  0  0  0
    1.2924    1.7096   -0.1923 C   0  0  0  0  0  0  0  0  0  0  0  0
    3.6867   -0.8667   -0.3574 C   0  0  0  0  0  0  0  0  0  0  0  0
   -5.1398   -0.4784   -1.0174 C   0  0  0  0  0  0  0  0  0  0  0  0
  1  7  1  0
  1 12  1  0
  2  9  1  0
  2 12  1  0
  3  6  1  0
  3 13  1  0
  4  5  1  0
  4  6  1  0
  5  8  1  0
  5 10  2  0
  7  8  2  0
  7  9  1  0
  9 11  2  0
 10 11  1  0
M  END
>  <PUBCHEM_COMPOUND_CID>  (1) 
10776

>  <PUBCHEM_CONFORMER_RMSD>  (1) 
0.6

>  <PUBCHEM_CONFORMER_DIVERSEORDER>  (1) 
1
9
4
2
10
7
3
8
5
6

>  <PUBCHEM_MMFF94_PARTIAL_CHARGES>  (1) 
17
1 -0.36
10 -0.15
11 -0.15
12 0.56
13 0.27
18 0.15
19 0.15
2 -0.36
20 0.15
23 0.36
3 -0.9
4 0.14
5 -0.14
6 0.27
7 0.08
8 -0.15
9 0.08

>  <PUBCHEM_EFFECTIVE_ROTOR_COUNT>  (1) 
3.6

>  <PUBCHEM_PHARMACOPHORE_FEATURES>  (1) 
6
1 1 acceptor
1 2 acceptor
1 3 cation
1 3 donor
5 1 2 7 9 12 rings
6 5 7 8 9 10 11 rings

>  <PUBCHEM_HEAVY_ATOM_COUNT>  (1) 
13

>  <PUBCHEM_ATOM_DEF_STEREO_COUNT>  (1) 
0

>  <PUBCHEM_ATOM_UDEF_STEREO_COUNT>  (1) 
0

>  <PUBCHEM_BOND_DEF_STEREO_COUNT>  (1) 
0

>  <PUBCHEM_BOND_UDEF_STEREO_COUNT>  (1) 
0

>  <PUBCHEM_ISOTOPIC_ATOM_COUNT>  (1) 
0

>  <PUBCHEM_COMPONENT_COUNT>  (1) 
1

>  <PUBCHEM_CACTVS_TAUTO_COUNT>  (1) 
1

>  <PUBCHEM_CONFORMER_ID>  (1) 
00002A1800000001

>  <PUBCHEM_MMFF94_ENERGY>  (1) 
24.1227

>  <PUBCHEM_FEATURE_SELFOVERLAP>  (1) 
30.601

>  <PUBCHEM_SHAPE_FINGERPRINT>  (1) 
10498660 4 16009852963006257149
11401426 45 18335980943359884472
11471102 20 18335139812437605348
11806522 49 18343863333355175937
12251169 10 11312052158471991609
13571099 22 18335425676833858816
13581323 91 16271928203205051597
13690532 89 18341895173218836535
13705890 14 18410291436665064123
14251717 144 18410293618276484767
14576447 43 18271520983270613287
14911166 2 18261117382720785182
14993402 34 18343308071414371974
15477762 27 18412545418132270647
15757776 16 18410009914301457274
16945 1 18263099802460069480
18186145 218 17821444664858876025
18915474 69 17987790942908698439
200 152 18342739593853728457
20201158 50 18259991465454764490
20233049 118 14345786158745230727
20645477 70 18409168805323701471
21119208 17 18412542124430379415
21256008 61 18343018908525329113
21501925 9 18410006607545690434
21637258 2 16558472981198160838
221490 88 18120098531269263275
23402539 116 18342455889810122644
23402655 69 18335135380580008261
2748010 2 17903941176751606288
3060560 45 18334289881380817431
4047638 21 13912325680952494846
4072396 5 18115009884318798800

>  <PUBCHEM_SHAPE_MULTIPOLES>  (1) 
250.81
7.82
1.42
0.84
9
0.3
-0.01
-2.46
2.66
-1.03
0.03
0.45
-0.02
-0.29

>  <PUBCHEM_SHAPE_SELFOVERLAP>  (1) 
528.488

>  <PUBCHEM_SHAPE_VOLUME>  (1) 
142.5

>  <PUBCHEM_COORDINATE_TYPE>  (1) 
2
5
10

$$$$
