10806
     RDKit          3D

 22 23  0  0  0  0  0  0  0  0999 V2000
    2.6256   -0.6721    0.5653 O   0  0  0  0  0  0  0  0  0  0  0  0
    3.2651    1.7518    1.5685 O   0  0  0  0  0  0  0  0  0  0  0  0
    3.4831   -0.4151   -1.5745 O   0  0  0  0  0  0  0  0  0  0  0  0
   -1.7416    0.5051   -0.5484 N   0  0  0  0  0  0  0  0  0  0  0  0
   -2.3646    0.4186    0.5247 N   0  0  0  0  0  0  0  0  0  0  0  0
    1.7778    0.4048    0.3339 C   0  0  0  0  0  0  0  0  0  0  0  0
   -0.5226    1.1267   -0.4327 C   0  0  0  0  0  0  0  0  0  0  0  0
    0.5584    0.1970   -0.1858 C   0  0  0  0  0  0  0  0  0  0  0  0
    2.3580    1.7141    0.7367 C   0  0  0  0  0  0  0  0  0  0  0  0
   -0.4023    2.4540   -0.5806 C   0  0  0  0  0  0  0  0  0  0  0  0
    1.9534    2.9698    0.0672 C   0  0  0  0  0  0  0  0  0  0  0  0
    0.7895    3.2540   -0.5210 C   0  0  0  0  0  0  0  0  0  0  0  0
   -3.5915   -0.2292    0.2986 C   0  0  0  0  0  0  0  0  0  0  0  0
   -3.6704   -1.6141    0.4053 C   0  0  0  0  0  0  0  0  0  0  0  0
   -4.7171    0.5194   -0.0305 C   0  0  0  0  0  0  0  0  0  0  0  0
   -4.8875   -2.2573    0.1803 C   0  0  0  0  0  0  0  0  0  0  0  0
   -5.9343   -0.1239   -0.2554 C   0  0  0  0  0  0  0  0  0  0  0  0
    3.4334   -0.9806   -0.4906 C   0  0  0  0  0  0  0  0  0  0  0  0
    4.2878   -2.1455   -0.1158 C   0  0  0  0  0  0  0  0  0  0  0  0
   -6.0193   -1.5122   -0.1500 C   0  0  0  0  0  0  0  0  0  0  0  0
    4.1591   -2.7754    1.2375 C   0  0  0  0  0  0  0  0  0  0  0  0
    5.1598   -2.5900   -1.0328 C   0  0  0  0  0  0  0  0  0  0  0  0
  1  6  1  0
  1 18  1  0
  2  9  2  0
  3 18  2  0
  4  5  2  0
  4  7  1  0
  5 13  1  0
  6  8  2  0
  6  9  1  0
  7  8  1  0
  7 10  2  0
  9 11  1  0
 10 12  1  0
 11 12  2  0
 13 14  2  0
 13 15  1  0
 14 16  1  0
 15 17  2  0
 16 20  2  0
 17 20  1  0
 18 19  1  0
 19 21  1  0
 19 22  2  0
M  END
>  <PUBCHEM_COMPOUND_CID>  (1) 
10806

>  <PUBCHEM_CONFORMER_RMSD>  (1) 
0.8

>  <PUBCHEM_CONFORMER_DIVERSEORDER>  (1) 
1
30
40
4
26
49
3
27
21
11
45
36
31
34
19
5
25
33
23
41
12
13
29
15
8
18
28
9
48
43
2
14
20
46
35
47
32
44
38
37
17
10
6
24
39
7
42
16
22

>  <PUBCHEM_MMFF94_PARTIAL_CHARGES>  (1) 
33
1 -0.23
10 -0.15
11 -0.14
12 -0.15
13 0.18
14 -0.15
15 -0.15
16 -0.15
17 -0.15
18 0.71
19 -0.12
2 -0.57
20 -0.15
21 0.14
22 -0.3
23 0.15
24 0.15
25 0.15
26 0.15
27 0.15
28 0.15
29 0.15
3 -0.57
30 0.15
31 0.15
35 0.15
36 0.15
4 -0.17
5 -0.18
6 0.09
7 0.17
8 -0.15
9 0.54

>  <PUBCHEM_EFFECTIVE_ROTOR_COUNT>  (1) 
5

>  <PUBCHEM_PHARMACOPHORE_FEATURES>  (1) 
4
1 2 acceptor
1 3 acceptor
6 13 14 15 16 17 20 rings
7 6 7 8 9 10 11 12 rings

>  <PUBCHEM_HEAVY_ATOM_COUNT>  (1) 
22

>  <PUBCHEM_ATOM_DEF_STEREO_COUNT>  (1) 
0

>  <PUBCHEM_ATOM_UDEF_STEREO_COUNT>  (1) 
0

>  <PUBCHEM_BOND_DEF_STEREO_COUNT>  (1) 
0

>  <PUBCHEM_BOND_UDEF_STEREO_COUNT>  (1) 
0

>  <PUBCHEM_ISOTOPIC_ATOM_COUNT>  (1) 
0

>  <PUBCHEM_COMPONENT_COUNT>  (1) 
1

>  <PUBCHEM_CACTVS_TAUTO_COUNT>  (1) 
1

>  <PUBCHEM_CONFORMER_ID>  (1) 
00002A3600000001

>  <PUBCHEM_MMFF94_ENERGY>  (1) 
71.6068

>  <PUBCHEM_FEATURE_SELFOVERLAP>  (1) 
20.298

>  <PUBCHEM_SHAPE_FINGERPRINT>  (1) 
10622 236 17843664802851627799
11405975 8 18342463642875010201
114674 6 18261105322452943466
12107183 9 18269283357382002073
12293681 25 17973408119198923516
12553582 1 18339911615899138950
13103583 49 18129677287427973481
13533116 47 18270400615745514251
13540713 4 18267283371248036784
13583140 156 17486768847402166633
13631057 29 18192154798747943422
13911852 28 18340204064195621895
13955234 65 18197219358740785577
14178000 29 18410015433329112565
14251740 57 18342173409885294555
14251764 30 18129108823021952462
14341114 176 18413112779655447553
14790565 3 17544196433889135780
14866123 147 18051132489214212977
15352361 1 18409731725001290175
17492 89 18266180715878046131
17844677 252 18412549825512618857
1813 80 18271255932137995076
18222031 100 18341334417967186918
20403669 9 18339362967949475343
20645477 70 18262514922414145145
21033650 10 16805882871129473533
22182313 1 18265310877257243316
22224240 67 18056186123918406480
22950370 63 18338243665201589430
23424784 1240 17972048204242477163
23559900 14 18411414042769970665
239999 70 18338799021578971794
3004659 81 17968381160848393742
316301 35 18408599262463657794
3421961 26 18412261748627744808
38570 142 14116651312031485626
463206 1 18259705571041927691
465052 167 18272094885169255966
5104073 3 18130515206041724043
5207 123 18410573972767709357
6823239 73 18408599266615719704
7970288 3 18265893566717151266
960060 61 17894356587430865311
9709674 26 18190182485024372603
9971528 1 18408602595621932349

>  <PUBCHEM_SHAPE_MULTIPOLES>  (1) 
425.18
13.16
3.65
1.03
13.19
1.01
-0.04
-12.36
0.54
-3.91
-0.04
-1.21
-0.11
0.79

>  <PUBCHEM_SHAPE_SELFOVERLAP>  (1) 
905.374

>  <PUBCHEM_SHAPE_VOLUME>  (1) 
233.1

>  <PUBCHEM_COORDINATE_TYPE>  (1) 
2
5
10

$$$$
