10817
     RDKit          3D

 10 10  0  0  1  0  0  0  0  0999 V2000
    2.7217    0.1353    1.2170 O   0  0  0  0  0  0  0  0  0  0  0  0
    2.1743   -0.3661   -0.0079 C   0  0  0  0  0  0  0  0  0  0  0  0
    0.6912   -0.2088   -0.0065 C   0  0  0  0  0  0  0  0  0  0  0  0
    0.1244    1.0646    0.0477 C   0  0  0  0  0  0  0  0  0  0  0  0
   -0.1293   -1.3357   -0.0592 C   0  0  0  0  0  0  0  0  0  0  0  0
   -2.0831    0.0846   -0.0035 C   0  0  0  0  0  0  0  0  0  0  0  0
    2.8462    0.3622   -1.1761 C   0  0  0  0  0  0  0  0  0  0  0  0
   -1.2627    1.2113    0.0492 C   0  0  0  0  0  0  0  0  0  0  0  0
   -1.5165   -1.1889   -0.0577 C   0  0  0  0  0  0  0  0  0  0  0  0
   -3.5661    0.2415   -0.0029 C   0  0  0  0  0  0  0  0  0  0  0  0
  1  2  1  0
  2  3  1  0
  2  7  1  0
  3  4  2  0
  3  5  1  0
  4  8  1  0
  5  9  2  0
  6  8  2  0
  6  9  1  0
  6 10  1  0
M  END
>  <PUBCHEM_COMPOUND_CID>  (1) 
10817

>  <PUBCHEM_CONFORMER_RMSD>  (1) 
0.4

>  <PUBCHEM_CONFORMER_DIVERSEORDER>  (1) 
2
3
1

>  <PUBCHEM_MMFF94_PARTIAL_CHARGES>  (1) 
14
1 -0.68
10 0.14
12 0.15
13 0.15
17 0.15
18 0.15
2 0.42
22 0.4
3 -0.14
4 -0.15
5 -0.15
6 -0.14
8 -0.15
9 -0.15

>  <PUBCHEM_EFFECTIVE_ROTOR_COUNT>  (1) 
1

>  <PUBCHEM_PHARMACOPHORE_FEATURES>  (1) 
3
1 1 acceptor
1 1 donor
6 3 4 5 6 8 9 rings

>  <PUBCHEM_HEAVY_ATOM_COUNT>  (1) 
10

>  <PUBCHEM_ATOM_DEF_STEREO_COUNT>  (1) 
0

>  <PUBCHEM_ATOM_UDEF_STEREO_COUNT>  (1) 
1

>  <PUBCHEM_BOND_DEF_STEREO_COUNT>  (1) 
0

>  <PUBCHEM_BOND_UDEF_STEREO_COUNT>  (1) 
0

>  <PUBCHEM_ISOTOPIC_ATOM_COUNT>  (1) 
0

>  <PUBCHEM_COMPONENT_COUNT>  (1) 
1

>  <PUBCHEM_CACTVS_TAUTO_COUNT>  (1) 
1

>  <PUBCHEM_CONFORMER_ID>  (1) 
00002A4100000002

>  <PUBCHEM_MMFF94_ENERGY>  (1) 
22.8428

>  <PUBCHEM_FEATURE_SELFOVERLAP>  (1) 
15.223

>  <PUBCHEM_SHAPE_FINGERPRINT>  (1) 
10857977 72 18340761624043538923
11062470 55 16805326587065080229
12897270 3 18413114952333769462
12932764 1 17703789193407669255
14325111 11 18410294679354836045
14993402 34 18260555532168215733
15310529 11 16805320002669186429
15775835 57 17749680670094807204
16945 1 18412544310236358581
193761 8 17690842684851556215
20645464 45 17846206783033348682
20645476 183 17894925069339340454
21040471 1 18339643326139178158
21293036 1 18410299128967328733
23235685 24 18410856547002820629
23402655 69 18124297334970413645
23552423 10 17899701446523539557
2748010 2 18124029298122802141
29004967 10 16200433572068704842
369184 2 18060410309488002106
5084963 1 18264774259578832810

>  <PUBCHEM_SHAPE_MULTIPOLES>  (1) 
199.93
4.68
1.24
0.86
0.3
0.11
0.01
-0.48
-0.25
0.34
-0.02
-0.67
-0.06
-0.11

>  <PUBCHEM_SHAPE_SELFOVERLAP>  (1) 
407.805

>  <PUBCHEM_SHAPE_VOLUME>  (1) 
117.8

>  <PUBCHEM_COORDINATE_TYPE>  (1) 
2
5
10

$$$$
