10828
     RDKit          3D

 29 31  0  0  0  0  0  0  0  0999 V2000
    5.6090   -2.2445   -0.7282 O   0  0  0  0  0  0  0  0  0  0  0  0
   -0.1850    6.1026   -0.3858 O   0  0  0  0  0  0  0  0  0  0  0  0
   -6.0673   -2.8467   -0.8912 O   0  0  0  0  0  0  0  0  0  0  0  0
    0.5788    0.7503    0.9156 N   0  0  0  0  0  0  0  0  0  0  0  0
   -1.5849   -0.1317    0.9693 N   0  0  0  0  0  0  0  0  0  0  0  0
    0.2031   -1.5344    0.3041 N   0  0  0  0  0  0  0  0  0  0  0  0
   -0.2437   -0.3513    0.6753 C   0  0  0  0  0  0  0  0  0  0  0  0
    0.3846    2.1109    0.5844 C   0  0  0  0  0  0  0  0  0  0  0  0
   -2.7224   -0.8205    0.4968 C   0  0  0  0  0  0  0  0  0  0  0  0
    1.5654   -1.7133    0.0439 C   0  0  0  0  0  0  0  0  0  0  0  0
   -0.5165    2.4594   -0.4195 C   0  0  0  0  0  0  0  0  0  0  0  0
   -2.7359   -1.3379   -0.7981 C   0  0  0  0  0  0  0  0  0  0  0  0
    1.0950    3.0982    1.2634 C   0  0  0  0  0  0  0  0  0  0  0  0
   -3.8317   -0.9834    1.3257 C   0  0  0  0  0  0  0  0  0  0  0  0
    4.2830   -2.0712   -0.4751 C   0  0  0  0  0  0  0  0  0  0  0  0
    2.0625   -1.5088   -1.2433 C   0  0  0  0  0  0  0  0  0  0  0  0
    2.4271   -2.0968    1.0715 C   0  0  0  0  0  0  0  0  0  0  0  0
    0.0019    4.7927   -0.0674 C   0  0  0  0  0  0  0  0  0  0  0  0
   -4.9703   -2.1824   -0.4359 C   0  0  0  0  0  0  0  0  0  0  0  0
   -0.7080    3.8020   -0.7456 C   0  0  0  0  0  0  0  0  0  0  0  0
   -3.8603   -2.0189   -1.2646 C   0  0  0  0  0  0  0  0  0  0  0  0
    0.9034    4.4407    0.9372 C   0  0  0  0  0  0  0  0  0  0  0  0
   -4.9560   -1.6647    0.8592 C   0  0  0  0  0  0  0  0  0  0  0  0
    3.4213   -1.6878   -1.5028 C   0  0  0  0  0  0  0  0  0  0  0  0
    3.7859   -2.2757    0.8120 C   0  0  0  0  0  0  0  0  0  0  0  0
    6.5142   -1.9834    0.3433 C   0  0  0  0  0  0  0  0  0  0  0  0
    7.8356   -1.5177   -0.2299 C   0  0  0  0  0  0  0  0  0  0  0  0
   -1.1217    6.3917   -1.4227 C   0  0  0  0  0  0  0  0  0  0  0  0
   -7.1672   -2.9774    0.0083 C   0  0  0  0  0  0  0  0  0  0  0  0
  1 15  1  0
  1 26  1  0
  2 18  1  0
  2 28  1  0
  3 19  1  0
  3 29  1  0
  4  7  1  0
  4  8  1  0
  5  7  1  0
  5  9  1  0
  6  7  2  3
  6 10  1  0
  8 11  2  0
  8 13  1  0
  9 12  2  0
  9 14  1  0
 10 16  2  0
 10 17  1  0
 11 20  1  0
 12 21  1  0
 13 22  2  0
 14 23  2  0
 15 24  2  0
 15 25  1  0
 16 24  1  0
 17 25  2  0
 18 20  2  0
 18 22  1  0
 19 21  2  0
 19 23  1  0
 26 27  1  0
M  END
>  <PUBCHEM_COMPOUND_CID>  (1) 
10828

>  <PUBCHEM_CONFORMER_RMSD>  (1) 
1

>  <PUBCHEM_CONFORMER_DIVERSEORDER>  (1) 
1
22
13
43
37
35
8
27
38
24
17
41
42
5
25
4
39
19
34
40
30
26
31
14
33
21
28
10
2
11
29
32
15
6
7
20
18
36
16
23
12
9
3

>  <PUBCHEM_MMFF94_PARTIAL_CHARGES>  (1) 
42
1 -0.36
10 0.18
11 -0.15
12 -0.15
13 -0.15
14 -0.15
15 0.08
16 -0.15
17 -0.15
18 0.08
19 0.08
2 -0.36
20 -0.15
21 -0.15
22 -0.15
23 -0.15
24 -0.15
25 -0.15
26 0.28
28 0.28
29 0.28
3 -0.36
30 0.4
31 0.4
32 0.15
33 0.15
34 0.15
35 0.15
36 0.15
37 0.15
38 0.15
39 0.15
4 -0.55
40 0.15
41 0.15
42 0.15
43 0.15
5 -0.55
6 -0.63
7 0.55
8 0.1
9 0.1

>  <PUBCHEM_EFFECTIVE_ROTOR_COUNT>  (1) 
9

>  <PUBCHEM_PHARMACOPHORE_FEATURES>  (1) 
9
1 1 acceptor
1 2 acceptor
1 3 acceptor
1 4 donor
1 5 donor
4 4 5 6 7 cation
6 10 15 16 17 24 25 rings
6 8 11 13 18 20 22 rings
6 9 12 14 19 21 23 rings

>  <PUBCHEM_HEAVY_ATOM_COUNT>  (1) 
29

>  <PUBCHEM_ATOM_DEF_STEREO_COUNT>  (1) 
0

>  <PUBCHEM_ATOM_UDEF_STEREO_COUNT>  (1) 
0

>  <PUBCHEM_BOND_DEF_STEREO_COUNT>  (1) 
0

>  <PUBCHEM_BOND_UDEF_STEREO_COUNT>  (1) 
0

>  <PUBCHEM_ISOTOPIC_ATOM_COUNT>  (1) 
0

>  <PUBCHEM_COMPONENT_COUNT>  (1) 
1

>  <PUBCHEM_CACTVS_TAUTO_COUNT>  (1) 
2

>  <PUBCHEM_CONFORMER_ID>  (1) 
00002A4C00000001

>  <PUBCHEM_MMFF94_ENERGY>  (1) 
130.7091

>  <PUBCHEM_FEATURE_SELFOVERLAP>  (1) 
45.714

>  <PUBCHEM_SHAPE_FINGERPRINT>  (1) 
10411042 1 18411136939437172402
10940486 97 17845369006491824935
11045515 52 18411985728037960674
11101153 10 18336275587502922812
11386260 185 18266436855316880181
11411753 29 18115586089248709799
12788726 201 18046061558460564467
133893 2 18053967291956524651
13540713 5 17844543295809887147
13590594 115 18410020914361607761
13617811 41 18263928912159985300
14068700 675 18333735702425549286
14394314 77 18339647746056801675
14556957 393 18189075143634066094
15021287 119 18340783593803948635
15198563 99 18339361855737081948
15439362 3 18051128395836060089
15979999 66 18410852204886135581
16087824 20 18122065304896784401
1813 80 18271814518447205015
20238998 120 18342737407837188033
21049683 271 18335706103986424390
21344244 246 18124593338956030418
21365058 113 18411145770354182903
23559900 14 18264767852094997083
23929065 36 18193260920029117050
255183 451 18342454893895149151
283562 15 18189900825105917282
3388396 114 17973761153390910924
376196 1 17323500261296702457
4017518 198 17623287591579211704
4409770 3 17977103462100526189
5969126 39 18410854318221086846
6058803 2 17682117678224286546
6673363 416 18339095839449962718
6700243 42 17771373910463217974
9962374 69 18058446685724241023

>  <PUBCHEM_SHAPE_MULTIPOLES>  (1) 
564.26
13.77
8.2
1.32
5.64
21.72
-0.1
-25.64
-1.62
-2.97
-2.16
-0.15
0.17
0.57

>  <PUBCHEM_SHAPE_SELFOVERLAP>  (1) 
1201.212

>  <PUBCHEM_SHAPE_VOLUME>  (1) 
313.8

>  <PUBCHEM_COORDINATE_TYPE>  (1) 
2
5
10

$$$$
