1083
     RDKit          3D

 25 24  0  0  1  0  0  0  0  0999 V2000
    1.6196    1.2554    0.2757 S   0  0  0  0  0  0  0  0  0  0  0  0
   -1.9124   -0.9588   -2.1649 O   0  0  0  0  0  0  0  0  0  0  0  0
    1.2900   -2.4377    1.0424 O   0  0  0  0  0  0  0  0  0  0  0  0
   -4.9038    0.2083    2.2773 O   0  0  0  0  0  0  0  0  0  0  0  0
   -5.9745    1.5511    0.7969 O   0  0  0  0  0  0  0  0  0  0  0  0
    3.6535    4.5679   -0.0389 O   0  0  0  0  0  0  0  0  0  0  0  0
    2.2759    2.8832   -1.6980 O   0  0  0  0  0  0  0  0  0  0  0  0
    4.4862   -0.8620    0.8010 O   0  0  0  0  0  0  0  0  0  0  0  0
    5.7765   -2.6456    1.3508 O   0  0  0  0  0  0  0  0  0  0  0  0
   -0.6078   -1.0339   -0.2446 N   0  0  0  0  0  0  0  0  0  0  0  0
    2.8223   -2.2198   -0.6859 N   0  0  0  0  0  0  0  0  0  0  0  0
   -6.7681   -0.6885   -0.6002 N   0  0  0  0  0  0  0  0  0  0  0  0
    0.6764   -1.1196   -0.9006 C   0  0  0  0  0  0  0  0  0  0  0  0
   -4.3261   -0.7870   -0.7496 C   0  0  0  0  0  0  0  0  0  0  0  0
   -2.9943   -0.8694   -0.0007 C   0  0  0  0  0  0  0  0  0  0  0  0
   -5.5371   -0.7685    0.1898 C   0  0  0  0  0  0  0  0  0  0  0  0
    1.2661    0.2588   -1.2090 C   0  0  0  0  0  0  0  0  0  0  0  0
   -1.8050   -0.9601   -0.9417 C   0  0  0  0  0  0  0  0  0  0  0  0
    1.6014   -2.0007   -0.0637 C   0  0  0  0  0  0  0  0  0  0  0  0
   -5.5179    0.4532    1.0905 C   0  0  0  0  0  0  0  0  0  0  0  0
    3.8752   -3.0023   -0.0818 C   0  0  0  0  0  0  0  0  0  0  0  0
    2.1869    2.7447   -0.4834 C   0  0  0  0  0  0  0  0  0  0  0  0
    2.5771    3.8225    0.5133 C   0  0  0  0  0  0  0  0  0  0  0  0
    1.4273    4.7838    0.7657 C   0  0  0  0  0  0  0  0  0  0  0  0
    4.8124   -2.1748    0.7596 C   0  0  0  0  0  0  0  0  0  0  0  0
  1 17  1  0
  1 22  1  0
  2 18  2  0
  3 19  2  0
  4 20  1  0
  5 20  2  0
  6 23  1  0
  7 22  2  0
  8 25  1  0
  9 25  2  0
 10 13  1  0
 10 18  1  0
 11 19  1  0
 11 21  1  0
 12 16  1  0
 13 17  1  0
 13 19  1  0
 14 15  1  0
 14 16  1  0
 15 18  1  0
 16 20  1  0
 21 25  1  0
 22 23  1  0
 23 24  1  0
M  END
>  <PUBCHEM_COMPOUND_CID>  (1) 
1083

>  <PUBCHEM_CONFORMER_RMSD>  (1) 
1.2

>  <PUBCHEM_CONFORMER_DIVERSEORDER>  (1) 
1
88
29
193
192
194
16
224
231
173
80
89
51
41
136
146
101
177
102
156
151
197
147
208
163
96
111
153
216
95
199
48
140
2
22
210
226
37
61
213
221
200
227
220
204
81
9
129
117
12
60
23
19
205
121
124
191
169
230
93
21
161
46
122
228
218
209
190
98
72
30
214
24
139
164
86
127
110
229
132
90
14
84
185
73
32
99
70
54
15
180
196
189
113
212
45
133
27
141
158
35
138
131
39
94
222
162
137
4
74
112
160
52
108
219
206
143
207
135
33
225
202
145
20
178
201
134
148
82
105
149
166
187
104
172
34
44
126
175
203
195
53
159
77
28
198
223
3
68
107
87
116
184
43
26
17
120
64
65
31
42
183
78
181
18
211
186
91
5
40
188
144
55
123
11
152
115
215
57
142
79
76
170
49
176
109
92
25
232
85
50
125
62
71
155
13
130
128
179
217
63
83
106
100
6
69
36
182
47
67
59
75
157
38
56
8
7
167
118
58
10
150
168
103
119
66
171
97
114
154
174
165

>  <PUBCHEM_MMFF94_PARTIAL_CHARGES>  (1) 
30
1 -0.37
10 -0.73
11 -0.73
12 -0.99
13 0.36
15 0.06
16 0.33
17 0.23
18 0.57
19 0.57
2 -0.57
20 0.66
21 0.36
22 0.65
23 0.34
25 0.66
3 -0.57
32 0.37
35 0.37
36 0.36
37 0.36
4 -0.65
44 0.5
45 0.4
46 0.5
5 -0.57
6 -0.68
7 -0.57
8 -0.65
9 -0.57

>  <PUBCHEM_EFFECTIVE_ROTOR_COUNT>  (1) 
14

>  <PUBCHEM_PHARMACOPHORE_FEATURES>  (1) 
14
1 10 donor
1 11 donor
1 12 cation
1 12 donor
1 2 acceptor
1 3 acceptor
1 4 acceptor
1 5 acceptor
1 6 acceptor
1 6 donor
1 8 acceptor
1 9 acceptor
3 4 5 20 anion
3 8 9 25 anion

>  <PUBCHEM_HEAVY_ATOM_COUNT>  (1) 
25

>  <PUBCHEM_ATOM_DEF_STEREO_COUNT>  (1) 
0

>  <PUBCHEM_ATOM_UDEF_STEREO_COUNT>  (1) 
3

>  <PUBCHEM_BOND_DEF_STEREO_COUNT>  (1) 
0

>  <PUBCHEM_BOND_UDEF_STEREO_COUNT>  (1) 
0

>  <PUBCHEM_ISOTOPIC_ATOM_COUNT>  (1) 
0

>  <PUBCHEM_COMPONENT_COUNT>  (1) 
1

>  <PUBCHEM_CACTVS_TAUTO_COUNT>  (1) 
4

>  <PUBCHEM_CONFORMER_ID>  (1) 
0000043B00000001

>  <PUBCHEM_MMFF94_ENERGY>  (1) 
30.7018

>  <PUBCHEM_FEATURE_SELFOVERLAP>  (1) 
71.17

>  <PUBCHEM_SHAPE_FINGERPRINT>  (1) 
12403259 118 18131355172885602687
12616971 3 18200888309759061427
13590594 115 18267309737545338929
13878862 14 18335966620282678813
13899415 154 18408892819826787902
14739800 52 17844803883511350073
14849402 71 18336833086230482052
14955137 171 18339930298901323054
15840311 113 17560792247596934162
15842332 3 17773018959761862807
17980427 23 17845923065825279487
17980427 26 18125430058978487556
1813 80 18269561546286796398
18785283 64 18261111936791827414
21041028 32 18338511933333271628
21304253 13 18340482279834992922
22849341 161 18412547574527567648
249057 25 18060419128026454043
25147074 1 17987786548988544823
5104073 3 18336839684023026651
5385378 56 18265047110694256044
5895379 119 17273158824718139929
67856867 119 18341328981161108351
6823239 73 16153433861049870103
6898599 12 10660953318866367210
9841814 1 18335709321112367790
9981440 41 17834389403545552539

>  <PUBCHEM_SHAPE_MULTIPOLES>  (1) 
456.44
13.68
5.4
1.45
20.7
7.95
0.02
-4.3
-5.01
-11.19
-0.83
0.66
-0.06
-2.15

>  <PUBCHEM_SHAPE_SELFOVERLAP>  (1) 
883.458

>  <PUBCHEM_SHAPE_VOLUME>  (1) 
275.1

>  <PUBCHEM_COORDINATE_TYPE>  (1) 
2
5
10

$$$$
