1085
     RDKit          3D

  5  4  0  0  0  0  0  0  0  0999 V2000
   -0.1528    0.0000   -0.1069 S   0  0  0  0  0  0  0  0  0  0  0  0
    1.9228    0.0002    0.1698 S   0  0  0  0  0  0  0  0  0  0  0  0
   -0.7680    0.0010    1.4027 O   0  0  0  0  0  0  0  0  0  0  0  0
   -0.5009   -1.2614   -0.7319 O   0  0  0  0  0  0  0  0  0  0  0  0
   -0.5011    1.2602   -0.7338 O   0  0  0  0  0  0  0  0  0  0  0  0
  1  2  1  0
  1  3  1  0
  1  4  2  0
  1  5  2  0
M  END
>  <PUBCHEM_COMPOUND_CID>  (1) 
1085

>  <PUBCHEM_CONFORMER_RMSD>  (1) 
0.4

>  <PUBCHEM_CONFORMER_DIVERSEORDER>  (1) 
1

>  <PUBCHEM_MMFF94_PARTIAL_CHARGES>  (1) 
7
1 1.6
2 -0.3
3 -0.68
4 -0.65
5 -0.65
6 0.18
7 0.5

>  <PUBCHEM_EFFECTIVE_ROTOR_COUNT>  (1) 
0

>  <PUBCHEM_PHARMACOPHORE_FEATURES>  (1) 
4
1 3 acceptor
1 4 acceptor
1 5 acceptor
5 1 2 3 4 5 anion

>  <PUBCHEM_HEAVY_ATOM_COUNT>  (1) 
5

>  <PUBCHEM_ATOM_DEF_STEREO_COUNT>  (1) 
0

>  <PUBCHEM_ATOM_UDEF_STEREO_COUNT>  (1) 
0

>  <PUBCHEM_BOND_DEF_STEREO_COUNT>  (1) 
0

>  <PUBCHEM_BOND_UDEF_STEREO_COUNT>  (1) 
0

>  <PUBCHEM_ISOTOPIC_ATOM_COUNT>  (1) 
0

>  <PUBCHEM_COMPONENT_COUNT>  (1) 
1

>  <PUBCHEM_CACTVS_TAUTO_COUNT>  (1) 
1

>  <PUBCHEM_CONFORMER_ID>  (1) 
0000043D00000001

>  <PUBCHEM_MMFF94_ENERGY>  (1) 
1.5181

>  <PUBCHEM_FEATURE_SELFOVERLAP>  (1) 
20.355

>  <PUBCHEM_SHAPE_FINGERPRINT>  (1) 
139733 1 7924261180153642630
20096714 4 17682096804228929700
21015797 1 12748127795523469101
24536 1 17203320126912634840
5943 1 13874433022682559893

>  <PUBCHEM_SHAPE_MULTIPOLES>  (1) 
92.99
1.71
1.1
1.09
1.38
0
0.37
0
0.11
-0.29
-0.35
-0.33
0
0

>  <PUBCHEM_SHAPE_SELFOVERLAP>  (1) 
145.54

>  <PUBCHEM_SHAPE_VOLUME>  (1) 
67.9

>  <PUBCHEM_COORDINATE_TYPE>  (1) 
2
5
10

$$$$
