10853
     RDKit          3D

 11 11  0  0  0  0  0  0  0  0999 V2000
   -2.5298    1.2716   -0.3594 O   0  0  0  0  0  0  0  0  0  0  0  0
   -1.7207   -0.8951   -0.1094 N   0  0  0  0  0  0  0  0  0  0  0  0
   -3.4922   -0.1562    1.1589 N   0  0  0  0  0  0  0  0  0  0  0  0
    0.6227   -0.3621   -0.5081 C   0  0  0  0  0  0  0  0  0  0  0  0
   -0.6686   -0.8280   -1.0916 C   0  0  0  0  0  0  0  0  0  0  0  0
    0.9248    0.9993   -0.4808 C   0  0  0  0  0  0  0  0  0  0  0  0
    1.5282   -1.2879    0.0098 C   0  0  0  0  0  0  0  0  0  0  0  0
    2.1326    1.4350    0.0643 C   0  0  0  0  0  0  0  0  0  0  0  0
    2.7360   -0.8523    0.5551 C   0  0  0  0  0  0  0  0  0  0  0  0
    3.0381    0.5092    0.5824 C   0  0  0  0  0  0  0  0  0  0  0  0
   -2.5710    0.1665    0.1787 C   0  0  0  0  0  0  0  0  0  0  0  0
  1 11  2  0
  2  5  1  0
  2 11  1  0
  3 11  1  0
  4  5  1  0
  4  6  2  0
  4  7  1  0
  6  8  1  0
  7  9  2  0
  8 10  2  0
  9 10  1  0
M  END
>  <PUBCHEM_COMPOUND_CID>  (1) 
10853

>  <PUBCHEM_CONFORMER_RMSD>  (1) 
0.6

>  <PUBCHEM_CONFORMER_DIVERSEORDER>  (1) 
1
5
2
4
3

>  <PUBCHEM_MMFF94_PARTIAL_CHARGES>  (1) 
19
1 -0.57
10 -0.15
11 0.69
14 0.15
15 0.15
16 0.37
17 0.15
18 0.15
19 0.15
2 -0.73
20 0.37
21 0.37
3 -0.8
4 -0.14
5 0.44
6 -0.15
7 -0.15
8 -0.15
9 -0.15

>  <PUBCHEM_EFFECTIVE_ROTOR_COUNT>  (1) 
3

>  <PUBCHEM_PHARMACOPHORE_FEATURES>  (1) 
4
1 1 acceptor
1 2 donor
1 3 donor
6 4 6 7 8 9 10 rings

>  <PUBCHEM_HEAVY_ATOM_COUNT>  (1) 
11

>  <PUBCHEM_ATOM_DEF_STEREO_COUNT>  (1) 
0

>  <PUBCHEM_ATOM_UDEF_STEREO_COUNT>  (1) 
0

>  <PUBCHEM_BOND_DEF_STEREO_COUNT>  (1) 
0

>  <PUBCHEM_BOND_UDEF_STEREO_COUNT>  (1) 
0

>  <PUBCHEM_ISOTOPIC_ATOM_COUNT>  (1) 
0

>  <PUBCHEM_COMPONENT_COUNT>  (1) 
1

>  <PUBCHEM_CACTVS_TAUTO_COUNT>  (1) 
3

>  <PUBCHEM_CONFORMER_ID>  (1) 
00002A6500000001

>  <PUBCHEM_MMFF94_ENERGY>  (1) 
20.2034

>  <PUBCHEM_FEATURE_SELFOVERLAP>  (1) 
20.348

>  <PUBCHEM_SHAPE_FINGERPRINT>  (1) 
10149128 111 17275114924507086857
10857977 72 17022619784243749087
11471102 22 18259708908220005426
12251169 10 18335700567620546883
124424 183 17969770904473867918
12696612 119 18334579074397713908
12932764 1 18411138047512016831
15775835 57 18130509737730931465
16945 1 18411691080723548766
17834069 15 18335978671068970724
17844478 74 17894346666056359580
20281407 28 15719387313331326050
20361792 2 14057003857942718495
20715346 28 18334012753042495863
20871998 22 18053664681731125630
230 275 17917716777051409100
2748010 2 17908409265589165830

>  <PUBCHEM_SHAPE_MULTIPOLES>  (1) 
210.54
5.24
1.41
0.93
2.61
0.15
-0.02
0.68
-1.89
-0.49
0.11
0.29
-0.08
-0.06

>  <PUBCHEM_SHAPE_SELFOVERLAP>  (1) 
430.975

>  <PUBCHEM_SHAPE_VOLUME>  (1) 
121.4

>  <PUBCHEM_COORDINATE_TYPE>  (1) 
2
5
10

$$$$
