10855
     RDKit          3D

 16 17  0  0  0  0  0  0  0  0999 V2000
    0.3004   -0.0002    0.5497 N   0  0  0  0  0  0  0  0  0  0  0  0
   -0.2997   -0.0001   -0.5508 N   0  0  0  0  0  0  0  0  0  0  0  0
    5.8349    0.0008   -0.2923 N   0  0  0  0  0  0  0  0  0  0  0  0
   -5.8338    0.0007    0.2932 N   0  0  0  0  0  0  0  0  0  0  0  0
    1.6831   -0.0003    0.3408 C   0  0  0  0  0  0  0  0  0  0  0  0
   -1.6892   -0.0003   -0.3404 C   0  0  0  0  0  0  0  0  0  0  0  0
    4.4411    0.0001   -0.0786 C   0  0  0  0  0  0  0  0  0  0  0  0
   -4.4402    0.0001    0.0788 C   0  0  0  0  0  0  0  0  0  0  0  0
    2.3724    1.2078    0.2367 C   0  0  0  0  0  0  0  0  0  0  0  0
   -2.3715    1.2078   -0.2370 C   0  0  0  0  0  0  0  0  0  0  0  0
    2.3727   -1.2082    0.2354 C   0  0  0  0  0  0  0  0  0  0  0  0
   -2.3719   -1.2082   -0.2357 C   0  0  0  0  0  0  0  0  0  0  0  0
    3.7514    1.2080    0.0269 C   0  0  0  0  0  0  0  0  0  0  0  0
   -3.7506    1.2080   -0.0268 C   0  0  0  0  0  0  0  0  0  0  0  0
    3.7517   -1.2080    0.0258 C   0  0  0  0  0  0  0  0  0  0  0  0
   -3.7508   -1.2079   -0.0256 C   0  0  0  0  0  0  0  0  0  0  0  0
  1  2  2  0
  1  5  1  0
  2  6  1  0
  3  7  1  0
  4  8  1  0
  5  9  2  0
  5 11  1  0
  6 10  2  0
  6 12  1  0
  7 13  2  0
  7 15  1  0
  8 14  2  0
  8 16  1  0
  9 13  1  0
 10 14  1  0
 11 15  2  0
 12 16  2  0
M  END
>  <PUBCHEM_COMPOUND_CID>  (1) 
10855

>  <PUBCHEM_CONFORMER_RMSD>  (1) 
0.6

>  <PUBCHEM_CONFORMER_DIVERSEORDER>  (1) 
1
2

>  <PUBCHEM_MMFF94_PARTIAL_CHARGES>  (1) 
28
1 -0.18
10 -0.15
11 -0.15
12 -0.15
13 -0.15
14 -0.15
15 -0.15
16 -0.15
17 0.15
18 0.15
19 0.15
2 -0.18
20 0.15
21 0.15
22 0.15
23 0.15
24 0.15
25 0.4
26 0.4
27 0.4
28 0.4
3 -0.9
4 -0.9
5 0.18
6 0.18
7 0.1
8 0.1
9 -0.15

>  <PUBCHEM_EFFECTIVE_ROTOR_COUNT>  (1) 
2

>  <PUBCHEM_PHARMACOPHORE_FEATURES>  (1) 
6
1 3 cation
1 3 donor
1 4 cation
1 4 donor
6 5 7 9 11 13 15 rings
6 6 8 10 12 14 16 rings

>  <PUBCHEM_HEAVY_ATOM_COUNT>  (1) 
16

>  <PUBCHEM_ATOM_DEF_STEREO_COUNT>  (1) 
0

>  <PUBCHEM_ATOM_UDEF_STEREO_COUNT>  (1) 
0

>  <PUBCHEM_BOND_DEF_STEREO_COUNT>  (1) 
0

>  <PUBCHEM_BOND_UDEF_STEREO_COUNT>  (1) 
0

>  <PUBCHEM_ISOTOPIC_ATOM_COUNT>  (1) 
0

>  <PUBCHEM_COMPONENT_COUNT>  (1) 
1

>  <PUBCHEM_CACTVS_TAUTO_COUNT>  (1) 
2

>  <PUBCHEM_CONFORMER_ID>  (1) 
00002A6700000001

>  <PUBCHEM_MMFF94_ENERGY>  (1) 
63.6379

>  <PUBCHEM_FEATURE_SELFOVERLAP>  (1) 
30.446

>  <PUBCHEM_SHAPE_FINGERPRINT>  (1) 
10616163 171 18340768242557351007
12107183 9 17689997834461219305
128620 24 15719109154048346754
13081056 2 18410853278438184984
13167823 11 18410571786128552866
13533116 47 13254526314006327644
13760787 19 18342173379693890486
14123238 8 18409448076670511190
1420 363 17894356583457495515
14341114 176 18410862070156884785
15242433 33 18411136935136839310
17834072 33 18411135857073382038
18186145 218 18114172038824766250
200 152 18202845452349575731
20645477 70 18341613655788656606
21267235 1 18410863156709588706
21652331 79 18409165519562904805
2297311 6 18343029877887770453
23402539 116 18409724079843121239
23402655 69 18411135823130413948
23557571 272 18408889499052255180
23559900 14 18340481261410850785
300161 21 18410565189063723183
3545911 37 18410856559639815564
42 15 18409449184798453903
4214541 1 18411136913862378401
42788 4 18410856559639796068
474 4 17459194143459719940
4990 188 18271813415046272310
5104073 3 18410571777548824458
522135 26 18413388726798160514
542803 24 17167864162044711356
58051976 100 18343299309723429263
77779 3 18410855464423129092
9709674 26 18411142445585603103

>  <PUBCHEM_SHAPE_MULTIPOLES>  (1) 
309.35
12.28
1.37
0.67
0.01
0
0
0
0
0
0
0
0
0

>  <PUBCHEM_SHAPE_SELFOVERLAP>  (1) 
666.177

>  <PUBCHEM_SHAPE_VOLUME>  (1) 
169.9

>  <PUBCHEM_COORDINATE_TYPE>  (1) 
2
5
10

$$$$
