10859
     RDKit          3D

 18 19  0  0  0  0  0  0  0  0999 V2000
   -0.0198   -1.8750    0.2104 N   0  0  0  0  0  0  0  0  0  0  0  0
   -3.1377    0.2432   -0.2702 C   0  0  0  0  0  0  0  0  0  0  0  0
    3.3877   -0.2255   -0.2327 C   0  0  0  0  0  0  0  0  0  0  0  0
   -4.1779   -0.7059    0.3399 C   0  0  0  0  0  0  0  0  0  0  0  0
   -3.4560    1.7024    0.0828 C   0  0  0  0  0  0  0  0  0  0  0  0
    3.0310    1.2015    0.2054 C   0  0  0  0  0  0  0  0  0  0  0  0
    4.7895   -0.6130    0.2570 C   0  0  0  0  0  0  0  0  0  0  0  0
   -1.7304   -0.1292    0.1928 C   0  0  0  0  0  0  0  0  0  0  0  0
    2.3454   -1.2213    0.2725 C   0  0  0  0  0  0  0  0  0  0  0  0
   -5.5988   -0.3211   -0.0661 C   0  0  0  0  0  0  0  0  0  0  0  0
   -4.8781    2.0831   -0.3226 C   0  0  0  0  0  0  0  0  0  0  0  0
    4.0871    2.2093   -0.2428 C   0  0  0  0  0  0  0  0  0  0  0  0
    5.8427    0.3979   -0.1910 C   0  0  0  0  0  0  0  0  0  0  0  0
   -5.9085    1.1322    0.2785 C   0  0  0  0  0  0  0  0  0  0  0  0
    5.4802    1.8162    0.2384 C   0  0  0  0  0  0  0  0  0  0  0  0
   -1.3579   -1.5363   -0.2592 C   0  0  0  0  0  0  0  0  0  0  0  0
    0.9643   -0.9210   -0.3043 C   0  0  0  0  0  0  0  0  0  0  0  0
    0.3373   -3.2375   -0.1889 C   0  0  0  0  0  0  0  0  0  0  0  0
  1 16  1  0
  1 17  1  0
  1 18  1  0
  2  4  1  0
  2  5  1  0
  2  8  1  0
  3  6  1  0
  3  7  1  0
  3  9  1  0
  4 10  1  0
  5 11  1  0
  6 12  1  0
  7 13  1  0
  8 16  1  0
  9 17  1  0
 10 14  1  0
 11 14  1  0
 12 15  1  0
 13 15  1  0
M  END
>  <PUBCHEM_COMPOUND_CID>  (1) 
10859

>  <PUBCHEM_CONFORMER_RMSD>  (1) 
0.8

>  <PUBCHEM_CONFORMER_DIVERSEORDER>  (1) 
1
27
26
22
78
13
79
44
8
7
45
32
35
46
49
64
23
33
19
12
38
3
39
15
67
21
50
14
5
71
61
11
75
77
42
30
4
52
16
31
2
76
60
69
62
43
56
20
58
70
47
17
25
48
65
51
10
37
29
28
68
72
57
40
6
9
66
36
18
54
24
59
74
34
41
63
55
73
53

>  <PUBCHEM_MMFF94_PARTIAL_CHARGES>  (1) 
4
1 -0.81
16 0.27
17 0.27
18 0.27

>  <PUBCHEM_EFFECTIVE_ROTOR_COUNT>  (1) 
8.4

>  <PUBCHEM_PHARMACOPHORE_FEATURES>  (1) 
3
1 1 cation
6 2 4 5 10 11 14 rings
6 3 6 7 12 13 15 rings

>  <PUBCHEM_HEAVY_ATOM_COUNT>  (1) 
18

>  <PUBCHEM_ATOM_DEF_STEREO_COUNT>  (1) 
0

>  <PUBCHEM_ATOM_UDEF_STEREO_COUNT>  (1) 
0

>  <PUBCHEM_BOND_DEF_STEREO_COUNT>  (1) 
0

>  <PUBCHEM_BOND_UDEF_STEREO_COUNT>  (1) 
0

>  <PUBCHEM_ISOTOPIC_ATOM_COUNT>  (1) 
0

>  <PUBCHEM_COMPONENT_COUNT>  (1) 
1

>  <PUBCHEM_CACTVS_TAUTO_COUNT>  (1) 
1

>  <PUBCHEM_CONFORMER_ID>  (1) 
00002A6B00000001

>  <PUBCHEM_MMFF94_ENERGY>  (1) 
21.3247

>  <PUBCHEM_FEATURE_SELFOVERLAP>  (1) 
15.223

>  <PUBCHEM_SHAPE_FINGERPRINT>  (1) 
10411042 1 17690561880170598358
10447042 23 9511463299580376800
12596602 18 17095804411912420497
12633257 1 15719399459493427932
12769317 202 18342166726826303337
13167372 99 18411418375975370848
13402501 40 18410011035214523212
13740256 8 9439398034382711255
13785724 45 17833545700909456818
13955234 65 18191590744186477075
14123255 352 18410855455849129285
14123255 52 18410855460186534926
14251751 18 11024109849808111305
14251764 18 18259699009116901538
14257110 125 18409730672665341196
14528608 73 18412824681543656895
14576447 43 10447937174547738884
15188451 53 15285934623311175377
15196674 1 18410573985178097728
17834072 32 18411138056423711102
17834072 8 18272660056527545756
20281389 69 18334293158503966200
20374829 77 9943809975682104535
20621476 66 18336549421590778700
21033648 29 18341324591303800640
212847 35 18413386549434377472
21315764 268 18333444344238934620
23227448 37 18342455993179605407
23272321 79 18410573998542761759
23402539 116 18272645770485377798
23402655 69 18131348605031339614
23559900 14 18050846611954357675
245318 6 17751096900985264692
2838139 119 18412538821152356820
2916195 48 18341328967795976672
293599 30 18411700997771444974
335352 9 18411139130920078366
34797466 226 18060144206890178271
351380 180 18408886230613427240
351380 3 8574712390405777232
4325135 7 18272366491070366359
465052 167 10953458518573679000
474 4 18411700950300081475
5104073 3 18115596929181084899
54446538 1 18410290315488884112
59682541 35 18260841419062711881
59682541 52 16701752540310397516
59755656 520 18260263070802974198
633830 44 18342172232921883143
67856867 119 18263921038725049163
77188 2 17401485944637055350
7808743 9 18339075003266169746
960060 61 11959725001630135786
9981440 41 18333455348177320963

>  <PUBCHEM_SHAPE_MULTIPOLES>  (1) 
365.45
15.54
2.71
0.67
1.58
0.8
0
-9.63
0.42
-0.47
-0.14
0.01
-0.01
0.06

>  <PUBCHEM_SHAPE_SELFOVERLAP>  (1) 
714.186

>  <PUBCHEM_SHAPE_VOLUME>  (1) 
216.4

>  <PUBCHEM_COORDINATE_TYPE>  (1) 
2
5
10

$$$$
