1086
     RDKit          3D

  6  5  0  0  1  0  0  0  0  0999 V2000
    0.9752    0.3235    0.3356 S   0  0  0  0  0  0  0  0  0  0  0  0
   -0.9752   -0.3234    0.3356 S   0  0  0  0  0  0  0  0  0  0  0  0
    1.1115    1.1065   -0.8773 O   0  0  0  0  0  0  0  0  0  0  0  0
   -1.1115   -1.1065   -0.8774 O   0  0  0  0  0  0  0  0  0  0  0  0
    1.7622   -0.8769    0.5417 O   0  0  0  0  0  0  0  0  0  0  0  0
   -1.7622    0.8768    0.5417 O   0  0  0  0  0  0  0  0  0  0  0  0
  1  2  1  0
  1  3  1  0
  1  5  2  0
  2  4  1  0
  2  6  2  0
M  CHG  2   3  -1   4  -1
M  END
>  <PUBCHEM_COMPOUND_CID>  (1) 
1086

>  <PUBCHEM_CONFORMER_RMSD>  (1) 
0.4

>  <PUBCHEM_CONFORMER_DIVERSEORDER>  (1) 
1
5
2
3
4

>  <PUBCHEM_MMFF94_PARTIAL_CHARGES>  (1) 
6
1 0.8
2 0.8
3 -0.9
4 -0.9
5 -0.9
6 -0.9

>  <PUBCHEM_EFFECTIVE_ROTOR_COUNT>  (1) 
1

>  <PUBCHEM_PHARMACOPHORE_FEATURES>  (1) 
0

>  <PUBCHEM_HEAVY_ATOM_COUNT>  (1) 
6

>  <PUBCHEM_ATOM_DEF_STEREO_COUNT>  (1) 
0

>  <PUBCHEM_ATOM_UDEF_STEREO_COUNT>  (1) 
0

>  <PUBCHEM_BOND_DEF_STEREO_COUNT>  (1) 
0

>  <PUBCHEM_BOND_UDEF_STEREO_COUNT>  (1) 
0

>  <PUBCHEM_ISOTOPIC_ATOM_COUNT>  (1) 
0

>  <PUBCHEM_COMPONENT_COUNT>  (1) 
1

>  <PUBCHEM_CACTVS_TAUTO_COUNT>  (1) 
1

>  <PUBCHEM_CONFORMER_ID>  (1) 
0000043E00000001

>  <PUBCHEM_MMFF94_ENERGY>  (1) 
0.0361

>  <PUBCHEM_FEATURE_SELFOVERLAP>  (1) 
0

>  <PUBCHEM_SHAPE_FINGERPRINT>  (1) 
139733 1 11599709710403305682
16714656 1 18049165471206422954
20096714 4 18262532466849205681
21040471 1 17845665741639519417
24536 1 17968652847177327384
29004967 10 17458628865538610840
5943 1 13137052627604871533

>  <PUBCHEM_SHAPE_MULTIPOLES>  (1) 
107.7
2.2
1.17
0.92
0
0
0.11
0
-0.18
0
0.12
0
0
-0.5

>  <PUBCHEM_SHAPE_SELFOVERLAP>  (1) 
179.09

>  <PUBCHEM_SHAPE_VOLUME>  (1) 
73.6

>  <PUBCHEM_COORDINATE_TYPE>  (1) 
2
5
10

$$$$
