10868
     RDKit          3D

 15 16  0  0  0  0  0  0  0  0999 V2000
    1.1437    0.2654   -0.9248 N   0  0  0  0  0  0  0  0  0  0  0  0
   -1.1425   -0.2651   -0.9221 N   0  0  0  0  0  0  0  0  0  0  0  0
    1.7462    0.4052    0.4083 C   0  0  0  0  0  0  0  0  0  0  0  0
   -1.7468   -0.4053    0.4101 C   0  0  0  0  0  0  0  0  0  0  0  0
    2.2478   -0.9602    0.8800 C   0  0  0  0  0  0  0  0  0  0  0  0
    2.8692    1.4408    0.3423 C   0  0  0  0  0  0  0  0  0  0  0  0
   -2.2492    0.9599    0.8816 C   0  0  0  0  0  0  0  0  0  0  0  0
   -2.8698   -1.4409    0.3422 C   0  0  0  0  0  0  0  0  0  0  0  0
    3.4686   -1.4437    0.0976 C   0  0  0  0  0  0  0  0  0  0  0  0
    4.0867    0.9435   -0.4366 C   0  0  0  0  0  0  0  0  0  0  0  0
   -3.4688    1.4436    0.0977 C   0  0  0  0  0  0  0  0  0  0  0  0
   -4.0863   -0.9434   -0.4382 C   0  0  0  0  0  0  0  0  0  0  0  0
    4.5814   -0.4005    0.0880 C   0  0  0  0  0  0  0  0  0  0  0  0
   -4.5816    0.4004    0.0863 C   0  0  0  0  0  0  0  0  0  0  0  0
    0.0016    0.0004   -0.9124 C   0  0  0  0  0  0  0  0  0  0  0  0
  1  3  1  0
  1 15  2  0
  2  4  1  0
  2 15  2  0
  3  5  1  0
  3  6  1  0
  4  7  1  0
  4  8  1  0
  5  9  1  0
  6 10  1  0
  7 11  1  0
  8 12  1  0
  9 13  1  0
 10 13  1  0
 11 14  1  0
 12 14  1  0
M  END
>  <PUBCHEM_COMPOUND_CID>  (1) 
10868

>  <PUBCHEM_CONFORMER_RMSD>  (1) 
0.6

>  <PUBCHEM_CONFORMER_DIVERSEORDER>  (1) 
1
19
11
15
18
22
21
3
8
20
6
4
10
5
2
12
9
17
16
13
14
7
23

>  <PUBCHEM_MMFF94_PARTIAL_CHARGES>  (1) 
5
1 -0.55
15 0.6
2 -0.55
3 0.25
4 0.25

>  <PUBCHEM_EFFECTIVE_ROTOR_COUNT>  (1) 
4.4

>  <PUBCHEM_PHARMACOPHORE_FEATURES>  (1) 
5
1 1 acceptor
1 2 acceptor
3 1 2 15 cation
6 3 5 6 9 10 13 rings
6 4 7 8 11 12 14 rings

>  <PUBCHEM_HEAVY_ATOM_COUNT>  (1) 
15

>  <PUBCHEM_ATOM_DEF_STEREO_COUNT>  (1) 
0

>  <PUBCHEM_ATOM_UDEF_STEREO_COUNT>  (1) 
0

>  <PUBCHEM_BOND_DEF_STEREO_COUNT>  (1) 
0

>  <PUBCHEM_BOND_UDEF_STEREO_COUNT>  (1) 
0

>  <PUBCHEM_ISOTOPIC_ATOM_COUNT>  (1) 
0

>  <PUBCHEM_COMPONENT_COUNT>  (1) 
1

>  <PUBCHEM_CACTVS_TAUTO_COUNT>  (1) 
1

>  <PUBCHEM_CONFORMER_ID>  (1) 
00002A7400000001

>  <PUBCHEM_MMFF94_ENERGY>  (1) 
6.9749

>  <PUBCHEM_FEATURE_SELFOVERLAP>  (1) 
25.412

>  <PUBCHEM_SHAPE_FINGERPRINT>  (1) 
12107183 9 17762056536458265330
12251169 10 18410855460128161894
124424 183 18131912645848399385
12500047 106 18408037420716981835
12670546 56 18411131441973764585
13167823 11 18411980269351045415
13533116 47 18410289186292605411
13760787 19 18412265051283593550
14252887 29 16660646241375140080
15375358 24 15791727520485774928
17834072 33 18410012160669424054
18186145 218 17967808344943091163
19107657 47 17632577136659421194
19422 9 18410577279845119306
200 152 18343014519437991855
20233049 118 17203609277027766736
20279233 1 15719390641904450952
20281475 54 15502374530093045993
20528008 55 18334010614127709203
20645477 70 18335417937625148894
20828058 21 17847064384880888276
22485316 2 18040714762116080074
22854114 59 18040151829410989232
23048698 100 18410013234342754280
23402539 116 18343013390299397645
23402655 69 18409450301906669194
23557571 272 16988854895121009469
23559900 14 18412258462761544176
351380 180 18202279195646051609
42 15 18408887325729841438
4214541 1 18410292493232384577
474 4 18043531835856607076
5104073 3 18410573993741386705
581208 293 17748824142110254538
77779 3 18410013238653409290
81228 2 15358525342263754620
9709674 26 18411987965822033807

>  <PUBCHEM_SHAPE_MULTIPOLES>  (1) 
298.73
9.84
1.48
0.93
0
0
-0.04
0
0.18
0
0.17
0
0
-0.38

>  <PUBCHEM_SHAPE_SELFOVERLAP>  (1) 
601.083

>  <PUBCHEM_SHAPE_VOLUME>  (1) 
171.8

>  <PUBCHEM_COORDINATE_TYPE>  (1) 
2
5
10

$$$$
