10861
     RDKit          3D

 15 15  0  0  0  0  0  0  0  0999 V2000
    2.1172   -0.0413   -0.0177 O   0  0  0  0  0  0  0  0  0  0  0  0
    1.2270    2.0731    0.2552 O   0  0  0  0  0  0  0  0  0  0  0  0
    4.4296   -0.6550   -0.1160 C   0  0  0  0  0  0  0  0  0  0  0  0
    5.8714   -0.1593   -0.0513 C   0  0  0  0  0  0  0  0  0  0  0  0
    3.4351    0.4872    0.0362 C   0  0  0  0  0  0  0  0  0  0  0  0
    6.8610   -1.3081   -0.1604 C   0  0  0  0  0  0  0  0  0  0  0  0
   -2.6702    0.2034    0.0377 C   0  0  0  0  0  0  0  0  0  0  0  0
    1.1061    0.8675    0.1055 C   0  0  0  0  0  0  0  0  0  0  0  0
   -1.3316    0.8150    0.1120 C   0  0  0  0  0  0  0  0  0  0  0  0
   -0.1787    0.1361    0.0276 C   0  0  0  0  0  0  0  0  0  0  0  0
   -2.8115   -1.1522    0.2875 C   0  0  0  0  0  0  0  0  0  0  0  0
   -3.7615    0.9955   -0.2804 C   0  0  0  0  0  0  0  0  0  0  0  0
   -4.0785   -1.7312    0.2170 C   0  0  0  0  0  0  0  0  0  0  0  0
   -5.0285    0.4163   -0.3507 C   0  0  0  0  0  0  0  0  0  0  0  0
   -5.1870   -0.9471   -0.1020 C   0  0  0  0  0  0  0  0  0  0  0  0
  1  5  1  0
  1  8  1  0
  2  8  2  0
  3  4  1  0
  3  5  1  0
  4  6  1  0
  7  9  1  0
  7 11  2  0
  7 12  1  0
  8 10  1  0
  9 10  2  0
 11 13  1  0
 12 14  2  0
 13 15  2  0
 14 15  1  0
M  END
>  <PUBCHEM_COMPOUND_CID>  (1) 
10861

>  <PUBCHEM_CONFORMER_RMSD>  (1) 
0.6

>  <PUBCHEM_CONFORMER_DIVERSEORDER>  (1) 
1
64
79
33
19
6
60
22
46
67
74
16
56
35
3
47
66
58
82
12
80
4
70
55
51
11
62
14
68
2
43
52
26
61
63
59
44
21
25
37
53
42
40
34
18
24
20
57
69
65
5
41
15
28
78
84
23
48
73
8
31
36
72
13
9
29
49
10
81
54
27
76
39
50
77
17
30
7
75
38
32
83
45
71

>  <PUBCHEM_MMFF94_PARTIAL_CHARGES>  (1) 
19
1 -0.43
10 -0.14
11 -0.15
12 -0.15
13 -0.15
14 -0.15
15 -0.15
2 -0.57
25 0.15
26 0.15
27 0.15
28 0.15
29 0.15
30 0.15
31 0.15
5 0.28
7 0.03
8 0.71
9 -0.18

>  <PUBCHEM_EFFECTIVE_ROTOR_COUNT>  (1) 
6

>  <PUBCHEM_PHARMACOPHORE_FEATURES>  (1) 
3
1 2 acceptor
1 6 hydrophobe
6 7 11 12 13 14 15 rings

>  <PUBCHEM_HEAVY_ATOM_COUNT>  (1) 
15

>  <PUBCHEM_ATOM_DEF_STEREO_COUNT>  (1) 
0

>  <PUBCHEM_ATOM_UDEF_STEREO_COUNT>  (1) 
0

>  <PUBCHEM_BOND_DEF_STEREO_COUNT>  (1) 
0

>  <PUBCHEM_BOND_UDEF_STEREO_COUNT>  (1) 
1

>  <PUBCHEM_ISOTOPIC_ATOM_COUNT>  (1) 
0

>  <PUBCHEM_COMPONENT_COUNT>  (1) 
1

>  <PUBCHEM_CACTVS_TAUTO_COUNT>  (1) 
1

>  <PUBCHEM_CONFORMER_ID>  (1) 
00002A6D00000001

>  <PUBCHEM_MMFF94_ENERGY>  (1) 
28.5353

>  <PUBCHEM_FEATURE_SELFOVERLAP>  (1) 
15.223

>  <PUBCHEM_SHAPE_FINGERPRINT>  (1) 
100836 57 9151170961488059626
10291535 26 14764077692970354027
10354089 29 12319738068675913714
10803635 8 18040709247320082375
10968037 39 18335140899264726374
11128504 68 16588030138474836374
11315181 36 18272654549424943553
12091667 2 17313107427591782924
12555020 224 18338507630150931735
12596602 18 13398631632622091318
12714333 28 13623531260142352182
13288520 33 18410293610008173685
13533116 47 13758087255941097628
13740256 8 18411139160267196936
13862211 1 18343863329303107166
13897977 58 9511464424814276803
13964095 4 18040995107685112829
1420 363 18060422408980613134
14251718 22 18259985985487795300
14251731 8 18334292058986816911
14251752 14 17603857862993192188
14252887 29 17203619164052817190
15048467 5 8862946073766644390
17834072 33 18334579079109425532
17834072 8 18333724715756592623
17834076 25 14996002138128520514
17844677 252 18412832390931429480
200 152 17988924487688275649
20374829 77 18334856112894591208
20767249 213 9151170952518342838
21267235 1 18333735749759892395
22224240 67 15913319196678592862
2297311 6 18334579036033190925
23035841 295 18335139769904735394
23402539 116 18113334202253264308
23559900 14 18338228383798023913
26918003 58 17989207048943513633
3004659 81 18186520999787410478
335352 9 18409445878560145437
351380 3 18412260636453059950
4214541 1 18409448077055951365
42788 4 18409448081456114900
465052 167 18202285797538267598
5104073 3 18271248321466509417
54446538 1 10807927168037718746
559249 180 18409728439688723959
57483677 66 18335417959257877226
59682541 35 18201426001426468970
9709674 26 18046346602766133419

>  <PUBCHEM_SHAPE_MULTIPOLES>  (1) 
296.95
15.73
1.53
0.64
19.01
0.03
0.01
6.73
1.4
-0.51
-0.09
-0.09
0.01
0.41

>  <PUBCHEM_SHAPE_SELFOVERLAP>  (1) 
597.621

>  <PUBCHEM_SHAPE_VOLUME>  (1) 
174.4

>  <PUBCHEM_COORDINATE_TYPE>  (1) 
2
5
10

$$$$
