10874
     RDKit          3D

 10 10  0  0  0  0  0  0  0  0999 V2000
   -2.4089    1.2373    0.2253 N   0  0  0  0  0  0  0  0  0  0  0  0
    1.9465   -0.0240    0.2151 C   0  0  0  0  0  0  0  0  0  0  0  0
    0.9357   -0.0557   -0.9334 C   0  0  0  0  0  0  0  0  0  0  0  0
    3.3816   -0.0037   -0.3105 C   0  0  0  0  0  0  0  0  0  0  0  0
   -0.4839   -0.0400   -0.4271 C   0  0  0  0  0  0  0  0  0  0  0  0
    4.3902    0.0689    0.8248 C   0  0  0  0  0  0  0  0  0  0  0  0
   -1.1406   -1.2240   -0.1582 C   0  0  0  0  0  0  0  0  0  0  0  0
   -1.1377    1.1534   -0.2273 C   0  0  0  0  0  0  0  0  0  0  0  0
   -2.4495   -1.1784    0.3089 C   0  0  0  0  0  0  0  0  0  0  0  0
   -3.0334    0.0661    0.4823 C   0  0  0  0  0  0  0  0  0  0  0  0
  1  8  2  0
  1 10  1  0
  2  3  1  0
  2  4  1  0
  3  5  1  0
  4  6  1  0
  5  7  2  0
  5  8  1  0
  7  9  1  0
  9 10  2  0
M  END
>  <PUBCHEM_COMPOUND_CID>  (1) 
10874

>  <PUBCHEM_CONFORMER_RMSD>  (1) 
0.6

>  <PUBCHEM_CONFORMER_DIVERSEORDER>  (1) 
1
8
3
9
4
7
6
5
2

>  <PUBCHEM_MMFF94_PARTIAL_CHARGES>  (1) 
11
1 -0.62
10 0.16
20 0.15
21 0.15
22 0.15
23 0.15
3 0.14
5 -0.14
7 -0.15
8 0.16
9 -0.15

>  <PUBCHEM_EFFECTIVE_ROTOR_COUNT>  (1) 
3

>  <PUBCHEM_PHARMACOPHORE_FEATURES>  (1) 
3
1 1 acceptor
1 6 hydrophobe
6 1 5 7 8 9 10 rings

>  <PUBCHEM_HEAVY_ATOM_COUNT>  (1) 
10

>  <PUBCHEM_ATOM_DEF_STEREO_COUNT>  (1) 
0

>  <PUBCHEM_ATOM_UDEF_STEREO_COUNT>  (1) 
0

>  <PUBCHEM_BOND_DEF_STEREO_COUNT>  (1) 
0

>  <PUBCHEM_BOND_UDEF_STEREO_COUNT>  (1) 
0

>  <PUBCHEM_ISOTOPIC_ATOM_COUNT>  (1) 
0

>  <PUBCHEM_COMPONENT_COUNT>  (1) 
1

>  <PUBCHEM_CACTVS_TAUTO_COUNT>  (1) 
1

>  <PUBCHEM_CONFORMER_ID>  (1) 
00002A7A00000001

>  <PUBCHEM_MMFF94_ENERGY>  (1) 
15.3383

>  <PUBCHEM_FEATURE_SELFOVERLAP>  (1) 
15.223

>  <PUBCHEM_SHAPE_FINGERPRINT>  (1) 
10857977 72 18341898519140551045
12251169 10 18409449202273774100
12932764 1 17632855335087879014
13024252 1 14634867539980631013
14325111 11 18412547583096455222
15219456 202 17916876720303607558
190213 19 17967249797768972050
20645464 45 17989211438310510319
20871998 184 18200601413832438583
21119208 17 10735879473803962354
22485316 2 15285355137327488272
23402539 116 18343011204013208071
3248919 1 18408041818890015822
369184 2 18343302556903119655
75552 356 18408325505395042935

>  <PUBCHEM_SHAPE_MULTIPOLES>  (1) 
200.81
6.53
1.16
0.85
6.72
0.01
-0.03
0
1.97
-0.98
0.02
0.31
-0.01
0.01

>  <PUBCHEM_SHAPE_SELFOVERLAP>  (1) 
398.783

>  <PUBCHEM_SHAPE_VOLUME>  (1) 
119

>  <PUBCHEM_COORDINATE_TYPE>  (1) 
2
5
10

$$$$
