10872
     RDKit          3D

 18 19  0  0  0  0  0  0  0  0999 V2000
   -5.1084    0.0211    0.1607 N   0  0  0  0  0  0  0  0  0  0  0  0
    0.4393   -0.0671   -0.5839 N   0  0  0  0  0  0  0  0  0  0  0  0
    1.0206    0.0577    0.5197 N   0  0  0  0  0  0  0  0  0  0  0  0
    6.5686   -0.0285   -0.2233 N   0  0  0  0  0  0  0  0  0  0  0  0
   -3.7113   -0.0017   -0.0285 C   0  0  0  0  0  0  0  0  0  0  0  0
   -3.0193    1.1875   -0.2579 C   0  0  0  0  0  0  0  0  0  0  0  0
   -3.0209   -1.2128    0.0155 C   0  0  0  0  0  0  0  0  0  0  0  0
   -0.9536   -0.0455   -0.3984 C   0  0  0  0  0  0  0  0  0  0  0  0
   -1.6370    1.1656   -0.4434 C   0  0  0  0  0  0  0  0  0  0  0  0
   -1.6385   -1.2348   -0.1698 C   0  0  0  0  0  0  0  0  0  0  0  0
   -5.7505    1.1780    0.7527 C   0  0  0  0  0  0  0  0  0  0  0  0
   -5.9231   -1.1065   -0.2472 C   0  0  0  0  0  0  0  0  0  0  0  0
    2.4066    0.0360    0.3356 C   0  0  0  0  0  0  0  0  0  0  0  0
    5.1714   -0.0070   -0.0344 C   0  0  0  0  0  0  0  0  0  0  0  0
    3.0982    1.2256    0.1077 C   0  0  0  0  0  0  0  0  0  0  0  0
    3.0973   -1.1752    0.3785 C   0  0  0  0  0  0  0  0  0  0  0  0
    4.4806    1.2041   -0.0773 C   0  0  0  0  0  0  0  0  0  0  0  0
    4.4797   -1.1965    0.1936 C   0  0  0  0  0  0  0  0  0  0  0  0
  1  5  1  0
  1 11  1  0
  1 12  1  0
  2  3  2  0
  2  8  1  0
  3 13  1  0
  4 14  1  0
  5  6  2  0
  5  7  1  0
  6  9  1  0
  7 10  2  0
  8  9  2  0
  8 10  1  0
 13 15  2  0
 13 16  1  0
 14 17  2  0
 14 18  1  0
 15 17  1  0
 16 18  2  0
M  END
>  <PUBCHEM_COMPOUND_CID>  (1) 
10872

>  <PUBCHEM_CONFORMER_RMSD>  (1) 
0.6

>  <PUBCHEM_CONFORMER_DIVERSEORDER>  (1) 
1
2
3

>  <PUBCHEM_MMFF94_PARTIAL_CHARGES>  (1) 
28
1 -0.84
10 -0.15
11 0.37
12 0.37
13 0.18
14 0.1
15 -0.15
16 -0.15
17 -0.15
18 -0.15
19 0.15
2 -0.18
20 0.15
21 0.15
22 0.15
29 0.15
3 -0.18
30 0.15
31 0.15
32 0.15
33 0.4
34 0.4
4 -0.9
5 0.1
6 -0.15
7 -0.15
8 0.18
9 -0.15

>  <PUBCHEM_EFFECTIVE_ROTOR_COUNT>  (1) 
3

>  <PUBCHEM_PHARMACOPHORE_FEATURES>  (1) 
5
1 1 cation
1 4 cation
1 4 donor
6 13 14 15 16 17 18 rings
6 5 6 7 8 9 10 rings

>  <PUBCHEM_HEAVY_ATOM_COUNT>  (1) 
18

>  <PUBCHEM_ATOM_DEF_STEREO_COUNT>  (1) 
0

>  <PUBCHEM_ATOM_UDEF_STEREO_COUNT>  (1) 
0

>  <PUBCHEM_BOND_DEF_STEREO_COUNT>  (1) 
0

>  <PUBCHEM_BOND_UDEF_STEREO_COUNT>  (1) 
0

>  <PUBCHEM_ISOTOPIC_ATOM_COUNT>  (1) 
0

>  <PUBCHEM_COMPONENT_COUNT>  (1) 
1

>  <PUBCHEM_CACTVS_TAUTO_COUNT>  (1) 
2

>  <PUBCHEM_CONFORMER_ID>  (1) 
00002A7800000001

>  <PUBCHEM_MMFF94_ENERGY>  (1) 
74.5797

>  <PUBCHEM_FEATURE_SELFOVERLAP>  (1) 
25.371

>  <PUBCHEM_SHAPE_FINGERPRINT>  (1) 
10354089 29 18410292510797304208
10366900 7 16660363671097866704
10968037 39 18113901571912642823
11315181 36 18411139160520534545
12091667 2 17168142334813979093
12107183 9 17689432685342104675
12236239 1 18410293613981355056
12815109 37 7997971275622152596
13288520 33 18411417337231335263
13533116 47 17023171696384324146
1420 363 17167867452031864681
14251764 18 18409727370479042818
14341114 176 18408890633081675020
17834072 33 18411416236833581574
17844677 252 18411142436958569784
1813 80 16805325470289168430
19489759 90 15339121230340696691
200 152 18201998832717548699
20645477 70 18339642240193506030
21267235 1 18408328791103001206
2297311 6 18342182150206909164
23035841 295 18113336405882729866
23402539 116 18201714055586272725
23536379 177 18342739606691255179
23559900 14 18337667615429181792
29717793 49 17632303367671821156
300161 21 18412536622213289218
3004659 81 18410575072553637122
3545911 37 18409166615037670836
4073 2 18041565853315724762
42 15 18334858307380260423
4214541 1 18410291397794268965
42788 4 18413107268637296169
4463277 17 18409167705711658497
5104073 3 18409726300351763387
542803 24 17989205940815655353
59755656 520 16950562198790871474
77779 3 18408884040496506908
8272917 22 18272373027694495382

>  <PUBCHEM_SHAPE_MULTIPOLES>  (1) 
350.51
15.38
1.43
0.71
1.35
0.01
0.02
-0.02
0.9
-0.38
0.02
-0.19
0.04
-0.45

>  <PUBCHEM_SHAPE_SELFOVERLAP>  (1) 
744.799

>  <PUBCHEM_SHAPE_VOLUME>  (1) 
197

>  <PUBCHEM_COORDINATE_TYPE>  (1) 
2
5
10

$$$$
