10883
     RDKit          3D

 10  9  0  0  0  0  0  0  0  0999 V2000
    2.0285    0.4194   -0.0099 O   0  0  0  0  0  0  0  0  0  0  0  0
    1.0475   -1.6679    0.0357 O   0  0  0  0  0  0  0  0  0  0  0  0
   -2.8994    1.4808    0.0440 O   0  0  0  0  0  0  0  0  0  0  0  0
   -0.3140    0.3507    0.0226 C   0  0  0  0  0  0  0  0  0  0  0  0
   -1.5571   -0.5346    0.0337 C   0  0  0  0  0  0  0  0  0  0  0  0
   -2.8579    0.2525   -0.0018 C   0  0  0  0  0  0  0  0  0  0  0  0
    0.9723   -0.4472    0.0150 C   0  0  0  0  0  0  0  0  0  0  0  0
    3.3242   -0.1885   -0.0113 C   0  0  0  0  0  0  0  0  0  0  0  0
   -4.1224   -0.5628   -0.0879 C   0  0  0  0  0  0  0  0  0  0  0  0
    4.3784    0.8976   -0.0399 C   0  0  0  0  0  0  0  0  0  0  0  0
  1  7  1  0
  1  8  1  0
  2  7  2  0
  3  6  2  0
  4  5  1  0
  4  7  1  0
  5  6  1  0
  6  9  1  0
  8 10  1  0
M  END
>  <PUBCHEM_COMPOUND_CID>  (1) 
10883

>  <PUBCHEM_CONFORMER_RMSD>  (1) 
0.6

>  <PUBCHEM_CONFORMER_DIVERSEORDER>  (1) 
1
167
5
28
48
60
169
114
59
164
138
18
142
109
41
95
23
158
3
172
24
173
6
129
35
115
168
8
12
152
105
19
155
40
132
51
134
130
64
159
104
106
34
111
68
76
103
10
47
32
90
49
84
153
61
99
145
136
14
83
7
43
166
45
78
122
81
2
125
29
163
141
44
79
52
80
98
124
4
30
123
139
110
63
143
102
89
77
118
38
151
91
16
147
74
71
42
36
165
58
53
15
131
50
13
39
37
150
127
31
70
75
135
107
67
55
11
72
85
137
27
88
17
94
21
97
154
156
22
112
113
62
20
117
157
86
161
57
54
33
46
120
25
65
171
119
9
146
96
87
73
128
162
149
116
121
100
69
140
133
56
144
26
82
170
126
101
93
92
148
66
160
108

>  <PUBCHEM_MMFF94_PARTIAL_CHARGES>  (1) 
9
1 -0.43
2 -0.57
3 -0.57
4 0.06
5 0.06
6 0.45
7 0.66
8 0.28
9 0.06

>  <PUBCHEM_EFFECTIVE_ROTOR_COUNT>  (1) 
5

>  <PUBCHEM_PHARMACOPHORE_FEATURES>  (1) 
2
1 2 acceptor
1 3 acceptor

>  <PUBCHEM_HEAVY_ATOM_COUNT>  (1) 
10

>  <PUBCHEM_ATOM_DEF_STEREO_COUNT>  (1) 
0

>  <PUBCHEM_ATOM_UDEF_STEREO_COUNT>  (1) 
0

>  <PUBCHEM_BOND_DEF_STEREO_COUNT>  (1) 
0

>  <PUBCHEM_BOND_UDEF_STEREO_COUNT>  (1) 
0

>  <PUBCHEM_ISOTOPIC_ATOM_COUNT>  (1) 
0

>  <PUBCHEM_COMPONENT_COUNT>  (1) 
1

>  <PUBCHEM_CACTVS_TAUTO_COUNT>  (1) 
3

>  <PUBCHEM_CONFORMER_ID>  (1) 
00002A8300000001

>  <PUBCHEM_MMFF94_ENERGY>  (1) 
6.0432

>  <PUBCHEM_FEATURE_SELFOVERLAP>  (1) 
10.149

>  <PUBCHEM_SHAPE_FINGERPRINT>  (1) 
10219947 1 17240483606788183406
11062470 55 16660361489074573495
12346645 44 18410011022503064554
124424 183 11386363755568085111
12932764 1 17131254801754342859
13380535 76 18334296478408535418
14325111 11 18410575076347502890
14390081 3 18412544288729984073
170605 34 18409449167898445346
190213 19 17530685411335473356
20279233 1 13190339045869944145
20711985 327 16660651751633519647
20719005 15 18410573998073321766
21293036 1 17703791435417449418
22485316 2 9655578496072074172
23402539 116 17894904170402764503
23402655 69 18342167835492270885
3248919 1 17023200292244976907
366044 4 18410292540899225906

>  <PUBCHEM_SHAPE_MULTIPOLES>  (1) 
188.19
8.09
1.19
0.59
1.74
0.05
0
-1.63
0.21
-0.11
-0.01
0
0
-0.05

>  <PUBCHEM_SHAPE_SELFOVERLAP>  (1) 
347.926

>  <PUBCHEM_SHAPE_VOLUME>  (1) 
118.8

>  <PUBCHEM_COORDINATE_TYPE>  (1) 
2
5
10

$$$$
