10882
     RDKit          3D

  9  8  0  0  0  0  0  0  0  0999 V2000
    1.7408    0.4435   -0.0010 O   0  0  0  0  0  0  0  0  0  0  0  0
    0.5816   -1.5513    0.0040 O   0  0  0  0  0  0  0  0  0  0  0  0
   -1.9038   -0.2169   -0.0303 C   0  0  0  0  0  0  0  0  0  0  0  0
   -3.1179    0.7102    0.0042 C   0  0  0  0  0  0  0  0  0  0  0  0
   -0.5980    0.5757   -0.0066 C   0  0  0  0  0  0  0  0  0  0  0  0
   -4.4189   -0.0760    0.0197 C   0  0  0  0  0  0  0  0  0  0  0  0
    0.6136   -0.3285   -0.0011 C   0  0  0  0  0  0  0  0  0  0  0  0
    2.9792   -0.2740    0.0059 C   0  0  0  0  0  0  0  0  0  0  0  0
    4.1234    0.7174    0.0051 C   0  0  0  0  0  0  0  0  0  0  0  0
  1  7  1  0
  1  8  1  0
  2  7  2  0
  3  4  1  0
  3  5  1  0
  4  6  1  0
  5  7  1  0
  8  9  1  0
M  END
>  <PUBCHEM_COMPOUND_CID>  (1) 
10882

>  <PUBCHEM_CONFORMER_RMSD>  (1) 
0.6

>  <PUBCHEM_CONFORMER_DIVERSEORDER>  (1) 
1
80
84
59
91
82
89
34
60
7
26
49
78
22
86
24
68
90
53
21
31
44
76
85
62
48
87
71
2
50
10
81
3
16
70
19
47
5
88
72
69
8
15
73
52
13
63
46
14
20
11
30
9
64
28
51
4
79
66
56
17
32
18
6
41
12
35
77
37
54
74
25
55
40
75
39
23
61
57
58
67
65
83
36
43
27
33
42
45
38
29

>  <PUBCHEM_MMFF94_PARTIAL_CHARGES>  (1) 
5
1 -0.43
2 -0.57
5 0.06
7 0.66
8 0.28

>  <PUBCHEM_EFFECTIVE_ROTOR_COUNT>  (1) 
5

>  <PUBCHEM_PHARMACOPHORE_FEATURES>  (1) 
2
1 2 acceptor
1 6 hydrophobe

>  <PUBCHEM_HEAVY_ATOM_COUNT>  (1) 
9

>  <PUBCHEM_ATOM_DEF_STEREO_COUNT>  (1) 
0

>  <PUBCHEM_ATOM_UDEF_STEREO_COUNT>  (1) 
0

>  <PUBCHEM_BOND_DEF_STEREO_COUNT>  (1) 
0

>  <PUBCHEM_BOND_UDEF_STEREO_COUNT>  (1) 
0

>  <PUBCHEM_ISOTOPIC_ATOM_COUNT>  (1) 
0

>  <PUBCHEM_COMPONENT_COUNT>  (1) 
1

>  <PUBCHEM_CACTVS_TAUTO_COUNT>  (1) 
1

>  <PUBCHEM_CONFORMER_ID>  (1) 
00002A8200000001

>  <PUBCHEM_MMFF94_ENERGY>  (1) 
0.4744

>  <PUBCHEM_FEATURE_SELFOVERLAP>  (1) 
10.148

>  <PUBCHEM_SHAPE_FINGERPRINT>  (1) 
10219947 1 18040437680801080116
11062470 55 17095242514463064189
12932764 1 14692277384268261093
14325111 11 18410573976788363366
170605 34 18410575059004324282
20645477 70 17846504677802284502
20719005 15 18410575089216522049
21293036 1 18131351916371970960
23235685 24 18408880737244689115
23402539 116 16660636380483734463
23402655 69 18342449301989888197
366044 4 18411418427747073826

>  <PUBCHEM_SHAPE_MULTIPOLES>  (1) 
173.48
7.93
1
0.6
1.07
0.22
0
-1.53
0.05
-0.21
0
0.03
-0.01
0

>  <PUBCHEM_SHAPE_SELFOVERLAP>  (1) 
311.687

>  <PUBCHEM_SHAPE_VOLUME>  (1) 
112.7

>  <PUBCHEM_COORDINATE_TYPE>  (1) 
2
5
10

$$$$
