10881
     RDKit          3D

  8  8  0  0  0  0  0  0  0  0999 V2000
   -2.5454   -0.0001    0.0090 O   0  0  0  0  0  0  0  0  0  0  0  0
   -1.3133    0.0000    0.0006 C   0  0  0  0  0  0  0  0  0  0  0  0
   -0.6037    1.2987   -0.0061 C   0  0  0  0  0  0  0  0  0  0  0  0
   -0.6036   -1.2987   -0.0061 C   0  0  0  0  0  0  0  0  0  0  0  0
    0.7053    1.5638   -0.0051 C   0  0  0  0  0  0  0  0  0  0  0  0
    0.7054   -1.5637   -0.0050 C   0  0  0  0  0  0  0  0  0  0  0  0
    1.8276    0.6679    0.0065 C   0  0  0  0  0  0  0  0  0  0  0  0
    1.8277   -0.6678    0.0063 C   0  0  0  0  0  0  0  0  0  0  0  0
  1  2  2  0
  2  3  1  0
  2  4  1  0
  3  5  2  0
  4  6  2  0
  5  7  1  0
  6  8  1  0
  7  8  2  0
M  END
>  <PUBCHEM_COMPOUND_CID>  (1) 
10881

>  <PUBCHEM_CONFORMER_RMSD>  (1) 
0.4

>  <PUBCHEM_CONFORMER_DIVERSEORDER>  (1) 
1

>  <PUBCHEM_MMFF94_PARTIAL_CHARGES>  (1) 
14
1 -0.57
10 0.15
11 0.15
12 0.15
13 0.15
14 0.15
2 0.54
3 -0.14
4 -0.14
5 -0.15
6 -0.15
7 -0.15
8 -0.15
9 0.15

>  <PUBCHEM_EFFECTIVE_ROTOR_COUNT>  (1) 
0

>  <PUBCHEM_PHARMACOPHORE_FEATURES>  (1) 
2
1 1 acceptor
7 2 3 4 5 6 7 8 rings

>  <PUBCHEM_HEAVY_ATOM_COUNT>  (1) 
8

>  <PUBCHEM_ATOM_DEF_STEREO_COUNT>  (1) 
0

>  <PUBCHEM_ATOM_UDEF_STEREO_COUNT>  (1) 
0

>  <PUBCHEM_BOND_DEF_STEREO_COUNT>  (1) 
0

>  <PUBCHEM_BOND_UDEF_STEREO_COUNT>  (1) 
0

>  <PUBCHEM_ISOTOPIC_ATOM_COUNT>  (1) 
0

>  <PUBCHEM_COMPONENT_COUNT>  (1) 
1

>  <PUBCHEM_CACTVS_TAUTO_COUNT>  (1) 
1

>  <PUBCHEM_CONFORMER_ID>  (1) 
00002A8100000001

>  <PUBCHEM_MMFF94_ENERGY>  (1) 
25.6366

>  <PUBCHEM_FEATURE_SELFOVERLAP>  (1) 
10.148

>  <PUBCHEM_SHAPE_FINGERPRINT>  (1) 
18185500 45 18412259532229434702
20096714 4 18338799025842361962
21040471 1 18194401319123253024
23235685 24 18338794619263984012
23552423 10 17973172729268667238
241688 4 17905893578352230336
2748010 2 18122345949899340646
29004967 10 18334300859327444185
5084963 1 18201438043159096466

>  <PUBCHEM_SHAPE_MULTIPOLES>  (1) 
158.77
2.51
1.79
0.6
0.65
0
0
0
-0.01
-0.31
0
-0.03
0
0

>  <PUBCHEM_SHAPE_SELFOVERLAP>  (1) 
322.846

>  <PUBCHEM_SHAPE_VOLUME>  (1) 
89.2

>  <PUBCHEM_COORDINATE_TYPE>  (1) 
2
5
10

$$$$
