10894
     RDKit          3D

  8  8  0  0  0  0  0  0  0  0999 V2000
   -3.3829   -0.0001    0.0002 I   0  0  0  0  0  0  0  0  0  0  0  0
    2.8454    0.0000    0.0002 O   0  0  0  0  0  0  0  0  0  0  0  0
    1.4844   -0.0001   -0.0001 C   0  0  0  0  0  0  0  0  0  0  0  0
    0.7871   -1.2080    0.0000 C   0  0  0  0  0  0  0  0  0  0  0  0
    0.7870    1.2080   -0.0001 C   0  0  0  0  0  0  0  0  0  0  0  0
   -0.6078   -1.2080   -0.0001 C   0  0  0  0  0  0  0  0  0  0  0  0
   -0.6079    1.2081   -0.0001 C   0  0  0  0  0  0  0  0  0  0  0  0
   -1.3054    0.0000   -0.0001 C   0  0  0  0  0  0  0  0  0  0  0  0
  1  8  1  0
  2  3  1  0
  3  4  2  0
  3  5  1  0
  4  6  1  0
  5  7  2  0
  6  8  2  0
  7  8  1  0
M  END
>  <PUBCHEM_COMPOUND_CID>  (1) 
10894

>  <PUBCHEM_CONFORMER_RMSD>  (1) 
0.4

>  <PUBCHEM_CONFORMER_DIVERSEORDER>  (1) 
1

>  <PUBCHEM_MMFF94_PARTIAL_CHARGES>  (1) 
13
1 -0.08
10 0.15
11 0.15
12 0.15
13 0.45
2 -0.53
3 0.08
4 -0.15
5 -0.15
6 -0.15
7 -0.15
8 0.08
9 0.15

>  <PUBCHEM_EFFECTIVE_ROTOR_COUNT>  (1) 
0

>  <PUBCHEM_PHARMACOPHORE_FEATURES>  (1) 
3
1 1 hydrophobe
1 2 donor
6 3 4 5 6 7 8 rings

>  <PUBCHEM_HEAVY_ATOM_COUNT>  (1) 
8

>  <PUBCHEM_ATOM_DEF_STEREO_COUNT>  (1) 
0

>  <PUBCHEM_ATOM_UDEF_STEREO_COUNT>  (1) 
0

>  <PUBCHEM_BOND_DEF_STEREO_COUNT>  (1) 
0

>  <PUBCHEM_BOND_UDEF_STEREO_COUNT>  (1) 
0

>  <PUBCHEM_ISOTOPIC_ATOM_COUNT>  (1) 
0

>  <PUBCHEM_COMPONENT_COUNT>  (1) 
1

>  <PUBCHEM_CACTVS_TAUTO_COUNT>  (1) 
2

>  <PUBCHEM_CONFORMER_ID>  (1) 
00002A8E00000001

>  <PUBCHEM_MMFF94_ENERGY>  (1) 
16.7752

>  <PUBCHEM_FEATURE_SELFOVERLAP>  (1) 
15.223

>  <PUBCHEM_SHAPE_FINGERPRINT>  (1) 
14325111 11 18410574019959686337
16945 1 18410573985304418951
21040471 1 18194401323449823365
21293036 1 18408891753878053644
23235685 24 18410569595774073869
23402655 69 18267849598746477501
23552423 10 18045227037466748598
2748010 2 18122628524324375519
29004967 10 18334018276481175753
5084963 1 18272089404975218953

>  <PUBCHEM_SHAPE_MULTIPOLES>  (1) 
170.7
4.12
1.35
0.65
2.16
0
0
0
0
-0.14
0
0.16
0
0

>  <PUBCHEM_SHAPE_SELFOVERLAP>  (1) 
331.864

>  <PUBCHEM_SHAPE_VOLUME>  (1) 
106.4

>  <PUBCHEM_COORDINATE_TYPE>  (1) 
2
5
10

$$$$
