10901
     RDKit          3D

  4  3  0  0  0  0  0  0  0  0999 V2000
    1.6838    0.4834    0.0000 N   0  0  0  0  0  0  0  0  0  0  0  0
   -1.7524    0.2572    0.0000 N   0  0  0  0  0  0  0  0  0  0  0  0
    0.7255   -0.6147    0.0000 C   0  0  0  0  0  0  0  0  0  0  0  0
   -0.6569   -0.1258    0.0001 C   0  0  0  0  0  0  0  0  0  0  0  0
  1  3  1  0
  2  4  3  0
  3  4  1  0
M  END
>  <PUBCHEM_COMPOUND_CID>  (1) 
10901

>  <PUBCHEM_CONFORMER_RMSD>  (1) 
0.4

>  <PUBCHEM_CONFORMER_DIVERSEORDER>  (1) 
1

>  <PUBCHEM_MMFF94_PARTIAL_CHARGES>  (1) 
6
1 -0.99
2 -0.56
3 0.47
4 0.36
7 0.36
8 0.36

>  <PUBCHEM_EFFECTIVE_ROTOR_COUNT>  (1) 
0

>  <PUBCHEM_PHARMACOPHORE_FEATURES>  (1) 
3
1 1 cation
1 1 donor
1 2 acceptor

>  <PUBCHEM_HEAVY_ATOM_COUNT>  (1) 
4

>  <PUBCHEM_ATOM_DEF_STEREO_COUNT>  (1) 
0

>  <PUBCHEM_ATOM_UDEF_STEREO_COUNT>  (1) 
0

>  <PUBCHEM_BOND_DEF_STEREO_COUNT>  (1) 
0

>  <PUBCHEM_BOND_UDEF_STEREO_COUNT>  (1) 
0

>  <PUBCHEM_ISOTOPIC_ATOM_COUNT>  (1) 
0

>  <PUBCHEM_COMPONENT_COUNT>  (1) 
1

>  <PUBCHEM_CACTVS_TAUTO_COUNT>  (1) 
1

>  <PUBCHEM_CONFORMER_ID>  (1) 
00002A9500000001

>  <PUBCHEM_MMFF94_ENERGY>  (1) 
-1.0277

>  <PUBCHEM_FEATURE_SELFOVERLAP>  (1) 
15.223

>  <PUBCHEM_SHAPE_FINGERPRINT>  (1) 
139733 1 9222072964040911106
20096714 4 18412545435401869016
21015797 1 8357382922038259603
5460574 1 9295291637941211075

>  <PUBCHEM_SHAPE_MULTIPOLES>  (1) 
72.36
2.12
0.75
0.57
0.14
0.06
0
-0.41
0
-0.15
0
0
0.02
0

>  <PUBCHEM_SHAPE_SELFOVERLAP>  (1) 
121.74

>  <PUBCHEM_SHAPE_VOLUME>  (1) 
47.3

>  <PUBCHEM_COORDINATE_TYPE>  (1) 
2
5
10

$$$$
