10907
     RDKit          3D

  8  7  0  0  0  0  0  0  0  0999 V2000
   -1.1545   -0.0936    0.0108 C   0  0  0  0  0  0  0  0  0  0  0  0
    0.2112   -0.7723    0.3209 C   0  0  0  0  0  0  0  0  0  0  0  0
    1.4706   -0.1336   -0.3107 C   0  0  0  0  0  0  0  0  0  0  0  0
   -2.3309   -1.0740    0.1090 C   0  0  0  0  0  0  0  0  0  0  0  0
   -1.1410    0.5409   -1.3920 C   0  0  0  0  0  0  0  0  0  0  0  0
   -1.3731    1.0313    1.0438 C   0  0  0  0  0  0  0  0  0  0  0  0
    1.5644    1.3445    0.0845 C   0  0  0  0  0  0  0  0  0  0  0  0
    2.7535   -0.8433    0.1338 C   0  0  0  0  0  0  0  0  0  0  0  0
  1  2  1  0
  1  4  1  0
  1  5  1  0
  1  6  1  0
  2  3  1  0
  3  7  1  0
  3  8  1  0
M  END
>  <PUBCHEM_COMPOUND_CID>  (1) 
10907

>  <PUBCHEM_CONFORMER_RMSD>  (1) 
0.4

>  <PUBCHEM_CONFORMER_DIVERSEORDER>  (1) 
1

>  <PUBCHEM_MMFF94_PARTIAL_CHARGES>  (1) 
0

>  <PUBCHEM_EFFECTIVE_ROTOR_COUNT>  (1) 
2

>  <PUBCHEM_PHARMACOPHORE_FEATURES>  (1) 
2
3 3 7 8 hydrophobe
4 1 4 5 6 hydrophobe

>  <PUBCHEM_HEAVY_ATOM_COUNT>  (1) 
8

>  <PUBCHEM_ATOM_DEF_STEREO_COUNT>  (1) 
0

>  <PUBCHEM_ATOM_UDEF_STEREO_COUNT>  (1) 
0

>  <PUBCHEM_BOND_DEF_STEREO_COUNT>  (1) 
0

>  <PUBCHEM_BOND_UDEF_STEREO_COUNT>  (1) 
0

>  <PUBCHEM_ISOTOPIC_ATOM_COUNT>  (1) 
0

>  <PUBCHEM_COMPONENT_COUNT>  (1) 
1

>  <PUBCHEM_CACTVS_TAUTO_COUNT>  (1) 
1

>  <PUBCHEM_CONFORMER_ID>  (1) 
00002A9B00000001

>  <PUBCHEM_MMFF94_ENERGY>  (1) 
25.6005

>  <PUBCHEM_FEATURE_SELFOVERLAP>  (1) 
10.149

>  <PUBCHEM_SHAPE_FINGERPRINT>  (1) 
12897270 3 17821999939199571015
12932764 1 17894633608922018226
15310529 11 17560807653517841972
21040471 1 17699306372848037601
23552423 10 18335706073853048866
24536 1 18272926111696054640
29004967 10 18202002101509589542
369184 2 18412542106680791499
5084963 1 18113900476558819190

>  <PUBCHEM_SHAPE_MULTIPOLES>  (1) 
164.64
3.39
1.32
1.02
1.2
0.17
-0.19
-0.84
0.17
0.06
0.16
-0.44
0.26
-0.06

>  <PUBCHEM_SHAPE_SELFOVERLAP>  (1) 
295.482

>  <PUBCHEM_SHAPE_VOLUME>  (1) 
110.4

>  <PUBCHEM_COORDINATE_TYPE>  (1) 
2
5
10

$$$$
