10935
     RDKit          3D

  7  7  0  0  0  0  0  0  0  0999 V2000
   -2.2947   -0.5367    0.0000 O   0  0  0  0  0  0  0  0  0  0  0  0
    2.2946   -0.5368    0.0003 O   0  0  0  0  0  0  0  0  0  0  0  0
   -0.0001   -0.9608   -0.0003 N   0  0  0  0  0  0  0  0  0  0  0  0
   -1.1266   -0.1901    0.0003 C   0  0  0  0  0  0  0  0  0  0  0  0
    1.1266   -0.1902   -0.0002 C   0  0  0  0  0  0  0  0  0  0  0  0
   -0.6673    1.2073    0.0001 C   0  0  0  0  0  0  0  0  0  0  0  0
    0.6674    1.2072   -0.0002 C   0  0  0  0  0  0  0  0  0  0  0  0
  1  4  2  0
  2  5  2  0
  3  4  1  0
  3  5  1  0
  4  6  1  0
  5  7  1  0
  6  7  2  0
M  END
>  <PUBCHEM_COMPOUND_CID>  (1) 
10935

>  <PUBCHEM_CONFORMER_RMSD>  (1) 
0.4

>  <PUBCHEM_CONFORMER_DIVERSEORDER>  (1) 
1

>  <PUBCHEM_MMFF94_PARTIAL_CHARGES>  (1) 
10
1 -0.57
10 0.15
2 -0.57
3 -0.49
4 0.62
5 0.62
6 -0.14
7 -0.14
8 0.37
9 0.15

>  <PUBCHEM_EFFECTIVE_ROTOR_COUNT>  (1) 
0.2

>  <PUBCHEM_PHARMACOPHORE_FEATURES>  (1) 
4
1 1 acceptor
1 2 acceptor
1 3 donor
5 3 4 5 6 7 rings

>  <PUBCHEM_HEAVY_ATOM_COUNT>  (1) 
7

>  <PUBCHEM_ATOM_DEF_STEREO_COUNT>  (1) 
0

>  <PUBCHEM_ATOM_UDEF_STEREO_COUNT>  (1) 
0

>  <PUBCHEM_BOND_DEF_STEREO_COUNT>  (1) 
0

>  <PUBCHEM_BOND_UDEF_STEREO_COUNT>  (1) 
0

>  <PUBCHEM_ISOTOPIC_ATOM_COUNT>  (1) 
0

>  <PUBCHEM_COMPONENT_COUNT>  (1) 
1

>  <PUBCHEM_CACTVS_TAUTO_COUNT>  (1) 
2

>  <PUBCHEM_CONFORMER_ID>  (1) 
00002AB700000001

>  <PUBCHEM_MMFF94_ENERGY>  (1) 
8.0047

>  <PUBCHEM_FEATURE_SELFOVERLAP>  (1) 
20.297

>  <PUBCHEM_SHAPE_FINGERPRINT>  (1) 
16714656 1 18412549781982573734
20096714 4 18123472949323228577
21040471 1 17978228592812454021
23552423 10 18044385920014966406
29004967 10 18408889563407815819

>  <PUBCHEM_SHAPE_MULTIPOLES>  (1) 
127.34
2.35
1.23
0.58
0
0.34
0
-0.68
0
0
0
0
0.03
0

>  <PUBCHEM_SHAPE_SELFOVERLAP>  (1) 
267.904

>  <PUBCHEM_SHAPE_VOLUME>  (1) 
72.4

>  <PUBCHEM_COORDINATE_TYPE>  (1) 
2
5
10

$$$$
