10936
     RDKit          3D

 12 11  0  0  1  0  0  0  0  0999 V2000
   -1.9504    1.8305    0.8711 Cl  0  0  0  0  0  0  0  0  0  0  0  0
   -2.4852   -0.9947    1.3345 Cl  0  0  0  0  0  0  0  0  0  0  0  0
   -3.1589    0.2223   -1.2229 Cl  0  0  0  0  0  0  0  0  0  0  0  0
    0.3934   -0.0556    0.6275 O   0  0  0  0  0  0  0  0  0  0  0  0
   -0.5576   -1.4293   -1.0414 O   0  0  0  0  0  0  0  0  0  0  0  0
    1.7208   -0.3481    0.1858 C   0  0  0  0  0  0  0  0  0  0  0  0
    2.1106    0.6257   -0.9438 C   0  0  0  0  0  0  0  0  0  0  0  0
    2.6433   -0.2303    1.3999 C   0  0  0  0  0  0  0  0  0  0  0  0
    1.7366   -1.7879   -0.3374 C   0  0  0  0  0  0  0  0  0  0  0  0
   -0.5617   -0.1363   -0.4340 C   0  0  0  0  0  0  0  0  0  0  0  0
    2.0703    2.0982   -0.5513 C   0  0  0  0  0  0  0  0  0  0  0  0
   -1.9611    0.2056    0.1120 C   0  0  0  0  0  0  0  0  0  0  0  0
  1 12  1  0
  2 12  1  0
  3 12  1  0
  4  6  1  0
  4 10  1  0
  5 10  1  0
  6  7  1  0
  6  8  1  0
  6  9  1  0
  7 11  1  0
 10 12  1  0
M  END
>  <PUBCHEM_COMPOUND_CID>  (1) 
10936

>  <PUBCHEM_CONFORMER_RMSD>  (1) 
0.6

>  <PUBCHEM_CONFORMER_DIVERSEORDER>  (1) 
2
6
4
3
1
5

>  <PUBCHEM_MMFF94_PARTIAL_CHARGES>  (1) 
9
1 -0.29
10 0.56
12 0.87
2 -0.29
25 0.4
3 -0.29
4 -0.56
5 -0.68
6 0.28

>  <PUBCHEM_EFFECTIVE_ROTOR_COUNT>  (1) 
4

>  <PUBCHEM_PHARMACOPHORE_FEATURES>  (1) 
5
1 11 hydrophobe
1 4 acceptor
1 5 acceptor
1 5 donor
3 6 8 9 hydrophobe

>  <PUBCHEM_HEAVY_ATOM_COUNT>  (1) 
12

>  <PUBCHEM_ATOM_DEF_STEREO_COUNT>  (1) 
0

>  <PUBCHEM_ATOM_UDEF_STEREO_COUNT>  (1) 
1

>  <PUBCHEM_BOND_DEF_STEREO_COUNT>  (1) 
0

>  <PUBCHEM_BOND_UDEF_STEREO_COUNT>  (1) 
0

>  <PUBCHEM_ISOTOPIC_ATOM_COUNT>  (1) 
0

>  <PUBCHEM_COMPONENT_COUNT>  (1) 
1

>  <PUBCHEM_CACTVS_TAUTO_COUNT>  (1) 
1

>  <PUBCHEM_CONFORMER_ID>  (1) 
00002AB800000002

>  <PUBCHEM_MMFF94_ENERGY>  (1) 
32.6543

>  <PUBCHEM_FEATURE_SELFOVERLAP>  (1) 
25.411

>  <PUBCHEM_SHAPE_FINGERPRINT>  (1) 
12932741 1 17822297868248584223
12932764 1 16950857928810963947
14648413 74 18265070049523369960
15775835 57 17417808409625166777
16945 1 18343023315045671759
18186145 218 17822562803802091037
19973954 147 18337403651129114809
20511035 2 17986115097618400211
20559304 39 18412266120783230288
20653085 51 18115864106027277757
20653091 64 17894918429667742144
21028194 46 17897174726154060620
21040471 1 18060137626462418070
21524375 3 17536333761972233756
230 275 18272369784798553016
23552423 10 18270402681044775199
23557571 272 16917058958532218297
2748010 2 18055073159909006078
3248919 1 18408604729935445699
369184 2 17312820489722419073
5084963 1 18269269075945303023
74978 22 17968380043866181299
8030462 33 18201440246540551317

>  <PUBCHEM_SHAPE_MULTIPOLES>  (1) 
240.83
4.71
1.85
1.37
1.12
0.53
-0.15
0.44
-0.15
-0.51
0.02
0.37
-0.1
-0.19

>  <PUBCHEM_SHAPE_SELFOVERLAP>  (1) 
431.185

>  <PUBCHEM_SHAPE_VOLUME>  (1) 
157.9

>  <PUBCHEM_COORDINATE_TYPE>  (1) 
2
5
10

$$$$
