10945
     RDKit          3D

  9  8  0  0  1  0  0  0  0  0999 V2000
   -1.2252    1.3788    1.1506 Cl  0  0  0  0  0  0  0  0  0  0  0  0
   -2.8292   -1.0873    0.4715 F   0  0  0  0  0  0  0  0  0  0  0  0
    2.0415   -0.8590    0.2700 O   0  0  0  0  0  0  0  0  0  0  0  0
    1.5276    1.1898   -0.6565 O   0  0  0  0  0  0  0  0  0  0  0  0
   -1.2956    0.4817   -0.4002 C   0  0  0  0  0  0  0  0  0  0  0  0
   -0.1651   -0.5494   -0.4633 C   0  0  0  0  0  0  0  0  0  0  0  0
   -2.6605   -0.1819   -0.5287 C   0  0  0  0  0  0  0  0  0  0  0  0
    1.2112    0.0622   -0.3031 C   0  0  0  0  0  0  0  0  0  0  0  0
    3.3952   -0.4349    0.4596 C   0  0  0  0  0  0  0  0  0  0  0  0
  1  5  1  0
  2  7  1  0
  3  8  1  0
  3  9  1  0
  4  8  2  0
  5  6  1  0
  5  7  1  0
  6  8  1  0
M  END
>  <PUBCHEM_COMPOUND_CID>  (1) 
10945

>  <PUBCHEM_CONFORMER_RMSD>  (1) 
0.6

>  <PUBCHEM_CONFORMER_DIVERSEORDER>  (1) 
1
13
14
25
16
33
23
22
18
24
29
34
28
20
27
19
8
31
12
30
10
35
37
2
9
36
11
7
32
4
3
21
6
26
15
5
17

>  <PUBCHEM_MMFF94_PARTIAL_CHARGES>  (1) 
9
1 -0.29
2 -0.34
3 -0.43
4 -0.57
5 0.29
6 0.06
7 0.34
8 0.66
9 0.28

>  <PUBCHEM_EFFECTIVE_ROTOR_COUNT>  (1) 
4

>  <PUBCHEM_PHARMACOPHORE_FEATURES>  (1) 
1
1 4 acceptor

>  <PUBCHEM_HEAVY_ATOM_COUNT>  (1) 
9

>  <PUBCHEM_ATOM_DEF_STEREO_COUNT>  (1) 
0

>  <PUBCHEM_ATOM_UDEF_STEREO_COUNT>  (1) 
1

>  <PUBCHEM_BOND_DEF_STEREO_COUNT>  (1) 
0

>  <PUBCHEM_BOND_UDEF_STEREO_COUNT>  (1) 
0

>  <PUBCHEM_ISOTOPIC_ATOM_COUNT>  (1) 
0

>  <PUBCHEM_COMPONENT_COUNT>  (1) 
1

>  <PUBCHEM_CACTVS_TAUTO_COUNT>  (1) 
1

>  <PUBCHEM_CONFORMER_ID>  (1) 
00002AC100000001

>  <PUBCHEM_MMFF94_ENERGY>  (1) 
9.4602

>  <PUBCHEM_FEATURE_SELFOVERLAP>  (1) 
5.074

>  <PUBCHEM_SHAPE_FINGERPRINT>  (1) 
10857977 72 17561082535878015371
12932741 1 14635164454932384156
12932764 1 16298657339576912709
20653091 64 18333736827379978160
21040471 1 17413611449156667873
29004967 10 17313671438850369864
3248919 1 18341616983870787702
5084963 1 18334011692027369948

>  <PUBCHEM_SHAPE_MULTIPOLES>  (1) 
168.07
4.66
1.23
0.92
1.81
0.43
0.02
-1.07
0.84
-0.51
0.23
-0.08
0.14
-0.28

>  <PUBCHEM_SHAPE_SELFOVERLAP>  (1) 
303.475

>  <PUBCHEM_SHAPE_VOLUME>  (1) 
108.9

>  <PUBCHEM_COORDINATE_TYPE>  (1) 
2
5
10

$$$$
