10960
     RDKit          3D

  7  6  0  0  0  0  0  0  0  0999 V2000
    0.3204   -0.5404   -0.0015 O   0  0  0  0  0  0  0  0  0  0  0  0
   -3.2328    0.2602    0.0096 O   0  0  0  0  0  0  0  0  0  0  0  0
    1.6813    1.3263   -0.0010 O   0  0  0  0  0  0  0  0  0  0  0  0
   -0.8392    0.2983   -0.0055 C   0  0  0  0  0  0  0  0  0  0  0  0
   -2.0803   -0.5733   -0.0071 C   0  0  0  0  0  0  0  0  0  0  0  0
    1.5166    0.1138    0.0004 C   0  0  0  0  0  0  0  0  0  0  0  0
    2.6340   -0.8848    0.0050 C   0  0  0  0  0  0  0  0  0  0  0  0
  1  4  1  0
  1  6  1  0
  2  5  1  0
  3  6  2  0
  4  5  1  0
  6  7  1  0
M  END
>  <PUBCHEM_COMPOUND_CID>  (1) 
10960

>  <PUBCHEM_CONFORMER_RMSD>  (1) 
0.4

>  <PUBCHEM_CONFORMER_DIVERSEORDER>  (1) 
3
31
12
29
24
28
17
30
10
23
20
25
11
16
26
18
27
15
7
8
5
4
9
21
22
14
13
6
2
1
19

>  <PUBCHEM_MMFF94_PARTIAL_CHARGES>  (1) 
8
1 -0.43
15 0.4
2 -0.68
3 -0.57
4 0.28
5 0.28
6 0.66
7 0.06

>  <PUBCHEM_EFFECTIVE_ROTOR_COUNT>  (1) 
3

>  <PUBCHEM_PHARMACOPHORE_FEATURES>  (1) 
3
1 2 acceptor
1 2 donor
1 3 acceptor

>  <PUBCHEM_HEAVY_ATOM_COUNT>  (1) 
7

>  <PUBCHEM_ATOM_DEF_STEREO_COUNT>  (1) 
0

>  <PUBCHEM_ATOM_UDEF_STEREO_COUNT>  (1) 
0

>  <PUBCHEM_BOND_DEF_STEREO_COUNT>  (1) 
0

>  <PUBCHEM_BOND_UDEF_STEREO_COUNT>  (1) 
0

>  <PUBCHEM_ISOTOPIC_ATOM_COUNT>  (1) 
0

>  <PUBCHEM_COMPONENT_COUNT>  (1) 
1

>  <PUBCHEM_CACTVS_TAUTO_COUNT>  (1) 
1

>  <PUBCHEM_CONFORMER_ID>  (1) 
00002AD000000003

>  <PUBCHEM_MMFF94_ENERGY>  (1) 
5.6563

>  <PUBCHEM_FEATURE_SELFOVERLAP>  (1) 
15.223

>  <PUBCHEM_SHAPE_FINGERPRINT>  (1) 
12932764 1 17313094259490987827
14325111 11 18410855494804502211
14390081 3 18341611568223190257
20096714 4 18339924938750073060
21040471 1 18194682794279162342
29004967 10 18412263909149327490
5460574 1 9295290542809024583

>  <PUBCHEM_SHAPE_MULTIPOLES>  (1) 
126.45
4.45
1.01
0.57
1.98
0.15
0
-0.45
-0.01
-0.52
0
-0.02
-0.02
0

>  <PUBCHEM_SHAPE_SELFOVERLAP>  (1) 
226.93

>  <PUBCHEM_SHAPE_VOLUME>  (1) 
81.8

>  <PUBCHEM_COORDINATE_TYPE>  (1) 
2
5
10

$$$$
