10964
     RDKit          3D

  5  4  0  0  0  0  0  0  0  0999 V2000
    1.3685    0.8902    0.0022 O   0  0  0  0  0  0  0  0  0  0  0  0
   -1.3685    0.8902    0.0022 O   0  0  0  0  0  0  0  0  0  0  0  0
   -0.0001   -1.1149    0.0069 C   0  0  0  0  0  0  0  0  0  0  0  0
    1.2852   -0.3328   -0.0057 C   0  0  0  0  0  0  0  0  0  0  0  0
   -1.2852   -0.3328   -0.0056 C   0  0  0  0  0  0  0  0  0  0  0  0
  1  4  2  0
  2  5  2  0
  3  4  1  0
  3  5  1  0
M  END
>  <PUBCHEM_COMPOUND_CID>  (1) 
10964

>  <PUBCHEM_CONFORMER_RMSD>  (1) 
0.4

>  <PUBCHEM_CONFORMER_DIVERSEORDER>  (1) 
1
5
6
2
3
4

>  <PUBCHEM_MMFF94_PARTIAL_CHARGES>  (1) 
7
1 -0.57
2 -0.57
3 0.12
4 0.45
5 0.45
8 0.06
9 0.06

>  <PUBCHEM_EFFECTIVE_ROTOR_COUNT>  (1) 
2

>  <PUBCHEM_PHARMACOPHORE_FEATURES>  (1) 
3
1 1 acceptor
1 2 acceptor
1 3 anion

>  <PUBCHEM_HEAVY_ATOM_COUNT>  (1) 
5

>  <PUBCHEM_ATOM_DEF_STEREO_COUNT>  (1) 
0

>  <PUBCHEM_ATOM_UDEF_STEREO_COUNT>  (1) 
0

>  <PUBCHEM_BOND_DEF_STEREO_COUNT>  (1) 
0

>  <PUBCHEM_BOND_UDEF_STEREO_COUNT>  (1) 
0

>  <PUBCHEM_ISOTOPIC_ATOM_COUNT>  (1) 
0

>  <PUBCHEM_COMPONENT_COUNT>  (1) 
1

>  <PUBCHEM_CACTVS_TAUTO_COUNT>  (1) 
2

>  <PUBCHEM_CONFORMER_ID>  (1) 
00002AD400000001

>  <PUBCHEM_MMFF94_ENERGY>  (1) 
0.8509

>  <PUBCHEM_FEATURE_SELFOVERLAP>  (1) 
15.228

>  <PUBCHEM_SHAPE_FINGERPRINT>  (1) 
20096714 4 18410856533875273554
21015797 1 9295022274751409987
21040471 1 18410575071809832038
5943 1 15898723505246019458

>  <PUBCHEM_SHAPE_MULTIPOLES>  (1) 
91.16
1.93
1.15
0.58
0
0.02
0
-0.4
0
0
0
0
0.04
0

>  <PUBCHEM_SHAPE_SELFOVERLAP>  (1) 
161.157

>  <PUBCHEM_SHAPE_VOLUME>  (1) 
58.4

>  <PUBCHEM_COORDINATE_TYPE>  (1) 
2
5
10

$$$$
