10976
     RDKit          3D

  8  7  0  0  1  0  0  0  0  0999 V2000
   -2.3297   -1.3152   -0.3176 O   0  0  0  0  0  0  0  0  0  0  0  0
    0.3087   -0.2382    0.3099 C   0  0  0  0  0  0  0  0  0  0  0  0
   -0.9033    0.6131   -0.0844 C   0  0  0  0  0  0  0  0  0  0  0  0
    1.6172    0.4232   -0.1276 C   0  0  0  0  0  0  0  0  0  0  0  0
   -2.2262   -0.0447    0.3192 C   0  0  0  0  0  0  0  0  0  0  0  0
    2.8246   -0.4436    0.2290 C   0  0  0  0  0  0  0  0  0  0  0  0
   -3.4160    0.8108   -0.0947 C   0  0  0  0  0  0  0  0  0  0  0  0
    4.1246    0.1945   -0.2340 C   0  0  0  0  0  0  0  0  0  0  0  0
  1  5  1  0
  2  3  1  0
  2  4  1  0
  3  5  1  0
  4  6  1  0
  5  7  1  0
  6  8  1  0
M  END
>  <PUBCHEM_COMPOUND_CID>  (1) 
10976

>  <PUBCHEM_CONFORMER_RMSD>  (1) 
0.6

>  <PUBCHEM_CONFORMER_DIVERSEORDER>  (1) 
1
51
28
52
60
39
43
12
47
56
2
25
54
41
58
4
9
36
46
61
35
21
10
57
22
44
45
59
29
20
19
55
14
33
27
38
53
16
31
13
48
24
8
50
40
32
37
42
5
17
18
3
49
11
26
15
34
7
23
30
6

>  <PUBCHEM_MMFF94_PARTIAL_CHARGES>  (1) 
3
1 -0.68
24 0.4
5 0.28

>  <PUBCHEM_EFFECTIVE_ROTOR_COUNT>  (1) 
4

>  <PUBCHEM_PHARMACOPHORE_FEATURES>  (1) 
4
1 1 acceptor
1 1 donor
1 8 hydrophobe
4 2 3 4 6 hydrophobe

>  <PUBCHEM_HEAVY_ATOM_COUNT>  (1) 
8

>  <PUBCHEM_ATOM_DEF_STEREO_COUNT>  (1) 
0

>  <PUBCHEM_ATOM_UDEF_STEREO_COUNT>  (1) 
1

>  <PUBCHEM_BOND_DEF_STEREO_COUNT>  (1) 
0

>  <PUBCHEM_BOND_UDEF_STEREO_COUNT>  (1) 
0

>  <PUBCHEM_ISOTOPIC_ATOM_COUNT>  (1) 
0

>  <PUBCHEM_COMPONENT_COUNT>  (1) 
1

>  <PUBCHEM_CACTVS_TAUTO_COUNT>  (1) 
1

>  <PUBCHEM_CONFORMER_ID>  (1) 
00002AE000000001

>  <PUBCHEM_MMFF94_ENERGY>  (1) 
0.6362

>  <PUBCHEM_FEATURE_SELFOVERLAP>  (1) 
20.297

>  <PUBCHEM_SHAPE_FINGERPRINT>  (1) 
11062470 55 18260831488222752872
12932764 1 17967521376829919864
14325111 11 18409449189362478970
190213 19 17561366184234797792
20211469 26 11599999938439079881
20719005 15 18409167710059107017
22485316 2 18341890788526563298
23402539 116 17988635273544845381
3248919 1 17131843070191853480
5460574 1 10375870771025367768

>  <PUBCHEM_SHAPE_MULTIPOLES>  (1) 
158.77
6.95
0.96
0.66
3.13
0.14
-0.01
-0.55
0.44
-0.53
0.07
0
0.01
-0.15

>  <PUBCHEM_SHAPE_SELFOVERLAP>  (1) 
276.857

>  <PUBCHEM_SHAPE_VOLUME>  (1) 
105.9

>  <PUBCHEM_COORDINATE_TYPE>  (1) 
2
5
10

$$$$
