10994
     RDKit          3D

  7  6  0  0  0  0  0  0  0  0999 V2000
   -3.4273    0.7044   -0.0073 N   0  0  0  0  0  0  0  0  0  0  0  0
    3.4272    0.7045   -0.0073 N   0  0  0  0  0  0  0  0  0  0  0  0
    0.0001    0.0727    0.0380 C   0  0  0  0  0  0  0  0  0  0  0  0
   -1.2625   -0.7877   -0.0053 C   0  0  0  0  0  0  0  0  0  0  0  0
    1.2625   -0.7877   -0.0051 C   0  0  0  0  0  0  0  0  0  0  0  0
   -2.4713    0.0469   -0.0064 C   0  0  0  0  0  0  0  0  0  0  0  0
    2.4713    0.0468   -0.0065 C   0  0  0  0  0  0  0  0  0  0  0  0
  1  6  3  0
  2  7  3  0
  3  4  1  0
  3  5  1  0
  4  6  1  0
  5  7  1  0
M  END
>  <PUBCHEM_COMPOUND_CID>  (1) 
10994

>  <PUBCHEM_CONFORMER_RMSD>  (1) 
0.4

>  <PUBCHEM_CONFORMER_DIVERSEORDER>  (1) 
1
6
4
5
2
3

>  <PUBCHEM_MMFF94_PARTIAL_CHARGES>  (1) 
6
1 -0.56
2 -0.56
4 0.2
5 0.2
6 0.36
7 0.36

>  <PUBCHEM_EFFECTIVE_ROTOR_COUNT>  (1) 
2

>  <PUBCHEM_PHARMACOPHORE_FEATURES>  (1) 
2
1 1 acceptor
1 2 acceptor

>  <PUBCHEM_HEAVY_ATOM_COUNT>  (1) 
7

>  <PUBCHEM_ATOM_DEF_STEREO_COUNT>  (1) 
0

>  <PUBCHEM_ATOM_UDEF_STEREO_COUNT>  (1) 
0

>  <PUBCHEM_BOND_DEF_STEREO_COUNT>  (1) 
0

>  <PUBCHEM_BOND_UDEF_STEREO_COUNT>  (1) 
0

>  <PUBCHEM_ISOTOPIC_ATOM_COUNT>  (1) 
0

>  <PUBCHEM_COMPONENT_COUNT>  (1) 
1

>  <PUBCHEM_CACTVS_TAUTO_COUNT>  (1) 
1

>  <PUBCHEM_CONFORMER_ID>  (1) 
00002AF200000001

>  <PUBCHEM_MMFF94_ENERGY>  (1) 
0.8271

>  <PUBCHEM_FEATURE_SELFOVERLAP>  (1) 
10.149

>  <PUBCHEM_SHAPE_FINGERPRINT>  (1) 
11062470 55 18413107259989423753
12932741 1 15697424641554785002
14325111 11 18410573989467770795
14390081 3 18413669114757813689
177051 138 7925909283485122017
21293036 1 16486970717340471469
29004967 10 14562528466228062774
5460574 1 9223230749816451851

>  <PUBCHEM_SHAPE_MULTIPOLES>  (1) 
134.09
5.69
0.9
0.59
0
0.08
0
-1.88
-0.04
0
0
0
0.02
0

>  <PUBCHEM_SHAPE_SELFOVERLAP>  (1) 
241.893

>  <PUBCHEM_SHAPE_VOLUME>  (1) 
82.1

>  <PUBCHEM_COORDINATE_TYPE>  (1) 
2
5
10

$$$$
