10996
     RDKit          3D

  7  6  0  0  0  0  0  0  0  0999 V2000
   -1.2349   -0.3670   -0.0071 O   0  0  0  0  0  0  0  0  0  0  0  0
   -3.5083   -0.3330    0.0078 O   0  0  0  0  0  0  0  0  0  0  0  0
   -2.4124    0.4316    0.0095 N   0  0  0  0  0  0  0  0  0  0  0  0
    1.1595   -0.3618   -0.0223 C   0  0  0  0  0  0  0  0  0  0  0  0
    2.4205    0.4975   -0.0046 C   0  0  0  0  0  0  0  0  0  0  0  0
   -0.1016    0.4902   -0.0046 C   0  0  0  0  0  0  0  0  0  0  0  0
    3.6772   -0.3576    0.0213 C   0  0  0  0  0  0  0  0  0  0  0  0
  1  3  1  0
  1  6  1  0
  2  3  2  0
  4  5  1  0
  4  6  1  0
  5  7  1  0
M  END
>  <PUBCHEM_COMPOUND_CID>  (1) 
10996

>  <PUBCHEM_CONFORMER_RMSD>  (1) 
0.6

>  <PUBCHEM_CONFORMER_DIVERSEORDER>  (1) 
1
35
5
14
28
33
7
4
9
31
12
34
21
27
17
23
32
36
22
16
13
11
2
25
6
24
10
20
18
26
19
30
29
15
8
3

>  <PUBCHEM_MMFF94_PARTIAL_CHARGES>  (1) 
4
1 -0.09
2 -0.3
3 0.12
6 0.28

>  <PUBCHEM_EFFECTIVE_ROTOR_COUNT>  (1) 
4

>  <PUBCHEM_PHARMACOPHORE_FEATURES>  (1) 
1
1 7 hydrophobe

>  <PUBCHEM_HEAVY_ATOM_COUNT>  (1) 
7

>  <PUBCHEM_ATOM_DEF_STEREO_COUNT>  (1) 
0

>  <PUBCHEM_ATOM_UDEF_STEREO_COUNT>  (1) 
0

>  <PUBCHEM_BOND_DEF_STEREO_COUNT>  (1) 
0

>  <PUBCHEM_BOND_UDEF_STEREO_COUNT>  (1) 
0

>  <PUBCHEM_ISOTOPIC_ATOM_COUNT>  (1) 
0

>  <PUBCHEM_COMPONENT_COUNT>  (1) 
1

>  <PUBCHEM_CACTVS_TAUTO_COUNT>  (1) 
1

>  <PUBCHEM_CONFORMER_ID>  (1) 
00002AF400000001

>  <PUBCHEM_MMFF94_ENERGY>  (1) 
-0.0565

>  <PUBCHEM_FEATURE_SELFOVERLAP>  (1) 
5.074

>  <PUBCHEM_SHAPE_FINGERPRINT>  (1) 
11062470 55 8646769997470765406
14325111 11 18410856564119399174
14390081 3 18343299266710459040
5460574 1 9223231844832574309

>  <PUBCHEM_SHAPE_MULTIPOLES>  (1) 
127.34
6.14
0.75
0.58
1.25
0.03
0
-0.69
-0.05
-0.12
0
-0.11
0.01
0

>  <PUBCHEM_SHAPE_SELFOVERLAP>  (1) 
217.321

>  <PUBCHEM_SHAPE_VOLUME>  (1) 
86.2

>  <PUBCHEM_COORDINATE_TYPE>  (1) 
2
5
10

$$$$
