11021
     RDKit          3D

 28 32  0  0  1  0  0  0  0  0999 V2000
    0.8846   -2.9359    0.1911 O   0  0  0  0  0  0  0  0  0  0  0  0
   -2.5679   -0.6795    2.3715 O   0  0  0  0  0  0  0  0  0  0  0  0
   -6.8131    1.4617   -0.6884 O   0  0  0  0  0  0  0  0  0  0  0  0
    6.0128    0.9185    0.7377 O   0  0  0  0  0  0  0  0  0  0  0  0
    6.1307    2.6272   -0.7995 O   0  0  0  0  0  0  0  0  0  0  0  0
    0.6402   -1.5765   -0.2051 C   0  0  0  0  0  0  0  0  0  0  0  0
    1.6581   -0.6264    0.4865 C   0  0  0  0  0  0  0  0  0  0  0  0
   -0.8479   -1.2447    0.0927 C   0  0  0  0  0  0  0  0  0  0  0  0
   -1.2049    0.2523   -0.0735 C   0  0  0  0  0  0  0  0  0  0  0  0
    2.9763   -0.9968   -0.2551 C   0  0  0  0  0  0  0  0  0  0  0  0
   -2.7087    0.5538    0.3303 C   0  0  0  0  0  0  0  0  0  0  0  0
    1.2543    0.8514    0.2517 C   0  0  0  0  0  0  0  0  0  0  0  0
    1.0421   -1.4939   -1.6917 C   0  0  0  0  0  0  0  0  0  0  0  0
   -0.1862    1.1443    0.6639 C   0  0  0  0  0  0  0  0  0  0  0  0
    2.5493   -1.2062   -1.7152 C   0  0  0  0  0  0  0  0  0  0  0  0
   -1.7967   -2.1227   -0.7479 C   0  0  0  0  0  0  0  0  0  0  0  0
    1.8059   -0.8931    1.9975 C   0  0  0  0  0  0  0  0  0  0  0  0
   -3.6579   -0.5174   -0.2193 C   0  0  0  0  0  0  0  0  0  0  0  0
   -3.1028    1.9373   -0.2716 C   0  0  0  0  0  0  0  0  0  0  0  0
   -3.2270   -1.6949   -0.7006 C   0  0  0  0  0  0  0  0  0  0  0  0
    4.1156   -0.0380   -0.1147 C   0  0  0  0  0  0  0  0  0  0  0  0
   -2.8832    0.5979    1.8684 C   0  0  0  0  0  0  0  0  0  0  0  0
   -5.1366   -0.2036   -0.2104 C   0  0  0  0  0  0  0  0  0  0  0  0
   -4.5949    2.2582   -0.1914 C   0  0  0  0  0  0  0  0  0  0  0  0
   -5.4299    1.1569   -0.8366 C   0  0  0  0  0  0  0  0  0  0  0  0
    5.1195   -0.1777    0.9597 C   0  0  0  0  0  0  0  0  0  0  0  0
    4.3780    1.0148   -0.8845 C   0  0  0  0  0  0  0  0  0  0  0  0
    5.5905    1.6331   -0.3458 C   0  0  0  0  0  0  0  0  0  0  0  0
  1  6  1  0
  2 22  1  0
  3 25  1  0
  4 26  1  0
  4 28  1  0
  5 28  2  0
  6  7  1  0
  6  8  1  0
  6 13  1  0
  7 10  1  0
  7 12  1  0
  7 17  1  0
  8  9  1  0
  8 16  1  0
  9 11  1  0
  9 14  1  0
 10 15  1  0
 10 21  1  0
 11 18  1  0
 11 19  1  0
 11 22  1  0
 12 14  1  0
 13 15  1  0
 16 20  1  0
 18 20  2  0
 18 23  1  0
 19 24  1  0
 21 26  1  0
 21 27  2  0
 23 25  1  0
 24 25  1  0
 27 28  1  0
M  END
>  <PUBCHEM_COMPOUND_CID>  (1) 
11021

>  <PUBCHEM_CONFORMER_RMSD>  (1) 
0.8

>  <PUBCHEM_CONFORMER_DIVERSEORDER>  (1) 
1
11
26
30
28
14
9
17
22
10
18
19
16
29
24
23
7
27
13
21
12
8
3
15
20
25
4
6
5
2

>  <PUBCHEM_MMFF94_PARTIAL_CHARGES>  (1) 
23
1 -0.68
10 0.14
11 0.14
16 0.14
18 -0.28
2 -0.68
20 -0.29
21 -0.28
22 0.28
23 0.14
25 0.28
26 0.42
27 -0.14
28 0.71
3 -0.68
4 -0.43
47 0.15
5 -0.57
50 0.4
58 0.15
59 0.4
6 0.28
60 0.4

>  <PUBCHEM_EFFECTIVE_ROTOR_COUNT>  (1) 
4.4

>  <PUBCHEM_PHARMACOPHORE_FEATURES>  (1) 
12
1 1 acceptor
1 1 donor
1 2 acceptor
1 2 donor
1 3 acceptor
1 3 donor
1 5 acceptor
5 4 21 26 27 28 rings
5 6 7 10 13 15 rings
6 11 18 19 23 24 25 rings
6 6 7 8 9 12 14 rings
6 8 9 11 16 18 20 rings

>  <PUBCHEM_HEAVY_ATOM_COUNT>  (1) 
28

>  <PUBCHEM_ATOM_DEF_STEREO_COUNT>  (1) 
4

>  <PUBCHEM_ATOM_UDEF_STEREO_COUNT>  (1) 
3

>  <PUBCHEM_BOND_DEF_STEREO_COUNT>  (1) 
0

>  <PUBCHEM_BOND_UDEF_STEREO_COUNT>  (1) 
0

>  <PUBCHEM_ISOTOPIC_ATOM_COUNT>  (1) 
0

>  <PUBCHEM_COMPONENT_COUNT>  (1) 
1

>  <PUBCHEM_CACTVS_TAUTO_COUNT>  (1) 
1

>  <PUBCHEM_CONFORMER_ID>  (1) 
00002B0D00000001

>  <PUBCHEM_MMFF94_ENERGY>  (1) 
85.0575

>  <PUBCHEM_FEATURE_SELFOVERLAP>  (1) 
61.093

>  <PUBCHEM_SHAPE_FINGERPRINT>  (1) 
10 15 18114187453488992897
10366900 7 16630522929909724651
10411042 1 17618782900318283775
10498660 4 18271810090108530237
10675989 125 17689433785450616657
10906281 52 18200887205440776289
11961588 58 18410006628941392399
12011746 2 17418091026936596949
12236239 1 18187077373634361210
12422481 6 16950559939706353364
12596602 18 17676485077042365672
12633257 1 14851897949311071991
12788726 201 17702659935411687545
12969540 114 16486975133210469334
13224815 77 17989207005909704418
13583140 156 17749113330663710304
13631057 29 18059568161555701735
13685833 64 9511460026709841164
13911987 19 18201726166687464285
14251764 30 10375871870437061156
14739800 52 18335125502049921136
14790565 3 18410292510344006812
15183329 4 18130239198864310076
15238133 3 16877951490332165037
15788980 27 18186523189751324082
15961568 22 18408042896785175148
1601671 61 18272647957087961264
16728300 4 9150355084758047744
173720 79 18339912771661657242
17492 54 18130793377856534016
17980427 23 17603870039188754951
18608769 82 18341050805120389435
19784866 240 11527948971551396985
1979834 28 13912596139961071200
200 152 16558460912540388487
20511986 3 18115010970301965709
20715895 44 18336826399077367116
22122407 14 18041007288228883436
221357 26 15410892959449394282
22950370 63 10087642611108461758
23227448 37 18340769333399176173
23503953 91 15719686402005775847
23559900 14 17916590809148413430
23569914 152 15405573298904309941
2838139 119 18338797931359269116
3004659 81 18342174406940192814
3472631 163 18409166619079567396
34797466 226 17703236208100582996
34934 24 18408319977745746227
350125 39 18270965760126647321
4340502 62 17095528357595582251
474 4 17895479236664565300
5104073 3 18189059707289605843
7808743 9 18411976979316276567
8863177 126 8862358947537617117
9981440 41 18260832600714774435

>  <PUBCHEM_SHAPE_MULTIPOLES>  (1) 
546.88
13.42
2.4
1.47
2.83
0.1
-0.57
-9.62
2.42
0.12
0.62
0.13
0.27
-0.16

>  <PUBCHEM_SHAPE_SELFOVERLAP>  (1) 
1190.484

>  <PUBCHEM_SHAPE_VOLUME>  (1) 
295.8

>  <PUBCHEM_COORDINATE_TYPE>  (1) 
2
5
10

$$$$
