11032
     RDKit          3D

 21 21  0  0  0  0  0  0  0  0999 V2000
   -0.5657   -0.1391   -1.5661 S   0  0  0  0  0  0  0  0  0  0  0  0
   -0.8449    1.1375   -2.1976 O   0  0  0  0  0  0  0  0  0  0  0  0
   -0.6164   -1.3537   -2.3590 O   0  0  0  0  0  0  0  0  0  0  0  0
    5.5197   -1.0084    0.9205 O   0  0  0  0  0  0  0  0  0  0  0  0
    5.4909    1.2530    1.1480 O   0  0  0  0  0  0  0  0  0  0  0  0
   -1.5646   -0.3259   -0.1693 N   0  0  0  0  0  0  0  0  0  0  0  0
   -1.3328   -1.5011    0.6982 C   0  0  0  0  0  0  0  0  0  0  0  0
   -1.8838    0.8969    0.6149 C   0  0  0  0  0  0  0  0  0  0  0  0
   -2.6423   -1.9634    1.3282 C   0  0  0  0  0  0  0  0  0  0  0  0
   -3.1905    1.5145    0.1287 C   0  0  0  0  0  0  0  0  0  0  0  0
   -3.6962   -2.3404    0.2843 C   0  0  0  0  0  0  0  0  0  0  0  0
   -3.5804    2.7649    0.9207 C   0  0  0  0  0  0  0  0  0  0  0  0
    1.0581   -0.0357   -0.8668 C   0  0  0  0  0  0  0  0  0  0  0  0
   -5.0108   -2.7345    0.9399 C   0  0  0  0  0  0  0  0  0  0  0  0
   -4.9183    3.3206    0.4575 C   0  0  0  0  0  0  0  0  0  0  0  0
    1.5636    1.2037   -0.5204 C   0  0  0  0  0  0  0  0  0  0  0  0
    1.7861   -1.1964   -0.6824 C   0  0  0  0  0  0  0  0  0  0  0  0
    2.8427    1.2853    0.0301 C   0  0  0  0  0  0  0  0  0  0  0  0
    3.0652   -1.1150   -0.1319 C   0  0  0  0  0  0  0  0  0  0  0  0
    3.5934    0.1259    0.2243 C   0  0  0  0  0  0  0  0  0  0  0  0
    4.9270    0.2110    0.7982 C   0  0  0  0  0  0  0  0  0  0  0  0
  1  2  2  0
  1  3  2  0
  1  6  1  0
  1 13  1  0
  4 21  1  0
  5 21  2  0
  6  7  1  0
  6  8  1  0
  7  9  1  0
  8 10  1  0
  9 11  1  0
 10 12  1  0
 11 14  1  0
 12 15  1  0
 13 16  2  0
 13 17  1  0
 16 18  1  0
 17 19  2  0
 18 20  2  0
 19 20  1  0
 20 21  1  0
M  END
>  <PUBCHEM_COMPOUND_CID>  (1) 
11032

>  <PUBCHEM_CONFORMER_RMSD>  (1) 
0.8

>  <PUBCHEM_CONFORMER_DIVERSEORDER>  (1) 
1
46
82
93
32
44
84
101
19
92
77
38
60
54
64
13
45
53
73
48
36
56
21
89
66
18
5
102
16
55
75
30
29
87
83
51
81
24
90
34
41
57
98
71
100
74
31
63
94
72
15
40
33
96
25
7
99
97
70
95
52
49
22
69
68
4
67
2
50
47
3
59
8
42
39
37
14
11
61
65
27
17
10
28
91
58
23
80
86
85
78
76
9
79
62
35
6
12
20
26
43
88

>  <PUBCHEM_MMFF94_PARTIAL_CHARGES>  (1) 
20
1 1.45
13 -0.01
16 -0.15
17 -0.15
18 -0.15
19 -0.15
2 -0.65
20 0.09
21 0.63
3 -0.65
4 -0.65
40 0.15
41 0.15
42 0.15
43 0.15
44 0.5
5 -0.57
6 -0.85
7 0.36
8 0.36

>  <PUBCHEM_EFFECTIVE_ROTOR_COUNT>  (1) 
9

>  <PUBCHEM_PHARMACOPHORE_FEATURES>  (1) 
8
1 14 hydrophobe
1 15 hydrophobe
1 2 acceptor
1 3 acceptor
1 4 acceptor
1 5 acceptor
3 4 5 21 anion
6 13 16 17 18 19 20 rings

>  <PUBCHEM_HEAVY_ATOM_COUNT>  (1) 
21

>  <PUBCHEM_ATOM_DEF_STEREO_COUNT>  (1) 
0

>  <PUBCHEM_ATOM_UDEF_STEREO_COUNT>  (1) 
0

>  <PUBCHEM_BOND_DEF_STEREO_COUNT>  (1) 
0

>  <PUBCHEM_BOND_UDEF_STEREO_COUNT>  (1) 
0

>  <PUBCHEM_ISOTOPIC_ATOM_COUNT>  (1) 
0

>  <PUBCHEM_COMPONENT_COUNT>  (1) 
1

>  <PUBCHEM_CACTVS_TAUTO_COUNT>  (1) 
1

>  <PUBCHEM_CONFORMER_ID>  (1) 
00002B1800000001

>  <PUBCHEM_MMFF94_ENERGY>  (1) 
27.2169

>  <PUBCHEM_FEATURE_SELFOVERLAP>  (1) 
40.673

>  <PUBCHEM_SHAPE_FINGERPRINT>  (1) 
11036077 4 18260819354734498466
11370993 144 18336825291339379274
12107183 9 18118679912197941138
12403259 118 18412822516975513944
12507560 40 18201727240735094118
12553582 1 15647059252813622458
12633257 1 18114466673560666644
12788726 201 18118986886485112795
12892183 10 18411982481343540394
12930653 34 18413112740505291763
13004483 165 18192713560654382171
13583140 156 17918269857180618459
13675066 3 18131351921384220110
14178000 22 18190182283250697073
14178342 30 18333739000327617703
14251764 30 11386957479020965017
15061688 2 17988079963842429813
15238133 3 18337118847991073988
15420108 30 17826506666206847649
17980427 23 18411423925379313181
21033648 29 17632002096774027880
21065199 12 18342178869020667554
21304303 282 18263632993186366797
21401589 2 18058740087555516649
22182313 1 17631473218548239333
23402539 116 18263075664749491367
23419403 2 17973987738384416941
23503953 91 18186524280747240508
23557571 272 18128283180004326279
23559900 14 18125181362901983878
25147074 1 17750252428809900949
2838139 119 17631157594123839488
3286 77 18188490306210675274
4340502 62 18266465308831936049
5104073 3 18336531773548599904
53917941 68 18263354812307342117
5924683 9 18408323311020273883
9981440 41 17631168589708693137

>  <PUBCHEM_SHAPE_MULTIPOLES>  (1) 
407.56
10.99
3.17
1.54
6.47
0.83
-0.87
1.34
6.1
-6.78
0.98
-0.03
-0.2
0.45

>  <PUBCHEM_SHAPE_SELFOVERLAP>  (1) 
802.486

>  <PUBCHEM_SHAPE_VOLUME>  (1) 
243.4

>  <PUBCHEM_COORDINATE_TYPE>  (1) 
2
5
10

$$$$
