11050
     RDKit          3D

 14 16  0  0  0  0  0  0  0  0999 V2000
   -3.3539    0.0820    0.0001 O   0  0  0  0  0  0  0  0  0  0  0  0
    0.2626    0.0021    0.0000 C   0  0  0  0  0  0  0  0  0  0  0  0
   -1.0314    0.5552   -0.0001 C   0  0  0  0  0  0  0  0  0  0  0  0
    0.4631   -1.3919    0.0000 C   0  0  0  0  0  0  0  0  0  0  0  0
    1.3810    0.8688    0.0000 C   0  0  0  0  0  0  0  0  0  0  0  0
   -2.2076   -0.3486    0.0000 C   0  0  0  0  0  0  0  0  0  0  0  0
   -0.6967   -2.2870    0.0000 C   0  0  0  0  0  0  0  0  0  0  0  0
   -1.2221    1.9397    0.0000 C   0  0  0  0  0  0  0  0  0  0  0  0
    1.7606   -1.9159    0.0000 C   0  0  0  0  0  0  0  0  0  0  0  0
    1.1743    2.2576    0.0000 C   0  0  0  0  0  0  0  0  0  0  0  0
    2.6732    0.3214    0.0000 C   0  0  0  0  0  0  0  0  0  0  0  0
   -1.9462   -1.8096    0.0000 C   0  0  0  0  0  0  0  0  0  0  0  0
   -0.1170    2.7868    0.0000 C   0  0  0  0  0  0  0  0  0  0  0  0
    2.8601   -1.0606    0.0000 C   0  0  0  0  0  0  0  0  0  0  0  0
  1  6  2  0
  2  3  1  0
  2  4  2  0
  2  5  1  0
  3  6  1  0
  3  8  2  0
  4  7  1  0
  4  9  1  0
  5 10  1  0
  5 11  2  0
  6 12  1  0
  7 12  2  0
  8 13  1  0
  9 14  2  0
 10 13  2  0
 11 14  1  0
M  END
>  <PUBCHEM_COMPOUND_CID>  (1) 
11050

>  <PUBCHEM_CONFORMER_RMSD>  (1) 
0.4

>  <PUBCHEM_CONFORMER_DIVERSEORDER>  (1) 
1

>  <PUBCHEM_MMFF94_PARTIAL_CHARGES>  (1) 
20
1 -0.57
10 -0.15
11 -0.15
12 -0.14
13 -0.15
14 -0.15
15 0.15
16 0.15
17 0.15
18 0.15
19 0.15
20 0.15
21 0.15
22 0.15
3 0.09
4 0.03
6 0.47
7 -0.18
8 -0.15
9 -0.15

>  <PUBCHEM_EFFECTIVE_ROTOR_COUNT>  (1) 
0

>  <PUBCHEM_PHARMACOPHORE_FEATURES>  (1) 
4
1 1 acceptor
6 2 3 4 6 7 12 rings
6 2 3 5 8 10 13 rings
6 2 4 5 9 11 14 rings

>  <PUBCHEM_HEAVY_ATOM_COUNT>  (1) 
14

>  <PUBCHEM_ATOM_DEF_STEREO_COUNT>  (1) 
0

>  <PUBCHEM_ATOM_UDEF_STEREO_COUNT>  (1) 
0

>  <PUBCHEM_BOND_DEF_STEREO_COUNT>  (1) 
0

>  <PUBCHEM_BOND_UDEF_STEREO_COUNT>  (1) 
0

>  <PUBCHEM_ISOTOPIC_ATOM_COUNT>  (1) 
0

>  <PUBCHEM_COMPONENT_COUNT>  (1) 
1

>  <PUBCHEM_CACTVS_TAUTO_COUNT>  (1) 
1

>  <PUBCHEM_CONFORMER_ID>  (1) 
00002B2A00000001

>  <PUBCHEM_MMFF94_ENERGY>  (1) 
42.3068

>  <PUBCHEM_FEATURE_SELFOVERLAP>  (1) 
20.371

>  <PUBCHEM_SHAPE_FINGERPRINT>  (1) 
10967382 1 18410856589709835397
11206711 2 18265617567632793508
12382932 28 18339918324474011858
12423570 1 15302773943952738525
12524768 44 18342461447450642759
13140716 1 18266458904486707904
16945 1 18410575097653514822
17990270 104 18193554699401587882
193761 8 17906453581852831591
20510252 161 18127405657908544576
20588541 1 18410858771616596774
21501502 16 18122343750939570415
22802520 49 17482278106427124958
2334 1 17906453581799850208
23402539 116 18270383993489232574
23419403 2 16113375443856368435
23463225 33 18408885165466845034
23552423 10 18048597315488803943
23559900 14 17548718708646687732
241688 4 18410573968087685328
2748010 2 18122624955185486052
2897 32 17904767669807986630
528886 8 18411695521392776122
66348 1 18411138030342638450
7364860 26 18053666059871808432

>  <PUBCHEM_SHAPE_MULTIPOLES>  (1) 
282.24
3.65
3.03
0.61
0.31
0.92
0
-0.97
0
-0.01
0
-0.02
0
0

>  <PUBCHEM_SHAPE_SELFOVERLAP>  (1) 
643.572

>  <PUBCHEM_SHAPE_VOLUME>  (1) 
147.2

>  <PUBCHEM_COORDINATE_TYPE>  (1) 
2
5
10

$$$$
