1105
     RDKit          3D

 30 29  0  0  0  0  0  0  0  0999 V2000
   -0.8176   -1.2475   -1.6189 C   0  0  0  0  0  0  0  0  0  0  0  0
    4.2258   -1.0435    1.6688 C   0  0  0  0  0  0  0  0  0  0  0  0
    2.7689   -0.0574   -2.8236 C   0  0  0  0  0  0  0  0  0  0  0  0
    3.8733   -0.9496   -2.2426 C   0  0  0  0  0  0  0  0  0  0  0  0
   -1.0233   -2.6710   -1.0942 C   0  0  0  0  0  0  0  0  0  0  0  0
    3.0252   -0.9965    2.6209 C   0  0  0  0  0  0  0  0  0  0  0  0
    0.4664   -1.1048   -2.4045 C   0  0  0  0  0  0  0  0  0  0  0  0
    3.9027   -1.5075    0.2605 C   0  0  0  0  0  0  0  0  0  0  0  0
    1.4572   -0.2413   -2.1090 C   0  0  0  0  0  0  0  0  0  0  0  0
    4.1110   -0.6808   -0.7827 C   0  0  0  0  0  0  0  0  0  0  0  0
   -2.5216   -2.6111    0.9744 C   0  0  0  0  0  0  0  0  0  0  0  0
    1.7951    1.2316    2.3522 C   0  0  0  0  0  0  0  0  0  0  0  0
   -3.8697   -2.7052    1.6530 C   0  0  0  0  0  0  0  0  0  0  0  0
    0.6287    2.0692    1.8714 C   0  0  0  0  0  0  0  0  0  0  0  0
   -2.3208   -2.7906   -0.3454 C   0  0  0  0  0  0  0  0  0  0  0  0
    1.9246   -0.0923    2.1379 C   0  0  0  0  0  0  0  0  0  0  0  0
   -4.5737   -1.3481    1.7353 C   0  0  0  0  0  0  0  0  0  0  0  0
    1.0259    3.1989    0.9119 C   0  0  0  0  0  0  0  0  0  0  0  0
    0.6041   -2.0392   -3.5787 C   0  0  0  0  0  0  0  0  0  0  0  0
    3.4090   -2.9231    0.1442 C   0  0  0  0  0  0  0  0  0  0  0  0
   -1.3704   -2.2474    1.8753 C   0  0  0  0  0  0  0  0  0  0  0  0
    2.8312    1.9689    3.1607 C   0  0  0  0  0  0  0  0  0  0  0  0
   -4.8302   -0.7907    0.3631 C   0  0  0  0  0  0  0  0  0  0  0  0
   -0.1556    4.0024    0.4437 C   0  0  0  0  0  0  0  0  0  0  0  0
   -4.3713    0.3645   -0.1545 C   0  0  0  0  0  0  0  0  0  0  0  0
   -0.5325    4.2705   -0.8207 C   0  0  0  0  0  0  0  0  0  0  0  0
   -3.4608    1.3277    0.5527 C   0  0  0  0  0  0  0  0  0  0  0  0
   -4.7478    0.7758   -1.5526 C   0  0  0  0  0  0  0  0  0  0  0  0
    0.2766    3.7532   -1.9806 C   0  0  0  0  0  0  0  0  0  0  0  0
   -1.7307    5.0847   -1.2177 C   0  0  0  0  0  0  0  0  0  0  0  0
  1  5  1  0
  1  7  1  0
  2  6  1  0
  2  8  1  0
  3  4  1  0
  3  9  1  0
  4 10  1  0
  5 15  1  0
  6 16  1  0
  7  9  2  0
  7 19  1  0
  8 10  2  0
  8 20  1  0
 11 13  1  0
 11 15  2  0
 11 21  1  0
 12 14  1  0
 12 16  2  0
 12 22  1  0
 13 17  1  0
 14 18  1  0
 17 23  1  0
 18 24  1  0
 23 25  2  3
 24 26  2  3
 25 27  1  0
 25 28  1  0
 26 29  1  0
 26 30  1  0
M  END
>  <PUBCHEM_COMPOUND_CID>  (1) 
1105

>  <PUBCHEM_CONFORMER_RMSD>  (1) 
1.8

>  <PUBCHEM_CONFORMER_DIVERSEORDER>  (1) 
5
67
108
149
90
26
82
64
79
25
88
13
122
78
1
115
143
6
15
86
95
20
68
114
29
89
74
132
47
71
73
141
11
112
133
144
3
40
23
147
35
50
41
84
45
135
116
10
101
94
126
60
17
104
113
30
120
12
85
140
63
137
98
150
2
91
131
49
106
146
121
138
107
34
38
31
54
119
72
58
32
70
77
127
55
148
81
109
66
36
61
46
123
83
134
96
117
69
142
130
14
9
110
136
139
87
19
44
99
62
97
100
27
92
39
125
105
57
22
93
75
24
52
16
129
33
4
111
145
65
21
51
102
18
42
59
43
103
124
76
118
128
56
7
48
80
8
53
28
37

>  <PUBCHEM_MMFF94_PARTIAL_CHARGES>  (1) 
36
1 0.14
10 -0.29
11 -0.28
12 -0.28
13 0.14
14 0.14
15 -0.29
16 -0.29
17 0.14
18 0.14
19 0.14
2 0.14
20 0.14
21 0.14
22 0.14
23 -0.29
24 -0.29
25 -0.28
26 -0.28
27 0.14
28 0.14
29 0.14
3 0.14
30 0.14
4 0.14
43 0.15
44 0.15
49 0.15
5 0.14
50 0.15
6 0.14
67 0.15
68 0.15
7 -0.28
8 -0.28
9 -0.29

>  <PUBCHEM_EFFECTIVE_ROTOR_COUNT>  (1) 
15

>  <PUBCHEM_PHARMACOPHORE_FEATURES>  (1) 
11
1 19 hydrophobe
1 20 hydrophobe
1 21 hydrophobe
1 22 hydrophobe
3 25 27 28 hydrophobe
3 26 29 30 hydrophobe
4 1 5 7 15 hydrophobe
4 11 13 17 23 hydrophobe
4 12 14 18 24 hydrophobe
4 2 6 8 16 hydrophobe
4 3 4 9 10 hydrophobe

>  <PUBCHEM_HEAVY_ATOM_COUNT>  (1) 
30

>  <PUBCHEM_ATOM_DEF_STEREO_COUNT>  (1) 
0

>  <PUBCHEM_ATOM_UDEF_STEREO_COUNT>  (1) 
0

>  <PUBCHEM_BOND_DEF_STEREO_COUNT>  (1) 
0

>  <PUBCHEM_BOND_UDEF_STEREO_COUNT>  (1) 
4

>  <PUBCHEM_ISOTOPIC_ATOM_COUNT>  (1) 
0

>  <PUBCHEM_COMPONENT_COUNT>  (1) 
1

>  <PUBCHEM_CACTVS_TAUTO_COUNT>  (1) 
1

>  <PUBCHEM_CONFORMER_ID>  (1) 
0000045100000005

>  <PUBCHEM_MMFF94_ENERGY>  (1) 
26.3605

>  <PUBCHEM_FEATURE_SELFOVERLAP>  (1) 
55.877

>  <PUBCHEM_SHAPE_FINGERPRINT>  (1) 
11244481 83 18193001645052673706
12156800 1 18120656833941255260
12422481 6 17773010138494681154
12539745 222 17840900411913527782
12788726 201 18188221900782640278
15721738 202 16154007845069648763
17921350 177 18268992166476805393
20600515 1 18337117778195869093
21860390 5 18048589610396577144
3493558 16 17615123283059624067
35225 105 18197216936858985830

>  <PUBCHEM_SHAPE_MULTIPOLES>  (1) 
617.39
8.75
5.76
3.75
4.83
8.14
0.7
-5.27
-2.23
2.4
0.99
-3.12
-0.46
2.51

>  <PUBCHEM_SHAPE_SELFOVERLAP>  (1) 
1176.673

>  <PUBCHEM_SHAPE_VOLUME>  (1) 
375.2

>  <PUBCHEM_COORDINATE_TYPE>  (1) 
2
5
10

$$$$
