11064
     RDKit          3D

 21 24  0  0  1  0  0  0  0  0999 V2000
    1.2295   -0.2763    2.0342 O   0  0  0  0  0  0  0  0  0  0  0  0
   -4.1073   -1.2496    1.1704 O   0  0  0  0  0  0  0  0  0  0  0  0
    5.4068   -0.2033   -0.9378 O   0  0  0  0  0  0  0  0  0  0  0  0
   -1.9902    0.7976   -0.8094 C   0  0  0  0  0  0  0  0  0  0  0  0
   -0.6664    0.8508    0.0093 C   0  0  0  0  0  0  0  0  0  0  0  0
   -2.7547   -0.5492   -0.7338 C   0  0  0  0  0  0  0  0  0  0  0  0
    0.2004   -0.4293   -0.1667 C   0  0  0  0  0  0  0  0  0  0  0  0
   -1.8621   -1.7881   -0.6785 C   0  0  0  0  0  0  0  0  0  0  0  0
   -0.6554   -1.6428    0.2377 C   0  0  0  0  0  0  0  0  0  0  0  0
   -3.0175    1.8109   -0.2633 C   0  0  0  0  0  0  0  0  0  0  0  0
    1.5425   -0.3337    0.6354 C   0  0  0  0  0  0  0  0  0  0  0  0
    0.1460    2.1090   -0.3685 C   0  0  0  0  0  0  0  0  0  0  0  0
   -3.5781   -0.3472    0.5328 C   0  0  0  0  0  0  0  0  0  0  0  0
   -3.6899    1.1079    0.9128 C   0  0  0  0  0  0  0  0  0  0  0  0
    1.4461    2.2119    0.4223 C   0  0  0  0  0  0  0  0  0  0  0  0
   -3.7517   -0.7077   -1.8970 C   0  0  0  0  0  0  0  0  0  0  0  0
    2.2529    0.9540    0.2516 C   0  0  0  0  0  0  0  0  0  0  0  0
    2.4184   -1.5491    0.4312 C   0  0  0  0  0  0  0  0  0  0  0  0
    3.4955    0.9961   -0.2522 C   0  0  0  0  0  0  0  0  0  0  0  0
    3.6576   -1.5213   -0.0697 C   0  0  0  0  0  0  0  0  0  0  0  0
    4.2777   -0.2407   -0.4607 C   0  0  0  0  0  0  0  0  0  0  0  0
  1 11  1  0
  2 13  2  0
  3 21  2  0
  4  5  1  0
  4  6  1  0
  4 10  1  0
  5  7  1  0
  5 12  1  0
  6  8  1  0
  6 13  1  0
  6 16  1  0
  7  9  1  0
  7 11  1  0
  8  9  1  0
 10 14  1  0
 11 17  1  0
 11 18  1  0
 12 15  1  0
 13 14  1  0
 15 17  1  0
 17 19  2  0
 18 20  2  0
 19 21  1  0
 20 21  1  0
M  END
>  <PUBCHEM_COMPOUND_CID>  (1) 
11064

>  <PUBCHEM_CONFORMER_RMSD>  (1) 
0.6

>  <PUBCHEM_CONFORMER_DIVERSEORDER>  (1) 
4
24
15
29
7
26
10
20
28
14
13
23
25
5
21
18
17
8
19
3
27
16
11
2
12
9
6
22
1

>  <PUBCHEM_MMFF94_PARTIAL_CHARGES>  (1) 
17
1 -0.68
11 0.56
13 0.45
14 0.06
15 0.14
17 -0.28
18 -0.29
19 -0.14
2 -0.57
20 -0.14
21 0.54
3 -0.57
40 0.15
41 0.4
42 0.15
43 0.15
6 0.06

>  <PUBCHEM_EFFECTIVE_ROTOR_COUNT>  (1) 
1.2

>  <PUBCHEM_PHARMACOPHORE_FEATURES>  (1) 
8
1 1 acceptor
1 1 donor
1 2 acceptor
1 3 acceptor
5 4 6 10 13 14 rings
6 11 17 18 19 20 21 rings
6 4 5 6 7 8 9 rings
6 5 7 11 12 15 17 rings

>  <PUBCHEM_HEAVY_ATOM_COUNT>  (1) 
21

>  <PUBCHEM_ATOM_DEF_STEREO_COUNT>  (1) 
0

>  <PUBCHEM_ATOM_UDEF_STEREO_COUNT>  (1) 
5

>  <PUBCHEM_BOND_DEF_STEREO_COUNT>  (1) 
0

>  <PUBCHEM_BOND_UDEF_STEREO_COUNT>  (1) 
0

>  <PUBCHEM_ISOTOPIC_ATOM_COUNT>  (1) 
0

>  <PUBCHEM_COMPONENT_COUNT>  (1) 
1

>  <PUBCHEM_CACTVS_TAUTO_COUNT>  (1) 
6

>  <PUBCHEM_CONFORMER_ID>  (1) 
00002B3800000004

>  <PUBCHEM_MMFF94_ENERGY>  (1) 
51.4007

>  <PUBCHEM_FEATURE_SELFOVERLAP>  (1) 
40.811

>  <PUBCHEM_SHAPE_FINGERPRINT>  (1) 
10062212 137 18271519814812505983
10366900 7 17604150419244074163
10498660 4 17022891350609433157
11132069 177 18341037545717388368
11578080 2 17559081394604006033
12011746 2 18334575742104225439
121448 382 16226050023847426384
12236239 1 17846217804378294519
12553582 1 18411130333951213024
12788726 201 17631475422115070640
128620 24 15068627079950168107
13140716 1 18265324015250504321
13221675 6 18335135414359354792
13224815 77 17676482847859412464
13296908 3 18040710359858770379
14004511 7 17847061081961392619
14787075 74 17531823461704861592
14790565 3 17980769233535917192
15196674 1 18409730634311322332
15209289 33 18333456455961839051
15309172 13 18412543219504829319
15375462 189 18334292028964283024
15536298 74 18272082842439504264
16752209 62 18267001921845210733
16945 1 18265883825714590201
17804303 29 18343024397520063053
17980427 23 9871457734235280954
18186145 218 17775277266234346178
19591789 44 18408606954697343730
19862831 5 18261660541369876877
200 152 18343024376572428986
20871999 31 18408882919299065884
21029758 27 18333457551141732101
21267235 1 18411146843700231254
23175994 123 16917073248020105568
2334 1 18409438181234835149
23402539 116 18412542077206799292
23493267 7 17823130138542600873
23559900 14 17987501753543119320
23566358 27 18046921651362865621
2748010 2 18263905718339100013
296302 2 14333402363766415056
312423 11 17702942690050872333
3323516 105 18335704966094280480
350125 39 18411985750240992033
474 4 17386576889687411788
5104073 3 18409164381623068264
633830 44 17603872143923091900
7364860 26 18127964407299930840
74978 22 18341885342170343983
7832392 63 18413385458017039304
90525 40 18273491256588891135
9709674 26 18197208359355439718
9981440 41 17259053520748009856

>  <PUBCHEM_SHAPE_MULTIPOLES>  (1) 
414.56
8.49
2.1
1.21
3.51
0.46
0.06
-1.34
-1.29
-0.16
0
-0.72
-0.21
-0.22

>  <PUBCHEM_SHAPE_SELFOVERLAP>  (1) 
905.845

>  <PUBCHEM_SHAPE_VOLUME>  (1) 
222.5

>  <PUBCHEM_COORDINATE_TYPE>  (1) 
2
5
10

$$$$
