11066
     RDKit          3D

 26 30  0  0  0  0  0  0  0  0999 V2000
   -6.2515   -0.0162   -0.1130 O   0  0  0  0  0  0  0  0  0  0  0  0
   -5.1297   -2.1008    0.3321 O   0  0  0  0  0  0  0  0  0  0  0  0
    2.0577    2.3685    0.5007 O   0  0  0  0  0  0  0  0  0  0  0  0
    4.3252    1.2560    0.2647 O   0  0  0  0  0  0  0  0  0  0  0  0
    5.6979   -1.0561   -0.1945 O   0  0  0  0  0  0  0  0  0  0  0  0
    0.0425    1.2192    0.2261 N   0  0  0  0  0  0  0  0  0  0  0  0
   -0.7549    2.4261    0.4702 C   0  0  0  0  0  0  0  0  0  0  0  0
   -1.9894    2.4868   -0.4178 C   0  0  0  0  0  0  0  0  0  0  0  0
   -0.6218    0.0037    0.0144 C   0  0  0  0  0  0  0  0  0  0  0  0
   -2.7954    1.2307   -0.2268 C   0  0  0  0  0  0  0  0  0  0  0  0
   -2.1157    0.0020   -0.0028 C   0  0  0  0  0  0  0  0  0  0  0  0
    1.4445    1.3273    0.2734 C   0  0  0  0  0  0  0  0  0  0  0  0
    0.0759   -1.1240   -0.2137 C   0  0  0  0  0  0  0  0  0  0  0  0
    2.2181    0.0857    0.0287 C   0  0  0  0  0  0  0  0  0  0  0  0
    1.5362   -1.1097   -0.2112 C   0  0  0  0  0  0  0  0  0  0  0  0
   -4.1970    1.2856   -0.2935 C   0  0  0  0  0  0  0  0  0  0  0  0
   -2.8791   -1.1610    0.2119 C   0  0  0  0  0  0  0  0  0  0  0  0
   -4.8977    0.1172   -0.0963 C   0  0  0  0  0  0  0  0  0  0  0  0
   -4.2573   -1.0703    0.1553 C   0  0  0  0  0  0  0  0  0  0  0  0
    3.6178    0.1122    0.0362 C   0  0  0  0  0  0  0  0  0  0  0  0
    2.2649   -2.2821   -0.4450 C   0  0  0  0  0  0  0  0  0  0  0  0
    4.3350   -1.0608   -0.1978 C   0  0  0  0  0  0  0  0  0  0  0  0
    3.6602   -2.2561   -0.4381 C   0  0  0  0  0  0  0  0  0  0  0  0
   -6.3919   -1.4257    0.1574 C   0  0  0  0  0  0  0  0  0  0  0  0
    4.6622    2.0455   -0.8731 C   0  0  0  0  0  0  0  0  0  0  0  0
    6.3432   -1.3037    1.0528 C   0  0  0  0  0  0  0  0  0  0  0  0
  1 18  1  0
  1 24  1  0
  2 19  1  0
  2 24  1  0
  3 12  2  0
  4 20  1  0
  4 25  1  0
  5 22  1  0
  5 26  1  0
  6  7  1  0
  6  9  1  0
  6 12  1  0
  7  8  1  0
  8 10  1  0
  9 11  1  0
  9 13  2  0
 10 11  2  0
 10 16  1  0
 11 17  1  0
 12 14  1  0
 13 15  1  0
 14 15  2  0
 14 20  1  0
 15 21  1  0
 16 18  2  0
 17 19  2  0
 18 19  1  0
 20 22  2  0
 21 23  2  0
 22 23  1  0
M  END
>  <PUBCHEM_COMPOUND_CID>  (1) 
11066

>  <PUBCHEM_CONFORMER_RMSD>  (1) 
0.6

>  <PUBCHEM_CONFORMER_DIVERSEORDER>  (1) 
1
2

>  <PUBCHEM_MMFF94_PARTIAL_CHARGES>  (1) 
31
1 -0.36
10 -0.14
11 0.03
12 0.54
13 -0.18
14 0.09
15 0.03
16 -0.15
17 -0.15
18 0.08
19 0.08
2 -0.36
20 0.08
21 -0.15
22 0.08
23 -0.15
24 0.56
25 0.28
26 0.28
3 -0.57
31 0.15
32 0.15
33 0.15
34 0.15
35 0.15
4 -0.36
5 -0.36
6 -0.47
7 0.3
8 0.14
9 0.08

>  <PUBCHEM_EFFECTIVE_ROTOR_COUNT>  (1) 
3

>  <PUBCHEM_PHARMACOPHORE_FEATURES>  (1) 
10
1 1 acceptor
1 2 acceptor
1 3 acceptor
1 4 acceptor
1 5 acceptor
5 1 2 18 19 24 rings
6 10 11 16 17 18 19 rings
6 14 15 20 21 22 23 rings
6 6 7 8 9 10 11 rings
6 6 9 12 13 14 15 rings

>  <PUBCHEM_HEAVY_ATOM_COUNT>  (1) 
26

>  <PUBCHEM_ATOM_DEF_STEREO_COUNT>  (1) 
0

>  <PUBCHEM_ATOM_UDEF_STEREO_COUNT>  (1) 
0

>  <PUBCHEM_BOND_DEF_STEREO_COUNT>  (1) 
0

>  <PUBCHEM_BOND_UDEF_STEREO_COUNT>  (1) 
0

>  <PUBCHEM_ISOTOPIC_ATOM_COUNT>  (1) 
0

>  <PUBCHEM_COMPONENT_COUNT>  (1) 
1

>  <PUBCHEM_CACTVS_TAUTO_COUNT>  (1) 
1

>  <PUBCHEM_CONFORMER_ID>  (1) 
00002B3A00000001

>  <PUBCHEM_MMFF94_ENERGY>  (1) 
100.5844

>  <PUBCHEM_FEATURE_SELFOVERLAP>  (1) 
50.999

>  <PUBCHEM_SHAPE_FINGERPRINT>  (1) 
10 15 18341882010193750682
10835480 77 18409721864178800757
11578080 2 13624966199925662348
11719270 70 18341608205501602998
11963148 33 18192708062532611411
12107183 9 17617942435067293963
12166972 35 17822014211486665956
12236239 1 17821729399462654006
12516196 113 18202281403306552227
12788726 201 17489602142284475097
13140716 1 18054498373336914394
13402501 40 18410856568541369827
13544653 18 18336554880108719665
13685833 64 18408890663737335483
13782708 43 17822008683726891418
13862211 1 18411416211058639402
14341114 176 18410862074852596799
14787075 74 18335703879161657915
15196674 1 18411138030474754117
15352361 1 18411420605332143287
15537594 2 18060138790445859717
15927050 60 17623569061727691780
15961568 22 17676492795521408860
17349148 13 18040440970909500622
17492 89 18196372520361065606
17844677 252 18409174289875489357
1813 80 17530966895297985517
18681886 176 18411416203465379778
200 152 18059856164760817585
20028762 73 18272650151648224494
21033648 29 17202179855481075403
21033650 10 16660919968568959541
21236236 1 18341895139618818457
21267235 1 18341619187716758462
21279426 13 18337670815844533621
21315763 129 18334856082914398228
21792934 111 18342165657849172777
221490 88 18411421700037217801
22149856 69 18341908406624733137
22393880 68 18114454553183718549
23402539 116 18333727996668748327
23522609 53 18123782896055765961
23559900 14 18339071601715524137
239999 70 18343306942487222582
3004659 81 18260267443342652562
329604 57 18410015424907924428
335352 9 18411980247680686189
350125 39 18411419505952546796
3886686 26 16679195815013217058
4073 2 18114750429565886587
4214541 1 18410575050862672149
463206 1 18269553995591845447
465052 167 18272656765612276526
5104073 3 18271241625422506385
5283173 99 18187922820925257781
59755656 215 18410296938518306942
7495541 125 18201717375094884616
9709674 26 18335706087160073987

>  <PUBCHEM_SHAPE_MULTIPOLES>  (1) 
500.74
14.33
2.71
0.74
3.68
0.71
-0.01
-6
-0.77
-0.72
0.1
-0.45
0.02
0.15

>  <PUBCHEM_SHAPE_SELFOVERLAP>  (1) 
1134.004

>  <PUBCHEM_SHAPE_VOLUME>  (1) 
261.4

>  <PUBCHEM_COORDINATE_TYPE>  (1) 
2
5
10

$$$$
