11061
     RDKit          3D

 23 24  0  0  0  0  0  0  0  0999 V2000
    1.2185    0.3865   -0.9846 S   0  0  0  0  0  0  0  0  0  0  0  0
    0.1095   -0.8724    1.0504 O   0  0  0  0  0  0  0  0  0  0  0  0
    5.0878   -0.0633    0.1710 N   0  0  0  0  0  0  0  0  0  0  0  0
    3.9442    0.3338   -0.6497 C   0  0  0  0  0  0  0  0  0  0  0  0
   -1.4876   -0.0280   -0.5886 C   0  0  0  0  0  0  0  0  0  0  0  0
    5.0984   -1.5126    0.3658 C   0  0  0  0  0  0  0  0  0  0  0  0
    6.3378    0.3786   -0.4464 C   0  0  0  0  0  0  0  0  0  0  0  0
    2.6485   -0.0999    0.0242 C   0  0  0  0  0  0  0  0  0  0  0  0
   -2.4401   -1.1887   -0.3196 C   0  0  0  0  0  0  0  0  0  0  0  0
   -2.0816    1.3201   -0.1977 C   0  0  0  0  0  0  0  0  0  0  0  0
   -0.0981   -0.2744    0.0011 C   0  0  0  0  0  0  0  0  0  0  0  0
    6.2455   -1.9370    1.2670 C   0  0  0  0  0  0  0  0  0  0  0  0
    6.3444    1.8832   -0.6566 C   0  0  0  0  0  0  0  0  0  0  0  0
   -2.5085   -2.2167   -1.2352 C   0  0  0  0  0  0  0  0  0  0  0  0
   -2.9486    1.9429   -1.0705 C   0  0  0  0  0  0  0  0  0  0  0  0
   -3.2000   -1.1709    0.8301 C   0  0  0  0  0  0  0  0  0  0  0  0
   -1.7333    1.8734    1.0164 C   0  0  0  0  0  0  0  0  0  0  0  0
   -3.3793   -3.2782   -0.9894 C   0  0  0  0  0  0  0  0  0  0  0  0
   -3.4925    3.1765   -0.7129 C   0  0  0  0  0  0  0  0  0  0  0  0
   -4.0707   -2.2326    1.0759 C   0  0  0  0  0  0  0  0  0  0  0  0
   -2.2773    3.1070    1.3740 C   0  0  0  0  0  0  0  0  0  0  0  0
   -4.1602   -3.2863    0.1661 C   0  0  0  0  0  0  0  0  0  0  0  0
   -3.1568    3.7586    0.5094 C   0  0  0  0  0  0  0  0  0  0  0  0
  1  8  1  0
  1 11  1  0
  2 11  2  0
  3  4  1  0
  3  6  1  0
  3  7  1  0
  4  8  1  0
  5  9  1  0
  5 10  1  0
  5 11  1  0
  6 12  1  0
  7 13  1  0
  9 14  2  0
  9 16  1  0
 10 15  2  0
 10 17  1  0
 14 18  1  0
 15 19  1  0
 16 20  2  0
 17 21  2  0
 18 22  2  0
 19 23  2  0
 20 22  1  0
 21 23  1  0
M  END
>  <PUBCHEM_COMPOUND_CID>  (1) 
11061

>  <PUBCHEM_CONFORMER_RMSD>  (1) 
1

>  <PUBCHEM_CONFORMER_DIVERSEORDER>  (1) 
1
70
54
43
85
56
82
34
50
100
62
46
99
89
29
55
37
38
51
80
68
84
83
20
63
8
26
36
93
30
47
76
24
10
35
28
4
42
72
101
86
61
53
67
59
95
91
60
65
102
87
94
16
78
88
98
97
27
19
58
74
17
12
64
15
49
22
81
3
2
39
5
32
77
6
44
41
31
33
79
96
90
7
40
13
48
18
69
25
14
52
23
57
11
71
73
21
66
75
9
45
92

>  <PUBCHEM_MMFF94_PARTIAL_CHARGES>  (1) 
31
1 -0.37
10 -0.14
11 0.65
14 -0.15
15 -0.15
16 -0.15
17 -0.15
18 -0.15
19 -0.15
2 -0.57
20 -0.15
21 -0.15
22 -0.15
23 -0.15
3 -0.81
39 0.15
4 0.27
40 0.15
41 0.15
42 0.15
43 0.15
44 0.15
45 0.15
46 0.15
47 0.15
48 0.15
5 0.35
6 0.27
7 0.27
8 0.23
9 -0.14

>  <PUBCHEM_EFFECTIVE_ROTOR_COUNT>  (1) 
9

>  <PUBCHEM_PHARMACOPHORE_FEATURES>  (1) 
3
1 3 cation
6 10 15 17 19 21 23 rings
6 9 14 16 18 20 22 rings

>  <PUBCHEM_HEAVY_ATOM_COUNT>  (1) 
23

>  <PUBCHEM_ATOM_DEF_STEREO_COUNT>  (1) 
0

>  <PUBCHEM_ATOM_UDEF_STEREO_COUNT>  (1) 
0

>  <PUBCHEM_BOND_DEF_STEREO_COUNT>  (1) 
0

>  <PUBCHEM_BOND_UDEF_STEREO_COUNT>  (1) 
0

>  <PUBCHEM_ISOTOPIC_ATOM_COUNT>  (1) 
0

>  <PUBCHEM_COMPONENT_COUNT>  (1) 
1

>  <PUBCHEM_CACTVS_TAUTO_COUNT>  (1) 
1

>  <PUBCHEM_CONFORMER_ID>  (1) 
00002B3500000001

>  <PUBCHEM_MMFF94_ENERGY>  (1) 
56.7519

>  <PUBCHEM_FEATURE_SELFOVERLAP>  (1) 
15.223

>  <PUBCHEM_SHAPE_FINGERPRINT>  (1) 
10319688 45 18127123297726206375
10595046 47 18334858359795418428
10912923 1 18186237325882337904
11056379 131 18341622533264180310
11101153 10 18118974821959655500
11405975 8 18337107857343109162
11545043 162 18272925008607092650
12107183 9 18047749296462375330
12788726 201 18336540620343102298
12969540 37 17184184488404802255
13073987 5 18335137605731607706
13167823 11 18335417959548248346
13583140 156 17631999885129815250
14118638 360 18333732451372598214
14347332 77 18338514243983329098
14713325 29 18341901770457193879
14844126 61 18412258445930146459
16992779 147 16615633055452602433
17844677 252 18411143554498899268
1813 80 18054807336247030239
20101258 96 18340492273854996065
21304303 172 18129952290738346843
21426921 1 18411982472521322005
22182313 1 17631750274151380158
23081809 10 17821732733132476148
23557571 272 18273216395603392333
23559900 14 18337659931812096245
23598288 3 18341606005987438575
268830 7 13398629433999541054
283562 15 18334575776158567523
4409770 3 18410851054425412535
497634 4 18114178644632219726
5104073 3 18335133169019945848
5219985 9 18268433623798458079
5924683 9 18408040710556364046
59755656 520 18263916645252840141
9981440 41 17630317550312751727

>  <PUBCHEM_SHAPE_MULTIPOLES>  (1) 
466.33
13.97
4.49
1.25
32.57
1.23
0.11
-3.05
0.78
-8.01
0.38
-0.38
-0.01
-1.6

>  <PUBCHEM_SHAPE_SELFOVERLAP>  (1) 
952.605

>  <PUBCHEM_SHAPE_VOLUME>  (1) 
271.5

>  <PUBCHEM_COORDINATE_TYPE>  (1) 
2
5
10

$$$$
