11071
     RDKit          3D

 14 14  0  0  0  0  0  0  0  0999 V2000
    0.0488   -2.1372    0.6735 O   0  0  0  0  0  0  0  0  0  0  0  0
    3.3865    0.8145   -0.6715 O   0  0  0  0  0  0  0  0  0  0  0  0
   -0.4170    0.1357    0.5197 N   0  0  0  0  0  0  0  0  0  0  0  0
    1.7531   -0.7125    0.0135 N   0  0  0  0  0  0  0  0  0  0  0  0
   -0.8381    2.5289    0.3362 N   0  0  0  0  0  0  0  0  0  0  0  0
   -1.8046   -0.0728    0.9412 C   0  0  0  0  0  0  0  0  0  0  0  0
    0.0009    1.4404    0.2338 C   0  0  0  0  0  0  0  0  0  0  0  0
    0.4283   -0.9881    0.4229 C   0  0  0  0  0  0  0  0  0  0  0  0
   -2.6702   -0.3177   -0.2618 C   0  0  0  0  0  0  0  0  0  0  0  0
    1.2691    1.6486   -0.1580 C   0  0  0  0  0  0  0  0  0  0  0  0
    2.2446    0.5527   -0.2991 C   0  0  0  0  0  0  0  0  0  0  0  0
    2.6575   -1.8524   -0.0970 C   0  0  0  0  0  0  0  0  0  0  0  0
   -2.3665   -1.5365   -1.0862 C   0  0  0  0  0  0  0  0  0  0  0  0
   -3.6924    0.4964   -0.5669 C   0  0  0  0  0  0  0  0  0  0  0  0
  1  8  2  0
  2 11  2  0
  3  6  1  0
  3  7  1  0
  3  8  1  0
  4  8  1  0
  4 11  1  0
  4 12  1  0
  5  7  1  0
  6  9  1  0
  7 10  2  0
  9 13  1  0
  9 14  2  0
 10 11  1  0
M  END
>  <PUBCHEM_COMPOUND_CID>  (1) 
11071

>  <PUBCHEM_CONFORMER_RMSD>  (1) 
0.6

>  <PUBCHEM_CONFORMER_DIVERSEORDER>  (1) 
1
5
4
3
2

>  <PUBCHEM_MMFF94_PARTIAL_CHARGES>  (1) 
19
1 -0.57
10 -0.14
11 0.62
12 0.3
13 0.14
14 -0.3
17 0.15
2 -0.57
24 0.4
25 0.4
26 0.15
27 0.15
3 -0.47
4 -0.42
5 -0.9
6 0.44
7 0.21
8 0.69
9 -0.28

>  <PUBCHEM_EFFECTIVE_ROTOR_COUNT>  (1) 
2

>  <PUBCHEM_PHARMACOPHORE_FEATURES>  (1) 
5
1 1 acceptor
1 2 acceptor
1 5 cation
1 5 donor
6 3 4 7 8 10 11 rings

>  <PUBCHEM_HEAVY_ATOM_COUNT>  (1) 
14

>  <PUBCHEM_ATOM_DEF_STEREO_COUNT>  (1) 
0

>  <PUBCHEM_ATOM_UDEF_STEREO_COUNT>  (1) 
0

>  <PUBCHEM_BOND_DEF_STEREO_COUNT>  (1) 
0

>  <PUBCHEM_BOND_UDEF_STEREO_COUNT>  (1) 
0

>  <PUBCHEM_ISOTOPIC_ATOM_COUNT>  (1) 
0

>  <PUBCHEM_COMPONENT_COUNT>  (1) 
1

>  <PUBCHEM_CACTVS_TAUTO_COUNT>  (1) 
3

>  <PUBCHEM_CONFORMER_ID>  (1) 
00002B3F00000001

>  <PUBCHEM_MMFF94_ENERGY>  (1) 
31.2977

>  <PUBCHEM_FEATURE_SELFOVERLAP>  (1) 
25.371

>  <PUBCHEM_SHAPE_FINGERPRINT>  (1) 
11031198 65 18186804686297732311
11206711 2 18263374615494254252
11401426 45 18411694422308474536
11471102 20 18335136467132848437
12423570 1 8401454487753596755
14128692 85 17916583296785719463
14576447 43 18200301264406373391
14617773 55 18129672876312145472
14993402 34 18131349713486226133
15775835 57 18409167740171422695
16945 1 18337684108414860680
17775402 16 18407757045083126293
18186145 218 17749385932259099103
18619055 16 18412257316226763695
193761 8 17976541602815415208
20201158 50 18335139816700852644
21501502 16 18267309724887277072
23388829 49 18191005829912234994
23402539 116 18411411839419988932
23402655 69 18337380579234753045
23419403 2 17034659355142742560
23552423 10 18191026707373330938
23559900 14 18196667387879157860
25 1 18259981570240367955
2748010 2 17762071225705612752
353137 74 18335981974046715777
528886 8 18409164441531005185
53812654 25 18200864132691943162
63268167 104 18411983576412215619

>  <PUBCHEM_SHAPE_MULTIPOLES>  (1) 
261.43
4.88
2.25
0.88
1.01
0.2
0.02
-0.46
1.5
-0.52
-0.07
0.3
-0.14
-0.43

>  <PUBCHEM_SHAPE_SELFOVERLAP>  (1) 
534.026

>  <PUBCHEM_SHAPE_VOLUME>  (1) 
150.5

>  <PUBCHEM_COORDINATE_TYPE>  (1) 
2
5
10

$$$$
