11073
     RDKit          3D

 21 22  0  0  0  0  0  0  0  0999 V2000
   -0.9503   -0.4301    0.2568 O   0  0  0  0  0  0  0  0  0  0  0  0
   -0.2245   -0.0209    2.4027 O   0  0  0  0  0  0  0  0  0  0  0  0
   -4.6008   -0.1398   -0.1848 N   0  0  0  0  0  0  0  0  0  0  0  0
    5.1355   -1.6412   -0.7716 N   0  0  0  0  0  0  0  0  0  0  0  0
   -3.2096   -0.3613   -0.5502 C   0  0  0  0  0  0  0  0  0  0  0  0
   -5.4791   -0.3489   -1.3385 C   0  0  0  0  0  0  0  0  0  0  0  0
   -4.7867    1.2097    0.3538 C   0  0  0  0  0  0  0  0  0  0  0  0
   -2.3030   -0.1867    0.6578 C   0  0  0  0  0  0  0  0  0  0  0  0
    2.1534    0.4235    0.1551 C   0  0  0  0  0  0  0  0  0  0  0  0
    1.3380   -0.5857    0.6925 C   0  0  0  0  0  0  0  0  0  0  0  0
    3.4344    0.0864   -0.3429 C   0  0  0  0  0  0  0  0  0  0  0  0
   -5.3047   -1.7433   -1.9158 C   0  0  0  0  0  0  0  0  0  0  0  0
   -6.2216    1.4288    0.8027 C   0  0  0  0  0  0  0  0  0  0  0  0
    3.8624   -1.2502   -0.2887 C   0  0  0  0  0  0  0  0  0  0  0  0
    0.0056   -0.3158    1.2259 C   0  0  0  0  0  0  0  0  0  0  0  0
    1.7794   -1.9084    0.7384 C   0  0  0  0  0  0  0  0  0  0  0  0
    1.7254    1.7601    0.1010 C   0  0  0  0  0  0  0  0  0  0  0  0
    3.0392   -2.2400    0.2487 C   0  0  0  0  0  0  0  0  0  0  0  0
    4.2498    1.0956   -0.8804 C   0  0  0  0  0  0  0  0  0  0  0  0
    2.5487    2.7499   -0.4365 C   0  0  0  0  0  0  0  0  0  0  0  0
    3.8084    2.4184   -0.9261 C   0  0  0  0  0  0  0  0  0  0  0  0
  1  8  1  0
  1 15  1  0
  2 15  2  0
  3  5  1  0
  3  6  1  0
  3  7  1  0
  4 14  1  0
  5  8  1  0
  6 12  1  0
  7 13  1  0
  9 10  2  0
  9 11  1  0
  9 17  1  0
 10 15  1  0
 10 16  1  0
 11 14  2  0
 11 19  1  0
 14 18  1  0
 16 18  2  0
 17 20  2  0
 19 21  2  0
 20 21  1  0
M  END
>  <PUBCHEM_COMPOUND_CID>  (1) 
11073

>  <PUBCHEM_CONFORMER_RMSD>  (1) 
0.8

>  <PUBCHEM_CONFORMER_DIVERSEORDER>  (1) 
1
91
95
31
41
43
40
12
82
15
103
25
7
60
72
37
76
4
18
100
65
42
74
107
34
22
63
57
88
50
117
113
24
5
106
98
23
116
38
104
62
35
28
2
55
10
66
84
13
99
47
89
53
105
96
14
48
56
52
29
51
108
83
26
8
81
6
33
61
49
90
54
94
87
64
44
39
59
46
92
17
16
97
21
121
30
101
77
19
78
3
120
70
69
73
85
109
9
67
58
75
80
11
68
102
123
27
115
86
112
110
79
114
119
20
32
45
36
124
111
93
118
122
71

>  <PUBCHEM_MMFF94_PARTIAL_CHARGES>  (1) 
25
1 -0.43
10 0.09
14 0.1
15 0.63
16 -0.15
17 -0.15
18 -0.15
19 -0.15
2 -0.57
20 -0.15
21 -0.15
3 -0.81
36 0.15
37 0.15
38 0.15
39 0.15
4 -0.9
40 0.15
41 0.15
42 0.4
43 0.4
5 0.27
6 0.27
7 0.27
8 0.28

>  <PUBCHEM_EFFECTIVE_ROTOR_COUNT>  (1) 
7

>  <PUBCHEM_PHARMACOPHORE_FEATURES>  (1) 
6
1 2 acceptor
1 3 cation
1 4 cation
1 4 donor
6 9 10 11 14 16 18 rings
6 9 11 17 19 20 21 rings

>  <PUBCHEM_HEAVY_ATOM_COUNT>  (1) 
21

>  <PUBCHEM_ATOM_DEF_STEREO_COUNT>  (1) 
0

>  <PUBCHEM_ATOM_UDEF_STEREO_COUNT>  (1) 
0

>  <PUBCHEM_BOND_DEF_STEREO_COUNT>  (1) 
0

>  <PUBCHEM_BOND_UDEF_STEREO_COUNT>  (1) 
0

>  <PUBCHEM_ISOTOPIC_ATOM_COUNT>  (1) 
0

>  <PUBCHEM_COMPONENT_COUNT>  (1) 
1

>  <PUBCHEM_CACTVS_TAUTO_COUNT>  (1) 
2

>  <PUBCHEM_CONFORMER_ID>  (1) 
00002B4100000001

>  <PUBCHEM_MMFF94_ENERGY>  (1) 
69.8313

>  <PUBCHEM_FEATURE_SELFOVERLAP>  (1) 
30.472

>  <PUBCHEM_SHAPE_FINGERPRINT>  (1) 
10498660 4 16515396374690246399
10595046 47 18270678783486767165
10670039 82 15936687056314467934
10693767 8 18271814467678036846
11471102 20 18334299773185949816
11578080 2 17773579552147783184
11796584 16 17275104998864351423
12236239 1 17988641882977092430
12403259 415 16950285105112863865
12616971 3 18341617001694209025
12730499 353 17822019700391495227
12788726 201 17774456983711622193
13167823 11 18343578569056242879
13544653 18 11959734871660245267
14528608 73 18335697286750725807
14863182 85 16702306724309765086
15081414 286 17895199930056197565
15183329 4 18342739585733428925
15250474 111 18272075116073453279
17844677 252 18336275574259259745
18186145 218 17530964691900374691
20612939 158 18408045104176097441
20645477 70 18410016541562751438
21033648 29 16587736530590145389
21503847 285 18187366493705872721
221357 26 18260827055753505629
22289505 5 18187357693027551188
23402655 69 18409733997086072788
23557571 272 14692294976190529899
23559900 14 18408323293898641466
29717793 49 17988649553720001110
3004659 81 18131068199412165678
3009799 131 18114185208001792730
3060560 45 18408039615719882022
338550 245 17704347771179946879
474 4 17895194475447315293
495365 180 18335700598260448064
5281201 14 18261387810941390605
543358 83 18410296886851929778
633830 44 18259982652862387707
7164475 11 18270684147574333440
7471813 234 18201439147403814552
8272917 22 18410581656089902318
960060 61 18272366494864095439

>  <PUBCHEM_SHAPE_MULTIPOLES>  (1) 
410.47
13.62
2.48
1.41
19.66
0.69
-0.13
0.79
5.08
-2.73
0.47
1.27
-0.28
-2.1

>  <PUBCHEM_SHAPE_SELFOVERLAP>  (1) 
861.975

>  <PUBCHEM_SHAPE_VOLUME>  (1) 
234

>  <PUBCHEM_COORDINATE_TYPE>  (1) 
2
5
10

$$$$
