11097
     RDKit          3D

 18 19  0  0  0  0  0  0  0  0999 V2000
    6.0060    0.0018   -0.2317 O   0  0  0  0  0  0  0  0  0  0  0  0
   -5.9801    0.0018    0.3333 O   0  0  0  0  0  0  0  0  0  0  0  0
    0.4461    0.0027    0.4784 C   0  0  0  0  0  0  0  0  0  0  0  0
   -0.4468    0.0027   -0.5605 C   0  0  0  0  0  0  0  0  0  0  0  0
    1.8889    0.0027    0.2947 C   0  0  0  0  0  0  0  0  0  0  0  0
   -1.9093    0.0028   -0.3249 C   0  0  0  0  0  0  0  0  0  0  0  0
    0.0055   -0.0191    1.9312 C   0  0  0  0  0  0  0  0  0  0  0  0
   -0.0805   -0.0176   -2.0227 C   0  0  0  0  0  0  0  0  0  0  0  0
    2.5810    1.2104    0.2068 C   0  0  0  0  0  0  0  0  0  0  0  0
   -2.5715    1.2106   -0.2180 C   0  0  0  0  0  0  0  0  0  0  0  0
    2.5804   -1.2055    0.2059 C   0  0  0  0  0  0  0  0  0  0  0  0
   -2.5710   -1.2055   -0.2177 C   0  0  0  0  0  0  0  0  0  0  0  0
    3.9646    1.2101    0.0298 C   0  0  0  0  0  0  0  0  0  0  0  0
   -3.9486    1.2101    0.0045 C   0  0  0  0  0  0  0  0  0  0  0  0
    3.9639   -1.2059    0.0291 C   0  0  0  0  0  0  0  0  0  0  0  0
   -3.9479   -1.2059    0.0047 C   0  0  0  0  0  0  0  0  0  0  0  0
    4.6561    0.0019   -0.0589 C   0  0  0  0  0  0  0  0  0  0  0  0
   -4.6368    0.0020    0.1159 C   0  0  0  0  0  0  0  0  0  0  0  0
  1 17  1  0
  2 18  1  0
  3  4  2  0
  3  5  1  0
  3  7  1  0
  4  6  1  0
  4  8  1  0
  5  9  2  0
  5 11  1  0
  6 10  2  0
  6 12  1  0
  9 13  1  0
 10 14  1  0
 11 15  2  0
 12 16  2  0
 13 17  2  0
 14 18  2  0
 15 17  1  0
 16 18  1  0
M  END
>  <PUBCHEM_COMPOUND_CID>  (1) 
11097

>  <PUBCHEM_CONFORMER_RMSD>  (1) 
0.6

>  <PUBCHEM_CONFORMER_DIVERSEORDER>  (1) 
1

>  <PUBCHEM_MMFF94_PARTIAL_CHARGES>  (1) 
28
1 -0.53
10 -0.15
11 -0.15
12 -0.15
13 -0.15
14 -0.15
15 -0.15
16 -0.15
17 0.08
18 0.08
2 -0.53
25 0.15
26 0.15
27 0.15
28 0.15
29 0.15
3 -0.17
30 0.15
31 0.15
32 0.15
33 0.45
34 0.45
4 -0.17
5 0.03
6 0.03
7 0.14
8 0.14
9 -0.15

>  <PUBCHEM_EFFECTIVE_ROTOR_COUNT>  (1) 
2

>  <PUBCHEM_PHARMACOPHORE_FEATURES>  (1) 
6
1 1 donor
1 2 donor
1 7 hydrophobe
1 8 hydrophobe
6 5 9 11 13 15 17 rings
6 6 10 12 14 16 18 rings

>  <PUBCHEM_HEAVY_ATOM_COUNT>  (1) 
18

>  <PUBCHEM_ATOM_DEF_STEREO_COUNT>  (1) 
0

>  <PUBCHEM_ATOM_UDEF_STEREO_COUNT>  (1) 
0

>  <PUBCHEM_BOND_DEF_STEREO_COUNT>  (1) 
0

>  <PUBCHEM_BOND_UDEF_STEREO_COUNT>  (1) 
1

>  <PUBCHEM_ISOTOPIC_ATOM_COUNT>  (1) 
0

>  <PUBCHEM_COMPONENT_COUNT>  (1) 
1

>  <PUBCHEM_CACTVS_TAUTO_COUNT>  (1) 
3

>  <PUBCHEM_CONFORMER_ID>  (1) 
00002B5900000001

>  <PUBCHEM_MMFF94_ENERGY>  (1) 
62.2707

>  <PUBCHEM_FEATURE_SELFOVERLAP>  (1) 
30.446

>  <PUBCHEM_SHAPE_FINGERPRINT>  (1) 
11287383 113 18335140916391802666
12107183 9 17690280408886234707
12236239 1 17847062186184647720
124424 183 17489585675706545507
12592029 89 18130792222304849878
128620 24 15646767877494390550
13167823 11 18410571786144390138
13675066 3 17632287982634716974
13760787 19 18272367589748784399
14341114 176 18410860966387245417
15048467 5 18410856563940187537
15788980 27 17489585671005318444
15848702 151 18186801357360487494
16752209 62 16271648884402053218
17834072 33 18410009957177075918
1813 80 16805327660543232262
18186145 218 17894340086308782688
200 152 18273215296445036458
20645477 70 18340769230932358062
21267235 1 18410581681743427562
2297311 6 18341902878490399053
23175994 123 16988847189564591449
23402539 116 16660357078554734222
23402655 69 18336263462113972136
23536379 177 18411419492655987048
23557571 272 18411704253119629653
23559900 14 18411132575713184224
26918003 58 17989488528400074218
34797466 226 18342470265292717596
3545911 37 18410856559661012000
4072396 5 16415197823794652807
42 15 18409167709885072807
4214541 1 18411136918188968233
465052 167 17703793669027576367
474 4 17532095062752660684
4990 188 18187365402778566882
5104073 3 18410571777554086202
542803 24 18410292514475034500
59755656 520 16732983132641186171
7495541 125 17845931948223699315
77779 3 18410855460128168296
8272917 22 18130511833807139702

>  <PUBCHEM_SHAPE_MULTIPOLES>  (1) 
358.69
11.58
1.28
1.12
0.3
0
-0.06
0.02
0.28
0
0
-0.04
-0.01
0

>  <PUBCHEM_SHAPE_SELFOVERLAP>  (1) 
771.71

>  <PUBCHEM_SHAPE_VOLUME>  (1) 
199.3

>  <PUBCHEM_COORDINATE_TYPE>  (1) 
2
5
10

$$$$
