11104
     RDKit          3D

 20 21  0  0  0  0  0  0  0  0999 V2000
    1.1165    0.2034   -1.0011 O   0  0  0  0  0  0  0  0  0  0  0  0
   -1.1155   -0.1993   -1.0135 O   0  0  0  0  0  0  0  0  0  0  0  0
    2.7377   -1.9381   -0.2854 O   0  0  0  0  0  0  0  0  0  0  0  0
   -2.7349    1.9397   -0.2860 O   0  0  0  0  0  0  0  0  0  0  0  0
   -0.0093   -0.0017    1.0317 O   0  0  0  0  0  0  0  0  0  0  0  0
    2.2712    0.4104   -0.3089 C   0  0  0  0  0  0  0  0  0  0  0  0
   -2.2961   -0.4137   -0.2977 C   0  0  0  0  0  0  0  0  0  0  0  0
    3.0844   -0.6645    0.0509 C   0  0  0  0  0  0  0  0  0  0  0  0
   -3.0787    0.6651    0.0500 C   0  0  0  0  0  0  0  0  0  0  0  0
    2.6376    1.7100    0.0412 C   0  0  0  0  0  0  0  0  0  0  0  0
   -2.6300   -1.7088    0.0344 C   0  0  0  0  0  0  0  0  0  0  0  0
    4.2640   -0.4394    0.7606 C   0  0  0  0  0  0  0  0  0  0  0  0
   -4.2544    0.4380    0.7655 C   0  0  0  0  0  0  0  0  0  0  0  0
    3.8172    1.9347    0.7511 C   0  0  0  0  0  0  0  0  0  0  0  0
   -3.8056   -1.9357    0.7499 C   0  0  0  0  0  0  0  0  0  0  0  0
    4.6303    0.8601    1.1108 C   0  0  0  0  0  0  0  0  0  0  0  0
   -4.6178   -0.8624    1.1155 C   0  0  0  0  0  0  0  0  0  0  0  0
   -0.0124   -0.0008   -0.1936 C   0  0  0  0  0  0  0  0  0  0  0  0
    3.2090   -2.4288   -1.5389 C   0  0  0  0  0  0  0  0  0  0  0  0
   -3.2132    2.4318   -1.5363 C   0  0  0  0  0  0  0  0  0  0  0  0
  1  6  1  0
  1 18  1  0
  2  7  1  0
  2 18  1  0
  3  8  1  0
  3 19  1  0
  4  9  1  0
  4 20  1  0
  5 18  2  0
  6  8  2  0
  6 10  1  0
  7  9  2  0
  7 11  1  0
  8 12  1  0
  9 13  1  0
 10 14  2  0
 11 15  2  0
 12 16  2  0
 13 17  2  0
 14 16  1  0
 15 17  1  0
M  END
>  <PUBCHEM_COMPOUND_CID>  (1) 
11104

>  <PUBCHEM_CONFORMER_RMSD>  (1) 
0.8

>  <PUBCHEM_CONFORMER_DIVERSEORDER>  (1) 
2
119
89
98
63
69
36
124
104
40
128
56
78
103
97
107
8
80
45
21
55
70
110
102
54
30
99
52
42
120
73
71
125
4
94
131
135
113
5
20
90
33
49
60
116
51
61
46
37
23
132
58
22
109
66
16
85
133
27
105
39
28
50
38
106
25
88
87
95
48
123
59
115
83
117
111
6
18
26
74
62
100
138
64
91
13
19
75
127
76
43
68
29
41
3
9
129
17
65
96
122
121
86
32
44
112
47
14
134
24
34
126
7
1
79
31
82
11
130
101
137
108
81
84
15
57
92
10
72
136
67
77
35
12
118
114
53
93

>  <PUBCHEM_MMFF94_PARTIAL_CHARGES>  (1) 
28
1 -0.23
10 -0.15
11 -0.15
12 -0.15
13 -0.15
14 -0.15
15 -0.15
16 -0.15
17 -0.15
18 0.87
19 0.28
2 -0.23
20 0.28
21 0.15
22 0.15
23 0.15
24 0.15
25 0.15
26 0.15
27 0.15
28 0.15
3 -0.36
4 -0.36
5 -0.57
6 0.08
7 0.08
8 0.08
9 0.08

>  <PUBCHEM_EFFECTIVE_ROTOR_COUNT>  (1) 
6

>  <PUBCHEM_PHARMACOPHORE_FEATURES>  (1) 
4
1 3 acceptor
1 4 acceptor
6 6 8 10 12 14 16 rings
6 7 9 11 13 15 17 rings

>  <PUBCHEM_HEAVY_ATOM_COUNT>  (1) 
20

>  <PUBCHEM_ATOM_DEF_STEREO_COUNT>  (1) 
0

>  <PUBCHEM_ATOM_UDEF_STEREO_COUNT>  (1) 
0

>  <PUBCHEM_BOND_DEF_STEREO_COUNT>  (1) 
0

>  <PUBCHEM_BOND_UDEF_STEREO_COUNT>  (1) 
0

>  <PUBCHEM_ISOTOPIC_ATOM_COUNT>  (1) 
0

>  <PUBCHEM_COMPONENT_COUNT>  (1) 
1

>  <PUBCHEM_CACTVS_TAUTO_COUNT>  (1) 
1

>  <PUBCHEM_CONFORMER_ID>  (1) 
00002B6000000002

>  <PUBCHEM_MMFF94_ENERGY>  (1) 
87.4832

>  <PUBCHEM_FEATURE_SELFOVERLAP>  (1) 
20.298

>  <PUBCHEM_SHAPE_FINGERPRINT>  (1) 
10646746 165 18334008363644240160
10922523 26 18410012108966227917
1100329 8 16320903414459471116
11370993 144 18271816661872827417
11405975 8 18338517426211191400
11552529 35 17702949287316473623
12403814 3 18271523195516107837
12507560 40 18412262813563330516
12670546 56 18335696157042522963
13583140 156 18342447149488573340
13675066 3 18410573967971581982
14178342 30 17749382629144255862
14289901 80 18338797917629841704
14341114 176 18409171030116566184
14866123 147 16685988588600110066
17349148 13 15719387356265025808
1813 80 17095529517110177647
18186145 218 18272093768603969414
19050596 39 18339080492123454714
200 152 13190332487391468873
20645477 56 18408885114254441029
20645477 70 17775002337062393902
21065198 57 18410573946496745480
21065199 12 18410575088958046344
21065201 7 18040999488288016834
22646028 1 16660359311600020683
22943178 12 18410855425784358382
23402539 116 18262510515914947023
23557571 272 18333452031987476404
23559900 14 18271525274138140074
268830 7 16702582714079962131
2838139 119 16055201147826633273
312423 11 15936417731757889892
3421961 26 18128824054000627630
3545911 37 18342177765050503024
42 15 18333169483263355144
4214541 1 18408038498569195841
5104073 3 18410575058893276058
5924683 9 18270676601665012223
6049 1 18338242574100509469
633830 44 16702031854485826724
9709674 26 18410860983498978098

>  <PUBCHEM_SHAPE_MULTIPOLES>  (1) 
382.24
10.53
2.4
1.24
0.09
0
-0.21
0.01
3.03
0
-0.77
0
0
2.21

>  <PUBCHEM_SHAPE_SELFOVERLAP>  (1) 
815.592

>  <PUBCHEM_SHAPE_VOLUME>  (1) 
209.1

>  <PUBCHEM_COORDINATE_TYPE>  (1) 
2
5
10

$$$$
