11129
     RDKit          3D

 10 11  0  0  1  0  0  0  0  0999 V2000
   -1.4861    0.2164    0.1531 C   0  0  0  0  0  0  0  0  0  0  0  0
   -0.8324   -1.0846   -0.2478 C   0  0  0  0  0  0  0  0  0  0  0  0
   -0.6410    0.1576   -1.0887 C   0  0  0  0  0  0  0  0  0  0  0  0
    0.2965   -1.6226    0.5867 C   0  0  0  0  0  0  0  0  0  0  0  0
    0.7064    0.8216   -1.1455 C   0  0  0  0  0  0  0  0  0  0  0  0
   -1.0039    0.9877    1.3357 C   0  0  0  0  0  0  0  0  0  0  0  0
   -2.9636    0.3117   -0.0363 C   0  0  0  0  0  0  0  0  0  0  0  0
    1.6683   -1.1913    0.0660 C   0  0  0  0  0  0  0  0  0  0  0  0
    1.7089    0.2994   -0.1461 C   0  0  0  0  0  0  0  0  0  0  0  0
    2.5468    1.1040    0.5228 C   0  0  0  0  0  0  0  0  0  0  0  0
  1  2  1  0
  1  3  1  0
  1  6  1  0
  1  7  1  0
  2  3  1  0
  2  4  1  0
  3  5  1  0
  4  8  1  0
  5  9  1  0
  8  9  1  0
  9 10  2  0
M  END
>  <PUBCHEM_COMPOUND_CID>  (1) 
11129

>  <PUBCHEM_CONFORMER_RMSD>  (1) 
0.4

>  <PUBCHEM_CONFORMER_DIVERSEORDER>  (1) 
2
4
1
5
3

>  <PUBCHEM_MMFF94_PARTIAL_CHARGES>  (1) 
14
1 -0.19
10 -0.3
11 0.1
12 0.1
2 -0.19
25 0.15
26 0.15
3 -0.19
4 0.09
5 0.23
6 0.09
7 0.09
8 0.14
9 -0.28

>  <PUBCHEM_EFFECTIVE_ROTOR_COUNT>  (1) 
0.8

>  <PUBCHEM_PHARMACOPHORE_FEATURES>  (1) 
2
3 1 6 7 hydrophobe
7 1 2 3 4 5 8 9 rings

>  <PUBCHEM_HEAVY_ATOM_COUNT>  (1) 
10

>  <PUBCHEM_ATOM_DEF_STEREO_COUNT>  (1) 
0

>  <PUBCHEM_ATOM_UDEF_STEREO_COUNT>  (1) 
2

>  <PUBCHEM_BOND_DEF_STEREO_COUNT>  (1) 
0

>  <PUBCHEM_BOND_UDEF_STEREO_COUNT>  (1) 
0

>  <PUBCHEM_ISOTOPIC_ATOM_COUNT>  (1) 
0

>  <PUBCHEM_COMPONENT_COUNT>  (1) 
1

>  <PUBCHEM_CACTVS_TAUTO_COUNT>  (1) 
1

>  <PUBCHEM_CONFORMER_ID>  (1) 
00002B7900000002

>  <PUBCHEM_MMFF94_ENERGY>  (1) 
26.0484

>  <PUBCHEM_FEATURE_SELFOVERLAP>  (1) 
10.148

>  <PUBCHEM_SHAPE_FINGERPRINT>  (1) 
10857977 72 17312828173313455531
12423570 1 16964009092790930839
13024252 1 13769020863253764864
15557651 10 15267335206509810275
15775835 57 18200324233606629065
16945 1 18262236737007772055
20653085 51 16844751818510128000
21040471 1 18261401095254183366
21922407 69 18059563659743822123
23235685 24 18335136535620249060
2748010 2 17824812356693694310
29004967 10 17530970159045660557
369184 2 18271520991601831400
5084963 1 18335996276134609887

>  <PUBCHEM_SHAPE_MULTIPOLES>  (1) 
205.8
3.2
1.45
1.12
0.46
0.43
-0.01
-0.85
0.34
-0.46
0.25
0.09
-0.27
-0.11

>  <PUBCHEM_SHAPE_SELFOVERLAP>  (1) 
422.003

>  <PUBCHEM_SHAPE_VOLUME>  (1) 
120.5

>  <PUBCHEM_COORDINATE_TYPE>  (1) 
2
5
10

$$$$
