11126
     RDKit          3D

  6  6  0  0  0  0  0  0  0  0999 V2000
   -0.0715    1.4175    0.0000 S   0  0  0  0  0  0  0  0  0  0  0  0
    0.8019   -0.0555   -0.0002 C   0  0  0  0  0  0  0  0  0  0  0  0
   -0.0328   -1.1514    0.0000 C   0  0  0  0  0  0  0  0  0  0  0  0
    2.2809   -0.0249    0.0002 C   0  0  0  0  0  0  0  0  0  0  0  0
   -1.4075   -0.7768    0.0000 C   0  0  0  0  0  0  0  0  0  0  0  0
   -1.5711    0.5910    0.0001 C   0  0  0  0  0  0  0  0  0  0  0  0
  1  2  1  0
  1  6  1  0
  2  3  2  0
  2  4  1  0
  3  5  1  0
  5  6  2  0
M  END
>  <PUBCHEM_COMPOUND_CID>  (1) 
11126

>  <PUBCHEM_CONFORMER_RMSD>  (1) 
0.4

>  <PUBCHEM_CONFORMER_DIVERSEORDER>  (1) 
1

>  <PUBCHEM_MMFF94_PARTIAL_CHARGES>  (1) 
9
1 -0.08
11 0.15
12 0.15
2 -0.14
3 -0.15
4 0.18
5 -0.15
6 -0.11
7 0.15

>  <PUBCHEM_EFFECTIVE_ROTOR_COUNT>  (1) 
0

>  <PUBCHEM_PHARMACOPHORE_FEATURES>  (1) 
1
5 1 2 3 5 6 rings

>  <PUBCHEM_HEAVY_ATOM_COUNT>  (1) 
6

>  <PUBCHEM_ATOM_DEF_STEREO_COUNT>  (1) 
0

>  <PUBCHEM_ATOM_UDEF_STEREO_COUNT>  (1) 
0

>  <PUBCHEM_BOND_DEF_STEREO_COUNT>  (1) 
0

>  <PUBCHEM_BOND_UDEF_STEREO_COUNT>  (1) 
0

>  <PUBCHEM_ISOTOPIC_ATOM_COUNT>  (1) 
0

>  <PUBCHEM_COMPONENT_COUNT>  (1) 
1

>  <PUBCHEM_CACTVS_TAUTO_COUNT>  (1) 
1

>  <PUBCHEM_CONFORMER_ID>  (1) 
00002B7600000001

>  <PUBCHEM_MMFF94_ENERGY>  (1) 
4.0861

>  <PUBCHEM_FEATURE_SELFOVERLAP>  (1) 
5.074

>  <PUBCHEM_SHAPE_FINGERPRINT>  (1) 
16714656 1 18411142419962771324
20096714 4 18410293566747257816
21040471 1 18194402190906714049
23552423 10 18260554377138809702
29004967 10 18336553801565513402

>  <PUBCHEM_SHAPE_MULTIPOLES>  (1) 
127.33
2.3
1.38
0.63
0.93
0.22
0
-0.09
0
-0.26
0
0
0.02
0

>  <PUBCHEM_SHAPE_SELFOVERLAP>  (1) 
243.356

>  <PUBCHEM_SHAPE_VOLUME>  (1) 
80.2

>  <PUBCHEM_COORDINATE_TYPE>  (1) 
2
5
10

$$$$
