11122
     RDKit          3D

  9  9  0  0  0  0  0  0  0  0999 V2000
    2.3010    1.0217    0.0004 O   0  0  0  0  0  0  0  0  0  0  0  0
   -2.7831   -0.5536    0.0001 O   0  0  0  0  0  0  0  0  0  0  0  0
    0.7781   -0.8044    0.0000 C   0  0  0  0  0  0  0  0  0  0  0  0
    1.1347    0.6406    0.0002 C   0  0  0  0  0  0  0  0  0  0  0  0
   -0.5075   -1.1777    0.0002 C   0  0  0  0  0  0  0  0  0  0  0  0
    1.9070   -1.7877   -0.0005 C   0  0  0  0  0  0  0  0  0  0  0  0
   -1.6108   -0.1948    0.0002 C   0  0  0  0  0  0  0  0  0  0  0  0
    0.0284    1.6211   -0.0004 C   0  0  0  0  0  0  0  0  0  0  0  0
   -1.2480    1.2347   -0.0003 C   0  0  0  0  0  0  0  0  0  0  0  0
  1  4  2  0
  2  7  2  0
  3  4  1  0
  3  5  2  0
  3  6  1  0
  4  8  1  0
  5  7  1  0
  7  9  1  0
  8  9  2  0
M  END
>  <PUBCHEM_COMPOUND_CID>  (1) 
11122

>  <PUBCHEM_CONFORMER_RMSD>  (1) 
0.4

>  <PUBCHEM_CONFORMER_DIVERSEORDER>  (1) 
1

>  <PUBCHEM_MMFF94_PARTIAL_CHARGES>  (1) 
12
1 -0.57
10 0.15
14 0.15
15 0.15
2 -0.57
3 -0.12
4 0.54
5 -0.14
6 0.14
7 0.54
8 -0.14
9 -0.14

>  <PUBCHEM_EFFECTIVE_ROTOR_COUNT>  (1) 
0

>  <PUBCHEM_PHARMACOPHORE_FEATURES>  (1) 
3
1 1 acceptor
1 2 acceptor
6 3 4 5 7 8 9 rings

>  <PUBCHEM_HEAVY_ATOM_COUNT>  (1) 
9

>  <PUBCHEM_ATOM_DEF_STEREO_COUNT>  (1) 
0

>  <PUBCHEM_ATOM_UDEF_STEREO_COUNT>  (1) 
0

>  <PUBCHEM_BOND_DEF_STEREO_COUNT>  (1) 
0

>  <PUBCHEM_BOND_UDEF_STEREO_COUNT>  (1) 
0

>  <PUBCHEM_ISOTOPIC_ATOM_COUNT>  (1) 
0

>  <PUBCHEM_COMPONENT_COUNT>  (1) 
1

>  <PUBCHEM_CACTVS_TAUTO_COUNT>  (1) 
3

>  <PUBCHEM_CONFORMER_ID>  (1) 
00002B7200000001

>  <PUBCHEM_MMFF94_ENERGY>  (1) 
15.1359

>  <PUBCHEM_FEATURE_SELFOVERLAP>  (1) 
15.223

>  <PUBCHEM_SHAPE_FINGERPRINT>  (1) 
12423570 1 13156889080243316756
14128692 85 18268155257939895118
16945 1 18338517559429179653
18185500 45 18341046440515433159
21040471 1 17618222149075900484
23235685 24 18264765635078956013
23552423 10 18261117313890571150
241688 4 18192151499205147480
2748010 2 18338232657036885973
29004967 10 18261960746772870225
5084963 1 18201433610731916955

>  <PUBCHEM_SHAPE_MULTIPOLES>  (1) 
173.48
2.9
1.86
0.6
0.36
0.17
0
-0.68
0
-0.49
0
-0.01
0
0

>  <PUBCHEM_SHAPE_SELFOVERLAP>  (1) 
359.516

>  <PUBCHEM_SHAPE_VOLUME>  (1) 
99

>  <PUBCHEM_COORDINATE_TYPE>  (1) 
2
5
10

$$$$
