11149
     RDKit          3D

 11 11  0  0  0  0  0  0  0  0999 V2000
    2.4651    1.4009    0.0022 O   0  0  0  0  0  0  0  0  0  0  0  0
    1.1914   -0.5825   -0.0004 N   0  0  0  0  0  0  0  0  0  0  0  0
   -0.9797   -2.4169    0.0015 N   0  0  0  0  0  0  0  0  0  0  0  0
   -0.1298   -0.1264    0.0000 C   0  0  0  0  0  0  0  0  0  0  0  0
   -1.1997   -1.0213   -0.0001 C   0  0  0  0  0  0  0  0  0  0  0  0
   -0.3699    1.2476   -0.0001 C   0  0  0  0  0  0  0  0  0  0  0  0
   -2.5097   -0.5423   -0.0004 C   0  0  0  0  0  0  0  0  0  0  0  0
   -1.6800    1.7268   -0.0002 C   0  0  0  0  0  0  0  0  0  0  0  0
   -2.7498    0.8318   -0.0004 C   0  0  0  0  0  0  0  0  0  0  0  0
    2.3665    0.1780   -0.0008 C   0  0  0  0  0  0  0  0  0  0  0  0
    3.5957   -0.6957   -0.0012 C   0  0  0  0  0  0  0  0  0  0  0  0
  1 10  2  0
  2  4  1  0
  2 10  1  0
  3  5  1  0
  4  5  2  0
  4  6  1  0
  5  7  1  0
  6  8  2  0
  7  9  2  0
  8  9  1  0
 10 11  1  0
M  END
>  <PUBCHEM_COMPOUND_CID>  (1) 
11149

>  <PUBCHEM_CONFORMER_RMSD>  (1) 
0.4

>  <PUBCHEM_CONFORMER_DIVERSEORDER>  (1) 
1
2
3

>  <PUBCHEM_MMFF94_PARTIAL_CHARGES>  (1) 
18
1 -0.57
10 0.57
11 0.06
12 0.15
13 0.37
14 0.15
15 0.15
16 0.15
17 0.4
18 0.4
2 -0.55
3 -0.9
4 0.12
5 0.1
6 -0.15
7 -0.15
8 -0.15
9 -0.15

>  <PUBCHEM_EFFECTIVE_ROTOR_COUNT>  (1) 
2

>  <PUBCHEM_PHARMACOPHORE_FEATURES>  (1) 
5
1 1 acceptor
1 2 donor
1 3 cation
1 3 donor
6 4 5 6 7 8 9 rings

>  <PUBCHEM_HEAVY_ATOM_COUNT>  (1) 
11

>  <PUBCHEM_ATOM_DEF_STEREO_COUNT>  (1) 
0

>  <PUBCHEM_ATOM_UDEF_STEREO_COUNT>  (1) 
0

>  <PUBCHEM_BOND_DEF_STEREO_COUNT>  (1) 
0

>  <PUBCHEM_BOND_UDEF_STEREO_COUNT>  (1) 
0

>  <PUBCHEM_ISOTOPIC_ATOM_COUNT>  (1) 
0

>  <PUBCHEM_COMPONENT_COUNT>  (1) 
1

>  <PUBCHEM_CACTVS_TAUTO_COUNT>  (1) 
2

>  <PUBCHEM_CONFORMER_ID>  (1) 
00002B8D00000001

>  <PUBCHEM_MMFF94_ENERGY>  (1) 
42.3418

>  <PUBCHEM_FEATURE_SELFOVERLAP>  (1) 
25.374

>  <PUBCHEM_SHAPE_FINGERPRINT>  (1) 
12716758 59 18411976970620691138
12932764 1 17458053859654245788
13024252 1 14634871937879552901
13380535 76 18341047415404788446
14144814 61 18336826399219298098
14325111 11 18410856538307624740
15775835 57 18115592534770300208
16945 1 18410574006716036357
193761 8 17690279730761527077
19973954 147 18338518642030125996
20201158 50 18202566138021100214
20645464 45 18202005399690863190
20871998 184 18200600327163430151
21040471 1 18410575046124495745
23402539 116 18271232864042507045
23463225 33 18190458260284056154
23552423 10 18116152353750494100
23559900 14 18271807883650627822
2748010 2 17907011034390376477
369184 2 18410292523138880601
5084963 1 18130503037560753208
6333449 129 18411980260681703701

>  <PUBCHEM_SHAPE_MULTIPOLES>  (1) 
210.54
4.79
1.87
0.59
3.56
0.46
0
-0.3
0
-0.69
0
-0.03
-0.01
0

>  <PUBCHEM_SHAPE_SELFOVERLAP>  (1) 
433.92

>  <PUBCHEM_SHAPE_VOLUME>  (1) 
120.5

>  <PUBCHEM_COORDINATE_TYPE>  (1) 
2
5
10

$$$$
