11142
     RDKit          3D

 10 10  0  0  1  0  0  0  0  0999 V2000
    0.7496   -0.0294   -0.3709 C   0  0  0  0  0  0  0  0  0  0  0  0
    2.0819    0.0386    0.3759 C   0  0  0  0  0  0  0  0  0  0  0  0
   -0.0355   -1.2817    0.0621 C   0  0  0  0  0  0  0  0  0  0  0  0
   -1.4815   -1.2355   -0.4350 C   0  0  0  0  0  0  0  0  0  0  0  0
   -0.0532    1.2311   -0.1595 C   0  0  0  0  0  0  0  0  0  0  0  0
    2.8695   -1.2547    0.1836 C   0  0  0  0  0  0  0  0  0  0  0  0
    2.8976    1.2406   -0.0932 C   0  0  0  0  0  0  0  0  0  0  0  0
   -2.1784    0.0247    0.0189 C   0  0  0  0  0  0  0  0  0  0  0  0
   -1.3799    1.2366    0.0383 C   0  0  0  0  0  0  0  0  0  0  0  0
   -3.4702    0.0297    0.3798 C   0  0  0  0  0  0  0  0  0  0  0  0
  1  2  1  0
  1  3  1  0
  1  5  1  0
  2  6  1  0
  2  7  1  0
  3  4  1  0
  4  8  1  0
  5  9  2  0
  8  9  1  0
  8 10  2  0
M  END
>  <PUBCHEM_COMPOUND_CID>  (1) 
11142

>  <PUBCHEM_CONFORMER_RMSD>  (1) 
0.4

>  <PUBCHEM_CONFORMER_DIVERSEORDER>  (1) 
2
5
4
3
1

>  <PUBCHEM_MMFF94_PARTIAL_CHARGES>  (1) 
10
1 0.14
10 -0.3
17 0.15
24 0.15
25 0.15
26 0.15
4 0.14
5 -0.29
8 -0.14
9 -0.15

>  <PUBCHEM_EFFECTIVE_ROTOR_COUNT>  (1) 
1.6

>  <PUBCHEM_PHARMACOPHORE_FEATURES>  (1) 
2
3 2 6 7 hydrophobe
6 1 3 4 5 8 9 rings

>  <PUBCHEM_HEAVY_ATOM_COUNT>  (1) 
10

>  <PUBCHEM_ATOM_DEF_STEREO_COUNT>  (1) 
0

>  <PUBCHEM_ATOM_UDEF_STEREO_COUNT>  (1) 
1

>  <PUBCHEM_BOND_DEF_STEREO_COUNT>  (1) 
0

>  <PUBCHEM_BOND_UDEF_STEREO_COUNT>  (1) 
0

>  <PUBCHEM_ISOTOPIC_ATOM_COUNT>  (1) 
0

>  <PUBCHEM_COMPONENT_COUNT>  (1) 
1

>  <PUBCHEM_CACTVS_TAUTO_COUNT>  (1) 
1

>  <PUBCHEM_CONFORMER_ID>  (1) 
00002B8600000002

>  <PUBCHEM_MMFF94_ENERGY>  (1) 
15.0943

>  <PUBCHEM_FEATURE_SELFOVERLAP>  (1) 
10.148

>  <PUBCHEM_SHAPE_FINGERPRINT>  (1) 
10219947 1 18409733958637101921
10857977 72 18408317804745495785
12032990 46 18408892814972605659
12932764 1 17846492660161639912
14325111 11 18410856551155525425
15775835 57 18342461468983254672
16945 1 18413383237365713133
193761 8 17546446674554916901
20871998 184 18058734757115902039
21040471 1 18412827962513568557
23235685 24 18413105082588710741
23402655 69 18196353842381589741
23463225 33 18409449154702034230
23552423 10 18333729126424501646
2748010 2 17620189836871540398
29004967 10 15936403451065463692
369184 2 18410851066439928013
5084963 1 18271240517505384258
7364860 26 18343301470814346972

>  <PUBCHEM_SHAPE_MULTIPOLES>  (1) 
205.8
4.86
1.55
0.68
0.06
0.03
0
-0.04
0.59
-0.45
-0.06
0.03
0.02
-0.18

>  <PUBCHEM_SHAPE_SELFOVERLAP>  (1) 
405.823

>  <PUBCHEM_SHAPE_VOLUME>  (1) 
122.4

>  <PUBCHEM_COORDINATE_TYPE>  (1) 
2
5
10

$$$$
