11155
     RDKit          3D

 17 18  0  0  0  0  0  0  0  0999 V2000
    6.3722    1.4532    0.0203 Cl  0  0  0  0  0  0  0  0  0  0  0  0
   -6.3694    1.4554    0.0221 Cl  0  0  0  0  0  0  0  0  0  0  0  0
    1.1714   -1.2720   -0.0140 O   0  0  0  0  0  0  0  0  0  0  0  0
   -1.1712   -1.2750   -0.0158 O   0  0  0  0  0  0  0  0  0  0  0  0
    2.3769   -0.6403   -0.0059 C   0  0  0  0  0  0  0  0  0  0  0  0
   -2.3841   -0.6379   -0.0071 C   0  0  0  0  0  0  0  0  0  0  0  0
   -0.0034   -0.4464   -0.0373 C   0  0  0  0  0  0  0  0  0  0  0  0
    2.4341    0.7531   -0.0201 C   0  0  0  0  0  0  0  0  0  0  0  0
   -2.4320    0.7515   -0.0193 C   0  0  0  0  0  0  0  0  0  0  0  0
    3.5552   -1.3866    0.0165 C   0  0  0  0  0  0  0  0  0  0  0  0
   -3.5552   -1.3872    0.0140 C   0  0  0  0  0  0  0  0  0  0  0  0
    3.6697    1.4005   -0.0121 C   0  0  0  0  0  0  0  0  0  0  0  0
   -3.6669    1.4002   -0.0102 C   0  0  0  0  0  0  0  0  0  0  0  0
    4.7908   -0.7393    0.0246 C   0  0  0  0  0  0  0  0  0  0  0  0
   -4.7902   -0.7386    0.0230 C   0  0  0  0  0  0  0  0  0  0  0  0
    4.8480    0.6544    0.0105 C   0  0  0  0  0  0  0  0  0  0  0  0
   -4.8460    0.6551    0.0108 C   0  0  0  0  0  0  0  0  0  0  0  0
  1 16  1  0
  2 17  1  0
  3  5  1  0
  3  7  1  0
  4  6  1  0
  4  7  1  0
  5  8  2  0
  5 10  1  0
  6  9  2  0
  6 11  1  0
  8 12  1  0
  9 13  1  0
 10 14  2  0
 11 15  2  0
 12 16  2  0
 13 17  2  0
 14 16  1  0
 15 17  1  0
M  END
>  <PUBCHEM_COMPOUND_CID>  (1) 
11155

>  <PUBCHEM_CONFORMER_RMSD>  (1) 
0.6

>  <PUBCHEM_CONFORMER_DIVERSEORDER>  (1) 
1
17
9
21
8
24
16
25
22
15
6
5
18
2
23
7
19
4
14
10
11
13
20
3
12

>  <PUBCHEM_MMFF94_PARTIAL_CHARGES>  (1) 
25
1 -0.18
10 -0.15
11 -0.15
12 -0.15
13 -0.15
14 -0.15
15 -0.15
16 0.18
17 0.18
2 -0.18
20 0.15
21 0.15
22 0.15
23 0.15
24 0.15
25 0.15
26 0.15
27 0.15
3 -0.36
4 -0.36
5 0.08
6 0.08
7 0.56
8 -0.15
9 -0.15

>  <PUBCHEM_EFFECTIVE_ROTOR_COUNT>  (1) 
4

>  <PUBCHEM_PHARMACOPHORE_FEATURES>  (1) 
4
1 3 acceptor
1 4 acceptor
6 5 8 10 12 14 16 rings
6 6 9 11 13 15 17 rings

>  <PUBCHEM_HEAVY_ATOM_COUNT>  (1) 
17

>  <PUBCHEM_ATOM_DEF_STEREO_COUNT>  (1) 
0

>  <PUBCHEM_ATOM_UDEF_STEREO_COUNT>  (1) 
0

>  <PUBCHEM_BOND_DEF_STEREO_COUNT>  (1) 
0

>  <PUBCHEM_BOND_UDEF_STEREO_COUNT>  (1) 
0

>  <PUBCHEM_ISOTOPIC_ATOM_COUNT>  (1) 
0

>  <PUBCHEM_COMPONENT_COUNT>  (1) 
1

>  <PUBCHEM_CACTVS_TAUTO_COUNT>  (1) 
1

>  <PUBCHEM_CONFORMER_ID>  (1) 
00002B9300000001

>  <PUBCHEM_MMFF94_ENERGY>  (1) 
56.8672

>  <PUBCHEM_FEATURE_SELFOVERLAP>  (1) 
20.339

>  <PUBCHEM_SHAPE_FINGERPRINT>  (1) 
10014705 185 18407758119452431509
10354089 29 18040155119640774568
10595046 47 18413105061245931455
117890 112 18410573980861778084
12107183 9 17689151214718506978
12236239 1 18410854360653704134
12596602 18 17312822696982539176
13167372 99 18269557152392645705
13785724 45 17762898758572503202
14251764 18 18334573563943915512
14341114 176 18408891719491882740
15048467 5 18410855464423375944
15188451 53 15936982962898160387
15196674 1 18410575084663150381
15501527 16 18411421704849071905
17834072 33 18342736338305655782
20281389 69 18187645765517237261
20645477 56 18409167697511893223
20645477 70 18130512938194132974
212847 35 18341891888085579648
21652331 79 18408039593775391205
23402539 116 18343014502247592871
23402655 69 18343581858863833414
23559900 14 18341609325944072912
245318 6 16882181539509612884
2916195 48 18340482369971297136
29717793 49 17561369439920241750
300161 21 18409726261702318563
3004659 81 18410013196331600730
34797466 226 17703799162079647420
351380 180 18410292514474989033
3545911 37 18411420609110139420
4073 2 18041003981256767394
4214541 1 18410573989720809479
42788 4 18410856563934990727
5104073 3 18334858311680639699
542803 24 18410572885639881838
59682541 35 18261405464338392761
59682541 52 17489041383560615788
59755656 520 17458341957254775906
77779 3 18410575088963613286
8272917 22 18341614772501311094
9971528 1 17894633639150333030

>  <PUBCHEM_SHAPE_MULTIPOLES>  (1) 
341.85
16.19
1.74
0.61
0.03
0.1
0
6.76
0.18
0
0
0
0.02
0

>  <PUBCHEM_SHAPE_SELFOVERLAP>  (1) 
709.008

>  <PUBCHEM_SHAPE_VOLUME>  (1) 
197.1

>  <PUBCHEM_COORDINATE_TYPE>  (1) 
2
5
10

$$$$
