11152
     RDKit          3D

 20 20  0  0  0  0  0  0  0  0999 V2000
    1.5281    1.5904    1.5690 O   0  0  0  0  0  0  0  0  0  0  0  0
   -0.9456   -2.7543    1.5507 O   0  0  0  0  0  0  0  0  0  0  0  0
    2.5660    2.5047   -0.8422 O   0  0  0  0  0  0  0  0  0  0  0  0
   -3.7917    1.2016    0.0016 C   0  0  0  0  0  0  0  0  0  0  0  0
   -2.4706    1.8105   -0.4773 C   0  0  0  0  0  0  0  0  0  0  0  0
   -3.9373   -0.2876   -0.3286 C   0  0  0  0  0  0  0  0  0  0  0  0
   -2.3747    3.2886   -0.0968 C   0  0  0  0  0  0  0  0  0  0  0  0
    1.4792   -2.9865   -0.1267 C   0  0  0  0  0  0  0  0  0  0  0  0
    0.0583   -3.3713   -0.5409 C   0  0  0  0  0  0  0  0  0  0  0  0
    1.7685   -1.5166   -0.3148 C   0  0  0  0  0  0  0  0  0  0  0  0
   -2.8808   -1.1397    0.3132 C   0  0  0  0  0  0  0  0  0  0  0  0
   -1.0492    3.8916   -0.5335 C   0  0  0  0  0  0  0  0  0  0  0  0
   -0.9754   -2.6767    0.3246 C   0  0  0  0  0  0  0  0  0  0  0  0
   -1.9926   -1.8563   -0.3870 C   0  0  0  0  0  0  0  0  0  0  0  0
    1.5118   -0.6356    0.7235 C   0  0  0  0  0  0  0  0  0  0  0  0
    2.2857   -1.0758   -1.5224 C   0  0  0  0  0  0  0  0  0  0  0  0
    1.7796    0.7222    0.5497 C   0  0  0  0  0  0  0  0  0  0  0  0
    2.5532    0.2821   -1.6963 C   0  0  0  0  0  0  0  0  0  0  0  0
    2.3002    1.1811   -0.6602 C   0  0  0  0  0  0  0  0  0  0  0  0
    2.5872    1.8275    2.4944 C   0  0  0  0  0  0  0  0  0  0  0  0
  1 17  1  0
  1 20  1  0
  2 13  2  0
  3 19  1  0
  4  5  1  0
  4  6  1  0
  5  7  1  0
  6 11  1  0
  7 12  1  0
  8  9  1  0
  8 10  1  0
  9 13  1  0
 10 15  2  0
 10 16  1  0
 11 14  2  0
 13 14  1  0
 15 17  1  0
 16 18  2  0
 17 19  2  0
 18 19  1  0
M  END
>  <PUBCHEM_COMPOUND_CID>  (1) 
11152

>  <PUBCHEM_CONFORMER_RMSD>  (1) 
1

>  <PUBCHEM_CONFORMER_DIVERSEORDER>  (1) 
1
322
109
446
216
41
177
135
255
5
79
21
308
45
285
547
174
421
237
9
170
542
348
530
201
202
58
277
320
87
60
475
143
339
22
74
120
291
76
384
27
173
328
14
540
123
66
43
40
468
44
105
39
610
450
318
15
429
159
221
4
91
330
592
169
11
460
199
118
589
233
139
268
25
279
189
555
70
112
73
156
28
477
245
113
297
363
20
110
124
424
230
2
33
275
37
23
537
95
3
38
49
47
114
366
483
166
29
431
263
198
377
8
30
208
62
59
243
502
51
306
593
292
6
171
52
520
506
342
351
26
357
290
122
84
50
187
309
467
566
111
129
42
345
274
234
162
344
473
90
588
210
343
146
522
295
48
191
260
211
385
246
469
130
12
312
554
117
436
209

>  <PUBCHEM_MMFF94_PARTIAL_CHARGES>  (1) 
22
1 -0.36
10 -0.14
11 -0.29
13 0.49
14 -0.14
15 -0.15
16 -0.15
17 0.08
18 -0.15
19 0.08
2 -0.57
20 0.28
3 -0.53
33 0.15
37 0.15
38 0.15
39 0.15
40 0.15
41 0.45
6 0.14
8 0.14
9 0.06

>  <PUBCHEM_EFFECTIVE_ROTOR_COUNT>  (1) 
9

>  <PUBCHEM_PHARMACOPHORE_FEATURES>  (1) 
6
1 1 acceptor
1 12 hydrophobe
1 2 acceptor
1 3 donor
5 4 5 6 7 11 hydrophobe
6 10 15 16 17 18 19 rings

>  <PUBCHEM_HEAVY_ATOM_COUNT>  (1) 
20

>  <PUBCHEM_ATOM_DEF_STEREO_COUNT>  (1) 
0

>  <PUBCHEM_ATOM_UDEF_STEREO_COUNT>  (1) 
0

>  <PUBCHEM_BOND_DEF_STEREO_COUNT>  (1) 
0

>  <PUBCHEM_BOND_UDEF_STEREO_COUNT>  (1) 
1

>  <PUBCHEM_ISOTOPIC_ATOM_COUNT>  (1) 
0

>  <PUBCHEM_COMPONENT_COUNT>  (1) 
1

>  <PUBCHEM_CACTVS_TAUTO_COUNT>  (1) 
15

>  <PUBCHEM_CONFORMER_ID>  (1) 
00002B9000000001

>  <PUBCHEM_MMFF94_ENERGY>  (1) 
39.7557

>  <PUBCHEM_FEATURE_SELFOVERLAP>  (1) 
30.446

>  <PUBCHEM_SHAPE_FINGERPRINT>  (1) 
104564 63 16177348964597872751
10498660 4 18336269062899097519
10764073 3 17763989538752423194
11725454 13 16770957094995319130
12035759 4 17256276755745346862
12038231 1 17975981955850353693
12156800 1 12625097370951009489
12553582 1 18192992849524452629
128993 33 18339367374875493157
13122387 1 18409452500972499773
14251745 187 18197509612814992332
17093844 170 18410290302614817693
17921350 177 15291555008218379045
19930381 70 18409451423209625215
20905425 154 18052821338942296383
23536364 44 17767161659573307686
238 59 18337675192205068415
2803657 2 17049083663350968051
35225 105 16751199862680781569
3524813 1 17914621793653478027
3797600 57 16519654937579941451

>  <PUBCHEM_SHAPE_MULTIPOLES>  (1) 
393.98
5.73
4.94
1.54
5.37
0.28
-0.64
1.74
0.93
0.5
-0.42
-1.5
0.85
0.93

>  <PUBCHEM_SHAPE_SELFOVERLAP>  (1) 
788.313

>  <PUBCHEM_SHAPE_VOLUME>  (1) 
232.2

>  <PUBCHEM_COORDINATE_TYPE>  (1) 
2
5
10

$$$$
