11158
     RDKit          3D

  9  9  0  0  0  0  0  0  0  0999 V2000
   -3.2151   -0.5327   -0.0004 O   0  0  0  0  0  0  0  0  0  0  0  0
    3.1919   -0.2745   -0.0003 N   0  0  0  0  0  0  0  0  0  0  0  0
   -0.9772    0.2353    0.0004 C   0  0  0  0  0  0  0  0  0  0  0  0
    1.7919   -0.1034   -0.0001 C   0  0  0  0  0  0  0  0  0  0  0  0
   -0.1384    1.3497    0.0002 C   0  0  0  0  0  0  0  0  0  0  0  0
   -0.4316   -1.0485    0.0003 C   0  0  0  0  0  0  0  0  0  0  0  0
    1.2461    1.1803   -0.0001 C   0  0  0  0  0  0  0  0  0  0  0  0
    0.9530   -1.2179    0.0001 C   0  0  0  0  0  0  0  0  0  0  0  0
   -2.4207    0.4118   -0.0001 C   0  0  0  0  0  0  0  0  0  0  0  0
  1  9  2  0
  2  4  1  0
  3  5  2  0
  3  6  1  0
  3  9  1  0
  4  7  2  0
  4  8  1  0
  5  7  1  0
  6  8  2  0
M  END
>  <PUBCHEM_COMPOUND_CID>  (1) 
11158

>  <PUBCHEM_CONFORMER_RMSD>  (1) 
0.4

>  <PUBCHEM_CONFORMER_DIVERSEORDER>  (1) 
1

>  <PUBCHEM_MMFF94_PARTIAL_CHARGES>  (1) 
16
1 -0.57
10 0.15
11 0.15
12 0.15
13 0.15
14 0.06
15 0.4
16 0.4
2 -0.9
3 0.09
4 0.1
5 -0.15
6 -0.15
7 -0.15
8 -0.15
9 0.42

>  <PUBCHEM_EFFECTIVE_ROTOR_COUNT>  (1) 
1

>  <PUBCHEM_PHARMACOPHORE_FEATURES>  (1) 
4
1 1 acceptor
1 2 cation
1 2 donor
6 3 4 5 6 7 8 rings

>  <PUBCHEM_HEAVY_ATOM_COUNT>  (1) 
9

>  <PUBCHEM_ATOM_DEF_STEREO_COUNT>  (1) 
0

>  <PUBCHEM_ATOM_UDEF_STEREO_COUNT>  (1) 
0

>  <PUBCHEM_BOND_DEF_STEREO_COUNT>  (1) 
0

>  <PUBCHEM_BOND_UDEF_STEREO_COUNT>  (1) 
0

>  <PUBCHEM_ISOTOPIC_ATOM_COUNT>  (1) 
0

>  <PUBCHEM_COMPONENT_COUNT>  (1) 
1

>  <PUBCHEM_CACTVS_TAUTO_COUNT>  (1) 
4

>  <PUBCHEM_CONFORMER_ID>  (1) 
00002B9600000001

>  <PUBCHEM_MMFF94_ENERGY>  (1) 
30.9743

>  <PUBCHEM_FEATURE_SELFOVERLAP>  (1) 
20.297

>  <PUBCHEM_SHAPE_FINGERPRINT>  (1) 
10857977 72 18410845560302430321
12032990 46 18411145718450506630
12897270 3 18409164381396201181
14325111 11 18410856572545965857
16945 1 18410575080405041380
193761 8 17689999363517042212
21040471 1 18194682789746980612
21293036 1 18336273409258087084
23235685 24 18410852170378424356
23402655 69 18195226838446593005
23552423 10 17972889063832261798
2748010 2 18122065570112968630
29004967 10 18408326562036086713
5084963 1 18411700988901974633

>  <PUBCHEM_SHAPE_MULTIPOLES>  (1) 
174.37
3.88
1.34
0.6
0.82
0.1
0
-0.47
0
-0.16
0
0
0.01
0

>  <PUBCHEM_SHAPE_SELFOVERLAP>  (1) 
363.564

>  <PUBCHEM_SHAPE_VOLUME>  (1) 
98.7

>  <PUBCHEM_COORDINATE_TYPE>  (1) 
2
5
10

$$$$
