11193
     RDKit          3D

  9  8  0  0  1  0  0  0  0  0999 V2000
    4.3255   -0.2200   -0.9143 I   0  0  0  0  0  0  0  0  0  0  0  0
    0.2094   -0.7179    0.8664 C   0  0  0  0  0  0  0  0  0  0  0  0
   -0.7986   -0.3164   -0.2124 C   0  0  0  0  0  0  0  0  0  0  0  0
    1.6295   -0.9286    0.3275 C   0  0  0  0  0  0  0  0  0  0  0  0
   -2.2128   -0.2100    0.3629 C   0  0  0  0  0  0  0  0  0  0  0  0
    2.2940    0.3171   -0.2826 C   0  0  0  0  0  0  0  0  0  0  0  0
   -3.2162    0.2228   -0.7058 C   0  0  0  0  0  0  0  0  0  0  0  0
    2.3861    1.4910    0.6897 C   0  0  0  0  0  0  0  0  0  0  0  0
   -4.6169    0.3620   -0.1312 C   0  0  0  0  0  0  0  0  0  0  0  0
  1  6  1  0
  2  3  1  0
  2  4  1  0
  3  5  1  0
  4  6  1  0
  5  7  1  0
  6  8  1  0
  7  9  1  0
M  END
>  <PUBCHEM_COMPOUND_CID>  (1) 
11193

>  <PUBCHEM_CONFORMER_RMSD>  (1) 
0.6

>  <PUBCHEM_CONFORMER_DIVERSEORDER>  (1) 
1
117
11
39
102
8
2
48
115
71
20
110
101
104
33
24
15
111
78
43
98
100
3
85
5
79
16
6
74
86
92
87
96
10
44
57
106
51
32
28
123
37
55
17
49
112
22
45
21
4
46
119
23
94
42
25
60
40
53
31
103
107
27
65
64
121
63
99
50
12
13
26
52
9
105
7
97
67
14
70
77
56
122
47
76
75
54
80
61
89
58
36
66
90
18
109
68
81
41
95
35
108
83
84
116
88
114
59
38
62
91
69
93
30
73
113
19
29
118
82
72
120
34

>  <PUBCHEM_MMFF94_PARTIAL_CHARGES>  (1) 
2
1 -0.19
6 0.19

>  <PUBCHEM_EFFECTIVE_ROTOR_COUNT>  (1) 
5

>  <PUBCHEM_PHARMACOPHORE_FEATURES>  (1) 
4
1 1 hydrophobe
1 9 hydrophobe
3 1 6 8 hydrophobe
5 2 3 4 5 7 hydrophobe

>  <PUBCHEM_HEAVY_ATOM_COUNT>  (1) 
9

>  <PUBCHEM_ATOM_DEF_STEREO_COUNT>  (1) 
0

>  <PUBCHEM_ATOM_UDEF_STEREO_COUNT>  (1) 
1

>  <PUBCHEM_BOND_DEF_STEREO_COUNT>  (1) 
0

>  <PUBCHEM_BOND_UDEF_STEREO_COUNT>  (1) 
0

>  <PUBCHEM_ISOTOPIC_ATOM_COUNT>  (1) 
0

>  <PUBCHEM_COMPONENT_COUNT>  (1) 
1

>  <PUBCHEM_CACTVS_TAUTO_COUNT>  (1) 
1

>  <PUBCHEM_CONFORMER_ID>  (1) 
00002BB900000001

>  <PUBCHEM_MMFF94_ENERGY>  (1) 
2.0172

>  <PUBCHEM_FEATURE_SELFOVERLAP>  (1) 
20.876

>  <PUBCHEM_SHAPE_FINGERPRINT>  (1) 
11062470 55 14056721244641165615
11987891 27 15482672360060758660
12815109 37 13470687027441201182
12932764 1 18261380153151936023
14252887 29 9439410146269633444
14390081 3 18260822705130625201
177051 138 14117528610376952204
17834076 25 17603307042491560367
18186145 218 18413101775500764129
18342897 14 14562529578772259959
20605781 2 17458064867565767989
20711985 327 13183024025201923434
21119208 17 17847063276536667820
22485316 2 13901905596350034908
23235685 24 17385722517280485094
23402539 116 16630250212286752552
23402655 69 18412544279987133813
449060 50 16515689931204394583
449060 62 17822009774764063695

>  <PUBCHEM_SHAPE_MULTIPOLES>  (1) 
197.15
8.98
1.08
1
4.35
0.32
0.04
0.74
3.08
-0.81
-0.2
-0.33
-0.05
0.36

>  <PUBCHEM_SHAPE_SELFOVERLAP>  (1) 
326.645

>  <PUBCHEM_SHAPE_VOLUME>  (1) 
137.8

>  <PUBCHEM_COORDINATE_TYPE>  (1) 
2
5
10

$$$$
