112
     RDKit          3D

 13 12  0  0  1  0  0  0  0  0999 V2000
   -2.6994   -0.3977   -0.1491 P   0  0  0  0  0  0  0  0  0  0  0  0
   -1.2431    0.2851   -0.3037 O   0  0  0  0  0  0  0  0  0  0  0  0
    0.6159    2.3916   -0.1689 O   0  0  0  0  0  0  0  0  0  0  0  0
   -3.4511    0.5382    0.9346 O   0  0  0  0  0  0  0  0  0  0  0  0
   -2.3738   -1.7444    0.6848 O   0  0  0  0  0  0  0  0  0  0  0  0
    1.6476    0.2613   -1.6024 O   0  0  0  0  0  0  0  0  0  0  0  0
   -3.4415   -0.6128   -1.4358 O   0  0  0  0  0  0  0  0  0  0  0  0
    3.3756   -1.3415   -0.6340 O   0  0  0  0  0  0  0  0  0  0  0  0
    2.7910   -0.6800    1.4665 O   0  0  0  0  0  0  0  0  0  0  0  0
    0.8503    1.1660    0.5093 C   0  0  0  0  0  0  0  0  0  0  0  0
   -0.4798    0.5204    0.8749 C   0  0  0  0  0  0  0  0  0  0  0  0
    1.6960    0.2780   -0.3794 C   0  0  0  0  0  0  0  0  0  0  0  0
    2.7125   -0.6642    0.2032 C   0  0  0  0  0  0  0  0  0  0  0  0
  1  2  1  0
  1  4  1  0
  1  5  1  0
  1  7  2  0
  2 11  1  0
  3 10  1  0
  6 12  2  0
  8 13  1  0
  9 13  2  0
 10 11  1  0
 10 12  1  0
 12 13  1  0
M  CHG  1   8  -1
M  END
>  <PUBCHEM_COMPOUND_CID>  (1) 
112

>  <PUBCHEM_CONFORMER_RMSD>  (1) 
0.6

>  <PUBCHEM_CONFORMER_DIVERSEORDER>  (1) 
1
25
57
48
37
53
7
14
8
38
44
49
13
43
23
18
56
54
22
3
11
46
24
29
21
35
5
4
9
31
45
6
28
12
34
50
15
27
16
19
30
41
55
32
36
10
26
33
40
47
39
51
52
17
42
2
20

>  <PUBCHEM_MMFF94_PARTIAL_CHARGES>  (1) 
16
1 1.51
10 0.34
11 0.28
12 0.36
13 0.95
17 0.4
18 0.5
19 0.5
2 -0.55
3 -0.68
4 -0.77
5 -0.77
6 -0.57
7 -0.7
8 -0.9
9 -0.9

>  <PUBCHEM_EFFECTIVE_ROTOR_COUNT>  (1) 
5

>  <PUBCHEM_PHARMACOPHORE_FEATURES>  (1) 
10
1 3 acceptor
1 3 donor
1 4 acceptor
1 5 acceptor
1 6 acceptor
1 7 acceptor
1 8 acceptor
1 9 acceptor
3 8 9 13 anion
4 1 4 5 7 anion

>  <PUBCHEM_HEAVY_ATOM_COUNT>  (1) 
13

>  <PUBCHEM_ATOM_DEF_STEREO_COUNT>  (1) 
0

>  <PUBCHEM_ATOM_UDEF_STEREO_COUNT>  (1) 
1

>  <PUBCHEM_BOND_DEF_STEREO_COUNT>  (1) 
0

>  <PUBCHEM_BOND_UDEF_STEREO_COUNT>  (1) 
0

>  <PUBCHEM_ISOTOPIC_ATOM_COUNT>  (1) 
0

>  <PUBCHEM_COMPONENT_COUNT>  (1) 
1

>  <PUBCHEM_CACTVS_TAUTO_COUNT>  (1) 
8

>  <PUBCHEM_CONFORMER_ID>  (1) 
0000007000000001

>  <PUBCHEM_MMFF94_ENERGY>  (1) 
-18.689

>  <PUBCHEM_FEATURE_SELFOVERLAP>  (1) 
50.863

>  <PUBCHEM_SHAPE_FINGERPRINT>  (1) 
10130415 120 18408606946128124913
12382932 28 16128657448649268863
12932764 1 17386005108906442731
13705890 14 16298387946448681314
18186145 218 17458068161526082872
18511873 20 18202010889255361577
20201158 50 18410572881403365547
20361792 2 18410578370339655060
20645477 70 18338791342531127975
20653085 51 12973895762294264124
20711985 327 18131347518436431120
20711985 344 18195810665407565736
21501925 9 17632283618889785621
22802520 49 16298383539574936685
3248919 1 18271806886490234401
74978 22 18335984272154646233
81228 2 18056210076270339224
81539 233 18047745181536078476
9882013 296 12894779402680282693

>  <PUBCHEM_SHAPE_MULTIPOLES>  (1) 
224.43
5.87
1.55
1.24
2.13
0.47
0.13
-2.6
0.13
-0.26
-0.04
-0.05
-0.15
-0.22

>  <PUBCHEM_SHAPE_SELFOVERLAP>  (1) 
425.555

>  <PUBCHEM_SHAPE_VOLUME>  (1) 
137.9

>  <PUBCHEM_COORDINATE_TYPE>  (1) 
2
5
10

$$$$
