11225
     RDKit          3D

 30 35  0  0  1  0  0  0  0  0999 V2000
    0.8267    2.6864   -0.4833 O   0  0  0  0  0  0  0  0  0  0  0  0
   -5.2796    0.5419   -0.4569 O   0  0  0  0  0  0  0  0  0  0  0  0
   -5.9485   -1.3629    1.4857 O   0  0  0  0  0  0  0  0  0  0  0  0
   -3.6153   -1.1413   -2.8669 O   0  0  0  0  0  0  0  0  0  0  0  0
    6.1045    0.2511   -0.3205 O   0  0  0  0  0  0  0  0  0  0  0  0
    7.5780   -1.4767   -0.2149 O   0  0  0  0  0  0  0  0  0  0  0  0
    0.3926    1.3581   -0.0773 C   0  0  0  0  0  0  0  0  0  0  0  0
    1.4120    0.2610   -0.3763 C   0  0  0  0  0  0  0  0  0  0  0  0
   -1.0762    1.1798   -0.4086 C   0  0  0  0  0  0  0  0  0  0  0  0
    1.0149    2.3393    0.8779 C   0  0  0  0  0  0  0  0  0  0  0  0
   -1.5603   -0.2787   -0.1934 C   0  0  0  0  0  0  0  0  0  0  0  0
    2.4684    0.4381    0.7878 C   0  0  0  0  0  0  0  0  0  0  0  0
    2.4187    1.9278    1.1885 C   0  0  0  0  0  0  0  0  0  0  0  0
    0.7956   -1.1488   -0.2725 C   0  0  0  0  0  0  0  0  0  0  0  0
   -3.0635   -0.4656   -0.6081 C   0  0  0  0  0  0  0  0  0  0  0  0
   -0.5914   -1.2493   -0.8991 C   0  0  0  0  0  0  0  0  0  0  0  0
   -1.9741    2.1642    0.3565 C   0  0  0  0  0  0  0  0  0  0  0  0
   -3.9695    0.5723    0.1323 C   0  0  0  0  0  0  0  0  0  0  0  0
    2.0110    0.4665   -1.7830 C   0  0  0  0  0  0  0  0  0  0  0  0
   -3.4437    2.0122   -0.0130 C   0  0  0  0  0  0  0  0  0  0  0  0
   -3.6027   -1.8970   -0.3343 C   0  0  0  0  0  0  0  0  0  0  0  0
    3.8530   -0.0467    0.5040 C   0  0  0  0  0  0  0  0  0  0  0  0
   -4.1316    0.2180    1.6367 C   0  0  0  0  0  0  0  0  0  0  0  0
   -3.1765   -0.2808   -2.1110 C   0  0  0  0  0  0  0  0  0  0  0  0
   -3.7178   -2.2305    1.1513 C   0  0  0  0  0  0  0  0  0  0  0  0
   -4.5890   -1.2207    1.8909 C   0  0  0  0  0  0  0  0  0  0  0  0
    4.1906   -1.4033    0.8484 C   0  0  0  0  0  0  0  0  0  0  0  0
    4.8054    0.7069   -0.0548 C   0  0  0  0  0  0  0  0  0  0  0  0
    5.4149   -1.8862    0.6157 C   0  0  0  0  0  0  0  0  0  0  0  0
    6.4535   -1.0351   -0.0017 C   0  0  0  0  0  0  0  0  0  0  0  0
  1  7  1  0
  1 10  1  0
  2 18  1  0
  3 26  1  0
  4 24  2  0
  5 28  1  0
  5 30  1  0
  6 30  2  0
  7  8  1  0
  7  9  1  0
  7 10  1  0
  8 12  1  0
  8 14  1  0
  8 19  1  0
  9 11  1  0
  9 17  1  0
 10 13  1  0
 11 15  1  0
 11 16  1  0
 12 13  1  0
 12 22  1  0
 14 16  1  0
 15 18  1  0
 15 21  1  0
 15 24  1  0
 17 20  1  0
 18 20  1  0
 18 23  1  0
 21 25  1  0
 22 27  1  0
 22 28  2  0
 23 26  1  0
 25 26  1  0
 27 29  2  0
 29 30  1  0
M  END
>  <PUBCHEM_COMPOUND_CID>  (1) 
11225

>  <PUBCHEM_CONFORMER_RMSD>  (1) 
0.8

>  <PUBCHEM_CONFORMER_DIVERSEORDER>  (1) 
6
13
2
3
16
14
9
8
7
15
5
18
12
17
4
10
11
1

>  <PUBCHEM_MMFF94_PARTIAL_CHARGES>  (1) 
28
1 -0.3
10 -0.05
12 0.14
13 0.09
15 0.06
18 0.28
2 -0.68
22 -0.14
24 0.45
26 0.28
27 -0.15
28 -0.07
29 -0.14
3 -0.68
30 0.71
32 0.1
4 -0.57
5 -0.23
52 0.06
56 0.4
57 0.15
58 0.15
59 0.4
6 -0.57
60 0.15
7 -0.04
8 0.09
9 0.09

>  <PUBCHEM_EFFECTIVE_ROTOR_COUNT>  (1) 
4.2

>  <PUBCHEM_PHARMACOPHORE_FEATURES>  (1) 
12
1 1 acceptor
1 2 acceptor
1 2 donor
1 3 acceptor
1 3 donor
1 4 acceptor
1 6 acceptor
6 1 7 8 10 12 13 rings
6 15 18 21 23 25 26 rings
6 5 22 27 28 29 30 rings
6 7 8 9 11 14 16 rings
6 9 11 15 17 18 20 rings

>  <PUBCHEM_HEAVY_ATOM_COUNT>  (1) 
30

>  <PUBCHEM_ATOM_DEF_STEREO_COUNT>  (1) 
7

>  <PUBCHEM_ATOM_UDEF_STEREO_COUNT>  (1) 
2

>  <PUBCHEM_BOND_DEF_STEREO_COUNT>  (1) 
0

>  <PUBCHEM_BOND_UDEF_STEREO_COUNT>  (1) 
0

>  <PUBCHEM_ISOTOPIC_ATOM_COUNT>  (1) 
0

>  <PUBCHEM_COMPONENT_COUNT>  (1) 
1

>  <PUBCHEM_CACTVS_TAUTO_COUNT>  (1) 
1

>  <PUBCHEM_CONFORMER_ID>  (1) 
00002BD900000006

>  <PUBCHEM_MMFF94_ENERGY>  (1) 
110.2368

>  <PUBCHEM_FEATURE_SELFOVERLAP>  (1) 
61.042

>  <PUBCHEM_SHAPE_FINGERPRINT>  (1) 
10622 236 17199358702192174055
10675989 125 16469810291696311744
11135609 12 18186528700025436529
11456790 92 17988378026789544691
11578080 2 16662316296712017087
11796584 16 18040995099037168930
12236239 1 18040722446350610516
12422481 6 17418379056460728252
12633257 1 17131836503281868753
12760667 363 18342450392953895998
13009979 54 18187375328095086604
13103583 49 18201731668666970131
13140716 1 18127697234701108523
13224815 77 18058452170027277053
13673619 4 17385733529798087331
13690498 29 16660642977311141619
14251764 30 18186804686213622418
14341114 176 18409732897432228409
14739800 52 15408902976969229600
14856354 85 18335435581197729279
14950920 106 18057340572377608787
14955137 171 18412552015598066040
15183329 4 18060701680839528630
15788980 27 18412823590257960198
17349148 13 17489021668795433214
17492 89 18054778752659738367
17980427 23 15267058176919587112
1813 80 18336839614971221076
18927931 339 18411984645848776359
19489759 90 14764624214030444655
21267235 1 18411703183593183608
22182313 1 17845103869485675501
22393880 68 16298375881664059236
22950370 63 18408887334915823144
23402539 116 18059847359898545540
23522609 53 17986698002544631224
23559900 14 18334288816292348401
2838139 119 10159685881742012618
3004659 81 18335980884037353314
314194 84 18341887498692520806
335352 9 18341325618085892253
3737641 26 18268150860221042314
4058900 60 17327166655254730029
46194498 28 16660649621556581046
465052 167 18342181059870466374
484985 159 18260827103668130291
5104073 3 17345749827618426874
57527293 21 18054808423232393579
6009941 240 18040718009164090433
6086070 43 17488439945609000505
6669772 16 17683820074358817260
999808 66 18261403238390331418

>  <PUBCHEM_SHAPE_MULTIPOLES>  (1) 
582.17
14.34
2.42
1.63
15.92
0.61
-0.57
-7.79
2.52
-0.32
0.5
-2.17
-0.46
0.31

>  <PUBCHEM_SHAPE_SELFOVERLAP>  (1) 
1281.899

>  <PUBCHEM_SHAPE_VOLUME>  (1) 
309.1

>  <PUBCHEM_COORDINATE_TYPE>  (1) 
2
5
10

$$$$
