11255
     RDKit          3D

  8  7  0  0  1  0  0  0  0  0999 V2000
   -1.0302   -0.1361   -0.0342 C   0  0  0  0  0  0  0  0  0  0  0  0
    0.4575    0.2733   -0.3675 C   0  0  0  0  0  0  0  0  0  0  0  0
    1.5075   -0.7054    0.2189 C   0  0  0  0  0  0  0  0  0  0  0  0
   -1.3735   -1.5536   -0.5294 C   0  0  0  0  0  0  0  0  0  0  0  0
   -1.2750   -0.0866    1.4913 C   0  0  0  0  0  0  0  0  0  0  0  0
   -2.0247    0.8549   -0.6796 C   0  0  0  0  0  0  0  0  0  0  0  0
    0.7903    1.7172    0.0489 C   0  0  0  0  0  0  0  0  0  0  0  0
    2.9479   -0.3637   -0.1483 C   0  0  0  0  0  0  0  0  0  0  0  0
  1  2  1  0
  1  4  1  0
  1  5  1  0
  1  6  1  0
  2  3  1  0
  2  7  1  0
  3  8  1  0
M  END
>  <PUBCHEM_COMPOUND_CID>  (1) 
11255

>  <PUBCHEM_CONFORMER_RMSD>  (1) 
0.4

>  <PUBCHEM_CONFORMER_DIVERSEORDER>  (1) 
1
3
4
2

>  <PUBCHEM_MMFF94_PARTIAL_CHARGES>  (1) 
0

>  <PUBCHEM_EFFECTIVE_ROTOR_COUNT>  (1) 
2

>  <PUBCHEM_PHARMACOPHORE_FEATURES>  (1) 
3
1 7 hydrophobe
1 8 hydrophobe
4 1 4 5 6 hydrophobe

>  <PUBCHEM_HEAVY_ATOM_COUNT>  (1) 
8

>  <PUBCHEM_ATOM_DEF_STEREO_COUNT>  (1) 
0

>  <PUBCHEM_ATOM_UDEF_STEREO_COUNT>  (1) 
1

>  <PUBCHEM_BOND_DEF_STEREO_COUNT>  (1) 
0

>  <PUBCHEM_BOND_UDEF_STEREO_COUNT>  (1) 
0

>  <PUBCHEM_ISOTOPIC_ATOM_COUNT>  (1) 
0

>  <PUBCHEM_COMPONENT_COUNT>  (1) 
1

>  <PUBCHEM_CACTVS_TAUTO_COUNT>  (1) 
1

>  <PUBCHEM_CONFORMER_ID>  (1) 
00002BF700000001

>  <PUBCHEM_MMFF94_ENERGY>  (1) 
19.4893

>  <PUBCHEM_FEATURE_SELFOVERLAP>  (1) 
15.226

>  <PUBCHEM_SHAPE_FINGERPRINT>  (1) 
14128692 85 18128529568944998030
15310529 11 17603881008645803230
16714656 1 18339078168720227420
18185500 45 18412261748601520374
21040471 1 18265604390704810029
23552333 60 17912086358573731187
23552423 10 18190455154705910814
24536 1 17274277135074671061
29004967 10 18260558805149462474
3248919 1 17418376874717633110
369184 2 18411978040241672930
5084963 1 18200030780007996298

>  <PUBCHEM_SHAPE_MULTIPOLES>  (1) 
164.64
3.18
1.47
1.01
1.95
0.19
0.35
-0.42
-0.28
-0.16
-0.19
-0.49
-0.03
0.02

>  <PUBCHEM_SHAPE_SELFOVERLAP>  (1) 
293.99

>  <PUBCHEM_SHAPE_VOLUME>  (1) 
110.9

>  <PUBCHEM_COORDINATE_TYPE>  (1) 
2
5
10

$$$$
