11250
     RDKit          3D

  6  5  0  0  0  0  0  0  0  0999 V2000
   -0.6774    0.0000   -0.0005 C   0  0  0  0  0  0  0  0  0  0  0  0
    0.6772    0.0000    0.0002 C   0  0  0  0  0  0  0  0  0  0  0  0
   -1.5167    1.2541   -0.0001 C   0  0  0  0  0  0  0  0  0  0  0  0
   -1.5163   -1.2546    0.0004 C   0  0  0  0  0  0  0  0  0  0  0  0
    1.5170   -1.2540   -0.0002 C   0  0  0  0  0  0  0  0  0  0  0  0
    1.5162    1.2545    0.0002 C   0  0  0  0  0  0  0  0  0  0  0  0
  1  2  2  3
  1  3  1  0
  1  4  1  0
  2  5  1  0
  2  6  1  0
M  END
>  <PUBCHEM_COMPOUND_CID>  (1) 
11250

>  <PUBCHEM_CONFORMER_RMSD>  (1) 
0.4

>  <PUBCHEM_CONFORMER_DIVERSEORDER>  (1) 
1

>  <PUBCHEM_MMFF94_PARTIAL_CHARGES>  (1) 
6
1 -0.28
2 -0.28
3 0.14
4 0.14
5 0.14
6 0.14

>  <PUBCHEM_EFFECTIVE_ROTOR_COUNT>  (1) 
0

>  <PUBCHEM_PHARMACOPHORE_FEATURES>  (1) 
2
3 1 3 4 hydrophobe
3 2 5 6 hydrophobe

>  <PUBCHEM_HEAVY_ATOM_COUNT>  (1) 
6

>  <PUBCHEM_ATOM_DEF_STEREO_COUNT>  (1) 
0

>  <PUBCHEM_ATOM_UDEF_STEREO_COUNT>  (1) 
0

>  <PUBCHEM_BOND_DEF_STEREO_COUNT>  (1) 
0

>  <PUBCHEM_BOND_UDEF_STEREO_COUNT>  (1) 
0

>  <PUBCHEM_ISOTOPIC_ATOM_COUNT>  (1) 
0

>  <PUBCHEM_COMPONENT_COUNT>  (1) 
1

>  <PUBCHEM_CACTVS_TAUTO_COUNT>  (1) 
1

>  <PUBCHEM_CONFORMER_ID>  (1) 
00002BF200000001

>  <PUBCHEM_MMFF94_ENERGY>  (1) 
7.7545

>  <PUBCHEM_FEATURE_SELFOVERLAP>  (1) 
10.171

>  <PUBCHEM_SHAPE_FINGERPRINT>  (1) 
16714656 1 17833838161894584134
20096714 4 18337955580101521937
21040471 1 18266459802145616673
23552423 10 18333453161706189478
24536 1 18338500997950760325
29004967 10 17974293419417018803

>  <PUBCHEM_SHAPE_MULTIPOLES>  (1) 
123.48
2.3
1.67
0.62
0
0
0
0
0
0
0
0
0
0

>  <PUBCHEM_SHAPE_SELFOVERLAP>  (1) 
218.867

>  <PUBCHEM_SHAPE_VOLUME>  (1) 
82.9

>  <PUBCHEM_COORDINATE_TYPE>  (1) 
2
5
10

$$$$
