11252
     RDKit          3D

  6  5  0  0  1  0  0  0  0  0999 V2000
   -1.0243    1.5184    0.6113 Cl  0  0  0  0  0  0  0  0  0  0  0  0
    0.8434   -1.0002    0.9730 O   0  0  0  0  0  0  0  0  0  0  0  0
    0.7454   -0.3868   -0.3133 C   0  0  0  0  0  0  0  0  0  0  0  0
   -0.6827    0.1524   -0.4992 C   0  0  0  0  0  0  0  0  0  0  0  0
    1.8696    0.6336   -0.4566 C   0  0  0  0  0  0  0  0  0  0  0  0
   -1.7514   -0.9175   -0.3152 C   0  0  0  0  0  0  0  0  0  0  0  0
  1  4  1  0
  2  3  1  0
  3  4  1  0
  3  5  1  0
  4  6  1  0
M  END
>  <PUBCHEM_COMPOUND_CID>  (1) 
11252

>  <PUBCHEM_CONFORMER_RMSD>  (1) 
0.4

>  <PUBCHEM_CONFORMER_DIVERSEORDER>  (1) 
2
10
9
8
3
6
5
7
1
4

>  <PUBCHEM_MMFF94_PARTIAL_CHARGES>  (1) 
5
1 -0.29
15 0.4
2 -0.68
3 0.28
4 0.29

>  <PUBCHEM_EFFECTIVE_ROTOR_COUNT>  (1) 
1

>  <PUBCHEM_PHARMACOPHORE_FEATURES>  (1) 
2
1 2 acceptor
1 2 donor

>  <PUBCHEM_HEAVY_ATOM_COUNT>  (1) 
6

>  <PUBCHEM_ATOM_DEF_STEREO_COUNT>  (1) 
0

>  <PUBCHEM_ATOM_UDEF_STEREO_COUNT>  (1) 
2

>  <PUBCHEM_BOND_DEF_STEREO_COUNT>  (1) 
0

>  <PUBCHEM_BOND_UDEF_STEREO_COUNT>  (1) 
0

>  <PUBCHEM_ISOTOPIC_ATOM_COUNT>  (1) 
0

>  <PUBCHEM_COMPONENT_COUNT>  (1) 
1

>  <PUBCHEM_CACTVS_TAUTO_COUNT>  (1) 
1

>  <PUBCHEM_CONFORMER_ID>  (1) 
00002BF400000002

>  <PUBCHEM_MMFF94_ENERGY>  (1) 
5.5644

>  <PUBCHEM_FEATURE_SELFOVERLAP>  (1) 
10.148

>  <PUBCHEM_SHAPE_FINGERPRINT>  (1) 
137420 1 9352070753634015637
139733 1 7997707405858806727
16714656 1 17917721252444177157
20096714 4 18195821669092607516
21040471 1 17770221552914330553
23552333 60 18113888351982187275
24536 1 18128524981771998956
29004967 10 17843695592669506534
5943 1 13671149647872194843

>  <PUBCHEM_SHAPE_MULTIPOLES>  (1) 
119.48
2.2
1.41
0.9
0.33
0.48
0.13
-0.03
-0.27
-0.53
0.24
0.11
-0.08
-0.34

>  <PUBCHEM_SHAPE_SELFOVERLAP>  (1) 
200.856

>  <PUBCHEM_SHAPE_VOLUME>  (1) 
82.7

>  <PUBCHEM_COORDINATE_TYPE>  (1) 
2
5
10

$$$$
