11251
     RDKit          3D

  6  5  0  0  0  0  0  0  0  0999 V2000
   -0.9737    1.0975   -0.7400 O   0  0  0  0  0  0  0  0  0  0  0  0
    0.6955   -0.2544    0.3751 C   0  0  0  0  0  0  0  0  0  0  0  0
    1.2605   -1.2296   -0.6508 C   0  0  0  0  0  0  0  0  0  0  0  0
    1.5873    0.9781    0.5014 C   0  0  0  0  0  0  0  0  0  0  0  0
   -0.7283    0.1379   -0.0089 C   0  0  0  0  0  0  0  0  0  0  0  0
   -1.8411   -0.7296    0.5232 C   0  0  0  0  0  0  0  0  0  0  0  0
  1  5  2  0
  2  3  1  0
  2  4  1  0
  2  5  1  0
  5  6  1  0
M  END
>  <PUBCHEM_COMPOUND_CID>  (1) 
11251

>  <PUBCHEM_CONFORMER_RMSD>  (1) 
0.4

>  <PUBCHEM_CONFORMER_DIVERSEORDER>  (1) 
1
4
2
5
3

>  <PUBCHEM_MMFF94_PARTIAL_CHARGES>  (1) 
4
1 -0.57
2 0.06
5 0.45
6 0.06

>  <PUBCHEM_EFFECTIVE_ROTOR_COUNT>  (1) 
1

>  <PUBCHEM_PHARMACOPHORE_FEATURES>  (1) 
2
1 1 acceptor
3 2 3 4 hydrophobe

>  <PUBCHEM_HEAVY_ATOM_COUNT>  (1) 
6

>  <PUBCHEM_ATOM_DEF_STEREO_COUNT>  (1) 
0

>  <PUBCHEM_ATOM_UDEF_STEREO_COUNT>  (1) 
0

>  <PUBCHEM_BOND_DEF_STEREO_COUNT>  (1) 
0

>  <PUBCHEM_BOND_UDEF_STEREO_COUNT>  (1) 
0

>  <PUBCHEM_ISOTOPIC_ATOM_COUNT>  (1) 
0

>  <PUBCHEM_COMPONENT_COUNT>  (1) 
1

>  <PUBCHEM_CACTVS_TAUTO_COUNT>  (1) 
3

>  <PUBCHEM_CONFORMER_ID>  (1) 
00002BF300000001

>  <PUBCHEM_MMFF94_ENERGY>  (1) 
4.9236

>  <PUBCHEM_FEATURE_SELFOVERLAP>  (1) 
10.148

>  <PUBCHEM_SHAPE_FINGERPRINT>  (1) 
139733 1 9871465370555010507
16714656 1 18049445043523216500
20096714 4 17632014277053378512
21040471 1 17984983962346812520
24536 1 18129370527693915385
29004967 10 17987523610895335186
5943 1 15141233287335362984

>  <PUBCHEM_SHAPE_MULTIPOLES>  (1) 
117.61
2.21
1.29
0.85
0.4
0.12
-0.04
0.1
0.31
-0.39
-0.19
0.05
-0.04
0.45

>  <PUBCHEM_SHAPE_SELFOVERLAP>  (1) 
208.711

>  <PUBCHEM_SHAPE_VOLUME>  (1) 
77.9

>  <PUBCHEM_COORDINATE_TYPE>  (1) 
2
5
10

$$$$
