11257
     RDKit          3D

 20 21  0  0  0  0  0  0  0  0999 V2000
   -1.2758    1.7444   -0.3602 S   0  0  0  0  0  0  0  0  0  0  0  0
   -1.3205    2.1195   -1.7665 O   0  0  0  0  0  0  0  0  0  0  0  0
   -1.4892    2.7569    0.6659 O   0  0  0  0  0  0  0  0  0  0  0  0
    4.7951   -1.2011   -1.3783 O   0  0  0  0  0  0  0  0  0  0  0  0
    4.1192   -0.4534    0.7534 N   0  0  0  0  0  0  0  0  0  0  0  0
   -5.2679   -2.6065    0.3408 N   0  0  0  0  0  0  0  0  0  0  0  0
    0.3366    1.0874   -0.0271 C   0  0  0  0  0  0  0  0  0  0  0  0
   -2.4478    0.4668   -0.1545 C   0  0  0  0  0  0  0  0  0  0  0  0
    1.0661    0.5417   -1.0659 C   0  0  0  0  0  0  0  0  0  0  0  0
    0.8272    1.1362    1.2637 C   0  0  0  0  0  0  0  0  0  0  0  0
   -3.0355    0.2536    1.0926 C   0  0  0  0  0  0  0  0  0  0  0  0
   -2.7966   -0.3410   -1.2370 C   0  0  0  0  0  0  0  0  0  0  0  0
    2.8498    0.0635    0.4916 C   0  0  0  0  0  0  0  0  0  0  0  0
    2.3348    0.0246   -0.8039 C   0  0  0  0  0  0  0  0  0  0  0  0
    2.0961    0.6193    1.5255 C   0  0  0  0  0  0  0  0  0  0  0  0
   -3.9716   -0.7673    1.2573 C   0  0  0  0  0  0  0  0  0  0  0  0
   -3.7329   -1.3618   -1.0722 C   0  0  0  0  0  0  0  0  0  0  0  0
   -4.3204   -1.5749    0.1749 C   0  0  0  0  0  0  0  0  0  0  0  0
    4.9736   -1.0326   -0.1767 C   0  0  0  0  0  0  0  0  0  0  0  0
    6.2595   -1.4751    0.4767 C   0  0  0  0  0  0  0  0  0  0  0  0
  1  2  2  0
  1  3  2  0
  1  7  1  0
  1  8  1  0
  4 19  2  0
  5 13  1  0
  5 19  1  0
  6 18  1  0
  7  9  2  0
  7 10  1  0
  8 11  2  0
  8 12  1  0
  9 14  1  0
 10 15  2  0
 11 16  1  0
 12 17  2  0
 13 14  2  0
 13 15  1  0
 16 18  2  0
 17 18  1  0
 19 20  1  0
M  END
>  <PUBCHEM_COMPOUND_CID>  (1) 
11257

>  <PUBCHEM_CONFORMER_RMSD>  (1) 
0.6

>  <PUBCHEM_CONFORMER_DIVERSEORDER>  (1) 
1
2
4
3

>  <PUBCHEM_MMFF94_PARTIAL_CHARGES>  (1) 
31
1 1.32
10 -0.15
11 -0.15
12 -0.15
13 0.12
14 -0.15
15 -0.15
16 -0.15
17 -0.15
18 0.1
19 0.57
2 -0.65
20 0.06
21 0.15
22 0.15
23 0.15
24 0.15
25 0.15
26 0.15
27 0.15
28 0.15
29 0.37
3 -0.65
30 0.4
31 0.4
4 -0.57
5 -0.55
6 -0.9
7 -0.01
8 -0.01
9 -0.15

>  <PUBCHEM_EFFECTIVE_ROTOR_COUNT>  (1) 
4

>  <PUBCHEM_PHARMACOPHORE_FEATURES>  (1) 
8
1 2 acceptor
1 3 acceptor
1 4 acceptor
1 5 donor
1 6 cation
1 6 donor
6 7 9 10 13 14 15 rings
6 8 11 12 16 17 18 rings

>  <PUBCHEM_HEAVY_ATOM_COUNT>  (1) 
20

>  <PUBCHEM_ATOM_DEF_STEREO_COUNT>  (1) 
0

>  <PUBCHEM_ATOM_UDEF_STEREO_COUNT>  (1) 
0

>  <PUBCHEM_BOND_DEF_STEREO_COUNT>  (1) 
0

>  <PUBCHEM_BOND_UDEF_STEREO_COUNT>  (1) 
0

>  <PUBCHEM_ISOTOPIC_ATOM_COUNT>  (1) 
0

>  <PUBCHEM_COMPONENT_COUNT>  (1) 
1

>  <PUBCHEM_CACTVS_TAUTO_COUNT>  (1) 
2

>  <PUBCHEM_CONFORMER_ID>  (1) 
00002BF900000001

>  <PUBCHEM_MMFF94_ENERGY>  (1) 
53.4332

>  <PUBCHEM_FEATURE_SELFOVERLAP>  (1) 
40.614

>  <PUBCHEM_SHAPE_FINGERPRINT>  (1) 
10014705 185 8934994876037906038
10042902 136 18338800138302637007
10498660 4 8069761684467149855
11046707 91 18409446981606857485
11089746 13 11746938711720697790
11370993 144 16845019991698653710
11796584 16 18338232648732015182
12363563 72 18335138743423219841
12403259 118 14261356894679893283
12553582 1 17603864516219605657
12596602 18 14333404562774509206
12633257 1 16486976253806744607
12670546 177 15574715789873613418
12892183 10 15913066286959681311
13103583 49 17774735228819931443
13288520 33 18410293596806741139
13544653 18 18411134774763047153
13675066 3 14548738400383363912
14123255 352 9079116661189050178
1420 369 18410857689359009475
14251732 14 18337124418742479230
14251740 79 17603310344957928026
14251757 5 16878801520284939026
14251758 9 12823307767057665420
14251764 30 18409168843656829371
14251764 38 9150014249222877502
14341114 328 15482115006608258875
14576447 43 17530679909957270626
15209289 33 18201722859573260779
15209294 21 12823287984147954540
17780758 139 17632295653129946475
1813 80 18410022060395306189
18785283 64 17774147046376868528
193927 3 18335710458914554679
19784866 240 18262238932406252455
200 152 16877665651515920972
20361792 2 18188485904180764757
20871999 31 16443342074733952713
21054139 6 17822290155194625042
21713013 43 16588305059574390571
22393880 68 15140961789789311690
23379529 103 17751092502943995587
23402539 116 17168429238724433892
23402655 69 13623519152170738751
23559900 14 18335126609745612844
270888 7 9727368917464655659
312423 11 18409740577066245268
3286 77 17988924521794871641
3472631 163 8790893964866404875
351380 3 18333452053578552355
3737641 26 18058741186819496894
4028521 119 11458418046765664887
5104073 3 17988635247779927314
5352402 22 17704078386752022726
59755656 520 18051406271936684021
7495541 125 18342173367695069040
7970288 3 18334295409125611955

>  <PUBCHEM_SHAPE_MULTIPOLES>  (1) 
387.87
11.76
2.21
1.46
9.87
0.3
-0.1
-10.97
0.99
-1.92
-0.07
-0.19
0.23
0.5

>  <PUBCHEM_SHAPE_SELFOVERLAP>  (1) 
816.72

>  <PUBCHEM_SHAPE_VOLUME>  (1) 
218.1

>  <PUBCHEM_COORDINATE_TYPE>  (1) 
2
5
10

$$$$
