11267
     RDKit          3D

  7  6  0  0  1  0  0  0  0  0999 V2000
    0.5020    1.5638    0.2195 O   0  0  0  0  0  0  0  0  0  0  0  0
   -1.5002   -1.3937    0.2738 O   0  0  0  0  0  0  0  0  0  0  0  0
   -1.9486    0.7146   -0.4517 O   0  0  0  0  0  0  0  0  0  0  0  0
    2.6170   -0.3343   -0.0508 N   0  0  0  0  0  0  0  0  0  0  0  0
    0.2614    0.1776    0.4236 C   0  0  0  0  0  0  0  0  0  0  0  0
    1.2380   -0.6258   -0.4329 C   0  0  0  0  0  0  0  0  0  0  0  0
   -1.1697   -0.1022    0.0184 C   0  0  0  0  0  0  0  0  0  0  0  0
  1  5  1  0
  2  7  1  0
  3  7  2  0
  4  6  1  0
  5  6  1  0
  5  7  1  0
M  END
>  <PUBCHEM_COMPOUND_CID>  (1) 
11267

>  <PUBCHEM_CONFORMER_RMSD>  (1) 
0.4

>  <PUBCHEM_CONFORMER_DIVERSEORDER>  (1) 
1
9
11
5
8
6
4
12
3
10
2
7

>  <PUBCHEM_MMFF94_PARTIAL_CHARGES>  (1) 
11
1 -0.68
11 0.36
12 0.36
13 0.4
14 0.5
2 -0.65
3 -0.57
4 -0.99
5 0.34
6 0.27
7 0.66

>  <PUBCHEM_EFFECTIVE_ROTOR_COUNT>  (1) 
2

>  <PUBCHEM_PHARMACOPHORE_FEATURES>  (1) 
7
1 1 acceptor
1 1 donor
1 2 acceptor
1 3 acceptor
1 4 cation
1 4 donor
3 2 3 7 anion

>  <PUBCHEM_HEAVY_ATOM_COUNT>  (1) 
7

>  <PUBCHEM_ATOM_DEF_STEREO_COUNT>  (1) 
0

>  <PUBCHEM_ATOM_UDEF_STEREO_COUNT>  (1) 
1

>  <PUBCHEM_BOND_DEF_STEREO_COUNT>  (1) 
0

>  <PUBCHEM_BOND_UDEF_STEREO_COUNT>  (1) 
0

>  <PUBCHEM_ISOTOPIC_ATOM_COUNT>  (1) 
0

>  <PUBCHEM_COMPONENT_COUNT>  (1) 
1

>  <PUBCHEM_CACTVS_TAUTO_COUNT>  (1) 
1

>  <PUBCHEM_CONFORMER_ID>  (1) 
00002C0300000001

>  <PUBCHEM_MMFF94_ENERGY>  (1) 
0.6347

>  <PUBCHEM_FEATURE_SELFOVERLAP>  (1) 
35.588

>  <PUBCHEM_SHAPE_FINGERPRINT>  (1) 
139733 1 7997967959944264858
16714656 1 18263083227716979013
20096714 4 18334289860085023429
21040471 1 18191016811937505345
24536 1 18268977847166525929
29004967 10 18202289103982544722
5460574 1 9079108964538908614

>  <PUBCHEM_SHAPE_MULTIPOLES>  (1) 
121.47
2.7
1.24
0.66
0.91
0.15
-0.01
-0.41
-0.26
-0.23
0.08
-0.02
-0.01
0.22

>  <PUBCHEM_SHAPE_SELFOVERLAP>  (1) 
223.927

>  <PUBCHEM_SHAPE_VOLUME>  (1) 
76.7

>  <PUBCHEM_COORDINATE_TYPE>  (1) 
2
5
10

$$$$
