11262
     RDKit          3D

  7  6  0  0  1  0  0  0  0  0999 V2000
    0.7996    0.9829   -1.1346 O   0  0  0  0  0  0  0  0  0  0  0  0
   -0.2137   -0.6536    0.3314 C   0  0  0  0  0  0  0  0  0  0  0  0
   -1.6049   -0.2296   -0.1608 C   0  0  0  0  0  0  0  0  0  0  0  0
    0.1595   -2.0277   -0.2191 C   0  0  0  0  0  0  0  0  0  0  0  0
    0.8644    0.3434   -0.0848 C   0  0  0  0  0  0  0  0  0  0  0  0
   -2.0538    1.1003    0.4314 C   0  0  0  0  0  0  0  0  0  0  0  0
    2.0490    0.4842    0.8366 C   0  0  0  0  0  0  0  0  0  0  0  0
  1  5  2  0
  2  3  1  0
  2  4  1  0
  2  5  1  0
  3  6  1  0
  5  7  1  0
M  END
>  <PUBCHEM_COMPOUND_CID>  (1) 
11262

>  <PUBCHEM_CONFORMER_RMSD>  (1) 
0.4

>  <PUBCHEM_CONFORMER_DIVERSEORDER>  (1) 
1
7
8
11
18
19
5
15
10
12
13
16
2
17
14
6
4
3
9

>  <PUBCHEM_MMFF94_PARTIAL_CHARGES>  (1) 
4
1 -0.57
2 0.06
5 0.45
7 0.06

>  <PUBCHEM_EFFECTIVE_ROTOR_COUNT>  (1) 
2

>  <PUBCHEM_PHARMACOPHORE_FEATURES>  (1) 
3
1 1 acceptor
1 4 hydrophobe
1 6 hydrophobe

>  <PUBCHEM_HEAVY_ATOM_COUNT>  (1) 
7

>  <PUBCHEM_ATOM_DEF_STEREO_COUNT>  (1) 
0

>  <PUBCHEM_ATOM_UDEF_STEREO_COUNT>  (1) 
1

>  <PUBCHEM_BOND_DEF_STEREO_COUNT>  (1) 
0

>  <PUBCHEM_BOND_UDEF_STEREO_COUNT>  (1) 
0

>  <PUBCHEM_ISOTOPIC_ATOM_COUNT>  (1) 
0

>  <PUBCHEM_COMPONENT_COUNT>  (1) 
1

>  <PUBCHEM_CACTVS_TAUTO_COUNT>  (1) 
3

>  <PUBCHEM_CONFORMER_ID>  (1) 
00002BFE00000001

>  <PUBCHEM_MMFF94_ENERGY>  (1) 
4.7566

>  <PUBCHEM_FEATURE_SELFOVERLAP>  (1) 
15.223

>  <PUBCHEM_SHAPE_FINGERPRINT>  (1) 
18185500 45 17467627534787906542
20096714 4 18334304183727102589
21040471 1 18411989086697039675
23552449 1 17624122098421346512
24536 1 18115038428360126841
29004967 10 17683262273516522171
5084963 1 17968650622568864723
5943 1 11348046350649340414

>  <PUBCHEM_SHAPE_MULTIPOLES>  (1) 
138.19
2.43
1.62
0.89
0.41
0.91
-0.11
-1.08
0.53
0
-0.07
-0.23
-0.21
-0.08

>  <PUBCHEM_SHAPE_SELFOVERLAP>  (1) 
247.562

>  <PUBCHEM_SHAPE_VOLUME>  (1) 
90.4

>  <PUBCHEM_COORDINATE_TYPE>  (1) 
2
5
10

$$$$
