11286
     RDKit          3D

 16 17  0  0  0  0  0  0  0  0999 V2000
    3.5391    0.0118    0.0005 O   0  0  0  0  0  0  0  0  0  0  0  0
   -1.1315    2.6358    0.0005 O   0  0  0  0  0  0  0  0  0  0  0  0
   -3.2597   -1.5457    0.0001 O   0  0  0  0  0  0  0  0  0  0  0  0
    1.4283    1.0882   -0.0005 N   0  0  0  0  0  0  0  0  0  0  0  0
   -0.9332   -1.4988    0.0000 N   0  0  0  0  0  0  0  0  0  0  0  0
   -2.2199    0.5532   -0.0001 N   0  0  0  0  0  0  0  0  0  0  0  0
    1.5015   -1.1400   -0.0003 N   0  0  0  0  0  0  0  0  0  0  0  0
    0.1307    0.6633   -0.0010 C   0  0  0  0  0  0  0  0  0  0  0  0
    0.2041   -0.7029   -0.0007 C   0  0  0  0  0  0  0  0  0  0  0  0
   -1.0861    1.4087   -0.0005 C   0  0  0  0  0  0  0  0  0  0  0  0
   -2.2126   -0.8886   -0.0005 C   0  0  0  0  0  0  0  0  0  0  0  0
    2.2163   -0.0337   -0.0001 C   0  0  0  0  0  0  0  0  0  0  0  0
    1.8957    2.4548    0.0000 C   0  0  0  0  0  0  0  0  0  0  0  0
   -0.8039   -2.9508    0.0004 C   0  0  0  0  0  0  0  0  0  0  0  0
   -3.5381    1.1791    0.0013 C   0  0  0  0  0  0  0  0  0  0  0  0
    4.2691   -1.2345    0.0009 C   0  0  0  0  0  0  0  0  0  0  0  0
  1 12  1  0
  1 16  1  0
  2 10  2  0
  3 11  2  0
  4  8  1  0
  4 12  1  0
  4 13  1  0
  5  9  1  0
  5 11  1  0
  5 14  1  0
  6 10  1  0
  6 11  1  0
  6 15  1  0
  7  9  1  0
  7 12  2  0
  8  9  2  0
  8 10  1  0
M  END
>  <PUBCHEM_COMPOUND_CID>  (1) 
11286

>  <PUBCHEM_CONFORMER_RMSD>  (1) 
0.6

>  <PUBCHEM_CONFORMER_DIVERSEORDER>  (1) 
1

>  <PUBCHEM_MMFF94_PARTIAL_CHARGES>  (1) 
16
1 -0.34
10 0.71
11 0.69
12 0.25
13 0.26
14 0.3
15 0.3
16 0.28
2 -0.57
3 -0.57
4 0.05
5 -0.42
6 -0.42
7 -0.57
8 -0.24
9 0.29

>  <PUBCHEM_EFFECTIVE_ROTOR_COUNT>  (1) 
1

>  <PUBCHEM_PHARMACOPHORE_FEATURES>  (1) 
5
1 2 acceptor
1 3 acceptor
3 4 7 12 cation
5 4 7 8 9 12 rings
6 5 6 8 9 10 11 rings

>  <PUBCHEM_HEAVY_ATOM_COUNT>  (1) 
16

>  <PUBCHEM_ATOM_DEF_STEREO_COUNT>  (1) 
0

>  <PUBCHEM_ATOM_UDEF_STEREO_COUNT>  (1) 
0

>  <PUBCHEM_BOND_DEF_STEREO_COUNT>  (1) 
0

>  <PUBCHEM_BOND_UDEF_STEREO_COUNT>  (1) 
0

>  <PUBCHEM_ISOTOPIC_ATOM_COUNT>  (1) 
0

>  <PUBCHEM_COMPONENT_COUNT>  (1) 
1

>  <PUBCHEM_CACTVS_TAUTO_COUNT>  (1) 
1

>  <PUBCHEM_CONFORMER_ID>  (1) 
00002C1600000001

>  <PUBCHEM_MMFF94_ENERGY>  (1) 
29.3166

>  <PUBCHEM_FEATURE_SELFOVERLAP>  (1) 
25.487

>  <PUBCHEM_SHAPE_FINGERPRINT>  (1) 
10608611 8 18339639052689260992
10967382 1 18194682570708838819
11132069 177 18411976927903139656
12032990 46 18337394945278021451
13140716 1 18411144644993435185
13380535 76 18340205172423427391
14614273 12 18044373812327917109
14911166 2 18337947892331608517
15196674 1 18410575101858830820
15442244 35 18410573998479458218
15536298 74 18342458200861535792
16945 1 18410575050329766276
17804303 29 18413110554682877518
193761 8 18122625225720978789
20510252 161 18343863294932663632
20711985 365 18410292553124419974
20871998 184 18273215296081260551
21267235 1 18410020960989231411
21501502 16 18339646757923770116
2334 1 18194683897816777541
23366157 5 17969499489118205548
23402539 116 18270669883713110766
23463225 33 18409731806594781532
23552423 10 18117558646376063852
23559900 14 18342736304874059288
2748010 2 18410291458308790133
335352 9 18338517430516825204
43471831 8 18261388880309847090
5104073 3 18411136952632980192
528886 8 18411131403519330753
54173680 148 18337674221105038442
7364860 26 18197780105987731376
8809292 202 18335424564474434442

>  <PUBCHEM_SHAPE_MULTIPOLES>  (1) 
291.74
5.59
2.82
0.58
2.59
0.09
0
0.77
0
-0.65
0
0.01
0
0

>  <PUBCHEM_SHAPE_SELFOVERLAP>  (1) 
622.272

>  <PUBCHEM_SHAPE_VOLUME>  (1) 
164

>  <PUBCHEM_COORDINATE_TYPE>  (1) 
2
5
10

$$$$
