11298
     RDKit          3D

 11 11  0  0  0  0  0  0  0  0999 V2000
   -2.8712    0.7952   -0.0003 O   0  0  0  0  0  0  0  0  0  0  0  0
   -2.2934   -1.3227   -0.0005 O   0  0  0  0  0  0  0  0  0  0  0  0
    0.0635   -2.0682    0.0004 N   0  0  0  0  0  0  0  0  0  0  0  0
   -1.9990   -0.1045    0.0000 N   0  0  0  0  0  0  0  0  0  0  0  0
    1.7236   -0.2936   -0.0003 C   0  0  0  0  0  0  0  0  0  0  0  0
    0.3862   -0.6901    0.0001 C   0  0  0  0  0  0  0  0  0  0  0  0
   -0.6258    0.2701    0.0005 C   0  0  0  0  0  0  0  0  0  0  0  0
    2.0490    1.0628   -0.0004 C   0  0  0  0  0  0  0  0  0  0  0  0
   -0.3001    1.6265    0.0005 C   0  0  0  0  0  0  0  0  0  0  0  0
    1.0372    2.0229    0.0000 C   0  0  0  0  0  0  0  0  0  0  0  0
    2.8300   -1.2983   -0.0001 C   0  0  0  0  0  0  0  0  0  0  0  0
  1  4  1  0
  2  4  2  0
  3  6  1  0
  4  7  1  0
  5  6  2  0
  5  8  1  0
  5 11  1  0
  6  7  1  0
  7  9  2  0
  8 10  2  0
  9 10  1  0
M  CHG  2   1  -1   4   1
M  END
>  <PUBCHEM_COMPOUND_CID>  (1) 
11298

>  <PUBCHEM_CONFORMER_RMSD>  (1) 
0.4

>  <PUBCHEM_CONFORMER_DIVERSEORDER>  (1) 
1

>  <PUBCHEM_MMFF94_PARTIAL_CHARGES>  (1) 
16
1 -0.52
10 -0.15
11 0.14
12 0.15
13 0.15
14 0.15
18 0.4
19 0.4
2 -0.52
3 -0.9
4 0.91
5 -0.14
6 0.1
7 0.13
8 -0.15
9 -0.15

>  <PUBCHEM_EFFECTIVE_ROTOR_COUNT>  (1) 
1

>  <PUBCHEM_PHARMACOPHORE_FEATURES>  (1) 
6
1 1 acceptor
1 1 anion
1 2 acceptor
1 3 cation
1 3 donor
6 5 6 7 8 9 10 rings

>  <PUBCHEM_HEAVY_ATOM_COUNT>  (1) 
11

>  <PUBCHEM_ATOM_DEF_STEREO_COUNT>  (1) 
0

>  <PUBCHEM_ATOM_UDEF_STEREO_COUNT>  (1) 
0

>  <PUBCHEM_BOND_DEF_STEREO_COUNT>  (1) 
0

>  <PUBCHEM_BOND_UDEF_STEREO_COUNT>  (1) 
0

>  <PUBCHEM_ISOTOPIC_ATOM_COUNT>  (1) 
0

>  <PUBCHEM_COMPONENT_COUNT>  (1) 
1

>  <PUBCHEM_CACTVS_TAUTO_COUNT>  (1) 
1

>  <PUBCHEM_CONFORMER_ID>  (1) 
00002C2200000001

>  <PUBCHEM_MMFF94_ENERGY>  (1) 
48.6768

>  <PUBCHEM_FEATURE_SELFOVERLAP>  (1) 
30.527

>  <PUBCHEM_SHAPE_FINGERPRINT>  (1) 
12423570 1 17823967047132564148
14128692 85 18411142420115765148
14325111 11 18410855503151850181
16945 1 18266740177615863876
17990270 104 18337109067827645346
18185500 45 18339080367569429035
193761 8 18050567649168946598
19973954 147 18337674229868643529
21040471 1 18194401327739717280
23402655 69 18340753880972248885
23552423 10 18334016133086805596
241688 4 18338237038177964584
2748010 2 18410291440749021900
5084963 1 18202001023182531162
528886 8 18411413990560287656
63268167 104 18412549829026942433
66348 1 18338797788844132602

>  <PUBCHEM_SHAPE_MULTIPOLES>  (1) 
204.67
3.52
2.1
0.58
0.9
0.12
0
-0.72
0
-0.42
0
-0.07
0.03
0

>  <PUBCHEM_SHAPE_SELFOVERLAP>  (1) 
430.023

>  <PUBCHEM_SHAPE_VOLUME>  (1) 
116.3

>  <PUBCHEM_COORDINATE_TYPE>  (1) 
2
5
10

$$$$
