113
     RDKit          3D

 13 12  0  0  1  0  0  0  0  0999 V2000
   -2.5458    0.3389    0.2785 P   0  0  0  0  0  0  0  0  0  0  0  0
   -1.0910   -0.3643    0.3018 O   0  0  0  0  0  0  0  0  0  0  0  0
    0.7038   -2.5031   -0.1304 O   0  0  0  0  0  0  0  0  0  0  0  0
   -3.3783   -0.5330   -0.7995 O   0  0  0  0  0  0  0  0  0  0  0  0
   -2.2589    1.7239   -0.5054 O   0  0  0  0  0  0  0  0  0  0  0  0
    2.2116   -0.8082    1.3408 O   0  0  0  0  0  0  0  0  0  0  0  0
   -3.1994    0.4939    1.6205 O   0  0  0  0  0  0  0  0  0  0  0  0
    3.0098    1.5091    0.7519 O   0  0  0  0  0  0  0  0  0  0  0  0
    1.9533    1.3933   -1.2818 O   0  0  0  0  0  0  0  0  0  0  0  0
    0.9338   -1.2206   -0.6940 C   0  0  0  0  0  0  0  0  0  0  0  0
   -0.4095   -0.5452   -0.9348 C   0  0  0  0  0  0  0  0  0  0  0  0
    1.8222   -0.4287    0.2455 C   0  0  0  0  0  0  0  0  0  0  0  0
    2.2482    0.9439   -0.1933 C   0  0  0  0  0  0  0  0  0  0  0  0
  1  2  1  0
  1  4  1  0
  1  5  1  0
  1  7  2  0
  2 11  1  0
  3 10  1  0
  6 12  2  0
  8 13  1  0
  9 13  2  0
 10 11  1  0
 10 12  1  0
 12 13  1  0
M  END
>  <PUBCHEM_COMPOUND_CID>  (1) 
113

>  <PUBCHEM_CONFORMER_RMSD>  (1) 
0.6

>  <PUBCHEM_CONFORMER_DIVERSEORDER>  (1) 
1
25
47
45
5
46
33
50
53
18
4
19
37
7
13
21
55
44
3
20
32
14
35
24
54
34
11
39
2
26
22
56
30
15
41
38
51
43
16
8
40
49
6
29
17
42
12
52
9
36
57
48
23
10
28
27
31

>  <PUBCHEM_MMFF94_PARTIAL_CHARGES>  (1) 
17
1 1.51
10 0.34
11 0.28
12 0.51
13 0.72
17 0.4
18 0.5
19 0.5
2 -0.55
20 0.5
3 -0.68
4 -0.77
5 -0.77
6 -0.57
7 -0.7
8 -0.65
9 -0.57

>  <PUBCHEM_EFFECTIVE_ROTOR_COUNT>  (1) 
5

>  <PUBCHEM_PHARMACOPHORE_FEATURES>  (1) 
10
1 3 acceptor
1 3 donor
1 4 acceptor
1 5 acceptor
1 6 acceptor
1 7 acceptor
1 8 acceptor
1 9 acceptor
3 8 9 13 anion
4 1 4 5 7 anion

>  <PUBCHEM_HEAVY_ATOM_COUNT>  (1) 
13

>  <PUBCHEM_ATOM_DEF_STEREO_COUNT>  (1) 
0

>  <PUBCHEM_ATOM_UDEF_STEREO_COUNT>  (1) 
1

>  <PUBCHEM_BOND_DEF_STEREO_COUNT>  (1) 
0

>  <PUBCHEM_BOND_UDEF_STEREO_COUNT>  (1) 
0

>  <PUBCHEM_ISOTOPIC_ATOM_COUNT>  (1) 
0

>  <PUBCHEM_COMPONENT_COUNT>  (1) 
1

>  <PUBCHEM_CACTVS_TAUTO_COUNT>  (1) 
8

>  <PUBCHEM_CONFORMER_ID>  (1) 
0000007100000001

>  <PUBCHEM_MMFF94_ENERGY>  (1) 
-16.8207

>  <PUBCHEM_FEATURE_SELFOVERLAP>  (1) 
50.863

>  <PUBCHEM_SHAPE_FINGERPRINT>  (1) 
12696612 119 18113903732043965484
12932764 1 18267315244073019039
15775835 57 18201438107552145737
19837323 101 17841718701244345758
19973954 147 18193842544057515077
20361792 2 8142094151578731066
21028194 46 18342738546008360718
21524375 3 18200589323588735558
22802520 49 14189310230800788523
230 275 18259990383228513860
305870 269 18410848854874746378
3248919 1 18272367547252655459
5084963 1 18130788932074811094
81228 2 17692818502772984430

>  <PUBCHEM_SHAPE_MULTIPOLES>  (1) 
224.43
5.16
1.8
1.2
2.86
0.4
0.19
-1.93
1.01
-0.8
-0.2
0.11
-0.14
-0.32

>  <PUBCHEM_SHAPE_SELFOVERLAP>  (1) 
425.854

>  <PUBCHEM_SHAPE_VOLUME>  (1) 
137.8

>  <PUBCHEM_COORDINATE_TYPE>  (1) 
2
5
10

$$$$
