11302
     RDKit          3D

 21 24  0  0  1  0  0  0  0  0999 V2000
   -4.9363   -1.1166   -0.6386 O   0  0  0  0  0  0  0  0  0  0  0  0
    4.9423   -0.1323   -1.7078 O   0  0  0  0  0  0  0  0  0  0  0  0
   -0.5020    0.8227    0.4494 C   0  0  0  0  0  0  0  0  0  0  0  0
    0.3933   -0.4278    0.1680 C   0  0  0  0  0  0  0  0  0  0  0  0
   -1.7835    0.7039   -0.3825 C   0  0  0  0  0  0  0  0  0  0  0  0
   -2.5972   -0.5602   -0.0428 C   0  0  0  0  0  0  0  0  0  0  0  0
    1.7542   -0.3620    0.9539 C   0  0  0  0  0  0  0  0  0  0  0  0
    2.4852    0.9818    0.6168 C   0  0  0  0  0  0  0  0  0  0  0  0
   -0.3895   -1.7553    0.3583 C   0  0  0  0  0  0  0  0  0  0  0  0
   -1.7384   -1.7844   -0.3842 C   0  0  0  0  0  0  0  0  0  0  0  0
    0.2466    2.1268    0.1435 C   0  0  0  0  0  0  0  0  0  0  0  0
   -2.8197    1.8229   -0.3171 C   0  0  0  0  0  0  0  0  0  0  0  0
   -3.8043   -0.3377   -0.9748 C   0  0  0  0  0  0  0  0  0  0  0  0
    1.5893    2.2071    0.8661 C   0  0  0  0  0  0  0  0  0  0  0  0
   -4.1112    1.1657   -0.8365 C   0  0  0  0  0  0  0  0  0  0  0  0
    2.7117   -1.5385    0.6022 C   0  0  0  0  0  0  0  0  0  0  0  0
   -3.0657   -0.6526    1.4318 C   0  0  0  0  0  0  0  0  0  0  0  0
    1.5198   -0.4488    2.4854 C   0  0  0  0  0  0  0  0  0  0  0  0
    3.0419    1.0242   -0.8189 C   0  0  0  0  0  0  0  0  0  0  0  0
    3.2088   -1.5328   -0.8345 C   0  0  0  0  0  0  0  0  0  0  0  0
    3.8548   -0.2062   -1.1377 C   0  0  0  0  0  0  0  0  0  0  0  0
  1 13  1  0
  2 21  2  0
  3  4  1  0
  3  5  1  0
  3 11  1  0
  4  7  1  0
  4  9  1  0
  5  6  1  0
  5 12  1  0
  6 10  1  0
  6 13  1  0
  6 17  1  0
  7  8  1  0
  7 16  1  0
  7 18  1  0
  8 14  1  0
  8 19  1  0
  9 10  1  0
 11 14  1  0
 12 15  1  0
 13 15  1  0
 16 20  1  0
 19 21  1  0
 20 21  1  0
M  END
>  <PUBCHEM_COMPOUND_CID>  (1) 
11302

>  <PUBCHEM_CONFORMER_RMSD>  (1) 
0.6

>  <PUBCHEM_CONFORMER_DIVERSEORDER>  (1) 
1
2

>  <PUBCHEM_MMFF94_PARTIAL_CHARGES>  (1) 
7
1 -0.68
13 0.28
19 0.06
2 -0.57
20 0.06
21 0.45
51 0.4

>  <PUBCHEM_EFFECTIVE_ROTOR_COUNT>  (1) 
2

>  <PUBCHEM_PHARMACOPHORE_FEATURES>  (1) 
7
1 1 acceptor
1 1 donor
1 2 acceptor
5 5 6 12 13 15 rings
6 3 4 5 6 9 10 rings
6 3 4 7 8 11 14 rings
6 7 8 16 19 20 21 rings

>  <PUBCHEM_HEAVY_ATOM_COUNT>  (1) 
21

>  <PUBCHEM_ATOM_DEF_STEREO_COUNT>  (1) 
7

>  <PUBCHEM_ATOM_UDEF_STEREO_COUNT>  (1) 
0

>  <PUBCHEM_BOND_DEF_STEREO_COUNT>  (1) 
0

>  <PUBCHEM_BOND_UDEF_STEREO_COUNT>  (1) 
0

>  <PUBCHEM_ISOTOPIC_ATOM_COUNT>  (1) 
0

>  <PUBCHEM_COMPONENT_COUNT>  (1) 
1

>  <PUBCHEM_CACTVS_TAUTO_COUNT>  (1) 
3

>  <PUBCHEM_CONFORMER_ID>  (1) 
00002C2600000001

>  <PUBCHEM_MMFF94_ENERGY>  (1) 
73.9677

>  <PUBCHEM_FEATURE_SELFOVERLAP>  (1) 
35.655

>  <PUBCHEM_SHAPE_FINGERPRINT>  (1) 
10366900 7 17968379043597880483
10498660 4 17894622639354213117
10759866 29 17676767565626083040
10863032 1 17095249098558290994
10967382 1 18338222890618910425
11578080 2 17131821024315115624
11961588 58 17604150444924109452
12236239 1 17822283557818467738
12553582 1 18272097067233726890
12788726 201 18055924186341606936
12892183 10 10951767422577297206
13134695 92 16343701053975641632
13140716 1 18265884783566391169
13221675 6 18336263539159503147
13224815 77 18113897173797508009
13296908 3 18412255134388658497
13544653 18 16271654373829193348
14289901 80 15647044937619014009
14790565 3 17765726719347723921
15163728 17 16372390495447658847
15196674 1 18410565176606225629
15238133 3 17896867786010348945
15536298 74 18272642489246492425
15635459 17 18412260670353472669
16752209 62 18339913810584943169
16945 1 18264766734595715929
1813 80 14189585126441612992
18186145 218 18131347514341644683
19862831 5 18409730642558566988
200 152 16917356917867451222
20233049 118 18335134276583411420
20645476 183 17676490561847821731
20645477 70 18201152251735212604
20871999 31 18410581664616273662
21069387 34 14979950371964007406
21637258 2 15841276935520801270
21756936 100 11676321499453998206
221357 26 18341891892333178221
22182313 1 18195816399594776170
22907989 373 17896021175474841437
2334 1 18409158922477151673
23402539 116 18339924818981495622
23493267 7 17967257481164856139
23557571 272 18201710748376935568
23559900 14 18202273727783639560
2748010 2 18337659901857965065
2838139 119 16009610095654042228
296302 2 14129059222707665749
3004659 81 18262520269928458534
3323516 105 18413108380954737212
474 4 16298396789775820614
4990 188 18343019990788379756
7364860 26 18129936918238297016
74978 22 18343015627228226883
9709674 26 18269547415738409927
9981440 41 17393616096520800388

>  <PUBCHEM_SHAPE_MULTIPOLES>  (1) 
420.43
8.1
2.1
1.49
1.92
0.46
-0.51
-0.87
3.88
0.07
-0.1
-1.01
-0.19
0.29

>  <PUBCHEM_SHAPE_SELFOVERLAP>  (1) 
895.307

>  <PUBCHEM_SHAPE_VOLUME>  (1) 
231.7

>  <PUBCHEM_COORDINATE_TYPE>  (1) 
2
5
10

$$$$
