11307
     RDKit          3D

 24 26  0  0  0  0  0  0  0  0999 V2000
    3.2748   -0.2321    2.3702 S   0  0  0  0  0  0  0  0  0  0  0  0
    3.4940   -0.0357    0.4422 P   0  0  0  0  0  0  0  0  0  0  0  0
   -1.5404   -1.6164    0.1757 O   0  0  0  0  0  0  0  0  0  0  0  0
   -3.4128   -2.8950    0.3647 O   0  0  0  0  0  0  0  0  0  0  0  0
    2.4472    0.9489   -0.3196 O   0  0  0  0  0  0  0  0  0  0  0  0
    4.9214    0.5723   -0.0530 O   0  0  0  0  0  0  0  0  0  0  0  0
    3.4038   -1.3861   -0.4608 O   0  0  0  0  0  0  0  0  0  0  0  0
   -4.0423    1.9116   -0.1525 C   0  0  0  0  0  0  0  0  0  0  0  0
   -5.5111    1.7028    0.2222 C   0  0  0  0  0  0  0  0  0  0  0  0
   -6.0486    0.4171   -0.3839 C   0  0  0  0  0  0  0  0  0  0  0  0
   -3.1949    0.6608   -0.0644 C   0  0  0  0  0  0  0  0  0  0  0  0
   -5.2408   -0.7833    0.1053 C   0  0  0  0  0  0  0  0  0  0  0  0
   -3.7474   -0.5593    0.0788 C   0  0  0  0  0  0  0  0  0  0  0  0
   -1.7303    0.7919   -0.1383 C   0  0  0  0  0  0  0  0  0  0  0  0
   -0.9497   -0.3547   -0.0106 C   0  0  0  0  0  0  0  0  0  0  0  0
   -2.9158   -1.7833    0.2151 C   0  0  0  0  0  0  0  0  0  0  0  0
   -1.0610    2.0074   -0.3413 C   0  0  0  0  0  0  0  0  0  0  0  0
    0.4456   -0.3219   -0.0659 C   0  0  0  0  0  0  0  0  0  0  0  0
    1.0894    0.8947   -0.2606 C   0  0  0  0  0  0  0  0  0  0  0  0
    0.3368    2.0582   -0.4002 C   0  0  0  0  0  0  0  0  0  0  0  0
    5.2540    1.9193    0.2386 C   0  0  0  0  0  0  0  0  0  0  0  0
    4.1884   -2.5159   -0.1184 C   0  0  0  0  0  0  0  0  0  0  0  0
    6.6233    2.2235   -0.3306 C   0  0  0  0  0  0  0  0  0  0  0  0
    3.9163   -3.6247   -1.1125 C   0  0  0  0  0  0  0  0  0  0  0  0
  1  2  2  0
  2  5  1  0
  2  6  1  0
  2  7  1  0
  3 15  1  0
  3 16  1  0
  4 16  2  0
  5 19  1  0
  6 21  1  0
  7 22  1  0
  8  9  1  0
  8 11  1  0
  9 10  1  0
 10 12  1  0
 11 13  2  0
 11 14  1  0
 12 13  1  0
 13 16  1  0
 14 15  2  0
 14 17  1  0
 15 18  1  0
 17 20  2  0
 18 19  2  0
 19 20  1  0
 21 23  1  0
 22 24  1  0
M  END
>  <PUBCHEM_COMPOUND_CID>  (1) 
11307

>  <PUBCHEM_CONFORMER_RMSD>  (1) 
0.8

>  <PUBCHEM_CONFORMER_DIVERSEORDER>  (1) 
1
4
30
14
10
40
13
15
24
17
29
34
32
28
2
23
3
37
20
39
12
11
36
38
19
27
9
35
22
18
16
41
31
5
6
21
33
7
26
8
25

>  <PUBCHEM_MMFF94_PARTIAL_CHARGES>  (1) 
23
1 -0.68
11 -0.17
12 0.14
13 -0.12
14 0.03
15 0.08
16 0.71
17 -0.15
18 -0.15
19 0.08
2 1.49
20 -0.15
21 0.28
22 0.28
3 -0.23
33 0.15
34 0.15
35 0.15
4 -0.57
5 -0.35
6 -0.55
7 -0.55
8 0.14

>  <PUBCHEM_EFFECTIVE_ROTOR_COUNT>  (1) 
6.8

>  <PUBCHEM_PHARMACOPHORE_FEATURES>  (1) 
4
1 4 acceptor
6 14 15 17 18 19 20 rings
6 3 11 13 14 15 16 rings
6 8 9 10 11 12 13 rings

>  <PUBCHEM_HEAVY_ATOM_COUNT>  (1) 
24

>  <PUBCHEM_ATOM_DEF_STEREO_COUNT>  (1) 
0

>  <PUBCHEM_ATOM_UDEF_STEREO_COUNT>  (1) 
0

>  <PUBCHEM_BOND_DEF_STEREO_COUNT>  (1) 
0

>  <PUBCHEM_BOND_UDEF_STEREO_COUNT>  (1) 
0

>  <PUBCHEM_ISOTOPIC_ATOM_COUNT>  (1) 
0

>  <PUBCHEM_COMPONENT_COUNT>  (1) 
1

>  <PUBCHEM_CACTVS_TAUTO_COUNT>  (1) 
1

>  <PUBCHEM_CONFORMER_ID>  (1) 
00002C2B00000001

>  <PUBCHEM_MMFF94_ENERGY>  (1) 
45.3061

>  <PUBCHEM_FEATURE_SELFOVERLAP>  (1) 
20.342

>  <PUBCHEM_SHAPE_FINGERPRINT>  (1) 
10366900 7 17060340725262601600
10906281 52 17895770607261996932
11719270 70 18343016693361603362
12107183 9 17695638359161027248
12236239 1 17894344497024119449
12616971 3 12396302581665026354
12788726 201 18334010566783537880
13073987 5 18412269419660992001
13402501 40 18198063577634111822
13533116 47 17988359273823080138
13583140 156 17631726192169556427
14251764 18 18335137631290668177
14341114 328 18040987480171484784
14790565 3 18050008784009492401
15196674 1 18410293579874843823
1813 80 17095527274878675949
18681886 176 18192712461660108748
21033648 29 17560790069811151489
21130935 74 18271811194838720323
21267235 1 18263087759777816875
21279426 13 18265331703753543693
21421861 104 17895745202371978322
220451 1 17632294588447301863
23402539 116 18341887498935179245
23559900 14 18340768144268273662
239999 70 18334293133435808610
300161 21 18261105296472019044
3004659 81 18261115124006058334
335352 9 18337112251205520581
34934 24 18408318912841724686
3545911 37 18410575102249539324
404807 14 16691907307190770543
4073 2 18187369874003280026
4325135 7 17967811682882182316
4340502 62 16008745818868538120
5104073 3 18408889503325701571
59755656 215 18410579487790872580
67856867 119 18043252550944121452
7226269 152 18202286888397157649
9709674 26 18410015424786884470
9981440 41 17106789852035752161

>  <PUBCHEM_SHAPE_MULTIPOLES>  (1) 
472.26
14.62
3.19
1.01
2.32
2.12
-0.6
-3.12
0.35
2.99
0.79
1.21
0.23
0.77

>  <PUBCHEM_SHAPE_SELFOVERLAP>  (1) 
967.385

>  <PUBCHEM_SHAPE_VOLUME>  (1) 
274

>  <PUBCHEM_COORDINATE_TYPE>  (1) 
2
5
10

$$$$
