11316
     RDKit          3D

 12 13  0  0  0  0  0  0  0  0999 V2000
   -1.7568   -2.5100   -0.0003 Br  0  0  0  0  0  0  0  0  0  0  0  0
   -3.3596    0.0665    0.0001 O   0  0  0  0  0  0  0  0  0  0  0  0
    0.2989   -0.4305    0.0001 C   0  0  0  0  0  0  0  0  0  0  0  0
    0.7244    0.9193   -0.0001 C   0  0  0  0  0  0  0  0  0  0  0  0
   -1.0759   -0.7172    0.0002 C   0  0  0  0  0  0  0  0  0  0  0  0
   -0.2376    1.9426   -0.0001 C   0  0  0  0  0  0  0  0  0  0  0  0
    1.2607   -1.4539    0.0002 C   0  0  0  0  0  0  0  0  0  0  0  0
    2.0992    1.2060   -0.0001 C   0  0  0  0  0  0  0  0  0  0  0  0
   -2.0176    0.3120    0.0001 C   0  0  0  0  0  0  0  0  0  0  0  0
   -1.5993    1.6393   -0.0001 C   0  0  0  0  0  0  0  0  0  0  0  0
    2.6226   -1.1507    0.0001 C   0  0  0  0  0  0  0  0  0  0  0  0
    3.0410    0.1766   -0.0001 C   0  0  0  0  0  0  0  0  0  0  0  0
  1  5  1  0
  2  9  1  0
  3  4  1  0
  3  5  2  0
  3  7  1  0
  4  6  2  0
  4  8  1  0
  5  9  1  0
  6 10  1  0
  7 11  2  0
  8 12  2  0
  9 10  2  0
 11 12  1  0
M  END
>  <PUBCHEM_COMPOUND_CID>  (1) 
11316

>  <PUBCHEM_CONFORMER_RMSD>  (1) 
0.4

>  <PUBCHEM_CONFORMER_DIVERSEORDER>  (1) 
1

>  <PUBCHEM_MMFF94_PARTIAL_CHARGES>  (1) 
17
1 -0.11
10 -0.15
11 -0.15
12 -0.15
13 0.15
14 0.15
15 0.15
16 0.15
17 0.15
18 0.15
19 0.45
2 -0.53
5 0.11
6 -0.15
7 -0.15
8 -0.15
9 0.08

>  <PUBCHEM_EFFECTIVE_ROTOR_COUNT>  (1) 
0

>  <PUBCHEM_PHARMACOPHORE_FEATURES>  (1) 
4
1 1 hydrophobe
1 2 donor
6 3 4 5 6 9 10 rings
6 3 4 7 8 11 12 rings

>  <PUBCHEM_HEAVY_ATOM_COUNT>  (1) 
12

>  <PUBCHEM_ATOM_DEF_STEREO_COUNT>  (1) 
0

>  <PUBCHEM_ATOM_UDEF_STEREO_COUNT>  (1) 
0

>  <PUBCHEM_BOND_DEF_STEREO_COUNT>  (1) 
0

>  <PUBCHEM_BOND_UDEF_STEREO_COUNT>  (1) 
0

>  <PUBCHEM_ISOTOPIC_ATOM_COUNT>  (1) 
0

>  <PUBCHEM_COMPONENT_COUNT>  (1) 
1

>  <PUBCHEM_CACTVS_TAUTO_COUNT>  (1) 
3

>  <PUBCHEM_CONFORMER_ID>  (1) 
00002C3400000001

>  <PUBCHEM_MMFF94_ENERGY>  (1) 
36.7387

>  <PUBCHEM_FEATURE_SELFOVERLAP>  (1) 
20.324

>  <PUBCHEM_SHAPE_FINGERPRINT>  (1) 
10967382 1 18410856551060586374
11132069 177 18339637936245352736
12382932 28 18340766039222537458
12423570 1 12534473741214551691
12524768 44 18341055137703044222
13380535 76 18412540998584893598
14325111 11 18338517434827856672
16945 1 18410855447406887652
17844478 74 18040726844075381033
193761 8 17978229688145074597
20201158 50 18410291397820558258
20510252 161 18200873955023907608
20588541 1 18412829083515863471
20871998 184 18201441419088118687
21501502 16 18265334086906537038
2334 1 18050287269118661634
23402539 116 18270385127634645495
23463225 33 18408322181327654696
23552423 10 18189336934253347356
23559900 14 18271248215131381142
2748010 2 18123467438785125436
5084963 1 18058162830363872490
528886 8 18411695512945201346
53812653 166 18200026377882997448
8809292 202 18334862731365809210

>  <PUBCHEM_SHAPE_MULTIPOLES>  (1) 
247.03
4.18
2.37
0.62
0.36
0.52
0
0.59
0
-0.88
0
0
0.03
0

>  <PUBCHEM_SHAPE_SELFOVERLAP>  (1) 
528.751

>  <PUBCHEM_SHAPE_VOLUME>  (1) 
141.7

>  <PUBCHEM_COORDINATE_TYPE>  (1) 
2
5
10

$$$$
