11314
     RDKit          3D

 46 51  0  0  0  0  0  0  0  0999 V2000
   -9.5449    2.6445   -0.6709 S   0  0  0  0  0  0  0  0  0  0  0  0
    9.5455    2.6445    0.6710 S   0  0  0  0  0  0  0  0  0  0  0  0
  -10.3630    3.1696    0.6400 O   0  0  0  0  0  0  0  0  0  0  0  0
   10.3636    3.1695   -0.6400 O   0  0  0  0  0  0  0  0  0  0  0  0
   -8.4521    3.5734   -0.8980 O   0  0  0  0  0  0  0  0  0  0  0  0
  -10.5030    2.3424   -1.7183 O   0  0  0  0  0  0  0  0  0  0  0  0
    8.4527    3.5733    0.8980 O   0  0  0  0  0  0  0  0  0  0  0  0
   10.5035    2.3424    1.7183 O   0  0  0  0  0  0  0  0  0  0  0  0
   -6.8985   -2.4316    0.9960 N   0  0  0  0  0  0  0  0  0  0  0  0
    6.8991   -2.4316   -0.9959 N   0  0  0  0  0  0  0  0  0  0  0  0
   -5.4326   -0.0951    0.5315 N   0  0  0  0  0  0  0  0  0  0  0  0
    5.4331   -0.0950   -0.5315 N   0  0  0  0  0  0  0  0  0  0  0  0
   -4.8820   -0.3996   -0.5513 N   0  0  0  0  0  0  0  0  0  0  0  0
    4.8793   -0.3996    0.5510 N   0  0  0  0  0  0  0  0  0  0  0  0
   -9.6142   -0.0418    0.0458 C   0  0  0  0  0  0  0  0  0  0  0  0
    9.6147   -0.0419   -0.0457 C   0  0  0  0  0  0  0  0  0  0  0  0
   -8.9712   -1.2390    0.4411 C   0  0  0  0  0  0  0  0  0  0  0  0
    8.9718   -1.2391   -0.4411 C   0  0  0  0  0  0  0  0  0  0  0  0
   -8.8429    1.1103   -0.1784 C   0  0  0  0  0  0  0  0  0  0  0  0
    8.8435    1.1102    0.1784 C   0  0  0  0  0  0  0  0  0  0  0  0
   -7.5760   -1.2489    0.6006 C   0  0  0  0  0  0  0  0  0  0  0  0
    7.5765   -1.2489   -0.6005 C   0  0  0  0  0  0  0  0  0  0  0  0
   -6.8254   -0.0950    0.3737 C   0  0  0  0  0  0  0  0  0  0  0  0
    6.8296   -0.0950   -0.3732 C   0  0  0  0  0  0  0  0  0  0  0  0
   -7.4576    1.0823   -0.0151 C   0  0  0  0  0  0  0  0  0  0  0  0
    7.4582    1.0823    0.0152 C   0  0  0  0  0  0  0  0  0  0  0  0
  -11.0095   -0.0320   -0.1138 C   0  0  0  0  0  0  0  0  0  0  0  0
   11.0100   -0.0321    0.1139 C   0  0  0  0  0  0  0  0  0  0  0  0
   -9.7425   -2.3910    0.6652 C   0  0  0  0  0  0  0  0  0  0  0  0
    9.7430   -2.3911   -0.6651 C   0  0  0  0  0  0  0  0  0  0  0  0
  -11.7600   -1.1859    0.1131 C   0  0  0  0  0  0  0  0  0  0  0  0
   11.7606   -1.1860   -0.1131 C   0  0  0  0  0  0  0  0  0  0  0  0
  -11.1278   -2.3632    0.5019 C   0  0  0  0  0  0  0  0  0  0  0  0
   11.1283   -2.3633   -0.5018 C   0  0  0  0  0  0  0  0  0  0  0  0
   -0.7202   -0.4001   -0.0814 C   0  0  0  0  0  0  0  0  0  0  0  0
    0.7174   -0.4001    0.0810 C   0  0  0  0  0  0  0  0  0  0  0  0
   -3.4855   -0.3996   -0.3935 C   0  0  0  0  0  0  0  0  0  0  0  0
    3.4896   -0.3997    0.3940 C   0  0  0  0  0  0  0  0  0  0  0  0
   -1.4484   -1.5668    0.1510 C   0  0  0  0  0  0  0  0  0  0  0  0
    1.4455   -1.5667   -0.1513 C   0  0  0  0  0  0  0  0  0  0  0  0
   -1.3780    0.7670   -0.4702 C   0  0  0  0  0  0  0  0  0  0  0  0
    1.3752    0.7670    0.4699 C   0  0  0  0  0  0  0  0  0  0  0  0
   -2.8344   -1.5666   -0.0056 C   0  0  0  0  0  0  0  0  0  0  0  0
    2.8316   -1.5667    0.0053 C   0  0  0  0  0  0  0  0  0  0  0  0
   -2.7641    0.7672   -0.6267 C   0  0  0  0  0  0  0  0  0  0  0  0
    2.7613    0.7672    0.6263 C   0  0  0  0  0  0  0  0  0  0  0  0
  1  3  1  0
  1  5  2  0
  1  6  2  0
  1 19  1  0
  2  4  1  0
  2  7  2  0
  2  8  2  0
  2 20  1  0
  9 21  1  0
 10 22  1  0
 11 13  2  0
 11 23  1  0
 12 14  2  0
 12 24  1  0
 13 37  1  0
 14 38  1  0
 15 17  1  0
 15 19  2  0
 15 27  1  0
 16 18  1  0
 16 20  2  0
 16 28  1  0
 17 21  2  0
 17 29  1  0
 18 22  2  0
 18 30  1  0
 19 25  1  0
 20 26  1  0
 21 23  1  0
 22 24  1  0
 23 25  2  0
 24 26  2  0
 27 31  2  0
 28 32  2  0
 29 33  2  0
 30 34  2  0
 31 33  1  0
 32 34  1  0
 35 36  1  0
 35 39  2  0
 35 41  1  0
 36 40  2  0
 36 42  1  0
 37 43  2  0
 37 45  1  0
 38 44  2  0
 38 46  1  0
 39 43  1  0
 40 44  1  0
 41 45  2  0
 42 46  2  0
M  END
>  <PUBCHEM_COMPOUND_CID>  (1) 
11314

>  <PUBCHEM_CONFORMER_RMSD>  (1) 
1

>  <PUBCHEM_CONFORMER_DIVERSEORDER>  (1) 
1
8
9
3
6
4
7
10
5
2

>  <PUBCHEM_MMFF94_PARTIAL_CHARGES>  (1) 
64
1 1.49
10 -0.9
11 -0.18
12 -0.18
13 -0.18
14 -0.18
19 -0.01
2 1.49
20 -0.01
21 0.1
22 0.1
23 0.18
24 0.18
25 -0.15
26 -0.15
27 -0.15
28 -0.15
29 -0.15
3 -0.68
30 -0.15
31 -0.15
32 -0.15
33 -0.15
34 -0.15
37 0.18
38 0.18
39 -0.15
4 -0.68
40 -0.15
41 -0.15
42 -0.15
43 -0.15
44 -0.15
45 -0.15
46 -0.15
47 0.15
48 0.15
49 0.15
5 -0.65
50 0.15
51 0.15
52 0.15
53 0.15
54 0.15
55 0.15
56 0.15
57 0.4
58 0.4
59 0.4
6 -0.65
60 0.4
61 0.15
62 0.15
63 0.15
64 0.15
65 0.15
66 0.15
67 0.15
68 0.15
69 0.5
7 -0.65
70 0.5
8 -0.65
9 -0.9

>  <PUBCHEM_EFFECTIVE_ROTOR_COUNT>  (1) 
7

>  <PUBCHEM_PHARMACOPHORE_FEATURES>  (1) 
18
1 10 cation
1 10 donor
1 3 acceptor
1 4 acceptor
1 5 acceptor
1 6 acceptor
1 7 acceptor
1 8 acceptor
1 9 cation
1 9 donor
4 1 3 5 6 anion
4 2 4 7 8 anion
6 15 17 19 21 23 25 rings
6 15 17 27 29 31 33 rings
6 16 18 20 22 24 26 rings
6 16 18 28 30 32 34 rings
6 35 37 39 41 43 45 rings
6 36 38 40 42 44 46 rings

>  <PUBCHEM_HEAVY_ATOM_COUNT>  (1) 
46

>  <PUBCHEM_ATOM_DEF_STEREO_COUNT>  (1) 
0

>  <PUBCHEM_ATOM_UDEF_STEREO_COUNT>  (1) 
0

>  <PUBCHEM_BOND_DEF_STEREO_COUNT>  (1) 
0

>  <PUBCHEM_BOND_UDEF_STEREO_COUNT>  (1) 
0

>  <PUBCHEM_ISOTOPIC_ATOM_COUNT>  (1) 
0

>  <PUBCHEM_COMPONENT_COUNT>  (1) 
1

>  <PUBCHEM_CACTVS_TAUTO_COUNT>  (1) 
1

>  <PUBCHEM_CONFORMER_ID>  (1) 
00002C3200000001

>  <PUBCHEM_MMFF94_ENERGY>  (1) 
168.0781

>  <PUBCHEM_FEATURE_SELFOVERLAP>  (1) 
91.516

>  <PUBCHEM_SHAPE_FINGERPRINT>  (1) 
10580692 12 18410576189445977419
11061554 47 18040992947237831525
11966995 178 18259983761554884834
12013929 2 18408604747052323267
12013929 94 18335986446163206291
12559415 86 18272661116672726980
12559415 90 18413669097509671656
12728209 37 18409167710243802208
131240 100 18411418427356755521
13740195 50 18409731781120487475
13947934 56 18412546496295928840
13947947 74 18040155102028675098
14251764 46 18410013238516726886
14344974 52 18413107290064913347
15061470 23 18408603652473914164
15065858 18 18410853265399906022
15289351 153 18060416889636590481
15347591 1 17825942633119749351
15510794 2 18410859862470198851
15530121 191 18342167878458736321
15840311 113 18260833735271611404
15890870 6 18342458140516170519
16728433 110 18412262856919198172
20105231 36 18410576188470336579
21362267 2 18129929170476771096
21362267 313 18115864114595990170
21792934 111 18131063837128152696
21792961 116 18060137627480276675
232437 2 18410857663446930306
3092352 35 17967533479958648099
54131252 152 17775279461991887399
67123 10 18410576193076228467

>  <PUBCHEM_SHAPE_MULTIPOLES>  (1) 
889.26
61.36
3.27
0.92
0.06
2.26
0
6.91
0
0
0
0
0.28
5.16

>  <PUBCHEM_SHAPE_SELFOVERLAP>  (1) 
1974.02

>  <PUBCHEM_SHAPE_VOLUME>  (1) 
474.4

>  <PUBCHEM_COORDINATE_TYPE>  (1) 
2
5
10

$$$$
