11337
     RDKit          3D

 18 17  0  0  1  0  0  0  0  0999 V2000
    7.3803   -2.0452    0.0566 Cl  0  0  0  0  0  0  0  0  0  0  0  0
   -8.0513   -0.7118   -0.2909 Cl  0  0  0  0  0  0  0  0  0  0  0  0
    0.8464    0.3234    1.7139 O   0  0  0  0  0  0  0  0  0  0  0  0
   -0.8505    2.1784    0.3606 O   0  0  0  0  0  0  0  0  0  0  0  0
    2.0163    1.7029   -1.4958 O   0  0  0  0  0  0  0  0  0  0  0  0
   -1.3356   -1.3715   -0.3950 O   0  0  0  0  0  0  0  0  0  0  0  0
    3.8666   -0.1091   -0.2186 N   0  0  0  0  0  0  0  0  0  0  0  0
   -4.0557   -0.6565    0.1698 N   0  0  0  0  0  0  0  0  0  0  0  0
    0.8829    0.4764    0.2971 C   0  0  0  0  0  0  0  0  0  0  0  0
   -0.5282    0.8974   -0.1773 C   0  0  0  0  0  0  0  0  0  0  0  0
    1.9741    1.5037   -0.0840 C   0  0  0  0  0  0  0  0  0  0  0  0
   -1.6345   -0.1102    0.2078 C   0  0  0  0  0  0  0  0  0  0  0  0
    3.3934    1.1369    0.3772 C   0  0  0  0  0  0  0  0  0  0  0  0
   -3.0426    0.3062   -0.2400 C   0  0  0  0  0  0  0  0  0  0  0  0
    5.2332   -0.3934    0.1937 C   0  0  0  0  0  0  0  0  0  0  0  0
   -5.3841   -0.2208   -0.2394 C   0  0  0  0  0  0  0  0  0  0  0  0
    5.7161   -1.6799   -0.4579 C   0  0  0  0  0  0  0  0  0  0  0  0
   -6.4269   -1.2271    0.2221 C   0  0  0  0  0  0  0  0  0  0  0  0
  1 17  1  0
  2 18  1  0
  3  9  1  0
  4 10  1  0
  5 11  1  0
  6 12  1  0
  7 13  1  0
  7 15  1  0
  8 14  1  0
  8 16  1  0
  9 10  1  0
  9 11  1  0
 10 12  1  0
 11 13  1  0
 12 14  1  0
 15 17  1  0
 16 18  1  0
M  END
>  <PUBCHEM_COMPOUND_CID>  (1) 
11337

>  <PUBCHEM_CONFORMER_RMSD>  (1) 
1.2

>  <PUBCHEM_CONFORMER_DIVERSEORDER>  (1) 
2
23
24
27
20
67
43
83
88
60
63
26
1
75
95
103
3
57
105
98
72
5
111
101
52
102
69
10
62
30
113
33
74
108
13
73
29
90
117
18
94
110
96
38
56
97
85
107
77
114
87
41
58
17
49
61
109
21
51
71
44
19
50
112
25
116
78
93
37
82
55
115
104
64
91
106
68
22
9
6
47
42
92
70
100
39
81
11
15
65
86
66
59
84
12
80
99
14
46
4
45
16
79
89
8
40
54
34
32
35
53
36
7
76
48
28
31

>  <PUBCHEM_MMFF94_PARTIAL_CHARGES>  (1) 
24
1 -0.29
10 0.28
11 0.28
12 0.28
13 0.27
14 0.27
15 0.27
16 0.27
17 0.29
18 0.29
2 -0.29
27 0.36
28 0.36
29 0.4
3 -0.68
30 0.4
31 0.4
32 0.4
4 -0.68
5 -0.68
6 -0.68
7 -0.9
8 -0.9
9 0.28

>  <PUBCHEM_EFFECTIVE_ROTOR_COUNT>  (1) 
11

>  <PUBCHEM_PHARMACOPHORE_FEATURES>  (1) 
12
1 3 acceptor
1 3 donor
1 4 acceptor
1 4 donor
1 5 acceptor
1 5 donor
1 6 acceptor
1 6 donor
1 7 cation
1 7 donor
1 8 cation
1 8 donor

>  <PUBCHEM_HEAVY_ATOM_COUNT>  (1) 
18

>  <PUBCHEM_ATOM_DEF_STEREO_COUNT>  (1) 
0

>  <PUBCHEM_ATOM_UDEF_STEREO_COUNT>  (1) 
4

>  <PUBCHEM_BOND_DEF_STEREO_COUNT>  (1) 
0

>  <PUBCHEM_BOND_UDEF_STEREO_COUNT>  (1) 
0

>  <PUBCHEM_ISOTOPIC_ATOM_COUNT>  (1) 
0

>  <PUBCHEM_COMPONENT_COUNT>  (1) 
1

>  <PUBCHEM_CACTVS_TAUTO_COUNT>  (1) 
1

>  <PUBCHEM_CONFORMER_ID>  (1) 
00002C4900000002

>  <PUBCHEM_MMFF94_ENERGY>  (1) 
20.6303

>  <PUBCHEM_FEATURE_SELFOVERLAP>  (1) 
60.91

>  <PUBCHEM_SHAPE_FINGERPRINT>  (1) 
10 15 12247677171227964566
106641 1 14620786115933356934
10753850 27 18334289834937887538
11638347 137 14261357938098353662
13533116 47 18272931652594412760
13668630 136 18260266369653965987
13685833 64 18412262826991681130
13862211 1 18272089422534935263
14123256 10 12612751319886393687
14216079 64 18412544280224926318
14251764 18 17846782922636163729
15690457 1 18131627885201095663
1768 124 17703790297647580806
17834072 8 17894349994592658283
19784866 240 18410300198546086424
20397935 70 16988852653005793278
20621476 38 18410575115382458495
20621476 8 18333730200968036069
20645477 70 18335420179987876412
20735858 18 16272208582875515767
21130983 4 8142087567879266919
21150785 3 16515406274294620430
21267235 1 18409451375189648259
21637258 2 18343012269017507926
22224240 67 13110957622053968732
23402539 116 18130784534260681285
23559900 14 18262798591781793976
246663 6 18187087256697163171
28498 318 18410008828328729383
29717793 49 18260548952600201445
3004659 81 18186517717577815176
328311 84 18187368749001403651
33532 11 18412543228237571999
4072396 5 15985107422503635036
4325135 7 18408889539046358060
4340502 62 13470691442551797173
445580 37 15574702570549761695
465052 167 18343587364779876430
5104073 3 15912475969670153563
559249 180 18339923710225844137
59682541 35 12103556507306306831
59682541 52 15864077546949040030
59755656 215 18113334193990779923
6138700 20 18409449163524590611
6438161 24 18113611271216339986

>  <PUBCHEM_SHAPE_MULTIPOLES>  (1) 
340.73
19.79
1.89
0.88
11.6
0.09
-0.06
-15.92
1.26
-2.32
0.17
-0.32
0.2
0.04

>  <PUBCHEM_SHAPE_SELFOVERLAP>  (1) 
617.612

>  <PUBCHEM_SHAPE_VOLUME>  (1) 
218.7

>  <PUBCHEM_COORDINATE_TYPE>  (1) 
2
5
10

$$$$
