11334
     RDKit          3D

  9  9  0  0  0  0  0  0  0  0999 V2000
    0.3194   -2.4447    0.0003 Cl  0  0  0  0  0  0  0  0  0  0  0  0
    2.8050   -0.3994    0.0003 Cl  0  0  0  0  0  0  0  0  0  0  0  0
   -2.3018   -1.0585    0.0001 O   0  0  0  0  0  0  0  0  0  0  0  0
   -1.2204   -0.2281   -0.0002 C   0  0  0  0  0  0  0  0  0  0  0  0
    0.0822   -0.7272   -0.0005 C   0  0  0  0  0  0  0  0  0  0  0  0
   -1.4398    1.1493    0.0001 C   0  0  0  0  0  0  0  0  0  0  0  0
    1.1656    0.1515   -0.0004 C   0  0  0  0  0  0  0  0  0  0  0  0
    0.9462    1.5291    0.0000 C   0  0  0  0  0  0  0  0  0  0  0  0
   -0.3564    2.0279    0.0003 C   0  0  0  0  0  0  0  0  0  0  0  0
  1  5  1  0
  2  7  1  0
  3  4  1  0
  4  5  2  0
  4  6  1  0
  5  7  1  0
  6  9  2  0
  7  8  2  0
  8  9  1  0
M  END
>  <PUBCHEM_COMPOUND_CID>  (1) 
11334

>  <PUBCHEM_CONFORMER_RMSD>  (1) 
0.4

>  <PUBCHEM_CONFORMER_DIVERSEORDER>  (1) 
1

>  <PUBCHEM_MMFF94_PARTIAL_CHARGES>  (1) 
13
1 -0.18
10 0.15
11 0.15
12 0.15
13 0.45
2 -0.18
3 -0.53
4 0.08
5 0.18
6 -0.15
7 0.18
8 -0.15
9 -0.15

>  <PUBCHEM_EFFECTIVE_ROTOR_COUNT>  (1) 
0

>  <PUBCHEM_PHARMACOPHORE_FEATURES>  (1) 
2
1 3 donor
6 4 5 6 7 8 9 rings

>  <PUBCHEM_HEAVY_ATOM_COUNT>  (1) 
9

>  <PUBCHEM_ATOM_DEF_STEREO_COUNT>  (1) 
0

>  <PUBCHEM_ATOM_UDEF_STEREO_COUNT>  (1) 
0

>  <PUBCHEM_BOND_DEF_STEREO_COUNT>  (1) 
0

>  <PUBCHEM_BOND_UDEF_STEREO_COUNT>  (1) 
0

>  <PUBCHEM_ISOTOPIC_ATOM_COUNT>  (1) 
0

>  <PUBCHEM_COMPONENT_COUNT>  (1) 
1

>  <PUBCHEM_CACTVS_TAUTO_COUNT>  (1) 
3

>  <PUBCHEM_CONFORMER_ID>  (1) 
00002C4600000001

>  <PUBCHEM_MMFF94_ENERGY>  (1) 
19.5383

>  <PUBCHEM_FEATURE_SELFOVERLAP>  (1) 
10.148

>  <PUBCHEM_SHAPE_FINGERPRINT>  (1) 
12423570 1 15683113681859902940
16945 1 18194401087184612452
18185500 45 18338515231519839055
193761 8 17906170646560730119
21040471 1 17762337320193381285
23552423 10 18046073666042105646
241688 4 18411136952311362593
2748010 2 18337949086100524925
5084963 1 18202566210813920178
66348 1 18410570652388860698

>  <PUBCHEM_SHAPE_MULTIPOLES>  (1) 
183.09
2.71
2.37
0.62
1.1
0.65
0
-0.02
0
-0.15
0
0.04
-0.01
0

>  <PUBCHEM_SHAPE_SELFOVERLAP>  (1) 
364.423

>  <PUBCHEM_SHAPE_VOLUME>  (1) 
110.3

>  <PUBCHEM_COORDINATE_TYPE>  (1) 
2
5
10

$$$$
