11365
     RDKit          3D

 11 11  0  0  0  0  0  0  0  0999 V2000
    1.7049   -2.1051    0.4230 Cl  0  0  0  0  0  0  0  0  0  0  0  0
    1.7648    1.7070   -0.3953 O   0  0  0  0  0  0  0  0  0  0  0  0
    1.0616   -0.4870    0.0933 N   0  0  0  0  0  0  0  0  0  0  0  0
   -0.3084   -0.2263    0.0530 C   0  0  0  0  0  0  0  0  0  0  0  0
   -0.7900    1.0322    0.4133 C   0  0  0  0  0  0  0  0  0  0  0  0
   -1.1965   -1.2241   -0.3483 C   0  0  0  0  0  0  0  0  0  0  0  0
   -2.1597    1.2930    0.3720 C   0  0  0  0  0  0  0  0  0  0  0  0
   -2.5662   -0.9634   -0.3897 C   0  0  0  0  0  0  0  0  0  0  0  0
   -3.0478    0.2952   -0.0295 C   0  0  0  0  0  0  0  0  0  0  0  0
    2.0378    0.5341   -0.1289 C   0  0  0  0  0  0  0  0  0  0  0  0
    3.4996    0.1445   -0.0629 C   0  0  0  0  0  0  0  0  0  0  0  0
  1  3  1  0
  2 10  2  0
  3  4  1  0
  3 10  1  0
  4  5  2  0
  4  6  1  0
  5  7  1  0
  6  8  2  0
  7  9  2  0
  8  9  1  0
 10 11  1  0
M  END
>  <PUBCHEM_COMPOUND_CID>  (1) 
11365

>  <PUBCHEM_CONFORMER_RMSD>  (1) 
0.4

>  <PUBCHEM_CONFORMER_DIVERSEORDER>  (1) 
1
6
8
5
7
2
3
4

>  <PUBCHEM_MMFF94_PARTIAL_CHARGES>  (1) 
16
1 -0.06
10 0.57
11 0.06
12 0.15
13 0.15
14 0.15
15 0.15
16 0.15
2 -0.57
3 -0.12
4 0.12
5 -0.15
6 -0.15
7 -0.15
8 -0.15
9 -0.15

>  <PUBCHEM_EFFECTIVE_ROTOR_COUNT>  (1) 
2

>  <PUBCHEM_PHARMACOPHORE_FEATURES>  (1) 
2
1 2 acceptor
6 4 5 6 7 8 9 rings

>  <PUBCHEM_HEAVY_ATOM_COUNT>  (1) 
11

>  <PUBCHEM_ATOM_DEF_STEREO_COUNT>  (1) 
0

>  <PUBCHEM_ATOM_UDEF_STEREO_COUNT>  (1) 
0

>  <PUBCHEM_BOND_DEF_STEREO_COUNT>  (1) 
0

>  <PUBCHEM_BOND_UDEF_STEREO_COUNT>  (1) 
0

>  <PUBCHEM_ISOTOPIC_ATOM_COUNT>  (1) 
0

>  <PUBCHEM_COMPONENT_COUNT>  (1) 
1

>  <PUBCHEM_CACTVS_TAUTO_COUNT>  (1) 
1

>  <PUBCHEM_CONFORMER_ID>  (1) 
00002C6500000001

>  <PUBCHEM_MMFF94_ENERGY>  (1) 
40.937

>  <PUBCHEM_FEATURE_SELFOVERLAP>  (1) 
10.148

>  <PUBCHEM_SHAPE_FINGERPRINT>  (1) 
12897270 3 18411417357904311917
12932764 1 17775276175407773763
13380535 76 18408322189802038594
14144814 61 18410572851406763658
14325111 11 18411702105793931532
15775835 57 18410863126687236513
16945 1 18409729581875529737
19021347 11 18408039606866021394
23463225 33 18336825278254134082
23552423 10 18409448085413647471
2748010 2 17905326225967913068
369184 2 16443339901443675105
5084963 1 18272374212820203504
528862 383 18261670368160455218
63268167 104 18262518087309157240
7364860 26 18272368616689092586
8030462 33 18343011194858985095

>  <PUBCHEM_SHAPE_MULTIPOLES>  (1) 
217.39
4.9
1.8
0.69
1.03
0.39
-0.02
-0.38
0.22
0.43
-0.09
-0.03
0.03
-0.54

>  <PUBCHEM_SHAPE_SELFOVERLAP>  (1) 
436.181

>  <PUBCHEM_SHAPE_VOLUME>  (1) 
128.5

>  <PUBCHEM_COORDINATE_TYPE>  (1) 
2
5
10

$$$$
