11364
     RDKit          3D

 11 11  0  0  0  0  0  0  0  0999 V2000
    1.8540    1.6577    0.3313 O   0  0  0  0  0  0  0  0  0  0  0  0
    1.0613   -0.5135   -0.1453 N   0  0  0  0  0  0  0  0  0  0  0  0
   -0.3031   -0.2308   -0.0738 C   0  0  0  0  0  0  0  0  0  0  0  0
   -0.7664    1.0511   -0.3696 C   0  0  0  0  0  0  0  0  0  0  0  0
   -1.2040   -1.2307    0.2924 C   0  0  0  0  0  0  0  0  0  0  0  0
    1.4834   -1.9251   -0.4039 C   0  0  0  0  0  0  0  0  0  0  0  0
    2.0828    0.4666    0.1061 C   0  0  0  0  0  0  0  0  0  0  0  0
   -2.1307    1.3333   -0.2989 C   0  0  0  0  0  0  0  0  0  0  0  0
   -2.5682   -0.9487    0.3629 C   0  0  0  0  0  0  0  0  0  0  0  0
   -3.0315    0.3333    0.0672 C   0  0  0  0  0  0  0  0  0  0  0  0
    3.5224    0.0068    0.1316 C   0  0  0  0  0  0  0  0  0  0  0  0
  1  7  2  0
  2  3  1  0
  2  6  1  0
  2  7  1  0
  3  4  2  0
  3  5  1  0
  4  8  1  0
  5  9  2  0
  7 11  1  0
  8 10  2  0
  9 10  1  0
M  END
>  <PUBCHEM_COMPOUND_CID>  (1) 
11364

>  <PUBCHEM_CONFORMER_RMSD>  (1) 
0.4

>  <PUBCHEM_CONFORMER_DIVERSEORDER>  (1) 
2
4
5
1
3
6

>  <PUBCHEM_MMFF94_PARTIAL_CHARGES>  (1) 
16
1 -0.57
10 -0.15
11 0.06
12 0.15
13 0.15
17 0.15
18 0.15
19 0.15
2 -0.48
3 0.12
4 -0.15
5 -0.15
6 0.3
7 0.57
8 -0.15
9 -0.15

>  <PUBCHEM_EFFECTIVE_ROTOR_COUNT>  (1) 
2

>  <PUBCHEM_PHARMACOPHORE_FEATURES>  (1) 
2
1 1 acceptor
6 3 4 5 8 9 10 rings

>  <PUBCHEM_HEAVY_ATOM_COUNT>  (1) 
11

>  <PUBCHEM_ATOM_DEF_STEREO_COUNT>  (1) 
0

>  <PUBCHEM_ATOM_UDEF_STEREO_COUNT>  (1) 
0

>  <PUBCHEM_BOND_DEF_STEREO_COUNT>  (1) 
0

>  <PUBCHEM_BOND_UDEF_STEREO_COUNT>  (1) 
0

>  <PUBCHEM_ISOTOPIC_ATOM_COUNT>  (1) 
0

>  <PUBCHEM_COMPONENT_COUNT>  (1) 
1

>  <PUBCHEM_CACTVS_TAUTO_COUNT>  (1) 
1

>  <PUBCHEM_CONFORMER_ID>  (1) 
00002C6400000002

>  <PUBCHEM_MMFF94_ENERGY>  (1) 
44.3369

>  <PUBCHEM_FEATURE_SELFOVERLAP>  (1) 
10.148

>  <PUBCHEM_SHAPE_FINGERPRINT>  (1) 
10608611 8 18410289194550087532
10857977 72 18188489189466502441
12524768 44 18408324358923663567
12897270 3 18411418427314219397
12932764 1 17632569452968268263
13380535 21 18338250262081503855
13380535 76 18410007723815590135
14325111 11 18410292536240099280
15219456 202 18340208487985108135
15775835 57 17968376740983732609
16945 1 18411421717380474423
19973954 147 18339645542453228585
20201158 50 18411980243385802939
20588541 1 18409731729295978188
20645464 45 18410858737446794943
20871998 184 18268155438365769567
21028194 46 18411418436099462672
21501502 16 18338233760854134315
23235685 24 18411130325266482312
23402539 116 18336815477254841879
23402655 69 18269823230481338645
23463225 33 18334010588642754976
23552423 10 18186809049647161223
2748010 2 18265334997544975663
369184 2 17675917712047205905
5084963 1 18130790121980978290
53812653 166 18412543189207780912
6333449 129 18409727370194238647
7364860 26 18268427928133831270

>  <PUBCHEM_SHAPE_MULTIPOLES>  (1) 
215.52
4.87
1.7
0.67
1.31
0.2
0.01
-0.44
-0.37
0.13
0.08
-0.03
0.02
0.44

>  <PUBCHEM_SHAPE_SELFOVERLAP>  (1) 
440.027

>  <PUBCHEM_SHAPE_VOLUME>  (1) 
125.3

>  <PUBCHEM_COORDINATE_TYPE>  (1) 
2
5
10

$$$$
