11372
     RDKit          3D

 11 12  0  0  0  0  0  0  0  0999 V2000
   -3.9101   -0.7909   -0.0003 Br  0  0  0  0  0  0  0  0  0  0  0  0
    0.2618   -0.6166    0.0001 C   0  0  0  0  0  0  0  0  0  0  0  0
    0.5202    0.7749    0.0000 C   0  0  0  0  0  0  0  0  0  0  0  0
   -1.0678   -1.0683    0.0001 C   0  0  0  0  0  0  0  0  0  0  0  0
   -0.5591    1.6737    0.0000 C   0  0  0  0  0  0  0  0  0  0  0  0
    1.3410   -1.5155    0.0000 C   0  0  0  0  0  0  0  0  0  0  0  0
    1.8499    1.2265    0.0000 C   0  0  0  0  0  0  0  0  0  0  0  0
   -2.1277   -0.1612    0.0001 C   0  0  0  0  0  0  0  0  0  0  0  0
   -1.8738    1.2071    0.0000 C   0  0  0  0  0  0  0  0  0  0  0  0
    2.6559   -1.0490    0.0000 C   0  0  0  0  0  0  0  0  0  0  0  0
    2.9098    0.3193   -0.0001 C   0  0  0  0  0  0  0  0  0  0  0  0
  1  8  1  0
  2  3  1  0
  2  4  2  0
  2  6  1  0
  3  5  2  0
  3  7  1  0
  4  8  1  0
  5  9  1  0
  6 10  2  0
  7 11  2  0
  8  9  2  0
 10 11  1  0
M  END
>  <PUBCHEM_COMPOUND_CID>  (1) 
11372

>  <PUBCHEM_CONFORMER_RMSD>  (1) 
0.4

>  <PUBCHEM_CONFORMER_DIVERSEORDER>  (1) 
1

>  <PUBCHEM_MMFF94_PARTIAL_CHARGES>  (1) 
16
1 -0.11
10 -0.15
11 -0.15
12 0.15
13 0.15
14 0.15
15 0.15
16 0.15
17 0.15
18 0.15
4 -0.15
5 -0.15
6 -0.15
7 -0.15
8 0.11
9 -0.15

>  <PUBCHEM_EFFECTIVE_ROTOR_COUNT>  (1) 
0

>  <PUBCHEM_PHARMACOPHORE_FEATURES>  (1) 
3
1 1 hydrophobe
6 2 3 4 5 8 9 rings
6 2 3 6 7 10 11 rings

>  <PUBCHEM_HEAVY_ATOM_COUNT>  (1) 
11

>  <PUBCHEM_ATOM_DEF_STEREO_COUNT>  (1) 
0

>  <PUBCHEM_ATOM_UDEF_STEREO_COUNT>  (1) 
0

>  <PUBCHEM_BOND_DEF_STEREO_COUNT>  (1) 
0

>  <PUBCHEM_BOND_UDEF_STEREO_COUNT>  (1) 
0

>  <PUBCHEM_ISOTOPIC_ATOM_COUNT>  (1) 
0

>  <PUBCHEM_COMPONENT_COUNT>  (1) 
1

>  <PUBCHEM_CACTVS_TAUTO_COUNT>  (1) 
1

>  <PUBCHEM_CONFORMER_ID>  (1) 
00002C6C00000001

>  <PUBCHEM_MMFF94_ENERGY>  (1) 
29.5122

>  <PUBCHEM_FEATURE_SELFOVERLAP>  (1) 
15.249

>  <PUBCHEM_SHAPE_FINGERPRINT>  (1) 
10219947 1 18341615949131952151
11206711 2 18335704888389302101
11471102 20 18410288138341138487
11769659 78 18336823104631391203
12032990 46 18410017645458919819
12897270 3 18410009927117586068
12932764 1 17274811459044645173
14251717 144 18340200903563571327
14325111 11 18410575067583676865
161256 15 18411416219743428572
16945 1 18410574011010990660
17844478 74 18113624486571824173
193761 8 17833831573451538831
19973954 147 18339362946489988716
20201158 50 18334857238144608211
20645477 70 18411976949789900735
20871998 184 18130504137336079839
20871998 22 18271252607664664983
21501502 16 18338239249769500200
21501925 9 18336815429709430314
23402539 116 18340756109311078471
23402655 69 18412536605466067045
23463225 33 18409167705495114359
23552423 10 18261115132089298318
23559900 14 17622164565042394054
2748010 2 18339077064739624060
369184 2 18411135796959703016
5084963 1 18272088270929688600
528886 8 18339639052704845002
53812653 166 18128531759473336096
581208 293 18340482378139075865
7364860 26 18270683185702014996
8809292 202 18187089493832026523

>  <PUBCHEM_SHAPE_MULTIPOLES>  (1) 
232.32
5.07
1.71
0.63
2.66
0.21
0
-1.24
0
-0.19
0
0.05
-0.01
0

>  <PUBCHEM_SHAPE_SELFOVERLAP>  (1) 
494.095

>  <PUBCHEM_SHAPE_VOLUME>  (1) 
131

>  <PUBCHEM_COORDINATE_TYPE>  (1) 
2
5
10

$$$$
