11376
     RDKit          3D

 11 12  0  0  0  0  0  0  0  0999 V2000
   -3.4304    0.7046    0.0000 O   0  0  0  0  0  0  0  0  0  0  0  0
   -0.6279   -1.6221    0.0000 N   0  0  0  0  0  0  0  0  0  0  0  0
    0.2331    0.6287    0.0000 C   0  0  0  0  0  0  0  0  0  0  0  0
    0.4148   -0.7702   -0.0001 C   0  0  0  0  0  0  0  0  0  0  0  0
   -1.0780    1.1236    0.0000 C   0  0  0  0  0  0  0  0  0  0  0  0
    1.3444    1.4887    0.0000 C   0  0  0  0  0  0  0  0  0  0  0  0
    1.7174   -1.2614    0.0000 C   0  0  0  0  0  0  0  0  0  0  0  0
   -2.1545    0.2483    0.0000 C   0  0  0  0  0  0  0  0  0  0  0  0
    2.6361    0.9702    0.0000 C   0  0  0  0  0  0  0  0  0  0  0  0
    2.8225   -0.4065    0.0000 C   0  0  0  0  0  0  0  0  0  0  0  0
   -1.8774   -1.1038    0.0000 C   0  0  0  0  0  0  0  0  0  0  0  0
  1  8  1  0
  2  4  2  0
  2 11  1  0
  3  4  1  0
  3  5  2  0
  3  6  1  0
  4  7  1  0
  5  8  1  0
  6  9  2  0
  7 10  2  0
  8 11  2  0
  9 10  1  0
M  END
>  <PUBCHEM_COMPOUND_CID>  (1) 
11376

>  <PUBCHEM_CONFORMER_RMSD>  (1) 
0.4

>  <PUBCHEM_CONFORMER_DIVERSEORDER>  (1) 
1

>  <PUBCHEM_MMFF94_PARTIAL_CHARGES>  (1) 
17
1 -0.53
10 -0.15
11 0.16
12 0.15
13 0.15
14 0.15
15 0.15
16 0.15
17 0.15
18 0.45
2 -0.62
4 0.31
5 -0.15
6 -0.15
7 -0.15
8 0.08
9 -0.15

>  <PUBCHEM_EFFECTIVE_ROTOR_COUNT>  (1) 
0

>  <PUBCHEM_PHARMACOPHORE_FEATURES>  (1) 
4
1 1 donor
1 2 acceptor
6 2 3 4 5 8 11 rings
6 3 4 6 7 9 10 rings

>  <PUBCHEM_HEAVY_ATOM_COUNT>  (1) 
11

>  <PUBCHEM_ATOM_DEF_STEREO_COUNT>  (1) 
0

>  <PUBCHEM_ATOM_UDEF_STEREO_COUNT>  (1) 
0

>  <PUBCHEM_BOND_DEF_STEREO_COUNT>  (1) 
0

>  <PUBCHEM_BOND_UDEF_STEREO_COUNT>  (1) 
0

>  <PUBCHEM_ISOTOPIC_ATOM_COUNT>  (1) 
0

>  <PUBCHEM_COMPONENT_COUNT>  (1) 
1

>  <PUBCHEM_CACTVS_TAUTO_COUNT>  (1) 
3

>  <PUBCHEM_CONFORMER_ID>  (1) 
00002C7000000001

>  <PUBCHEM_MMFF94_ENERGY>  (1) 
31.0208

>  <PUBCHEM_FEATURE_SELFOVERLAP>  (1) 
20.329

>  <PUBCHEM_SHAPE_FINGERPRINT>  (1) 
12524768 44 18412268302584431686
12897270 3 18411138056233852548
13380535 76 18411133653781857622
14325111 11 18410575110554409857
15775835 57 18408610278991156444
16945 1 18410573963813764710
17844478 74 17968106313032178721
193761 8 17689999359079728069
19973954 147 18337956808488347464
20201158 50 18412825755032442062
21040471 1 18338516460049316740
21501502 16 18338514260873171398
23235685 24 18411694383210650737
23402655 69 18341600491961522205
23463225 33 18335416833939411970
23552423 10 18261393420231956374
23559900 14 18342749529326478916
241688 4 17331970421581856562
2748010 2 18266742561301562302
369184 2 18411135861373623987
5084963 1 18201435835524781360
528886 8 18411132541400808064
53812653 166 18343014527912025000
63268167 104 18411703166434504616

>  <PUBCHEM_SHAPE_MULTIPOLES>  (1) 
215.52
4.21
1.63
0.6
0.9
0.14
0
-0.56
0
-0.17
0
-0.04
-0.01
0

>  <PUBCHEM_SHAPE_SELFOVERLAP>  (1) 
476.186

>  <PUBCHEM_SHAPE_VOLUME>  (1) 
115.6

>  <PUBCHEM_COORDINATE_TYPE>  (1) 
2
5
10

$$$$
