11380
     RDKit          3D

 17 17  0  0  0  0  0  0  0  0999 V2000
    0.0209   -3.8073    0.0024 Cl  0  0  0  0  0  0  0  0  0  0  0  0
   -2.3382    0.5395    0.1441 N   0  0  0  0  0  0  0  0  0  0  0  0
    2.3434    0.5585   -0.1451 N   0  0  0  0  0  0  0  0  0  0  0  0
    0.0025    0.5815   -0.0004 N   0  0  0  0  0  0  0  0  0  0  0  0
    1.2084   -1.4916   -0.0744 N   0  0  0  0  0  0  0  0  0  0  0  0
   -1.1865   -1.5014    0.0735 N   0  0  0  0  0  0  0  0  0  0  0  0
   -2.3694    1.9964    0.1457 C   0  0  0  0  0  0  0  0  0  0  0  0
   -3.6072   -0.1743    0.2084 C   0  0  0  0  0  0  0  0  0  0  0  0
    2.3482    2.0071   -0.1454 C   0  0  0  0  0  0  0  0  0  0  0  0
    3.6035   -0.1536   -0.2087 C   0  0  0  0  0  0  0  0  0  0  0  0
   -1.1292   -0.1521    0.0696 C   0  0  0  0  0  0  0  0  0  0  0  0
    1.1254   -0.1514   -0.0697 C   0  0  0  0  0  0  0  0  0  0  0  0
   -2.0692    2.5237    1.5357 C   0  0  0  0  0  0  0  0  0  0  0  0
   -4.0306   -0.6130   -1.1802 C   0  0  0  0  0  0  0  0  0  0  0  0
    2.0385    2.5301   -1.5350 C   0  0  0  0  0  0  0  0  0  0  0  0
    4.0261   -0.5926    1.1801 C   0  0  0  0  0  0  0  0  0  0  0  0
    0.0134   -2.0995   -0.0006 C   0  0  0  0  0  0  0  0  0  0  0  0
  1 17  1  0
  2  7  1  0
  2  8  1  0
  2 11  1  0
  3  9  1  0
  3 10  1  0
  3 12  1  0
  4 11  2  0
  4 12  1  0
  5 12  2  0
  5 17  1  0
  6 11  1  0
  6 17  2  0
  7 13  1  0
  8 14  1  0
  9 15  1  0
 10 16  1  0
M  END
>  <PUBCHEM_COMPOUND_CID>  (1) 
11380

>  <PUBCHEM_CONFORMER_RMSD>  (1) 
0.8

>  <PUBCHEM_CONFORMER_DIVERSEORDER>  (1) 
1
15
16
5
4
13
9
11
12
3
14
2
8
10
17
7
6

>  <PUBCHEM_MMFF94_PARTIAL_CHARGES>  (1) 
13
1 -0.18
10 0.37
11 0.72
12 0.72
17 0.8
2 -0.84
3 -0.84
4 -0.62
5 -0.62
6 -0.62
7 0.37
8 0.37
9 0.37

>  <PUBCHEM_EFFECTIVE_ROTOR_COUNT>  (1) 
6

>  <PUBCHEM_PHARMACOPHORE_FEATURES>  (1) 
3
4 2 4 6 11 cation
4 3 4 5 12 cation
6 4 5 6 11 12 17 rings

>  <PUBCHEM_HEAVY_ATOM_COUNT>  (1) 
17

>  <PUBCHEM_ATOM_DEF_STEREO_COUNT>  (1) 
0

>  <PUBCHEM_ATOM_UDEF_STEREO_COUNT>  (1) 
0

>  <PUBCHEM_BOND_DEF_STEREO_COUNT>  (1) 
0

>  <PUBCHEM_BOND_UDEF_STEREO_COUNT>  (1) 
0

>  <PUBCHEM_ISOTOPIC_ATOM_COUNT>  (1) 
0

>  <PUBCHEM_COMPONENT_COUNT>  (1) 
1

>  <PUBCHEM_CACTVS_TAUTO_COUNT>  (1) 
1

>  <PUBCHEM_CONFORMER_ID>  (1) 
00002C7400000001

>  <PUBCHEM_MMFF94_ENERGY>  (1) 
41.9922

>  <PUBCHEM_FEATURE_SELFOVERLAP>  (1) 
15.266

>  <PUBCHEM_SHAPE_FINGERPRINT>  (1) 
12251169 10 18334570278784486104
12403260 363 18410564093841891872
13140716 1 18267022945399174371
13380535 76 18410571786139414203
13538477 17 18191303986583789630
13583140 156 17168140186897860155
14178342 30 18196653995062878753
15490181 8 18338533974715167622
16945 1 18410586079779674982
17862501 102 18339350899080395362
18186145 218 18409732893221481757
192875 21 18410002252032510309
200 152 18342163471794890221
20510252 161 18272653475709402552
20645476 183 18043541713901034246
20671657 1 18188501297285797900
21501502 16 18124594185206876195
21524375 3 18334294266489633426
22094290 62 18334295409356810756
2334 1 17978513366234494147
23402539 116 18272639160694096581
23419403 2 16176718429197135678
23557571 272 17275108305873169881
23558518 356 18269849627049444547
23559900 14 18200037395186462780
23598291 2 17912363122192877447
2748010 2 17335058344159119721
305870 269 18195811769140086970
352729 6 18338804531880133350
43471831 8 18338514119113344747
474 4 18336273336233281785
58051976 378 18342171150975161671
6992083 37 18333449833423130584
7364860 26 17982171119403234643
74978 22 18263083378520830398
7832392 63 17980769229350920601
81228 2 17836921578951343139

>  <PUBCHEM_SHAPE_MULTIPOLES>  (1) 
326.82
6.33
3.49
1.08
0.06
1.65
0
-1.3
0.01
-0.01
0
0.01
-0.65
-1.44

>  <PUBCHEM_SHAPE_SELFOVERLAP>  (1) 
637.307

>  <PUBCHEM_SHAPE_VOLUME>  (1) 
196.5

>  <PUBCHEM_COORDINATE_TYPE>  (1) 
2
5
10

$$$$
