11395
     RDKit          3D

 22 25  0  0  0  0  0  0  0  0999 V2000
   -0.2871    0.5566    0.5566 N   0  0  0  0  0  0  0  0  0  0  0  0
    0.2866    0.5567   -0.5577 N   0  0  0  0  0  0  0  0  0  0  0  0
   -3.7598   -0.6687    0.1166 C   0  0  0  0  0  0  0  0  0  0  0  0
    3.7592   -0.6688   -0.1167 C   0  0  0  0  0  0  0  0  0  0  0  0
   -4.4609    0.5573    0.0271 C   0  0  0  0  0  0  0  0  0  0  0  0
    4.4603    0.5572   -0.0269 C   0  0  0  0  0  0  0  0  0  0  0  0
   -2.3666   -0.6517    0.2932 C   0  0  0  0  0  0  0  0  0  0  0  0
    2.3660   -0.6517   -0.2939 C   0  0  0  0  0  0  0  0  0  0  0  0
   -1.6746    0.5567    0.3802 C   0  0  0  0  0  0  0  0  0  0  0  0
    1.6807    0.5568   -0.3800 C   0  0  0  0  0  0  0  0  0  0  0  0
   -3.7484    1.7643    0.1172 C   0  0  0  0  0  0  0  0  0  0  0  0
    3.7479    1.7642   -0.1169 C   0  0  0  0  0  0  0  0  0  0  0  0
   -4.4725   -1.8756    0.0267 C   0  0  0  0  0  0  0  0  0  0  0  0
    4.4718   -1.8757   -0.0270 C   0  0  0  0  0  0  0  0  0  0  0  0
   -5.8541    0.5405   -0.1494 C   0  0  0  0  0  0  0  0  0  0  0  0
    5.8534    0.5402    0.1501 C   0  0  0  0  0  0  0  0  0  0  0  0
   -2.3642    1.7624    0.2926 C   0  0  0  0  0  0  0  0  0  0  0  0
    2.3637    1.7625   -0.2928 C   0  0  0  0  0  0  0  0  0  0  0  0
   -5.8565   -1.8736   -0.1489 C   0  0  0  0  0  0  0  0  0  0  0  0
    5.8557   -1.8737    0.1492 C   0  0  0  0  0  0  0  0  0  0  0  0
   -6.5461   -0.6678   -0.2369 C   0  0  0  0  0  0  0  0  0  0  0  0
    6.5453   -0.6680    0.2376 C   0  0  0  0  0  0  0  0  0  0  0  0
  1  2  2  0
  1  9  1  0
  2 10  1  0
  3  5  1  0
  3  7  2  0
  3 13  1  0
  4  6  1  0
  4  8  2  0
  4 14  1  0
  5 11  2  0
  5 15  1  0
  6 12  2  0
  6 16  1  0
  7  9  1  0
  8 10  1  0
  9 17  2  0
 10 18  2  0
 11 17  1  0
 12 18  1  0
 13 19  2  0
 14 20  2  0
 15 21  2  0
 16 22  2  0
 19 21  1  0
 20 22  1  0
M  END
>  <PUBCHEM_COMPOUND_CID>  (1) 
11395

>  <PUBCHEM_CONFORMER_RMSD>  (1) 
0.6

>  <PUBCHEM_CONFORMER_DIVERSEORDER>  (1) 
1
4
5
2
3
6

>  <PUBCHEM_MMFF94_PARTIAL_CHARGES>  (1) 
32
1 -0.18
10 0.18
11 -0.15
12 -0.15
13 -0.15
14 -0.15
15 -0.15
16 -0.15
17 -0.15
18 -0.15
19 -0.15
2 -0.18
20 -0.15
21 -0.15
22 -0.15
23 0.15
24 0.15
25 0.15
26 0.15
27 0.15
28 0.15
29 0.15
30 0.15
31 0.15
32 0.15
33 0.15
34 0.15
35 0.15
36 0.15
7 -0.15
8 -0.15
9 0.18

>  <PUBCHEM_EFFECTIVE_ROTOR_COUNT>  (1) 
2

>  <PUBCHEM_PHARMACOPHORE_FEATURES>  (1) 
4
6 3 5 13 15 19 21 rings
6 3 5 7 9 11 17 rings
6 4 6 14 16 20 22 rings
6 4 6 8 10 12 18 rings

>  <PUBCHEM_HEAVY_ATOM_COUNT>  (1) 
22

>  <PUBCHEM_ATOM_DEF_STEREO_COUNT>  (1) 
0

>  <PUBCHEM_ATOM_UDEF_STEREO_COUNT>  (1) 
0

>  <PUBCHEM_BOND_DEF_STEREO_COUNT>  (1) 
0

>  <PUBCHEM_BOND_UDEF_STEREO_COUNT>  (1) 
0

>  <PUBCHEM_ISOTOPIC_ATOM_COUNT>  (1) 
0

>  <PUBCHEM_COMPONENT_COUNT>  (1) 
1

>  <PUBCHEM_CACTVS_TAUTO_COUNT>  (1) 
1

>  <PUBCHEM_CONFORMER_ID>  (1) 
00002C8300000001

>  <PUBCHEM_MMFF94_ENERGY>  (1) 
68.5087

>  <PUBCHEM_FEATURE_SELFOVERLAP>  (1) 
20.352

>  <PUBCHEM_SHAPE_FINGERPRINT>  (1) 
10 15 18130495423591183024
10595046 47 18410577313867643796
10670039 82 14273727417893278942
10835480 77 18411973680887570221
11315181 36 18272091608647051761
11524674 6 16630526254620633391
11719270 70 18131068221129777622
12107183 9 17762057636017528232
12166972 35 18334860536548181436
12236239 1 18410856559650481993
12516196 113 18201718457368737840
12596602 18 17917993854588225346
12616971 3 16558741347386622348
13167823 11 18410855464423181058
13288520 33 18411981369463741533
13533116 47 18411138065098184712
13668630 136 18334295361685266358
13685833 64 18407762533956320210
14211702 104 18410303535625594195
14341114 176 18411704279100078884
14347332 77 18334852784205493365
14461889 52 18340480171296156210
15183329 4 18040994025094949779
15196674 1 18410576188469699971
15419008 42 17982726368448367509
15788980 27 18261116274371303025
17844677 252 18411706482139207624
17857418 61 18410575084673803850
18222031 100 17530684312330553468
18681886 176 18412258458978085082
19489759 90 18260830397591203577
19958102 18 18114173151564798303
200 152 18272369771818855049
20028762 73 18342174445431953046
21065198 48 18341620312666023520
21130935 74 18272370845787785970
21197605 99 18342177812564961414
21267235 1 18410863156709556227
21623969 137 17632580435379246102
22224240 67 14908178660013859853
23402539 116 18409445899718360213
23522609 53 18122377693861363236
23536379 177 18410293610013519993
23559900 14 18338792420620790257
23569943 247 17387685007865524194
29717793 49 17894915135390824948
3004659 81 18260546731890995768
329604 57 18201722863910413520
335352 9 18411697687296081061
34797466 226 17275109457615482172
4015057 19 18188776170713164729
4073 2 18041002898682097322
4214541 1 18410576158711241281
4340502 62 14620794886615304708
439807 62 18339643464449121807
465052 167 18273217478699957574
5104073 3 18273498961459722080
5283156 175 18411138035376084033
559249 180 18409446960691274647
59682541 35 18201425992672971570
59755656 215 17676202450972539707
59755656 520 16660082218149445915
67856867 119 18337955704703501204
7495541 125 17775282802368348984
9709674 26 18262245524426548187
9971528 1 17821730567493662844
999808 66 17968669319516884675

>  <PUBCHEM_SHAPE_MULTIPOLES>  (1) 
442.79
18.6
2.07
0.67
0.02
0.19
0
7
0
0
0
0
-0.02
-0.34

>  <PUBCHEM_SHAPE_SELFOVERLAP>  (1) 
999.138

>  <PUBCHEM_SHAPE_VOLUME>  (1) 
232.7

>  <PUBCHEM_COORDINATE_TYPE>  (1) 
2
5
10

$$$$
