11405
     RDKit          3D

 12 12  0  0  1  0  0  0  0  0999 V2000
    0.7771   -2.2935    0.0820 O   0  0  0  0  0  0  0  0  0  0  0  0
   -3.2175   -0.2397   -0.4491 N   0  0  0  0  0  0  0  0  0  0  0  0
   -1.8914    0.0142    0.1217 C   0  0  0  0  0  0  0  0  0  0  0  0
   -0.8186   -0.1694   -0.9673 C   0  0  0  0  0  0  0  0  0  0  0  0
    0.5917    0.0319   -0.4669 C   0  0  0  0  0  0  0  0  0  0  0  0
   -1.8858    1.4220    0.7179 C   0  0  0  0  0  0  0  0  0  0  0  0
    1.3132   -1.0419    0.0310 C   0  0  0  0  0  0  0  0  0  0  0  0
    1.1399    1.3046   -0.5180 C   0  0  0  0  0  0  0  0  0  0  0  0
   -4.2437   -0.1337    0.5744 C   0  0  0  0  0  0  0  0  0  0  0  0
    2.6148   -0.8386    0.4895 C   0  0  0  0  0  0  0  0  0  0  0  0
    2.4415    1.5079   -0.0595 C   0  0  0  0  0  0  0  0  0  0  0  0
    3.1788    0.4364    0.4443 C   0  0  0  0  0  0  0  0  0  0  0  0
  1  7  1  0
  2  3  1  0
  2  9  1  0
  3  4  1  0
  3  6  1  0
  4  5  1  0
  5  7  2  0
  5  8  1  0
  7 10  1  0
  8 11  2  0
 10 12  2  0
 11 12  1  0
M  END
>  <PUBCHEM_COMPOUND_CID>  (1) 
11405

>  <PUBCHEM_CONFORMER_RMSD>  (1) 
0.6

>  <PUBCHEM_CONFORMER_DIVERSEORDER>  (1) 
2
4
20
19
17
21
1
9
7
10
5
8
14
12
13
11
16
18
6
3
15

>  <PUBCHEM_MMFF94_PARTIAL_CHARGES>  (1) 
17
1 -0.53
10 -0.15
11 -0.15
12 -0.15
19 0.36
2 -0.9
20 0.15
24 0.15
25 0.15
26 0.15
27 0.45
3 0.27
4 0.14
5 -0.14
7 0.08
8 -0.15
9 0.27

>  <PUBCHEM_EFFECTIVE_ROTOR_COUNT>  (1) 
3

>  <PUBCHEM_PHARMACOPHORE_FEATURES>  (1) 
4
1 1 donor
1 2 cation
1 2 donor
6 5 7 8 10 11 12 rings

>  <PUBCHEM_HEAVY_ATOM_COUNT>  (1) 
12

>  <PUBCHEM_ATOM_DEF_STEREO_COUNT>  (1) 
0

>  <PUBCHEM_ATOM_UDEF_STEREO_COUNT>  (1) 
1

>  <PUBCHEM_BOND_DEF_STEREO_COUNT>  (1) 
0

>  <PUBCHEM_BOND_UDEF_STEREO_COUNT>  (1) 
0

>  <PUBCHEM_ISOTOPIC_ATOM_COUNT>  (1) 
0

>  <PUBCHEM_COMPONENT_COUNT>  (1) 
1

>  <PUBCHEM_CACTVS_TAUTO_COUNT>  (1) 
3

>  <PUBCHEM_CONFORMER_ID>  (1) 
00002C8D00000002

>  <PUBCHEM_MMFF94_ENERGY>  (1) 
26.3236

>  <PUBCHEM_FEATURE_SELFOVERLAP>  (1) 
20.297

>  <PUBCHEM_SHAPE_FINGERPRINT>  (1) 
10219947 1 18260264161602698548
11471102 22 18259707787265274080
12251169 10 18334572460221814010
12932764 1 17346587561163435069
14251717 144 18408598180258220215
15501101 241 18186519882336349564
15775835 57 17989207083208514417
16945 1 18411692180203482526
200 152 18270384049919562189
20201158 50 18186802469904846571
20559304 39 18343024371729121328
20645477 70 18336537227877860799
20871998 22 18124595271902550670
21730867 7 18260267455784475261
22802520 49 13541365782179072616
23402539 116 14907893856015735016
2748010 2 17975953403260749454
276578 36 18272374195534819658
57812782 119 17676482865413860529
581208 293 18408037437606551215
7364860 26 18059018271990964662

>  <PUBCHEM_SHAPE_MULTIPOLES>  (1) 
236.1
5.86
1.63
0.85
4.82
0.3
-0.04
-0.37
1.32
-0.85
0.11
0.15
-0.06
-0.32

>  <PUBCHEM_SHAPE_SELFOVERLAP>  (1) 
477.483

>  <PUBCHEM_SHAPE_VOLUME>  (1) 
138.8

>  <PUBCHEM_COORDINATE_TYPE>  (1) 
2
5
10

$$$$
