11419
     RDKit          3D

  8  8  0  0  1  0  0  0  0  0999 V2000
    1.4182   -1.5854    0.3060 O   0  0  0  0  0  0  0  0  0  0  0  0
    0.7597    0.6395   -0.3964 C   0  0  0  0  0  0  0  0  0  0  0  0
   -0.3281    1.4923    0.2638 C   0  0  0  0  0  0  0  0  0  0  0  0
   -1.7299    1.0024   -0.0965 C   0  0  0  0  0  0  0  0  0  0  0  0
   -1.9171   -0.4599    0.2989 C   0  0  0  0  0  0  0  0  0  0  0  0
   -0.8710   -1.3557   -0.3482 C   0  0  0  0  0  0  0  0  0  0  0  0
    0.5220   -0.8319   -0.0712 C   0  0  0  0  0  0  0  0  0  0  0  0
    2.1462    1.0987    0.0436 C   0  0  0  0  0  0  0  0  0  0  0  0
  1  7  2  0
  2  3  1  0
  2  7  1  0
  2  8  1  0
  3  4  1  0
  4  5  1  0
  5  6  1  0
  6  7  1  0
M  END
>  <PUBCHEM_COMPOUND_CID>  (1) 
11419

>  <PUBCHEM_CONFORMER_RMSD>  (1) 
0.4

>  <PUBCHEM_CONFORMER_DIVERSEORDER>  (1) 
3
1
2
4

>  <PUBCHEM_MMFF94_PARTIAL_CHARGES>  (1) 
4
1 -0.57
2 0.06
6 0.06
7 0.45

>  <PUBCHEM_EFFECTIVE_ROTOR_COUNT>  (1) 
1

>  <PUBCHEM_PHARMACOPHORE_FEATURES>  (1) 
2
1 1 acceptor
6 2 3 4 5 6 7 rings

>  <PUBCHEM_HEAVY_ATOM_COUNT>  (1) 
8

>  <PUBCHEM_ATOM_DEF_STEREO_COUNT>  (1) 
0

>  <PUBCHEM_ATOM_UDEF_STEREO_COUNT>  (1) 
1

>  <PUBCHEM_BOND_DEF_STEREO_COUNT>  (1) 
0

>  <PUBCHEM_BOND_UDEF_STEREO_COUNT>  (1) 
0

>  <PUBCHEM_ISOTOPIC_ATOM_COUNT>  (1) 
0

>  <PUBCHEM_COMPONENT_COUNT>  (1) 
1

>  <PUBCHEM_CACTVS_TAUTO_COUNT>  (1) 
3

>  <PUBCHEM_CONFORMER_ID>  (1) 
00002C9B00000003

>  <PUBCHEM_MMFF94_ENERGY>  (1) 
4.3691

>  <PUBCHEM_FEATURE_SELFOVERLAP>  (1) 
10.148

>  <PUBCHEM_SHAPE_FINGERPRINT>  (1) 
16714656 1 18122914384494584260
18185500 45 18339922748232349639
21040471 1 18411421721533231269
23552423 10 18333736831548228086
2748010 2 18338519642614853989
29004967 10 18113909311338228265
5084963 1 17913215543956352008

>  <PUBCHEM_SHAPE_MULTIPOLES>  (1) 
158.77
2.48
1.81
0.67
0.33
0.22
0.01
-0.36
-0.11
0.09
-0.07
-0.02
0
-0.09

>  <PUBCHEM_SHAPE_SELFOVERLAP>  (1) 
308.853

>  <PUBCHEM_SHAPE_VOLUME>  (1) 
95.7

>  <PUBCHEM_COORDINATE_TYPE>  (1) 
2
5
10

$$$$
