11415
     RDKit          3D

  8  8  0  0  0  0  0  0  0  0999 V2000
    2.3970   -1.6388   -0.0003 I   0  0  0  0  0  0  0  0  0  0  0  0
    1.9050    1.9461    0.0005 Br  0  0  0  0  0  0  0  0  0  0  0  0
    0.5495   -0.6359    0.0000 C   0  0  0  0  0  0  0  0  0  0  0  0
    0.4226    0.7533   -0.0003 C   0  0  0  0  0  0  0  0  0  0  0  0
   -0.5902   -1.4403    0.0003 C   0  0  0  0  0  0  0  0  0  0  0  0
   -0.8439    1.3379   -0.0004 C   0  0  0  0  0  0  0  0  0  0  0  0
   -1.8566   -0.8557    0.0002 C   0  0  0  0  0  0  0  0  0  0  0  0
   -1.9834    0.5333   -0.0001 C   0  0  0  0  0  0  0  0  0  0  0  0
  1  3  1  0
  2  4  1  0
  3  4  2  0
  3  5  1  0
  4  6  1  0
  5  7  2  0
  6  8  2  0
  7  8  1  0
M  END
>  <PUBCHEM_COMPOUND_CID>  (1) 
11415

>  <PUBCHEM_CONFORMER_RMSD>  (1) 
0.4

>  <PUBCHEM_CONFORMER_DIVERSEORDER>  (1) 
1

>  <PUBCHEM_MMFF94_PARTIAL_CHARGES>  (1) 
12
1 -0.08
10 0.15
11 0.15
12 0.15
2 -0.11
3 0.08
4 0.11
5 -0.15
6 -0.15
7 -0.15
8 -0.15
9 0.15

>  <PUBCHEM_EFFECTIVE_ROTOR_COUNT>  (1) 
0

>  <PUBCHEM_PHARMACOPHORE_FEATURES>  (1) 
3
1 1 hydrophobe
1 2 hydrophobe
6 3 4 5 6 7 8 rings

>  <PUBCHEM_HEAVY_ATOM_COUNT>  (1) 
8

>  <PUBCHEM_ATOM_DEF_STEREO_COUNT>  (1) 
0

>  <PUBCHEM_ATOM_UDEF_STEREO_COUNT>  (1) 
0

>  <PUBCHEM_BOND_DEF_STEREO_COUNT>  (1) 
0

>  <PUBCHEM_BOND_UDEF_STEREO_COUNT>  (1) 
0

>  <PUBCHEM_ISOTOPIC_ATOM_COUNT>  (1) 
0

>  <PUBCHEM_COMPONENT_COUNT>  (1) 
1

>  <PUBCHEM_CACTVS_TAUTO_COUNT>  (1) 
1

>  <PUBCHEM_CONFORMER_ID>  (1) 
00002C9700000001

>  <PUBCHEM_MMFF94_ENERGY>  (1) 
18.9056

>  <PUBCHEM_FEATURE_SELFOVERLAP>  (1) 
15.223

>  <PUBCHEM_SHAPE_FINGERPRINT>  (1) 
12423570 1 10195685528322027199
16714656 1 18050849909950755022
16945 1 18338797797434171078
18185500 45 18120374250588675570
193761 8 18410574019648391527
21040471 1 18266459995471970465
23552423 10 18335140937908908534
241688 4 18265612070206620728
2748010 2 18408884061739267423
5084963 1 18201711804432585307

>  <PUBCHEM_SHAPE_MULTIPOLES>  (1) 
182.51
3.2
2.34
0.67
0.8
0.91
0
-0.86
0
1.14
0
0.12
-0.01
0

>  <PUBCHEM_SHAPE_SELFOVERLAP>  (1) 
339.833

>  <PUBCHEM_SHAPE_VOLUME>  (1) 
119.4

>  <PUBCHEM_COORDINATE_TYPE>  (1) 
2
5
10

$$$$
