11428
     RDKit          3D

  6  5  0  0  0  0  0  0  0  0999 V2000
   -0.0245    1.3591    0.2361 O   0  0  0  0  0  0  0  0  0  0  0  0
    0.0020    0.0249   -0.2650 C   0  0  0  0  0  0  0  0  0  0  0  0
   -1.2556   -0.7027    0.2233 C   0  0  0  0  0  0  0  0  0  0  0  0
    1.2664   -0.6903    0.2252 C   0  0  0  0  0  0  0  0  0  0  0  0
   -2.5358   -0.0004   -0.2106 C   0  0  0  0  0  0  0  0  0  0  0  0
    2.5476    0.0095   -0.2090 C   0  0  0  0  0  0  0  0  0  0  0  0
  1  2  1  0
  2  3  1  0
  2  4  1  0
  3  5  1  0
  4  6  1  0
M  END
>  <PUBCHEM_COMPOUND_CID>  (1) 
11428

>  <PUBCHEM_CONFORMER_RMSD>  (1) 
0.4

>  <PUBCHEM_CONFORMER_DIVERSEORDER>  (1) 
1
5
7
6
4
3
2

>  <PUBCHEM_MMFF94_PARTIAL_CHARGES>  (1) 
3
1 -0.68
18 0.4
2 0.28

>  <PUBCHEM_EFFECTIVE_ROTOR_COUNT>  (1) 
2

>  <PUBCHEM_PHARMACOPHORE_FEATURES>  (1) 
4
1 1 acceptor
1 1 donor
1 5 hydrophobe
1 6 hydrophobe

>  <PUBCHEM_HEAVY_ATOM_COUNT>  (1) 
6

>  <PUBCHEM_ATOM_DEF_STEREO_COUNT>  (1) 
0

>  <PUBCHEM_ATOM_UDEF_STEREO_COUNT>  (1) 
0

>  <PUBCHEM_BOND_DEF_STEREO_COUNT>  (1) 
0

>  <PUBCHEM_BOND_UDEF_STEREO_COUNT>  (1) 
0

>  <PUBCHEM_ISOTOPIC_ATOM_COUNT>  (1) 
0

>  <PUBCHEM_COMPONENT_COUNT>  (1) 
1

>  <PUBCHEM_CACTVS_TAUTO_COUNT>  (1) 
1

>  <PUBCHEM_CONFORMER_ID>  (1) 
00002CA400000001

>  <PUBCHEM_MMFF94_ENERGY>  (1) 
1.2502

>  <PUBCHEM_FEATURE_SELFOVERLAP>  (1) 
20.297

>  <PUBCHEM_SHAPE_FINGERPRINT>  (1) 
139733 1 9007059067008502555
14390081 3 18408320007868656556
16714656 1 18343867705711056502
20096714 4 18339359798400163115
23552423 10 18117565024292150822
29004967 10 18411141350373626330
5460574 1 10159700196271709391

>  <PUBCHEM_SHAPE_MULTIPOLES>  (1) 
117.61
3.42
1
0.65
0.04
0.2
-0.01
-0.19
-0.33
-0.01
0.1
0
-0.01
0

>  <PUBCHEM_SHAPE_SELFOVERLAP>  (1) 
201.471

>  <PUBCHEM_SHAPE_VOLUME>  (1) 
79.8

>  <PUBCHEM_COORDINATE_TYPE>  (1) 
2
5
10

$$$$
