11429
     RDKit          3D

  6  5  0  0  1  0  0  0  0  0999 V2000
    0.0162    1.3482    0.2382 O   0  0  0  0  0  0  0  0  0  0  0  0
    2.4354    0.0159   -0.2142 O   0  0  0  0  0  0  0  0  0  0  0  0
    0.0209    0.0134   -0.2675 C   0  0  0  0  0  0  0  0  0  0  0  0
   -1.2400   -0.7032    0.2195 C   0  0  0  0  0  0  0  0  0  0  0  0
    1.2812   -0.6925    0.2255 C   0  0  0  0  0  0  0  0  0  0  0  0
   -2.5137    0.0181   -0.2016 C   0  0  0  0  0  0  0  0  0  0  0  0
  1  3  1  0
  2  5  1  0
  3  4  1  0
  3  5  1  0
  4  6  1  0
M  END
>  <PUBCHEM_COMPOUND_CID>  (1) 
11429

>  <PUBCHEM_CONFORMER_RMSD>  (1) 
0.4

>  <PUBCHEM_CONFORMER_DIVERSEORDER>  (1) 
5
10
6
16
1
17
4
14
7
3
9
12
13
15
8
11
2

>  <PUBCHEM_MMFF94_PARTIAL_CHARGES>  (1) 
6
1 -0.68
15 0.4
16 0.4
2 -0.68
3 0.28
5 0.28

>  <PUBCHEM_EFFECTIVE_ROTOR_COUNT>  (1) 
2

>  <PUBCHEM_PHARMACOPHORE_FEATURES>  (1) 
5
1 1 acceptor
1 1 donor
1 2 acceptor
1 2 donor
1 6 hydrophobe

>  <PUBCHEM_HEAVY_ATOM_COUNT>  (1) 
6

>  <PUBCHEM_ATOM_DEF_STEREO_COUNT>  (1) 
0

>  <PUBCHEM_ATOM_UDEF_STEREO_COUNT>  (1) 
1

>  <PUBCHEM_BOND_DEF_STEREO_COUNT>  (1) 
0

>  <PUBCHEM_BOND_UDEF_STEREO_COUNT>  (1) 
0

>  <PUBCHEM_ISOTOPIC_ATOM_COUNT>  (1) 
0

>  <PUBCHEM_COMPONENT_COUNT>  (1) 
1

>  <PUBCHEM_CACTVS_TAUTO_COUNT>  (1) 
1

>  <PUBCHEM_CONFORMER_ID>  (1) 
00002CA500000005

>  <PUBCHEM_MMFF94_ENERGY>  (1) 
4.4949

>  <PUBCHEM_FEATURE_SELFOVERLAP>  (1) 
25.379

>  <PUBCHEM_SHAPE_FINGERPRINT>  (1) 
139733 1 9079115557271496923
16714656 1 18343304747088566318
20096714 4 18339642372920137075
29004967 10 18410859871075581115
5460574 1 10159700196350830671

>  <PUBCHEM_SHAPE_MULTIPOLES>  (1) 
111.74
3.1
1
0.64
0.15
0.2
0
-0.21
0.27
-0.01
-0.11
0.03
-0.01
0

>  <PUBCHEM_SHAPE_SELFOVERLAP>  (1) 
193.38

>  <PUBCHEM_SHAPE_VOLUME>  (1) 
74.9

>  <PUBCHEM_COORDINATE_TYPE>  (1) 
2
5
10

$$$$
