11454
     RDKit          3D

  9  9  0  0  1  0  0  0  0  0999 V2000
    2.5456    0.9630    1.2062 Br  0  0  0  0  0  0  0  0  0  0  0  0
    1.7273    0.2085   -0.4125 C   0  0  0  0  0  0  0  0  0  0  0  0
    0.2550    0.0939   -0.2031 C   0  0  0  0  0  0  0  0  0  0  0  0
   -0.5789    1.1690   -0.5108 C   0  0  0  0  0  0  0  0  0  0  0  0
   -0.2881   -1.0884    0.3000 C   0  0  0  0  0  0  0  0  0  0  0  0
    2.4589   -1.0925   -0.7476 C   0  0  0  0  0  0  0  0  0  0  0  0
   -1.9558    1.0620   -0.3153 C   0  0  0  0  0  0  0  0  0  0  0  0
   -1.6651   -1.1954    0.4954 C   0  0  0  0  0  0  0  0  0  0  0  0
   -2.4989   -0.1202    0.1877 C   0  0  0  0  0  0  0  0  0  0  0  0
  1  2  1  0
  2  3  1  0
  2  6  1  0
  3  4  2  0
  3  5  1  0
  4  7  1  0
  5  8  2  0
  7  9  2  0
  8  9  1  0
M  END
>  <PUBCHEM_COMPOUND_CID>  (1) 
11454

>  <PUBCHEM_CONFORMER_RMSD>  (1) 
0.4

>  <PUBCHEM_CONFORMER_DIVERSEORDER>  (1) 
2
1

>  <PUBCHEM_MMFF94_PARTIAL_CHARGES>  (1) 
13
1 -0.23
11 0.15
12 0.15
16 0.15
17 0.15
18 0.15
2 0.37
3 -0.14
4 -0.15
5 -0.15
7 -0.15
8 -0.15
9 -0.15

>  <PUBCHEM_EFFECTIVE_ROTOR_COUNT>  (1) 
1

>  <PUBCHEM_PHARMACOPHORE_FEATURES>  (1) 
3
1 1 hydrophobe
3 1 2 6 hydrophobe
6 3 4 5 7 8 9 rings

>  <PUBCHEM_HEAVY_ATOM_COUNT>  (1) 
9

>  <PUBCHEM_ATOM_DEF_STEREO_COUNT>  (1) 
0

>  <PUBCHEM_ATOM_UDEF_STEREO_COUNT>  (1) 
1

>  <PUBCHEM_BOND_DEF_STEREO_COUNT>  (1) 
0

>  <PUBCHEM_BOND_UDEF_STEREO_COUNT>  (1) 
0

>  <PUBCHEM_ISOTOPIC_ATOM_COUNT>  (1) 
0

>  <PUBCHEM_COMPONENT_COUNT>  (1) 
1

>  <PUBCHEM_CACTVS_TAUTO_COUNT>  (1) 
1

>  <PUBCHEM_CONFORMER_ID>  (1) 
00002CBE00000002

>  <PUBCHEM_MMFF94_ENERGY>  (1) 
20.4814

>  <PUBCHEM_FEATURE_SELFOVERLAP>  (1) 
16.156

>  <PUBCHEM_SHAPE_FINGERPRINT>  (1) 
10857977 72 18262517108119871857
12423570 1 9341304039147789613
12716758 59 18335138644211704155
12932741 1 18342738498795401548
12932764 1 17989213663193233990
15219456 202 18343862225733641952
15310529 11 16415477164314821161
16945 1 18040716961249878013
19973954 147 18272090487233455856
20645464 45 18341039779147718776
20653085 51 16916515739748212689
21040471 1 18115587024327168573
23552423 10 17967543384252998078
2748010 2 18408045095739059431
29004967 10 17489594415680110822
369184 2 17704071802329527491
5084963 1 18336555923247644004

>  <PUBCHEM_SHAPE_MULTIPOLES>  (1) 
191.16
3.94
1.45
0.99
0.84
0.07
-0.13
-0.22
-0.52
0.11
-0.01
0.46
-0.08
0.85

>  <PUBCHEM_SHAPE_SELFOVERLAP>  (1) 
374.072

>  <PUBCHEM_SHAPE_VOLUME>  (1) 
117.5

>  <PUBCHEM_COORDINATE_TYPE>  (1) 
2
5
10

$$$$
