11457
     RDKit          3D

 10 10  0  0  0  0  0  0  0  0999 V2000
   -3.1430    1.6295    0.0008 Br  0  0  0  0  0  0  0  0  0  0  0  0
    2.9272   -0.4591    0.0018 O   0  0  0  0  0  0  0  0  0  0  0  0
    2.2172    1.6181   -0.0006 O   0  0  0  0  0  0  0  0  0  0  0  0
    1.9969    0.3829    0.0002 N   0  0  0  0  0  0  0  0  0  0  0  0
    0.6532   -0.0765   -0.0013 C   0  0  0  0  0  0  0  0  0  0  0  0
   -0.3980    0.8404   -0.0007 C   0  0  0  0  0  0  0  0  0  0  0  0
    0.3848   -1.4454   -0.0009 C   0  0  0  0  0  0  0  0  0  0  0  0
   -1.7177    0.3883    0.0002 C   0  0  0  0  0  0  0  0  0  0  0  0
   -0.9347   -1.8974    0.0000 C   0  0  0  0  0  0  0  0  0  0  0  0
   -1.9859   -0.9806    0.0005 C   0  0  0  0  0  0  0  0  0  0  0  0
  1  8  1  0
  2  4  1  0
  3  4  2  0
  4  5  1  0
  5  6  2  0
  5  7  1  0
  6  8  1  0
  7  9  2  0
  8 10  2  0
  9 10  1  0
M  CHG  2   2  -1   4   1
M  END
>  <PUBCHEM_COMPOUND_CID>  (1) 
11457

>  <PUBCHEM_CONFORMER_RMSD>  (1) 
0.4

>  <PUBCHEM_CONFORMER_DIVERSEORDER>  (1) 
1

>  <PUBCHEM_MMFF94_PARTIAL_CHARGES>  (1) 
14
1 -0.11
10 -0.15
11 0.15
12 0.15
13 0.15
14 0.15
2 -0.52
3 -0.52
4 0.91
5 0.13
6 -0.15
7 -0.15
8 0.11
9 -0.15

>  <PUBCHEM_EFFECTIVE_ROTOR_COUNT>  (1) 
1

>  <PUBCHEM_PHARMACOPHORE_FEATURES>  (1) 
5
1 1 hydrophobe
1 2 acceptor
1 2 anion
1 3 acceptor
6 5 6 7 8 9 10 rings

>  <PUBCHEM_HEAVY_ATOM_COUNT>  (1) 
10

>  <PUBCHEM_ATOM_DEF_STEREO_COUNT>  (1) 
0

>  <PUBCHEM_ATOM_UDEF_STEREO_COUNT>  (1) 
0

>  <PUBCHEM_BOND_DEF_STEREO_COUNT>  (1) 
0

>  <PUBCHEM_BOND_UDEF_STEREO_COUNT>  (1) 
0

>  <PUBCHEM_ISOTOPIC_ATOM_COUNT>  (1) 
0

>  <PUBCHEM_COMPONENT_COUNT>  (1) 
1

>  <PUBCHEM_CACTVS_TAUTO_COUNT>  (1) 
1

>  <PUBCHEM_CONFORMER_ID>  (1) 
00002CC100000001

>  <PUBCHEM_MMFF94_ENERGY>  (1) 
26.4

>  <PUBCHEM_FEATURE_SELFOVERLAP>  (1) 
25.453

>  <PUBCHEM_SHAPE_FINGERPRINT>  (1) 
13380535 76 18338795603085814391
14325111 11 18410855468739331809
16945 1 18338516322468035911
19973954 147 18266179607174700764
20653085 51 18409459084666487673
20871998 184 18055924426796309383
21040471 1 18410573972435425767
23235685 24 18339073779321848425
23402655 69 18124861371413391205
23552423 10 18188770681665468518
23559900 14 18272095968613525958
241688 4 16466709664662717619
2748010 2 18411422842540599733
369184 2 18270119144335984826
5084963 1 18201439207031956171
528886 8 18339073787869474721

>  <PUBCHEM_SHAPE_MULTIPOLES>  (1) 
195.02
4.12
1.96
0.6
0.16
0.36
0
-2.15
0
0.35
0
0.12
0
0

>  <PUBCHEM_SHAPE_SELFOVERLAP>  (1) 
392.784

>  <PUBCHEM_SHAPE_VOLUME>  (1) 
118.3

>  <PUBCHEM_COORDINATE_TYPE>  (1) 
2
5
10

$$$$
