11459
     RDKit          3D

 13 13  0  0  0  0  0  0  0  0999 V2000
    0.0002    3.2870    0.0002 O   0  0  0  0  0  0  0  0  0  0  0  0
   -2.4161   -2.1307    0.0003 O   0  0  0  0  0  0  0  0  0  0  0  0
    2.4160   -2.1308    0.0000 O   0  0  0  0  0  0  0  0  0  0  0  0
   -3.5132   -0.2292    0.0002 O   0  0  0  0  0  0  0  0  0  0  0  0
    3.5132   -0.2294    0.0000 O   0  0  0  0  0  0  0  0  0  0  0  0
   -2.4380   -0.8761   -0.0001 N   0  0  0  0  0  0  0  0  0  0  0  0
    2.4379   -0.8762    0.0001 N   0  0  0  0  0  0  0  0  0  0  0  0
   -1.2080   -0.1665   -0.0004 C   0  0  0  0  0  0  0  0  0  0  0  0
    1.2080   -0.1665    0.0000 C   0  0  0  0  0  0  0  0  0  0  0  0
    0.0000   -0.8639   -0.0003 C   0  0  0  0  0  0  0  0  0  0  0  0
   -1.2079    1.2284   -0.0003 C   0  0  0  0  0  0  0  0  0  0  0  0
    1.2080    1.2284    0.0002 C   0  0  0  0  0  0  0  0  0  0  0  0
    0.0001    1.9258    0.0000 C   0  0  0  0  0  0  0  0  0  0  0  0
  1 13  1  0
  2  6  1  0
  3  7  1  0
  4  6  2  0
  5  7  2  0
  6  8  1  0
  7  9  1  0
  8 10  2  0
  8 11  1  0
  9 10  1  0
  9 12  2  0
 11 13  2  0
 12 13  1  0
M  CHG  4   2  -1   3  -1   6   1   7   1
M  END
>  <PUBCHEM_COMPOUND_CID>  (1) 
11459

>  <PUBCHEM_CONFORMER_RMSD>  (1) 
0.6

>  <PUBCHEM_CONFORMER_DIVERSEORDER>  (1) 
1

>  <PUBCHEM_MMFF94_PARTIAL_CHARGES>  (1) 
17
1 -0.53
10 -0.15
11 -0.15
12 -0.15
13 0.08
14 0.15
15 0.15
16 0.15
17 0.45
2 -0.52
3 -0.52
4 -0.52
5 -0.52
6 0.91
7 0.91
8 0.13
9 0.13

>  <PUBCHEM_EFFECTIVE_ROTOR_COUNT>  (1) 
2

>  <PUBCHEM_PHARMACOPHORE_FEATURES>  (1) 
8
1 1 donor
1 2 acceptor
1 2 anion
1 3 acceptor
1 3 anion
1 4 acceptor
1 5 acceptor
6 8 9 10 11 12 13 rings

>  <PUBCHEM_HEAVY_ATOM_COUNT>  (1) 
13

>  <PUBCHEM_ATOM_DEF_STEREO_COUNT>  (1) 
0

>  <PUBCHEM_ATOM_UDEF_STEREO_COUNT>  (1) 
0

>  <PUBCHEM_BOND_DEF_STEREO_COUNT>  (1) 
0

>  <PUBCHEM_BOND_UDEF_STEREO_COUNT>  (1) 
0

>  <PUBCHEM_ISOTOPIC_ATOM_COUNT>  (1) 
0

>  <PUBCHEM_COMPONENT_COUNT>  (1) 
1

>  <PUBCHEM_CACTVS_TAUTO_COUNT>  (1) 
2

>  <PUBCHEM_CONFORMER_ID>  (1) 
00002CC300000001

>  <PUBCHEM_MMFF94_ENERGY>  (1) 
39.8876

>  <PUBCHEM_FEATURE_SELFOVERLAP>  (1) 
40.76

>  <PUBCHEM_SHAPE_FINGERPRINT>  (1) 
1 1 17689717884166593981
14128692 85 18410861004967883756
14648413 74 18119527884734077233
16945 1 18410575084663208837
17990270 104 18192990645820880643
193761 8 18410856551066400292
20201158 50 18408038532839425715
20645477 70 17903907104977104791
20711985 365 18120935005929859694
20871998 184 18129377094756887910
20871998 22 18342466923597216254
21040471 1 17546164100066851268
23526114 1 18121781896002252253
23552423 10 18122628520340644591
241688 4 18410292480110301145
2748010 2 18411973672086048036
3071541 12 18122912185519204149
3071541 158 18260544571417321389
7364860 26 18124595546400357081
81228 2 18264777549407984128

>  <PUBCHEM_SHAPE_MULTIPOLES>  (1) 
228.23
4.24
2.63
0.56
0
1.49
0
-2.65
0
0
0
0
0.03
0

>  <PUBCHEM_SHAPE_SELFOVERLAP>  (1) 
484.076

>  <PUBCHEM_SHAPE_VOLUME>  (1) 
128.8

>  <PUBCHEM_COORDINATE_TYPE>  (1) 
2
5
10

$$$$
