11471
     RDKit          3D

 20 21  0  0  0  0  0  0  0  0999 V2000
   -6.4027    1.2323   -0.1915 O   0  0  0  0  0  0  0  0  0  0  0  0
    6.4020    1.2322    0.1923 O   0  0  0  0  0  0  0  0  0  0  0  0
   -6.5963   -1.0324   -0.2173 O   0  0  0  0  0  0  0  0  0  0  0  0
    6.5954   -1.0324    0.2183 O   0  0  0  0  0  0  0  0  0  0  0  0
   -0.2851   -0.0248    0.5576 N   0  0  0  0  0  0  0  0  0  0  0  0
    0.2845   -0.0248   -0.5589 N   0  0  0  0  0  0  0  0  0  0  0  0
   -1.6731   -0.0247    0.3865 C   0  0  0  0  0  0  0  0  0  0  0  0
    1.6793   -0.0247   -0.3865 C   0  0  0  0  0  0  0  0  0  0  0  0
   -4.4421   -0.0253    0.0469 C   0  0  0  0  0  0  0  0  0  0  0  0
    4.4414   -0.0253   -0.0467 C   0  0  0  0  0  0  0  0  0  0  0  0
   -2.3652   -1.2328    0.3012 C   0  0  0  0  0  0  0  0  0  0  0  0
    2.3647   -1.2328   -0.3018 C   0  0  0  0  0  0  0  0  0  0  0  0
   -2.3657    1.1832    0.3022 C   0  0  0  0  0  0  0  0  0  0  0  0
    2.3651    1.1833   -0.3027 C   0  0  0  0  0  0  0  0  0  0  0  0
   -3.7497   -1.2330    0.1313 C   0  0  0  0  0  0  0  0  0  0  0  0
    3.7491   -1.2330   -0.1313 C   0  0  0  0  0  0  0  0  0  0  0  0
   -3.7502    1.1829    0.1323 C   0  0  0  0  0  0  0  0  0  0  0  0
    3.7496    1.1830   -0.1325 C   0  0  0  0  0  0  0  0  0  0  0  0
   -5.8856   -0.0255   -0.1299 C   0  0  0  0  0  0  0  0  0  0  0  0
    5.8849   -0.0255    0.1306 C   0  0  0  0  0  0  0  0  0  0  0  0
  1 19  1  0
  2 20  1  0
  3 19  2  0
  4 20  2  0
  5  6  2  0
  5  7  1  0
  6  8  1  0
  7 11  2  0
  7 13  1  0
  8 12  2  0
  8 14  1  0
  9 15  2  0
  9 17  1  0
  9 19  1  0
 10 16  2  0
 10 18  1  0
 10 20  1  0
 11 15  1  0
 12 16  1  0
 13 17  2  0
 14 18  2  0
M  END
>  <PUBCHEM_COMPOUND_CID>  (1) 
11471

>  <PUBCHEM_CONFORMER_RMSD>  (1) 
0.6

>  <PUBCHEM_CONFORMER_DIVERSEORDER>  (1) 
1
4
2
3

>  <PUBCHEM_MMFF94_PARTIAL_CHARGES>  (1) 
30
1 -0.65
10 0.09
11 -0.15
12 -0.15
13 -0.15
14 -0.15
15 -0.15
16 -0.15
17 -0.15
18 -0.15
19 0.63
2 -0.65
20 0.63
21 0.15
22 0.15
23 0.15
24 0.15
25 0.15
26 0.15
27 0.15
28 0.15
29 0.5
3 -0.57
30 0.5
4 -0.57
5 -0.18
6 -0.18
7 0.18
8 0.18
9 0.09

>  <PUBCHEM_EFFECTIVE_ROTOR_COUNT>  (1) 
4

>  <PUBCHEM_PHARMACOPHORE_FEATURES>  (1) 
8
1 1 acceptor
1 2 acceptor
1 3 acceptor
1 4 acceptor
3 1 3 19 anion
3 2 4 20 anion
6 7 9 11 13 15 17 rings
6 8 10 12 14 16 18 rings

>  <PUBCHEM_HEAVY_ATOM_COUNT>  (1) 
20

>  <PUBCHEM_ATOM_DEF_STEREO_COUNT>  (1) 
0

>  <PUBCHEM_ATOM_UDEF_STEREO_COUNT>  (1) 
0

>  <PUBCHEM_BOND_DEF_STEREO_COUNT>  (1) 
0

>  <PUBCHEM_BOND_UDEF_STEREO_COUNT>  (1) 
0

>  <PUBCHEM_ISOTOPIC_ATOM_COUNT>  (1) 
0

>  <PUBCHEM_COMPONENT_COUNT>  (1) 
1

>  <PUBCHEM_CACTVS_TAUTO_COUNT>  (1) 
1

>  <PUBCHEM_CONFORMER_ID>  (1) 
00002CCF00000001

>  <PUBCHEM_MMFF94_ENERGY>  (1) 
60.2326

>  <PUBCHEM_FEATURE_SELFOVERLAP>  (1) 
40.713

>  <PUBCHEM_SHAPE_FINGERPRINT>  (1) 
10 15 18342166813733198880
10366900 7 15267345119268540327
10595046 47 18413671305465480201
10968037 39 18342458153827586831
11315181 36 18202849863745335985
11719270 70 18272649026735817478
12091667 2 18335422370584675771
12107183 9 17690281504218991738
12166972 35 18409731780878530808
12236239 1 18410573985151490115
12516196 113 17917992780255765120
12730499 353 10879993571269731892
13073987 5 18337393734302673707
13533116 47 18342736269781767242
1420 363 12535629383664339404
14251764 18 18333169479427427532
14251764 46 18410572885639966290
17834076 25 18412825789265488879
19489759 90 18410293605829328977
200 152 18060419110255702249
20281389 69 18186518799999712316
20645477 70 18270966739147615110
21267235 1 18410582781244525315
21315763 28 18410854364911546791
22224240 67 18410006659560259394
23402539 116 18411978070738895997
23536379 177 18408603651940832971
23559900 14 18340200903262936689
26918003 58 18409169925993355955
29717793 49 18272376360646587244
300161 21 18409727361214056795
3004659 81 18333168375452222408
34797466 226 17346324825588258756
351380 180 18410293618318630801
3545911 37 18410856559639796068
4073 2 17968101975236795986
4214541 1 18409731750902754857
42788 4 18410856563934776353
4325135 7 18273494581183559583
4340502 62 14836405818376835868
5104073 3 18338241564767371120
59755656 215 18334579014537489238
59755656 520 16950561103969823787
67856867 119 18264490752961791820
7495541 125 17703788171416391153

>  <PUBCHEM_SHAPE_MULTIPOLES>  (1) 
378.15
17.67
1.43
0.66
0.02
0.02
0
0.26
0
0
0
0
0
0.01

>  <PUBCHEM_SHAPE_SELFOVERLAP>  (1) 
821.477

>  <PUBCHEM_SHAPE_VOLUME>  (1) 
205.6

>  <PUBCHEM_COORDINATE_TYPE>  (1) 
2
5
10

$$$$
