1147
     RDKit          3D

  4  3  0  0  0  0  0  0  0  0999 V2000
    0.0000    0.0000   -0.6880 S   0  0  0  0  0  0  0  0  0  0  0  0
    0.8809    1.2852    0.2294 C   0  0  0  0  0  0  0  0  0  0  0  0
   -1.5536    0.1202    0.2293 C   0  0  0  0  0  0  0  0  0  0  0  0
    0.6726   -1.4054    0.2293 C   0  0  0  0  0  0  0  0  0  0  0  0
  1  2  1  0
  1  3  1  0
  1  4  1  0
M  CHG  1   1   1
M  END
>  <PUBCHEM_COMPOUND_CID>  (1) 
1147

>  <PUBCHEM_CONFORMER_RMSD>  (1) 
0.4

>  <PUBCHEM_CONFORMER_DIVERSEORDER>  (1) 
1

>  <PUBCHEM_EFFECTIVE_ROTOR_COUNT>  (1) 
0

>  <PUBCHEM_PHARMACOPHORE_FEATURES>  (1) 
0

>  <PUBCHEM_HEAVY_ATOM_COUNT>  (1) 
4

>  <PUBCHEM_ATOM_DEF_STEREO_COUNT>  (1) 
0

>  <PUBCHEM_ATOM_UDEF_STEREO_COUNT>  (1) 
0

>  <PUBCHEM_BOND_DEF_STEREO_COUNT>  (1) 
0

>  <PUBCHEM_BOND_UDEF_STEREO_COUNT>  (1) 
0

>  <PUBCHEM_ISOTOPIC_ATOM_COUNT>  (1) 
0

>  <PUBCHEM_COMPONENT_COUNT>  (1) 
1

>  <PUBCHEM_CACTVS_TAUTO_COUNT>  (1) 
1

>  <PUBCHEM_CONFORMER_ID>  (1) 
0000047B00000001

>  <PUBCHEM_MMFF94_ENERGY>  (1) 
4.5845

>  <PUBCHEM_FEATURE_SELFOVERLAP>  (1) 
0

>  <PUBCHEM_SHAPE_FINGERPRINT>  (1) 
139733 1 10230307513003084511
20096714 4 18129950112161409273
21015797 1 8573618427875461871
5943 1 8747765027991191870

>  <PUBCHEM_SHAPE_MULTIPOLES>  (1) 
86.17
1.51
1.51
0.81
0.51
0.44
-0.11
-0.44
0.21
-0.51
0.21
0
0
0

>  <PUBCHEM_SHAPE_SELFOVERLAP>  (1) 
125.103

>  <PUBCHEM_SHAPE_VOLUME>  (1) 
66.8

>  <PUBCHEM_COORDINATE_TYPE>  (1) 
2
5
10

$$$$
