11475
     RDKit          3D

  9  9  0  0  0  0  0  0  0  0999 V2000
   -2.4759    1.5390   -0.0893 N   0  0  0  0  0  0  0  0  0  0  0  0
    0.8507   -0.0488    0.2890 C   0  0  0  0  0  0  0  0  0  0  0  0
    2.2647    0.3470    0.5487 C   0  0  0  0  0  0  0  0  0  0  0  0
   -0.1455    0.9253    0.2219 C   0  0  0  0  0  0  0  0  0  0  0  0
    0.5244   -1.3935    0.1127 C   0  0  0  0  0  0  0  0  0  0  0  0
   -1.4680    0.5545   -0.0217 C   0  0  0  0  0  0  0  0  0  0  0  0
    3.0418    0.6312   -0.7325 C   0  0  0  0  0  0  0  0  0  0  0  0
   -0.7980   -1.7643   -0.1308 C   0  0  0  0  0  0  0  0  0  0  0  0
   -1.7941   -0.7903   -0.1981 C   0  0  0  0  0  0  0  0  0  0  0  0
  1  6  1  0
  2  3  1  0
  2  4  2  0
  2  5  1  0
  3  7  1  0
  4  6  1  0
  5  8  2  0
  6  9  2  0
  8  9  1  0
M  END
>  <PUBCHEM_COMPOUND_CID>  (1) 
11475

>  <PUBCHEM_CONFORMER_RMSD>  (1) 
0.4

>  <PUBCHEM_CONFORMER_DIVERSEORDER>  (1) 
1
2
3
4

>  <PUBCHEM_MMFF94_PARTIAL_CHARGES>  (1) 
14
1 -0.9
12 0.15
13 0.15
17 0.15
18 0.15
19 0.4
2 -0.14
20 0.4
3 0.14
4 -0.15
5 -0.15
6 0.1
8 -0.15
9 -0.15

>  <PUBCHEM_EFFECTIVE_ROTOR_COUNT>  (1) 
1

>  <PUBCHEM_PHARMACOPHORE_FEATURES>  (1) 
4
1 1 cation
1 1 donor
1 7 hydrophobe
6 2 4 5 6 8 9 rings

>  <PUBCHEM_HEAVY_ATOM_COUNT>  (1) 
9

>  <PUBCHEM_ATOM_DEF_STEREO_COUNT>  (1) 
0

>  <PUBCHEM_ATOM_UDEF_STEREO_COUNT>  (1) 
0

>  <PUBCHEM_BOND_DEF_STEREO_COUNT>  (1) 
0

>  <PUBCHEM_BOND_UDEF_STEREO_COUNT>  (1) 
0

>  <PUBCHEM_ISOTOPIC_ATOM_COUNT>  (1) 
0

>  <PUBCHEM_COMPONENT_COUNT>  (1) 
1

>  <PUBCHEM_CACTVS_TAUTO_COUNT>  (1) 
1

>  <PUBCHEM_CONFORMER_ID>  (1) 
00002CD300000001

>  <PUBCHEM_MMFF94_ENERGY>  (1) 
28.3618

>  <PUBCHEM_FEATURE_SELFOVERLAP>  (1) 
20.297

>  <PUBCHEM_SHAPE_FINGERPRINT>  (1) 
11206711 2 18339912827031872157
12716758 59 18342740732352449178
14325111 11 18410292506228036776
16714656 1 18339363088176456198
16945 1 18339354296315175819
20645464 45 17845640573336841504
20653085 51 18261128378027064476
21040471 1 18340197514332935498
23235685 24 18411415085877343657
23552423 10 18334009463261551482
2748010 2 18339644430114792759
29004967 10 16056607602974922994
369184 2 18201435934583309746
5084963 1 18058733635923280426

>  <PUBCHEM_SHAPE_MULTIPOLES>  (1) 
180.23
3.58
1.65
0.73
1.92
0.3
0.02
-1.26
0.58
-0.91
0.05
0.28
-0.02
-0.11

>  <PUBCHEM_SHAPE_SELFOVERLAP>  (1) 
366.981

>  <PUBCHEM_SHAPE_VOLUME>  (1) 
105.6

>  <PUBCHEM_COORDINATE_TYPE>  (1) 
2
5
10

$$$$
