11482
     RDKit          3D

 19 20  0  0  0  0  0  0  0  0999 V2000
   -2.6419    0.5414    0.4641 O   0  0  0  0  0  0  0  0  0  0  0  0
   -2.0979   -1.0302   -1.1462 O   0  0  0  0  0  0  0  0  0  0  0  0
    0.8431    1.4497    0.5715 N   0  0  0  0  0  0  0  0  0  0  0  0
   -4.0948   -1.2212    0.0310 N   0  0  0  0  0  0  0  0  0  0  0  0
    2.0478    1.0768    1.3075 C   0  0  0  0  0  0  0  0  0  0  0  0
    2.7838   -0.0390    0.6178 C   0  0  0  0  0  0  0  0  0  0  0  0
   -0.3086    0.8286    0.8602 C   0  0  0  0  0  0  0  0  0  0  0  0
    0.9288    2.4017   -0.3676 C   0  0  0  0  0  0  0  0  0  0  0  0
   -1.4342    1.1827    0.1697 C   0  0  0  0  0  0  0  0  0  0  0  0
    3.7552    0.2630   -0.3275 C   0  0  0  0  0  0  0  0  0  0  0  0
    2.4826   -1.3569    0.9347 C   0  0  0  0  0  0  0  0  0  0  0  0
   -0.2001    2.7776   -1.0817 C   0  0  0  0  0  0  0  0  0  0  0  0
   -1.4100    2.1494   -0.8025 C   0  0  0  0  0  0  0  0  0  0  0  0
    4.4378   -0.7716   -0.9672 C   0  0  0  0  0  0  0  0  0  0  0  0
    3.1652   -2.3915    0.2950 C   0  0  0  0  0  0  0  0  0  0  0  0
    4.1428   -2.0990   -0.6560 C   0  0  0  0  0  0  0  0  0  0  0  0
   -2.8784   -0.6098   -0.2928 C   0  0  0  0  0  0  0  0  0  0  0  0
   -4.5095   -2.4353   -0.6574 C   0  0  0  0  0  0  0  0  0  0  0  0
   -5.0119   -0.7165    1.0476 C   0  0  0  0  0  0  0  0  0  0  0  0
  1  9  1  0
  1 17  1  0
  2 17  2  0
  3  5  1  0
  3  7  2  0
  3  8  1  0
  4 17  1  0
  4 18  1  0
  4 19  1  0
  5  6  1  0
  6 10  2  0
  6 11  1  0
  7  9  1  0
  8 12  2  0
  9 13  2  0
 10 14  1  0
 11 15  2  0
 12 13  1  0
 14 16  2  0
 15 16  1  0
M  CHG  1   3   1
M  END
>  <PUBCHEM_COMPOUND_CID>  (1) 
11482

>  <PUBCHEM_CONFORMER_RMSD>  (1) 
0.8

>  <PUBCHEM_CONFORMER_DIVERSEORDER>  (1) 
1
46
73
7
32
72
66
65
30
58
25
22
31
36
62
51
23
28
70
24
3
9
53
37
27
60
43
34
19
17
6
10
49
13
47
59
52
20
2
21
29
26
48
14
8
55
5
15
67
16
54
11
38
42
39
33
18
4
63
71
61
12
44
69
35
41
50
45
57
68
64
40
56

>  <PUBCHEM_MMFF94_PARTIAL_CHARGES>  (1) 
28
1 -0.23
10 -0.15
11 -0.15
12 -0.15
13 -0.15
14 -0.15
15 -0.15
16 -0.15
17 0.78
18 0.3
19 0.3
2 -0.57
22 0.15
23 0.15
24 0.15
25 0.15
26 0.15
27 0.15
28 0.15
29 0.15
3 -0.21
30 0.15
4 -0.66
5 0.63
6 -0.14
7 0.21
8 0.21
9 0.08

>  <PUBCHEM_EFFECTIVE_ROTOR_COUNT>  (1) 
5

>  <PUBCHEM_PHARMACOPHORE_FEATURES>  (1) 
3
1 2 acceptor
6 3 7 8 9 12 13 rings
6 6 10 11 14 15 16 rings

>  <PUBCHEM_HEAVY_ATOM_COUNT>  (1) 
19

>  <PUBCHEM_ATOM_DEF_STEREO_COUNT>  (1) 
0

>  <PUBCHEM_ATOM_UDEF_STEREO_COUNT>  (1) 
0

>  <PUBCHEM_BOND_DEF_STEREO_COUNT>  (1) 
0

>  <PUBCHEM_BOND_UDEF_STEREO_COUNT>  (1) 
0

>  <PUBCHEM_ISOTOPIC_ATOM_COUNT>  (1) 
0

>  <PUBCHEM_COMPONENT_COUNT>  (1) 
1

>  <PUBCHEM_CACTVS_TAUTO_COUNT>  (1) 
1

>  <PUBCHEM_CONFORMER_ID>  (1) 
00002CDA00000001

>  <PUBCHEM_MMFF94_ENERGY>  (1) 
56.9569

>  <PUBCHEM_FEATURE_SELFOVERLAP>  (1) 
15.223

>  <PUBCHEM_SHAPE_FINGERPRINT>  (1) 
10042902 136 18130230466093802991
12403259 327 16199868479006029587
12553582 1 18335976532238775283
12633257 1 16487253283212709751
12769317 202 9006514757535509883
12824470 246 18272092656212747304
12892183 10 17631165475947139561
13103583 49 17346051012500732835
13464513 79 18341895238117963254
13533116 47 18056196024060389075
13583140 156 17059476573938524185
14251731 5 18341050718529875686
14251740 57 18057887042230505575
14251764 30 18113631092237430971
14252887 29 18338791324945025176
14863182 85 17975693106298978340
15239191 94 18271804601325059306
15342816 4 18333446539151377754
15537594 2 18411991264251207807
17492 54 17896617261322250140
17818456 19 18130799936582987633
1813 80 18260266378006497725
19141452 34 18341052896199770129
20281475 54 18411420579145913616
20291156 8 18412824685490587806
20388580 30 18335986466519217069
20645477 70 17899403462320082493
20871999 31 18114180783214949597
21475661 188 9439413427392707858
21713013 43 18265900159854837004
22950370 63 18408895026875358515
23379529 103 18056488249024153158
235170 7 16298102077510118599
23557571 272 18192690299037940208
26353 1 17530679922404641605
2838139 119 11963390782092992598
2871803 45 18334292054823965234
314173 41 18260832656374853227
4463277 69 18271515490065178205
46194498 28 17459464644905285319
5207 123 18411127057397497415
94968 8 18410855473482679234

>  <PUBCHEM_SHAPE_MULTIPOLES>  (1) 
369.31
9.46
3.08
1.17
4.28
0.46
-0.05
-8.68
0.61
0.22
0.85
-0.09
0.08
0.11

>  <PUBCHEM_SHAPE_SELFOVERLAP>  (1) 
780.302

>  <PUBCHEM_SHAPE_VOLUME>  (1) 
207.7

>  <PUBCHEM_COORDINATE_TYPE>  (1) 
2
5
10

$$$$
