11483
     RDKit          3D

 14 14  0  0  0  0  0  0  0  0999 V2000
    4.5637   -1.9931   -0.1396 Cl  0  0  0  0  0  0  0  0  0  0  0  0
   -4.9911   -1.5892    0.8720 Cl  0  0  0  0  0  0  0  0  0  0  0  0
   -2.5240   -0.1889   -0.2688 O   0  0  0  0  0  0  0  0  0  0  0  0
   -1.3450    1.7417    0.0675 O   0  0  0  0  0  0  0  0  0  0  0  0
   -0.2780   -0.3338   -0.1663 N   0  0  0  0  0  0  0  0  0  0  0  0
    1.0789   -0.0307   -0.0496 C   0  0  0  0  0  0  0  0  0  0  0  0
    2.0314   -1.0456   -0.1417 C   0  0  0  0  0  0  0  0  0  0  0  0
    1.4827    1.2882    0.1577 C   0  0  0  0  0  0  0  0  0  0  0  0
   -3.7428    0.5625   -0.2291 C   0  0  0  0  0  0  0  0  0  0  0  0
    3.3878   -0.7414   -0.0265 C   0  0  0  0  0  0  0  0  0  0  0  0
    2.8391    1.5923    0.2730 C   0  0  0  0  0  0  0  0  0  0  0  0
    3.7917    0.5775    0.1809 C   0  0  0  0  0  0  0  0  0  0  0  0
   -1.3694    0.5292   -0.1049 C   0  0  0  0  0  0  0  0  0  0  0  0
   -4.9251   -0.3686   -0.4246 C   0  0  0  0  0  0  0  0  0  0  0  0
  1 10  1  0
  2 14  1  0
  3  9  1  0
  3 13  1  0
  4 13  2  0
  5  6  1  0
  5 13  1  0
  6  7  2  0
  6  8  1  0
  7 10  1  0
  8 11  2  0
  9 14  1  0
 10 12  2  0
 11 12  1  0
M  END
>  <PUBCHEM_COMPOUND_CID>  (1) 
11483

>  <PUBCHEM_CONFORMER_RMSD>  (1) 
0.6

>  <PUBCHEM_CONFORMER_DIVERSEORDER>  (1) 
1
80
65
55
82
10
14
38
66
61
49
53
50
94
83
63
93
34
43
51
36
13
68
87
58
40
24
100
73
22
39
37
67
81
57
59
102
41
97
35
92
62
23
79
64
9
52
6
88
70
42
96
69
44
20
89
8
75
84
25
95
86
56
19
48
28
21
71
72
78
60
85
18
7
101
46
17
77
98
4
45
12
90
5
74
2
54
16
76
11
99
29
91
47
3
15
26
27
32
33
30
31

>  <PUBCHEM_MMFF94_PARTIAL_CHARGES>  (1) 
19
1 -0.18
10 0.18
11 -0.15
12 -0.15
13 0.78
14 0.29
15 0.15
16 0.15
17 0.37
2 -0.29
20 0.15
21 0.15
3 -0.43
4 -0.57
5 -0.55
6 0.12
7 -0.15
8 -0.15
9 0.28

>  <PUBCHEM_EFFECTIVE_ROTOR_COUNT>  (1) 
5

>  <PUBCHEM_PHARMACOPHORE_FEATURES>  (1) 
3
1 4 acceptor
1 5 donor
6 6 7 8 10 11 12 rings

>  <PUBCHEM_HEAVY_ATOM_COUNT>  (1) 
14

>  <PUBCHEM_ATOM_DEF_STEREO_COUNT>  (1) 
0

>  <PUBCHEM_ATOM_UDEF_STEREO_COUNT>  (1) 
0

>  <PUBCHEM_BOND_DEF_STEREO_COUNT>  (1) 
0

>  <PUBCHEM_BOND_UDEF_STEREO_COUNT>  (1) 
0

>  <PUBCHEM_ISOTOPIC_ATOM_COUNT>  (1) 
0

>  <PUBCHEM_COMPONENT_COUNT>  (1) 
1

>  <PUBCHEM_CACTVS_TAUTO_COUNT>  (1) 
2

>  <PUBCHEM_CONFORMER_ID>  (1) 
00002CDB00000001

>  <PUBCHEM_MMFF94_ENERGY>  (1) 
28.8129

>  <PUBCHEM_FEATURE_SELFOVERLAP>  (1) 
15.223

>  <PUBCHEM_SHAPE_FINGERPRINT>  (1) 
10912923 1 17060337470157373715
11471102 20 18412258441629592396
12032990 46 18408605863949294973
13167823 11 18411415124853984639
13690532 89 18340767053035370070
13955234 65 18271240629691700464
14252887 29 17775289326835141030
14350574 20 18335424551811137070
14455015 7 18408047307853172483
15196674 1 18412261714099441653
15477762 27 18411136927074198068
17834074 16 18408604785970798891
18186145 218 17894623747666550621
193927 3 18200603496896721798
200 152 18202278091781265329
20645477 70 18411698768746988406
20871998 22 17915181205239721150
21267235 1 18342463604188857134
21501925 9 18341885252445444800
221490 88 18409451388259146986
22485316 2 18410008858261598959
23402539 116 18201430360011197853
23402655 69 18342170051094262237
23557571 272 17676757730647244149
23559900 14 18333446543024234913
26918003 58 18408599262737457473
2871803 45 18260542303716455371
312423 11 18342190937710061536
3286 77 18410008806558610732
42 15 18412265021397995157
4214541 1 18410573942798163005
465052 167 18343308071383113471
5104073 3 18342455906932158793
522135 26 18412261740238205380
77779 3 18410855464818917421

>  <PUBCHEM_SHAPE_MULTIPOLES>  (1) 
275.13
10.87
1.82
0.7
9.36
0.2
0.05
5.16
0.54
-1.13
0.18
0.32
0.1
0.8

>  <PUBCHEM_SHAPE_SELFOVERLAP>  (1) 
542.138

>  <PUBCHEM_SHAPE_VOLUME>  (1) 
165.5

>  <PUBCHEM_COORDINATE_TYPE>  (1) 
2
5
10

$$$$
