11497
     RDKit          3D

 12 12  0  0  0  0  0  0  0  0999 V2000
   -3.8453    1.7430   -0.3102 Cl  0  0  0  0  0  0  0  0  0  0  0  0
    0.9474    0.3005    0.6079 O   0  0  0  0  0  0  0  0  0  0  0  0
    4.2283   -0.5664   -0.5560 O   0  0  0  0  0  0  0  0  0  0  0  0
    3.3408    1.4546    0.0054 O   0  0  0  0  0  0  0  0  0  0  0  0
   -0.3339   -0.0633    0.3282 C   0  0  0  0  0  0  0  0  0  0  0  0
   -1.3181    0.9126    0.1706 C   0  0  0  0  0  0  0  0  0  0  0  0
   -0.6630   -1.4127    0.1997 C   0  0  0  0  0  0  0  0  0  0  0  0
    1.9842   -0.5571    0.1332 C   0  0  0  0  0  0  0  0  0  0  0  0
   -2.6311    0.5391   -0.1155 C   0  0  0  0  0  0  0  0  0  0  0  0
   -1.9761   -1.7862   -0.0862 C   0  0  0  0  0  0  0  0  0  0  0  0
   -2.9601   -0.8103   -0.2439 C   0  0  0  0  0  0  0  0  0  0  0  0
    3.2271    0.2461   -0.1332 C   0  0  0  0  0  0  0  0  0  0  0  0
  1  9  1  0
  2  5  1  0
  2  8  1  0
  3 12  1  0
  4 12  2  0
  5  6  2  0
  5  7  1  0
  6  9  1  0
  7 10  2  0
  8 12  1  0
  9 11  2  0
 10 11  1  0
M  END
>  <PUBCHEM_COMPOUND_CID>  (1) 
11497

>  <PUBCHEM_CONFORMER_RMSD>  (1) 
0.6

>  <PUBCHEM_CONFORMER_DIVERSEORDER>  (1) 
1
12
7
14
4
19
5
24
3
8
23
9
11
2
13
6
10
22
21
20
18
15
16
17

>  <PUBCHEM_MMFF94_PARTIAL_CHARGES>  (1) 
17
1 -0.18
10 -0.15
11 -0.15
12 0.66
13 0.15
14 0.15
17 0.15
18 0.15
19 0.5
2 -0.36
3 -0.65
4 -0.57
5 0.08
6 -0.15
7 -0.15
8 0.34
9 0.18

>  <PUBCHEM_EFFECTIVE_ROTOR_COUNT>  (1) 
3

>  <PUBCHEM_PHARMACOPHORE_FEATURES>  (1) 
5
1 2 acceptor
1 3 acceptor
1 4 acceptor
3 3 4 12 anion
6 5 6 7 9 10 11 rings

>  <PUBCHEM_HEAVY_ATOM_COUNT>  (1) 
12

>  <PUBCHEM_ATOM_DEF_STEREO_COUNT>  (1) 
0

>  <PUBCHEM_ATOM_UDEF_STEREO_COUNT>  (1) 
0

>  <PUBCHEM_BOND_DEF_STEREO_COUNT>  (1) 
0

>  <PUBCHEM_BOND_UDEF_STEREO_COUNT>  (1) 
0

>  <PUBCHEM_ISOTOPIC_ATOM_COUNT>  (1) 
0

>  <PUBCHEM_COMPONENT_COUNT>  (1) 
1

>  <PUBCHEM_CACTVS_TAUTO_COUNT>  (1) 
1

>  <PUBCHEM_CONFORMER_ID>  (1) 
00002CE900000001

>  <PUBCHEM_MMFF94_ENERGY>  (1) 
28.9763

>  <PUBCHEM_FEATURE_SELFOVERLAP>  (1) 
25.434

>  <PUBCHEM_SHAPE_FINGERPRINT>  (1) 
10608611 8 18341046419135860592
10726558 24 18341050697139253391
12138202 97 18273491260984195671
12932764 1 17531236254018758344
13024252 1 17821728368844660851
14325111 11 18410291414995009840
15775835 57 18187083910257957585
18186145 218 18409163290427197500
200 152 16128655219534790462
20201158 50 17988929946438988038
20279233 1 17060331933839131586
20645477 56 18410571803366496441
20645477 70 17346323674341630742
20653085 51 18334299772748223569
20871999 31 18341604958447675135
23402539 116 18343011164731047140
23402655 69 18411702067392537604
23559900 14 18273211981226084554
2748010 2 17690825075739194571
3248919 1 17346610663919055914
6333449 129 18412825798156019383
93112 12 18412546509386247236

>  <PUBCHEM_SHAPE_MULTIPOLES>  (1) 
231.22
7.1
1.7
0.67
4.94
0.08
0
-2.35
1.33
-1.25
0.07
0.01
0
0.14

>  <PUBCHEM_SHAPE_SELFOVERLAP>  (1) 
468.284

>  <PUBCHEM_SHAPE_VOLUME>  (1) 
135.5

>  <PUBCHEM_COORDINATE_TYPE>  (1) 
2
5
10

$$$$
