11492
     RDKit          3D

 10 10  0  0  0  0  0  0  0  0999 V2000
   -2.6976    1.7397   -0.1187 O   0  0  0  0  0  0  0  0  0  0  0  0
    4.0725    0.4296   -0.2309 N   0  0  0  0  0  0  0  0  0  0  0  0
    1.8079    0.0220    0.6757 C   0  0  0  0  0  0  0  0  0  0  0  0
    0.3700   -0.1987    0.3480 C   0  0  0  0  0  0  0  0  0  0  0  0
    2.6675    0.2416   -0.5760 C   0  0  0  0  0  0  0  0  0  0  0  0
   -0.5018    0.8872    0.2666 C   0  0  0  0  0  0  0  0  0  0  0  0
   -0.1034   -1.4914    0.1230 C   0  0  0  0  0  0  0  0  0  0  0  0
   -1.8467    0.6804   -0.0398 C   0  0  0  0  0  0  0  0  0  0  0  0
   -1.4484   -1.6982   -0.1832 C   0  0  0  0  0  0  0  0  0  0  0  0
   -2.3200   -0.6123   -0.2647 C   0  0  0  0  0  0  0  0  0  0  0  0
  1  8  1  0
  2  5  1  0
  3  4  1  0
  3  5  1  0
  4  6  2  0
  4  7  1  0
  6  8  1  0
  7  9  2  0
  8 10  2  0
  9 10  1  0
M  END
>  <PUBCHEM_COMPOUND_CID>  (1) 
11492

>  <PUBCHEM_CONFORMER_RMSD>  (1) 
0.4

>  <PUBCHEM_CONFORMER_DIVERSEORDER>  (1) 
2
12
9
3
1
11
6
10
7
5
4
8

>  <PUBCHEM_MMFF94_PARTIAL_CHARGES>  (1) 
17
1 -0.53
10 -0.15
15 0.15
16 0.15
17 0.15
18 0.15
19 0.36
2 -0.99
20 0.36
21 0.45
3 0.14
4 -0.14
5 0.27
6 -0.15
7 -0.15
8 0.08
9 -0.15

>  <PUBCHEM_EFFECTIVE_ROTOR_COUNT>  (1) 
2

>  <PUBCHEM_PHARMACOPHORE_FEATURES>  (1) 
4
1 1 donor
1 2 cation
1 2 donor
6 4 6 7 8 9 10 rings

>  <PUBCHEM_HEAVY_ATOM_COUNT>  (1) 
10

>  <PUBCHEM_ATOM_DEF_STEREO_COUNT>  (1) 
0

>  <PUBCHEM_ATOM_UDEF_STEREO_COUNT>  (1) 
0

>  <PUBCHEM_BOND_DEF_STEREO_COUNT>  (1) 
0

>  <PUBCHEM_BOND_UDEF_STEREO_COUNT>  (1) 
0

>  <PUBCHEM_ISOTOPIC_ATOM_COUNT>  (1) 
0

>  <PUBCHEM_COMPONENT_COUNT>  (1) 
1

>  <PUBCHEM_CACTVS_TAUTO_COUNT>  (1) 
9

>  <PUBCHEM_CONFORMER_ID>  (1) 
00002CE400000002

>  <PUBCHEM_MMFF94_ENERGY>  (1) 
16.4477

>  <PUBCHEM_FEATURE_SELFOVERLAP>  (1) 
20.297

>  <PUBCHEM_SHAPE_FINGERPRINT>  (1) 
11206711 2 18340189874029162885
12138202 97 18201718435746065638
12716758 59 18342454854865546146
12897270 3 18340485668263431166
12932764 1 17989201585988063514
13024252 1 17894912974832500651
14325111 11 18409730638595694624
15775835 57 18187646869007243236
16945 1 18339911723183338579
20201158 50 17775291568865922910
20645464 45 17774139314812899018
20653085 51 18261406537151794552
20871998 184 18200318852112879447
21040471 1 18340475661021260635
23235685 24 18340201903984820617
23552423 10 18117553157265434730
23559900 14 18202282477776220466
29004967 10 16056603187532368842
6333449 129 18343301487276908328

>  <PUBCHEM_SHAPE_MULTIPOLES>  (1) 
194.94
4.77
1.56
0.72
4.61
0.15
-0.02
-1.28
0.84
-1.29
0.04
0.17
0.01
-0.09

>  <PUBCHEM_SHAPE_SELFOVERLAP>  (1) 
396.669

>  <PUBCHEM_SHAPE_VOLUME>  (1) 
113.6

>  <PUBCHEM_COORDINATE_TYPE>  (1) 
2
5
10

$$$$
