11496
     RDKit          3D

 12 12  0  0  0  0  0  0  0  0999 V2000
    3.7569    1.4968    0.1887 O   0  0  0  0  0  0  0  0  0  0  0  0
   -4.2336   -0.8217    0.3303 O   0  0  0  0  0  0  0  0  0  0  0  0
   -3.6856    1.3081   -0.2754 O   0  0  0  0  0  0  0  0  0  0  0  0
    0.4157    0.0328   -0.0926 C   0  0  0  0  0  0  0  0  0  0  0  0
    1.4323    0.9808    0.0241 C   0  0  0  0  0  0  0  0  0  0  0  0
    0.7319   -1.3242   -0.1592 C   0  0  0  0  0  0  0  0  0  0  0  0
    2.7648    0.5719    0.0743 C   0  0  0  0  0  0  0  0  0  0  0  0
    2.0645   -1.7331   -0.1092 C   0  0  0  0  0  0  0  0  0  0  0  0
   -0.9740    0.4584   -0.1457 C   0  0  0  0  0  0  0  0  0  0  0  0
    3.0809   -0.7850    0.0077 C   0  0  0  0  0  0  0  0  0  0  0  0
   -1.9886   -0.3562    0.1288 C   0  0  0  0  0  0  0  0  0  0  0  0
   -3.3651    0.1715    0.0280 C   0  0  0  0  0  0  0  0  0  0  0  0
  1  7  1  0
  2 12  1  0
  3 12  2  0
  4  5  2  0
  4  6  1  0
  4  9  1  0
  5  7  1  0
  6  8  2  0
  7 10  2  0
  8 10  1  0
  9 11  2  0
 11 12  1  0
M  END
>  <PUBCHEM_COMPOUND_CID>  (1) 
11496

>  <PUBCHEM_CONFORMER_RMSD>  (1) 
0.6

>  <PUBCHEM_CONFORMER_DIVERSEORDER>  (1) 
2
3
1

>  <PUBCHEM_MMFF94_PARTIAL_CHARGES>  (1) 
20
1 -0.53
10 -0.15
11 -0.14
12 0.71
13 0.15
14 0.15
15 0.15
16 0.15
17 0.15
18 0.15
19 0.45
2 -0.65
20 0.5
3 -0.57
4 0.03
5 -0.15
6 -0.15
7 0.08
8 -0.15
9 -0.18

>  <PUBCHEM_EFFECTIVE_ROTOR_COUNT>  (1) 
2

>  <PUBCHEM_PHARMACOPHORE_FEATURES>  (1) 
5
1 1 donor
1 2 acceptor
1 3 acceptor
3 2 3 12 anion
6 4 5 6 7 8 10 rings

>  <PUBCHEM_HEAVY_ATOM_COUNT>  (1) 
12

>  <PUBCHEM_ATOM_DEF_STEREO_COUNT>  (1) 
0

>  <PUBCHEM_ATOM_UDEF_STEREO_COUNT>  (1) 
0

>  <PUBCHEM_BOND_DEF_STEREO_COUNT>  (1) 
0

>  <PUBCHEM_BOND_UDEF_STEREO_COUNT>  (1) 
1

>  <PUBCHEM_ISOTOPIC_ATOM_COUNT>  (1) 
0

>  <PUBCHEM_COMPONENT_COUNT>  (1) 
1

>  <PUBCHEM_CACTVS_TAUTO_COUNT>  (1) 
3

>  <PUBCHEM_CONFORMER_ID>  (1) 
00002CE800000002

>  <PUBCHEM_MMFF94_ENERGY>  (1) 
30.4224

>  <PUBCHEM_FEATURE_SELFOVERLAP>  (1) 
25.427

>  <PUBCHEM_SHAPE_FINGERPRINT>  (1) 
10219947 1 18335422374130699700
10608611 8 18336261258669356749
10980938 120 18413670214395989962
11471102 20 18412258415659276644
12346645 6 18342175561985351526
12932764 1 17418082231112678001
13296908 3 18336266760654084767
13380535 76 18336827588735705234
14144814 61 18341051839463371609
14251717 144 18412541002953597031
14325111 11 18410573985357185973
14415576 193 18409451375369152436
14897335 6 18342171206693431846
15219456 202 18335136466784662933
15442244 35 17981046306038384281
15501101 241 18334014964924396516
15775835 57 18201719595497881540
170605 34 18409448102704176098
18186145 218 18040998384708171127
20201158 50 18335704901342976819
20279233 1 18040439892967823971
20645477 70 18341890732586805679
20711985 327 16370727049680659813
20871998 22 17911802375774346510
23402539 116 17458333152449914749
23402655 69 18343015571625923181
3248919 1 17203613640477116759
449060 50 18410013277308348805
449060 62 18413393146229908776
4990 188 17988375822949023132
5104073 3 18409449159345181585
581208 293 18411414020846669614

>  <PUBCHEM_SHAPE_MULTIPOLES>  (1) 
229.35
7.13
1.52
0.61
5.32
0.15
0
-1.02
0.4
-0.92
-0.02
0.01
0.01
0.3

>  <PUBCHEM_SHAPE_SELFOVERLAP>  (1) 
479.934

>  <PUBCHEM_SHAPE_VOLUME>  (1) 
129.7

>  <PUBCHEM_COORDINATE_TYPE>  (1) 
2
5
10

$$$$
