11491
     RDKit          3D

 16 17  0  0  0  0  0  0  0  0999 V2000
   -0.3054    0.0690    0.5427 N   0  0  0  0  0  0  0  0  0  0  0  0
    0.3047   -0.0694   -0.5435 N   0  0  0  0  0  0  0  0  0  0  0  0
   -3.8934   -0.6160   -0.0071 C   0  0  0  0  0  0  0  0  0  0  0  0
    3.8925    0.6162    0.0070 C   0  0  0  0  0  0  0  0  0  0  0  0
   -1.6682    0.2722    0.3035 C   0  0  0  0  0  0  0  0  0  0  0  0
    1.6741   -0.2733   -0.3027 C   0  0  0  0  0  0  0  0  0  0  0  0
   -2.5342   -0.8189    0.2316 C   0  0  0  0  0  0  0  0  0  0  0  0
    2.5332    0.8189   -0.2320 C   0  0  0  0  0  0  0  0  0  0  0  0
   -4.3866    0.6782   -0.1738 C   0  0  0  0  0  0  0  0  0  0  0  0
    4.3858   -0.6777    0.1742 C   0  0  0  0  0  0  0  0  0  0  0  0
   -2.1614    1.5662    0.1367 C   0  0  0  0  0  0  0  0  0  0  0  0
    2.1609   -1.5662   -0.1368 C   0  0  0  0  0  0  0  0  0  0  0  0
   -3.5208    1.7692   -0.1020 C   0  0  0  0  0  0  0  0  0  0  0  0
    3.5201   -1.7690    0.1023 C   0  0  0  0  0  0  0  0  0  0  0  0
   -4.8197   -1.7822   -0.0839 C   0  0  0  0  0  0  0  0  0  0  0  0
    4.8185    1.7827    0.0840 C   0  0  0  0  0  0  0  0  0  0  0  0
  1  2  2  0
  1  5  1  0
  2  6  1  0
  3  7  2  0
  3  9  1  0
  3 15  1  0
  4  8  2  0
  4 10  1  0
  4 16  1  0
  5  7  1  0
  5 11  2  0
  6  8  1  0
  6 12  2  0
  9 13  2  0
 10 14  2  0
 11 13  1  0
 12 14  1  0
M  END
>  <PUBCHEM_COMPOUND_CID>  (1) 
11491

>  <PUBCHEM_CONFORMER_RMSD>  (1) 
0.6

>  <PUBCHEM_CONFORMER_DIVERSEORDER>  (1) 
2
6
5
1
4
3

>  <PUBCHEM_MMFF94_PARTIAL_CHARGES>  (1) 
24
1 -0.18
10 -0.15
11 -0.15
12 -0.15
13 -0.15
14 -0.15
15 0.14
16 0.14
17 0.15
18 0.15
19 0.15
2 -0.18
20 0.15
21 0.15
22 0.15
23 0.15
24 0.15
3 -0.14
4 -0.14
5 0.18
6 0.18
7 -0.15
8 -0.15
9 -0.15

>  <PUBCHEM_EFFECTIVE_ROTOR_COUNT>  (1) 
2

>  <PUBCHEM_PHARMACOPHORE_FEATURES>  (1) 
2
6 3 5 7 9 11 13 rings
6 4 6 8 10 12 14 rings

>  <PUBCHEM_HEAVY_ATOM_COUNT>  (1) 
16

>  <PUBCHEM_ATOM_DEF_STEREO_COUNT>  (1) 
0

>  <PUBCHEM_ATOM_UDEF_STEREO_COUNT>  (1) 
0

>  <PUBCHEM_BOND_DEF_STEREO_COUNT>  (1) 
0

>  <PUBCHEM_BOND_UDEF_STEREO_COUNT>  (1) 
0

>  <PUBCHEM_ISOTOPIC_ATOM_COUNT>  (1) 
0

>  <PUBCHEM_COMPONENT_COUNT>  (1) 
1

>  <PUBCHEM_CACTVS_TAUTO_COUNT>  (1) 
1

>  <PUBCHEM_CONFORMER_ID>  (1) 
00002CE300000002

>  <PUBCHEM_MMFF94_ENERGY>  (1) 
43.0025

>  <PUBCHEM_FEATURE_SELFOVERLAP>  (1) 
10.149

>  <PUBCHEM_SHAPE_FINGERPRINT>  (1) 
10014705 185 18187925045807935757
10616163 171 18412546509408099863
11405975 8 18267023864484817195
11615757 297 17561086916491514976
12107183 9 17689433784895923904
128620 24 18343585152671057303
12916754 54 18342745074205734802
13167823 11 18411134714623033438
13675066 3 17749399122035158233
14289901 80 18411700971695576002
14528608 73 18409453626343504820
15196674 1 18410575076073144321
15375358 24 18113622304491171714
15961568 22 17822014254853622916
17492 89 18339925922182351391
17834072 33 18410293614324285518
17844677 252 18412553084680763328
18186145 218 17822010865490655994
19050596 39 18412263900174167057
200 152 18343299275648267287
20279233 1 16008468737379217482
20300324 65 18411136948633391633
20645477 56 18190184486437096805
20645477 70 18341051822400014766
21065198 57 18266741290007040916
21267235 1 18411991243124381470
22485316 2 18410573972509311279
23402539 116 18334570252972516911
23402655 69 18341613694200177876
23557571 272 18272379658817843749
23559900 14 18126844898278044250
245318 6 16882463010281228388
300161 21 18335414656296073301
3268164 11 16950556658662321887
351380 180 18335419075595920328
3545911 37 18409170986866193172
42 15 18335422335497106006
4214541 1 18410293566984751565
474 4 17822578317060634996
5104073 3 18410294687744272481
542803 24 17489592255269356457
573450 72 18262228928852167211
633830 44 16588599612198873237
67856867 119 18335698373383141824
69090 78 18408040701903385819
7495541 125 17846492673025488754
77779 3 18411138008851971204
9709674 26 18409738343530387387
9971528 1 17676207953352854964

>  <PUBCHEM_SHAPE_MULTIPOLES>  (1) 
319.31
11.43
1.94
0.66
0.01
0
0
0
0
0
0
0
0
0

>  <PUBCHEM_SHAPE_SELFOVERLAP>  (1) 
682.093

>  <PUBCHEM_SHAPE_VOLUME>  (1) 
179.2

>  <PUBCHEM_COORDINATE_TYPE>  (1) 
2
5
10

$$$$
