11504
     RDKit          3D

  9  9  0  0  0  0  0  0  0  0999 V2000
   -3.1918   -0.0003    0.2810 N   0  0  0  0  0  0  0  0  0  0  0  0
    0.9692    0.0001   -0.2914 C   0  0  0  0  0  0  0  0  0  0  0  0
    2.4467    0.0002   -0.4936 C   0  0  0  0  0  0  0  0  0  0  0  0
    0.2784   -1.2079   -0.1964 C   0  0  0  0  0  0  0  0  0  0  0  0
    0.2782    1.2081   -0.1962 C   0  0  0  0  0  0  0  0  0  0  0  0
   -1.7946   -0.0001    0.0889 C   0  0  0  0  0  0  0  0  0  0  0  0
    3.2210   -0.0003    0.8202 C   0  0  0  0  0  0  0  0  0  0  0  0
   -1.1034   -1.2080   -0.0064 C   0  0  0  0  0  0  0  0  0  0  0  0
   -1.1037    1.2081   -0.0061 C   0  0  0  0  0  0  0  0  0  0  0  0
  1  6  1  0
  2  3  1  0
  2  4  2  0
  2  5  1  0
  3  7  1  0
  4  8  1  0
  5  9  2  0
  6  8  2  0
  6  9  1  0
M  END
>  <PUBCHEM_COMPOUND_CID>  (1) 
11504

>  <PUBCHEM_CONFORMER_RMSD>  (1) 
0.4

>  <PUBCHEM_CONFORMER_DIVERSEORDER>  (1) 
1
2

>  <PUBCHEM_MMFF94_PARTIAL_CHARGES>  (1) 
14
1 -0.9
12 0.15
13 0.15
17 0.15
18 0.15
19 0.4
2 -0.14
20 0.4
3 0.14
4 -0.15
5 -0.15
6 0.1
8 -0.15
9 -0.15

>  <PUBCHEM_EFFECTIVE_ROTOR_COUNT>  (1) 
1

>  <PUBCHEM_PHARMACOPHORE_FEATURES>  (1) 
4
1 1 cation
1 1 donor
1 7 hydrophobe
6 2 4 5 6 8 9 rings

>  <PUBCHEM_HEAVY_ATOM_COUNT>  (1) 
9

>  <PUBCHEM_ATOM_DEF_STEREO_COUNT>  (1) 
0

>  <PUBCHEM_ATOM_UDEF_STEREO_COUNT>  (1) 
0

>  <PUBCHEM_BOND_DEF_STEREO_COUNT>  (1) 
0

>  <PUBCHEM_BOND_UDEF_STEREO_COUNT>  (1) 
0

>  <PUBCHEM_ISOTOPIC_ATOM_COUNT>  (1) 
0

>  <PUBCHEM_COMPONENT_COUNT>  (1) 
1

>  <PUBCHEM_CACTVS_TAUTO_COUNT>  (1) 
1

>  <PUBCHEM_CONFORMER_ID>  (1) 
00002CF000000001

>  <PUBCHEM_MMFF94_ENERGY>  (1) 
28.3533

>  <PUBCHEM_FEATURE_SELFOVERLAP>  (1) 
20.297

>  <PUBCHEM_SHAPE_FINGERPRINT>  (1) 
10857977 72 18411696608061609096
14325111 11 18411702054132946252
15310529 11 16660363701104069940
16945 1 18410579482757062927
20645464 45 17917705812500977922
20871998 184 18129946817863705222
21040471 1 18339088077083191764
23235685 24 18412262826453461541
23402655 69 18195793082792943565
23552423 10 17826800540089159420
2748010 2 18050012099338538679
29004967 10 18334306356927683505
369184 2 18341322349393798274
5084963 1 18270410390595253076

>  <PUBCHEM_SHAPE_MULTIPOLES>  (1) 
180.23
4.12
1.27
0.74
0.99
0
0.03
0
0.9
-0.3
-0.06
0.31
0
0

>  <PUBCHEM_SHAPE_SELFOVERLAP>  (1) 
366.982

>  <PUBCHEM_SHAPE_VOLUME>  (1) 
105.9

>  <PUBCHEM_COORDINATE_TYPE>  (1) 
2
5
10

$$$$
