11513
     RDKit          3D

  8  7  0  0  0  0  0  0  0  0999 V2000
    0.0181   -1.5149    0.3164 O   0  0  0  0  0  0  0  0  0  0  0  0
    0.0003   -0.2368   -0.3140 C   0  0  0  0  0  0  0  0  0  0  0  0
    1.2592    0.5316    0.1084 C   0  0  0  0  0  0  0  0  0  0  0  0
   -1.2648    0.5291    0.0953 C   0  0  0  0  0  0  0  0  0  0  0  0
    2.5439   -0.2213   -0.2504 C   0  0  0  0  0  0  0  0  0  0  0  0
   -2.5520   -0.2109   -0.2805 C   0  0  0  0  0  0  0  0  0  0  0  0
    3.7804    0.5688    0.1493 C   0  0  0  0  0  0  0  0  0  0  0  0
   -3.7850    0.5543    0.1757 C   0  0  0  0  0  0  0  0  0  0  0  0
  1  2  1  0
  2  3  1  0
  2  4  1  0
  3  5  1  0
  4  6  1  0
  5  7  1  0
  6  8  1  0
M  END
>  <PUBCHEM_COMPOUND_CID>  (1) 
11513

>  <PUBCHEM_CONFORMER_RMSD>  (1) 
0.6

>  <PUBCHEM_CONFORMER_DIVERSEORDER>  (1) 
2
8
20
16
25
10
22
6
24
15
14
7
1
17
23
21
3
26
5
18
12
13
19
11
4
9

>  <PUBCHEM_MMFF94_PARTIAL_CHARGES>  (1) 
3
1 -0.68
2 0.28
24 0.4

>  <PUBCHEM_EFFECTIVE_ROTOR_COUNT>  (1) 
4

>  <PUBCHEM_PHARMACOPHORE_FEATURES>  (1) 
4
1 1 acceptor
1 1 donor
1 7 hydrophobe
1 8 hydrophobe

>  <PUBCHEM_HEAVY_ATOM_COUNT>  (1) 
8

>  <PUBCHEM_ATOM_DEF_STEREO_COUNT>  (1) 
0

>  <PUBCHEM_ATOM_UDEF_STEREO_COUNT>  (1) 
0

>  <PUBCHEM_BOND_DEF_STEREO_COUNT>  (1) 
0

>  <PUBCHEM_BOND_UDEF_STEREO_COUNT>  (1) 
0

>  <PUBCHEM_ISOTOPIC_ATOM_COUNT>  (1) 
0

>  <PUBCHEM_COMPONENT_COUNT>  (1) 
1

>  <PUBCHEM_CACTVS_TAUTO_COUNT>  (1) 
1

>  <PUBCHEM_CONFORMER_ID>  (1) 
00002CF900000002

>  <PUBCHEM_MMFF94_ENERGY>  (1) 
0.9106

>  <PUBCHEM_FEATURE_SELFOVERLAP>  (1) 
20.297

>  <PUBCHEM_SHAPE_FINGERPRINT>  (1) 
10219947 1 17821450148978212069
11062470 55 15769776861954202928
12932764 1 16515956055772687037
14325111 11 18410855464428410374
14390081 3 18342455920117714161
20211469 26 11025792102435051789
21293036 1 18342457058020232060
23235685 24 18408599266578789485
5460574 1 9151174255121301244

>  <PUBCHEM_SHAPE_MULTIPOLES>  (1) 
158.77
6.41
0.99
0.65
0.04
0.24
-0.01
-1.64
0.17
-0.01
0.09
0.01
0.01
-0.01

>  <PUBCHEM_SHAPE_SELFOVERLAP>  (1) 
277.182

>  <PUBCHEM_SHAPE_VOLUME>  (1) 
105.7

>  <PUBCHEM_COORDINATE_TYPE>  (1) 
2
5
10

$$$$
