11518
     RDKit          3D

 11 10  0  0  0  0  0  0  0  0999 V2000
   -4.7383    1.0828    0.6119 F   0  0  0  0  0  0  0  0  0  0  0  0
    2.7392    0.4986   -0.0867 O   0  0  0  0  0  0  0  0  0  0  0  0
    1.7800   -1.5607    0.3159 O   0  0  0  0  0  0  0  0  0  0  0  0
   -2.1464    0.1937   -0.2863 C   0  0  0  0  0  0  0  0  0  0  0  0
   -0.8164   -0.5391   -0.0913 C   0  0  0  0  0  0  0  0  0  0  0  0
   -3.3696   -0.7004   -0.0713 C   0  0  0  0  0  0  0  0  0  0  0  0
    0.4045    0.3688   -0.2356 C   0  0  0  0  0  0  0  0  0  0  0  0
   -4.6637    0.0666   -0.2878 C   0  0  0  0  0  0  0  0  0  0  0  0
    1.6940   -0.3724    0.0381 C   0  0  0  0  0  0  0  0  0  0  0  0
    4.0379   -0.0615    0.1337 C   0  0  0  0  0  0  0  0  0  0  0  0
    5.0789    1.0237   -0.0405 C   0  0  0  0  0  0  0  0  0  0  0  0
  1  8  1  0
  2  9  1  0
  2 10  1  0
  3  9  2  0
  4  5  1  0
  4  6  1  0
  5  7  1  0
  6  8  1  0
  7  9  1  0
 10 11  1  0
M  END
>  <PUBCHEM_COMPOUND_CID>  (1) 
11518

>  <PUBCHEM_CONFORMER_RMSD>  (1) 
0.8

>  <PUBCHEM_CONFORMER_DIVERSEORDER>  (1) 
1
109
58
91
122
27
34
114
43
126
3
127
70
105
93
49
100
7
71
106
40
37
97
4
87
132
84
102
23
73
120
25
103
17
134
99
83
35
119
66
75
2
42
54
8
115
11
95
135
80
44
133
60
117
9
108
104
50
101
31
86
10
72
52
136
123
38
68
28
45
81
92
5
65
18
57
13
128
67
14
64
78
94
53
111
96
98
113
69
79
89
24
124
19
41
55
36
20
56
129
107
21
6
26
130
62
32
88
90
16
82
59
30
39
29
116
112
110
48
118
15
61
47
63
74
77
46
12
22
131
121
125
33
51
76
85

>  <PUBCHEM_MMFF94_PARTIAL_CHARGES>  (1) 
7
1 -0.34
10 0.28
2 -0.43
3 -0.57
7 0.06
8 0.34
9 0.66

>  <PUBCHEM_EFFECTIVE_ROTOR_COUNT>  (1) 
7

>  <PUBCHEM_PHARMACOPHORE_FEATURES>  (1) 
2
1 3 acceptor
4 4 5 6 7 hydrophobe

>  <PUBCHEM_HEAVY_ATOM_COUNT>  (1) 
11

>  <PUBCHEM_ATOM_DEF_STEREO_COUNT>  (1) 
0

>  <PUBCHEM_ATOM_UDEF_STEREO_COUNT>  (1) 
0

>  <PUBCHEM_BOND_DEF_STEREO_COUNT>  (1) 
0

>  <PUBCHEM_BOND_UDEF_STEREO_COUNT>  (1) 
0

>  <PUBCHEM_ISOTOPIC_ATOM_COUNT>  (1) 
0

>  <PUBCHEM_COMPONENT_COUNT>  (1) 
1

>  <PUBCHEM_CACTVS_TAUTO_COUNT>  (1) 
1

>  <PUBCHEM_CONFORMER_ID>  (1) 
00002CFE00000001

>  <PUBCHEM_MMFF94_ENERGY>  (1) 
2.697

>  <PUBCHEM_FEATURE_SELFOVERLAP>  (1) 
10.148

>  <PUBCHEM_SHAPE_FINGERPRINT>  (1) 
11062470 55 18411699889590715887
14123238 8 17749389277975117751
14252887 29 17022904510457909922
15242439 84 13326852232305637855
17834072 33 17846775251803396085
17834076 25 18410855468723384141
18342897 14 18412825793613320673
20279233 1 16877665651916730931
20645477 70 18201157641882622822
20719005 15 18407758144520751686
20767249 213 18343302561773249265
20828058 44 17603307080782529131
21119208 17 15841552989515632052
22485316 2 18259700095100386851
23402539 116 17775279478105716820
23402655 69 18273494567692087007
23590187 198 11025792093982507601
42 15 12035445034334686102
42788 4 18341894103924739812
449060 50 18260267447178768599
449060 62 18410009931797766066

>  <PUBCHEM_SHAPE_MULTIPOLES>  (1) 
207.36
11.08
1.06
0.64
0.79
0.14
-0.01
-3.38
0.54
-0.22
0.1
0.16
-0.03
-0.32

>  <PUBCHEM_SHAPE_SELFOVERLAP>  (1) 
378.001

>  <PUBCHEM_SHAPE_VOLUME>  (1) 
132.2

>  <PUBCHEM_COORDINATE_TYPE>  (1) 
2
5
10

$$$$
