11524
     RDKit          3D

  8  8  0  0  0  0  0  0  0  0999 V2000
    2.8069   -0.0059    0.0987 O   0  0  0  0  0  0  0  0  0  0  0  0
   -1.4283   -0.0019    0.3362 C   0  0  0  0  0  0  0  0  0  0  0  0
   -0.7227   -1.2646   -0.1781 C   0  0  0  0  0  0  0  0  0  0  0  0
   -0.7294    1.2646   -0.1774 C   0  0  0  0  0  0  0  0  0  0  0  0
    1.4542    0.0055   -0.3441 C   0  0  0  0  0  0  0  0  0  0  0  0
    0.7638   -1.2570    0.1656 C   0  0  0  0  0  0  0  0  0  0  0  0
    0.7572    1.2650    0.1659 C   0  0  0  0  0  0  0  0  0  0  0  0
   -2.9017   -0.0057   -0.0667 C   0  0  0  0  0  0  0  0  0  0  0  0
  1  5  1  0
  2  3  1  0
  2  4  1  0
  2  8  1  0
  3  6  1  0
  4  7  1  0
  5  6  1  0
  5  7  1  0
M  END
>  <PUBCHEM_COMPOUND_CID>  (1) 
11524

>  <PUBCHEM_CONFORMER_RMSD>  (1) 
0.4

>  <PUBCHEM_CONFORMER_DIVERSEORDER>  (1) 
1
3
4
5
2
6

>  <PUBCHEM_MMFF94_PARTIAL_CHARGES>  (1) 
3
1 -0.68
22 0.4
5 0.28

>  <PUBCHEM_EFFECTIVE_ROTOR_COUNT>  (1) 
1.2

>  <PUBCHEM_PHARMACOPHORE_FEATURES>  (1) 
3
1 1 acceptor
1 1 donor
6 2 3 4 5 6 7 rings

>  <PUBCHEM_HEAVY_ATOM_COUNT>  (1) 
8

>  <PUBCHEM_ATOM_DEF_STEREO_COUNT>  (1) 
0

>  <PUBCHEM_ATOM_UDEF_STEREO_COUNT>  (1) 
0

>  <PUBCHEM_BOND_DEF_STEREO_COUNT>  (1) 
0

>  <PUBCHEM_BOND_UDEF_STEREO_COUNT>  (1) 
0

>  <PUBCHEM_ISOTOPIC_ATOM_COUNT>  (1) 
0

>  <PUBCHEM_COMPONENT_COUNT>  (1) 
1

>  <PUBCHEM_CACTVS_TAUTO_COUNT>  (1) 
1

>  <PUBCHEM_CONFORMER_ID>  (1) 
00002D0400000001

>  <PUBCHEM_MMFF94_ENERGY>  (1) 
6.3239

>  <PUBCHEM_FEATURE_SELFOVERLAP>  (1) 
15.223

>  <PUBCHEM_SHAPE_FINGERPRINT>  (1) 
16714656 1 18410858763037140286
18185500 45 18411135852826004319
20096714 4 18339365265724849299
21040471 1 18266179620006679733
23235685 24 18410853261126076717
23402655 69 18195227946637793645
23552423 10 18044937015541743390
2748010 2 18122627424765281487
29004967 10 18260557714037936673
5084963 1 18344148098319020313

>  <PUBCHEM_SHAPE_MULTIPOLES>  (1) 
158.77
3.24
1.43
0.65
0.36
0
0
-0.01
0
-0.06
0
0.03
0
0

>  <PUBCHEM_SHAPE_SELFOVERLAP>  (1) 
303.537

>  <PUBCHEM_SHAPE_VOLUME>  (1) 
97.5

>  <PUBCHEM_COORDINATE_TYPE>  (1) 
2
5
10

$$$$
