11546
     RDKit          3D

  8  7  0  0  0  0  0  0  0  0999 V2000
    1.7263    1.2438    0.0754 O   0  0  0  0  0  0  0  0  0  0  0  0
   -1.1105   -0.0523    0.0097 C   0  0  0  0  0  0  0  0  0  0  0  0
    0.1499   -0.3261   -0.8410 C   0  0  0  0  0  0  0  0  0  0  0  0
   -2.3374   -0.5429   -0.7840 C   0  0  0  0  0  0  0  0  0  0  0  0
   -1.0579   -0.8120    1.3447 C   0  0  0  0  0  0  0  0  0  0  0  0
   -1.2833    1.4506    0.2865 C   0  0  0  0  0  0  0  0  0  0  0  0
    1.4646    0.0711   -0.1913 C   0  0  0  0  0  0  0  0  0  0  0  0
    2.4483   -1.0322    0.1000 C   0  0  0  0  0  0  0  0  0  0  0  0
  1  7  2  0
  2  3  1  0
  2  4  1  0
  2  5  1  0
  2  6  1  0
  3  7  1  0
  7  8  1  0
M  END
>  <PUBCHEM_COMPOUND_CID>  (1) 
11546

>  <PUBCHEM_CONFORMER_RMSD>  (1) 
0.4

>  <PUBCHEM_CONFORMER_DIVERSEORDER>  (1) 
1
8
3
5
2
6
7
4

>  <PUBCHEM_MMFF94_PARTIAL_CHARGES>  (1) 
4
1 -0.57
3 0.06
7 0.45
8 0.06

>  <PUBCHEM_EFFECTIVE_ROTOR_COUNT>  (1) 
2

>  <PUBCHEM_PHARMACOPHORE_FEATURES>  (1) 
2
1 1 acceptor
4 2 4 5 6 hydrophobe

>  <PUBCHEM_HEAVY_ATOM_COUNT>  (1) 
8

>  <PUBCHEM_ATOM_DEF_STEREO_COUNT>  (1) 
0

>  <PUBCHEM_ATOM_UDEF_STEREO_COUNT>  (1) 
0

>  <PUBCHEM_BOND_DEF_STEREO_COUNT>  (1) 
0

>  <PUBCHEM_BOND_UDEF_STEREO_COUNT>  (1) 
0

>  <PUBCHEM_ISOTOPIC_ATOM_COUNT>  (1) 
0

>  <PUBCHEM_COMPONENT_COUNT>  (1) 
1

>  <PUBCHEM_CACTVS_TAUTO_COUNT>  (1) 
3

>  <PUBCHEM_CONFORMER_ID>  (1) 
00002D1A00000001

>  <PUBCHEM_MMFF94_ENERGY>  (1) 
15.5934

>  <PUBCHEM_FEATURE_SELFOVERLAP>  (1) 
10.148

>  <PUBCHEM_SHAPE_FINGERPRINT>  (1) 
10857977 72 14476953540879226071
12932741 1 17822296824539830822
21040471 1 17698736808634528157
21922407 69 17059795406165786850
23552423 10 18409448085313258470
24536 1 17895485811658076172
29004967 10 18266743669603584699
369184 2 18342174466431067763
5084963 1 17489592251016678150

>  <PUBCHEM_SHAPE_MULTIPOLES>  (1) 
158.77
3.17
1.29
1.03
1.03
0.39
0.16
-0.5
-0.25
0.01
0.18
-0.41
-0.26
-0.08

>  <PUBCHEM_SHAPE_SELFOVERLAP>  (1) 
290.619

>  <PUBCHEM_SHAPE_VOLUME>  (1) 
102.8

>  <PUBCHEM_COORDINATE_TYPE>  (1) 
2
5
10

$$$$
