11553
     RDKit          3D

  6  5  0  0  0  0  0  0  0  0999 V2000
    3.0950    0.2641    0.0107 Br  0  0  0  0  0  0  0  0  0  0  0  0
   -2.1050    0.9449   -0.0192 O   0  0  0  0  0  0  0  0  0  0  0  0
   -1.4016   -1.2161    0.0151 O   0  0  0  0  0  0  0  0  0  0  0  0
    0.2484    0.5511    0.0247 C   0  0  0  0  0  0  0  0  0  0  0  0
    1.3131   -0.5258   -0.0384 C   0  0  0  0  0  0  0  0  0  0  0  0
   -1.1499   -0.0181    0.0071 C   0  0  0  0  0  0  0  0  0  0  0  0
  1  5  1  0
  2  6  1  0
  3  6  2  0
  4  5  1  0
  4  6  1  0
M  END
>  <PUBCHEM_COMPOUND_CID>  (1) 
11553

>  <PUBCHEM_CONFORMER_RMSD>  (1) 
0.4

>  <PUBCHEM_CONFORMER_DIVERSEORDER>  (1) 
1
4
8
5
3
6
2
7

>  <PUBCHEM_MMFF94_PARTIAL_CHARGES>  (1) 
7
1 -0.23
11 0.5
2 -0.65
3 -0.57
4 0.06
5 0.23
6 0.66

>  <PUBCHEM_EFFECTIVE_ROTOR_COUNT>  (1) 
2

>  <PUBCHEM_PHARMACOPHORE_FEATURES>  (1) 
4
1 1 hydrophobe
1 2 acceptor
1 3 acceptor
3 2 3 6 anion

>  <PUBCHEM_HEAVY_ATOM_COUNT>  (1) 
6

>  <PUBCHEM_ATOM_DEF_STEREO_COUNT>  (1) 
0

>  <PUBCHEM_ATOM_UDEF_STEREO_COUNT>  (1) 
0

>  <PUBCHEM_BOND_DEF_STEREO_COUNT>  (1) 
0

>  <PUBCHEM_BOND_UDEF_STEREO_COUNT>  (1) 
0

>  <PUBCHEM_ISOTOPIC_ATOM_COUNT>  (1) 
0

>  <PUBCHEM_COMPONENT_COUNT>  (1) 
1

>  <PUBCHEM_CACTVS_TAUTO_COUNT>  (1) 
1

>  <PUBCHEM_CONFORMER_ID>  (1) 
00002D2100000001

>  <PUBCHEM_MMFF94_ENERGY>  (1) 
2.9774

>  <PUBCHEM_FEATURE_SELFOVERLAP>  (1) 
20.355

>  <PUBCHEM_SHAPE_FINGERPRINT>  (1) 
14390081 3 18272366473431723328
16714656 1 18408323259137748668
20096714 4 18335985276781425945
21040471 1 18338517417695161445
29004967 10 17203616999252240490
5460574 1 9151175350633321764

>  <PUBCHEM_SHAPE_MULTIPOLES>  (1) 
117.68
4
1.02
0.61
2.33
0.09
0
-0.48
0
-0.39
0
0.14
-0.01
0.02

>  <PUBCHEM_SHAPE_SELFOVERLAP>  (1) 
198.444

>  <PUBCHEM_SHAPE_VOLUME>  (1) 
81.4

>  <PUBCHEM_COORDINATE_TYPE>  (1) 
2
5
10

$$$$
