11561
     RDKit          3D

  8  8  0  0  0  0  0  0  0  0999 V2000
    3.0343   -1.2014   -0.0003 I   0  0  0  0  0  0  0  0  0  0  0  0
   -2.8180   -1.3261   -0.0005 Br  0  0  0  0  0  0  0  0  0  0  0  0
    0.0160   -0.9728    0.0005 C   0  0  0  0  0  0  0  0  0  0  0  0
    1.1972   -0.2306    0.0002 C   0  0  0  0  0  0  0  0  0  0  0  0
   -1.2172   -0.3208    0.0004 C   0  0  0  0  0  0  0  0  0  0  0  0
    1.1450    1.1633   -0.0002 C   0  0  0  0  0  0  0  0  0  0  0  0
   -1.2692    1.0732    0.0001 C   0  0  0  0  0  0  0  0  0  0  0  0
   -0.0882    1.8152   -0.0002 C   0  0  0  0  0  0  0  0  0  0  0  0
  1  4  1  0
  2  5  1  0
  3  4  2  0
  3  5  1  0
  4  6  1  0
  5  7  2  0
  6  8  2  0
  7  8  1  0
M  END
>  <PUBCHEM_COMPOUND_CID>  (1) 
11561

>  <PUBCHEM_CONFORMER_RMSD>  (1) 
0.4

>  <PUBCHEM_CONFORMER_DIVERSEORDER>  (1) 
1

>  <PUBCHEM_MMFF94_PARTIAL_CHARGES>  (1) 
12
1 -0.08
10 0.15
11 0.15
12 0.15
2 -0.11
3 -0.15
4 0.08
5 0.11
6 -0.15
7 -0.15
8 -0.15
9 0.15

>  <PUBCHEM_EFFECTIVE_ROTOR_COUNT>  (1) 
0

>  <PUBCHEM_PHARMACOPHORE_FEATURES>  (1) 
3
1 1 hydrophobe
1 2 hydrophobe
6 3 4 5 6 7 8 rings

>  <PUBCHEM_HEAVY_ATOM_COUNT>  (1) 
8

>  <PUBCHEM_ATOM_DEF_STEREO_COUNT>  (1) 
0

>  <PUBCHEM_ATOM_UDEF_STEREO_COUNT>  (1) 
0

>  <PUBCHEM_BOND_DEF_STEREO_COUNT>  (1) 
0

>  <PUBCHEM_BOND_UDEF_STEREO_COUNT>  (1) 
0

>  <PUBCHEM_ISOTOPIC_ATOM_COUNT>  (1) 
0

>  <PUBCHEM_COMPONENT_COUNT>  (1) 
1

>  <PUBCHEM_CACTVS_TAUTO_COUNT>  (1) 
1

>  <PUBCHEM_CONFORMER_ID>  (1) 
00002D2900000001

>  <PUBCHEM_MMFF94_ENERGY>  (1) 
15.6759

>  <PUBCHEM_FEATURE_SELFOVERLAP>  (1) 
15.223

>  <PUBCHEM_SHAPE_FINGERPRINT>  (1) 
10857977 72 18341319016599591986
12716758 59 17836368151219731846
14128692 85 18409173211880623254
16945 1 18194402178143098976
20645477 70 18121490513270057271
20871998 184 18129658595683120678
20871998 22 18342748402906025342
21040471 1 17690279313796394912
23552423 10 18260271828388314710
241688 4 18409166588803838600
2748010 2 18410845577440283220
29004967 10 18191586569561712595
5084963 1 18272369775939697226

>  <PUBCHEM_SHAPE_MULTIPOLES>  (1) 
182.51
4.12
1.94
0.67
1.15
0.49
0
-2.78
0
-0.36
0
0.07
-0.06
0

>  <PUBCHEM_SHAPE_SELFOVERLAP>  (1) 
339.847

>  <PUBCHEM_SHAPE_VOLUME>  (1) 
119.7

>  <PUBCHEM_COORDINATE_TYPE>  (1) 
2
5
10

$$$$
