11562
     RDKit          3D

  8  8  0  0  0  0  0  0  0  0999 V2000
    2.9093   -0.9643   -0.0008 Br  0  0  0  0  0  0  0  0  0  0  0  0
   -2.3621   -1.2742   -0.0002 N   0  0  0  0  0  0  0  0  0  0  0  0
   -1.2199   -0.4465    0.0000 C   0  0  0  0  0  0  0  0  0  0  0  0
    0.0542   -1.0143    0.0006 C   0  0  0  0  0  0  0  0  0  0  0  0
   -1.3652    0.9409   -0.0004 C   0  0  0  0  0  0  0  0  0  0  0  0
    1.1830   -0.1947    0.0007 C   0  0  0  0  0  0  0  0  0  0  0  0
   -0.2366    1.7604   -0.0002 C   0  0  0  0  0  0  0  0  0  0  0  0
    1.0374    1.1926    0.0003 C   0  0  0  0  0  0  0  0  0  0  0  0
  1  6  1  0
  2  3  1  0
  3  4  2  0
  3  5  1  0
  4  6  1  0
  5  7  2  0
  6  8  2  0
  7  8  1  0
M  END
>  <PUBCHEM_COMPOUND_CID>  (1) 
11562

>  <PUBCHEM_CONFORMER_RMSD>  (1) 
0.4

>  <PUBCHEM_CONFORMER_DIVERSEORDER>  (1) 
1

>  <PUBCHEM_MMFF94_PARTIAL_CHARGES>  (1) 
14
1 -0.11
10 0.15
11 0.15
12 0.15
13 0.4
14 0.4
2 -0.9
3 0.1
4 -0.15
5 -0.15
6 0.11
7 -0.15
8 -0.15
9 0.15

>  <PUBCHEM_EFFECTIVE_ROTOR_COUNT>  (1) 
0

>  <PUBCHEM_PHARMACOPHORE_FEATURES>  (1) 
4
1 1 hydrophobe
1 2 cation
1 2 donor
6 3 4 5 6 7 8 rings

>  <PUBCHEM_HEAVY_ATOM_COUNT>  (1) 
8

>  <PUBCHEM_ATOM_DEF_STEREO_COUNT>  (1) 
0

>  <PUBCHEM_ATOM_UDEF_STEREO_COUNT>  (1) 
0

>  <PUBCHEM_BOND_DEF_STEREO_COUNT>  (1) 
0

>  <PUBCHEM_BOND_UDEF_STEREO_COUNT>  (1) 
0

>  <PUBCHEM_ISOTOPIC_ATOM_COUNT>  (1) 
0

>  <PUBCHEM_COMPONENT_COUNT>  (1) 
1

>  <PUBCHEM_CACTVS_TAUTO_COUNT>  (1) 
1

>  <PUBCHEM_CONFORMER_ID>  (1) 
00002D2A00000001

>  <PUBCHEM_MMFF94_ENERGY>  (1) 
27.0816

>  <PUBCHEM_FEATURE_SELFOVERLAP>  (1) 
20.297

>  <PUBCHEM_SHAPE_FINGERPRINT>  (1) 
10857977 72 18341036459317431570
14128692 85 18409455803627893726
16714656 1 18194404394483269860
16945 1 18194401095795529124
18185500 45 18335701589901839154
20871998 184 18201435831414716398
21040471 1 17834394514730772420
23552423 10 18260271836994060558
241688 4 18409166601699322472
2748010 2 18410567413883370764
29004967 10 18191587673204809873
369184 2 18265892458851991362

>  <PUBCHEM_SHAPE_MULTIPOLES>  (1) 
165.6
3.23
1.73
0.62
1.95
0.35
0
-1.34
0
-0.57
0
0.07
0
0

>  <PUBCHEM_SHAPE_SELFOVERLAP>  (1) 
327.645

>  <PUBCHEM_SHAPE_VOLUME>  (1) 
102.1

>  <PUBCHEM_COORDINATE_TYPE>  (1) 
2
5
10

$$$$
