11572
     RDKit          3D

  7  7  0  0  1  0  0  0  0  0999 V2000
   -1.0178    0.0221   -0.3324 C   0  0  0  0  0  0  0  0  0  0  0  0
   -0.3147    1.2355    0.2893 C   0  0  0  0  0  0  0  0  0  0  0  0
   -0.3323   -1.2831    0.1103 C   0  0  0  0  0  0  0  0  0  0  0  0
    1.1644    1.2847   -0.1063 C   0  0  0  0  0  0  0  0  0  0  0  0
   -2.5020    0.0021    0.0270 C   0  0  0  0  0  0  0  0  0  0  0  0
    1.1652   -1.2076    0.0619 C   0  0  0  0  0  0  0  0  0  0  0  0
    1.8373   -0.0538   -0.0498 C   0  0  0  0  0  0  0  0  0  0  0  0
  1  2  1  0
  1  3  1  0
  1  5  1  0
  2  4  1  0
  3  6  1  0
  4  7  1  0
  6  7  2  0
M  END
>  <PUBCHEM_COMPOUND_CID>  (1) 
11572

>  <PUBCHEM_CONFORMER_RMSD>  (1) 
0.4

>  <PUBCHEM_CONFORMER_DIVERSEORDER>  (1) 
1
2

>  <PUBCHEM_MMFF94_PARTIAL_CHARGES>  (1) 
6
18 0.15
19 0.15
3 0.14
4 0.14
6 -0.29
7 -0.29

>  <PUBCHEM_EFFECTIVE_ROTOR_COUNT>  (1) 
0.8

>  <PUBCHEM_PHARMACOPHORE_FEATURES>  (1) 
1
6 1 2 3 4 6 7 rings

>  <PUBCHEM_HEAVY_ATOM_COUNT>  (1) 
7

>  <PUBCHEM_ATOM_DEF_STEREO_COUNT>  (1) 
0

>  <PUBCHEM_ATOM_UDEF_STEREO_COUNT>  (1) 
1

>  <PUBCHEM_BOND_DEF_STEREO_COUNT>  (1) 
0

>  <PUBCHEM_BOND_UDEF_STEREO_COUNT>  (1) 
0

>  <PUBCHEM_ISOTOPIC_ATOM_COUNT>  (1) 
0

>  <PUBCHEM_COMPONENT_COUNT>  (1) 
1

>  <PUBCHEM_CACTVS_TAUTO_COUNT>  (1) 
1

>  <PUBCHEM_CONFORMER_ID>  (1) 
00002D3400000001

>  <PUBCHEM_MMFF94_ENERGY>  (1) 
0.4005

>  <PUBCHEM_FEATURE_SELFOVERLAP>  (1) 
5.074

>  <PUBCHEM_SHAPE_FINGERPRINT>  (1) 
18185500 45 18340201882335819895
20096714 4 18339079401222925422
21040471 1 18194118744587415852
23552423 10 17901960642534970830
29004967 10 18334298643155896473

>  <PUBCHEM_SHAPE_MULTIPOLES>  (1) 
144.06
2.56
1.51
0.65
1.06
0.02
0
-0.01
0.05
-0.37
-0.08
0.02
0.01
-0.04

>  <PUBCHEM_SHAPE_SELFOVERLAP>  (1) 
276.597

>  <PUBCHEM_SHAPE_VOLUME>  (1) 
86.7

>  <PUBCHEM_COORDINATE_TYPE>  (1) 
2
5
10

$$$$
