11575
     RDKit          3D

  7  7  0  0  0  0  0  0  0  0999 V2000
    2.9763    0.0001   -0.0002 I   0  0  0  0  0  0  0  0  0  0  0  0
    0.8989    0.0000    0.0002 C   0  0  0  0  0  0  0  0  0  0  0  0
    0.2013    1.2080    0.0001 C   0  0  0  0  0  0  0  0  0  0  0  0
    0.2015   -1.2081    0.0001 C   0  0  0  0  0  0  0  0  0  0  0  0
   -1.1936    1.2080    0.0000 C   0  0  0  0  0  0  0  0  0  0  0  0
   -1.1935   -1.2080   -0.0001 C   0  0  0  0  0  0  0  0  0  0  0  0
   -1.8909    0.0000   -0.0001 C   0  0  0  0  0  0  0  0  0  0  0  0
  1  2  1  0
  2  3  2  0
  2  4  1  0
  3  5  1  0
  4  6  2  0
  5  7  2  0
  6  7  1  0
M  END
>  <PUBCHEM_COMPOUND_CID>  (1) 
11575

>  <PUBCHEM_CONFORMER_RMSD>  (1) 
0.4

>  <PUBCHEM_CONFORMER_DIVERSEORDER>  (1) 
1

>  <PUBCHEM_MMFF94_PARTIAL_CHARGES>  (1) 
12
1 -0.08
10 0.15
11 0.15
12 0.15
2 0.08
3 -0.15
4 -0.15
5 -0.15
6 -0.15
7 -0.15
8 0.15
9 0.15

>  <PUBCHEM_EFFECTIVE_ROTOR_COUNT>  (1) 
0

>  <PUBCHEM_PHARMACOPHORE_FEATURES>  (1) 
2
1 1 hydrophobe
6 2 3 4 5 6 7 rings

>  <PUBCHEM_HEAVY_ATOM_COUNT>  (1) 
7

>  <PUBCHEM_ATOM_DEF_STEREO_COUNT>  (1) 
0

>  <PUBCHEM_ATOM_UDEF_STEREO_COUNT>  (1) 
0

>  <PUBCHEM_BOND_DEF_STEREO_COUNT>  (1) 
0

>  <PUBCHEM_BOND_UDEF_STEREO_COUNT>  (1) 
0

>  <PUBCHEM_ISOTOPIC_ATOM_COUNT>  (1) 
0

>  <PUBCHEM_COMPONENT_COUNT>  (1) 
1

>  <PUBCHEM_CACTVS_TAUTO_COUNT>  (1) 
1

>  <PUBCHEM_CONFORMER_ID>  (1) 
00002D3700000001

>  <PUBCHEM_MMFF94_ENERGY>  (1) 
14.7138

>  <PUBCHEM_FEATURE_SELFOVERLAP>  (1) 
10.148

>  <PUBCHEM_SHAPE_FINGERPRINT>  (1) 
10857977 72 18340476876539119112
16714656 1 18410576188691213614
20645464 45 17917416649643545050
21040471 1 18266740177600085092
23552423 10 18115870883279688876
29004967 10 18410300245611411290
369184 2 18412541011854430130

>  <PUBCHEM_SHAPE_MULTIPOLES>  (1) 
155.99
3.42
1.43
0.66
2.73
0
0
0
0
-0.43
0
0.13
0
0

>  <PUBCHEM_SHAPE_SELFOVERLAP>  (1) 
298.283

>  <PUBCHEM_SHAPE_VOLUME>  (1) 
99.3

>  <PUBCHEM_COORDINATE_TYPE>  (1) 
2
5
10

$$$$
