11589
     RDKit          3D

  5  4  0  0  0  0  0  0  0  0999 V2000
    2.4750    0.6141    0.0912 Cl  0  0  0  0  0  0  0  0  0  0  0  0
   -0.0623   -0.1059   -0.3957 C   0  0  0  0  0  0  0  0  0  0  0  0
   -1.1732   -0.1958    0.3499 C   0  0  0  0  0  0  0  0  0  0  0  0
    1.2562   -0.6759    0.0124 C   0  0  0  0  0  0  0  0  0  0  0  0
   -2.4957    0.3635   -0.0579 C   0  0  0  0  0  0  0  0  0  0  0  0
  1  4  1  0
  2  3  2  0
  2  4  1  0
  3  5  1  0
M  END
>  <PUBCHEM_COMPOUND_CID>  (1) 
11589

>  <PUBCHEM_CONFORMER_RMSD>  (1) 
0.4

>  <PUBCHEM_CONFORMER_DIVERSEORDER>  (1) 
1

>  <PUBCHEM_MMFF94_PARTIAL_CHARGES>  (1) 
7
1 -0.29
2 -0.29
3 -0.29
4 0.43
5 0.14
6 0.15
7 0.15

>  <PUBCHEM_EFFECTIVE_ROTOR_COUNT>  (1) 
1

>  <PUBCHEM_PHARMACOPHORE_FEATURES>  (1) 
1
1 5 hydrophobe

>  <PUBCHEM_HEAVY_ATOM_COUNT>  (1) 
5

>  <PUBCHEM_ATOM_DEF_STEREO_COUNT>  (1) 
0

>  <PUBCHEM_ATOM_UDEF_STEREO_COUNT>  (1) 
0

>  <PUBCHEM_BOND_DEF_STEREO_COUNT>  (1) 
0

>  <PUBCHEM_BOND_UDEF_STEREO_COUNT>  (1) 
1

>  <PUBCHEM_ISOTOPIC_ATOM_COUNT>  (1) 
0

>  <PUBCHEM_COMPONENT_COUNT>  (1) 
1

>  <PUBCHEM_CACTVS_TAUTO_COUNT>  (1) 
1

>  <PUBCHEM_CONFORMER_ID>  (1) 
00002D4500000001

>  <PUBCHEM_MMFF94_ENERGY>  (1) 
-1.131

>  <PUBCHEM_FEATURE_SELFOVERLAP>  (1) 
5.074

>  <PUBCHEM_SHAPE_FINGERPRINT>  (1) 
139733 1 18272653467282952286
14390081 3 18343300374812040841
16714656 1 14620794907478015845
20096714 4 18201719595714198248
29004967 10 7997970176189568260
5460574 1 9223231844980260871

>  <PUBCHEM_SHAPE_MULTIPOLES>  (1) 
104.77
3.74
0.83
0.68
0.06
0
0
-0.96
0.14
-0.23
0.01
0.01
0
0.05

>  <PUBCHEM_SHAPE_SELFOVERLAP>  (1) 
171.494

>  <PUBCHEM_SHAPE_VOLUME>  (1) 
72.4

>  <PUBCHEM_COORDINATE_TYPE>  (1) 
2
5
10

$$$$
