11587
     RDKit          3D

  5  4  0  0  0  0  0  0  0  0999 V2000
    0.0000    0.6026   -0.4638 C   0  0  0  0  0  0  0  0  0  0  0  0
   -1.2413    0.2851    0.3164 C   0  0  0  0  0  0  0  0  0  0  0  0
    1.2412    0.2851    0.3164 C   0  0  0  0  0  0  0  0  0  0  0  0
   -2.1738   -0.5864   -0.0845 C   0  0  0  0  0  0  0  0  0  0  0  0
    2.1739   -0.5864   -0.0844 C   0  0  0  0  0  0  0  0  0  0  0  0
  1  2  1  0
  1  3  1  0
  2  4  2  0
  3  5  2  0
M  END
>  <PUBCHEM_COMPOUND_CID>  (1) 
11587

>  <PUBCHEM_CONFORMER_RMSD>  (1) 
0.4

>  <PUBCHEM_CONFORMER_DIVERSEORDER>  (1) 
1
6
2
3
4
5

>  <PUBCHEM_MMFF94_PARTIAL_CHARGES>  (1) 
11
1 0.28
10 0.15
11 0.15
12 0.15
13 0.15
2 -0.29
3 -0.29
4 -0.3
5 -0.3
8 0.15
9 0.15

>  <PUBCHEM_EFFECTIVE_ROTOR_COUNT>  (1) 
2

>  <PUBCHEM_PHARMACOPHORE_FEATURES>  (1) 
2
1 4 hydrophobe
1 5 hydrophobe

>  <PUBCHEM_HEAVY_ATOM_COUNT>  (1) 
5

>  <PUBCHEM_ATOM_DEF_STEREO_COUNT>  (1) 
0

>  <PUBCHEM_ATOM_UDEF_STEREO_COUNT>  (1) 
0

>  <PUBCHEM_BOND_DEF_STEREO_COUNT>  (1) 
0

>  <PUBCHEM_BOND_UDEF_STEREO_COUNT>  (1) 
0

>  <PUBCHEM_ISOTOPIC_ATOM_COUNT>  (1) 
0

>  <PUBCHEM_COMPONENT_COUNT>  (1) 
1

>  <PUBCHEM_CACTVS_TAUTO_COUNT>  (1) 
1

>  <PUBCHEM_CONFORMER_ID>  (1) 
00002D4300000001

>  <PUBCHEM_MMFF94_ENERGY>  (1) 
1.3631

>  <PUBCHEM_FEATURE_SELFOVERLAP>  (1) 
10.149

>  <PUBCHEM_SHAPE_FINGERPRINT>  (1) 
139733 1 10735878373965410165
16714656 1 17967254169628993487
20096714 4 9799693700942586378
29004967 10 18335139812511413008
5460574 1 9223235147672948472

>  <PUBCHEM_SHAPE_MULTIPOLES>  (1) 
102.9
3.12
0.86
0.7
0
0.03
0.01
0.93
-0.04
0
0.04
0
-0.04
0

>  <PUBCHEM_SHAPE_SELFOVERLAP>  (1) 
177.682

>  <PUBCHEM_SHAPE_VOLUME>  (1) 
68.5

>  <PUBCHEM_COORDINATE_TYPE>  (1) 
2
5
10

$$$$
