11599
     RDKit          3D

  6  5  0  0  0  0  0  0  0  0999 V2000
   -0.7095    0.7926    0.3224 C   0  0  0  0  0  0  0  0  0  0  0  0
    0.6289    0.4684   -0.2748 C   0  0  0  0  0  0  0  0  0  0  0  0
    1.6197   -0.1337    0.3995 C   0  0  0  0  0  0  0  0  0  0  0  0
   -1.8234    0.1048   -0.4099 C   0  0  0  0  0  0  0  0  0  0  0  0
    2.9486   -0.4645   -0.1946 C   0  0  0  0  0  0  0  0  0  0  0  0
   -2.6643   -0.7676    0.1573 C   0  0  0  0  0  0  0  0  0  0  0  0
  1  2  1  0
  1  4  1  0
  2  3  2  0
  3  5  1  0
  4  6  2  0
M  END
>  <PUBCHEM_COMPOUND_CID>  (1) 
11599

>  <PUBCHEM_CONFORMER_RMSD>  (1) 
0.4

>  <PUBCHEM_CONFORMER_DIVERSEORDER>  (1) 
2
3
1

>  <PUBCHEM_MMFF94_PARTIAL_CHARGES>  (1) 
11
1 0.28
10 0.15
11 0.15
15 0.15
16 0.15
2 -0.29
3 -0.29
4 -0.29
5 0.14
6 -0.3
9 0.15

>  <PUBCHEM_EFFECTIVE_ROTOR_COUNT>  (1) 
2

>  <PUBCHEM_PHARMACOPHORE_FEATURES>  (1) 
2
1 5 hydrophobe
1 6 hydrophobe

>  <PUBCHEM_HEAVY_ATOM_COUNT>  (1) 
6

>  <PUBCHEM_ATOM_DEF_STEREO_COUNT>  (1) 
0

>  <PUBCHEM_ATOM_UDEF_STEREO_COUNT>  (1) 
0

>  <PUBCHEM_BOND_DEF_STEREO_COUNT>  (1) 
0

>  <PUBCHEM_BOND_UDEF_STEREO_COUNT>  (1) 
1

>  <PUBCHEM_ISOTOPIC_ATOM_COUNT>  (1) 
0

>  <PUBCHEM_COMPONENT_COUNT>  (1) 
1

>  <PUBCHEM_CACTVS_TAUTO_COUNT>  (1) 
1

>  <PUBCHEM_CONFORMER_ID>  (1) 
00002D4F00000002

>  <PUBCHEM_MMFF94_ENERGY>  (1) 
0.3277

>  <PUBCHEM_FEATURE_SELFOVERLAP>  (1) 
10.149

>  <PUBCHEM_SHAPE_FINGERPRINT>  (1) 
12897270 3 16588022428692158471
139733 1 8862946086735870809
14390081 3 8358261436250511471
20096714 4 9583516529414456553
29004967 10 18131068246698562224
5460574 1 10375870783730915020

>  <PUBCHEM_SHAPE_MULTIPOLES>  (1) 
123.48
4.39
0.9
0.71
0.8
0.01
0
-1.48
-0.14
-0.21
0.03
0
0.01
0.05

>  <PUBCHEM_SHAPE_SELFOVERLAP>  (1) 
216.315

>  <PUBCHEM_SHAPE_VOLUME>  (1) 
81.5

>  <PUBCHEM_COORDINATE_TYPE>  (1) 
2
5
10

$$$$
