11596
     RDKit          3D

  8  7  0  0  0  0  0  0  0  0999 V2000
   -0.8825    0.5243    0.0056 O   0  0  0  0  0  0  0  0  0  0  0  0
   -2.3590   -1.2419   -0.0084 O   0  0  0  0  0  0  0  0  0  0  0  0
   -3.1022    0.9340   -0.0069 N   0  0  0  0  0  0  0  0  0  0  0  0
    1.5093    0.4119    0.0199 C   0  0  0  0  0  0  0  0  0  0  0  0
    2.7304   -0.5032    0.0086 C   0  0  0  0  0  0  0  0  0  0  0  0
    0.2112   -0.3828    0.0097 C   0  0  0  0  0  0  0  0  0  0  0  0
    4.0242    0.2945   -0.0247 C   0  0  0  0  0  0  0  0  0  0  0  0
   -2.1314   -0.0368   -0.0036 C   0  0  0  0  0  0  0  0  0  0  0  0
  1  6  1  0
  1  8  1  0
  2  8  2  0
  3  8  1  0
  4  5  1  0
  4  6  1  0
  5  7  1  0
M  END
>  <PUBCHEM_COMPOUND_CID>  (1) 
11596

>  <PUBCHEM_CONFORMER_RMSD>  (1) 
0.6

>  <PUBCHEM_CONFORMER_DIVERSEORDER>  (1) 
1
35
21
26
25
36
33
20
17
3
34
12
27
4
18
14
16
9
30
23
32
2
22
7
19
11
10
29
8
13
28
15
31
6
5
24

>  <PUBCHEM_MMFF94_PARTIAL_CHARGES>  (1) 
7
1 -0.43
18 0.37
19 0.37
2 -0.57
3 -0.8
6 0.28
8 0.78

>  <PUBCHEM_EFFECTIVE_ROTOR_COUNT>  (1) 
4

>  <PUBCHEM_PHARMACOPHORE_FEATURES>  (1) 
3
1 2 acceptor
1 3 donor
1 7 hydrophobe

>  <PUBCHEM_HEAVY_ATOM_COUNT>  (1) 
8

>  <PUBCHEM_ATOM_DEF_STEREO_COUNT>  (1) 
0

>  <PUBCHEM_ATOM_UDEF_STEREO_COUNT>  (1) 
0

>  <PUBCHEM_BOND_DEF_STEREO_COUNT>  (1) 
0

>  <PUBCHEM_BOND_UDEF_STEREO_COUNT>  (1) 
0

>  <PUBCHEM_ISOTOPIC_ATOM_COUNT>  (1) 
0

>  <PUBCHEM_COMPONENT_COUNT>  (1) 
1

>  <PUBCHEM_CACTVS_TAUTO_COUNT>  (1) 
2

>  <PUBCHEM_CONFORMER_ID>  (1) 
00002D4C00000001

>  <PUBCHEM_MMFF94_ENERGY>  (1) 
3.2303

>  <PUBCHEM_FEATURE_SELFOVERLAP>  (1) 
15.223

>  <PUBCHEM_SHAPE_FINGERPRINT>  (1) 
11062470 55 18411982451273306160
12932764 1 17385432224588209564
14325111 11 18410573989805224994
14390081 3 18342453729383693449
3248919 1 17346606257071574570
5460574 1 9295289443534689194

>  <PUBCHEM_SHAPE_MULTIPOLES>  (1) 
147.92
6.42
0.95
0.58
2.66
0.1
0
-0.56
0.05
-0.49
0
0.08
0
-0.01

>  <PUBCHEM_SHAPE_SELFOVERLAP>  (1) 
266.49

>  <PUBCHEM_SHAPE_VOLUME>  (1) 
95.4

>  <PUBCHEM_COORDINATE_TYPE>  (1) 
2
5
10

$$$$
