11601
     RDKit          3D

  6  5  0  0  0  0  0  0  0  0999 V2000
    1.9538    0.4732    0.0361 C   0  0  0  0  0  0  0  0  0  0  0  0
   -1.9538    0.4732   -0.0360 C   0  0  0  0  0  0  0  0  0  0  0  0
    0.5083    0.4673    0.4372 C   0  0  0  0  0  0  0  0  0  0  0  0
   -0.5084    0.4673   -0.4374 C   0  0  0  0  0  0  0  0  0  0  0  0
    2.4926   -0.9405   -0.1175 C   0  0  0  0  0  0  0  0  0  0  0  0
   -2.4926   -0.9405    0.1174 C   0  0  0  0  0  0  0  0  0  0  0  0
  1  3  1  0
  1  5  1  0
  2  4  1  0
  2  6  1  0
  3  4  2  0
M  END
>  <PUBCHEM_COMPOUND_CID>  (1) 
11601

>  <PUBCHEM_CONFORMER_RMSD>  (1) 
0.4

>  <PUBCHEM_CONFORMER_DIVERSEORDER>  (1) 
1
2

>  <PUBCHEM_MMFF94_PARTIAL_CHARGES>  (1) 
6
1 0.14
11 0.15
12 0.15
2 0.14
3 -0.29
4 -0.29

>  <PUBCHEM_EFFECTIVE_ROTOR_COUNT>  (1) 
2

>  <PUBCHEM_PHARMACOPHORE_FEATURES>  (1) 
2
1 5 hydrophobe
1 6 hydrophobe

>  <PUBCHEM_HEAVY_ATOM_COUNT>  (1) 
6

>  <PUBCHEM_ATOM_DEF_STEREO_COUNT>  (1) 
0

>  <PUBCHEM_ATOM_UDEF_STEREO_COUNT>  (1) 
0

>  <PUBCHEM_BOND_DEF_STEREO_COUNT>  (1) 
0

>  <PUBCHEM_BOND_UDEF_STEREO_COUNT>  (1) 
1

>  <PUBCHEM_ISOTOPIC_ATOM_COUNT>  (1) 
0

>  <PUBCHEM_COMPONENT_COUNT>  (1) 
1

>  <PUBCHEM_CACTVS_TAUTO_COUNT>  (1) 
1

>  <PUBCHEM_CONFORMER_ID>  (1) 
00002D5100000001

>  <PUBCHEM_MMFF94_ENERGY>  (1) 
-2.2942

>  <PUBCHEM_FEATURE_SELFOVERLAP>  (1) 
10.149

>  <PUBCHEM_SHAPE_FINGERPRINT>  (1) 
14390081 3 8862940571866006975
16714656 1 17894348865195484007
20096714 4 8574419933487529116
23552423 10 18186522089902079598
29004967 10 18202280307905288408
5460574 1 9151177557988159496

>  <PUBCHEM_SHAPE_MULTIPOLES>  (1) 
123.48
4.05
1.06
0.69
0
0.21
0
1.31
0
0
0
0
-0.03
0.14

>  <PUBCHEM_SHAPE_SELFOVERLAP>  (1) 
212.505

>  <PUBCHEM_SHAPE_VOLUME>  (1) 
81.5

>  <PUBCHEM_COORDINATE_TYPE>  (1) 
2
5
10

$$$$
