11604
     RDKit          3D

  6  5  0  0  0  0  0  0  0  0999 V2000
    2.1163   -1.0524   -0.0590 N   0  0  0  0  0  0  0  0  0  0  0  0
   -0.7047    1.0048   -0.3885 C   0  0  0  0  0  0  0  0  0  0  0  0
    0.7170    1.1653    0.1539 C   0  0  0  0  0  0  0  0  0  0  0  0
   -1.5151    0.0137    0.3975 C   0  0  0  0  0  0  0  0  0  0  0  0
    1.4985   -0.0745    0.0341 C   0  0  0  0  0  0  0  0  0  0  0  0
   -2.1120   -1.0569   -0.1382 C   0  0  0  0  0  0  0  0  0  0  0  0
  1  5  3  0
  2  3  1  0
  2  4  1  0
  3  5  1  0
  4  6  2  0
M  END
>  <PUBCHEM_COMPOUND_CID>  (1) 
11604

>  <PUBCHEM_CONFORMER_RMSD>  (1) 
0.4

>  <PUBCHEM_CONFORMER_DIVERSEORDER>  (1) 
1
2
8
7
9
3
5
4
6

>  <PUBCHEM_MMFF94_PARTIAL_CHARGES>  (1) 
9
1 -0.56
11 0.15
12 0.15
13 0.15
2 0.14
3 0.2
4 -0.29
5 0.36
6 -0.3

>  <PUBCHEM_EFFECTIVE_ROTOR_COUNT>  (1) 
2

>  <PUBCHEM_PHARMACOPHORE_FEATURES>  (1) 
2
1 1 acceptor
1 6 hydrophobe

>  <PUBCHEM_HEAVY_ATOM_COUNT>  (1) 
6

>  <PUBCHEM_ATOM_DEF_STEREO_COUNT>  (1) 
0

>  <PUBCHEM_ATOM_UDEF_STEREO_COUNT>  (1) 
0

>  <PUBCHEM_BOND_DEF_STEREO_COUNT>  (1) 
0

>  <PUBCHEM_BOND_UDEF_STEREO_COUNT>  (1) 
0

>  <PUBCHEM_ISOTOPIC_ATOM_COUNT>  (1) 
0

>  <PUBCHEM_COMPONENT_COUNT>  (1) 
1

>  <PUBCHEM_CACTVS_TAUTO_COUNT>  (1) 
1

>  <PUBCHEM_CONFORMER_ID>  (1) 
00002D5400000001

>  <PUBCHEM_MMFF94_ENERGY>  (1) 
0.9043

>  <PUBCHEM_FEATURE_SELFOVERLAP>  (1) 
10.148

>  <PUBCHEM_SHAPE_FINGERPRINT>  (1) 
139733 1 9655577404770566321
16714656 1 18116718400280507197
18185500 45 18054787544568166615
23552449 11 18264753531945401809
24536 1 18339626910800806513
29004967 10 18262800794973208401

>  <PUBCHEM_SHAPE_MULTIPOLES>  (1) 
118.5
2.93
1.35
0.66
0.12
0.03
0
-1.34
0
-0.14
0.07
0.08
0.04
0.03

>  <PUBCHEM_SHAPE_SELFOVERLAP>  (1) 
210.408

>  <PUBCHEM_SHAPE_VOLUME>  (1) 
75

>  <PUBCHEM_COORDINATE_TYPE>  (1) 
2
5
10

$$$$
