11608
     RDKit          3D

  9  8  0  0  0  0  0  0  0  0999 V2000
    0.0078    1.7249   -0.0019 S   0  0  0  0  0  0  0  0  0  0  0  0
   -1.9043   -0.3765    0.0515 C   0  0  0  0  0  0  0  0  0  0  0  0
    1.9015   -0.3776   -0.0501 C   0  0  0  0  0  0  0  0  0  0  0  0
   -1.0661    0.5339   -0.8623 C   0  0  0  0  0  0  0  0  0  0  0  0
    1.0679    0.5418    0.8587 C   0  0  0  0  0  0  0  0  0  0  0  0
   -2.8260    0.4102    0.9858 C   0  0  0  0  0  0  0  0  0  0  0  0
   -2.6981   -1.4275   -0.7274 C   0  0  0  0  0  0  0  0  0  0  0  0
    2.8272    0.3992   -0.9887 C   0  0  0  0  0  0  0  0  0  0  0  0
    2.6901   -1.4284    0.7345 C   0  0  0  0  0  0  0  0  0  0  0  0
  1  4  1  0
  1  5  1  0
  2  4  1  0
  2  6  1  0
  2  7  1  0
  3  5  1  0
  3  8  1  0
  3  9  1  0
M  END
>  <PUBCHEM_COMPOUND_CID>  (1) 
11608

>  <PUBCHEM_CONFORMER_RMSD>  (1) 
0.6

>  <PUBCHEM_CONFORMER_DIVERSEORDER>  (1) 
2
1
3

>  <PUBCHEM_MMFF94_PARTIAL_CHARGES>  (1) 
3
1 -0.46
4 0.23
5 0.23

>  <PUBCHEM_EFFECTIVE_ROTOR_COUNT>  (1) 
4

>  <PUBCHEM_PHARMACOPHORE_FEATURES>  (1) 
3
3 2 6 7 hydrophobe
3 3 8 9 hydrophobe
5 1 2 3 4 5 hydrophobe

>  <PUBCHEM_HEAVY_ATOM_COUNT>  (1) 
9

>  <PUBCHEM_ATOM_DEF_STEREO_COUNT>  (1) 
0

>  <PUBCHEM_ATOM_UDEF_STEREO_COUNT>  (1) 
0

>  <PUBCHEM_BOND_DEF_STEREO_COUNT>  (1) 
0

>  <PUBCHEM_BOND_UDEF_STEREO_COUNT>  (1) 
0

>  <PUBCHEM_ISOTOPIC_ATOM_COUNT>  (1) 
0

>  <PUBCHEM_COMPONENT_COUNT>  (1) 
1

>  <PUBCHEM_CACTVS_TAUTO_COUNT>  (1) 
1

>  <PUBCHEM_CONFORMER_ID>  (1) 
00002D5800000002

>  <PUBCHEM_MMFF94_ENERGY>  (1) 
11.7215

>  <PUBCHEM_FEATURE_SELFOVERLAP>  (1) 
15.243

>  <PUBCHEM_SHAPE_FINGERPRINT>  (1) 
10149128 76 9223226373218481458
10857977 72 17418092126379653053
12162725 195 9295288326474024547
12897270 3 15502372318179613455
12932764 1 18410857663446631493
14128692 85 18269845357387806828
14390081 3 11891322162810348623
15310529 11 17894636924198914388
18342897 137 17346595270761587541
18342897 96 10809338906518101059
18511873 20 18342745079033627809
18522851 12 18338531788571727586
20201158 50 17967249818974900330
20651381 17 9150891624761633509
20653085 51 10665500769396815113
20653091 64 18129378374657388776
20711983 138 16701751427660672398
20715346 28 15626224615046570497
23552423 10 18194964269340496501
3248919 1 17346593071358614469

>  <PUBCHEM_SHAPE_MULTIPOLES>  (1) 
189.07
4.98
1.58
1.12
0.02
0.01
0
-1.85
0
0
0
0
0.01
-0.74

>  <PUBCHEM_SHAPE_SELFOVERLAP>  (1) 
321.616

>  <PUBCHEM_SHAPE_VOLUME>  (1) 
127.3

>  <PUBCHEM_COORDINATE_TYPE>  (1) 
2
5
10

$$$$
