11609
     RDKit          3D

 11 10  0  0  0  0  0  0  0  0999 V2000
    1.5841    0.4692    0.0100 O   0  0  0  0  0  0  0  0  0  0  0  0
    2.9798   -1.3552   -0.0225 O   0  0  0  0  0  0  0  0  0  0  0  0
    5.1189    0.3086   -0.0104 O   0  0  0  0  0  0  0  0  0  0  0  0
    3.8070    0.7982    0.0053 N   0  0  0  0  0  0  0  0  0  0  0  0
   -2.0671   -0.4170    0.0212 C   0  0  0  0  0  0  0  0  0  0  0  0
   -3.3678    0.3908    0.0049 C   0  0  0  0  0  0  0  0  0  0  0  0
   -0.8112    0.4532    0.0158 C   0  0  0  0  0  0  0  0  0  0  0  0
   -4.6246   -0.4799    0.0351 C   0  0  0  0  0  0  0  0  0  0  0  0
    0.4548   -0.3932   -0.0008 C   0  0  0  0  0  0  0  0  0  0  0  0
   -5.8864    0.3651   -0.0557 C   0  0  0  0  0  0  0  0  0  0  0  0
    2.8124   -0.1399   -0.0028 C   0  0  0  0  0  0  0  0  0  0  0  0
  1  9  1  0
  1 11  1  0
  2 11  2  0
  3  4  1  0
  4 11  1  0
  5  6  1  0
  5  7  1  0
  6  8  1  0
  7  9  1  0
  8 10  1  0
M  END
>  <PUBCHEM_COMPOUND_CID>  (1) 
11609

>  <PUBCHEM_CONFORMER_RMSD>  (1) 
0.8

>  <PUBCHEM_CONFORMER_DIVERSEORDER>  (1) 
1
53
23
58
32
10
38
11
55
16
25
13
43
39
50
8
44
27
54
35
24
56
6
2
42
5
19
33
17
48
26
52
3
36
46
15
9
49
4
21
18
37
45
51
41
20
57
30
12
28
31
40
14
34
29
7
47
22

>  <PUBCHEM_MMFF94_PARTIAL_CHARGES>  (1) 
8
1 -0.43
11 0.78
2 -0.57
25 0.37
26 0.4
3 -0.44
4 -0.39
9 0.28

>  <PUBCHEM_EFFECTIVE_ROTOR_COUNT>  (1) 
7

>  <PUBCHEM_PHARMACOPHORE_FEATURES>  (1) 
4
1 10 hydrophobe
1 2 acceptor
1 4 donor
4 5 6 7 8 hydrophobe

>  <PUBCHEM_HEAVY_ATOM_COUNT>  (1) 
11

>  <PUBCHEM_ATOM_DEF_STEREO_COUNT>  (1) 
0

>  <PUBCHEM_ATOM_UDEF_STEREO_COUNT>  (1) 
0

>  <PUBCHEM_BOND_DEF_STEREO_COUNT>  (1) 
0

>  <PUBCHEM_BOND_UDEF_STEREO_COUNT>  (1) 
0

>  <PUBCHEM_ISOTOPIC_ATOM_COUNT>  (1) 
0

>  <PUBCHEM_COMPONENT_COUNT>  (1) 
1

>  <PUBCHEM_CACTVS_TAUTO_COUNT>  (1) 
3

>  <PUBCHEM_CONFORMER_ID>  (1) 
00002D5900000001

>  <PUBCHEM_MMFF94_ENERGY>  (1) 
5.3936

>  <PUBCHEM_FEATURE_SELFOVERLAP>  (1) 
20.297

>  <PUBCHEM_SHAPE_FINGERPRINT>  (1) 
11062470 55 18410856568261372681
114248 4 18260829306542766961
12815109 37 18412262843934088977
14123238 8 18201719557186041133
15242433 33 18343301474508311023
15242439 84 11887954354441623437
15501527 16 18335421206854877533
17834072 33 18271805778314806053
17834076 25 18410575093253020004
18342897 14 18202283606640696745
20279233 1 17821737130092596290
20645477 70 18340487751360051830
20719005 15 18410856568235011905
22485316 2 18410009940466925859
23402539 116 18261106396626971927
23402655 69 18342172246286345261
366044 4 18261110781741472163
42788 4 18410292514960350661
522135 26 18272652329216917126

>  <PUBCHEM_SHAPE_MULTIPOLES>  (1) 
203.79
12.39
0.89
0.58
4.2
0.13
0
-1.11
-0.13
-0.35
0
0.13
0
0.03

>  <PUBCHEM_SHAPE_SELFOVERLAP>  (1) 
370.334

>  <PUBCHEM_SHAPE_VOLUME>  (1) 
130.3

>  <PUBCHEM_COORDINATE_TYPE>  (1) 
2
5
10

$$$$
