11603
     RDKit          3D

  6  5  0  0  0  0  0  0  0  0999 V2000
   -2.3036    0.9154   -0.2481 F   0  0  0  0  0  0  0  0  0  0  0  0
    0.4146    0.0866    0.2369 C   0  0  0  0  0  0  0  0  0  0  0  0
   -0.7392   -0.8348   -0.1651 C   0  0  0  0  0  0  0  0  0  0  0  0
    1.7784   -0.3975   -0.2602 C   0  0  0  0  0  0  0  0  0  0  0  0
   -2.0754   -0.2977    0.3211 C   0  0  0  0  0  0  0  0  0  0  0  0
    2.9252    0.5281    0.1154 C   0  0  0  0  0  0  0  0  0  0  0  0
  1  5  1  0
  2  3  1  0
  2  4  1  0
  3  5  1  0
  4  6  1  0
M  END
>  <PUBCHEM_COMPOUND_CID>  (1) 
11603

>  <PUBCHEM_CONFORMER_RMSD>  (1) 
0.4

>  <PUBCHEM_CONFORMER_DIVERSEORDER>  (1) 
1
21
15
2
17
13
19
3
18
16
20
11
14
4
12
10
9
6
8
7
5

>  <PUBCHEM_MMFF94_PARTIAL_CHARGES>  (1) 
2
1 -0.34
5 0.34

>  <PUBCHEM_EFFECTIVE_ROTOR_COUNT>  (1) 
3

>  <PUBCHEM_PHARMACOPHORE_FEATURES>  (1) 
1
1 6 hydrophobe

>  <PUBCHEM_HEAVY_ATOM_COUNT>  (1) 
6

>  <PUBCHEM_ATOM_DEF_STEREO_COUNT>  (1) 
0

>  <PUBCHEM_ATOM_UDEF_STEREO_COUNT>  (1) 
0

>  <PUBCHEM_BOND_DEF_STEREO_COUNT>  (1) 
0

>  <PUBCHEM_BOND_UDEF_STEREO_COUNT>  (1) 
0

>  <PUBCHEM_ISOTOPIC_ATOM_COUNT>  (1) 
0

>  <PUBCHEM_COMPONENT_COUNT>  (1) 
1

>  <PUBCHEM_CACTVS_TAUTO_COUNT>  (1) 
1

>  <PUBCHEM_CONFORMER_ID>  (1) 
00002D5300000001

>  <PUBCHEM_MMFF94_ENERGY>  (1) 
-2.876

>  <PUBCHEM_FEATURE_SELFOVERLAP>  (1) 
5.074

>  <PUBCHEM_SHAPE_FINGERPRINT>  (1) 
139733 1 18411982446851829259
14390081 3 18413386548917529568
16714656 1 18411983567769539893
20096714 4 18408886234918943987
29004967 10 12685089280799158006
5460574 1 8502379922845335394

>  <PUBCHEM_SHAPE_MULTIPOLES>  (1) 
116.2
4.16
0.9
0.65
1.1
0.01
0.02
0.92
0.04
-0.2
-0.06
-0.01
-0.01
0.15

>  <PUBCHEM_SHAPE_SELFOVERLAP>  (1) 
197.038

>  <PUBCHEM_SHAPE_VOLUME>  (1) 
78.9

>  <PUBCHEM_COORDINATE_TYPE>  (1) 
2
5
10

$$$$
