11618
     RDKit          3D

  7  7  0  0  0  0  0  0  0  0999 V2000
   -0.9048   -1.1011    0.4525 O   0  0  0  0  0  0  0  0  0  0  0  0
    1.5435    0.6803   -0.1284 C   0  0  0  0  0  0  0  0  0  0  0  0
    0.3529    1.4858    0.3936 C   0  0  0  0  0  0  0  0  0  0  0  0
    1.4560   -0.8269    0.1024 C   0  0  0  0  0  0  0  0  0  0  0  0
   -0.9219    1.2396   -0.4090 C   0  0  0  0  0  0  0  0  0  0  0  0
    0.1693   -1.4637   -0.4046 C   0  0  0  0  0  0  0  0  0  0  0  0
   -1.6949   -0.0141   -0.0065 C   0  0  0  0  0  0  0  0  0  0  0  0
  1  6  1  0
  1  7  1  0
  2  3  1  0
  2  4  1  0
  3  5  1  0
  4  6  1  0
  5  7  1  0
M  END
>  <PUBCHEM_COMPOUND_CID>  (1) 
11618

>  <PUBCHEM_CONFORMER_RMSD>  (1) 
0.4

>  <PUBCHEM_CONFORMER_DIVERSEORDER>  (1) 
2
4
1
3

>  <PUBCHEM_MMFF94_PARTIAL_CHARGES>  (1) 
3
1 -0.56
6 0.28
7 0.28

>  <PUBCHEM_EFFECTIVE_ROTOR_COUNT>  (1) 
1.4

>  <PUBCHEM_PHARMACOPHORE_FEATURES>  (1) 
2
1 1 acceptor
7 1 2 3 4 5 6 7 rings

>  <PUBCHEM_HEAVY_ATOM_COUNT>  (1) 
7

>  <PUBCHEM_ATOM_DEF_STEREO_COUNT>  (1) 
0

>  <PUBCHEM_ATOM_UDEF_STEREO_COUNT>  (1) 
0

>  <PUBCHEM_BOND_DEF_STEREO_COUNT>  (1) 
0

>  <PUBCHEM_BOND_UDEF_STEREO_COUNT>  (1) 
0

>  <PUBCHEM_ISOTOPIC_ATOM_COUNT>  (1) 
0

>  <PUBCHEM_COMPONENT_COUNT>  (1) 
1

>  <PUBCHEM_CACTVS_TAUTO_COUNT>  (1) 
1

>  <PUBCHEM_CONFORMER_ID>  (1) 
00002D6200000002

>  <PUBCHEM_MMFF94_ENERGY>  (1) 
12.5253

>  <PUBCHEM_FEATURE_SELFOVERLAP>  (1) 
10.148

>  <PUBCHEM_SHAPE_FINGERPRINT>  (1) 
16714656 1 18121229932870716100
18185500 45 15457334535262829892
20096714 4 18196376050575548370
21040471 1 18339078306006368852

>  <PUBCHEM_SHAPE_MULTIPOLES>  (1) 
138.19
1.95
1.77
0.7
0.02
0.06
0.01
-0.03
0.06
-0.06
-0.04
0.02
0.01
0.11

>  <PUBCHEM_SHAPE_SELFOVERLAP>  (1) 
259.005

>  <PUBCHEM_SHAPE_VOLUME>  (1) 
83.7

>  <PUBCHEM_COORDINATE_TYPE>  (1) 
2
5
10

$$$$
