11624
     RDKit          3D

 15 14  0  0  0  0  0  0  0  0999 V2000
    7.6217   -0.9442   -0.6931 F   0  0  0  0  0  0  0  0  0  0  0  0
   -7.5587   -0.7097    0.1912 O   0  0  0  0  0  0  0  0  0  0  0  0
   -6.5603    1.2772   -0.2705 O   0  0  0  0  0  0  0  0  0  0  0  0
    1.1768    0.4807   -0.0328 C   0  0  0  0  0  0  0  0  0  0  0  0
   -0.0439   -0.4328    0.0965 C   0  0  0  0  0  0  0  0  0  0  0  0
    2.4764   -0.2948    0.1998 C   0  0  0  0  0  0  0  0  0  0  0  0
   -1.3719    0.2867   -0.1576 C   0  0  0  0  0  0  0  0  0  0  0  0
    3.6953    0.6253    0.1022 C   0  0  0  0  0  0  0  0  0  0  0  0
   -2.6348   -0.5576    0.0412 C   0  0  0  0  0  0  0  0  0  0  0  0
    5.0292   -0.1116    0.2556 C   0  0  0  0  0  0  0  0  0  0  0  0
   -3.9626    0.1779   -0.1595 C   0  0  0  0  0  0  0  0  0  0  0  0
    6.2492    0.7964    0.0863 C   0  0  0  0  0  0  0  0  0  0  0  0
   -5.1872   -0.6997    0.0982 C   0  0  0  0  0  0  0  0  0  0  0  0
    7.5461    0.0227    0.2595 C   0  0  0  0  0  0  0  0  0  0  0  0
   -6.4752    0.0836   -0.0171 C   0  0  0  0  0  0  0  0  0  0  0  0
  1 14  1  0
  2 15  1  0
  3 15  2  0
  4  5  1  0
  4  6  1  0
  5  7  1  0
  6  8  1  0
  7  9  1  0
  8 10  1  0
  9 11  1  0
 10 12  1  0
 11 13  1  0
 12 14  1  0
 13 15  1  0
M  END
>  <PUBCHEM_COMPOUND_CID>  (1) 
11624

>  <PUBCHEM_CONFORMER_RMSD>  (1) 
1.2

>  <PUBCHEM_CONFORMER_DIVERSEORDER>  (1) 
1
41
19
17
39
29
4
15
13
26
18
42
28
30
25
8
48
61
6
20
43
53
37
14
56
52
10
34
45
31
22
7
60
11
24
51
38
55
27
3
54
21
9
58
33
23
16
40
2
49
12
32
50
46
5
36
59
44
57
35
47

>  <PUBCHEM_MMFF94_PARTIAL_CHARGES>  (1) 
7
1 -0.34
13 0.06
14 0.34
15 0.66
2 -0.65
3 -0.57
38 0.5

>  <PUBCHEM_EFFECTIVE_ROTOR_COUNT>  (1) 
11

>  <PUBCHEM_PHARMACOPHORE_FEATURES>  (1) 
3
1 2 acceptor
1 3 acceptor
3 2 3 15 anion

>  <PUBCHEM_HEAVY_ATOM_COUNT>  (1) 
15

>  <PUBCHEM_ATOM_DEF_STEREO_COUNT>  (1) 
0

>  <PUBCHEM_ATOM_UDEF_STEREO_COUNT>  (1) 
0

>  <PUBCHEM_BOND_DEF_STEREO_COUNT>  (1) 
0

>  <PUBCHEM_BOND_UDEF_STEREO_COUNT>  (1) 
0

>  <PUBCHEM_ISOTOPIC_ATOM_COUNT>  (1) 
0

>  <PUBCHEM_COMPONENT_COUNT>  (1) 
1

>  <PUBCHEM_CACTVS_TAUTO_COUNT>  (1) 
1

>  <PUBCHEM_CONFORMER_ID>  (1) 
00002D6800000001

>  <PUBCHEM_MMFF94_ENERGY>  (1) 
1.8802

>  <PUBCHEM_FEATURE_SELFOVERLAP>  (1) 
15.281

>  <PUBCHEM_SHAPE_FINGERPRINT>  (1) 
10066227 49 17774447079712333310
11315181 36 17704356601874793227
11638347 137 12103571858326369116
12091667 2 18411981373848379587
13533116 47 16588291762440038856
14123256 10 12175623979378313229
14251764 18 17530961380100826811
14251764 46 18410855468723384146
17834076 25 18410573993741392232
18006028 8 16486973998716793080
20281389 69 18410570695671213424
20621476 8 18335419050015825806
21315763 28 18411136961270594445
220451 1 16587736555763882834
22224240 67 15068340133612494624
23035841 295 17894346687831772394
23402539 116 18271801350625432759
23521765 1 18341894099423985674
28498 318 18131352982336204966
33532 11 18410291389885284090
33684 2 18410854361181016987
3545911 37 18408039615207815274
42788 4 18407758149475069441
4463277 17 18408039623766335157
57583515 80 18409450293258712577
59567204 34 18341894036118886769
59755656 520 18334287699648577519
8209 1 18410573993741392240

>  <PUBCHEM_SHAPE_MULTIPOLES>  (1) 
289.68
25.1
0.92
0.64
3.76
0.08
0
-0.65
-0.51
-0.27
-0.04
0.25
-0.02
0.46

>  <PUBCHEM_SHAPE_SELFOVERLAP>  (1) 
528.136

>  <PUBCHEM_SHAPE_VOLUME>  (1) 
183.9

>  <PUBCHEM_COORDINATE_TYPE>  (1) 
2
5
10

$$$$
