11620
     RDKit          3D

 10  9  0  0  1  0  0  0  0  0999 V2000
    3.0154   -0.2129   -0.2600 S   0  0  0  0  0  0  0  0  0  0  0  0
   -4.1391   -1.5780   -0.1330 S   0  0  0  0  0  0  0  0  0  0  0  0
    2.4207   -1.0401   -1.3610 O   0  0  0  0  0  0  0  0  0  0  0  0
   -1.8482   -0.1132    0.3788 N   0  0  0  0  0  0  0  0  0  0  0  0
   -0.5013    1.9164    0.1537 C   0  0  0  0  0  0  0  0  0  0  0  0
   -1.8137    1.2288   -0.2077 C   0  0  0  0  0  0  0  0  0  0  0  0
    0.6958    1.1521   -0.3396 C   0  0  0  0  0  0  0  0  0  0  0  0
    1.6513    0.6742    0.4696 C   0  0  0  0  0  0  0  0  0  0  0  0
    3.3442   -1.3022    1.1444 C   0  0  0  0  0  0  0  0  0  0  0  0
   -2.8251   -0.7250    0.1548 C   0  0  0  0  0  0  0  0  0  0  0  0
  1  3  2  0
  1  8  1  0
  1  9  1  0
  2 10  2  0
  4  6  1  0
  4 10  2  0
  5  6  1  0
  5  7  1  0
  7  8  2  0
M  END
>  <PUBCHEM_COMPOUND_CID>  (1) 
11620

>  <PUBCHEM_CONFORMER_RMSD>  (1) 
0.6

>  <PUBCHEM_CONFORMER_DIVERSEORDER>  (1) 
3
47
44
31
49
6
43
75
33
48
65
68
21
70
53
41
61
28
60
25
56
54
4
73
55
29
36
64
12
58
74
17
26
16
59
77
51
71
18
72
9
27
7
11
38
37
23
2
52
69
45
10
14
20
66
35
76
39
42
32
5
63
40
1
57
67
22
46
13
24
50
34
19
30
62
8
15

>  <PUBCHEM_MMFF94_PARTIAL_CHARGES>  (1) 
12
1 0.25
10 0.57
15 0.15
16 0.15
2 -0.27
3 -0.5
4 -0.55
5 0.14
6 0.25
7 -0.29
8 -0.09
9 0.19

>  <PUBCHEM_EFFECTIVE_ROTOR_COUNT>  (1) 
4

>  <PUBCHEM_PHARMACOPHORE_FEATURES>  (1) 
3
1 2 acceptor
1 3 acceptor
1 4 acceptor

>  <PUBCHEM_HEAVY_ATOM_COUNT>  (1) 
10

>  <PUBCHEM_ATOM_DEF_STEREO_COUNT>  (1) 
0

>  <PUBCHEM_ATOM_UDEF_STEREO_COUNT>  (1) 
0

>  <PUBCHEM_BOND_DEF_STEREO_COUNT>  (1) 
0

>  <PUBCHEM_BOND_UDEF_STEREO_COUNT>  (1) 
1

>  <PUBCHEM_ISOTOPIC_ATOM_COUNT>  (1) 
0

>  <PUBCHEM_COMPONENT_COUNT>  (1) 
1

>  <PUBCHEM_CACTVS_TAUTO_COUNT>  (1) 
1

>  <PUBCHEM_CONFORMER_ID>  (1) 
00002D6400000003

>  <PUBCHEM_MMFF94_ENERGY>  (1) 
7.7111

>  <PUBCHEM_FEATURE_SELFOVERLAP>  (1) 
15.228

>  <PUBCHEM_SHAPE_FINGERPRINT>  (1) 
10149128 111 9799694813413170531
12932764 1 17896050836460905884
14252887 29 18201165445937912890
14390081 3 8286199427007308701
177051 138 18272936067688852575
18186145 218 13334740106747514525
18342897 69 18410292467378236953
19107657 9 9655578521567714403
20645477 70 18194960975443523919
20653085 51 10015580653199430596
20671657 53 18113897191040888717
20711978 1 18408887368743175221
20711985 344 17967805008228756013
20871998 22 18343590641576055565
22485316 2 18408318899872563225
3248919 1 18058445401021928308
449060 23 18410864243352112881
8199 26 10375575040973593938
94968 8 18336550528768921563

>  <PUBCHEM_SHAPE_MULTIPOLES>  (1) 
202.64
7.11
1.93
0.95
3.01
0.32
0.1
-5.28
-0.16
0.47
-0.1
-0.75
-0.3
-0.22

>  <PUBCHEM_SHAPE_SELFOVERLAP>  (1) 
355.045

>  <PUBCHEM_SHAPE_VOLUME>  (1) 
134

>  <PUBCHEM_COORDINATE_TYPE>  (1) 
2
5
10

$$$$
