11629
     RDKit          3D

 10  9  0  0  0  0  0  0  0  0999 V2000
   -5.3904    0.5409   -0.0080 F   0  0  0  0  0  0  0  0  0  0  0  0
    4.6791    1.1328   -0.0264 O   0  0  0  0  0  0  0  0  0  0  0  0
   -0.5343    0.2756    0.0255 C   0  0  0  0  0  0  0  0  0  0  0  0
    0.6744   -0.6632    0.0021 C   0  0  0  0  0  0  0  0  0  0  0  0
   -1.8467   -0.5107   -0.0163 C   0  0  0  0  0  0  0  0  0  0  0  0
    2.0203    0.0720    0.0206 C   0  0  0  0  0  0  0  0  0  0  0  0
   -3.0548    0.4213    0.0399 C   0  0  0  0  0  0  0  0  0  0  0  0
    3.2498   -0.8330    0.0148 C   0  0  0  0  0  0  0  0  0  0  0  0
   -4.3613   -0.3478   -0.0373 C   0  0  0  0  0  0  0  0  0  0  0  0
    4.5639   -0.0879   -0.0150 C   0  0  0  0  0  0  0  0  0  0  0  0
  1  9  1  0
  2 10  2  0
  3  4  1  0
  3  5  1  0
  4  6  1  0
  5  7  1  0
  6  8  1  0
  7  9  1  0
  8 10  1  0
M  END
>  <PUBCHEM_COMPOUND_CID>  (1) 
11629

>  <PUBCHEM_CONFORMER_RMSD>  (1) 
0.6

>  <PUBCHEM_CONFORMER_DIVERSEORDER>  (1) 
1
239
318
18
7
299
268
186
8
295
314
147
53
331
272
166
291
44
319
89
309
87
159
131
123
31
279
224
292
72
332
20
145
288
230
61
29
323
2
127
75
48
324
173
297
172
302
21
80
164
303
328
220
90
4
271
190
267
255
276
6
144
77
274
132
12
301
3
330
296
298
49
262
315
13
316
17
306
307
63
177
139
51
329
214
38
257
304
82
229
202
39
76
305
317
56
322
36
134
109
313
222
265
212
129
278
175
59
19
321
210
85
308
91
46
260
208
67
320
73
99
252
282
52
193
149
263
162
9
110
28
269
16
183
178
261
60
151
187
234
325
84
287
41
88
327
43
165
22
270
312
207
195
120
25
5
284
23
191
115
300
74
264
156
293
135
117
163
275
197
168
277
201
289
171
283
105
223
247
126
153
152
150
231
216
211
11
311
35
280
104
310
47
266
254
233
217
24
285
160
259
119
154
157
79
158
188
244
142
294
122
237
10
236
108
124
174
42
128
137
249
58
103
199
106
34
98
62
95
133
101
218
250
189
192
102
55
114
213
232
118
57
290
240
83
246
184
196
181
66
130
141
81
281
50
121
30
206
125
69
27
209
40
37
92
235
86
15
155
176
112
70
107
205
78
96
97
258
148
32
200
225
326
286
185
227
71
198
273
241
140
33
14
45
138
94
64
26
146
219
100
182
136
180
68
215
169
116
253
93
238
242
167
65
170
54
204
245
228
243
113
221
143
248
203
226
111
179
251
256
161
194

>  <PUBCHEM_MMFF94_PARTIAL_CHARGES>  (1) 
6
1 -0.34
10 0.45
2 -0.57
25 0.06
8 0.06
9 0.34

>  <PUBCHEM_EFFECTIVE_ROTOR_COUNT>  (1) 
7

>  <PUBCHEM_PHARMACOPHORE_FEATURES>  (1) 
3
1 2 acceptor
3 3 5 7 hydrophobe
3 4 6 8 hydrophobe

>  <PUBCHEM_HEAVY_ATOM_COUNT>  (1) 
10

>  <PUBCHEM_ATOM_DEF_STEREO_COUNT>  (1) 
0

>  <PUBCHEM_ATOM_UDEF_STEREO_COUNT>  (1) 
0

>  <PUBCHEM_BOND_DEF_STEREO_COUNT>  (1) 
0

>  <PUBCHEM_BOND_UDEF_STEREO_COUNT>  (1) 
0

>  <PUBCHEM_ISOTOPIC_ATOM_COUNT>  (1) 
0

>  <PUBCHEM_COMPONENT_COUNT>  (1) 
1

>  <PUBCHEM_CACTVS_TAUTO_COUNT>  (1) 
2

>  <PUBCHEM_CONFORMER_ID>  (1) 
00002D6D00000001

>  <PUBCHEM_MMFF94_ENERGY>  (1) 
0.2409

>  <PUBCHEM_FEATURE_SELFOVERLAP>  (1) 
15.223

>  <PUBCHEM_SHAPE_FINGERPRINT>  (1) 
11062470 55 18408323284960299882
114248 4 18412262848054924563
14123238 8 18410855468881659255
15501527 16 18336828581585423933
17834072 33 18131066082151044151
17834076 25 17917992775960622134
18342897 14 18412263938960884433
20645477 70 18129666292597136438
20719005 15 18410855455854338978
20767249 13 13118001106436881427
22485316 2 18261109673154521987
23402539 116 18408879642576720095
366044 4 18335420171097755331
42788 4 18410573981136078183
449060 50 18335139790947003214
522135 26 17346881135500862038
59345606 91 18413387644012877216

>  <PUBCHEM_SHAPE_MULTIPOLES>  (1) 
192.65
11.53
0.9
0.6
2.84
0.02
0
1.95
0.13
-0.47
0
-0.01
-0.02
-0.03

>  <PUBCHEM_SHAPE_SELFOVERLAP>  (1) 
343.956

>  <PUBCHEM_SHAPE_VOLUME>  (1) 
124.2

>  <PUBCHEM_COORDINATE_TYPE>  (1) 
2
5
10

$$$$
