11632
     RDKit          3D

 11 10  0  0  0  0  0  0  0  0999 V2000
    4.9672    1.0349   -0.7152 F   0  0  0  0  0  0  0  0  0  0  0  0
   -4.9672    1.0350    0.7152 F   0  0  0  0  0  0  0  0  0  0  0  0
    0.0002    0.0216    0.0001 O   0  0  0  0  0  0  0  0  0  0  0  0
    2.3841    0.1367    0.1941 C   0  0  0  0  0  0  0  0  0  0  0  0
   -2.3841    0.1366   -0.1941 C   0  0  0  0  0  0  0  0  0  0  0  0
    1.1711   -0.7776    0.0953 C   0  0  0  0  0  0  0  0  0  0  0  0
   -1.1712   -0.7778   -0.0953 C   0  0  0  0  0  0  0  0  0  0  0  0
    3.6842   -0.6595    0.2833 C   0  0  0  0  0  0  0  0  0  0  0  0
   -3.6843   -0.6595   -0.2833 C   0  0  0  0  0  0  0  0  0  0  0  0
    4.8920    0.2548    0.3955 C   0  0  0  0  0  0  0  0  0  0  0  0
   -4.8921    0.2548   -0.3955 C   0  0  0  0  0  0  0  0  0  0  0  0
  1 10  1  0
  2 11  1  0
  3  6  1  0
  3  7  1  0
  4  6  1  0
  4  8  1  0
  5  7  1  0
  5  9  1  0
  8 10  1  0
  9 11  1  0
M  END
>  <PUBCHEM_COMPOUND_CID>  (1) 
11632

>  <PUBCHEM_CONFORMER_RMSD>  (1) 
0.8

>  <PUBCHEM_CONFORMER_DIVERSEORDER>  (1) 
1
95
105
109
70
11
65
111
116
37
82
113
89
45
40
2
55
106
78
18
60
39
87
47
100
12
101
86
92
64
20
80
63
16
53
114
71
119
35
66
17
41
19
97
21
84
103
58
72
57
7
77
48
108
42
59
33
115
68
91
26
44
118
76
93
61
32
96
62
27
31
107
90
34
46
88
110
8
56
75
52
22
112
117
3
28
99
43
51
67
38
102
6
74
83
85
49
25
29
5
73
36
15
104
81
79
94
54
30
24
23
9
98
4
69
10
14
13
50

>  <PUBCHEM_MMFF94_PARTIAL_CHARGES>  (1) 
7
1 -0.34
10 0.34
11 0.34
2 -0.34
3 -0.56
6 0.28
7 0.28

>  <PUBCHEM_EFFECTIVE_ROTOR_COUNT>  (1) 
8

>  <PUBCHEM_PHARMACOPHORE_FEATURES>  (1) 
1
1 3 acceptor

>  <PUBCHEM_HEAVY_ATOM_COUNT>  (1) 
11

>  <PUBCHEM_ATOM_DEF_STEREO_COUNT>  (1) 
0

>  <PUBCHEM_ATOM_UDEF_STEREO_COUNT>  (1) 
0

>  <PUBCHEM_BOND_DEF_STEREO_COUNT>  (1) 
0

>  <PUBCHEM_BOND_UDEF_STEREO_COUNT>  (1) 
0

>  <PUBCHEM_ISOTOPIC_ATOM_COUNT>  (1) 
0

>  <PUBCHEM_COMPONENT_COUNT>  (1) 
1

>  <PUBCHEM_CACTVS_TAUTO_COUNT>  (1) 
1

>  <PUBCHEM_CONFORMER_ID>  (1) 
00002D7000000001

>  <PUBCHEM_MMFF94_ENERGY>  (1) 
4.9193

>  <PUBCHEM_FEATURE_SELFOVERLAP>  (1) 
5.074

>  <PUBCHEM_SHAPE_FINGERPRINT>  (1) 
100836 57 18342742905532054465
11062470 55 18410571790433913770
14123238 8 18407757045104095447
14252887 29 14996560651539045978
15242439 84 15913325805652170087
15501527 16 18337390436258816325
17834072 33 18341327893911857887
17834076 25 18342737420552901254
18342897 14 18411135839893597233
20645477 70 17846220999644689382
20767249 213 18410009923661453685
20828058 44 13406796623075549353
21119208 17 15769773567571823118
212847 35 18412541016423814680
23402539 116 17632569453173957813
23402655 69 18131630079918450966
42788 4 18411134740376701126
449060 50 17749388156783243446
49783359 22 13045943512504650193
7062679 6 18201445723125592129

>  <PUBCHEM_SHAPE_MULTIPOLES>  (1) 
205.96
12.69
0.94
0.7
0
0.01
0
3.52
0
0
0
0
0.07
-0.57

>  <PUBCHEM_SHAPE_SELFOVERLAP>  (1) 
369.326

>  <PUBCHEM_SHAPE_VOLUME>  (1) 
132.9

>  <PUBCHEM_COORDINATE_TYPE>  (1) 
2
5
10

$$$$
