11653
     RDKit          3D

  4  3  0  0  0  0  0  0  0  0999 V2000
    1.9296   -0.0025    0.1467 I   0  0  0  0  0  0  0  0  0  0  0  0
   -0.9376   -1.6116    0.1664 Br  0  0  0  0  0  0  0  0  0  0  0  0
   -0.9332    1.6141    0.1663 Br  0  0  0  0  0  0  0  0  0  0  0  0
   -0.0587    0.0000   -0.4794 C   0  0  0  0  0  0  0  0  0  0  0  0
  1  4  1  0
  2  4  1  0
  3  4  1  0
M  END
>  <PUBCHEM_COMPOUND_CID>  (1) 
11653

>  <PUBCHEM_CONFORMER_RMSD>  (1) 
0.4

>  <PUBCHEM_CONFORMER_DIVERSEORDER>  (1) 
1

>  <PUBCHEM_MMFF94_PARTIAL_CHARGES>  (1) 
4
1 -0.19
2 -0.23
3 -0.23
4 0.65

>  <PUBCHEM_EFFECTIVE_ROTOR_COUNT>  (1) 
0

>  <PUBCHEM_PHARMACOPHORE_FEATURES>  (1) 
4
1 1 hydrophobe
1 2 hydrophobe
1 3 hydrophobe
4 1 2 3 4 hydrophobe

>  <PUBCHEM_HEAVY_ATOM_COUNT>  (1) 
4

>  <PUBCHEM_ATOM_DEF_STEREO_COUNT>  (1) 
0

>  <PUBCHEM_ATOM_UDEF_STEREO_COUNT>  (1) 
0

>  <PUBCHEM_BOND_DEF_STEREO_COUNT>  (1) 
0

>  <PUBCHEM_BOND_UDEF_STEREO_COUNT>  (1) 
0

>  <PUBCHEM_ISOTOPIC_ATOM_COUNT>  (1) 
0

>  <PUBCHEM_COMPONENT_COUNT>  (1) 
1

>  <PUBCHEM_CACTVS_TAUTO_COUNT>  (1) 
1

>  <PUBCHEM_CONFORMER_ID>  (1) 
00002D8500000001

>  <PUBCHEM_MMFF94_ENERGY>  (1) 
0.0079

>  <PUBCHEM_FEATURE_SELFOVERLAP>  (1) 
21.148

>  <PUBCHEM_SHAPE_FINGERPRINT>  (1) 
139733 1 9942435607754323558
16714656 1 18410582785592188168
20096714 4 17911231720216643972
21040471 1 18194684765637652140
23552449 1 18341044215864961000
23552449 11 17400063666152967011
5943 1 7921652171977887814

>  <PUBCHEM_SHAPE_MULTIPOLES>  (1) 
106.14
2.31
2.04
0.8
1.46
0
0.02
0
0.19
-1.3
0.19
0.05
0
0

>  <PUBCHEM_SHAPE_SELFOVERLAP>  (1) 
138.92

>  <PUBCHEM_SHAPE_VOLUME>  (1) 
87.1

>  <PUBCHEM_COORDINATE_TYPE>  (1) 
2
5
10

$$$$
