11665
     RDKit          3D

  6  5  0  0  0  0  0  0  0  0999 V2000
    2.2474    0.9627   -0.0057 I   0  0  0  0  0  0  0  0  0  0  0  0
    0.2824   -0.1625    0.0014 C   0  0  0  0  0  0  0  0  0  0  0  0
   -0.8312    0.9062    0.0666 C   0  0  0  0  0  0  0  0  0  0  0  0
    0.2448   -0.9846   -1.2926 C   0  0  0  0  0  0  0  0  0  0  0  0
    0.3058   -1.0752    1.2335 C   0  0  0  0  0  0  0  0  0  0  0  0
   -2.2493    0.3533   -0.0031 C   0  0  0  0  0  0  0  0  0  0  0  0
  1  2  1  0
  2  3  1  0
  2  4  1  0
  2  5  1  0
  3  6  1  0
M  END
>  <PUBCHEM_COMPOUND_CID>  (1) 
11665

>  <PUBCHEM_CONFORMER_RMSD>  (1) 
0.4

>  <PUBCHEM_CONFORMER_DIVERSEORDER>  (1) 
1
2
3

>  <PUBCHEM_MMFF94_PARTIAL_CHARGES>  (1) 
2
1 -0.19
2 0.19

>  <PUBCHEM_EFFECTIVE_ROTOR_COUNT>  (1) 
1

>  <PUBCHEM_PHARMACOPHORE_FEATURES>  (1) 
3
1 1 hydrophobe
1 6 hydrophobe
4 1 2 4 5 hydrophobe

>  <PUBCHEM_HEAVY_ATOM_COUNT>  (1) 
6

>  <PUBCHEM_ATOM_DEF_STEREO_COUNT>  (1) 
0

>  <PUBCHEM_ATOM_UDEF_STEREO_COUNT>  (1) 
0

>  <PUBCHEM_BOND_DEF_STEREO_COUNT>  (1) 
0

>  <PUBCHEM_BOND_UDEF_STEREO_COUNT>  (1) 
0

>  <PUBCHEM_ISOTOPIC_ATOM_COUNT>  (1) 
0

>  <PUBCHEM_COMPONENT_COUNT>  (1) 
1

>  <PUBCHEM_CACTVS_TAUTO_COUNT>  (1) 
1

>  <PUBCHEM_CONFORMER_ID>  (1) 
00002D9100000001

>  <PUBCHEM_MMFF94_ENERGY>  (1) 
10.216

>  <PUBCHEM_FEATURE_SELFOVERLAP>  (1) 
15.447

>  <PUBCHEM_SHAPE_FINGERPRINT>  (1) 
137420 1 17253461369879260254
16714656 1 17916581080303136908
20096714 4 18411415124727293136
21040471 1 17967541198177798448
23552449 11 17242436227616931433
24536 1 17698995198436296881
29004967 10 17845667931983182443
5084963 1 18408042901058510064
5943 1 15682832206883185422
68250623 7 18411697720579873630

>  <PUBCHEM_SHAPE_MULTIPOLES>  (1) 
135.41
2.77
1.33
1.16
0.48
0.12
0.05
-1.33
0
0.05
-0.04
0.08
0.51
-0.02

>  <PUBCHEM_SHAPE_SELFOVERLAP>  (1) 
216.129

>  <PUBCHEM_SHAPE_VOLUME>  (1) 
99.4

>  <PUBCHEM_COORDINATE_TYPE>  (1) 
2
5
10

$$$$
