11676
     RDKit          3D

  8  7  0  0  0  0  0  0  0  0999 V2000
    1.2015    0.0718   -1.3939 O   0  0  0  0  0  0  0  0  0  0  0  0
   -0.7848    0.0066    0.0218 C   0  0  0  0  0  0  0  0  0  0  0  0
    0.7929    0.0038   -0.0174 C   0  0  0  0  0  0  0  0  0  0  0  0
   -1.3858    1.2537   -0.6583 C   0  0  0  0  0  0  0  0  0  0  0  0
   -1.3034   -0.0325    1.4794 C   0  0  0  0  0  0  0  0  0  0  0  0
   -1.3595   -1.2422   -0.6889 C   0  0  0  0  0  0  0  0  0  0  0  0
    1.4232    1.2148    0.6913 C   0  0  0  0  0  0  0  0  0  0  0  0
    1.4158   -1.2761    0.5660 C   0  0  0  0  0  0  0  0  0  0  0  0
  1  3  1  0
  2  3  1  0
  2  4  1  0
  2  5  1  0
  2  6  1  0
  3  7  1  0
  3  8  1  0
M  END
>  <PUBCHEM_COMPOUND_CID>  (1) 
11676

>  <PUBCHEM_CONFORMER_RMSD>  (1) 
0.4

>  <PUBCHEM_CONFORMER_DIVERSEORDER>  (1) 
1
2

>  <PUBCHEM_MMFF94_PARTIAL_CHARGES>  (1) 
3
1 -0.68
24 0.4
3 0.28

>  <PUBCHEM_EFFECTIVE_ROTOR_COUNT>  (1) 
1

>  <PUBCHEM_PHARMACOPHORE_FEATURES>  (1) 
4
1 1 acceptor
1 1 donor
3 3 7 8 hydrophobe
4 2 4 5 6 hydrophobe

>  <PUBCHEM_HEAVY_ATOM_COUNT>  (1) 
8

>  <PUBCHEM_ATOM_DEF_STEREO_COUNT>  (1) 
0

>  <PUBCHEM_ATOM_UDEF_STEREO_COUNT>  (1) 
0

>  <PUBCHEM_BOND_DEF_STEREO_COUNT>  (1) 
0

>  <PUBCHEM_BOND_UDEF_STEREO_COUNT>  (1) 
0

>  <PUBCHEM_ISOTOPIC_ATOM_COUNT>  (1) 
0

>  <PUBCHEM_COMPONENT_COUNT>  (1) 
1

>  <PUBCHEM_CACTVS_TAUTO_COUNT>  (1) 
1

>  <PUBCHEM_CONFORMER_ID>  (1) 
00002D9C00000001

>  <PUBCHEM_MMFF94_ENERGY>  (1) 
26.9471

>  <PUBCHEM_FEATURE_SELFOVERLAP>  (1) 
20.322

>  <PUBCHEM_SHAPE_FINGERPRINT>  (1) 
12423570 1 9132313713974266053
21040471 1 18190171300370260533
23552333 60 18129088090897997739
24536 1 17240202144385079656
29004967 10 17972027304545888187
5084963 1 17984693682798239752

>  <PUBCHEM_SHAPE_MULTIPOLES>  (1) 
158.77
2.13
1.41
1.28
0.12
0.03
-0.13
-0.01
-0.05
0.04
0.05
-0.16
-0.02
0.01

>  <PUBCHEM_SHAPE_SELFOVERLAP>  (1) 
291.156

>  <PUBCHEM_SHAPE_VOLUME>  (1) 
103.8

>  <PUBCHEM_COORDINATE_TYPE>  (1) 
2
5
10

$$$$
