11682
     RDKit          3D

 18 19  0  0  1  0  0  0  0  0999 V2000
    0.1232   -2.3955   -0.4058 O   0  0  0  0  0  0  0  0  0  0  0  0
    1.4046    0.0283   -0.2443 N   0  0  0  0  0  0  0  0  0  0  0  0
   -2.3376    0.9251    0.0470 N   0  0  0  0  0  0  0  0  0  0  0  0
    0.0194   -0.1217    0.3949 C   0  0  0  0  0  0  0  0  0  0  0  0
   -0.8068    1.0578   -0.1329 C   0  0  0  0  0  0  0  0  0  0  0  0
   -2.8122   -0.4274   -0.5506 C   0  0  0  0  0  0  0  0  0  0  0  0
    2.2979   -1.1375    0.2261 C   0  0  0  0  0  0  0  0  0  0  0  0
    1.9728    1.3869    0.1726 C   0  0  0  0  0  0  0  0  0  0  0  0
   -0.5755   -1.4486   -0.0429 C   0  0  0  0  0  0  0  0  0  0  0  0
   -2.0694   -1.6001    0.0907 C   0  0  0  0  0  0  0  0  0  0  0  0
    0.2596   -0.1220    1.9046 C   0  0  0  0  0  0  0  0  0  0  0  0
    1.2148   -0.0279   -1.7627 C   0  0  0  0  0  0  0  0  0  0  0  0
    3.6925   -0.6815    0.6451 C   0  0  0  0  0  0  0  0  0  0  0  0
    3.3807    1.6025   -0.3730 C   0  0  0  0  0  0  0  0  0  0  0  0
    4.2691    0.3648   -0.2919 C   0  0  0  0  0  0  0  0  0  0  0  0
   -2.9527    2.0917   -0.7590 C   0  0  0  0  0  0  0  0  0  0  0  0
   -2.7566    1.1311    1.5010 C   0  0  0  0  0  0  0  0  0  0  0  0
   -4.3237   -0.6258   -0.4189 C   0  0  0  0  0  0  0  0  0  0  0  0
  1  9  2  0
  2  4  1  0
  2  7  1  0
  2  8  1  0
  2 12  1  0
  3  5  1  0
  3  6  1  0
  3 16  1  0
  3 17  1  0
  4  5  1  0
  4  9  1  0
  4 11  1  0
  6 10  1  0
  6 18  1  0
  7 13  1  0
  8 14  1  0
  9 10  1  0
 13 15  1  0
 14 15  1  0
M  CHG  2   2   1   3   1
M  END
>  <PUBCHEM_COMPOUND_CID>  (1) 
11682

>  <PUBCHEM_CONFORMER_RMSD>  (1) 
0.6

>  <PUBCHEM_CONFORMER_DIVERSEORDER>  (1) 
1
6
2
9
5
3
4
8
10
7

>  <PUBCHEM_MMFF94_PARTIAL_CHARGES>  (1) 
13
1 -0.57
10 0.06
12 0.5
16 0.5
17 0.5
2 -1.01
3 -1.01
4 0.56
5 0.5
6 0.5
7 0.5
8 0.5
9 0.45

>  <PUBCHEM_EFFECTIVE_ROTOR_COUNT>  (1) 
3.2

>  <PUBCHEM_PHARMACOPHORE_FEATURES>  (1) 
5
1 1 acceptor
1 2 cation
1 3 cation
6 2 7 8 13 14 15 rings
6 3 4 5 6 9 10 rings

>  <PUBCHEM_HEAVY_ATOM_COUNT>  (1) 
18

>  <PUBCHEM_ATOM_DEF_STEREO_COUNT>  (1) 
0

>  <PUBCHEM_ATOM_UDEF_STEREO_COUNT>  (1) 
2

>  <PUBCHEM_BOND_DEF_STEREO_COUNT>  (1) 
0

>  <PUBCHEM_BOND_UDEF_STEREO_COUNT>  (1) 
0

>  <PUBCHEM_ISOTOPIC_ATOM_COUNT>  (1) 
0

>  <PUBCHEM_COMPONENT_COUNT>  (1) 
1

>  <PUBCHEM_CACTVS_TAUTO_COUNT>  (1) 
2

>  <PUBCHEM_CONFORMER_ID>  (1) 
00002DA200000001

>  <PUBCHEM_MMFF94_ENERGY>  (1) 
96.5075

>  <PUBCHEM_FEATURE_SELFOVERLAP>  (1) 
25.371

>  <PUBCHEM_SHAPE_FINGERPRINT>  (1) 
10062212 137 18339911624130117402
10608611 8 18410570725593475108
10863032 1 18411133623827544598
10948715 1 18334573533858038948
10980938 120 18333448725500598088
11132069 177 18338228280818697608
12403814 3 18335426759825260417
12491281 212 18335426776582974016
12592029 89 18335421231580137858
12670546 56 18335129908585886224
13380535 76 18411701002003440134
13581323 91 18408885148255281894
13583140 156 17167581604715312160
14144814 61 18408884048991541520
14614273 12 18409448060097310229
14993402 34 18407758149026696166
15309172 13 18409454660844833146
15442244 35 18336260125029878306
15775835 57 18334016072878349961
16945 1 18195815059106082542
17802600 8 18410848884559852261
18186145 218 18201165342990488572
200 152 17917709127783161855
20510252 161 18343866623579797121
21267235 1 18408891745625988690
21501502 16 18411419535653204016
21524375 3 18410856568309157259
22344851 262 18041561459342186254
23402539 116 18272642493799766991
23463225 33 18336261263048525098
23557571 272 18059862761408785973
23559900 14 18129944473665954286
2748010 2 18412270535898652438
296302 2 18412547613293082024
305870 269 18187926110384682219
474 4 17314513823708343228
5104073 3 18409164407334934248
633830 44 17313671442913215592
69090 78 18409445912044008222
6992083 37 18113338626022028548
7364860 26 18197499519504917654
9709674 26 18411704283295365270
9981440 41 17177997515143024896

>  <PUBCHEM_SHAPE_MULTIPOLES>  (1) 
354.6
6.86
1.95
1.25
1.07
0.05
-0.25
-1.23
0.54
-0.56
0.21
-0.15
-0.13
-0.34

>  <PUBCHEM_SHAPE_SELFOVERLAP>  (1) 
713.98

>  <PUBCHEM_SHAPE_VOLUME>  (1) 
207.6

>  <PUBCHEM_COORDINATE_TYPE>  (1) 
2
5
10

$$$$
