11695
     RDKit          3D

 16 17  0  0  1  0  0  0  0  0999 V2000
    0.5012    2.4863    0.5377 O   0  0  0  0  0  0  0  0  0  0  0  0
   -1.3229    0.2487    0.4087 N   0  0  0  0  0  0  0  0  0  0  0  0
    2.0940   -1.1796   -0.0811 N   0  0  0  0  0  0  0  0  0  0  0  0
    0.1103    0.1012    0.6609 C   0  0  0  0  0  0  0  0  0  0  0  0
    0.6280   -1.1329   -0.1042 C   0  0  0  0  0  0  0  0  0  0  0  0
    2.7272   -0.0111   -0.7259 C   0  0  0  0  0  0  0  0  0  0  0  0
    0.7808    1.3609    0.1240 C   0  0  0  0  0  0  0  0  0  0  0  0
   -2.0548   -0.9284    0.8972 C   0  0  0  0  0  0  0  0  0  0  0  0
   -1.5725    0.4734   -1.0221 C   0  0  0  0  0  0  0  0  0  0  0  0
    1.7745    1.1669   -0.9991 C   0  0  0  0  0  0  0  0  0  0  0  0
    0.3674   -0.0086    2.1684 C   0  0  0  0  0  0  0  0  0  0  0  0
   -3.5611   -0.7687    0.6857 C   0  0  0  0  0  0  0  0  0  0  0  0
   -3.0630    0.6788   -1.2965 C   0  0  0  0  0  0  0  0  0  0  0  0
   -3.8892   -0.4925   -0.7771 C   0  0  0  0  0  0  0  0  0  0  0  0
    3.8917    0.4434    0.1623 C   0  0  0  0  0  0  0  0  0  0  0  0
    2.5883   -2.4375   -0.6391 C   0  0  0  0  0  0  0  0  0  0  0  0
  1  7  2  0
  2  4  1  0
  2  8  1  0
  2  9  1  0
  3  5  1  0
  3  6  1  0
  3 16  1  0
  4  5  1  0
  4  7  1  0
  4 11  1  0
  6 10  1  0
  6 15  1  0
  7 10  1  0
  8 12  1  0
  9 13  1  0
 12 14  1  0
 13 14  1  0
M  END
>  <PUBCHEM_COMPOUND_CID>  (1) 
11695

>  <PUBCHEM_CONFORMER_RMSD>  (1) 
0.6

>  <PUBCHEM_CONFORMER_DIVERSEORDER>  (1) 
4
43
11
7
28
41
31
2
35
24
27
22
40
44
13
42
21
30
1
34
45
26
9
23
12
20
16
19
39
17
29
15
8
37
33
5
38
36
3
18
25
10
32
6
14

>  <PUBCHEM_MMFF94_PARTIAL_CHARGES>  (1) 
11
1 -0.57
10 0.06
16 0.27
2 -0.81
3 -0.81
4 0.33
5 0.27
6 0.27
7 0.45
8 0.27
9 0.27

>  <PUBCHEM_EFFECTIVE_ROTOR_COUNT>  (1) 
3.2

>  <PUBCHEM_PHARMACOPHORE_FEATURES>  (1) 
5
1 1 acceptor
1 2 cation
1 3 cation
6 2 8 9 12 13 14 rings
6 3 4 5 6 7 10 rings

>  <PUBCHEM_HEAVY_ATOM_COUNT>  (1) 
16

>  <PUBCHEM_ATOM_DEF_STEREO_COUNT>  (1) 
0

>  <PUBCHEM_ATOM_UDEF_STEREO_COUNT>  (1) 
2

>  <PUBCHEM_BOND_DEF_STEREO_COUNT>  (1) 
0

>  <PUBCHEM_BOND_UDEF_STEREO_COUNT>  (1) 
0

>  <PUBCHEM_ISOTOPIC_ATOM_COUNT>  (1) 
0

>  <PUBCHEM_COMPONENT_COUNT>  (1) 
1

>  <PUBCHEM_CACTVS_TAUTO_COUNT>  (1) 
2

>  <PUBCHEM_CONFORMER_ID>  (1) 
00002DAF00000004

>  <PUBCHEM_MMFF94_ENERGY>  (1) 
35.5928

>  <PUBCHEM_FEATURE_SELFOVERLAP>  (1) 
25.371

>  <PUBCHEM_SHAPE_FINGERPRINT>  (1) 
10498660 4 16588012503671467783
11578080 2 17345172437932540704
12491281 212 14418431974266165806
12808571 1 12901558922309532372
13296908 3 18340488863492408662
13705890 14 18408322172679905854
14817 1 16748965436157176784
15219456 202 18259705605532670367
15375462 189 17346880048193874962
16945 1 18341342183315420376
17834072 14 18335414613536349898
18186145 218 17677058936133746375
18511873 20 12179846117362248346
200 152 18271808991003214414
20201158 50 18333455347797037822
20361792 2 17775563117919985381
20645477 70 18342171112183410159
20671657 53 18194127317659098374
22802520 49 18040441009627717829
23114952 82 17968673652273255278
232386 152 15626223567417558717
23402539 116 17095796719778681582
23419403 2 17326839130080548912
23526113 38 18334566906728827891
23557571 272 17748832920754291559
23559900 14 18042678421760131338
2748010 2 18335712593808693454
4990 188 18113052749284237359
528886 8 18411698811474731914
57812782 119 17894631473874853342
77492 1 17346889952583333035
81228 2 17979636728042550944
9981440 41 13844529966262736332

>  <PUBCHEM_SHAPE_MULTIPOLES>  (1) 
313.44
6
1.82
1.39
2.13
0.09
0.45
1.18
-1.55
-1.17
-0.18
0.32
-0.02
0.68

>  <PUBCHEM_SHAPE_SELFOVERLAP>  (1) 
636.859

>  <PUBCHEM_SHAPE_VOLUME>  (1) 
183.6

>  <PUBCHEM_COORDINATE_TYPE>  (1) 
2
5
10

$$$$
