11701
     RDKit          3D

 10  9  0  0  0  0  0  0  0  0999 V2000
    1.2920    1.0397    1.4724 O   0  0  0  0  0  0  0  0  0  0  0  0
    1.5705    1.5114   -0.7146 O   0  0  0  0  0  0  0  0  0  0  0  0
   -3.0166   -0.1629    0.4979 O   0  0  0  0  0  0  0  0  0  0  0  0
   -1.5561    1.0283   -0.7684 O   0  0  0  0  0  0  0  0  0  0  0  0
    0.6728   -0.6866   -0.1201 C   0  0  0  0  0  0  0  0  0  0  0  0
   -0.7278   -0.8527    0.5075 C   0  0  0  0  0  0  0  0  0  0  0  0
    1.6181   -1.6871    0.5888 C   0  0  0  0  0  0  0  0  0  0  0  0
    0.7173   -1.0190   -1.6205 C   0  0  0  0  0  0  0  0  0  0  0  0
    1.2133    0.7249    0.1555 C   0  0  0  0  0  0  0  0  0  0  0  0
   -1.7836    0.1039    0.0015 C   0  0  0  0  0  0  0  0  0  0  0  0
  1  9  1  0
  2  9  2  0
  3 10  1  0
  4 10  2  0
  5  6  1  0
  5  7  1  0
  5  8  1  0
  5  9  1  0
  6 10  1  0
M  END
>  <PUBCHEM_COMPOUND_CID>  (1) 
11701

>  <PUBCHEM_CONFORMER_RMSD>  (1) 
0.6

>  <PUBCHEM_CONFORMER_DIVERSEORDER>  (1) 
2
5
7
6
3
1
4

>  <PUBCHEM_MMFF94_PARTIAL_CHARGES>  (1) 
10
1 -0.65
10 0.66
19 0.5
2 -0.57
20 0.5
3 -0.65
4 -0.57
5 0.06
6 0.06
9 0.66

>  <PUBCHEM_EFFECTIVE_ROTOR_COUNT>  (1) 
3

>  <PUBCHEM_PHARMACOPHORE_FEATURES>  (1) 
7
1 1 acceptor
1 2 acceptor
1 3 acceptor
1 4 acceptor
3 1 2 9 anion
3 3 4 10 anion
3 5 7 8 hydrophobe

>  <PUBCHEM_HEAVY_ATOM_COUNT>  (1) 
10

>  <PUBCHEM_ATOM_DEF_STEREO_COUNT>  (1) 
0

>  <PUBCHEM_ATOM_UDEF_STEREO_COUNT>  (1) 
0

>  <PUBCHEM_BOND_DEF_STEREO_COUNT>  (1) 
0

>  <PUBCHEM_BOND_UDEF_STEREO_COUNT>  (1) 
0

>  <PUBCHEM_ISOTOPIC_ATOM_COUNT>  (1) 
0

>  <PUBCHEM_COMPONENT_COUNT>  (1) 
1

>  <PUBCHEM_CACTVS_TAUTO_COUNT>  (1) 
1

>  <PUBCHEM_CONFORMER_ID>  (1) 
00002DB500000002

>  <PUBCHEM_MMFF94_ENERGY>  (1) 
19.7921

>  <PUBCHEM_FEATURE_SELFOVERLAP>  (1) 
35.644

>  <PUBCHEM_SHAPE_FINGERPRINT>  (1) 
12423570 1 15115695940296013514
137420 1 14936667817790727054
14128692 85 17533795800955844534
16945 1 18335131003596779286
20653091 64 18337681805979944434
21040471 1 18197496444350057402
23235687 12 18202279178545355775
24536 1 18041266712716142213
29004967 10 17701817683154718935
5084963 1 18268709579082277682

>  <PUBCHEM_SHAPE_MULTIPOLES>  (1) 
182.32
2.83
1.55
1.23
2.31
0.1
0.21
0.02
-0.38
-0.89
-0.01
-0.4
-0.05
0.16

>  <PUBCHEM_SHAPE_SELFOVERLAP>  (1) 
352.594

>  <PUBCHEM_SHAPE_VOLUME>  (1) 
110.7

>  <PUBCHEM_COORDINATE_TYPE>  (1) 
2
5
10

$$$$
