11714
     RDKit          3D

  5  4  0  0  0  0  0  0  0  0999 V2000
    0.4607    0.0000   -0.0006 C   0  0  0  0  0  0  0  0  0  0  0  0
    1.2639    1.2694    0.0002 C   0  0  0  0  0  0  0  0  0  0  0  0
    1.2633   -1.2698    0.0002 C   0  0  0  0  0  0  0  0  0  0  0  0
   -0.8448    0.0004   -0.0002 C   0  0  0  0  0  0  0  0  0  0  0  0
   -2.1431    0.0000    0.0002 C   0  0  0  0  0  0  0  0  0  0  0  0
  1  2  1  0
  1  3  1  0
  1  4  2  0
  4  5  2  0
M  END
>  <PUBCHEM_COMPOUND_CID>  (1) 
11714

>  <PUBCHEM_CONFORMER_RMSD>  (1) 
0.4

>  <PUBCHEM_CONFORMER_DIVERSEORDER>  (1) 
1

>  <PUBCHEM_MMFF94_PARTIAL_CHARGES>  (1) 
7
1 -0.21
12 0.15
13 0.15
2 0.14
3 0.14
4 -0.13
5 -0.24

>  <PUBCHEM_EFFECTIVE_ROTOR_COUNT>  (1) 
0

>  <PUBCHEM_PHARMACOPHORE_FEATURES>  (1) 
2
1 5 hydrophobe
3 1 2 3 hydrophobe

>  <PUBCHEM_HEAVY_ATOM_COUNT>  (1) 
5

>  <PUBCHEM_ATOM_DEF_STEREO_COUNT>  (1) 
0

>  <PUBCHEM_ATOM_UDEF_STEREO_COUNT>  (1) 
0

>  <PUBCHEM_BOND_DEF_STEREO_COUNT>  (1) 
0

>  <PUBCHEM_BOND_UDEF_STEREO_COUNT>  (1) 
0

>  <PUBCHEM_ISOTOPIC_ATOM_COUNT>  (1) 
0

>  <PUBCHEM_COMPONENT_COUNT>  (1) 
1

>  <PUBCHEM_CACTVS_TAUTO_COUNT>  (1) 
1

>  <PUBCHEM_CONFORMER_ID>  (1) 
00002DC200000001

>  <PUBCHEM_MMFF94_ENERGY>  (1) 
2.9935

>  <PUBCHEM_FEATURE_SELFOVERLAP>  (1) 
10.149

>  <PUBCHEM_SHAPE_FINGERPRINT>  (1) 
139733 1 9294415327174068482
20096714 4 18268994356794127249
21015797 1 8646777685420001224
21040471 1 18122343746607699300
23552449 11 18261376819993557443
24536 1 18409155619763137561
29004967 10 18337111146618372346
5460574 1 9295286144857459011
5943 1 14806625931847100224

>  <PUBCHEM_SHAPE_MULTIPOLES>  (1) 
102.9
2.36
1.26
0.62
1.26
0
0
0
0
-0.81
0
0
0
0

>  <PUBCHEM_SHAPE_SELFOVERLAP>  (1) 
181.659

>  <PUBCHEM_SHAPE_VOLUME>  (1) 
68.6

>  <PUBCHEM_COORDINATE_TYPE>  (1) 
2
5
10

$$$$
