11731
     RDKit          3D

  6  5  0  0  1  0  0  0  0  0999 V2000
    0.8950   -1.1323   -0.8547 N   0  0  0  0  0  0  0  0  0  0  0  0
   -0.7013    0.2956    0.4108 C   0  0  0  0  0  0  0  0  0  0  0  0
    0.7101   -0.3503    0.3729 C   0  0  0  0  0  0  0  0  0  0  0  0
   -0.9226    1.2606   -0.7607 C   0  0  0  0  0  0  0  0  0  0  0  0
   -1.8192   -0.7568    0.3944 C   0  0  0  0  0  0  0  0  0  0  0  0
    1.8379    0.6832    0.4374 C   0  0  0  0  0  0  0  0  0  0  0  0
  1  3  1  0
  2  3  1  0
  2  4  1  0
  2  5  1  0
  3  6  1  0
M  END
>  <PUBCHEM_COMPOUND_CID>  (1) 
11731

>  <PUBCHEM_CONFORMER_RMSD>  (1) 
0.4

>  <PUBCHEM_CONFORMER_DIVERSEORDER>  (1) 
2
1
4
5
3

>  <PUBCHEM_MMFF94_PARTIAL_CHARGES>  (1) 
4
1 -0.99
18 0.36
19 0.36
3 0.27

>  <PUBCHEM_EFFECTIVE_ROTOR_COUNT>  (1) 
1

>  <PUBCHEM_PHARMACOPHORE_FEATURES>  (1) 
3
1 1 cation
1 1 donor
3 2 4 5 hydrophobe

>  <PUBCHEM_HEAVY_ATOM_COUNT>  (1) 
6

>  <PUBCHEM_ATOM_DEF_STEREO_COUNT>  (1) 
0

>  <PUBCHEM_ATOM_UDEF_STEREO_COUNT>  (1) 
1

>  <PUBCHEM_BOND_DEF_STEREO_COUNT>  (1) 
0

>  <PUBCHEM_BOND_UDEF_STEREO_COUNT>  (1) 
0

>  <PUBCHEM_ISOTOPIC_ATOM_COUNT>  (1) 
0

>  <PUBCHEM_COMPONENT_COUNT>  (1) 
1

>  <PUBCHEM_CACTVS_TAUTO_COUNT>  (1) 
1

>  <PUBCHEM_CONFORMER_ID>  (1) 
00002DD300000002

>  <PUBCHEM_MMFF94_ENERGY>  (1) 
0.5804

>  <PUBCHEM_FEATURE_SELFOVERLAP>  (1) 
15.223

>  <PUBCHEM_SHAPE_FINGERPRINT>  (1) 
137420 1 12124431396831460634
139733 1 11167674165489254187
16714656 1 18196093471987440908
20096714 4 17826783738066502817
21040471 1 17535462621981302533
24536 1 17986946358442095688
29004967 10 18188216523436093523
5943 1 14012810684206786653

>  <PUBCHEM_SHAPE_MULTIPOLES>  (1) 
118.5
2.19
1.27
0.91
0.15
0.21
-0.12
-0.07
0.33
-0.22
-0.28
0.07
-0.05
0.37

>  <PUBCHEM_SHAPE_SELFOVERLAP>  (1) 
204.706

>  <PUBCHEM_SHAPE_VOLUME>  (1) 
79.8

>  <PUBCHEM_COORDINATE_TYPE>  (1) 
2
5
10

$$$$
