11739
     RDKit          3D

  8  7  0  0  0  0  0  0  0  0999 V2000
    2.0841    1.2382   -0.0022 Cl  0  0  0  0  0  0  0  0  0  0  0  0
    1.1871   -1.1007    1.4644 Cl  0  0  0  0  0  0  0  0  0  0  0  0
    1.1840   -1.1033   -1.4634 Cl  0  0  0  0  0  0  0  0  0  0  0  0
   -1.3758   -0.6344    0.0007 O   0  0  0  0  0  0  0  0  0  0  0  0
   -0.7856    1.5860    0.0001 O   0  0  0  0  0  0  0  0  0  0  0  0
    0.9418   -0.1260   -0.0002 C   0  0  0  0  0  0  0  0  0  0  0  0
   -0.4784    0.3997    0.0008 C   0  0  0  0  0  0  0  0  0  0  0  0
   -2.7572   -0.2595   -0.0002 C   0  0  0  0  0  0  0  0  0  0  0  0
  1  6  1  0
  2  6  1  0
  3  6  1  0
  4  7  1  0
  4  8  1  0
  5  7  2  0
  6  7  1  0
M  END
>  <PUBCHEM_COMPOUND_CID>  (1) 
11739

>  <PUBCHEM_CONFORMER_RMSD>  (1) 
0.4

>  <PUBCHEM_CONFORMER_DIVERSEORDER>  (1) 
1
2

>  <PUBCHEM_MMFF94_PARTIAL_CHARGES>  (1) 
8
1 -0.29
2 -0.29
3 -0.29
4 -0.43
5 -0.57
6 0.93
7 0.66
8 0.28

>  <PUBCHEM_EFFECTIVE_ROTOR_COUNT>  (1) 
2

>  <PUBCHEM_PHARMACOPHORE_FEATURES>  (1) 
1
1 5 acceptor

>  <PUBCHEM_HEAVY_ATOM_COUNT>  (1) 
8

>  <PUBCHEM_ATOM_DEF_STEREO_COUNT>  (1) 
0

>  <PUBCHEM_ATOM_UDEF_STEREO_COUNT>  (1) 
0

>  <PUBCHEM_BOND_DEF_STEREO_COUNT>  (1) 
0

>  <PUBCHEM_BOND_UDEF_STEREO_COUNT>  (1) 
0

>  <PUBCHEM_ISOTOPIC_ATOM_COUNT>  (1) 
0

>  <PUBCHEM_COMPONENT_COUNT>  (1) 
1

>  <PUBCHEM_CACTVS_TAUTO_COUNT>  (1) 
1

>  <PUBCHEM_CONFORMER_ID>  (1) 
00002DDB00000001

>  <PUBCHEM_MMFF94_ENERGY>  (1) 
12.3746

>  <PUBCHEM_FEATURE_SELFOVERLAP>  (1) 
5.074

>  <PUBCHEM_SHAPE_FINGERPRINT>  (1) 
137420 1 13534940421205173294
16714656 1 17986392406682646676
18185500 45 17535459331909682106
20711978 78 16199584658744742207
21040471 1 17488735821563244062
23211744 25 18044969833640053342
23552333 60 18408319973593288617
23552423 10 18114182995164999579
23552449 11 18335129865298674603
24536 1 17987227824829007904
29004967 10 18271257117564584643
5084963 1 18335702775682357228
5943 1 15907752248525845314

>  <PUBCHEM_SHAPE_MULTIPOLES>  (1) 
158.51
2.97
1.47
1.22
1.95
0.29
0
0.17
0
-0.53
0
-0.68
-0.67
0

>  <PUBCHEM_SHAPE_SELFOVERLAP>  (1) 
273.267

>  <PUBCHEM_SHAPE_VOLUME>  (1) 
107

>  <PUBCHEM_COORDINATE_TYPE>  (1) 
2
5
10

$$$$
