11734
     RDKit          3D

  6  5  0  0  1  0  0  0  0  0999 V2000
   -1.7370   -1.0990    0.1523 Cl  0  0  0  0  0  0  0  0  0  0  0  0
    1.6804    0.8028    0.2507 O   0  0  0  0  0  0  0  0  0  0  0  0
    1.0464   -1.2778   -0.3948 O   0  0  0  0  0  0  0  0  0  0  0  0
   -0.6415    0.2813    0.3991 C   0  0  0  0  0  0  0  0  0  0  0  0
   -1.1034    1.4617   -0.4412 C   0  0  0  0  0  0  0  0  0  0  0  0
    0.7551   -0.1690    0.0340 C   0  0  0  0  0  0  0  0  0  0  0  0
  1  4  1  0
  2  6  1  0
  3  6  2  0
  4  5  1  0
  4  6  1  0
M  END
>  <PUBCHEM_COMPOUND_CID>  (1) 
11734

>  <PUBCHEM_CONFORMER_RMSD>  (1) 
0.4

>  <PUBCHEM_CONFORMER_DIVERSEORDER>  (1) 
3
4
2
1

>  <PUBCHEM_MMFF94_PARTIAL_CHARGES>  (1) 
6
1 -0.29
11 0.5
2 -0.65
3 -0.57
4 0.35
6 0.66

>  <PUBCHEM_EFFECTIVE_ROTOR_COUNT>  (1) 
1

>  <PUBCHEM_PHARMACOPHORE_FEATURES>  (1) 
3
1 2 acceptor
1 3 acceptor
3 2 3 6 anion

>  <PUBCHEM_HEAVY_ATOM_COUNT>  (1) 
6

>  <PUBCHEM_ATOM_DEF_STEREO_COUNT>  (1) 
0

>  <PUBCHEM_ATOM_UDEF_STEREO_COUNT>  (1) 
1

>  <PUBCHEM_BOND_DEF_STEREO_COUNT>  (1) 
0

>  <PUBCHEM_BOND_UDEF_STEREO_COUNT>  (1) 
0

>  <PUBCHEM_ISOTOPIC_ATOM_COUNT>  (1) 
0

>  <PUBCHEM_COMPONENT_COUNT>  (1) 
1

>  <PUBCHEM_CACTVS_TAUTO_COUNT>  (1) 
1

>  <PUBCHEM_CONFORMER_ID>  (1) 
00002DD600000003

>  <PUBCHEM_MMFF94_ENERGY>  (1) 
4.9324

>  <PUBCHEM_FEATURE_SELFOVERLAP>  (1) 
15.282

>  <PUBCHEM_SHAPE_FINGERPRINT>  (1) 
139733 1 9583257019159045035
16714656 1 18051418662526195676
20096714 4 17975412417126858625
21040471 1 17974568000781308581
24536 1 17916863491572006210
29004967 10 18190750927834647163
5943 1 11701400663254684449

>  <PUBCHEM_SHAPE_MULTIPOLES>  (1) 
113.61
2.07
1.53
0.69
0.04
0.18
0
-0.27
0.07
-0.37
-0.23
-0.05
0.02
0.25

>  <PUBCHEM_SHAPE_SELFOVERLAP>  (1) 
198.787

>  <PUBCHEM_SHAPE_VOLUME>  (1) 
76

>  <PUBCHEM_COORDINATE_TYPE>  (1) 
2
5
10

$$$$
