11749
     RDKit          3D

  7  6  0  0  1  0  0  0  0  0999 V2000
   -1.3251   -1.1569    0.8240 O   0  0  0  0  0  0  0  0  0  0  0  0
   -1.0478   -0.4256   -1.2357 O   0  0  0  0  0  0  0  0  0  0  0  0
   -0.8154   -0.4027   -0.0179 N   0  0  0  0  0  0  0  0  0  0  0  0
    0.1321    0.6240    0.4711 C   0  0  0  0  0  0  0  0  0  0  0  0
    1.4845    0.3922   -0.2007 C   0  0  0  0  0  0  0  0  0  0  0  0
   -0.4641    1.9780    0.1223 C   0  0  0  0  0  0  0  0  0  0  0  0
    2.0356   -1.0090    0.0368 C   0  0  0  0  0  0  0  0  0  0  0  0
  1  3  1  0
  2  3  2  0
  3  4  1  0
  4  5  1  0
  4  6  1  0
  5  7  1  0
M  CHG  2   1  -1   3   1
M  END
>  <PUBCHEM_COMPOUND_CID>  (1) 
11749

>  <PUBCHEM_CONFORMER_RMSD>  (1) 
0.4

>  <PUBCHEM_CONFORMER_DIVERSEORDER>  (1) 
3
7
10
4
9
8
6
2
5
1

>  <PUBCHEM_MMFF94_PARTIAL_CHARGES>  (1) 
4
1 -0.52
2 -0.52
3 0.8
4 0.24

>  <PUBCHEM_EFFECTIVE_ROTOR_COUNT>  (1) 
2

>  <PUBCHEM_PHARMACOPHORE_FEATURES>  (1) 
4
1 1 acceptor
1 1 anion
1 2 acceptor
1 7 hydrophobe

>  <PUBCHEM_HEAVY_ATOM_COUNT>  (1) 
7

>  <PUBCHEM_ATOM_DEF_STEREO_COUNT>  (1) 
0

>  <PUBCHEM_ATOM_UDEF_STEREO_COUNT>  (1) 
1

>  <PUBCHEM_BOND_DEF_STEREO_COUNT>  (1) 
0

>  <PUBCHEM_BOND_UDEF_STEREO_COUNT>  (1) 
0

>  <PUBCHEM_ISOTOPIC_ATOM_COUNT>  (1) 
0

>  <PUBCHEM_COMPONENT_COUNT>  (1) 
1

>  <PUBCHEM_CACTVS_TAUTO_COUNT>  (1) 
2

>  <PUBCHEM_CONFORMER_ID>  (1) 
00002DE500000003

>  <PUBCHEM_MMFF94_ENERGY>  (1) 
5.8807

>  <PUBCHEM_FEATURE_SELFOVERLAP>  (1) 
20.376

>  <PUBCHEM_SHAPE_FINGERPRINT>  (1) 
137420 1 15896350355515816016
139733 1 8646498409556184474
21040471 1 17762906459279078728
24536 1 18261107448630137098
29004967 10 18265618873429451824
5943 1 9713933138385361248

>  <PUBCHEM_SHAPE_MULTIPOLES>  (1) 
127.34
2.06
1.61
0.87
1.42
0.33
-0.13
-0.24
-0.02
-0.71
0.17
-0.22
-0.21
-0.02

>  <PUBCHEM_SHAPE_SELFOVERLAP>  (1) 
229.597

>  <PUBCHEM_SHAPE_VOLUME>  (1) 
83.2

>  <PUBCHEM_COORDINATE_TYPE>  (1) 
2
5
10

$$$$
