11742
     RDKit          3D

 16 17  0  0  0  0  0  0  0  0999 V2000
    4.5583   -1.3740    0.0903 O   0  0  0  0  0  0  0  0  0  0  0  0
   -0.4409    1.2402    0.0242 C   0  0  0  0  0  0  0  0  0  0  0  0
    0.9456    0.5147    0.0423 C   0  0  0  0  0  0  0  0  0  0  0  0
   -1.5831    0.2828   -0.0369 C   0  0  0  0  0  0  0  0  0  0  0  0
   -0.4111    2.1849    1.2844 C   0  0  0  0  0  0  0  0  0  0  0  0
   -0.5618    2.2375   -1.1812 C   0  0  0  0  0  0  0  0  0  0  0  0
    1.1889   -0.3402    1.0708 C   0  0  0  0  0  0  0  0  0  0  0  0
    1.8077    0.7924   -0.9716 C   0  0  0  0  0  0  0  0  0  0  0  0
   -1.6992   -0.5967   -1.1133 C   0  0  0  0  0  0  0  0  0  0  0  0
   -2.5353    0.2673    0.9822 C   0  0  0  0  0  0  0  0  0  0  0  0
    2.4252   -0.9860    1.0871 C   0  0  0  0  0  0  0  0  0  0  0  0
    3.0439    0.1465   -0.9553 C   0  0  0  0  0  0  0  0  0  0  0  0
   -2.7676   -1.4918   -1.1706 C   0  0  0  0  0  0  0  0  0  0  0  0
   -3.6036   -0.6278    0.9250 C   0  0  0  0  0  0  0  0  0  0  0  0
    3.3527   -0.7426    0.0741 C   0  0  0  0  0  0  0  0  0  0  0  0
   -3.7197   -1.5073   -0.1515 C   0  0  0  0  0  0  0  0  0  0  0  0
  1 15  1  0
  2  3  1  0
  2  4  1  0
  2  5  1  0
  2  6  1  0
  3  7  2  0
  3  8  1  0
  4  9  2  0
  4 10  1  0
  7 11  1  0
  8 12  2  0
  9 13  1  0
 10 14  2  0
 11 15  2  0
 12 15  1  0
 13 16  2  0
 14 16  1  0
M  END
>  <PUBCHEM_COMPOUND_CID>  (1) 
11742

>  <PUBCHEM_CONFORMER_RMSD>  (1) 
0.6

>  <PUBCHEM_CONFORMER_DIVERSEORDER>  (1) 
1
2
3
4

>  <PUBCHEM_MMFF94_PARTIAL_CHARGES>  (1) 
24
1 -0.53
10 -0.15
11 -0.15
12 -0.15
13 -0.15
14 -0.15
15 0.08
16 -0.15
2 0.29
23 0.15
24 0.15
25 0.15
26 0.15
27 0.15
28 0.15
29 0.15
3 -0.14
30 0.15
31 0.15
32 0.45
4 -0.14
7 -0.15
8 -0.15
9 -0.15

>  <PUBCHEM_EFFECTIVE_ROTOR_COUNT>  (1) 
2

>  <PUBCHEM_PHARMACOPHORE_FEATURES>  (1) 
4
1 1 donor
3 2 5 6 hydrophobe
6 3 7 8 11 12 15 rings
6 4 9 10 13 14 16 rings

>  <PUBCHEM_HEAVY_ATOM_COUNT>  (1) 
16

>  <PUBCHEM_ATOM_DEF_STEREO_COUNT>  (1) 
0

>  <PUBCHEM_ATOM_UDEF_STEREO_COUNT>  (1) 
0

>  <PUBCHEM_BOND_DEF_STEREO_COUNT>  (1) 
0

>  <PUBCHEM_BOND_UDEF_STEREO_COUNT>  (1) 
0

>  <PUBCHEM_ISOTOPIC_ATOM_COUNT>  (1) 
0

>  <PUBCHEM_COMPONENT_COUNT>  (1) 
1

>  <PUBCHEM_CACTVS_TAUTO_COUNT>  (1) 
2

>  <PUBCHEM_CONFORMER_ID>  (1) 
00002DDE00000001

>  <PUBCHEM_MMFF94_ENERGY>  (1) 
62.0196

>  <PUBCHEM_FEATURE_SELFOVERLAP>  (1) 
20.297

>  <PUBCHEM_SHAPE_FINGERPRINT>  (1) 
10618630 7 18412825780786454094
11046707 91 18342174453519967478
11471102 22 14189303655121364642
11578080 2 18339062870095289521
11769659 78 18408603651951388772
12251169 10 15697997461395533727
12346177 29 17561075917702664655
12553582 1 18334007294018100675
12633257 1 15985106344367026227
12892183 10 15410906149336489063
13296908 3 18411691110551085709
13299463 15 16081370743325277233
13571099 52 10951785079029653529
13705890 14 17240199962911016950
14787075 74 18266731554060246192
15309172 13 12103851154620432453
15375462 189 18411987995796406737
15534591 1 9583507724858327708
15653759 3 16200157603129466875
15906896 17 17899128313598701101
16752209 62 18339631236286320397
16945 1 17896040012699987373
17804303 29 17346327019899562143
17844478 74 16630527297970417080
1813 80 18337126612732133189
18186145 218 15502094167560558437
19422 9 18410303531240176587
200 152 17676489432339695890
20291156 8 18410012151937285415
20361792 2 18336820987433865693
20671657 53 17676483934818493390
21296965 67 18410570708355421277
21713013 43 17023184980713447299
21731516 1 18411693318237953519
22112679 90 18339099110849458912
22646028 28 18409728465126380774
232386 152 18130510833184780343
23402539 116 18187082824185223602
23559900 14 18198608961871989970
3323516 105 17168713062610327667
4028521 119 12324237278266803343
449060 23 18411986840613968182
465052 167 18266190607324963331
568465 68 16056880251651675542
7364860 26 17485928845871865049
77492 1 18338251430381264597
83771 10 18410857676399864843
90316 7 18131360674053303345

>  <PUBCHEM_SHAPE_MULTIPOLES>  (1) 
323.4
6.58
1.92
1.36
1.78
0.83
0
-4.58
0.12
-0.35
-0.09
-0.22
0.18
-0.68

>  <PUBCHEM_SHAPE_SELFOVERLAP>  (1) 
697.62

>  <PUBCHEM_SHAPE_VOLUME>  (1) 
179.2

>  <PUBCHEM_COORDINATE_TYPE>  (1) 
2
5
10

$$$$
