11759
     RDKit          3D

 11 11  0  0  0  0  0  0  0  0999 V2000
    0.3554   -2.7359    0.0006 Cl  0  0  0  0  0  0  0  0  0  0  0  0
    0.3551    2.7361    0.0015 Cl  0  0  0  0  0  0  0  0  0  0  0  0
    2.2699   -1.0975   -0.0009 O   0  0  0  0  0  0  0  0  0  0  0  0
    2.2696    1.0977   -0.0008 O   0  0  0  0  0  0  0  0  0  0  0  0
    1.6690    0.0001   -0.0002 N   0  0  0  0  0  0  0  0  0  0  0  0
    0.2418   -0.0002    0.0007 C   0  0  0  0  0  0  0  0  0  0  0  0
   -0.4558   -1.2081    0.0009 C   0  0  0  0  0  0  0  0  0  0  0  0
   -0.4556    1.2079   -0.0002 C   0  0  0  0  0  0  0  0  0  0  0  0
   -1.8508   -1.2079    0.0002 C   0  0  0  0  0  0  0  0  0  0  0  0
   -1.8505    1.2079   -0.0010 C   0  0  0  0  0  0  0  0  0  0  0  0
   -2.5481    0.0000   -0.0008 C   0  0  0  0  0  0  0  0  0  0  0  0
  1  7  1  0
  2  8  1  0
  3  5  1  0
  4  5  2  0
  5  6  1  0
  6  7  2  0
  6  8  1  0
  7  9  1  0
  8 10  2  0
  9 11  2  0
 10 11  1  0
M  CHG  2   3  -1   5   1
M  END
>  <PUBCHEM_COMPOUND_CID>  (1) 
11759

>  <PUBCHEM_CONFORMER_RMSD>  (1) 
0.4

>  <PUBCHEM_CONFORMER_DIVERSEORDER>  (1) 
1

>  <PUBCHEM_MMFF94_PARTIAL_CHARGES>  (1) 
14
1 -0.18
10 -0.15
11 -0.15
12 0.15
13 0.15
14 0.15
2 -0.18
3 -0.52
4 -0.52
5 0.91
6 0.13
7 0.18
8 0.18
9 -0.15

>  <PUBCHEM_EFFECTIVE_ROTOR_COUNT>  (1) 
1

>  <PUBCHEM_PHARMACOPHORE_FEATURES>  (1) 
4
1 3 acceptor
1 3 anion
1 4 acceptor
6 6 7 8 9 10 11 rings

>  <PUBCHEM_HEAVY_ATOM_COUNT>  (1) 
11

>  <PUBCHEM_ATOM_DEF_STEREO_COUNT>  (1) 
0

>  <PUBCHEM_ATOM_UDEF_STEREO_COUNT>  (1) 
0

>  <PUBCHEM_BOND_DEF_STEREO_COUNT>  (1) 
0

>  <PUBCHEM_BOND_UDEF_STEREO_COUNT>  (1) 
0

>  <PUBCHEM_ISOTOPIC_ATOM_COUNT>  (1) 
0

>  <PUBCHEM_COMPONENT_COUNT>  (1) 
1

>  <PUBCHEM_CACTVS_TAUTO_COUNT>  (1) 
1

>  <PUBCHEM_CONFORMER_ID>  (1) 
00002DEF00000001

>  <PUBCHEM_MMFF94_ENERGY>  (1) 
48.2829

>  <PUBCHEM_FEATURE_SELFOVERLAP>  (1) 
20.379

>  <PUBCHEM_SHAPE_FINGERPRINT>  (1) 
12423570 1 7964988628513362087
12524768 44 18341616996750414687
16945 1 18410856559977373701
18185500 45 18410854335057765807
193761 8 17689998933941275781
21040471 1 18338516455580256642
2334 1 18410856594025901702
23552423 10 18263650567111321503
23559900 14 18197795482561898164
241688 4 18338797801744975961
2748010 2 18410855464428403948
5084963 1 18130505245179257058
66348 1 18410856538180783883

>  <PUBCHEM_SHAPE_MULTIPOLES>  (1) 
213.39
2.9
2.85
0.6
0
0.04
0
0.6
0
0
0
0
-0.05
0

>  <PUBCHEM_SHAPE_SELFOVERLAP>  (1) 
434.452

>  <PUBCHEM_SHAPE_VOLUME>  (1) 
125.2

>  <PUBCHEM_COORDINATE_TYPE>  (1) 
2
5
10

$$$$
