11756
     RDKit          3D

  9  8  0  0  0  0  0  0  0  0999 V2000
    2.3864   -0.0492   -0.6872 O   0  0  0  0  0  0  0  0  0  0  0  0
   -2.4060    0.1428   -0.6496 O   0  0  0  0  0  0  0  0  0  0  0  0
    1.2212   -1.4809    0.6285 O   0  0  0  0  0  0  0  0  0  0  0  0
   -1.3683   -1.3872    0.6621 O   0  0  0  0  0  0  0  0  0  0  0  0
   -0.0136    0.1781   -0.6286 C   0  0  0  0  0  0  0  0  0  0  0  0
    0.0388    1.6718   -0.2724 C   0  0  0  0  0  0  0  0  0  0  0  0
    0.2041    1.9120    1.2228 C   0  0  0  0  0  0  0  0  0  0  0  0
    1.2398   -0.5378   -0.1538 C   0  0  0  0  0  0  0  0  0  0  0  0
   -1.3025   -0.4496   -0.1217 C   0  0  0  0  0  0  0  0  0  0  0  0
  1  8  1  0
  2  9  1  0
  3  8  2  0
  4  9  2  0
  5  6  1  0
  5  8  1  0
  5  9  1  0
  6  7  1  0
M  END
>  <PUBCHEM_COMPOUND_CID>  (1) 
11756

>  <PUBCHEM_CONFORMER_RMSD>  (1) 
0.6

>  <PUBCHEM_CONFORMER_DIVERSEORDER>  (1) 
1
6
5
8
3
9
7
4
2

>  <PUBCHEM_MMFF94_PARTIAL_CHARGES>  (1) 
9
1 -0.65
16 0.5
17 0.5
2 -0.65
3 -0.57
4 -0.57
5 0.12
8 0.66
9 0.66

>  <PUBCHEM_EFFECTIVE_ROTOR_COUNT>  (1) 
3

>  <PUBCHEM_PHARMACOPHORE_FEATURES>  (1) 
8
1 1 acceptor
1 2 acceptor
1 3 acceptor
1 4 acceptor
1 5 anion
1 7 hydrophobe
3 1 3 8 anion
3 2 4 9 anion

>  <PUBCHEM_HEAVY_ATOM_COUNT>  (1) 
9

>  <PUBCHEM_ATOM_DEF_STEREO_COUNT>  (1) 
0

>  <PUBCHEM_ATOM_UDEF_STEREO_COUNT>  (1) 
0

>  <PUBCHEM_BOND_DEF_STEREO_COUNT>  (1) 
0

>  <PUBCHEM_BOND_UDEF_STEREO_COUNT>  (1) 
0

>  <PUBCHEM_ISOTOPIC_ATOM_COUNT>  (1) 
0

>  <PUBCHEM_COMPONENT_COUNT>  (1) 
1

>  <PUBCHEM_CACTVS_TAUTO_COUNT>  (1) 
1

>  <PUBCHEM_CONFORMER_ID>  (1) 
00002DEC00000001

>  <PUBCHEM_MMFF94_ENERGY>  (1) 
8.3052

>  <PUBCHEM_FEATURE_SELFOVERLAP>  (1) 
41.22

>  <PUBCHEM_SHAPE_FINGERPRINT>  (1) 
12423570 1 8352403027780922465
18185500 45 18334582304239422574
21040471 1 18113327600962409215
23552333 60 17968657090789684042
29004967 10 18271815652270630630
5084963 1 17334782366687813341

>  <PUBCHEM_SHAPE_MULTIPOLES>  (1) 
161.74
2.34
1.83
0.98
0.23
0.79
-0.14
-0.75
0.48
-0.19
-0.66
-0.03
0.18
0.13

>  <PUBCHEM_SHAPE_SELFOVERLAP>  (1) 
309.731

>  <PUBCHEM_SHAPE_VOLUME>  (1) 
98.4

>  <PUBCHEM_COORDINATE_TYPE>  (1) 
2
5
10

$$$$
