11766
     RDKit          3D

 20 23  0  0  0  0  0  0  0  0999 V2000
    0.1223    0.0002   -0.0001 C   0  0  0  0  0  0  0  0  0  0  0  0
   -0.5663    1.2248   -0.0001 C   0  0  0  0  0  0  0  0  0  0  0  0
   -0.5645   -1.2254    0.0000 C   0  0  0  0  0  0  0  0  0  0  0  0
   -1.9784    1.2238    0.0000 C   0  0  0  0  0  0  0  0  0  0  0  0
   -1.9766   -1.2264    0.0000 C   0  0  0  0  0  0  0  0  0  0  0  0
   -2.6652   -0.0018   -0.0001 C   0  0  0  0  0  0  0  0  0  0  0  0
    1.5847    0.0013   -0.0002 C   0  0  0  0  0  0  0  0  0  0  0  0
    0.1197    2.4508   -0.0002 C   0  0  0  0  0  0  0  0  0  0  0  0
    0.1233   -2.4503    0.0001 C   0  0  0  0  0  0  0  0  0  0  0  0
   -2.6661    2.4487    0.0002 C   0  0  0  0  0  0  0  0  0  0  0  0
   -2.6626   -2.4523   -0.0001 C   0  0  0  0  0  0  0  0  0  0  0  0
    2.2667    0.0018    1.2079 C   0  0  0  0  0  0  0  0  0  0  0  0
    2.2668    0.0011   -1.2082 C   0  0  0  0  0  0  0  0  0  0  0  0
   -0.5785    3.6585   -0.0001 C   0  0  0  0  0  0  0  0  0  0  0  0
   -0.5732   -3.6589    0.0003 C   0  0  0  0  0  0  0  0  0  0  0  0
   -1.9697    3.6575    0.0001 C   0  0  0  0  0  0  0  0  0  0  0  0
   -1.9645   -3.6600    0.0001 C   0  0  0  0  0  0  0  0  0  0  0  0
    3.6614    0.0026    1.2081 C   0  0  0  0  0  0  0  0  0  0  0  0
    3.6617    0.0017   -1.2078 C   0  0  0  0  0  0  0  0  0  0  0  0
    4.3590    0.0024    0.0002 C   0  0  0  0  0  0  0  0  0  0  0  0
  1  2  2  0
  1  3  1  0
  1  7  1  0
  2  4  1  0
  2  8  1  0
  3  5  2  0
  3  9  1  0
  4  6  2  0
  4 10  1  0
  5  6  1  0
  5 11  1  0
  7 12  2  0
  7 13  1  0
  8 14  2  0
  9 15  2  0
 10 16  2  0
 11 17  2  0
 12 18  1  0
 13 19  2  0
 14 16  1  0
 15 17  1  0
 18 20  2  0
 19 20  1  0
M  END
>  <PUBCHEM_COMPOUND_CID>  (1) 
11766

>  <PUBCHEM_CONFORMER_RMSD>  (1) 
0.6

>  <PUBCHEM_CONFORMER_DIVERSEORDER>  (1) 
1

>  <PUBCHEM_MMFF94_PARTIAL_CHARGES>  (1) 
28
10 -0.15
11 -0.15
12 -0.15
13 -0.15
14 -0.15
15 -0.15
16 -0.15
17 -0.15
18 -0.15
19 -0.15
20 -0.15
21 0.15
22 0.15
23 0.15
24 0.15
25 0.15
26 0.15
27 0.15
28 0.15
29 0.15
30 0.15
31 0.15
32 0.15
33 0.15
34 0.15
6 -0.15
8 -0.15
9 -0.15

>  <PUBCHEM_EFFECTIVE_ROTOR_COUNT>  (1) 
1

>  <PUBCHEM_PHARMACOPHORE_FEATURES>  (1) 
4
6 1 2 3 4 5 6 rings
6 2 4 8 10 14 16 rings
6 3 5 9 11 15 17 rings
6 7 12 13 18 19 20 rings

>  <PUBCHEM_HEAVY_ATOM_COUNT>  (1) 
20

>  <PUBCHEM_ATOM_DEF_STEREO_COUNT>  (1) 
0

>  <PUBCHEM_ATOM_UDEF_STEREO_COUNT>  (1) 
0

>  <PUBCHEM_BOND_DEF_STEREO_COUNT>  (1) 
0

>  <PUBCHEM_BOND_UDEF_STEREO_COUNT>  (1) 
0

>  <PUBCHEM_ISOTOPIC_ATOM_COUNT>  (1) 
0

>  <PUBCHEM_COMPONENT_COUNT>  (1) 
1

>  <PUBCHEM_CACTVS_TAUTO_COUNT>  (1) 
1

>  <PUBCHEM_CONFORMER_ID>  (1) 
00002DF600000001

>  <PUBCHEM_MMFF94_ENERGY>  (1) 
76.0288

>  <PUBCHEM_FEATURE_SELFOVERLAP>  (1) 
20.349

>  <PUBCHEM_SHAPE_FINGERPRINT>  (1) 
10165383 225 17909855153123325904
10319926 262 18197754714757782762
10411042 1 18122344854699277314
10967382 1 16681191410688037287
1100329 8 18338519767675236257
11582403 64 16694644154750423440
11640471 11 17604734212832278980
11680986 33 17980751963693076097
11725454 13 16984575526945645674
12173636 292 18266175033077027732
12553582 1 18193846065672540106
12788726 201 18261683683033826466
13083527 12 17043142426521952050
13140716 1 18266744769484393475
13149001 5 17904445805359777703
138480 1 16537076209473942017
13878862 14 16607725337961429201
14022347 108 18193015900007509071
14178342 30 18335967719688616202
14787075 74 17465934270318694320
14790565 3 18338816541247340785
15042514 8 18408889550628818227
16752209 62 18408597067555819783
16945 1 18410575089211234311
18785283 64 17328037468489542217
19591789 44 18051703143911500139
20510252 161 18342740676196420048
20600515 1 18052794108564679859
20905425 154 18270404888647994198
21421861 104 17183911805173210915
21452121 199 17835511996332721498
21524375 3 17912075054061487693
21650355 55 18266163093114904338
22149856 69 17689731762277956113
23184049 29 18121777493692357204
2334 1 17978228593234252289
23366157 5 17323245814047869203
23402539 116 18271232906844759775
23419403 2 17413843729915249257
23557571 272 18272094946031916700
23559900 14 18200036132513154558
2748010 2 18123741217586668965
3071541 12 17258498847011138893
3091708 16 9345800998866438283
350125 39 17834121848700207473
352729 6 18337391526341297725
43471831 8 18121217576239080505
458136 41 17691985768675260697
484985 159 15954613523942805288
6442390 28 18125737694363822009
7364860 26 17259056294953205025
77492 1 17676205775767440644
81228 2 18342462594322851523
84936 182 17550942594633608616
90316 7 18338514260852241562
9709674 26 18272093760510232158
9981440 41 18049153376304562393

>  <PUBCHEM_SHAPE_MULTIPOLES>  (1) 
411.59
5.46
4.79
0.91
6
0.01
0
-0.01
0
-5.31
0
0.87
0
0

>  <PUBCHEM_SHAPE_SELFOVERLAP>  (1) 
942.171

>  <PUBCHEM_SHAPE_VOLUME>  (1) 
195.4

>  <PUBCHEM_COORDINATE_TYPE>  (1) 
2
5
10

$$$$
