11768
     RDKit          3D

 19 21  0  0  0  0  0  0  0  0999 V2000
    2.0406   -2.5053   -0.0010 O   0  0  0  0  0  0  0  0  0  0  0  0
   -0.5311   -2.5611    0.0019 O   0  0  0  0  0  0  0  0  0  0  0  0
   -0.8026    2.7761    0.0010 O   0  0  0  0  0  0  0  0  0  0  0  0
    4.2951   -0.9900   -0.0014 O   0  0  0  0  0  0  0  0  0  0  0  0
    4.1293    1.7684   -0.0005 O   0  0  0  0  0  0  0  0  0  0  0  0
    0.6581   -0.5177    0.0004 C   0  0  0  0  0  0  0  0  0  0  0  0
    0.5796    0.8766    0.0006 C   0  0  0  0  0  0  0  0  0  0  0  0
   -1.8841   -0.6605    0.0003 C   0  0  0  0  0  0  0  0  0  0  0  0
   -1.9624    0.7337   -0.0001 C   0  0  0  0  0  0  0  0  0  0  0  0
   -0.5710   -1.3371    0.0010 C   0  0  0  0  0  0  0  0  0  0  0  0
   -0.7334    1.5532    0.0006 C   0  0  0  0  0  0  0  0  0  0  0  0
    1.9087   -1.1467   -0.0001 C   0  0  0  0  0  0  0  0  0  0  0  0
    1.7521    1.6417    0.0004 C   0  0  0  0  0  0  0  0  0  0  0  0
    3.0745   -0.3804   -0.0002 C   0  0  0  0  0  0  0  0  0  0  0  0
    2.9964    1.0108    0.0001 C   0  0  0  0  0  0  0  0  0  0  0  0
   -3.0565   -1.4258    0.0001 C   0  0  0  0  0  0  0  0  0  0  0  0
   -3.2133    1.3627   -0.0008 C   0  0  0  0  0  0  0  0  0  0  0  0
   -4.3009   -0.7949   -0.0009 C   0  0  0  0  0  0  0  0  0  0  0  0
   -4.3791    0.5963   -0.0014 C   0  0  0  0  0  0  0  0  0  0  0  0
  1 12  1  0
  2 10  2  0
  3 11  2  0
  4 14  1  0
  5 15  1  0
  6  7  2  0
  6 10  1  0
  6 12  1  0
  7 11  1  0
  7 13  1  0
  8  9  2  0
  8 10  1  0
  8 16  1  0
  9 11  1  0
  9 17  1  0
 12 14  2  0
 13 15  2  0
 14 15  1  0
 16 18  2  0
 17 19  2  0
 18 19  1  0
M  END
>  <PUBCHEM_COMPOUND_CID>  (1) 
11768

>  <PUBCHEM_CONFORMER_RMSD>  (1) 
0.4

>  <PUBCHEM_CONFORMER_DIVERSEORDER>  (1) 
1

>  <PUBCHEM_MMFF94_PARTIAL_CHARGES>  (1) 
27
1 -0.53
10 0.4
11 0.4
12 0.08
13 -0.15
14 0.08
15 0.08
16 -0.15
17 -0.15
18 -0.15
19 -0.15
2 -0.57
20 0.15
21 0.15
22 0.15
23 0.15
24 0.15
25 0.45
26 0.45
27 0.45
3 -0.57
4 -0.53
5 -0.53
6 0.09
7 0.09
8 0.09
9 0.09

>  <PUBCHEM_EFFECTIVE_ROTOR_COUNT>  (1) 
0

>  <PUBCHEM_PHARMACOPHORE_FEATURES>  (1) 
8
1 1 donor
1 2 acceptor
1 3 acceptor
1 4 donor
1 5 donor
6 6 7 12 13 14 15 rings
6 6 7 8 9 10 11 rings
6 8 9 16 17 18 19 rings

>  <PUBCHEM_HEAVY_ATOM_COUNT>  (1) 
19

>  <PUBCHEM_ATOM_DEF_STEREO_COUNT>  (1) 
0

>  <PUBCHEM_ATOM_UDEF_STEREO_COUNT>  (1) 
0

>  <PUBCHEM_BOND_DEF_STEREO_COUNT>  (1) 
0

>  <PUBCHEM_BOND_UDEF_STEREO_COUNT>  (1) 
0

>  <PUBCHEM_ISOTOPIC_ATOM_COUNT>  (1) 
0

>  <PUBCHEM_COMPONENT_COUNT>  (1) 
1

>  <PUBCHEM_CACTVS_TAUTO_COUNT>  (1) 
32

>  <PUBCHEM_CONFORMER_ID>  (1) 
00002DF800000001

>  <PUBCHEM_MMFF94_ENERGY>  (1) 
57.3549

>  <PUBCHEM_FEATURE_SELFOVERLAP>  (1) 
40.648

>  <PUBCHEM_SHAPE_FINGERPRINT>  (1) 
10062212 137 18411973663870646699
10411042 1 17834395618385192207
10608611 8 18410008823443145557
10616163 171 18412546474947569487
10967382 1 18410575097558536807
11132069 177 18413100667214605105
11471102 20 18410570703807025620
11578080 2 16880183400279214982
13132413 78 18340488966846060325
13140716 1 18338241453504357355
13221675 6 18410854377796435694
13380535 76 18409729603260955298
13862211 1 18410568479056618882
14790565 3 18193849351333532356
15196674 1 18410856576872451749
15442244 35 18194682557829393722
15536298 74 18342458144794553524
16945 1 18122344571383643559
18186145 218 18410012104782108285
193761 8 17834113048475696261
19591789 44 18410856602737636307
200 152 18131627894254643039
20510252 161 18343585139855214745
20645477 70 18343021077415443583
21029758 11 18342171215642257441
21267235 1 18410865351554311267
21421861 104 17970343719972651427
21501502 16 18339925909217574729
221490 88 18336272322283454778
2334 1 18410855490572728003
23402539 116 18343292678241014271
23463225 33 18409167705722045653
23559900 14 18269550551349593386
238 59 15732024816798622717
2748010 2 18410293614361130815
2871803 45 18408600348921071749
335352 9 18266458698444374165
34934 24 18339636840780733271
350125 39 18337955584892471828
474 4 17314234552039325396
5104073 3 18410575097558563769
537710 114 18410579517285983069
69090 78 18413105086862624527
7364860 26 18341895147865783702
8809292 202 18333173872751859587
9709674 26 18411425002867503742

>  <PUBCHEM_SHAPE_MULTIPOLES>  (1) 
361.66
7.43
2.52
0.59
0.44
0.1
0
-0.24
0
-0.5
0
0.05
-0.01
0

>  <PUBCHEM_SHAPE_SELFOVERLAP>  (1) 
824.297

>  <PUBCHEM_SHAPE_VOLUME>  (1) 
186.3

>  <PUBCHEM_COORDINATE_TYPE>  (1) 
2
5
10

$$$$
