1177
     RDKit          3D

 17 18  0  0  1  0  0  0  0  0999 V2000
   -1.2947   -0.7337   -0.7363 O   0  0  0  0  0  0  0  0  0  0  0  0
   -1.0149    2.6790    0.2337 O   0  0  0  0  0  0  0  0  0  0  0  0
   -3.2625    1.0685    1.6513 O   0  0  0  0  0  0  0  0  0  0  0  0
   -3.4020   -2.6109   -0.7706 O   0  0  0  0  0  0  0  0  0  0  0  0
    1.7983    1.8850   -1.4024 O   0  0  0  0  0  0  0  0  0  0  0  0
    4.6188   -1.0909    0.7033 O   0  0  0  0  0  0  0  0  0  0  0  0
    0.8485    0.0754   -0.2700 N   0  0  0  0  0  0  0  0  0  0  0  0
    3.2013    0.4014   -0.3538 N   0  0  0  0  0  0  0  0  0  0  0  0
   -1.1368    1.2937    0.5010 C   0  0  0  0  0  0  0  0  0  0  0  0
   -2.5826    0.8563    0.4294 C   0  0  0  0  0  0  0  0  0  0  0  0
   -0.4978    0.4533   -0.5934 C   0  0  0  0  0  0  0  0  0  0  0  0
   -2.4308   -0.6254    0.1359 C   0  0  0  0  0  0  0  0  0  0  0  0
   -3.6501   -1.2350   -0.5317 C   0  0  0  0  0  0  0  0  0  0  0  0
    1.9315    0.8627   -0.7263 C   0  0  0  0  0  0  0  0  0  0  0  0
    1.0855   -1.0634    0.4907 C   0  0  0  0  0  0  0  0  0  0  0  0
    2.3014   -1.4904    0.8378 C   0  0  0  0  0  0  0  0  0  0  0  0
    3.4869   -0.7255    0.4013 C   0  0  0  0  0  0  0  0  0  0  0  0
  1 11  1  0
  1 12  1  0
  2  9  1  0
  3 10  1  0
  4 13  1  0
  5 14  2  0
  6 17  2  0
  7 11  1  0
  7 14  1  0
  7 15  1  0
  8 14  1  0
  8 17  1  0
  9 10  1  0
  9 11  1  0
 10 12  1  0
 12 13  1  0
 15 16  2  0
 16 17  1  0
M  END
>  <PUBCHEM_COMPOUND_CID>  (1) 
1177

>  <PUBCHEM_CONFORMER_RMSD>  (1) 
0.6

>  <PUBCHEM_CONFORMER_DIVERSEORDER>  (1) 
1
73
37
94
83
85
32
56
86
96
54
67
64
71
65
84
14
81
57
13
53
46
92
79
43
47
68
97
59
21
93
89
8
31
99
82
100
4
91
77
58
20
10
19
62
40
90
41
72
50
39
33
88
28
69
35
36
70
3
5
98
87
95
26
76
45
42
6
63
75
48
80
55
23
22
16
66
30
78
52
2
29
44
7
25
49
24
61
51
74
9
27
17
60
34
15
38
11
18
12

>  <PUBCHEM_MMFF94_PARTIAL_CHARGES>  (1) 
23
1 -0.56
10 0.28
11 0.58
12 0.28
13 0.28
14 0.69
15 -0.04
16 -0.14
17 0.62
2 -0.68
24 0.4
25 0.4
26 0.15
27 0.4
28 0.37
29 0.15
3 -0.68
4 -0.68
5 -0.57
6 -0.57
7 -0.47
8 -0.49
9 0.28

>  <PUBCHEM_EFFECTIVE_ROTOR_COUNT>  (1) 
3

>  <PUBCHEM_PHARMACOPHORE_FEATURES>  (1) 
12
1 1 acceptor
1 2 acceptor
1 2 donor
1 3 acceptor
1 3 donor
1 4 acceptor
1 4 donor
1 5 acceptor
1 6 acceptor
1 8 donor
5 1 9 10 11 12 rings
6 7 8 14 15 16 17 rings

>  <PUBCHEM_HEAVY_ATOM_COUNT>  (1) 
17

>  <PUBCHEM_ATOM_DEF_STEREO_COUNT>  (1) 
0

>  <PUBCHEM_ATOM_UDEF_STEREO_COUNT>  (1) 
4

>  <PUBCHEM_BOND_DEF_STEREO_COUNT>  (1) 
0

>  <PUBCHEM_BOND_UDEF_STEREO_COUNT>  (1) 
0

>  <PUBCHEM_ISOTOPIC_ATOM_COUNT>  (1) 
0

>  <PUBCHEM_COMPONENT_COUNT>  (1) 
1

>  <PUBCHEM_CACTVS_TAUTO_COUNT>  (1) 
3

>  <PUBCHEM_CONFORMER_ID>  (1) 
0000049900000001

>  <PUBCHEM_MMFF94_ENERGY>  (1) 
42.7165

>  <PUBCHEM_FEATURE_SELFOVERLAP>  (1) 
60.905

>  <PUBCHEM_SHAPE_FINGERPRINT>  (1) 
11132069 177 18202007581813882937
11578080 2 18193247849896028797
11769659 78 18335414681817924806
11806522 49 18335132133510885694
12251169 10 18337678494565511713
13538477 17 18341616996956324781
13764800 53 16701748150779785707
15375462 189 18194691590720779531
15375462 478 18341324535463612918
16945 1 18268718211982568421
17844478 74 15051741892830728163
19422 9 18412267258907372198
19433438 48 18409163277442121178
200 152 18261103084737876503
20645477 70 17386000723523501710
21634736 98 18263364870498465046
21650355 55 18272365361003460841
22112679 90 18343028812946831957
22445834 79 18189620444960134498
2255824 54 18114191881900838684
23388829 49 18334295348963615500
23402539 116 18262225643503197090
23557571 272 17632305557313747172
23598291 2 18335432261187704484
57096353 35 18262244433652418462
6992083 37 18263367979827803956
7097593 13 18194402195407552858
77492 1 18409739477306204013
90316 7 18341055120750411745

>  <PUBCHEM_SHAPE_MULTIPOLES>  (1) 
304.67
6.89
2.18
1.07
2.19
0.22
0.08
-3.11
0.82
-1.13
-0.2
-0.26
0.18
-1.71

>  <PUBCHEM_SHAPE_SELFOVERLAP>  (1) 
640.868

>  <PUBCHEM_SHAPE_VOLUME>  (1) 
171.3

>  <PUBCHEM_COORDINATE_TYPE>  (1) 
2
5
10

$$$$
