11778
     RDKit          3D

 22 24  0  0  0  0  0  0  0  0999 V2000
    0.8783    0.0052    0.1536 N   0  0  0  0  0  0  0  0  0  0  0  0
   -1.4206   -0.3948   -0.3365 N   0  0  0  0  0  0  0  0  0  0  0  0
   -0.7424    1.5073    0.9579 N   0  0  0  0  0  0  0  0  0  0  0  0
    1.2696   -1.3763    0.0297 C   0  0  0  0  0  0  0  0  0  0  0  0
    1.8433    1.0752    0.1012 C   0  0  0  0  0  0  0  0  0  0  0  0
   -0.4953    0.3445    0.2434 C   0  0  0  0  0  0  0  0  0  0  0  0
    2.3801   -1.6898   -0.7269 C   0  0  0  0  0  0  0  0  0  0  0  0
    2.1491    1.6375   -1.1209 C   0  0  0  0  0  0  0  0  0  0  0  0
    0.5207   -2.3412    0.6715 C   0  0  0  0  0  0  0  0  0  0  0  0
    2.4293    1.5015    1.2751 C   0  0  0  0  0  0  0  0  0  0  0  0
    2.7582   -3.0270   -0.8472 C   0  0  0  0  0  0  0  0  0  0  0  0
    3.0831    2.6723   -1.1714 C   0  0  0  0  0  0  0  0  0  0  0  0
    0.8990   -3.6784    0.5513 C   0  0  0  0  0  0  0  0  0  0  0  0
    3.3632    2.5364    1.2245 C   0  0  0  0  0  0  0  0  0  0  0  0
    2.0177   -4.0213   -0.2082 C   0  0  0  0  0  0  0  0  0  0  0  0
    3.6900    3.1217    0.0012 C   0  0  0  0  0  0  0  0  0  0  0  0
   -2.7641   -0.0201   -0.2346 C   0  0  0  0  0  0  0  0  0  0  0  0
   -3.3270    0.8238   -1.1922 C   0  0  0  0  0  0  0  0  0  0  0  0
   -3.5411   -0.4895    0.8245 C   0  0  0  0  0  0  0  0  0  0  0  0
   -4.6667    1.1986   -1.0904 C   0  0  0  0  0  0  0  0  0  0  0  0
   -4.8809   -0.1148    0.9260 C   0  0  0  0  0  0  0  0  0  0  0  0
   -5.4437    0.7292   -0.0316 C   0  0  0  0  0  0  0  0  0  0  0  0
  1  4  1  0
  1  5  1  0
  1  6  1  0
  2  6  2  0
  2 17  1  0
  3  6  1  0
  4  7  2  0
  4  9  1  0
  5  8  2  0
  5 10  1  0
  7 11  1  0
  8 12  1  0
  9 13  2  0
 10 14  2  0
 11 15  2  0
 12 16  2  0
 13 15  1  0
 14 16  1  0
 17 18  2  0
 17 19  1  0
 18 20  1  0
 19 21  2  0
 20 22  2  0
 21 22  1  0
M  END
>  <PUBCHEM_COMPOUND_CID>  (1) 
11778

>  <PUBCHEM_CONFORMER_RMSD>  (1) 
0.6

>  <PUBCHEM_CONFORMER_DIVERSEORDER>  (1) 
1
4
6
3
2
5
7

>  <PUBCHEM_MMFF94_PARTIAL_CHARGES>  (1) 
39
1 -0.25
10 -0.15
11 -0.15
12 -0.15
13 -0.15
14 -0.15
15 -0.15
16 -0.15
17 0.18
18 -0.15
19 -0.15
2 -0.63
20 -0.15
21 -0.15
22 -0.15
23 0.15
24 0.15
25 0.15
26 0.15
27 0.15
28 0.15
29 0.15
3 -0.85
30 0.15
31 0.15
32 0.15
33 0.4
34 0.4
35 0.15
36 0.15
37 0.15
38 0.15
39 0.15
4 0.1
5 0.1
6 0.55
7 -0.15
8 -0.15
9 -0.15

>  <PUBCHEM_EFFECTIVE_ROTOR_COUNT>  (1) 
4

>  <PUBCHEM_PHARMACOPHORE_FEATURES>  (1) 
5
1 3 donor
4 1 2 3 6 cation
6 17 18 19 20 21 22 rings
6 4 7 9 11 13 15 rings
6 5 8 10 12 14 16 rings

>  <PUBCHEM_HEAVY_ATOM_COUNT>  (1) 
22

>  <PUBCHEM_ATOM_DEF_STEREO_COUNT>  (1) 
0

>  <PUBCHEM_ATOM_UDEF_STEREO_COUNT>  (1) 
0

>  <PUBCHEM_BOND_DEF_STEREO_COUNT>  (1) 
0

>  <PUBCHEM_BOND_UDEF_STEREO_COUNT>  (1) 
0

>  <PUBCHEM_ISOTOPIC_ATOM_COUNT>  (1) 
0

>  <PUBCHEM_COMPONENT_COUNT>  (1) 
1

>  <PUBCHEM_CACTVS_TAUTO_COUNT>  (1) 
2

>  <PUBCHEM_CONFORMER_ID>  (1) 
00002E0200000001

>  <PUBCHEM_MMFF94_ENERGY>  (1) 
98.5916

>  <PUBCHEM_FEATURE_SELFOVERLAP>  (1) 
25.373

>  <PUBCHEM_SHAPE_FINGERPRINT>  (1) 
1100329 8 18412825798483768562
11582403 64 16699739493581708064
12035758 1 18336251398099347514
12293681 160 17917158324303969472
12553582 1 17906181650404625515
12707595 3 18194119608161244199
12730499 353 18337684095682796739
12788726 201 16678085298782136603
12895836 83 17828499281681885692
13140716 1 18410571833605555418
13533116 47 18341616980556891793
13955234 65 18411422786927798651
15502722 9 18410013230089855029
15664445 248 17913222961666098886
17492 54 18116738269627504510
17868525 174 17978792311934663521
17913733 40 18341061825204371683
1813 80 17700138698818750567
18785283 64 18334294271032338650
18915476 22 18337403689936717147
19784866 34 18270676596974295745
20369508 70 18265329500156141903
20600515 1 17051618059381334288
20645477 70 18341607075972248495
20671657 53 18051411773367238215
21049683 271 18190192204382389390
21120745 212 17478627711165298294
22149856 69 18189357774642664507
2255824 54 18341333296970497974
22907989 373 17326327135265706470
23557571 272 17458629995447566045
23559900 14 18261952925917011823
23598288 3 17539973192941896880
283562 15 17693925693939559383
3091708 16 9474728645918642834
312423 11 18059301946560493625
458136 41 18338807804697304465
474 4 18411415137342968449
495365 180 18411415124526560409
57124632 79 18409724075743261064
59755656 215 18411138017932841252
6025842 7 18411697686499359639
6049 1 18041842788464186261
633830 44 17845100729986362009
6442390 28 18194690499213335455
6443956 14 18267581308775591312
6669772 16 18342183310433440638
7364860 26 18342172224542632706
7471813 234 17915732081390979785
7808743 9 17758399960649822388
81228 2 17115506243248816082
81539 233 18409726296056866665
84936 182 18272091595292911392
90316 7 16825309425206152746
9709674 26 18261112942268277491
9841814 1 18189893106601118242

>  <PUBCHEM_SHAPE_MULTIPOLES>  (1) 
437.81
8.96
4.52
1.21
13.96
3.79
-0.02
-5.31
-0.49
-7.48
-0.14
-0.11
-0.46
1.03

>  <PUBCHEM_SHAPE_SELFOVERLAP>  (1) 
955.034

>  <PUBCHEM_SHAPE_VOLUME>  (1) 
232.6

>  <PUBCHEM_COORDINATE_TYPE>  (1) 
2
5
10

$$$$
