11786
     RDKit          3D

 31 34  0  0  1  0  0  0  0  0999 V2000
    6.7418    0.6462   -0.9475 O   0  0  0  0  0  0  0  0  0  0  0  0
    7.0856    2.3543    0.5694 O   0  0  0  0  0  0  0  0  0  0  0  0
   -1.7327   -1.2024    0.1472 C   0  0  0  0  0  0  0  0  0  0  0  0
   -0.9430   -0.2403    1.0568 C   0  0  0  0  0  0  0  0  0  0  0  0
    0.5678   -0.4937    1.0398 C   0  0  0  0  0  0  0  0  0  0  0  0
    1.0996   -0.3675   -0.4175 C   0  0  0  0  0  0  0  0  0  0  0  0
   -3.1685   -0.7118    0.4546 C   0  0  0  0  0  0  0  0  0  0  0  0
   -1.2657   -0.9611   -1.2951 C   0  0  0  0  0  0  0  0  0  0  0  0
    2.6519   -0.6592   -0.4944 C   0  0  0  0  0  0  0  0  0  0  0  0
   -1.6851   -0.3087    2.3881 C   0  0  0  0  0  0  0  0  0  0  0  0
    0.2512   -1.1746   -1.4387 C   0  0  0  0  0  0  0  0  0  0  0  0
   -3.1603   -0.4922    1.9859 C   0  0  0  0  0  0  0  0  0  0  0  0
    1.2964    0.5004    1.9564 C   0  0  0  0  0  0  0  0  0  0  0  0
   -4.3081   -1.6077   -0.0090 C   0  0  0  0  0  0  0  0  0  0  0  0
   -1.5631   -2.6979    0.5132 C   0  0  0  0  0  0  0  0  0  0  0  0
    3.3971    0.0465    0.6473 C   0  0  0  0  0  0  0  0  0  0  0  0
    3.1823   -0.1228   -1.8576 C   0  0  0  0  0  0  0  0  0  0  0  0
    2.7709    0.5654    1.7178 C   0  0  0  0  0  0  0  0  0  0  0  0
    2.9455   -2.1753   -0.3912 C   0  0  0  0  0  0  0  0  0  0  0  0
    4.9000    0.1529    0.5285 C   0  0  0  0  0  0  0  0  0  0  0  0
    4.7057   -0.0851   -1.9698 C   0  0  0  0  0  0  0  0  0  0  0  0
   -5.6984   -1.0260    0.3229 C   0  0  0  0  0  0  0  0  0  0  0  0
    5.3244    0.7118   -0.8268 C   0  0  0  0  0  0  0  0  0  0  0  0
   -4.2082   -1.8448   -1.5212 C   0  0  0  0  0  0  0  0  0  0  0  0
   -5.9962    0.3694   -0.2417 C   0  0  0  0  0  0  0  0  0  0  0  0
   -7.3602    0.9224    0.1837 C   0  0  0  0  0  0  0  0  0  0  0  0
   -7.6883    2.2924   -0.4412 C   0  0  0  0  0  0  0  0  0  0  0  0
    7.4497    1.3369   -0.0045 C   0  0  0  0  0  0  0  0  0  0  0  0
   -7.6519    2.2645   -1.9700 C   0  0  0  0  0  0  0  0  0  0  0  0
   -6.7057    3.3462    0.0768 C   0  0  0  0  0  0  0  0  0  0  0  0
    8.7655    0.6617    0.2379 C   0  0  0  0  0  0  0  0  0  0  0  0
  1 23  1  0
  1 28  1  0
  2 28  2  0
  3  4  1  0
  3  7  1  0
  3  8  1  0
  3 15  1  0
  4  5  1  0
  4 10  1  0
  5  6  1  0
  5 13  1  0
  6  9  1  0
  6 11  1  0
  7 12  1  0
  7 14  1  0
  8 11  1  0
  9 16  1  0
  9 17  1  0
  9 19  1  0
 10 12  1  0
 13 18  1  0
 14 22  1  0
 14 24  1  0
 16 18  2  0
 16 20  1  0
 17 21  1  0
 20 23  1  0
 21 23  1  0
 22 25  1  0
 25 26  1  0
 26 27  1  0
 27 29  1  0
 27 30  1  0
 28 31  1  0
M  END
>  <PUBCHEM_COMPOUND_CID>  (1) 
11786

>  <PUBCHEM_CONFORMER_RMSD>  (1) 
1

>  <PUBCHEM_CONFORMER_DIVERSEORDER>  (1) 
8
68
57
100
112
66
59
6
85
90
97
33
22
95
18
64
81
56
93
96
42
122
105
83
94
77
80
73
89
12
111
28
98
121
76
9
72
58
87
26
67
2
40
117
13
43
47
44
101
71
65
120
79
107
5
88
70
15
27
119
52
74
116
25
109
104
99
92
55
1
17
82
78
35
63
102
91
113
61
46
39
106
34
29
114
20
16
37
108
19
49
51
103
30
69
45
7
32
50
10
53
115
21
84
31
14
41
123
36
24
60
11
86
110
23
38
3
48
75
4
54
62
118

>  <PUBCHEM_MMFF94_PARTIAL_CHARGES>  (1) 
11
1 -0.43
13 0.14
16 -0.28
18 -0.29
2 -0.57
20 0.14
23 0.28
28 0.66
31 0.06
52 0.15
9 0.14

>  <PUBCHEM_EFFECTIVE_ROTOR_COUNT>  (1) 
9

>  <PUBCHEM_PHARMACOPHORE_FEATURES>  (1) 
8
1 2 acceptor
1 24 hydrophobe
3 27 29 30 hydrophobe
5 14 22 25 26 27 hydrophobe
5 3 4 7 10 12 rings
6 3 4 5 6 8 11 rings
6 5 6 9 13 16 18 rings
6 9 16 17 20 21 23 rings

>  <PUBCHEM_HEAVY_ATOM_COUNT>  (1) 
31

>  <PUBCHEM_ATOM_DEF_STEREO_COUNT>  (1) 
4

>  <PUBCHEM_ATOM_UDEF_STEREO_COUNT>  (1) 
4

>  <PUBCHEM_BOND_DEF_STEREO_COUNT>  (1) 
0

>  <PUBCHEM_BOND_UDEF_STEREO_COUNT>  (1) 
0

>  <PUBCHEM_ISOTOPIC_ATOM_COUNT>  (1) 
0

>  <PUBCHEM_COMPONENT_COUNT>  (1) 
1

>  <PUBCHEM_CACTVS_TAUTO_COUNT>  (1) 
1

>  <PUBCHEM_CONFORMER_ID>  (1) 
00002E0A00000008

>  <PUBCHEM_MMFF94_ENERGY>  (1) 
90.6064

>  <PUBCHEM_FEATURE_SELFOVERLAP>  (1) 
40.696

>  <PUBCHEM_SHAPE_FINGERPRINT>  (1) 
10 15 13334739054665078262
10190206 1 17775006735594552769
10906281 52 16950861257310865775
11135609 187 18342458144610632467
11135926 11 16773805805105952983
11181472 205 18261678087129270116
11315181 36 17489033763740083978
11456790 92 16660363692847289276
11475781 23 18411706452168811015
11497681 19 12679465278623059053
11578821 258 18043817700733584708
11646440 116 14851605483586832854
12011746 2 17274829072895677162
12035758 1 13840271368907813339
12664476 115 18272090513973645441
12717326 120 9439104503301783289
12838862 33 16845565423356103098
13668630 136 10663827368787180916
13690498 29 17560227168152579023
13782708 43 10303813172792855261
13911987 19 17132115728286449575
13914758 101 18335141994718718146
14028597 1 16588016888174420761
14068700 675 12751239203262047675
14415361 349 13901914427267922844
14931854 50 17489877024586320278
15131766 46 17835238223420348564
15183329 4 17346317056261068915
15510800 12 11311769631513942797
15604295 49 18339919428645707968
16728433 281 18200317598489585185
16994733 274 18260545632316402473
18681886 176 15913326927013505866
20982279 24 11747486165222152136
21033648 29 18260272940764089663
21150785 3 15410899556756589072
21223535 225 18335415781709829045
21267235 1 16630254721891974802
21424621 283 18187365398815857243
21756936 100 17676206880085940315
21781055 127 16805615707579599742
22122407 14 17822872964628488381
23389318 12 14692565542325289648
23522609 53 14780422009978471407
23559900 14 16773514472678242131
23576562 1 17488447749992007845
335352 9 16630531760831886115
350125 39 16558479672630789058
3633792 109 18341336583084832934
3918712 181 18263638473349346029
392239 28 14707216530596635119
4093350 32 17894627029243481810
4098825 35 18336825303733787510
445580 204 18040718052361956001
44802255 64 18272650148133492095
504579 68 15985103024256806797
5104073 3 13479676609114705357
5385378 56 16298382427094050723
54039377 194 13614229422622564317
57527295 17 18130775781608358519
5937810 71 17988931012330070841
59682541 35 11963391864762075628
6201320 215 18262790766536594668
6691757 9 15647331983194941947

>  <PUBCHEM_SHAPE_MULTIPOLES>  (1) 
626.23
22.81
2.41
1.91
2.5
0.94
0.16
20.27
-5.43
-4.2
-0.41
-0.18
-0.01
1.44

>  <PUBCHEM_SHAPE_SELFOVERLAP>  (1) 
1295.782

>  <PUBCHEM_SHAPE_VOLUME>  (1) 
357.5

>  <PUBCHEM_COORDINATE_TYPE>  (1) 
2
5
10

$$$$
