11800
     RDKit          3D

 16 18  0  0  0  0  0  0  0  0999 V2000
   -0.0003   -3.1509   -0.0003 Cl  0  0  0  0  0  0  0  0  0  0  0  0
    0.0005    3.1510    0.0001 Cl  0  0  0  0  0  0  0  0  0  0  0  0
   -1.2252   -0.7060    0.0001 C   0  0  0  0  0  0  0  0  0  0  0  0
   -1.2251    0.7061    0.0000 C   0  0  0  0  0  0  0  0  0  0  0  0
    1.2250   -0.7061    0.0000 C   0  0  0  0  0  0  0  0  0  0  0  0
    1.2251    0.7060   -0.0001 C   0  0  0  0  0  0  0  0  0  0  0  0
    0.0000   -1.3937    0.0000 C   0  0  0  0  0  0  0  0  0  0  0  0
    0.0000    1.3937   -0.0001 C   0  0  0  0  0  0  0  0  0  0  0  0
   -2.4505   -1.3929    0.0002 C   0  0  0  0  0  0  0  0  0  0  0  0
   -2.4504    1.3930   -0.0001 C   0  0  0  0  0  0  0  0  0  0  0  0
    2.4505   -1.3930    0.0001 C   0  0  0  0  0  0  0  0  0  0  0  0
    2.4505    1.3929   -0.0001 C   0  0  0  0  0  0  0  0  0  0  0  0
   -3.6587   -0.6955    0.0001 C   0  0  0  0  0  0  0  0  0  0  0  0
   -3.6587    0.6957   -0.0001 C   0  0  0  0  0  0  0  0  0  0  0  0
    3.6586   -0.6958    0.0001 C   0  0  0  0  0  0  0  0  0  0  0  0
    3.6587    0.6954    0.0001 C   0  0  0  0  0  0  0  0  0  0  0  0
  1  7  1  0
  2  8  1  0
  3  4  1  0
  3  7  2  0
  3  9  1  0
  4  8  2  0
  4 10  1  0
  5  6  2  0
  5  7  1  0
  5 11  1  0
  6  8  1  0
  6 12  1  0
  9 13  2  0
 10 14  2  0
 11 15  2  0
 12 16  2  0
 13 14  1  0
 15 16  1  0
M  END
>  <PUBCHEM_COMPOUND_CID>  (1) 
11800

>  <PUBCHEM_CONFORMER_RMSD>  (1) 
0.4

>  <PUBCHEM_CONFORMER_DIVERSEORDER>  (1) 
1

>  <PUBCHEM_MMFF94_PARTIAL_CHARGES>  (1) 
20
1 -0.18
10 -0.15
11 -0.15
12 -0.15
13 -0.15
14 -0.15
15 -0.15
16 -0.15
17 0.15
18 0.15
19 0.15
2 -0.18
20 0.15
21 0.15
22 0.15
23 0.15
24 0.15
7 0.18
8 0.18
9 -0.15

>  <PUBCHEM_EFFECTIVE_ROTOR_COUNT>  (1) 
0

>  <PUBCHEM_PHARMACOPHORE_FEATURES>  (1) 
3
6 3 4 5 6 7 8 rings
6 3 4 9 10 13 14 rings
6 5 6 11 12 15 16 rings

>  <PUBCHEM_HEAVY_ATOM_COUNT>  (1) 
16

>  <PUBCHEM_ATOM_DEF_STEREO_COUNT>  (1) 
0

>  <PUBCHEM_ATOM_UDEF_STEREO_COUNT>  (1) 
0

>  <PUBCHEM_BOND_DEF_STEREO_COUNT>  (1) 
0

>  <PUBCHEM_BOND_UDEF_STEREO_COUNT>  (1) 
0

>  <PUBCHEM_ISOTOPIC_ATOM_COUNT>  (1) 
0

>  <PUBCHEM_COMPONENT_COUNT>  (1) 
1

>  <PUBCHEM_CACTVS_TAUTO_COUNT>  (1) 
1

>  <PUBCHEM_CONFORMER_ID>  (1) 
00002E1800000001

>  <PUBCHEM_MMFF94_ENERGY>  (1) 
60.1926

>  <PUBCHEM_FEATURE_SELFOVERLAP>  (1) 
15.274

>  <PUBCHEM_SHAPE_FINGERPRINT>  (1) 
10608611 8 18410852165888609540
108231 29 18271526484838895904
10967382 1 18410575093284798438
11132069 177 18411975853971411592
11471102 20 18410569565925548317
11680986 33 17978508959666484041
11806522 49 18339637962210510703
12032990 46 18410580582221302247
12382932 28 18411700967400693017
13132413 78 18412546534913841301
13140716 1 18410855417178489272
13221675 6 18410573989451823106
13380535 76 18410573989446860163
14144814 61 18410856572524691610
14178342 30 17834666111683512528
14325111 11 18410856563945390816
14614273 12 18188485753513901293
14790565 3 18338533987595522308
15196674 1 18410573985151451137
15309172 13 18411708689984123283
15442244 35 18122061996900859378
15536298 74 18343302569956729094
16945 1 18411418401491648514
18186145 218 18412267203120062332
193761 8 17689997834318774287
19591789 44 18410857663447021250
200 152 18131340930620919229
20510252 161 18271806791874684960
20511035 2 17769936002066273676
20645476 183 17897182396923395134
20905425 154 17981326694504660574
21029758 11 18341887524262013905
21267235 1 18410583885051425702
21501502 16 18410856542459926888
21634736 98 17840289340323114383
2334 1 18410575119022817287
23402539 116 18271516563764940574
23419403 2 16042163399955910597
23463225 33 18408603647587875700
23559900 14 18343021069769539886
2748010 2 18410575088958046311
335352 9 17978510836498432438
34934 24 18410846664035139584
43471831 8 18335699373725595042
5104073 3 18410575084663079912
528886 8 18411132528473740682
537710 114 18408891753888921300
53812653 166 18342735251736991256
54173680 148 18048880989436581306
589210 1 17690280829713914281
69090 78 18341889722952856215
7364860 26 18124877858753622943
8809292 202 18261116283051155443
9709674 26 18340492256722651558

>  <PUBCHEM_SHAPE_MULTIPOLES>  (1) 
333.01
5.79
2.92
0.62
0
0
0
0
0
0
0
0
0
0

>  <PUBCHEM_SHAPE_SELFOVERLAP>  (1) 
733.981

>  <PUBCHEM_SHAPE_VOLUME>  (1) 
170.8

>  <PUBCHEM_COORDINATE_TYPE>  (1) 
2
5
10

$$$$
