11808
     RDKit          3D

 14 15  0  0  0  0  0  0  0  0999 V2000
    4.5113    0.0808   -0.0002 Br  0  0  0  0  0  0  0  0  0  0  0  0
   -0.7198    2.7233   -0.0012 O   0  0  0  0  0  0  0  0  0  0  0  0
   -2.8647   -1.4538   -0.0018 O   0  0  0  0  0  0  0  0  0  0  0  0
   -0.5380   -1.4115    0.0002 N   0  0  0  0  0  0  0  0  0  0  0  0
   -1.8208    0.6430    0.0005 N   0  0  0  0  0  0  0  0  0  0  0  0
    1.8286    1.1708    0.0002 N   0  0  0  0  0  0  0  0  0  0  0  0
    1.8975   -1.0575    0.0002 N   0  0  0  0  0  0  0  0  0  0  0  0
    0.6009   -0.6179   -0.0002 C   0  0  0  0  0  0  0  0  0  0  0  0
    0.5301    0.7485   -0.0004 C   0  0  0  0  0  0  0  0  0  0  0  0
   -0.6854    1.4962    0.0001 C   0  0  0  0  0  0  0  0  0  0  0  0
   -1.8161   -0.7987   -0.0001 C   0  0  0  0  0  0  0  0  0  0  0  0
   -0.4109   -2.8634    0.0006 C   0  0  0  0  0  0  0  0  0  0  0  0
   -3.1271    1.2927    0.0016 C   0  0  0  0  0  0  0  0  0  0  0  0
    2.6144    0.0474    0.0004 C   0  0  0  0  0  0  0  0  0  0  0  0
  1 14  1  0
  2 10  2  0
  3 11  2  0
  4  8  1  0
  4 11  1  0
  4 12  1  0
  5 10  1  0
  5 11  1  0
  5 13  1  0
  6  9  1  0
  6 14  1  0
  7  8  1  0
  7 14  2  0
  8  9  2  0
  9 10  1  0
M  END
>  <PUBCHEM_COMPOUND_CID>  (1) 
11808

>  <PUBCHEM_CONFORMER_RMSD>  (1) 
0.4

>  <PUBCHEM_CONFORMER_DIVERSEORDER>  (1) 
1

>  <PUBCHEM_MMFF94_PARTIAL_CHARGES>  (1) 
15
1 -0.06
10 0.71
11 0.69
12 0.3
13 0.3
14 0.24
15 0.27
2 -0.57
3 -0.57
4 -0.42
5 -0.42
6 0.03
7 -0.57
8 0.29
9 -0.24

>  <PUBCHEM_EFFECTIVE_ROTOR_COUNT>  (1) 
0

>  <PUBCHEM_PHARMACOPHORE_FEATURES>  (1) 
7
1 1 hydrophobe
1 2 acceptor
1 3 acceptor
1 6 donor
3 6 7 14 cation
5 6 7 8 9 14 rings
6 4 5 8 9 10 11 rings

>  <PUBCHEM_HEAVY_ATOM_COUNT>  (1) 
14

>  <PUBCHEM_ATOM_DEF_STEREO_COUNT>  (1) 
0

>  <PUBCHEM_ATOM_UDEF_STEREO_COUNT>  (1) 
0

>  <PUBCHEM_BOND_DEF_STEREO_COUNT>  (1) 
0

>  <PUBCHEM_BOND_UDEF_STEREO_COUNT>  (1) 
0

>  <PUBCHEM_ISOTOPIC_ATOM_COUNT>  (1) 
0

>  <PUBCHEM_COMPONENT_COUNT>  (1) 
1

>  <PUBCHEM_CACTVS_TAUTO_COUNT>  (1) 
3

>  <PUBCHEM_CONFORMER_ID>  (1) 
00002E2000000001

>  <PUBCHEM_MMFF94_ENERGY>  (1) 
19.0929

>  <PUBCHEM_FEATURE_SELFOVERLAP>  (1) 
35.635

>  <PUBCHEM_SHAPE_FINGERPRINT>  (1) 
10967382 1 18266458706891838055
11132069 177 18413387622891475176
12032990 46 18338521957570818202
13380535 76 18341048528112366046
14614273 12 18116710712246999117
15775835 57 18335987467256958032
16945 1 18194402182490716357
17804303 29 18413389843785089144
193761 8 17834114143581625927
20510252 161 18343584032006554672
20645476 183 17895776061453666822
20871998 184 18272934937843493606
21029758 27 18115879661929123781
2334 1 18410855507647115137
23402539 116 18271798072858965463
23402655 69 18197201578414859277
23463225 33 18190175681558811746
23557571 272 18200326540768821692
23559900 14 18343302553467950004
2748010 2 18410856577088671213
43471831 8 18334854961854561770
528886 8 18411131407666656953
53812653 166 18342735191628463696
54173680 148 18193277614140306322
6333449 129 18412542115481768000
7364860 26 17909265776177856502

>  <PUBCHEM_SHAPE_MULTIPOLES>  (1) 
262.39
5.4
2.49
0.59
4.81
0.59
0
-0.68
0
-1.52
0
0.07
0
0

>  <PUBCHEM_SHAPE_SELFOVERLAP>  (1) 
550.149

>  <PUBCHEM_SHAPE_VOLUME>  (1) 
153.5

>  <PUBCHEM_COORDINATE_TYPE>  (1) 
2
5
10

$$$$
