11816
     RDKit          3D

 18 19  0  0  0  0  0  0  0  0999 V2000
   -0.4794    0.5578    2.2966 O   0  0  0  0  0  0  0  0  0  0  0  0
    2.0268   -2.2656   -0.6330 O   0  0  0  0  0  0  0  0  0  0  0  0
    0.7490   -1.8842    1.2434 O   0  0  0  0  0  0  0  0  0  0  0  0
    0.8253    0.9440    0.3942 C   0  0  0  0  0  0  0  0  0  0  0  0
    1.7051   -0.0559    0.0484 C   0  0  0  0  0  0  0  0  0  0  0  0
   -0.4695    0.6027    1.0574 C   0  0  0  0  0  0  0  0  0  0  0  0
   -1.6832    0.3305    0.3042 C   0  0  0  0  0  0  0  0  0  0  0  0
    1.0818    2.2760    0.1544 C   0  0  0  0  0  0  0  0  0  0  0  0
    2.9057    0.2934   -0.5702 C   0  0  0  0  0  0  0  0  0  0  0  0
    2.2824    2.6250   -0.4640 C   0  0  0  0  0  0  0  0  0  0  0  0
    3.1942    1.6338   -0.8262 C   0  0  0  0  0  0  0  0  0  0  0  0
   -1.6653    0.3822   -1.0897 C   0  0  0  0  0  0  0  0  0  0  0  0
   -2.8653    0.0172    0.9753 C   0  0  0  0  0  0  0  0  0  0  0  0
    1.4324   -1.4645    0.3021 C   0  0  0  0  0  0  0  0  0  0  0  0
   -2.8294    0.1209   -1.8124 C   0  0  0  0  0  0  0  0  0  0  0  0
   -4.0293   -0.2443    0.2526 C   0  0  0  0  0  0  0  0  0  0  0  0
   -4.0113   -0.1924   -1.1413 C   0  0  0  0  0  0  0  0  0  0  0  0
    1.8302   -3.6766   -0.4916 C   0  0  0  0  0  0  0  0  0  0  0  0
  1  6  2  0
  2 14  1  0
  2 18  1  0
  3 14  2  0
  4  5  2  0
  4  6  1  0
  4  8  1  0
  5  9  1  0
  5 14  1  0
  6  7  1  0
  7 12  2  0
  7 13  1  0
  8 10  2  0
  9 11  2  0
 10 11  1  0
 12 15  1  0
 13 16  2  0
 15 17  2  0
 16 17  1  0
M  END
>  <PUBCHEM_COMPOUND_CID>  (1) 
11816

>  <PUBCHEM_CONFORMER_RMSD>  (1) 
0.6

>  <PUBCHEM_CONFORMER_DIVERSEORDER>  (1) 
1
2
5
6
3
4

>  <PUBCHEM_MMFF94_PARTIAL_CHARGES>  (1) 
27
1 -0.57
10 -0.15
11 -0.15
12 -0.15
13 -0.15
14 0.63
15 -0.15
16 -0.15
17 -0.15
18 0.28
19 0.15
2 -0.43
20 0.15
21 0.15
22 0.15
23 0.15
24 0.15
25 0.15
26 0.15
27 0.15
3 -0.57
4 0.09
5 0.09
6 0.4
7 0.09
8 -0.15
9 -0.15

>  <PUBCHEM_EFFECTIVE_ROTOR_COUNT>  (1) 
4

>  <PUBCHEM_PHARMACOPHORE_FEATURES>  (1) 
4
1 1 acceptor
1 3 acceptor
6 4 5 8 9 10 11 rings
6 7 12 13 15 16 17 rings

>  <PUBCHEM_HEAVY_ATOM_COUNT>  (1) 
18

>  <PUBCHEM_ATOM_DEF_STEREO_COUNT>  (1) 
0

>  <PUBCHEM_ATOM_UDEF_STEREO_COUNT>  (1) 
0

>  <PUBCHEM_BOND_DEF_STEREO_COUNT>  (1) 
0

>  <PUBCHEM_BOND_UDEF_STEREO_COUNT>  (1) 
0

>  <PUBCHEM_ISOTOPIC_ATOM_COUNT>  (1) 
0

>  <PUBCHEM_COMPONENT_COUNT>  (1) 
1

>  <PUBCHEM_CACTVS_TAUTO_COUNT>  (1) 
1

>  <PUBCHEM_CONFORMER_ID>  (1) 
00002E2800000001

>  <PUBCHEM_MMFF94_ENERGY>  (1) 
63.9724

>  <PUBCHEM_FEATURE_SELFOVERLAP>  (1) 
20.299

>  <PUBCHEM_SHAPE_FINGERPRINT>  (1) 
107287 299 18187080693549122469
116883 192 17977936887187007205
12553582 1 17905619799810019930
12730499 353 18114183073065254769
13009979 54 17559402348603401210
13083527 12 18120635960806625746
14817 1 15480977883561280480
15375462 189 17775005687163102195
15502722 9 18408321090179283783
15852999 172 18187931750003620864
16752209 62 16702025236716943241
16945 1 18341893017097696784
1813 80 17841725014567053758
18186145 218 18267871755527903436
19786989 88 18261387905578402725
20344682 1 17750520748317685757
20361792 2 18125435311280507855
20645477 70 18336255782918208071
20671657 53 18119523232857688842
21421566 26 17048546024014855990
21452121 199 18120358874927723946
21524375 3 18044374057277949320
21639500 275 18336827592882881892
21947302 44 17967525774755176728
22112679 90 17559970830537594456
2255824 54 18341610468511186884
22802520 49 17968933081188551693
23114952 82 18187083905968233077
232386 152 16845278441492769247
23402539 116 16516237573630661317
23419403 2 17609826059332678698
23598291 2 17913792534252816193
23728640 28 15957797370241009218
238 59 18190434199808556335
25 1 18335707190581644420
2748010 2 17976280228549452448
3060560 45 18336540641944214604
3323516 105 18261117391384592247
404807 14 14207558594140073386
4175511 335 18410011043946311476
77492 1 17846510235220829177
81228 2 17328851107109472528
8272917 22 18340776966188914021

>  <PUBCHEM_SHAPE_MULTIPOLES>  (1) 
352.82
5.96
2.84
1.47
4.92
2.52
0.23
-0.7
-2.07
-3.85
-0.43
0.9
-0.09
-0.14

>  <PUBCHEM_SHAPE_SELFOVERLAP>  (1) 
766.989

>  <PUBCHEM_SHAPE_VOLUME>  (1) 
192.5

>  <PUBCHEM_COORDINATE_TYPE>  (1) 
2
5
10

$$$$
