11810
     RDKit          3D

 13 13  0  0  0  0  0  0  0  0999 V2000
   -1.3262    2.6957   -0.2443 Cl  0  0  0  0  0  0  0  0  0  0  0  0
   -1.3238   -2.6969   -0.2453 Cl  0  0  0  0  0  0  0  0  0  0  0  0
    1.8191   -2.7201    0.0785 Cl  0  0  0  0  0  0  0  0  0  0  0  0
    1.8166    2.7214    0.0777 Cl  0  0  0  0  0  0  0  0  0  0  0  0
    3.3856    0.0013    0.2411 Cl  0  0  0  0  0  0  0  0  0  0  0  0
   -1.1237   -0.0003   -0.2249 C   0  0  0  0  0  0  0  0  0  0  0  0
   -2.6164   -0.0007   -0.3788 C   0  0  0  0  0  0  0  0  0  0  0  0
   -0.4304    1.2079   -0.1534 C   0  0  0  0  0  0  0  0  0  0  0  0
   -0.4297   -1.2082   -0.1531 C   0  0  0  0  0  0  0  0  0  0  0  0
   -3.3373   -0.0009    0.9609 C   0  0  0  0  0  0  0  0  0  0  0  0
    0.9579   -1.2078   -0.0099 C   0  0  0  0  0  0  0  0  0  0  0  0
    0.9570    1.2082   -0.0102 C   0  0  0  0  0  0  0  0  0  0  0  0
    1.6513    0.0005    0.0616 C   0  0  0  0  0  0  0  0  0  0  0  0
  1  8  1  0
  2  9  1  0
  3 11  1  0
  4 12  1  0
  5 13  1  0
  6  7  1  0
  6  8  2  0
  6  9  1  0
  7 10  1  0
  8 12  1  0
  9 11  2  0
 11 13  1  0
 12 13  2  0
M  END
>  <PUBCHEM_COMPOUND_CID>  (1) 
11810

>  <PUBCHEM_CONFORMER_RMSD>  (1) 
0.4

>  <PUBCHEM_CONFORMER_DIVERSEORDER>  (1) 
1

>  <PUBCHEM_MMFF94_PARTIAL_CHARGES>  (1) 
12
1 -0.18
11 0.18
12 0.18
13 0.18
2 -0.18
3 -0.18
4 -0.18
5 -0.18
6 -0.14
7 0.14
8 0.18
9 0.18

>  <PUBCHEM_EFFECTIVE_ROTOR_COUNT>  (1) 
1

>  <PUBCHEM_PHARMACOPHORE_FEATURES>  (1) 
2
1 10 hydrophobe
6 6 8 9 11 12 13 rings

>  <PUBCHEM_HEAVY_ATOM_COUNT>  (1) 
13

>  <PUBCHEM_ATOM_DEF_STEREO_COUNT>  (1) 
0

>  <PUBCHEM_ATOM_UDEF_STEREO_COUNT>  (1) 
0

>  <PUBCHEM_BOND_DEF_STEREO_COUNT>  (1) 
0

>  <PUBCHEM_BOND_UDEF_STEREO_COUNT>  (1) 
0

>  <PUBCHEM_ISOTOPIC_ATOM_COUNT>  (1) 
0

>  <PUBCHEM_COMPONENT_COUNT>  (1) 
1

>  <PUBCHEM_CACTVS_TAUTO_COUNT>  (1) 
1

>  <PUBCHEM_CONFORMER_ID>  (1) 
00002E2200000001

>  <PUBCHEM_MMFF94_ENERGY>  (1) 
34.7961

>  <PUBCHEM_FEATURE_SELFOVERLAP>  (1) 
10.148

>  <PUBCHEM_SHAPE_FINGERPRINT>  (1) 
10967382 1 18410571794749785252
11132069 177 18339633534030442408
11471102 22 18263384563070736347
11680986 33 17906166253041191034
12382932 28 18412262873793235947
12524768 44 18336263534880321007
13140716 1 18266457796532832016
13380535 21 18122072167219911876
14790565 3 18338818765665892716
16945 1 18410569587215709924
193761 8 18410849958370001292
20588541 1 18411140238072113502
21501502 16 18123188175837904454
2334 1 17977943819385048268
23463225 33 18264485268414687384
23526114 1 18122058977390929836
23552423 10 18118959432727096062
23559900 14 17406551408435101558
241688 4 17906452130211667768
2748010 2 18122900919840442814
5255222 1 18411130346730600428
528886 8 18339636853744815002

>  <PUBCHEM_SHAPE_MULTIPOLES>  (1) 
276.88
4.18
3.44
0.73
0.27
0
-0.06
0
-0.79
-0.66
0.23
0.25
0
0

>  <PUBCHEM_SHAPE_SELFOVERLAP>  (1) 
531.594

>  <PUBCHEM_SHAPE_VOLUME>  (1) 
165.5

>  <PUBCHEM_COORDINATE_TYPE>  (1) 
2
5
10

$$$$
