11819
     RDKit          3D

 12 13  0  0  0  0  0  0  0  0999 V2000
   -3.6975   -0.1907   -0.0002 Cl  0  0  0  0  0  0  0  0  0  0  0  0
   -1.4248   -2.1011   -0.0006 O   0  0  0  0  0  0  0  0  0  0  0  0
    0.3235   -0.4528    0.0002 C   0  0  0  0  0  0  0  0  0  0  0  0
    0.7009    0.9112   -0.0001 C   0  0  0  0  0  0  0  0  0  0  0  0
   -1.0402   -0.7881    0.0004 C   0  0  0  0  0  0  0  0  0  0  0  0
   -0.2967    1.8998   -0.0001 C   0  0  0  0  0  0  0  0  0  0  0  0
    1.3210   -1.4414    0.0003 C   0  0  0  0  0  0  0  0  0  0  0  0
    2.0647    1.2464   -0.0002 C   0  0  0  0  0  0  0  0  0  0  0  0
   -2.0179    0.2071    0.0003 C   0  0  0  0  0  0  0  0  0  0  0  0
   -1.6468    1.5485    0.0000 C   0  0  0  0  0  0  0  0  0  0  0  0
    2.6713   -1.0902    0.0001 C   0  0  0  0  0  0  0  0  0  0  0  0
    3.0424    0.2511   -0.0002 C   0  0  0  0  0  0  0  0  0  0  0  0
  1  9  1  0
  2  5  1  0
  3  4  1  0
  3  5  2  0
  3  7  1  0
  4  6  2  0
  4  8  1  0
  5  9  1  0
  6 10  1  0
  7 11  2  0
  8 12  2  0
  9 10  2  0
 11 12  1  0
M  END
>  <PUBCHEM_COMPOUND_CID>  (1) 
11819

>  <PUBCHEM_CONFORMER_RMSD>  (1) 
0.4

>  <PUBCHEM_CONFORMER_DIVERSEORDER>  (1) 
1

>  <PUBCHEM_MMFF94_PARTIAL_CHARGES>  (1) 
17
1 -0.18
10 -0.15
11 -0.15
12 -0.15
13 0.15
14 0.15
15 0.15
16 0.15
17 0.15
18 0.15
19 0.45
2 -0.53
5 0.08
6 -0.15
7 -0.15
8 -0.15
9 0.18

>  <PUBCHEM_EFFECTIVE_ROTOR_COUNT>  (1) 
0

>  <PUBCHEM_PHARMACOPHORE_FEATURES>  (1) 
3
1 2 donor
6 3 4 5 6 9 10 rings
6 3 4 7 8 11 12 rings

>  <PUBCHEM_HEAVY_ATOM_COUNT>  (1) 
12

>  <PUBCHEM_ATOM_DEF_STEREO_COUNT>  (1) 
0

>  <PUBCHEM_ATOM_UDEF_STEREO_COUNT>  (1) 
0

>  <PUBCHEM_BOND_DEF_STEREO_COUNT>  (1) 
0

>  <PUBCHEM_BOND_UDEF_STEREO_COUNT>  (1) 
0

>  <PUBCHEM_ISOTOPIC_ATOM_COUNT>  (1) 
0

>  <PUBCHEM_COMPONENT_COUNT>  (1) 
1

>  <PUBCHEM_CACTVS_TAUTO_COUNT>  (1) 
3

>  <PUBCHEM_CONFORMER_ID>  (1) 
00002E2B00000001

>  <PUBCHEM_MMFF94_ENERGY>  (1) 
36.0901

>  <PUBCHEM_FEATURE_SELFOVERLAP>  (1) 
15.249

>  <PUBCHEM_SHAPE_FINGERPRINT>  (1) 
10967382 1 18410575110464544198
11206711 2 18264490589699903997
11471102 20 18410288112518697637
12032990 46 18409737252813889835
12423570 1 13301003164507530172
12524768 44 18412831269680785918
13380535 76 18411416228312452534
14325111 11 18410856516817035457
16945 1 18410855464555153796
17844478 74 18040442079206417133
193761 8 17690279730371117485
20201158 50 18409729560226749867
20510252 161 18201156546707945976
20588541 1 18411420630627173899
20871998 184 18201440293832937463
21040471 1 18338517413627138400
21501502 16 18339083661983626256
2334 1 17906452477972169122
23402539 116 18342443829684439023
23402655 69 18341322328240981941
23463225 33 18408886217654626796
23552423 10 18261113036234954708
23559900 14 18198909098909441406
2748010 2 17978791534123180284
5084963 1 18129658591150451569
528886 8 18411696629652490106
53812653 166 18200026386414929256
7364860 26 18343585170463180908
8809292 202 18261116300283921578

>  <PUBCHEM_SHAPE_MULTIPOLES>  (1) 
242.95
4.62
1.95
0.61
1.08
0
0
0.53
0
0.07
0
0
-0.02
0

>  <PUBCHEM_SHAPE_SELFOVERLAP>  (1) 
526.395

>  <PUBCHEM_SHAPE_VOLUME>  (1) 
134.2

>  <PUBCHEM_COORDINATE_TYPE>  (1) 
2
5
10

$$$$
