11812
     RDKit          3D

 13 13  0  0  0  0  0  0  0  0999 V2000
    0.0000   -1.8364   -0.0023 O   0  0  0  0  0  0  0  0  0  0  0  0
   -3.4802    0.2194    0.5263 O   0  0  0  0  0  0  0  0  0  0  0  0
    3.4804    0.2192   -0.5250 O   0  0  0  0  0  0  0  0  0  0  0  0
   -2.6663   -1.5899   -0.5831 O   0  0  0  0  0  0  0  0  0  0  0  0
    2.6660   -1.5897    0.5844 O   0  0  0  0  0  0  0  0  0  0  0  0
   -1.2074    0.2258   -0.0365 C   0  0  0  0  0  0  0  0  0  0  0  0
    1.2074    0.2258    0.0364 C   0  0  0  0  0  0  0  0  0  0  0  0
    0.0000   -0.4716    0.0001 C   0  0  0  0  0  0  0  0  0  0  0  0
   -1.2075    1.6207   -0.0369 C   0  0  0  0  0  0  0  0  0  0  0  0
    1.2074    1.6207    0.0362 C   0  0  0  0  0  0  0  0  0  0  0  0
   -0.0001    2.3181   -0.0004 C   0  0  0  0  0  0  0  0  0  0  0  0
   -2.4802   -0.4810   -0.0742 C   0  0  0  0  0  0  0  0  0  0  0  0
    2.4805   -0.4812    0.0750 C   0  0  0  0  0  0  0  0  0  0  0  0
  1  8  1  0
  2 12  1  0
  3 13  1  0
  4 12  2  0
  5 13  2  0
  6  8  2  0
  6  9  1  0
  6 12  1  0
  7  8  1  0
  7 10  2  0
  7 13  1  0
  9 11  2  0
 10 11  1  0
M  END
>  <PUBCHEM_COMPOUND_CID>  (1) 
11812

>  <PUBCHEM_CONFORMER_RMSD>  (1) 
0.6

>  <PUBCHEM_CONFORMER_DIVERSEORDER>  (1) 
1
3
2

>  <PUBCHEM_MMFF94_PARTIAL_CHARGES>  (1) 
19
1 -0.53
10 -0.15
11 -0.15
12 0.63
13 0.63
14 0.15
15 0.15
16 0.15
17 0.45
18 0.5
19 0.5
2 -0.65
3 -0.65
4 -0.57
5 -0.57
6 0.09
7 0.09
8 0.08
9 -0.15

>  <PUBCHEM_EFFECTIVE_ROTOR_COUNT>  (1) 
2

>  <PUBCHEM_PHARMACOPHORE_FEATURES>  (1) 
8
1 1 donor
1 2 acceptor
1 3 acceptor
1 4 acceptor
1 5 acceptor
3 2 4 12 anion
3 3 5 13 anion
6 6 7 8 9 10 11 rings

>  <PUBCHEM_HEAVY_ATOM_COUNT>  (1) 
13

>  <PUBCHEM_ATOM_DEF_STEREO_COUNT>  (1) 
0

>  <PUBCHEM_ATOM_UDEF_STEREO_COUNT>  (1) 
0

>  <PUBCHEM_BOND_DEF_STEREO_COUNT>  (1) 
0

>  <PUBCHEM_BOND_UDEF_STEREO_COUNT>  (1) 
0

>  <PUBCHEM_ISOTOPIC_ATOM_COUNT>  (1) 
0

>  <PUBCHEM_COMPONENT_COUNT>  (1) 
1

>  <PUBCHEM_CACTVS_TAUTO_COUNT>  (1) 
3

>  <PUBCHEM_CONFORMER_ID>  (1) 
00002E2400000001

>  <PUBCHEM_MMFF94_ENERGY>  (1) 
41.6994

>  <PUBCHEM_FEATURE_SELFOVERLAP>  (1) 
40.712

>  <PUBCHEM_SHAPE_FINGERPRINT>  (1) 
11132069 177 18342171146500417378
11206711 2 18335699420853879204
12423570 1 12217313560726949740
14128692 85 18341896341439313653
14993402 34 18341332270488820327
15375462 189 18334297573645892331
161256 15 18339354270772478632
16945 1 18410847763546884293
20645477 70 18125434457115019695
20871998 184 18127967516618499628
2334 1 18195525020159729973
23402539 116 18412818088995769462
23463225 33 18409168774941971054
23552423 10 18192149510777701077
23559900 14 18198898116456057814
241688 4 18410569574294274793
2748010 2 18410281528017717973
5084963 1 18201999953725118465
528886 8 18411979161217483867
63268167 104 18339643463921231025
7364860 26 17984983962210110672

>  <PUBCHEM_SHAPE_MULTIPOLES>  (1) 
238.19
4.52
2.08
0.66
0
0.52
0
-1.52
0
0
0
0
-0.03
-0.35

>  <PUBCHEM_SHAPE_SELFOVERLAP>  (1) 
511.403

>  <PUBCHEM_SHAPE_VOLUME>  (1) 
131

>  <PUBCHEM_COORDINATE_TYPE>  (1) 
2
5
10

$$$$
