11833
     RDKit          3D

 12 13  0  0  0  0  0  0  0  0999 V2000
   -0.8938   -1.4626    0.0000 O   0  0  0  0  0  0  0  0  0  0  0  0
   -3.1747   -1.3016   -0.0002 O   0  0  0  0  0  0  0  0  0  0  0  0
    0.4480    0.5787   -0.0001 C   0  0  0  0  0  0  0  0  0  0  0  0
   -0.7932    1.3646    0.0000 C   0  0  0  0  0  0  0  0  0  0  0  0
    0.3575   -0.8140   -0.0003 C   0  0  0  0  0  0  0  0  0  0  0  0
    1.7291    1.1467    0.0002 C   0  0  0  0  0  0  0  0  0  0  0  0
   -1.9690    0.7210    0.0003 C   0  0  0  0  0  0  0  0  0  0  0  0
    1.4867   -1.6348   -0.0003 C   0  0  0  0  0  0  0  0  0  0  0  0
   -0.7294    2.8641   -0.0004 C   0  0  0  0  0  0  0  0  0  0  0  0
    2.8706    0.3369    0.0003 C   0  0  0  0  0  0  0  0  0  0  0  0
    2.7493   -1.0517    0.0000 C   0  0  0  0  0  0  0  0  0  0  0  0
   -2.0811   -0.7474    0.0005 C   0  0  0  0  0  0  0  0  0  0  0  0
  1  5  1  0
  1 12  1  0
  2 12  2  0
  3  4  1  0
  3  5  2  0
  3  6  1  0
  4  7  2  0
  4  9  1  0
  5  8  1  0
  6 10  2  0
  7 12  1  0
  8 11  2  0
 10 11  1  0
M  END
>  <PUBCHEM_COMPOUND_CID>  (1) 
11833

>  <PUBCHEM_CONFORMER_RMSD>  (1) 
0.4

>  <PUBCHEM_CONFORMER_DIVERSEORDER>  (1) 
1

>  <PUBCHEM_MMFF94_PARTIAL_CHARGES>  (1) 
17
1 -0.23
10 -0.15
11 -0.15
12 0.71
13 0.15
14 0.15
15 0.15
19 0.15
2 -0.57
20 0.15
3 0.03
4 -0.17
5 0.08
6 -0.15
7 -0.14
8 -0.15
9 0.14

>  <PUBCHEM_EFFECTIVE_ROTOR_COUNT>  (1) 
0

>  <PUBCHEM_PHARMACOPHORE_FEATURES>  (1) 
3
1 2 acceptor
6 1 3 4 5 7 12 rings
6 3 5 6 8 10 11 rings

>  <PUBCHEM_HEAVY_ATOM_COUNT>  (1) 
12

>  <PUBCHEM_ATOM_DEF_STEREO_COUNT>  (1) 
0

>  <PUBCHEM_ATOM_UDEF_STEREO_COUNT>  (1) 
0

>  <PUBCHEM_BOND_DEF_STEREO_COUNT>  (1) 
0

>  <PUBCHEM_BOND_UDEF_STEREO_COUNT>  (1) 
0

>  <PUBCHEM_ISOTOPIC_ATOM_COUNT>  (1) 
0

>  <PUBCHEM_COMPONENT_COUNT>  (1) 
1

>  <PUBCHEM_CACTVS_TAUTO_COUNT>  (1) 
1

>  <PUBCHEM_CONFORMER_ID>  (1) 
00002E3900000001

>  <PUBCHEM_MMFF94_ENERGY>  (1) 
37.9293

>  <PUBCHEM_FEATURE_SELFOVERLAP>  (1) 
15.25

>  <PUBCHEM_SHAPE_FINGERPRINT>  (1) 
10967382 1 18194682798273462277
11206711 2 18337394842203776196
12032990 46 18338242655747449467
12423570 1 12110367895861690984
12897270 3 18410572872881522134
13380535 76 17907852908067892605
161256 15 18341893030230518496
16945 1 18194682570761521380
193761 8 18050567335388485607
19973954 147 18339080372133415180
20201158 50 18335416910885073243
20871998 184 18201718410050062759
21040471 1 17906171754899727776
21501502 16 18337957775114432448
2334 1 18410575119186412545
23463225 33 18409450297158053710
23552423 10 18260833674324150838
23559900 14 17550952486861728518
241688 4 18410012126230714057
2748010 2 18411415124521389525
5084963 1 18272933791261162330

>  <PUBCHEM_SHAPE_MULTIPOLES>  (1) 
235.22
3.97
2.34
0.6
0.48
1.08
0
-1.22
0
-0.88
0
0.03
0.03
0

>  <PUBCHEM_SHAPE_SELFOVERLAP>  (1) 
510.522

>  <PUBCHEM_SHAPE_VOLUME>  (1) 
128.8

>  <PUBCHEM_COORDINATE_TYPE>  (1) 
2
5
10

$$$$
