11834
     RDKit          3D

 25 27  0  0  1  0  0  0  0  0999 V2000
   -3.0131    0.2440   -1.2881 O   0  0  0  0  0  0  0  0  0  0  0  0
    1.6306   -0.1844   -0.3976 O   0  0  0  0  0  0  0  0  0  0  0  0
    1.8226    3.5597    1.1975 O   0  0  0  0  0  0  0  0  0  0  0  0
   -4.5264   -1.4441    1.3567 N   0  0  0  0  0  0  0  0  0  0  0  0
   -5.2856   -0.4411   -0.7873 C   0  0  0  0  0  0  0  0  0  0  0  0
   -4.8487   -1.7131   -0.0408 C   0  0  0  0  0  0  0  0  0  0  0  0
   -4.2338    0.6731   -0.6874 C   0  0  0  0  0  0  0  0  0  0  0  0
   -5.5768   -0.7804   -2.2544 C   0  0  0  0  0  0  0  0  0  0  0  0
   -1.8607    0.7797   -0.7998 C   0  0  0  0  0  0  0  0  0  0  0  0
   -4.0682   -2.6641    2.0230 C   0  0  0  0  0  0  0  0  0  0  0  0
   -5.6868   -0.8888    2.0548 C   0  0  0  0  0  0  0  0  0  0  0  0
    0.5005    0.5908   -0.3345 C   0  0  0  0  0  0  0  0  0  0  0  0
    0.4954    1.8783    0.1998 C   0  0  0  0  0  0  0  0  0  0  0  0
   -0.6788    0.0394   -0.8358 C   0  0  0  0  0  0  0  0  0  0  0  0
   -1.8639    2.0686   -0.2644 C   0  0  0  0  0  0  0  0  0  0  0  0
   -0.6858    2.6229    0.2374 C   0  0  0  0  0  0  0  0  0  0  0  0
    2.8162    0.3347    0.0999 C   0  0  0  0  0  0  0  0  0  0  0  0
    1.7533    2.4358    0.7195 C   0  0  0  0  0  0  0  0  0  0  0  0
    2.9400    1.5611    0.6318 C   0  0  0  0  0  0  0  0  0  0  0  0
    3.9693   -0.5796   -0.0224 C   0  0  0  0  0  0  0  0  0  0  0  0
    5.2573   -0.0658   -0.1940 C   0  0  0  0  0  0  0  0  0  0  0  0
    3.7779   -1.9624    0.0329 C   0  0  0  0  0  0  0  0  0  0  0  0
    6.3466   -0.9293   -0.3098 C   0  0  0  0  0  0  0  0  0  0  0  0
    4.8673   -2.8259   -0.0829 C   0  0  0  0  0  0  0  0  0  0  0  0
    6.1516   -2.3092   -0.2542 C   0  0  0  0  0  0  0  0  0  0  0  0
  1  7  1  0
  1  9  1  0
  2 12  1  0
  2 17  1  0
  3 18  2  0
  4  6  1  0
  4 10  1  0
  4 11  1  0
  5  6  1  0
  5  7  1  0
  5  8  1  0
  9 14  2  0
  9 15  1  0
 12 13  2  0
 12 14  1  0
 13 16  1  0
 13 18  1  0
 15 16  2  0
 17 19  2  0
 17 20  1  0
 18 19  1  0
 20 21  2  0
 20 22  1  0
 21 23  1  0
 22 24  2  0
 23 25  2  0
 24 25  1  0
M  END
>  <PUBCHEM_COMPOUND_CID>  (1) 
11834

>  <PUBCHEM_CONFORMER_RMSD>  (1) 
0.8

>  <PUBCHEM_CONFORMER_DIVERSEORDER>  (1) 
1
70
45
48
26
72
66
20
35
53
54
18
15
68
61
56
69
30
36
29
59
34
64
39
37
16
71
23
17
67
65
8
19
5
32
58
52
41
22
47
57
4
3
10
51
25
33
27
46
28
24
60
50
9
12
63
6
38
2
7
11
55
62
40
44
14
21
31
43
13
42
49

>  <PUBCHEM_MMFF94_PARTIAL_CHARGES>  (1) 
32
1 -0.36
10 0.27
11 0.27
12 0.08
13 0.09
14 -0.15
15 -0.15
16 -0.15
17 0.05
18 0.47
19 -0.14
2 -0.16
20 0.03
21 -0.15
22 -0.15
23 -0.15
24 -0.15
25 -0.15
3 -0.57
4 -0.81
40 0.15
41 0.15
42 0.15
43 0.15
44 0.15
45 0.15
46 0.15
47 0.15
48 0.15
6 0.27
7 0.28
9 0.08

>  <PUBCHEM_EFFECTIVE_ROTOR_COUNT>  (1) 
6

>  <PUBCHEM_PHARMACOPHORE_FEATURES>  (1) 
8
1 1 acceptor
1 2 acceptor
1 3 acceptor
1 4 cation
1 8 hydrophobe
6 2 12 13 17 18 19 rings
6 20 21 22 23 24 25 rings
6 9 12 13 14 15 16 rings

>  <PUBCHEM_HEAVY_ATOM_COUNT>  (1) 
25

>  <PUBCHEM_ATOM_DEF_STEREO_COUNT>  (1) 
0

>  <PUBCHEM_ATOM_UDEF_STEREO_COUNT>  (1) 
1

>  <PUBCHEM_BOND_DEF_STEREO_COUNT>  (1) 
0

>  <PUBCHEM_BOND_UDEF_STEREO_COUNT>  (1) 
0

>  <PUBCHEM_ISOTOPIC_ATOM_COUNT>  (1) 
0

>  <PUBCHEM_COMPONENT_COUNT>  (1) 
1

>  <PUBCHEM_CACTVS_TAUTO_COUNT>  (1) 
1

>  <PUBCHEM_CONFORMER_ID>  (1) 
00002E3A00000001

>  <PUBCHEM_MMFF94_ENERGY>  (1) 
79.5336

>  <PUBCHEM_FEATURE_SELFOVERLAP>  (1) 
40.625

>  <PUBCHEM_SHAPE_FINGERPRINT>  (1) 
11135609 99 18115582644448042394
11370993 144 18338241574254078057
11796584 16 17749380477655823675
12107183 9 18059861615306840793
12422481 6 17059785411766378909
12596602 18 16343411899508033315
12633257 1 16774078496420550517
12760667 363 18412825759570041511
12969540 114 11097857414661072935
13103583 49 17846508040798359587
13402501 40 18261117378231360451
13540713 4 18198596913983465568
1361 87 18259987089215860419
13782708 43 18113614586398244626
13911852 28 18200024041405055206
13941219 33 18336559231142738611
13955234 65 18057314201173266584
14211702 104 18193557771095209802
14251751 18 17967823763897269999
14461889 52 18336256912921823122
14767858 380 12540700340314080479
14950920 106 17916318289151868571
15361156 5 18408319986974342349
15475509 84 17845670191342489185
15510800 12 18042123331565499371
15927050 60 17769362061914092924
193927 3 18411423873617665518
20028762 73 17632002135049582047
20281389 69 11024103248417133262
20621476 21 17749401407348267411
21033650 10 16443338737866663237
21267235 1 18201156560457478342
21315764 119 17531803546258164607
21682296 61 18343863299217211343
221490 88 18410571803551255544
2260408 40 16272218457548446972
22950370 63 18271523088078790852
23522609 53 18057348195533705760
23559900 14 18113613521362283069
25025965 108 17912338980087976302
3089732 80 18334297586525915659
314194 84 18343016701080970318
329604 57 18408606929523236206
335352 9 18200022933604628125
3421961 26 18272079531046248736
4073 2 18261110763996944496
465052 167 18059851758177210942
484989 97 18187659028698312778
508706 21 17458902773311285411
5104073 3 18129936764046463400
5486654 36 18341057319799898361
6431902 208 18410294687781669075
7495541 125 18411699906965868084
7918774 8 18410583880962167246
7970288 3 18200301135541842198
8863177 126 18335706103907640915
9862886 166 18040157318506138530
9980921 7 17605293929830393868
999808 66 18408611339874829046

>  <PUBCHEM_SHAPE_MULTIPOLES>  (1) 
491.9
15.79
3.33
1.48
1.17
0.8
0.22
-14.05
-0.79
1.8
1.4
-3.32
-0.57
2.14

>  <PUBCHEM_SHAPE_SELFOVERLAP>  (1) 
1053.326

>  <PUBCHEM_SHAPE_VOLUME>  (1) 
273.4

>  <PUBCHEM_COORDINATE_TYPE>  (1) 
2
5
10

$$$$
