11837
     RDKit          3D

 13 13  0  0  1  0  0  0  0  0999 V2000
    1.7813    0.5372   -1.7460 O   0  0  0  0  0  0  0  0  0  0  0  0
    0.2869    2.0225    0.3162 O   0  0  0  0  0  0  0  0  0  0  0  0
   -4.0234   -0.0087    0.4045 O   0  0  0  0  0  0  0  0  0  0  0  0
    3.8159   -0.1173    0.1462 N   0  0  0  0  0  0  0  0  0  0  0  0
    1.5054   -0.3654   -0.6714 C   0  0  0  0  0  0  0  0  0  0  0  0
    2.4041   -0.0342    0.5414 C   0  0  0  0  0  0  0  0  0  0  0  0
    0.0242   -0.2561   -0.3785 C   0  0  0  0  0  0  0  0  0  0  0  0
    2.1850   -0.9922    1.7139 C   0  0  0  0  0  0  0  0  0  0  0  0
   -0.5011    0.9323    0.0991 C   0  0  0  0  0  0  0  0  0  0  0  0
   -0.7769   -1.3639   -0.5998 C   0  0  0  0  0  0  0  0  0  0  0  0
   -1.8680    1.0161    0.3635 C   0  0  0  0  0  0  0  0  0  0  0  0
   -2.1438   -1.2802   -0.3353 C   0  0  0  0  0  0  0  0  0  0  0  0
   -2.6895   -0.0902    0.1464 C   0  0  0  0  0  0  0  0  0  0  0  0
  1  5  1  0
  2  9  1  0
  3 13  1  0
  4  6  1  0
  5  6  1  0
  5  7  1  0
  6  8  1  0
  7  9  2  0
  7 10  1  0
  9 11  1  0
 10 12  2  0
 11 13  2  0
 12 13  1  0
M  END
>  <PUBCHEM_COMPOUND_CID>  (1) 
11837

>  <PUBCHEM_CONFORMER_RMSD>  (1) 
0.6

>  <PUBCHEM_CONFORMER_DIVERSEORDER>  (1) 
2
13
18
3
9
16
6
7
17
11
15
12
1
4
14
8
10
5

>  <PUBCHEM_MMFF94_PARTIAL_CHARGES>  (1) 
20
1 -0.68
10 -0.15
11 -0.15
12 -0.15
13 0.08
19 0.15
2 -0.53
20 0.36
21 0.36
22 0.15
23 0.4
24 0.15
25 0.45
26 0.45
3 -0.53
4 -0.99
5 0.42
6 0.27
7 -0.14
9 0.08

>  <PUBCHEM_EFFECTIVE_ROTOR_COUNT>  (1) 
2

>  <PUBCHEM_PHARMACOPHORE_FEATURES>  (1) 
7
1 1 acceptor
1 1 donor
1 2 donor
1 3 donor
1 4 cation
1 4 donor
6 7 9 10 11 12 13 rings

>  <PUBCHEM_HEAVY_ATOM_COUNT>  (1) 
13

>  <PUBCHEM_ATOM_DEF_STEREO_COUNT>  (1) 
0

>  <PUBCHEM_ATOM_UDEF_STEREO_COUNT>  (1) 
2

>  <PUBCHEM_BOND_DEF_STEREO_COUNT>  (1) 
0

>  <PUBCHEM_BOND_UDEF_STEREO_COUNT>  (1) 
0

>  <PUBCHEM_ISOTOPIC_ATOM_COUNT>  (1) 
0

>  <PUBCHEM_COMPONENT_COUNT>  (1) 
1

>  <PUBCHEM_CACTVS_TAUTO_COUNT>  (1) 
9

>  <PUBCHEM_CONFORMER_ID>  (1) 
00002E3D00000002

>  <PUBCHEM_MMFF94_ENERGY>  (1) 
28.5583

>  <PUBCHEM_FEATURE_SELFOVERLAP>  (1) 
35.526

>  <PUBCHEM_SHAPE_FINGERPRINT>  (1) 
10130415 120 18334577953680060417
10857977 72 18131064939689762817
12119455 92 16415471619432881956
12423570 1 8815786847446145431
12932764 1 18186791495983661428
13538477 17 18261118529292618903
14993402 34 18413384345731032639
15076042 46 18122049910825848402
15219456 202 17346322540306610510
15310529 11 17386008385998164173
15375462 189 18187640323313489322
15775835 57 18410855447306693650
16945 1 18272097097488375959
18175812 5 17060049384930575974
20645464 45 17346598569059178215
20653091 64 18120648299556219523
21501502 16 17984418804949071061
22445834 79 18115017511690287930
232386 152 18410575127718435526
23402539 116 17917700284609088381
23419403 2 16334347590325955821
23552423 10 17975413830439968677
23728640 28 13854559221367420818
2748010 2 17983310222519086709
369184 2 18334284353752275243
53812653 166 17775287144727880475
77492 1 18113903758066775310

>  <PUBCHEM_SHAPE_MULTIPOLES>  (1) 
244.94
5.12
1.4
1.16
0.29
0.27
-0.01
-0.53
-1.06
0.36
-0.05
-0.87
-0.15
-0.5

>  <PUBCHEM_SHAPE_SELFOVERLAP>  (1) 
506.601

>  <PUBCHEM_SHAPE_VOLUME>  (1) 
140.9

>  <PUBCHEM_COORDINATE_TYPE>  (1) 
2
5
10

$$$$
