11844
     RDKit          3D

  9  9  0  0  0  0  0  0  0  0999 V2000
    0.2857   -2.4492   -0.0013 Cl  0  0  0  0  0  0  0  0  0  0  0  0
    2.7999   -0.4536    0.0007 Cl  0  0  0  0  0  0  0  0  0  0  0  0
   -2.3634   -1.0341    0.0008 N   0  0  0  0  0  0  0  0  0  0  0  0
   -1.2223   -0.1990    0.0002 C   0  0  0  0  0  0  0  0  0  0  0  0
    0.0693   -0.7258    0.0004 C   0  0  0  0  0  0  0  0  0  0  0  0
   -1.4121    1.1829   -0.0003 C   0  0  0  0  0  0  0  0  0  0  0  0
    1.1714    0.1294    0.0002 C   0  0  0  0  0  0  0  0  0  0  0  0
   -0.3101    2.0380   -0.0005 C   0  0  0  0  0  0  0  0  0  0  0  0
    0.9816    1.5114   -0.0002 C   0  0  0  0  0  0  0  0  0  0  0  0
  1  5  1  0
  2  7  1  0
  3  4  1  0
  4  5  2  0
  4  6  1  0
  5  7  1  0
  6  8  2  0
  7  9  2  0
  8  9  1  0
M  END
>  <PUBCHEM_COMPOUND_CID>  (1) 
11844

>  <PUBCHEM_CONFORMER_RMSD>  (1) 
0.4

>  <PUBCHEM_CONFORMER_DIVERSEORDER>  (1) 
1

>  <PUBCHEM_MMFF94_PARTIAL_CHARGES>  (1) 
14
1 -0.18
10 0.15
11 0.15
12 0.15
13 0.4
14 0.4
2 -0.18
3 -0.9
4 0.1
5 0.18
6 -0.15
7 0.18
8 -0.15
9 -0.15

>  <PUBCHEM_EFFECTIVE_ROTOR_COUNT>  (1) 
0

>  <PUBCHEM_PHARMACOPHORE_FEATURES>  (1) 
3
1 3 cation
1 3 donor
6 4 5 6 7 8 9 rings

>  <PUBCHEM_HEAVY_ATOM_COUNT>  (1) 
9

>  <PUBCHEM_ATOM_DEF_STEREO_COUNT>  (1) 
0

>  <PUBCHEM_ATOM_UDEF_STEREO_COUNT>  (1) 
0

>  <PUBCHEM_BOND_DEF_STEREO_COUNT>  (1) 
0

>  <PUBCHEM_BOND_UDEF_STEREO_COUNT>  (1) 
0

>  <PUBCHEM_ISOTOPIC_ATOM_COUNT>  (1) 
0

>  <PUBCHEM_COMPONENT_COUNT>  (1) 
1

>  <PUBCHEM_CACTVS_TAUTO_COUNT>  (1) 
1

>  <PUBCHEM_CONFORMER_ID>  (1) 
00002E4400000001

>  <PUBCHEM_MMFF94_ENERGY>  (1) 
30.773

>  <PUBCHEM_FEATURE_SELFOVERLAP>  (1) 
15.223

>  <PUBCHEM_SHAPE_FINGERPRINT>  (1) 
12423570 1 12751245817184141826
16945 1 18194683661646583620
18185500 45 18338515222929910959
193761 8 17906171746077639143
21040471 1 17762056940422768613
23552423 10 18046073657431085046
241688 4 18410855468734167833
2748010 2 18410006675838217309
5084963 1 18202566206513678130
66348 1 18410289177401613514

>  <PUBCHEM_SHAPE_MULTIPOLES>  (1) 
183.97
2.73
2.38
0.62
1.08
0.6
0
0.13
0
-0.22
0
0.03
-0.01
0

>  <PUBCHEM_SHAPE_SELFOVERLAP>  (1) 
364.851

>  <PUBCHEM_SHAPE_VOLUME>  (1) 
110.3

>  <PUBCHEM_COORDINATE_TYPE>  (1) 
2
5
10

$$$$
