11842
     RDKit          3D

  9  9  0  0  0  0  0  0  0  0999 V2000
    0.0008   -2.6003    0.0008 Br  0  0  0  0  0  0  0  0  0  0  0  0
   -2.9155   -0.8302   -0.0011 Br  0  0  0  0  0  0  0  0  0  0  0  0
    2.9160   -0.8289   -0.0007 Br  0  0  0  0  0  0  0  0  0  0  0  0
    0.0001   -0.6850    0.0002 C   0  0  0  0  0  0  0  0  0  0  0  0
   -1.2080    0.0123    0.0004 C   0  0  0  0  0  0  0  0  0  0  0  0
    1.2080    0.0127    0.0000 C   0  0  0  0  0  0  0  0  0  0  0  0
   -1.2084    1.4072    0.0003 C   0  0  0  0  0  0  0  0  0  0  0  0
    1.2076    1.4076    0.0000 C   0  0  0  0  0  0  0  0  0  0  0  0
   -0.0006    2.1048    0.0001 C   0  0  0  0  0  0  0  0  0  0  0  0
  1  4  1  0
  2  5  1  0
  3  6  1  0
  4  5  2  0
  4  6  1  0
  5  7  1  0
  6  8  2  0
  7  9  2  0
  8  9  1  0
M  END
>  <PUBCHEM_COMPOUND_CID>  (1) 
11842

>  <PUBCHEM_CONFORMER_RMSD>  (1) 
0.4

>  <PUBCHEM_CONFORMER_DIVERSEORDER>  (1) 
1

>  <PUBCHEM_MMFF94_PARTIAL_CHARGES>  (1) 
12
1 -0.11
10 0.15
11 0.15
12 0.15
2 -0.11
3 -0.11
4 0.11
5 0.11
6 0.11
7 -0.15
8 -0.15
9 -0.15

>  <PUBCHEM_EFFECTIVE_ROTOR_COUNT>  (1) 
0

>  <PUBCHEM_PHARMACOPHORE_FEATURES>  (1) 
4
1 1 hydrophobe
1 2 hydrophobe
1 3 hydrophobe
6 4 5 6 7 8 9 rings

>  <PUBCHEM_HEAVY_ATOM_COUNT>  (1) 
9

>  <PUBCHEM_ATOM_DEF_STEREO_COUNT>  (1) 
0

>  <PUBCHEM_ATOM_UDEF_STEREO_COUNT>  (1) 
0

>  <PUBCHEM_BOND_DEF_STEREO_COUNT>  (1) 
0

>  <PUBCHEM_BOND_UDEF_STEREO_COUNT>  (1) 
0

>  <PUBCHEM_ISOTOPIC_ATOM_COUNT>  (1) 
0

>  <PUBCHEM_COMPONENT_COUNT>  (1) 
1

>  <PUBCHEM_CACTVS_TAUTO_COUNT>  (1) 
1

>  <PUBCHEM_CONFORMER_ID>  (1) 
00002E4200000001

>  <PUBCHEM_MMFF94_ENERGY>  (1) 
21.6134

>  <PUBCHEM_FEATURE_SELFOVERLAP>  (1) 
20.297

>  <PUBCHEM_SHAPE_FINGERPRINT>  (1) 
12423570 1 17535766095759547324
16945 1 18410855455833324419
193761 8 17762336912018513867
20871998 184 18272083838776874142
21040471 1 17906172111371535297
23552423 10 17830464877474439022
241688 4 18410856529575265689
2748010 2 18409721867956328965
5084963 1 18202563981657360786
66348 1 18410009909916903674

>  <PUBCHEM_SHAPE_MULTIPOLES>  (1) 
203.04
3.47
2.61
0.66
0
0.41
0
1.13
0
0
0
0
0.06
0

>  <PUBCHEM_SHAPE_SELFOVERLAP>  (1) 
377.183

>  <PUBCHEM_SHAPE_VOLUME>  (1) 
130.8

>  <PUBCHEM_COORDINATE_TYPE>  (1) 
2
5
10

$$$$
