11851
     RDKit          3D

 12 11  0  0  1  0  0  0  0  0999 V2000
   -0.0959   -1.1843   -1.3963 O   0  0  0  0  0  0  0  0  0  0  0  0
    0.0959   -1.1844    1.3962 O   0  0  0  0  0  0  0  0  0  0  0  0
   -2.2935    1.0734    0.2969 O   0  0  0  0  0  0  0  0  0  0  0  0
    2.2934    1.0735   -0.2968 O   0  0  0  0  0  0  0  0  0  0  0  0
   -2.6675   -0.9700   -0.7037 O   0  0  0  0  0  0  0  0  0  0  0  0
    2.6675   -0.9701    0.7035 O   0  0  0  0  0  0  0  0  0  0  0  0
   -0.4252   -0.0280   -0.6362 C   0  0  0  0  0  0  0  0  0  0  0  0
    0.4253   -0.0280    0.6364 C   0  0  0  0  0  0  0  0  0  0  0  0
   -1.9223   -0.0558   -0.3747 C   0  0  0  0  0  0  0  0  0  0  0  0
    1.9224   -0.0559    0.3747 C   0  0  0  0  0  0  0  0  0  0  0  0
   -3.6820    1.1647    0.6302 C   0  0  0  0  0  0  0  0  0  0  0  0
    3.6819    1.1649   -0.6304 C   0  0  0  0  0  0  0  0  0  0  0  0
  1  7  1  0
  2  8  1  0
  3  9  1  0
  3 11  1  0
  4 10  1  0
  4 12  1  0
  5  9  2  0
  6 10  2  0
  7  8  1  0
  7  9  1  0
  8 10  1  0
M  END
>  <PUBCHEM_COMPOUND_CID>  (1) 
11851

>  <PUBCHEM_CONFORMER_RMSD>  (1) 
0.6

>  <PUBCHEM_CONFORMER_DIVERSEORDER>  (1) 
1
11
8
13
2
17
14
7
6
16
15
5
9
10
4
12
3

>  <PUBCHEM_MMFF94_PARTIAL_CHARGES>  (1) 
14
1 -0.68
10 0.66
11 0.28
12 0.28
15 0.4
16 0.4
2 -0.68
3 -0.43
4 -0.43
5 -0.57
6 -0.57
7 0.34
8 0.34
9 0.66

>  <PUBCHEM_EFFECTIVE_ROTOR_COUNT>  (1) 
5

>  <PUBCHEM_PHARMACOPHORE_FEATURES>  (1) 
6
1 1 acceptor
1 1 donor
1 2 acceptor
1 2 donor
1 5 acceptor
1 6 acceptor

>  <PUBCHEM_HEAVY_ATOM_COUNT>  (1) 
12

>  <PUBCHEM_ATOM_DEF_STEREO_COUNT>  (1) 
2

>  <PUBCHEM_ATOM_UDEF_STEREO_COUNT>  (1) 
0

>  <PUBCHEM_BOND_DEF_STEREO_COUNT>  (1) 
0

>  <PUBCHEM_BOND_UDEF_STEREO_COUNT>  (1) 
0

>  <PUBCHEM_ISOTOPIC_ATOM_COUNT>  (1) 
0

>  <PUBCHEM_COMPONENT_COUNT>  (1) 
1

>  <PUBCHEM_CACTVS_TAUTO_COUNT>  (1) 
1

>  <PUBCHEM_CONFORMER_ID>  (1) 
00002E4B00000001

>  <PUBCHEM_MMFF94_ENERGY>  (1) 
10.5346

>  <PUBCHEM_FEATURE_SELFOVERLAP>  (1) 
30.471

>  <PUBCHEM_SHAPE_FINGERPRINT>  (1) 
10219947 1 16732706030104335509
11031198 65 18114470032651931372
12932764 1 18411411817307056584
14325111 11 18410572894229783940
15775835 57 18410859858175147108
18175812 5 15719385109981474083
18186145 218 18187081741626455894
18380122 1 15719385105697004330
19422 9 18410568491888565383
20645476 183 18131632313507180094
20653085 51 18129953389300590544
20711983 171 18273495671630687365
20711985 344 14763526837033135306
3248919 1 18338502097462634951
5084963 1 18263062401367715655

>  <PUBCHEM_SHAPE_MULTIPOLES>  (1) 
211.74
5.68
1.31
1.1
0
0.05
0
2.6
0
0
0
0
-0.33
-0.86

>  <PUBCHEM_SHAPE_SELFOVERLAP>  (1) 
408.198

>  <PUBCHEM_SHAPE_VOLUME>  (1) 
129

>  <PUBCHEM_COORDINATE_TYPE>  (1) 
2
5
10

$$$$
