11854
     RDKit          3D

 11 11  0  0  0  0  0  0  0  0999 V2000
    0.0003    3.0409   -0.0002 Br  0  0  0  0  0  0  0  0  0  0  0  0
    2.8874    1.3511   -0.0001 Br  0  0  0  0  0  0  0  0  0  0  0  0
   -2.8870    1.3518    0.0008 Br  0  0  0  0  0  0  0  0  0  0  0  0
   -2.7879   -2.0398   -0.0003 Br  0  0  0  0  0  0  0  0  0  0  0  0
    2.7876   -2.0401    0.0008 Br  0  0  0  0  0  0  0  0  0  0  0  0
    0.0000    1.1176   -0.0001 C   0  0  0  0  0  0  0  0  0  0  0  0
    1.2081    0.4201   -0.0003 C   0  0  0  0  0  0  0  0  0  0  0  0
   -1.2080    0.4201    0.0000 C   0  0  0  0  0  0  0  0  0  0  0  0
   -1.2081   -0.9747    0.0000 C   0  0  0  0  0  0  0  0  0  0  0  0
    1.2079   -0.9748   -0.0004 C   0  0  0  0  0  0  0  0  0  0  0  0
   -0.0002   -1.6722   -0.0003 C   0  0  0  0  0  0  0  0  0  0  0  0
  1  6  1  0
  2  7  1  0
  3  8  1  0
  4  9  1  0
  5 10  1  0
  6  7  2  0
  6  8  1  0
  7 10  1  0
  8  9  2  0
  9 11  1  0
 10 11  2  0
M  END
>  <PUBCHEM_COMPOUND_CID>  (1) 
11854

>  <PUBCHEM_CONFORMER_RMSD>  (1) 
0.4

>  <PUBCHEM_CONFORMER_DIVERSEORDER>  (1) 
1

>  <PUBCHEM_MMFF94_PARTIAL_CHARGES>  (1) 
12
1 -0.11
10 0.11
11 -0.15
12 0.15
2 -0.11
3 -0.11
4 -0.11
5 -0.11
6 0.11
7 0.11
8 0.11
9 0.11

>  <PUBCHEM_EFFECTIVE_ROTOR_COUNT>  (1) 
0

>  <PUBCHEM_PHARMACOPHORE_FEATURES>  (1) 
6
1 1 hydrophobe
1 2 hydrophobe
1 3 hydrophobe
1 4 hydrophobe
1 5 hydrophobe
6 6 7 8 9 10 11 rings

>  <PUBCHEM_HEAVY_ATOM_COUNT>  (1) 
11

>  <PUBCHEM_ATOM_DEF_STEREO_COUNT>  (1) 
0

>  <PUBCHEM_ATOM_UDEF_STEREO_COUNT>  (1) 
0

>  <PUBCHEM_BOND_DEF_STEREO_COUNT>  (1) 
0

>  <PUBCHEM_BOND_UDEF_STEREO_COUNT>  (1) 
0

>  <PUBCHEM_ISOTOPIC_ATOM_COUNT>  (1) 
0

>  <PUBCHEM_COMPONENT_COUNT>  (1) 
1

>  <PUBCHEM_CACTVS_TAUTO_COUNT>  (1) 
1

>  <PUBCHEM_CONFORMER_ID>  (1) 
00002E4E00000001

>  <PUBCHEM_MMFF94_ENERGY>  (1) 
30.4679

>  <PUBCHEM_FEATURE_SELFOVERLAP>  (1) 
30.45

>  <PUBCHEM_SHAPE_FINGERPRINT>  (1) 
10967382 1 18338798909804294501
11206711 2 18265335199550954533
12423570 1 11849345488800050095
13140716 1 18410293566736975058
13380535 21 18410582785539525092
16945 1 18411695521377172557
193761 8 18410573985151529095
21501502 16 18410573989446678279
2334 1 18410856589704788006
23526114 1 18411419526915797286
23552423 10 18334016094601197270
23559900 14 18197778800692531726
241688 4 18410292480110080218
2748010 2 18411981364340670766
53812653 166 18270961353031590648
54173680 148 18337955567359304755
68250623 7 18410577283686717731

>  <PUBCHEM_SHAPE_MULTIPOLES>  (1) 
256.09
4.48
3.38
0.68
0
1
0
-1.21
0
0
0
0
0.02
0

>  <PUBCHEM_SHAPE_SELFOVERLAP>  (1) 
460.765

>  <PUBCHEM_SHAPE_VOLUME>  (1) 
169.6

>  <PUBCHEM_COORDINATE_TYPE>  (1) 
2
5
10

$$$$
