11868
     RDKit          3D

 12 12  0  0  0  0  0  0  0  0999 V2000
    1.8889   -0.6253   -0.0895 S   0  0  0  0  0  0  0  0  0  0  0  0
    2.4968   -0.2794    1.3871 O   0  0  0  0  0  0  0  0  0  0  0  0
    1.8710   -2.0743   -0.2149 O   0  0  0  0  0  0  0  0  0  0  0  0
    2.5784    0.1984   -1.0686 O   0  0  0  0  0  0  0  0  0  0  0  0
    0.2297   -0.0709   -0.0405 C   0  0  0  0  0  0  0  0  0  0  0  0
   -0.0761    1.2897   -0.0053 C   0  0  0  0  0  0  0  0  0  0  0  0
   -2.1270   -0.6014    0.0017 C   0  0  0  0  0  0  0  0  0  0  0  0
   -0.7958   -1.0165   -0.0371 C   0  0  0  0  0  0  0  0  0  0  0  0
   -1.4072    1.7047    0.0336 C   0  0  0  0  0  0  0  0  0  0  0  0
   -2.4326    0.7592    0.0371 C   0  0  0  0  0  0  0  0  0  0  0  0
    0.9979    2.3279   -0.0066 C   0  0  0  0  0  0  0  0  0  0  0  0
   -3.2239   -1.6121    0.0030 C   0  0  0  0  0  0  0  0  0  0  0  0
  1  2  1  0
  1  3  2  0
  1  4  2  0
  1  5  1  0
  5  6  2  0
  5  8  1  0
  6  9  1  0
  6 11  1  0
  7  8  2  0
  7 10  1  0
  7 12  1  0
  9 10  2  0
M  END
>  <PUBCHEM_COMPOUND_CID>  (1) 
11868

>  <PUBCHEM_CONFORMER_RMSD>  (1) 
0.4

>  <PUBCHEM_CONFORMER_DIVERSEORDER>  (1) 
1
2

>  <PUBCHEM_MMFF94_PARTIAL_CHARGES>  (1) 
16
1 1.49
10 -0.15
11 0.14
12 0.14
13 0.15
14 0.15
15 0.15
2 -0.68
22 0.5
3 -0.65
4 -0.65
5 -0.01
6 -0.14
7 -0.14
8 -0.15
9 -0.15

>  <PUBCHEM_EFFECTIVE_ROTOR_COUNT>  (1) 
1

>  <PUBCHEM_PHARMACOPHORE_FEATURES>  (1) 
5
1 2 acceptor
1 3 acceptor
1 4 acceptor
4 1 2 3 4 anion
6 5 6 7 8 9 10 rings

>  <PUBCHEM_HEAVY_ATOM_COUNT>  (1) 
12

>  <PUBCHEM_ATOM_DEF_STEREO_COUNT>  (1) 
0

>  <PUBCHEM_ATOM_UDEF_STEREO_COUNT>  (1) 
0

>  <PUBCHEM_BOND_DEF_STEREO_COUNT>  (1) 
0

>  <PUBCHEM_BOND_UDEF_STEREO_COUNT>  (1) 
0

>  <PUBCHEM_ISOTOPIC_ATOM_COUNT>  (1) 
0

>  <PUBCHEM_COMPONENT_COUNT>  (1) 
1

>  <PUBCHEM_CACTVS_TAUTO_COUNT>  (1) 
1

>  <PUBCHEM_CONFORMER_ID>  (1) 
00002E5C00000001

>  <PUBCHEM_MMFF94_ENERGY>  (1) 
23.2236

>  <PUBCHEM_FEATURE_SELFOVERLAP>  (1) 
25.428

>  <PUBCHEM_SHAPE_FINGERPRINT>  (1) 
10857977 72 18341602720279077411
11206711 2 18408325497137424733
12382932 28 18340196389156966746
12423570 1 11637491592539346317
12524768 44 18128255571458785911
12716758 59 18122621648197831129
12932764 1 17561079198361638687
14128692 85 18340497754180193365
161256 15 18267025135985371869
16945 1 18411699872484738693
17990270 104 18410857684926508874
193761 8 18411139160341517653
20201158 50 18336825385433189579
20645477 70 18122619716090984207
20653091 64 18261390108601343640
20871998 184 18201717310675766927
20871998 22 18413112774907000751
21040471 1 17978792302948771429
21501502 16 18337392737891658561
21501925 9 18268136725282548483
22802520 49 17914629249811714398
23552423 10 18263087772035192245
23559900 14 17910954635493543326
241688 4 18194686968713119776
2748010 2 18269273461096570815
369184 2 17131256966217315603
5084963 1 17988935503936602387
528862 383 18048026664680197785
7364860 26 18127696134709783600
81228 2 18266454309162254049

>  <PUBCHEM_SHAPE_MULTIPOLES>  (1) 
233.2
4.15
2.2
0.8
0.92
0.54
-0.09
-1.68
-0.05
-0.07
0.05
-0.48
-0.04
-0.05

>  <PUBCHEM_SHAPE_SELFOVERLAP>  (1) 
472.187

>  <PUBCHEM_SHAPE_VOLUME>  (1) 
137.4

>  <PUBCHEM_COORDINATE_TYPE>  (1) 
2
5
10

$$$$
