11864
     RDKit          3D

  8  7  0  0  1  0  0  0  0  0999 V2000
   -0.8891    2.1364    0.1430 O   0  0  0  0  0  0  0  0  0  0  0  0
   -1.7119   -0.9755    0.9661 O   0  0  0  0  0  0  0  0  0  0  0  0
   -1.2040   -0.8927   -1.1763 O   0  0  0  0  0  0  0  0  0  0  0  0
   -0.9735   -0.6702    0.0201 N   0  0  0  0  0  0  0  0  0  0  0  0
    0.2868    0.0431    0.3435 C   0  0  0  0  0  0  0  0  0  0  0  0
    1.4533   -0.8099   -0.1539 C   0  0  0  0  0  0  0  0  0  0  0  0
    0.2232    1.3978   -0.3514 C   0  0  0  0  0  0  0  0  0  0  0  0
    2.8153   -0.2291    0.2089 C   0  0  0  0  0  0  0  0  0  0  0  0
  1  7  1  0
  2  4  1  0
  3  4  2  0
  4  5  1  0
  5  6  1  0
  5  7  1  0
  6  8  1  0
M  CHG  2   2  -1   4   1
M  END
>  <PUBCHEM_COMPOUND_CID>  (1) 
11864

>  <PUBCHEM_CONFORMER_RMSD>  (1) 
0.6

>  <PUBCHEM_CONFORMER_DIVERSEORDER>  (1) 
1
16
14
5
12
6
15
11
10
13
8
9
17
2
7
4
3

>  <PUBCHEM_MMFF94_PARTIAL_CHARGES>  (1) 
7
1 -0.68
17 0.4
2 -0.52
3 -0.52
4 0.8
5 0.24
7 0.28

>  <PUBCHEM_EFFECTIVE_ROTOR_COUNT>  (1) 
3

>  <PUBCHEM_PHARMACOPHORE_FEATURES>  (1) 
6
1 1 acceptor
1 1 donor
1 2 acceptor
1 2 anion
1 3 acceptor
1 8 hydrophobe

>  <PUBCHEM_HEAVY_ATOM_COUNT>  (1) 
8

>  <PUBCHEM_ATOM_DEF_STEREO_COUNT>  (1) 
0

>  <PUBCHEM_ATOM_UDEF_STEREO_COUNT>  (1) 
1

>  <PUBCHEM_BOND_DEF_STEREO_COUNT>  (1) 
0

>  <PUBCHEM_BOND_UDEF_STEREO_COUNT>  (1) 
0

>  <PUBCHEM_ISOTOPIC_ATOM_COUNT>  (1) 
0

>  <PUBCHEM_COMPONENT_COUNT>  (1) 
1

>  <PUBCHEM_CACTVS_TAUTO_COUNT>  (1) 
2

>  <PUBCHEM_CONFORMER_ID>  (1) 
00002E5800000001

>  <PUBCHEM_MMFF94_ENERGY>  (1) 
8.6379

>  <PUBCHEM_FEATURE_SELFOVERLAP>  (1) 
30.525

>  <PUBCHEM_SHAPE_FINGERPRINT>  (1) 
137420 1 11259628173803269056
16714656 1 18341050701070249716
21040471 1 17832710071670471500
23552449 1 18340480072132261960
24536 1 18113898204816655150
29004967 10 18335425724310828682
5943 1 16085928202000827615

>  <PUBCHEM_SHAPE_MULTIPOLES>  (1) 
142.05
2.65
1.65
0.85
1.96
0.97
-0.08
-0.63
0.28
-0.8
-0.01
-0.29
-0.21
0.02

>  <PUBCHEM_SHAPE_SELFOVERLAP>  (1) 
259.533

>  <PUBCHEM_SHAPE_VOLUME>  (1) 
90.8

>  <PUBCHEM_COORDINATE_TYPE>  (1) 
2
5
10

$$$$
