11860
     RDKit          3D

 10 10  0  0  0  0  0  0  0  0999 V2000
    1.2151   -2.7287    0.0005 Cl  0  0  0  0  0  0  0  0  0  0  0  0
    1.2114    2.7302   -0.0017 Cl  0  0  0  0  0  0  0  0  0  0  0  0
    2.5071    0.0013   -0.0003 N   0  0  0  0  0  0  0  0  0  0  0  0
   -3.1094   -0.0013    0.0007 N   0  0  0  0  0  0  0  0  0  0  0  0
    1.0910    0.0004    0.0012 C   0  0  0  0  0  0  0  0  0  0  0  0
   -1.6990   -0.0009   -0.0009 C   0  0  0  0  0  0  0  0  0  0  0  0
    0.3940   -1.2079   -0.0006 C   0  0  0  0  0  0  0  0  0  0  0  0
    0.3929    1.2081    0.0019 C   0  0  0  0  0  0  0  0  0  0  0  0
   -1.0010   -1.2085   -0.0017 C   0  0  0  0  0  0  0  0  0  0  0  0
   -1.0021    1.2073    0.0008 C   0  0  0  0  0  0  0  0  0  0  0  0
  1  7  1  0
  2  8  1  0
  3  5  1  0
  4  6  1  0
  5  7  2  0
  5  8  1  0
  6  9  2  0
  6 10  1  0
  7  9  1  0
  8 10  2  0
M  END
>  <PUBCHEM_COMPOUND_CID>  (1) 
11860

>  <PUBCHEM_CONFORMER_RMSD>  (1) 
0.4

>  <PUBCHEM_CONFORMER_DIVERSEORDER>  (1) 
1

>  <PUBCHEM_MMFF94_PARTIAL_CHARGES>  (1) 
16
1 -0.18
10 -0.15
11 0.15
12 0.15
13 0.4
14 0.4
15 0.4
16 0.4
2 -0.18
3 -0.9
4 -0.9
5 0.1
6 0.1
7 0.18
8 0.18
9 -0.15

>  <PUBCHEM_EFFECTIVE_ROTOR_COUNT>  (1) 
0

>  <PUBCHEM_PHARMACOPHORE_FEATURES>  (1) 
5
1 3 cation
1 3 donor
1 4 cation
1 4 donor
6 5 6 7 8 9 10 rings

>  <PUBCHEM_HEAVY_ATOM_COUNT>  (1) 
10

>  <PUBCHEM_ATOM_DEF_STEREO_COUNT>  (1) 
0

>  <PUBCHEM_ATOM_UDEF_STEREO_COUNT>  (1) 
0

>  <PUBCHEM_BOND_DEF_STEREO_COUNT>  (1) 
0

>  <PUBCHEM_BOND_UDEF_STEREO_COUNT>  (1) 
0

>  <PUBCHEM_ISOTOPIC_ATOM_COUNT>  (1) 
0

>  <PUBCHEM_COMPONENT_COUNT>  (1) 
1

>  <PUBCHEM_CACTVS_TAUTO_COUNT>  (1) 
1

>  <PUBCHEM_CONFORMER_ID>  (1) 
00002E5400000001

>  <PUBCHEM_MMFF94_ENERGY>  (1) 
43.0216

>  <PUBCHEM_FEATURE_SELFOVERLAP>  (1) 
25.371

>  <PUBCHEM_SHAPE_FINGERPRINT>  (1) 
12423570 1 17118338597823021019
13380535 76 17908698784686395028
16945 1 18410573989641584263
18185500 45 18340768143745956191
193761 8 17762336912197757988
20871998 184 16470381591033494372
21040471 1 17906453581821248033
23552423 10 17973454199844967526
23559900 14 17765733682349768548
241688 4 17906173953669620225
2748010 2 18120658199550723959
29004967 10 18335708204267506699
5084963 1 18059014002740386929

>  <PUBCHEM_SHAPE_MULTIPOLES>  (1) 
199.57
2.89
2.84
0.61
0.03
1.49
0
-1.78
0
-0.03
0
0
-0.02
0

>  <PUBCHEM_SHAPE_SELFOVERLAP>  (1) 
399.026

>  <PUBCHEM_SHAPE_VOLUME>  (1) 
117.6

>  <PUBCHEM_COORDINATE_TYPE>  (1) 
2
5
10

$$$$
