11877
     RDKit          3D

 12 12  0  0  0  0  0  0  0  0999 V2000
    0.3202   -2.8467    0.0025 O   0  0  0  0  0  0  0  0  0  0  0  0
    1.8617   -1.2838    0.0008 O   0  0  0  0  0  0  0  0  0  0  0  0
    1.3181    1.1442   -0.0005 N   0  0  0  0  0  0  0  0  0  0  0  0
    0.6604   -1.6405    0.0014 N   0  0  0  0  0  0  0  0  0  0  0  0
   -0.0286    0.7155   -0.0008 C   0  0  0  0  0  0  0  0  0  0  0  0
   -0.3529   -0.6411    0.0004 C   0  0  0  0  0  0  0  0  0  0  0  0
   -1.0414    1.6747   -0.0018 C   0  0  0  0  0  0  0  0  0  0  0  0
    2.0141    1.3666    1.2495 C   0  0  0  0  0  0  0  0  0  0  0  0
    2.0194    1.3520   -1.2502 C   0  0  0  0  0  0  0  0  0  0  0  0
   -1.6899   -1.0386    0.0007 C   0  0  0  0  0  0  0  0  0  0  0  0
   -2.3784    1.2771   -0.0015 C   0  0  0  0  0  0  0  0  0  0  0  0
   -2.7027   -0.0794   -0.0004 C   0  0  0  0  0  0  0  0  0  0  0  0
  1  4  1  0
  2  4  2  0
  3  5  1  0
  3  8  1  0
  3  9  1  0
  4  6  1  0
  5  6  2  0
  5  7  1  0
  6 10  1  0
  7 11  2  0
 10 12  2  0
 11 12  1  0
M  CHG  2   1  -1   4   1
M  END
>  <PUBCHEM_COMPOUND_CID>  (1) 
11877

>  <PUBCHEM_CONFORMER_RMSD>  (1) 
0.6

>  <PUBCHEM_CONFORMER_DIVERSEORDER>  (1) 
1

>  <PUBCHEM_MMFF94_PARTIAL_CHARGES>  (1) 
16
1 -0.52
10 -0.15
11 -0.15
12 -0.15
13 0.15
2 -0.52
20 0.15
21 0.15
22 0.15
3 -0.84
4 0.91
5 0.1
6 0.13
7 -0.15
8 0.37
9 0.37

>  <PUBCHEM_EFFECTIVE_ROTOR_COUNT>  (1) 
2

>  <PUBCHEM_PHARMACOPHORE_FEATURES>  (1) 
5
1 1 acceptor
1 1 anion
1 2 acceptor
1 3 cation
6 5 6 7 10 11 12 rings

>  <PUBCHEM_HEAVY_ATOM_COUNT>  (1) 
12

>  <PUBCHEM_ATOM_DEF_STEREO_COUNT>  (1) 
0

>  <PUBCHEM_ATOM_UDEF_STEREO_COUNT>  (1) 
0

>  <PUBCHEM_BOND_DEF_STEREO_COUNT>  (1) 
0

>  <PUBCHEM_BOND_UDEF_STEREO_COUNT>  (1) 
0

>  <PUBCHEM_ISOTOPIC_ATOM_COUNT>  (1) 
0

>  <PUBCHEM_COMPONENT_COUNT>  (1) 
1

>  <PUBCHEM_CACTVS_TAUTO_COUNT>  (1) 
1

>  <PUBCHEM_CONFORMER_ID>  (1) 
00002E6500000001

>  <PUBCHEM_MMFF94_ENERGY>  (1) 
62.9283

>  <PUBCHEM_FEATURE_SELFOVERLAP>  (1) 
25.453

>  <PUBCHEM_SHAPE_FINGERPRINT>  (1) 
12524768 44 17549258134335221103
12716758 59 18124044682711818580
14128692 85 18197502817970728951
16945 1 18194401087242426853
18185500 45 17761216518333558783
193761 8 18338517413743046533
20511035 2 18196648502100374285
20645476 183 17533217715500190364
20871998 184 17407679974845571764
21040471 1 18266741466121902916
22802520 49 17838647765267850724
23211744 41 17630314466357791632
2334 1 18338517555345267399
23552423 10 18335424508924507717
241688 4 17255965572099281099
2748010 2 18410014368377637671
5084963 1 18057620942993685925
7364860 26 18200590276718079823
81228 2 17619913202286075011

>  <PUBCHEM_SHAPE_MULTIPOLES>  (1) 
225.25
3.27
2.4
0.87
0.43
1.52
0
-1.18
0
-0.24
0.01
-0.61
-0.33
0

>  <PUBCHEM_SHAPE_SELFOVERLAP>  (1) 
466.357

>  <PUBCHEM_SHAPE_VOLUME>  (1) 
129.8

>  <PUBCHEM_COORDINATE_TYPE>  (1) 
2
5
10

$$$$
