11889
     RDKit          3D

 12 12  0  0  0  0  0  0  0  0999 V2000
    1.4136    0.5574    0.5360 O   0  0  0  0  0  0  0  0  0  0  0  0
   -0.7297   -2.8409   -0.1738 O   0  0  0  0  0  0  0  0  0  0  0  0
    1.1951   -1.8910    0.2867 O   0  0  0  0  0  0  0  0  0  0  0  0
   -0.0340   -1.8218    0.0490 N   0  0  0  0  0  0  0  0  0  0  0  0
    0.0768    0.6142    0.2739 C   0  0  0  0  0  0  0  0  0  0  0  0
   -0.6598   -0.5451    0.0310 C   0  0  0  0  0  0  0  0  0  0  0  0
    2.2784    1.2533   -0.3587 C   0  0  0  0  0  0  0  0  0  0  0  0
   -0.5535    1.8583    0.2527 C   0  0  0  0  0  0  0  0  0  0  0  0
   -2.0268   -0.4603   -0.2332 C   0  0  0  0  0  0  0  0  0  0  0  0
   -1.9206    1.9432   -0.0113 C   0  0  0  0  0  0  0  0  0  0  0  0
   -2.6572    0.7839   -0.2544 C   0  0  0  0  0  0  0  0  0  0  0  0
    3.6177    0.5488   -0.3979 C   0  0  0  0  0  0  0  0  0  0  0  0
  1  5  1  0
  1  7  1  0
  2  4  1  0
  3  4  2  0
  4  6  1  0
  5  6  2  0
  5  8  1  0
  6  9  1  0
  7 12  1  0
  8 10  2  0
  9 11  2  0
 10 11  1  0
M  CHG  2   2  -1   4   1
M  END
>  <PUBCHEM_COMPOUND_CID>  (1) 
11889

>  <PUBCHEM_CONFORMER_RMSD>  (1) 
0.6

>  <PUBCHEM_CONFORMER_DIVERSEORDER>  (1) 
1
2
3
4

>  <PUBCHEM_MMFF94_PARTIAL_CHARGES>  (1) 
15
1 -0.36
10 -0.15
11 -0.15
15 0.15
16 0.15
17 0.15
18 0.15
2 -0.52
3 -0.52
4 0.91
5 0.08
6 0.13
7 0.28
8 -0.15
9 -0.15

>  <PUBCHEM_EFFECTIVE_ROTOR_COUNT>  (1) 
3

>  <PUBCHEM_PHARMACOPHORE_FEATURES>  (1) 
5
1 1 acceptor
1 2 acceptor
1 2 anion
1 3 acceptor
6 5 6 8 9 10 11 rings

>  <PUBCHEM_HEAVY_ATOM_COUNT>  (1) 
12

>  <PUBCHEM_ATOM_DEF_STEREO_COUNT>  (1) 
0

>  <PUBCHEM_ATOM_UDEF_STEREO_COUNT>  (1) 
0

>  <PUBCHEM_BOND_DEF_STEREO_COUNT>  (1) 
0

>  <PUBCHEM_BOND_UDEF_STEREO_COUNT>  (1) 
0

>  <PUBCHEM_ISOTOPIC_ATOM_COUNT>  (1) 
0

>  <PUBCHEM_COMPONENT_COUNT>  (1) 
1

>  <PUBCHEM_CACTVS_TAUTO_COUNT>  (1) 
1

>  <PUBCHEM_CONFORMER_ID>  (1) 
00002E7100000001

>  <PUBCHEM_MMFF94_ENERGY>  (1) 
41.3728

>  <PUBCHEM_FEATURE_SELFOVERLAP>  (1) 
25.476

>  <PUBCHEM_SHAPE_FINGERPRINT>  (1) 
12524768 44 16536506224396095771
12716758 59 18340767160478234744
16945 1 18338789125995563761
19021347 11 18336827481245088420
193761 8 17906733605336480449
20645476 183 17822868575150241174
20871998 184 17984148324877648302
20871998 22 17330275481341948242
21040471 1 18411408535983554697
21501502 16 18195242209670022185
22802520 49 18128544958039451836
23402539 116 18342448291955201004
23463225 33 18189892016180051936
23526114 1 18122062005385182036
23552423 10 18050281471250493621
23559900 14 13085337425545054927
241688 4 16465861936723127163
2748010 2 18338235960009089829
528862 383 18189330160994930624
7364860 26 17981325586307743212
81228 2 17977661240469971497

>  <PUBCHEM_SHAPE_MULTIPOLES>  (1) 
224.37
3.95
2.55
0.66
2.95
1.6
0.01
-1.66
0.72
-0.58
-0.02
0.05
-0.07
-0.18

>  <PUBCHEM_SHAPE_SELFOVERLAP>  (1) 
463.017

>  <PUBCHEM_SHAPE_VOLUME>  (1) 
129.4

>  <PUBCHEM_COORDINATE_TYPE>  (1) 
2
5
10

$$$$
