11881
     RDKit          3D

 13 13  0  0  0  0  0  0  0  0999 V2000
    3.6853   -0.4929   -0.0097 O   0  0  0  0  0  0  0  0  0  0  0  0
   -1.3938   -1.9372    1.3024 O   0  0  0  0  0  0  0  0  0  0  0  0
   -1.7992    2.4318    0.5070 O   0  0  0  0  0  0  0  0  0  0  0  0
   -1.5344   -2.1570   -0.9555 O   0  0  0  0  0  0  0  0  0  0  0  0
   -2.6108    0.5949   -0.5576 O   0  0  0  0  0  0  0  0  0  0  0  0
    0.0288   -0.6150   -0.0054 C   0  0  0  0  0  0  0  0  0  0  0  0
   -0.2762    0.7452   -0.0567 C   0  0  0  0  0  0  0  0  0  0  0  0
    1.3601   -1.0311    0.0110 C   0  0  0  0  0  0  0  0  0  0  0  0
    0.7501    1.6892   -0.0917 C   0  0  0  0  0  0  0  0  0  0  0  0
    2.3863   -0.0871   -0.0240 C   0  0  0  0  0  0  0  0  0  0  0  0
    2.0813    1.2730   -0.0755 C   0  0  0  0  0  0  0  0  0  0  0  0
   -1.0211   -1.6249    0.0321 C   0  0  0  0  0  0  0  0  0  0  0  0
   -1.6565    1.2113   -0.0764 C   0  0  0  0  0  0  0  0  0  0  0  0
  1 10  1  0
  2 12  1  0
  3 13  1  0
  4 12  2  0
  5 13  2  0
  6  7  2  0
  6  8  1  0
  6 12  1  0
  7  9  1  0
  7 13  1  0
  8 10  2  0
  9 11  2  0
 10 11  1  0
M  END
>  <PUBCHEM_COMPOUND_CID>  (1) 
11881

>  <PUBCHEM_CONFORMER_RMSD>  (1) 
0.6

>  <PUBCHEM_CONFORMER_DIVERSEORDER>  (1) 
1
3
2

>  <PUBCHEM_MMFF94_PARTIAL_CHARGES>  (1) 
19
1 -0.53
10 0.08
11 -0.15
12 0.63
13 0.63
14 0.15
15 0.15
16 0.15
17 0.45
18 0.5
19 0.5
2 -0.65
3 -0.65
4 -0.57
5 -0.57
6 0.09
7 0.09
8 -0.15
9 -0.15

>  <PUBCHEM_EFFECTIVE_ROTOR_COUNT>  (1) 
2

>  <PUBCHEM_PHARMACOPHORE_FEATURES>  (1) 
8
1 1 donor
1 2 acceptor
1 3 acceptor
1 4 acceptor
1 5 acceptor
3 2 4 12 anion
3 3 5 13 anion
6 6 7 8 9 10 11 rings

>  <PUBCHEM_HEAVY_ATOM_COUNT>  (1) 
13

>  <PUBCHEM_ATOM_DEF_STEREO_COUNT>  (1) 
0

>  <PUBCHEM_ATOM_UDEF_STEREO_COUNT>  (1) 
0

>  <PUBCHEM_BOND_DEF_STEREO_COUNT>  (1) 
0

>  <PUBCHEM_BOND_UDEF_STEREO_COUNT>  (1) 
0

>  <PUBCHEM_ISOTOPIC_ATOM_COUNT>  (1) 
0

>  <PUBCHEM_COMPONENT_COUNT>  (1) 
1

>  <PUBCHEM_CACTVS_TAUTO_COUNT>  (1) 
4

>  <PUBCHEM_CONFORMER_ID>  (1) 
00002E6900000001

>  <PUBCHEM_MMFF94_ENERGY>  (1) 
42.8968

>  <PUBCHEM_FEATURE_SELFOVERLAP>  (1) 
40.712

>  <PUBCHEM_SHAPE_FINGERPRINT>  (1) 
11206711 2 18192155017057624236
12423570 1 16900445054421175563
13380535 76 18338794503421283838
16945 1 18341890775203818108
193761 8 18266740371084934820
19973954 147 18337391668360230500
20645476 183 17533527572000958446
20871998 184 18343027704565668934
21040471 1 18338798905709936708
21501502 16 18338234993815709964
2334 1 18193558006806032508
23402539 116 18200579329046935301
23419403 2 16537000819981950532
23552423 10 18116430530324151300
23559900 14 18270968926356483726
241688 4 15385283830320796561
2748010 2 18267301130604840420
528886 8 18194958530921518568
81228 2 18336822103893325537

>  <PUBCHEM_SHAPE_MULTIPOLES>  (1) 
238.19
3.7
2.41
0.78
2.22
0.08
0.07
0.01
-0.16
-1.42
0.18
-0.31
-0.26
-0.07

>  <PUBCHEM_SHAPE_SELFOVERLAP>  (1) 
510.582

>  <PUBCHEM_SHAPE_VOLUME>  (1) 
131.4

>  <PUBCHEM_COORDINATE_TYPE>  (1) 
2
5
10

$$$$
