11884
     RDKit          3D

 15 17  0  0  0  0  0  0  0  0999 V2000
    1.1034    0.4038   -0.0002 C   0  0  0  0  0  0  0  0  0  0  0  0
    0.9604   -1.0011   -0.0001 C   0  0  0  0  0  0  0  0  0  0  0  0
   -1.3342    0.6519   -0.0001 C   0  0  0  0  0  0  0  0  0  0  0  0
   -1.4772   -0.7529    0.0001 C   0  0  0  0  0  0  0  0  0  0  0  0
   -0.0458    1.2120   -0.0003 C   0  0  0  0  0  0  0  0  0  0  0  0
    2.3921    0.9631   -0.0003 C   0  0  0  0  0  0  0  0  0  0  0  0
   -0.3279   -1.5611    0.0001 C   0  0  0  0  0  0  0  0  0  0  0  0
    2.1100   -1.8085    0.0001 C   0  0  0  0  0  0  0  0  0  0  0  0
    3.5235    0.1469   -0.0001 C   0  0  0  0  0  0  0  0  0  0  0  0
   -2.4837    1.4593   -0.0002 C   0  0  0  0  0  0  0  0  0  0  0  0
   -2.7657   -1.3122    0.0003 C   0  0  0  0  0  0  0  0  0  0  0  0
    3.3826   -1.2371    0.0000 C   0  0  0  0  0  0  0  0  0  0  0  0
    2.6159    2.4440    0.0007 C   0  0  0  0  0  0  0  0  0  0  0  0
   -3.7563    0.8879   -0.0001 C   0  0  0  0  0  0  0  0  0  0  0  0
   -3.8972   -0.4961    0.0001 C   0  0  0  0  0  0  0  0  0  0  0  0
  1  2  1  0
  1  5  2  0
  1  6  1  0
  2  7  2  0
  2  8  1  0
  3  4  2  0
  3  5  1  0
  3 10  1  0
  4  7  1  0
  4 11  1  0
  6  9  2  0
  6 13  1  0
  8 12  2  0
  9 12  1  0
 10 14  2  0
 11 15  2  0
 14 15  1  0
M  END
>  <PUBCHEM_COMPOUND_CID>  (1) 
11884

>  <PUBCHEM_CONFORMER_RMSD>  (1) 
0.4

>  <PUBCHEM_CONFORMER_DIVERSEORDER>  (1) 
1

>  <PUBCHEM_MMFF94_PARTIAL_CHARGES>  (1) 
20
10 -0.15
11 -0.15
12 -0.15
13 0.14
14 -0.15
15 -0.15
16 0.15
17 0.15
18 0.15
19 0.15
20 0.15
21 0.15
22 0.15
26 0.15
27 0.15
5 -0.15
6 -0.14
7 -0.15
8 -0.15
9 -0.15

>  <PUBCHEM_EFFECTIVE_ROTOR_COUNT>  (1) 
0

>  <PUBCHEM_PHARMACOPHORE_FEATURES>  (1) 
3
6 1 2 3 4 5 7 rings
6 1 2 6 8 9 12 rings
6 3 4 10 11 14 15 rings

>  <PUBCHEM_HEAVY_ATOM_COUNT>  (1) 
15

>  <PUBCHEM_ATOM_DEF_STEREO_COUNT>  (1) 
0

>  <PUBCHEM_ATOM_UDEF_STEREO_COUNT>  (1) 
0

>  <PUBCHEM_BOND_DEF_STEREO_COUNT>  (1) 
0

>  <PUBCHEM_BOND_UDEF_STEREO_COUNT>  (1) 
0

>  <PUBCHEM_ISOTOPIC_ATOM_COUNT>  (1) 
0

>  <PUBCHEM_COMPONENT_COUNT>  (1) 
1

>  <PUBCHEM_CACTVS_TAUTO_COUNT>  (1) 
1

>  <PUBCHEM_CONFORMER_ID>  (1) 
00002E6C00000001

>  <PUBCHEM_MMFF94_ENERGY>  (1) 
49.0711

>  <PUBCHEM_FEATURE_SELFOVERLAP>  (1) 
15.274

>  <PUBCHEM_SHAPE_FINGERPRINT>  (1) 
10411042 1 15600610002447386049
10608611 8 18409163311891594941
10967382 1 18338517546486125572
10980938 120 18411982481253609794
11132069 177 18411974758707193899
11471102 20 18410852144503151702
12032990 46 18410580560836305447
12251169 10 18410572864180843682
13140716 1 18410293596838409537
13221675 6 18410292488705399631
13380535 76 18410011052441559882
13897977 150 18410571807724552813
14144814 61 18411136909350906051
14325111 11 18410856572630374881
14790565 3 15389805040105429518
15196674 1 18410573980861771591
15219456 202 18409729573132614337
15442244 35 18267585697868093050
15536298 74 18342738524696996000
15775835 57 18411423916234983356
16945 1 18266740190500752774
17802600 8 18408598145587128501
17804303 29 18337678516156366774
18186145 218 18341616983913089493
193761 8 15888840046810599079
19591789 44 15739679195896442435
200 152 18131622384001480565
20559304 39 18410855452034118904
20645477 70 18412822473920229231
21267235 1 18410865355833460815
21501502 16 18411418431588081111
221490 88 18336836367685742554
2255824 54 18113902667424728298
22854114 111 18409730681376737904
2334 1 18410575131913006913
23402539 116 18271796904558957798
23402655 69 18341045229514146893
23463225 33 18409729543051999516
23559900 14 18341889658981800098
2748010 2 18409730676923378775
335352 9 18194401082799695479
474 4 17604998189927680532
5104073 3 18410293605444155961
528886 8 18411132519915571514
53812653 166 18343015614380423824
57096353 35 18340204218993117391
69090 78 18342171163949552263
7364860 26 18341895212353492656
7832392 63 18196091049383312416
8809292 202 18260835899064813715
9709674 26 18411423924872975391

>  <PUBCHEM_SHAPE_MULTIPOLES>  (1) 
308.69
6.63
2.13
0.62
1.91
0.4
0
0.32
0
-0.99
0
0
0
0

>  <PUBCHEM_SHAPE_SELFOVERLAP>  (1) 
696.381

>  <PUBCHEM_SHAPE_VOLUME>  (1) 
149.5

>  <PUBCHEM_COORDINATE_TYPE>  (1) 
2
5
10

$$$$
