11894
     RDKit          3D

 11 11  0  0  0  0  0  0  0  0999 V2000
   -0.2218    2.7045   -0.3007 Br  0  0  0  0  0  0  0  0  0  0  0  0
    2.0597   -0.7279   -0.6287 O   0  0  0  0  0  0  0  0  0  0  0  0
    1.9177    0.7138    1.1602 O   0  0  0  0  0  0  0  0  0  0  0  0
   -0.0633   -0.1422    0.1463 C   0  0  0  0  0  0  0  0  0  0  0  0
   -0.9004    0.9417   -0.1181 C   0  0  0  0  0  0  0  0  0  0  0  0
   -0.6001   -1.4234    0.2727 C   0  0  0  0  0  0  0  0  0  0  0  0
   -2.2743    0.7445   -0.2562 C   0  0  0  0  0  0  0  0  0  0  0  0
   -1.9741   -1.6206    0.1347 C   0  0  0  0  0  0  0  0  0  0  0  0
   -2.8112   -0.5367   -0.1296 C   0  0  0  0  0  0  0  0  0  0  0  0
    1.3787    0.0092    0.2994 C   0  0  0  0  0  0  0  0  0  0  0  0
    3.4890   -0.6628   -0.5800 C   0  0  0  0  0  0  0  0  0  0  0  0
  1  5  1  0
  2 10  1  0
  2 11  1  0
  3 10  2  0
  4  5  2  0
  4  6  1  0
  4 10  1  0
  5  7  1  0
  6  8  2  0
  7  9  2  0
  8  9  1  0
M  END
>  <PUBCHEM_COMPOUND_CID>  (1) 
11894

>  <PUBCHEM_CONFORMER_RMSD>  (1) 
0.4

>  <PUBCHEM_CONFORMER_DIVERSEORDER>  (1) 
2
1
3
4

>  <PUBCHEM_MMFF94_PARTIAL_CHARGES>  (1) 
15
1 -0.11
10 0.63
11 0.28
12 0.15
13 0.15
14 0.15
15 0.15
2 -0.43
3 -0.57
4 0.09
5 0.11
6 -0.15
7 -0.15
8 -0.15
9 -0.15

>  <PUBCHEM_EFFECTIVE_ROTOR_COUNT>  (1) 
2

>  <PUBCHEM_PHARMACOPHORE_FEATURES>  (1) 
3
1 1 hydrophobe
1 3 acceptor
6 4 5 6 7 8 9 rings

>  <PUBCHEM_HEAVY_ATOM_COUNT>  (1) 
11

>  <PUBCHEM_ATOM_DEF_STEREO_COUNT>  (1) 
0

>  <PUBCHEM_ATOM_UDEF_STEREO_COUNT>  (1) 
0

>  <PUBCHEM_BOND_DEF_STEREO_COUNT>  (1) 
0

>  <PUBCHEM_BOND_UDEF_STEREO_COUNT>  (1) 
0

>  <PUBCHEM_ISOTOPIC_ATOM_COUNT>  (1) 
0

>  <PUBCHEM_COMPONENT_COUNT>  (1) 
1

>  <PUBCHEM_CACTVS_TAUTO_COUNT>  (1) 
1

>  <PUBCHEM_CONFORMER_ID>  (1) 
00002E7600000002

>  <PUBCHEM_MMFF94_ENERGY>  (1) 
31.9989

>  <PUBCHEM_FEATURE_SELFOVERLAP>  (1) 
15.223

>  <PUBCHEM_SHAPE_FINGERPRINT>  (1) 
12032990 46 18410016567538329043
12524768 44 18268982245065279025
12716758 59 18124033421296784954
12897270 3 18410292484478919814
13024252 1 17313396603671604699
15219456 202 18201995573222447512
16945 1 18260820510460287737
17990270 104 18121778593277864033
193761 8 17760370285443695787
20201158 50 18131072593437925278
20711985 344 18337948974404897633
21040471 1 18047461236609742017
22802520 49 18270966743357659926
23402539 116 18339633447735522806
23552423 10 18189052164963023439
23559900 14 18269552742247177030
241688 4 18410576171443006809
2748010 2 18338507646760679069
369184 2 16200430295024618779
5084963 1 18343303651908738121
7364860 26 17980204402328174277

>  <PUBCHEM_SHAPE_MULTIPOLES>  (1) 
220.58
4.14
2.2
0.8
2.38
1.56
0.07
-1.57
-0.66
-0.67
-0.13
0.32
0.06
0.35

>  <PUBCHEM_SHAPE_SELFOVERLAP>  (1) 
443.572

>  <PUBCHEM_SHAPE_VOLUME>  (1) 
133.8

>  <PUBCHEM_COORDINATE_TYPE>  (1) 
2
5
10

$$$$
