11896
     RDKit          3D

 11 11  0  0  0  0  0  0  0  0999 V2000
    1.0056   -2.5873    0.2276 Br  0  0  0  0  0  0  0  0  0  0  0  0
   -4.0272    0.0119    0.0059 Br  0  0  0  0  0  0  0  0  0  0  0  0
    2.5621    1.1721    0.9425 O   0  0  0  0  0  0  0  0  0  0  0  0
    2.8460   -0.1197   -0.9060 O   0  0  0  0  0  0  0  0  0  0  0  0
    0.6455    0.2628   -0.0484 C   0  0  0  0  0  0  0  0  0  0  0  0
    0.0151   -0.9755    0.0749 C   0  0  0  0  0  0  0  0  0  0  0  0
   -0.1168    1.4260   -0.1561 C   0  0  0  0  0  0  0  0  0  0  0  0
   -1.3777   -1.0505    0.0905 C   0  0  0  0  0  0  0  0  0  0  0  0
   -1.5095    1.3509   -0.1405 C   0  0  0  0  0  0  0  0  0  0  0  0
   -2.1400    0.1127   -0.0172 C   0  0  0  0  0  0  0  0  0  0  0  0
    2.0971    0.3967   -0.0733 C   0  0  0  0  0  0  0  0  0  0  0  0
  1  6  1  0
  2 10  1  0
  3 11  1  0
  4 11  2  0
  5  6  2  0
  5  7  1  0
  5 11  1  0
  6  8  1  0
  7  9  2  0
  8 10  2  0
  9 10  1  0
M  END
>  <PUBCHEM_COMPOUND_CID>  (1) 
11896

>  <PUBCHEM_CONFORMER_RMSD>  (1) 
0.4

>  <PUBCHEM_CONFORMER_DIVERSEORDER>  (1) 
1
2

>  <PUBCHEM_MMFF94_PARTIAL_CHARGES>  (1) 
15
1 -0.11
10 0.11
11 0.63
12 0.15
13 0.15
14 0.15
15 0.5
2 -0.11
3 -0.65
4 -0.57
5 0.09
6 0.11
7 -0.15
8 -0.15
9 -0.15

>  <PUBCHEM_EFFECTIVE_ROTOR_COUNT>  (1) 
1

>  <PUBCHEM_PHARMACOPHORE_FEATURES>  (1) 
6
1 1 hydrophobe
1 2 hydrophobe
1 3 acceptor
1 4 acceptor
3 3 4 11 anion
6 5 6 7 8 9 10 rings

>  <PUBCHEM_HEAVY_ATOM_COUNT>  (1) 
11

>  <PUBCHEM_ATOM_DEF_STEREO_COUNT>  (1) 
0

>  <PUBCHEM_ATOM_UDEF_STEREO_COUNT>  (1) 
0

>  <PUBCHEM_BOND_DEF_STEREO_COUNT>  (1) 
0

>  <PUBCHEM_BOND_UDEF_STEREO_COUNT>  (1) 
0

>  <PUBCHEM_ISOTOPIC_ATOM_COUNT>  (1) 
0

>  <PUBCHEM_COMPONENT_COUNT>  (1) 
1

>  <PUBCHEM_CACTVS_TAUTO_COUNT>  (1) 
1

>  <PUBCHEM_CONFORMER_ID>  (1) 
00002E7800000001

>  <PUBCHEM_MMFF94_ENERGY>  (1) 
30.0008

>  <PUBCHEM_FEATURE_SELFOVERLAP>  (1) 
30.503

>  <PUBCHEM_SHAPE_FINGERPRINT>  (1) 
10219947 1 18335140916587104721
12032990 46 18410302432008266583
12897270 3 18410012122009417661
12932764 1 18131061602806193909
13380535 21 18120946009889377053
13380535 76 18334292080673163251
14325111 11 18411699893986026861
161256 15 18266179439612882615
16945 1 18407758149074227285
19021347 11 18335985281118909567
193761 8 17905043655937955133
20588541 1 18334019397599645075
20645476 183 17532385333896090526
20645477 70 18265889169366349071
21040471 1 18408604790138847206
21501502 16 18121503453599461033
23235685 24 18333730234425681333
2334 1 17832426771411657909
23402655 69 18266160766203161405
23552423 10 18044097839093542407
23559900 14 18341622555567074916
2748010 2 18048037664355050541
3071541 250 18052545369686858671
5084963 1 18271535250988310084
528862 383 18261386698571591707
528886 8 18410008870729808531
53812653 166 18341608252423853545
68250623 7 18050855420630964771
7364860 26 18270394962973005730

>  <PUBCHEM_SHAPE_MULTIPOLES>  (1) 
226.52
4.79
2.04
0.75
3.12
1.2
0.02
-0.47
-0.09
-0.98
0.18
-0.26
-0.05
0.17

>  <PUBCHEM_SHAPE_SELFOVERLAP>  (1) 
447.223

>  <PUBCHEM_SHAPE_VOLUME>  (1) 
140.8

>  <PUBCHEM_COORDINATE_TYPE>  (1) 
2
5
10

$$$$
