11897
     RDKit          3D

 11 11  0  0  0  0  0  0  0  0999 V2000
    2.5447    1.4673   -0.4807 O   0  0  0  0  0  0  0  0  0  0  0  0
    2.8451   -0.5717    0.4778 O   0  0  0  0  0  0  0  0  0  0  0  0
   -0.0221   -1.0078   -0.0777 C   0  0  0  0  0  0  0  0  0  0  0  0
   -2.1565    0.1205    0.0135 C   0  0  0  0  0  0  0  0  0  0  0  0
    0.6313    0.2196    0.0335 C   0  0  0  0  0  0  0  0  0  0  0  0
   -1.4161   -1.0574   -0.0877 C   0  0  0  0  0  0  0  0  0  0  0  0
   -1.5029    1.3478    0.1247 C   0  0  0  0  0  0  0  0  0  0  0  0
   -0.1090    1.3974    0.1348 C   0  0  0  0  0  0  0  0  0  0  0  0
    0.7467   -2.2842   -0.1873 C   0  0  0  0  0  0  0  0  0  0  0  0
   -3.6469    0.0681    0.0025 C   0  0  0  0  0  0  0  0  0  0  0  0
    2.0858    0.3003    0.0466 C   0  0  0  0  0  0  0  0  0  0  0  0
  1 11  1  0
  2 11  2  0
  3  5  2  0
  3  6  1  0
  3  9  1  0
  4  6  2  0
  4  7  1  0
  4 10  1  0
  5  8  1  0
  5 11  1  0
  7  8  2  0
M  END
>  <PUBCHEM_COMPOUND_CID>  (1) 
11897

>  <PUBCHEM_CONFORMER_RMSD>  (1) 
0.4

>  <PUBCHEM_CONFORMER_DIVERSEORDER>  (1) 
2
1
3

>  <PUBCHEM_MMFF94_PARTIAL_CHARGES>  (1) 
15
1 -0.65
10 0.14
11 0.63
12 0.15
13 0.15
14 0.15
2 -0.57
21 0.5
3 -0.14
4 -0.14
5 0.09
6 -0.15
7 -0.15
8 -0.15
9 0.14

>  <PUBCHEM_EFFECTIVE_ROTOR_COUNT>  (1) 
1

>  <PUBCHEM_PHARMACOPHORE_FEATURES>  (1) 
4
1 1 acceptor
1 2 acceptor
3 1 2 11 anion
6 3 4 5 6 7 8 rings

>  <PUBCHEM_HEAVY_ATOM_COUNT>  (1) 
11

>  <PUBCHEM_ATOM_DEF_STEREO_COUNT>  (1) 
0

>  <PUBCHEM_ATOM_UDEF_STEREO_COUNT>  (1) 
0

>  <PUBCHEM_BOND_DEF_STEREO_COUNT>  (1) 
0

>  <PUBCHEM_BOND_UDEF_STEREO_COUNT>  (1) 
0

>  <PUBCHEM_ISOTOPIC_ATOM_COUNT>  (1) 
0

>  <PUBCHEM_COMPONENT_COUNT>  (1) 
1

>  <PUBCHEM_CACTVS_TAUTO_COUNT>  (1) 
1

>  <PUBCHEM_CONFORMER_ID>  (1) 
00002E7900000002

>  <PUBCHEM_MMFF94_ENERGY>  (1) 
32.6494

>  <PUBCHEM_FEATURE_SELFOVERLAP>  (1) 
20.355

>  <PUBCHEM_SHAPE_FINGERPRINT>  (1) 
10219947 1 18335142007477116897
12423570 1 9187051513099324001
12897270 3 18410575067678531565
13380535 76 18410290307210439267
14325111 11 18410012160685358601
15775835 57 18338802311460746852
16945 1 18411141298928847231
193761 8 17835241143026554545
19973954 147 18123190104309914305
20201158 50 18336544932822102331
20645476 183 17824277096605602270
20645477 70 18268424643222133639
21040471 1 18340485681100795298
23235685 24 18410289229094136865
23402655 69 18197198275885812501
23463225 33 18335979787881851986
23552423 10 18265338296095819455
23559900 14 18127984203616906372
241688 4 17545324072977385474
2748010 2 18051409862185548965
369184 2 17167857577928476745
5084963 1 18201439142786690840
528862 383 18335413513544895171
528886 8 18411978100307827203

>  <PUBCHEM_SHAPE_MULTIPOLES>  (1) 
214.64
4.22
1.85
0.64
1.16
0.55
0
-0.58
0.08
-0.56
-0.12
-0.05
-0.01
-0.18

>  <PUBCHEM_SHAPE_SELFOVERLAP>  (1) 
449.742

>  <PUBCHEM_SHAPE_VOLUME>  (1) 
122.5

>  <PUBCHEM_COORDINATE_TYPE>  (1) 
2
5
10

$$$$
