11909
     RDKit          3D

  9  9  0  0  0  0  0  0  0  0999 V2000
   -2.4873    0.6935    0.6274 O   0  0  0  0  0  0  0  0  0  0  0  0
   -1.8460    0.5419   -0.4221 N   0  0  0  0  0  0  0  0  0  0  0  0
    0.0138   -0.9493   -0.0600 C   0  0  0  0  0  0  0  0  0  0  0  0
   -0.5013    0.3370   -0.2212 C   0  0  0  0  0  0  0  0  0  0  0  0
    1.3817   -1.1324    0.1430 C   0  0  0  0  0  0  0  0  0  0  0  0
   -0.8662   -2.1585   -0.0960 C   0  0  0  0  0  0  0  0  0  0  0  0
    0.3516    1.4401   -0.1794 C   0  0  0  0  0  0  0  0  0  0  0  0
    2.2344   -0.0292    0.1848 C   0  0  0  0  0  0  0  0  0  0  0  0
    1.7194    1.2570    0.0236 C   0  0  0  0  0  0  0  0  0  0  0  0
  1  2  2  0
  2  4  1  0
  3  4  2  0
  3  5  1  0
  3  6  1  0
  4  7  1  0
  5  8  2  0
  7  9  2  0
  8  9  1  0
M  END
>  <PUBCHEM_COMPOUND_CID>  (1) 
11909

>  <PUBCHEM_CONFORMER_RMSD>  (1) 
0.4

>  <PUBCHEM_CONFORMER_DIVERSEORDER>  (1) 
2
4
3
1

>  <PUBCHEM_MMFF94_PARTIAL_CHARGES>  (1) 
13
1 -0.16
10 0.15
14 0.15
15 0.15
16 0.15
2 -0.14
3 -0.14
4 0.3
5 -0.15
6 0.14
7 -0.15
8 -0.15
9 -0.15

>  <PUBCHEM_EFFECTIVE_ROTOR_COUNT>  (1) 
1

>  <PUBCHEM_PHARMACOPHORE_FEATURES>  (1) 
1
6 3 4 5 7 8 9 rings

>  <PUBCHEM_HEAVY_ATOM_COUNT>  (1) 
9

>  <PUBCHEM_ATOM_DEF_STEREO_COUNT>  (1) 
0

>  <PUBCHEM_ATOM_UDEF_STEREO_COUNT>  (1) 
0

>  <PUBCHEM_BOND_DEF_STEREO_COUNT>  (1) 
0

>  <PUBCHEM_BOND_UDEF_STEREO_COUNT>  (1) 
0

>  <PUBCHEM_ISOTOPIC_ATOM_COUNT>  (1) 
0

>  <PUBCHEM_COMPONENT_COUNT>  (1) 
1

>  <PUBCHEM_CACTVS_TAUTO_COUNT>  (1) 
1

>  <PUBCHEM_CONFORMER_ID>  (1) 
00002E8500000002

>  <PUBCHEM_MMFF94_ENERGY>  (1) 
23.9771

>  <PUBCHEM_FEATURE_SELFOVERLAP>  (1) 
5.074

>  <PUBCHEM_SHAPE_FINGERPRINT>  (1) 
12423570 1 10287883551450965284
16945 1 18409442566507116772
18185500 45 18336537317676132006
21040471 1 18410854382270848540
23552423 10 18043808899827427942
241688 4 17403181395998183618
2748010 2 18266457796712179870
29004967 10 18188213078619244280
5084963 1 18129932391099744849

>  <PUBCHEM_SHAPE_MULTIPOLES>  (1) 
174.37
2.71
1.9
0.66
0.23
0.63
0.01
-0.55
0.32
0.35
-0.03
0.07
-0.03
-0.15

>  <PUBCHEM_SHAPE_SELFOVERLAP>  (1) 
362.33

>  <PUBCHEM_SHAPE_VOLUME>  (1) 
100.4

>  <PUBCHEM_COORDINATE_TYPE>  (1) 
2
5
10

$$$$
