11919
     RDKit          3D

 10 10  0  0  0  0  0  0  0  0999 V2000
    1.9232    2.3047   -0.8071 Cl  0  0  0  0  0  0  0  0  0  0  0  0
    1.9226   -2.3049    0.8073 Cl  0  0  0  0  0  0  0  0  0  0  0  0
    0.1052    0.6389    0.2794 C   0  0  0  0  0  0  0  0  0  0  0  0
    0.1050   -0.6390   -0.2796 C   0  0  0  0  0  0  0  0  0  0  0  0
   -1.1027    1.2781    0.5590 C   0  0  0  0  0  0  0  0  0  0  0  0
   -1.1030   -1.2778   -0.5589 C   0  0  0  0  0  0  0  0  0  0  0  0
    1.3859    1.3427    0.5875 C   0  0  0  0  0  0  0  0  0  0  0  0
    1.3856   -1.3432   -0.5875 C   0  0  0  0  0  0  0  0  0  0  0  0
   -2.3108    0.6392    0.2796 C   0  0  0  0  0  0  0  0  0  0  0  0
   -2.3110   -0.6387   -0.2795 C   0  0  0  0  0  0  0  0  0  0  0  0
  1  7  1  0
  2  8  1  0
  3  4  2  0
  3  5  1  0
  3  7  1  0
  4  6  1  0
  4  8  1  0
  5  9  2  0
  6 10  2  0
  9 10  1  0
M  END
>  <PUBCHEM_COMPOUND_CID>  (1) 
11919

>  <PUBCHEM_CONFORMER_RMSD>  (1) 
0.4

>  <PUBCHEM_CONFORMER_DIVERSEORDER>  (1) 
2
5
9
4
3
1
8
6
7

>  <PUBCHEM_MMFF94_PARTIAL_CHARGES>  (1) 
14
1 -0.29
10 -0.15
11 0.15
12 0.15
17 0.15
18 0.15
2 -0.29
3 -0.14
4 -0.14
5 -0.15
6 -0.15
7 0.43
8 0.43
9 -0.15

>  <PUBCHEM_EFFECTIVE_ROTOR_COUNT>  (1) 
2

>  <PUBCHEM_PHARMACOPHORE_FEATURES>  (1) 
1
6 3 4 5 6 9 10 rings

>  <PUBCHEM_HEAVY_ATOM_COUNT>  (1) 
10

>  <PUBCHEM_ATOM_DEF_STEREO_COUNT>  (1) 
0

>  <PUBCHEM_ATOM_UDEF_STEREO_COUNT>  (1) 
0

>  <PUBCHEM_BOND_DEF_STEREO_COUNT>  (1) 
0

>  <PUBCHEM_BOND_UDEF_STEREO_COUNT>  (1) 
0

>  <PUBCHEM_ISOTOPIC_ATOM_COUNT>  (1) 
0

>  <PUBCHEM_COMPONENT_COUNT>  (1) 
1

>  <PUBCHEM_CACTVS_TAUTO_COUNT>  (1) 
1

>  <PUBCHEM_CONFORMER_ID>  (1) 
00002E8F00000002

>  <PUBCHEM_MMFF94_ENERGY>  (1) 
22.4343

>  <PUBCHEM_FEATURE_SELFOVERLAP>  (1) 
5.074

>  <PUBCHEM_SHAPE_FINGERPRINT>  (1) 
12423570 1 11531300257365654669
12524768 44 17912924989498139278
12716758 59 17620197971856356700
16945 1 18408603660383048325
18185500 45 18123475977196206911
20511035 2 18272643511606756429
20645476 183 17538560311509460444
20653091 64 18410576167042576883
21040471 1 18055350490142204969
23419403 2 15610932568841665239
23552423 10 18410292540334541631
241688 4 18050564045401124842
2748010 2 16975066722697407677
5084963 1 17556310796873328553
528862 383 18409728469347157338
54338 74 17977659814503996666
57177213 63 18264211481302927141

>  <PUBCHEM_SHAPE_MULTIPOLES>  (1) 
209.53
3.08
2.6
0.92
0.85
0
0
0
0
-2.13
0
-0.24
0
-0.75

>  <PUBCHEM_SHAPE_SELFOVERLAP>  (1) 
410.186

>  <PUBCHEM_SHAPE_VOLUME>  (1) 
123.7

>  <PUBCHEM_COORDINATE_TYPE>  (1) 
2
5
10

$$$$
