11917
     RDKit          3D

 18 19  0  0  0  0  0  0  0  0999 V2000
    0.0000   -1.3135    0.0009 O   0  0  0  0  0  0  0  0  0  0  0  0
   -1.1423    0.6841    0.3622 N   0  0  0  0  0  0  0  0  0  0  0  0
    1.1422    0.6842   -0.3620 N   0  0  0  0  0  0  0  0  0  0  0  0
    0.0000   -0.0776    0.0006 C   0  0  0  0  0  0  0  0  0  0  0  0
   -2.4689    0.1591    0.1265 C   0  0  0  0  0  0  0  0  0  0  0  0
    2.4689    0.1591   -0.1264 C   0  0  0  0  0  0  0  0  0  0  0  0
   -0.9717    2.0071    0.9765 C   0  0  0  0  0  0  0  0  0  0  0  0
    0.9719    2.0070   -0.9768 C   0  0  0  0  0  0  0  0  0  0  0  0
   -2.6493   -0.6902   -0.9336 C   0  0  0  0  0  0  0  0  0  0  0  0
    2.6495   -0.6897    0.9339 C   0  0  0  0  0  0  0  0  0  0  0  0
   -3.4750    0.5380    0.9760 C   0  0  0  0  0  0  0  0  0  0  0  0
    3.4748    0.5377   -0.9765 C   0  0  0  0  0  0  0  0  0  0  0  0
   -3.9286   -1.1971   -1.1611 C   0  0  0  0  0  0  0  0  0  0  0  0
    3.9290   -1.1966    1.1611 C   0  0  0  0  0  0  0  0  0  0  0  0
   -4.7545    0.0310    0.7486 C   0  0  0  0  0  0  0  0  0  0  0  0
    4.7542    0.0306   -0.7493 C   0  0  0  0  0  0  0  0  0  0  0  0
   -4.9813   -0.8366   -0.3199 C   0  0  0  0  0  0  0  0  0  0  0  0
    4.9812   -0.8365    0.3195 C   0  0  0  0  0  0  0  0  0  0  0  0
  1  4  2  0
  2  4  1  0
  2  5  1  0
  2  7  1  0
  3  4  1  0
  3  6  1  0
  3  8  1  0
  5  9  2  0
  5 11  1  0
  6 10  2  0
  6 12  1  0
  9 13  1  0
 10 14  1  0
 11 15  2  0
 12 16  2  0
 13 17  2  0
 14 18  2  0
 15 17  1  0
 16 18  1  0
M  END
>  <PUBCHEM_COMPOUND_CID>  (1) 
11917

>  <PUBCHEM_CONFORMER_RMSD>  (1) 
0.6

>  <PUBCHEM_CONFORMER_DIVERSEORDER>  (1) 
4
3
2
1
5
7
6

>  <PUBCHEM_MMFF94_PARTIAL_CHARGES>  (1) 
28
1 -0.57
10 -0.15
11 -0.15
12 -0.15
13 -0.15
14 -0.15
15 -0.15
16 -0.15
17 -0.15
18 -0.15
2 -0.48
25 0.15
26 0.15
27 0.15
28 0.15
29 0.15
3 -0.48
30 0.15
31 0.15
32 0.15
33 0.15
34 0.15
4 0.69
5 0.12
6 0.12
7 0.3
8 0.3
9 -0.15

>  <PUBCHEM_EFFECTIVE_ROTOR_COUNT>  (1) 
4

>  <PUBCHEM_PHARMACOPHORE_FEATURES>  (1) 
3
1 1 acceptor
6 5 9 11 13 15 17 rings
6 6 10 12 14 16 18 rings

>  <PUBCHEM_HEAVY_ATOM_COUNT>  (1) 
18

>  <PUBCHEM_ATOM_DEF_STEREO_COUNT>  (1) 
0

>  <PUBCHEM_ATOM_UDEF_STEREO_COUNT>  (1) 
0

>  <PUBCHEM_BOND_DEF_STEREO_COUNT>  (1) 
0

>  <PUBCHEM_BOND_UDEF_STEREO_COUNT>  (1) 
0

>  <PUBCHEM_ISOTOPIC_ATOM_COUNT>  (1) 
0

>  <PUBCHEM_COMPONENT_COUNT>  (1) 
1

>  <PUBCHEM_CACTVS_TAUTO_COUNT>  (1) 
1

>  <PUBCHEM_CONFORMER_ID>  (1) 
00002E8D00000004

>  <PUBCHEM_MMFF94_ENERGY>  (1) 
94.1109

>  <PUBCHEM_FEATURE_SELFOVERLAP>  (1) 
15.223

>  <PUBCHEM_SHAPE_FINGERPRINT>  (1) 
10062212 137 18341895208042577719
11045515 52 17603584127685290661
11045977 3 15913323606713356235
11046707 91 18273212006500113457
11132069 177 17632860815318312497
11287383 113 15430042075581289574
11471102 20 17458064872335378262
11578080 2 18266433508314593964
12236239 1 18410577283686392936
12553582 1 18410851062081657189
13134695 92 17894631482449347492
13167823 11 18410575088958267079
13288520 33 18131635581876850829
13583140 156 16701162076838584168
13675066 3 15769774662735684109
13690532 89 18334294270847572934
13760787 5 18187085061266936597
13862211 1 18410571786128630818
14993402 34 18260550034784117374
15375358 24 14405190564560080021
15788980 27 18113615673040431071
17349148 13 18410859862475129314
17834072 33 18341897411440064820
17862501 102 18343019982161515265
1798214 20 18187642505220009798
1813 80 18336554845342897484
18186145 218 18261387905610018901
18222031 100 18272363196049734821
200 152 18187081741267870137
20645477 70 17022900112881118442
21033648 29 16660633103144145685
21267235 1 18410583885051347746
21339142 126 18341330003310785029
221357 26 17022893563018776669
22646028 1 18410854364911566275
22646028 28 18410854360616670439
22854114 59 13902190391389225661
2297311 6 17489318472742752456
23175994 123 16877949334401195413
23366157 5 18054780960594876905
23402539 116 18342736299613896965
23557571 272 16988295195920027441
23559900 14 16988296287084145220
26918003 58 18040437689538708067
2871803 45 17313101917707749146
351380 3 18410575084663397218
465052 167 18261119590149735779
5104073 3 17845658191678013315
5281201 14 15936411130530429334
542803 24 18411141337446370342
573450 72 18202283598024238945
5924683 9 14835825336166348461
602551 16 17418087754377648910
9981440 41 17188397808124540497

>  <PUBCHEM_SHAPE_MULTIPOLES>  (1) 
354.6
11.05
1.52
1.17
0
0.58
0
-3.9
0
0
0
0
0.03
-1.46

>  <PUBCHEM_SHAPE_SELFOVERLAP>  (1) 
756.385

>  <PUBCHEM_SHAPE_VOLUME>  (1) 
196.8

>  <PUBCHEM_COORDINATE_TYPE>  (1) 
2
5
10

$$$$
