11921
     RDKit          3D

 11 11  0  0  0  0  0  0  0  0999 V2000
    1.5519    2.4318   -0.9286 Cl  0  0  0  0  0  0  0  0  0  0  0  0
    1.5050   -2.3273   -0.1575 O   0  0  0  0  0  0  0  0  0  0  0  0
    2.3075   -0.3370    0.3051 O   0  0  0  0  0  0  0  0  0  0  0  0
    1.3451   -1.1040    0.0662 N   0  0  0  0  0  0  0  0  0  0  0  0
   -0.2000    0.7862    0.2890 C   0  0  0  0  0  0  0  0  0  0  0  0
    0.0276   -0.5686    0.0478 C   0  0  0  0  0  0  0  0  0  0  0  0
   -1.5004    1.2902    0.2643 C   0  0  0  0  0  0  0  0  0  0  0  0
   -1.0452   -1.4195   -0.2182 C   0  0  0  0  0  0  0  0  0  0  0  0
    0.9274    1.7245    0.5769 C   0  0  0  0  0  0  0  0  0  0  0  0
   -2.5732    0.4393   -0.0018 C   0  0  0  0  0  0  0  0  0  0  0  0
   -2.3456   -0.9155   -0.2432 C   0  0  0  0  0  0  0  0  0  0  0  0
  1  9  1  0
  2  4  1  0
  3  4  2  0
  4  6  1  0
  5  6  2  0
  5  7  1  0
  5  9  1  0
  6  8  1  0
  7 10  2  0
  8 11  2  0
 10 11  1  0
M  CHG  2   2  -1   4   1
M  END
>  <PUBCHEM_COMPOUND_CID>  (1) 
11921

>  <PUBCHEM_CONFORMER_RMSD>  (1) 
0.4

>  <PUBCHEM_CONFORMER_DIVERSEORDER>  (1) 
1
3
2

>  <PUBCHEM_MMFF94_PARTIAL_CHARGES>  (1) 
15
1 -0.29
10 -0.15
11 -0.15
12 0.15
15 0.15
16 0.15
17 0.15
2 -0.52
3 -0.52
4 0.91
5 -0.14
6 0.13
7 -0.15
8 -0.15
9 0.43

>  <PUBCHEM_EFFECTIVE_ROTOR_COUNT>  (1) 
2

>  <PUBCHEM_PHARMACOPHORE_FEATURES>  (1) 
4
1 2 acceptor
1 2 anion
1 3 acceptor
6 5 6 7 8 10 11 rings

>  <PUBCHEM_HEAVY_ATOM_COUNT>  (1) 
11

>  <PUBCHEM_ATOM_DEF_STEREO_COUNT>  (1) 
0

>  <PUBCHEM_ATOM_UDEF_STEREO_COUNT>  (1) 
0

>  <PUBCHEM_BOND_DEF_STEREO_COUNT>  (1) 
0

>  <PUBCHEM_BOND_UDEF_STEREO_COUNT>  (1) 
0

>  <PUBCHEM_ISOTOPIC_ATOM_COUNT>  (1) 
0

>  <PUBCHEM_COMPONENT_COUNT>  (1) 
1

>  <PUBCHEM_CACTVS_TAUTO_COUNT>  (1) 
1

>  <PUBCHEM_CONFORMER_ID>  (1) 
00002E9100000001

>  <PUBCHEM_MMFF94_ENERGY>  (1) 
40.6905

>  <PUBCHEM_FEATURE_SELFOVERLAP>  (1) 
20.379

>  <PUBCHEM_SHAPE_FINGERPRINT>  (1) 
12423570 1 14527915187503639248
12524768 44 18055633919355513047
12716758 59 17474961298984078460
14128692 85 18272369784492584933
16945 1 18410856555545288873
18185500 45 18339361842593729403
193761 8 18339642342924035251
21040471 1 17763176243075267368
23552423 10 18409728503912636943
241688 4 17978229357237329914
2748010 2 18051972515638540343
528862 383 18189610716822454496
66348 1 17691686679994860259

>  <PUBCHEM_SHAPE_MULTIPOLES>  (1) 
211.52
3.15
2.46
0.75
0.42
0.86
-0.06
-0.9
-0.43
-1.08
-0.18
-0.21
-0.23
-0.39

>  <PUBCHEM_SHAPE_SELFOVERLAP>  (1) 
432.931

>  <PUBCHEM_SHAPE_VOLUME>  (1) 
123.5

>  <PUBCHEM_COORDINATE_TYPE>  (1) 
2
5
10

$$$$
