11924
     RDKit          3D

 16 17  0  0  0  0  0  0  0  0999 V2000
   -1.5933   -2.3160   -0.9445 O   0  0  0  0  0  0  0  0  0  0  0  0
   -2.6799   -2.2091    1.0490 O   0  0  0  0  0  0  0  0  0  0  0  0
    0.2500   -0.3206    1.1859 C   0  0  0  0  0  0  0  0  0  0  0  0
   -0.8262    0.4468    0.4890 C   0  0  0  0  0  0  0  0  0  0  0  0
    1.6079   -0.2080    0.5251 C   0  0  0  0  0  0  0  0  0  0  0  0
   -1.9548   -0.1954   -0.0202 C   0  0  0  0  0  0  0  0  0  0  0  0
   -0.6883    1.8280    0.3519 C   0  0  0  0  0  0  0  0  0  0  0  0
    2.4630    0.8095    0.9094 C   0  0  0  0  0  0  0  0  0  0  0  0
    1.9625   -1.1249   -0.4485 C   0  0  0  0  0  0  0  0  0  0  0  0
   -2.9456    0.5436   -0.6668 C   0  0  0  0  0  0  0  0  0  0  0  0
   -1.6791    2.5671   -0.2945 C   0  0  0  0  0  0  0  0  0  0  0  0
   -2.8077    1.9249   -0.8039 C   0  0  0  0  0  0  0  0  0  0  0  0
    3.7136    0.9135    0.3004 C   0  0  0  0  0  0  0  0  0  0  0  0
    3.2131   -1.0211   -1.0574 C   0  0  0  0  0  0  0  0  0  0  0  0
   -2.1238   -1.6365    0.1079 C   0  0  0  0  0  0  0  0  0  0  0  0
    4.0886   -0.0018   -0.6829 C   0  0  0  0  0  0  0  0  0  0  0  0
  1 15  1  0
  2 15  2  0
  3  4  1  0
  3  5  1  0
  4  6  2  0
  4  7  1  0
  5  8  2  0
  5  9  1  0
  6 10  1  0
  6 15  1  0
  7 11  2  0
  8 13  1  0
  9 14  2  0
 10 12  2  0
 11 12  1  0
 13 16  2  0
 14 16  1  0
M  END
>  <PUBCHEM_COMPOUND_CID>  (1) 
11924

>  <PUBCHEM_CONFORMER_RMSD>  (1) 
0.6

>  <PUBCHEM_CONFORMER_DIVERSEORDER>  (1) 
1
14
2
15
5
12
11
6
13
4
10
3
7
9
8

>  <PUBCHEM_MMFF94_PARTIAL_CHARGES>  (1) 
26
1 -0.65
10 -0.15
11 -0.15
12 -0.15
13 -0.15
14 -0.15
15 0.63
16 -0.15
19 0.15
2 -0.57
20 0.15
21 0.15
22 0.15
23 0.15
24 0.15
25 0.15
26 0.15
27 0.15
28 0.5
3 0.29
4 -0.14
5 -0.14
6 0.09
7 -0.15
8 -0.15
9 -0.15

>  <PUBCHEM_EFFECTIVE_ROTOR_COUNT>  (1) 
3

>  <PUBCHEM_PHARMACOPHORE_FEATURES>  (1) 
5
1 1 acceptor
1 2 acceptor
3 1 2 15 anion
6 4 6 7 10 11 12 rings
6 5 8 9 13 14 16 rings

>  <PUBCHEM_HEAVY_ATOM_COUNT>  (1) 
16

>  <PUBCHEM_ATOM_DEF_STEREO_COUNT>  (1) 
0

>  <PUBCHEM_ATOM_UDEF_STEREO_COUNT>  (1) 
0

>  <PUBCHEM_BOND_DEF_STEREO_COUNT>  (1) 
0

>  <PUBCHEM_BOND_UDEF_STEREO_COUNT>  (1) 
0

>  <PUBCHEM_ISOTOPIC_ATOM_COUNT>  (1) 
0

>  <PUBCHEM_COMPONENT_COUNT>  (1) 
1

>  <PUBCHEM_CACTVS_TAUTO_COUNT>  (1) 
1

>  <PUBCHEM_CONFORMER_ID>  (1) 
00002E9400000001

>  <PUBCHEM_MMFF94_ENERGY>  (1) 
51.0894

>  <PUBCHEM_FEATURE_SELFOVERLAP>  (1) 
25.43

>  <PUBCHEM_SHAPE_FINGERPRINT>  (1) 
10498660 4 18188763925545217053
10608611 8 18413665816592448864
11640471 11 17095519552680672204
12138202 97 18338508651624705997
12173636 292 18192142707671233133
12186901 62 18334586702407207599
12500047 106 18337387128527005908
13296908 3 18343303695058988066
13764800 53 18187652366596855441
15669948 3 18335127691992351986
15775835 57 17677050123035077828
16945 1 18334288734751006977
17134986 127 17686330967483451573
17357779 13 18056458772536454599
1741750 31 18265609896879556225
17844478 74 18342184413607181810
18186145 218 18126277545756408133
18534176 82 18411698768461839829
19422 9 12967130536363700032
19868273 293 18187645756473420564
200 152 16845567583139187884
20279233 1 18060692892961849066
20645476 183 17822853065949404051
20645477 56 18409166575998298064
20645477 70 17418094278706894966
20871999 31 18410004451519554621
21524375 3 17828197697372193849
22213442 358 18268428121201176608
22802520 49 18343304734361855002
23402539 116 18187077386956989456
23557571 272 18409732901959245528
23559900 14 18270396084787391802
25 1 17910956838046413717
2748010 2 18123169467055659617
4028521 119 18261668177684955861
576247 118 17899151673909759771
6049 1 18272373100502853792
81228 2 18408599288481121625
93112 12 18340207388932305900
9709674 26 18271524213080569830

>  <PUBCHEM_SHAPE_MULTIPOLES>  (1) 
317.53
6.39
2.41
1.08
4.64
0.18
-0.04
-0.45
1.49
-2.36
0.17
0.16
0.16
0.94

>  <PUBCHEM_SHAPE_SELFOVERLAP>  (1) 
686.608

>  <PUBCHEM_SHAPE_VOLUME>  (1) 
173.4

>  <PUBCHEM_COORDINATE_TYPE>  (1) 
2
5
10

$$$$
