11939
     RDKit          3D

 16 18  0  0  0  0  0  0  0  0999 V2000
   -1.3030   -0.5492   -0.0004 C   0  0  0  0  0  0  0  0  0  0  0  0
    1.3029    0.5493   -0.0001 C   0  0  0  0  0  0  0  0  0  0  0  0
   -1.1285    0.8520   -0.0003 C   0  0  0  0  0  0  0  0  0  0  0  0
    1.1284   -0.8520   -0.0004 C   0  0  0  0  0  0  0  0  0  0  0  0
   -0.1722   -1.3830   -0.0005 C   0  0  0  0  0  0  0  0  0  0  0  0
    0.1722    1.3831   -0.0001 C   0  0  0  0  0  0  0  0  0  0  0  0
   -2.6038   -1.0795   -0.0005 C   0  0  0  0  0  0  0  0  0  0  0  0
    2.6038    1.0795    0.0001 C   0  0  0  0  0  0  0  0  0  0  0  0
   -2.2596    1.6851   -0.0003 C   0  0  0  0  0  0  0  0  0  0  0  0
    2.2596   -1.6850   -0.0002 C   0  0  0  0  0  0  0  0  0  0  0  0
   -3.7166   -0.2382   -0.0006 C   0  0  0  0  0  0  0  0  0  0  0  0
    3.7166    0.2382    0.0002 C   0  0  0  0  0  0  0  0  0  0  0  0
   -3.5447    1.1423   -0.0005 C   0  0  0  0  0  0  0  0  0  0  0  0
    3.5447   -1.1423    0.0000 C   0  0  0  0  0  0  0  0  0  0  0  0
   -5.0904   -0.8190    0.0025 C   0  0  0  0  0  0  0  0  0  0  0  0
    5.0906    0.8187    0.0011 C   0  0  0  0  0  0  0  0  0  0  0  0
  1  3  1  0
  1  5  2  0
  1  7  1  0
  2  4  2  0
  2  6  1  0
  2  8  1  0
  3  6  2  0
  3  9  1  0
  4  5  1  0
  4 10  1  0
  7 11  2  0
  8 12  2  0
  9 13  2  0
 10 14  2  0
 11 13  1  0
 11 15  1  0
 12 14  1  0
 12 16  1  0
M  END
>  <PUBCHEM_COMPOUND_CID>  (1) 
11939

>  <PUBCHEM_CONFORMER_RMSD>  (1) 
0.4

>  <PUBCHEM_CONFORMER_DIVERSEORDER>  (1) 
1

>  <PUBCHEM_MMFF94_PARTIAL_CHARGES>  (1) 
20
10 -0.15
11 -0.14
12 -0.14
13 -0.15
14 -0.15
15 0.14
16 0.14
17 0.15
18 0.15
19 0.15
20 0.15
21 0.15
22 0.15
23 0.15
24 0.15
5 -0.15
6 -0.15
7 -0.15
8 -0.15
9 -0.15

>  <PUBCHEM_EFFECTIVE_ROTOR_COUNT>  (1) 
0

>  <PUBCHEM_PHARMACOPHORE_FEATURES>  (1) 
3
6 1 2 3 4 5 6 rings
6 1 3 7 9 11 13 rings
6 2 4 8 10 12 14 rings

>  <PUBCHEM_HEAVY_ATOM_COUNT>  (1) 
16

>  <PUBCHEM_ATOM_DEF_STEREO_COUNT>  (1) 
0

>  <PUBCHEM_ATOM_UDEF_STEREO_COUNT>  (1) 
0

>  <PUBCHEM_BOND_DEF_STEREO_COUNT>  (1) 
0

>  <PUBCHEM_BOND_UDEF_STEREO_COUNT>  (1) 
0

>  <PUBCHEM_ISOTOPIC_ATOM_COUNT>  (1) 
0

>  <PUBCHEM_COMPONENT_COUNT>  (1) 
1

>  <PUBCHEM_CACTVS_TAUTO_COUNT>  (1) 
1

>  <PUBCHEM_CONFORMER_ID>  (1) 
00002EA300000001

>  <PUBCHEM_MMFF94_ENERGY>  (1) 
49.1417

>  <PUBCHEM_FEATURE_SELFOVERLAP>  (1) 
15.274

>  <PUBCHEM_SHAPE_FINGERPRINT>  (1) 
10411042 1 15456494801460475405
10608611 8 18410570648041360228
10616163 171 18340488970856470279
10967382 1 18410574006642137862
11132069 177 18410007723852214656
11401426 45 18411415137348165093
11471102 20 18410571786444804246
11806522 49 18409166632075134743
12032990 46 18411704253129815063
13140716 1 18050286165285667169
13221675 6 18411136939405263942
13380535 76 18408887347463465602
13862211 1 18411131463422415655
14144814 61 18410855425768423546
14325111 11 18410575050377375456
15196674 1 18410575046008373253
15219456 202 18412263895895069550
15442244 35 18122624946817305458
15536298 74 18342176631426991782
16945 1 18338797934809710598
17802600 8 18411133649513173169
18186145 218 18114463349202946270
18522853 276 18411700993291854929
200 152 18201995534789268285
20510252 161 18272371927818682433
20645477 70 18342459193025602094
21029758 11 18341889706195084169
21267235 1 18410864256263732838
21501502 16 18338798892587430712
23402539 116 18411973693808655183
23402655 69 18341608183762509485
23463225 33 18408886204891070260
23559900 14 18125152732908827566
26918003 58 17967532406580255811
2748010 2 18338798914062254293
2871803 45 18334008380924212751
335352 9 17978228253420159422
34934 24 18410567392461327191
3545911 37 18410857672426715878
4214541 1 18410575046108905345
474 4 17313956354259766196
4990 188 18060430084181974076
5104073 3 18338798918357222344
537710 114 18411142454275257772
69090 78 18343579655208188839
7364860 26 18268430303277158712
77779 3 18411702049721810950
8809292 202 18187932828140983211
9709674 26 18410580569394909886

>  <PUBCHEM_SHAPE_MULTIPOLES>  (1) 
329.27
9.01
1.74
0.62
0
0
0
0
0
0
0
0
0
0

>  <PUBCHEM_SHAPE_SELFOVERLAP>  (1) 
737.444

>  <PUBCHEM_SHAPE_VOLUME>  (1) 
162.2

>  <PUBCHEM_COORDINATE_TYPE>  (1) 
2
5
10

$$$$
