1194
     RDKit          3D

  9  9  0  0  0  0  0  0  0  0999 V2000
   -2.2783   -0.1596    1.1510 O   0  0  0  0  0  0  0  0  0  0  0  0
   -2.3646    0.1066   -1.1313 O   0  0  0  0  0  0  0  0  0  0  0  0
    0.2587    1.1792    0.1260 N   0  0  0  0  0  0  0  0  0  0  0  0
    1.8868   -1.2013    0.2026 C   0  0  0  0  0  0  0  0  0  0  0  0
    2.4420    0.0828   -0.3862 C   0  0  0  0  0  0  0  0  0  0  0  0
    0.4066   -1.3032   -0.1123 C   0  0  0  0  0  0  0  0  0  0  0  0
    1.7161    1.2722    0.2236 C   0  0  0  0  0  0  0  0  0  0  0  0
   -0.2906    0.0243    0.0047 C   0  0  0  0  0  0  0  0  0  0  0  0
   -1.7767   -0.0009   -0.0780 C   0  0  0  0  0  0  0  0  0  0  0  0
  1  9  1  0
  2  9  2  0
  3  7  1  0
  3  8  2  0
  4  5  1  0
  4  6  1  0
  5  7  1  0
  6  8  1  0
  8  9  1  0
M  END
>  <PUBCHEM_COMPOUND_CID>  (1) 
1194

>  <PUBCHEM_CONFORMER_RMSD>  (1) 
0.4

>  <PUBCHEM_CONFORMER_DIVERSEORDER>  (1) 
1
2
3

>  <PUBCHEM_MMFF94_PARTIAL_CHARGES>  (1) 
8
1 -0.65
18 0.5
2 -0.57
3 -0.7
6 0.06
7 0.25
8 0.39
9 0.72

>  <PUBCHEM_EFFECTIVE_ROTOR_COUNT>  (1) 
1.8

>  <PUBCHEM_PHARMACOPHORE_FEATURES>  (1) 
5
1 1 acceptor
1 2 acceptor
1 3 acceptor
3 1 2 9 anion
6 3 4 5 6 7 8 rings

>  <PUBCHEM_HEAVY_ATOM_COUNT>  (1) 
9

>  <PUBCHEM_ATOM_DEF_STEREO_COUNT>  (1) 
0

>  <PUBCHEM_ATOM_UDEF_STEREO_COUNT>  (1) 
0

>  <PUBCHEM_BOND_DEF_STEREO_COUNT>  (1) 
0

>  <PUBCHEM_BOND_UDEF_STEREO_COUNT>  (1) 
0

>  <PUBCHEM_ISOTOPIC_ATOM_COUNT>  (1) 
0

>  <PUBCHEM_COMPONENT_COUNT>  (1) 
1

>  <PUBCHEM_CACTVS_TAUTO_COUNT>  (1) 
1

>  <PUBCHEM_CONFORMER_ID>  (1) 
000004AA00000001

>  <PUBCHEM_MMFF94_ENERGY>  (1) 
13.6377

>  <PUBCHEM_FEATURE_SELFOVERLAP>  (1) 
25.424

>  <PUBCHEM_SHAPE_FINGERPRINT>  (1) 
10857977 72 17386294306128824091
16945 1 18412263934855704218
18185500 45 18201433645123180262
21040471 1 18266457801033572716
23552423 10 18118973485928868190
29004967 10 18333737900789265560
5084963 1 18263645241388589791

>  <PUBCHEM_SHAPE_MULTIPOLES>  (1) 
168.5
3.45
1.3
0.85
0.82
0.03
0
-0.03
-0.16
-0.73
0.08
0.45
0.01
0.05

>  <PUBCHEM_SHAPE_SELFOVERLAP>  (1) 
336.524

>  <PUBCHEM_SHAPE_VOLUME>  (1) 
97.7

>  <PUBCHEM_COORDINATE_TYPE>  (1) 
2
5
10

$$$$
