11949
     RDKit          3D

 21 23  0  0  0  0  0  0  0  0999 V2000
    6.0211    0.2418    0.1540 N   0  0  0  0  0  0  0  0  0  0  0  0
   -0.0789   -0.3489    0.5218 N   0  0  0  0  0  0  0  0  0  0  0  0
    0.4891   -0.1943   -0.5848 N   0  0  0  0  0  0  0  0  0  0  0  0
   -3.6495    0.5922    0.1753 C   0  0  0  0  0  0  0  0  0  0  0  0
   -4.2366   -0.6790   -0.0304 C   0  0  0  0  0  0  0  0  0  0  0  0
    4.6279    0.1325   -0.0337 C   0  0  0  0  0  0  0  0  0  0  0  0
   -2.2602    0.6855    0.3580 C   0  0  0  0  0  0  0  0  0  0  0  0
   -1.4612   -0.4581    0.3382 C   0  0  0  0  0  0  0  0  0  0  0  0
   -3.4171   -1.8194   -0.0474 C   0  0  0  0  0  0  0  0  0  0  0  0
   -4.4690    1.7326    0.1922 C   0  0  0  0  0  0  0  0  0  0  0  0
   -5.6259   -0.7723   -0.2132 C   0  0  0  0  0  0  0  0  0  0  0  0
   -2.0386   -1.7081    0.1358 C   0  0  0  0  0  0  0  0  0  0  0  0
    4.0480   -1.1196   -0.2377 C   0  0  0  0  0  0  0  0  0  0  0  0
    3.8294    1.2760   -0.0139 C   0  0  0  0  0  0  0  0  0  0  0  0
    1.8781   -0.0842   -0.4008 C   0  0  0  0  0  0  0  0  0  0  0  0
    2.6695   -1.2283   -0.4216 C   0  0  0  0  0  0  0  0  0  0  0  0
    2.4510    1.1673   -0.1977 C   0  0  0  0  0  0  0  0  0  0  0  0
   -5.8475    1.6213    0.0088 C   0  0  0  0  0  0  0  0  0  0  0  0
   -6.4249    0.3713   -0.1935 C   0  0  0  0  0  0  0  0  0  0  0  0
    6.7661   -0.8390    0.7689 C   0  0  0  0  0  0  0  0  0  0  0  0
    6.7292    1.4306   -0.2781 C   0  0  0  0  0  0  0  0  0  0  0  0
  1  6  1  0
  1 20  1  0
  1 21  1  0
  2  3  2  0
  2  8  1  0
  3 15  1  0
  4  5  1  0
  4  7  2  0
  4 10  1  0
  5  9  2  0
  5 11  1  0
  6 13  2  0
  6 14  1  0
  7  8  1  0
  8 12  2  0
  9 12  1  0
 10 18  2  0
 11 19  2  0
 13 16  1  0
 14 17  2  0
 15 16  2  0
 15 17  1  0
 18 19  1  0
M  END
>  <PUBCHEM_COMPOUND_CID>  (1) 
11949

>  <PUBCHEM_CONFORMER_RMSD>  (1) 
0.6

>  <PUBCHEM_CONFORMER_DIVERSEORDER>  (1) 
1
2
6
5
3
4

>  <PUBCHEM_MMFF94_PARTIAL_CHARGES>  (1) 
30
1 -0.84
10 -0.15
11 -0.15
12 -0.15
13 -0.15
14 -0.15
15 0.18
16 -0.15
17 -0.15
18 -0.15
19 -0.15
2 -0.18
20 0.37
21 0.37
22 0.15
23 0.15
24 0.15
25 0.15
26 0.15
27 0.15
28 0.15
29 0.15
3 -0.18
30 0.15
31 0.15
32 0.15
6 0.1
7 -0.15
8 0.18
9 -0.15

>  <PUBCHEM_EFFECTIVE_ROTOR_COUNT>  (1) 
3

>  <PUBCHEM_PHARMACOPHORE_FEATURES>  (1) 
4
1 1 cation
6 4 5 10 11 18 19 rings
6 4 5 7 8 9 12 rings
6 6 13 14 15 16 17 rings

>  <PUBCHEM_HEAVY_ATOM_COUNT>  (1) 
21

>  <PUBCHEM_ATOM_DEF_STEREO_COUNT>  (1) 
0

>  <PUBCHEM_ATOM_UDEF_STEREO_COUNT>  (1) 
0

>  <PUBCHEM_BOND_DEF_STEREO_COUNT>  (1) 
0

>  <PUBCHEM_BOND_UDEF_STEREO_COUNT>  (1) 
0

>  <PUBCHEM_ISOTOPIC_ATOM_COUNT>  (1) 
0

>  <PUBCHEM_COMPONENT_COUNT>  (1) 
1

>  <PUBCHEM_CACTVS_TAUTO_COUNT>  (1) 
1

>  <PUBCHEM_CONFORMER_ID>  (1) 
00002EAD00000001

>  <PUBCHEM_MMFF94_ENERGY>  (1) 
77.021

>  <PUBCHEM_FEATURE_SELFOVERLAP>  (1) 
20.324

>  <PUBCHEM_SHAPE_FINGERPRINT>  (1) 
10 15 18260272961874637152
10087517 78 18408321060479094325
10366900 7 14979959163941910422
10411042 1 17978792643428314999
10595046 47 18413670206059301975
10968037 39 18202283615383469167
11089746 13 18411695499907325116
11315181 36 18260550052233050753
11719270 70 18059855039759649798
117890 112 18410294709546188196
12091667 2 18412263952294211651
12107183 9 17761775061629345146
12166972 35 18409450323044727112
12236239 1 18186519916622273658
12516196 113 17561363984942679616
12596602 18 16226057729166993433
12616971 3 14634878577746466442
13073987 5 18335986380931172491
13167372 99 18409167693085362400
13533116 47 17417533510539415614
13668630 136 15626224641111949285
1420 363 9727631708926810116
14251764 18 18260829315095797804
14933364 13 18411421717370184680
15183329 4 18411419492492625624
15461852 350 17703506691917925156
19489759 90 18413388743993782611
200 152 17489870427743237979
20281389 69 18186518800041877860
20511986 3 18340193150947005498
20645477 56 18409449185373460241
21130935 74 18407757041353071274
21150785 3 15195559117613668737
21315763 129 18412262865161187509
21315763 28 18410291423659024750
23402539 116 18413666916135433021
23536379 177 18408603651925086714
23559900 14 18272646887356313857
23569943 247 16879333520898912298
300161 21 18411980256307738526
3004659 81 18408888413047592298
34797466 226 17632025233868560412
351380 180 18412827984289202301
3545911 37 18413953888206091080
4073 2 18041002890488009514
4214541 1 18411139143087340725
4325135 7 18201998842056491877
5104073 3 18336550502998930208
5283173 99 18342175523283673401
542803 24 17603589637953659862
559249 180 18408882932147466563
59755656 215 18341336608996795494
59755656 520 17240481425087625171
6327066 14 18044931269889287205
6328613 192 18188497977323563868
67856867 119 18264490757372777700
9965369 4 18335416837817602618

>  <PUBCHEM_SHAPE_MULTIPOLES>  (1) 
417.23
18.81
1.73
0.7
10.11
0.03
0.01
4.13
0.52
-0.79
-0.01
0.21
-0.03
-0.37

>  <PUBCHEM_SHAPE_SELFOVERLAP>  (1) 
911.218

>  <PUBCHEM_SHAPE_VOLUME>  (1) 
228.4

>  <PUBCHEM_COORDINATE_TYPE>  (1) 
2
5
10

$$$$
