11951
     RDKit          3D

 12 13  0  0  0  0  0  0  0  0999 V2000
    3.6547   -1.1672    0.0004 N   0  0  0  0  0  0  0  0  0  0  0  0
   -3.6547   -1.1673   -0.0004 N   0  0  0  0  0  0  0  0  0  0  0  0
   -0.0001   -0.4741    0.0000 C   0  0  0  0  0  0  0  0  0  0  0  0
    0.0000    0.9411    0.0000 C   0  0  0  0  0  0  0  0  0  0  0  0
    1.2250   -1.1610   -0.0001 C   0  0  0  0  0  0  0  0  0  0  0  0
   -1.2250   -1.1609    0.0001 C   0  0  0  0  0  0  0  0  0  0  0  0
    1.2250    1.6278   -0.0001 C   0  0  0  0  0  0  0  0  0  0  0  0
   -1.2251    1.6279    0.0002 C   0  0  0  0  0  0  0  0  0  0  0  0
    2.4327   -0.4624   -0.0003 C   0  0  0  0  0  0  0  0  0  0  0  0
   -2.4326   -0.4625    0.0002 C   0  0  0  0  0  0  0  0  0  0  0  0
    2.4327    0.9293   -0.0003 C   0  0  0  0  0  0  0  0  0  0  0  0
   -2.4327    0.9293    0.0002 C   0  0  0  0  0  0  0  0  0  0  0  0
  1  9  1  0
  2 10  1  0
  3  4  1  0
  3  5  2  0
  3  6  1  0
  4  7  2  0
  4  8  1  0
  5  9  1  0
  6 10  2  0
  7 11  1  0
  8 12  2  0
  9 11  2  0
 10 12  1  0
M  END
>  <PUBCHEM_COMPOUND_CID>  (1) 
11951

>  <PUBCHEM_CONFORMER_RMSD>  (1) 
0.4

>  <PUBCHEM_CONFORMER_DIVERSEORDER>  (1) 
1

>  <PUBCHEM_MMFF94_PARTIAL_CHARGES>  (1) 
20
1 -0.9
10 0.1
11 -0.15
12 -0.15
13 0.15
14 0.15
15 0.15
16 0.15
17 0.15
18 0.15
19 0.4
2 -0.9
20 0.4
21 0.4
22 0.4
5 -0.15
6 -0.15
7 -0.15
8 -0.15
9 0.1

>  <PUBCHEM_EFFECTIVE_ROTOR_COUNT>  (1) 
0

>  <PUBCHEM_PHARMACOPHORE_FEATURES>  (1) 
6
1 1 cation
1 1 donor
1 2 cation
1 2 donor
6 3 4 5 7 9 11 rings
6 3 4 6 8 10 12 rings

>  <PUBCHEM_HEAVY_ATOM_COUNT>  (1) 
12

>  <PUBCHEM_ATOM_DEF_STEREO_COUNT>  (1) 
0

>  <PUBCHEM_ATOM_UDEF_STEREO_COUNT>  (1) 
0

>  <PUBCHEM_BOND_DEF_STEREO_COUNT>  (1) 
0

>  <PUBCHEM_BOND_UDEF_STEREO_COUNT>  (1) 
0

>  <PUBCHEM_ISOTOPIC_ATOM_COUNT>  (1) 
0

>  <PUBCHEM_COMPONENT_COUNT>  (1) 
1

>  <PUBCHEM_CACTVS_TAUTO_COUNT>  (1) 
1

>  <PUBCHEM_CONFORMER_ID>  (1) 
00002EAF00000001

>  <PUBCHEM_MMFF94_ENERGY>  (1) 
54.394

>  <PUBCHEM_FEATURE_SELFOVERLAP>  (1) 
30.472

>  <PUBCHEM_SHAPE_FINGERPRINT>  (1) 
10967382 1 18266458895880955078
11206711 2 18335139752323881389
11471102 20 18410288151252394653
11769659 78 18410852161593408391
12032990 46 18410579482709888835
14128692 85 18411141328972629764
14325111 11 18410856568240572480
16945 1 18410856559639854532
17844478 74 18113625607568857449
19973954 147 18410857663446676960
200 152 18059844074448933127
20201158 50 18411698746923849287
20645477 70 18411414051244185655
20871998 184 18130222666411723863
20871998 22 18271816661667345982
21501502 16 18410862061498501797
21501925 9 18337942463566610906
23402655 69 18267849611568017437
23463225 33 18409167680047141926
23552423 10 18260831518102888172
23559900 14 18053660279790443918
2748010 2 18410849962575609620
369184 2 18343018895656244961
5084963 1 18342739615275966945
528886 8 18339073766225904649
7364860 26 18270400624135521240
8809292 202 18187933910182721387

>  <PUBCHEM_SHAPE_MULTIPOLES>  (1) 
236.99
4.94
1.76
0.6
0
0.33
0
-1.65
0
0
0
0
0.02
0

>  <PUBCHEM_SHAPE_SELFOVERLAP>  (1) 
520.808

>  <PUBCHEM_SHAPE_VOLUME>  (1) 
128.7

>  <PUBCHEM_COORDINATE_TYPE>  (1) 
2
5
10

$$$$
