11967
     RDKit          3D

 13 13  0  0  0  0  0  0  0  0999 V2000
    4.9666   -0.1622   -0.7641 F   0  0  0  0  0  0  0  0  0  0  0  0
    0.9002    0.1581    0.1237 O   0  0  0  0  0  0  0  0  0  0  0  0
    0.2066   -2.0369    0.1234 O   0  0  0  0  0  0  0  0  0  0  0  0
    3.1607    0.9678    0.2192 C   0  0  0  0  0  0  0  0  0  0  0  0
    2.2664   -0.2637    0.1949 C   0  0  0  0  0  0  0  0  0  0  0  0
    4.6289    0.5984    0.3108 C   0  0  0  0  0  0  0  0  0  0  0  0
   -1.3923   -0.2712    0.0198 C   0  0  0  0  0  0  0  0  0  0  0  0
   -0.0501   -0.8259    0.0932 C   0  0  0  0  0  0  0  0  0  0  0  0
   -2.4972   -1.1217   -0.0215 C   0  0  0  0  0  0  0  0  0  0  0  0
   -1.5751    1.1114   -0.0088 C   0  0  0  0  0  0  0  0  0  0  0  0
   -3.7847   -0.5898   -0.0917 C   0  0  0  0  0  0  0  0  0  0  0  0
   -2.8627    1.6432   -0.0788 C   0  0  0  0  0  0  0  0  0  0  0  0
   -3.9675    0.7926   -0.1202 C   0  0  0  0  0  0  0  0  0  0  0  0
  1  6  1  0
  2  5  1  0
  2  8  1  0
  3  8  2  0
  4  5  1  0
  4  6  1  0
  7  8  1  0
  7  9  2  0
  7 10  1  0
  9 11  1  0
 10 12  2  0
 11 13  2  0
 12 13  1  0
M  END
>  <PUBCHEM_COMPOUND_CID>  (1) 
11967

>  <PUBCHEM_CONFORMER_RMSD>  (1) 
0.6

>  <PUBCHEM_CONFORMER_DIVERSEORDER>  (1) 
1
58
75
76
35
81
73
6
31
72
49
82
78
56
39
7
20
80
71
84
38
57
47
77
23
74
51
25
68
22
2
69
64
29
83
42
48
53
60
43
62
59
37
65
63
16
70
54
30
24
44
4
15
61
17
3
79
32
50
11
52
66
21
45
46
55
9
67
36
14
26
41
5
18
34
40
27
19
33
28
13
12
8
10

>  <PUBCHEM_MMFF94_PARTIAL_CHARGES>  (1) 
17
1 -0.34
10 -0.15
11 -0.15
12 -0.15
13 -0.15
2 -0.43
20 0.15
21 0.15
22 0.15
23 0.15
24 0.15
3 -0.57
5 0.28
6 0.34
7 0.09
8 0.63
9 -0.15

>  <PUBCHEM_EFFECTIVE_ROTOR_COUNT>  (1) 
5

>  <PUBCHEM_PHARMACOPHORE_FEATURES>  (1) 
2
1 3 acceptor
6 7 9 10 11 12 13 rings

>  <PUBCHEM_HEAVY_ATOM_COUNT>  (1) 
13

>  <PUBCHEM_ATOM_DEF_STEREO_COUNT>  (1) 
0

>  <PUBCHEM_ATOM_UDEF_STEREO_COUNT>  (1) 
0

>  <PUBCHEM_BOND_DEF_STEREO_COUNT>  (1) 
0

>  <PUBCHEM_BOND_UDEF_STEREO_COUNT>  (1) 
0

>  <PUBCHEM_ISOTOPIC_ATOM_COUNT>  (1) 
0

>  <PUBCHEM_COMPONENT_COUNT>  (1) 
1

>  <PUBCHEM_CACTVS_TAUTO_COUNT>  (1) 
1

>  <PUBCHEM_CONFORMER_ID>  (1) 
00002EBF00000001

>  <PUBCHEM_MMFF94_ENERGY>  (1) 
27.2092

>  <PUBCHEM_FEATURE_SELFOVERLAP>  (1) 
10.148

>  <PUBCHEM_SHAPE_FINGERPRINT>  (1) 
10922049 32 18341896294384726926
11132069 177 18334293167109783605
12346645 44 18408319960703118195
13081056 2 18342738541824429608
13214271 11 18334012800798819351
14325111 11 18410290298277158618
15775835 57 18335137574738564736
18186145 218 17989486333682114936
1986462 14 18413392038022799540
200 152 16702302355889693488
20300324 65 18201997759318635453
20645477 56 18270395118055785928
20645477 70 17203621367750958870
21524375 3 18408602565245717090
23402539 116 18342449370081435620
23557571 272 18130795581005698439
23559900 14 18202281421013961608
366044 4 18409447003071443426
4990 188 18131356293492252582
6430166 295 18409443679162141816
7364860 26 18196933266690100927

>  <PUBCHEM_SHAPE_MULTIPOLES>  (1) 
248.52
9.01
1.53
0.64
9.14
0.14
0.01
-2.16
0.73
-0.85
-0.03
0.17
-0.01
0.16

>  <PUBCHEM_SHAPE_SELFOVERLAP>  (1) 
506.368

>  <PUBCHEM_SHAPE_VOLUME>  (1) 
144.3

>  <PUBCHEM_COORDINATE_TYPE>  (1) 
2
5
10

$$$$
