11962
     RDKit          3D

 16 17  0  0  0  0  0  0  0  0999 V2000
    0.0261    0.5027    0.4076 O   0  0  0  0  0  0  0  0  0  0  0  0
   -0.2704   -1.2960   -1.0459 O   0  0  0  0  0  0  0  0  0  0  0  0
    4.1250   -0.0145    0.0068 C   0  0  0  0  0  0  0  0  0  0  0  0
    1.4060    0.3285    0.2716 C   0  0  0  0  0  0  0  0  0  0  0  0
    3.4315   -0.6899    1.0110 C   0  0  0  0  0  0  0  0  0  0  0  0
    3.4410    0.8347   -0.8633 C   0  0  0  0  0  0  0  0  0  0  0  0
    2.0539   -0.5161    1.1451 C   0  0  0  0  0  0  0  0  0  0  0  0
    2.0635    1.0084   -0.7290 C   0  0  0  0  0  0  0  0  0  0  0  0
   -2.1594   -0.1582   -0.1387 C   0  0  0  0  0  0  0  0  0  0  0  0
    5.5974   -0.2008   -0.1376 C   0  0  0  0  0  0  0  0  0  0  0  0
   -0.7381   -0.3997   -0.3292 C   0  0  0  0  0  0  0  0  0  0  0  0
   -3.0635   -1.2175   -0.2152 C   0  0  0  0  0  0  0  0  0  0  0  0
   -2.6185    1.1332    0.1204 C   0  0  0  0  0  0  0  0  0  0  0  0
   -4.4268   -0.9856   -0.0328 C   0  0  0  0  0  0  0  0  0  0  0  0
   -3.9818    1.3652    0.3029 C   0  0  0  0  0  0  0  0  0  0  0  0
   -4.8859    0.3057    0.2263 C   0  0  0  0  0  0  0  0  0  0  0  0
  1  4  1  0
  1 11  1  0
  2 11  2  0
  3  5  2  0
  3  6  1  0
  3 10  1  0
  4  7  2  0
  4  8  1  0
  5  7  1  0
  6  8  2  0
  9 11  1  0
  9 12  2  0
  9 13  1  0
 12 14  1  0
 13 15  2  0
 14 16  2  0
 15 16  1  0
M  END
>  <PUBCHEM_COMPOUND_CID>  (1) 
11962

>  <PUBCHEM_CONFORMER_RMSD>  (1) 
0.6

>  <PUBCHEM_CONFORMER_DIVERSEORDER>  (1) 
1
20
18
9
15
13
2
14
11
5
3
12
19
7
17
16
10
4
8
6

>  <PUBCHEM_MMFF94_PARTIAL_CHARGES>  (1) 
25
1 -0.23
10 0.14
11 0.63
12 -0.15
13 -0.15
14 -0.15
15 -0.15
16 -0.15
17 0.15
18 0.15
19 0.15
2 -0.57
20 0.15
24 0.15
25 0.15
26 0.15
27 0.15
28 0.15
3 -0.14
4 0.08
5 -0.15
6 -0.15
7 -0.15
8 -0.15
9 0.09

>  <PUBCHEM_EFFECTIVE_ROTOR_COUNT>  (1) 
3

>  <PUBCHEM_PHARMACOPHORE_FEATURES>  (1) 
3
1 2 acceptor
6 3 4 5 6 7 8 rings
6 9 12 13 14 15 16 rings

>  <PUBCHEM_HEAVY_ATOM_COUNT>  (1) 
16

>  <PUBCHEM_ATOM_DEF_STEREO_COUNT>  (1) 
0

>  <PUBCHEM_ATOM_UDEF_STEREO_COUNT>  (1) 
0

>  <PUBCHEM_BOND_DEF_STEREO_COUNT>  (1) 
0

>  <PUBCHEM_BOND_UDEF_STEREO_COUNT>  (1) 
0

>  <PUBCHEM_ISOTOPIC_ATOM_COUNT>  (1) 
0

>  <PUBCHEM_COMPONENT_COUNT>  (1) 
1

>  <PUBCHEM_CACTVS_TAUTO_COUNT>  (1) 
1

>  <PUBCHEM_CONFORMER_ID>  (1) 
00002EBA00000001

>  <PUBCHEM_MMFF94_ENERGY>  (1) 
52.8629

>  <PUBCHEM_FEATURE_SELFOVERLAP>  (1) 
15.223

>  <PUBCHEM_SHAPE_FINGERPRINT>  (1) 
10354089 29 17967818236458638576
10366900 7 16153426159852014609
10616163 171 18335703892158050859
11471102 20 17240201045527638084
11615757 297 17676485068436742821
12107183 9 17539961780522825281
12236239 1 18334576837099463136
12251169 10 18333449837612284557
12346177 29 16988550355800661207
12670546 56 18333444361202207405
128620 24 11963390734568400842
13167823 11 18260829310590061339
13675066 3 17989202659487112398
13760787 19 18334011687943594259
14123238 8 18113336410008788016
14386348 63 16845857896931669028
17804303 29 18201999967063739985
17834072 33 18113620118168065006
18186145 218 17676482869592711752
19026448 5 18186519912511805697
19422 9 18260547839755161690
200 152 17748823025170850721
20233049 118 18202562873883054000
20279233 1 16487258780723213389
20645477 70 15936955363095528746
21267235 1 18334303075509508731
22646028 1 18260826012054937577
22854114 59 16515402971269512784
2297311 6 18130796658931940529
23048698 100 17894348882396621137
23402539 116 17561358482999973989
23402655 69 17749102258005983860
23559900 14 17346598591240733944
26918003 58 16515406270094722041
300161 21 18187638107057551657
3545911 37 18341896268793920311
42 15 18410854356474599522
4214541 1 18408885131312938893
474 4 17533503584566763348
4990 188 18342464733522409582
5104073 3 18336828683725383256
522135 26 17821727234830603506
542803 24 18408605863754155124
573450 72 18410285900610449347
77779 3 18260548930787585697
8272917 22 18114463344755225674

>  <PUBCHEM_SHAPE_MULTIPOLES>  (1) 
317.53
11.18
1.25
0.92
1.37
0.07
0.03
0.01
0.35
-0.74
-0.07
0.44
-0.09
-0.83

>  <PUBCHEM_SHAPE_SELFOVERLAP>  (1) 
684.677

>  <PUBCHEM_SHAPE_VOLUME>  (1) 
172.9

>  <PUBCHEM_COORDINATE_TYPE>  (1) 
2
5
10

$$$$
