11964
     RDKit          3D

 18 18  0  0  0  0  0  0  0  0999 V2000
    0.8129   -0.4084   -0.0329 O   0  0  0  0  0  0  0  0  0  0  0  0
    1.8881   -2.4247   -0.3124 O   0  0  0  0  0  0  0  0  0  0  0  0
   -2.8606   -0.6260   -0.0285 N   0  0  0  0  0  0  0  0  0  0  0  0
    6.6736    1.8055    0.1780 N   0  0  0  0  0  0  0  0  0  0  0  0
   -5.2873   -0.2839    0.0004 C   0  0  0  0  0  0  0  0  0  0  0  0
   -6.4073    0.7554    0.0860 C   0  0  0  0  0  0  0  0  0  0  0  0
   -3.9126    0.3783    0.0753 C   0  0  0  0  0  0  0  0  0  0  0  0
   -7.7846    0.0936    0.0471 C   0  0  0  0  0  0  0  0  0  0  0  0
   -1.5440   -0.0094    0.0520 C   0  0  0  0  0  0  0  0  0  0  0  0
   -8.9000    1.1255    0.0984 C   0  0  0  0  0  0  0  0  0  0  0  0
   -0.4512   -1.0552   -0.1004 C   0  0  0  0  0  0  0  0  0  0  0  0
    3.1562   -0.4207   -0.0653 C   0  0  0  0  0  0  0  0  0  0  0  0
    1.9042   -1.2139   -0.1536 C   0  0  0  0  0  0  0  0  0  0  0  0
    4.2884   -1.0168    0.4514 C   0  0  0  0  0  0  0  0  0  0  0  0
    3.1494    0.8877   -0.5037 C   0  0  0  0  0  0  0  0  0  0  0  0
    5.4838    1.0526    0.0967 C   0  0  0  0  0  0  0  0  0  0  0  0
    5.4649   -0.2720    0.5333 C   0  0  0  0  0  0  0  0  0  0  0  0
    4.3260    1.6324   -0.4218 C   0  0  0  0  0  0  0  0  0  0  0  0
  1 11  1  0
  1 13  1  0
  2 13  2  0
  3  7  1  0
  3  9  1  0
  4 16  1  0
  5  6  1  0
  5  7  1  0
  6  8  1  0
  8 10  1  0
  9 11  1  0
 12 13  1  0
 12 14  2  0
 12 15  1  0
 14 17  1  0
 15 18  2  0
 16 17  2  0
 16 18  1  0
M  END
>  <PUBCHEM_COMPOUND_CID>  (1) 
11964

>  <PUBCHEM_CONFORMER_RMSD>  (1) 
1

>  <PUBCHEM_CONFORMER_DIVERSEORDER>  (1) 
1
270
210
69
31
147
95
2
37
118
358
63
500
244
10
182
190
5
258
455
179
208
68
127
4
136
212
290
181
32
11
74
362
225
461
28
81
121
112
115
8
318
255
138
96
47
175
25
437
43
144
29
58
186
223
17
50
433
336
293
14
300
380
110
12
296
35
161
119
334
124
22
34
59
166

>  <PUBCHEM_MMFF94_PARTIAL_CHARGES>  (1) 
21
1 -0.43
11 0.28
12 0.09
13 0.63
14 -0.15
15 -0.15
16 0.1
17 -0.15
18 -0.15
2 -0.57
27 0.36
3 -0.9
35 0.15
36 0.15
37 0.15
38 0.15
39 0.4
4 -0.9
40 0.4
7 0.27
9 0.27

>  <PUBCHEM_EFFECTIVE_ROTOR_COUNT>  (1) 
9

>  <PUBCHEM_PHARMACOPHORE_FEATURES>  (1) 
7
1 10 hydrophobe
1 2 acceptor
1 3 cation
1 3 donor
1 4 cation
1 4 donor
6 12 14 15 16 17 18 rings

>  <PUBCHEM_HEAVY_ATOM_COUNT>  (1) 
18

>  <PUBCHEM_ATOM_DEF_STEREO_COUNT>  (1) 
0

>  <PUBCHEM_ATOM_UDEF_STEREO_COUNT>  (1) 
0

>  <PUBCHEM_BOND_DEF_STEREO_COUNT>  (1) 
0

>  <PUBCHEM_BOND_UDEF_STEREO_COUNT>  (1) 
0

>  <PUBCHEM_ISOTOPIC_ATOM_COUNT>  (1) 
0

>  <PUBCHEM_COMPONENT_COUNT>  (1) 
1

>  <PUBCHEM_CACTVS_TAUTO_COUNT>  (1) 
2

>  <PUBCHEM_CONFORMER_ID>  (1) 
00002EBC00000001

>  <PUBCHEM_MMFF94_ENERGY>  (1) 
34.023

>  <PUBCHEM_FEATURE_SELFOVERLAP>  (1) 
35.52

>  <PUBCHEM_SHAPE_FINGERPRINT>  (1) 
10354089 29 18113336423336762580
10411042 1 17977946779573453538
106641 1 12829489277442730756
10688039 33 17385720275229059708
11315181 36 18201721748721870017
11638347 137 16877657942081001051
11724838 91 18261673765853957375
125118 31 18113903728472035645
13073987 5 16950835896187963021
13167372 99 18338798914257835825
13668630 136 9079119960014148937
13685833 64 9511461126200155311
13885169 127 9439413419768163195
14123256 10 17918275346792407361
14251764 18 18410011048932335821
14251764 46 18202845448793157962
14429380 56 18336536197217526861
14461889 52 18113905996172466339
14729087 3 17749384837976232469
15048467 5 18341894099925126093
15475509 35 16009293320499400754
155225 1 18342457062278821913
15690457 1 11458426856144704209
19427546 62 18408888464160614022
20157964 124 18410293588291055858
20281389 69 18186518783357672941
20735858 18 15068620492008361017
21130983 4 18342459236201536977
21150785 3 16056880239283549721
220451 1 16773792577134046119
221357 26 11095885955990090755
2215653 11 11455888062083624781
22224240 67 17821728338996310771
246663 6 11167942476971665613
300161 21 18410292510918896327
33532 11 9583519811387136373
4073 2 18186806911096768443
4325135 7 18343864407672077861
4340502 62 17385724681907547171
465052 167 7925910391739477080
59682541 35 18186524336971919969
59682541 52 17274840034337850740
6025842 7 18202285758129831222
6438161 24 13326580614432054524
67123 10 18411418407311064669

>  <PUBCHEM_SHAPE_MULTIPOLES>  (1) 
348.73
23.62
1.63
0.66
45.37
0.14
0
-11.36
2.09
-2.3
-0.12
-0.21
-0.01
-0.25

>  <PUBCHEM_SHAPE_SELFOVERLAP>  (1) 
693.244

>  <PUBCHEM_SHAPE_VOLUME>  (1) 
207.7

>  <PUBCHEM_COORDINATE_TYPE>  (1) 
2
5
10

$$$$
