11984
     RDKit          3D

 10 11  0  0  0  0  0  0  0  0999 V2000
    1.1835    1.1001   -0.0001 N   0  0  0  0  0  0  0  0  0  0  0  0
    1.2296   -1.1221    0.0001 N   0  0  0  0  0  0  0  0  0  0  0  0
   -0.1303    0.7067   -0.0001 C   0  0  0  0  0  0  0  0  0  0  0  0
   -0.0749   -0.6844    0.0000 C   0  0  0  0  0  0  0  0  0  0  0  0
    1.9568   -0.0273    0.0001 C   0  0  0  0  0  0  0  0  0  0  0  0
   -1.3258    1.4261    0.0000 C   0  0  0  0  0  0  0  0  0  0  0  0
   -1.2736   -1.4175   -0.0001 C   0  0  0  0  0  0  0  0  0  0  0  0
    3.4294    0.0539    0.0000 C   0  0  0  0  0  0  0  0  0  0  0  0
   -2.5092    0.6805    0.0002 C   0  0  0  0  0  0  0  0  0  0  0  0
   -2.4857   -0.7161    0.0000 C   0  0  0  0  0  0  0  0  0  0  0  0
  1  3  1  0
  1  5  1  0
  2  4  1  0
  2  5  2  0
  3  4  2  0
  3  6  1  0
  4  7  1  0
  5  8  1  0
  6  9  2  0
  7 10  2  0
  9 10  1  0
M  END
>  <PUBCHEM_COMPOUND_CID>  (1) 
11984

>  <PUBCHEM_CONFORMER_RMSD>  (1) 
0.4

>  <PUBCHEM_CONFORMER_DIVERSEORDER>  (1) 
1

>  <PUBCHEM_MMFF94_PARTIAL_CHARGES>  (1) 
15
1 0.03
10 -0.15
11 0.27
12 0.15
13 0.15
17 0.15
18 0.15
2 -0.57
3 -0.15
4 0.23
5 0.01
6 -0.15
7 -0.15
8 0.18
9 -0.15

>  <PUBCHEM_EFFECTIVE_ROTOR_COUNT>  (1) 
0

>  <PUBCHEM_PHARMACOPHORE_FEATURES>  (1) 
4
1 1 donor
3 1 2 5 cation
5 1 2 3 4 5 rings
6 3 4 6 7 9 10 rings

>  <PUBCHEM_HEAVY_ATOM_COUNT>  (1) 
10

>  <PUBCHEM_ATOM_DEF_STEREO_COUNT>  (1) 
0

>  <PUBCHEM_ATOM_UDEF_STEREO_COUNT>  (1) 
0

>  <PUBCHEM_BOND_DEF_STEREO_COUNT>  (1) 
0

>  <PUBCHEM_BOND_UDEF_STEREO_COUNT>  (1) 
0

>  <PUBCHEM_ISOTOPIC_ATOM_COUNT>  (1) 
0

>  <PUBCHEM_COMPONENT_COUNT>  (1) 
1

>  <PUBCHEM_CACTVS_TAUTO_COUNT>  (1) 
1

>  <PUBCHEM_CONFORMER_ID>  (1) 
00002ED000000001

>  <PUBCHEM_MMFF94_ENERGY>  (1) 
14.5861

>  <PUBCHEM_FEATURE_SELFOVERLAP>  (1) 
20.404

>  <PUBCHEM_SHAPE_FINGERPRINT>  (1) 
10857977 72 18340195388339961408
12897270 3 18411135848504552925
13024252 1 15719392832617379009
14325111 11 18410856547108425988
16945 1 18410575089052991751
193761 8 17401767423881248645
20871998 184 18201724015125192111
21040471 1 18338797793118085285
23235685 24 18340482279465740745
23402655 69 18196353837912542605
23552423 10 18188490305941662990
2748010 2 18050846916316065941
29004967 10 18411704300300576427
369184 2 18410289203055216899
5084963 1 18272089430528673457
528886 8 18411132520100051387
6333449 129 18342172267275904413

>  <PUBCHEM_SHAPE_MULTIPOLES>  (1) 
195.83
4.13
1.43
0.6
2.16
0
0
-0.05
0
-0.55
0
-0.02
0
0

>  <PUBCHEM_SHAPE_SELFOVERLAP>  (1) 
428.375

>  <PUBCHEM_SHAPE_VOLUME>  (1) 
109.2

>  <PUBCHEM_COORDINATE_TYPE>  (1) 
2
5
10

$$$$
