11986
     RDKit          3D

 10 11  0  0  0  0  0  0  0  0999 V2000
   -3.6124   -0.0244    0.0000 Cl  0  0  0  0  0  0  0  0  0  0  0  0
   -1.1404   -1.1401   -0.0003 O   0  0  0  0  0  0  0  0  0  0  0  0
   -1.2136    1.1251   -0.0001 N   0  0  0  0  0  0  0  0  0  0  0  0
    0.1444   -0.6776    0.0001 C   0  0  0  0  0  0  0  0  0  0  0  0
    0.0957    0.7086    0.0001 C   0  0  0  0  0  0  0  0  0  0  0  0
    1.3133   -1.4287    0.0001 C   0  0  0  0  0  0  0  0  0  0  0  0
    1.2986    1.4291   -0.0001 C   0  0  0  0  0  0  0  0  0  0  0  0
    2.5045   -0.6949    0.0000 C   0  0  0  0  0  0  0  0  0  0  0  0
    2.5000    0.7054   -0.0001 C   0  0  0  0  0  0  0  0  0  0  0  0
   -1.8900   -0.0024    0.0002 C   0  0  0  0  0  0  0  0  0  0  0  0
  1 10  1  0
  2  4  1  0
  2 10  1  0
  3  5  1  0
  3 10  2  0
  4  5  2  0
  4  6  1  0
  5  7  1  0
  6  8  2  0
  7  9  2  0
  8  9  1  0
M  END
>  <PUBCHEM_COMPOUND_CID>  (1) 
11986

>  <PUBCHEM_CONFORMER_RMSD>  (1) 
0.4

>  <PUBCHEM_CONFORMER_DIVERSEORDER>  (1) 
1

>  <PUBCHEM_MMFF94_PARTIAL_CHARGES>  (1) 
14
1 -0.12
10 0.6
11 0.15
12 0.15
13 0.15
14 0.15
2 -0.28
3 -0.57
4 0.14
5 0.23
6 -0.15
7 -0.15
8 -0.15
9 -0.15

>  <PUBCHEM_EFFECTIVE_ROTOR_COUNT>  (1) 
0

>  <PUBCHEM_PHARMACOPHORE_FEATURES>  (1) 
2
5 2 3 4 5 10 rings
6 4 5 6 7 8 9 rings

>  <PUBCHEM_HEAVY_ATOM_COUNT>  (1) 
10

>  <PUBCHEM_ATOM_DEF_STEREO_COUNT>  (1) 
0

>  <PUBCHEM_ATOM_UDEF_STEREO_COUNT>  (1) 
0

>  <PUBCHEM_BOND_DEF_STEREO_COUNT>  (1) 
0

>  <PUBCHEM_BOND_UDEF_STEREO_COUNT>  (1) 
0

>  <PUBCHEM_ISOTOPIC_ATOM_COUNT>  (1) 
0

>  <PUBCHEM_COMPONENT_COUNT>  (1) 
1

>  <PUBCHEM_CACTVS_TAUTO_COUNT>  (1) 
1

>  <PUBCHEM_CONFORMER_ID>  (1) 
00002ED200000001

>  <PUBCHEM_MMFF94_ENERGY>  (1) 
13.9298

>  <PUBCHEM_FEATURE_SELFOVERLAP>  (1) 
10.267

>  <PUBCHEM_SHAPE_FINGERPRINT>  (1) 
11471102 20 18410288103949829565
12897270 3 18410012147620933382
14325111 11 18410575097964855105
16945 1 18410573989546651716
193761 8 17474107596670846790
20201158 50 18408603643208746315
20645477 70 18411131399657438951
20871998 22 18054793875603532286
21040471 1 18194401323697723716
23235685 24 18336823190641487372
23402655 69 18340757175164523157
23552423 10 18261674873691678014
2748010 2 18050290559137450494
29004967 10 18333456434460531256
5084963 1 18272088266592555736
528886 8 18411415154628293658

>  <PUBCHEM_SHAPE_MULTIPOLES>  (1) 
196.81
4.35
1.43
0.6
2.92
0
0
-0.04
0
-0.57
0
-0.01
0
0

>  <PUBCHEM_SHAPE_SELFOVERLAP>  (1) 
423.868

>  <PUBCHEM_SHAPE_VOLUME>  (1) 
110.9

>  <PUBCHEM_COORDINATE_TYPE>  (1) 
2
5
10

$$$$
