1199
     RDKit          3D

 22 23  0  0  1  0  0  0  0  0999 V2000
   -1.6377   -3.3717   -1.6392 Cl  0  0  0  0  0  0  0  0  0  0  0  0
    0.5598    1.3365    1.2179 S   0  0  0  0  0  0  0  0  0  0  0  0
    1.0000    2.7126    1.0096 O   0  0  0  0  0  0  0  0  0  0  0  0
    0.5859    0.8020    2.5758 O   0  0  0  0  0  0  0  0  0  0  0  0
    3.7526    1.8993   -2.1553 O   0  0  0  0  0  0  0  0  0  0  0  0
    4.0214    1.2994    0.0225 O   0  0  0  0  0  0  0  0  0  0  0  0
    1.4834    0.2963    0.1748 N   0  0  0  0  0  0  0  0  0  0  0  0
   -1.0723    1.1958    0.6143 C   0  0  0  0  0  0  0  0  0  0  0  0
    1.0911   -1.0993    0.1680 C   0  0  0  0  0  0  0  0  0  0  0  0
    1.9246    0.8604   -1.1282 C   0  0  0  0  0  0  0  0  0  0  0  0
   -1.9218    0.2131    1.1223 C   0  0  0  0  0  0  0  0  0  0  0  0
   -1.5269    2.0665   -0.3760 C   0  0  0  0  0  0  0  0  0  0  0  0
   -3.6804    0.9718   -0.3502 C   0  0  0  0  0  0  0  0  0  0  0  0
    0.0415   -1.5032   -0.6386 C   0  0  0  0  0  0  0  0  0  0  0  0
    1.7753   -1.9963    0.9699 C   0  0  0  0  0  0  0  0  0  0  0  0
   -3.2259    0.1009    0.6401 C   0  0  0  0  0  0  0  0  0  0  0  0
   -2.8310    1.9546   -0.8583 C   0  0  0  0  0  0  0  0  0  0  0  0
    3.3303    1.3576   -0.9836 C   0  0  0  0  0  0  0  0  0  0  0  0
   -0.3357   -2.8461   -0.6438 C   0  0  0  0  0  0  0  0  0  0  0  0
    1.3982   -3.3392    0.9650 C   0  0  0  0  0  0  0  0  0  0  0  0
   -5.0751    0.8531   -0.8649 C   0  0  0  0  0  0  0  0  0  0  0  0
    0.3426   -3.7640    0.1580 C   0  0  0  0  0  0  0  0  0  0  0  0
  1 19  1  0
  2  3  2  0
  2  4  2  0
  2  7  1  0
  2  8  1  0
  5 18  1  0
  6 18  2  0
  7  9  1  0
  7 10  1  0
  8 11  2  0
  8 12  1  0
  9 14  2  0
  9 15  1  0
 10 18  1  0
 11 16  1  0
 12 17  2  0
 13 16  2  0
 13 17  1  0
 13 21  1  0
 14 19  1  0
 15 20  2  0
 19 22  2  0
 20 22  1  0
M  END
>  <PUBCHEM_COMPOUND_CID>  (1) 
1199

>  <PUBCHEM_CONFORMER_RMSD>  (1) 
0.8

>  <PUBCHEM_CONFORMER_DIVERSEORDER>  (1) 
1
37
25
60
53
43
41
13
18
17
52
35
56
51
32
28
58
26
50
22
46
38
63
7
61
54
64
36
10
42
12
3
55
62
45
9
49
14
15
59
24
23
40
2
57
29
33
65
47
34
11
31
8
4
19
48
16
39
6
5
30
44
27
21
20

>  <PUBCHEM_MMFF94_PARTIAL_CHARGES>  (1) 
31
1 -0.18
10 0.42
11 -0.15
12 -0.15
13 -0.14
14 -0.15
15 -0.15
16 -0.15
17 -0.15
18 0.66
19 0.18
2 1.45
20 -0.15
21 0.14
22 -0.15
25 0.15
26 0.15
27 0.15
28 0.15
29 0.15
3 -0.65
30 0.15
31 0.15
35 0.15
36 0.5
4 -0.65
5 -0.65
6 -0.57
7 -0.69
8 -0.01
9 0.2

>  <PUBCHEM_EFFECTIVE_ROTOR_COUNT>  (1) 
5

>  <PUBCHEM_PHARMACOPHORE_FEATURES>  (1) 
7
1 3 acceptor
1 4 acceptor
1 5 acceptor
1 6 acceptor
3 5 6 18 anion
6 8 11 12 13 16 17 rings
6 9 14 15 19 20 22 rings

>  <PUBCHEM_HEAVY_ATOM_COUNT>  (1) 
22

>  <PUBCHEM_ATOM_DEF_STEREO_COUNT>  (1) 
0

>  <PUBCHEM_ATOM_UDEF_STEREO_COUNT>  (1) 
0

>  <PUBCHEM_BOND_DEF_STEREO_COUNT>  (1) 
0

>  <PUBCHEM_BOND_UDEF_STEREO_COUNT>  (1) 
0

>  <PUBCHEM_ISOTOPIC_ATOM_COUNT>  (1) 
0

>  <PUBCHEM_COMPONENT_COUNT>  (1) 
1

>  <PUBCHEM_CACTVS_TAUTO_COUNT>  (1) 
1

>  <PUBCHEM_CONFORMER_ID>  (1) 
000004AF00000001

>  <PUBCHEM_MMFF94_ENERGY>  (1) 
54.5753

>  <PUBCHEM_FEATURE_SELFOVERLAP>  (1) 
35.599

>  <PUBCHEM_SHAPE_FINGERPRINT>  (1) 
10759866 29 18335135406239445039
1100329 8 18340194224863299234
11578080 2 13431461125328614700
11796584 16 16556741315395064141
121448 382 18268424814202848884
12553582 1 17404033517472864419
12592029 89 18260556593151790224
13052359 8 18265054811412004882
13149001 5 17915470603956624896
133893 2 17828795874742205664
13681431 1 17832997044078720622
14181834 199 18045788883660846486
14863182 85 17844515613738355375
16945 1 17915764126173851160
17492 54 18338506547855901791
19591789 44 18266463285485400195
20197701 30 18408602552877610882
20626108 58 17684913718717810003
20691752 17 17833822055762209443
21285901 2 17266100269089075254
21344244 181 17774742912237057679
21421861 104 17838917944639036353
21452121 199 17977088072979263641
21524375 3 18410303514123740982
23114952 82 17970913254380176749
23227448 37 17904218266540990572
23419403 2 17392810973970776802
23557571 272 16517124785642174881
23558518 356 17836917167951182765
23559900 14 18119235165490819977
238 59 18412254026619353573
298252 57 18187933918920232008
3052486 1 18121762087718584467
3060560 45 18409722989043312293
394222 165 18261963950934459506
46194498 28 17826504471373000189
5262128 65 17760656858509780635
53917941 68 18192149524026736476
59554788 191 17904188240270857015
7364860 26 18191307074417297144
81228 2 17548414160281443571

>  <PUBCHEM_SHAPE_MULTIPOLES>  (1) 
430.01
6.05
4.34
1.67
4.78
4.24
0.12
-3.79
-2.29
-2.39
-0.86
-0.69
-0.38
-1.37

>  <PUBCHEM_SHAPE_SELFOVERLAP>  (1) 
890.42

>  <PUBCHEM_SHAPE_VOLUME>  (1) 
246.5

>  <PUBCHEM_COORDINATE_TYPE>  (1) 
2
5
10

$$$$
