12009
     RDKit          3D

  9  9  0  0  0  0  0  0  0  0999 V2000
   -1.5608   -1.7866   -0.0010 O   0  0  0  0  0  0  0  0  0  0  0  0
    2.8201   -0.3539    0.0004 O   0  0  0  0  0  0  0  0  0  0  0  0
   -1.1303    0.5078    0.0001 N   0  0  0  0  0  0  0  0  0  0  0  0
    0.6201   -1.0712    0.0005 N   0  0  0  0  0  0  0  0  0  0  0  0
   -0.7630   -0.8468    0.0002 C   0  0  0  0  0  0  0  0  0  0  0  0
   -0.1867    1.5143   -0.0007 C   0  0  0  0  0  0  0  0  0  0  0  0
   -2.5452    0.8603    0.0010 C   0  0  0  0  0  0  0  0  0  0  0  0
    1.1282    1.2848   -0.0006 C   0  0  0  0  0  0  0  0  0  0  0  0
    1.6175   -0.1085    0.0001 C   0  0  0  0  0  0  0  0  0  0  0  0
  1  5  2  0
  2  9  2  0
  3  5  1  0
  3  6  1  0
  3  7  1  0
  4  5  1  0
  4  9  1  0
  6  8  2  0
  8  9  1  0
M  END
>  <PUBCHEM_COMPOUND_CID>  (1) 
12009

>  <PUBCHEM_CONFORMER_RMSD>  (1) 
0.4

>  <PUBCHEM_CONFORMER_DIVERSEORDER>  (1) 
1

>  <PUBCHEM_MMFF94_PARTIAL_CHARGES>  (1) 
12
1 -0.57
10 0.15
14 0.37
15 0.15
2 -0.57
3 -0.47
4 -0.49
5 0.69
6 -0.04
7 0.3
8 -0.14
9 0.62

>  <PUBCHEM_EFFECTIVE_ROTOR_COUNT>  (1) 
0

>  <PUBCHEM_PHARMACOPHORE_FEATURES>  (1) 
4
1 1 acceptor
1 2 acceptor
1 4 donor
6 3 4 5 6 8 9 rings

>  <PUBCHEM_HEAVY_ATOM_COUNT>  (1) 
9

>  <PUBCHEM_ATOM_DEF_STEREO_COUNT>  (1) 
0

>  <PUBCHEM_ATOM_UDEF_STEREO_COUNT>  (1) 
0

>  <PUBCHEM_BOND_DEF_STEREO_COUNT>  (1) 
0

>  <PUBCHEM_BOND_UDEF_STEREO_COUNT>  (1) 
0

>  <PUBCHEM_ISOTOPIC_ATOM_COUNT>  (1) 
0

>  <PUBCHEM_COMPONENT_COUNT>  (1) 
1

>  <PUBCHEM_CACTVS_TAUTO_COUNT>  (1) 
3

>  <PUBCHEM_CONFORMER_ID>  (1) 
00002EE900000001

>  <PUBCHEM_MMFF94_ENERGY>  (1) 
16.9679

>  <PUBCHEM_FEATURE_SELFOVERLAP>  (1) 
20.297

>  <PUBCHEM_SHAPE_FINGERPRINT>  (1) 
15310529 11 16660645103098127764
16714656 1 18337675209015704964
16945 1 18410575041771597124
18185500 45 18407758136036273146
21040471 1 18338516335305497505
23235685 24 18340482257774684908
23402655 69 17978772529822058053
23552423 10 18188209939214214252
2748010 2 18267302208456917932
29004967 10 18187938217871135480

>  <PUBCHEM_SHAPE_MULTIPOLES>  (1) 
163.52
3.05
1.68
0.57
0.33
0.15
0
-0.02
0
-0.47
0
-0.01
-0.03
0

>  <PUBCHEM_SHAPE_SELFOVERLAP>  (1) 
334.013

>  <PUBCHEM_SHAPE_VOLUME>  (1) 
94.7

>  <PUBCHEM_COORDINATE_TYPE>  (1) 
2
5
10

$$$$
