12007
     RDKit          3D

  9  9  0  0  0  0  0  0  0  0999 V2000
    1.9758   -1.9599    0.0000 Cl  0  0  0  0  0  0  0  0  0  0  0  0
    2.4543    1.0460    0.0007 N   0  0  0  0  0  0  0  0  0  0  0  0
   -1.5776   -0.1394    0.0000 C   0  0  0  0  0  0  0  0  0  0  0  0
    1.1048    0.6267   -0.0004 C   0  0  0  0  0  0  0  0  0  0  0  0
   -0.5753   -1.1096   -0.0001 C   0  0  0  0  0  0  0  0  0  0  0  0
   -1.2386    1.2137   -0.0001 C   0  0  0  0  0  0  0  0  0  0  0  0
    0.7660   -0.7265   -0.0003 C   0  0  0  0  0  0  0  0  0  0  0  0
    0.1025    1.5968   -0.0002 C   0  0  0  0  0  0  0  0  0  0  0  0
   -3.0118   -0.5480    0.0004 C   0  0  0  0  0  0  0  0  0  0  0  0
  1  7  1  0
  2  4  1  0
  3  5  2  0
  3  6  1  0
  3  9  1  0
  4  7  2  0
  4  8  1  0
  5  7  1  0
  6  8  2  0
M  END
>  <PUBCHEM_COMPOUND_CID>  (1) 
12007

>  <PUBCHEM_CONFORMER_RMSD>  (1) 
0.4

>  <PUBCHEM_CONFORMER_DIVERSEORDER>  (1) 
1

>  <PUBCHEM_MMFF94_PARTIAL_CHARGES>  (1) 
14
1 -0.18
10 0.15
11 0.15
12 0.15
16 0.4
17 0.4
2 -0.9
3 -0.14
4 0.1
5 -0.15
6 -0.15
7 0.18
8 -0.15
9 0.14

>  <PUBCHEM_EFFECTIVE_ROTOR_COUNT>  (1) 
0

>  <PUBCHEM_PHARMACOPHORE_FEATURES>  (1) 
3
1 2 cation
1 2 donor
6 3 4 5 6 7 8 rings

>  <PUBCHEM_HEAVY_ATOM_COUNT>  (1) 
9

>  <PUBCHEM_ATOM_DEF_STEREO_COUNT>  (1) 
0

>  <PUBCHEM_ATOM_UDEF_STEREO_COUNT>  (1) 
0

>  <PUBCHEM_BOND_DEF_STEREO_COUNT>  (1) 
0

>  <PUBCHEM_BOND_UDEF_STEREO_COUNT>  (1) 
0

>  <PUBCHEM_ISOTOPIC_ATOM_COUNT>  (1) 
0

>  <PUBCHEM_COMPONENT_COUNT>  (1) 
1

>  <PUBCHEM_CACTVS_TAUTO_COUNT>  (1) 
1

>  <PUBCHEM_CONFORMER_ID>  (1) 
00002EE700000001

>  <PUBCHEM_MMFF94_ENERGY>  (1) 
30.6148

>  <PUBCHEM_FEATURE_SELFOVERLAP>  (1) 
15.223

>  <PUBCHEM_SHAPE_FINGERPRINT>  (1) 
12423570 1 12459688383371717514
14128692 85 18267873782905194646
161256 15 18411141298981568894
16945 1 18338799030168958277
18185500 45 18341327911207732519
193761 8 18194683670183796676
21040471 1 17618222149097005989
23235685 24 18264765635105316773
23402655 69 18340470198614411277
23552423 10 18261398784567059238
241688 4 18192151490594087904
2748010 2 18337950074000836957
29004967 10 18262242217496824585
5084963 1 18200870656536262891

>  <PUBCHEM_SHAPE_MULTIPOLES>  (1) 
182.1
3.34
1.9
0.61
0.82
0.01
0
0.9
0
-0.82
0
0.01
0.02
0

>  <PUBCHEM_SHAPE_SELFOVERLAP>  (1) 
367.588

>  <PUBCHEM_SHAPE_VOLUME>  (1) 
106.9

>  <PUBCHEM_COORDINATE_TYPE>  (1) 
2
5
10

$$$$
