12010
     RDKit          3D

 10  9  0  0  0  0  0  0  0  0999 V2000
   -0.7705   -2.3928   -1.1099 S   0  0  0  0  0  0  0  0  0  0  0  0
    0.5632   -0.9268    2.0865 S   0  0  0  0  0  0  0  0  0  0  0  0
   -1.8094   -0.1286   -0.3960 O   0  0  0  0  0  0  0  0  0  0  0  0
    1.3285    0.0990   -0.2999 O   0  0  0  0  0  0  0  0  0  0  0  0
   -1.8101    1.1519    0.2573 C   0  0  0  0  0  0  0  0  0  0  0  0
    2.5797    0.5848    0.2200 C   0  0  0  0  0  0  0  0  0  0  0  0
   -3.1186    1.8544   -0.0358 C   0  0  0  0  0  0  0  0  0  0  0  0
    3.3518    1.2534   -0.8974 C   0  0  0  0  0  0  0  0  0  0  0  0
   -0.7609   -0.9440   -0.3047 C   0  0  0  0  0  0  0  0  0  0  0  0
    0.4462   -0.5514    0.4800 C   0  0  0  0  0  0  0  0  0  0  0  0
  1  9  2  0
  2 10  2  0
  3  5  1  0
  3  9  1  0
  4  6  1  0
  4 10  1  0
  5  7  1  0
  6  8  1  0
  9 10  1  0
M  END
>  <PUBCHEM_COMPOUND_CID>  (1) 
12010

>  <PUBCHEM_CONFORMER_RMSD>  (1) 
0.6

>  <PUBCHEM_CONFORMER_DIVERSEORDER>  (1) 
1
53
55
50
14
17
67
25
66
51
57
8
19
23
3
63
20
4
42
24
39
36
52
54
64
61
56
37
32
46
45
40
2
26
16
65
21
59
27
31
43
18
33
58
41
47
28
15
30
11
29
62
35
22
13
48
44
6
38
5
49
7
9
34
10
12
60

>  <PUBCHEM_MMFF94_PARTIAL_CHARGES>  (1) 
8
1 -0.38
10 0.53
2 -0.38
3 -0.43
4 -0.43
5 0.28
6 0.28
9 0.53

>  <PUBCHEM_EFFECTIVE_ROTOR_COUNT>  (1) 
5

>  <PUBCHEM_PHARMACOPHORE_FEATURES>  (1) 
2
1 1 acceptor
1 2 acceptor

>  <PUBCHEM_HEAVY_ATOM_COUNT>  (1) 
10

>  <PUBCHEM_ATOM_DEF_STEREO_COUNT>  (1) 
0

>  <PUBCHEM_ATOM_UDEF_STEREO_COUNT>  (1) 
0

>  <PUBCHEM_BOND_DEF_STEREO_COUNT>  (1) 
0

>  <PUBCHEM_BOND_UDEF_STEREO_COUNT>  (1) 
0

>  <PUBCHEM_ISOTOPIC_ATOM_COUNT>  (1) 
0

>  <PUBCHEM_COMPONENT_COUNT>  (1) 
1

>  <PUBCHEM_CACTVS_TAUTO_COUNT>  (1) 
1

>  <PUBCHEM_CONFORMER_ID>  (1) 
00002EEA00000001

>  <PUBCHEM_MMFF94_ENERGY>  (1) 
30.2892

>  <PUBCHEM_FEATURE_SELFOVERLAP>  (1) 
10.149

>  <PUBCHEM_SHAPE_FINGERPRINT>  (1) 
12716758 59 18130783499236476746
12932764 1 18128827528512371890
14648413 74 17762911965585368769
14817 1 11079809343545011987
15775835 57 18333734597959960484
170605 34 18189059707110296081
18342897 96 18261396688660007044
19837323 101 18343305893960852855
20645477 56 18200882884688066472
20653085 51 18337968847577161712
20711978 78 16589973932982533379
20711985 344 17984963037277196183
21040471 1 17986650637365040011
21524375 3 18335419032593603681
21930827 45 17774422980228399891
228727 97 17899397955534166767
430814 3 18260264122821307865
59915604 170 17253695591799795044
68250623 7 18261396619819633523
68419 9 18120340328889629194
76951 1 16884728725176385355

>  <PUBCHEM_SHAPE_MULTIPOLES>  (1) 
201.76
4.32
2.22
1.44
1.51
0.63
-0.84
-3.9
1.19
-1.36
0.72
0.5
0.68
-0.82

>  <PUBCHEM_SHAPE_SELFOVERLAP>  (1) 
355.015

>  <PUBCHEM_SHAPE_VOLUME>  (1) 
134.4

>  <PUBCHEM_COORDINATE_TYPE>  (1) 
2
5
10

$$$$
