12013
     RDKit          3D

  9  8  0  0  1  0  0  0  0  0999 V2000
    2.4592   -1.8544   -0.1004 Br  0  0  0  0  0  0  0  0  0  0  0  0
    1.1512    1.8231   -0.7295 O   0  0  0  0  0  0  0  0  0  0  0  0
    2.1207    0.9146    1.1063 O   0  0  0  0  0  0  0  0  0  0  0  0
   -1.4053   -0.0407   -0.2256 C   0  0  0  0  0  0  0  0  0  0  0  0
   -0.2610   -1.0182    0.0656 C   0  0  0  0  0  0  0  0  0  0  0  0
   -2.7571   -0.5131    0.3154 C   0  0  0  0  0  0  0  0  0  0  0  0
    1.0618   -0.5477   -0.5308 C   0  0  0  0  0  0  0  0  0  0  0  0
   -3.8916    0.4647    0.0512 C   0  0  0  0  0  0  0  0  0  0  0  0
    1.5221    0.7717    0.0479 C   0  0  0  0  0  0  0  0  0  0  0  0
  1  7  1  0
  2  9  1  0
  3  9  2  0
  4  5  1  0
  4  6  1  0
  5  7  1  0
  6  8  1  0
  7  9  1  0
M  END
>  <PUBCHEM_COMPOUND_CID>  (1) 
12013

>  <PUBCHEM_CONFORMER_RMSD>  (1) 
0.6

>  <PUBCHEM_CONFORMER_DIVERSEORDER>  (1) 
1
15
37
14
32
33
5
28
34
18
36
35
21
11
10
31
9
22
3
27
4
30
17
12
19
6
29
26
8
24
2
25
13
16
7
20
23

>  <PUBCHEM_MMFF94_PARTIAL_CHARGES>  (1) 
6
1 -0.23
2 -0.65
20 0.5
3 -0.57
7 0.29
9 0.66

>  <PUBCHEM_EFFECTIVE_ROTOR_COUNT>  (1) 
4

>  <PUBCHEM_PHARMACOPHORE_FEATURES>  (1) 
5
1 1 hydrophobe
1 2 acceptor
1 3 acceptor
1 8 hydrophobe
3 2 3 9 anion

>  <PUBCHEM_HEAVY_ATOM_COUNT>  (1) 
9

>  <PUBCHEM_ATOM_DEF_STEREO_COUNT>  (1) 
0

>  <PUBCHEM_ATOM_UDEF_STEREO_COUNT>  (1) 
1

>  <PUBCHEM_BOND_DEF_STEREO_COUNT>  (1) 
0

>  <PUBCHEM_BOND_UDEF_STEREO_COUNT>  (1) 
0

>  <PUBCHEM_ISOTOPIC_ATOM_COUNT>  (1) 
0

>  <PUBCHEM_COMPONENT_COUNT>  (1) 
1

>  <PUBCHEM_CACTVS_TAUTO_COUNT>  (1) 
1

>  <PUBCHEM_CONFORMER_ID>  (1) 
00002EED00000001

>  <PUBCHEM_MMFF94_ENERGY>  (1) 
5.5315

>  <PUBCHEM_FEATURE_SELFOVERLAP>  (1) 
25.431

>  <PUBCHEM_SHAPE_FINGERPRINT>  (1) 
12897270 3 10952055571484863947
12932764 1 17988370368219438783
13922767 16 18271520884438710651
14325111 11 18412826906510964707
14390081 3 18131071562951397945
15775835 57 17846215604864584449
161256 15 18338511929143630198
19973954 147 18408047316490410845
20653091 64 18339371781380206602
20871998 22 18054511309768451486
21040471 1 18126286591104778438
230 275 18343024427579403505
23235685 24 18337669836027578396
3248919 1 18260826059663730531
5084963 1 18410860936443624795

>  <PUBCHEM_SHAPE_MULTIPOLES>  (1) 
179.42
5.25
1.69
0.81
5.39
0.23
-0.06
-0.72
-0.45
-1.53
0.1
-0.27
0.15
0.22

>  <PUBCHEM_SHAPE_SELFOVERLAP>  (1) 
315.371

>  <PUBCHEM_SHAPE_VOLUME>  (1) 
119.2

>  <PUBCHEM_COORDINATE_TYPE>  (1) 
2
5
10

$$$$
