12014
     RDKit          3D

  6  5  0  0  0  0  0  0  0  0999 V2000
    1.4162    0.1367   -0.6109 C   0  0  0  0  0  0  0  0  0  0  0  0
   -0.0036   -0.1951   -0.2155 C   0  0  0  0  0  0  0  0  0  0  0  0
    2.2687    0.5356    0.5848 C   0  0  0  0  0  0  0  0  0  0  0  0
   -0.2461   -1.6327    0.1636 C   0  0  0  0  0  0  0  0  0  0  0  0
   -1.0088    0.7000   -0.1643 C   0  0  0  0  0  0  0  0  0  0  0  0
   -2.4263    0.4555    0.2423 C   0  0  0  0  0  0  0  0  0  0  0  0
  1  2  1  0
  1  3  1  0
  2  4  1  0
  2  5  2  0
  5  6  1  0
M  END
>  <PUBCHEM_COMPOUND_CID>  (1) 
12014

>  <PUBCHEM_CONFORMER_RMSD>  (1) 
0.4

>  <PUBCHEM_CONFORMER_DIVERSEORDER>  (1) 
1

>  <PUBCHEM_MMFF94_PARTIAL_CHARGES>  (1) 
6
1 0.14
15 0.15
2 -0.28
4 0.14
5 -0.29
6 0.14

>  <PUBCHEM_EFFECTIVE_ROTOR_COUNT>  (1) 
1

>  <PUBCHEM_PHARMACOPHORE_FEATURES>  (1) 
3
1 3 hydrophobe
1 4 hydrophobe
1 6 hydrophobe

>  <PUBCHEM_HEAVY_ATOM_COUNT>  (1) 
6

>  <PUBCHEM_ATOM_DEF_STEREO_COUNT>  (1) 
0

>  <PUBCHEM_ATOM_UDEF_STEREO_COUNT>  (1) 
0

>  <PUBCHEM_BOND_DEF_STEREO_COUNT>  (1) 
0

>  <PUBCHEM_BOND_UDEF_STEREO_COUNT>  (1) 
1

>  <PUBCHEM_ISOTOPIC_ATOM_COUNT>  (1) 
0

>  <PUBCHEM_COMPONENT_COUNT>  (1) 
1

>  <PUBCHEM_CACTVS_TAUTO_COUNT>  (1) 
1

>  <PUBCHEM_CONFORMER_ID>  (1) 
00002EEE00000001

>  <PUBCHEM_MMFF94_ENERGY>  (1) 
3.0257

>  <PUBCHEM_FEATURE_SELFOVERLAP>  (1) 
15.224

>  <PUBCHEM_SHAPE_FINGERPRINT>  (1) 
14390081 3 18131069282123687001
16714656 1 18334584563313027636
20096714 4 18271806795947826444
21040471 1 18409174306875711662
23552449 1 17984416605593447552
23552449 11 17827351077729630555
29004967 10 17968670323721196377
5460574 1 8358258137694535589

>  <PUBCHEM_SHAPE_MULTIPOLES>  (1) 
123.48
2.97
1.23
0.76
0.13
0.63
0
-1.05
0.51
0.16
0.09
-0.19
-0.04
0.08

>  <PUBCHEM_SHAPE_SELFOVERLAP>  (1) 
215.842

>  <PUBCHEM_SHAPE_VOLUME>  (1) 
83.1

>  <PUBCHEM_COORDINATE_TYPE>  (1) 
2
5
10

$$$$
