12019
     RDKit          3D

  6  5  0  0  0  0  0  0  0  0999 V2000
    0.0260    1.4312   -0.2230 N   0  0  0  0  0  0  0  0  0  0  0  0
   -0.0026    0.0451    0.2477 C   0  0  0  0  0  0  0  0  0  0  0  0
    1.2556   -0.6991   -0.2361 C   0  0  0  0  0  0  0  0  0  0  0  0
   -1.2678   -0.6880   -0.2368 C   0  0  0  0  0  0  0  0  0  0  0  0
    2.5554   -0.0508    0.2252 C   0  0  0  0  0  0  0  0  0  0  0  0
   -2.5665   -0.0383    0.2232 C   0  0  0  0  0  0  0  0  0  0  0  0
  1  2  1  0
  2  3  1  0
  2  4  1  0
  3  5  1  0
  4  6  1  0
M  END
>  <PUBCHEM_COMPOUND_CID>  (1) 
12019

>  <PUBCHEM_CONFORMER_RMSD>  (1) 
0.4

>  <PUBCHEM_CONFORMER_DIVERSEORDER>  (1) 
2
4
6
1
5
3
7

>  <PUBCHEM_MMFF94_PARTIAL_CHARGES>  (1) 
4
1 -0.99
18 0.36
19 0.36
2 0.27

>  <PUBCHEM_EFFECTIVE_ROTOR_COUNT>  (1) 
2

>  <PUBCHEM_PHARMACOPHORE_FEATURES>  (1) 
4
1 1 cation
1 1 donor
1 5 hydrophobe
1 6 hydrophobe

>  <PUBCHEM_HEAVY_ATOM_COUNT>  (1) 
6

>  <PUBCHEM_ATOM_DEF_STEREO_COUNT>  (1) 
0

>  <PUBCHEM_ATOM_UDEF_STEREO_COUNT>  (1) 
0

>  <PUBCHEM_BOND_DEF_STEREO_COUNT>  (1) 
0

>  <PUBCHEM_BOND_UDEF_STEREO_COUNT>  (1) 
0

>  <PUBCHEM_ISOTOPIC_ATOM_COUNT>  (1) 
0

>  <PUBCHEM_COMPONENT_COUNT>  (1) 
1

>  <PUBCHEM_CACTVS_TAUTO_COUNT>  (1) 
1

>  <PUBCHEM_CONFORMER_ID>  (1) 
00002EF300000002

>  <PUBCHEM_MMFF94_ENERGY>  (1) 
-4.5266

>  <PUBCHEM_FEATURE_SELFOVERLAP>  (1) 
20.297

>  <PUBCHEM_SHAPE_FINGERPRINT>  (1) 
139733 1 9439403531724442398
14390081 3 17132110255812305794
16714656 1 18412826863007312966
20096714 4 18267026239907686589
29004967 10 18334582347104699635
5460574 1 8142087558930584139

>  <PUBCHEM_SHAPE_MULTIPOLES>  (1) 
118.5
3.43
1.04
0.66
0.04
0.28
-0.01
-0.32
-0.37
-0.01
0.11
0
-0.01
0

>  <PUBCHEM_SHAPE_SELFOVERLAP>  (1) 
201.377

>  <PUBCHEM_SHAPE_VOLUME>  (1) 
81.1

>  <PUBCHEM_COORDINATE_TYPE>  (1) 
2
5
10

$$$$
