12012
     RDKit          3D

  8  8  0  0  0  0  0  0  0  0999 V2000
   -0.6687    1.0745    0.0001 O   0  0  0  0  0  0  0  0  0  0  0  0
    1.5711    1.5958    0.0001 O   0  0  0  0  0  0  0  0  0  0  0  0
   -2.6035   -0.1716    0.0006 O   0  0  0  0  0  0  0  0  0  0  0  0
    0.7849   -0.6670   -0.0002 C   0  0  0  0  0  0  0  0  0  0  0  0
   -0.4412   -1.1799   -0.0005 C   0  0  0  0  0  0  0  0  0  0  0  0
    2.0887   -1.3672    0.0005 C   0  0  0  0  0  0  0  0  0  0  0  0
    0.6588    0.7896   -0.0002 C   0  0  0  0  0  0  0  0  0  0  0  0
   -1.3901   -0.0742   -0.0003 C   0  0  0  0  0  0  0  0  0  0  0  0
  1  7  1  0
  1  8  1  0
  2  7  2  0
  3  8  2  0
  4  5  2  0
  4  6  1  0
  4  7  1  0
  5  8  1  0
M  END
>  <PUBCHEM_COMPOUND_CID>  (1) 
12012

>  <PUBCHEM_CONFORMER_RMSD>  (1) 
0.4

>  <PUBCHEM_CONFORMER_DIVERSEORDER>  (1) 
1

>  <PUBCHEM_MMFF94_PARTIAL_CHARGES>  (1) 
9
1 -0.3
2 -0.57
3 -0.57
4 -0.12
5 -0.14
6 0.14
7 0.71
8 0.71
9 0.15

>  <PUBCHEM_EFFECTIVE_ROTOR_COUNT>  (1) 
0.2

>  <PUBCHEM_PHARMACOPHORE_FEATURES>  (1) 
3
1 2 acceptor
1 3 acceptor
5 1 4 5 7 8 rings

>  <PUBCHEM_HEAVY_ATOM_COUNT>  (1) 
8

>  <PUBCHEM_ATOM_DEF_STEREO_COUNT>  (1) 
0

>  <PUBCHEM_ATOM_UDEF_STEREO_COUNT>  (1) 
0

>  <PUBCHEM_BOND_DEF_STEREO_COUNT>  (1) 
0

>  <PUBCHEM_BOND_UDEF_STEREO_COUNT>  (1) 
0

>  <PUBCHEM_ISOTOPIC_ATOM_COUNT>  (1) 
0

>  <PUBCHEM_COMPONENT_COUNT>  (1) 
1

>  <PUBCHEM_CACTVS_TAUTO_COUNT>  (1) 
1

>  <PUBCHEM_CONFORMER_ID>  (1) 
00002EEC00000001

>  <PUBCHEM_MMFF94_ENERGY>  (1) 
2.126

>  <PUBCHEM_FEATURE_SELFOVERLAP>  (1) 
15.223

>  <PUBCHEM_SHAPE_FINGERPRINT>  (1) 
137420 1 14711184834842284242
20096714 4 18339363092423814305
21040471 1 18122343737859424709
23552423 10 18334577987802668838
29004967 10 18338800000736777722

>  <PUBCHEM_SHAPE_MULTIPOLES>  (1) 
147.03
2.61
1.54
0.58
0.64
0.34
0
-0.57
0
-0.73
0
-0.03
-0.03
0

>  <PUBCHEM_SHAPE_SELFOVERLAP>  (1) 
308.843

>  <PUBCHEM_SHAPE_VOLUME>  (1) 
85.5

>  <PUBCHEM_COORDINATE_TYPE>  (1) 
2
5
10

$$$$
