12022
     RDKit          3D

  6  5  0  0  0  0  0  0  0  0999 V2000
    0.0000    0.0083   -0.2135 N   0  0  0  0  0  0  0  0  0  0  0  0
   -1.2013   -0.6824    0.2540 C   0  0  0  0  0  0  0  0  0  0  0  0
    1.2013   -0.6824    0.2541 C   0  0  0  0  0  0  0  0  0  0  0  0
    0.0000    1.3983    0.2412 C   0  0  0  0  0  0  0  0  0  0  0  0
   -2.4601   -0.0210   -0.2679 C   0  0  0  0  0  0  0  0  0  0  0  0
    2.4602   -0.0209   -0.2679 C   0  0  0  0  0  0  0  0  0  0  0  0
  1  2  1  0
  1  3  1  0
  1  4  1  0
  2  5  1  0
  3  6  1  0
M  END
>  <PUBCHEM_COMPOUND_CID>  (1) 
12022

>  <PUBCHEM_CONFORMER_RMSD>  (1) 
0.4

>  <PUBCHEM_CONFORMER_DIVERSEORDER>  (1) 
1
5
6
7
4
2
3

>  <PUBCHEM_MMFF94_PARTIAL_CHARGES>  (1) 
4
1 -0.81
2 0.27
3 0.27
4 0.27

>  <PUBCHEM_EFFECTIVE_ROTOR_COUNT>  (1) 
2

>  <PUBCHEM_PHARMACOPHORE_FEATURES>  (1) 
1
1 1 cation

>  <PUBCHEM_HEAVY_ATOM_COUNT>  (1) 
6

>  <PUBCHEM_ATOM_DEF_STEREO_COUNT>  (1) 
0

>  <PUBCHEM_ATOM_UDEF_STEREO_COUNT>  (1) 
0

>  <PUBCHEM_BOND_DEF_STEREO_COUNT>  (1) 
0

>  <PUBCHEM_BOND_UDEF_STEREO_COUNT>  (1) 
0

>  <PUBCHEM_ISOTOPIC_ATOM_COUNT>  (1) 
0

>  <PUBCHEM_COMPONENT_COUNT>  (1) 
1

>  <PUBCHEM_CACTVS_TAUTO_COUNT>  (1) 
1

>  <PUBCHEM_CONFORMER_ID>  (1) 
00002EF600000001

>  <PUBCHEM_MMFF94_ENERGY>  (1) 
4.4068

>  <PUBCHEM_FEATURE_SELFOVERLAP>  (1) 
5.074

>  <PUBCHEM_SHAPE_FINGERPRINT>  (1) 
139733 1 8862943874637646923
16714656 1 18343586222123273254
20096714 4 18267302217241888321
23552423 10 18118127969971677862
29004967 10 18411985779603974370
5460574 1 10159700196271689895

>  <PUBCHEM_SHAPE_MULTIPOLES>  (1) 
118.5
3.21
1.1
0.67
0
0.36
0.01
-0.39
-0.46
0
0.12
0
0
0

>  <PUBCHEM_SHAPE_SELFOVERLAP>  (1) 
202.559

>  <PUBCHEM_SHAPE_VOLUME>  (1) 
82

>  <PUBCHEM_COORDINATE_TYPE>  (1) 
2
5
10

$$$$
