12027
     RDKit          3D

 10  9  0  0  0  0  0  0  0  0999 V2000
   -0.5290   -2.3739   -0.6962 O   0  0  0  0  0  0  0  0  0  0  0  0
   -0.4260    2.4130   -0.6950 O   0  0  0  0  0  0  0  0  0  0  0  0
   -1.6585   -1.2562    0.9234 O   0  0  0  0  0  0  0  0  0  0  0  0
   -1.5536    1.3149    0.9395 O   0  0  0  0  0  0  0  0  0  0  0  0
    1.1686   -0.0356   -0.7744 C   0  0  0  0  0  0  0  0  0  0  0  0
   -0.3681    0.0100   -0.7171 C   0  0  0  0  0  0  0  0  0  0  0  0
    1.8120   -0.0753    0.6150 C   0  0  0  0  0  0  0  0  0  0  0  0
    3.3300   -0.0459    0.5246 C   0  0  0  0  0  0  0  0  0  0  0  0
   -0.9311   -1.2417   -0.0606 C   0  0  0  0  0  0  0  0  0  0  0  0
   -0.8444    1.2908   -0.0590 C   0  0  0  0  0  0  0  0  0  0  0  0
  1  9  1  0
  2 10  1  0
  3  9  2  0
  4 10  2  0
  5  6  1  0
  5  7  1  0
  6  9  1  0
  6 10  1  0
  7  8  1  0
M  END
>  <PUBCHEM_COMPOUND_CID>  (1) 
12027

>  <PUBCHEM_CONFORMER_RMSD>  (1) 
0.6

>  <PUBCHEM_CONFORMER_DIVERSEORDER>  (1) 
1
24
17
16
12
18
22
5
19
23
20
4
9
10
11
21
8
7
13
14
6
15
2
3

>  <PUBCHEM_MMFF94_PARTIAL_CHARGES>  (1) 
9
1 -0.65
10 0.66
19 0.5
2 -0.65
20 0.5
3 -0.57
4 -0.57
6 0.12
9 0.66

>  <PUBCHEM_EFFECTIVE_ROTOR_COUNT>  (1) 
4

>  <PUBCHEM_PHARMACOPHORE_FEATURES>  (1) 
8
1 1 acceptor
1 2 acceptor
1 3 acceptor
1 4 acceptor
1 6 anion
1 8 hydrophobe
3 1 3 9 anion
3 2 4 10 anion

>  <PUBCHEM_HEAVY_ATOM_COUNT>  (1) 
10

>  <PUBCHEM_ATOM_DEF_STEREO_COUNT>  (1) 
0

>  <PUBCHEM_ATOM_UDEF_STEREO_COUNT>  (1) 
0

>  <PUBCHEM_BOND_DEF_STEREO_COUNT>  (1) 
0

>  <PUBCHEM_BOND_UDEF_STEREO_COUNT>  (1) 
0

>  <PUBCHEM_ISOTOPIC_ATOM_COUNT>  (1) 
0

>  <PUBCHEM_COMPONENT_COUNT>  (1) 
1

>  <PUBCHEM_CACTVS_TAUTO_COUNT>  (1) 
1

>  <PUBCHEM_CONFORMER_ID>  (1) 
00002EFB00000001

>  <PUBCHEM_MMFF94_ENERGY>  (1) 
8.0294

>  <PUBCHEM_FEATURE_SELFOVERLAP>  (1) 
41.225

>  <PUBCHEM_SHAPE_FINGERPRINT>  (1) 
12423570 1 11441314769432670213
13024252 1 15719385097265260352
137420 1 14829141163829861013
18185500 45 17976827802129628798
20645464 45 18059853914224445094
20653085 51 15482663542487820280
20653091 64 17473551720634330003
20871998 184 18411420609289643446
21040471 1 18048609126680562052
23552423 10 17399803090550000037
5084963 1 17913189989069830300
54338 74 18337942514763339863

>  <PUBCHEM_SHAPE_MULTIPOLES>  (1) 
182.32
2.99
2.13
0.99
3.46
0.08
0.04
-0.08
0.98
-1.37
-0.35
-0.11
0
-0.01

>  <PUBCHEM_SHAPE_SELFOVERLAP>  (1) 
347.806

>  <PUBCHEM_SHAPE_VOLUME>  (1) 
111.3

>  <PUBCHEM_COORDINATE_TYPE>  (1) 
2
5
10

$$$$
