12044
     RDKit          3D

  9  8  0  0  0  0  0  0  0  0999 V2000
   -0.6324   -0.6356    0.0051 O   0  0  0  0  0  0  0  0  0  0  0  0
    0.4636    0.9336   -1.2817 O   0  0  0  0  0  0  0  0  0  0  0  0
    1.6411   -0.2493    0.4909 C   0  0  0  0  0  0  0  0  0  0  0  0
   -1.9089   -0.0215   -0.1992 C   0  0  0  0  0  0  0  0  0  0  0  0
    0.4474    0.1096   -0.3766 C   0  0  0  0  0  0  0  0  0  0  0  0
    2.4062   -1.4065   -0.1401 C   0  0  0  0  0  0  0  0  0  0  0  0
    2.5488    0.9617    0.6905 C   0  0  0  0  0  0  0  0  0  0  0  0
   -3.0029   -0.9820    0.2413 C   0  0  0  0  0  0  0  0  0  0  0  0
   -1.9627    1.2899    0.5698 C   0  0  0  0  0  0  0  0  0  0  0  0
  1  4  1  0
  1  5  1  0
  2  5  2  0
  3  5  1  0
  3  6  1  0
  3  7  1  0
  4  8  1  0
  4  9  1  0
M  END
>  <PUBCHEM_COMPOUND_CID>  (1) 
12044

>  <PUBCHEM_CONFORMER_RMSD>  (1) 
0.6

>  <PUBCHEM_CONFORMER_DIVERSEORDER>  (1) 
2
16
14
7
6
12
1
8
10
3
5
11
15
4
13
9

>  <PUBCHEM_MMFF94_PARTIAL_CHARGES>  (1) 
5
1 -0.43
2 -0.57
3 0.06
4 0.28
5 0.66

>  <PUBCHEM_EFFECTIVE_ROTOR_COUNT>  (1) 
3

>  <PUBCHEM_PHARMACOPHORE_FEATURES>  (1) 
3
1 2 acceptor
3 3 6 7 hydrophobe
3 4 8 9 hydrophobe

>  <PUBCHEM_HEAVY_ATOM_COUNT>  (1) 
9

>  <PUBCHEM_ATOM_DEF_STEREO_COUNT>  (1) 
0

>  <PUBCHEM_ATOM_UDEF_STEREO_COUNT>  (1) 
0

>  <PUBCHEM_BOND_DEF_STEREO_COUNT>  (1) 
0

>  <PUBCHEM_BOND_UDEF_STEREO_COUNT>  (1) 
0

>  <PUBCHEM_ISOTOPIC_ATOM_COUNT>  (1) 
0

>  <PUBCHEM_COMPONENT_COUNT>  (1) 
1

>  <PUBCHEM_CACTVS_TAUTO_COUNT>  (1) 
1

>  <PUBCHEM_CONFORMER_ID>  (1) 
00002F0C00000002

>  <PUBCHEM_MMFF94_ENERGY>  (1) 
12.0918

>  <PUBCHEM_FEATURE_SELFOVERLAP>  (1) 
15.223

>  <PUBCHEM_SHAPE_FINGERPRINT>  (1) 
10857977 72 17967523601554290536
12932741 1 18337944597854153124
12932764 1 17346593097138805322
14325111 11 18342737407810372323
14390081 3 18060413642461927168
15310529 11 17846492647160641626
19973954 147 18201720621884620472
20653091 64 17458918148449568532
20711985 344 16082762609335028772
23552423 10 18260553298690418775
23552449 11 17095801143457904765
29004967 10 16660645141742277456
3248919 1 18340474599942740402
369184 2 18131347505783345499
5084963 1 18260834782436230187

>  <PUBCHEM_SHAPE_MULTIPOLES>  (1) 
173.48
4.41
1.37
0.88
0.82
0
0.16
-0.68
-0.91
-0.14
-0.11
-0.13
0.19
0.11

>  <PUBCHEM_SHAPE_SELFOVERLAP>  (1) 
319.3

>  <PUBCHEM_SHAPE_VOLUME>  (1) 
111.9

>  <PUBCHEM_COORDINATE_TYPE>  (1) 
2
5
10

$$$$
