12041
     RDKit          3D

  8  7  0  0  0  0  0  0  0  0999 V2000
    0.8002    0.2957   -0.1050 O   0  0  0  0  0  0  0  0  0  0  0  0
   -0.2468   -1.6772    0.5260 O   0  0  0  0  0  0  0  0  0  0  0  0
   -2.2586   -0.2121   -0.9678 O   0  0  0  0  0  0  0  0  0  0  0  0
    2.0924   -0.2976    0.0506 C   0  0  0  0  0  0  0  0  0  0  0  0
    3.1510    0.7299   -0.2889 C   0  0  0  0  0  0  0  0  0  0  0  0
   -0.2381   -0.5156    0.1674 C   0  0  0  0  0  0  0  0  0  0  0  0
   -1.5174    0.2250   -0.1004 C   0  0  0  0  0  0  0  0  0  0  0  0
   -1.7827    1.4519    0.7182 C   0  0  0  0  0  0  0  0  0  0  0  0
  1  4  1  0
  1  6  1  0
  2  6  2  0
  3  7  2  0
  4  5  1  0
  6  7  1  0
  7  8  1  0
M  END
>  <PUBCHEM_COMPOUND_CID>  (1) 
12041

>  <PUBCHEM_CONFORMER_RMSD>  (1) 
0.6

>  <PUBCHEM_CONFORMER_DIVERSEORDER>  (1) 
1
11
14
7
9
17
12
2
13
16
8
3
10
6
15
4
5

>  <PUBCHEM_MMFF94_PARTIAL_CHARGES>  (1) 
7
1 -0.43
2 -0.57
3 -0.57
4 0.28
6 0.72
7 0.51
8 0.06

>  <PUBCHEM_EFFECTIVE_ROTOR_COUNT>  (1) 
3

>  <PUBCHEM_PHARMACOPHORE_FEATURES>  (1) 
2
1 2 acceptor
1 3 acceptor

>  <PUBCHEM_HEAVY_ATOM_COUNT>  (1) 
8

>  <PUBCHEM_ATOM_DEF_STEREO_COUNT>  (1) 
0

>  <PUBCHEM_ATOM_UDEF_STEREO_COUNT>  (1) 
0

>  <PUBCHEM_BOND_DEF_STEREO_COUNT>  (1) 
0

>  <PUBCHEM_BOND_UDEF_STEREO_COUNT>  (1) 
0

>  <PUBCHEM_ISOTOPIC_ATOM_COUNT>  (1) 
0

>  <PUBCHEM_COMPONENT_COUNT>  (1) 
1

>  <PUBCHEM_CACTVS_TAUTO_COUNT>  (1) 
2

>  <PUBCHEM_CONFORMER_ID>  (1) 
00002F0900000001

>  <PUBCHEM_MMFF94_ENERGY>  (1) 
6.9193

>  <PUBCHEM_FEATURE_SELFOVERLAP>  (1) 
10.151

>  <PUBCHEM_SHAPE_FINGERPRINT>  (1) 
12897270 3 17632568370631267628
12932764 1 17203890760335844682
14390081 3 18343582966918072392
15310529 11 17275102816862417068
20096714 4 18196657298013866505
20653085 51 17773615848367326368
21040471 1 18408326566484093186
23552423 10 18198061374220507966
23552449 1 18124316270520631546
29004967 10 14923946739003620596
5084963 1 18337099094966357492
5460574 1 9439407934334920220

>  <PUBCHEM_SHAPE_MULTIPOLES>  (1) 
147.03
3.94
1.3
0.79
2.63
0.05
0.04
-1.32
0.6
-0.37
-0.31
-0.29
0
-0.36

>  <PUBCHEM_SHAPE_SELFOVERLAP>  (1) 
273.503

>  <PUBCHEM_SHAPE_VOLUME>  (1) 
92.5

>  <PUBCHEM_COORDINATE_TYPE>  (1) 
2
5
10

$$$$
