12045
     RDKit          3D

 11 10  0  0  0  0  0  0  0  0999 V2000
   -2.8075    0.4622   -0.2305 O   0  0  0  0  0  0  0  0  0  0  0  0
    2.7933   -0.8942    0.0678 O   0  0  0  0  0  0  0  0  0  0  0  0
   -1.9439   -1.6106    0.2912 O   0  0  0  0  0  0  0  0  0  0  0  0
    2.2600    1.3003   -0.4075 O   0  0  0  0  0  0  0  0  0  0  0  0
   -0.5197    0.3271    0.1709 C   0  0  0  0  0  0  0  0  0  0  0  0
   -0.5510    1.7526    0.6356 C   0  0  0  0  0  0  0  0  0  0  0  0
    0.5659   -0.3969   -0.1522 C   0  0  0  0  0  0  0  0  0  0  0  0
   -1.8155   -0.4105    0.0964 C   0  0  0  0  0  0  0  0  0  0  0  0
    1.9474    0.1427   -0.1834 C   0  0  0  0  0  0  0  0  0  0  0  0
   -4.1159   -0.1059   -0.3511 C   0  0  0  0  0  0  0  0  0  0  0  0
    4.1869   -0.5667    0.0628 C   0  0  0  0  0  0  0  0  0  0  0  0
  1  8  1  0
  1 10  1  0
  2  9  1  0
  2 11  1  0
  3  8  2  0
  4  9  2  0
  5  6  1  0
  5  7  2  0
  5  8  1  0
  7  9  1  0
M  END
>  <PUBCHEM_COMPOUND_CID>  (1) 
12045

>  <PUBCHEM_CONFORMER_RMSD>  (1) 
0.6

>  <PUBCHEM_CONFORMER_DIVERSEORDER>  (1) 
1
9
4
12
7
5
2
6
10
11
8
3

>  <PUBCHEM_MMFF94_PARTIAL_CHARGES>  (1) 
12
1 -0.43
10 0.28
11 0.28
15 0.15
2 -0.43
3 -0.57
4 -0.57
5 -0.12
6 0.14
7 -0.14
8 0.71
9 0.71

>  <PUBCHEM_EFFECTIVE_ROTOR_COUNT>  (1) 
4

>  <PUBCHEM_PHARMACOPHORE_FEATURES>  (1) 
3
1 3 acceptor
1 4 acceptor
1 6 hydrophobe

>  <PUBCHEM_HEAVY_ATOM_COUNT>  (1) 
11

>  <PUBCHEM_ATOM_DEF_STEREO_COUNT>  (1) 
0

>  <PUBCHEM_ATOM_UDEF_STEREO_COUNT>  (1) 
0

>  <PUBCHEM_BOND_DEF_STEREO_COUNT>  (1) 
0

>  <PUBCHEM_BOND_UDEF_STEREO_COUNT>  (1) 
1

>  <PUBCHEM_ISOTOPIC_ATOM_COUNT>  (1) 
0

>  <PUBCHEM_COMPONENT_COUNT>  (1) 
1

>  <PUBCHEM_CACTVS_TAUTO_COUNT>  (1) 
1

>  <PUBCHEM_CONFORMER_ID>  (1) 
00002F0D00000001

>  <PUBCHEM_MMFF94_ENERGY>  (1) 
24.7923

>  <PUBCHEM_FEATURE_SELFOVERLAP>  (1) 
15.223

>  <PUBCHEM_SHAPE_FINGERPRINT>  (1) 
10130415 120 18412544310099332217
11062470 55 17704351061182260651
12716758 59 18333728052629742011
13690532 89 18335980874582586714
14325111 11 18334859462689494279
18186145 218 17603578655869963893
18619055 16 18410294756447982613
20201158 50 18412265016881819574
20653085 51 16877668967383635069
21119208 17 17821727225781850023
23402539 116 18200866301877144837
23552423 10 18187930633127435754
3248919 1 17703805724715685942

>  <PUBCHEM_SHAPE_MULTIPOLES>  (1) 
202.9
6.67
1.36
0.66
0.98
0.33
0.01
-1.57
-0.65
-0.08
0.19
-0.05
0.06
-0.11

>  <PUBCHEM_SHAPE_SELFOVERLAP>  (1) 
390.994

>  <PUBCHEM_SHAPE_VOLUME>  (1) 
124.4

>  <PUBCHEM_COORDINATE_TYPE>  (1) 
2
5
10

$$$$
