12076
     RDKit          3D

 13 13  0  0  0  0  0  0  0  0999 V2000
   -3.1758    1.4644    0.5004 O   0  0  0  0  0  0  0  0  0  0  0  0
   -3.4912   -0.5601   -0.4837 O   0  0  0  0  0  0  0  0  0  0  0  0
    3.5853    1.1152   -0.0823 O   0  0  0  0  0  0  0  0  0  0  0  0
    3.4993   -1.0720    0.0846 O   0  0  0  0  0  0  0  0  0  0  0  0
   -1.3585   -2.2238    0.1555 N   0  0  0  0  0  0  0  0  0  0  0  0
    2.9348    0.0452   -0.0030 N   0  0  0  0  0  0  0  0  0  0  0  0
   -1.2717    0.2096   -0.0308 C   0  0  0  0  0  0  0  0  0  0  0  0
   -0.6226   -1.0213    0.0654 C   0  0  0  0  0  0  0  0  0  0  0  0
    1.5158    0.1004   -0.0123 C   0  0  0  0  0  0  0  0  0  0  0  0
    0.7712   -1.0758    0.0747 C   0  0  0  0  0  0  0  0  0  0  0  0
   -0.5271    1.3859   -0.1177 C   0  0  0  0  0  0  0  0  0  0  0  0
    0.8667    1.3312   -0.1086 C   0  0  0  0  0  0  0  0  0  0  0  0
   -2.7263    0.3010   -0.0420 C   0  0  0  0  0  0  0  0  0  0  0  0
  1 13  1  0
  2 13  2  0
  3  6  1  0
  4  6  2  0
  5  8  1  0
  6  9  1  0
  7  8  2  0
  7 11  1  0
  7 13  1  0
  8 10  1  0
  9 10  2  0
  9 12  1  0
 11 12  2  0
M  CHG  2   3  -1   6   1
M  END
>  <PUBCHEM_COMPOUND_CID>  (1) 
12076

>  <PUBCHEM_CONFORMER_RMSD>  (1) 
0.6

>  <PUBCHEM_CONFORMER_DIVERSEORDER>  (1) 
1

>  <PUBCHEM_MMFF94_PARTIAL_CHARGES>  (1) 
19
1 -0.65
10 -0.15
11 -0.15
12 -0.15
13 0.63
14 0.15
15 0.15
16 0.15
17 0.4
18 0.4
19 0.5
2 -0.57
3 -0.52
4 -0.52
5 -0.9
6 0.91
7 0.09
8 0.1
9 0.13

>  <PUBCHEM_EFFECTIVE_ROTOR_COUNT>  (1) 
2

>  <PUBCHEM_PHARMACOPHORE_FEATURES>  (1) 
9
1 1 acceptor
1 2 acceptor
1 3 acceptor
1 3 anion
1 4 acceptor
1 5 cation
1 5 donor
3 1 2 13 anion
6 7 8 9 10 11 12 rings

>  <PUBCHEM_HEAVY_ATOM_COUNT>  (1) 
13

>  <PUBCHEM_ATOM_DEF_STEREO_COUNT>  (1) 
0

>  <PUBCHEM_ATOM_UDEF_STEREO_COUNT>  (1) 
0

>  <PUBCHEM_BOND_DEF_STEREO_COUNT>  (1) 
0

>  <PUBCHEM_BOND_UDEF_STEREO_COUNT>  (1) 
0

>  <PUBCHEM_ISOTOPIC_ATOM_COUNT>  (1) 
0

>  <PUBCHEM_COMPONENT_COUNT>  (1) 
1

>  <PUBCHEM_CACTVS_TAUTO_COUNT>  (1) 
2

>  <PUBCHEM_CONFORMER_ID>  (1) 
00002F2C00000001

>  <PUBCHEM_MMFF94_ENERGY>  (1) 
52.0791

>  <PUBCHEM_FEATURE_SELFOVERLAP>  (1) 
45.81

>  <PUBCHEM_SHAPE_FINGERPRINT>  (1) 
10130415 120 18335977597785978928
10219947 1 18261395524576163773
11132069 177 18341323405739631264
12032990 46 18409173207401227899
13380535 76 18411698785589377278
13690532 89 18408600366338512535
14144814 61 18409166614599853520
14325111 11 18411138021742336228
14993402 34 18407757040803840557
15775835 57 18411140195307043929
16945 1 18408891749556705789
18186145 218 18339081492998794220
19026448 4 16128654137155610996
193761 8 17761212515350166397
20645476 183 17750818673325270774
207724 885 18259704514384221189
20871998 184 18200600331395074447
21501502 16 18192715776350883892
23235685 24 18411413999203060557
23402539 116 18271514321528164060
23402655 69 18195790892291005365
23463225 33 18335981965614945762
23552423 10 17971755725020664764
23559900 14 18342177765941734788
2748010 2 18049723211053148013
528886 8 18410569599989861578
54173680 148 18264773336187777243

>  <PUBCHEM_SHAPE_MULTIPOLES>  (1) 
234.09
5.42
1.74
0.61
1.42
0.35
0
-0.51
0.05
-0.33
-0.08
-0.12
-0.02
-0.22

>  <PUBCHEM_SHAPE_SELFOVERLAP>  (1) 
498.249

>  <PUBCHEM_SHAPE_VOLUME>  (1) 
130.4

>  <PUBCHEM_COORDINATE_TYPE>  (1) 
2
5
10

$$$$
