12078
     RDKit          3D

 11 11  0  0  0  0  0  0  0  0999 V2000
    3.4172    1.3137    0.9109 Cl  0  0  0  0  0  0  0  0  0  0  0  0
   -3.2483   -0.0689    0.2687 O   0  0  0  0  0  0  0  0  0  0  0  0
   -2.2406    1.8378   -0.1414 O   0  0  0  0  0  0  0  0  0  0  0  0
   -2.2095    0.5962    0.0385 N   0  0  0  0  0  0  0  0  0  0  0  0
    1.4343   -0.0196   -0.3342 C   0  0  0  0  0  0  0  0  0  0  0  0
    0.2075    0.6418   -0.2756 C   0  0  0  0  0  0  0  0  0  0  0  0
   -0.9604   -0.0764   -0.0198 C   0  0  0  0  0  0  0  0  0  0  0  0
    1.4929   -1.3992   -0.1370 C   0  0  0  0  0  0  0  0  0  0  0  0
   -0.9018   -1.4560    0.1774 C   0  0  0  0  0  0  0  0  0  0  0  0
    0.3249   -2.1174    0.1190 C   0  0  0  0  0  0  0  0  0  0  0  0
    2.6837    0.7480   -0.6067 C   0  0  0  0  0  0  0  0  0  0  0  0
  1 11  1  0
  2  4  1  0
  3  4  2  0
  4  7  1  0
  5  6  2  0
  5  8  1  0
  5 11  1  0
  6  7  1  0
  7  9  2  0
  8 10  2  0
  9 10  1  0
M  CHG  2   2  -1   4   1
M  END
>  <PUBCHEM_COMPOUND_CID>  (1) 
12078

>  <PUBCHEM_CONFORMER_RMSD>  (1) 
0.4

>  <PUBCHEM_CONFORMER_DIVERSEORDER>  (1) 
1
4
3
2

>  <PUBCHEM_MMFF94_PARTIAL_CHARGES>  (1) 
15
1 -0.29
10 -0.15
11 0.43
12 0.15
13 0.15
14 0.15
17 0.15
2 -0.52
3 -0.52
4 0.91
5 -0.14
6 -0.15
7 0.13
8 -0.15
9 -0.15

>  <PUBCHEM_EFFECTIVE_ROTOR_COUNT>  (1) 
2

>  <PUBCHEM_PHARMACOPHORE_FEATURES>  (1) 
4
1 2 acceptor
1 2 anion
1 3 acceptor
6 5 6 7 8 9 10 rings

>  <PUBCHEM_HEAVY_ATOM_COUNT>  (1) 
11

>  <PUBCHEM_ATOM_DEF_STEREO_COUNT>  (1) 
0

>  <PUBCHEM_ATOM_UDEF_STEREO_COUNT>  (1) 
0

>  <PUBCHEM_BOND_DEF_STEREO_COUNT>  (1) 
0

>  <PUBCHEM_BOND_UDEF_STEREO_COUNT>  (1) 
0

>  <PUBCHEM_ISOTOPIC_ATOM_COUNT>  (1) 
0

>  <PUBCHEM_COMPONENT_COUNT>  (1) 
1

>  <PUBCHEM_CACTVS_TAUTO_COUNT>  (1) 
1

>  <PUBCHEM_CONFORMER_ID>  (1) 
00002F2E00000001

>  <PUBCHEM_MMFF94_ENERGY>  (1) 
28.6669

>  <PUBCHEM_FEATURE_SELFOVERLAP>  (1) 
20.379

>  <PUBCHEM_SHAPE_FINGERPRINT>  (1) 
12423570 1 8429450334656347502
13380535 76 18409728495222806846
14325111 11 18409452457611116637
14390081 3 18342739611033844388
15775835 57 18272092703367683873
16945 1 18263372540987977382
20645464 45 18201441440926535920
20871998 184 18054236702111981910
21028194 46 18412268332849461284
21040471 1 18336272305335570742
21524375 3 18412823603422573310
230 275 18408042892452420036
23211744 41 18272937124008039060
23235685 24 18409165536673857980
23402539 116 17982718963956734847
23552423 10 18118410544565322999
2748010 2 18263089829155566191
305870 269 18335130952189027722
3071541 236 18043803397637088570
53812653 166 18271525398449319464
6333449 129 18198339748314908518
7364860 26 18198905803735731518

>  <PUBCHEM_SHAPE_MULTIPOLES>  (1) 
211.52
4.54
1.95
0.75
0.69
0.57
-0.04
-2.6
-0.77
-0.21
-0.11
0.42
-0.09
0.32

>  <PUBCHEM_SHAPE_SELFOVERLAP>  (1) 
429.678

>  <PUBCHEM_SHAPE_VOLUME>  (1) 
124.7

>  <PUBCHEM_COORDINATE_TYPE>  (1) 
2
5
10

$$$$
