12081
     RDKit          3D

 11 11  0  0  0  0  0  0  0  0999 V2000
    4.2968   -0.3318   -0.0018 Br  0  0  0  0  0  0  0  0  0  0  0  0
   -2.4407   -0.8545    0.0001 O   0  0  0  0  0  0  0  0  0  0  0  0
   -2.3807    1.4466   -0.0005 O   0  0  0  0  0  0  0  0  0  0  0  0
   -0.3535    0.1914    0.0011 C   0  0  0  0  0  0  0  0  0  0  0  0
    0.4746    1.3139    0.0006 C   0  0  0  0  0  0  0  0  0  0  0  0
    0.2045   -1.0870    0.0012 C   0  0  0  0  0  0  0  0  0  0  0  0
    1.8607    1.1578   -0.0002 C   0  0  0  0  0  0  0  0  0  0  0  0
    1.5906   -1.2429    0.0007 C   0  0  0  0  0  0  0  0  0  0  0  0
    2.4187   -0.1205    0.0000 C   0  0  0  0  0  0  0  0  0  0  0  0
   -1.7988    0.3537    0.0006 C   0  0  0  0  0  0  0  0  0  0  0  0
   -3.8721   -0.8267   -0.0018 C   0  0  0  0  0  0  0  0  0  0  0  0
  1  9  1  0
  2 10  1  0
  2 11  1  0
  3 10  2  0
  4  5  2  0
  4  6  1  0
  4 10  1  0
  5  7  1  0
  6  8  2  0
  7  9  2  0
  8  9  1  0
M  END
>  <PUBCHEM_COMPOUND_CID>  (1) 
12081

>  <PUBCHEM_CONFORMER_RMSD>  (1) 
0.4

>  <PUBCHEM_CONFORMER_DIVERSEORDER>  (1) 
1
2

>  <PUBCHEM_MMFF94_PARTIAL_CHARGES>  (1) 
15
1 -0.11
10 0.63
11 0.28
12 0.15
13 0.15
14 0.15
15 0.15
2 -0.43
3 -0.57
4 0.09
5 -0.15
6 -0.15
7 -0.15
8 -0.15
9 0.11

>  <PUBCHEM_EFFECTIVE_ROTOR_COUNT>  (1) 
2

>  <PUBCHEM_PHARMACOPHORE_FEATURES>  (1) 
3
1 1 hydrophobe
1 3 acceptor
6 4 5 6 7 8 9 rings

>  <PUBCHEM_HEAVY_ATOM_COUNT>  (1) 
11

>  <PUBCHEM_ATOM_DEF_STEREO_COUNT>  (1) 
0

>  <PUBCHEM_ATOM_UDEF_STEREO_COUNT>  (1) 
0

>  <PUBCHEM_BOND_DEF_STEREO_COUNT>  (1) 
0

>  <PUBCHEM_BOND_UDEF_STEREO_COUNT>  (1) 
0

>  <PUBCHEM_ISOTOPIC_ATOM_COUNT>  (1) 
0

>  <PUBCHEM_COMPONENT_COUNT>  (1) 
1

>  <PUBCHEM_CACTVS_TAUTO_COUNT>  (1) 
1

>  <PUBCHEM_CONFORMER_ID>  (1) 
00002F3100000001

>  <PUBCHEM_MMFF94_ENERGY>  (1) 
28.7293

>  <PUBCHEM_FEATURE_SELFOVERLAP>  (1) 
15.223

>  <PUBCHEM_SHAPE_FINGERPRINT>  (1) 
11062470 55 11530477839589432518
11806522 49 18410571829157249782
12032990 46 18413112740816177366
12897270 3 18408882966675587679
12932764 1 17131821062795136102
13690532 89 18408321082085273154
14325111 11 18410573981215342368
14993402 34 17967820465899930926
16945 1 18410575123349485058
18522853 276 18341894099445234280
193761 8 17474107601445732070
200 152 18130779075720660519
20201158 50 18407761443098131955
20871998 22 18200040534111042222
21293036 1 18408609175611641006
21501925 9 18409439298089719698
23402539 116 18341603832776041839
23402655 69 18196075665496592189
23463225 33 18335137558101968850
23552423 10 18261396619797884581
2748010 2 18268148647747836846
3312278 4 18341050709623404096
5084963 1 18342459269875635616
528886 8 18339355271430864696
8809292 202 18115030830389446411

>  <PUBCHEM_SHAPE_MULTIPOLES>  (1) 
220.58
6.39
1.44
0.61
0.06
0.2
0
-1.41
-0.01
-0.2
0
0.1
-0.01
0

>  <PUBCHEM_SHAPE_SELFOVERLAP>  (1) 
443.13

>  <PUBCHEM_SHAPE_VOLUME>  (1) 
134.5

>  <PUBCHEM_COORDINATE_TYPE>  (1) 
2
5
10

$$$$
