12091
     RDKit          3D

 12 12  0  0  0  0  0  0  0  0999 V2000
   -3.4715   -1.1102    0.0095 O   0  0  0  0  0  0  0  0  0  0  0  0
    3.4268    1.1183    0.0016 O   0  0  0  0  0  0  0  0  0  0  0  0
    3.4495   -1.0768   -0.0010 O   0  0  0  0  0  0  0  0  0  0  0  0
    2.8298    0.0145    0.0003 N   0  0  0  0  0  0  0  0  0  0  0  0
   -3.4933    1.1829   -0.0038 N   0  0  0  0  0  0  0  0  0  0  0  0
   -1.3794   -0.0285   -0.0016 C   0  0  0  0  0  0  0  0  0  0  0  0
    1.4102   -0.0001    0.0008 C   0  0  0  0  0  0  0  0  0  0  0  0
   -0.6944    1.1865    0.0016 C   0  0  0  0  0  0  0  0  0  0  0  0
   -0.6697   -1.2294   -0.0035 C   0  0  0  0  0  0  0  0  0  0  0  0
    0.7005    1.2006    0.0026 C   0  0  0  0  0  0  0  0  0  0  0  0
    0.7251   -1.2151   -0.0022 C   0  0  0  0  0  0  0  0  0  0  0  0
   -2.8336   -0.0427   -0.0043 C   0  0  0  0  0  0  0  0  0  0  0  0
  1 12  2  0
  2  4  1  0
  3  4  2  0
  4  7  1  0
  5 12  1  0
  6  8  2  0
  6  9  1  0
  6 12  1  0
  7 10  2  0
  7 11  1  0
  8 10  1  0
  9 11  2  0
M  CHG  2   2  -1   4   1
M  END
>  <PUBCHEM_COMPOUND_CID>  (1) 
12091

>  <PUBCHEM_CONFORMER_RMSD>  (1) 
0.6

>  <PUBCHEM_CONFORMER_DIVERSEORDER>  (1) 
1

>  <PUBCHEM_MMFF94_PARTIAL_CHARGES>  (1) 
18
1 -0.57
10 -0.15
11 -0.15
12 0.54
13 0.15
14 0.15
15 0.15
16 0.15
17 0.37
18 0.37
2 -0.52
3 -0.52
4 0.91
5 -0.8
6 0.09
7 0.13
8 -0.15
9 -0.15

>  <PUBCHEM_EFFECTIVE_ROTOR_COUNT>  (1) 
2

>  <PUBCHEM_PHARMACOPHORE_FEATURES>  (1) 
6
1 1 acceptor
1 2 acceptor
1 2 anion
1 3 acceptor
1 5 donor
6 6 7 8 9 10 11 rings

>  <PUBCHEM_HEAVY_ATOM_COUNT>  (1) 
12

>  <PUBCHEM_ATOM_DEF_STEREO_COUNT>  (1) 
0

>  <PUBCHEM_ATOM_UDEF_STEREO_COUNT>  (1) 
0

>  <PUBCHEM_BOND_DEF_STEREO_COUNT>  (1) 
0

>  <PUBCHEM_BOND_UDEF_STEREO_COUNT>  (1) 
0

>  <PUBCHEM_ISOTOPIC_ATOM_COUNT>  (1) 
0

>  <PUBCHEM_COMPONENT_COUNT>  (1) 
1

>  <PUBCHEM_CACTVS_TAUTO_COUNT>  (1) 
2

>  <PUBCHEM_CONFORMER_ID>  (1) 
00002F3B00000001

>  <PUBCHEM_MMFF94_ENERGY>  (1) 
37.9921

>  <PUBCHEM_FEATURE_SELFOVERLAP>  (1) 
30.528

>  <PUBCHEM_SHAPE_FINGERPRINT>  (1) 
10219947 1 18410858767258260991
10608611 8 18410852165930866025
11062470 55 18410856559708536741
11132069 177 18412538795303243328
12032990 46 18410580586527052911
12932764 1 17203320139296435175
14144814 61 18410573993773034401
14325111 11 18410573993751987205
14993402 34 18410856594010084207
16945 1 18411135857115579911
18186145 218 18113898238833339910
193761 8 17546165203572493159
20645476 183 17896339058783733670
23235685 24 18410569591410515297
23402539 116 18272641338395457502
23402655 69 18196919008406130461
23463225 33 18336263453418536018
2748010 2 18050568739810935055
528886 8 18411412891370367785
53812653 166 18341889684329708329

>  <PUBCHEM_SHAPE_MULTIPOLES>  (1) 
219.38
5.7
1.47
0.58
0.21
0.01
0
0.11
0
-0.03
0
-0.03
0
0

>  <PUBCHEM_SHAPE_SELFOVERLAP>  (1) 
463.755

>  <PUBCHEM_SHAPE_VOLUME>  (1) 
122.9

>  <PUBCHEM_COORDINATE_TYPE>  (1) 
2
5
10

$$$$
