12100
     RDKit          3D

  9  9  0  0  0  0  0  0  0  0999 V2000
   -0.8579    0.0445   -0.2890 C   0  0  0  0  0  0  0  0  0  0  0  0
   -2.2673   -0.3693   -0.5483 C   0  0  0  0  0  0  0  0  0  0  0  0
    0.1509   -0.9168   -0.2240 C   0  0  0  0  0  0  0  0  0  0  0  0
    1.4687   -0.5292    0.0193 C   0  0  0  0  0  0  0  0  0  0  0  0
   -0.5489    1.3930   -0.1108 C   0  0  0  0  0  0  0  0  0  0  0  0
    1.7775    0.8193    0.1974 C   0  0  0  0  0  0  0  0  0  0  0  0
   -3.0392   -0.6652    0.7332 C   0  0  0  0  0  0  0  0  0  0  0  0
    0.7688    1.7805    0.1323 C   0  0  0  0  0  0  0  0  0  0  0  0
    2.5474   -1.5568    0.0899 C   0  0  0  0  0  0  0  0  0  0  0  0
  1  2  1  0
  1  3  2  0
  1  5  1  0
  2  7  1  0
  3  4  1  0
  4  6  2  0
  4  9  1  0
  5  8  2  0
  6  8  1  0
M  END
>  <PUBCHEM_COMPOUND_CID>  (1) 
12100

>  <PUBCHEM_CONFORMER_RMSD>  (1) 
0.4

>  <PUBCHEM_CONFORMER_DIVERSEORDER>  (1) 
1
3
2
4

>  <PUBCHEM_MMFF94_PARTIAL_CHARGES>  (1) 
12
1 -0.14
12 0.15
13 0.15
14 0.15
18 0.15
2 0.14
3 -0.15
4 -0.14
5 -0.15
6 -0.15
8 -0.15
9 0.14

>  <PUBCHEM_EFFECTIVE_ROTOR_COUNT>  (1) 
1

>  <PUBCHEM_PHARMACOPHORE_FEATURES>  (1) 
2
1 7 hydrophobe
6 1 3 4 5 6 8 rings

>  <PUBCHEM_HEAVY_ATOM_COUNT>  (1) 
9

>  <PUBCHEM_ATOM_DEF_STEREO_COUNT>  (1) 
0

>  <PUBCHEM_ATOM_UDEF_STEREO_COUNT>  (1) 
0

>  <PUBCHEM_BOND_DEF_STEREO_COUNT>  (1) 
0

>  <PUBCHEM_BOND_UDEF_STEREO_COUNT>  (1) 
0

>  <PUBCHEM_ISOTOPIC_ATOM_COUNT>  (1) 
0

>  <PUBCHEM_COMPONENT_COUNT>  (1) 
1

>  <PUBCHEM_CACTVS_TAUTO_COUNT>  (1) 
1

>  <PUBCHEM_CONFORMER_ID>  (1) 
00002F4400000001

>  <PUBCHEM_MMFF94_ENERGY>  (1) 
18.0444

>  <PUBCHEM_FEATURE_SELFOVERLAP>  (1) 
10.148

>  <PUBCHEM_SHAPE_FINGERPRINT>  (1) 
10857977 72 18339346479653960898
161256 15 18411699893891152892
16945 1 18339354296341536572
20653091 64 18409736178776563065
20871998 184 17913481346903523822
20871998 22 18199477575399043590
21040471 1 17618779601608456444
23552423 10 18188773834150176486
241688 4 18265893558121169168
2748010 2 18268135492463547180
29004967 10 18334855056195544905

>  <PUBCHEM_SHAPE_MULTIPOLES>  (1) 
185.22
3.71
1.72
0.73
1.64
0.43
-0.02
-1.69
-0.56
-0.85
-0.07
0.25
-0.05
0.14

>  <PUBCHEM_SHAPE_SELFOVERLAP>  (1) 
374.941

>  <PUBCHEM_SHAPE_VOLUME>  (1) 
105.6

>  <PUBCHEM_COORDINATE_TYPE>  (1) 
2
5
10

$$$$
