12102
     RDKit          3D

  9  9  0  0  0  0  0  0  0  0999 V2000
   -3.1409   -0.6877    0.8408 Cl  0  0  0  0  0  0  0  0  0  0  0  0
   -0.8389    0.0640   -0.3407 C   0  0  0  0  0  0  0  0  0  0  0  0
    1.4718   -0.5395    0.0249 C   0  0  0  0  0  0  0  0  0  0  0  0
    0.1585   -0.9084   -0.2669 C   0  0  0  0  0  0  0  0  0  0  0  0
   -0.5230    1.4051   -0.1228 C   0  0  0  0  0  0  0  0  0  0  0  0
    1.7875    0.8016    0.2428 C   0  0  0  0  0  0  0  0  0  0  0  0
    0.7902    1.7739    0.1689 C   0  0  0  0  0  0  0  0  0  0  0  0
   -2.2435   -0.3299   -0.6519 C   0  0  0  0  0  0  0  0  0  0  0  0
    2.5383   -1.5791    0.1050 C   0  0  0  0  0  0  0  0  0  0  0  0
  1  8  1  0
  2  4  2  0
  2  5  1  0
  2  8  1  0
  3  4  1  0
  3  6  2  0
  3  9  1  0
  5  7  2  0
  6  7  1  0
M  END
>  <PUBCHEM_COMPOUND_CID>  (1) 
12102

>  <PUBCHEM_CONFORMER_RMSD>  (1) 
0.4

>  <PUBCHEM_CONFORMER_DIVERSEORDER>  (1) 
1
4
3
2

>  <PUBCHEM_MMFF94_PARTIAL_CHARGES>  (1) 
13
1 -0.29
10 0.15
11 0.15
12 0.15
13 0.15
2 -0.14
3 -0.14
4 -0.15
5 -0.15
6 -0.15
7 -0.15
8 0.43
9 0.14

>  <PUBCHEM_EFFECTIVE_ROTOR_COUNT>  (1) 
1

>  <PUBCHEM_PHARMACOPHORE_FEATURES>  (1) 
1
6 2 3 4 5 6 7 rings

>  <PUBCHEM_HEAVY_ATOM_COUNT>  (1) 
9

>  <PUBCHEM_ATOM_DEF_STEREO_COUNT>  (1) 
0

>  <PUBCHEM_ATOM_UDEF_STEREO_COUNT>  (1) 
0

>  <PUBCHEM_BOND_DEF_STEREO_COUNT>  (1) 
0

>  <PUBCHEM_BOND_UDEF_STEREO_COUNT>  (1) 
0

>  <PUBCHEM_ISOTOPIC_ATOM_COUNT>  (1) 
0

>  <PUBCHEM_COMPONENT_COUNT>  (1) 
1

>  <PUBCHEM_CACTVS_TAUTO_COUNT>  (1) 
1

>  <PUBCHEM_CONFORMER_ID>  (1) 
00002F4600000001

>  <PUBCHEM_MMFF94_ENERGY>  (1) 
19.0296

>  <PUBCHEM_FEATURE_SELFOVERLAP>  (1) 
5.074

>  <PUBCHEM_SHAPE_FINGERPRINT>  (1) 
12423570 1 10637775471216126110
16945 1 18339353196840471316
20653091 64 18409455799016538857
20871998 184 17913762821869678486
20871998 22 18199477575388494086
21040471 1 17618776303115777644
23552423 10 18189334580832854222
241688 4 18266454304772191872
2748010 2 18268415863644218764
29004967 10 18334853956678648857

>  <PUBCHEM_SHAPE_MULTIPOLES>  (1) 
187.09
3.84
1.72
0.79
2.02
0.39
-0.03
-1.75
-0.74
-0.9
-0.1
0.36
-0.06
0.18

>  <PUBCHEM_SHAPE_SELFOVERLAP>  (1) 
372.367

>  <PUBCHEM_SHAPE_VOLUME>  (1) 
109.2

>  <PUBCHEM_COORDINATE_TYPE>  (1) 
2
5
10

$$$$
