12115
     RDKit          3D

 12 12  0  0  0  0  0  0  0  0999 V2000
    1.5848   -1.0918   -0.0003 O   0  0  0  0  0  0  0  0  0  0  0  0
    0.2991    0.8776    0.0004 N   0  0  0  0  0  0  0  0  0  0  0  0
    2.6096    0.9804    0.0001 N   0  0  0  0  0  0  0  0  0  0  0  0
   -1.0147    0.4078    0.0004 C   0  0  0  0  0  0  0  0  0  0  0  0
    3.9701    0.4939   -0.0002 C   0  0  0  0  0  0  0  0  0  0  0  0
    1.4964    0.1337    0.0002 C   0  0  0  0  0  0  0  0  0  0  0  0
   -2.0781    1.3107   -0.0002 C   0  0  0  0  0  0  0  0  0  0  0  0
   -1.2651   -0.9645    0.0006 C   0  0  0  0  0  0  0  0  0  0  0  0
    4.0101   -1.0249   -0.0003 C   0  0  0  0  0  0  0  0  0  0  0  0
   -3.3916    0.8414   -0.0005 C   0  0  0  0  0  0  0  0  0  0  0  0
   -2.5787   -1.4336    0.0002 C   0  0  0  0  0  0  0  0  0  0  0  0
   -3.6419   -0.5307   -0.0004 C   0  0  0  0  0  0  0  0  0  0  0  0
  1  6  2  0
  2  4  1  0
  2  6  1  0
  3  5  1  0
  3  6  1  0
  4  7  2  0
  4  8  1  0
  5  9  1  0
  7 10  1  0
  8 11  2  0
 10 12  2  0
 11 12  1  0
M  END
>  <PUBCHEM_COMPOUND_CID>  (1) 
12115

>  <PUBCHEM_CONFORMER_RMSD>  (1) 
0.6

>  <PUBCHEM_CONFORMER_DIVERSEORDER>  (1) 
1
3
2

>  <PUBCHEM_MMFF94_PARTIAL_CHARGES>  (1) 
18
1 -0.57
10 -0.15
11 -0.15
12 -0.15
15 0.37
16 0.37
17 0.15
18 0.15
2 -0.55
22 0.15
23 0.15
24 0.15
3 -0.73
4 0.12
5 0.3
6 0.69
7 -0.15
8 -0.15

>  <PUBCHEM_EFFECTIVE_ROTOR_COUNT>  (1) 
4

>  <PUBCHEM_PHARMACOPHORE_FEATURES>  (1) 
4
1 1 acceptor
1 2 donor
1 3 donor
6 4 7 8 10 11 12 rings

>  <PUBCHEM_HEAVY_ATOM_COUNT>  (1) 
12

>  <PUBCHEM_ATOM_DEF_STEREO_COUNT>  (1) 
0

>  <PUBCHEM_ATOM_UDEF_STEREO_COUNT>  (1) 
0

>  <PUBCHEM_BOND_DEF_STEREO_COUNT>  (1) 
0

>  <PUBCHEM_BOND_UDEF_STEREO_COUNT>  (1) 
0

>  <PUBCHEM_ISOTOPIC_ATOM_COUNT>  (1) 
0

>  <PUBCHEM_COMPONENT_COUNT>  (1) 
1

>  <PUBCHEM_CACTVS_TAUTO_COUNT>  (1) 
3

>  <PUBCHEM_CONFORMER_ID>  (1) 
00002F5300000001

>  <PUBCHEM_MMFF94_ENERGY>  (1) 
36.34

>  <PUBCHEM_FEATURE_SELFOVERLAP>  (1) 
20.345

>  <PUBCHEM_SHAPE_FINGERPRINT>  (1) 
10608611 8 18412258441392514328
12032990 46 18410579495684253650
12932764 1 17417802976343863552
13024252 1 15502374530842138385
13380535 76 18411982442451620367
14144814 61 18409729547436689696
14325111 11 18410573989536251616
17834074 16 18412547583080962278
18186145 218 17168141260692346828
190213 19 18040434403777949924
1986462 14 18409169895923154294
200 152 17917983993274702557
20201158 50 18342740706255760191
20279233 1 17989494012767206935
20528008 55 18341607131352986445
20645464 45 18131077021712334911
20645477 70 18271525303870764590
20871998 184 18201443640002948647
22485316 2 18413103974629527682
23402539 116 18130781257859666933
23463225 33 18408603647740902054
23559900 14 18342452621957253912
3312278 4 18411983567911964867
5104073 3 18411138038980085768
6333449 129 18412823594959154853
69090 78 18343015593079712519
77779 3 18410577288334781620
8809292 202 18334298711796602827
9709674 26 18411706490898038294

>  <PUBCHEM_SHAPE_MULTIPOLES>  (1) 
231.12
7.66
1.43
0.59
4.78
0.14
0
0.58
0
-0.4
0
-0.04
0
0

>  <PUBCHEM_SHAPE_SELFOVERLAP>  (1) 
470.649

>  <PUBCHEM_SHAPE_VOLUME>  (1) 
133.6

>  <PUBCHEM_COORDINATE_TYPE>  (1) 
2
5
10

$$$$
