1211
     RDKit          2D

 45 51  0  0  1  0  0  0  0  0999 V2000
    0.0000    0.0000    0.0000 O   0  0  0  0  0  0  0  0  0  0  0  0
    0.0000    0.0000    0.0000 O   0  0  0  0  0  0  0  0  0  0  0  0
    0.0000    0.0000    0.0000 O   0  0  0  0  0  0  0  0  0  0  0  0
    0.0000    0.0000    0.0000 O   0  0  0  0  0  0  0  0  0  0  0  0
    0.0000    0.0000    0.0000 O   0  0  0  0  0  0  0  0  0  0  0  0
    0.0000    0.0000    0.0000 O   0  0  0  0  0  0  0  0  0  0  0  0
    0.0000    0.0000    0.0000 N   0  0  0  0  0  0  0  0  0  0  0  0
    0.0000    0.0000    0.0000 N   0  0  0  0  0  0  0  0  0  0  0  0
    0.0000    0.0000    0.0000 C   0  0  0  0  0  0  0  0  0  0  0  0
    0.0000    0.0000    0.0000 C   0  0  0  0  0  0  0  0  0  0  0  0
    0.0000    0.0000    0.0000 C   0  0  0  0  0  0  0  0  0  0  0  0
    0.0000    0.0000    0.0000 C   0  0  0  0  0  0  0  0  0  0  0  0
    0.0000    0.0000    0.0000 C   0  0  0  0  0  0  0  0  0  0  0  0
    0.0000    0.0000    0.0000 C   0  0  0  0  0  0  0  0  0  0  0  0
    0.0000    0.0000    0.0000 C   0  0  0  0  0  0  0  0  0  0  0  0
    0.0000    0.0000    0.0000 C   0  0  0  0  0  0  0  0  0  0  0  0
    0.0000    0.0000    0.0000 C   0  0  0  0  0  0  0  0  0  0  0  0
    0.0000    0.0000    0.0000 C   0  0  0  0  0  0  0  0  0  0  0  0
    0.0000    0.0000    0.0000 C   0  0  0  0  0  0  0  0  0  0  0  0
    0.0000    0.0000    0.0000 C   0  0  0  0  0  0  0  0  0  0  0  0
    0.0000    0.0000    0.0000 C   0  0  0  0  0  0  0  0  0  0  0  0
    0.0000    0.0000    0.0000 C   0  0  0  0  0  0  0  0  0  0  0  0
    0.0000    0.0000    0.0000 C   0  0  0  0  0  0  0  0  0  0  0  0
    0.0000    0.0000    0.0000 C   0  0  0  0  0  0  0  0  0  0  0  0
    0.0000    0.0000    0.0000 C   0  0  0  0  0  0  0  0  0  0  0  0
    0.0000    0.0000    0.0000 C   0  0  0  0  0  0  0  0  0  0  0  0
    0.0000    0.0000    0.0000 C   0  0  0  0  0  0  0  0  0  0  0  0
    0.0000    0.0000    0.0000 C   0  0  0  0  0  0  0  0  0  0  0  0
    0.0000    0.0000    0.0000 C   0  0  0  0  0  0  0  0  0  0  0  0
    0.0000    0.0000    0.0000 C   0  0  0  0  0  0  0  0  0  0  0  0
    0.0000    0.0000    0.0000 C   0  0  0  0  0  0  0  0  0  0  0  0
    0.0000    0.0000    0.0000 C   0  0  0  0  0  0  0  0  0  0  0  0
    0.0000    0.0000    0.0000 C   0  0  0  0  0  0  0  0  0  0  0  0
    0.0000    0.0000    0.0000 C   0  0  0  0  0  0  0  0  0  0  0  0
    0.0000    0.0000    0.0000 C   0  0  0  0  0  0  0  0  0  0  0  0
    0.0000    0.0000    0.0000 C   0  0  0  0  0  0  0  0  0  0  0  0
    0.0000    0.0000    0.0000 C   0  0  0  0  0  0  0  0  0  0  0  0
    0.0000    0.0000    0.0000 C   0  0  0  0  0  0  0  0  0  0  0  0
    0.0000    0.0000    0.0000 C   0  0  0  0  0  0  0  0  0  0  0  0
    0.0000    0.0000    0.0000 C   0  0  0  0  0  0  0  0  0  0  0  0
    0.0000    0.0000    0.0000 C   0  0  0  0  0  0  0  0  0  0  0  0
    0.0000    0.0000    0.0000 C   0  0  0  0  0  0  0  0  0  0  0  0
    0.0000    0.0000    0.0000 C   0  0  0  0  0  0  0  0  0  0  0  0
    0.0000    0.0000    0.0000 C   0  0  0  0  0  0  0  0  0  0  0  0
    0.0000    0.0000    0.0000 C   0  0  0  0  0  0  0  0  0  0  0  0
  1 17  1  0
  1 31  1  0
  2 21  1  0
  2 44  1  0
  3 20  1  0
  4 28  1  0
  4 36  1  0
  5 34  1  0
  6 41  1  0
  6 45  1  0
  7  9  1  0
  7 10  1  0
  7 15  1  0
  7 16  1  0
  8 24  1  0
  8 27  1  0
  8 38  1  0
  9 11  1  0
  9 13  1  0
 10 12  1  0
 11 14  1  0
 11 17  2  0
 12 14  1  0
 13 18  1  0
 14 19  2  0
 17 20  1  0
 18 22  2  0
 18 23  1  0
 19 21  1  0
 20 21  2  0
 22 28  1  0
 23 32  2  0
 24 25  1  0
 24 26  1  0
 25 29  2  0
 25 35  1  0
 26 33  1  0
 27 30  1  0
 28 34  2  0
 29 30  1  0
 29 37  1  0
 31 39  2  0
 31 40  1  0
 32 34  1  0
 33 42  2  0
 33 43  1  0
 35 36  2  0
 36 41  1  0
 37 41  2  0
 39 42  1  0
 40 43  2  0
M  CHG  1   7   1
M  END
>  <PUBCHEM_COMPOUND_CID>  (1) 
1211

>  <PUBCHEM_CONFORMER_RMSD>  (1) 
1

>  <PUBCHEM_CONFORMER_DIVERSEORDER>  (1) 
40
20
39
10
6
37
26
18
5
31
29
4
9
34
21
14
36
28
16
30
17
19
24
12
13
33
25
35
32
27
7
22
3
15
42
11
8
1
41
2
23
38

>  <PUBCHEM_MMFF94_PARTIAL_CHARGES>  (1) 
57
1 -0.17
10 0.5
11 -0.14
12 0.14
13 0.14
14 -0.14
15 0.5
16 0.5
17 0.08
18 -0.14
19 -0.15
2 -0.36
20 0.08
21 0.08
22 -0.15
23 -0.15
24 0.41
25 -0.14
26 0.14
27 0.27
28 0.08
29 -0.14
3 -0.53
30 0.14
31 0.08
32 -0.15
33 -0.14
34 0.08
35 -0.15
36 0.08
37 -0.15
38 0.27
39 -0.15
4 -0.17
40 -0.15
41 0.08
42 -0.15
43 -0.15
44 0.28
45 0.28
5 -0.53
59 0.15
6 -0.36
60 0.15
61 0.15
69 0.15
7 -1.01
70 0.45
71 0.15
72 0.15
76 0.15
77 0.15
78 0.15
79 0.15
8 -0.81
83 0.45
9 0.65

>  <PUBCHEM_EFFECTIVE_ROTOR_COUNT>  (1) 
4

>  <PUBCHEM_PHARMACOPHORE_FEATURES>  (1) 
14
1 1 acceptor
1 2 acceptor
1 3 donor
1 4 acceptor
1 5 donor
1 6 acceptor
1 7 cation
1 8 cation
6 11 14 17 19 20 21 rings
6 18 22 23 28 32 34 rings
6 25 29 35 36 37 41 rings
6 31 33 39 40 42 43 rings
6 7 9 10 11 12 14 rings
6 8 24 25 27 29 30 rings

>  <PUBCHEM_HEAVY_ATOM_COUNT>  (1) 
45

>  <PUBCHEM_ATOM_DEF_STEREO_COUNT>  (1) 
0

>  <PUBCHEM_ATOM_UDEF_STEREO_COUNT>  (1) 
2

>  <PUBCHEM_BOND_DEF_STEREO_COUNT>  (1) 
0

>  <PUBCHEM_BOND_UDEF_STEREO_COUNT>  (1) 
0

>  <PUBCHEM_ISOTOPIC_ATOM_COUNT>  (1) 
0

>  <PUBCHEM_COMPONENT_COUNT>  (1) 
1

>  <PUBCHEM_CACTVS_TAUTO_COUNT>  (1) 
8

$$$$
