12128
     RDKit          3D

  9  8  0  0  0  0  0  0  0  0999 V2000
   -0.4718   -2.4261    0.9306 Cl  0  0  0  0  0  0  0  0  0  0  0  0
    1.3857   -0.2892   -0.1410 O   0  0  0  0  0  0  0  0  0  0  0  0
   -0.8031    0.5882    0.1219 O   0  0  0  0  0  0  0  0  0  0  0  0
    0.0499   -0.2502   -0.6625 C   0  0  0  0  0  0  0  0  0  0  0  0
   -0.4807   -1.6849   -0.6943 C   0  0  0  0  0  0  0  0  0  0  0  0
    2.0025    0.9914   -0.1348 C   0  0  0  0  0  0  0  0  0  0  0  0
   -2.1343    0.6507   -0.3716 C   0  0  0  0  0  0  0  0  0  0  0  0
    3.4020    0.8618    0.4276 C   0  0  0  0  0  0  0  0  0  0  0  0
   -2.9502    1.5583    0.5241 C   0  0  0  0  0  0  0  0  0  0  0  0
  1  5  1  0
  2  4  1  0
  2  6  1  0
  3  4  1  0
  3  7  1  0
  4  5  1  0
  6  8  1  0
  7  9  1  0
M  END
>  <PUBCHEM_COMPOUND_CID>  (1) 
12128

>  <PUBCHEM_CONFORMER_RMSD>  (1) 
0.6

>  <PUBCHEM_CONFORMER_DIVERSEORDER>  (1) 
1
21
9
17
19
5
15
23
11
2
24
10
14
20
16
4
3
18
22
13
12
6
8
7

>  <PUBCHEM_MMFF94_PARTIAL_CHARGES>  (1) 
7
1 -0.29
2 -0.56
3 -0.56
4 0.56
5 0.29
6 0.28
7 0.28

>  <PUBCHEM_EFFECTIVE_ROTOR_COUNT>  (1) 
5

>  <PUBCHEM_PHARMACOPHORE_FEATURES>  (1) 
2
1 2 acceptor
1 3 acceptor

>  <PUBCHEM_HEAVY_ATOM_COUNT>  (1) 
9

>  <PUBCHEM_ATOM_DEF_STEREO_COUNT>  (1) 
0

>  <PUBCHEM_ATOM_UDEF_STEREO_COUNT>  (1) 
0

>  <PUBCHEM_BOND_DEF_STEREO_COUNT>  (1) 
0

>  <PUBCHEM_BOND_UDEF_STEREO_COUNT>  (1) 
0

>  <PUBCHEM_ISOTOPIC_ATOM_COUNT>  (1) 
0

>  <PUBCHEM_COMPONENT_COUNT>  (1) 
1

>  <PUBCHEM_CACTVS_TAUTO_COUNT>  (1) 
1

>  <PUBCHEM_CONFORMER_ID>  (1) 
00002F6000000001

>  <PUBCHEM_MMFF94_ENERGY>  (1) 
11.7088

>  <PUBCHEM_FEATURE_SELFOVERLAP>  (1) 
10.185

>  <PUBCHEM_SHAPE_FINGERPRINT>  (1) 
100427 49 17116916371000515245
14325111 11 18343019973566572229
14390081 3 18059856125758445881
170605 34 18129102234394037021
19021347 4 18409169904719025043
20653085 51 17704080589801109588
21028194 46 18272375264907979276
21040471 1 18411425015852151868
21524375 3 18342171142084377589
23211744 41 18338803295250805525
23500284 214 18131353046233538192
23552449 11 17758960316531738579
305870 269 18264485074977810729
528862 383 17970332737873228410
58734985 188 17686614645741377450

>  <PUBCHEM_SHAPE_MULTIPOLES>  (1) 
175.35
4.26
2.27
0.89
2.02
1.55
-0.04
-3.47
-0.88
-1.08
-0.59
-0.14
0.27
-0.06

>  <PUBCHEM_SHAPE_SELFOVERLAP>  (1) 
303.385

>  <PUBCHEM_SHAPE_VOLUME>  (1) 
117.9

>  <PUBCHEM_COORDINATE_TYPE>  (1) 
2
5
10

$$$$
