12130
     RDKit          3D

  9  8  0  0  0  0  0  0  0  0999 V2000
   -0.1191    2.5098    0.4835 O   0  0  0  0  0  0  0  0  0  0  0  0
   -0.0070    0.4707   -0.0611 N   0  0  0  0  0  0  0  0  0  0  0  0
    0.2558    1.7205   -0.3918 N   0  0  0  0  0  0  0  0  0  0  0  0
   -1.3213    0.0406   -0.5232 C   0  0  0  0  0  0  0  0  0  0  0  0
    1.0162   -0.4878   -0.5105 C   0  0  0  0  0  0  0  0  0  0  0  0
   -1.9612   -0.8969    0.4976 C   0  0  0  0  0  0  0  0  0  0  0  0
    2.1903   -0.5057    0.4650 C   0  0  0  0  0  0  0  0  0  0  0  0
   -3.3259   -1.3777    0.0289 C   0  0  0  0  0  0  0  0  0  0  0  0
    3.2723   -1.4735    0.0117 C   0  0  0  0  0  0  0  0  0  0  0  0
  1  3  2  0
  2  3  1  0
  2  4  1  0
  2  5  1  0
  4  6  1  0
  5  7  1  0
  6  8  1  0
  7  9  1  0
M  END
>  <PUBCHEM_COMPOUND_CID>  (1) 
12130

>  <PUBCHEM_CONFORMER_RMSD>  (1) 
0.6

>  <PUBCHEM_CONFORMER_DIVERSEORDER>  (1) 
1
57
29
21
53
61
35
44
27
59
15
38
52
23
50
16
33
8
48
36
7
6
54
58
2
4
39
51
25
10
3
49
26
31
62
12
45
55
11
47
34
18
42
37
13
46
22
60
14
32
43
9
41
56
20
19
28
17
30
24
5
40

>  <PUBCHEM_MMFF94_PARTIAL_CHARGES>  (1) 
5
1 -0.16
2 -0.36
3 -0.01
4 0.27
5 0.27

>  <PUBCHEM_EFFECTIVE_ROTOR_COUNT>  (1) 
5

>  <PUBCHEM_PHARMACOPHORE_FEATURES>  (1) 
2
1 8 hydrophobe
1 9 hydrophobe

>  <PUBCHEM_HEAVY_ATOM_COUNT>  (1) 
9

>  <PUBCHEM_ATOM_DEF_STEREO_COUNT>  (1) 
0

>  <PUBCHEM_ATOM_UDEF_STEREO_COUNT>  (1) 
0

>  <PUBCHEM_BOND_DEF_STEREO_COUNT>  (1) 
0

>  <PUBCHEM_BOND_UDEF_STEREO_COUNT>  (1) 
0

>  <PUBCHEM_ISOTOPIC_ATOM_COUNT>  (1) 
0

>  <PUBCHEM_COMPONENT_COUNT>  (1) 
1

>  <PUBCHEM_CACTVS_TAUTO_COUNT>  (1) 
1

>  <PUBCHEM_CONFORMER_ID>  (1) 
00002F6200000001

>  <PUBCHEM_MMFF94_ENERGY>  (1) 
7.1258

>  <PUBCHEM_FEATURE_SELFOVERLAP>  (1) 
10.149

>  <PUBCHEM_SHAPE_FINGERPRINT>  (1) 
10857977 72 18340193142320141234
14128692 85 17894919537447596622
18342897 69 18191581961183695010
20645477 70 18119522391798771671
20653091 64 18267314311890925609
20711978 78 18122049064748777197
20871998 184 18129095632749767518
20871998 22 18341901778994692934
21524375 3 10447928347530226023
23552449 11 18267870669164603263
29004967 10 18411416236865197562
528862 383 18122620823437574652

>  <PUBCHEM_SHAPE_MULTIPOLES>  (1) 
169.38
4.63
2.06
0.74
0.05
1.53
0
-3.97
0.33
0
0.24
-0.01
0
0.06

>  <PUBCHEM_SHAPE_SELFOVERLAP>  (1) 
302.005

>  <PUBCHEM_SHAPE_VOLUME>  (1) 
111.7

>  <PUBCHEM_COORDINATE_TYPE>  (1) 
2
5
10

$$$$
