12137
     RDKit          3D

 16 17  0  0  0  0  0  0  0  0999 V2000
    5.0406   -0.2398    0.3643 N   0  0  0  0  0  0  0  0  0  0  0  0
   -0.4763   -0.0439   -0.5661 N   0  0  0  0  0  0  0  0  0  0  0  0
   -1.0936   -0.0323    0.5248 N   0  0  0  0  0  0  0  0  0  0  0  0
    3.6513   -0.1901    0.1283 C   0  0  0  0  0  0  0  0  0  0  0  0
    0.9090   -0.0927   -0.3340 C   0  0  0  0  0  0  0  0  0  0  0  0
    2.9229   -1.3728    0.0014 C   0  0  0  0  0  0  0  0  0  0  0  0
    3.0051    1.0415    0.0234 C   0  0  0  0  0  0  0  0  0  0  0  0
    1.5483   -1.3241   -0.2304 C   0  0  0  0  0  0  0  0  0  0  0  0
    1.6304    1.0904   -0.2082 C   0  0  0  0  0  0  0  0  0  0  0  0
   -2.4718    0.0165    0.2944 C   0  0  0  0  0  0  0  0  0  0  0  0
    5.9428    0.7728   -0.0904 C   0  0  0  0  0  0  0  0  0  0  0  0
   -3.2004   -1.1664    0.1690 C   0  0  0  0  0  0  0  0  0  0  0  0
   -3.1182    1.2480    0.1898 C   0  0  0  0  0  0  0  0  0  0  0  0
   -4.5753   -1.1177   -0.0610 C   0  0  0  0  0  0  0  0  0  0  0  0
   -4.4931    1.2968   -0.0400 C   0  0  0  0  0  0  0  0  0  0  0  0
   -5.2217    0.1139   -0.1654 C   0  0  0  0  0  0  0  0  0  0  0  0
  1  4  1  0
  1 11  1  0
  2  3  2  0
  2  5  1  0
  3 10  1  0
  4  6  2  0
  4  7  1  0
  5  8  2  0
  5  9  1  0
  6  8  1  0
  7  9  2  0
 10 12  2  0
 10 13  1  0
 12 14  1  0
 13 15  2  0
 14 16  2  0
 15 16  1  0
M  END
>  <PUBCHEM_COMPOUND_CID>  (1) 
12137

>  <PUBCHEM_CONFORMER_RMSD>  (1) 
0.6

>  <PUBCHEM_CONFORMER_DIVERSEORDER>  (1) 
1
3
2

>  <PUBCHEM_MMFF94_PARTIAL_CHARGES>  (1) 
26
1 -0.87
10 0.18
11 0.37
12 -0.15
13 -0.15
14 -0.15
15 -0.15
16 -0.15
17 0.15
18 0.15
19 0.15
2 -0.18
20 0.15
21 0.4
22 0.15
23 0.15
27 0.15
28 0.15
29 0.15
3 -0.18
4 0.1
5 0.18
6 -0.15
7 -0.15
8 -0.15
9 -0.15

>  <PUBCHEM_EFFECTIVE_ROTOR_COUNT>  (1) 
3

>  <PUBCHEM_PHARMACOPHORE_FEATURES>  (1) 
4
1 1 cation
1 1 donor
6 10 12 13 14 15 16 rings
6 4 5 6 7 8 9 rings

>  <PUBCHEM_HEAVY_ATOM_COUNT>  (1) 
16

>  <PUBCHEM_ATOM_DEF_STEREO_COUNT>  (1) 
0

>  <PUBCHEM_ATOM_UDEF_STEREO_COUNT>  (1) 
0

>  <PUBCHEM_BOND_DEF_STEREO_COUNT>  (1) 
0

>  <PUBCHEM_BOND_UDEF_STEREO_COUNT>  (1) 
0

>  <PUBCHEM_ISOTOPIC_ATOM_COUNT>  (1) 
0

>  <PUBCHEM_COMPONENT_COUNT>  (1) 
1

>  <PUBCHEM_CACTVS_TAUTO_COUNT>  (1) 
2

>  <PUBCHEM_CONFORMER_ID>  (1) 
00002F6900000001

>  <PUBCHEM_MMFF94_ENERGY>  (1) 
54.2929

>  <PUBCHEM_FEATURE_SELFOVERLAP>  (1) 
20.297

>  <PUBCHEM_SHAPE_FINGERPRINT>  (1) 
10014705 185 18261391114378071325
10366900 7 16272204176439815723
11401426 45 18260547822659688499
12107183 9 17689152309908767745
12236239 1 17988924465949701574
12507557 5 18343302582625801721
12815109 37 18113335310249272879
13167823 11 18410290311505315571
14123238 8 18410855460128174785
14251718 22 18410575101853517106
15196674 1 18411138000346724978
17834072 33 18410856590010645804
19489759 90 18410290311573562729
200 152 18202280303831795603
20279233 1 18114190726138040947
20645477 56 18335702707347956917
20645477 70 18199751353799797166
21267235 1 18411428323024598207
21709351 56 18409442617767273444
22485316 2 18334012765785167627
23402539 116 18334851723543529405
23402655 69 18342457023618178799
23559900 14 18339917207967449481
26918003 58 18407759252901934539
300161 21 18334008376513006015
33824 294 18335138657519216442
351380 180 18409165515199073465
3545911 37 18412265030135713689
42 15 18334577936368322391
4214541 1 18410012122357681057
42788 4 18410573989799872304
5104073 3 18411139095616036467
542803 24 17603589629321559708
67856867 119 18262520428119562053
69090 78 18409728461274473147
77779 3 18411139125923282799
9709674 26 18411427206697565903
9971528 1 17967818210952507782

>  <PUBCHEM_SHAPE_MULTIPOLES>  (1) 
314.33
12.83
1.42
0.66
2.52
0.06
0.01
-1.48
-0.29
-0.32
0.02
-0.02
0
-0.04

>  <PUBCHEM_SHAPE_SELFOVERLAP>  (1) 
669.923

>  <PUBCHEM_SHAPE_VOLUME>  (1) 
175

>  <PUBCHEM_COORDINATE_TYPE>  (1) 
2
5
10

$$$$
