12135
     RDKit          3D

 11 11  0  0  0  0  0  0  0  0999 V2000
    3.4447   -1.1420   -0.2501 O   0  0  0  0  0  0  0  0  0  0  0  0
    3.9314    1.0448    0.2733 N   0  0  0  0  0  0  0  0  0  0  0  0
   -0.7597   -0.2306   -0.0589 C   0  0  0  0  0  0  0  0  0  0  0  0
   -1.2218    1.0797   -0.1820 C   0  0  0  0  0  0  0  0  0  0  0  0
   -1.6658   -1.2757    0.1208 C   0  0  0  0  0  0  0  0  0  0  0  0
    0.6672   -0.5072   -0.1184 C   0  0  0  0  0  0  0  0  0  0  0  0
   -2.5901    1.3450   -0.1254 C   0  0  0  0  0  0  0  0  0  0  0  0
   -3.0341   -1.0105    0.1772 C   0  0  0  0  0  0  0  0  0  0  0  0
   -3.4962    0.2998    0.0541 C   0  0  0  0  0  0  0  0  0  0  0  0
    1.6472    0.3995    0.0936 C   0  0  0  0  0  0  0  0  0  0  0  0
    3.0771   -0.0028    0.0157 C   0  0  0  0  0  0  0  0  0  0  0  0
  1 11  2  0
  2 11  1  0
  3  4  2  0
  3  5  1  0
  3  6  1  0
  4  7  1  0
  5  8  2  0
  6 10  2  0
  7  9  2  0
  8  9  1  0
 10 11  1  0
M  END
>  <PUBCHEM_COMPOUND_CID>  (1) 
12135

>  <PUBCHEM_CONFORMER_RMSD>  (1) 
0.4

>  <PUBCHEM_CONFORMER_DIVERSEORDER>  (1) 
1
2
3

>  <PUBCHEM_MMFF94_PARTIAL_CHARGES>  (1) 
20
1 -0.57
10 -0.14
11 0.62
12 0.15
13 0.15
14 0.15
15 0.15
16 0.15
17 0.15
18 0.15
19 0.37
2 -0.8
20 0.37
3 0.03
4 -0.15
5 -0.15
6 -0.18
7 -0.15
8 -0.15
9 -0.15

>  <PUBCHEM_EFFECTIVE_ROTOR_COUNT>  (1) 
2

>  <PUBCHEM_PHARMACOPHORE_FEATURES>  (1) 
3
1 1 acceptor
1 2 donor
6 3 4 5 7 8 9 rings

>  <PUBCHEM_HEAVY_ATOM_COUNT>  (1) 
11

>  <PUBCHEM_ATOM_DEF_STEREO_COUNT>  (1) 
0

>  <PUBCHEM_ATOM_UDEF_STEREO_COUNT>  (1) 
0

>  <PUBCHEM_BOND_DEF_STEREO_COUNT>  (1) 
0

>  <PUBCHEM_BOND_UDEF_STEREO_COUNT>  (1) 
1

>  <PUBCHEM_ISOTOPIC_ATOM_COUNT>  (1) 
0

>  <PUBCHEM_COMPONENT_COUNT>  (1) 
1

>  <PUBCHEM_CACTVS_TAUTO_COUNT>  (1) 
2

>  <PUBCHEM_CONFORMER_ID>  (1) 
00002F6700000001

>  <PUBCHEM_MMFF94_ENERGY>  (1) 
28.0912

>  <PUBCHEM_FEATURE_SELFOVERLAP>  (1) 
15.223

>  <PUBCHEM_SHAPE_FINGERPRINT>  (1) 
10608611 8 18412259519487223904
11132069 177 18334292076108910581
12032990 46 18408892849332253083
12932764 1 17458337507763036964
13024252 1 15646772289069089433
14144814 61 18334293149903306834
14325111 11 18410855447438438740
15219456 202 18272657804983819046
18186145 218 18342182124574021328
190213 19 17676206874788574974
20201158 50 18273216374117986599
20279233 1 18272653445929558646
20528008 55 18411976970789476501
20645464 45 18201727223729109839
20645477 70 17988363672334036206
20871998 184 18271530909119622807
23402539 116 18342167882953091615
23559900 14 18340763759227853810
3248919 1 17167869677083451618
6333449 129 18412260636452637791

>  <PUBCHEM_SHAPE_MULTIPOLES>  (1) 
215.52
6.85
1.36
0.62
4.65
0.03
0
0.39
0.28
-0.45
-0.01
-0.03
0
0.28

>  <PUBCHEM_SHAPE_SELFOVERLAP>  (1) 
445.727

>  <PUBCHEM_SHAPE_VOLUME>  (1) 
123.2

>  <PUBCHEM_COORDINATE_TYPE>  (1) 
2
5
10

$$$$
