1213
     RDKit          3D

 13 14  0  0  1  0  0  0  0  0999 V2000
    0.6698    0.5206   -1.8657 O   0  0  0  0  0  0  0  0  0  0  0  0
   -0.4782   -0.9636   -0.2739 C   0  0  0  0  0  0  0  0  0  0  0  0
    0.0977    0.4752   -0.5487 C   0  0  0  0  0  0  0  0  0  0  0  0
    1.2139    0.8592    0.4823 C   0  0  0  0  0  0  0  0  0  0  0  0
    0.6664   -2.0008   -0.1048 C   0  0  0  0  0  0  0  0  0  0  0  0
   -1.3582   -0.9500    1.0087 C   0  0  0  0  0  0  0  0  0  0  0  0
   -1.0496    1.5145   -0.5676 C   0  0  0  0  0  0  0  0  0  0  0  0
    2.3104   -0.2170    0.5721 C   0  0  0  0  0  0  0  0  0  0  0  0
    1.7397   -1.5887    0.8943 C   0  0  0  0  0  0  0  0  0  0  0  0
   -2.4567    0.1128    0.9882 C   0  0  0  0  0  0  0  0  0  0  0  0
   -1.9048    1.5015    0.6942 C   0  0  0  0  0  0  0  0  0  0  0  0
   -1.3392   -1.4702   -1.4620 C   0  0  0  0  0  0  0  0  0  0  0  0
    1.8887    2.2065    0.1829 C   0  0  0  0  0  0  0  0  0  0  0  0
  1  3  1  0
  2  3  1  0
  2  5  1  0
  2  6  1  0
  2 12  1  0
  3  4  1  0
  3  7  1  0
  4  8  1  0
  4 13  1  0
  5  9  1  0
  6 10  1  0
  7 11  1  0
  8  9  1  0
 10 11  1  0
M  END
>  <PUBCHEM_COMPOUND_CID>  (1) 
1213

>  <PUBCHEM_CONFORMER_RMSD>  (1) 
0.6

>  <PUBCHEM_CONFORMER_DIVERSEORDER>  (1) 
1
5
6
2
4
3

>  <PUBCHEM_MMFF94_PARTIAL_CHARGES>  (1) 
3
1 -0.68
3 0.28
35 0.4

>  <PUBCHEM_EFFECTIVE_ROTOR_COUNT>  (1) 
1.6

>  <PUBCHEM_PHARMACOPHORE_FEATURES>  (1) 
4
1 1 acceptor
1 1 donor
6 2 3 4 5 8 9 rings
6 2 3 6 7 10 11 rings

>  <PUBCHEM_HEAVY_ATOM_COUNT>  (1) 
13

>  <PUBCHEM_ATOM_DEF_STEREO_COUNT>  (1) 
0

>  <PUBCHEM_ATOM_UDEF_STEREO_COUNT>  (1) 
3

>  <PUBCHEM_BOND_DEF_STEREO_COUNT>  (1) 
0

>  <PUBCHEM_BOND_UDEF_STEREO_COUNT>  (1) 
0

>  <PUBCHEM_ISOTOPIC_ATOM_COUNT>  (1) 
0

>  <PUBCHEM_COMPONENT_COUNT>  (1) 
1

>  <PUBCHEM_CACTVS_TAUTO_COUNT>  (1) 
1

>  <PUBCHEM_CONFORMER_ID>  (1) 
000004BD00000001

>  <PUBCHEM_MMFF94_ENERGY>  (1) 
35.2694

>  <PUBCHEM_FEATURE_SELFOVERLAP>  (1) 
20.352

>  <PUBCHEM_SHAPE_FINGERPRINT>  (1) 
12423570 1 16764829593686415095
13024252 1 16883282858969894474
137420 1 13489772659381881007
144361 1 17899942080650892662
14617773 55 17914597587106969246
14761567 1 15669574351330663517
14817 1 13075416290722193663
15557651 10 17768011736374139865
15775835 57 18271536401981556025
16945 1 18336829671657330051
20511035 2 18262812756726172401
21922407 69 18198890595002952106
23236772 104 17696192886677987473
241688 4 17833230209226271714
2748010 2 18263926699180234408
5084963 1 17703783751736839706
535629 181 16979276185336092724
54276843 12 17533512371937228124
54338 74 17621307374545551401
68250623 7 17844536697959002124

>  <PUBCHEM_SHAPE_MULTIPOLES>  (1) 
261.66
2.88
2.27
1.33
0.02
0.18
-0.4
0.46
0.97
0.49
-0.06
-0.31
-0.19
-0.4

>  <PUBCHEM_SHAPE_SELFOVERLAP>  (1) 
531.95

>  <PUBCHEM_SHAPE_VOLUME>  (1) 
150.5

>  <PUBCHEM_COORDINATE_TYPE>  (1) 
2
5
10

$$$$
