12147
     RDKit          3D

 11 11  0  0  0  0  0  0  0  0999 V2000
    4.4969    0.5117    0.0002 I   0  0  0  0  0  0  0  0  0  0  0  0
   -2.6388    1.4362   -0.0016 O   0  0  0  0  0  0  0  0  0  0  0  0
   -1.6465   -0.7024   -0.0001 N   0  0  0  0  0  0  0  0  0  0  0  0
   -0.2778   -0.4323   -0.0005 C   0  0  0  0  0  0  0  0  0  0  0  0
    0.1721    0.8879    0.0002 C   0  0  0  0  0  0  0  0  0  0  0  0
    0.6406   -1.4822   -0.0007 C   0  0  0  0  0  0  0  0  0  0  0  0
    1.5405    1.1583    0.0005 C   0  0  0  0  0  0  0  0  0  0  0  0
    2.0090   -1.2117   -0.0002 C   0  0  0  0  0  0  0  0  0  0  0  0
    2.4590    0.1085    0.0004 C   0  0  0  0  0  0  0  0  0  0  0  0
   -2.7088    0.2115    0.0009 C   0  0  0  0  0  0  0  0  0  0  0  0
   -4.0462   -0.4856    0.0010 C   0  0  0  0  0  0  0  0  0  0  0  0
  1  9  1  0
  2 10  2  0
  3  4  1  0
  3 10  1  0
  4  5  2  0
  4  6  1  0
  5  7  1  0
  6  8  2  0
  7  9  2  0
  8  9  1  0
 10 11  1  0
M  END
>  <PUBCHEM_COMPOUND_CID>  (1) 
12147

>  <PUBCHEM_CONFORMER_RMSD>  (1) 
0.4

>  <PUBCHEM_CONFORMER_DIVERSEORDER>  (1) 
1
2

>  <PUBCHEM_MMFF94_PARTIAL_CHARGES>  (1) 
16
1 -0.08
10 0.57
11 0.06
12 0.15
13 0.15
14 0.37
15 0.15
16 0.15
2 -0.57
3 -0.55
4 0.12
5 -0.15
6 -0.15
7 -0.15
8 -0.15
9 0.08

>  <PUBCHEM_EFFECTIVE_ROTOR_COUNT>  (1) 
2

>  <PUBCHEM_PHARMACOPHORE_FEATURES>  (1) 
4
1 1 hydrophobe
1 2 acceptor
1 3 donor
6 4 5 6 7 8 9 rings

>  <PUBCHEM_HEAVY_ATOM_COUNT>  (1) 
11

>  <PUBCHEM_ATOM_DEF_STEREO_COUNT>  (1) 
0

>  <PUBCHEM_ATOM_UDEF_STEREO_COUNT>  (1) 
0

>  <PUBCHEM_BOND_DEF_STEREO_COUNT>  (1) 
0

>  <PUBCHEM_BOND_UDEF_STEREO_COUNT>  (1) 
0

>  <PUBCHEM_ISOTOPIC_ATOM_COUNT>  (1) 
0

>  <PUBCHEM_COMPONENT_COUNT>  (1) 
1

>  <PUBCHEM_CACTVS_TAUTO_COUNT>  (1) 
2

>  <PUBCHEM_CONFORMER_ID>  (1) 
00002F7300000001

>  <PUBCHEM_MMFF94_ENERGY>  (1) 
28.7972

>  <PUBCHEM_FEATURE_SELFOVERLAP>  (1) 
20.297

>  <PUBCHEM_SHAPE_FINGERPRINT>  (1) 
10219947 1 18040716974208691484
11062470 55 14405189477637961328
11401426 45 18342734144030814172
12032990 46 18411987931709708622
12932764 1 17203314603257670439
13380535 76 18408887360385381690
14144814 61 18410855434558824747
14325111 11 18410855438653383777
14993402 34 18131067147308286366
15775835 57 18272371987990097421
16945 1 18410855486066887558
18522853 276 18413108364022989241
193761 8 17689999363685905732
200 152 18272642468404444479
20201158 50 18335422361251150595
20645477 70 18339355250262477239
21293036 1 18343587351989692492
22485316 2 9727637189679619668
23235685 24 18410005555294520296
23402539 116 18409721898458729239
23402655 69 18341322306787237925
3248919 1 16878238484378773579
366044 4 18411136970076787426
4990 188 17988934357676031566
528886 8 18411132558860382010
53812653 166 18342452673349142544

>  <PUBCHEM_SHAPE_MULTIPOLES>  (1) 
227.46
7.37
1.4
0.63
0.15
0.08
0
-1.08
0
-0.09
0
-0.17
0
0

>  <PUBCHEM_SHAPE_SELFOVERLAP>  (1) 
445.555

>  <PUBCHEM_SHAPE_VOLUME>  (1) 
139.6

>  <PUBCHEM_COORDINATE_TYPE>  (1) 
2
5
10

$$$$
