1215
     RDKit          3D

 11 11  0  0  1  0  0  0  0  0999 V2000
    0.3592   -2.4244    0.0008 Cl  0  0  0  0  0  0  0  0  0  0  0  0
    3.2561   -1.0344    0.0135 Cl  0  0  0  0  0  0  0  0  0  0  0  0
   -2.7453   -0.1125   -1.2196 N   0  0  0  0  0  0  0  0  0  0  0  0
   -1.9859   -0.4868   -0.0140 C   0  0  0  0  0  0  0  0  0  0  0  0
   -0.6105    0.0998   -0.0076 C   0  0  0  0  0  0  0  0  0  0  0  0
   -2.7991   -0.0916    1.2303 C   0  0  0  0  0  0  0  0  0  0  0  0
    0.5335   -0.6983   -0.0006 C   0  0  0  0  0  0  0  0  0  0  0  0
   -0.4916    1.4896   -0.0089 C   0  0  0  0  0  0  0  0  0  0  0  0
    1.7967   -0.1064    0.0052 C   0  0  0  0  0  0  0  0  0  0  0  0
    0.7714    2.0814   -0.0031 C   0  0  0  0  0  0  0  0  0  0  0  0
    1.9156    1.2835    0.0040 C   0  0  0  0  0  0  0  0  0  0  0  0
  1  7  1  0
  2  9  1  0
  3  4  1  0
  4  5  1  0
  4  6  1  0
  5  7  2  0
  5  8  1  0
  7  9  1  0
  8 10  2  0
  9 11  2  0
 10 11  1  0
M  END
>  <PUBCHEM_COMPOUND_CID>  (1) 
1215

>  <PUBCHEM_CONFORMER_RMSD>  (1) 
0.4

>  <PUBCHEM_CONFORMER_DIVERSEORDER>  (1) 
1
5
2
4
3

>  <PUBCHEM_MMFF94_PARTIAL_CHARGES>  (1) 
15
1 -0.18
10 -0.15
11 -0.15
16 0.15
17 0.36
18 0.36
19 0.15
2 -0.18
20 0.15
3 -0.99
4 0.41
5 -0.14
7 0.18
8 -0.15
9 0.18

>  <PUBCHEM_EFFECTIVE_ROTOR_COUNT>  (1) 
1

>  <PUBCHEM_PHARMACOPHORE_FEATURES>  (1) 
3
1 3 cation
1 3 donor
6 5 7 8 9 10 11 rings

>  <PUBCHEM_HEAVY_ATOM_COUNT>  (1) 
11

>  <PUBCHEM_ATOM_DEF_STEREO_COUNT>  (1) 
0

>  <PUBCHEM_ATOM_UDEF_STEREO_COUNT>  (1) 
1

>  <PUBCHEM_BOND_DEF_STEREO_COUNT>  (1) 
0

>  <PUBCHEM_BOND_UDEF_STEREO_COUNT>  (1) 
0

>  <PUBCHEM_ISOTOPIC_ATOM_COUNT>  (1) 
0

>  <PUBCHEM_COMPONENT_COUNT>  (1) 
1

>  <PUBCHEM_CACTVS_TAUTO_COUNT>  (1) 
1

>  <PUBCHEM_CONFORMER_ID>  (1) 
000004BF00000001

>  <PUBCHEM_MMFF94_ENERGY>  (1) 
24.118

>  <PUBCHEM_FEATURE_SELFOVERLAP>  (1) 
15.223

>  <PUBCHEM_SHAPE_FINGERPRINT>  (1) 
10219947 1 18411422808175697010
11206711 2 18263645065521842900
13380535 21 18047487900014492500
16945 1 18410575076252583346
193761 8 17834396001016258186
20201158 50 18261670372661014183
20871998 22 18197796400550287974
21040471 1 18050568744195845928
21061003 4 18338243673580436531
23552423 10 17901958443696214662
241688 4 18339080359312076952
2748010 2 18336545039832138460
29004967 10 18334299781343452353
5084963 1 18131343124594956642
528886 8 18411982472479026603
63268167 104 18341608282356839985

>  <PUBCHEM_SHAPE_MULTIPOLES>  (1) 
225.13
4.05
2.13
0.86
0.31
0.11
0
0.85
0.21
-0.89
-0.01
0.65
0.04
-0.01

>  <PUBCHEM_SHAPE_SELFOVERLAP>  (1) 
445.341

>  <PUBCHEM_SHAPE_VOLUME>  (1) 
135.6

>  <PUBCHEM_COORDINATE_TYPE>  (1) 
2
5
10

$$$$
