12158
     RDKit          3D

  9  9  0  0  0  0  0  0  0  0999 V2000
    3.6115   -0.3198    0.0521 Br  0  0  0  0  0  0  0  0  0  0  0  0
   -2.4306    0.4296   -0.0817 N   0  0  0  0  0  0  0  0  0  0  0  0
   -3.2951   -0.6147    0.1495 N   0  0  0  0  0  0  0  0  0  0  0  0
   -1.0315    0.2559   -0.0506 C   0  0  0  0  0  0  0  0  0  0  0  0
   -0.1917    1.3684    0.0001 C   0  0  0  0  0  0  0  0  0  0  0  0
   -0.4875   -1.0284   -0.0706 C   0  0  0  0  0  0  0  0  0  0  0  0
    1.1922    1.1967    0.0306 C   0  0  0  0  0  0  0  0  0  0  0  0
    0.8965   -1.2002   -0.0400 C   0  0  0  0  0  0  0  0  0  0  0  0
    1.7364   -0.0876    0.0106 C   0  0  0  0  0  0  0  0  0  0  0  0
  1  9  1  0
  2  3  1  0
  2  4  1  0
  4  5  2  0
  4  6  1  0
  5  7  1  0
  6  8  2  0
  7  9  2  0
  8  9  1  0
M  END
>  <PUBCHEM_COMPOUND_CID>  (1) 
12158

>  <PUBCHEM_CONFORMER_RMSD>  (1) 
0.4

>  <PUBCHEM_CONFORMER_DIVERSEORDER>  (1) 
1
2

>  <PUBCHEM_MMFF94_PARTIAL_CHARGES>  (1) 
16
1 -0.11
10 0.15
11 0.15
12 0.15
13 0.15
14 0.4
15 0.36
16 0.36
2 -0.51
3 -0.71
4 0.1
5 -0.15
6 -0.15
7 -0.15
8 -0.15
9 0.11

>  <PUBCHEM_EFFECTIVE_ROTOR_COUNT>  (1) 
1

>  <PUBCHEM_PHARMACOPHORE_FEATURES>  (1) 
4
1 1 hydrophobe
1 2 donor
1 3 donor
6 4 5 6 7 8 9 rings

>  <PUBCHEM_HEAVY_ATOM_COUNT>  (1) 
9

>  <PUBCHEM_ATOM_DEF_STEREO_COUNT>  (1) 
0

>  <PUBCHEM_ATOM_UDEF_STEREO_COUNT>  (1) 
0

>  <PUBCHEM_BOND_DEF_STEREO_COUNT>  (1) 
0

>  <PUBCHEM_BOND_UDEF_STEREO_COUNT>  (1) 
0

>  <PUBCHEM_ISOTOPIC_ATOM_COUNT>  (1) 
0

>  <PUBCHEM_COMPONENT_COUNT>  (1) 
1

>  <PUBCHEM_CACTVS_TAUTO_COUNT>  (1) 
1

>  <PUBCHEM_CONFORMER_ID>  (1) 
00002F7E00000001

>  <PUBCHEM_MMFF94_ENERGY>  (1) 
27.3488

>  <PUBCHEM_FEATURE_SELFOVERLAP>  (1) 
21.827

>  <PUBCHEM_SHAPE_FINGERPRINT>  (1) 
10219947 1 18342739619718575126
10857977 72 18410846655471598520
11062470 55 8430315736064315042
12032990 46 18411424998830739366
14325111 11 18410573972535691532
15310529 11 16660634133930813422
16945 1 18413103953001645500
193761 8 17690279730487168526
21040471 1 18194964269002847324
21293036 1 18335707152227281572
23235685 24 18411695482985847212
23402655 69 18123732190051314309
23552423 10 17972886852119341614
2748010 2 18122342638563990406
29004967 10 18409451362426020297
5084963 1 18411138043227689840

>  <PUBCHEM_SHAPE_MULTIPOLES>  (1) 
181.2
4.64
1.34
0.62
0.34
0.15
0
-0.84
0.19
0.02
-0.01
0.1
0
0.04

>  <PUBCHEM_SHAPE_SELFOVERLAP>  (1) 
357.874

>  <PUBCHEM_SHAPE_VOLUME>  (1) 
111.8

>  <PUBCHEM_COORDINATE_TYPE>  (1) 
2
5
10

$$$$
