12152
     RDKit          3D

 10 10  0  0  0  0  0  0  0  0999 V2000
    1.8510    0.0366   -0.5659 N   0  0  0  0  0  0  0  0  0  0  0  0
    3.2655   -0.0035   -0.2300 N   0  0  0  0  0  0  0  0  0  0  0  0
    4.3257   -0.0329    0.0098 N   0  0  0  0  0  0  0  0  0  0  0  0
   -0.3911    0.0121    0.3309 C   0  0  0  0  0  0  0  0  0  0  0  0
    1.0629    0.0306    0.6632 C   0  0  0  0  0  0  0  0  0  0  0  0
   -1.0856    1.2114    0.1724 C   0  0  0  0  0  0  0  0  0  0  0  0
   -1.0563   -1.2043    0.1789 C   0  0  0  0  0  0  0  0  0  0  0  0
   -2.4454    1.1941   -0.1379 C   0  0  0  0  0  0  0  0  0  0  0  0
   -2.4161   -1.2217   -0.1315 C   0  0  0  0  0  0  0  0  0  0  0  0
   -3.1106   -0.0224   -0.2899 C   0  0  0  0  0  0  0  0  0  0  0  0
  1  2  1  0
  1  5  1  0
  2  3  3  0
  4  5  1  0
  4  6  2  0
  4  7  1  0
  6  8  1  0
  7  9  2  0
  8 10  2  0
  9 10  1  0
M  CHG  2   1  -1   2   1
M  END
>  <PUBCHEM_COMPOUND_CID>  (1) 
12152

>  <PUBCHEM_CONFORMER_RMSD>  (1) 
0.4

>  <PUBCHEM_CONFORMER_DIVERSEORDER>  (1) 
1
11
8
7
10
9
4
6
5
3
2

>  <PUBCHEM_MMFF94_PARTIAL_CHARGES>  (1) 
15
1 -0.56
10 -0.15
13 0.15
14 0.15
15 0.15
16 0.15
17 0.15
2 1.1
3 -0.49
4 -0.14
5 0.09
6 -0.15
7 -0.15
8 -0.15
9 -0.15

>  <PUBCHEM_EFFECTIVE_ROTOR_COUNT>  (1) 
2

>  <PUBCHEM_PHARMACOPHORE_FEATURES>  (1) 
1
6 4 6 7 8 9 10 rings

>  <PUBCHEM_HEAVY_ATOM_COUNT>  (1) 
10

>  <PUBCHEM_ATOM_DEF_STEREO_COUNT>  (1) 
0

>  <PUBCHEM_ATOM_UDEF_STEREO_COUNT>  (1) 
0

>  <PUBCHEM_BOND_DEF_STEREO_COUNT>  (1) 
0

>  <PUBCHEM_BOND_UDEF_STEREO_COUNT>  (1) 
0

>  <PUBCHEM_ISOTOPIC_ATOM_COUNT>  (1) 
0

>  <PUBCHEM_COMPONENT_COUNT>  (1) 
1

>  <PUBCHEM_CACTVS_TAUTO_COUNT>  (1) 
1

>  <PUBCHEM_CONFORMER_ID>  (1) 
00002F7800000001

>  <PUBCHEM_MMFF94_ENERGY>  (1) 
18.1503

>  <PUBCHEM_FEATURE_SELFOVERLAP>  (1) 
5.074

>  <PUBCHEM_SHAPE_FINGERPRINT>  (1) 
11062470 55 16702586016988927064
13024252 1 17603307063918975987
14325111 11 18409730625668646682
20201158 50 17917714595329420190
21040471 1 18267009562845172913
23402539 116 18341603802769267141
23552423 10 18188768495431967945
23559900 14 18272083865131980418
6333449 129 18342737412163381261

>  <PUBCHEM_SHAPE_MULTIPOLES>  (1) 
190.85
5.91
1.22
0.7
7.16
0.01
-0.03
0.06
0.84
-1.03
-0.02
0.02
0
0

>  <PUBCHEM_SHAPE_SELFOVERLAP>  (1) 
386.914

>  <PUBCHEM_SHAPE_VOLUME>  (1) 
110.9

>  <PUBCHEM_COORDINATE_TYPE>  (1) 
2
5
10

$$$$
