12156
     RDKit          3D

 10 10  0  0  0  0  0  0  0  0999 V2000
    4.0652   -0.5493   -0.5934 Cl  0  0  0  0  0  0  0  0  0  0  0  0
    1.0450   -0.3222   -0.1932 O   0  0  0  0  0  0  0  0  0  0  0  0
   -0.3060   -0.1783   -0.1126 C   0  0  0  0  0  0  0  0  0  0  0  0
    1.8422    0.7789    0.2402 C   0  0  0  0  0  0  0  0  0  0  0  0
   -0.8818    1.0855   -0.2426 C   0  0  0  0  0  0  0  0  0  0  0  0
   -1.1148   -1.2944    0.1008 C   0  0  0  0  0  0  0  0  0  0  0  0
    3.1909    0.2766    0.7215 C   0  0  0  0  0  0  0  0  0  0  0  0
   -2.2664    1.2332   -0.1591 C   0  0  0  0  0  0  0  0  0  0  0  0
   -2.4993   -1.1469    0.1842 C   0  0  0  0  0  0  0  0  0  0  0  0
   -3.0751    0.1169    0.0542 C   0  0  0  0  0  0  0  0  0  0  0  0
  1  7  1  0
  2  3  1  0
  2  4  1  0
  3  5  2  0
  3  6  1  0
  4  7  1  0
  5  8  1  0
  6  9  2  0
  8 10  2  0
  9 10  1  0
M  END
>  <PUBCHEM_COMPOUND_CID>  (1) 
12156

>  <PUBCHEM_CONFORMER_RMSD>  (1) 
0.6

>  <PUBCHEM_CONFORMER_DIVERSEORDER>  (1) 
2
5
6
1
4
3
9
7
8

>  <PUBCHEM_MMFF94_PARTIAL_CHARGES>  (1) 
15
1 -0.29
10 -0.15
13 0.15
14 0.15
17 0.15
18 0.15
19 0.15
2 -0.36
3 0.08
4 0.28
5 -0.15
6 -0.15
7 0.29
8 -0.15
9 -0.15

>  <PUBCHEM_EFFECTIVE_ROTOR_COUNT>  (1) 
3

>  <PUBCHEM_PHARMACOPHORE_FEATURES>  (1) 
2
1 2 acceptor
6 3 5 6 8 9 10 rings

>  <PUBCHEM_HEAVY_ATOM_COUNT>  (1) 
10

>  <PUBCHEM_ATOM_DEF_STEREO_COUNT>  (1) 
0

>  <PUBCHEM_ATOM_UDEF_STEREO_COUNT>  (1) 
0

>  <PUBCHEM_BOND_DEF_STEREO_COUNT>  (1) 
0

>  <PUBCHEM_BOND_UDEF_STEREO_COUNT>  (1) 
0

>  <PUBCHEM_ISOTOPIC_ATOM_COUNT>  (1) 
0

>  <PUBCHEM_COMPONENT_COUNT>  (1) 
1

>  <PUBCHEM_CACTVS_TAUTO_COUNT>  (1) 
1

>  <PUBCHEM_CONFORMER_ID>  (1) 
00002F7C00000002

>  <PUBCHEM_MMFF94_ENERGY>  (1) 
27.1217

>  <PUBCHEM_FEATURE_SELFOVERLAP>  (1) 
10.148

>  <PUBCHEM_SHAPE_FINGERPRINT>  (1) 
10857977 72 18338508754920289921
11062470 55 12540693717063066364
12032990 46 18411142467059854875
12932764 1 17385713703981349764
13024252 1 15213017150771208649
14144814 61 18333725806393449170
14325111 11 18411697694931038384
190213 19 17095525093462550286
20201158 50 18202285779735951438
20279233 1 18131348614138225838
20645464 45 18131075917721168959
20871998 184 18271247252157074943
23402539 116 18201429286427551469
23552423 10 17969220216673253524
369184 2 18341044198658503729
6333449 129 18413103961749842191

>  <PUBCHEM_SHAPE_MULTIPOLES>  (1) 
201.8
6.25
1.31
0.73
5.45
0.04
-0.02
0.54
0.18
-0.7
0.01
0.32
0
0.39

>  <PUBCHEM_SHAPE_SELFOVERLAP>  (1) 
397.927

>  <PUBCHEM_SHAPE_VOLUME>  (1) 
121.7

>  <PUBCHEM_COORDINATE_TYPE>  (1) 
2
5
10

$$$$
