12159
     RDKit          3D

  9  8  0  0  0  0  0  0  0  0999 V2000
   -3.8821    0.3386    0.2351 O   0  0  0  0  0  0  0  0  0  0  0  0
    0.9506    0.0174    0.1803 N   0  0  0  0  0  0  0  0  0  0  0  0
   -0.2843   -0.5979   -0.2907 C   0  0  0  0  0  0  0  0  0  0  0  0
   -1.4914    0.1965    0.1974 C   0  0  0  0  0  0  0  0  0  0  0  0
    1.0660    1.3892   -0.3183 C   0  0  0  0  0  0  0  0  0  0  0  0
    2.1113   -0.7724   -0.2343 C   0  0  0  0  0  0  0  0  0  0  0  0
   -2.7987   -0.4354   -0.2612 C   0  0  0  0  0  0  0  0  0  0  0  0
    2.3159    2.0652    0.2190 C   0  0  0  0  0  0  0  0  0  0  0  0
    2.0127   -2.2012    0.2727 C   0  0  0  0  0  0  0  0  0  0  0  0
  1  7  1  0
  2  3  1  0
  2  5  1  0
  2  6  1  0
  3  4  1  0
  4  7  1  0
  5  8  1  0
  6  9  1  0
M  END
>  <PUBCHEM_COMPOUND_CID>  (1) 
12159

>  <PUBCHEM_CONFORMER_RMSD>  (1) 
0.6

>  <PUBCHEM_CONFORMER_DIVERSEORDER>  (1) 
1
31
11
28
16
32
18
34
22
33
26
9
23
30
14
29
25
15
12
17
8
35
20
10
6
21
3
24
7
13
27
4
19
2
5

>  <PUBCHEM_MMFF94_PARTIAL_CHARGES>  (1) 
7
1 -0.68
2 -0.81
26 0.4
3 0.27
5 0.27
6 0.27
7 0.28

>  <PUBCHEM_EFFECTIVE_ROTOR_COUNT>  (1) 
5

>  <PUBCHEM_PHARMACOPHORE_FEATURES>  (1) 
3
1 1 acceptor
1 1 donor
1 2 cation

>  <PUBCHEM_HEAVY_ATOM_COUNT>  (1) 
9

>  <PUBCHEM_ATOM_DEF_STEREO_COUNT>  (1) 
0

>  <PUBCHEM_ATOM_UDEF_STEREO_COUNT>  (1) 
0

>  <PUBCHEM_BOND_DEF_STEREO_COUNT>  (1) 
0

>  <PUBCHEM_BOND_UDEF_STEREO_COUNT>  (1) 
0

>  <PUBCHEM_ISOTOPIC_ATOM_COUNT>  (1) 
0

>  <PUBCHEM_COMPONENT_COUNT>  (1) 
1

>  <PUBCHEM_CACTVS_TAUTO_COUNT>  (1) 
1

>  <PUBCHEM_CONFORMER_ID>  (1) 
00002F7F00000001

>  <PUBCHEM_MMFF94_ENERGY>  (1) 
7.6476

>  <PUBCHEM_FEATURE_SELFOVERLAP>  (1) 
15.223

>  <PUBCHEM_SHAPE_FINGERPRINT>  (1) 
12932741 1 17749114404542632139
12932764 1 17603577513730643851
14325111 11 18412263978021629047
14390081 3 18270120252791150409
161256 15 18334573508357566052
170605 34 18128822021779015324
19021347 4 17905040705464208490
20645477 70 18412259537184175111
20653091 64 18341616979786771554
20711985 344 17404885656285813486
20871998 22 18126003754813806790
21040471 1 17905328781900741476
23552333 60 18202286904800949424
23552423 10 18411978096123889527
23552449 11 18410289185954650794
528862 383 18410567414089027498

>  <PUBCHEM_SHAPE_MULTIPOLES>  (1) 
174.37
4.91
2.05
0.66
5.38
0.07
-0.02
-0.31
0.3
-2.47
0.16
-0.03
0
-0.1

>  <PUBCHEM_SHAPE_SELFOVERLAP>  (1) 
309.298

>  <PUBCHEM_SHAPE_VOLUME>  (1) 
115.5

>  <PUBCHEM_COORDINATE_TYPE>  (1) 
2
5
10

$$$$
