12155
     RDKit          3D

 10 10  0  0  0  0  0  0  0  0999 V2000
    0.8882   -0.6534   -0.5359 O   0  0  0  0  0  0  0  0  0  0  0  0
    3.1895   -0.4533    0.1092 C   0  0  0  0  0  0  0  0  0  0  0  0
    1.9030    0.2940   -0.2069 C   0  0  0  0  0  0  0  0  0  0  0  0
   -0.3980   -0.3045   -0.2594 C   0  0  0  0  0  0  0  0  0  0  0  0
    4.3151    0.4938    0.4845 C   0  0  0  0  0  0  0  0  0  0  0  0
   -0.7782    1.0373   -0.2876 C   0  0  0  0  0  0  0  0  0  0  0  0
   -1.3358   -1.2886    0.0530 C   0  0  0  0  0  0  0  0  0  0  0  0
   -2.0961    1.3949   -0.0032 C   0  0  0  0  0  0  0  0  0  0  0  0
   -2.6538   -0.9310    0.3372 C   0  0  0  0  0  0  0  0  0  0  0  0
   -3.0339    0.4108    0.3091 C   0  0  0  0  0  0  0  0  0  0  0  0
  1  3  1  0
  1  4  1  0
  2  3  1  0
  2  5  1  0
  4  6  2  0
  4  7  1  0
  6  8  1  0
  7  9  2  0
  8 10  2  0
  9 10  1  0
M  END
>  <PUBCHEM_COMPOUND_CID>  (1) 
12155

>  <PUBCHEM_CONFORMER_RMSD>  (1) 
0.6

>  <PUBCHEM_CONFORMER_DIVERSEORDER>  (1) 
1
6
9
4
8
2
5
3
7

>  <PUBCHEM_MMFF94_PARTIAL_CHARGES>  (1) 
13
1 -0.36
10 -0.15
18 0.15
19 0.15
20 0.15
21 0.15
22 0.15
3 0.28
4 0.08
6 -0.15
7 -0.15
8 -0.15
9 -0.15

>  <PUBCHEM_EFFECTIVE_ROTOR_COUNT>  (1) 
3

>  <PUBCHEM_PHARMACOPHORE_FEATURES>  (1) 
3
1 1 acceptor
1 5 hydrophobe
6 4 6 7 8 9 10 rings

>  <PUBCHEM_HEAVY_ATOM_COUNT>  (1) 
10

>  <PUBCHEM_ATOM_DEF_STEREO_COUNT>  (1) 
0

>  <PUBCHEM_ATOM_UDEF_STEREO_COUNT>  (1) 
0

>  <PUBCHEM_BOND_DEF_STEREO_COUNT>  (1) 
0

>  <PUBCHEM_BOND_UDEF_STEREO_COUNT>  (1) 
0

>  <PUBCHEM_ISOTOPIC_ATOM_COUNT>  (1) 
0

>  <PUBCHEM_COMPONENT_COUNT>  (1) 
1

>  <PUBCHEM_CACTVS_TAUTO_COUNT>  (1) 
1

>  <PUBCHEM_CONFORMER_ID>  (1) 
00002F7B00000001

>  <PUBCHEM_MMFF94_ENERGY>  (1) 
25.253

>  <PUBCHEM_FEATURE_SELFOVERLAP>  (1) 
15.223

>  <PUBCHEM_SHAPE_FINGERPRINT>  (1) 
10857977 72 18411136961059364121
12251169 10 18334859432904382476
12932764 1 17560792247781530542
13024252 1 14345793838410454013
14144814 61 18334293145856278818
14325111 11 18411700954853323126
15219456 202 18130514024319367518
20528008 55 18412538821030855393
20645464 45 18131074822314623903
20871998 184 18272094949831220023
22485316 2 12685092601109707656
23402539 116 18341322362674521287
23552423 10 17755032122052107461
2748010 2 17975710398100406775
3248919 1 17458354043519196742
369184 2 18334858303275145135
6333449 129 18342454842070185039
75552 356 18335142011444991131

>  <PUBCHEM_SHAPE_MULTIPOLES>  (1) 
199.93
6.39
1.29
0.7
6.77
0.07
0.01
0.56
1.37
-0.81
0
0.06
0
0.16

>  <PUBCHEM_SHAPE_SELFOVERLAP>  (1) 
400.028

>  <PUBCHEM_SHAPE_VOLUME>  (1) 
119

>  <PUBCHEM_COORDINATE_TYPE>  (1) 
2
5
10

$$$$
