12160
     RDKit          3D

  9  9  0  0  0  0  0  0  0  0999 V2000
    0.9786    0.0002    0.2903 C   0  0  0  0  0  0  0  0  0  0  0  0
    2.4566    0.0000    0.4905 C   0  0  0  0  0  0  0  0  0  0  0  0
   -1.7859   -0.0001   -0.0840 C   0  0  0  0  0  0  0  0  0  0  0  0
    0.2872    1.2081    0.1967 C   0  0  0  0  0  0  0  0  0  0  0  0
    0.2877   -1.2080    0.1968 C   0  0  0  0  0  0  0  0  0  0  0  0
   -1.0950    1.2080    0.0095 C   0  0  0  0  0  0  0  0  0  0  0  0
   -1.0946   -1.2081    0.0096 C   0  0  0  0  0  0  0  0  0  0  0  0
    3.2289    0.0000   -0.8243 C   0  0  0  0  0  0  0  0  0  0  0  0
   -3.2635   -0.0002   -0.2851 C   0  0  0  0  0  0  0  0  0  0  0  0
  1  2  1  0
  1  4  2  0
  1  5  1  0
  2  8  1  0
  3  6  2  0
  3  7  1  0
  3  9  1  0
  4  6  1  0
  5  7  2  0
M  END
>  <PUBCHEM_COMPOUND_CID>  (1) 
12160

>  <PUBCHEM_CONFORMER_RMSD>  (1) 
0.4

>  <PUBCHEM_CONFORMER_DIVERSEORDER>  (1) 
1
2

>  <PUBCHEM_MMFF94_PARTIAL_CHARGES>  (1) 
12
1 -0.14
12 0.15
13 0.15
14 0.15
15 0.15
2 0.14
3 -0.14
4 -0.15
5 -0.15
6 -0.15
7 -0.15
9 0.14

>  <PUBCHEM_EFFECTIVE_ROTOR_COUNT>  (1) 
1

>  <PUBCHEM_PHARMACOPHORE_FEATURES>  (1) 
2
1 8 hydrophobe
6 1 3 4 5 6 7 rings

>  <PUBCHEM_HEAVY_ATOM_COUNT>  (1) 
9

>  <PUBCHEM_ATOM_DEF_STEREO_COUNT>  (1) 
0

>  <PUBCHEM_ATOM_UDEF_STEREO_COUNT>  (1) 
0

>  <PUBCHEM_BOND_DEF_STEREO_COUNT>  (1) 
0

>  <PUBCHEM_BOND_UDEF_STEREO_COUNT>  (1) 
0

>  <PUBCHEM_ISOTOPIC_ATOM_COUNT>  (1) 
0

>  <PUBCHEM_COMPONENT_COUNT>  (1) 
1

>  <PUBCHEM_CACTVS_TAUTO_COUNT>  (1) 
1

>  <PUBCHEM_CONFORMER_ID>  (1) 
00002F8000000001

>  <PUBCHEM_MMFF94_ENERGY>  (1) 
18.0492

>  <PUBCHEM_FEATURE_SELFOVERLAP>  (1) 
10.148

>  <PUBCHEM_SHAPE_FINGERPRINT>  (1) 
11206711 2 18337664231227275685
12032990 46 18340492252485440027
12897270 3 18410575076273610988
14325111 11 18409727335460018824
14993402 34 18186803590643293669
15310529 11 16660353771023630313
16714656 1 18410573985209473426
16945 1 18410569587226259459
193761 8 17618782457814079049
20201158 50 18060425703120374046
20645464 45 17988062487725530098
20645476 183 17749679574952343654
21040471 1 18338227163747217192
21293036 1 18408323310624511397
23235685 24 18408880728839377325
23402655 69 18123447420992910733
23552423 10 18044372957597496956
2748010 2 18049998089149950579
29004967 10 18342175578748443883
369184 2 18411974767518681066
5084963 1 18273495667235441224

>  <PUBCHEM_SHAPE_MULTIPOLES>  (1) 
185.22
4.37
1.27
0.75
0.71
0
-0.05
0
-0.96
-0.26
0.07
0.29
0
0

>  <PUBCHEM_SHAPE_SELFOVERLAP>  (1) 
374.946

>  <PUBCHEM_SHAPE_VOLUME>  (1) 
103.4

>  <PUBCHEM_COORDINATE_TYPE>  (1) 
2
5
10

$$$$
