12162
     RDKit          3D

  9  9  0  0  0  0  0  0  0  0999 V2000
   -3.6764   -0.0002   -0.0001 Br  0  0  0  0  0  0  0  0  0  0  0  0
    3.5941    0.0000   -0.0003 N   0  0  0  0  0  0  0  0  0  0  0  0
    1.0032    0.0000    0.0003 C   0  0  0  0  0  0  0  0  0  0  0  0
    0.3059   -1.2080    0.0002 C   0  0  0  0  0  0  0  0  0  0  0  0
    0.3058    1.2080    0.0002 C   0  0  0  0  0  0  0  0  0  0  0  0
   -1.0890   -1.2080   -0.0001 C   0  0  0  0  0  0  0  0  0  0  0  0
   -1.0891    1.2081    0.0000 C   0  0  0  0  0  0  0  0  0  0  0  0
   -1.7866    0.0000   -0.0001 C   0  0  0  0  0  0  0  0  0  0  0  0
    2.4320   -0.0001    0.0000 C   0  0  0  0  0  0  0  0  0  0  0  0
  1  8  1  0
  2  9  3  0
  3  4  2  0
  3  5  1  0
  3  9  1  0
  4  6  1  0
  5  7  2  0
  6  8  2  0
  7  8  1  0
M  END
>  <PUBCHEM_COMPOUND_CID>  (1) 
12162

>  <PUBCHEM_CONFORMER_RMSD>  (1) 
0.4

>  <PUBCHEM_CONFORMER_DIVERSEORDER>  (1) 
1

>  <PUBCHEM_MMFF94_PARTIAL_CHARGES>  (1) 
13
1 -0.11
10 0.15
11 0.15
12 0.15
13 0.15
2 -0.56
3 0.07
4 -0.15
5 -0.15
6 -0.15
7 -0.15
8 0.11
9 0.48

>  <PUBCHEM_EFFECTIVE_ROTOR_COUNT>  (1) 
0

>  <PUBCHEM_PHARMACOPHORE_FEATURES>  (1) 
3
1 1 hydrophobe
1 2 acceptor
6 3 4 5 6 7 8 rings

>  <PUBCHEM_HEAVY_ATOM_COUNT>  (1) 
9

>  <PUBCHEM_ATOM_DEF_STEREO_COUNT>  (1) 
0

>  <PUBCHEM_ATOM_UDEF_STEREO_COUNT>  (1) 
0

>  <PUBCHEM_BOND_DEF_STEREO_COUNT>  (1) 
0

>  <PUBCHEM_BOND_UDEF_STEREO_COUNT>  (1) 
0

>  <PUBCHEM_ISOTOPIC_ATOM_COUNT>  (1) 
0

>  <PUBCHEM_COMPONENT_COUNT>  (1) 
1

>  <PUBCHEM_CACTVS_TAUTO_COUNT>  (1) 
1

>  <PUBCHEM_CONFORMER_ID>  (1) 
00002F8200000001

>  <PUBCHEM_MMFF94_ENERGY>  (1) 
15.4675

>  <PUBCHEM_FEATURE_SELFOVERLAP>  (1) 
15.223

>  <PUBCHEM_SHAPE_FINGERPRINT>  (1) 
10219947 1 18410295808968086665
11062470 55 15123792885640916003
12032990 46 18410582790040415595
14325111 11 18410856516727156800
15310529 11 16443333261165662169
16945 1 18410573985299144199
193761 8 17689997834540313863
21040471 1 18338798905488176224
21293036 1 18409164420040324933
23235685 24 18410851057992405229
23402539 116 18272922813097907093
23402655 69 18195509421683063085
23552423 10 18043811111535079796
2748010 2 18122342651427754271
29004967 10 18261118460831364721
369184 2 18411978061858817290
5084963 1 18343864419997823505
528886 8 18412538821294677595

>  <PUBCHEM_SHAPE_MULTIPOLES>  (1) 
186.18
4.99
1.27
0.62
0.14
0
0
0
0
-0.2
0
-0.09
0
0

>  <PUBCHEM_SHAPE_SELFOVERLAP>  (1) 
373.184

>  <PUBCHEM_SHAPE_VOLUME>  (1) 
112.4

>  <PUBCHEM_COORDINATE_TYPE>  (1) 
2
5
10

$$$$
