12178
     RDKit          3D

  7  6  0  0  1  0  0  0  0  0999 V2000
    0.4081    1.8296   -0.1071 O   0  0  0  0  0  0  0  0  0  0  0  0
    0.6396    0.4794    0.2978 C   0  0  0  0  0  0  0  0  0  0  0  0
   -0.5318   -0.3801   -0.1939 C   0  0  0  0  0  0  0  0  0  0  0  0
    1.9921    0.0367   -0.2734 C   0  0  0  0  0  0  0  0  0  0  0  0
   -1.8810    0.1250    0.3288 C   0  0  0  0  0  0  0  0  0  0  0  0
    2.4040   -1.3671    0.1389 C   0  0  0  0  0  0  0  0  0  0  0  0
   -3.0310   -0.7236   -0.1911 C   0  0  0  0  0  0  0  0  0  0  0  0
  1  2  1  0
  2  3  1  0
  2  4  1  0
  3  5  1  0
  4  6  1  0
  5  7  1  0
M  END
>  <PUBCHEM_COMPOUND_CID>  (1) 
12178

>  <PUBCHEM_CONFORMER_RMSD>  (1) 
0.4

>  <PUBCHEM_CONFORMER_DIVERSEORDER>  (1) 
3
28
7
21
6
14
17
26
25
16
23
15
10
12
20
1
4
22
2
24
9
18
5
11
8
19
13
27

>  <PUBCHEM_MMFF94_PARTIAL_CHARGES>  (1) 
3
1 -0.68
2 0.28
21 0.4

>  <PUBCHEM_EFFECTIVE_ROTOR_COUNT>  (1) 
3

>  <PUBCHEM_PHARMACOPHORE_FEATURES>  (1) 
4
1 1 acceptor
1 1 donor
1 6 hydrophobe
1 7 hydrophobe

>  <PUBCHEM_HEAVY_ATOM_COUNT>  (1) 
7

>  <PUBCHEM_ATOM_DEF_STEREO_COUNT>  (1) 
0

>  <PUBCHEM_ATOM_UDEF_STEREO_COUNT>  (1) 
1

>  <PUBCHEM_BOND_DEF_STEREO_COUNT>  (1) 
0

>  <PUBCHEM_BOND_UDEF_STEREO_COUNT>  (1) 
0

>  <PUBCHEM_ISOTOPIC_ATOM_COUNT>  (1) 
0

>  <PUBCHEM_COMPONENT_COUNT>  (1) 
1

>  <PUBCHEM_CACTVS_TAUTO_COUNT>  (1) 
1

>  <PUBCHEM_CONFORMER_ID>  (1) 
00002F9200000003

>  <PUBCHEM_MMFF94_ENERGY>  (1) 
1.5316

>  <PUBCHEM_FEATURE_SELFOVERLAP>  (1) 
20.297

>  <PUBCHEM_SHAPE_FINGERPRINT>  (1) 
12932741 1 17458625691731897683
20651381 32 18260822687871699863
23552423 10 18115595824820769934
23552449 11 18131627915318081448
29004967 10 18335423478005775736
5460574 1 8286206041241003307

>  <PUBCHEM_SHAPE_MULTIPOLES>  (1) 
138.19
4.07
1.37
0.66
1.64
0.35
-0.01
-1.83
0.11
-0.54
0.02
0.01
-0.02
-0.15

>  <PUBCHEM_SHAPE_SELFOVERLAP>  (1) 
239.206

>  <PUBCHEM_SHAPE_VOLUME>  (1) 
92.7

>  <PUBCHEM_COORDINATE_TYPE>  (1) 
2
5
10

$$$$
