1217
     RDKit          3D

 12 12  0  0  1  0  0  0  0  0999 V2000
   -2.6161    2.0472   -0.1121 O   0  0  0  0  0  0  0  0  0  0  0  0
    2.1444   -0.3459   -1.7441 O   0  0  0  0  0  0  0  0  0  0  0  0
    3.0340    1.0962   -0.2459 O   0  0  0  0  0  0  0  0  0  0  0  0
    1.8181    0.0187    1.9018 N   0  0  0  0  0  0  0  0  0  0  0  0
    1.4669   -0.5454    0.5867 C   0  0  0  0  0  0  0  0  0  0  0  0
    0.0070   -0.4710    0.2923 C   0  0  0  0  0  0  0  0  0  0  0  0
   -0.6293    0.7686    0.2266 C   0  0  0  0  0  0  0  0  0  0  0  0
   -0.7225   -1.6413    0.0827 C   0  0  0  0  0  0  0  0  0  0  0  0
   -1.9949    0.8379   -0.0486 C   0  0  0  0  0  0  0  0  0  0  0  0
   -2.0882   -1.5721   -0.1924 C   0  0  0  0  0  0  0  0  0  0  0  0
    2.3050    0.1394   -0.4890 C   0  0  0  0  0  0  0  0  0  0  0  0
   -2.7244   -0.3324   -0.2582 C   0  0  0  0  0  0  0  0  0  0  0  0
  1  9  1  0
  2 11  1  0
  3 11  2  0
  4  5  1  0
  5  6  1  0
  5 11  1  0
  6  7  2  0
  6  8  1  0
  7  9  1  0
  8 10  2  0
  9 12  2  0
 10 12  1  0
M  END
>  <PUBCHEM_COMPOUND_CID>  (1) 
1217

>  <PUBCHEM_CONFORMER_RMSD>  (1) 
0.6

>  <PUBCHEM_CONFORMER_DIVERSEORDER>  (1) 
2
8
5
7
4
9
6
3
1

>  <PUBCHEM_MMFF94_PARTIAL_CHARGES>  (1) 
20
1 -0.53
10 -0.15
11 0.66
12 -0.15
14 0.15
15 0.15
16 0.15
17 0.15
18 0.36
19 0.36
2 -0.65
20 0.45
21 0.5
3 -0.57
4 -0.99
5 0.47
6 -0.14
7 -0.15
8 -0.15
9 0.08

>  <PUBCHEM_EFFECTIVE_ROTOR_COUNT>  (1) 
2

>  <PUBCHEM_PHARMACOPHORE_FEATURES>  (1) 
7
1 1 donor
1 2 acceptor
1 3 acceptor
1 4 cation
1 4 donor
3 2 3 11 anion
6 6 7 8 9 10 12 rings

>  <PUBCHEM_HEAVY_ATOM_COUNT>  (1) 
12

>  <PUBCHEM_ATOM_DEF_STEREO_COUNT>  (1) 
0

>  <PUBCHEM_ATOM_UDEF_STEREO_COUNT>  (1) 
1

>  <PUBCHEM_BOND_DEF_STEREO_COUNT>  (1) 
0

>  <PUBCHEM_BOND_UDEF_STEREO_COUNT>  (1) 
0

>  <PUBCHEM_ISOTOPIC_ATOM_COUNT>  (1) 
0

>  <PUBCHEM_COMPONENT_COUNT>  (1) 
1

>  <PUBCHEM_CACTVS_TAUTO_COUNT>  (1) 
3

>  <PUBCHEM_CONFORMER_ID>  (1) 
000004C100000002

>  <PUBCHEM_MMFF94_ENERGY>  (1) 
26.7755

>  <PUBCHEM_FEATURE_SELFOVERLAP>  (1) 
35.581

>  <PUBCHEM_SHAPE_FINGERPRINT>  (1) 
12716758 59 18342181041962850335
12897270 3 18341056314692797486
13380536 127 18260823825858620379
13538477 17 18041270054206233299
13839132 238 18342176639584377396
15775835 57 18040437667942824908
16945 1 18339632434497936371
17357990 137 17895482423045015228
19837323 101 18335718138442570147
20201158 50 17561091306111771134
20645464 45 17774987016623827091
20653085 51 18263943080122139392
21040471 1 18267575823901907323
22802520 49 18128275427097967654
23552423 10 18189046512865605683
23559900 14 18058448708779794502
2748010 2 18196087751349576055
369184 2 15864063278391955603
5084963 1 18130793360254548035
8030462 33 18040714792038439362

>  <PUBCHEM_SHAPE_MULTIPOLES>  (1) 
224.37
4.37
1.59
1.12
0.82
0.18
0.1
1.04
-0.69
-1.23
-0.05
1
-0.09
-0.07

>  <PUBCHEM_SHAPE_SELFOVERLAP>  (1) 
467.71

>  <PUBCHEM_SHAPE_VOLUME>  (1) 
127.1

>  <PUBCHEM_COORDINATE_TYPE>  (1) 
2
5
10

$$$$
