12185
     RDKit          3D

  7  6  0  0  0  0  0  0  0  0999 V2000
    3.1845   -0.1602   -0.0026 S   0  0  0  0  0  0  0  0  0  0  0  0
   -0.7589   -0.4596    0.0010 O   0  0  0  0  0  0  0  0  0  0  0  0
    0.6367    1.3739    0.0007 O   0  0  0  0  0  0  0  0  0  0  0  0
   -1.8971    0.4085   -0.0009 C   0  0  0  0  0  0  0  0  0  0  0  0
   -3.1571   -0.4305   -0.0013 C   0  0  0  0  0  0  0  0  0  0  0  0
    1.5324   -0.8958    0.0015 C   0  0  0  0  0  0  0  0  0  0  0  0
    0.4595    0.1638    0.0016 C   0  0  0  0  0  0  0  0  0  0  0  0
  1  6  1  0
  2  4  1  0
  2  7  1  0
  3  7  2  0
  4  5  1  0
  6  7  1  0
M  END
>  <PUBCHEM_COMPOUND_CID>  (1) 
12185

>  <PUBCHEM_CONFORMER_RMSD>  (1) 
0.4

>  <PUBCHEM_CONFORMER_DIVERSEORDER>  (1) 
1
52
32
41
50
33
36
42
25
18
35
3
51
2
34
6
39
19
46
22
43
54
40
7
24
23
47
17
45
11
28
53
29
8
16
44
10
26
27
9
37
38
12
48
13
14
21
15
20
4
49
5
31
30

>  <PUBCHEM_MMFF94_PARTIAL_CHARGES>  (1) 
7
1 -0.41
15 0.18
2 -0.43
3 -0.57
4 0.28
6 0.29
7 0.66

>  <PUBCHEM_EFFECTIVE_ROTOR_COUNT>  (1) 
3

>  <PUBCHEM_PHARMACOPHORE_FEATURES>  (1) 
1
1 3 acceptor

>  <PUBCHEM_HEAVY_ATOM_COUNT>  (1) 
7

>  <PUBCHEM_ATOM_DEF_STEREO_COUNT>  (1) 
0

>  <PUBCHEM_ATOM_UDEF_STEREO_COUNT>  (1) 
0

>  <PUBCHEM_BOND_DEF_STEREO_COUNT>  (1) 
0

>  <PUBCHEM_BOND_UDEF_STEREO_COUNT>  (1) 
0

>  <PUBCHEM_ISOTOPIC_ATOM_COUNT>  (1) 
0

>  <PUBCHEM_COMPONENT_COUNT>  (1) 
1

>  <PUBCHEM_CACTVS_TAUTO_COUNT>  (1) 
1

>  <PUBCHEM_CONFORMER_ID>  (1) 
00002F9900000001

>  <PUBCHEM_MMFF94_ENERGY>  (1) 
4.461

>  <PUBCHEM_FEATURE_SELFOVERLAP>  (1) 
5.074

>  <PUBCHEM_SHAPE_FINGERPRINT>  (1) 
11062470 55 18410573972271843506
12932764 1 15697708225402330702
14325111 11 18410575076083732802
16714656 1 18342175536041474334
23552423 10 17972323910608168354
29004967 10 18409732837418613674
5460574 1 9295286140330422114

>  <PUBCHEM_SHAPE_MULTIPOLES>  (1) 
136.17
4.96
1.01
0.6
0.52
0.18
0
-0.82
0.01
-0.15
0
-0.05
-0.01
0

>  <PUBCHEM_SHAPE_SELFOVERLAP>  (1) 
235.646

>  <PUBCHEM_SHAPE_VOLUME>  (1) 
91.8

>  <PUBCHEM_COORDINATE_TYPE>  (1) 
2
5
10

$$$$
