12187
     RDKit          3D

  8  7  0  0  0  0  0  0  0  0999 V2000
   -0.9468   -0.8888    1.0067 O   0  0  0  0  0  0  0  0  0  0  0  0
    1.7415   -0.1171    0.2061 C   0  0  0  0  0  0  0  0  0  0  0  0
    0.5198    0.8089    0.1099 C   0  0  0  0  0  0  0  0  0  0  0  0
    1.7149   -1.1918   -0.8837 C   0  0  0  0  0  0  0  0  0  0  0  0
    3.0294    0.7008    0.0924 C   0  0  0  0  0  0  0  0  0  0  0  0
   -0.8131    0.0905    0.2748 C   0  0  0  0  0  0  0  0  0  0  0  0
   -1.9787    0.6896   -0.4952 C   0  0  0  0  0  0  0  0  0  0  0  0
   -3.2669   -0.0921   -0.3111 C   0  0  0  0  0  0  0  0  0  0  0  0
  1  6  2  0
  2  3  1  0
  2  4  1  0
  2  5  1  0
  3  6  1  0
  6  7  1  0
  7  8  1  0
M  END
>  <PUBCHEM_COMPOUND_CID>  (1) 
12187

>  <PUBCHEM_CONFORMER_RMSD>  (1) 
0.6

>  <PUBCHEM_CONFORMER_DIVERSEORDER>  (1) 
1
7
8
6
3
5
2
4

>  <PUBCHEM_MMFF94_PARTIAL_CHARGES>  (1) 
4
1 -0.57
3 0.06
6 0.45
7 0.06

>  <PUBCHEM_EFFECTIVE_ROTOR_COUNT>  (1) 
3

>  <PUBCHEM_PHARMACOPHORE_FEATURES>  (1) 
3
1 1 acceptor
1 8 hydrophobe
3 2 4 5 hydrophobe

>  <PUBCHEM_HEAVY_ATOM_COUNT>  (1) 
8

>  <PUBCHEM_ATOM_DEF_STEREO_COUNT>  (1) 
0

>  <PUBCHEM_ATOM_UDEF_STEREO_COUNT>  (1) 
0

>  <PUBCHEM_BOND_DEF_STEREO_COUNT>  (1) 
0

>  <PUBCHEM_BOND_UDEF_STEREO_COUNT>  (1) 
0

>  <PUBCHEM_ISOTOPIC_ATOM_COUNT>  (1) 
0

>  <PUBCHEM_COMPONENT_COUNT>  (1) 
1

>  <PUBCHEM_CACTVS_TAUTO_COUNT>  (1) 
3

>  <PUBCHEM_CONFORMER_ID>  (1) 
00002F9B00000001

>  <PUBCHEM_MMFF94_ENERGY>  (1) 
4.0802

>  <PUBCHEM_FEATURE_SELFOVERLAP>  (1) 
15.223

>  <PUBCHEM_SHAPE_FINGERPRINT>  (1) 
11062470 55 18412822499336461841
12897270 3 18060134349270469972
12932741 1 18335155188657940814
14325111 11 18040428872050054681
14390081 3 17967529051989322805
15310529 11 17846493703975947029
20201158 50 18411136935147167950
21040471 1 17458346299365893715
21293036 1 18040149639178070021
23235685 24 18411694409112310312
23552333 60 16988560173932420894
23552423 10 18127979602540484375
29004967 10 18131350803964839921
5084963 1 15357972322417158597
5460574 1 9367347045851523241

>  <PUBCHEM_SHAPE_MULTIPOLES>  (1) 
158.77
4.66
1.08
0.86
1.13
0.19
0.06
-0.29
-0.63
-0.48
-0.12
0.11
0.15
0.32

>  <PUBCHEM_SHAPE_SELFOVERLAP>  (1) 
285.158

>  <PUBCHEM_SHAPE_VOLUME>  (1) 
103.5

>  <PUBCHEM_COORDINATE_TYPE>  (1) 
2
5
10

$$$$
