12196
     RDKit          3D

  8  7  0  0  0  0  0  0  0  0999 V2000
   -1.4701   -0.8959    0.0063 S   0  0  0  0  0  0  0  0  0  0  0  0
    1.4702   -0.8955   -0.0077 S   0  0  0  0  0  0  0  0  0  0  0  0
   -0.0003    1.2955   -0.0009 O   0  0  0  0  0  0  0  0  0  0  0  0
   -2.7221    0.4060    0.0136 C   0  0  0  0  0  0  0  0  0  0  0  0
    2.7222    0.4061   -0.0124 C   0  0  0  0  0  0  0  0  0  0  0  0
   -4.1150   -0.1941   -0.0099 C   0  0  0  0  0  0  0  0  0  0  0  0
    4.1150   -0.1942    0.0123 C   0  0  0  0  0  0  0  0  0  0  0  0
    0.0000    0.0721   -0.0013 C   0  0  0  0  0  0  0  0  0  0  0  0
  1  4  1  0
  1  8  1  0
  2  5  1  0
  2  8  1  0
  3  8  2  0
  4  6  1  0
  5  7  1  0
M  END
>  <PUBCHEM_COMPOUND_CID>  (1) 
12196

>  <PUBCHEM_CONFORMER_RMSD>  (1) 
0.6

>  <PUBCHEM_CONFORMER_DIVERSEORDER>  (1) 
1
25
41
6
27
2
43
44
38
52
32
12
5
31
16
51
10
34
47
26
11
21
18
53
48
7
9
50
37
36
29
15
23
39
49
14
20
28
13
33
46
35
3
30
8
17
40
19
24
4
42
22
45

>  <PUBCHEM_MMFF94_PARTIAL_CHARGES>  (1) 
6
1 -0.37
2 -0.37
3 -0.57
4 0.23
5 0.23
8 0.85

>  <PUBCHEM_EFFECTIVE_ROTOR_COUNT>  (1) 
4

>  <PUBCHEM_PHARMACOPHORE_FEATURES>  (1) 
2
1 6 hydrophobe
1 7 hydrophobe

>  <PUBCHEM_HEAVY_ATOM_COUNT>  (1) 
8

>  <PUBCHEM_ATOM_DEF_STEREO_COUNT>  (1) 
0

>  <PUBCHEM_ATOM_UDEF_STEREO_COUNT>  (1) 
0

>  <PUBCHEM_BOND_DEF_STEREO_COUNT>  (1) 
0

>  <PUBCHEM_BOND_UDEF_STEREO_COUNT>  (1) 
0

>  <PUBCHEM_ISOTOPIC_ATOM_COUNT>  (1) 
0

>  <PUBCHEM_COMPONENT_COUNT>  (1) 
1

>  <PUBCHEM_CACTVS_TAUTO_COUNT>  (1) 
1

>  <PUBCHEM_CONFORMER_ID>  (1) 
00002FA400000001

>  <PUBCHEM_MMFF94_ENERGY>  (1) 
0.9752

>  <PUBCHEM_FEATURE_SELFOVERLAP>  (1) 
10.149

>  <PUBCHEM_SHAPE_FINGERPRINT>  (1) 
11062470 55 18410293614013062019
14325111 11 18410856525596588291
18342897 14 18412267212264021345
190213 19 18410856563934802342
20201158 50 18408605850800824434
20719005 15 18410575093316498923
21293036 1 18410855464671159447
23402539 116 17704066292503827781

>  <PUBCHEM_SHAPE_MULTIPOLES>  (1) 
166.47
7.28
1.05
0.63
0
0.01
0
-0.09
0.01
0
0
0
-0.03
0

>  <PUBCHEM_SHAPE_SELFOVERLAP>  (1) 
273.376

>  <PUBCHEM_SHAPE_VOLUME>  (1) 
115.6

>  <PUBCHEM_COORDINATE_TYPE>  (1) 
2
5
10

$$$$
