12195
     RDKit          3D

  8  7  0  0  0  0  0  0  0  0999 V2000
    1.1354    0.4764    0.0000 O   0  0  0  0  0  0  0  0  0  0  0  0
   -0.3852   -1.2450    0.0000 O   0  0  0  0  0  0  0  0  0  0  0  0
   -1.0527    0.9769    0.0000 N   0  0  0  0  0  0  0  0  0  0  0  0
   -2.4819    0.7654    0.0000 C   0  0  0  0  0  0  0  0  0  0  0  0
    2.2047   -0.4762    0.0000 C   0  0  0  0  0  0  0  0  0  0  0  0
   -2.8175   -0.7164    0.0000 C   0  0  0  0  0  0  0  0  0  0  0  0
   -0.1275   -0.0457    0.0000 C   0  0  0  0  0  0  0  0  0  0  0  0
    3.5249    0.2647    0.0000 C   0  0  0  0  0  0  0  0  0  0  0  0
  1  5  1  0
  1  7  1  0
  2  7  2  0
  3  4  1  0
  3  7  1  0
  4  6  1  0
  5  8  1  0
M  END
>  <PUBCHEM_COMPOUND_CID>  (1) 
12195

>  <PUBCHEM_CONFORMER_RMSD>  (1) 
0.6

>  <PUBCHEM_CONFORMER_DIVERSEORDER>  (1) 
1
2
3

>  <PUBCHEM_MMFF94_PARTIAL_CHARGES>  (1) 
7
1 -0.43
11 0.37
2 -0.57
3 -0.73
4 0.3
5 0.28
7 0.78

>  <PUBCHEM_EFFECTIVE_ROTOR_COUNT>  (1) 
4

>  <PUBCHEM_PHARMACOPHORE_FEATURES>  (1) 
2
1 2 acceptor
1 3 donor

>  <PUBCHEM_HEAVY_ATOM_COUNT>  (1) 
8

>  <PUBCHEM_ATOM_DEF_STEREO_COUNT>  (1) 
0

>  <PUBCHEM_ATOM_UDEF_STEREO_COUNT>  (1) 
0

>  <PUBCHEM_BOND_DEF_STEREO_COUNT>  (1) 
0

>  <PUBCHEM_BOND_UDEF_STEREO_COUNT>  (1) 
0

>  <PUBCHEM_ISOTOPIC_ATOM_COUNT>  (1) 
0

>  <PUBCHEM_COMPONENT_COUNT>  (1) 
1

>  <PUBCHEM_CACTVS_TAUTO_COUNT>  (1) 
2

>  <PUBCHEM_CONFORMER_ID>  (1) 
00002FA300000001

>  <PUBCHEM_MMFF94_ENERGY>  (1) 
10.2326

>  <PUBCHEM_FEATURE_SELFOVERLAP>  (1) 
10.148

>  <PUBCHEM_SHAPE_FINGERPRINT>  (1) 
11062470 55 9151173151288286866
12932764 1 15769766923426136820
14325111 11 9223228546545591332
14390081 3 7997967959886379135
16714656 1 9151174250958150747
23552423 10 10951755387667535112
29004967 10 9151164376717664989
5460574 1 18410856542465273092

>  <PUBCHEM_SHAPE_MULTIPOLES>  (1) 
147.92
5.21
1.05
0.58
2.29
0.09
0
-0.17
0
-0.44
0
0
0
0

>  <PUBCHEM_SHAPE_SELFOVERLAP>  (1) 
268.635

>  <PUBCHEM_SHAPE_VOLUME>  (1) 
94.4

>  <PUBCHEM_COORDINATE_TYPE>  (1) 
2
5
10

$$$$
