12190
     RDKit          3D

  8  7  0  0  0  0  0  0  0  0999 V2000
    2.4010   -0.1832   -0.2633 O   0  0  0  0  0  0  0  0  0  0  0  0
   -2.4108   -0.1695   -0.2953 O   0  0  0  0  0  0  0  0  0  0  0  0
    0.0169   -1.4841    0.2948 O   0  0  0  0  0  0  0  0  0  0  0  0
    0.0024   -0.1829   -0.2967 C   0  0  0  0  0  0  0  0  0  0  0  0
    1.2567    0.5531    0.1557 C   0  0  0  0  0  0  0  0  0  0  0  0
   -1.2614    0.5434    0.1494 C   0  0  0  0  0  0  0  0  0  0  0  0
    3.6050    0.4684    0.1151 C   0  0  0  0  0  0  0  0  0  0  0  0
   -3.6098    0.4548    0.1402 C   0  0  0  0  0  0  0  0  0  0  0  0
  1  5  1  0
  1  7  1  0
  2  6  1  0
  2  8  1  0
  3  4  1  0
  4  5  1  0
  4  6  1  0
M  END
>  <PUBCHEM_COMPOUND_CID>  (1) 
12190

>  <PUBCHEM_CONFORMER_RMSD>  (1) 
0.6

>  <PUBCHEM_CONFORMER_DIVERSEORDER>  (1) 
1
12
5
20
4
17
11
13
15
8
9
16
19
6
2
7
18
10
14
3

>  <PUBCHEM_MMFF94_PARTIAL_CHARGES>  (1) 
9
1 -0.56
14 0.4
2 -0.56
3 -0.68
4 0.28
5 0.28
6 0.28
7 0.28
8 0.28

>  <PUBCHEM_EFFECTIVE_ROTOR_COUNT>  (1) 
4

>  <PUBCHEM_PHARMACOPHORE_FEATURES>  (1) 
4
1 1 acceptor
1 2 acceptor
1 3 acceptor
1 3 donor

>  <PUBCHEM_HEAVY_ATOM_COUNT>  (1) 
8

>  <PUBCHEM_ATOM_DEF_STEREO_COUNT>  (1) 
0

>  <PUBCHEM_ATOM_UDEF_STEREO_COUNT>  (1) 
0

>  <PUBCHEM_BOND_DEF_STEREO_COUNT>  (1) 
0

>  <PUBCHEM_BOND_UDEF_STEREO_COUNT>  (1) 
0

>  <PUBCHEM_ISOTOPIC_ATOM_COUNT>  (1) 
0

>  <PUBCHEM_COMPONENT_COUNT>  (1) 
1

>  <PUBCHEM_CACTVS_TAUTO_COUNT>  (1) 
1

>  <PUBCHEM_CONFORMER_ID>  (1) 
00002F9E00000001

>  <PUBCHEM_MMFF94_ENERGY>  (1) 
18.4847

>  <PUBCHEM_FEATURE_SELFOVERLAP>  (1) 
20.305

>  <PUBCHEM_SHAPE_FINGERPRINT>  (1) 
10219947 1 17821450148983499789
11062470 55 14549019887912602144
14325111 11 18410573989451699700
14390081 3 18343018870055350241
23235685 24 18408600366079887249
5460574 1 8286201651826644348

>  <PUBCHEM_SHAPE_MULTIPOLES>  (1) 
147.03
5.82
0.95
0.63
0.04
0.25
0
-1.37
0.1
-0.01
0.09
0.01
0
-0.01

>  <PUBCHEM_SHAPE_SELFOVERLAP>  (1) 
259.672

>  <PUBCHEM_SHAPE_VOLUME>  (1) 
97.4

>  <PUBCHEM_COORDINATE_TYPE>  (1) 
2
5
10

$$$$
