12191
     RDKit          3D

  8  7  0  0  0  0  0  0  0  0999 V2000
   -1.1365    0.4261   -0.0005 O   0  0  0  0  0  0  0  0  0  0  0  0
   -0.0628   -1.6198    0.0002 O   0  0  0  0  0  0  0  0  0  0  0  0
   -2.4096   -0.2285    0.0004 C   0  0  0  0  0  0  0  0  0  0  0  0
   -3.5026    0.8189    0.0004 C   0  0  0  0  0  0  0  0  0  0  0  0
   -0.0549   -0.3991   -0.0005 C   0  0  0  0  0  0  0  0  0  0  0  0
    1.1556    0.4501   -0.0006 C   0  0  0  0  0  0  0  0  0  0  0  0
    2.3696   -0.1157    0.0001 C   0  0  0  0  0  0  0  0  0  0  0  0
    3.6412    0.6680    0.0006 C   0  0  0  0  0  0  0  0  0  0  0  0
  1  3  1  0
  1  5  1  0
  2  5  2  0
  3  4  1  0
  5  6  1  0
  6  7  2  0
  7  8  1  0
M  END
>  <PUBCHEM_COMPOUND_CID>  (1) 
12191

>  <PUBCHEM_CONFORMER_RMSD>  (1) 
0.6

>  <PUBCHEM_CONFORMER_DIVERSEORDER>  (1) 
1
9
8
3
7
4
2
5
6

>  <PUBCHEM_MMFF94_PARTIAL_CHARGES>  (1) 
9
1 -0.43
14 0.15
15 0.15
2 -0.57
3 0.28
5 0.71
6 -0.14
7 -0.29
8 0.14

>  <PUBCHEM_EFFECTIVE_ROTOR_COUNT>  (1) 
3

>  <PUBCHEM_PHARMACOPHORE_FEATURES>  (1) 
2
1 2 acceptor
1 8 hydrophobe

>  <PUBCHEM_HEAVY_ATOM_COUNT>  (1) 
8

>  <PUBCHEM_ATOM_DEF_STEREO_COUNT>  (1) 
0

>  <PUBCHEM_ATOM_UDEF_STEREO_COUNT>  (1) 
0

>  <PUBCHEM_BOND_DEF_STEREO_COUNT>  (1) 
0

>  <PUBCHEM_BOND_UDEF_STEREO_COUNT>  (1) 
1

>  <PUBCHEM_ISOTOPIC_ATOM_COUNT>  (1) 
0

>  <PUBCHEM_COMPONENT_COUNT>  (1) 
1

>  <PUBCHEM_CACTVS_TAUTO_COUNT>  (1) 
1

>  <PUBCHEM_CONFORMER_ID>  (1) 
00002F9F00000001

>  <PUBCHEM_MMFF94_ENERGY>  (1) 
6.3321

>  <PUBCHEM_FEATURE_SELFOVERLAP>  (1) 
10.148

>  <PUBCHEM_SHAPE_FINGERPRINT>  (1) 
11062470 55 16774079578968638872
14325111 11 18410856563940077090
14390081 3 18342455915886063425
21040471 1 18410574015263902854
21293036 1 18060136561204981589
23235685 24 18410851062097546412
29004967 10 9007056872369833231
5460574 1 9223235143567924192

>  <PUBCHEM_SHAPE_MULTIPOLES>  (1) 
152.9
5.87
1.07
0.59
0.02
0.3
0
-2.18
0
-0.14
0
0.02
-0.02
0

>  <PUBCHEM_SHAPE_SELFOVERLAP>  (1) 
279.876

>  <PUBCHEM_SHAPE_VOLUME>  (1) 
97.6

>  <PUBCHEM_COORDINATE_TYPE>  (1) 
2
5
10

$$$$
