1219
     RDKit          3D

 18 19  0  0  1  0  0  0  0  0999 V2000
    4.6250    0.8734   -1.8950 O   0  0  0  0  0  0  0  0  0  0  0  0
   -2.2830   -0.0831    0.4326 N   0  0  0  0  0  0  0  0  0  0  0  0
   -0.8664   -0.0054    0.7862 C   0  0  0  0  0  0  0  0  0  0  0  0
   -0.4338   -1.2841    1.5059 C   0  0  0  0  0  0  0  0  0  0  0  0
   -0.0114    0.2031   -0.4714 C   0  0  0  0  0  0  0  0  0  0  0  0
    1.0155   -1.1638    1.9780 C   0  0  0  0  0  0  0  0  0  0  0  0
    1.4679    0.0464   -0.2140 C   0  0  0  0  0  0  0  0  0  0  0  0
    1.9494   -0.6340    0.9192 C   0  0  0  0  0  0  0  0  0  0  0  0
   -2.5216   -1.2001   -0.4809 C   0  0  0  0  0  0  0  0  0  0  0  0
   -2.7295    1.1731   -0.1688 C   0  0  0  0  0  0  0  0  0  0  0  0
   -4.0067   -1.2991   -0.8201 C   0  0  0  0  0  0  0  0  0  0  0  0
   -2.5689    2.3221    0.8234 C   0  0  0  0  0  0  0  0  0  0  0  0
    2.3793    0.5401   -1.1599 C   0  0  0  0  0  0  0  0  0  0  0  0
    3.3338   -0.7743    1.1014 C   0  0  0  0  0  0  0  0  0  0  0  0
    3.7524    0.3850   -0.9721 C   0  0  0  0  0  0  0  0  0  0  0  0
    4.2294   -0.2697    0.1593 C   0  0  0  0  0  0  0  0  0  0  0  0
   -4.2849   -2.4678   -1.7529 C   0  0  0  0  0  0  0  0  0  0  0  0
   -3.0468    3.6380    0.2291 C   0  0  0  0  0  0  0  0  0  0  0  0
  1 15  1  0
  2  3  1  0
  2  9  1  0
  2 10  1  0
  3  4  1  0
  3  5  1  0
  4  6  1  0
  5  7  1  0
  6  8  1  0
  7  8  2  0
  7 13  1  0
  8 14  1  0
  9 11  1  0
 10 12  1  0
 11 17  1  0
 12 18  1  0
 13 15  2  0
 14 16  2  0
 15 16  1  0
M  END
>  <PUBCHEM_COMPOUND_CID>  (1) 
1219

>  <PUBCHEM_CONFORMER_RMSD>  (1) 
0.8

>  <PUBCHEM_CONFORMER_DIVERSEORDER>  (1) 
2
4
7
6
1
3
5

>  <PUBCHEM_MMFF94_PARTIAL_CHARGES>  (1) 
17
1 -0.53
10 0.27
13 -0.15
14 -0.15
15 0.08
16 -0.15
2 -0.81
3 0.27
34 0.15
35 0.15
36 0.15
43 0.45
5 0.14
6 0.14
7 -0.14
8 -0.14
9 0.27

>  <PUBCHEM_EFFECTIVE_ROTOR_COUNT>  (1) 
5.8

>  <PUBCHEM_PHARMACOPHORE_FEATURES>  (1) 
6
1 1 donor
1 17 hydrophobe
1 18 hydrophobe
1 2 cation
6 3 4 5 6 7 8 rings
6 7 8 13 14 15 16 rings

>  <PUBCHEM_HEAVY_ATOM_COUNT>  (1) 
18

>  <PUBCHEM_ATOM_DEF_STEREO_COUNT>  (1) 
0

>  <PUBCHEM_ATOM_UDEF_STEREO_COUNT>  (1) 
1

>  <PUBCHEM_BOND_DEF_STEREO_COUNT>  (1) 
0

>  <PUBCHEM_BOND_UDEF_STEREO_COUNT>  (1) 
0

>  <PUBCHEM_ISOTOPIC_ATOM_COUNT>  (1) 
0

>  <PUBCHEM_COMPONENT_COUNT>  (1) 
1

>  <PUBCHEM_CACTVS_TAUTO_COUNT>  (1) 
9

>  <PUBCHEM_CONFORMER_ID>  (1) 
000004C300000002

>  <PUBCHEM_MMFF94_ENERGY>  (1) 
38.435

>  <PUBCHEM_FEATURE_SELFOVERLAP>  (1) 
30.467

>  <PUBCHEM_SHAPE_FINGERPRINT>  (1) 
10465860 228 17825396171835765760
11471102 20 17022613191917472406
11543360 7 18202290238117518652
11640471 11 18117563920490876393
11796584 16 17773885182162932438
12236239 1 18259700086858391031
12553582 1 18269546303827690103
12714826 92 17561361798920344311
12788726 201 18410565172728087507
13583140 156 17417228958587047554
15342168 16 17313967232889628805
15534591 1 18262530190780276665
15842332 3 18116420467099908035
16752209 62 18269255946705364215
1813 80 17915733391941801551
18186145 218 17168153316945297002
18219364 16 16081093679316850889
192875 21 18114169874076892056
200 152 18187074092300595463
20300324 65 18411139160040486637
20645477 70 16443334352367274994
20871999 31 18131635590646146413
21065201 7 18060698364581638894
21713013 43 17418100931136521502
22094290 60 18272930535681336995
22620623 9 17846207852875883341
231179 274 15357687613477909934
23402539 116 18408039636957042831
23402655 69 17458615756971875975
235170 7 17704078403989998772
23557571 272 17703779319388866337
23559900 14 17631170776153274582
23598288 3 18337391535643337027
23598291 2 18188485774719822470
25147074 1 18115296770273859403
266924 1 18188475879716455475
3057174 1 17553191109504084221
312425 83 18198366012551731324
3286 77 18339061766583035018
474 4 17676493791520719352
495365 180 13840802436649161585
57096353 35 18260265282457436990
603831 33 18334850636843184155
6049 1 17275096249862761361
621550 5 17131273592368190667
633830 44 17822870671068031030
7164475 11 18411409597104220927
7471813 234 18337943610133319412
7615 1 18115291289979862209
77492 1 18259981535495559946
88987 49 18200017435723982001

>  <PUBCHEM_SHAPE_MULTIPOLES>  (1) 
359.58
8.62
2.57
1.68
2.3
2.16
0.01
-0.69
-4.05
-5.11
-0.15
0.86
-0.58
-2.43

>  <PUBCHEM_SHAPE_SELFOVERLAP>  (1) 
736.413

>  <PUBCHEM_SHAPE_VOLUME>  (1) 
208.6

>  <PUBCHEM_COORDINATE_TYPE>  (1) 
2
5
10

$$$$
