12201
     RDKit          3D

 12 11  0  0  0  0  0  0  0  0999 V2000
    2.8882    0.3413    0.0000 O   0  0  0  0  0  0  0  0  0  0  0  0
   -2.8884   -0.3415    0.0004 O   0  0  0  0  0  0  0  0  0  0  0  0
    1.8698   -1.7325   -0.0026 O   0  0  0  0  0  0  0  0  0  0  0  0
   -1.8694    1.7320   -0.0027 O   0  0  0  0  0  0  0  0  0  0  0  0
    4.1782   -0.2792    0.0024 C   0  0  0  0  0  0  0  0  0  0  0  0
   -4.1780    0.2798    0.0022 C   0  0  0  0  0  0  0  0  0  0  0  0
    5.2429    0.7970    0.0048 C   0  0  0  0  0  0  0  0  0  0  0  0
   -5.2433   -0.7957    0.0046 C   0  0  0  0  0  0  0  0  0  0  0  0
    0.5953    0.3045   -0.0025 C   0  0  0  0  0  0  0  0  0  0  0  0
   -0.5955   -0.3055   -0.0022 C   0  0  0  0  0  0  0  0  0  0  0  0
    1.8291   -0.5124   -0.0024 C   0  0  0  0  0  0  0  0  0  0  0  0
   -1.8289    0.5119   -0.0019 C   0  0  0  0  0  0  0  0  0  0  0  0
  1  5  1  0
  1 11  1  0
  2  6  1  0
  2 12  1  0
  3 11  2  0
  4 12  2  0
  5  7  1  0
  6  8  1  0
  9 10  2  0
  9 11  1  0
 10 12  1  0
M  END
>  <PUBCHEM_COMPOUND_CID>  (1) 
12201

>  <PUBCHEM_CONFORMER_RMSD>  (1) 
0.6

>  <PUBCHEM_CONFORMER_DIVERSEORDER>  (1) 
1
22
61
79
29
72
64
66
75
81
74
12
82
83
58
56
67
60
34
25
14
47
59
30
90
7
16
37
38
87
43
27
35
40
45
93
91
71
15
17
65
73
26
63
84
42
70
53
54
24
89
2
13
5
19
20
21
69
11
41
86
77
31
32
85
50
18
8
51
78
92
28
57
49
55
62
80
36
76
4
3
44
9
10
46
6
48
23
33
52
88
39
68

>  <PUBCHEM_MMFF94_PARTIAL_CHARGES>  (1) 
12
1 -0.43
10 -0.14
11 0.71
12 0.71
2 -0.43
23 0.15
24 0.15
3 -0.57
4 -0.57
5 0.28
6 0.28
9 -0.14

>  <PUBCHEM_EFFECTIVE_ROTOR_COUNT>  (1) 
6

>  <PUBCHEM_PHARMACOPHORE_FEATURES>  (1) 
2
1 3 acceptor
1 4 acceptor

>  <PUBCHEM_HEAVY_ATOM_COUNT>  (1) 
12

>  <PUBCHEM_ATOM_DEF_STEREO_COUNT>  (1) 
0

>  <PUBCHEM_ATOM_UDEF_STEREO_COUNT>  (1) 
0

>  <PUBCHEM_BOND_DEF_STEREO_COUNT>  (1) 
0

>  <PUBCHEM_BOND_UDEF_STEREO_COUNT>  (1) 
1

>  <PUBCHEM_ISOTOPIC_ATOM_COUNT>  (1) 
0

>  <PUBCHEM_COMPONENT_COUNT>  (1) 
1

>  <PUBCHEM_CACTVS_TAUTO_COUNT>  (1) 
1

>  <PUBCHEM_CONFORMER_ID>  (1) 
00002FA900000001

>  <PUBCHEM_MMFF94_ENERGY>  (1) 
14.3756

>  <PUBCHEM_FEATURE_SELFOVERLAP>  (1) 
10.149

>  <PUBCHEM_SHAPE_FINGERPRINT>  (1) 
11062470 55 15502375625378264959
11401426 45 13912322399739879395
114248 4 18410575093253013529
124424 183 11241973672130973151
12815109 37 18334575750525335343
12932764 1 17059193887316246542
13081056 2 18343019995716674304
14123238 8 18410575093253013520
1420 363 18409174319787240619
14252887 29 17775014474344494927
14325111 11 18338516322394046471
17834072 33 17989203789031739405
17834076 25 18335139803842337487
187816 3 17385442133489250793
200 152 18411697690752050629
20279233 1 16950572064393650667
20645477 70 18338796693628193310
20719005 15 18410573985383592194
20767249 213 18114463452841356476
22485316 2 18410853240300177671
23402539 116 17894624872705337175
23402655 69 18341325600726401957
23557571 272 18271533004625754900
42788 4 18410856568467159460
449060 50 18410012134904856126
474229 33 18409449214958683674
58051976 378 18411421712959212110
59345606 91 18408601461544623517

>  <PUBCHEM_SHAPE_MULTIPOLES>  (1) 
223.48
11.1
1.19
0.58
0
0
0
0
0.03
0
0
0
0
0

>  <PUBCHEM_SHAPE_SELFOVERLAP>  (1) 
424.119

>  <PUBCHEM_SHAPE_VOLUME>  (1) 
137.7

>  <PUBCHEM_COORDINATE_TYPE>  (1) 
2
5
10

$$$$
