12226
     RDKit          3D

  4  3  0  0  0  0  0  0  0  0999 V2000
   -0.6411   -0.1366    0.0001 N   0  0  0  0  0  0  0  0  0  0  0  0
    0.6926   -0.6438   -0.0001 C   0  0  0  0  0  0  0  0  0  0  0  0
    1.6832    0.5009    0.0000 C   0  0  0  0  0  0  0  0  0  0  0  0
   -1.7346    0.2795   -0.0001 C   0  0  0  0  0  0  0  0  0  0  0  0
  1  2  1  0
  1  4  3  0
  2  3  1  0
M  CHG  2   1   1   4  -1
M  END
>  <PUBCHEM_COMPOUND_CID>  (1) 
12226

>  <PUBCHEM_CONFORMER_RMSD>  (1) 
0.4

>  <PUBCHEM_CONFORMER_DIVERSEORDER>  (1) 
1

>  <PUBCHEM_MMFF94_PARTIAL_CHARGES>  (1) 
3
1 0.1
2 0.27
4 -0.37

>  <PUBCHEM_EFFECTIVE_ROTOR_COUNT>  (1) 
0

>  <PUBCHEM_PHARMACOPHORE_FEATURES>  (1) 
0

>  <PUBCHEM_HEAVY_ATOM_COUNT>  (1) 
4

>  <PUBCHEM_ATOM_DEF_STEREO_COUNT>  (1) 
0

>  <PUBCHEM_ATOM_UDEF_STEREO_COUNT>  (1) 
0

>  <PUBCHEM_BOND_DEF_STEREO_COUNT>  (1) 
0

>  <PUBCHEM_BOND_UDEF_STEREO_COUNT>  (1) 
0

>  <PUBCHEM_ISOTOPIC_ATOM_COUNT>  (1) 
0

>  <PUBCHEM_COMPONENT_COUNT>  (1) 
1

>  <PUBCHEM_CACTVS_TAUTO_COUNT>  (1) 
1

>  <PUBCHEM_CONFORMER_ID>  (1) 
00002FC200000001

>  <PUBCHEM_MMFF94_ENERGY>  (1) 
-1.8696

>  <PUBCHEM_FEATURE_SELFOVERLAP>  (1) 
0

>  <PUBCHEM_SHAPE_FINGERPRINT>  (1) 
139733 1 9222357733262747586
20096714 4 18411982489769808248
21015797 1 8429440511844497778
5460574 1 9295291642225654849

>  <PUBCHEM_SHAPE_MULTIPOLES>  (1) 
77.34
2.36
0.8
0.6
0.27
0.03
0
-0.49
0
-0.16
0
-0.01
0
0

>  <PUBCHEM_SHAPE_SELFOVERLAP>  (1) 
127.141

>  <PUBCHEM_SHAPE_VOLUME>  (1) 
53.7

>  <PUBCHEM_COORDINATE_TYPE>  (1) 
2
5
10

$$$$
