12227
     RDKit          3D

  4  3  0  0  0  0  0  0  0  0999 V2000
   -1.7189    0.2266   -0.0001 O   0  0  0  0  0  0  0  0  0  0  0  0
    1.7899   -0.0151   -0.0001 N   0  0  0  0  0  0  0  0  0  0  0  0
   -0.5349   -0.5153    0.0000 N   0  0  0  0  0  0  0  0  0  0  0  0
    0.4639    0.3038    0.0001 C   0  0  0  0  0  0  0  0  0  0  0  0
  1  3  1  0
  2  4  1  0
  3  4  2  0
M  END
>  <PUBCHEM_COMPOUND_CID>  (1) 
12227

>  <PUBCHEM_CONFORMER_RMSD>  (1) 
0.4

>  <PUBCHEM_CONFORMER_DIVERSEORDER>  (1) 
1

>  <PUBCHEM_MMFF94_PARTIAL_CHARGES>  (1) 
8
1 -0.34
2 -0.85
3 -0.51
4 0.44
5 0.06
6 0.4
7 0.4
8 0.4

>  <PUBCHEM_EFFECTIVE_ROTOR_COUNT>  (1) 
0

>  <PUBCHEM_PHARMACOPHORE_FEATURES>  (1) 
3
1 1 anion
1 2 donor
3 2 3 4 cation

>  <PUBCHEM_HEAVY_ATOM_COUNT>  (1) 
4

>  <PUBCHEM_ATOM_DEF_STEREO_COUNT>  (1) 
0

>  <PUBCHEM_ATOM_UDEF_STEREO_COUNT>  (1) 
0

>  <PUBCHEM_BOND_DEF_STEREO_COUNT>  (1) 
0

>  <PUBCHEM_BOND_UDEF_STEREO_COUNT>  (1) 
1

>  <PUBCHEM_ISOTOPIC_ATOM_COUNT>  (1) 
0

>  <PUBCHEM_COMPONENT_COUNT>  (1) 
1

>  <PUBCHEM_CACTVS_TAUTO_COUNT>  (1) 
3

>  <PUBCHEM_CONFORMER_ID>  (1) 
00002FC300000001

>  <PUBCHEM_MMFF94_ENERGY>  (1) 
3.468

>  <PUBCHEM_FEATURE_SELFOVERLAP>  (1) 
15.223

>  <PUBCHEM_SHAPE_FINGERPRINT>  (1) 
139733 1 9223231849322700928
20096714 4 18334579083003485508
21015797 1 9149443619524149520
5460574 1 9223235147678236192

>  <PUBCHEM_SHAPE_MULTIPOLES>  (1) 
66.49
2.08
0.64
0.54
0.02
0
0
-0.1
0
-0.03
0
0.02
-0.01
0

>  <PUBCHEM_SHAPE_SELFOVERLAP>  (1) 
111.316

>  <PUBCHEM_SHAPE_VOLUME>  (1) 
45.4

>  <PUBCHEM_COORDINATE_TYPE>  (1) 
2
5
10

$$$$
