12223
     RDKit          3D

  4  3  0  0  0  0  0  0  0  0999 V2000
    1.3484   -0.5549    0.1498 F   0  0  0  0  0  0  0  0  0  0  0  0
   -1.3485   -0.5548   -0.1498 F   0  0  0  0  0  0  0  0  0  0  0  0
    0.6962    0.5549   -0.2902 C   0  0  0  0  0  0  0  0  0  0  0  0
   -0.6961    0.5549    0.2902 C   0  0  0  0  0  0  0  0  0  0  0  0
  1  3  1  0
  2  4  1  0
  3  4  1  0
M  END
>  <PUBCHEM_COMPOUND_CID>  (1) 
12223

>  <PUBCHEM_CONFORMER_RMSD>  (1) 
0.4

>  <PUBCHEM_CONFORMER_DIVERSEORDER>  (1) 
1
3
2

>  <PUBCHEM_MMFF94_PARTIAL_CHARGES>  (1) 
4
1 -0.34
2 -0.34
3 0.34
4 0.34

>  <PUBCHEM_EFFECTIVE_ROTOR_COUNT>  (1) 
1

>  <PUBCHEM_PHARMACOPHORE_FEATURES>  (1) 
0

>  <PUBCHEM_HEAVY_ATOM_COUNT>  (1) 
4

>  <PUBCHEM_ATOM_DEF_STEREO_COUNT>  (1) 
0

>  <PUBCHEM_ATOM_UDEF_STEREO_COUNT>  (1) 
0

>  <PUBCHEM_BOND_DEF_STEREO_COUNT>  (1) 
0

>  <PUBCHEM_BOND_UDEF_STEREO_COUNT>  (1) 
0

>  <PUBCHEM_ISOTOPIC_ATOM_COUNT>  (1) 
0

>  <PUBCHEM_COMPONENT_COUNT>  (1) 
1

>  <PUBCHEM_CACTVS_TAUTO_COUNT>  (1) 
1

>  <PUBCHEM_CONFORMER_ID>  (1) 
00002FBF00000001

>  <PUBCHEM_MMFF94_ENERGY>  (1) 
-2.4759

>  <PUBCHEM_FEATURE_SELFOVERLAP>  (1) 
0

>  <PUBCHEM_SHAPE_FINGERPRINT>  (1) 
139733 1 9295289443160168803
21015797 1 9222967927682332096
5943 1 11495161495919371901

>  <PUBCHEM_SHAPE_MULTIPOLES>  (1) 
67.77
1.57
0.85
0.61
0
0.05
0
-0.3
0
0
0
0
0.05
-0.12

>  <PUBCHEM_SHAPE_SELFOVERLAP>  (1) 
112.159

>  <PUBCHEM_SHAPE_VOLUME>  (1) 
46.7

>  <PUBCHEM_COORDINATE_TYPE>  (1) 
2
5
10

$$$$
