12240
     RDKit          3D

  8  7  0  0  0  0  0  0  0  0999 V2000
    1.4368   -0.5057    1.3336 O   0  0  0  0  0  0  0  0  0  0  0  0
    1.4462    0.0079   -0.0053 C   0  0  0  0  0  0  0  0  0  0  0  0
    0.0732    0.6647   -0.2549 C   0  0  0  0  0  0  0  0  0  0  0  0
   -1.1427   -0.2232    0.0239 C   0  0  0  0  0  0  0  0  0  0  0  0
   -2.4473    0.5487   -0.1856 C   0  0  0  0  0  0  0  0  0  0  0  0
    1.6940   -1.1862   -0.9279 C   0  0  0  0  0  0  0  0  0  0  0  0
    2.6006    1.0067   -0.1094 C   0  0  0  0  0  0  0  0  0  0  0  0
   -3.6608   -0.3129    0.1257 C   0  0  0  0  0  0  0  0  0  0  0  0
  1  2  1  0
  2  3  1  0
  2  6  1  0
  2  7  1  0
  3  4  1  0
  4  5  1  0
  5  8  1  0
M  END
>  <PUBCHEM_COMPOUND_CID>  (1) 
12240

>  <PUBCHEM_CONFORMER_RMSD>  (1) 
0.6

>  <PUBCHEM_CONFORMER_DIVERSEORDER>  (1) 
2
10
1
8
3
6
4
9
7
5

>  <PUBCHEM_MMFF94_PARTIAL_CHARGES>  (1) 
3
1 -0.68
2 0.28
24 0.4

>  <PUBCHEM_EFFECTIVE_ROTOR_COUNT>  (1) 
3

>  <PUBCHEM_PHARMACOPHORE_FEATURES>  (1) 
4
1 1 acceptor
1 1 donor
1 8 hydrophobe
3 2 6 7 hydrophobe

>  <PUBCHEM_HEAVY_ATOM_COUNT>  (1) 
8

>  <PUBCHEM_ATOM_DEF_STEREO_COUNT>  (1) 
0

>  <PUBCHEM_ATOM_UDEF_STEREO_COUNT>  (1) 
0

>  <PUBCHEM_BOND_DEF_STEREO_COUNT>  (1) 
0

>  <PUBCHEM_BOND_UDEF_STEREO_COUNT>  (1) 
0

>  <PUBCHEM_ISOTOPIC_ATOM_COUNT>  (1) 
0

>  <PUBCHEM_COMPONENT_COUNT>  (1) 
1

>  <PUBCHEM_CACTVS_TAUTO_COUNT>  (1) 
1

>  <PUBCHEM_CONFORMER_ID>  (1) 
00002FD000000002

>  <PUBCHEM_MMFF94_ENERGY>  (1) 
9.0852

>  <PUBCHEM_FEATURE_SELFOVERLAP>  (1) 
20.297

>  <PUBCHEM_SHAPE_FINGERPRINT>  (1) 
11062470 55 17676485073053502437
12932764 1 17749392520949849789
14325111 11 18342178856283231253
14390081 3 18040715866070446229
170605 34 18334577992234786108
21040471 1 17774711065180683254
23235685 24 18201434809011740845
23552333 60 18335136466784760576
23552423 10 18270125582676564967
29004967 10 18272090487048469104
3248919 1 18271800199263058221
5460574 1 10519989261920622181

>  <PUBCHEM_SHAPE_MULTIPOLES>  (1) 
158.77
5
1.06
0.89
4.23
0.15
0.21
-0.15
-0.03
-0.6
-0.19
-0.35
0.12
0.14

>  <PUBCHEM_SHAPE_SELFOVERLAP>  (1) 
282.09

>  <PUBCHEM_SHAPE_VOLUME>  (1) 
105.2

>  <PUBCHEM_COORDINATE_TYPE>  (1) 
2
5
10

$$$$
