12249
     RDKit          3D

  6  5  0  0  0  0  0  0  0  0999 V2000
    1.4358   -0.2996   -0.3048 N   0  0  0  0  0  0  0  0  0  0  0  0
   -1.0354    0.0206   -0.3350 C   0  0  0  0  0  0  0  0  0  0  0  0
    0.3328    0.5552    0.1218 C   0  0  0  0  0  0  0  0  0  0  0  0
   -1.2444   -1.3953    0.2088 C   0  0  0  0  0  0  0  0  0  0  0  0
   -2.1941    0.9179    0.1075 C   0  0  0  0  0  0  0  0  0  0  0  0
    2.7054    0.2012    0.2018 C   0  0  0  0  0  0  0  0  0  0  0  0
  1  3  1  0
  1  6  1  0
  2  3  1  0
  2  4  1  0
  2  5  1  0
M  END
>  <PUBCHEM_COMPOUND_CID>  (1) 
12249

>  <PUBCHEM_CONFORMER_RMSD>  (1) 
0.4

>  <PUBCHEM_CONFORMER_DIVERSEORDER>  (1) 
1
2

>  <PUBCHEM_MMFF94_PARTIAL_CHARGES>  (1) 
4
1 -0.9
16 0.36
3 0.27
6 0.27

>  <PUBCHEM_EFFECTIVE_ROTOR_COUNT>  (1) 
2

>  <PUBCHEM_PHARMACOPHORE_FEATURES>  (1) 
3
1 1 cation
1 1 donor
3 2 4 5 hydrophobe

>  <PUBCHEM_HEAVY_ATOM_COUNT>  (1) 
6

>  <PUBCHEM_ATOM_DEF_STEREO_COUNT>  (1) 
0

>  <PUBCHEM_ATOM_UDEF_STEREO_COUNT>  (1) 
0

>  <PUBCHEM_BOND_DEF_STEREO_COUNT>  (1) 
0

>  <PUBCHEM_BOND_UDEF_STEREO_COUNT>  (1) 
0

>  <PUBCHEM_ISOTOPIC_ATOM_COUNT>  (1) 
0

>  <PUBCHEM_COMPONENT_COUNT>  (1) 
1

>  <PUBCHEM_CACTVS_TAUTO_COUNT>  (1) 
1

>  <PUBCHEM_CONFORMER_ID>  (1) 
00002FD900000001

>  <PUBCHEM_MMFF94_ENERGY>  (1) 
1.5819

>  <PUBCHEM_FEATURE_SELFOVERLAP>  (1) 
15.223

>  <PUBCHEM_SHAPE_FINGERPRINT>  (1) 
139733 1 9582978851017014887
14390081 3 17988917877512346968
16714656 1 18261111846428877885
20096714 4 18410575041903413965
21040471 1 18337394829266106885
24536 1 18338786935446068308
29004967 10 17775291590166594938
5460574 1 8430313545536029108

>  <PUBCHEM_SHAPE_MULTIPOLES>  (1) 
118.5
3.45
1.16
0.65
1.95
0.3
0
-0.52
-0.22
-0.69
-0.09
-0.02
0
0.06

>  <PUBCHEM_SHAPE_SELFOVERLAP>  (1) 
200.926

>  <PUBCHEM_SHAPE_VOLUME>  (1) 
80.7

>  <PUBCHEM_COORDINATE_TYPE>  (1) 
2
5
10

$$$$
