12259
     RDKit          3D

  6  5  0  0  0  0  0  0  0  0999 V2000
    0.2492    0.5594    0.0001 O   0  0  0  0  0  0  0  0  0  0  0  0
   -1.0698   -1.2208    0.0000 O   0  0  0  0  0  0  0  0  0  0  0  0
   -2.0114    0.8002   -0.0001 O   0  0  0  0  0  0  0  0  0  0  0  0
   -1.0642    0.0107    0.0001 N   0  0  0  0  0  0  0  0  0  0  0  0
    1.2754   -0.4217    0.0000 C   0  0  0  0  0  0  0  0  0  0  0  0
    2.6208    0.2722   -0.0001 C   0  0  0  0  0  0  0  0  0  0  0  0
  1  4  1  0
  1  5  1  0
  2  4  1  0
  3  4  2  0
  5  6  1  0
M  CHG  2   2  -1   4   1
M  END
>  <PUBCHEM_COMPOUND_CID>  (1) 
12259

>  <PUBCHEM_CONFORMER_RMSD>  (1) 
0.4

>  <PUBCHEM_CONFORMER_DIVERSEORDER>  (1) 
1
5
2
4
3
6

>  <PUBCHEM_MMFF94_PARTIAL_CHARGES>  (1) 
5
1 -0.27
2 -0.52
3 -0.52
4 1.03
5 0.28

>  <PUBCHEM_EFFECTIVE_ROTOR_COUNT>  (1) 
2

>  <PUBCHEM_PHARMACOPHORE_FEATURES>  (1) 
2
1 2 acceptor
1 3 acceptor

>  <PUBCHEM_HEAVY_ATOM_COUNT>  (1) 
6

>  <PUBCHEM_ATOM_DEF_STEREO_COUNT>  (1) 
0

>  <PUBCHEM_ATOM_UDEF_STEREO_COUNT>  (1) 
0

>  <PUBCHEM_BOND_DEF_STEREO_COUNT>  (1) 
0

>  <PUBCHEM_BOND_UDEF_STEREO_COUNT>  (1) 
0

>  <PUBCHEM_ISOTOPIC_ATOM_COUNT>  (1) 
0

>  <PUBCHEM_COMPONENT_COUNT>  (1) 
1

>  <PUBCHEM_CACTVS_TAUTO_COUNT>  (1) 
1

>  <PUBCHEM_CONFORMER_ID>  (1) 
00002FE300000001

>  <PUBCHEM_MMFF94_ENERGY>  (1) 
9.3781

>  <PUBCHEM_FEATURE_SELFOVERLAP>  (1) 
10.219

>  <PUBCHEM_SHAPE_FINGERPRINT>  (1) 
139733 1 9295020058679952674
14390081 3 18273491290980492120
16714656 1 18408043987468711380
20096714 4 18408042892325832376
21040471 1 18338797814587556070
29004967 10 14923944531321839180
5460574 1 9295288343748845760

>  <PUBCHEM_SHAPE_MULTIPOLES>  (1) 
100.89
3.17
0.95
0.55
1.08
0.17
0
-0.52
0
-0.33
0
0.08
0
0

>  <PUBCHEM_SHAPE_SELFOVERLAP>  (1) 
177.019

>  <PUBCHEM_SHAPE_VOLUME>  (1) 
67.4

>  <PUBCHEM_COORDINATE_TYPE>  (1) 
2
5
10

$$$$
