12254
     RDKit          3D

  6  5  0  0  0  0  0  0  0  0999 V2000
    0.5156    1.2920    0.0001 O   0  0  0  0  0  0  0  0  0  0  0  0
   -0.0749   -0.9576    0.0001 N   0  0  0  0  0  0  0  0  0  0  0  0
    2.1359   -0.3342   -0.0002 N   0  0  0  0  0  0  0  0  0  0  0  0
   -1.5092   -0.7837    0.0000 C   0  0  0  0  0  0  0  0  0  0  0  0
   -1.8904    0.6824   -0.0001 C   0  0  0  0  0  0  0  0  0  0  0  0
    0.8229    0.1012    0.0002 C   0  0  0  0  0  0  0  0  0  0  0  0
  1  6  2  0
  2  4  1  0
  2  6  1  0
  3  6  1  0
  4  5  1  0
M  END
>  <PUBCHEM_COMPOUND_CID>  (1) 
12254

>  <PUBCHEM_CONFORMER_RMSD>  (1) 
0.4

>  <PUBCHEM_CONFORMER_DIVERSEORDER>  (1) 
1

>  <PUBCHEM_MMFF94_PARTIAL_CHARGES>  (1) 
8
1 -0.57
13 0.37
14 0.37
2 -0.73
3 -0.8
4 0.3
6 0.69
9 0.37

>  <PUBCHEM_EFFECTIVE_ROTOR_COUNT>  (1) 
2

>  <PUBCHEM_PHARMACOPHORE_FEATURES>  (1) 
3
1 1 acceptor
1 2 donor
1 3 donor

>  <PUBCHEM_HEAVY_ATOM_COUNT>  (1) 
6

>  <PUBCHEM_ATOM_DEF_STEREO_COUNT>  (1) 
0

>  <PUBCHEM_ATOM_UDEF_STEREO_COUNT>  (1) 
0

>  <PUBCHEM_BOND_DEF_STEREO_COUNT>  (1) 
0

>  <PUBCHEM_BOND_UDEF_STEREO_COUNT>  (1) 
0

>  <PUBCHEM_ISOTOPIC_ATOM_COUNT>  (1) 
0

>  <PUBCHEM_COMPONENT_COUNT>  (1) 
1

>  <PUBCHEM_CACTVS_TAUTO_COUNT>  (1) 
3

>  <PUBCHEM_CONFORMER_ID>  (1) 
00002FDE00000001

>  <PUBCHEM_MMFF94_ENERGY>  (1) 
11.5696

>  <PUBCHEM_FEATURE_SELFOVERLAP>  (1) 
15.275

>  <PUBCHEM_SHAPE_FINGERPRINT>  (1) 
139733 1 9223232944481332642
16714656 1 18337395937346570308
20096714 4 18410293635677731121
21040471 1 18338517417790119969
24536 1 18118672442890966977
29004967 10 18410016537251739178
5460574 1 9295291642183528290

>  <PUBCHEM_SHAPE_MULTIPOLES>  (1) 
107.65
2.5
1.15
0.57
0.17
0.14
0
-0.02
0
-0.18
0
-0.05
0
0

>  <PUBCHEM_SHAPE_SELFOVERLAP>  (1) 
193.922

>  <PUBCHEM_SHAPE_VOLUME>  (1) 
68.9

>  <PUBCHEM_COORDINATE_TYPE>  (1) 
2
5
10

$$$$
