12268
     RDKit          3D

  8  8  0  0  0  0  0  0  0  0999 V2000
    3.0845   -0.9728    0.0000 I   0  0  0  0  0  0  0  0  0  0  0  0
   -1.2258   -0.4516   -0.0001 C   0  0  0  0  0  0  0  0  0  0  0  0
    0.0576   -0.9981   -0.0001 C   0  0  0  0  0  0  0  0  0  0  0  0
   -1.3943    0.9331    0.0000 C   0  0  0  0  0  0  0  0  0  0  0  0
   -2.4187   -1.3472    0.0001 C   0  0  0  0  0  0  0  0  0  0  0  0
    1.1725   -0.1597    0.0000 C   0  0  0  0  0  0  0  0  0  0  0  0
   -0.2796    1.7714    0.0001 C   0  0  0  0  0  0  0  0  0  0  0  0
    1.0038    1.2250    0.0000 C   0  0  0  0  0  0  0  0  0  0  0  0
  1  6  1  0
  2  3  2  0
  2  4  1  0
  2  5  1  0
  3  6  1  0
  4  7  2  0
  6  8  2  0
  7  8  1  0
M  END
>  <PUBCHEM_COMPOUND_CID>  (1) 
12268

>  <PUBCHEM_CONFORMER_RMSD>  (1) 
0.4

>  <PUBCHEM_CONFORMER_DIVERSEORDER>  (1) 
1

>  <PUBCHEM_MMFF94_PARTIAL_CHARGES>  (1) 
12
1 -0.08
10 0.15
14 0.15
15 0.15
2 -0.14
3 -0.15
4 -0.15
5 0.14
6 0.08
7 -0.15
8 -0.15
9 0.15

>  <PUBCHEM_EFFECTIVE_ROTOR_COUNT>  (1) 
0

>  <PUBCHEM_PHARMACOPHORE_FEATURES>  (1) 
2
1 1 hydrophobe
6 2 3 4 6 7 8 rings

>  <PUBCHEM_HEAVY_ATOM_COUNT>  (1) 
8

>  <PUBCHEM_ATOM_DEF_STEREO_COUNT>  (1) 
0

>  <PUBCHEM_ATOM_UDEF_STEREO_COUNT>  (1) 
0

>  <PUBCHEM_BOND_DEF_STEREO_COUNT>  (1) 
0

>  <PUBCHEM_BOND_UDEF_STEREO_COUNT>  (1) 
0

>  <PUBCHEM_ISOTOPIC_ATOM_COUNT>  (1) 
0

>  <PUBCHEM_COMPONENT_COUNT>  (1) 
1

>  <PUBCHEM_CACTVS_TAUTO_COUNT>  (1) 
1

>  <PUBCHEM_CONFORMER_ID>  (1) 
00002FEC00000001

>  <PUBCHEM_MMFF94_ENERGY>  (1) 
17.2996

>  <PUBCHEM_FEATURE_SELFOVERLAP>  (1) 
10.148

>  <PUBCHEM_SHAPE_FINGERPRINT>  (1) 
10857977 72 18341317934304724178
12716758 59 17980483360791477718
14128692 85 18409173229139574766
16714656 1 18266461992826708092
16945 1 18266459793634764388
20871998 184 18201717306386145814
20871998 22 18342469148427413190
21040471 1 17834394523299614500
23552423 10 18259989275385310294
241688 4 18409166610273419816
2748010 2 18410566318661422532
29004967 10 18119247517653096691
369184 2 18266175037661677330
5084963 1 18272652363381502818

>  <PUBCHEM_SHAPE_MULTIPOLES>  (1) 
176.57
3.75
1.8
0.66
2.52
0.37
0
-1.81
0
-0.64
0
0.12
-0.03
0

>  <PUBCHEM_SHAPE_SELFOVERLAP>  (1) 
340.399

>  <PUBCHEM_SHAPE_VOLUME>  (1) 
112

>  <PUBCHEM_COORDINATE_TYPE>  (1) 
2
5
10

$$$$
