12282
     RDKit          3D

  9  9  0  0  0  0  0  0  0  0999 V2000
    0.4932    3.4375    0.0002 I   0  0  0  0  0  0  0  0  0  0  0  0
   -3.2234   -1.2917    0.0005 I   0  0  0  0  0  0  0  0  0  0  0  0
    2.7306   -2.1456    0.0003 I   0  0  0  0  0  0  0  0  0  0  0  0
    0.1980    1.3808    0.0000 C   0  0  0  0  0  0  0  0  0  0  0  0
   -1.2948   -0.5189   -0.0004 C   0  0  0  0  0  0  0  0  0  0  0  0
    1.0967   -0.8620   -0.0001 C   0  0  0  0  0  0  0  0  0  0  0  0
   -1.0967    0.8619   -0.0002 C   0  0  0  0  0  0  0  0  0  0  0  0
    1.2946    0.5189    0.0000 C   0  0  0  0  0  0  0  0  0  0  0  0
   -0.1981   -1.3809   -0.0003 C   0  0  0  0  0  0  0  0  0  0  0  0
  1  4  1  0
  2  5  1  0
  3  6  1  0
  4  7  2  0
  4  8  1  0
  5  7  1  0
  5  9  2  0
  6  8  2  0
  6  9  1  0
M  END
>  <PUBCHEM_COMPOUND_CID>  (1) 
12282

>  <PUBCHEM_CONFORMER_RMSD>  (1) 
0.4

>  <PUBCHEM_CONFORMER_DIVERSEORDER>  (1) 
1

>  <PUBCHEM_MMFF94_PARTIAL_CHARGES>  (1) 
12
1 -0.08
10 0.15
11 0.15
12 0.15
2 -0.08
3 -0.08
4 0.08
5 0.08
6 0.08
7 -0.15
8 -0.15
9 -0.15

>  <PUBCHEM_EFFECTIVE_ROTOR_COUNT>  (1) 
0

>  <PUBCHEM_PHARMACOPHORE_FEATURES>  (1) 
4
1 1 hydrophobe
1 2 hydrophobe
1 3 hydrophobe
6 4 5 6 7 8 9 rings

>  <PUBCHEM_HEAVY_ATOM_COUNT>  (1) 
9

>  <PUBCHEM_ATOM_DEF_STEREO_COUNT>  (1) 
0

>  <PUBCHEM_ATOM_UDEF_STEREO_COUNT>  (1) 
0

>  <PUBCHEM_BOND_DEF_STEREO_COUNT>  (1) 
0

>  <PUBCHEM_BOND_UDEF_STEREO_COUNT>  (1) 
0

>  <PUBCHEM_ISOTOPIC_ATOM_COUNT>  (1) 
0

>  <PUBCHEM_COMPONENT_COUNT>  (1) 
1

>  <PUBCHEM_CACTVS_TAUTO_COUNT>  (1) 
1

>  <PUBCHEM_CONFORMER_ID>  (1) 
00002FFA00000001

>  <PUBCHEM_MMFF94_ENERGY>  (1) 
17.6166

>  <PUBCHEM_FEATURE_SELFOVERLAP>  (1) 
20.297

>  <PUBCHEM_SHAPE_FINGERPRINT>  (1) 
1 1 17977947113540607445
12716758 59 16827005971194286276
13380535 76 17474385154737655745
14817 1 16965699020582290329
16945 1 16177071505273126308
19021347 4 17185876640656267737
193761 8 17402049393048418566
20645477 70 18192984045042384791
20711985 344 15818178837030144944
20871998 184 15388961396369040692
20871998 22 14232089410987205408
21040471 1 17185877731720645445
21524375 3 17326039054677019929
23552423 10 18124315162503627727
241688 4 18338516322394046873
2748010 2 17471019549507766526
3071541 12 18195252332628234077
7364860 26 18267867378850246464
81228 2 15816782461309812922

>  <PUBCHEM_SHAPE_MULTIPOLES>  (1) 
221.02
3.92
3.92
0.71
4.22
1.88
0
-1.88
0
-4.22
0
0
0
0

>  <PUBCHEM_SHAPE_SELFOVERLAP>  (1) 
390.906

>  <PUBCHEM_SHAPE_VOLUME>  (1) 
153.2

>  <PUBCHEM_COORDINATE_TYPE>  (1) 
2
5
10

$$$$
