12292
     RDKit          3D

 11 10  0  0  1  0  0  0  0  0999 V2000
   -2.8484    1.9190    0.1927 O   0  0  0  0  0  0  0  0  0  0  0  0
    3.4979    1.1349    0.6088 O   0  0  0  0  0  0  0  0  0  0  0  0
   -1.9695    0.5602   -1.3949 O   0  0  0  0  0  0  0  0  0  0  0  0
    3.0586   -0.2662   -1.1294 O   0  0  0  0  0  0  0  0  0  0  0  0
   -0.8434   -1.2445    0.6428 C   0  0  0  0  0  0  0  0  0  0  0  0
    0.4894   -0.9427   -0.0770 C   0  0  0  0  0  0  0  0  0  0  0  0
   -1.6987   -0.0066    0.9677 C   0  0  0  0  0  0  0  0  0  0  0  0
   -1.6407   -2.2947   -0.1395 C   0  0  0  0  0  0  0  0  0  0  0  0
    1.4076    0.0538    0.6328 C   0  0  0  0  0  0  0  0  0  0  0  0
   -2.1675    0.8145   -0.2163 C   0  0  0  0  0  0  0  0  0  0  0  0
    2.7148    0.2724   -0.0878 C   0  0  0  0  0  0  0  0  0  0  0  0
  1 10  1  0
  2 11  1  0
  3 10  2  0
  4 11  2  0
  5  6  1  0
  5  7  1  0
  5  8  1  0
  6  9  1  0
  7 10  1  0
  9 11  1  0
M  END
>  <PUBCHEM_COMPOUND_CID>  (1) 
12292

>  <PUBCHEM_CONFORMER_RMSD>  (1) 
0.6

>  <PUBCHEM_CONFORMER_DIVERSEORDER>  (1) 
3
93
37
60
40
56
90
76
82
44
101
6
54
70
28
100
34
1
78
32
92
53
71
23
79
49
27
22
96
35
66
17
89
57
15
50
80
10
7
103
81
65
52
86
69
19
20
62
95
24
61
74
63
21
83
58
16
88
36
94
87
45
4
64
105
26
2
39
73
14
104
68
42
43
99
75
25
8
46
84
91
11
102
67
9
41
51
38
97
48
18
47
72
59
55
13
5
30
12
31
29
85
98
77
33

>  <PUBCHEM_MMFF94_PARTIAL_CHARGES>  (1) 
10
1 -0.65
10 0.66
11 0.66
2 -0.65
22 0.5
23 0.5
3 -0.57
4 -0.57
7 0.06
9 0.06

>  <PUBCHEM_EFFECTIVE_ROTOR_COUNT>  (1) 
5

>  <PUBCHEM_PHARMACOPHORE_FEATURES>  (1) 
8
1 1 acceptor
1 2 acceptor
1 3 acceptor
1 4 acceptor
1 8 hydrophobe
3 1 3 10 anion
3 2 4 11 anion
4 5 6 7 9 hydrophobe

>  <PUBCHEM_HEAVY_ATOM_COUNT>  (1) 
11

>  <PUBCHEM_ATOM_DEF_STEREO_COUNT>  (1) 
0

>  <PUBCHEM_ATOM_UDEF_STEREO_COUNT>  (1) 
1

>  <PUBCHEM_BOND_DEF_STEREO_COUNT>  (1) 
0

>  <PUBCHEM_BOND_UDEF_STEREO_COUNT>  (1) 
0

>  <PUBCHEM_ISOTOPIC_ATOM_COUNT>  (1) 
0

>  <PUBCHEM_COMPONENT_COUNT>  (1) 
1

>  <PUBCHEM_CACTVS_TAUTO_COUNT>  (1) 
1

>  <PUBCHEM_CONFORMER_ID>  (1) 
0000300400000003

>  <PUBCHEM_MMFF94_ENERGY>  (1) 
10.5524

>  <PUBCHEM_FEATURE_SELFOVERLAP>  (1) 
40.745

>  <PUBCHEM_SHAPE_FINGERPRINT>  (1) 
100427 49 17543081529018611587
12716758 59 18411986862120537698
12932764 1 18337402620695764010
14390081 3 18410009927217897344
15775835 57 18113898234427713144
19837323 101 18412543202214099483
20645477 56 18411703200984270448
20653085 51 17988926626291936097
21028194 46 18261393286966572915
21524375 3 18116992191792632635
22802520 49 18129957692978887062
23211744 41 17316199134551997449
23235685 24 18336547114475688561
23557571 272 18198069268760437252
3248919 1 17489594467557380578
6333449 129 18411415150217314178
81228 2 18117563040043640691

>  <PUBCHEM_SHAPE_MULTIPOLES>  (1) 
202.9
5.1
1.81
1.03
4.07
0.43
0.15
-2.19
0.39
-1.64
0.01
-0.04
-0.06
0.33

>  <PUBCHEM_SHAPE_SELFOVERLAP>  (1) 
382.257

>  <PUBCHEM_SHAPE_VOLUME>  (1) 
125.2

>  <PUBCHEM_COORDINATE_TYPE>  (1) 
2
5
10

$$$$
