12300
     RDKit          3D

  7  6  0  0  0  0  0  0  0  0999 V2000
   -2.9620   -0.8460    0.4983 Cl  0  0  0  0  0  0  0  0  0  0  0  0
    2.3797   -1.1181   -0.1299 O   0  0  0  0  0  0  0  0  0  0  0  0
    1.9837    1.0540    0.3979 O   0  0  0  0  0  0  0  0  0  0  0  0
   -0.8282    0.7948   -0.0479 C   0  0  0  0  0  0  0  0  0  0  0  0
    0.1351   -0.3652   -0.3128 C   0  0  0  0  0  0  0  0  0  0  0  0
   -2.2818    0.5148   -0.4246 C   0  0  0  0  0  0  0  0  0  0  0  0
    1.5735   -0.0342    0.0188 C   0  0  0  0  0  0  0  0  0  0  0  0
  1  6  1  0
  2  7  1  0
  3  7  2  0
  4  5  1  0
  4  6  1  0
  5  7  1  0
M  END
>  <PUBCHEM_COMPOUND_CID>  (1) 
12300

>  <PUBCHEM_CONFORMER_RMSD>  (1) 
0.4

>  <PUBCHEM_CONFORMER_DIVERSEORDER>  (1) 
1
22
20
2
17
21
3
6
10
19
7
8
5
9
14
18
16
4
11
15
13
12

>  <PUBCHEM_MMFF94_PARTIAL_CHARGES>  (1) 
7
1 -0.29
14 0.5
2 -0.65
3 -0.57
5 0.06
6 0.29
7 0.66

>  <PUBCHEM_EFFECTIVE_ROTOR_COUNT>  (1) 
3

>  <PUBCHEM_PHARMACOPHORE_FEATURES>  (1) 
3
1 2 acceptor
1 3 acceptor
3 2 3 7 anion

>  <PUBCHEM_HEAVY_ATOM_COUNT>  (1) 
7

>  <PUBCHEM_ATOM_DEF_STEREO_COUNT>  (1) 
0

>  <PUBCHEM_ATOM_UDEF_STEREO_COUNT>  (1) 
0

>  <PUBCHEM_BOND_DEF_STEREO_COUNT>  (1) 
0

>  <PUBCHEM_BOND_UDEF_STEREO_COUNT>  (1) 
0

>  <PUBCHEM_ISOTOPIC_ATOM_COUNT>  (1) 
0

>  <PUBCHEM_COMPONENT_COUNT>  (1) 
1

>  <PUBCHEM_CACTVS_TAUTO_COUNT>  (1) 
1

>  <PUBCHEM_CONFORMER_ID>  (1) 
0000300C00000001

>  <PUBCHEM_MMFF94_ENERGY>  (1) 
2.4801

>  <PUBCHEM_FEATURE_SELFOVERLAP>  (1) 
15.281

>  <PUBCHEM_SHAPE_FINGERPRINT>  (1) 
10857977 72 18262511610809724313
12932741 1 18334005069324943293
29004967 10 18411418431762284441
5460574 1 9583519823765174933

>  <PUBCHEM_SHAPE_MULTIPOLES>  (1) 
134.19
4.35
1.13
0.7
1.02
0.05
0
0.96
0.42
-0.06
0.05
0.14
-0.01
0.41

>  <PUBCHEM_SHAPE_SELFOVERLAP>  (1) 
233.15

>  <PUBCHEM_SHAPE_VOLUME>  (1) 
89.3

>  <PUBCHEM_COORDINATE_TYPE>  (1) 
2
5
10

$$$$
