12312
     RDKit          3D

  5  4  0  0  0  0  0  0  0  0999 V2000
   -2.1722    0.8353   -0.0029 Cl  0  0  0  0  0  0  0  0  0  0  0  0
    2.1069    0.7928    0.0036 C   0  0  0  0  0  0  0  0  0  0  0  0
    1.3188   -0.4739   -0.0056 C   0  0  0  0  0  0  0  0  0  0  0  0
    0.0190   -0.5419   -0.0002 C   0  0  0  0  0  0  0  0  0  0  0  0
   -1.2726   -0.6124    0.0051 C   0  0  0  0  0  0  0  0  0  0  0  0
  1  5  1  0
  2  3  1  0
  3  4  2  0
  4  5  2  0
M  END
>  <PUBCHEM_COMPOUND_CID>  (1) 
12312

>  <PUBCHEM_CONFORMER_RMSD>  (1) 
0.4

>  <PUBCHEM_CONFORMER_DIVERSEORDER>  (1) 
1

>  <PUBCHEM_MMFF94_PARTIAL_CHARGES>  (1) 
7
1 -0.14
10 0.15
2 0.14
3 -0.22
4 -0.13
5 0.05
9 0.15

>  <PUBCHEM_EFFECTIVE_ROTOR_COUNT>  (1) 
0

>  <PUBCHEM_PHARMACOPHORE_FEATURES>  (1) 
1
1 2 hydrophobe

>  <PUBCHEM_HEAVY_ATOM_COUNT>  (1) 
5

>  <PUBCHEM_ATOM_DEF_STEREO_COUNT>  (1) 
0

>  <PUBCHEM_ATOM_UDEF_STEREO_COUNT>  (1) 
0

>  <PUBCHEM_BOND_DEF_STEREO_COUNT>  (1) 
0

>  <PUBCHEM_BOND_UDEF_STEREO_COUNT>  (1) 
0

>  <PUBCHEM_ISOTOPIC_ATOM_COUNT>  (1) 
0

>  <PUBCHEM_COMPONENT_COUNT>  (1) 
1

>  <PUBCHEM_CACTVS_TAUTO_COUNT>  (1) 
1

>  <PUBCHEM_CONFORMER_ID>  (1) 
0000301800000001

>  <PUBCHEM_MMFF94_ENERGY>  (1) 
0.538

>  <PUBCHEM_FEATURE_SELFOVERLAP>  (1) 
5.074

>  <PUBCHEM_SHAPE_FINGERPRINT>  (1) 
14390081 3 18343017817498283856
20096714 4 18410293601101708434
21040471 1 18410575093326983462
23552449 1 18195807607380028491
24536 1 18337942454644464150
29004967 10 10737289051810624574
5460574 1 9223235147794358691

>  <PUBCHEM_SHAPE_MULTIPOLES>  (1) 
104.77
3.17
1.07
0.62
0.12
0.12
0
1.15
0
0.06
0
0.02
0.01
0

>  <PUBCHEM_SHAPE_SELFOVERLAP>  (1) 
177.829

>  <PUBCHEM_SHAPE_VOLUME>  (1) 
69.5

>  <PUBCHEM_COORDINATE_TYPE>  (1) 
2
5
10

$$$$
