12338
     RDKit          3D

  6  5  0  0  0  0  0  0  0  0999 V2000
   -1.7920    0.4979   -0.0038 O   0  0  0  0  0  0  0  0  0  0  0  0
    0.5994    0.3795    0.0197 C   0  0  0  0  0  0  0  0  0  0  0  0
    1.8184   -0.5384    0.0065 C   0  0  0  0  0  0  0  0  0  0  0  0
   -0.7005   -0.4119   -0.0021 C   0  0  0  0  0  0  0  0  0  0  0  0
    3.1142    0.2563   -0.0152 C   0  0  0  0  0  0  0  0  0  0  0  0
   -3.0395   -0.1833   -0.0051 C   0  0  0  0  0  0  0  0  0  0  0  0
  1  4  1  0
  1  6  1  0
  2  3  1  0
  2  4  1  0
  3  5  1  0
M  END
>  <PUBCHEM_COMPOUND_CID>  (1) 
12338

>  <PUBCHEM_CONFORMER_RMSD>  (1) 
0.4

>  <PUBCHEM_CONFORMER_DIVERSEORDER>  (1) 
1
20
7
8
6
17
13
15
12
16
4
11
2
10
9
3
19
14
18
5

>  <PUBCHEM_MMFF94_PARTIAL_CHARGES>  (1) 
3
1 -0.56
4 0.28
6 0.28

>  <PUBCHEM_EFFECTIVE_ROTOR_COUNT>  (1) 
3

>  <PUBCHEM_PHARMACOPHORE_FEATURES>  (1) 
2
1 1 acceptor
1 5 hydrophobe

>  <PUBCHEM_HEAVY_ATOM_COUNT>  (1) 
6

>  <PUBCHEM_ATOM_DEF_STEREO_COUNT>  (1) 
0

>  <PUBCHEM_ATOM_UDEF_STEREO_COUNT>  (1) 
0

>  <PUBCHEM_BOND_DEF_STEREO_COUNT>  (1) 
0

>  <PUBCHEM_BOND_UDEF_STEREO_COUNT>  (1) 
0

>  <PUBCHEM_ISOTOPIC_ATOM_COUNT>  (1) 
0

>  <PUBCHEM_COMPONENT_COUNT>  (1) 
1

>  <PUBCHEM_CACTVS_TAUTO_COUNT>  (1) 
1

>  <PUBCHEM_CONFORMER_ID>  (1) 
0000303200000001

>  <PUBCHEM_MMFF94_ENERGY>  (1) 
3.3866

>  <PUBCHEM_FEATURE_SELFOVERLAP>  (1) 
10.148

>  <PUBCHEM_SHAPE_FINGERPRINT>  (1) 
11062470 55 18040714766431971005
14325111 11 18410573972282438467
14390081 3 18342173375588684328
16714656 1 18411136930873202293
29004967 10 17022907830604734136
5460574 1 9295288343653822274

>  <PUBCHEM_SHAPE_MULTIPOLES>  (1) 
117.61
5.04
0.75
0.6
0.42
0.03
0
-0.12
-0.03
-0.06
0
-0.03
0.01
0

>  <PUBCHEM_SHAPE_SELFOVERLAP>  (1) 
197.725

>  <PUBCHEM_SHAPE_VOLUME>  (1) 
81.1

>  <PUBCHEM_COORDINATE_TYPE>  (1) 
2
5
10

$$$$
