12339
     RDKit          3D

  6  5  0  0  0  0  0  0  0  0999 V2000
   -2.2451    0.5120   -0.4340 S   0  0  0  0  0  0  0  0  0  0  0  0
    0.4881   -0.0238   -0.2072 C   0  0  0  0  0  0  0  0  0  0  0  0
    1.8709    0.3225    0.3512 C   0  0  0  0  0  0  0  0  0  0  0  0
   -0.6224    0.9054    0.2827 C   0  0  0  0  0  0  0  0  0  0  0  0
    2.9482   -0.5690   -0.2480 C   0  0  0  0  0  0  0  0  0  0  0  0
   -2.4397   -1.1471    0.2554 C   0  0  0  0  0  0  0  0  0  0  0  0
  1  4  1  0
  1  6  1  0
  2  3  1  0
  2  4  1  0
  3  5  1  0
M  END
>  <PUBCHEM_COMPOUND_CID>  (1) 
12339

>  <PUBCHEM_CONFORMER_RMSD>  (1) 
0.4

>  <PUBCHEM_CONFORMER_DIVERSEORDER>  (1) 
7
19
2
14
18
16
13
4
15
1
3
17
8
5
12
11
10
9
6

>  <PUBCHEM_MMFF94_PARTIAL_CHARGES>  (1) 
3
1 -0.46
4 0.23
6 0.23

>  <PUBCHEM_EFFECTIVE_ROTOR_COUNT>  (1) 
3

>  <PUBCHEM_PHARMACOPHORE_FEATURES>  (1) 
3
1 5 hydrophobe
1 6 hydrophobe
4 1 2 3 4 hydrophobe

>  <PUBCHEM_HEAVY_ATOM_COUNT>  (1) 
6

>  <PUBCHEM_ATOM_DEF_STEREO_COUNT>  (1) 
0

>  <PUBCHEM_ATOM_UDEF_STEREO_COUNT>  (1) 
0

>  <PUBCHEM_BOND_DEF_STEREO_COUNT>  (1) 
0

>  <PUBCHEM_BOND_UDEF_STEREO_COUNT>  (1) 
0

>  <PUBCHEM_ISOTOPIC_ATOM_COUNT>  (1) 
0

>  <PUBCHEM_COMPONENT_COUNT>  (1) 
1

>  <PUBCHEM_CACTVS_TAUTO_COUNT>  (1) 
1

>  <PUBCHEM_CONFORMER_ID>  (1) 
0000303300000007

>  <PUBCHEM_MMFF94_ENERGY>  (1) 
2.2705

>  <PUBCHEM_FEATURE_SELFOVERLAP>  (1) 
15.227

>  <PUBCHEM_SHAPE_FINGERPRINT>  (1) 
12932741 1 18340475725155833924
12932764 1 17458058244483714516
14390081 3 8790889574945259991
16714656 1 18187643587731149029
29004967 10 17917993888304404377
5460574 1 8430311351034548676

>  <PUBCHEM_SHAPE_MULTIPOLES>  (1) 
127.33
4.63
1.09
0.73
1.41
0.14
0.02
1.2
0.3
-0.56
-0.07
-0.06
-0.02
0.28

>  <PUBCHEM_SHAPE_SELFOVERLAP>  (1) 
202.251

>  <PUBCHEM_SHAPE_VOLUME>  (1) 
90.4

>  <PUBCHEM_COORDINATE_TYPE>  (1) 
2
5
10

$$$$
