12363
     RDKit          3D

  7  7  0  0  0  0  0  0  0  0999 V2000
   -1.7252    0.0026    0.0001 C   0  0  0  0  0  0  0  0  0  0  0  0
   -0.9166    1.1873   -0.5206 C   0  0  0  0  0  0  0  0  0  0  0  0
   -0.9204   -1.1850    0.5203 C   0  0  0  0  0  0  0  0  0  0  0  0
    0.2994    1.5540    0.3280 C   0  0  0  0  0  0  0  0  0  0  0  0
    0.2947   -1.5548   -0.3278 C   0  0  0  0  0  0  0  0  0  0  0  0
    1.4851    0.6476    0.1656 C   0  0  0  0  0  0  0  0  0  0  0  0
    1.4830   -0.6518   -0.1656 C   0  0  0  0  0  0  0  0  0  0  0  0
  1  2  1  0
  1  3  1  0
  2  4  1  0
  3  5  1  0
  4  6  1  0
  5  7  1  0
  6  7  2  0
M  END
>  <PUBCHEM_COMPOUND_CID>  (1) 
12363

>  <PUBCHEM_CONFORMER_RMSD>  (1) 
0.4

>  <PUBCHEM_CONFORMER_DIVERSEORDER>  (1) 
1

>  <PUBCHEM_MMFF94_PARTIAL_CHARGES>  (1) 
6
18 0.15
19 0.15
4 0.14
5 0.14
6 -0.29
7 -0.29

>  <PUBCHEM_EFFECTIVE_ROTOR_COUNT>  (1) 
1

>  <PUBCHEM_PHARMACOPHORE_FEATURES>  (1) 
1
7 1 2 3 4 5 6 7 rings

>  <PUBCHEM_HEAVY_ATOM_COUNT>  (1) 
7

>  <PUBCHEM_ATOM_DEF_STEREO_COUNT>  (1) 
0

>  <PUBCHEM_ATOM_UDEF_STEREO_COUNT>  (1) 
0

>  <PUBCHEM_BOND_DEF_STEREO_COUNT>  (1) 
0

>  <PUBCHEM_BOND_UDEF_STEREO_COUNT>  (1) 
0

>  <PUBCHEM_ISOTOPIC_ATOM_COUNT>  (1) 
0

>  <PUBCHEM_COMPONENT_COUNT>  (1) 
1

>  <PUBCHEM_CACTVS_TAUTO_COUNT>  (1) 
1

>  <PUBCHEM_CONFORMER_ID>  (1) 
0000304B00000001

>  <PUBCHEM_MMFF94_ENERGY>  (1) 
3.811

>  <PUBCHEM_FEATURE_SELFOVERLAP>  (1) 
5.074

>  <PUBCHEM_SHAPE_FINGERPRINT>  (1) 
16714656 1 18121229924296553780
18185500 45 15887427522298155189
20096714 4 17908429404279496226
21040471 1 18339078323180930792
29004967 10 18342460313573677097

>  <PUBCHEM_SHAPE_MULTIPOLES>  (1) 
144.06
1.94
1.83
0.73
0.01
0
0
0
0
-0.01
0
0.05
0
0.25

>  <PUBCHEM_SHAPE_SELFOVERLAP>  (1) 
273.681

>  <PUBCHEM_SHAPE_VOLUME>  (1) 
86

>  <PUBCHEM_COORDINATE_TYPE>  (1) 
2
5
10

$$$$
