12361
     RDKit          3D

  7  6  0  0  0  0  0  0  0  0999 V2000
   -2.8850    1.1945   -0.2470 Cl  0  0  0  0  0  0  0  0  0  0  0  0
   -0.1537   -0.0649    0.2729 O   0  0  0  0  0  0  0  0  0  0  0  0
    3.4461    0.1532   -0.1774 O   0  0  0  0  0  0  0  0  0  0  0  0
    1.1231   -0.4219   -0.2426 C   0  0  0  0  0  0  0  0  0  0  0  0
   -1.1735   -0.9199   -0.2246 C   0  0  0  0  0  0  0  0  0  0  0  0
    2.1666    0.5227    0.3222 C   0  0  0  0  0  0  0  0  0  0  0  0
   -2.5237   -0.4637    0.2966 C   0  0  0  0  0  0  0  0  0  0  0  0
  1  7  1  0
  2  4  1  0
  2  5  1  0
  3  6  1  0
  4  6  1  0
  5  7  1  0
M  END
>  <PUBCHEM_COMPOUND_CID>  (1) 
12361

>  <PUBCHEM_CONFORMER_RMSD>  (1) 
0.6

>  <PUBCHEM_CONFORMER_DIVERSEORDER>  (1) 
3
27
13
25
29
14
5
7
16
2
26
30
19
21
8
24
10
22
1
18
11
9
15
6
28
20
23
17
4
12

>  <PUBCHEM_MMFF94_PARTIAL_CHARGES>  (1) 
8
1 -0.29
16 0.4
2 -0.56
3 -0.68
4 0.28
5 0.28
6 0.28
7 0.29

>  <PUBCHEM_EFFECTIVE_ROTOR_COUNT>  (1) 
4

>  <PUBCHEM_PHARMACOPHORE_FEATURES>  (1) 
3
1 2 acceptor
1 3 acceptor
1 3 donor

>  <PUBCHEM_HEAVY_ATOM_COUNT>  (1) 
7

>  <PUBCHEM_ATOM_DEF_STEREO_COUNT>  (1) 
0

>  <PUBCHEM_ATOM_UDEF_STEREO_COUNT>  (1) 
0

>  <PUBCHEM_BOND_DEF_STEREO_COUNT>  (1) 
0

>  <PUBCHEM_BOND_UDEF_STEREO_COUNT>  (1) 
0

>  <PUBCHEM_ISOTOPIC_ATOM_COUNT>  (1) 
0

>  <PUBCHEM_COMPONENT_COUNT>  (1) 
1

>  <PUBCHEM_CACTVS_TAUTO_COUNT>  (1) 
1

>  <PUBCHEM_CONFORMER_ID>  (1) 
0000304900000003

>  <PUBCHEM_MMFF94_ENERGY>  (1) 
6.7511

>  <PUBCHEM_FEATURE_SELFOVERLAP>  (1) 
15.223

>  <PUBCHEM_SHAPE_FINGERPRINT>  (1) 
12932764 1 18201997763323614826
14325111 11 18410573989546788154
14390081 3 18413103957365327505
20651381 32 17917713457273817534
29004967 10 12829202265393273694
5460574 1 8935009165283498970

>  <PUBCHEM_SHAPE_MULTIPOLES>  (1) 
134.19
5.36
1.07
0.66
1.9
0.13
0
1.49
-0.12
-0.73
-0.06
-0.07
0
0.21

>  <PUBCHEM_SHAPE_SELFOVERLAP>  (1) 
225.221

>  <PUBCHEM_SHAPE_VOLUME>  (1) 
92

>  <PUBCHEM_COORDINATE_TYPE>  (1) 
2
5
10

$$$$
