12370
     RDKit          3D

  8  7  0  0  0  0  0  0  0  0999 V2000
    0.6250    0.5758   -0.0167 C   0  0  0  0  0  0  0  0  0  0  0  0
    1.8275   -0.3697   -0.0170 C   0  0  0  0  0  0  0  0  0  0  0  0
   -0.6933   -0.2001   -0.0383 C   0  0  0  0  0  0  0  0  0  0  0  0
    3.1438    0.4051    0.0380 C   0  0  0  0  0  0  0  0  0  0  0  0
   -1.8953    0.7438   -0.0043 C   0  0  0  0  0  0  0  0  0  0  0  0
    4.3423   -0.5297    0.0043 C   0  0  0  0  0  0  0  0  0  0  0  0
   -3.1583   -0.0073    0.0111 C   0  0  0  0  0  0  0  0  0  0  0  0
   -4.1918   -0.6179    0.0230 C   0  0  0  0  0  0  0  0  0  0  0  0
  1  2  1  0
  1  3  1  0
  2  4  1  0
  3  5  1  0
  4  6  1  0
  5  7  1  0
  7  8  3  0
M  END
>  <PUBCHEM_COMPOUND_CID>  (1) 
12370

>  <PUBCHEM_CONFORMER_RMSD>  (1) 
0.6

>  <PUBCHEM_CONFORMER_DIVERSEORDER>  (1) 
1
15
18
16
20
12
4
14
9
23
13
5
22
6
3
10
7
19
21
17
11
8
2

>  <PUBCHEM_MMFF94_PARTIAL_CHARGES>  (1) 
4
22 0.18
5 0.2
7 -0.2
8 -0.18

>  <PUBCHEM_EFFECTIVE_ROTOR_COUNT>  (1) 
4

>  <PUBCHEM_PHARMACOPHORE_FEATURES>  (1) 
4
1 6 hydrophobe
1 8 hydrophobe
3 1 2 4 hydrophobe
3 3 5 7 hydrophobe

>  <PUBCHEM_HEAVY_ATOM_COUNT>  (1) 
8

>  <PUBCHEM_ATOM_DEF_STEREO_COUNT>  (1) 
0

>  <PUBCHEM_ATOM_UDEF_STEREO_COUNT>  (1) 
0

>  <PUBCHEM_BOND_DEF_STEREO_COUNT>  (1) 
0

>  <PUBCHEM_BOND_UDEF_STEREO_COUNT>  (1) 
0

>  <PUBCHEM_ISOTOPIC_ATOM_COUNT>  (1) 
0

>  <PUBCHEM_COMPONENT_COUNT>  (1) 
1

>  <PUBCHEM_CACTVS_TAUTO_COUNT>  (1) 
1

>  <PUBCHEM_CONFORMER_ID>  (1) 
0000305200000001

>  <PUBCHEM_MMFF94_ENERGY>  (1) 
-2.5442

>  <PUBCHEM_FEATURE_SELFOVERLAP>  (1) 
20.342

>  <PUBCHEM_SHAPE_FINGERPRINT>  (1) 
11062470 55 18410293618281610089
12932764 1 15625929898680450509
14123238 8 17846778524805858716
14325111 11 18410855438690313541
177051 138 18410856542792327230
17834076 25 12324240559505344207
18342897 14 16271931506129763683
190213 19 18412261731321242540
20211469 26 18187082849480169733
20719005 15 18411136935400362502
21119208 17 14490191609116293922
21293036 1 16443063910908008357
22485316 2 18334008389255613043
23402539 116 18341324539916861741

>  <PUBCHEM_SHAPE_MULTIPOLES>  (1) 
164.64
8.63
0.85
0.62
0.87
0.03
0
-1.92
0.11
-0.06
0
0
0
0.01

>  <PUBCHEM_SHAPE_SELFOVERLAP>  (1) 
289.591

>  <PUBCHEM_SHAPE_VOLUME>  (1) 
107.8

>  <PUBCHEM_COORDINATE_TYPE>  (1) 
2
5
10

$$$$
