12398
     RDKit          3D

 17 16  0  0  0  0  0  0  0  0999 V2000
    0.0106    0.4314   -0.0688 C   0  0  0  0  0  0  0  0  0  0  0  0
   -1.2551   -0.4279   -0.0350 C   0  0  0  0  0  0  0  0  0  0  0  0
    1.2699   -0.4383   -0.0755 C   0  0  0  0  0  0  0  0  0  0  0  0
   -2.5475    0.3929    0.0039 C   0  0  0  0  0  0  0  0  0  0  0  0
    2.5375    0.4179   -0.0770 C   0  0  0  0  0  0  0  0  0  0  0  0
   -3.8126   -0.4663    0.0625 C   0  0  0  0  0  0  0  0  0  0  0  0
    3.7965   -0.4519   -0.0498 C   0  0  0  0  0  0  0  0  0  0  0  0
   -5.0737    0.4016    0.0258 C   0  0  0  0  0  0  0  0  0  0  0  0
    5.0622    0.4069   -0.0183 C   0  0  0  0  0  0  0  0  0  0  0  0
   -6.3388   -0.4589    0.0464 C   0  0  0  0  0  0  0  0  0  0  0  0
    6.3560   -0.4133   -0.0225 C   0  0  0  0  0  0  0  0  0  0  0  0
   -7.6331    0.3602    0.0341 C   0  0  0  0  0  0  0  0  0  0  0  0
    7.6558    0.3888    0.0937 C   0  0  0  0  0  0  0  0  0  0  0  0
   -8.9321   -0.4491    0.0314 C   0  0  0  0  0  0  0  0  0  0  0  0
    8.9137   -0.4775    0.0277 C   0  0  0  0  0  0  0  0  0  0  0  0
  -10.1843    0.4109   -0.0346 C   0  0  0  0  0  0  0  0  0  0  0  0
   10.1749    0.3727    0.0561 C   0  0  0  0  0  0  0  0  0  0  0  0
  1  2  1  0
  1  3  1  0
  2  4  1  0
  3  5  1  0
  4  6  1  0
  5  7  1  0
  6  8  1  0
  7  9  1  0
  8 10  1  0
  9 11  1  0
 10 12  1  0
 11 13  1  0
 12 14  1  0
 13 15  1  0
 14 16  1  0
 15 17  1  0
M  END
>  <PUBCHEM_COMPOUND_CID>  (1) 
12398

>  <PUBCHEM_CONFORMER_RMSD>  (1) 
1.4

>  <PUBCHEM_CONFORMER_DIVERSEORDER>  (1) 
1
13
22
2
18
32
26
20
8
19
10
17
12
29
31
6
5
15
14
11
3
23
27
28
33
16
4
24
9
25
21
30
7

>  <PUBCHEM_MMFF94_PARTIAL_CHARGES>  (1) 
0

>  <PUBCHEM_EFFECTIVE_ROTOR_COUNT>  (1) 
14

>  <PUBCHEM_PHARMACOPHORE_FEATURES>  (1) 
2
1 16 hydrophobe
1 17 hydrophobe

>  <PUBCHEM_HEAVY_ATOM_COUNT>  (1) 
17

>  <PUBCHEM_ATOM_DEF_STEREO_COUNT>  (1) 
0

>  <PUBCHEM_ATOM_UDEF_STEREO_COUNT>  (1) 
0

>  <PUBCHEM_BOND_DEF_STEREO_COUNT>  (1) 
0

>  <PUBCHEM_BOND_UDEF_STEREO_COUNT>  (1) 
0

>  <PUBCHEM_ISOTOPIC_ATOM_COUNT>  (1) 
0

>  <PUBCHEM_COMPONENT_COUNT>  (1) 
1

>  <PUBCHEM_CACTVS_TAUTO_COUNT>  (1) 
1

>  <PUBCHEM_CONFORMER_ID>  (1) 
0000306E00000001

>  <PUBCHEM_MMFF94_ENERGY>  (1) 
-5.839

>  <PUBCHEM_FEATURE_SELFOVERLAP>  (1) 
10.149

>  <PUBCHEM_SHAPE_FINGERPRINT>  (1) 
14123256 10 18410855460133462542
14251764 46 18410573985151464135
14251920 1 18410856555350129522
15510794 2 18412268332586412374
232437 2 18409448089545142922
23521765 1 18341895194640652646
23581129 1 18409448089539575815
33684 2 18410573985156725890
67123 10 18410855468718096389
8209 1 18410575088958046214

>  <PUBCHEM_SHAPE_MULTIPOLES>  (1) 
349.85
39.46
0.8
0.62
0.17
0.01
0
-1.61
0.89
0.01
0
0
0
0.05

>  <PUBCHEM_SHAPE_SELFOVERLAP>  (1) 
620.85

>  <PUBCHEM_SHAPE_VOLUME>  (1) 
228.4

>  <PUBCHEM_COORDINATE_TYPE>  (1) 
2
5
10

$$$$
