12426
     RDKit          3D

  9  8  0  0  0  0  0  0  0  0999 V2000
    0.0001   -0.0001    0.0002 Si  0  0  0  0  0  4  0  0  0  0  0  0
    0.5904    1.4126   -1.0828 C   0  0  0  0  0  0  0  0  0  0  0  0
   -1.4126    0.5906    1.0829 C   0  0  0  0  0  0  0  0  0  0  0  0
    1.4127   -0.5905    1.0828 C   0  0  0  0  0  0  0  0  0  0  0  0
   -0.5906   -1.4125   -1.0828 C   0  0  0  0  0  0  0  0  0  0  0  0
    1.1036    2.6402   -0.3416 C   0  0  0  0  0  0  0  0  0  0  0  0
   -2.6402    1.1036    0.3415 C   0  0  0  0  0  0  0  0  0  0  0  0
    2.6402   -1.1037    0.3414 C   0  0  0  0  0  0  0  0  0  0  0  0
   -1.1038   -2.6401   -0.3416 C   0  0  0  0  0  0  0  0  0  0  0  0
  1  2  1  0
  1  3  1  0
  1  4  1  0
  1  5  1  0
  2  6  1  0
  3  7  1  0
  4  8  1  0
  5  9  1  0
M  END
>  <PUBCHEM_COMPOUND_CID>  (1) 
12426

>  <PUBCHEM_CONFORMER_RMSD>  (1) 
0.6

>  <PUBCHEM_CONFORMER_DIVERSEORDER>  (1) 
1
8
7
5
6
2
9
3
4

>  <PUBCHEM_MMFF94_PARTIAL_CHARGES>  (1) 
5
1 0.32
2 -0.08
3 -0.08
4 -0.08
5 -0.08

>  <PUBCHEM_EFFECTIVE_ROTOR_COUNT>  (1) 
4

>  <PUBCHEM_PHARMACOPHORE_FEATURES>  (1) 
0

>  <PUBCHEM_HEAVY_ATOM_COUNT>  (1) 
9

>  <PUBCHEM_ATOM_DEF_STEREO_COUNT>  (1) 
0

>  <PUBCHEM_ATOM_UDEF_STEREO_COUNT>  (1) 
0

>  <PUBCHEM_BOND_DEF_STEREO_COUNT>  (1) 
0

>  <PUBCHEM_BOND_UDEF_STEREO_COUNT>  (1) 
0

>  <PUBCHEM_ISOTOPIC_ATOM_COUNT>  (1) 
0

>  <PUBCHEM_COMPONENT_COUNT>  (1) 
1

>  <PUBCHEM_CACTVS_TAUTO_COUNT>  (1) 
1

>  <PUBCHEM_CONFORMER_ID>  (1) 
0000308A00000001

>  <PUBCHEM_MMFF94_ENERGY>  (1) 
-5.7407

>  <PUBCHEM_FEATURE_SELFOVERLAP>  (1) 
0

>  <PUBCHEM_SHAPE_FINGERPRINT>  (1) 
10219947 1 18194405493968601993
13380536 167 18196092359448414979
137420 1 12759396668801187374
14993402 34 18338516343874157949
15219459 52 18410855464544520023
23211744 25 16249115896592298558
23419403 2 16183177909412131635
23552423 10 18048875491988731534
68250623 7 18193853753689990434

>  <PUBCHEM_SHAPE_MULTIPOLES>  (1) 
203.43
2.81
2.81
1.2
0
0
0
0
0.88
0
-0.88
0
0
-0.63

>  <PUBCHEM_SHAPE_SELFOVERLAP>  (1) 
344.906

>  <PUBCHEM_SHAPE_VOLUME>  (1) 
137.1

>  <PUBCHEM_COORDINATE_TYPE>  (1) 
2
5
10

$$$$
