12431
     RDKit          3D

 13 12  0  0  0  0  0  0  0  0999 V2000
   -2.6013    0.5052    2.6061 O   0  0  0  0  0  0  0  0  0  0  0  0
   -2.6008   -0.5054   -2.6065 O   0  0  0  0  0  0  0  0  0  0  0  0
    2.5484   -2.7014    0.4942 O   0  0  0  0  0  0  0  0  0  0  0  0
    2.5480    2.7017   -0.4940 O   0  0  0  0  0  0  0  0  0  0  0  0
    0.0216    0.0000    0.0000 N   0  0  0  0  0  0  0  0  0  0  0  0
   -0.8572    0.7668    0.9779 C   0  0  0  0  0  0  0  0  0  0  0  0
   -0.8569   -0.7668   -0.9779 C   0  0  0  0  0  0  0  0  0  0  0  0
    0.9002   -0.9778    0.7670 C   0  0  0  0  0  0  0  0  0  0  0  0
    0.9002    0.9778   -0.7669 C   0  0  0  0  0  0  0  0  0  0  0  0
   -1.7523   -0.2084    1.7169 C   0  0  0  0  0  0  0  0  0  0  0  0
   -1.7520    0.2082   -1.7170 C   0  0  0  0  0  0  0  0  0  0  0  0
    1.7512   -1.7608   -0.2132 C   0  0  0  0  0  0  0  0  0  0  0  0
    1.7510    1.7610    0.2133 C   0  0  0  0  0  0  0  0  0  0  0  0
  1 10  1  0
  2 11  1  0
  3 12  1  0
  4 13  1  0
  5  6  1  0
  5  7  1  0
  5  8  1  0
  5  9  1  0
  6 10  1  0
  7 11  1  0
  8 12  1  0
  9 13  1  0
M  CHG  1   5   1
M  END
>  <PUBCHEM_COMPOUND_CID>  (1) 
12431

>  <PUBCHEM_CONFORMER_RMSD>  (1) 
0.8

>  <PUBCHEM_CONFORMER_DIVERSEORDER>  (1) 
2
1

>  <PUBCHEM_MMFF94_PARTIAL_CHARGES>  (1) 
17
1 -0.68
10 0.28
11 0.28
12 0.28
13 0.28
2 -0.68
3 -0.68
30 0.4
31 0.4
32 0.4
33 0.4
4 -0.68
5 -1.01
6 0.5
7 0.5
8 0.5
9 0.5

>  <PUBCHEM_EFFECTIVE_ROTOR_COUNT>  (1) 
8

>  <PUBCHEM_PHARMACOPHORE_FEATURES>  (1) 
9
1 1 acceptor
1 1 donor
1 2 acceptor
1 2 donor
1 3 acceptor
1 3 donor
1 4 acceptor
1 4 donor
1 5 cation

>  <PUBCHEM_HEAVY_ATOM_COUNT>  (1) 
13

>  <PUBCHEM_ATOM_DEF_STEREO_COUNT>  (1) 
0

>  <PUBCHEM_ATOM_UDEF_STEREO_COUNT>  (1) 
0

>  <PUBCHEM_BOND_DEF_STEREO_COUNT>  (1) 
0

>  <PUBCHEM_BOND_UDEF_STEREO_COUNT>  (1) 
0

>  <PUBCHEM_ISOTOPIC_ATOM_COUNT>  (1) 
0

>  <PUBCHEM_COMPONENT_COUNT>  (1) 
1

>  <PUBCHEM_CACTVS_TAUTO_COUNT>  (1) 
1

>  <PUBCHEM_CONFORMER_ID>  (1) 
0000308F00000002

>  <PUBCHEM_MMFF94_ENERGY>  (1) 
49.7163

>  <PUBCHEM_FEATURE_SELFOVERLAP>  (1) 
45.674

>  <PUBCHEM_SHAPE_FINGERPRINT>  (1) 
12423570 1 12007679393732160687
12716301 132 15719669870887871025
13024252 1 14277637491737206164
13380536 261 17631443634655215853
13898156 1 17847061081787267335
14128692 85 17842240797062691943
14817 1 10152454577742477583
16945 1 18409167710169857280
19873495 37 17556333813523953048
20379382 53 18189922900873230530
20511035 2 16033808812687891678
20671657 53 17979883100188352190
20711978 78 18262535731076916440
21061003 4 18043548126461520842
21524375 3 17556900019052490552
21930827 45 16081364112085611421
22112679 90 17632861927403787776
228727 97 17630321076364960829
23211744 41 16736599452154634557
23419403 2 17822583719564730938
23526113 38 17605260797002185858
298252 57 17322067523929710996
68250623 7 17556620747398802767
68419 9 17561084717362686025
76951 1 16982333836973239061
81228 2 17324912665470712944

>  <PUBCHEM_SHAPE_MULTIPOLES>  (1) 
239.08
3.53
2.32
2.23
0.13
0
0
0
0
-3.17
0
3.01
0
-0.91

>  <PUBCHEM_SHAPE_SELFOVERLAP>  (1) 
441.306

>  <PUBCHEM_SHAPE_VOLUME>  (1) 
152.4

>  <PUBCHEM_COORDINATE_TYPE>  (1) 
2
5
10

$$$$
