12439
     RDKit          3D

 11 11  0  0  0  0  0  0  0  0999 V2000
    2.2400   -0.0004   -1.2028 O   0  0  0  0  0  0  0  0  0  0  0  0
    2.4027    0.0009    1.0643 O   0  0  0  0  0  0  0  0  0  0  0  0
    0.2472    0.0002    0.0263 C   0  0  0  0  0  0  0  0  0  0  0  0
   -0.4507    1.2080    0.0162 C   0  0  0  0  0  0  0  0  0  0  0  0
   -0.4499   -1.2081    0.0163 C   0  0  0  0  0  0  0  0  0  0  0  0
   -1.8454    1.2075   -0.0039 C   0  0  0  0  0  0  0  0  0  0  0  0
   -1.8447   -1.2084   -0.0038 C   0  0  0  0  0  0  0  0  0  0  0  0
   -2.5425   -0.0006   -0.0140 C   0  0  0  0  0  0  0  0  0  0  0  0
    0.2678    2.5181    0.0267 C   0  0  0  0  0  0  0  0  0  0  0  0
    0.2694   -2.5178    0.0272 C   0  0  0  0  0  0  0  0  0  0  0  0
    1.7062    0.0007    0.0474 C   0  0  0  0  0  0  0  0  0  0  0  0
  1 11  1  0
  2 11  2  0
  3  4  2  0
  3  5  1  0
  3 11  1  0
  4  6  1  0
  4  9  1  0
  5  7  2  0
  5 10  1  0
  6  8  2  0
  7  8  1  0
M  END
>  <PUBCHEM_COMPOUND_CID>  (1) 
12439

>  <PUBCHEM_CONFORMER_RMSD>  (1) 
0.4

>  <PUBCHEM_CONFORMER_DIVERSEORDER>  (1) 
1
2
3

>  <PUBCHEM_MMFF94_PARTIAL_CHARGES>  (1) 
15
1 -0.65
10 0.14
11 0.63
12 0.15
13 0.15
14 0.15
2 -0.57
21 0.5
3 0.09
4 -0.14
5 -0.14
6 -0.15
7 -0.15
8 -0.15
9 0.14

>  <PUBCHEM_EFFECTIVE_ROTOR_COUNT>  (1) 
1

>  <PUBCHEM_PHARMACOPHORE_FEATURES>  (1) 
4
1 1 acceptor
1 2 acceptor
3 1 2 11 anion
6 3 4 5 6 7 8 rings

>  <PUBCHEM_HEAVY_ATOM_COUNT>  (1) 
11

>  <PUBCHEM_ATOM_DEF_STEREO_COUNT>  (1) 
0

>  <PUBCHEM_ATOM_UDEF_STEREO_COUNT>  (1) 
0

>  <PUBCHEM_BOND_DEF_STEREO_COUNT>  (1) 
0

>  <PUBCHEM_BOND_UDEF_STEREO_COUNT>  (1) 
0

>  <PUBCHEM_ISOTOPIC_ATOM_COUNT>  (1) 
0

>  <PUBCHEM_COMPONENT_COUNT>  (1) 
1

>  <PUBCHEM_CACTVS_TAUTO_COUNT>  (1) 
1

>  <PUBCHEM_CONFORMER_ID>  (1) 
0000309700000001

>  <PUBCHEM_MMFF94_ENERGY>  (1) 
34.6653

>  <PUBCHEM_FEATURE_SELFOVERLAP>  (1) 
20.355

>  <PUBCHEM_SHAPE_FINGERPRINT>  (1) 
12423570 1 15448923601948933501
12524768 44 17908429395694855895
16945 1 18410575085090333835
18185500 45 18409727331381264359
193761 8 17618220611683083513
21040471 1 18266459810788136385
2334 1 17978228593297529833
23552423 10 18045509607760333551
23559900 14 18199756856602092502
241688 4 18196102040230834379
2748010 2 18411698785583589351
5084963 1 17987809621315175987

>  <PUBCHEM_SHAPE_MULTIPOLES>  (1) 
214.64
2.93
2.37
0.78
0.17
0
-0.04
0
0.01
-0.13
0.03
0.39
0
0

>  <PUBCHEM_SHAPE_SELFOVERLAP>  (1) 
449.743

>  <PUBCHEM_SHAPE_VOLUME>  (1) 
122.9

>  <PUBCHEM_COORDINATE_TYPE>  (1) 
2
5
10

$$$$
