12454
     RDKit          3D

 27 30  0  0  0  0  0  0  0  0999 V2000
    5.2475    3.9870    1.3593 Cl  0  0  0  0  0  0  0  0  0  0  0  0
    4.1147   -1.5702   -1.4040 S   0  0  0  0  0  0  0  0  0  0  0  0
   -8.9070   -0.2517    0.9762 O   0  0  0  0  0  0  0  0  0  0  0  0
   -2.7614    0.6648   -0.7446 N   0  0  0  0  0  0  0  0  0  0  0  0
   -5.6121    0.8113   -0.2859 N   0  0  0  0  0  0  0  0  0  0  0  0
   -3.3220    0.5624    0.6083 C   0  0  0  0  0  0  0  0  0  0  0  0
   -3.6302    1.4832   -1.5992 C   0  0  0  0  0  0  0  0  0  0  0  0
   -4.7439   -0.0080    0.5686 C   0  0  0  0  0  0  0  0  0  0  0  0
   -5.0516    0.9115   -1.6389 C   0  0  0  0  0  0  0  0  0  0  0  0
   -1.4069    1.2126   -0.7053 C   0  0  0  0  0  0  0  0  0  0  0  0
   -6.9672    0.2652   -0.3243 C   0  0  0  0  0  0  0  0  0  0  0  0
   -0.4860    0.2914    0.0939 C   0  0  0  0  0  0  0  0  0  0  0  0
   -7.5875    0.2702    1.0637 C   0  0  0  0  0  0  0  0  0  0  0  0
    0.9096    0.8273    0.1271 C   0  0  0  0  0  0  0  0  0  0  0  0
    2.0076    0.0496    0.1962 C   0  0  0  0  0  0  0  0  0  0  0  0
    3.3497    0.6822    0.0876 C   0  0  0  0  0  0  0  0  0  0  0  0
    1.8452   -1.4284    0.2431 C   0  0  0  0  0  0  0  0  0  0  0  0
    4.3731    0.0136   -0.6108 C   0  0  0  0  0  0  0  0  0  0  0  0
    2.7628   -2.2454   -0.4445 C   0  0  0  0  0  0  0  0  0  0  0  0
    3.6434    1.9110    0.7045 C   0  0  0  0  0  0  0  0  0  0  0  0
    0.8271   -2.0401    0.9955 C   0  0  0  0  0  0  0  0  0  0  0  0
    5.6450    0.5964   -0.7157 C   0  0  0  0  0  0  0  0  0  0  0  0
    2.6245   -3.6409   -0.4038 C   0  0  0  0  0  0  0  0  0  0  0  0
    4.9142    2.4789    0.6000 C   0  0  0  0  0  0  0  0  0  0  0  0
    0.7024   -3.4298    1.0349 C   0  0  0  0  0  0  0  0  0  0  0  0
    5.9123    1.8246   -0.1136 C   0  0  0  0  0  0  0  0  0  0  0  0
    1.5969   -4.2289    0.3318 C   0  0  0  0  0  0  0  0  0  0  0  0
  1 24  1  0
  2 18  1  0
  2 19  1  0
  3 13  1  0
  4  6  1  0
  4  7  1  0
  4 10  1  0
  5  8  1  0
  5  9  1  0
  5 11  1  0
  6  8  1  0
  7  9  1  0
 10 12  1  0
 11 13  1  0
 12 14  1  0
 14 15  2  0
 15 16  1  0
 15 17  1  0
 16 18  2  0
 16 20  1  0
 17 19  2  0
 17 21  1  0
 18 22  1  0
 19 23  1  0
 20 24  2  0
 21 25  2  0
 22 26  2  0
 23 27  2  0
 24 26  1  0
 25 27  1  0
M  END
>  <PUBCHEM_COMPOUND_CID>  (1) 
12454

>  <PUBCHEM_CONFORMER_RMSD>  (1) 
0.8

>  <PUBCHEM_CONFORMER_DIVERSEORDER>  (1) 
1
69
46
57
68
62
26
40
43
64
38
36
53
30
51
47
45
56
63
18
33
28
66
59
21
42
54
14
58
55
31
2
39
7
29
24
4
3
34
60
49
17
48
15
27
25
10
67
52
35
11
65
19
22
41
32
16
61
5
12
44
13
37
6
9
8
50
20
23

>  <PUBCHEM_MMFF94_PARTIAL_CHARGES>  (1) 
36
1 -0.18
10 0.27
11 0.27
12 0.14
13 0.28
14 -0.29
15 -0.06
16 0.03
17 0.03
18 0.1
19 0.1
2 -0.2
20 -0.15
21 -0.15
22 -0.15
23 -0.15
24 0.18
25 -0.15
26 -0.15
27 -0.15
3 -0.68
4 -0.81
44 0.15
45 0.4
46 0.15
47 0.15
48 0.15
49 0.15
5 -0.81
50 0.15
51 0.15
52 0.15
6 0.27
7 0.27
8 0.27
9 0.27

>  <PUBCHEM_EFFECTIVE_ROTOR_COUNT>  (1) 
6.4

>  <PUBCHEM_PHARMACOPHORE_FEATURES>  (1) 
8
1 3 acceptor
1 3 donor
1 4 cation
1 5 cation
6 16 18 20 22 24 26 rings
6 17 19 21 23 25 27 rings
6 2 15 16 17 18 19 rings
6 4 5 6 7 8 9 rings

>  <PUBCHEM_HEAVY_ATOM_COUNT>  (1) 
27

>  <PUBCHEM_ATOM_DEF_STEREO_COUNT>  (1) 
0

>  <PUBCHEM_ATOM_UDEF_STEREO_COUNT>  (1) 
0

>  <PUBCHEM_BOND_DEF_STEREO_COUNT>  (1) 
0

>  <PUBCHEM_BOND_UDEF_STEREO_COUNT>  (1) 
1

>  <PUBCHEM_ISOTOPIC_ATOM_COUNT>  (1) 
0

>  <PUBCHEM_COMPONENT_COUNT>  (1) 
1

>  <PUBCHEM_CACTVS_TAUTO_COUNT>  (1) 
1

>  <PUBCHEM_CONFORMER_ID>  (1) 
000030A600000001

>  <PUBCHEM_MMFF94_ENERGY>  (1) 
79.0395

>  <PUBCHEM_FEATURE_SELFOVERLAP>  (1) 
40.627

>  <PUBCHEM_SHAPE_FINGERPRINT>  (1) 
10074138 170 17752472429229084818
10165383 225 18334863844643151356
10319688 140 18268431235243227967
10411042 1 17907582424651893078
10693767 8 17915744176868939870
10835480 77 18188763951974351949
11181472 205 17916027846800726297
11421498 54 17561086847866899586
11475781 23 16661469711914041055
12166972 35 11025796492218819375
12596602 18 18060703905658864257
12730499 353 18408323267928130318
12788726 201 17131274558851864105
13034934 17 18189065329095925514
13533116 47 18271525304461192347
13955234 65 18338791217871600890
14068700 686 18187078404374298109
14461889 52 17894355492688757395
15183329 4 12247688162545049909
15537594 2 18272926112292355543
18608769 82 18261396685087999307
19319366 153 18343574153423583094
19427546 62 18339360893975948452
1979834 28 18259704514474353764
21033648 29 18195518414859401072
21033650 10 15432013336752946309
21049683 118 18121756556523375360
21344244 181 17988374676135681710
21521721 280 18341332287684806233
21623969 137 18260832588077161731
22149856 69 18188226308121056841
22224240 67 18336543919183498833
22956985 138 17098319919072219706
23516275 137 17559701506583462775
23522609 53 17274555295091484473
23559900 14 17830154832396166435
239999 70 18272088241166059398
3178227 256 18411413991393796122
335352 9 18411989053619215902
4073 2 18339927121168583107
4093350 32 17632865191811113023
4340502 62 18408321094748486294
437795 51 18411425016020976135
484989 97 18336561464552787802
5109719 28 18337673113315076441
54076057 127 18202289095366535359
54076057 255 16415478285480920177
5758199 1 18412545448571887073
621550 34 18261384525302264084
6669772 16 18412260636864679454
70251023 43 17844259423734912310
7399639 24 18187633687520757124

>  <PUBCHEM_SHAPE_MULTIPOLES>  (1) 
545.54
18.6
4.2
1.28
40.83
3.23
-0.21
-11.45
1.62
-8.41
1.33
0.6
-0.21
2.41

>  <PUBCHEM_SHAPE_SELFOVERLAP>  (1) 
1143.403

>  <PUBCHEM_SHAPE_VOLUME>  (1) 
309.6

>  <PUBCHEM_COORDINATE_TYPE>  (1) 
2
5
10

$$$$
