12455
     RDKit          3D

 21 22  0  0  0  0  0  0  0  0999 V2000
    5.6640    0.1639    0.3640 O   0  0  0  0  0  0  0  0  0  0  0  0
   -6.3066   -0.2069   -0.0180 O   0  0  0  0  0  0  0  0  0  0  0  0
    0.1079   -0.5466    0.1598 C   0  0  0  0  0  0  0  0  0  0  0  0
   -0.7505    0.5042    0.1832 C   0  0  0  0  0  0  0  0  0  0  0  0
   -0.3237   -2.0000    0.1312 C   0  0  0  0  0  0  0  0  0  0  0  0
   -0.3220    1.9526    0.3183 C   0  0  0  0  0  0  0  0  0  0  0  0
    1.5770   -0.3577    0.2134 C   0  0  0  0  0  0  0  0  0  0  0  0
   -2.2196    0.3151    0.1296 C   0  0  0  0  0  0  0  0  0  0  0  0
   -0.4915   -2.5251   -1.2889 C   0  0  0  0  0  0  0  0  0  0  0  0
   -0.0692    2.6089   -1.0329 C   0  0  0  0  0  0  0  0  0  0  0  0
    2.2035   -0.3292    1.4440 C   0  0  0  0  0  0  0  0  0  0  0  0
    2.2779   -0.2167   -0.9682 C   0  0  0  0  0  0  0  0  0  0  0  0
   -2.9195    0.1729    1.3116 C   0  0  0  0  0  0  0  0  0  0  0  0
   -2.8469    0.2878   -1.1005 C   0  0  0  0  0  0  0  0  0  0  0  0
    3.5862   -0.1526    1.4949 C   0  0  0  0  0  0  0  0  0  0  0  0
    3.6607   -0.0400   -0.9173 C   0  0  0  0  0  0  0  0  0  0  0  0
    4.3147   -0.0079    0.3143 C   0  0  0  0  0  0  0  0  0  0  0  0
   -4.3022   -0.0039    1.2617 C   0  0  0  0  0  0  0  0  0  0  0  0
   -4.2297    0.1110   -1.1504 C   0  0  0  0  0  0  0  0  0  0  0  0
   -4.9573   -0.0350    0.0306 C   0  0  0  0  0  0  0  0  0  0  0  0
    6.3469    0.3055   -0.8807 C   0  0  0  0  0  0  0  0  0  0  0  0
  1 17  1  0
  1 21  1  0
  2 20  1  0
  3  4  2  0
  3  5  1  0
  3  7  1  0
  4  6  1  0
  4  8  1  0
  5  9  1  0
  6 10  1  0
  7 11  2  0
  7 12  1  0
  8 13  2  0
  8 14  1  0
 11 15  1  0
 12 16  2  0
 13 18  1  0
 14 19  2  0
 15 17  2  0
 16 17  1  0
 18 20  2  0
 19 20  1  0
M  END
>  <PUBCHEM_COMPOUND_CID>  (1) 
12455

>  <PUBCHEM_CONFORMER_RMSD>  (1) 
0.8

>  <PUBCHEM_CONFORMER_DIVERSEORDER>  (1) 
1
2

>  <PUBCHEM_MMFF94_PARTIAL_CHARGES>  (1) 
28
1 -0.36
11 -0.15
12 -0.15
13 -0.15
14 -0.15
15 -0.15
16 -0.15
17 0.08
18 -0.15
19 -0.15
2 -0.53
20 0.08
21 0.28
3 -0.17
32 0.15
33 0.15
34 0.15
35 0.15
36 0.15
37 0.15
38 0.15
39 0.15
4 -0.17
40 0.45
5 0.14
6 0.14
7 0.03
8 0.03

>  <PUBCHEM_EFFECTIVE_ROTOR_COUNT>  (1) 
5

>  <PUBCHEM_PHARMACOPHORE_FEATURES>  (1) 
6
1 1 acceptor
1 10 hydrophobe
1 2 donor
1 9 hydrophobe
6 7 11 12 15 16 17 rings
6 8 13 14 18 19 20 rings

>  <PUBCHEM_HEAVY_ATOM_COUNT>  (1) 
21

>  <PUBCHEM_ATOM_DEF_STEREO_COUNT>  (1) 
0

>  <PUBCHEM_ATOM_UDEF_STEREO_COUNT>  (1) 
0

>  <PUBCHEM_BOND_DEF_STEREO_COUNT>  (1) 
0

>  <PUBCHEM_BOND_UDEF_STEREO_COUNT>  (1) 
1

>  <PUBCHEM_ISOTOPIC_ATOM_COUNT>  (1) 
0

>  <PUBCHEM_COMPONENT_COUNT>  (1) 
1

>  <PUBCHEM_CACTVS_TAUTO_COUNT>  (1) 
2

>  <PUBCHEM_CONFORMER_ID>  (1) 
000030A700000001

>  <PUBCHEM_MMFF94_ENERGY>  (1) 
72.5576

>  <PUBCHEM_FEATURE_SELFOVERLAP>  (1) 
30.446

>  <PUBCHEM_SHAPE_FINGERPRINT>  (1) 
10906281 52 18188502263758804185
12011746 2 18341894095155463793
12107183 9 15361882069617225552
12236239 1 17676204663302410762
12633257 1 18059557114830718802
12969540 114 18334842944245293671
13140716 1 18267583692028682208
13533116 47 17749100051104807946
13583140 156 17385445452934474705
14787075 74 17458628951126805138
14955137 171 18341621455242992129
15209289 33 17703789219414947347
1601671 61 18337953390100964533
1813 80 18343028774097330989
18186145 218 17417801829550757010
18222031 100 18411414020820400001
19489759 90 16153426142777471589
200 152 17240199924055942240
21033648 29 18338216220308424744
23402539 116 18342735221798599926
23536379 177 15123793972236155874
23559900 14 16844999217174036450
23569943 247 17558849285928998870
26918003 58 16515687744897190688
34797466 226 17168436994850035470
34934 24 18189057662964423628
3545911 37 16008750203686839569
4214541 1 15410897349127464651
465052 167 18114471136442910219
57003041 33 18408884010073098317
59755656 520 18131912663223980431
67856867 119 15141258679219187662
7495541 125 17531537580745897817
77779 3 15554445201930040707

>  <PUBCHEM_SHAPE_MULTIPOLES>  (1) 
420.43
11.99
1.7
1.39
3.2
0.05
0.12
0.5
-0.23
-0.28
-0.65
0.08
-0.08
-0.18

>  <PUBCHEM_SHAPE_SELFOVERLAP>  (1) 
889.825

>  <PUBCHEM_SHAPE_VOLUME>  (1) 
237.3

>  <PUBCHEM_COORDINATE_TYPE>  (1) 
2
5
10

$$$$
