1246
     RDKit          3D

 26 31  0  0  1  0  0  0  0  0999 V2000
    2.3986    0.2650   -1.4195 O   0  0  0  0  0  0  0  0  0  0  0  0
   -1.1943    2.8350   -0.1816 O   0  0  0  0  0  0  0  0  0  0  0  0
    3.5530    2.3049   -0.0458 O   0  0  0  0  0  0  0  0  0  0  0  0
    3.8018   -2.1874   -0.7019 O   0  0  0  0  0  0  0  0  0  0  0  0
   -2.4786    0.0941   -0.0144 N   0  0  0  0  0  0  0  0  0  0  0  0
    0.2119    0.9011   -0.6044 C   0  0  0  0  0  0  0  0  0  0  0  0
   -0.5511    1.7167    0.4455 C   0  0  0  0  0  0  0  0  0  0  0  0
   -1.6412    0.7462    1.0288 C   0  0  0  0  0  0  0  0  0  0  0  0
    1.5682    1.4255   -1.1088 C   0  0  0  0  0  0  0  0  0  0  0  0
   -0.7306    0.5043   -1.7718 C   0  0  0  0  0  0  0  0  0  0  0  0
    0.7435   -0.3431    0.0367 C   0  0  0  0  0  0  0  0  0  0  0  0
    0.3912    2.3266    1.5028 C   0  0  0  0  0  0  0  0  0  0  0  0
   -0.9989   -0.4422    1.8135 C   0  0  0  0  0  0  0  0  0  0  0  0
   -2.2227    0.5126   -1.3902 C   0  0  0  0  0  0  0  0  0  0  0  0
    0.1893   -1.0361    1.0996 C   0  0  0  0  0  0  0  0  0  0  0  0
   -3.9018    0.1597    0.3073 C   0  0  0  0  0  0  0  0  0  0  0  0
    1.4983    3.1456    0.8401 C   0  0  0  0  0  0  0  0  0  0  0  0
   -4.7064   -0.7031   -0.6099 C   0  0  0  0  0  0  0  0  0  0  0  0
    2.3223    2.2744   -0.0808 C   0  0  0  0  0  0  0  0  0  0  0  0
    1.9571   -0.6855   -0.5283 C   0  0  0  0  0  0  0  0  0  0  0  0
   -4.4432   -2.1747   -0.6330 C   0  0  0  0  0  0  0  0  0  0  0  0
   -5.7074   -1.6454   -0.0219 C   0  0  0  0  0  0  0  0  0  0  0  0
    0.8552   -2.1881    1.5198 C   0  0  0  0  0  0  0  0  0  0  0  0
    2.6223   -1.8263   -0.1404 C   0  0  0  0  0  0  0  0  0  0  0  0
    2.0510   -2.5898    0.8873 C   0  0  0  0  0  0  0  0  0  0  0  0
    4.4124   -3.3902   -0.2286 C   0  0  0  0  0  0  0  0  0  0  0  0
  1  9  1  0
  1 20  1  0
  2  7  1  0
  3 19  2  0
  4 24  1  0
  4 26  1  0
  5  8  1  0
  5 14  1  0
  5 16  1  0
  6  7  1  0
  6  9  1  0
  6 10  1  0
  6 11  1  0
  7  8  1  0
  7 12  1  0
  8 13  1  0
  9 19  1  0
 10 14  1  0
 11 15  2  0
 11 20  1  0
 12 17  1  0
 13 15  1  0
 15 23  1  0
 16 18  1  0
 17 19  1  0
 18 21  1  0
 18 22  1  0
 20 24  2  0
 21 22  1  0
 23 25  2  0
 24 25  1  0
M  END
>  <PUBCHEM_COMPOUND_CID>  (1) 
1246

>  <PUBCHEM_CONFORMER_RMSD>  (1) 
0.8

>  <PUBCHEM_CONFORMER_DIVERSEORDER>  (1) 
1
19
10
8
7
13
6
18
3
5
15
2
4
17
14
11
16
12
9

>  <PUBCHEM_MMFF94_PARTIAL_CHARGES>  (1) 
32
1 -0.36
11 -0.14
13 0.14
14 0.27
15 -0.14
16 0.37
17 0.06
18 -0.19
19 0.45
2 -0.68
20 0.08
21 -0.2
22 -0.2
23 -0.15
24 0.08
25 -0.15
26 0.28
3 -0.57
4 -0.36
41 0.1
42 0.4
43 0.1
44 0.1
45 0.1
46 0.1
47 0.15
48 0.15
5 -0.81
6 0.14
7 0.28
8 0.27
9 0.34

>  <PUBCHEM_EFFECTIVE_ROTOR_COUNT>  (1) 
5

>  <PUBCHEM_PHARMACOPHORE_FEATURES>  (1) 
11
1 1 acceptor
1 2 acceptor
1 2 donor
1 3 acceptor
1 4 acceptor
1 5 cation
5 1 6 9 11 20 rings
6 11 15 20 23 24 25 rings
6 5 6 7 8 10 14 rings
6 6 7 8 11 13 15 rings
6 6 7 9 12 17 19 rings

>  <PUBCHEM_HEAVY_ATOM_COUNT>  (1) 
26

>  <PUBCHEM_ATOM_DEF_STEREO_COUNT>  (1) 
0

>  <PUBCHEM_ATOM_UDEF_STEREO_COUNT>  (1) 
4

>  <PUBCHEM_BOND_DEF_STEREO_COUNT>  (1) 
0

>  <PUBCHEM_BOND_UDEF_STEREO_COUNT>  (1) 
0

>  <PUBCHEM_ISOTOPIC_ATOM_COUNT>  (1) 
0

>  <PUBCHEM_COMPONENT_COUNT>  (1) 
1

>  <PUBCHEM_CACTVS_TAUTO_COUNT>  (1) 
3

>  <PUBCHEM_CONFORMER_ID>  (1) 
000004DE00000001

>  <PUBCHEM_MMFF94_ENERGY>  (1) 
107.452

>  <PUBCHEM_FEATURE_SELFOVERLAP>  (1) 
57.669

>  <PUBCHEM_SHAPE_FINGERPRINT>  (1) 
10863032 1 18270405009138439677
10948715 1 18051407671589184961
1100329 8 18123755244649768817
11578080 2 18115009828215809621
12107183 9 18127985109680120777
12293681 25 17896334686396315371
12553582 1 18265606590282421403
13009979 54 17632028446108420067
13140716 1 17768516541161054552
13533116 47 18341043134372277951
13911987 19 17901687173161418908
14787075 74 18408609149989582090
16945 1 18043559241741956400
17980427 26 17699268169246328077
1813 80 17988926613264850254
200 152 18188780413771451298
20567600 347 18046051929117629931
20600515 1 17629771062747949360
20691752 17 16733260171312188177
21421861 104 18408600349290662089
22112679 90 18057338183811250121
22393880 68 17967803926081542575
229495 10 16159902030348007925
23379529 103 18341900662478010119
23419403 2 17318685245984866736
23559900 14 18339348683146243849
238 59 18262528116247755931
25222932 49 17410771776512443087
2748010 2 17751668629909386490
3286 77 18408605842226487087
3323516 105 18336545036043553823
404807 78 16170262144354861511
4340502 62 18193837270043157011
46194498 28 17168987958314709751
463206 1 18190467064820138691
54040823 5 17988369289982005653
59755656 215 18336549434063840830
70251023 43 18336551521238936427
7471813 234 18340487768444559626
7970288 3 18269837514910296423

>  <PUBCHEM_SHAPE_MULTIPOLES>  (1) 
506.61
7.67
3.7
1.47
8.66
0.07
0.12
6.62
-1.82
-3.91
0.64
0.01
-0.09
-0.06

>  <PUBCHEM_SHAPE_SELFOVERLAP>  (1) 
1137.442

>  <PUBCHEM_SHAPE_VOLUME>  (1) 
264.6

>  <PUBCHEM_COORDINATE_TYPE>  (1) 
2
5
10

$$$$
