12466
     RDKit          3D

 11 11  0  0  0  0  0  0  0  0999 V2000
   -2.8625    0.9744   -0.0001 Cl  0  0  0  0  0  0  0  0  0  0  0  0
   -0.3034    2.8342   -0.0003 Cl  0  0  0  0  0  0  0  0  0  0  0  0
    2.5657    1.5244    0.0005 Cl  0  0  0  0  0  0  0  0  0  0  0  0
    2.8166   -1.6538   -0.0007 Cl  0  0  0  0  0  0  0  0  0  0  0  0
   -2.2536   -1.9553   -0.0003 N   0  0  0  0  0  0  0  0  0  0  0  0
   -1.1282   -1.0991    0.0004 C   0  0  0  0  0  0  0  0  0  0  0  0
   -1.2639    0.2892    0.0001 C   0  0  0  0  0  0  0  0  0  0  0  0
    0.1418   -1.6755    0.0005 C   0  0  0  0  0  0  0  0  0  0  0  0
   -0.1295    1.1010   -0.0001 C   0  0  0  0  0  0  0  0  0  0  0  0
    1.2763   -0.8639    0.0002 C   0  0  0  0  0  0  0  0  0  0  0  0
    1.1407    0.5244   -0.0001 C   0  0  0  0  0  0  0  0  0  0  0  0
  1  7  1  0
  2  9  1  0
  3 11  1  0
  4 10  1  0
  5  6  1  0
  6  7  2  0
  6  8  1  0
  7  9  1  0
  8 10  2  0
  9 11  2  0
 10 11  1  0
M  END
>  <PUBCHEM_COMPOUND_CID>  (1) 
12466

>  <PUBCHEM_CONFORMER_RMSD>  (1) 
0.4

>  <PUBCHEM_CONFORMER_DIVERSEORDER>  (1) 
1

>  <PUBCHEM_MMFF94_PARTIAL_CHARGES>  (1) 
14
1 -0.18
10 0.18
11 0.18
12 0.15
13 0.4
14 0.4
2 -0.18
3 -0.18
4 -0.18
5 -0.9
6 0.1
7 0.18
8 -0.15
9 0.18

>  <PUBCHEM_EFFECTIVE_ROTOR_COUNT>  (1) 
0

>  <PUBCHEM_PHARMACOPHORE_FEATURES>  (1) 
3
1 5 cation
1 5 donor
6 6 7 8 9 10 11 rings

>  <PUBCHEM_HEAVY_ATOM_COUNT>  (1) 
11

>  <PUBCHEM_ATOM_DEF_STEREO_COUNT>  (1) 
0

>  <PUBCHEM_ATOM_UDEF_STEREO_COUNT>  (1) 
0

>  <PUBCHEM_BOND_DEF_STEREO_COUNT>  (1) 
0

>  <PUBCHEM_BOND_UDEF_STEREO_COUNT>  (1) 
0

>  <PUBCHEM_ISOTOPIC_ATOM_COUNT>  (1) 
0

>  <PUBCHEM_COMPONENT_COUNT>  (1) 
1

>  <PUBCHEM_CACTVS_TAUTO_COUNT>  (1) 
1

>  <PUBCHEM_CONFORMER_ID>  (1) 
000030B200000001

>  <PUBCHEM_MMFF94_ENERGY>  (1) 
36.7017

>  <PUBCHEM_FEATURE_SELFOVERLAP>  (1) 
15.223

>  <PUBCHEM_SHAPE_FINGERPRINT>  (1) 
10967382 1 18410855425779083364
11206711 2 18121499317472186885
12423570 1 8331363898611203075
12524768 44 18341055137702829830
13140716 1 18410293592527845410
13380535 21 18338247040840084136
16945 1 18194402195233323366
193761 8 18410855490219306628
21040471 1 18410856589741646305
21501502 16 18411135861394891878
2334 1 18338797926256907138
23402539 116 17981306911769114294
23526114 1 18411701027720295070
23552423 10 18333452066631992734
241688 4 18410292501616545714
2748010 2 18411419539689779998
5084963 1 17914888730028650528
53812653 166 18271242858073065905
66348 1 18411982485348318336
68250623 7 18410858788791457526

>  <PUBCHEM_SHAPE_MULTIPOLES>  (1) 
228.87
3.75
2.81
0.62
0.44
0.86
0
-0.46
0
-0.13
0
0.02
0.03
0

>  <PUBCHEM_SHAPE_SELFOVERLAP>  (1) 
443.614

>  <PUBCHEM_SHAPE_VOLUME>  (1) 
139.5

>  <PUBCHEM_COORDINATE_TYPE>  (1) 
2
5
10

$$$$
