12461
     RDKit          3D

 14 16  0  0  0  0  0  0  0  0999 V2000
    0.0531   -2.7583    0.0569 O   0  0  0  0  0  0  0  0  0  0  0  0
   -0.7230    0.6102   -0.0031 C   0  0  0  0  0  0  0  0  0  0  0  0
   -1.1437   -0.6639    0.0253 C   0  0  0  0  0  0  0  0  0  0  0  0
   -1.6334    1.7871   -0.0141 C   0  0  0  0  0  0  0  0  0  0  0  0
   -2.5624   -1.0978    0.0166 C   0  0  0  0  0  0  0  0  0  0  0  0
   -3.0779    1.3799    0.3252 C   0  0  0  0  0  0  0  0  0  0  0  0
   -3.4906    0.0686   -0.3579 C   0  0  0  0  0  0  0  0  0  0  0  0
    0.7281    0.6469   -0.0112 C   0  0  0  0  0  0  0  0  0  0  0  0
    1.2043   -0.6614    0.0124 C   0  0  0  0  0  0  0  0  0  0  0  0
    0.0416   -1.5459    0.0349 C   0  0  0  0  0  0  0  0  0  0  0  0
    1.6182    1.7056   -0.0387 C   0  0  0  0  0  0  0  0  0  0  0  0
    2.5486   -0.9771    0.0106 C   0  0  0  0  0  0  0  0  0  0  0  0
    2.9883    1.4179   -0.0409 C   0  0  0  0  0  0  0  0  0  0  0  0
    3.4489    0.0883   -0.0161 C   0  0  0  0  0  0  0  0  0  0  0  0
  1 10  2  0
  2  3  2  0
  2  4  1  0
  2  8  1  0
  3  5  1  0
  3 10  1  0
  4  6  1  0
  5  7  1  0
  6  7  1  0
  8  9  2  0
  8 11  1  0
  9 10  1  0
  9 12  1  0
 11 13  2  0
 12 14  2  0
 13 14  1  0
M  END
>  <PUBCHEM_COMPOUND_CID>  (1) 
12461

>  <PUBCHEM_CONFORMER_RMSD>  (1) 
0.4

>  <PUBCHEM_CONFORMER_DIVERSEORDER>  (1) 
1

>  <PUBCHEM_MMFF94_PARTIAL_CHARGES>  (1) 
16
1 -0.57
10 0.47
11 -0.15
12 -0.15
13 -0.15
14 -0.15
2 -0.17
23 0.15
24 0.15
25 0.15
26 0.15
3 -0.12
4 0.14
5 0.14
8 0.03
9 0.09

>  <PUBCHEM_EFFECTIVE_ROTOR_COUNT>  (1) 
0.8

>  <PUBCHEM_PHARMACOPHORE_FEATURES>  (1) 
4
1 1 acceptor
5 2 3 8 9 10 rings
6 2 3 4 5 6 7 rings
6 8 9 11 12 13 14 rings

>  <PUBCHEM_HEAVY_ATOM_COUNT>  (1) 
14

>  <PUBCHEM_ATOM_DEF_STEREO_COUNT>  (1) 
0

>  <PUBCHEM_ATOM_UDEF_STEREO_COUNT>  (1) 
0

>  <PUBCHEM_BOND_DEF_STEREO_COUNT>  (1) 
0

>  <PUBCHEM_BOND_UDEF_STEREO_COUNT>  (1) 
0

>  <PUBCHEM_ISOTOPIC_ATOM_COUNT>  (1) 
0

>  <PUBCHEM_COMPONENT_COUNT>  (1) 
1

>  <PUBCHEM_CACTVS_TAUTO_COUNT>  (1) 
3

>  <PUBCHEM_CONFORMER_ID>  (1) 
000030AD00000001

>  <PUBCHEM_MMFF94_ENERGY>  (1) 
27.1249

>  <PUBCHEM_FEATURE_SELFOVERLAP>  (1) 
20.454

>  <PUBCHEM_SHAPE_FINGERPRINT>  (1) 
10608611 8 18411134749003968248
10967382 1 18410575067488484487
11132069 177 18411412899659868864
11471102 20 18338230462646305293
12491281 212 18410022026061791953
13140716 1 18410575050308843129
13380535 76 18410572885650626226
13897977 150 18409728448078101093
14144814 61 18410011039609243200
14325111 11 18410856568240552992
14614273 12 18260821558474811669
15196674 1 18410573989467692845
15309172 13 18410018740506509169
15442244 35 18195245516536039578
15536298 74 18343582928336940316
15775835 57 18411143523606108841
16945 1 18266177219183258301
18186145 218 18341335513268366908
193761 8 17545601150023570788
200 152 18202270408411931181
20510252 161 18271811279946593833
20645476 183 17823716324300820286
21267235 1 18411146835036404607
21501502 16 18410855447248567145
21524375 3 18410571790470843522
2334 1 18410575127634078249
23402539 116 18270388507494222198
23402655 69 18269542876527931021
23463225 33 18263077734728114050
23559900 14 18271251621046169772
238 59 15515005406447144133
25 1 18336546006284189125
2748010 2 18409733979800754117
335352 9 18122626041764752469
5084963 1 18202563981699467850
5104073 3 18411136935120762657
528886 8 18410569582815286641
53812653 166 18341609300443456920
54173680 148 18120657100044916618
69090 78 18343014527547885015
7364860 26 18125722288020699391
81228 2 17905036311396283611

>  <PUBCHEM_SHAPE_MULTIPOLES>  (1) 
282.24
5.32
2.19
0.63
0.28
0.57
0
-1.36
-0.13
0.04
0.06
0.06
-0.03
-0.11

>  <PUBCHEM_SHAPE_SELFOVERLAP>  (1) 
629.952

>  <PUBCHEM_SHAPE_VOLUME>  (1) 
151.5

>  <PUBCHEM_COORDINATE_TYPE>  (1) 
2
5
10

$$$$
