12478
     RDKit          3D

 20 21  0  0  0  0  0  0  0  0999 V2000
   -4.6870    0.7844    1.2563 O   0  0  0  0  0  0  0  0  0  0  0  0
   -1.7462   -1.4486   -2.0251 O   0  0  0  0  0  0  0  0  0  0  0  0
    2.7440   -1.9009    1.0296 O   0  0  0  0  0  0  0  0  0  0  0  0
    2.1227    2.3015   -1.1825 O   0  0  0  0  0  0  0  0  0  0  0  0
    3.7491    0.5486    0.2151 O   0  0  0  0  0  0  0  0  0  0  0  0
   -2.5502   -0.5181   -0.0381 N   0  0  0  0  0  0  0  0  0  0  0  0
   -2.3335    0.1878    1.2306 C   0  0  0  0  0  0  0  0  0  0  0  0
   -3.9316   -0.9391   -0.2660 C   0  0  0  0  0  0  0  0  0  0  0  0
   -3.3612    1.3010    1.3964 C   0  0  0  0  0  0  0  0  0  0  0  0
   -4.8851    0.2262   -0.0454 C   0  0  0  0  0  0  0  0  0  0  0  0
   -1.5606   -0.8567   -0.9627 C   0  0  0  0  0  0  0  0  0  0  0  0
   -0.1717   -0.4896   -0.6560 C   0  0  0  0  0  0  0  0  0  0  0  0
    0.3261    0.7438   -1.0680 C   0  0  0  0  0  0  0  0  0  0  0  0
    0.6396   -1.3764    0.0471 C   0  0  0  0  0  0  0  0  0  0  0  0
    1.9578   -1.0274    0.3403 C   0  0  0  0  0  0  0  0  0  0  0  0
    1.6445    1.0927   -0.7748 C   0  0  0  0  0  0  0  0  0  0  0  0
    2.4604    0.2072   -0.0707 C   0  0  0  0  0  0  0  0  0  0  0  0
    3.5000   -2.8363    0.2630 C   0  0  0  0  0  0  0  0  0  0  0  0
    1.9694    3.3964   -0.2816 C   0  0  0  0  0  0  0  0  0  0  0  0
    4.1135    0.6036    1.5923 C   0  0  0  0  0  0  0  0  0  0  0  0
  1  9  1  0
  1 10  1  0
  2 11  2  0
  3 15  1  0
  3 18  1  0
  4 16  1  0
  4 19  1  0
  5 17  1  0
  5 20  1  0
  6  7  1  0
  6  8  1  0
  6 11  1  0
  7  9  1  0
  8 10  1  0
 11 12  1  0
 12 13  2  0
 12 14  1  0
 13 16  1  0
 14 15  2  0
 15 17  1  0
 16 17  2  0
M  END
>  <PUBCHEM_COMPOUND_CID>  (1) 
12478

>  <PUBCHEM_CONFORMER_RMSD>  (1) 
0.8

>  <PUBCHEM_CONFORMER_DIVERSEORDER>  (1) 
1
4
8
5
6
2
7
3

>  <PUBCHEM_MMFF94_PARTIAL_CHARGES>  (1) 
22
1 -0.56
10 0.28
11 0.54
12 0.09
13 -0.15
14 -0.15
15 0.08
16 0.08
17 0.08
18 0.28
19 0.28
2 -0.57
20 0.28
29 0.15
3 -0.36
30 0.15
4 -0.36
5 -0.36
6 -0.66
7 0.3
8 0.3
9 0.28

>  <PUBCHEM_EFFECTIVE_ROTOR_COUNT>  (1) 
6.2

>  <PUBCHEM_PHARMACOPHORE_FEATURES>  (1) 
7
1 1 acceptor
1 2 acceptor
1 3 acceptor
1 4 acceptor
1 5 acceptor
6 1 6 7 8 9 10 rings
6 12 13 14 15 16 17 rings

>  <PUBCHEM_HEAVY_ATOM_COUNT>  (1) 
20

>  <PUBCHEM_ATOM_DEF_STEREO_COUNT>  (1) 
0

>  <PUBCHEM_ATOM_UDEF_STEREO_COUNT>  (1) 
0

>  <PUBCHEM_BOND_DEF_STEREO_COUNT>  (1) 
0

>  <PUBCHEM_BOND_UDEF_STEREO_COUNT>  (1) 
0

>  <PUBCHEM_ISOTOPIC_ATOM_COUNT>  (1) 
0

>  <PUBCHEM_COMPONENT_COUNT>  (1) 
1

>  <PUBCHEM_CACTVS_TAUTO_COUNT>  (1) 
1

>  <PUBCHEM_CONFORMER_ID>  (1) 
000030BE00000001

>  <PUBCHEM_MMFF94_ENERGY>  (1) 
86.2856

>  <PUBCHEM_FEATURE_SELFOVERLAP>  (1) 
35.533

>  <PUBCHEM_SHAPE_FINGERPRINT>  (1) 
10366900 7 17822301214007028173
10498660 4 16845022221293258617
10646746 165 17561368387178662825
11471102 22 17894347786963579007
11578080 2 17911761835171929145
11640471 11 18201164359348116617
11725454 13 13900471764473875411
12236239 1 18272086115251952735
12251169 10 18335422374199225983
12633257 1 17748825249774032560
12644460 14 17822293530690512756
12670546 56 18130499769259510843
13140716 1 17899406769397453696
13257819 101 15410604917985172456
13533116 47 18260556649535186195
13583140 156 18261117413307685347
13965767 371 17842018601420111049
14178342 30 18267290109946021602
14252887 29 17968089798893559818
14739800 52 17274238644173890314
14787075 74 17331691652819592719
14790565 3 18190189060593513908
15209294 21 18130777988956849648
15475509 8 18269575922164795988
15527383 91 18339642218597168474
16945 1 18261098725731030766
17357990 137 18130241384026866701
17492 89 18411142454734953723
1813 80 18194973941744426278
192875 21 18272084951569139929
20233049 118 17561368387168133032
20715895 44 17982173315018168897
20739085 24 18337955584866026702
21041028 32 18190738631490835132
21665062 11 18337965518645522881
23557571 272 15195283187924910831
23559900 14 18409731746534259683
2748010 2 18045475562102957902
2838139 119 16127796600271054928
4409770 3 15963178397717331583
474 4 18265050425971080672
633830 44 18195253432451196436
7097593 13 18411136922273023479
7615 1 18201145659318869239
77492 1 18343581871690791151
81228 2 17395267158978491956
9971528 1 18409448042579934674
9981440 41 17762612189457890872

>  <PUBCHEM_SHAPE_MULTIPOLES>  (1) 
377.26
8.56
2.61
1.42
6.26
0.96
-0.03
0.07
-3.3
-3.13
0.3
0.3
0.13
-1.46

>  <PUBCHEM_SHAPE_SELFOVERLAP>  (1) 
785.833

>  <PUBCHEM_SHAPE_VOLUME>  (1) 
215.4

>  <PUBCHEM_COORDINATE_TYPE>  (1) 
2
5
10

$$$$
