1247
     RDKit          3D

 27 30  0  0  1  0  0  0  0  0999 V2000
    2.4681    1.8584   -0.0150 O   0  0  0  0  0  0  0  0  0  0  0  0
   -2.2608    1.1459   -0.3513 O   0  0  0  0  0  0  0  0  0  0  0  0
    3.2166   -1.5425    1.2982 O   0  0  0  0  0  0  0  0  0  0  0  0
    0.7355   -2.6380   -0.1701 O   0  0  0  0  0  0  0  0  0  0  0  0
   -0.0425   -4.7852   -0.2283 O   0  0  0  0  0  0  0  0  0  0  0  0
    4.0778    0.0462   -0.3341 C   0  0  0  0  0  0  0  0  0  0  0  0
    3.0044   -1.0085   -0.0094 C   0  0  0  0  0  0  0  0  0  0  0  0
    1.6190   -0.4173   -0.1029 C   0  0  0  0  0  0  0  0  0  0  0  0
    0.1373    1.5108   -0.2083 C   0  0  0  0  0  0  0  0  0  0  0  0
   -2.4916    2.5325   -0.0634 C   0  0  0  0  0  0  0  0  0  0  0  0
    1.4298    0.9648   -0.0946 C   0  0  0  0  0  0  0  0  0  0  0  0
    3.7300    1.3352    0.4301 C   0  0  0  0  0  0  0  0  0  0  0  0
   -0.0334    3.0098   -0.2206 C   0  0  0  0  0  0  0  0  0  0  0  0
   -1.4152    3.4058   -0.7094 C   0  0  0  0  0  0  0  0  0  0  0  0
   -0.9834    0.6530   -0.2667 C   0  0  0  0  0  0  0  0  0  0  0  0
   -0.8280   -0.7517   -0.2636 C   0  0  0  0  0  0  0  0  0  0  0  0
    0.4834   -1.2438   -0.1816 C   0  0  0  0  0  0  0  0  0  0  0  0
    5.4829   -0.4760   -0.0299 C   0  0  0  0  0  0  0  0  0  0  0  0
   -2.5975    2.7255    1.4564 C   0  0  0  0  0  0  0  0  0  0  0  0
   -3.8510    2.8706   -0.6925 C   0  0  0  0  0  0  0  0  0  0  0  0
   -1.9265   -1.7474   -0.3319 C   0  0  0  0  0  0  0  0  0  0  0  0
    4.7473    2.4530    0.2148 C   0  0  0  0  0  0  0  0  0  0  0  0
   -3.3691   -1.3335   -0.4147 C   0  0  0  0  0  0  0  0  0  0  0  0
   -1.6365   -3.0571   -0.3183 C   0  0  0  0  0  0  0  0  0  0  0  0
   -0.2700   -3.5811   -0.2370 C   0  0  0  0  0  0  0  0  0  0  0  0
   -3.9873   -1.1857    0.9697 C   0  0  0  0  0  0  0  0  0  0  0  0
   -5.4394   -0.7438    0.8746 C   0  0  0  0  0  0  0  0  0  0  0  0
  1 11  1  0
  1 12  1  0
  2 10  1  0
  2 15  1  0
  3  7  1  0
  4 17  1  0
  4 25  1  0
  5 25  2  0
  6  7  1  0
  6 12  1  0
  6 18  1  0
  7  8  1  0
  8 11  2  0
  8 17  1  0
  9 11  1  0
  9 13  1  0
  9 15  2  0
 10 14  1  0
 10 19  1  0
 10 20  1  0
 12 22  1  0
 13 14  1  0
 15 16  1  0
 16 17  2  0
 16 21  1  0
 21 23  1  0
 21 24  2  0
 23 26  1  0
 24 25  1  0
 26 27  1  0
M  END
>  <PUBCHEM_COMPOUND_CID>  (1) 
1247

>  <PUBCHEM_CONFORMER_RMSD>  (1) 
0.8

>  <PUBCHEM_CONFORMER_DIVERSEORDER>  (1) 
5
11
12
9
2
10
1
13
3
7
4
6
8

>  <PUBCHEM_MMFF94_PARTIAL_CHARGES>  (1) 
21
1 -0.36
10 0.28
11 0.08
12 0.28
13 0.14
15 0.08
16 0.03
17 0.08
2 -0.36
21 -0.17
23 0.14
24 -0.14
25 0.71
3 -0.68
4 -0.23
47 0.4
5 -0.57
50 0.15
7 0.42
8 -0.14
9 -0.14

>  <PUBCHEM_EFFECTIVE_ROTOR_COUNT>  (1) 
3.6

>  <PUBCHEM_PHARMACOPHORE_FEATURES>  (1) 
11
1 1 acceptor
1 2 acceptor
1 27 hydrophobe
1 3 acceptor
1 3 donor
1 5 acceptor
3 10 19 20 hydrophobe
6 1 6 7 8 11 12 rings
6 2 9 10 13 14 15 rings
6 4 16 17 21 24 25 rings
6 8 9 11 15 16 17 rings

>  <PUBCHEM_HEAVY_ATOM_COUNT>  (1) 
27

>  <PUBCHEM_ATOM_DEF_STEREO_COUNT>  (1) 
0

>  <PUBCHEM_ATOM_UDEF_STEREO_COUNT>  (1) 
3

>  <PUBCHEM_BOND_DEF_STEREO_COUNT>  (1) 
0

>  <PUBCHEM_BOND_UDEF_STEREO_COUNT>  (1) 
0

>  <PUBCHEM_ISOTOPIC_ATOM_COUNT>  (1) 
0

>  <PUBCHEM_COMPONENT_COUNT>  (1) 
1

>  <PUBCHEM_CACTVS_TAUTO_COUNT>  (1) 
1

>  <PUBCHEM_CONFORMER_ID>  (1) 
000004DF00000005

>  <PUBCHEM_MMFF94_ENERGY>  (1) 
91.7271

>  <PUBCHEM_FEATURE_SELFOVERLAP>  (1) 
55.899

>  <PUBCHEM_SHAPE_FINGERPRINT>  (1) 
10006869 2 18337665326755211243
10319926 262 18198034007970436192
10411042 1 17473540730351297574
10616163 171 18336546010457850008
10967382 1 18194117649339042071
1100329 8 17978231882947345865
11014199 57 17618505823149960082
11680986 33 17978794498109784287
12390115 104 18271260338953970232
12422481 6 18266202573008444129
12553582 1 18121773091461759110
12788726 201 18269820068625623199
13140716 1 18339080367606696736
13583140 156 16951129443748615176
138480 1 17042321641086172238
14081887 123 18125703828699381624
14223421 5 18265901242086439887
14790565 3 18411427227982342333
14955137 171 18119544360192195139
15042514 8 18336265639535920588
15196674 1 18410291411233292700
16752209 62 18339911671411648366
16945 1 18121210145671319470
19591789 44 18339365167009121390
20028762 73 18201720699885472847
20510252 161 18343020012258181761
20600515 1 18126297577758001709
20739085 24 18263948621057381689
21236236 1 18411700959116758860
21267235 1 18409174320335736814
21421861 104 18187914132448647698
22182313 1 18270131097488575823
2334 1 18410290328347334460
23557571 272 18200603600456062948
23559900 14 17978504239439481190
238 59 17324326668296007965
2748010 2 18410575059046425125
283562 15 18413102883918837591
3091708 16 9342710288981935302
335352 9 18339363079718631278
34934 24 18193833967108123062
350125 39 18411142428563508736
352729 6 18267015055496655124
469060 322 18337972120579586353
5104073 3 18411411792323451576
7097593 13 17545890781380813267
9709674 26 17905606597554487175

>  <PUBCHEM_SHAPE_MULTIPOLES>  (1) 
526.3
8.72
5.02
0.88
4.4
1.78
-0.2
-1.86
-1.79
-2.61
0.51
-0.45
-0.2
0.2

>  <PUBCHEM_SHAPE_SELFOVERLAP>  (1) 
1138.28

>  <PUBCHEM_SHAPE_VOLUME>  (1) 
288.8

>  <PUBCHEM_COORDINATE_TYPE>  (1) 
2
5
10

$$$$
