12483
     RDKit          3D

 16 16  0  0  0  0  0  0  0  0999 V2000
   -3.5755   -0.2697    0.0002 O   0  0  0  0  0  0  0  0  0  0  0  0
    3.5756    0.2695    0.0000 O   0  0  0  0  0  0  0  0  0  0  0  0
   -3.1144    1.9856    0.0007 O   0  0  0  0  0  0  0  0  0  0  0  0
    3.1141   -1.9856    0.0007 O   0  0  0  0  0  0  0  0  0  0  0  0
   -1.3377    0.3957    0.0008 C   0  0  0  0  0  0  0  0  0  0  0  0
    1.3376   -0.3953   -0.0002 C   0  0  0  0  0  0  0  0  0  0  0  0
   -0.3264    1.3564    0.0004 C   0  0  0  0  0  0  0  0  0  0  0  0
    1.0112    0.9608   -0.0003 C   0  0  0  0  0  0  0  0  0  0  0  0
   -1.0113   -0.9605    0.0008 C   0  0  0  0  0  0  0  0  0  0  0  0
    0.3264   -1.3559    0.0004 C   0  0  0  0  0  0  0  0  0  0  0  0
   -2.7319    0.8078    0.0009 C   0  0  0  0  0  0  0  0  0  0  0  0
    2.7321   -0.8078    0.0006 C   0  0  0  0  0  0  0  0  0  0  0  0
   -4.9800    0.0077   -0.0010 C   0  0  0  0  0  0  0  0  0  0  0  0
    4.9800   -0.0082   -0.0007 C   0  0  0  0  0  0  0  0  0  0  0  0
   -5.7411   -1.3008   -0.0018 C   0  0  0  0  0  0  0  0  0  0  0  0
    5.7414    1.3003   -0.0013 C   0  0  0  0  0  0  0  0  0  0  0  0
  1 11  1  0
  1 13  1  0
  2 12  1  0
  2 14  1  0
  3 11  2  0
  4 12  2  0
  5  7  2  0
  5  9  1  0
  5 11  1  0
  6  8  2  0
  6 10  1  0
  6 12  1  0
  7  8  1  0
  9 10  2  0
 13 15  1  0
 14 16  1  0
M  END
>  <PUBCHEM_COMPOUND_CID>  (1) 
12483

>  <PUBCHEM_CONFORMER_RMSD>  (1) 
0.8

>  <PUBCHEM_CONFORMER_DIVERSEORDER>  (1) 
1
8
15
3
6
2
9
4
5
16
11
14
10
13
7
12

>  <PUBCHEM_MMFF94_PARTIAL_CHARGES>  (1) 
18
1 -0.43
10 -0.15
11 0.63
12 0.63
13 0.28
14 0.28
17 0.15
18 0.15
19 0.15
2 -0.43
20 0.15
3 -0.57
4 -0.57
5 0.09
6 0.09
7 -0.15
8 -0.15
9 -0.15

>  <PUBCHEM_EFFECTIVE_ROTOR_COUNT>  (1) 
6

>  <PUBCHEM_PHARMACOPHORE_FEATURES>  (1) 
3
1 3 acceptor
1 4 acceptor
6 5 6 7 8 9 10 rings

>  <PUBCHEM_HEAVY_ATOM_COUNT>  (1) 
16

>  <PUBCHEM_ATOM_DEF_STEREO_COUNT>  (1) 
0

>  <PUBCHEM_ATOM_UDEF_STEREO_COUNT>  (1) 
0

>  <PUBCHEM_BOND_DEF_STEREO_COUNT>  (1) 
0

>  <PUBCHEM_BOND_UDEF_STEREO_COUNT>  (1) 
0

>  <PUBCHEM_ISOTOPIC_ATOM_COUNT>  (1) 
0

>  <PUBCHEM_COMPONENT_COUNT>  (1) 
1

>  <PUBCHEM_CACTVS_TAUTO_COUNT>  (1) 
1

>  <PUBCHEM_CONFORMER_ID>  (1) 
000030C300000001

>  <PUBCHEM_MMFF94_ENERGY>  (1) 
37.5773

>  <PUBCHEM_FEATURE_SELFOVERLAP>  (1) 
15.223

>  <PUBCHEM_SHAPE_FINGERPRINT>  (1) 
11401426 45 18334011692327952877
11806522 49 18408604764611669087
12032990 46 18340208488301560735
13862211 1 18409444791031404114
14123238 8 18410575088958046232
1420 363 18410860970634752947
14251718 22 18333730238694190359
14251732 16 18338797917629841555
14787075 74 18410574010921287665
15196674 1 18338517430495608837
17834072 33 18413387661271757332
18522853 276 18411420600947602673
19489759 90 14996277016162136901
200 152 18343579638745354477
20645477 70 18271528581400413678
21267235 1 18411427206348971022
221490 88 18118408569371061827
23272321 79 18410294730752272104
23402539 116 18261106379410107967
23402655 69 18341605972002038605
23559900 14 18337948021170383161
34797466 226 17346044471577036836
3545911 37 18411702093425877470
42788 4 18410855464449528844
4340502 62 16805324396505282770
4463277 17 18412546505254966089
449060 50 18410293610240295332
474229 33 18411138052065849527
5104073 3 18338517417610707872

>  <PUBCHEM_SHAPE_MULTIPOLES>  (1) 
305.8
11.93
1.68
0.59
0
0
0
0
-0.01
0
0
0
0
0

>  <PUBCHEM_SHAPE_SELFOVERLAP>  (1) 
626.83

>  <PUBCHEM_SHAPE_VOLUME>  (1) 
177

>  <PUBCHEM_COORDINATE_TYPE>  (1) 
2
5
10

$$$$
