12497
     RDKit          3D

 11 11  0  0  0  0  0  0  0  0999 V2000
    0.7318    0.0097   -0.9642 O   0  0  0  0  0  0  0  0  0  0  0  0
    1.4763   -0.0048    1.2524 O   0  0  0  0  0  0  0  0  0  0  0  0
    3.0833    0.0113   -0.5758 C   0  0  0  0  0  0  0  0  0  0  0  0
   -0.5504    0.0044   -0.5075 C   0  0  0  0  0  0  0  0  0  0  0  0
    1.7074    0.0048    0.0509 C   0  0  0  0  0  0  0  0  0  0  0  0
    4.1856   -0.0152    0.4685 C   0  0  0  0  0  0  0  0  0  0  0  0
   -1.2096    1.2097   -0.2657 C   0  0  0  0  0  0  0  0  0  0  0  0
   -1.2048   -1.2062   -0.2805 C   0  0  0  0  0  0  0  0  0  0  0  0
   -2.5232    1.2043    0.2034 C   0  0  0  0  0  0  0  0  0  0  0  0
   -2.5186   -1.2117    0.1883 C   0  0  0  0  0  0  0  0  0  0  0  0
   -3.1777   -0.0064    0.4302 C   0  0  0  0  0  0  0  0  0  0  0  0
  1  4  1  0
  1  5  1  0
  2  5  2  0
  3  5  1  0
  3  6  1  0
  4  7  2  0
  4  8  1  0
  7  9  1  0
  8 10  2  0
  9 11  2  0
 10 11  1  0
M  END
>  <PUBCHEM_COMPOUND_CID>  (1) 
12497

>  <PUBCHEM_CONFORMER_RMSD>  (1) 
0.6

>  <PUBCHEM_CONFORMER_DIVERSEORDER>  (1) 
1
18
13
15
6
17
19
8
5
16
7
11
4
9
12
2
10
3
14

>  <PUBCHEM_MMFF94_PARTIAL_CHARGES>  (1) 
15
1 -0.23
10 -0.15
11 -0.15
17 0.15
18 0.15
19 0.15
2 -0.57
20 0.15
21 0.15
3 0.06
4 0.08
5 0.66
7 -0.15
8 -0.15
9 -0.15

>  <PUBCHEM_EFFECTIVE_ROTOR_COUNT>  (1) 
3

>  <PUBCHEM_PHARMACOPHORE_FEATURES>  (1) 
3
1 2 acceptor
1 6 hydrophobe
6 4 7 8 9 10 11 rings

>  <PUBCHEM_HEAVY_ATOM_COUNT>  (1) 
11

>  <PUBCHEM_ATOM_DEF_STEREO_COUNT>  (1) 
0

>  <PUBCHEM_ATOM_UDEF_STEREO_COUNT>  (1) 
0

>  <PUBCHEM_BOND_DEF_STEREO_COUNT>  (1) 
0

>  <PUBCHEM_BOND_UDEF_STEREO_COUNT>  (1) 
0

>  <PUBCHEM_ISOTOPIC_ATOM_COUNT>  (1) 
0

>  <PUBCHEM_COMPONENT_COUNT>  (1) 
1

>  <PUBCHEM_CACTVS_TAUTO_COUNT>  (1) 
1

>  <PUBCHEM_CONFORMER_ID>  (1) 
000030D100000001

>  <PUBCHEM_MMFF94_ENERGY>  (1) 
26.0256

>  <PUBCHEM_FEATURE_SELFOVERLAP>  (1) 
15.223

>  <PUBCHEM_SHAPE_FINGERPRINT>  (1) 
10857977 72 18342458175065065929
11062470 55 10592041354094751490
124424 183 17703505511118422698
12932764 1 17603578625868645908
13024252 1 14779265302597631317
14325111 11 18412547578690666198
15219456 202 17916876715850365230
15775835 57 18336830797038936569
190213 19 17894912927635151254
19422 9 17967820452793586550
20279233 1 17704073984405100686
20645464 45 17918278649126249359
20871998 184 18272096053727433959
23402539 116 18273206509342823655
369184 2 18272930514348782375
75552 356 18408325505611249303

>  <PUBCHEM_SHAPE_MULTIPOLES>  (1) 
214.64
6.15
1.16
0.89
4.99
0
-0.06
0.02
-1.06
-1.03
0.03
0.3
0
-0.01

>  <PUBCHEM_SHAPE_SELFOVERLAP>  (1) 
437.963

>  <PUBCHEM_SHAPE_VOLUME>  (1) 
123.3

>  <PUBCHEM_COORDINATE_TYPE>  (1) 
2
5
10

$$$$
