12492
     RDKit          3D

 22 23  0  0  1  0  0  0  0  0999 V2000
   -4.7526    1.8644    1.1048 Cl  0  0  0  0  0  0  0  0  0  0  0  0
   -4.4736   -0.9674   -0.4331 S   0  0  0  0  0  0  0  0  0  0  0  0
    0.7290   -0.8912   -1.4974 O   0  0  0  0  0  0  0  0  0  0  0  0
   -5.6443   -0.1076   -0.5006 O   0  0  0  0  0  0  0  0  0  0  0  0
   -4.1255   -1.8142   -1.5629 O   0  0  0  0  0  0  0  0  0  0  0  0
    2.9626   -0.1012   -0.0733 N   0  0  0  0  0  0  0  0  0  0  0  0
    1.6726    0.3015    0.2541 N   0  0  0  0  0  0  0  0  0  0  0  0
   -4.5740   -1.9335    0.9712 N   0  0  0  0  0  0  0  0  0  0  0  0
    3.7942    1.0860   -0.3743 C   0  0  0  0  0  0  0  0  0  0  0  0
    3.5235   -0.9192    1.0258 C   0  0  0  0  0  0  0  0  0  0  0  0
    5.2459    0.6864   -0.6895 C   0  0  0  0  0  0  0  0  0  0  0  0
    4.9727   -1.3400    0.7267 C   0  0  0  0  0  0  0  0  0  0  0  0
    5.8541   -0.1363    0.4348 C   0  0  0  0  0  0  0  0  0  0  0  0
    3.2375    1.8631   -1.5778 C   0  0  0  0  0  0  0  0  0  0  0  0
    2.6907   -2.1909    1.2521 C   0  0  0  0  0  0  0  0  0  0  0  0
    0.6268   -0.1505   -0.5225 C   0  0  0  0  0  0  0  0  0  0  0  0
   -0.7186    0.3402   -0.1243 C   0  0  0  0  0  0  0  0  0  0  0  0
   -1.8233   -0.4305   -0.4208 C   0  0  0  0  0  0  0  0  0  0  0  0
   -0.8180    1.5499    0.5301 C   0  0  0  0  0  0  0  0  0  0  0  0
   -3.0855    0.0299   -0.0457 C   0  0  0  0  0  0  0  0  0  0  0  0
   -2.0802    2.0104    0.9054 C   0  0  0  0  0  0  0  0  0  0  0  0
   -3.2140    1.2505    0.6174 C   0  0  0  0  0  0  0  0  0  0  0  0
  1 22  1  0
  2  4  2  0
  2  5  2  0
  2  8  1  0
  2 20  1  0
  3 16  2  0
  6  7  1  0
  6  9  1  0
  6 10  1  0
  7 16  1  0
  9 11  1  0
  9 14  1  0
 10 12  1  0
 10 15  1  0
 11 13  1  0
 12 13  1  0
 16 17  1  0
 17 18  2  0
 17 19  1  0
 18 20  1  0
 19 21  2  0
 20 22  2  0
 21 22  1  0
M  END
>  <PUBCHEM_COMPOUND_CID>  (1) 
12492

>  <PUBCHEM_CONFORMER_RMSD>  (1) 
0.8

>  <PUBCHEM_CONFORMER_DIVERSEORDER>  (1) 
9
7
13
33
18
3
30
4
6
1
10
21
8
2
11
19
15
12
23
17
5
14
22
16
28
20
34
29
26
27
25
32
24
31

>  <PUBCHEM_MMFF94_PARTIAL_CHARGES>  (1) 
23
1 -0.18
10 0.27
16 0.54
17 0.09
18 -0.15
19 -0.15
2 1.45
20 -0.01
21 -0.15
22 0.18
3 -0.57
37 0.37
38 0.15
39 0.15
4 -0.65
40 0.15
41 0.42
42 0.42
5 -0.65
6 -0.55
7 -0.42
8 -0.98
9 0.27

>  <PUBCHEM_EFFECTIVE_ROTOR_COUNT>  (1) 
5.2

>  <PUBCHEM_PHARMACOPHORE_FEATURES>  (1) 
7
1 3 acceptor
1 4 acceptor
1 5 acceptor
1 7 donor
1 8 donor
6 17 18 19 20 21 22 rings
6 6 9 10 11 12 13 rings

>  <PUBCHEM_HEAVY_ATOM_COUNT>  (1) 
22

>  <PUBCHEM_ATOM_DEF_STEREO_COUNT>  (1) 
2

>  <PUBCHEM_ATOM_UDEF_STEREO_COUNT>  (1) 
0

>  <PUBCHEM_BOND_DEF_STEREO_COUNT>  (1) 
0

>  <PUBCHEM_BOND_UDEF_STEREO_COUNT>  (1) 
0

>  <PUBCHEM_ISOTOPIC_ATOM_COUNT>  (1) 
0

>  <PUBCHEM_COMPONENT_COUNT>  (1) 
1

>  <PUBCHEM_CACTVS_TAUTO_COUNT>  (1) 
2

>  <PUBCHEM_CONFORMER_ID>  (1) 
000030CC00000009

>  <PUBCHEM_MMFF94_ENERGY>  (1) 
24.5446

>  <PUBCHEM_FEATURE_SELFOVERLAP>  (1) 
35.538

>  <PUBCHEM_SHAPE_FINGERPRINT>  (1) 
10062212 137 18341895199394841741
10366900 7 17458071452188670728
10912923 1 18408886230771747920
11045515 52 17894344488772250213
11315181 36 18334296487040232728
12107183 9 17616248083512140536
12236239 1 18411700976713398340
12403259 415 16558742417233736920
12596602 18 18343862217375946328
12616971 3 18187655690632932749
12670546 56 18410289212104373148
12788726 201 18272656723348269681
12839892 36 18059568057869805782
13167823 11 18408603651745868418
13533116 47 18334852797127435802
13583140 156 17967819366172154973
13631057 29 18116718606655644371
13760787 19 18412265004001932713
14251764 18 18342741811143523721
14341114 176 18337397015636543434
14341114 328 18411421674430847280
14849402 71 18337109086110931864
17349148 13 18410015454772138294
17834072 33 18335419071532866666
17844677 252 17561082522703320992
17857418 61 18335414664674966010
17980427 23 18412832382536687221
18222031 100 17703501194702722589
18927931 339 18202285818680768727
19050596 39 18410858732935647448
19377110 9 18411146839452535857
200 152 18261107482578470809
20511986 3 18336814330277059997
20645477 70 17313376808410151658
21033648 29 15194993908417844635
21054139 6 18334852861842257754
21065198 48 18337952294857482312
21709351 56 18259983751962649892
23402539 116 18341890796937046117
23557571 272 17203338796909091565
23559900 14 18113895013270923552
312423 11 18408895026875254588
3633792 109 18040703741778638063
4098825 35 17822280281164434359
474 4 17968101992659387868
5104073 3 18342459239890116488
573450 72 18342735195897011577
602551 16 17274814809351608950
67856867 119 18409448128548378508
7495541 125 17989201573240299080
8272917 22 18188497865653868170
9849439 229 17054165662193959793

>  <PUBCHEM_SHAPE_MULTIPOLES>  (1) 
425.92
13.57
2.12
1.28
2.05
0.11
0.19
1.7
-0.74
-0.82
-0.33
-0.09
0.08
-2.47

>  <PUBCHEM_SHAPE_SELFOVERLAP>  (1) 
865.795

>  <PUBCHEM_SHAPE_VOLUME>  (1) 
249.9

>  <PUBCHEM_COORDINATE_TYPE>  (1) 
2
5
10

$$$$
