12490
     RDKit          3D

 13 13  0  0  0  0  0  0  0  0999 V2000
   -2.4000   -1.8239    0.0960 O   0  0  0  0  0  0  0  0  0  0  0  0
   -1.9796    2.2221    0.5277 O   0  0  0  0  0  0  0  0  0  0  0  0
    3.6871   -0.4045   -0.0129 O   0  0  0  0  0  0  0  0  0  0  0  0
   -3.3062    0.7055   -0.5243 O   0  0  0  0  0  0  0  0  0  0  0  0
    2.9227    1.7339   -0.1138 O   0  0  0  0  0  0  0  0  0  0  0  0
   -1.0371    0.1474   -0.0103 C   0  0  0  0  0  0  0  0  0  0  0  0
    1.3680   -0.0819   -0.0165 C   0  0  0  0  0  0  0  0  0  0  0  0
    0.2314    0.7263   -0.0475 C   0  0  0  0  0  0  0  0  0  0  0  0
   -1.1692   -1.2394    0.0578 C   0  0  0  0  0  0  0  0  0  0  0  0
    1.2359   -1.4688    0.0517 C   0  0  0  0  0  0  0  0  0  0  0  0
   -0.0327   -2.0476    0.0888 C   0  0  0  0  0  0  0  0  0  0  0  0
   -2.2108    1.0089   -0.0431 C   0  0  0  0  0  0  0  0  0  0  0  0
    2.6905    0.5220   -0.0535 C   0  0  0  0  0  0  0  0  0  0  0  0
  1  9  1  0
  2 12  1  0
  3 13  1  0
  4 12  2  0
  5 13  2  0
  6  8  2  0
  6  9  1  0
  6 12  1  0
  7  8  1  0
  7 10  2  0
  7 13  1  0
  9 11  2  0
 10 11  1  0
M  END
>  <PUBCHEM_COMPOUND_CID>  (1) 
12490

>  <PUBCHEM_CONFORMER_RMSD>  (1) 
0.6

>  <PUBCHEM_CONFORMER_DIVERSEORDER>  (1) 
1
2

>  <PUBCHEM_MMFF94_PARTIAL_CHARGES>  (1) 
19
1 -0.53
10 -0.15
11 -0.15
12 0.63
13 0.63
14 0.15
15 0.15
16 0.15
17 0.45
18 0.5
19 0.5
2 -0.65
3 -0.65
4 -0.57
5 -0.57
6 0.09
7 0.09
8 -0.15
9 0.08

>  <PUBCHEM_EFFECTIVE_ROTOR_COUNT>  (1) 
2

>  <PUBCHEM_PHARMACOPHORE_FEATURES>  (1) 
8
1 1 donor
1 2 acceptor
1 3 acceptor
1 4 acceptor
1 5 acceptor
3 2 4 12 anion
3 3 5 13 anion
6 6 7 8 9 10 11 rings

>  <PUBCHEM_HEAVY_ATOM_COUNT>  (1) 
13

>  <PUBCHEM_ATOM_DEF_STEREO_COUNT>  (1) 
0

>  <PUBCHEM_ATOM_UDEF_STEREO_COUNT>  (1) 
0

>  <PUBCHEM_BOND_DEF_STEREO_COUNT>  (1) 
0

>  <PUBCHEM_BOND_UDEF_STEREO_COUNT>  (1) 
0

>  <PUBCHEM_ISOTOPIC_ATOM_COUNT>  (1) 
0

>  <PUBCHEM_COMPONENT_COUNT>  (1) 
1

>  <PUBCHEM_CACTVS_TAUTO_COUNT>  (1) 
5

>  <PUBCHEM_CONFORMER_ID>  (1) 
000030CA00000001

>  <PUBCHEM_MMFF94_ENERGY>  (1) 
39.1417

>  <PUBCHEM_FEATURE_SELFOVERLAP>  (1) 
40.712

>  <PUBCHEM_SHAPE_FINGERPRINT>  (1) 
10608611 8 18340767143382761496
11206711 2 18338796848383594615
12491281 212 18336274457013920336
12932764 1 17313374622197704404
13380535 21 18338530641815349134
13380535 76 18410852118680925071
14325111 11 18409448119957846252
14897335 6 18337665334812077439
15775835 57 18186804664696347228
16945 1 18266464208734563666
193761 8 18338519625314146067
19973954 147 18339083795343870748
20510252 161 18269278026604400744
20871998 184 18199475539584499911
21040471 1 18338517434795993827
21501502 16 18409445869231797138
21524375 3 18337106769967400870
22802520 49 18129682819309005286
2334 1 18337674242758722716
23402539 116 18270950298043986869
23402655 69 18268695144525559861
23463225 33 18334009463345655170
23552423 10 18261111898195488034
23559900 14 18343588435228812540
2748010 2 18410580603859786102
528886 8 18410005512044232066
6333449 129 18411699910965319079
7364860 26 18125439709385236126

>  <PUBCHEM_SHAPE_MULTIPOLES>  (1) 
238.19
4.77
2.15
0.62
1.61
0.21
0
-1.62
0.29
-0.67
-0.18
-0.08
-0.03
-0.08

>  <PUBCHEM_SHAPE_SELFOVERLAP>  (1) 
510.169

>  <PUBCHEM_SHAPE_VOLUME>  (1) 
131.5

>  <PUBCHEM_COORDINATE_TYPE>  (1) 
2
5
10

$$$$
