12505
     RDKit          3D

  9  9  0  0  0  0  0  0  0  0999 V2000
   -3.1062   -0.8445   -0.0002 Cl  0  0  0  0  0  0  0  0  0  0  0  0
    2.9947   -0.4760    0.0001 O   0  0  0  0  0  0  0  0  0  0  0  0
   -2.2753    0.6813    0.0001 N   0  0  0  0  0  0  0  0  0  0  0  0
   -1.0066    0.4224    0.0000 C   0  0  0  0  0  0  0  0  0  0  0  0
    0.0240    1.4847    0.0001 C   0  0  0  0  0  0  0  0  0  0  0  0
   -0.5290   -0.9806    0.0002 C   0  0  0  0  0  0  0  0  0  0  0  0
    1.3261    1.1917   -0.0001 C   0  0  0  0  0  0  0  0  0  0  0  0
    0.7736   -1.2713    0.0001 C   0  0  0  0  0  0  0  0  0  0  0  0
    1.7985   -0.2077   -0.0003 C   0  0  0  0  0  0  0  0  0  0  0  0
  1  3  1  0
  2  9  2  0
  3  4  2  3
  4  5  1  0
  4  6  1  0
  5  7  2  0
  6  8  2  0
  7  9  1  0
  8  9  1  0
M  END
>  <PUBCHEM_COMPOUND_CID>  (1) 
12505

>  <PUBCHEM_CONFORMER_RMSD>  (1) 
0.4

>  <PUBCHEM_CONFORMER_DIVERSEORDER>  (1) 
1

>  <PUBCHEM_MMFF94_PARTIAL_CHARGES>  (1) 
12
10 0.15
11 0.15
12 0.15
13 0.15
2 -0.57
3 -0.45
4 0.42
5 -0.14
6 -0.14
7 -0.14
8 -0.14
9 0.54

>  <PUBCHEM_EFFECTIVE_ROTOR_COUNT>  (1) 
0

>  <PUBCHEM_PHARMACOPHORE_FEATURES>  (1) 
3
1 2 acceptor
1 3 acceptor
6 4 5 6 7 8 9 rings

>  <PUBCHEM_HEAVY_ATOM_COUNT>  (1) 
9

>  <PUBCHEM_ATOM_DEF_STEREO_COUNT>  (1) 
0

>  <PUBCHEM_ATOM_UDEF_STEREO_COUNT>  (1) 
0

>  <PUBCHEM_BOND_DEF_STEREO_COUNT>  (1) 
0

>  <PUBCHEM_BOND_UDEF_STEREO_COUNT>  (1) 
0

>  <PUBCHEM_ISOTOPIC_ATOM_COUNT>  (1) 
0

>  <PUBCHEM_COMPONENT_COUNT>  (1) 
1

>  <PUBCHEM_CACTVS_TAUTO_COUNT>  (1) 
1

>  <PUBCHEM_CONFORMER_ID>  (1) 
000030D900000001

>  <PUBCHEM_MMFF94_ENERGY>  (1) 
37.9827

>  <PUBCHEM_FEATURE_SELFOVERLAP>  (1) 
15.223

>  <PUBCHEM_SHAPE_FINGERPRINT>  (1) 
10857977 72 18411689985195626035
12032990 46 18411989039642654310
12897270 3 18408881824182651487
14128692 85 18342738558951284919
14325111 11 18410855494725471877
16945 1 18410575063193523687
18185500 45 18339358574070746158
193761 8 12862138746236372290
21040471 1 18194682794100009156
23402655 69 18195509417229879229
23552423 10 18261114079664035783
2748010 2 18266178529000558116
29004967 10 18411140203590815617
5084963 1 18341613736996837609

>  <PUBCHEM_SHAPE_MULTIPOLES>  (1) 
176.24
3.84
1.5
0.6
1.3
0.19
0
-0.87
0
-0.12
0
0.03
0
0

>  <PUBCHEM_SHAPE_SELFOVERLAP>  (1) 
355.446

>  <PUBCHEM_SHAPE_VOLUME>  (1) 
104.3

>  <PUBCHEM_COORDINATE_TYPE>  (1) 
2
5
10

$$$$
