12518
     RDKit          3D

  9  9  0  0  1  0  0  0  0  0999 V2000
   -1.5134   -0.8409    0.7255 S   0  0  0  0  0  0  0  0  0  0  0  0
    1.5131   -0.8423    0.7247 S   0  0  0  0  0  0  0  0  0  0  0  0
    0.0005    1.3592    0.0598 N   0  0  0  0  0  0  0  0  0  0  0  0
   -1.2220    0.6430   -0.3011 C   0  0  0  0  0  0  0  0  0  0  0  0
    1.2225    0.6423   -0.3014 C   0  0  0  0  0  0  0  0  0  0  0  0
   -0.0007   -1.7897    0.3577 C   0  0  0  0  0  0  0  0  0  0  0  0
   -2.4058    1.5903   -0.1027 C   0  0  0  0  0  0  0  0  0  0  0  0
    2.4070    1.5886   -0.1023 C   0  0  0  0  0  0  0  0  0  0  0  0
   -0.0012   -2.3505   -1.0603 C   0  0  0  0  0  0  0  0  0  0  0  0
  1  4  1  0
  1  6  1  0
  2  5  1  0
  2  6  1  0
  3  4  1  0
  3  5  1  0
  4  7  1  0
  5  8  1  0
  6  9  1  0
M  END
>  <PUBCHEM_COMPOUND_CID>  (1) 
12518

>  <PUBCHEM_CONFORMER_RMSD>  (1) 
0.4

>  <PUBCHEM_CONFORMER_DIVERSEORDER>  (1) 
1
5
7
8
6
9
3
2
4

>  <PUBCHEM_MMFF94_PARTIAL_CHARGES>  (1) 
7
1 -0.46
13 0.36
2 -0.46
3 -0.9
4 0.5
5 0.5
6 0.46

>  <PUBCHEM_EFFECTIVE_ROTOR_COUNT>  (1) 
1.2

>  <PUBCHEM_PHARMACOPHORE_FEATURES>  (1) 
3
1 3 cation
1 3 donor
6 1 2 3 4 5 6 rings

>  <PUBCHEM_HEAVY_ATOM_COUNT>  (1) 
9

>  <PUBCHEM_ATOM_DEF_STEREO_COUNT>  (1) 
0

>  <PUBCHEM_ATOM_UDEF_STEREO_COUNT>  (1) 
2

>  <PUBCHEM_BOND_DEF_STEREO_COUNT>  (1) 
0

>  <PUBCHEM_BOND_UDEF_STEREO_COUNT>  (1) 
0

>  <PUBCHEM_ISOTOPIC_ATOM_COUNT>  (1) 
0

>  <PUBCHEM_COMPONENT_COUNT>  (1) 
1

>  <PUBCHEM_CACTVS_TAUTO_COUNT>  (1) 
1

>  <PUBCHEM_CONFORMER_ID>  (1) 
000030E600000001

>  <PUBCHEM_MMFF94_ENERGY>  (1) 
7.4813

>  <PUBCHEM_FEATURE_SELFOVERLAP>  (1) 
15.223

>  <PUBCHEM_SHAPE_FINGERPRINT>  (1) 
100427 49 17330842318277448693
16945 1 18043825396322012803
18185500 45 17401770121089269962
20511035 2 18334011670679082170
20711978 78 16835125327620146942
20871998 184 18052270783805503086
21040471 1 18409165545295635912
23235685 24 18193268594492239208
241688 4 16898210833660687099
2748010 2 18408890637181353124
5084963 1 18202283606192563723
54338 74 17257075499133513098
66348 1 18407760343496560432

>  <PUBCHEM_SHAPE_MULTIPOLES>  (1) 
187.93
2.82
2.56
0.92
0
0.71
0.04
-1.85
-0.18
0
0.5
0
0.43
0

>  <PUBCHEM_SHAPE_SELFOVERLAP>  (1) 
328.426

>  <PUBCHEM_SHAPE_VOLUME>  (1) 
122.9

>  <PUBCHEM_COORDINATE_TYPE>  (1) 
2
5
10

$$$$
