12512
     RDKit          3D

  7  6  0  0  0  0  0  0  0  0999 V2000
    0.4494   -0.6036   -0.0006 O   0  0  0  0  0  0  0  0  0  0  0  0
   -0.8529   -0.0176    0.0000 C   0  0  0  0  0  0  0  0  0  0  0  0
   -0.9990    0.8436   -1.2537 C   0  0  0  0  0  0  0  0  0  0  0  0
   -1.8700   -1.1567   -0.0091 C   0  0  0  0  0  0  0  0  0  0  0  0
   -1.0052    0.8286    1.2631 C   0  0  0  0  0  0  0  0  0  0  0  0
    1.4614    0.3906    0.0005 C   0  0  0  0  0  0  0  0  0  0  0  0
    2.8162   -0.2848   -0.0001 C   0  0  0  0  0  0  0  0  0  0  0  0
  1  2  1  0
  1  6  1  0
  2  3  1  0
  2  4  1  0
  2  5  1  0
  6  7  1  0
M  END
>  <PUBCHEM_COMPOUND_CID>  (1) 
12512

>  <PUBCHEM_CONFORMER_RMSD>  (1) 
0.4

>  <PUBCHEM_CONFORMER_DIVERSEORDER>  (1) 
1

>  <PUBCHEM_MMFF94_PARTIAL_CHARGES>  (1) 
3
1 -0.56
2 0.28
6 0.28

>  <PUBCHEM_EFFECTIVE_ROTOR_COUNT>  (1) 
2

>  <PUBCHEM_PHARMACOPHORE_FEATURES>  (1) 
2
1 1 acceptor
4 2 3 4 5 hydrophobe

>  <PUBCHEM_HEAVY_ATOM_COUNT>  (1) 
7

>  <PUBCHEM_ATOM_DEF_STEREO_COUNT>  (1) 
0

>  <PUBCHEM_ATOM_UDEF_STEREO_COUNT>  (1) 
0

>  <PUBCHEM_BOND_DEF_STEREO_COUNT>  (1) 
0

>  <PUBCHEM_BOND_UDEF_STEREO_COUNT>  (1) 
0

>  <PUBCHEM_ISOTOPIC_ATOM_COUNT>  (1) 
0

>  <PUBCHEM_COMPONENT_COUNT>  (1) 
1

>  <PUBCHEM_CACTVS_TAUTO_COUNT>  (1) 
1

>  <PUBCHEM_CONFORMER_ID>  (1) 
000030E000000001

>  <PUBCHEM_MMFF94_ENERGY>  (1) 
19.0714

>  <PUBCHEM_FEATURE_SELFOVERLAP>  (1) 
10.148

>  <PUBCHEM_SHAPE_FINGERPRINT>  (1) 
16714656 1 18040711485050667615
21040471 1 17534882122606835196
24536 1 18131628950626700218
29004967 10 17489308645604306698
5084963 1 18334857242560641354
5460574 1 9223237347139387106
5943 1 14905630155174557633

>  <PUBCHEM_SHAPE_MULTIPOLES>  (1) 
138.19
3.05
1.08
1.07
2.54
0.08
-0.01
0.65
0
-0.49
0.01
-0.47
-0.39
0

>  <PUBCHEM_SHAPE_SELFOVERLAP>  (1) 
246.453

>  <PUBCHEM_SHAPE_VOLUME>  (1) 
92

>  <PUBCHEM_COORDINATE_TYPE>  (1) 
2
5
10

$$$$
