12526
     RDKit          3D

 14 13  0  0  0  0  0  0  0  0999 V2000
    0.5490    0.0310   -0.8733 S   0  0  0  0  0  0  0  0  0  0  0  0
   -0.5524    0.0307    0.8612 S   0  0  0  0  0  0  0  0  0  0  0  0
    5.3251   -0.5494   -0.3654 O   0  0  0  0  0  0  0  0  0  0  0  0
   -5.3233   -0.5474    0.3753 O   0  0  0  0  0  0  0  0  0  0  0  0
    3.3871    0.3690    0.5401 N   0  0  0  0  0  0  0  0  0  0  0  0
   -3.3854    0.3619   -0.5420 N   0  0  0  0  0  0  0  0  0  0  0  0
    2.6481   -0.8607    0.7137 C   0  0  0  0  0  0  0  0  0  0  0  0
   -2.6502   -0.8621   -0.7124 C   0  0  0  0  0  0  0  0  0  0  0  0
    1.8084   -1.2276   -0.5021 C   0  0  0  0  0  0  0  0  0  0  0  0
   -1.8058   -1.2235    0.5020 C   0  0  0  0  0  0  0  0  0  0  0  0
    4.6664    0.4157    0.0133 C   0  0  0  0  0  0  0  0  0  0  0  0
   -4.6665    0.4164   -0.0099 C   0  0  0  0  0  0  0  0  0  0  0  0
    5.1928    1.8227   -0.0809 C   0  0  0  0  0  0  0  0  0  0  0  0
   -5.1933    1.8235    0.0802 C   0  0  0  0  0  0  0  0  0  0  0  0
  1  2  1  0
  1  9  1  0
  2 10  1  0
  3 11  2  0
  4 12  2  0
  5  7  1  0
  5 11  1  0
  6  8  1  0
  6 12  1  0
  7  9  1  0
  8 10  1  0
 11 13  1  0
 12 14  1  0
M  END
>  <PUBCHEM_COMPOUND_CID>  (1) 
12526

>  <PUBCHEM_CONFORMER_RMSD>  (1) 
1

>  <PUBCHEM_CONFORMER_DIVERSEORDER>  (1) 
1
327
44
181
483
10
432
205
56
485
92
11
347
226
433
20
494
6
371
412
322
7
2
183
242
47
25
3
406
204
439
478
51
415
472
17
14
402
33
158
173
484
73
312
194
113
26
506
427
208
57
145
315
70
500
192
30
156
170
334
441
190
253
367
84
36
12
149
479
52
283
248
464
140
198
344
333
222
178
100
41
467
59
268
93
112
197
341
39
257
18
16
108
87
423
249
99
9
383
45
328
193
179
105
107
5
408
502
336
450
330
24
471
453
319
13
251
8
135
196
77
91
4

>  <PUBCHEM_MMFF94_PARTIAL_CHARGES>  (1) 
16
1 -0.23
10 0.23
11 0.57
12 0.57
13 0.06
14 0.06
2 -0.23
23 0.37
24 0.37
3 -0.57
4 -0.57
5 -0.73
6 -0.73
7 0.3
8 0.3
9 0.23

>  <PUBCHEM_EFFECTIVE_ROTOR_COUNT>  (1) 
9

>  <PUBCHEM_PHARMACOPHORE_FEATURES>  (1) 
5
1 3 acceptor
1 4 acceptor
1 5 donor
1 6 donor
4 1 2 9 10 hydrophobe

>  <PUBCHEM_HEAVY_ATOM_COUNT>  (1) 
14

>  <PUBCHEM_ATOM_DEF_STEREO_COUNT>  (1) 
0

>  <PUBCHEM_ATOM_UDEF_STEREO_COUNT>  (1) 
0

>  <PUBCHEM_BOND_DEF_STEREO_COUNT>  (1) 
0

>  <PUBCHEM_BOND_UDEF_STEREO_COUNT>  (1) 
0

>  <PUBCHEM_ISOTOPIC_ATOM_COUNT>  (1) 
0

>  <PUBCHEM_COMPONENT_COUNT>  (1) 
1

>  <PUBCHEM_CACTVS_TAUTO_COUNT>  (1) 
3

>  <PUBCHEM_CONFORMER_ID>  (1) 
000030EE00000001

>  <PUBCHEM_MMFF94_ENERGY>  (1) 
3.5039

>  <PUBCHEM_FEATURE_SELFOVERLAP>  (1) 
25.371

>  <PUBCHEM_SHAPE_FINGERPRINT>  (1) 
100836 57 18341896298505270036
117890 112 18410009931576362920
12596602 18 17967251988255262049
13533116 47 17386279897078243986
13675066 3 15647046040966932935
14123238 8 16008748013211456979
14123255 352 18410006603340686165
14251732 16 18261395615255793283
14251740 57 12180387038629752744
14251764 46 18410291410668634323
14252887 29 15647048227500834898
15048467 5 18410854360616845824
15501527 16 18411983572249162521
17834072 33 18273494597872980526
17834072 8 16415192361213333385
17834076 25 18341894095160822786
17959699 21 18412545405395393296
200 152 11095882666239976431
20281389 69 18260264123122364909
20374829 77 9871750187306323863
20621476 66 18058458617095338569
20645477 56 18114181930150552655
20645477 70 17988366957873488110
23402539 116 18410849963129205437
23402655 69 18060699476793350826
23559900 14 17988079985370221814
23590187 198 8862952687984618688
23596394 208 15482404053433055596
2916195 48 18259701207591842593
3286 77 8142082069873111846
42 15 11097851887101518418
42788 4 18410855460128168290
449060 50 18333166167680679326
542803 24 18410855464423135591
7495541 125 11602830107128307734

>  <PUBCHEM_SHAPE_MULTIPOLES>  (1) 
274.11
13.87
1.51
0.9
0.01
0.52
0
5.9
0.02
0
0
0
-0.1
0

>  <PUBCHEM_SHAPE_SELFOVERLAP>  (1) 
485.27

>  <PUBCHEM_SHAPE_VOLUME>  (1) 
179.6

>  <PUBCHEM_COORDINATE_TYPE>  (1) 
2
5
10

$$$$
