12527
     RDKit          3D

  7  6  0  0  0  0  0  0  0  0999 V2000
    4.2482    0.5408   -0.0478 I   0  0  0  0  0  0  0  0  0  0  0  0
   -0.1036   -0.5595    0.0181 C   0  0  0  0  0  0  0  0  0  0  0  0
   -1.3261    0.3614    0.0265 C   0  0  0  0  0  0  0  0  0  0  0  0
    1.1979    0.2471    0.0881 C   0  0  0  0  0  0  0  0  0  0  0  0
   -2.6264   -0.4408   -0.0163 C   0  0  0  0  0  0  0  0  0  0  0  0
    2.4528   -0.6198   -0.0273 C   0  0  0  0  0  0  0  0  0  0  0  0
   -3.8428    0.4709   -0.0413 C   0  0  0  0  0  0  0  0  0  0  0  0
  1  6  1  0
  2  3  1  0
  2  4  1  0
  3  5  1  0
  4  6  1  0
  5  7  1  0
M  END
>  <PUBCHEM_COMPOUND_CID>  (1) 
12527

>  <PUBCHEM_CONFORMER_RMSD>  (1) 
0.6

>  <PUBCHEM_CONFORMER_DIVERSEORDER>  (1) 
1
27
28
8
32
18
33
12
13
15
34
6
3
19
5
16
25
2
20
14
30
23
31
21
4
24
17
29
10
11
9
7
22
26

>  <PUBCHEM_MMFF94_PARTIAL_CHARGES>  (1) 
2
1 -0.19
6 0.19

>  <PUBCHEM_EFFECTIVE_ROTOR_COUNT>  (1) 
4

>  <PUBCHEM_PHARMACOPHORE_FEATURES>  (1) 
3
1 1 hydrophobe
1 7 hydrophobe
4 2 3 4 5 hydrophobe

>  <PUBCHEM_HEAVY_ATOM_COUNT>  (1) 
7

>  <PUBCHEM_ATOM_DEF_STEREO_COUNT>  (1) 
0

>  <PUBCHEM_ATOM_UDEF_STEREO_COUNT>  (1) 
0

>  <PUBCHEM_BOND_DEF_STEREO_COUNT>  (1) 
0

>  <PUBCHEM_BOND_UDEF_STEREO_COUNT>  (1) 
0

>  <PUBCHEM_ISOTOPIC_ATOM_COUNT>  (1) 
0

>  <PUBCHEM_COMPONENT_COUNT>  (1) 
1

>  <PUBCHEM_CACTVS_TAUTO_COUNT>  (1) 
1

>  <PUBCHEM_CONFORMER_ID>  (1) 
000030EF00000001

>  <PUBCHEM_MMFF94_ENERGY>  (1) 
-1.9343

>  <PUBCHEM_FEATURE_SELFOVERLAP>  (1) 
15.223

>  <PUBCHEM_SHAPE_FINGERPRINT>  (1) 
11062470 55 18408886239308798344
12932764 1 15625931002766581450
14325111 11 18410573976619720722
17834076 25 18413390934015783224
18342897 14 18409730655475247336
190213 19 16845576430776975456
20211469 26 9655578508619281447
20719005 15 18410293622929998762
21293036 1 17275106145783863468
5460574 1 9079114462134003194

>  <PUBCHEM_SHAPE_MULTIPOLES>  (1) 
155.99
8.4
0.89
0.66
1.05
0.01
0
1.77
-0.22
0.2
0
0.18
0.02
0

>  <PUBCHEM_SHAPE_SELFOVERLAP>  (1) 
249.023

>  <PUBCHEM_SHAPE_VOLUME>  (1) 
112.1

>  <PUBCHEM_COORDINATE_TYPE>  (1) 
2
5
10

$$$$
