12528
     RDKit          3D

  7  6  0  0  0  0  0  0  0  0999 V2000
   -1.3612    0.7255   -0.0142 S   0  0  0  0  0  0  0  0  0  0  0  0
    1.4100    0.3688   -0.0506 C   0  0  0  0  0  0  0  0  0  0  0  0
    2.6349   -0.5490   -0.0139 C   0  0  0  0  0  0  0  0  0  0  0  0
    0.0789   -0.3823   -0.0258 C   0  0  0  0  0  0  0  0  0  0  0  0
    3.9250    0.2536    0.0619 C   0  0  0  0  0  0  0  0  0  0  0  0
   -2.6583   -0.5326    0.0141 C   0  0  0  0  0  0  0  0  0  0  0  0
   -4.0294    0.1159    0.0285 C   0  0  0  0  0  0  0  0  0  0  0  0
  1  4  1  0
  1  6  1  0
  2  3  1  0
  2  4  1  0
  3  5  1  0
  6  7  1  0
M  END
>  <PUBCHEM_COMPOUND_CID>  (1) 
12528

>  <PUBCHEM_CONFORMER_RMSD>  (1) 
0.6

>  <PUBCHEM_CONFORMER_DIVERSEORDER>  (1) 
2
34
20
31
29
33
4
15
28
10
7
1
22
17
25
13
9
32
21
19
16
27
5
23
30
14
6
24
3
11
26
8
12
18

>  <PUBCHEM_MMFF94_PARTIAL_CHARGES>  (1) 
3
1 -0.46
4 0.23
6 0.23

>  <PUBCHEM_EFFECTIVE_ROTOR_COUNT>  (1) 
4

>  <PUBCHEM_PHARMACOPHORE_FEATURES>  (1) 
3
1 5 hydrophobe
1 7 hydrophobe
5 1 2 3 4 6 hydrophobe

>  <PUBCHEM_HEAVY_ATOM_COUNT>  (1) 
7

>  <PUBCHEM_ATOM_DEF_STEREO_COUNT>  (1) 
0

>  <PUBCHEM_ATOM_UDEF_STEREO_COUNT>  (1) 
0

>  <PUBCHEM_BOND_DEF_STEREO_COUNT>  (1) 
0

>  <PUBCHEM_BOND_UDEF_STEREO_COUNT>  (1) 
0

>  <PUBCHEM_ISOTOPIC_ATOM_COUNT>  (1) 
0

>  <PUBCHEM_COMPONENT_COUNT>  (1) 
1

>  <PUBCHEM_CACTVS_TAUTO_COUNT>  (1) 
1

>  <PUBCHEM_CONFORMER_ID>  (1) 
000030F000000002

>  <PUBCHEM_MMFF94_ENERGY>  (1) 
1.576

>  <PUBCHEM_FEATURE_SELFOVERLAP>  (1) 
15.223

>  <PUBCHEM_SHAPE_FINGERPRINT>  (1) 
11062470 55 17749108889582954405
12932764 1 15482377660842813588
14325111 11 18411138004710004206
18342897 14 17846781805834059457
20719005 15 18410856573099723883
21293036 1 13551193290154038141
5460574 1 9223229650373265942

>  <PUBCHEM_SHAPE_MULTIPOLES>  (1) 
147.91
7.56
0.85
0.63
0.1
0.03
0
-0.05
-0.18
0.07
0
0.01
0.01
0.01

>  <PUBCHEM_SHAPE_SELFOVERLAP>  (1) 
239.142

>  <PUBCHEM_SHAPE_VOLUME>  (1) 
103.3

>  <PUBCHEM_COORDINATE_TYPE>  (1) 
2
5
10

$$$$
