12552
     RDKit          3D

 21 22  0  0  0  0  0  0  0  0999 V2000
    0.1793   -0.8987   -0.0107 O   0  0  0  0  0  0  0  0  0  0  0  0
    3.8448   -0.5176    0.0570 N   0  0  0  0  0  0  0  0  0  0  0  0
    2.5468   -1.0952   -0.2898 C   0  0  0  0  0  0  0  0  0  0  0  0
   -0.9195   -0.2117    0.5725 C   0  0  0  0  0  0  0  0  0  0  0  0
    1.4193   -0.3145    0.3664 C   0  0  0  0  0  0  0  0  0  0  0  0
    4.0394   -0.5307    1.5063 C   0  0  0  0  0  0  0  0  0  0  0  0
    4.9231   -1.2463   -0.6101 C   0  0  0  0  0  0  0  0  0  0  0  0
   -0.9255    1.2352    0.1249 C   0  0  0  0  0  0  0  0  0  0  0  0
   -2.2332   -0.9190    0.3007 C   0  0  0  0  0  0  0  0  0  0  0  0
    5.3570    0.1216    1.8893 C   0  0  0  0  0  0  0  0  0  0  0  0
    4.7371   -1.2430   -2.1179 C   0  0  0  0  0  0  0  0  0  0  0  0
   -1.4442    2.2004    0.9695 C   0  0  0  0  0  0  0  0  0  0  0  0
   -3.2567   -0.8149    1.2243 C   0  0  0  0  0  0  0  0  0  0  0  0
   -0.4122    1.5586   -1.1185 C   0  0  0  0  0  0  0  0  0  0  0  0
   -2.3747   -1.6505   -0.8638 C   0  0  0  0  0  0  0  0  0  0  0  0
   -1.4502    3.5330    0.5572 C   0  0  0  0  0  0  0  0  0  0  0  0
   -4.4649   -1.4658    0.9745 C   0  0  0  0  0  0  0  0  0  0  0  0
   -0.4180    2.8911   -1.5308 C   0  0  0  0  0  0  0  0  0  0  0  0
   -3.5829   -2.3012   -1.1137 C   0  0  0  0  0  0  0  0  0  0  0  0
   -0.9370    3.8782   -0.6930 C   0  0  0  0  0  0  0  0  0  0  0  0
   -4.6279   -2.2089   -0.1945 C   0  0  0  0  0  0  0  0  0  0  0  0
  1  4  1  0
  1  5  1  0
  2  3  1  0
  2  6  1  0
  2  7  1  0
  3  5  1  0
  4  8  1  0
  4  9  1  0
  6 10  1  0
  7 11  1  0
  8 12  2  0
  8 14  1  0
  9 13  2  0
  9 15  1  0
 12 16  1  0
 13 17  1  0
 14 18  2  0
 15 19  2  0
 16 20  2  0
 17 21  2  0
 18 20  1  0
 19 21  1  0
M  END
>  <PUBCHEM_COMPOUND_CID>  (1) 
12552

>  <PUBCHEM_CONFORMER_RMSD>  (1) 
0.8

>  <PUBCHEM_CONFORMER_DIVERSEORDER>  (1) 
1
42
20
31
28
32
10
30
36
14
8
25
24
18
16
12
40
39
43
13
48
22
21
19
27
26
23
49
5
29
46
47
44
9
15
35
33
2
37
17
3
11
6
38
34
7
45
4
41

>  <PUBCHEM_MMFF94_PARTIAL_CHARGES>  (1) 
29
1 -0.56
12 -0.15
13 -0.15
14 -0.15
15 -0.15
16 -0.15
17 -0.15
18 -0.15
19 -0.15
2 -0.81
20 -0.15
21 -0.15
3 0.27
37 0.15
38 0.15
39 0.15
4 0.57
40 0.15
41 0.15
42 0.15
43 0.15
44 0.15
45 0.15
46 0.15
5 0.28
6 0.27
7 0.27
8 -0.14
9 -0.14

>  <PUBCHEM_EFFECTIVE_ROTOR_COUNT>  (1) 
8

>  <PUBCHEM_PHARMACOPHORE_FEATURES>  (1) 
4
1 1 acceptor
1 2 cation
6 8 12 14 16 18 20 rings
6 9 13 15 17 19 21 rings

>  <PUBCHEM_HEAVY_ATOM_COUNT>  (1) 
21

>  <PUBCHEM_ATOM_DEF_STEREO_COUNT>  (1) 
0

>  <PUBCHEM_ATOM_UDEF_STEREO_COUNT>  (1) 
0

>  <PUBCHEM_BOND_DEF_STEREO_COUNT>  (1) 
0

>  <PUBCHEM_BOND_UDEF_STEREO_COUNT>  (1) 
0

>  <PUBCHEM_ISOTOPIC_ATOM_COUNT>  (1) 
0

>  <PUBCHEM_COMPONENT_COUNT>  (1) 
1

>  <PUBCHEM_CACTVS_TAUTO_COUNT>  (1) 
1

>  <PUBCHEM_CONFORMER_ID>  (1) 
0000310800000001

>  <PUBCHEM_MMFF94_ENERGY>  (1) 
56.9712

>  <PUBCHEM_FEATURE_SELFOVERLAP>  (1) 
20.297

>  <PUBCHEM_SHAPE_FINGERPRINT>  (1) 
10369192 42 17130698574142607048
10764073 3 16700919097548435081
10989021 7 18335146435324849916
11045515 52 18259983807828652285
11101153 10 18261964037520107748
11265709 11 18336554888535032985
11370993 144 17131844118253856538
11578080 2 12676141507055180619
11595378 159 18335973191229090082
12553582 1 18335427893037581275
12788726 201 18186523176592278338
13004483 165 18410003351675701559
13009979 54 17986693634704692395
13149001 5 17679586911225046259
13583140 156 17986094237753930750
13681431 1 18118964926085388469
13911987 19 17822867483991905118
14178342 30 18191298291721009882
14251757 17 16009302235807190391
14347332 77 18336831875567033190
14910302 57 18130231445852806870
14955137 171 18268167503229597667
15806764 133 17774447075564519112
15842332 3 17532373050637627898
15849732 13 18202567285510786055
15961568 22 18338232799678746012
17349148 13 17530685390383357234
17357779 13 18269536343317943877
17539 30 18337101272836900517
17980427 23 17131837620753911993
1813 80 18337955691876134271
18222031 100 18339081596088837999
20600515 1 18337389473315574490
20693207 138 17775017747853548790
21041028 32 18335713779673289425
21202864 24 18125174744521267985
21304303 282 17320939141595153101
22112679 90 18193022420073611749
22849341 161 18267607834678124211
23175994 123 18188212104289538835
23402539 116 18335414677417826426
23419403 2 18125693890055894089
23557571 272 18339933631748264270
23558518 356 17752200587463572994
283562 15 18334288738961662946
312423 11 17749958752553976770
314173 85 18411417336524739387
44062 13 17979367361048601102
6049 1 17988641844749420922
621550 34 18060129981969257434
6786 2 17405158331001070025
6913067 236 18057580209967046874
7399639 24 18130497600881476454
7615 1 17313387756545253678
81228 2 18263090933125633049

>  <PUBCHEM_SHAPE_MULTIPOLES>  (1) 
421.32
10.08
3.87
1.64
11.25
5.02
-0.14
-9.45
1.44
-3.98
-1.19
1.6
-0.02
0.45

>  <PUBCHEM_SHAPE_SELFOVERLAP>  (1) 
873.195

>  <PUBCHEM_SHAPE_VOLUME>  (1) 
241.7

>  <PUBCHEM_COORDINATE_TYPE>  (1) 
2
5
10

$$$$
