1255
     RDKit          3D

 21 25  0  0  1  0  0  0  0  0999 V2000
    1.3200    1.0436    1.2048 O   0  0  0  0  0  0  0  0  0  0  0  0
   -0.0565    3.8758    0.0737 O   0  0  0  0  0  0  0  0  0  0  0  0
    3.7031   -0.5274    0.5872 O   0  0  0  0  0  0  0  0  0  0  0  0
   -3.1996   -1.4446    0.5770 N   0  0  0  0  0  0  0  0  0  0  0  0
   -0.9392    0.3914    0.6520 C   0  0  0  0  0  0  0  0  0  0  0  0
   -2.0904    0.5483   -0.3458 C   0  0  0  0  0  0  0  0  0  0  0  0
   -0.0101    1.6011    0.8752 C   0  0  0  0  0  0  0  0  0  0  0  0
   -2.6060   -0.8866   -0.6564 C   0  0  0  0  0  0  0  0  0  0  0  0
    0.0921   -0.5361    0.1066 C   0  0  0  0  0  0  0  0  0  0  0  0
   -1.5134   -0.1922    1.9613 C   0  0  0  0  0  0  0  0  0  0  0  0
   -1.5215   -1.8314   -1.2691 C   0  0  0  0  0  0  0  0  0  0  0  0
   -0.1319   -1.6080   -0.7362 C   0  0  0  0  0  0  0  0  0  0  0  0
   -2.2876   -1.4990    1.7212 C   0  0  0  0  0  0  0  0  0  0  0  0
    0.1666    2.5303   -0.3567 C   0  0  0  0  0  0  0  0  0  0  0  0
   -1.7139    1.3562   -1.5538 C   0  0  0  0  0  0  0  0  0  0  0  0
    1.3499   -0.1456    0.5161 C   0  0  0  0  0  0  0  0  0  0  0  0
   -0.7177    2.2516   -1.5400 C   0  0  0  0  0  0  0  0  0  0  0  0
    0.9819   -2.3651   -1.0995 C   0  0  0  0  0  0  0  0  0  0  0  0
    2.4606   -0.8860    0.1823 C   0  0  0  0  0  0  0  0  0  0  0  0
    2.2654   -2.0144   -0.6274 C   0  0  0  0  0  0  0  0  0  0  0  0
    4.4482    0.3382   -0.2725 C   0  0  0  0  0  0  0  0  0  0  0  0
  1  7  1  0
  1 16  1  0
  2 14  1  0
  3 19  1  0
  3 21  1  0
  4  8  1  0
  4 13  1  0
  5  6  1  0
  5  7  1  0
  5  9  1  0
  5 10  1  0
  6  8  1  0
  6 15  1  0
  7 14  1  0
  8 11  1  0
  9 12  2  0
  9 16  1  0
 10 13  1  0
 11 12  1  0
 12 18  1  0
 14 17  1  0
 15 17  2  0
 16 19  2  0
 18 20  2  0
 19 20  1  0
M  END
>  <PUBCHEM_COMPOUND_CID>  (1) 
1255

>  <PUBCHEM_CONFORMER_RMSD>  (1) 
0.6

>  <PUBCHEM_CONFORMER_DIVERSEORDER>  (1) 
1
4
6
3
5
2
7

>  <PUBCHEM_MMFF94_PARTIAL_CHARGES>  (1) 
26
1 -0.36
11 0.14
12 -0.14
13 0.27
14 0.42
15 -0.29
16 0.08
17 -0.29
18 -0.15
19 0.08
2 -0.68
20 -0.15
21 0.28
3 -0.36
32 0.36
33 0.15
34 0.15
35 0.15
36 0.15
37 0.4
4 -0.9
5 0.14
6 0.14
7 0.28
8 0.27
9 -0.14

>  <PUBCHEM_EFFECTIVE_ROTOR_COUNT>  (1) 
2.2

>  <PUBCHEM_PHARMACOPHORE_FEATURES>  (1) 
11
1 1 acceptor
1 2 acceptor
1 2 donor
1 3 acceptor
1 4 cation
1 4 donor
5 1 5 7 9 16 rings
6 4 5 6 8 10 13 rings
6 5 6 7 14 15 17 rings
6 5 6 8 9 11 12 rings
6 9 12 16 18 19 20 rings

>  <PUBCHEM_HEAVY_ATOM_COUNT>  (1) 
21

>  <PUBCHEM_ATOM_DEF_STEREO_COUNT>  (1) 
0

>  <PUBCHEM_ATOM_UDEF_STEREO_COUNT>  (1) 
5

>  <PUBCHEM_BOND_DEF_STEREO_COUNT>  (1) 
0

>  <PUBCHEM_BOND_UDEF_STEREO_COUNT>  (1) 
0

>  <PUBCHEM_ISOTOPIC_ATOM_COUNT>  (1) 
0

>  <PUBCHEM_COMPONENT_COUNT>  (1) 
1

>  <PUBCHEM_CACTVS_TAUTO_COUNT>  (1) 
1

>  <PUBCHEM_CONFORMER_ID>  (1) 
000004E700000001

>  <PUBCHEM_MMFF94_ENERGY>  (1) 
77.0282

>  <PUBCHEM_FEATURE_SELFOVERLAP>  (1) 
57.978

>  <PUBCHEM_SHAPE_FINGERPRINT>  (1) 
10863032 1 17559105472332337797
10948715 1 17112702484081460877
11132069 177 18059848485396546930
11961588 58 17387382719656371973
12035758 1 18335980896484691641
12403814 3 18410290324368858690
13024252 1 16950566536781276939
13027679 85 18131063874511701057
13140716 1 18411689985417484104
13172582 1 18272374229884261946
13299463 15 17913751847953618660
141345 1 8052407929062792871
14142880 1 18200879478341131880
14181834 199 18051418662563086719
144361 1 18196071438689122563
14614273 12 18270676463866999046
14817 1 12581950838091020973
14955137 171 17911553035346896402
15309172 13 17988928872686861258
16945 1 17846488249188256387
17357779 13 18269815632182850415
17492 54 18119803874953194398
19868273 325 18408884035784879783
21029758 27 18336833112073924454
21524375 3 17036699846544141493
21623110 236 17841143661285332976
22182313 1 18123722456821776172
2334 1 17840569715888261010
23419403 2 15042083859970424610
23493267 7 18115581535564731826
23557571 272 18261684670744098014
23559900 14 18119234066406947674
25 1 16465874031330089460
2748010 2 18197753657141149296
576247 118 18116176461470628427
5845 1 13232077984565618481
81228 2 17899156934986052313
9981440 41 17908677585097321434

>  <PUBCHEM_SHAPE_MULTIPOLES>  (1) 
409.58
4.52
3.08
1.56
4.47
2.18
0.21
-1.57
0.33
-0.41
-0.84
-0.89
-0.1
0.74

>  <PUBCHEM_SHAPE_SELFOVERLAP>  (1) 
927.558

>  <PUBCHEM_SHAPE_VOLUME>  (1) 
212.1

>  <PUBCHEM_COORDINATE_TYPE>  (1) 
2
5
10

$$$$
