12561
     RDKit          3D

 10 10  0  0  0  0  0  0  0  0999 V2000
   -0.1425   -2.3509    0.0001 N   0  0  0  0  0  0  0  0  0  0  0  0
    1.7648   -0.1779    0.0001 C   0  0  0  0  0  0  0  0  0  0  0  0
    0.2884    0.0514    0.0000 C   0  0  0  0  0  0  0  0  0  0  0  0
    2.4454    0.3860    1.2604 C   0  0  0  0  0  0  0  0  0  0  0  0
    2.4455    0.3856   -1.2605 C   0  0  0  0  0  0  0  0  0  0  0  0
   -0.6078   -1.0177    0.0000 C   0  0  0  0  0  0  0  0  0  0  0  0
   -0.1895    1.3619    0.0000 C   0  0  0  0  0  0  0  0  0  0  0  0
   -1.9816   -0.7760    0.0000 C   0  0  0  0  0  0  0  0  0  0  0  0
   -1.5634    1.6033   -0.0001 C   0  0  0  0  0  0  0  0  0  0  0  0
   -2.4594    0.5344   -0.0001 C   0  0  0  0  0  0  0  0  0  0  0  0
  1  6  1  0
  2  3  1  0
  2  4  1  0
  2  5  1  0
  3  6  2  0
  3  7  1  0
  6  8  1  0
  7  9  2  0
  8 10  2  0
  9 10  1  0
M  END
>  <PUBCHEM_COMPOUND_CID>  (1) 
12561

>  <PUBCHEM_CONFORMER_RMSD>  (1) 
0.4

>  <PUBCHEM_CONFORMER_DIVERSEORDER>  (1) 
1
2

>  <PUBCHEM_MMFF94_PARTIAL_CHARGES>  (1) 
14
1 -0.9
10 -0.15
18 0.15
19 0.15
2 0.14
20 0.15
21 0.15
22 0.4
23 0.4
3 -0.14
6 0.1
7 -0.15
8 -0.15
9 -0.15

>  <PUBCHEM_EFFECTIVE_ROTOR_COUNT>  (1) 
1

>  <PUBCHEM_PHARMACOPHORE_FEATURES>  (1) 
4
1 1 cation
1 1 donor
3 2 4 5 hydrophobe
6 3 6 7 8 9 10 rings

>  <PUBCHEM_HEAVY_ATOM_COUNT>  (1) 
10

>  <PUBCHEM_ATOM_DEF_STEREO_COUNT>  (1) 
0

>  <PUBCHEM_ATOM_UDEF_STEREO_COUNT>  (1) 
0

>  <PUBCHEM_BOND_DEF_STEREO_COUNT>  (1) 
0

>  <PUBCHEM_BOND_UDEF_STEREO_COUNT>  (1) 
0

>  <PUBCHEM_ISOTOPIC_ATOM_COUNT>  (1) 
0

>  <PUBCHEM_COMPONENT_COUNT>  (1) 
1

>  <PUBCHEM_CACTVS_TAUTO_COUNT>  (1) 
1

>  <PUBCHEM_CONFORMER_ID>  (1) 
0000311100000001

>  <PUBCHEM_MMFF94_ENERGY>  (1) 
37.9088

>  <PUBCHEM_FEATURE_SELFOVERLAP>  (1) 
20.297

>  <PUBCHEM_SHAPE_FINGERPRINT>  (1) 
10857977 72 18339918311589200817
12423570 1 11613837665741733618
12524768 44 18126849536520613308
12716758 59 18413396431837633766
15310529 11 16660642994190025277
16945 1 18410573998321254597
20645464 45 17988634220781667440
20871998 184 18128253591452774518
21040471 1 18410856516711222112
23211744 41 17845637214424593296
23235685 24 18336552624871198157
23552423 10 18117283562047257335
2748010 2 18193558861572920943
29004967 10 16200433563415460232
369184 2 18200580458422795872
5084963 1 18272379624347088612

>  <PUBCHEM_SHAPE_MULTIPOLES>  (1) 
200.81
3.48
1.72
0.93
0.79
0.6
0
-0.66
0
-0.68
0
0.8
-0.13
0

>  <PUBCHEM_SHAPE_SELFOVERLAP>  (1) 
409.37

>  <PUBCHEM_SHAPE_VOLUME>  (1) 
117.6

>  <PUBCHEM_COORDINATE_TYPE>  (1) 
2
5
10

$$$$
