1256
     RDKit          3D

 12 12  0  0  1  0  0  0  0  0999 V2000
   -3.3761    1.1496    0.3997 O   0  0  0  0  0  0  0  0  0  0  0  0
   -3.5745   -1.0312   -0.2594 O   0  0  0  0  0  0  0  0  0  0  0  0
    1.4070    0.1148    0.3147 C   0  0  0  0  0  0  0  0  0  0  0  0
    0.7276    1.0837   -0.6617 C   0  0  0  0  0  0  0  0  0  0  0  0
    0.7129   -1.2595    0.2913 C   0  0  0  0  0  0  0  0  0  0  0  0
   -0.7549    1.2672   -0.3183 C   0  0  0  0  0  0  0  0  0  0  0  0
   -1.4373   -0.0257    0.0089 C   0  0  0  0  0  0  0  0  0  0  0  0
    2.8672   -0.0115    0.0076 C   0  0  0  0  0  0  0  0  0  0  0  0
   -0.7869   -1.1683    0.2705 C   0  0  0  0  0  0  0  0  0  0  0  0
    3.8107    0.4305    1.0866 C   0  0  0  0  0  0  0  0  0  0  0  0
   -2.9018   -0.0568    0.0250 C   0  0  0  0  0  0  0  0  0  0  0  0
    3.3061   -0.4928   -1.1649 C   0  0  0  0  0  0  0  0  0  0  0  0
  1 11  1  0
  2 11  2  0
  3  4  1  0
  3  5  1  0
  3  8  1  0
  4  6  1  0
  5  9  1  0
  6  7  1  0
  7  9  2  0
  7 11  1  0
  8 10  1  0
  8 12  2  0
M  END
>  <PUBCHEM_COMPOUND_CID>  (1) 
1256

>  <PUBCHEM_CONFORMER_RMSD>  (1) 
0.6

>  <PUBCHEM_CONFORMER_DIVERSEORDER>  (1) 
1
3
6
4
5
2

>  <PUBCHEM_MMFF94_PARTIAL_CHARGES>  (1) 
15
1 -0.65
10 0.14
11 0.71
12 -0.3
2 -0.57
20 0.15
24 0.15
25 0.15
26 0.5
3 0.14
5 0.14
6 0.14
7 -0.12
8 -0.28
9 -0.29

>  <PUBCHEM_EFFECTIVE_ROTOR_COUNT>  (1) 
2.8

>  <PUBCHEM_PHARMACOPHORE_FEATURES>  (1) 
4
1 1 acceptor
1 2 acceptor
3 1 2 11 anion
6 3 4 5 6 7 9 rings

>  <PUBCHEM_HEAVY_ATOM_COUNT>  (1) 
12

>  <PUBCHEM_ATOM_DEF_STEREO_COUNT>  (1) 
0

>  <PUBCHEM_ATOM_UDEF_STEREO_COUNT>  (1) 
1

>  <PUBCHEM_BOND_DEF_STEREO_COUNT>  (1) 
0

>  <PUBCHEM_BOND_UDEF_STEREO_COUNT>  (1) 
0

>  <PUBCHEM_ISOTOPIC_ATOM_COUNT>  (1) 
0

>  <PUBCHEM_COMPONENT_COUNT>  (1) 
1

>  <PUBCHEM_CACTVS_TAUTO_COUNT>  (1) 
1

>  <PUBCHEM_CONFORMER_ID>  (1) 
000004E800000001

>  <PUBCHEM_MMFF94_ENERGY>  (1) 
16.9665

>  <PUBCHEM_FEATURE_SELFOVERLAP>  (1) 
20.351

>  <PUBCHEM_SHAPE_FINGERPRINT>  (1) 
10130415 120 17675922110194073744
10219947 1 16153427246557666966
11062470 55 16128658565282646090
11132069 177 18409445869147180193
11401426 45 18334283284532200445
11543360 7 16415182499414663589
12032990 46 18409175432273440995
13760787 5 17385445414258676414
14144814 61 18259702298159861211
14325111 11 18413108355174338314
14993402 34 18040158434907166982
15219456 202 17846779594316032012
15310529 11 15913329074327848378
16945 1 18113339708300993742
17846911 113 18335975415673710048
18186145 218 18130793321678924712
19026448 4 17418376887016888044
19026448 5 15985105206126274399
193761 8 17541373544767723006
20645476 183 16878803710860488786
23235685 24 18261109664432367702
23380061 330 18409164428588028949
23402539 116 18339911667548951036
23402655 69 18191849155995403773
23463225 33 17968372356106985946
23559900 14 18341899576467364726
2748010 2 17900267695022302543
449060 50 17489021669154265728
57812782 119 17989486337755496719
69090 78 17917704738226709591

>  <PUBCHEM_SHAPE_MULTIPOLES>  (1) 
235.22
6.31
1.29
0.91
0.17
0.01
0.05
0.02
-0.43
0.49
0.03
-0.78
0.03
0.09

>  <PUBCHEM_SHAPE_SELFOVERLAP>  (1) 
475.062

>  <PUBCHEM_SHAPE_VOLUME>  (1) 
136.8

>  <PUBCHEM_COORDINATE_TYPE>  (1) 
2
5
10

$$$$
