12577
     RDKit          3D

 11 11  0  0  0  0  0  0  0  0999 V2000
    0.0400    0.5503    0.0000 O   0  0  0  0  0  0  0  0  0  0  0  0
   -3.3947   -0.4831   -0.0006 O   0  0  0  0  0  0  0  0  0  0  0  0
   -2.5584    1.6304    0.0004 O   0  0  0  0  0  0  0  0  0  0  0  0
    3.4178   -0.3552    0.0007 O   0  0  0  0  0  0  0  0  0  0  0  0
    2.4335    1.6070   -0.0006 O   0  0  0  0  0  0  0  0  0  0  0  0
    2.3609    0.3426    0.0000 N   0  0  0  0  0  0  0  0  0  0  0  0
   -1.0659   -0.2394    0.0002 C   0  0  0  0  0  0  0  0  0  0  0  0
    1.1129   -0.2835   -0.0004 C   0  0  0  0  0  0  0  0  0  0  0  0
   -0.7109   -1.5682    0.0002 C   0  0  0  0  0  0  0  0  0  0  0  0
    0.7042   -1.5969   -0.0003 C   0  0  0  0  0  0  0  0  0  0  0  0
   -2.3393    0.3960    0.0004 C   0  0  0  0  0  0  0  0  0  0  0  0
  1  7  1  0
  1  8  1  0
  2 11  1  0
  3 11  2  0
  4  6  1  0
  5  6  2  0
  6  8  1  0
  7  9  2  0
  7 11  1  0
  8 10  2  0
  9 10  1  0
M  CHG  2   4  -1   6   1
M  END
>  <PUBCHEM_COMPOUND_CID>  (1) 
12577

>  <PUBCHEM_CONFORMER_RMSD>  (1) 
0.4

>  <PUBCHEM_CONFORMER_DIVERSEORDER>  (1) 
1
2

>  <PUBCHEM_MMFF94_PARTIAL_CHARGES>  (1) 
14
1 -0.28
10 -0.15
11 0.81
12 0.15
13 0.15
14 0.5
2 -0.65
3 -0.57
4 -0.52
5 -0.52
6 0.96
7 0.05
8 0.22
9 -0.15

>  <PUBCHEM_EFFECTIVE_ROTOR_COUNT>  (1) 
2

>  <PUBCHEM_PHARMACOPHORE_FEATURES>  (1) 
8
1 1 acceptor
1 2 acceptor
1 3 acceptor
1 4 acceptor
1 4 anion
1 5 acceptor
3 2 3 11 anion
5 1 7 8 9 10 rings

>  <PUBCHEM_HEAVY_ATOM_COUNT>  (1) 
11

>  <PUBCHEM_ATOM_DEF_STEREO_COUNT>  (1) 
0

>  <PUBCHEM_ATOM_UDEF_STEREO_COUNT>  (1) 
0

>  <PUBCHEM_BOND_DEF_STEREO_COUNT>  (1) 
0

>  <PUBCHEM_BOND_UDEF_STEREO_COUNT>  (1) 
0

>  <PUBCHEM_ISOTOPIC_ATOM_COUNT>  (1) 
0

>  <PUBCHEM_COMPONENT_COUNT>  (1) 
1

>  <PUBCHEM_CACTVS_TAUTO_COUNT>  (1) 
1

>  <PUBCHEM_CONFORMER_ID>  (1) 
0000312100000001

>  <PUBCHEM_MMFF94_ENERGY>  (1) 
14.9025

>  <PUBCHEM_FEATURE_SELFOVERLAP>  (1) 
40.751

>  <PUBCHEM_SHAPE_FINGERPRINT>  (1) 
12932764 1 17203034227887682519
13380535 76 18410572885687913259
14325111 11 18410856559645096800
14390081 3 18412261722821050177
16945 1 18410855468760573735
19973954 147 18267306430684095857
20653085 51 18341343235561295968
21028194 46 18410858767258267472
21040471 1 18410575093327080898
23402655 69 18125142859169398293
23552423 10 18266740169369132479
2748010 2 17835517502776369447
29004967 10 9007053569555904310
5084963 1 18202002135557909859

>  <PUBCHEM_SHAPE_MULTIPOLES>  (1) 
192.05
4.69
1.58
0.56
0.22
0
0
1.33
0
-0.02
0
-0.02
-0.04
0

>  <PUBCHEM_SHAPE_SELFOVERLAP>  (1) 
405.37

>  <PUBCHEM_SHAPE_VOLUME>  (1) 
108.5

>  <PUBCHEM_COORDINATE_TYPE>  (1) 
2
5
10

$$$$
