12574
     RDKit          3D

 10 10  0  0  0  0  0  0  0  0999 V2000
   -3.3170    1.6503    0.0000 I   0  0  0  0  0  0  0  0  0  0  0  0
    2.9531   -0.3910   -0.0002 O   0  0  0  0  0  0  0  0  0  0  0  0
    2.1867    1.6661   -0.0002 O   0  0  0  0  0  0  0  0  0  0  0  0
    2.0002    0.4252    0.0001 N   0  0  0  0  0  0  0  0  0  0  0  0
    0.6696   -0.0705    0.0003 C   0  0  0  0  0  0  0  0  0  0  0  0
   -0.4064    0.8173    0.0002 C   0  0  0  0  0  0  0  0  0  0  0  0
    0.4387   -1.4462    0.0002 C   0  0  0  0  0  0  0  0  0  0  0  0
   -1.7132    0.3293   -0.0001 C   0  0  0  0  0  0  0  0  0  0  0  0
   -0.8679   -1.9342   -0.0001 C   0  0  0  0  0  0  0  0  0  0  0  0
   -1.9438   -1.0465   -0.0002 C   0  0  0  0  0  0  0  0  0  0  0  0
  1  8  1  0
  2  4  1  0
  3  4  2  0
  4  5  1  0
  5  6  2  0
  5  7  1  0
  6  8  1  0
  7  9  2  0
  8 10  2  0
  9 10  1  0
M  CHG  2   2  -1   4   1
M  END
>  <PUBCHEM_COMPOUND_CID>  (1) 
12574

>  <PUBCHEM_CONFORMER_RMSD>  (1) 
0.4

>  <PUBCHEM_CONFORMER_DIVERSEORDER>  (1) 
1

>  <PUBCHEM_MMFF94_PARTIAL_CHARGES>  (1) 
14
1 -0.08
10 -0.15
11 0.15
12 0.15
13 0.15
14 0.15
2 -0.52
3 -0.52
4 0.91
5 0.13
6 -0.15
7 -0.15
8 0.08
9 -0.15

>  <PUBCHEM_EFFECTIVE_ROTOR_COUNT>  (1) 
1

>  <PUBCHEM_PHARMACOPHORE_FEATURES>  (1) 
5
1 1 hydrophobe
1 2 acceptor
1 2 anion
1 3 acceptor
6 5 6 7 8 9 10 rings

>  <PUBCHEM_HEAVY_ATOM_COUNT>  (1) 
10

>  <PUBCHEM_ATOM_DEF_STEREO_COUNT>  (1) 
0

>  <PUBCHEM_ATOM_UDEF_STEREO_COUNT>  (1) 
0

>  <PUBCHEM_BOND_DEF_STEREO_COUNT>  (1) 
0

>  <PUBCHEM_BOND_UDEF_STEREO_COUNT>  (1) 
0

>  <PUBCHEM_ISOTOPIC_ATOM_COUNT>  (1) 
0

>  <PUBCHEM_COMPONENT_COUNT>  (1) 
1

>  <PUBCHEM_CACTVS_TAUTO_COUNT>  (1) 
1

>  <PUBCHEM_CONFORMER_ID>  (1) 
0000311E00000001

>  <PUBCHEM_MMFF94_ENERGY>  (1) 
26.9601

>  <PUBCHEM_FEATURE_SELFOVERLAP>  (1) 
25.453

>  <PUBCHEM_SHAPE_FINGERPRINT>  (1) 
13380535 76 18338795607391318199
14325111 11 18410856568367088581
15775835 57 18261116244406849636
16945 1 18338516326768258471
19973954 147 18266179611469674564
20653085 51 18409459093282809009
21028194 46 18335988584212354865
21040471 1 18410575076252583331
21524375 3 18410289169154446829
23235685 24 18339073783643202473
23402655 69 18125143945891173589
23552423 10 18188770694566201158
23559900 14 18272094877686603404
241688 4 16538767258705913811
2748010 2 18411704317533134637
369184 2 18270119152947031410
5084963 1 18201157740650454850
528862 383 18045777888792521019
528886 8 18339074891702456553

>  <PUBCHEM_SHAPE_MULTIPOLES>  (1) 
201.01
4.46
2.01
0.63
1.19
0.42
0
-2.56
0
0.12
0
0.18
-0.01
0

>  <PUBCHEM_SHAPE_SELFOVERLAP>  (1) 
397.623

>  <PUBCHEM_SHAPE_VOLUME>  (1) 
123.3

>  <PUBCHEM_COORDINATE_TYPE>  (1) 
2
5
10

$$$$
