12587
     RDKit          3D

  8  7  0  0  0  0  0  0  0  0999 V2000
    2.6928   -1.0924   -0.1643 O   0  0  0  0  0  0  0  0  0  0  0  0
    2.2892    1.1165    0.1736 O   0  0  0  0  0  0  0  0  0  0  0  0
   -2.0065    0.4043    0.0851 C   0  0  0  0  0  0  0  0  0  0  0  0
   -0.5139    0.7816    0.0791 C   0  0  0  0  0  0  0  0  0  0  0  0
    0.4177   -0.4219   -0.0765 C   0  0  0  0  0  0  0  0  0  0  0  0
   -2.3494   -0.6025    1.1841 C   0  0  0  0  0  0  0  0  0  0  0  0
   -2.4036   -0.1653   -1.2790 C   0  0  0  0  0  0  0  0  0  0  0  0
    1.8737   -0.0204   -0.0021 C   0  0  0  0  0  0  0  0  0  0  0  0
  1  8  1  0
  2  8  2  0
  3  4  1  0
  3  6  1  0
  3  7  1  0
  4  5  1  0
  5  8  1  0
M  END
>  <PUBCHEM_COMPOUND_CID>  (1) 
12587

>  <PUBCHEM_CONFORMER_RMSD>  (1) 
0.6

>  <PUBCHEM_CONFORMER_DIVERSEORDER>  (1) 
1
4
3
2

>  <PUBCHEM_MMFF94_PARTIAL_CHARGES>  (1) 
5
1 -0.65
2 -0.57
20 0.5
5 0.06
8 0.66

>  <PUBCHEM_EFFECTIVE_ROTOR_COUNT>  (1) 
3

>  <PUBCHEM_PHARMACOPHORE_FEATURES>  (1) 
4
1 1 acceptor
1 2 acceptor
3 1 2 8 anion
3 3 6 7 hydrophobe

>  <PUBCHEM_HEAVY_ATOM_COUNT>  (1) 
8

>  <PUBCHEM_ATOM_DEF_STEREO_COUNT>  (1) 
0

>  <PUBCHEM_ATOM_UDEF_STEREO_COUNT>  (1) 
0

>  <PUBCHEM_BOND_DEF_STEREO_COUNT>  (1) 
0

>  <PUBCHEM_BOND_UDEF_STEREO_COUNT>  (1) 
0

>  <PUBCHEM_ISOTOPIC_ATOM_COUNT>  (1) 
0

>  <PUBCHEM_COMPONENT_COUNT>  (1) 
1

>  <PUBCHEM_CACTVS_TAUTO_COUNT>  (1) 
1

>  <PUBCHEM_CONFORMER_ID>  (1) 
0000312B00000001

>  <PUBCHEM_MMFF94_ENERGY>  (1) 
6.0834

>  <PUBCHEM_FEATURE_SELFOVERLAP>  (1) 
20.355

>  <PUBCHEM_SHAPE_FINGERPRINT>  (1) 
10857977 72 17895758524927980881
12716758 59 17023173895275736065
12897270 3 17967248680665992527
12932741 1 17967249801652437292
12932764 1 17846782914041103624
14390081 3 13118294675951937558
23235687 12 17418097598205041348
29004967 10 18335144214768592825
3248919 1 18260544528425183672
369184 2 18342176665665287449
5460574 1 8935002568240008584

>  <PUBCHEM_SHAPE_MULTIPOLES>  (1) 
152.9
4.35
1.02
0.99
1.17
0.19
0.09
0.3
0.46
-0.54
-0.01
0
-0.11
0.66

>  <PUBCHEM_SHAPE_SELFOVERLAP>  (1) 
277.619

>  <PUBCHEM_SHAPE_VOLUME>  (1) 
98.4

>  <PUBCHEM_COORDINATE_TYPE>  (1) 
2
5
10

$$$$
