12595
     RDKit          3D

 20 23  0  0  1  0  0  0  0  0999 V2000
   -4.8664   -1.2925    0.2657 O   0  0  0  0  0  0  0  0  0  0  0  0
    5.8196   -0.3755    0.0768 O   0  0  0  0  0  0  0  0  0  0  0  0
   -2.7250   -0.1262    0.5961 C   0  0  0  0  0  0  0  0  0  0  0  0
   -2.0450    0.9968   -0.2206 C   0  0  0  0  0  0  0  0  0  0  0  0
   -4.1444   -0.1061   -0.0072 C   0  0  0  0  0  0  0  0  0  0  0  0
   -2.0181   -1.4905    0.3954 C   0  0  0  0  0  0  0  0  0  0  0  0
   -2.5951    0.8292   -1.6487 C   0  0  0  0  0  0  0  0  0  0  0  0
   -0.5364    0.9724   -0.1205 C   0  0  0  0  0  0  0  0  0  0  0  0
   -3.9285    0.0909   -1.5072 C   0  0  0  0  0  0  0  0  0  0  0  0
    0.1392   -0.3658   -0.3550 C   0  0  0  0  0  0  0  0  0  0  0  0
   -0.4982   -1.4135    0.5804 C   0  0  0  0  0  0  0  0  0  0  0  0
   -2.7777    0.2108    2.0959 C   0  0  0  0  0  0  0  0  0  0  0  0
    1.6556   -0.3458   -0.2248 C   0  0  0  0  0  0  0  0  0  0  0  0
    0.1494    2.0737    0.2264 C   0  0  0  0  0  0  0  0  0  0  0  0
    1.6308    2.1175    0.4114 C   0  0  0  0  0  0  0  0  0  0  0  0
    2.3477    0.8224    0.1383 C   0  0  0  0  0  0  0  0  0  0  0  0
    2.3948   -1.5077   -0.5116 C   0  0  0  0  0  0  0  0  0  0  0  0
    3.7487    0.7978    0.2425 C   0  0  0  0  0  0  0  0  0  0  0  0
    3.7860   -1.5201   -0.4077 C   0  0  0  0  0  0  0  0  0  0  0  0
    4.4631   -0.3679   -0.0256 C   0  0  0  0  0  0  0  0  0  0  0  0
  1  5  1  0
  2 20  1  0
  3  4  1  0
  3  5  1  0
  3  6  1  0
  3 12  1  0
  4  7  1  0
  4  8  1  0
  5  9  1  0
  6 11  1  0
  7  9  1  0
  8 10  1  0
  8 14  2  0
 10 11  1  0
 10 13  1  0
 13 16  2  0
 13 17  1  0
 14 15  1  0
 15 16  1  0
 16 18  1  0
 17 19  2  0
 18 20  2  0
 19 20  1  0
M  END
>  <PUBCHEM_COMPOUND_CID>  (1) 
12595

>  <PUBCHEM_CONFORMER_RMSD>  (1) 
0.6

>  <PUBCHEM_CONFORMER_DIVERSEORDER>  (1) 
4
5
6
2
7
11
1
10
9
3
8

>  <PUBCHEM_MMFF94_PARTIAL_CHARGES>  (1) 
20
1 -0.68
10 0.28
13 -0.14
14 -0.29
15 0.28
16 -0.14
17 -0.15
18 -0.15
19 -0.15
2 -0.53
20 0.08
35 0.15
38 0.4
39 0.15
4 0.14
40 0.15
41 0.15
42 0.45
5 0.28
8 -0.28

>  <PUBCHEM_EFFECTIVE_ROTOR_COUNT>  (1) 
1.2

>  <PUBCHEM_PHARMACOPHORE_FEATURES>  (1) 
7
1 1 acceptor
1 1 donor
1 2 donor
5 3 4 5 7 9 rings
6 13 16 17 18 19 20 rings
6 3 4 6 8 10 11 rings
6 8 10 13 14 15 16 rings

>  <PUBCHEM_HEAVY_ATOM_COUNT>  (1) 
20

>  <PUBCHEM_ATOM_DEF_STEREO_COUNT>  (1) 
0

>  <PUBCHEM_ATOM_UDEF_STEREO_COUNT>  (1) 
4

>  <PUBCHEM_BOND_DEF_STEREO_COUNT>  (1) 
0

>  <PUBCHEM_BOND_UDEF_STEREO_COUNT>  (1) 
0

>  <PUBCHEM_ISOTOPIC_ATOM_COUNT>  (1) 
0

>  <PUBCHEM_COMPONENT_COUNT>  (1) 
1

>  <PUBCHEM_CACTVS_TAUTO_COUNT>  (1) 
9

>  <PUBCHEM_CONFORMER_ID>  (1) 
0000313300000004

>  <PUBCHEM_MMFF94_ENERGY>  (1) 
56.5475

>  <PUBCHEM_FEATURE_SELFOVERLAP>  (1) 
35.736

>  <PUBCHEM_SHAPE_FINGERPRINT>  (1) 
10366900 7 17530683229681972073
11132069 177 18410288142615006776
11315181 36 18113337492720491196
11471102 20 18413106182437974668
11578080 2 13480801585250470559
11796584 16 16950558844938124666
12011746 2 18409445881968629430
12186901 62 16950275200812849469
12236239 1 17131833170271052789
12403259 226 18335696191460562821
12403259 415 18187637025095311765
124424 183 18260547831402558530
12553582 1 18341347621171570788
13140716 1 18269835492322350386
13224815 77 18411986857936008894
13288520 33 18413110545660432870
13544653 18 18337678524994130220
13583140 156 17022624182464333640
13862211 1 18341044151820337694
14115302 16 18040724683696087038
14386348 63 18407478860204176282
15163728 17 14998223057697424423
15196674 1 18411420596394191992
15309172 13 17918274238084177262
15375358 24 18408035217556800112
15788980 27 17240483594072053958
15848702 151 17989214706754424326
16945 1 18412270557384324120
17349148 13 18273491282216308722
17357779 13 18337380574138211844
1813 80 17988096520994207732
18186145 218 18187356606659255437
19141452 34 18340772632583243271
19489759 90 16949997019627674743
200 152 17989483022183188583
20028762 73 17988361597886587615
20279233 1 18333734606691962542
20645477 70 18408882975265762548
21029758 11 18341889675618629625
21033648 29 18187914097361480029
21267235 1 18341059562025780710
22094290 60 16660364774867135733
221490 88 18265054819543101026
23175994 123 18408609149356878332
23402539 116 18271523109231743924
23493267 7 16805319964162407753
23557571 272 17458340823441276124
23559900 14 18335979852871039184
2748010 2 18264208191305061848
296302 2 9295291646663157385
3286 77 18340772641083266733
4921388 177 15719404931503439625
5104073 3 18200027318849886490
69090 78 18412823603206620359
77492 1 17275387629276857101
8809292 202 18260833742996310962
9709674 26 18190460661001898171

>  <PUBCHEM_SHAPE_MULTIPOLES>  (1) 
399.85
9.33
1.81
1.19
4.62
0.32
0.09
-2.47
-0.54
0.59
0.11
-1.45
0.1
0.65

>  <PUBCHEM_SHAPE_SELFOVERLAP>  (1) 
877.92

>  <PUBCHEM_SHAPE_VOLUME>  (1) 
214.8

>  <PUBCHEM_COORDINATE_TYPE>  (1) 
2
5
10

$$$$
