12605
     RDKit          3D

 16 18  0  0  0  0  0  0  0  0999 V2000
    0.2927   -1.1668    0.0004 N   0  0  0  0  0  0  0  0  0  0  0  0
    0.6701    1.5614   -0.0002 N   0  0  0  0  0  0  0  0  0  0  0  0
   -2.2578   -2.2495   -0.0010 N   0  0  0  0  0  0  0  0  0  0  0  0
   -4.4825   -0.5126    0.0002 N   0  0  0  0  0  0  0  0  0  0  0  0
   -0.7622   -0.3367    0.0002 C   0  0  0  0  0  0  0  0  0  0  0  0
   -0.5705    1.0488    0.0000 C   0  0  0  0  0  0  0  0  0  0  0  0
   -2.0601   -0.8435    0.0003 C   0  0  0  0  0  0  0  0  0  0  0  0
    1.5334   -0.6542    0.0001 C   0  0  0  0  0  0  0  0  0  0  0  0
    1.7250    0.7313   -0.0001 C   0  0  0  0  0  0  0  0  0  0  0  0
   -3.1678    0.0021    0.0002 C   0  0  0  0  0  0  0  0  0  0  0  0
   -1.6821    1.8889   -0.0002 C   0  0  0  0  0  0  0  0  0  0  0  0
   -2.9779    1.3757    0.0000 C   0  0  0  0  0  0  0  0  0  0  0  0
    2.6451   -1.4943    0.0002 C   0  0  0  0  0  0  0  0  0  0  0  0
    3.0230    1.2381   -0.0002 C   0  0  0  0  0  0  0  0  0  0  0  0
    3.9407   -0.9812    0.0001 C   0  0  0  0  0  0  0  0  0  0  0  0
    4.1307    0.3925   -0.0002 C   0  0  0  0  0  0  0  0  0  0  0  0
  1  5  2  0
  1  8  1  0
  2  6  2  0
  2  9  1  0
  3  7  1  0
  4 10  1  0
  5  6  1  0
  5  7  1  0
  6 11  1  0
  7 10  2  0
  8  9  2  0
  8 13  1  0
  9 14  1  0
 10 12  1  0
 11 12  2  0
 13 15  2  0
 14 16  2  0
 15 16  1  0
M  END
>  <PUBCHEM_COMPOUND_CID>  (1) 
12605

>  <PUBCHEM_CONFORMER_RMSD>  (1) 
0.4

>  <PUBCHEM_CONFORMER_DIVERSEORDER>  (1) 
1

>  <PUBCHEM_MMFF94_PARTIAL_CHARGES>  (1) 
26
1 -0.62
10 0.1
11 -0.15
12 -0.15
13 -0.15
14 -0.15
15 -0.15
16 -0.15
17 0.15
18 0.15
19 0.15
2 -0.62
20 0.15
21 0.15
22 0.15
23 0.4
24 0.4
25 0.4
26 0.4
3 -0.9
4 -0.9
5 0.31
6 0.31
7 0.1
8 0.31
9 0.31

>  <PUBCHEM_EFFECTIVE_ROTOR_COUNT>  (1) 
0

>  <PUBCHEM_PHARMACOPHORE_FEATURES>  (1) 
9
1 1 acceptor
1 2 acceptor
1 3 cation
1 3 donor
1 4 cation
1 4 donor
6 1 2 5 6 8 9 rings
6 5 6 7 10 11 12 rings
6 8 9 13 14 15 16 rings

>  <PUBCHEM_HEAVY_ATOM_COUNT>  (1) 
16

>  <PUBCHEM_ATOM_DEF_STEREO_COUNT>  (1) 
0

>  <PUBCHEM_ATOM_UDEF_STEREO_COUNT>  (1) 
0

>  <PUBCHEM_BOND_DEF_STEREO_COUNT>  (1) 
0

>  <PUBCHEM_BOND_UDEF_STEREO_COUNT>  (1) 
0

>  <PUBCHEM_ISOTOPIC_ATOM_COUNT>  (1) 
0

>  <PUBCHEM_COMPONENT_COUNT>  (1) 
1

>  <PUBCHEM_CACTVS_TAUTO_COUNT>  (1) 
10

>  <PUBCHEM_CONFORMER_ID>  (1) 
0000313D00000001

>  <PUBCHEM_MMFF94_ENERGY>  (1) 
73.1074

>  <PUBCHEM_FEATURE_SELFOVERLAP>  (1) 
45.753

>  <PUBCHEM_SHAPE_FINGERPRINT>  (1) 
10608611 8 18411415098952357512
10616163 171 18412266163828245142
10967382 1 18410573989578378182
11132069 177 18410568492183808752
11471102 20 18410289220546315988
11806522 49 18409447020303754759
12032990 46 18410860936264244204
12251169 10 18411420613405080706
13140716 1 18195245748263813761
13221675 6 18410292505879799178
13380535 76 18412262809284447223
14115302 16 18040724700707287583
14144814 61 18410573950891972184
14325111 11 18410855434585490660
15196674 1 18410575054609000260
15219456 202 18341049636071321652
15442244 35 18194401091817053594
15536298 74 18342457032762020712
16945 1 18410574015258628101
17802600 8 18411131429046710152
17804303 29 18341335504804987244
18186145 218 18040714723582557342
18522853 276 18412824681169285840
200 152 18059564789937380253
20510252 161 18272653394326842777
20645477 70 18412260601724180198
21029758 11 18343294873512997985
21267235 1 18410583872372245634
21501502 16 18411139112843345000
21501925 9 18409721851187585176
221490 88 18336836389461058002
2334 1 18410575119302385636
23402539 116 18343575240524783479
23402655 69 18340200804346768013
23463225 33 18408886213697341140
23559900 14 18269833130370210986
2748010 2 18411417336392532740
2871803 45 18334289859937369415
3312278 4 18411140263746731530
335352 9 18050285873312332636
34934 24 18410284839389614550
474 4 17169000039841467772
5104073 3 18411419475265219456
69090 78 18413666907387398559
7364860 26 18341049739409571224
8809292 202 18334017232572410611
9709674 26 18413112731894251870

>  <PUBCHEM_SHAPE_MULTIPOLES>  (1) 
309.35
7.27
1.93
0.6
0.79
0.11
0
0.77
0
-0.47
0
0.03
-0.01
0

>  <PUBCHEM_SHAPE_SELFOVERLAP>  (1) 
702.982

>  <PUBCHEM_SHAPE_VOLUME>  (1) 
159.1

>  <PUBCHEM_COORDINATE_TYPE>  (1) 
2
5
10

$$$$
