1260
     RDKit          3D

 28 29  0  0  1  0  0  0  0  0999 V2000
    2.3991    1.5454   -1.0568 S   0  0  0  0  0  0  0  0  0  0  0  0
   -1.3008   -2.6933   -0.6875 S   0  0  0  0  0  0  0  0  0  0  0  0
    2.7065    1.7986   -2.4516 O   0  0  0  0  0  0  0  0  0  0  0  0
    2.9635    2.3812   -0.0140 O   0  0  0  0  0  0  0  0  0  0  0  0
    4.9339   -0.8685    0.8941 O   0  0  0  0  0  0  0  0  0  0  0  0
   -0.9543   -3.5561   -1.8000 O   0  0  0  0  0  0  0  0  0  0  0  0
   -2.5287   -1.9217   -0.7017 O   0  0  0  0  0  0  0  0  0  0  0  0
    5.1399    0.8013    3.0136 O   0  0  0  0  0  0  0  0  0  0  0  0
   -3.4887    1.6799   -0.4745 O   0  0  0  0  0  0  0  0  0  0  0  0
    2.7066   -0.0898   -0.6966 N   0  0  0  0  0  0  0  0  0  0  0  0
   -0.0130   -1.6345   -0.3474 N   0  0  0  0  0  0  0  0  0  0  0  0
    3.9047    0.5522    2.4000 N   0  0  0  0  0  0  0  0  0  0  0  0
    1.3759   -2.0867   -0.6134 C   0  0  0  0  0  0  0  0  0  0  0  0
    2.5915   -0.5228    0.7231 C   0  0  0  0  0  0  0  0  0  0  0  0
    2.2095   -1.9968    0.6529 C   0  0  0  0  0  0  0  0  0  0  0  0
    2.0674   -1.1232   -1.5688 C   0  0  0  0  0  0  0  0  0  0  0  0
    3.9315   -0.3116    1.3367 C   0  0  0  0  0  0  0  0  0  0  0  0
    0.6409    1.5847   -0.8829 C   0  0  0  0  0  0  0  0  0  0  0  0
   -1.3131   -3.6835    0.7895 C   0  0  0  0  0  0  0  0  0  0  0  0
   -0.1750    1.3211   -1.9831 C   0  0  0  0  0  0  0  0  0  0  0  0
    0.0692    1.8805    0.3545 C   0  0  0  0  0  0  0  0  0  0  0  0
   -1.5627    1.3535   -1.8459 C   0  0  0  0  0  0  0  0  0  0  0  0
   -1.3185    1.9129    0.4916 C   0  0  0  0  0  0  0  0  0  0  0  0
   -2.1345    1.6495   -0.6086 C   0  0  0  0  0  0  0  0  0  0  0  0
   -4.0228    1.3308    0.8016 C   0  0  0  0  0  0  0  0  0  0  0  0
   -5.3891    0.6896    0.6041 C   0  0  0  0  0  0  0  0  0  0  0  0
   -6.0282    0.3039    1.9351 C   0  0  0  0  0  0  0  0  0  0  0  0
   -7.4106   -0.2966    1.7360 C   0  0  0  0  0  0  0  0  0  0  0  0
  1  3  2  0
  1  4  2  0
  1 10  1  0
  1 18  1  0
  2  6  2  0
  2  7  2  0
  2 11  1  0
  2 19  1  0
  5 17  2  0
  8 12  1  0
  9 24  1  0
  9 25  1  0
 10 14  1  0
 10 16  1  0
 11 13  1  0
 12 17  1  0
 13 15  1  0
 13 16  1  0
 14 15  1  0
 14 17  1  0
 18 20  2  0
 18 21  1  0
 20 22  1  0
 21 23  2  0
 22 24  2  0
 23 24  1  0
 25 26  1  0
 26 27  1  0
 27 28  1  0
M  END
>  <PUBCHEM_COMPOUND_CID>  (1) 
1260

>  <PUBCHEM_CONFORMER_RMSD>  (1) 
1.2

>  <PUBCHEM_CONFORMER_DIVERSEORDER>  (1) 
1
83
31
19
88
60
94
108
44
9
58
40
81
86
77
27
64
87
25
29
106
46
93
66
47
75
80
8
99
48
3
76
30
12
102
7
107
98
14
105
78
69
97
43
96
17
49
37
54
70
84
45
21
90
22
20
100
5
63
79
42
91
74
95
104
39
82
89
103
85
53
92
15
57
67
59
41
56
16
23
18
65
33
34
36
10
68
26
38
24
35
62
32
61
51
4
72
71
28
50
73
55
52
2
6
101
11
13

>  <PUBCHEM_MMFF94_PARTIAL_CHARGES>  (1) 
31
1 1.45
10 -0.85
11 -0.91
12 -0.39
13 0.36
14 0.42
16 0.36
17 0.57
18 -0.01
19 0.11
2 1.33
20 -0.15
21 -0.15
22 -0.15
23 -0.15
24 0.08
25 0.28
3 -0.65
35 0.42
36 0.37
4 -0.65
40 0.15
41 0.15
42 0.15
43 0.15
44 0.4
5 -0.57
6 -0.65
7 -0.65
8 -0.44
9 -0.36

>  <PUBCHEM_EFFECTIVE_ROTOR_COUNT>  (1) 
11

>  <PUBCHEM_PHARMACOPHORE_FEATURES>  (1) 
11
1 11 donor
1 12 donor
1 28 hydrophobe
1 3 acceptor
1 4 acceptor
1 5 acceptor
1 6 acceptor
1 7 acceptor
1 9 acceptor
5 10 13 14 15 16 rings
6 18 20 21 22 23 24 rings

>  <PUBCHEM_HEAVY_ATOM_COUNT>  (1) 
28

>  <PUBCHEM_ATOM_DEF_STEREO_COUNT>  (1) 
0

>  <PUBCHEM_ATOM_UDEF_STEREO_COUNT>  (1) 
2

>  <PUBCHEM_BOND_DEF_STEREO_COUNT>  (1) 
0

>  <PUBCHEM_BOND_UDEF_STEREO_COUNT>  (1) 
0

>  <PUBCHEM_ISOTOPIC_ATOM_COUNT>  (1) 
0

>  <PUBCHEM_COMPONENT_COUNT>  (1) 
1

>  <PUBCHEM_CACTVS_TAUTO_COUNT>  (1) 
3

>  <PUBCHEM_CONFORMER_ID>  (1) 
000004EC00000001

>  <PUBCHEM_MMFF94_ENERGY>  (1) 
51.674

>  <PUBCHEM_FEATURE_SELFOVERLAP>  (1) 
55.859

>  <PUBCHEM_SHAPE_FINGERPRINT>  (1) 
104564 63 18049451631807727374
11578080 2 17489307546583380270
12422481 6 18407759231548488931
12596602 18 16845576379859756779
12633257 1 18412539933606856605
131258 38 17313107496433067186
13140716 1 18336543923446622646
14178342 30 17976543806039114709
14537116 161 9583243782903237427
14787075 74 17773852282038003321
15324884 4 17756966940710769020
1979834 28 18341626867355465667
20261772 1 18334290933842658762
20905425 154 18048877699923799022
21197605 99 18266478658033728539
21421861 104 17968097581062849258
22956985 138 17827927217697215675
23559900 14 17978239253322430677
392239 28 18058712642049245979
427121 178 18060134310905745730
4340502 62 18060421304952615169
465052 167 17894643543202570433
469060 322 17895175706582728143
6287921 2 17914062997540346895
6438718 38 18130504248995135063
7064713 232 18342459227411187833

>  <PUBCHEM_SHAPE_MULTIPOLES>  (1) 
527.9
11.04
3.58
2.28
16.73
2.99
0.67
-1.43
10.3
0.39
-1.32
-1.74
-0.34
-0.23

>  <PUBCHEM_SHAPE_SELFOVERLAP>  (1) 
1057.359

>  <PUBCHEM_SHAPE_VOLUME>  (1) 
312.4

>  <PUBCHEM_COORDINATE_TYPE>  (1) 
2
5
10

$$$$
