12608
     RDKit          3D

 10 10  0  0  1  0  0  0  0  0999 V2000
    1.7260   -0.0361   -0.0625 P   0  0  0  0  0  0  0  0  0  0  0  0
    2.2293    1.3036   -0.7292 F   0  0  0  0  0  0  0  0  0  0  0  0
    2.3491   -1.1701   -0.8340 O   0  0  0  0  0  0  0  0  0  0  0  0
   -0.0398   -0.0189   -0.0288 C   0  0  0  0  0  0  0  0  0  0  0  0
   -0.7255    1.1955   -0.0002 C   0  0  0  0  0  0  0  0  0  0  0  0
   -0.7489   -1.2203   -0.0312 C   0  0  0  0  0  0  0  0  0  0  0  0
    2.3024   -0.0632    1.6414 C   0  0  0  0  0  0  0  0  0  0  0  0
   -2.1201    1.2088    0.0260 C   0  0  0  0  0  0  0  0  0  0  0  0
   -2.1435   -1.2070   -0.0051 C   0  0  0  0  0  0  0  0  0  0  0  0
   -2.8290    0.0076    0.0236 C   0  0  0  0  0  0  0  0  0  0  0  0
  1  2  1  0
  1  3  2  0
  1  4  1  0
  1  7  1  0
  4  5  2  0
  4  6  1  0
  5  8  1  0
  6  9  2  0
  8 10  2  0
  9 10  1  0
M  END
>  <PUBCHEM_COMPOUND_CID>  (1) 
12608

>  <PUBCHEM_CONFORMER_RMSD>  (1) 
0.4

>  <PUBCHEM_CONFORMER_DIVERSEORDER>  (1) 
1
3
2
4

>  <PUBCHEM_MMFF94_PARTIAL_CHARGES>  (1) 
14
1 1.17
10 -0.15
14 0.15
15 0.15
16 0.15
17 0.15
18 0.15
2 -0.33
3 -0.7
4 -0.14
5 -0.15
6 -0.15
8 -0.15
9 -0.15

>  <PUBCHEM_EFFECTIVE_ROTOR_COUNT>  (1) 
1

>  <PUBCHEM_PHARMACOPHORE_FEATURES>  (1) 
2
1 3 acceptor
6 4 5 6 8 9 10 rings

>  <PUBCHEM_HEAVY_ATOM_COUNT>  (1) 
10

>  <PUBCHEM_ATOM_DEF_STEREO_COUNT>  (1) 
0

>  <PUBCHEM_ATOM_UDEF_STEREO_COUNT>  (1) 
1

>  <PUBCHEM_BOND_DEF_STEREO_COUNT>  (1) 
0

>  <PUBCHEM_BOND_UDEF_STEREO_COUNT>  (1) 
0

>  <PUBCHEM_ISOTOPIC_ATOM_COUNT>  (1) 
0

>  <PUBCHEM_COMPONENT_COUNT>  (1) 
1

>  <PUBCHEM_CACTVS_TAUTO_COUNT>  (1) 
1

>  <PUBCHEM_CONFORMER_ID>  (1) 
0000314000000001

>  <PUBCHEM_MMFF94_ENERGY>  (1) 
13.4896

>  <PUBCHEM_FEATURE_SELFOVERLAP>  (1) 
10.148

>  <PUBCHEM_SHAPE_FINGERPRINT>  (1) 
10857977 72 18342449391730319275
12524768 44 18337675316395123213
12716758 59 18271242716623689227
12897270 3 18339653359356939676
12932741 1 17203611514178037866
14325111 11 18411142415789259741
15775835 57 17603868879563330756
16945 1 18261389993006244699
19973954 147 18412270523013932420
20645464 45 17845920888266317162
21040471 1 18267300937357503857
23552423 10 18334580135223071743
2748010 2 18341334401093227479
29004967 10 16415481540691368859
3248919 1 18412257346191223405
369184 2 17167856478596112553
5084963 1 18271812259114448531

>  <PUBCHEM_SHAPE_MULTIPOLES>  (1) 
196.5
4.18
1.43
0.97
0.36
0.03
0.29
-0.05
0.24
-0.32
-0.19
0.85
-0.01
0.02

>  <PUBCHEM_SHAPE_SELFOVERLAP>  (1) 
384.643

>  <PUBCHEM_SHAPE_VOLUME>  (1) 
120

>  <PUBCHEM_COORDINATE_TYPE>  (1) 
2
5
10

$$$$
