12613
     RDKit          3D

 12 11  0  0  0  0  0  0  0  0999 V2000
    0.1640   -0.0888    0.6298 O   0  0  0  0  0  0  0  0  0  0  0  0
    1.0670   -1.7052   -0.7454 O   0  0  0  0  0  0  0  0  0  0  0  0
   -3.5447    0.5315    0.1173 C   0  0  0  0  0  0  0  0  0  0  0  0
   -2.1177    0.6605    0.6742 C   0  0  0  0  0  0  0  0  0  0  0  0
    3.3233    0.4861    0.2356 C   0  0  0  0  0  0  0  0  0  0  0  0
   -1.1164   -0.2845    0.0208 C   0  0  0  0  0  0  0  0  0  0  0  0
    2.4417   -0.5743    0.9136 C   0  0  0  0  0  0  0  0  0  0  0  0
   -3.5417    0.8036   -1.3887 C   0  0  0  0  0  0  0  0  0  0  0  0
   -4.1552   -0.8434    0.3926 C   0  0  0  0  0  0  0  0  0  0  0  0
    3.7212    0.0612   -1.1801 C   0  0  0  0  0  0  0  0  0  0  0  0
    2.5866    1.8259    0.1856 C   0  0  0  0  0  0  0  0  0  0  0  0
    1.1722   -0.8726    0.1447 C   0  0  0  0  0  0  0  0  0  0  0  0
  1  6  1  0
  1 12  1  0
  2 12  2  0
  3  4  1  0
  3  8  1  0
  3  9  1  0
  4  6  1  0
  5  7  1  0
  5 10  1  0
  5 11  1  0
  7 12  1  0
M  END
>  <PUBCHEM_COMPOUND_CID>  (1) 
12613

>  <PUBCHEM_CONFORMER_RMSD>  (1) 
0.6

>  <PUBCHEM_CONFORMER_DIVERSEORDER>  (1) 
1
67
6
71
7
74
30
31
61
75
33
78
55
54
79
25
68
9
70
19
42
47
37
43
35
11
80
8
13
10
22
69
34
52
27
14
77
4
41
38
62
39
66
32
18
36
50
58
17
28
64
53
59
63
65
57
20
26
44
72
2
40
45
21
73
29
12
5
56
51
15
60
76
46
23
48
3
24
16
49

>  <PUBCHEM_MMFF94_PARTIAL_CHARGES>  (1) 
5
1 -0.43
12 0.66
2 -0.57
6 0.28
7 0.06

>  <PUBCHEM_EFFECTIVE_ROTOR_COUNT>  (1) 
6

>  <PUBCHEM_PHARMACOPHORE_FEATURES>  (1) 
3
1 2 acceptor
3 3 8 9 hydrophobe
3 5 10 11 hydrophobe

>  <PUBCHEM_HEAVY_ATOM_COUNT>  (1) 
12

>  <PUBCHEM_ATOM_DEF_STEREO_COUNT>  (1) 
0

>  <PUBCHEM_ATOM_UDEF_STEREO_COUNT>  (1) 
0

>  <PUBCHEM_BOND_DEF_STEREO_COUNT>  (1) 
0

>  <PUBCHEM_BOND_UDEF_STEREO_COUNT>  (1) 
0

>  <PUBCHEM_ISOTOPIC_ATOM_COUNT>  (1) 
0

>  <PUBCHEM_COMPONENT_COUNT>  (1) 
1

>  <PUBCHEM_CACTVS_TAUTO_COUNT>  (1) 
1

>  <PUBCHEM_CONFORMER_ID>  (1) 
0000314500000001

>  <PUBCHEM_MMFF94_ENERGY>  (1) 
12.0889

>  <PUBCHEM_FEATURE_SELFOVERLAP>  (1) 
15.223

>  <PUBCHEM_SHAPE_FINGERPRINT>  (1) 
11615757 297 18272376394779693169
12932764 1 17749676173453848203
14289901 80 17095242523037129289
15775835 57 18334295409430767740
170605 34 18408604764284777594
18186145 218 18413671313712530025
18915474 69 16773789320630853549
190213 19 17632576050206853073
19422 9 14333401277013069073
20606313 2 18411981364689057688
20645477 70 18199464364448990815
21499 59 18343296006977701574
22959321 105 18187079568621021263
231179 274 18186237329702752940
23402655 69 18059857225153866761
23557571 272 18040440971284118765
3060560 45 18272370858698639574
3248919 1 18271800164871730075
42 15 10015865388267016609
548570 60 17458617900424079989
58051976 378 18273213088658032759
9882013 296 16877943862369994167

>  <PUBCHEM_SHAPE_MULTIPOLES>  (1) 
235.22
8.29
1.38
1.09
3.6
0.14
0.27
1.33
1.06
-0.43
0.07
-0.06
0.07
0.46

>  <PUBCHEM_SHAPE_SELFOVERLAP>  (1) 
433.897

>  <PUBCHEM_SHAPE_VOLUME>  (1) 
149.5

>  <PUBCHEM_COORDINATE_TYPE>  (1) 
2
5
10

$$$$
