12627
     RDKit          3D

 39 44  0  0  1  0  0  0  0  0999 V2000
   -3.8301   -2.9468   -0.1652 O   0  0  0  0  0  0  0  0  0  0  0  0
   -0.3055    1.4576   -1.7711 O   0  0  0  0  0  0  0  0  0  0  0  0
    4.0521   -0.0662   -0.5509 O   0  0  0  0  0  0  0  0  0  0  0  0
   -7.1879    3.0951    0.2251 O   0  0  0  0  0  0  0  0  0  0  0  0
    5.0407    0.2004    1.5885 O   0  0  0  0  0  0  0  0  0  0  0  0
   -9.2844    2.1805    0.4789 O   0  0  0  0  0  0  0  0  0  0  0  0
    6.0050    2.7690    0.6012 O   0  0  0  0  0  0  0  0  0  0  0  0
    8.0247    1.5969   -0.9451 O   0  0  0  0  0  0  0  0  0  0  0  0
    7.8572    0.9907    1.7883 O   0  0  0  0  0  0  0  0  0  0  0  0
   -3.4971   -1.6788    0.4068 C   0  0  0  0  0  0  0  0  0  0  0  0
   -1.9700   -1.4336    0.2259 C   0  0  0  0  0  0  0  0  0  0  0  0
   -1.5783   -1.3261   -1.2765 C   0  0  0  0  0  0  0  0  0  0  0  0
   -4.3635   -0.5450   -0.2609 C   0  0  0  0  0  0  0  0  0  0  0  0
   -0.0430   -0.9838   -1.4874 C   0  0  0  0  0  0  0  0  0  0  0  0
    0.8162   -2.0378   -0.6983 C   0  0  0  0  0  0  0  0  0  0  0  0
   -2.5781   -0.4567   -2.0767 C   0  0  0  0  0  0  0  0  0  0  0  0
   -3.5218    0.3539   -1.1939 C   0  0  0  0  0  0  0  0  0  0  0  0
   -4.8675    0.2788    0.9616 C   0  0  0  0  0  0  0  0  0  0  0  0
   -1.1075   -2.5203    0.8896 C   0  0  0  0  0  0  0  0  0  0  0  0
   -3.9112   -1.6900    1.9016 C   0  0  0  0  0  0  0  0  0  0  0  0
    0.3738   -2.1938    0.7682 C   0  0  0  0  0  0  0  0  0  0  0  0
   -5.1374   -0.7926    2.0130 C   0  0  0  0  0  0  0  0  0  0  0  0
    0.3450    0.4516   -0.9997 C   0  0  0  0  0  0  0  0  0  0  0  0
    2.3260   -1.7371   -0.7516 C   0  0  0  0  0  0  0  0  0  0  0  0
   -5.5493   -1.1304   -1.0741 C   0  0  0  0  0  0  0  0  0  0  0  0
    0.2739   -1.1373   -3.0038 C   0  0  0  0  0  0  0  0  0  0  0  0
    1.8526    0.7222   -1.0641 C   0  0  0  0  0  0  0  0  0  0  0  0
    2.6700   -0.3168   -0.3106 C   0  0  0  0  0  0  0  0  0  0  0  0
   -6.0320    1.1837    0.7268 C   0  0  0  0  0  0  0  0  0  0  0  0
   -5.8504    2.6003    0.3500 C   0  0  0  0  0  0  0  0  0  0  0  0
   -7.3220    0.8713    0.8164 C   0  0  0  0  0  0  0  0  0  0  0  0
    4.5858    0.8533    0.3966 C   0  0  0  0  0  0  0  0  0  0  0  0
   -8.0691    2.0889    0.4973 C   0  0  0  0  0  0  0  0  0  0  0  0
    5.7090    1.6649   -0.2528 C   0  0  0  0  0  0  0  0  0  0  0  0
    6.9536    0.7972   -0.4588 C   0  0  0  0  0  0  0  0  0  0  0  0
    6.1464   -0.6908    1.3889 C   0  0  0  0  0  0  0  0  0  0  0  0
    7.3568    0.0650    0.8240 C   0  0  0  0  0  0  0  0  0  0  0  0
    6.4479   -1.3465    2.7317 C   0  0  0  0  0  0  0  0  0  0  0  0
    9.1695    0.8092   -1.2391 C   0  0  0  0  0  0  0  0  0  0  0  0
  1 10  1  0
  2 23  1  0
  3 28  1  0
  3 32  1  0
  4 30  1  0
  4 33  1  0
  5 32  1  0
  5 36  1  0
  6 33  2  0
  7 34  1  0
  8 35  1  0
  8 39  1  0
  9 37  1  0
 10 11  1  0
 10 13  1  0
 10 20  1  0
 11 12  1  0
 11 19  1  0
 12 14  1  0
 12 16  1  0
 13 17  1  0
 13 18  1  0
 13 25  1  0
 14 15  1  0
 14 23  1  0
 14 26  1  0
 15 21  1  0
 15 24  1  0
 16 17  1  0
 18 22  1  0
 18 29  1  0
 19 21  1  0
 20 22  1  0
 23 27  1  0
 24 28  1  0
 27 28  1  0
 29 30  1  0
 29 31  2  0
 31 33  1  0
 32 34  1  0
 34 35  1  0
 35 37  1  0
 36 37  1  0
 36 38  1  0
M  END
>  <PUBCHEM_COMPOUND_CID>  (1) 
12627

>  <PUBCHEM_CONFORMER_RMSD>  (1) 
1

>  <PUBCHEM_CONFORMER_DIVERSEORDER>  (1) 
1
185
229
84
105
153
113
58
79
241
3
193
80
60
36
207
126
245
10
194
104
57
150
62
176
54
234
101
219
180
112
181
42
47
216
32
230
155
231
55
136
192
71
109
133
30
169
92
87
123
142
107
102
29
146
53
173
6
127
95
97
213
128
177
227
235
114
66
221
23
156
226
88
15
129
68
110
81
124
135
140
179
28
159
188
19
195
201
208
137
85
143
125
198
122
154
161
178
89
209
218
222
56
191
51
40
183
205
225
100
94
141
91
172
86
184
175
35
246
200
233
74
138
236
49
214
166
77
22
24
224
98
2
212
220
25
16
83
67
163
108
106
65
202
206
190
171
8
73
196
33
164
144
239
26
44
240
120
242
237
243
204
61
203
9
50
217
170
93
99
189
41
186
145
17
34
69
174
152
134
147
132
75
157
116
117
63
52
223
59
46
38
48
11
187
12
228
160
118
158
7
149
5
121
31
82
151
96
199
148
20
165
211
72
167
215
131
14
111
21
45
18
162
27
168
90
78
244
238
4
39
197
139
232
43
70
37
13
210
182
103
130
76
119
64
115

>  <PUBCHEM_MMFF94_PARTIAL_CHARGES>  (1) 
28
1 -0.68
10 0.28
18 0.14
2 -0.68
23 0.28
28 0.28
29 -0.28
3 -0.56
30 0.42
31 -0.14
32 0.56
33 0.71
34 0.28
35 0.28
36 0.28
37 0.28
39 0.28
4 -0.43
5 -0.56
6 -0.57
68 0.4
69 0.4
7 -0.68
72 0.15
78 0.4
8 -0.56
82 0.4
9 -0.68

>  <PUBCHEM_EFFECTIVE_ROTOR_COUNT>  (1) 
7.8

>  <PUBCHEM_PHARMACOPHORE_FEATURES>  (1) 
18
1 1 acceptor
1 1 donor
1 2 acceptor
1 2 donor
1 3 acceptor
1 5 acceptor
1 6 acceptor
1 7 acceptor
1 7 donor
1 8 acceptor
1 9 acceptor
1 9 donor
5 10 13 18 20 22 rings
5 4 29 30 31 33 rings
6 10 11 12 13 16 17 rings
6 11 12 14 15 19 21 rings
6 14 15 23 24 27 28 rings
6 5 32 34 35 36 37 rings

>  <PUBCHEM_HEAVY_ATOM_COUNT>  (1) 
39

>  <PUBCHEM_ATOM_DEF_STEREO_COUNT>  (1) 
9

>  <PUBCHEM_ATOM_UDEF_STEREO_COUNT>  (1) 
5

>  <PUBCHEM_BOND_DEF_STEREO_COUNT>  (1) 
0

>  <PUBCHEM_BOND_UDEF_STEREO_COUNT>  (1) 
0

>  <PUBCHEM_ISOTOPIC_ATOM_COUNT>  (1) 
0

>  <PUBCHEM_COMPONENT_COUNT>  (1) 
1

>  <PUBCHEM_CACTVS_TAUTO_COUNT>  (1) 
1

>  <PUBCHEM_CONFORMER_ID>  (1) 
0000315300000001

>  <PUBCHEM_MMFF94_ENERGY>  (1) 
141.9874

>  <PUBCHEM_FEATURE_SELFOVERLAP>  (1) 
91.55

>  <PUBCHEM_SHAPE_FINGERPRINT>  (1) 
10 15 18260552208053672709
10006869 2 18200591389462606694
10029044 110 17916025665073651537
10076449 9 9583514322460798981
10190108 129 16443625693221462114
10554248 39 15912777076446087076
10670039 82 14836133130270398227
10674148 151 18342177796270412408
11146851 88 18272092690958361137
11297750 10 17759248396968483934
12422481 6 18411419514241593510
12539747 363 16081375167136799381
12677640 9 17387422456652291963
13150687 139 15698005128144298996
13673619 4 11891338660180860711
13690498 29 10447929443559276819
13911987 19 16128658531724917039
13914758 101 15698009544088285286
13947930 73 12830076373401993777
14394314 77 17967534601161000180
14856354 85 18261391208150213302
14904525 67 18058161903474857256
14931854 50 13830130551727116779
15082195 135 12031489030902377226
15183329 4 18410008875589239378
15320295 40 12607414252602781858
15461852 350 17917711335976783063
15510800 12 11891330928649053537
1577012 14 18411133649866568666
15840311 113 18201442424125874693
19302320 297 18260557731324138861
20105231 36 15936410027409682290
2026 5 8718557098911967680
21033648 29 17988349455981444200
21362857 166 8862673421523777000
21792961 116 14333414454009852039
22149856 69 17749388162201902096
23522609 53 17605293932991237164
23576562 1 15338252659268152033
24771293 8 18408042897380585405
2747138 104 14418130695580310190
2838139 119 18130785706612218605
3383291 50 13045950109422047129
3552219 110 16008753502970901332
3918712 181 17703503372341378536
392239 28 18113332016009493462
439807 62 9079112259280160233
4461854 278 15140968357037096472
44802255 64 17203326711366577975
44880168 125 11386668351092800625
5028188 123 18339089302198644942
504579 68 14692569905605588300
5104073 3 16951425371716895295
54039377 194 12685095869205189305
5470011 282 11455881468960776713
58083652 198 15213583476310852535
6058803 2 16446756200463255567
6201320 82 17630906906364419857
6691757 9 17603865641902275411
9896288 288 14707751898201458613
9962374 69 13768505222697568331
999808 66 14562529582972320569

>  <PUBCHEM_SHAPE_MULTIPOLES>  (1) 
749.78
26.25
2.78
2.09
18
0.48
-0.14
20.8
10.1
-3.28
0.45
1.29
-0.74
-1.4

>  <PUBCHEM_SHAPE_SELFOVERLAP>  (1) 
1606.732

>  <PUBCHEM_SHAPE_VOLUME>  (1) 
411.1

>  <PUBCHEM_COORDINATE_TYPE>  (1) 
2
5
10

$$$$
