12628
     RDKit          3D

 20 21  0  0  0  0  0  0  0  0999 V2000
   -1.5168   -2.0700    0.2941 S   0  0  0  0  0  0  0  0  0  0  0  0
    0.7018   -1.0667   -1.6340 O   0  0  0  0  0  0  0  0  0  0  0  0
   -1.5674   -2.7340   -0.9941 O   0  0  0  0  0  0  0  0  0  0  0  0
   -1.9991   -2.7402    1.4863 O   0  0  0  0  0  0  0  0  0  0  0  0
    2.1947   -0.6513    0.0814 N   0  0  0  0  0  0  0  0  0  0  0  0
    0.0687   -1.4949    0.5731 N   0  0  0  0  0  0  0  0  0  0  0  0
    3.2806   -0.1671   -0.7416 C   0  0  0  0  0  0  0  0  0  0  0  0
    3.1585    1.3413   -0.9827 C   0  0  0  0  0  0  0  0  0  0  0  0
    4.6386   -0.5233   -0.1276 C   0  0  0  0  0  0  0  0  0  0  0  0
    3.4714    2.1609    0.2691 C   0  0  0  0  0  0  0  0  0  0  0  0
    4.9491    0.2994    1.1230 C   0  0  0  0  0  0  0  0  0  0  0  0
    4.8321    1.7967    0.8552 C   0  0  0  0  0  0  0  0  0  0  0  0
    0.9840   -1.0648   -0.4394 C   0  0  0  0  0  0  0  0  0  0  0  0
   -2.4101   -0.5503    0.1652 C   0  0  0  0  0  0  0  0  0  0  0  0
   -2.5485    0.0485   -1.0751 C   0  0  0  0  0  0  0  0  0  0  0  0
   -2.9548    0.0131    1.3063 C   0  0  0  0  0  0  0  0  0  0  0  0
   -3.8084    1.8300   -0.0382 C   0  0  0  0  0  0  0  0  0  0  0  0
   -3.2530    1.2480   -1.1774 C   0  0  0  0  0  0  0  0  0  0  0  0
   -3.6594    1.2125    1.2038 C   0  0  0  0  0  0  0  0  0  0  0  0
   -4.5623    3.1122   -0.1474 C   0  0  0  0  0  0  0  0  0  0  0  0
  1  3  2  0
  1  4  2  0
  1  6  1  0
  1 14  1  0
  2 13  2  0
  5  7  1  0
  5 13  1  0
  6 13  1  0
  7  8  1  0
  7  9  1  0
  8 10  1  0
  9 11  1  0
 10 12  1  0
 11 12  1  0
 14 15  2  0
 14 16  1  0
 15 18  1  0
 16 19  2  0
 17 18  2  0
 17 19  1  0
 17 20  1  0
M  END
>  <PUBCHEM_COMPOUND_CID>  (1) 
12628

>  <PUBCHEM_CONFORMER_RMSD>  (1) 
0.8

>  <PUBCHEM_CONFORMER_DIVERSEORDER>  (1) 
1
44
43
16
32
36
9
37
41
6
18
40
52
17
35
49
50
38
27
20
12
39
23
42
45
11
5
55
25
46
34
26
22
19
53
7
33
24
10
15
8
51
21
29
30
31
56
28
14
54
13
3
47
48
4
2

>  <PUBCHEM_MMFF94_PARTIAL_CHARGES>  (1) 
21
1 1.45
13 0.87
14 -0.01
15 -0.15
16 -0.15
17 -0.14
18 -0.15
19 -0.15
2 -0.57
20 0.14
3 -0.65
32 0.37
33 0.42
34 0.15
35 0.15
36 0.15
37 0.15
4 -0.65
5 -0.73
6 -0.79
7 0.3

>  <PUBCHEM_EFFECTIVE_ROTOR_COUNT>  (1) 
6.2

>  <PUBCHEM_PHARMACOPHORE_FEATURES>  (1) 
7
1 2 acceptor
1 3 acceptor
1 4 acceptor
1 5 donor
1 6 donor
6 14 15 16 17 18 19 rings
6 7 8 9 10 11 12 rings

>  <PUBCHEM_HEAVY_ATOM_COUNT>  (1) 
20

>  <PUBCHEM_ATOM_DEF_STEREO_COUNT>  (1) 
0

>  <PUBCHEM_ATOM_UDEF_STEREO_COUNT>  (1) 
0

>  <PUBCHEM_BOND_DEF_STEREO_COUNT>  (1) 
0

>  <PUBCHEM_BOND_UDEF_STEREO_COUNT>  (1) 
0

>  <PUBCHEM_ISOTOPIC_ATOM_COUNT>  (1) 
0

>  <PUBCHEM_COMPONENT_COUNT>  (1) 
1

>  <PUBCHEM_CACTVS_TAUTO_COUNT>  (1) 
3

>  <PUBCHEM_CONFORMER_ID>  (1) 
0000315400000001

>  <PUBCHEM_MMFF94_ENERGY>  (1) 
14.0568

>  <PUBCHEM_FEATURE_SELFOVERLAP>  (1) 
35.584

>  <PUBCHEM_SHAPE_FINGERPRINT>  (1) 
10646746 165 18337956787588491434
10928967 22 12107502637390635936
10968037 57 10665228138037705545
11370993 144 18333729087917352646
11405975 8 18408601479215226770
11552529 35 16082799120915368050
12107183 9 18190448377849164842
122479 349 18410014333754213686
12363563 72 9727340342888369105
12596602 18 14996583796738528493
12633257 1 17967529077943860100
12670546 177 13758066403157476256
13103583 49 12974177211849662349
13583140 156 17167854279362107489
14123255 52 18338798910089163589
14142880 1 18334289873470962239
14178342 30 17822579416340615658
14251751 93 18261390095758458177
14251764 38 18268423710650104472
14957384 54 18408315584247468792
15239191 94 11386361552291949772
1741750 31 18410576175727508795
17834072 32 18340768148178326929
18186145 218 18272381883969449782
20281475 54 8718829803511926422
20645477 56 18272101516540731723
21033648 29 17895749595580527916
21054139 6 11455890261571428700
21095088 737 17916009347326458485
21401589 2 18413112740863618241
22182937 141 18410299124772607617
22749437 52 18341615949032050160
23227448 37 18342177799557973517
235170 7 13326855509144697736
23559900 14 18059579049503486086
27216 239 18334863826930103203
2838139 119 18270673148210522133
312425 83 15194744319568963808
3737641 26 11314301699144143568
474 4 18271244898498698021
5104073 3 18260820549584577016
6328613 192 18335709356237055724
7064713 232 18259991439843625829
8217 86 8790594957885796488
9981440 41 18342450448145256763

>  <PUBCHEM_SHAPE_MULTIPOLES>  (1) 
387.87
10.93
3.04
1.35
7.68
0.06
-0.01
-8.19
-1.87
-2.63
-0.22
-0.32
0.18
0.77

>  <PUBCHEM_SHAPE_SELFOVERLAP>  (1) 
786.955

>  <PUBCHEM_SHAPE_VOLUME>  (1) 
225.8

>  <PUBCHEM_COORDINATE_TYPE>  (1) 
2
5
10

$$$$
