12646
     RDKit          3D

 20 20  0  0  0  0  0  0  0  0999 V2000
   -0.0661   -1.0683   -0.3781 O   0  0  0  0  0  0  0  0  0  0  0  0
    4.9770   -0.2441   -0.1523 N   0  0  0  0  0  0  0  0  0  0  0  0
   -1.0545    1.0002    0.1331 N   0  0  0  0  0  0  0  0  0  0  0  0
    3.8499    0.6541    0.0684 C   0  0  0  0  0  0  0  0  0  0  0  0
    2.5314   -0.0983   -0.0984 C   0  0  0  0  0  0  0  0  0  0  0  0
    1.3355    0.8270    0.1206 C   0  0  0  0  0  0  0  0  0  0  0  0
    6.2434    0.4835   -0.0524 C   0  0  0  0  0  0  0  0  0  0  0  0
    4.9501   -1.3501    0.8065 C   0  0  0  0  0  0  0  0  0  0  0  0
    0.0022    0.1186   -0.0766 C   0  0  0  0  0  0  0  0  0  0  0  0
    6.2932    1.6372   -1.0396 C   0  0  0  0  0  0  0  0  0  0  0  0
    6.0817   -2.3300    0.5461 C   0  0  0  0  0  0  0  0  0  0  0  0
   -2.4395    0.7234    0.0447 C   0  0  0  0  0  0  0  0  0  0  0  0
   -3.3671    1.7242    0.2860 C   0  0  0  0  0  0  0  0  0  0  0  0
   -4.1983   -0.8545   -0.3794 C   0  0  0  0  0  0  0  0  0  0  0  0
   -2.8375   -0.5625   -0.2866 C   0  0  0  0  0  0  0  0  0  0  0  0
   -4.6434   -2.2331   -0.7348 C   0  0  0  0  0  0  0  0  0  0  0  0
   -4.7280    1.4320    0.1935 C   0  0  0  0  0  0  0  0  0  0  0  0
   -5.1436    0.1428   -0.1394 C   0  0  0  0  0  0  0  0  0  0  0  0
   -2.9510    3.1143    0.6435 C   0  0  0  0  0  0  0  0  0  0  0  0
   -4.8353   -3.1164    0.4953 C   0  0  0  0  0  0  0  0  0  0  0  0
  1  9  2  0
  2  4  1  0
  2  7  1  0
  2  8  1  0
  3  9  1  0
  3 12  1  0
  4  5  1  0
  5  6  1  0
  6  9  1  0
  7 10  1  0
  8 11  1  0
 12 13  2  0
 12 15  1  0
 13 17  1  0
 13 19  1  0
 14 15  2  0
 14 16  1  0
 14 18  1  0
 16 20  1  0
 17 18  2  0
M  END
>  <PUBCHEM_COMPOUND_CID>  (1) 
12646

>  <PUBCHEM_CONFORMER_RMSD>  (1) 
0.8

>  <PUBCHEM_CONFORMER_DIVERSEORDER>  (1) 
1
5
142
86
163
169
146
44
121
123
196
193
85
71
209
81
108
115
18
95
200
213
148
214
64
69
153
73
150
92
104
118
192
48
102
82
90
191
194
174
143
101
10
125
178
96
97
113
186
122
171
158
160
87
77
60
184
93
166
59
57
124
180
147
189
152
144
43
61
203
9
105
4
136
133
75
66
116
119
177
62
32
21
58
154
175
162
212
50
173
76
208
31
207
23
198
84
2
46
67
199
22
80
202
55
68
29
182
7
106
190
188
45
111
156
35
157
56
70
47
89
114
110
3
78
211
215
151
185
201
53
83
145
134
183
34
161
63
30
91
74
141
197
117
65
155
206
49
37
127
100
107
27
94
19
54
41
51
52
140
36
40
126
179
167
187
6
39
149
129
72
195
210
38
132
164
181
14
98
15
24
12
176
28
33
26
103
168
159
17
20
165
8
172
13
79
120
137
11
16
112
204
205
42
130
128
88
99
135
139
138
131
25
109
170

>  <PUBCHEM_MMFF94_PARTIAL_CHARGES>  (1) 
20
1 -0.57
12 0.12
13 -0.14
14 -0.14
15 -0.15
16 0.14
17 -0.15
18 -0.15
19 0.14
2 -0.81
3 -0.55
37 0.37
38 0.15
4 0.27
41 0.15
42 0.15
6 0.06
7 0.27
8 0.27
9 0.57

>  <PUBCHEM_EFFECTIVE_ROTOR_COUNT>  (1) 
9

>  <PUBCHEM_PHARMACOPHORE_FEATURES>  (1) 
5
1 1 acceptor
1 2 cation
1 20 hydrophobe
1 3 donor
6 12 13 14 15 17 18 rings

>  <PUBCHEM_HEAVY_ATOM_COUNT>  (1) 
20

>  <PUBCHEM_ATOM_DEF_STEREO_COUNT>  (1) 
0

>  <PUBCHEM_ATOM_UDEF_STEREO_COUNT>  (1) 
0

>  <PUBCHEM_BOND_DEF_STEREO_COUNT>  (1) 
0

>  <PUBCHEM_BOND_UDEF_STEREO_COUNT>  (1) 
0

>  <PUBCHEM_ISOTOPIC_ATOM_COUNT>  (1) 
0

>  <PUBCHEM_COMPONENT_COUNT>  (1) 
1

>  <PUBCHEM_CACTVS_TAUTO_COUNT>  (1) 
2

>  <PUBCHEM_CONFORMER_ID>  (1) 
0000316600000001

>  <PUBCHEM_MMFF94_ENERGY>  (1) 
42.7335

>  <PUBCHEM_FEATURE_SELFOVERLAP>  (1) 
25.371

>  <PUBCHEM_SHAPE_FINGERPRINT>  (1) 
10411042 1 18125157393528573119
10595046 47 18408887365002037436
10912923 1 18333448725453359304
11315181 36 18334576871179815061
11524674 6 16415478268406546175
12107183 9 17689151210798079528
12236239 1 18261111855050525836
12596602 18 18333730234620931666
12616971 3 17676779716278714669
13073987 5 18412260641006107016
13167823 11 18410007719910831138
13288520 33 18341331184653216151
13533116 47 18334856083531479370
13631057 29 18339077198448424403
14211702 104 18411423899493789030
14251732 16 18339360876811682700
14461889 52 18338228397384059122
14528608 73 18335706057390656548
15183329 4 18411139100359337254
15250474 111 18335409145822021058
17834072 33 18407759235917237496
17844677 252 18342461447925532936
17857418 61 18334851693510692698
18927931 339 18202283641243087127
21236236 1 18412263956425746107
21267235 1 18340207509719021223
220451 1 18410017624068284576
2297311 6 18060144258008220909
2303208 19 17132123450510975876
23081809 10 18259988171916383788
23402539 116 18409444800032522701
23522609 53 18195555694954282616
23536379 177 18409448055733868520
23559900 14 18340475764348902417
335352 9 18341327869397594733
4073 2 18114186371510727506
4214541 1 18340767052877289897
497634 4 18333448750785430453
5104073 3 18201718470184919136
5109719 28 17842271751879029576
531348 171 17678163915592448479
559249 180 18338229371940831303
59755656 520 17095526180553559067
67856867 119 18336549433732187692
7062679 117 18410013273102909399
7495541 125 17917705838233969288

>  <PUBCHEM_SHAPE_MULTIPOLES>  (1) 
395.76
17.66
2.89
0.8
22
0.73
0.03
4.45
0.6
-3.07
-0.51
0.27
0.02
-1.8

>  <PUBCHEM_SHAPE_SELFOVERLAP>  (1) 
787.031

>  <PUBCHEM_SHAPE_VOLUME>  (1) 
236.7

>  <PUBCHEM_COORDINATE_TYPE>  (1) 
2
5
10

$$$$
