1264
     RDKit          3D

 35 37  0  0  0  0  0  0  0  0999 V2000
    7.0615   -0.0539    0.7551 O   0  0  0  0  0  0  0  0  0  0  0  0
    1.1893   -4.0984   -0.2063 O   0  0  0  0  0  0  0  0  0  0  0  0
   -5.5999   -1.7836   -0.3615 O   0  0  0  0  0  0  0  0  0  0  0  0
   -3.3334    4.1450    0.6629 O   0  0  0  0  0  0  0  0  0  0  0  0
    5.5998    3.6778   -1.1688 N   0  0  0  0  0  0  0  0  0  0  0  0
    5.3890    1.5218    0.7494 N   0  0  0  0  0  0  0  0  0  0  0  0
    5.0453   -2.1225    0.3362 N   0  0  0  0  0  0  0  0  0  0  0  0
    3.5151   -0.5136    0.3738 N   0  0  0  0  0  0  0  0  0  0  0  0
   -1.6744   -3.6961   -0.3616 N   0  0  0  0  0  0  0  0  0  0  0  0
    1.4698   -1.7972    0.0606 N   0  0  0  0  0  0  0  0  0  0  0  0
   -1.3051   -1.5257   -0.0712 N   0  0  0  0  0  0  0  0  0  0  0  0
   -3.5769   -0.6502   -0.1003 N   0  0  0  0  0  0  0  0  0  0  0  0
   -7.0057    0.7330   -0.0851 N   0  0  0  0  0  0  0  0  0  0  0  0
   -5.0321    1.7147    0.1841 N   0  0  0  0  0  0  0  0  0  0  0  0
   -5.6967    4.0349    0.5059 N   0  0  0  0  0  0  0  0  0  0  0  0
    6.7648    3.2470   -0.3241 C   0  0  0  0  0  0  0  0  0  0  0  0
    6.2622    2.6414    0.9733 C   0  0  0  0  0  0  0  0  0  0  0  0
    4.6968    4.6300   -0.4378 C   0  0  0  0  0  0  0  0  0  0  0  0
    6.0407    4.2279   -2.4952 C   0  0  0  0  0  0  0  0  0  0  0  0
    5.8623    0.2109    0.6527 C   0  0  0  0  0  0  0  0  0  0  0  0
    4.8428   -0.8293    0.4553 C   0  0  0  0  0  0  0  0  0  0  0  0
    2.8271   -1.6800    0.1910 C   0  0  0  0  0  0  0  0  0  0  0  0
    3.7927   -2.6588    0.1710 C   0  0  0  0  0  0  0  0  0  0  0  0
   -0.7554   -2.7716   -0.1920 C   0  0  0  0  0  0  0  0  0  0  0  0
    6.2870   -2.8540    0.3659 C   0  0  0  0  0  0  0  0  0  0  0  0
   -2.6608   -1.6646   -0.1699 C   0  0  0  0  0  0  0  0  0  0  0  0
    0.7028   -2.9723   -0.1299 C   0  0  0  0  0  0  0  0  0  0  0  0
   -2.8645   -3.0126   -0.3489 C   0  0  0  0  0  0  0  0  0  0  0  0
   -5.7055    0.5458   -0.0376 C   0  0  0  0  0  0  0  0  0  0  0  0
   -1.5118   -5.1187   -0.5280 C   0  0  0  0  0  0  0  0  0  0  0  0
   -4.9876   -0.7310   -0.1951 C   0  0  0  0  0  0  0  0  0  0  0  0
   -7.1725    2.0806    0.1149 C   0  0  0  0  0  0  0  0  0  0  0  0
   -5.9621    2.7107    0.2844 C   0  0  0  0  0  0  0  0  0  0  0  0
   -8.0552   -0.2320   -0.2977 C   0  0  0  0  0  0  0  0  0  0  0  0
   -4.4497    4.6446    0.6744 C   0  0  0  0  0  0  0  0  0  0  0  0
  1 20  2  0
  2 27  2  0
  3 31  2  0
  4 35  2  0
  5 16  1  0
  5 18  1  0
  5 19  1  0
  6 17  1  0
  6 20  1  0
  7 21  1  0
  7 23  1  0
  7 25  1  0
  8 21  2  0
  8 22  1  0
  9 24  1  0
  9 28  1  0
  9 30  1  0
 10 22  1  0
 10 27  1  0
 11 24  2  0
 11 26  1  0
 12 26  1  0
 12 31  1  0
 13 29  1  0
 13 32  1  0
 13 34  1  0
 14 29  2  0
 14 33  1  0
 15 33  1  0
 15 35  1  0
 16 17  1  0
 20 21  1  0
 22 23  2  0
 24 27  1  0
 26 28  2  0
 29 31  1  0
 32 33  2  0
M  CHG  1   5   1
M  END
>  <PUBCHEM_COMPOUND_CID>  (1) 
1264

>  <PUBCHEM_CONFORMER_RMSD>  (1) 
1.2

>  <PUBCHEM_CONFORMER_DIVERSEORDER>  (1) 
1
39
25
21
40
63
47
8
62
38
27
51
17
56
19
46
29
26
37
33
20
3
30
43
65
10
32
2
44
24
57
35
4
28
49
58
9
55
48
52
61
23
11
45
53
50
6
14
59
5
7
41
60
31
13
22
34
64
36
54
42
18
12
15
16

>  <PUBCHEM_MMFF94_PARTIAL_CHARGES>  (1) 
44
1 -0.57
10 -0.49
11 -0.57
12 -0.49
13 0.05
14 -0.57
15 -0.49
16 0.5
17 0.3
18 0.5
19 0.5
2 -0.57
20 0.71
21 0.1
22 0.29
23 -0.3
24 0.1
25 0.26
26 0.29
27 0.71
28 -0.3
29 0.1
3 -0.57
30 0.26
31 0.71
32 -0.3
33 0.29
34 0.26
35 0.57
36 0.45
4 -0.57
47 0.37
48 0.15
5 -0.96
52 0.37
53 0.15
54 0.37
58 0.15
6 -0.73
62 0.37
63 0.06
7 0.05
8 -0.57
9 0.05

>  <PUBCHEM_EFFECTIVE_ROTOR_COUNT>  (1) 
13

>  <PUBCHEM_PHARMACOPHORE_FEATURES>  (1) 
16
1 1 acceptor
1 10 donor
1 12 donor
1 15 donor
1 2 acceptor
1 3 acceptor
1 4 acceptor
1 5 cation
1 5 donor
1 6 donor
3 13 14 29 cation
3 7 8 21 cation
3 9 11 24 cation
5 13 14 29 32 33 rings
5 7 8 21 22 23 rings
5 9 11 24 26 28 rings

>  <PUBCHEM_HEAVY_ATOM_COUNT>  (1) 
35

>  <PUBCHEM_ATOM_DEF_STEREO_COUNT>  (1) 
0

>  <PUBCHEM_ATOM_UDEF_STEREO_COUNT>  (1) 
0

>  <PUBCHEM_BOND_DEF_STEREO_COUNT>  (1) 
0

>  <PUBCHEM_BOND_UDEF_STEREO_COUNT>  (1) 
0

>  <PUBCHEM_ISOTOPIC_ATOM_COUNT>  (1) 
0

>  <PUBCHEM_COMPONENT_COUNT>  (1) 
1

>  <PUBCHEM_CACTVS_TAUTO_COUNT>  (1) 
16

>  <PUBCHEM_CONFORMER_ID>  (1) 
000004F000000001

>  <PUBCHEM_MMFF94_ENERGY>  (1) 
69.8075

>  <PUBCHEM_FEATURE_SELFOVERLAP>  (1) 
81.201

>  <PUBCHEM_SHAPE_FINGERPRINT>  (1) 
10883706 163 18334288747826183453
11331860 1 17691401236453804480
11408170 253 18343028799888402857
14790565 3 18340205198293496923
15320467 1 18196086861843492225
15419008 145 18046897196025031826
15569901 51 18411981338566612400
16126227 98 18413386562330186019
16758388 162 18189607255512013314
18339144 43 18191333587151585453
19302320 297 18266179422380136410
20058555 10 18412542077059495961
20691028 202 18411976974941973504
2838139 119 18342170017151599359
3418910 222 18195531613499363191
3918712 181 18267857303611883481
393628 194 18411979140144080957
4366758 26 18340772546468133033
44575985 43 17900298399855538341
6036956 94 18338242660237660809
7970288 3 9691882733427883259

>  <PUBCHEM_SHAPE_MULTIPOLES>  (1) 
642.02
24.56
8.15
0.97
3.98
4.11
0.44
24.43
-0.48
-2.82
1.42
-1.7
1.09
-4.5

>  <PUBCHEM_SHAPE_SELFOVERLAP>  (1) 
1352.774

>  <PUBCHEM_SHAPE_VOLUME>  (1) 
360

>  <PUBCHEM_COORDINATE_TYPE>  (1) 
2
5
10

$$$$
