12656
     RDKit          3D

 10 10  0  0  0  0  0  0  0  0999 V2000
    2.7037    0.1198   -0.2305 N   0  0  0  0  0  0  0  0  0  0  0  0
   -1.9231   -1.0823    0.2192 N   0  0  0  0  0  0  0  0  0  0  0  0
   -3.0840    0.8080    0.1117 N   0  0  0  0  0  0  0  0  0  0  0  0
    1.3255    0.4252    0.1519 C   0  0  0  0  0  0  0  0  0  0  0  0
    0.3331   -0.4461   -0.6219 C   0  0  0  0  0  0  0  0  0  0  0  0
   -1.0906   -0.1356   -0.2647 C   0  0  0  0  0  0  0  0  0  0  0  0
    3.0277   -1.2693    0.0920 C   0  0  0  0  0  0  0  0  0  0  0  0
    3.6333    1.0298    0.4378 C   0  0  0  0  0  0  0  0  0  0  0  0
   -1.8013    1.0163   -0.3297 C   0  0  0  0  0  0  0  0  0  0  0  0
   -3.1244   -0.4659    0.4342 C   0  0  0  0  0  0  0  0  0  0  0  0
  1  4  1  0
  1  7  1  0
  1  8  1  0
  2  6  1  0
  2 10  1  0
  3  9  1  0
  3 10  2  0
  4  5  1  0
  5  6  1  0
  6  9  2  0
M  END
>  <PUBCHEM_COMPOUND_CID>  (1) 
12656

>  <PUBCHEM_CONFORMER_RMSD>  (1) 
0.6

>  <PUBCHEM_CONFORMER_DIVERSEORDER>  (1) 
1
8
5
3
6
4
7
2

>  <PUBCHEM_MMFF94_PARTIAL_CHARGES>  (1) 
13
1 -0.81
10 0.04
2 0.03
21 0.27
22 0.15
23 0.15
3 -0.57
4 0.27
5 0.18
6 -0.33
7 0.27
8 0.27
9 0.08

>  <PUBCHEM_EFFECTIVE_ROTOR_COUNT>  (1) 
3

>  <PUBCHEM_PHARMACOPHORE_FEATURES>  (1) 
4
1 1 cation
1 2 donor
3 2 3 10 cation
5 2 3 6 9 10 rings

>  <PUBCHEM_HEAVY_ATOM_COUNT>  (1) 
10

>  <PUBCHEM_ATOM_DEF_STEREO_COUNT>  (1) 
0

>  <PUBCHEM_ATOM_UDEF_STEREO_COUNT>  (1) 
0

>  <PUBCHEM_BOND_DEF_STEREO_COUNT>  (1) 
0

>  <PUBCHEM_BOND_UDEF_STEREO_COUNT>  (1) 
0

>  <PUBCHEM_ISOTOPIC_ATOM_COUNT>  (1) 
0

>  <PUBCHEM_COMPONENT_COUNT>  (1) 
1

>  <PUBCHEM_CACTVS_TAUTO_COUNT>  (1) 
2

>  <PUBCHEM_CONFORMER_ID>  (1) 
0000317000000001

>  <PUBCHEM_MMFF94_ENERGY>  (1) 
11.44

>  <PUBCHEM_FEATURE_SELFOVERLAP>  (1) 
20.297

>  <PUBCHEM_SHAPE_FINGERPRINT>  (1) 
10857977 72 18334293205843448041
11062470 55 10303810977605507578
12932764 1 17846491560829288820
14144814 61 18409729547473567442
14325111 11 18411418405913261878
14390081 3 18343863311869854757
15775835 57 18060137673743851678
190213 19 17530965786768914230
20645464 45 18343308037371118743
20711985 327 16370723755630595836
20871998 184 18270688700350514975
3248919 1 17603588555759148646
369184 2 18412262831043834423
449060 50 18335985358681392156

>  <PUBCHEM_SHAPE_MULTIPOLES>  (1) 
190.85
6.41
1.21
0.71
2.03
0.06
0.02
-0.5
-1.05
0.34
-0.05
0
0
0.29

>  <PUBCHEM_SHAPE_SELFOVERLAP>  (1) 
378.303

>  <PUBCHEM_SHAPE_VOLUME>  (1) 
116.8

>  <PUBCHEM_COORDINATE_TYPE>  (1) 
2
5
10

$$$$
