12650
     RDKit          3D

 14 14  0  0  1  0  0  0  0  0999 V2000
   -1.4483    1.3098   -1.4343 O   0  0  0  0  0  0  0  0  0  0  0  0
   -2.7561    1.7862    0.3462 O   0  0  0  0  0  0  0  0  0  0  0  0
    4.2875    0.5138   -0.4982 O   0  0  0  0  0  0  0  0  0  0  0  0
   -3.3700   -0.9144    0.5815 N   0  0  0  0  0  0  0  0  0  0  0  0
   -2.0684   -0.5323    0.0132 C   0  0  0  0  0  0  0  0  0  0  0  0
   -0.9632   -0.8547    1.0478 C   0  0  0  0  0  0  0  0  0  0  0  0
    0.4444   -0.4877    0.6329 C   0  0  0  0  0  0  0  0  0  0  0  0
   -1.9024   -1.3492   -1.2776 C   0  0  0  0  0  0  0  0  0  0  0  0
   -2.1351    0.9619   -0.3155 C   0  0  0  0  0  0  0  0  0  0  0  0
    1.2145   -1.4183   -0.0430 C   0  0  0  0  0  0  0  0  0  0  0  0
    0.9326    0.7710    0.9390 C   0  0  0  0  0  0  0  0  0  0  0  0
    2.5128   -1.0798   -0.4246 C   0  0  0  0  0  0  0  0  0  0  0  0
    2.2308    1.1095    0.5573 C   0  0  0  0  0  0  0  0  0  0  0  0
    3.0209    0.1841   -0.1245 C   0  0  0  0  0  0  0  0  0  0  0  0
  1  9  1  0
  2  9  2  0
  3 14  1  0
  4  5  1  0
  5  6  1  0
  5  8  1  0
  5  9  1  0
  6  7  1  0
  7 10  2  0
  7 11  1  0
 10 12  1  0
 11 13  2  0
 12 14  2  0
 13 14  1  0
M  END
>  <PUBCHEM_COMPOUND_CID>  (1) 
12650

>  <PUBCHEM_CONFORMER_RMSD>  (1) 
0.6

>  <PUBCHEM_CONFORMER_DIVERSEORDER>  (1) 
1
6
3
5
7
2
4

>  <PUBCHEM_MMFF94_PARTIAL_CHARGES>  (1) 
21
1 -0.65
10 -0.15
11 -0.15
12 -0.15
13 -0.15
14 0.08
2 -0.57
20 0.36
21 0.36
22 0.15
23 0.15
24 0.15
25 0.15
26 0.5
27 0.45
3 -0.53
4 -0.99
5 0.33
6 0.14
7 -0.14
9 0.66

>  <PUBCHEM_EFFECTIVE_ROTOR_COUNT>  (1) 
3

>  <PUBCHEM_PHARMACOPHORE_FEATURES>  (1) 
7
1 1 acceptor
1 2 acceptor
1 3 donor
1 4 cation
1 4 donor
3 1 2 9 anion
6 7 10 11 12 13 14 rings

>  <PUBCHEM_HEAVY_ATOM_COUNT>  (1) 
14

>  <PUBCHEM_ATOM_DEF_STEREO_COUNT>  (1) 
1

>  <PUBCHEM_ATOM_UDEF_STEREO_COUNT>  (1) 
0

>  <PUBCHEM_BOND_DEF_STEREO_COUNT>  (1) 
0

>  <PUBCHEM_BOND_UDEF_STEREO_COUNT>  (1) 
0

>  <PUBCHEM_ISOTOPIC_ATOM_COUNT>  (1) 
0

>  <PUBCHEM_COMPONENT_COUNT>  (1) 
1

>  <PUBCHEM_CACTVS_TAUTO_COUNT>  (1) 
2

>  <PUBCHEM_CONFORMER_ID>  (1) 
0000316A00000001

>  <PUBCHEM_MMFF94_ENERGY>  (1) 
30.0594

>  <PUBCHEM_FEATURE_SELFOVERLAP>  (1) 
35.581

>  <PUBCHEM_SHAPE_FINGERPRINT>  (1) 
10062212 137 18338504241157978034
10922523 26 18341897350962207230
12897270 3 18269825557593749423
12932764 1 18130782382386821818
13380535 21 18337395924556646459
13693222 15 8357956892930574989
13764800 53 17531254920025917217
13839132 238 17968089768496271350
14250199 8 18264765630836898965
15219456 202 18411422774011156874
15310529 11 18411418397334214587
15775835 57 18334859363952829645
16945 1 18268981141174476379
17844478 74 18335993046609464267
18186145 218 18115309969162072702
18619055 16 17988081067606735918
20361792 2 14620506839599821241
20653085 51 18338804411731182531
21501502 16 18335133146659080514
22802520 49 18335984147220890366
23114952 82 18193012434648948702
23402539 116 18041553762407818523
23402655 69 18270956856580529277
23557571 272 17970078935297134570
23559900 14 18131632262985553850
25 1 18338801091800596882
305870 269 17023736806532331930
528886 8 18131066004862829346
8030462 33 18188755215219229915

>  <PUBCHEM_SHAPE_MULTIPOLES>  (1) 
265.52
5.63
1.62
1.1
2.32
0.15
-0.13
0.64
-0.76
-0.58
-0.16
-0.39
-0.01
0.22

>  <PUBCHEM_SHAPE_SELFOVERLAP>  (1) 
550.583

>  <PUBCHEM_SHAPE_VOLUME>  (1) 
151.8

>  <PUBCHEM_COORDINATE_TYPE>  (1) 
2
5
10

$$$$
