12654
     RDKit          3D

 14 14  0  0  0  0  0  0  0  0999 V2000
   -0.9788    2.8891   -0.0037 O   0  0  0  0  0  0  0  0  0  0  0  0
    2.7570    0.1069    0.0041 N   0  0  0  0  0  0  0  0  0  0  0  0
   -1.5569   -1.7328    0.0065 N   0  0  0  0  0  0  0  0  0  0  0  0
    0.6125   -0.8421    0.0056 N   0  0  0  0  0  0  0  0  0  0  0  0
   -1.3064    0.5987    0.0016 N   0  0  0  0  0  0  0  0  0  0  0  0
    0.9008    1.5401    0.0006 N   0  0  0  0  0  0  0  0  0  0  0  0
    3.4086   -1.1799    0.0068 C   0  0  0  0  0  0  0  0  0  0  0  0
   -2.9826   -1.6316    0.0055 C   0  0  0  0  0  0  0  0  0  0  0  0
    1.3805    0.2736    0.0035 C   0  0  0  0  0  0  0  0  0  0  0  0
   -0.7090   -0.6038    0.0043 C   0  0  0  0  0  0  0  0  0  0  0  0
    4.9146   -1.0027   -0.0157 C   0  0  0  0  0  0  0  0  0  0  0  0
   -3.6044   -3.0148   -0.0139 C   0  0  0  0  0  0  0  0  0  0  0  0
   -0.4394    1.6241   -0.0004 C   0  0  0  0  0  0  0  0  0  0  0  0
   -2.3966    2.9750   -0.0047 C   0  0  0  0  0  0  0  0  0  0  0  0
  1 13  1  0
  1 14  1  0
  2  7  1  0
  2  9  1  0
  3  8  1  0
  3 10  1  0
  4  9  2  0
  4 10  1  0
  5 10  2  0
  5 13  1  0
  6  9  1  0
  6 13  2  0
  7 11  1  0
  8 12  1  0
M  END
>  <PUBCHEM_COMPOUND_CID>  (1) 
12654

>  <PUBCHEM_CONFORMER_RMSD>  (1) 
0.6

>  <PUBCHEM_CONFORMER_DIVERSEORDER>  (1) 
1
17
12
14
11
18
7
23
19
4
13
16
21
20
3
9
10
2
8
24
15
22
5
6

>  <PUBCHEM_MMFF94_PARTIAL_CHARGES>  (1) 
14
1 -0.36
10 0.72
13 0.7
14 0.28
19 0.4
2 -0.87
20 0.4
3 -0.87
4 -0.62
5 -0.62
6 -0.62
7 0.37
8 0.37
9 0.72

>  <PUBCHEM_EFFECTIVE_ROTOR_COUNT>  (1) 
5

>  <PUBCHEM_PHARMACOPHORE_FEATURES>  (1) 
5
1 2 donor
1 3 donor
4 2 4 6 9 cation
4 3 4 5 10 cation
6 4 5 6 9 10 13 rings

>  <PUBCHEM_HEAVY_ATOM_COUNT>  (1) 
14

>  <PUBCHEM_ATOM_DEF_STEREO_COUNT>  (1) 
0

>  <PUBCHEM_ATOM_UDEF_STEREO_COUNT>  (1) 
0

>  <PUBCHEM_BOND_DEF_STEREO_COUNT>  (1) 
0

>  <PUBCHEM_BOND_UDEF_STEREO_COUNT>  (1) 
0

>  <PUBCHEM_ISOTOPIC_ATOM_COUNT>  (1) 
0

>  <PUBCHEM_COMPONENT_COUNT>  (1) 
1

>  <PUBCHEM_CACTVS_TAUTO_COUNT>  (1) 
5

>  <PUBCHEM_CONFORMER_ID>  (1) 
0000316E00000001

>  <PUBCHEM_MMFF94_ENERGY>  (1) 
36.71

>  <PUBCHEM_FEATURE_SELFOVERLAP>  (1) 
25.414

>  <PUBCHEM_SHAPE_FINGERPRINT>  (1) 
12032990 46 18337953514238395123
13052359 8 18264483984377753925
13380535 76 17982164522427959020
14178000 15 18124314076156151731
15042514 8 18337676286957459923
15442244 35 18196378228720189963
17539 30 18340195332864030853
193761 8 18410575127692568224
20645477 70 17831849519413183823
20671657 53 18196095666895453991
20711985 365 18410012139099616076
20871998 184 18201999906760235182
20871998 22 18267301126067013659
21296965 67 18339077210768680835
21426921 1 18410857621077005934
21478907 32 18410008827981011299
221490 88 17614566264656550379
23402539 116 18269825437661836621
23530152 11 17905890275754734941
23557571 272 18200882773208548342
23558518 356 18333454248596854424
23559900 14 18127406740958071742
2748010 2 18267851955797039293
3091708 16 9061785072306483153
366044 4 18049442543514977952
54173680 148 18410573972556758057
58779409 54 18337941316736444487
58779409 8 18120941607347205221
68521 5 18410013238584954527
7364860 26 17618504719590771683
81228 2 18334294275137480145
9709674 26 18127973006046010310

>  <PUBCHEM_SHAPE_MULTIPOLES>  (1) 
257.34
6.69
3.53
0.58
6.84
1.43
0
-5.53
-0.03
-4.87
-0.01
0
-0.02
0

>  <PUBCHEM_SHAPE_SELFOVERLAP>  (1) 
508.231

>  <PUBCHEM_SHAPE_VOLUME>  (1) 
150.5

>  <PUBCHEM_COORDINATE_TYPE>  (1) 
2
5
10

$$$$
