12666
     RDKit          3D

 10  9  0  0  0  0  0  0  0  0999 V2000
    2.5129    1.7918   -0.7703 Cl  0  0  0  0  0  0  0  0  0  0  0  0
    3.3174   -1.3588   -0.8537 Cl  0  0  0  0  0  0  0  0  0  0  0  0
    2.0921   -0.0171    0.0737 Si  0  0  0  0  0  4  0  0  0  0  0  0
   -3.0670    0.8397    0.5182 F   0  0  0  0  0  0  0  0  0  0  0  0
   -2.3845   -1.2353    0.4866 F   0  0  0  0  0  0  0  0  0  0  0  0
   -2.3381   -0.0422   -1.3381 F   0  0  0  0  0  0  0  0  0  0  0  0
    0.3150   -0.4607   -0.3065 C   0  0  0  0  0  0  0  0  0  0  0  0
   -0.7386    0.4587    0.3185 C   0  0  0  0  0  0  0  0  0  0  0  0
    2.4370    0.0233    1.8727 C   0  0  0  0  0  0  0  0  0  0  0  0
   -2.1462    0.0005   -0.0012 C   0  0  0  0  0  0  0  0  0  0  0  0
  1  3  1  0
  2  3  1  0
  3  7  1  0
  3  9  1  0
  4 10  1  0
  5 10  1  0
  6 10  1  0
  7  8  1  0
  8 10  1  0
M  END
>  <PUBCHEM_COMPOUND_CID>  (1) 
12666

>  <PUBCHEM_CONFORMER_RMSD>  (1) 
0.6

>  <PUBCHEM_CONFORMER_DIVERSEORDER>  (1) 
2
4
1
3

>  <PUBCHEM_MMFF94_PARTIAL_CHARGES>  (1) 
9
1 -0.37
10 1.02
2 -0.37
3 0.9
4 -0.34
5 -0.34
6 -0.34
7 -0.08
9 -0.08

>  <PUBCHEM_EFFECTIVE_ROTOR_COUNT>  (1) 
3

>  <PUBCHEM_PHARMACOPHORE_FEATURES>  (1) 
0

>  <PUBCHEM_HEAVY_ATOM_COUNT>  (1) 
10

>  <PUBCHEM_ATOM_DEF_STEREO_COUNT>  (1) 
0

>  <PUBCHEM_ATOM_UDEF_STEREO_COUNT>  (1) 
0

>  <PUBCHEM_BOND_DEF_STEREO_COUNT>  (1) 
0

>  <PUBCHEM_BOND_UDEF_STEREO_COUNT>  (1) 
0

>  <PUBCHEM_ISOTOPIC_ATOM_COUNT>  (1) 
0

>  <PUBCHEM_COMPONENT_COUNT>  (1) 
1

>  <PUBCHEM_CACTVS_TAUTO_COUNT>  (1) 
1

>  <PUBCHEM_CONFORMER_ID>  (1) 
0000317A00000002

>  <PUBCHEM_MMFF94_ENERGY>  (1) 
5.6864

>  <PUBCHEM_FEATURE_SELFOVERLAP>  (1) 
0

>  <PUBCHEM_SHAPE_FINGERPRINT>  (1) 
12932741 1 17894916247555206830
12932764 1 17240763981957828062
14325111 11 18411144661877645100
14390081 3 17167859798379148100
15775835 57 17167865261751491922
17041 50 18187928331299428084
170605 34 17970071243575021356
18186145 218 18040154015338339837
20339313 130 18341907255494375884
20671657 53 18197238978984421430
20711985 344 17972595477311618148
21524375 3 17464824858728329076
23552423 10 18411984650149011646
3248919 1 18411973684933727722
369184 2 17385717015379899561
5084963 1 18272935986079056234
8030462 33 17846500348110934268

>  <PUBCHEM_SHAPE_MULTIPOLES>  (1) 
205.93
5.55
1.39
1.32
2.73
0.24
-0.42
-0.43
0.36
-0.99
0.36
-0.77
0.03
0.03

>  <PUBCHEM_SHAPE_SELFOVERLAP>  (1) 
357.617

>  <PUBCHEM_SHAPE_VOLUME>  (1) 
139.1

>  <PUBCHEM_COORDINATE_TYPE>  (1) 
2
5
10

$$$$
