12674
     RDKit          3D

 11 10  0  0  1  0  0  0  0  0999 V2000
   -0.1075   -1.8069   -0.0292 O   0  0  0  0  0  0  0  0  0  0  0  0
   -2.3776    0.9319    0.3796 O   0  0  0  0  0  0  0  0  0  0  0  0
    2.7144    0.5921   -0.7692 O   0  0  0  0  0  0  0  0  0  0  0  0
   -2.5886   -1.0717   -0.7438 O   0  0  0  0  0  0  0  0  0  0  0  0
    2.1508   -0.2467    1.3075 O   0  0  0  0  0  0  0  0  0  0  0  0
   -0.5182   -0.5157    0.3979 C   0  0  0  0  0  0  0  0  0  0  0  0
    0.4299    0.5142   -0.2057 C   0  0  0  0  0  0  0  0  0  0  0  0
   -1.9442   -0.2857   -0.0615 C   0  0  0  0  0  0  0  0  0  0  0  0
    1.8500    0.2404    0.2254 C   0  0  0  0  0  0  0  0  0  0  0  0
   -3.7078    1.2904   -0.0078 C   0  0  0  0  0  0  0  0  0  0  0  0
    4.0989    0.3577   -0.4931 C   0  0  0  0  0  0  0  0  0  0  0  0
  1  6  1  0
  2  8  1  0
  2 10  1  0
  3  9  1  0
  3 11  1  0
  4  8  2  0
  5  9  2  0
  6  7  1  0
  6  8  1  0
  7  9  1  0
M  END
>  <PUBCHEM_COMPOUND_CID>  (1) 
12674

>  <PUBCHEM_CONFORMER_RMSD>  (1) 
0.6

>  <PUBCHEM_CONFORMER_DIVERSEORDER>  (1) 
7
37
24
39
26
19
3
38
13
23
31
34
9
41
14
15
32
6
5
18
1
36
29
21
17
35
40
27
16
11
22
28
10
33
20
8
2
12
30
25
4

>  <PUBCHEM_MMFF94_PARTIAL_CHARGES>  (1) 
12
1 -0.68
10 0.28
11 0.28
15 0.4
2 -0.43
3 -0.43
4 -0.57
5 -0.57
6 0.34
7 0.06
8 0.66
9 0.66

>  <PUBCHEM_EFFECTIVE_ROTOR_COUNT>  (1) 
5

>  <PUBCHEM_PHARMACOPHORE_FEATURES>  (1) 
4
1 1 acceptor
1 1 donor
1 4 acceptor
1 5 acceptor

>  <PUBCHEM_HEAVY_ATOM_COUNT>  (1) 
11

>  <PUBCHEM_ATOM_DEF_STEREO_COUNT>  (1) 
0

>  <PUBCHEM_ATOM_UDEF_STEREO_COUNT>  (1) 
1

>  <PUBCHEM_BOND_DEF_STEREO_COUNT>  (1) 
0

>  <PUBCHEM_BOND_UDEF_STEREO_COUNT>  (1) 
0

>  <PUBCHEM_ISOTOPIC_ATOM_COUNT>  (1) 
0

>  <PUBCHEM_COMPONENT_COUNT>  (1) 
1

>  <PUBCHEM_CACTVS_TAUTO_COUNT>  (1) 
1

>  <PUBCHEM_CONFORMER_ID>  (1) 
0000318200000007

>  <PUBCHEM_MMFF94_ENERGY>  (1) 
11.2788

>  <PUBCHEM_FEATURE_SELFOVERLAP>  (1) 
20.306

>  <PUBCHEM_SHAPE_FINGERPRINT>  (1) 
12716758 59 17632855339140278883
12897270 3 16702302347357813609
12932741 1 16988556939637203442
12932764 1 17704068525211731211
14325111 11 18410576192775197294
14390081 3 18060131021029485857
14993402 34 18187924018698465143
15775835 57 18260548909265523253
177051 138 10087643689124465820
18186145 218 17561362893915290065
20653085 51 18272093828728282401
20711983 171 18409448080986662180
21501925 9 8934708977171098966
23235685 24 18408886222007707317
23402539 116 18342452643390067940
29004967 10 14779260917093163084
3248919 1 17967803972729830482
5084963 1 17775007945988754731
57812782 119 16200432468256815540

>  <PUBCHEM_SHAPE_MULTIPOLES>  (1) 
197.03
6.38
1.25
0.85
1.55
0.3
-0.11
-2.36
0.88
-0.84
0.08
0.32
0.04
-0.44

>  <PUBCHEM_SHAPE_SELFOVERLAP>  (1) 
375.59

>  <PUBCHEM_SHAPE_VOLUME>  (1) 
121.4

>  <PUBCHEM_COORDINATE_TYPE>  (1) 
2
5
10

$$$$
