12685
     RDKit          3D

  9  8  0  0  0  0  0  0  0  0999 V2000
   -0.0080   -0.8693    0.1139 P   0  0  0  0  0  0  0  0  0  0  0  0
    1.4719   -0.2747    0.3904 O   0  0  0  0  0  0  0  0  0  0  0  0
   -0.9752    0.4208    0.2570 O   0  0  0  0  0  0  0  0  0  0  0  0
   -0.3684   -2.0188    1.0108 O   0  0  0  0  0  0  0  0  0  0  0  0
   -0.0345   -1.2762   -1.6215 C   0  0  0  0  0  0  0  0  0  0  0  0
    1.9320    0.8782   -0.2918 C   0  0  0  0  0  0  0  0  0  0  0  0
   -2.3342    0.3080   -0.1269 C   0  0  0  0  0  0  0  0  0  0  0  0
    3.3390    1.1950    0.1684 C   0  0  0  0  0  0  0  0  0  0  0  0
   -3.0226    1.6370    0.0998 C   0  0  0  0  0  0  0  0  0  0  0  0
  1  2  1  0
  1  3  1  0
  1  4  2  0
  1  5  1  0
  2  6  1  0
  3  7  1  0
  6  8  1  0
  7  9  1  0
M  END
>  <PUBCHEM_COMPOUND_CID>  (1) 
12685

>  <PUBCHEM_CONFORMER_RMSD>  (1) 
0.6

>  <PUBCHEM_CONFORMER_DIVERSEORDER>  (1) 
1
7
10
8
12
2
14
5
4
3
13
11
6
9

>  <PUBCHEM_MMFF94_PARTIAL_CHARGES>  (1) 
6
1 1.24
2 -0.55
3 -0.55
4 -0.7
6 0.28
7 0.28

>  <PUBCHEM_EFFECTIVE_ROTOR_COUNT>  (1) 
4

>  <PUBCHEM_PHARMACOPHORE_FEATURES>  (1) 
1
1 4 acceptor

>  <PUBCHEM_HEAVY_ATOM_COUNT>  (1) 
9

>  <PUBCHEM_ATOM_DEF_STEREO_COUNT>  (1) 
0

>  <PUBCHEM_ATOM_UDEF_STEREO_COUNT>  (1) 
0

>  <PUBCHEM_BOND_DEF_STEREO_COUNT>  (1) 
0

>  <PUBCHEM_BOND_UDEF_STEREO_COUNT>  (1) 
0

>  <PUBCHEM_ISOTOPIC_ATOM_COUNT>  (1) 
0

>  <PUBCHEM_COMPONENT_COUNT>  (1) 
1

>  <PUBCHEM_CACTVS_TAUTO_COUNT>  (1) 
1

>  <PUBCHEM_CONFORMER_ID>  (1) 
0000318D00000001

>  <PUBCHEM_MMFF94_ENERGY>  (1) 
1.9636

>  <PUBCHEM_FEATURE_SELFOVERLAP>  (1) 
5.074

>  <PUBCHEM_SHAPE_FINGERPRINT>  (1) 
100427 49 16971115644431478521
10149128 76 18412266107787688424
14325111 11 18410011030903289969
14390081 3 18411700946263804273
15775835 57 18413386527384982557
170605 34 18341615850405759077
20653085 51 18202007659075853908
21028194 46 18342182175828954696
21040471 1 18334019410167912450
21524375 3 18412821382629225069
23211744 41 18410863122645210533
68250623 7 18341888584765807199

>  <PUBCHEM_SHAPE_MULTIPOLES>  (1) 
171.46
4.41
1.87
1.03
0.74
0.34
0.25
-3.81
-0.1
-0.39
-0.06
-0.01
0.61
0.04

>  <PUBCHEM_SHAPE_SELFOVERLAP>  (1) 
290.983

>  <PUBCHEM_SHAPE_VOLUME>  (1) 
116.4

>  <PUBCHEM_COORDINATE_TYPE>  (1) 
2
5
10

$$$$
