12687
     RDKit          3D

 19 18  0  0  0  0  0  0  0  0999 V2000
    3.0914   -1.8579   -1.9601 O   0  0  0  0  0  0  0  0  0  0  0  0
    2.5338   -3.1229   -0.1514 O   0  0  0  0  0  0  0  0  0  0  0  0
    3.9903   -0.3300    0.6831 N   0  0  0  0  0  0  0  0  0  0  0  0
    3.3132    0.6087   -0.2416 C   0  0  0  0  0  0  0  0  0  0  0  0
    2.8880    1.8741    0.4929 C   0  0  0  0  0  0  0  0  0  0  0  0
    2.1266    2.9078   -0.3452 C   0  0  0  0  0  0  0  0  0  0  0  0
    4.4277   -1.6048   -0.0534 C   0  0  0  0  0  0  0  0  0  0  0  0
    0.8415    2.4084   -1.0125 C   0  0  0  0  0  0  0  0  0  0  0  0
    5.2406    0.3147    1.2997 C   0  0  0  0  0  0  0  0  0  0  0  0
    3.0538   -0.7411    1.8289 C   0  0  0  0  0  0  0  0  0  0  0  0
   -0.1714    1.8263   -0.0232 C   0  0  0  0  0  0  0  0  0  0  0  0
   -1.4685    1.4279   -0.7324 C   0  0  0  0  0  0  0  0  0  0  0  0
   -2.5313    0.8631    0.2146 C   0  0  0  0  0  0  0  0  0  0  0  0
   -3.8186    0.4419   -0.4977 C   0  0  0  0  0  0  0  0  0  0  0  0
   -4.8706   -0.0451    0.5015 C   0  0  0  0  0  0  0  0  0  0  0  0
    3.2539   -2.2918   -0.6842 C   0  0  0  0  0  0  0  0  0  0  0  0
   -6.1718   -0.4303   -0.2043 C   0  0  0  0  0  0  0  0  0  0  0  0
   -7.2112   -0.9484    0.7894 C   0  0  0  0  0  0  0  0  0  0  0  0
   -8.5175   -1.3006    0.0959 C   0  0  0  0  0  0  0  0  0  0  0  0
  1 16  1  0
  2 16  2  0
  3  4  1  0
  3  7  1  0
  3  9  1  0
  3 10  1  0
  4  5  1  0
  5  6  1  0
  6  8  1  0
  7 16  1  0
  8 11  1  0
 11 12  1  0
 12 13  1  0
 13 14  1  0
 14 15  1  0
 15 17  1  0
 17 18  1  0
 18 19  1  0
M  CHG  1   3   1
M  END
>  <PUBCHEM_COMPOUND_CID>  (1) 
12687

>  <PUBCHEM_CONFORMER_RMSD>  (1) 
1.2

>  <PUBCHEM_CONFORMER_DIVERSEORDER>  (1) 
2
89
73
32
81
68
67
38
63
69
8
87
55
49
13
90
74
54
61
60
4
43
64
77
57
15
3
41
35
75
27
85
31
14
28
86
29
30
51
12
56
9
71
88
36
17
62
52
53
37
26
91
83
92
40
33
7
66
46
1
25
42
21
94
23
11
70
39
58
45
59
44
5
18
20
72
93
10
6
65
79
19
76
22
48
50
24
16
78
80
34
47
84
82

>  <PUBCHEM_MMFF94_PARTIAL_CHARGES>  (1) 
9
1 -0.65
10 0.5
16 0.66
2 -0.57
3 -1.01
4 0.5
53 0.5
7 0.56
9 0.5

>  <PUBCHEM_EFFECTIVE_ROTOR_COUNT>  (1) 
13

>  <PUBCHEM_PHARMACOPHORE_FEATURES>  (1) 
5
1 1 acceptor
1 19 hydrophobe
1 2 acceptor
1 3 cation
3 1 2 16 anion

>  <PUBCHEM_HEAVY_ATOM_COUNT>  (1) 
19

>  <PUBCHEM_ATOM_DEF_STEREO_COUNT>  (1) 
0

>  <PUBCHEM_ATOM_UDEF_STEREO_COUNT>  (1) 
0

>  <PUBCHEM_BOND_DEF_STEREO_COUNT>  (1) 
0

>  <PUBCHEM_BOND_UDEF_STEREO_COUNT>  (1) 
0

>  <PUBCHEM_ISOTOPIC_ATOM_COUNT>  (1) 
0

>  <PUBCHEM_COMPONENT_COUNT>  (1) 
1

>  <PUBCHEM_CACTVS_TAUTO_COUNT>  (1) 
1

>  <PUBCHEM_CONFORMER_ID>  (1) 
0000318F00000002

>  <PUBCHEM_MMFF94_ENERGY>  (1) 
27.3767

>  <PUBCHEM_FEATURE_SELFOVERLAP>  (1) 
25.428

>  <PUBCHEM_SHAPE_FINGERPRINT>  (1) 
10316853 100 18334862735866745179
125118 31 11455630776959129643
12596602 18 16988842786948663611
12778500 126 16988851531649842827
12892183 10 17774996831030780496
13464513 79 18409445865490412568
13533116 47 18272092729644162889
13551218 46 18413389848217167703
13617811 41 15430031076940359927
13989917 61 18338523044662417339
14211702 104 18043822085968371035
14251740 57 18201446835046971935
14252887 29 18340201895890998752
14528608 73 8502654792721819425
15003188 105 17822566101968014882
15342816 4 17823133441620644072
15635459 17 18335140856615779416
1768 124 18341893043627318351
17859628 70 18341896277415685508
1979834 28 18060699476925434334
20165401 70 18341893022305982567
20397935 70 18272092707957953005
20403669 9 18187082840995743345
20645477 70 18261109690361005276
21197605 99 18267584791572627339
21623969 137 18409164420093078755
22224240 67 18130211758081301208
239999 70 18040713709823050376
3472631 163 10665232549106152169
465052 167 18408321094505990525
59682541 52 14706926246563047943
6025842 7 18115593793159470732

>  <PUBCHEM_SHAPE_MULTIPOLES>  (1) 
374.29
18.43
3.08
1.25
46.6
0.12
0.03
11.32
3.96
-3.98
-0.96
-1.43
0.38
1

>  <PUBCHEM_SHAPE_SELFOVERLAP>  (1) 
687.87

>  <PUBCHEM_SHAPE_VOLUME>  (1) 
238.5

>  <PUBCHEM_COORDINATE_TYPE>  (1) 
2
5
10

$$$$
