12696
     RDKit          3D

 10  9  0  0  0  0  0  0  0  0999 V2000
    0.0239    0.7638    0.7408 P   0  0  0  0  0  0  0  0  0  0  0  0
    0.0007    2.1364    0.1352 O   0  0  0  0  0  0  0  0  0  0  0  0
   -1.3960   -0.1688    0.0366 C   0  0  0  0  0  0  0  0  0  0  0  0
    1.3942   -0.1700    0.0359 C   0  0  0  0  0  0  0  0  0  0  0  0
   -2.7014    0.4059    0.5962 C   0  0  0  0  0  0  0  0  0  0  0  0
   -1.3800   -0.0311   -1.4891 C   0  0  0  0  0  0  0  0  0  0  0  0
   -1.2701   -1.6452    0.4259 C   0  0  0  0  0  0  0  0  0  0  0  0
    1.6859   -1.3826    0.9258 C   0  0  0  0  0  0  0  0  0  0  0  0
    1.0110   -0.6388   -1.3714 C   0  0  0  0  0  0  0  0  0  0  0  0
    2.6317    0.7305   -0.0359 C   0  0  0  0  0  0  0  0  0  0  0  0
  1  2  2  0
  1  3  1  0
  1  4  1  0
  3  5  1  0
  3  6  1  0
  3  7  1  0
  4  8  1  0
  4  9  1  0
  4 10  1  0
M  END
>  <PUBCHEM_COMPOUND_CID>  (1) 
12696

>  <PUBCHEM_CONFORMER_RMSD>  (1) 
0.4

>  <PUBCHEM_CONFORMER_DIVERSEORDER>  (1) 
1

>  <PUBCHEM_MMFF94_PARTIAL_CHARGES>  (1) 
3
1 0.74
11 -0.04
2 -0.7

>  <PUBCHEM_EFFECTIVE_ROTOR_COUNT>  (1) 
2

>  <PUBCHEM_PHARMACOPHORE_FEATURES>  (1) 
3
1 2 acceptor
4 3 5 6 7 hydrophobe
4 4 8 9 10 hydrophobe

>  <PUBCHEM_HEAVY_ATOM_COUNT>  (1) 
10

>  <PUBCHEM_ATOM_DEF_STEREO_COUNT>  (1) 
0

>  <PUBCHEM_ATOM_UDEF_STEREO_COUNT>  (1) 
0

>  <PUBCHEM_BOND_DEF_STEREO_COUNT>  (1) 
0

>  <PUBCHEM_BOND_UDEF_STEREO_COUNT>  (1) 
0

>  <PUBCHEM_ISOTOPIC_ATOM_COUNT>  (1) 
0

>  <PUBCHEM_COMPONENT_COUNT>  (1) 
1

>  <PUBCHEM_CACTVS_TAUTO_COUNT>  (1) 
2

>  <PUBCHEM_CONFORMER_ID>  (1) 
0000319800000001

>  <PUBCHEM_MMFF94_ENERGY>  (1) 
60.9723

>  <PUBCHEM_FEATURE_SELFOVERLAP>  (1) 
15.223

>  <PUBCHEM_SHAPE_FINGERPRINT>  (1) 
12423570 1 15727768791886139747
12524768 44 18130515149415955133
15310529 11 16805323266791655298
16945 1 17676201403132180206
18185500 45 18408041818568281770
21922407 69 17679051264288599604
23235685 24 18059860566564212729
23235687 12 16950287342215870622
241688 4 17049666421561832138
24536 1 18202845456650005983
29004967 10 18340774822425324416
369184 2 18334289855594825435
5084963 1 17901096739785336956
528886 8 17846786225581987270

>  <PUBCHEM_SHAPE_MULTIPOLES>  (1) 
203.78
3.19
1.6
1.24
0.04
0.17
0.43
0.12
-0.31
-0.12
-0.33
0.09
-0.2
-0.12

>  <PUBCHEM_SHAPE_SELFOVERLAP>  (1) 
370.813

>  <PUBCHEM_SHAPE_VOLUME>  (1) 
132.2

>  <PUBCHEM_COORDINATE_TYPE>  (1) 
2
5
10

$$$$
