12692
     RDKit          3D

  5  4  0  0  0  0  0  0  0  0999 V2000
   -2.3804    0.0999   -0.1080 Br  0  0  0  0  0  0  0  0  0  0  0  0
    0.4577   -1.6818    0.1496 Cl  0  0  0  0  0  0  0  0  0  0  0  0
    2.0666    0.7295    0.0209 Cl  0  0  0  0  0  0  0  0  0  0  0  0
    0.4747    0.0251   -0.3725 C   0  0  0  0  0  0  0  0  0  0  0  0
   -0.6187    0.8273    0.3100 C   0  0  0  0  0  0  0  0  0  0  0  0
  1  5  1  0
  2  4  1  0
  3  4  1  0
  4  5  1  0
M  END
>  <PUBCHEM_COMPOUND_CID>  (1) 
12692

>  <PUBCHEM_CONFORMER_RMSD>  (1) 
0.4

>  <PUBCHEM_CONFORMER_DIVERSEORDER>  (1) 
1
3
2

>  <PUBCHEM_MMFF94_PARTIAL_CHARGES>  (1) 
5
1 -0.23
2 -0.29
3 -0.29
4 0.58
5 0.23

>  <PUBCHEM_EFFECTIVE_ROTOR_COUNT>  (1) 
1

>  <PUBCHEM_PHARMACOPHORE_FEATURES>  (1) 
1
1 1 hydrophobe

>  <PUBCHEM_HEAVY_ATOM_COUNT>  (1) 
5

>  <PUBCHEM_ATOM_DEF_STEREO_COUNT>  (1) 
0

>  <PUBCHEM_ATOM_UDEF_STEREO_COUNT>  (1) 
0

>  <PUBCHEM_BOND_DEF_STEREO_COUNT>  (1) 
0

>  <PUBCHEM_BOND_UDEF_STEREO_COUNT>  (1) 
0

>  <PUBCHEM_ISOTOPIC_ATOM_COUNT>  (1) 
0

>  <PUBCHEM_COMPONENT_COUNT>  (1) 
1

>  <PUBCHEM_CACTVS_TAUTO_COUNT>  (1) 
1

>  <PUBCHEM_CONFORMER_ID>  (1) 
0000319400000001

>  <PUBCHEM_MMFF94_ENERGY>  (1) 
3.556

>  <PUBCHEM_FEATURE_SELFOVERLAP>  (1) 
5.074

>  <PUBCHEM_SHAPE_FINGERPRINT>  (1) 
139733 1 9509446816376450375
16714656 1 18337111292631351572
20096714 4 18341896294358197124
21040471 1 18337955704781972724
23552449 11 17970337114439543739
29004967 10 18187654582863361513
5460574 1 8358265838708092821
5943 1 8260711862712016418

>  <PUBCHEM_SHAPE_MULTIPOLES>  (1) 
112.58
2.99
1.46
0.71
0.96
0.76
-0.01
-0.76
-0.1
-0.42
0.12
0.04
-0.01
-0.04

>  <PUBCHEM_SHAPE_SELFOVERLAP>  (1) 
166.18

>  <PUBCHEM_SHAPE_VOLUME>  (1) 
85.2

>  <PUBCHEM_COORDINATE_TYPE>  (1) 
2
5
10

$$$$
