12704
     RDKit          3D

  9  8  0  0  0  0  0  0  0  0999 V2000
   -2.1004   -0.5636    0.3180 S   0  0  0  0  0  0  0  0  0  0  0  0
   -0.9066    2.0312    1.1106 S   0  0  0  0  0  0  0  0  0  0  0  0
    0.5664   -0.0729    0.0986 N   0  0  0  0  0  0  0  0  0  0  0  0
    1.8230    0.6739    0.1947 C   0  0  0  0  0  0  0  0  0  0  0  0
    0.7288   -1.4303   -0.4310 C   0  0  0  0  0  0  0  0  0  0  0  0
    2.1173    1.4218   -1.0946 C   0  0  0  0  0  0  0  0  0  0  0  0
    1.0213   -2.4225    0.6819 C   0  0  0  0  0  0  0  0  0  0  0  0
   -0.6704    0.4775    0.4892 C   0  0  0  0  0  0  0  0  0  0  0  0
   -2.5793   -0.1151   -1.3675 C   0  0  0  0  0  0  0  0  0  0  0  0
  1  8  1  0
  1  9  1  0
  2  8  2  0
  3  4  1  0
  3  5  1  0
  3  8  1  0
  4  6  1  0
  5  7  1  0
M  END
>  <PUBCHEM_COMPOUND_CID>  (1) 
12704

>  <PUBCHEM_CONFORMER_RMSD>  (1) 
0.6

>  <PUBCHEM_CONFORMER_DIVERSEORDER>  (1) 
1
21
35
29
31
38
13
36
10
12
37
8
19
24
26
23
30
32
9
25
22
15
14
20
11
17
3
2
34
6
28
33
27
18
4
5
7
16

>  <PUBCHEM_MMFF94_PARTIAL_CHARGES>  (1) 
7
1 -0.37
2 -0.38
3 -0.66
4 0.3
5 0.3
8 0.58
9 0.23

>  <PUBCHEM_EFFECTIVE_ROTOR_COUNT>  (1) 
4

>  <PUBCHEM_PHARMACOPHORE_FEATURES>  (1) 
2
1 2 acceptor
1 9 hydrophobe

>  <PUBCHEM_HEAVY_ATOM_COUNT>  (1) 
9

>  <PUBCHEM_ATOM_DEF_STEREO_COUNT>  (1) 
0

>  <PUBCHEM_ATOM_UDEF_STEREO_COUNT>  (1) 
0

>  <PUBCHEM_BOND_DEF_STEREO_COUNT>  (1) 
0

>  <PUBCHEM_BOND_UDEF_STEREO_COUNT>  (1) 
0

>  <PUBCHEM_ISOTOPIC_ATOM_COUNT>  (1) 
0

>  <PUBCHEM_COMPONENT_COUNT>  (1) 
1

>  <PUBCHEM_CACTVS_TAUTO_COUNT>  (1) 
1

>  <PUBCHEM_CONFORMER_ID>  (1) 
000031A000000001

>  <PUBCHEM_MMFF94_ENERGY>  (1) 
17.6327

>  <PUBCHEM_FEATURE_SELFOVERLAP>  (1) 
10.148

>  <PUBCHEM_SHAPE_FINGERPRINT>  (1) 
12897270 3 18411983597903110221
18185500 45 18201995534467560263
20653091 64 18191876621366846770
21040471 1 18193560197207464658
23211744 25 17980187905537820263
23419403 2 16611591426764307609
23552333 60 18271806770394248811
23552423 10 18337681797553461955
4369600 1 18058725952137233953
5084963 1 17822865293600151852
54338 74 17687168803938746851

>  <PUBCHEM_SHAPE_MULTIPOLES>  (1) 
187.93
3.13
2.37
1.24
0.81
0.46
-0.26
-0.3
-1.13
-0.83
0.73
0.33
-0.24
-0.81

>  <PUBCHEM_SHAPE_SELFOVERLAP>  (1) 
316.102

>  <PUBCHEM_SHAPE_VOLUME>  (1) 
129.4

>  <PUBCHEM_COORDINATE_TYPE>  (1) 
2
5
10

$$$$
