12713
     RDKit          3D

 14 13  0  0  1  0  0  0  0  0999 V2000
    1.4726   -0.0452   -0.2037 O   0  0  0  0  0  0  0  0  0  0  0  0
    2.7328   -1.5656    0.9791 O   0  0  0  0  0  0  0  0  0  0  0  0
   -0.9492    0.1294   -0.2362 C   0  0  0  0  0  0  0  0  0  0  0  0
   -2.2301   -0.6368    0.1564 C   0  0  0  0  0  0  0  0  0  0  0  0
   -0.9592    1.6227    0.1610 C   0  0  0  0  0  0  0  0  0  0  0  0
   -3.5050   -0.0612   -0.4687 C   0  0  0  0  0  0  0  0  0  0  0  0
    0.2783   -0.6145    0.3149 C   0  0  0  0  0  0  0  0  0  0  0  0
   -4.7715   -0.8181   -0.0594 C   0  0  0  0  0  0  0  0  0  0  0  0
   -1.0666    1.8942    1.6552 C   0  0  0  0  0  0  0  0  0  0  0  0
   -6.0436   -0.2359   -0.6560 C   0  0  0  0  0  0  0  0  0  0  0  0
    2.6405   -0.6186    0.2108 C   0  0  0  0  0  0  0  0  0  0  0  0
    3.7993    0.0809   -0.4109 C   0  0  0  0  0  0  0  0  0  0  0  0
    3.5762    1.2337   -1.3412 C   0  0  0  0  0  0  0  0  0  0  0  0
    5.0256   -0.3650   -0.1014 C   0  0  0  0  0  0  0  0  0  0  0  0
  1  7  1  0
  1 11  1  0
  2 11  2  0
  3  4  1  0
  3  5  1  0
  3  7  1  0
  4  6  1  0
  5  9  1  0
  6  8  1  0
  8 10  1  0
 11 12  1  0
 12 13  1  0
 12 14  2  0
M  END
>  <PUBCHEM_COMPOUND_CID>  (1) 
12713

>  <PUBCHEM_CONFORMER_RMSD>  (1) 
0.8

>  <PUBCHEM_CONFORMER_DIVERSEORDER>  (1) 
1
223
159
264
134
231
253
20
158
58
225
99
23
133
265
249
218
240
251
96
123
81
239
194
160
87
200
32
50
185
29
72
209
92
51
252
228
242
59
227
170
259
266
254
243
131
16
157
165
221
120
48
261
144
247
151
203
78
143
262
169
114
217
168
107
232
155
98
180
187
116
26
49
95
238
234
178
28
126
182
77
2
71
86
66
184
30
176
19
90
112
22
85
127
69
171
229
111
76
244
121
10
88
245
188
75
115
267
235
263
128
199
192
145
161
9
208
197
94
129
191
220
43
214
27
256
149
154
206
122
130
15
33
233
110
109
100
166
34
108
13
246
179
5
190
216
106
255
139
14
113
47
213
136
101
91
205
258
36
83
117
52
17
222
211
224
60
226
163
172
53
31
7
189
38
174
153
241
8
97
132
82
250
37
40
11
181
142
207
162
236
150
146
193
61
46
4
164
105
210
64
104
25
70
167
237
230
84
202
177
41
93
195
6
183
148
257
173
140
152
175
74
248
63
21
42
201
260
156
55
138
215
12
119
67
62
204
68
137
79
3
186
102
35
24
54
125
196
73
135
56
39
141
57
65
198
44
45
80
118
124
18
89
212
103
219
147

>  <PUBCHEM_MMFF94_PARTIAL_CHARGES>  (1) 
9
1 -0.43
11 0.71
12 -0.12
13 0.14
14 -0.3
2 -0.57
35 0.15
36 0.15
7 0.28

>  <PUBCHEM_EFFECTIVE_ROTOR_COUNT>  (1) 
8

>  <PUBCHEM_PHARMACOPHORE_FEATURES>  (1) 
4
1 10 hydrophobe
1 2 acceptor
1 9 hydrophobe
5 3 4 5 6 8 hydrophobe

>  <PUBCHEM_HEAVY_ATOM_COUNT>  (1) 
14

>  <PUBCHEM_ATOM_DEF_STEREO_COUNT>  (1) 
0

>  <PUBCHEM_ATOM_UDEF_STEREO_COUNT>  (1) 
1

>  <PUBCHEM_BOND_DEF_STEREO_COUNT>  (1) 
0

>  <PUBCHEM_BOND_UDEF_STEREO_COUNT>  (1) 
0

>  <PUBCHEM_ISOTOPIC_ATOM_COUNT>  (1) 
0

>  <PUBCHEM_COMPONENT_COUNT>  (1) 
1

>  <PUBCHEM_CACTVS_TAUTO_COUNT>  (1) 
1

>  <PUBCHEM_CONFORMER_ID>  (1) 
000031A900000001

>  <PUBCHEM_MMFF94_ENERGY>  (1) 
15.2297

>  <PUBCHEM_FEATURE_SELFOVERLAP>  (1) 
20.299

>  <PUBCHEM_SHAPE_FINGERPRINT>  (1) 
11287383 113 16877947169932661615
114248 4 17022901263905791127
12251169 10 10303810977995891266
12500047 106 13045952325930626256
12932764 1 15912752883269873854
13533116 47 18335132056344309010
14123238 8 16732700558511406791
14573314 32 15410625748528662473
15048467 5 17894628150250590037
15242433 33 18333730230294666591
15501527 24 18336267928531625278
17802600 8 18334856117574992300
17834072 33 18260547870347635567
17834076 25 17748544844386687375
17959699 21 17821445763991001293
18222031 100 17417804067814118087
187816 3 18408041814558190035
200 152 18408322181174693406
20279233 1 15140969426457376962
20645477 56 11746941992200213398
20645477 70 17604141519982750562
212916 134 13262672690093260181
23402539 116 18202279195392681911
23557571 272 17489594428681226136
312423 11 18268723718389254050
366044 4 11674877792951003241
42788 4 17821727243531522431
5374978 207 18343575248792958170
537710 114 18410856581251919101
58051976 378 18411423899509275638
68521 5 18202284667709005377
69090 78 11314029092989464785

>  <PUBCHEM_SHAPE_MULTIPOLES>  (1) 
276.37
11.46
1.46
1.07
6.41
0.73
-0.08
-2.97
3.2
-0.02
-0.5
-0.36
0.37
-0.99

>  <PUBCHEM_SHAPE_SELFOVERLAP>  (1) 
514.087

>  <PUBCHEM_SHAPE_VOLUME>  (1) 
173.7

>  <PUBCHEM_COORDINATE_TYPE>  (1) 
2
5
10

$$$$
