12721
     RDKit          3D

  7  6  0  0  0  0  0  0  0  0999 V2000
    0.9131   -0.0170    0.0002 C   0  0  0  0  0  0  0  0  0  0  0  0
    1.5820   -0.5821   -1.2656 C   0  0  0  0  0  0  0  0  0  0  0  0
    1.1229    1.5084    0.0234 C   0  0  0  0  0  0  0  0  0  0  0  0
    1.5940   -0.6219    1.2409 C   0  0  0  0  0  0  0  0  0  0  0  0
   -0.5466   -0.4483    0.0004 C   0  0  0  0  0  0  0  0  0  0  0  0
   -1.6325    0.3407    0.0001 C   0  0  0  0  0  0  0  0  0  0  0  0
   -3.0329   -0.1798    0.0006 C   0  0  0  0  0  0  0  0  0  0  0  0
  1  2  1  0
  1  3  1  0
  1  4  1  0
  1  5  1  0
  5  6  2  0
  6  7  1  0
M  END
>  <PUBCHEM_COMPOUND_CID>  (1) 
12721

>  <PUBCHEM_CONFORMER_RMSD>  (1) 
0.4

>  <PUBCHEM_CONFORMER_DIVERSEORDER>  (1) 
1

>  <PUBCHEM_MMFF94_PARTIAL_CHARGES>  (1) 
6
1 0.14
17 0.15
18 0.15
5 -0.29
6 -0.29
7 0.14

>  <PUBCHEM_EFFECTIVE_ROTOR_COUNT>  (1) 
1

>  <PUBCHEM_PHARMACOPHORE_FEATURES>  (1) 
2
1 7 hydrophobe
4 1 2 3 4 hydrophobe

>  <PUBCHEM_HEAVY_ATOM_COUNT>  (1) 
7

>  <PUBCHEM_ATOM_DEF_STEREO_COUNT>  (1) 
0

>  <PUBCHEM_ATOM_UDEF_STEREO_COUNT>  (1) 
0

>  <PUBCHEM_BOND_DEF_STEREO_COUNT>  (1) 
0

>  <PUBCHEM_BOND_UDEF_STEREO_COUNT>  (1) 
1

>  <PUBCHEM_ISOTOPIC_ATOM_COUNT>  (1) 
0

>  <PUBCHEM_COMPONENT_COUNT>  (1) 
1

>  <PUBCHEM_CACTVS_TAUTO_COUNT>  (1) 
1

>  <PUBCHEM_CONFORMER_ID>  (1) 
000031B100000001

>  <PUBCHEM_MMFF94_ENERGY>  (1) 
9.5649

>  <PUBCHEM_FEATURE_SELFOVERLAP>  (1) 
10.149

>  <PUBCHEM_SHAPE_FINGERPRINT>  (1) 
12932764 1 18040718078342321103
20096714 4 18338236093000257553
21040471 1 17241053222246031003
23552449 11 18336254704438174937
24536 1 18059856181576676793
29004967 10 17775569710489069194
3248919 1 17988922293160466847
5084963 1 17703800188808750991
5943 1 13136408116713168068

>  <PUBCHEM_SHAPE_MULTIPOLES>  (1) 
144.06
3.37
1.1
1.07
3.18
0.42
0.02
-0.29
0
-0.47
-0.01
-0.71
-0.27
0

>  <PUBCHEM_SHAPE_SELFOVERLAP>  (1) 
258.63

>  <PUBCHEM_SHAPE_VOLUME>  (1) 
96.1

>  <PUBCHEM_COORDINATE_TYPE>  (1) 
2
5
10

$$$$
