12736
     RDKit          3D

 16 15  0  0  0  0  0  0  0  0999 V2000
   -8.1308   -0.7156    0.0051 O   0  0  0  0  0  0  0  0  0  0  0  0
    8.0834    0.7506   -0.1146 O   0  0  0  0  0  0  0  0  0  0  0  0
   -7.1453    1.3264   -0.1026 O   0  0  0  0  0  0  0  0  0  0  0  0
    7.1388   -1.3192   -0.1101 O   0  0  0  0  0  0  0  0  0  0  0  0
   -0.6162   -0.4703    0.0690 C   0  0  0  0  0  0  0  0  0  0  0  0
    0.6421    0.4035    0.1248 C   0  0  0  0  0  0  0  0  0  0  0  0
   -1.9149    0.3378    0.0261 C   0  0  0  0  0  0  0  0  0  0  0  0
    1.9772   -0.3479    0.1074 C   0  0  0  0  0  0  0  0  0  0  0  0
   -3.1749   -0.5341    0.0486 C   0  0  0  0  0  0  0  0  0  0  0  0
    3.1970    0.5759    0.1081 C   0  0  0  0  0  0  0  0  0  0  0  0
   -4.5126    0.2153   -0.0133 C   0  0  0  0  0  0  0  0  0  0  0  0
    4.4992   -0.2251    0.0030 C   0  0  0  0  0  0  0  0  0  0  0  0
   -5.7569   -0.6727   -0.0563 C   0  0  0  0  0  0  0  0  0  0  0  0
    5.7368    0.6717    0.0321 C   0  0  0  0  0  0  0  0  0  0  0  0
   -7.0519    0.1073   -0.0668 C   0  0  0  0  0  0  0  0  0  0  0  0
    7.0293   -0.1034   -0.0603 C   0  0  0  0  0  0  0  0  0  0  0  0
  1 15  1  0
  2 16  1  0
  3 15  2  0
  4 16  2  0
  5  6  1  0
  5  7  1  0
  6  8  1  0
  7  9  1  0
  8 10  1  0
  9 11  1  0
 10 12  1  0
 11 13  1  0
 12 14  1  0
 13 15  1  0
 14 16  1  0
M  END
>  <PUBCHEM_COMPOUND_CID>  (1) 
12736

>  <PUBCHEM_CONFORMER_RMSD>  (1) 
1

>  <PUBCHEM_CONFORMER_DIVERSEORDER>  (1) 
1
43
101
117
112
97
33
4
7
2
71
34
42
46
76
58
115
63
105
99
57
91
22
31
72
67
81
109
77
45
83
6
69
87
32
56
36
113
125
9
61
23
121
93
73
24
51
85
55
29
122
47
66
90
38
118
80
88
62
35
110
15
95
104
13
102
50
53
65
64
14
19
123
74
37
30
44
10
52
75
26
3
48
68
79
16
8
18
5
84
59
21
96
106
25
70
12
111
27
108
78
82
20
126
11
39
60
41
120
86
89
100
54
17
40
124
92
116
98
119
114
107
94
28
49
103

>  <PUBCHEM_MMFF94_PARTIAL_CHARGES>  (1) 
10
1 -0.65
13 0.06
14 0.06
15 0.66
16 0.66
2 -0.65
3 -0.57
37 0.5
38 0.5
4 -0.57

>  <PUBCHEM_EFFECTIVE_ROTOR_COUNT>  (1) 
11

>  <PUBCHEM_PHARMACOPHORE_FEATURES>  (1) 
6
1 1 acceptor
1 2 acceptor
1 3 acceptor
1 4 acceptor
3 1 3 15 anion
3 2 4 16 anion

>  <PUBCHEM_HEAVY_ATOM_COUNT>  (1) 
16

>  <PUBCHEM_ATOM_DEF_STEREO_COUNT>  (1) 
0

>  <PUBCHEM_ATOM_UDEF_STEREO_COUNT>  (1) 
0

>  <PUBCHEM_BOND_DEF_STEREO_COUNT>  (1) 
0

>  <PUBCHEM_BOND_UDEF_STEREO_COUNT>  (1) 
0

>  <PUBCHEM_ISOTOPIC_ATOM_COUNT>  (1) 
0

>  <PUBCHEM_COMPONENT_COUNT>  (1) 
1

>  <PUBCHEM_CACTVS_TAUTO_COUNT>  (1) 
1

>  <PUBCHEM_CONFORMER_ID>  (1) 
000031C000000001

>  <PUBCHEM_MMFF94_ENERGY>  (1) 
5.0266

>  <PUBCHEM_FEATURE_SELFOVERLAP>  (1) 
30.564

>  <PUBCHEM_SHAPE_FINGERPRINT>  (1) 
10066227 49 17916873409153439222
11315181 36 17988928894519887555
11638347 137 13470413249784441636
12091667 2 18412263948447481371
13533116 47 16732970999822655768
13885169 127 18410575063673773001
14123256 10 18410575084663078931
14251764 18 18411136926520212667
14251764 46 18410575093253020002
17834076 25 18410292514469707779
18006028 8 16702020876702639457
20281389 69 18260264149013540012
20621476 8 18113053813802981110
21315763 28 18411981382122030445
22224240 67 15574713616609365800
23521765 1 18341895198935613443
28498 318 18271807900213331630
33684 2 18408884035805998218
57583515 80 18335140899607520489
59567204 34 18338515236950027877
59755656 520 18187640332225826399
67123 10 18410293639756420631
8209 1 18410855468718096385

>  <PUBCHEM_SHAPE_MULTIPOLES>  (1) 
305.8
27.6
0.96
0.6
0.9
0
-0.01
0.14
1.38
-0.02
0.02
-0.01
0
0.09

>  <PUBCHEM_SHAPE_SELFOVERLAP>  (1) 
565.77

>  <PUBCHEM_SHAPE_VOLUME>  (1) 
191.5

>  <PUBCHEM_COORDINATE_TYPE>  (1) 
2
5
10

$$$$
