12747
     RDKit          3D

  6  6  0  0  0  0  0  0  0  0999 V2000
    1.5301    0.8827   -0.0001 S   0  0  0  0  0  0  0  0  0  0  0  0
   -0.1084    1.1624    0.0001 N   0  0  0  0  0  0  0  0  0  0  0  0
   -0.7276   -0.0157    0.0003 C   0  0  0  0  0  0  0  0  0  0  0  0
    0.0899   -1.1820    0.0001 C   0  0  0  0  0  0  0  0  0  0  0  0
   -2.2055   -0.0206   -0.0003 C   0  0  0  0  0  0  0  0  0  0  0  0
    1.4214   -0.8267   -0.0001 C   0  0  0  0  0  0  0  0  0  0  0  0
  1  2  1  0
  1  6  1  0
  2  3  2  0
  3  4  1  0
  3  5  1  0
  4  6  2  0
M  END
>  <PUBCHEM_COMPOUND_CID>  (1) 
12747

>  <PUBCHEM_CONFORMER_RMSD>  (1) 
0.4

>  <PUBCHEM_CONFORMER_DIVERSEORDER>  (1) 
1

>  <PUBCHEM_MMFF94_PARTIAL_CHARGES>  (1) 
8
1 0.18
10 0.15
11 0.15
2 -0.51
3 0.11
4 -0.15
5 0.18
6 -0.11

>  <PUBCHEM_EFFECTIVE_ROTOR_COUNT>  (1) 
0

>  <PUBCHEM_PHARMACOPHORE_FEATURES>  (1) 
2
1 2 acceptor
5 1 2 3 4 6 rings

>  <PUBCHEM_HEAVY_ATOM_COUNT>  (1) 
6

>  <PUBCHEM_ATOM_DEF_STEREO_COUNT>  (1) 
0

>  <PUBCHEM_ATOM_UDEF_STEREO_COUNT>  (1) 
0

>  <PUBCHEM_BOND_DEF_STEREO_COUNT>  (1) 
0

>  <PUBCHEM_BOND_UDEF_STEREO_COUNT>  (1) 
0

>  <PUBCHEM_ISOTOPIC_ATOM_COUNT>  (1) 
0

>  <PUBCHEM_COMPONENT_COUNT>  (1) 
1

>  <PUBCHEM_CACTVS_TAUTO_COUNT>  (1) 
1

>  <PUBCHEM_CONFORMER_ID>  (1) 
000031CB00000001

>  <PUBCHEM_MMFF94_ENERGY>  (1) 
2.755

>  <PUBCHEM_FEATURE_SELFOVERLAP>  (1) 
10.148

>  <PUBCHEM_SHAPE_FINGERPRINT>  (1) 
139733 1 9294987077515355875
16714656 1 18337678623736264484
20096714 4 18339643455046212808
21015797 1 9294412024433719754
21040471 1 18266458887370206720
29004967 10 18334019380134803059
5943 1 11676822678343087014

>  <PUBCHEM_SHAPE_MULTIPOLES>  (1) 
122.35
2.34
1.29
0.62
0.84
0.06
0
-0.22
0
-0.38
0
-0.02
0
0

>  <PUBCHEM_SHAPE_SELFOVERLAP>  (1) 
232.974

>  <PUBCHEM_SHAPE_VOLUME>  (1) 
77.2

>  <PUBCHEM_COORDINATE_TYPE>  (1) 
2
5
10

$$$$
