12753
     RDKit          3D

  7  7  0  0  0  0  0  0  0  0999 V2000
   -2.2883    0.0000    0.0003 O   0  0  0  0  0  0  0  0  0  0  0  0
   -1.0146    0.0001   -0.0004 N   0  0  0  0  0  0  0  0  0  0  0  0
   -0.3131    1.1903   -0.0001 C   0  0  0  0  0  0  0  0  0  0  0  0
   -0.3132   -1.1902   -0.0001 C   0  0  0  0  0  0  0  0  0  0  0  0
    1.0778    1.2038    0.0000 C   0  0  0  0  0  0  0  0  0  0  0  0
    1.0777   -1.2039    0.0001 C   0  0  0  0  0  0  0  0  0  0  0  0
    1.7737    0.0000    0.0001 C   0  0  0  0  0  0  0  0  0  0  0  0
  1  2  1  0
  2  3  2  0
  2  4  1  0
  3  5  1  0
  4  6  2  0
  5  7  2  0
  6  7  1  0
M  CHG  2   1  -1   2   1
M  END
>  <PUBCHEM_COMPOUND_CID>  (1) 
12753

>  <PUBCHEM_CONFORMER_RMSD>  (1) 
0.4

>  <PUBCHEM_CONFORMER_DIVERSEORDER>  (1) 
1

>  <PUBCHEM_MMFF94_PARTIAL_CHARGES>  (1) 
12
1 -0.75
10 0.15
11 0.15
12 0.15
2 0.57
3 -0.06
4 -0.06
5 -0.15
6 -0.15
7 -0.15
8 0.15
9 0.15

>  <PUBCHEM_EFFECTIVE_ROTOR_COUNT>  (1) 
0

>  <PUBCHEM_PHARMACOPHORE_FEATURES>  (1) 
2
1 1 anion
6 2 3 4 5 6 7 rings

>  <PUBCHEM_HEAVY_ATOM_COUNT>  (1) 
7

>  <PUBCHEM_ATOM_DEF_STEREO_COUNT>  (1) 
0

>  <PUBCHEM_ATOM_UDEF_STEREO_COUNT>  (1) 
0

>  <PUBCHEM_BOND_DEF_STEREO_COUNT>  (1) 
0

>  <PUBCHEM_BOND_UDEF_STEREO_COUNT>  (1) 
0

>  <PUBCHEM_ISOTOPIC_ATOM_COUNT>  (1) 
0

>  <PUBCHEM_COMPONENT_COUNT>  (1) 
1

>  <PUBCHEM_CACTVS_TAUTO_COUNT>  (1) 
1

>  <PUBCHEM_CONFORMER_ID>  (1) 
000031D100000001

>  <PUBCHEM_MMFF94_ENERGY>  (1) 
14.8664

>  <PUBCHEM_FEATURE_SELFOVERLAP>  (1) 
10.148

>  <PUBCHEM_SHAPE_FINGERPRINT>  (1) 
16714656 1 18410864260927582118
18185500 45 18412821378334101911
20096714 4 18339080513693269098
21040471 1 18194683889306061668
23552423 10 17684945604565726974
29004967 10 18334019375734347241

>  <PUBCHEM_SHAPE_MULTIPOLES>  (1) 
133.21
2.15
1.48
0.59
0.71
0
0
0
0
-0.27
0
-0.05
0
0

>  <PUBCHEM_SHAPE_SELFOVERLAP>  (1) 
272.2

>  <PUBCHEM_SHAPE_VOLUME>  (1) 
77

>  <PUBCHEM_COORDINATE_TYPE>  (1) 
2
5
10

$$$$
