12766
     RDKit          3D

  9  9  0  0  0  0  0  0  0  0999 V2000
   -2.5072   -0.1450   -0.6270 O   0  0  0  0  0  0  0  0  0  0  0  0
   -1.4907   -0.5186    0.3039 C   0  0  0  0  0  0  0  0  0  0  0  0
   -0.4725   -1.4117   -0.4101 C   0  0  0  0  0  0  0  0  0  0  0  0
   -0.9606    0.7444    0.9821 C   0  0  0  0  0  0  0  0  0  0  0  0
    0.8210   -1.6715    0.3601 C   0  0  0  0  0  0  0  0  0  0  0  0
   -0.3293    1.7997    0.0747 C   0  0  0  0  0  0  0  0  0  0  0  0
    2.0216   -0.8570   -0.1264 C   0  0  0  0  0  0  0  0  0  0  0  0
    0.9362    1.4086   -0.6883 C   0  0  0  0  0  0  0  0  0  0  0  0
    1.9815    0.6511    0.1310 C   0  0  0  0  0  0  0  0  0  0  0  0
  1  2  1  0
  2  3  1  0
  2  4  1  0
  3  5  1  0
  4  6  1  0
  5  7  1  0
  6  8  1  0
  7  9  1  0
  8  9  1  0
M  END
>  <PUBCHEM_COMPOUND_CID>  (1) 
12766

>  <PUBCHEM_CONFORMER_RMSD>  (1) 
0.4

>  <PUBCHEM_CONFORMER_DIVERSEORDER>  (1) 
1
14
16
4
9
15
5
13
17
7
8
3
10
2
12
11
6

>  <PUBCHEM_MMFF94_PARTIAL_CHARGES>  (1) 
3
1 -0.68
2 0.28
25 0.4

>  <PUBCHEM_EFFECTIVE_ROTOR_COUNT>  (1) 
1.6

>  <PUBCHEM_PHARMACOPHORE_FEATURES>  (1) 
2
1 1 acceptor
1 1 donor

>  <PUBCHEM_HEAVY_ATOM_COUNT>  (1) 
9

>  <PUBCHEM_ATOM_DEF_STEREO_COUNT>  (1) 
0

>  <PUBCHEM_ATOM_UDEF_STEREO_COUNT>  (1) 
0

>  <PUBCHEM_BOND_DEF_STEREO_COUNT>  (1) 
0

>  <PUBCHEM_BOND_UDEF_STEREO_COUNT>  (1) 
0

>  <PUBCHEM_ISOTOPIC_ATOM_COUNT>  (1) 
0

>  <PUBCHEM_COMPONENT_COUNT>  (1) 
1

>  <PUBCHEM_CACTVS_TAUTO_COUNT>  (1) 
1

>  <PUBCHEM_CONFORMER_ID>  (1) 
000031DE00000001

>  <PUBCHEM_MMFF94_ENERGY>  (1) 
17.6921

>  <PUBCHEM_FEATURE_SELFOVERLAP>  (1) 
10.148

>  <PUBCHEM_SHAPE_FINGERPRINT>  (1) 
10702982 57 12778891216283227001
16945 1 18409451379547854162
18185500 45 18340488975219417994
21040471 1 18049443948132359244
23552423 10 18335708221241621367
241688 4 18193561064716992632
2748010 2 18122631814469894726
29004967 10 18187087281786238120
5084963 1 18201439112753802130
66348 1 18337957779235423858

>  <PUBCHEM_SHAPE_MULTIPOLES>  (1) 
179.35
2.61
1.98
0.85
0.17
0.12
-0.04
-0.25
0.21
-0.31
0.06
0.15
0.08
-0.24

>  <PUBCHEM_SHAPE_SELFOVERLAP>  (1) 
337.754

>  <PUBCHEM_SHAPE_VOLUME>  (1) 
110.1

>  <PUBCHEM_COORDINATE_TYPE>  (1) 
2
5
10

$$$$
