12777
     RDKit          3D

 10 10  0  0  1  0  0  0  0  0999 V2000
    0.2129   -0.7119   -0.0112 O   0  0  0  0  0  0  0  0  0  0  0  0
    1.9635   -2.1289    0.0087 O   0  0  0  0  0  0  0  0  0  0  0  0
   -0.3190    0.5889    0.3286 C   0  0  0  0  0  0  0  0  0  0  0  0
    0.5367    1.7257   -0.2067 C   0  0  0  0  0  0  0  0  0  0  0  0
   -1.7382    0.6602   -0.2191 C   0  0  0  0  0  0  0  0  0  0  0  0
    1.9601    1.5134    0.2662 C   0  0  0  0  0  0  0  0  0  0  0  0
    2.4728    0.1881   -0.2572 C   0  0  0  0  0  0  0  0  0  0  0  0
   -2.6104   -0.4575    0.3463 C   0  0  0  0  0  0  0  0  0  0  0  0
    1.5411   -0.9754   -0.0340 C   0  0  0  0  0  0  0  0  0  0  0  0
   -4.0196   -0.4026   -0.2217 C   0  0  0  0  0  0  0  0  0  0  0  0
  1  3  1  0
  1  9  1  0
  2  9  2  0
  3  4  1  0
  3  5  1  0
  4  6  1  0
  5  8  1  0
  6  7  1  0
  7  9  1  0
  8 10  1  0
M  END
>  <PUBCHEM_COMPOUND_CID>  (1) 
12777

>  <PUBCHEM_CONFORMER_RMSD>  (1) 
0.6

>  <PUBCHEM_CONFORMER_DIVERSEORDER>  (1) 
1
10
15
17
2
14
11
13
16
9
12
5
8
7
4
6
3

>  <PUBCHEM_MMFF94_PARTIAL_CHARGES>  (1) 
5
1 -0.43
2 -0.57
3 0.28
7 0.06
9 0.66

>  <PUBCHEM_EFFECTIVE_ROTOR_COUNT>  (1) 
3

>  <PUBCHEM_PHARMACOPHORE_FEATURES>  (1) 
3
1 10 hydrophobe
1 2 acceptor
6 1 3 4 6 7 9 rings

>  <PUBCHEM_HEAVY_ATOM_COUNT>  (1) 
10

>  <PUBCHEM_ATOM_DEF_STEREO_COUNT>  (1) 
0

>  <PUBCHEM_ATOM_UDEF_STEREO_COUNT>  (1) 
1

>  <PUBCHEM_BOND_DEF_STEREO_COUNT>  (1) 
0

>  <PUBCHEM_BOND_UDEF_STEREO_COUNT>  (1) 
0

>  <PUBCHEM_ISOTOPIC_ATOM_COUNT>  (1) 
0

>  <PUBCHEM_COMPONENT_COUNT>  (1) 
1

>  <PUBCHEM_CACTVS_TAUTO_COUNT>  (1) 
1

>  <PUBCHEM_CONFORMER_ID>  (1) 
000031E900000001

>  <PUBCHEM_MMFF94_ENERGY>  (1) 
9.7523

>  <PUBCHEM_FEATURE_SELFOVERLAP>  (1) 
15.223

>  <PUBCHEM_SHAPE_FINGERPRINT>  (1) 
10219947 1 18335420230805154720
12897270 3 18408324414663299333
12932764 1 17632571686894756545
14128692 85 18268437845207432446
14251717 144 18411977001070707399
14325111 11 18339361980417850177
161256 15 18409445864836518716
16945 1 18410298046414153728
17990270 104 18409729517298052547
19021347 11 18410575127776308182
20201158 50 18334576858389715923
20645477 70 18411975850373140503
20653091 64 18341054021243558600
20871998 22 18127697019747359862
21040471 1 17978793742163800696
21501925 9 18337378358098311914
23402655 69 18412256247286445797
23552333 60 18131355214949052616
23552423 10 18188778231885470608
2748010 2 18266453209471063812
29004967 10 18408606954607348136
528862 383 18411412942620006767
581208 293 18340199808098750485

>  <PUBCHEM_SHAPE_MULTIPOLES>  (1) 
194.06
5
1.75
0.65
5.28
0.29
0.01
0.88
-0.26
-1.39
0
0.05
-0.05
0.09

>  <PUBCHEM_SHAPE_SELFOVERLAP>  (1) 
375.702

>  <PUBCHEM_SHAPE_VOLUME>  (1) 
118

>  <PUBCHEM_COORDINATE_TYPE>  (1) 
2
5
10

$$$$
