12783
     RDKit          3D

 11 12  0  0  0  0  0  0  0  0999 V2000
   -0.6723    0.5629   -0.5644 O   0  0  0  0  0  0  0  0  0  0  0  0
   -2.8304    1.3375   -0.5215 O   0  0  0  0  0  0  0  0  0  0  0  0
    0.0551   -0.5211    0.0476 C   0  0  0  0  0  0  0  0  0  0  0  0
    0.7200   -0.0120    1.3401 C   0  0  0  0  0  0  0  0  0  0  0  0
    1.1062   -1.0430   -0.9408 C   0  0  0  0  0  0  0  0  0  0  0  0
   -1.0228   -1.5606    0.3223 C   0  0  0  0  0  0  0  0  0  0  0  0
    1.8215    1.0106    1.0576 C   0  0  0  0  0  0  0  0  0  0  0  0
    2.2078   -0.0176   -1.2116 C   0  0  0  0  0  0  0  0  0  0  0  0
    2.8572    0.4656    0.0803 C   0  0  0  0  0  0  0  0  0  0  0  0
   -2.2480   -0.7228    0.6092 C   0  0  0  0  0  0  0  0  0  0  0  0
   -1.9943    0.5005   -0.2187 C   0  0  0  0  0  0  0  0  0  0  0  0
  1  3  1  0
  1 11  1  0
  2 11  2  0
  3  4  1  0
  3  5  1  0
  3  6  1  0
  4  7  1  0
  5  8  1  0
  6 10  1  0
  7  9  1  0
  8  9  1  0
 10 11  1  0
M  END
>  <PUBCHEM_COMPOUND_CID>  (1) 
12783

>  <PUBCHEM_CONFORMER_RMSD>  (1) 
0.4

>  <PUBCHEM_CONFORMER_DIVERSEORDER>  (1) 
1
4
2
3
7
8
5
6

>  <PUBCHEM_MMFF94_PARTIAL_CHARGES>  (1) 
5
1 -0.43
10 0.06
11 0.66
2 -0.57
3 0.28

>  <PUBCHEM_EFFECTIVE_ROTOR_COUNT>  (1) 
1.6

>  <PUBCHEM_PHARMACOPHORE_FEATURES>  (1) 
3
1 2 acceptor
5 1 3 6 10 11 rings
6 3 4 5 7 8 9 rings

>  <PUBCHEM_HEAVY_ATOM_COUNT>  (1) 
11

>  <PUBCHEM_ATOM_DEF_STEREO_COUNT>  (1) 
0

>  <PUBCHEM_ATOM_UDEF_STEREO_COUNT>  (1) 
0

>  <PUBCHEM_BOND_DEF_STEREO_COUNT>  (1) 
0

>  <PUBCHEM_BOND_UDEF_STEREO_COUNT>  (1) 
0

>  <PUBCHEM_ISOTOPIC_ATOM_COUNT>  (1) 
0

>  <PUBCHEM_COMPONENT_COUNT>  (1) 
1

>  <PUBCHEM_CACTVS_TAUTO_COUNT>  (1) 
2

>  <PUBCHEM_CONFORMER_ID>  (1) 
000031EF00000001

>  <PUBCHEM_MMFF94_ENERGY>  (1) 
12.2715

>  <PUBCHEM_FEATURE_SELFOVERLAP>  (1) 
15.231

>  <PUBCHEM_SHAPE_FINGERPRINT>  (1) 
10857977 72 18189059848870454235
12138202 97 18341324569654767103
12423570 1 14402973871455845574
12716758 59 18334582329961896514
12897270 3 17203319022668404221
12932764 1 18342746242495101918
13839132 238 18408884005815158197
15775835 57 17240205425861744748
16945 1 18189340241251733554
17844478 74 18270978949802486411
20201158 50 17917716777346840870
20645464 45 18342734147808849514
20653085 51 17751106693763120452
21040471 1 18260264110168592387
21922407 69 16515397499491642881
21930827 45 18409168822376651947
22802520 49 18128549179639038372
2748010 2 16842751922960230096
29004967 10 17418107528427970418
369184 2 18187079606779893842
5084963 1 18270970170688860098
63268167 104 16415763041701549634

>  <PUBCHEM_SHAPE_MULTIPOLES>  (1) 
214.64
3.88
1.3
1.18
0.19
0.11
0.06
-0.93
-0.6
0.1
0.02
-0.09
-0.06
0.83

>  <PUBCHEM_SHAPE_SELFOVERLAP>  (1) 
444.1

>  <PUBCHEM_SHAPE_VOLUME>  (1) 
123.2

>  <PUBCHEM_COORDINATE_TYPE>  (1) 
2
5
10

$$$$
