12784
     RDKit          3D

 11 11  0  0  0  0  0  0  0  0999 V2000
    0.0001    1.1367   -0.0001 C   0  0  0  0  0  0  0  0  0  0  0  0
   -1.2079    0.4392   -0.0001 C   0  0  0  0  0  0  0  0  0  0  0  0
    1.2082    0.4392    0.0000 C   0  0  0  0  0  0  0  0  0  0  0  0
   -1.2081   -0.9556    0.0000 C   0  0  0  0  0  0  0  0  0  0  0  0
    1.2079   -0.9558    0.0000 C   0  0  0  0  0  0  0  0  0  0  0  0
   -0.0002   -1.6530    0.0000 C   0  0  0  0  0  0  0  0  0  0  0  0
    0.0002    2.6330    0.0001 C   0  0  0  0  0  0  0  0  0  0  0  0
   -2.5050    1.1848   -0.0001 C   0  0  0  0  0  0  0  0  0  0  0  0
    2.5052    1.1845    0.0000 C   0  0  0  0  0  0  0  0  0  0  0  0
   -2.4876   -1.7263    0.0001 C   0  0  0  0  0  0  0  0  0  0  0  0
    2.4872   -1.7268   -0.0001 C   0  0  0  0  0  0  0  0  0  0  0  0
  1  2  2  0
  1  3  1  0
  1  7  1  0
  2  4  1  0
  2  8  1  0
  3  5  2  0
  3  9  1  0
  4  6  2  0
  4 10  1  0
  5  6  1  0
  5 11  1  0
M  END
>  <PUBCHEM_COMPOUND_CID>  (1) 
12784

>  <PUBCHEM_CONFORMER_RMSD>  (1) 
0.4

>  <PUBCHEM_CONFORMER_DIVERSEORDER>  (1) 
1

>  <PUBCHEM_MMFF94_PARTIAL_CHARGES>  (1) 
12
1 -0.14
10 0.14
11 0.14
12 0.15
2 -0.14
3 -0.14
4 -0.14
5 -0.14
6 -0.15
7 0.14
8 0.14
9 0.14

>  <PUBCHEM_EFFECTIVE_ROTOR_COUNT>  (1) 
0

>  <PUBCHEM_PHARMACOPHORE_FEATURES>  (1) 
1
6 1 2 3 4 5 6 rings

>  <PUBCHEM_HEAVY_ATOM_COUNT>  (1) 
11

>  <PUBCHEM_ATOM_DEF_STEREO_COUNT>  (1) 
0

>  <PUBCHEM_ATOM_UDEF_STEREO_COUNT>  (1) 
0

>  <PUBCHEM_BOND_DEF_STEREO_COUNT>  (1) 
0

>  <PUBCHEM_BOND_UDEF_STEREO_COUNT>  (1) 
0

>  <PUBCHEM_ISOTOPIC_ATOM_COUNT>  (1) 
0

>  <PUBCHEM_COMPONENT_COUNT>  (1) 
1

>  <PUBCHEM_CACTVS_TAUTO_COUNT>  (1) 
1

>  <PUBCHEM_CONFORMER_ID>  (1) 
000031F000000001

>  <PUBCHEM_MMFF94_ENERGY>  (1) 
36.1341

>  <PUBCHEM_FEATURE_SELFOVERLAP>  (1) 
5.074

>  <PUBCHEM_SHAPE_FINGERPRINT>  (1) 
11206711 2 18265334095696873741
12423570 1 16094345788150559212
12524768 44 18341336582630652135
16945 1 18122344845987399823
18185500 45 18410856585414894095
193761 8 18410856563934828324
21040471 1 18410856555371371424
21501502 16 18410573989451862087
2334 1 18410574015216430082
23552423 10 18333453144584381518
23559900 14 18198629840003928294
241688 4 18410012104644932354
2748010 2 18411418414387236478
528886 8 18411413977685922272
53812653 166 18271241737086582176
66348 1 18411702075491666724

>  <PUBCHEM_SHAPE_MULTIPOLES>  (1) 
226.37
3.41
2.61
0.62
0
0.61
0
-0.73
0
0
0
0
0
0

>  <PUBCHEM_SHAPE_SELFOVERLAP>  (1) 
466.947

>  <PUBCHEM_SHAPE_VOLUME>  (1) 
128.6

>  <PUBCHEM_COORDINATE_TYPE>  (1) 
2
5
10

$$$$
