12787
     RDKit          3D

 11 11  0  0  0  0  0  0  0  0999 V2000
    2.3924   -1.1142   -0.0006 O   0  0  0  0  0  0  0  0  0  0  0  0
   -2.3922   -1.1143   -0.0001 O   0  0  0  0  0  0  0  0  0  0  0  0
   -2.3806    1.6506   -0.0003 O   0  0  0  0  0  0  0  0  0  0  0  0
    2.3804    1.6509    0.0000 O   0  0  0  0  0  0  0  0  0  0  0  0
    0.0000   -1.1354    0.0002 C   0  0  0  0  0  0  0  0  0  0  0  0
    1.2081   -0.4378    0.0002 C   0  0  0  0  0  0  0  0  0  0  0  0
   -1.2080   -0.4379    0.0001 C   0  0  0  0  0  0  0  0  0  0  0  0
   -1.2080    0.9570    0.0001 C   0  0  0  0  0  0  0  0  0  0  0  0
    1.2078    0.9571    0.0002 C   0  0  0  0  0  0  0  0  0  0  0  0
   -0.0001    1.6545    0.0002 C   0  0  0  0  0  0  0  0  0  0  0  0
    0.0001   -2.6307    0.0002 C   0  0  0  0  0  0  0  0  0  0  0  0
  1  6  1  0
  2  7  1  0
  3  8  1  0
  4  9  1  0
  5  6  2  0
  5  7  1  0
  5 11  1  0
  6  9  1  0
  7  8  2  0
  8 10  1  0
  9 10  2  0
M  END
>  <PUBCHEM_COMPOUND_CID>  (1) 
12787

>  <PUBCHEM_CONFORMER_RMSD>  (1) 
0.4

>  <PUBCHEM_CONFORMER_DIVERSEORDER>  (1) 
1

>  <PUBCHEM_MMFF94_PARTIAL_CHARGES>  (1) 
16
1 -0.53
10 -0.15
11 0.14
12 0.15
16 0.45
17 0.45
18 0.45
19 0.45
2 -0.53
3 -0.53
4 -0.53
5 -0.14
6 0.08
7 0.08
8 0.08
9 0.08

>  <PUBCHEM_EFFECTIVE_ROTOR_COUNT>  (1) 
0

>  <PUBCHEM_PHARMACOPHORE_FEATURES>  (1) 
5
1 1 donor
1 2 donor
1 3 donor
1 4 donor
6 5 6 7 8 9 10 rings

>  <PUBCHEM_HEAVY_ATOM_COUNT>  (1) 
11

>  <PUBCHEM_ATOM_DEF_STEREO_COUNT>  (1) 
0

>  <PUBCHEM_ATOM_UDEF_STEREO_COUNT>  (1) 
0

>  <PUBCHEM_BOND_DEF_STEREO_COUNT>  (1) 
0

>  <PUBCHEM_BOND_UDEF_STEREO_COUNT>  (1) 
0

>  <PUBCHEM_ISOTOPIC_ATOM_COUNT>  (1) 
0

>  <PUBCHEM_COMPONENT_COUNT>  (1) 
1

>  <PUBCHEM_CACTVS_TAUTO_COUNT>  (1) 
25

>  <PUBCHEM_CONFORMER_ID>  (1) 
000031F300000001

>  <PUBCHEM_MMFF94_ENERGY>  (1) 
27.5473

>  <PUBCHEM_FEATURE_SELFOVERLAP>  (1) 
25.383

>  <PUBCHEM_SHAPE_FINGERPRINT>  (1) 
12423570 1 11113160237171312090
16945 1 18122626050360058825
18185500 45 18050566235845111883
193761 8 18410855464423297991
21040471 1 18338517546639314240
2334 1 18410575119023018661
23552423 10 18334296457028105150
241688 4 18409448055180006632
2748010 2 18410012139015310973
5084963 1 18202846556145855099
66348 1 18409728452125109543

>  <PUBCHEM_SHAPE_MULTIPOLES>  (1) 
202.9
2.82
2.49
0.58
0
0.78
0
-0.64
0
0
0
0
0.01
0

>  <PUBCHEM_SHAPE_SELFOVERLAP>  (1) 
430.839

>  <PUBCHEM_SHAPE_VOLUME>  (1) 
114.2

>  <PUBCHEM_COORDINATE_TYPE>  (1) 
2
5
10

$$$$
