1281
     RDKit          3D

 22 25  0  0  0  0  0  0  0  0999 V2000
   -0.9091    0.3437    1.3252 N   0  0  0  0  0  0  0  0  0  0  0  0
    2.7048   -0.2283    1.2646 N   0  0  0  0  0  0  0  0  0  0  0  0
   -0.7542    1.8881   -0.2655 N   0  0  0  0  0  0  0  0  0  0  0  0
    2.9829    1.2963   -0.3285 N   0  0  0  0  0  0  0  0  0  0  0  0
   -5.4880   -2.1990    0.8098 N   0  0  0  0  0  0  0  0  0  0  0  0
   -6.3771   -1.1101   -1.0314 N   0  0  0  0  0  0  0  0  0  0  0  0
    1.1595    1.7076    1.3233 C   0  0  0  0  0  0  0  0  0  0  0  0
   -0.1573    1.3414    0.7698 C   0  0  0  0  0  0  0  0  0  0  0  0
   -2.0683    0.2397    0.6000 C   0  0  0  0  0  0  0  0  0  0  0  0
    2.3181    0.9304    0.7088 C   0  0  0  0  0  0  0  0  0  0  0  0
   -1.9476    1.2140   -0.3869 C   0  0  0  0  0  0  0  0  0  0  0  0
    3.7507   -0.6819    0.5025 C   0  0  0  0  0  0  0  0  0  0  0  0
    3.9048    0.2869   -0.4851 C   0  0  0  0  0  0  0  0  0  0  0  0
   -3.1782   -0.5974    0.7189 C   0  0  0  0  0  0  0  0  0  0  0  0
   -4.2026   -0.4214   -0.2171 C   0  0  0  0  0  0  0  0  0  0  0  0
   -2.9862    1.3768   -1.3190 C   0  0  0  0  0  0  0  0  0  0  0  0
   -4.1103    0.5474   -1.2189 C   0  0  0  0  0  0  0  0  0  0  0  0
    4.5506   -1.8217    0.5896 C   0  0  0  0  0  0  0  0  0  0  0  0
    4.9120    0.1254   -1.4515 C   0  0  0  0  0  0  0  0  0  0  0  0
   -5.3799   -1.2600   -0.1444 C   0  0  0  0  0  0  0  0  0  0  0  0
    5.5479   -1.9665   -0.3804 C   0  0  0  0  0  0  0  0  0  0  0  0
    5.7271   -1.0114   -1.3837 C   0  0  0  0  0  0  0  0  0  0  0  0
  1  8  1  0
  1  9  1  0
  2 10  1  0
  2 12  1  0
  3  8  2  0
  3 11  1  0
  4 10  2  0
  4 13  1  0
  5 20  2  0
  6 20  1  0
  7  8  1  0
  7 10  1  0
  9 11  2  0
  9 14  1  0
 11 16  1  0
 12 13  2  0
 12 18  1  0
 13 19  1  0
 14 15  2  0
 15 17  1  0
 15 20  1  0
 16 17  2  0
 18 21  2  0
 19 22  2  0
 21 22  1  0
M  CHG  1   5   1
M  END
>  <PUBCHEM_COMPOUND_CID>  (1) 
1281

>  <PUBCHEM_CONFORMER_RMSD>  (1) 
0.6

>  <PUBCHEM_CONFORMER_DIVERSEORDER>  (1) 
2
10
11
1
9
8
6
3
7
4
5

>  <PUBCHEM_MMFF94_PARTIAL_CHARGES>  (1) 
35
1 0.03
10 0.01
11 0.23
12 -0.15
13 0.23
14 -0.15
15 -0.02
16 -0.15
17 -0.15
18 -0.15
19 -0.15
2 0.03
20 0.73
21 -0.15
22 -0.15
25 0.27
26 0.27
27 0.15
28 0.15
29 0.15
3 -0.57
30 0.15
31 0.15
32 0.15
33 0.15
34 0.45
35 0.45
36 0.45
37 0.45
4 -0.57
5 -0.75
6 -0.75
7 0.36
8 0.01
9 -0.15

>  <PUBCHEM_EFFECTIVE_ROTOR_COUNT>  (1) 
3

>  <PUBCHEM_PHARMACOPHORE_FEATURES>  (1) 
11
1 1 donor
1 2 donor
1 5 donor
1 6 donor
3 1 3 8 cation
3 2 4 10 cation
3 5 6 20 cation
5 1 3 8 9 11 rings
5 2 4 10 12 13 rings
6 12 13 18 19 21 22 rings
6 9 11 14 15 16 17 rings

>  <PUBCHEM_HEAVY_ATOM_COUNT>  (1) 
22

>  <PUBCHEM_ATOM_DEF_STEREO_COUNT>  (1) 
0

>  <PUBCHEM_ATOM_UDEF_STEREO_COUNT>  (1) 
0

>  <PUBCHEM_BOND_DEF_STEREO_COUNT>  (1) 
0

>  <PUBCHEM_BOND_UDEF_STEREO_COUNT>  (1) 
0

>  <PUBCHEM_ISOTOPIC_ATOM_COUNT>  (1) 
0

>  <PUBCHEM_COMPONENT_COUNT>  (1) 
1

>  <PUBCHEM_CACTVS_TAUTO_COUNT>  (1) 
19

>  <PUBCHEM_CONFORMER_ID>  (1) 
0000050100000002

>  <PUBCHEM_MMFF94_ENERGY>  (1) 
45.3383

>  <PUBCHEM_FEATURE_SELFOVERLAP>  (1) 
56.089

>  <PUBCHEM_SHAPE_FINGERPRINT>  (1) 
10 15 11600002185002537311
10319926 262 12175626200029834532
10498660 4 13912331174579806236
10670039 82 12613030519052982446
10692045 39 10447386288604058340
10928967 22 18201428181893768254
11128504 68 16660361480621873381
11796584 16 18268429032166617292
12363563 72 17989489589526145208
12596602 18 11887665178615211254
12633257 1 13254789144714427162
12670546 177 17603305921267810220
12760667 363 18202002123184821299
12954195 1 18263073345862849189
13533116 47 17702942664244359969
13685833 64 18060420222436058034
13955234 65 17843678009306103696
14123256 34 18060146427066815630
1420 369 17704071776791858334
14251764 30 18201720669382370815
14341114 176 13039190286686116114
14528608 73 16081085986977747718
14576447 43 18336270055426698834
14951699 99 11527656514597103170
15183329 4 17676485012512412702
15188451 53 15051435138204177229
15238133 3 11095877186273280618
15348495 7 12175615187780861774
15475509 8 18113333094975011677
15575132 122 14996550760625307967
16994733 274 12324505525714719807
17870717 6 18113615690784776647
1813 80 17418381302375800040
193927 3 17917714574113091812
19784866 240 18273219694328198969
20028762 73 17131828802374366063
20645477 70 18343300400988033144
20871999 31 17676207965847717177
21065198 48 12607107531191113520
21637258 2 17775280573665170887
221357 26 18186237329238665828
2215653 11 18337099151507814215
22393880 68 18040710325673105220
22765269 38 11314306174214618503
22849339 104 17023190491393846331
22950370 63 18411986870842399585
23379529 103 17971479752419943251
23522609 53 18054261857693775881
23559900 14 18041277785332053805
270888 7 11314319355844043246
2748736 6 7997697476011132087
2767999 5 11818993002026980910
2838139 119 13118271590434286231
2916195 48 9799422126736073979
3004659 81 18259982652714687978
3089732 80 18412266168281630255
312423 11 17989214745831604192
312425 54 14117800202233176958
3472631 163 13262688049196906562
34797466 226 17603873346329377357
351380 3 17846781801771129150
3737641 26 16270818706337566942
4259306 186 18413108329773871126
439807 62 18261394429628905363
44062 13 18340200783093536069
46194498 28 17968376861475244252
465052 167 18059580225453710695
5104073 3 17346597452394146960
543368 44 14056717955287177743
56616090 284 18187365419578738601
57724786 102 9799401218772110346
58807428 26 13758080701051474509
5924683 9 11959428107953603805
59682541 35 17988629815110722834
59682541 52 15936402291894137114
59755656 520 18266456500355710805
7970288 3 17988646263944422886
8863177 126 18271805795379078763
960060 61 18040434403888661240

>  <PUBCHEM_SHAPE_MULTIPOLES>  (1) 
422.86
15.29
2
1.38
1.59
0.32
-0.14
11.08
-5.02
0.21
0.2
-0.31
-0.15
0.73

>  <PUBCHEM_SHAPE_SELFOVERLAP>  (1) 
955.881

>  <PUBCHEM_SHAPE_VOLUME>  (1) 
218.7

>  <PUBCHEM_COORDINATE_TYPE>  (1) 
2
5
10

$$$$
