12814
     RDKit          3D

 13 13  0  0  0  0  0  0  0  0999 V2000
    0.0003   -1.3271    2.0908 Cl  0  0  0  0  0  0  0  0  0  0  0  0
    0.0004   -2.7394   -0.4262 Cl  0  0  0  0  0  0  0  0  0  0  0  0
   -1.6745   -0.3381   -1.9005 Cl  0  0  0  0  0  0  0  0  0  0  0  0
   -2.7265   -0.5673    0.7690 Cl  0  0  0  0  0  0  0  0  0  0  0  0
    1.6746   -0.3376   -1.9006 Cl  0  0  0  0  0  0  0  0  0  0  0  0
    2.7267   -0.5665    0.7691 Cl  0  0  0  0  0  0  0  0  0  0  0  0
   -1.6735    2.5347    0.2405 Cl  0  0  0  0  0  0  0  0  0  0  0  0
    1.6726    2.5352    0.2404 Cl  0  0  0  0  0  0  0  0  0  0  0  0
    0.0002   -1.0876    0.2593 C   0  0  0  0  0  0  0  0  0  0  0  0
   -1.2405   -0.2151   -0.1534 C   0  0  0  0  0  0  0  0  0  0  0  0
    1.2405   -0.2147   -0.1535 C   0  0  0  0  0  0  0  0  0  0  0  0
   -0.6712    1.1617    0.0826 C   0  0  0  0  0  0  0  0  0  0  0  0
    0.6708    1.1619    0.0826 C   0  0  0  0  0  0  0  0  0  0  0  0
  1  9  1  0
  2  9  1  0
  3 10  1  0
  4 10  1  0
  5 11  1  0
  6 11  1  0
  7 12  1  0
  8 13  1  0
  9 10  1  0
  9 11  1  0
 10 12  1  0
 11 13  1  0
 12 13  2  0
M  END
>  <PUBCHEM_COMPOUND_CID>  (1) 
12814

>  <PUBCHEM_CONFORMER_RMSD>  (1) 
0.4

>  <PUBCHEM_CONFORMER_DIVERSEORDER>  (1) 
1

>  <PUBCHEM_MMFF94_PARTIAL_CHARGES>  (1) 
11
1 -0.29
10 0.72
11 0.72
2 -0.29
3 -0.29
4 -0.29
5 -0.29
6 -0.29
7 -0.14
8 -0.14
9 0.58

>  <PUBCHEM_EFFECTIVE_ROTOR_COUNT>  (1) 
0.6

>  <PUBCHEM_PHARMACOPHORE_FEATURES>  (1) 
1
5 9 10 11 12 13 rings

>  <PUBCHEM_HEAVY_ATOM_COUNT>  (1) 
13

>  <PUBCHEM_ATOM_DEF_STEREO_COUNT>  (1) 
0

>  <PUBCHEM_ATOM_UDEF_STEREO_COUNT>  (1) 
0

>  <PUBCHEM_BOND_DEF_STEREO_COUNT>  (1) 
0

>  <PUBCHEM_BOND_UDEF_STEREO_COUNT>  (1) 
0

>  <PUBCHEM_ISOTOPIC_ATOM_COUNT>  (1) 
0

>  <PUBCHEM_COMPONENT_COUNT>  (1) 
1

>  <PUBCHEM_CACTVS_TAUTO_COUNT>  (1) 
1

>  <PUBCHEM_CONFORMER_ID>  (1) 
0000320E00000001

>  <PUBCHEM_MMFF94_ENERGY>  (1) 
37.0245

>  <PUBCHEM_FEATURE_SELFOVERLAP>  (1) 
5.074

>  <PUBCHEM_SHAPE_FINGERPRINT>  (1) 
10353120 184 18338248101881648757
12423570 1 10864289950478982243
12524768 44 18126582338004651620
137420 1 10338206411657772781
14817 1 15617993787123704415
15557651 10 17896606278573850711
16945 1 18412544309988536262
20511035 2 17970645188037968090
23419403 2 17896857989353256182
23559900 14 17839478691775732966
2748010 2 18265905820442657545
5084963 1 17458344138939457838
528886 8 17841716514726066857
54276843 12 18113336414098215410
68250623 7 17907003333535302162

>  <PUBCHEM_SHAPE_MULTIPOLES>  (1) 
282.49
3
2.76
1.69
0
0.9
0.29
0.35
-0.14
0
-0.33
0
-0.73
0

>  <PUBCHEM_SHAPE_SELFOVERLAP>  (1) 
510.192

>  <PUBCHEM_SHAPE_VOLUME>  (1) 
182

>  <PUBCHEM_COORDINATE_TYPE>  (1) 
2
5
10

$$$$
