12823
     RDKit          3D

 13 13  0  0  0  0  0  0  0  0999 V2000
    3.0736    1.7706    0.0340 O   0  0  0  0  0  0  0  0  0  0  0  0
    3.8710   -0.3706   -0.0013 N   0  0  0  0  0  0  0  0  0  0  0  0
    1.0709   -2.5705   -0.0599 N   0  0  0  0  0  0  0  0  0  0  0  0
   -0.9808    0.5238    0.0148 C   0  0  0  0  0  0  0  0  0  0  0  0
   -1.6669    0.4247   -1.1956 C   0  0  0  0  0  0  0  0  0  0  0  0
   -1.6507    0.2963    1.2168 C   0  0  0  0  0  0  0  0  0  0  0  0
    0.4335    0.8640    0.0233 C   0  0  0  0  0  0  0  0  0  0  0  0
   -3.0230    0.0981   -1.2040 C   0  0  0  0  0  0  0  0  0  0  0  0
   -3.0068   -0.0305    1.2086 C   0  0  0  0  0  0  0  0  0  0  0  0
   -3.6928   -0.1296   -0.0019 C   0  0  0  0  0  0  0  0  0  0  0  0
    1.4678   -0.0136   -0.0086 C   0  0  0  0  0  0  0  0  0  0  0  0
    2.8571    0.5608    0.0109 C   0  0  0  0  0  0  0  0  0  0  0  0
    1.2470   -1.4236   -0.0373 C   0  0  0  0  0  0  0  0  0  0  0  0
  1 12  2  0
  2 12  1  0
  3 13  3  0
  4  5  2  0
  4  6  1  0
  4  7  1  0
  5  8  1  0
  6  9  2  0
  7 11  2  0
  8 10  2  0
  9 10  1  0
 11 12  1  0
 11 13  1  0
M  END
>  <PUBCHEM_COMPOUND_CID>  (1) 
12823

>  <PUBCHEM_CONFORMER_RMSD>  (1) 
0.6

>  <PUBCHEM_CONFORMER_DIVERSEORDER>  (1) 
1
6
7
3
4
2
5

>  <PUBCHEM_MMFF94_PARTIAL_CHARGES>  (1) 
21
1 -0.57
10 -0.15
11 0.08
12 0.62
13 0.49
14 0.15
15 0.15
16 0.15
17 0.15
18 0.15
19 0.15
2 -0.8
20 0.37
21 0.37
3 -0.56
4 0.03
5 -0.15
6 -0.15
7 -0.18
8 -0.15
9 -0.15

>  <PUBCHEM_EFFECTIVE_ROTOR_COUNT>  (1) 
2

>  <PUBCHEM_PHARMACOPHORE_FEATURES>  (1) 
4
1 1 acceptor
1 2 donor
1 3 acceptor
6 4 5 6 8 9 10 rings

>  <PUBCHEM_HEAVY_ATOM_COUNT>  (1) 
13

>  <PUBCHEM_ATOM_DEF_STEREO_COUNT>  (1) 
0

>  <PUBCHEM_ATOM_UDEF_STEREO_COUNT>  (1) 
0

>  <PUBCHEM_BOND_DEF_STEREO_COUNT>  (1) 
0

>  <PUBCHEM_BOND_UDEF_STEREO_COUNT>  (1) 
1

>  <PUBCHEM_ISOTOPIC_ATOM_COUNT>  (1) 
0

>  <PUBCHEM_COMPONENT_COUNT>  (1) 
1

>  <PUBCHEM_CACTVS_TAUTO_COUNT>  (1) 
2

>  <PUBCHEM_CONFORMER_ID>  (1) 
0000321700000001

>  <PUBCHEM_MMFF94_ENERGY>  (1) 
33.5871

>  <PUBCHEM_FEATURE_SELFOVERLAP>  (1) 
20.297

>  <PUBCHEM_SHAPE_FINGERPRINT>  (1) 
10219947 1 18334859441441712524
107287 299 18261401035161577358
12932764 1 17560793308422239985
13581323 91 14923944552775609257
14251717 144 18412823581678769990
15207287 21 17822008743924648219
15219456 202 18040996198532848695
15279307 12 17917707994070538871
15309172 13 18409451422450067266
15375358 24 17967244291705301333
15375462 189 17918274255601688915
15775835 57 18272368697871101549
16945 1 18411138021742167328
18175812 5 17748827440355007156
18186145 218 18271529783816851708
190213 19 17489870435863804117
19422 9 17489592263706245340
200 152 18271517641901874021
20201158 50 18113900437988529179
20279233 1 17967254178662059219
204376 136 18337670948824969704
20645464 45 17530685394646305609
20645477 70 18267857299058258735
21061003 4 18335146409702934037
21499 59 18340204210524722476
21730867 7 18334859389849292438
23236772 104 17632297903982647761
23402539 116 16805592699096799519
23557571 272 17095245791749841319
23559900 14 16588015789284557816
23728640 28 15309559360947587331
474 4 17486756748242456712
53748568 43 17846780689427191007
57812782 119 17458340849189687912
581208 293 18412823586195159906
633830 44 18129961042995713036
77492 1 17704353264363404897
81228 2 17615962648823820570

>  <PUBCHEM_SHAPE_MULTIPOLES>  (1) 
251.7
6.24
1.5
1.07
0.96
0.87
-0.01
-0.65
-0.01
1.39
0.04
-1.09
-0.08
0.11

>  <PUBCHEM_SHAPE_SELFOVERLAP>  (1) 
526.328

>  <PUBCHEM_SHAPE_VOLUME>  (1) 
140

>  <PUBCHEM_COORDINATE_TYPE>  (1) 
2
5
10

$$$$
