12828
     RDKit          3D

 13 13  0  0  0  0  0  0  0  0999 V2000
   -0.7602    0.2554   -0.0142 O   0  0  0  0  0  0  0  0  0  0  0  0
   -4.2466    0.4945    0.0114 O   0  0  0  0  0  0  0  0  0  0  0  0
   -2.6739    2.0317   -0.0211 O   0  0  0  0  0  0  0  0  0  0  0  0
    4.2703   -0.6519   -0.0278 O   0  0  0  0  0  0  0  0  0  0  0  0
   -3.0221    0.8149   -0.0030 N   0  0  0  0  0  0  0  0  0  0  0  0
    4.1393    1.6436    0.0401 N   0  0  0  0  0  0  0  0  0  0  0  0
    0.0086   -0.8526   -0.0058 C   0  0  0  0  0  0  0  0  0  0  0  0
   -0.7402   -1.9920    0.0148 C   0  0  0  0  0  0  0  0  0  0  0  0
   -2.0461   -0.1833    0.0018 C   0  0  0  0  0  0  0  0  0  0  0  0
   -2.0873   -1.5581    0.0201 C   0  0  0  0  0  0  0  0  0  0  0  0
    1.4399   -0.7690   -0.0188 C   0  0  0  0  0  0  0  0  0  0  0  0
    2.1149    0.3901    0.0002 C   0  0  0  0  0  0  0  0  0  0  0  0
    3.6035    0.3767    0.0023 C   0  0  0  0  0  0  0  0  0  0  0  0
  1  7  1  0
  1  9  1  0
  2  5  1  0
  3  5  2  0
  4 13  2  0
  5  9  1  0
  6 13  1  0
  7  8  2  0
  7 11  1  0
  8 10  1  0
  9 10  2  0
 11 12  2  0
 12 13  1  0
M  CHG  2   2  -1   5   1
M  END
>  <PUBCHEM_COMPOUND_CID>  (1) 
12828

>  <PUBCHEM_CONFORMER_RMSD>  (1) 
0.6

>  <PUBCHEM_CONFORMER_DIVERSEORDER>  (1) 
1
2
3
5
4

>  <PUBCHEM_MMFF94_PARTIAL_CHARGES>  (1) 
19
1 -0.28
10 -0.15
11 -0.11
12 -0.14
13 0.62
14 0.15
15 0.15
16 0.15
17 0.15
18 0.37
19 0.37
2 -0.52
3 -0.52
4 -0.57
5 0.96
6 -0.8
7 0.09
8 -0.15
9 0.22

>  <PUBCHEM_EFFECTIVE_ROTOR_COUNT>  (1) 
3

>  <PUBCHEM_PHARMACOPHORE_FEATURES>  (1) 
7
1 1 acceptor
1 2 acceptor
1 2 anion
1 3 acceptor
1 4 acceptor
1 6 donor
5 1 7 8 9 10 rings

>  <PUBCHEM_HEAVY_ATOM_COUNT>  (1) 
13

>  <PUBCHEM_ATOM_DEF_STEREO_COUNT>  (1) 
0

>  <PUBCHEM_ATOM_UDEF_STEREO_COUNT>  (1) 
0

>  <PUBCHEM_BOND_DEF_STEREO_COUNT>  (1) 
0

>  <PUBCHEM_BOND_UDEF_STEREO_COUNT>  (1) 
1

>  <PUBCHEM_ISOTOPIC_ATOM_COUNT>  (1) 
0

>  <PUBCHEM_COMPONENT_COUNT>  (1) 
1

>  <PUBCHEM_CACTVS_TAUTO_COUNT>  (1) 
2

>  <PUBCHEM_CONFORMER_ID>  (1) 
0000321C00000001

>  <PUBCHEM_MMFF94_ENERGY>  (1) 
22.0207

>  <PUBCHEM_FEATURE_SELFOVERLAP>  (1) 
35.613

>  <PUBCHEM_SHAPE_FINGERPRINT>  (1) 
10608611 8 18341611568360177880
122479 349 18407763637752209850
12346645 44 18335417950251191779
12932764 1 17488460952726373330
13081056 2 18412265021261098420
13380535 76 18412263913133441703
14325111 11 18410855499289445030
14897335 6 18411134714617713254
15775835 57 18334294262273417250
17834072 32 18336543803093326949
18186145 218 17988094365157501410
20510252 161 18341055223676275947
20645477 56 18411419548559256920
20645477 70 17131845226982952598
20711983 171 18411702127595679534
21524375 3 18411417272115969583
23402539 116 18341322371195942655
23402655 69 18200865168317106029
23500284 214 18412270531783059393
23559900 14 18201719549181818482
366044 4 18410573972678356739
6333449 129 18412824715866660247
6430166 295 18410007698493724592
69090 78 18343298171652086671
7364860 26 18195809574681460454

>  <PUBCHEM_SHAPE_MULTIPOLES>  (1) 
234.09
7.6
1.79
0.57
4.43
0.08
0
3.3
0.03
-0.82
0.01
0.02
-0.04
0.04

>  <PUBCHEM_SHAPE_SELFOVERLAP>  (1) 
489.981

>  <PUBCHEM_SHAPE_VOLUME>  (1) 
133.1

>  <PUBCHEM_COORDINATE_TYPE>  (1) 
2
5
10

$$$$
