12831
     RDKit          3D

 14 15  0  0  0  0  0  0  0  0999 V2000
    0.0022   -1.6645    0.9248 O   0  0  0  0  0  0  0  0  0  0  0  0
    1.6338    2.4505   -0.3372 O   0  0  0  0  0  0  0  0  0  0  0  0
    2.6369   -1.9008   -0.7759 O   0  0  0  0  0  0  0  0  0  0  0  0
   -0.4961    1.5053   -0.4009 N   0  0  0  0  0  0  0  0  0  0  0  0
    1.1827    0.2790    0.4025 N   0  0  0  0  0  0  0  0  0  0  0  0
   -1.1363    0.2623   -0.0468 C   0  0  0  0  0  0  0  0  0  0  0  0
   -1.7716   -0.4361   -1.2515 C   0  0  0  0  0  0  0  0  0  0  0  0
   -2.2373    0.4328    1.0062 C   0  0  0  0  0  0  0  0  0  0  0  0
   -3.0459   -1.0567   -0.6945 C   0  0  0  0  0  0  0  0  0  0  0  0
   -3.5192   -0.0270    0.3175 C   0  0  0  0  0  0  0  0  0  0  0  0
    0.0638   -0.5200    0.4939 C   0  0  0  0  0  0  0  0  0  0  0  0
    0.8728    1.5138   -0.1319 C   0  0  0  0  0  0  0  0  0  0  0  0
    2.5147   -0.1123    0.8194 C   0  0  0  0  0  0  0  0  0  0  0  0
    3.2996   -0.7263   -0.3255 C   0  0  0  0  0  0  0  0  0  0  0  0
  1 11  2  0
  2 12  2  0
  3 14  1  0
  4  6  1  0
  4 12  1  0
  5 11  1  0
  5 12  1  0
  5 13  1  0
  6  7  1  0
  6  8  1  0
  6 11  1  0
  7  9  1  0
  8 10  1  0
  9 10  1  0
 13 14  1  0
M  END
>  <PUBCHEM_COMPOUND_CID>  (1) 
12831

>  <PUBCHEM_CONFORMER_RMSD>  (1) 
0.6

>  <PUBCHEM_CONFORMER_DIVERSEORDER>  (1) 
1
7
8
2
5
6
3
4

>  <PUBCHEM_MMFF94_PARTIAL_CHARGES>  (1) 
12
1 -0.57
11 0.57
12 0.69
13 0.3
14 0.28
2 -0.57
23 0.37
28 0.4
3 -0.68
4 -0.73
5 -0.42
6 0.36

>  <PUBCHEM_EFFECTIVE_ROTOR_COUNT>  (1) 
3.2

>  <PUBCHEM_PHARMACOPHORE_FEATURES>  (1) 
7
1 1 acceptor
1 2 acceptor
1 3 acceptor
1 3 donor
1 4 donor
5 4 5 6 11 12 rings
5 6 7 8 9 10 rings

>  <PUBCHEM_HEAVY_ATOM_COUNT>  (1) 
14

>  <PUBCHEM_ATOM_DEF_STEREO_COUNT>  (1) 
0

>  <PUBCHEM_ATOM_UDEF_STEREO_COUNT>  (1) 
0

>  <PUBCHEM_BOND_DEF_STEREO_COUNT>  (1) 
0

>  <PUBCHEM_BOND_UDEF_STEREO_COUNT>  (1) 
0

>  <PUBCHEM_ISOTOPIC_ATOM_COUNT>  (1) 
0

>  <PUBCHEM_COMPONENT_COUNT>  (1) 
1

>  <PUBCHEM_CACTVS_TAUTO_COUNT>  (1) 
2

>  <PUBCHEM_CONFORMER_ID>  (1) 
0000321F00000001

>  <PUBCHEM_MMFF94_ENERGY>  (1) 
21.4853

>  <PUBCHEM_FEATURE_SELFOVERLAP>  (1) 
35.536

>  <PUBCHEM_SHAPE_FINGERPRINT>  (1) 
10353120 184 18260268503693263436
11206711 2 17968087569467832221
11769659 78 17774994683182784655
12423570 1 14327482846323121705
12524768 44 18189615110690029760
12932764 1 17168413948297884387
13380535 21 17826246364711725624
13380535 76 18046901864564616448
13581323 91 17275383222555814015
15219459 52 18340205301119342102
16945 1 18187635903855315059
18186145 218 18114733923816208829
18511873 20 18272658904859359257
19422 9 18200595912263798399
20361792 2 18336539439294991878
20645477 70 18265040500749987895
207724 885 18272091561069952391
20871998 22 18339641144612237954
21501502 16 18046909556576749826
23402539 116 18335696084429148286
23419403 2 14104013825448698496
23552423 10 18341327881211630711
2748010 2 18191568784065567252
369184 2 16343414068376333819
449060 23 18342452612702810991
5084963 1 18342168994737756305
53812653 11 18260272966322773483
63268167 104 18338230591479642729
7364860 26 18271243953637976760
77492 1 18130508642999535017
81228 2 18046900477306458728

>  <PUBCHEM_SHAPE_MULTIPOLES>  (1) 
260.54
5.09
1.79
1.02
0.28
0.49
0
-1.58
0.27
-1.11
0.32
0.25
-0.16
-0.16

>  <PUBCHEM_SHAPE_SELFOVERLAP>  (1) 
545.377

>  <PUBCHEM_SHAPE_VOLUME>  (1) 
150.7

>  <PUBCHEM_COORDINATE_TYPE>  (1) 
2
5
10

$$$$
