12849
     RDKit          3D

 15 16  0  0  0  0  0  0  0  0999 V2000
   -1.5220   -2.0536    0.8247 O   0  0  0  0  0  0  0  0  0  0  0  0
    2.8710   -1.4158   -0.2535 O   0  0  0  0  0  0  0  0  0  0  0  0
    2.2121    2.0730    1.1238 O   0  0  0  0  0  0  0  0  0  0  0  0
    0.9957   -0.0065   -0.4458 N   0  0  0  0  0  0  0  0  0  0  0  0
    0.7438   -2.0518    0.3972 N   0  0  0  0  0  0  0  0  0  0  0  0
   -0.4462   -0.0657   -0.1507 C   0  0  0  0  0  0  0  0  0  0  0  0
   -1.2941    0.0388   -1.4287 C   0  0  0  0  0  0  0  0  0  0  0  0
   -0.8504    0.9549    0.9251 C   0  0  0  0  0  0  0  0  0  0  0  0
   -2.7957    0.1269   -1.1563 C   0  0  0  0  0  0  0  0  0  0  0  0
   -2.3594    1.0275    1.1576 C   0  0  0  0  0  0  0  0  0  0  0  0
   -3.1252    1.2191   -0.1460 C   0  0  0  0  0  0  0  0  0  0  0  0
   -0.5101   -1.4975    0.4182 C   0  0  0  0  0  0  0  0  0  0  0  0
    1.6459    1.1590   -1.0215 C   0  0  0  0  0  0  0  0  0  0  0  0
    1.6767   -1.1841   -0.1167 C   0  0  0  0  0  0  0  0  0  0  0  0
    2.7580    1.6758   -0.1273 C   0  0  0  0  0  0  0  0  0  0  0  0
  1 12  2  0
  2 14  2  0
  3 15  1  0
  4  6  1  0
  4 13  1  0
  4 14  1  0
  5 12  1  0
  5 14  1  0
  6  7  1  0
  6  8  1  0
  6 12  1  0
  7  9  1  0
  8 10  1  0
  9 11  1  0
 10 11  1  0
 13 15  1  0
M  END
>  <PUBCHEM_COMPOUND_CID>  (1) 
12849

>  <PUBCHEM_CONFORMER_RMSD>  (1) 
0.6

>  <PUBCHEM_CONFORMER_DIVERSEORDER>  (1) 
1
3
8
6
9
4
2
7
5

>  <PUBCHEM_MMFF94_PARTIAL_CHARGES>  (1) 
12
1 -0.57
12 0.57
13 0.3
14 0.69
15 0.28
2 -0.57
28 0.37
3 -0.68
31 0.4
4 -0.66
5 -0.49
6 0.36

>  <PUBCHEM_EFFECTIVE_ROTOR_COUNT>  (1) 
3.4

>  <PUBCHEM_PHARMACOPHORE_FEATURES>  (1) 
7
1 1 acceptor
1 2 acceptor
1 3 acceptor
1 3 donor
1 5 donor
5 4 5 6 12 14 rings
6 6 7 8 9 10 11 rings

>  <PUBCHEM_HEAVY_ATOM_COUNT>  (1) 
15

>  <PUBCHEM_ATOM_DEF_STEREO_COUNT>  (1) 
0

>  <PUBCHEM_ATOM_UDEF_STEREO_COUNT>  (1) 
0

>  <PUBCHEM_BOND_DEF_STEREO_COUNT>  (1) 
0

>  <PUBCHEM_BOND_UDEF_STEREO_COUNT>  (1) 
0

>  <PUBCHEM_ISOTOPIC_ATOM_COUNT>  (1) 
0

>  <PUBCHEM_COMPONENT_COUNT>  (1) 
1

>  <PUBCHEM_CACTVS_TAUTO_COUNT>  (1) 
3

>  <PUBCHEM_CONFORMER_ID>  (1) 
0000323100000001

>  <PUBCHEM_MMFF94_ENERGY>  (1) 
24.2326

>  <PUBCHEM_FEATURE_SELFOVERLAP>  (1) 
35.527

>  <PUBCHEM_SHAPE_FINGERPRINT>  (1) 
12423570 1 11085374534755142495
12491281 212 17703801309674181937
13024252 1 13336110192804047205
13380535 21 18189353384088906430
13380535 76 18336819892159234694
13380536 237 18335698398714829394
13764800 53 18266467696380013473
14614273 12 18045221797622160079
14817 1 11330449427519838735
15775835 57 18272376347350845517
15852999 172 18116971459679617662
16945 1 18263366880221152575
17357990 137 17415579617930466697
18186145 218 18336823100615914669
20510252 161 17834120027766157224
20511035 2 18335991942787220286
21061003 4 17828203194766821867
21501502 16 18335423512233956974
22344851 341 18187354476028676123
2334 1 18263371450182439062
23402539 116 17981600464732282110
23419403 2 16680314614694825999
25 1 18336268924943049284
2748010 2 18262812868189717310
305870 269 18335411344523146021
5084963 1 18269548351993755741
63268167 104 18194119620723736637
7364860 26 18201155464634201702
77492 1 18059007264200515109
81228 2 17825962695160006587

>  <PUBCHEM_SHAPE_MULTIPOLES>  (1) 
281.12
4.33
2.19
1.21
0.13
0.44
-0.1
-1.64
-0.32
-1.08
0.61
0.49
-0.27
0.09

>  <PUBCHEM_SHAPE_SELFOVERLAP>  (1) 
582.6

>  <PUBCHEM_SHAPE_VOLUME>  (1) 
159.9

>  <PUBCHEM_COORDINATE_TYPE>  (1) 
2
5
10

$$$$
