12842
     RDKit          3D

 14 15  0  0  0  0  0  0  0  0999 V2000
    0.3131    1.3537   -0.5532 O   0  0  0  0  0  0  0  0  0  0  0  0
   -2.6670   -2.3753   -0.5036 O   0  0  0  0  0  0  0  0  0  0  0  0
   -0.9259    0.8122   -0.2541 C   0  0  0  0  0  0  0  0  0  0  0  0
    1.4169    0.6330   -0.2144 C   0  0  0  0  0  0  0  0  0  0  0  0
   -1.1643   -0.5210   -0.5344 C   0  0  0  0  0  0  0  0  0  0  0  0
   -1.8929    1.6190    0.3174 C   0  0  0  0  0  0  0  0  0  0  0  0
   -2.4124   -1.0660   -0.2331 C   0  0  0  0  0  0  0  0  0  0  0  0
    1.4995    0.0329    1.0420 C   0  0  0  0  0  0  0  0  0  0  0  0
    2.4659    0.4954   -1.1233 C   0  0  0  0  0  0  0  0  0  0  0  0
   -3.1412    1.0741    0.6188 C   0  0  0  0  0  0  0  0  0  0  0  0
   -3.4008   -0.2684    0.3435 C   0  0  0  0  0  0  0  0  0  0  0  0
    2.6313   -0.7049    1.3896 C   0  0  0  0  0  0  0  0  0  0  0  0
    3.5976   -0.2424   -0.7758 C   0  0  0  0  0  0  0  0  0  0  0  0
    3.6802   -0.8424    0.4807 C   0  0  0  0  0  0  0  0  0  0  0  0
  1  3  1  0
  1  4  1  0
  2  7  1  0
  3  5  2  0
  3  6  1  0
  4  8  2  0
  4  9  1  0
  5  7  1  0
  6 10  2  0
  7 11  2  0
  8 12  1  0
  9 13  2  0
 10 11  1  0
 12 14  2  0
 13 14  1  0
M  END
>  <PUBCHEM_COMPOUND_CID>  (1) 
12842

>  <PUBCHEM_CONFORMER_RMSD>  (1) 
0.6

>  <PUBCHEM_CONFORMER_DIVERSEORDER>  (1) 
1
4
6
3
2
5

>  <PUBCHEM_MMFF94_PARTIAL_CHARGES>  (1) 
24
1 -0.17
10 -0.15
11 -0.15
12 -0.15
13 -0.15
14 -0.15
15 0.15
16 0.15
17 0.15
18 0.15
19 0.15
2 -0.53
20 0.15
21 0.15
22 0.15
23 0.15
24 0.45
3 0.08
4 0.08
5 -0.15
6 -0.15
7 0.08
8 -0.15
9 -0.15

>  <PUBCHEM_EFFECTIVE_ROTOR_COUNT>  (1) 
2

>  <PUBCHEM_PHARMACOPHORE_FEATURES>  (1) 
4
1 1 acceptor
1 2 donor
6 3 5 6 7 10 11 rings
6 4 8 9 12 13 14 rings

>  <PUBCHEM_HEAVY_ATOM_COUNT>  (1) 
14

>  <PUBCHEM_ATOM_DEF_STEREO_COUNT>  (1) 
0

>  <PUBCHEM_ATOM_UDEF_STEREO_COUNT>  (1) 
0

>  <PUBCHEM_BOND_DEF_STEREO_COUNT>  (1) 
0

>  <PUBCHEM_BOND_UDEF_STEREO_COUNT>  (1) 
0

>  <PUBCHEM_ISOTOPIC_ATOM_COUNT>  (1) 
0

>  <PUBCHEM_COMPONENT_COUNT>  (1) 
1

>  <PUBCHEM_CACTVS_TAUTO_COUNT>  (1) 
3

>  <PUBCHEM_CONFORMER_ID>  (1) 
0000322A00000001

>  <PUBCHEM_MMFF94_ENERGY>  (1) 
47.2376

>  <PUBCHEM_FEATURE_SELFOVERLAP>  (1) 
20.297

>  <PUBCHEM_SHAPE_FINGERPRINT>  (1) 
11471102 22 15769775736867898272
11578080 2 17970039284196514340
11769659 78 18336824285699742991
12251169 10 18413670192768341689
12346177 29 18130495388730336551
124424 183 16845009013862465544
12500047 106 18200871760379716121
12932764 1 18113615681514652500
13221675 6 18114186315137828712
13296908 3 17132114641253418014
13538477 17 18408041810004746773
13581323 91 18343581819713261945
14144814 61 18408605842173823633
15279307 12 18262238815661485475
15375462 189 18113902641296280688
15653759 3 17418093213096036776
15669948 3 18411703205289559887
16752209 62 18337094684536097949
16945 1 18342738486058348453
17804303 29 18201725037158200361
18186145 218 13551468129569949724
18522851 12 18259991456933622498
19049666 15 16915675665461565812
19107657 47 14692570987900371330
19422 9 18187373116265439352
200 152 17168140130957757496
20279233 1 17132111321111849020
20361792 2 17748820825968318804
20442098 301 18412543219204181470
20645464 45 17203605969559972485
20645477 70 16443335447299033946
20715346 28 17060336331600773628
21639500 275 16443922681435214940
21713013 43 15574720204931260659
22169311 14 17632574937710018850
22445834 79 18260265209490264427
2255824 54 17895203246266276156
232386 152 18411136952395563588
23402539 116 18059850646118505349
23463225 33 18261956249857793062
23559900 14 18060141995045421468
449060 23 18409729573312209390
465052 167 18188227493384181723
474 4 17678751265477307092
53748568 43 18113339686831477546
568465 68 16989127569308959918
7364860 26 18199188584298357400
74978 22 18410569608796392285
77492 1 18113904848830290812

>  <PUBCHEM_SHAPE_MULTIPOLES>  (1) 
276.37
6.71
1.58
1.09
1.4
0.43
-0.14
1.49
-0.44
-1.37
0.16
0.72
0.06
-0.84

>  <PUBCHEM_SHAPE_SELFOVERLAP>  (1) 
599.701

>  <PUBCHEM_SHAPE_VOLUME>  (1) 
151.2

>  <PUBCHEM_COORDINATE_TYPE>  (1) 
2
5
10

$$$$
