12845
     RDKit          3D

 14 14  0  0  0  0  0  0  0  0999 V2000
    1.0728   -0.8395   -0.6472 O   0  0  0  0  0  0  0  0  0  0  0  0
   -2.3928    0.1236   -0.1470 O   0  0  0  0  0  0  0  0  0  0  0  0
   -3.5449   -0.6444    0.0787 N   0  0  0  0  0  0  0  0  0  0  0  0
   -5.8367   -0.3866    0.4414 N   0  0  0  0  0  0  0  0  0  0  0  0
   -4.5923    1.5081    0.1470 N   0  0  0  0  0  0  0  0  0  0  0  0
   -0.0333    0.0470   -0.5297 C   0  0  0  0  0  0  0  0  0  0  0  0
    2.2958   -0.3543   -0.2650 C   0  0  0  0  0  0  0  0  0  0  0  0
   -1.2922   -0.7622   -0.2845 C   0  0  0  0  0  0  0  0  0  0  0  0
    2.5680    1.0032   -0.3914 C   0  0  0  0  0  0  0  0  0  0  0  0
    3.2525   -1.2247    0.2452 C   0  0  0  0  0  0  0  0  0  0  0  0
    3.8134    1.4970   -0.0029 C   0  0  0  0  0  0  0  0  0  0  0  0
    4.4978   -0.7308    0.6338 C   0  0  0  0  0  0  0  0  0  0  0  0
    4.7782    0.6300    0.5097 C   0  0  0  0  0  0  0  0  0  0  0  0
   -4.5863    0.1337    0.2119 C   0  0  0  0  0  0  0  0  0  0  0  0
  1  6  1  0
  1  7  1  0
  2  3  1  0
  2  8  1  0
  3 14  2  3
  4 14  1  0
  5 14  1  0
  6  8  1  0
  7  9  2  0
  7 10  1  0
  9 11  1  0
 10 12  2  0
 11 13  2  0
 12 13  1  0
M  END
>  <PUBCHEM_COMPOUND_CID>  (1) 
12845

>  <PUBCHEM_CONFORMER_RMSD>  (1) 
0.6

>  <PUBCHEM_CONFORMER_DIVERSEORDER>  (1) 
4
118
51
87
64
57
36
119
62
90
113
30
26
20
50
97
115
17
6
35
45
117
81
49
99
15
33
31
43
68
40
110
120
19
109
100
93
37
116
32
112
65
27
111
105
101
34
94
98
107
73
10
5
39
75
42
54
114
3
106
80
58
67
72
76
77
47
7
91
44
92
11
8
66
71
14
84
48
86
18
96
89
55
70
103
25
95
16
23
9
52
22
21
12
24
102
53
41
108
88
28
38
83
74
104
69
79
13
56
29
60
46
61
2
78
59
63
1
82
85

>  <PUBCHEM_MMFF94_PARTIAL_CHARGES>  (1) 
23
1 -0.36
10 -0.15
11 -0.15
12 -0.15
13 -0.15
14 0.55
19 0.15
2 -0.22
20 0.15
21 0.15
22 0.15
23 0.15
24 0.4
25 0.4
26 0.4
27 0.4
3 -0.51
4 -0.85
5 -0.85
6 0.28
7 0.08
8 0.28
9 -0.15

>  <PUBCHEM_EFFECTIVE_ROTOR_COUNT>  (1) 
5

>  <PUBCHEM_PHARMACOPHORE_FEATURES>  (1) 
5
1 1 acceptor
1 4 donor
1 5 donor
4 3 4 5 14 cation
6 7 9 10 11 12 13 rings

>  <PUBCHEM_HEAVY_ATOM_COUNT>  (1) 
14

>  <PUBCHEM_ATOM_DEF_STEREO_COUNT>  (1) 
0

>  <PUBCHEM_ATOM_UDEF_STEREO_COUNT>  (1) 
0

>  <PUBCHEM_BOND_DEF_STEREO_COUNT>  (1) 
0

>  <PUBCHEM_BOND_UDEF_STEREO_COUNT>  (1) 
0

>  <PUBCHEM_ISOTOPIC_ATOM_COUNT>  (1) 
0

>  <PUBCHEM_COMPONENT_COUNT>  (1) 
1

>  <PUBCHEM_CACTVS_TAUTO_COUNT>  (1) 
2

>  <PUBCHEM_CONFORMER_ID>  (1) 
0000322D00000004

>  <PUBCHEM_MMFF94_ENERGY>  (1) 
41.8418

>  <PUBCHEM_FEATURE_SELFOVERLAP>  (1) 
25.426

>  <PUBCHEM_SHAPE_FINGERPRINT>  (1) 
10354089 29 18410575102418000056
114248 4 11384111951111168991
117890 112 18202565051563270401
12107183 9 17761209912816127179
13167372 99 18200316511714379913
13675066 3 17822012003899667143
14123238 8 18411981373315538743
14251718 22 10375863087028188337
14252887 29 16370721509394426106
15477762 27 9007066772992130400
17834072 33 18342172306331660215
17834076 25 16272210790799824935
20369508 70 12035450562432622942
20432913 95 16298105367607353385
20645477 70 18340488876615038190
212847 35 18131349722049923360
23402539 116 18412255143321374279
26918003 58 18113336426946018867
2871803 45 10735886070931835604
3060560 45 11887956562503472708
3268164 11 14692574278193460753
351380 180 18407759231474655161
42 15 17967532358982102998
42788 4 18412262835264987651
465052 167 12540702509019487753
5374978 207 18409728460968316816

>  <PUBCHEM_SHAPE_MULTIPOLES>  (1) 
261.43
13.01
1.3
0.73
14.31
0.28
0
1.67
-3.2
-0.72
-0.03
-0.24
-0.03
-0.19

>  <PUBCHEM_SHAPE_SELFOVERLAP>  (1) 
527.395

>  <PUBCHEM_SHAPE_VOLUME>  (1) 
153.3

>  <PUBCHEM_COORDINATE_TYPE>  (1) 
2
5
10

$$$$
