12848
     RDKit          3D

 15 16  0  0  0  0  0  0  0  0999 V2000
   -1.6620   -2.0769    0.7071 O   0  0  0  0  0  0  0  0  0  0  0  0
    2.8121   -1.7601   -0.1589 O   0  0  0  0  0  0  0  0  0  0  0  0
    1.0691   -0.1907   -0.3547 N   0  0  0  0  0  0  0  0  0  0  0  0
    0.6131   -2.2452    0.3720 N   0  0  0  0  0  0  0  0  0  0  0  0
   -0.3845   -0.1424   -0.1215 C   0  0  0  0  0  0  0  0  0  0  0  0
   -1.1633    0.0935   -1.4257 C   0  0  0  0  0  0  0  0  0  0  0  0
   -0.7512    0.8564    0.9877 C   0  0  0  0  0  0  0  0  0  0  0  0
   -2.6632    0.2944   -1.2100 C   0  0  0  0  0  0  0  0  0  0  0  0
   -2.2581    1.0444    1.1625 C   0  0  0  0  0  0  0  0  0  0  0  0
   -2.9468    1.3613   -0.1596 C   0  0  0  0  0  0  0  0  0  0  0  0
   -0.5908   -1.5892    0.3706 C   0  0  0  0  0  0  0  0  0  0  0  0
    1.6359   -1.4356   -0.0588 C   0  0  0  0  0  0  0  0  0  0  0  0
    1.8376    0.9421   -0.8435 C   0  0  0  0  0  0  0  0  0  0  0  0
    2.3680    1.7758    0.2820 C   0  0  0  0  0  0  0  0  0  0  0  0
    2.0841    3.0723    0.4506 C   0  0  0  0  0  0  0  0  0  0  0  0
  1 11  2  0
  2 12  2  0
  3  5  1  0
  3 12  1  0
  3 13  1  0
  4 11  1  0
  4 12  1  0
  5  6  1  0
  5  7  1  0
  5 11  1  0
  6  8  1  0
  7  9  1  0
  8 10  1  0
  9 10  1  0
 13 14  1  0
 14 15  2  0
M  END
>  <PUBCHEM_COMPOUND_CID>  (1) 
12848

>  <PUBCHEM_CONFORMER_RMSD>  (1) 
0.6

>  <PUBCHEM_CONFORMER_DIVERSEORDER>  (1) 
1
8
4
3
2
6
5
7

>  <PUBCHEM_MMFF94_PARTIAL_CHARGES>  (1) 
14
1 -0.57
11 0.57
12 0.69
13 0.44
14 -0.29
15 -0.3
2 -0.57
28 0.37
29 0.15
3 -0.66
30 0.15
31 0.15
4 -0.49
5 0.36

>  <PUBCHEM_EFFECTIVE_ROTOR_COUNT>  (1) 
3.4

>  <PUBCHEM_PHARMACOPHORE_FEATURES>  (1) 
6
1 1 acceptor
1 15 hydrophobe
1 2 acceptor
1 4 donor
5 3 4 5 11 12 rings
6 5 6 7 8 9 10 rings

>  <PUBCHEM_HEAVY_ATOM_COUNT>  (1) 
15

>  <PUBCHEM_ATOM_DEF_STEREO_COUNT>  (1) 
0

>  <PUBCHEM_ATOM_UDEF_STEREO_COUNT>  (1) 
0

>  <PUBCHEM_BOND_DEF_STEREO_COUNT>  (1) 
0

>  <PUBCHEM_BOND_UDEF_STEREO_COUNT>  (1) 
0

>  <PUBCHEM_ISOTOPIC_ATOM_COUNT>  (1) 
0

>  <PUBCHEM_COMPONENT_COUNT>  (1) 
1

>  <PUBCHEM_CACTVS_TAUTO_COUNT>  (1) 
3

>  <PUBCHEM_CONFORMER_ID>  (1) 
0000323000000001

>  <PUBCHEM_MMFF94_ENERGY>  (1) 
23.8431

>  <PUBCHEM_FEATURE_SELFOVERLAP>  (1) 
30.451

>  <PUBCHEM_SHAPE_FINGERPRINT>  (1) 
13024252 1 13409282695837946909
13132413 78 17982168916248509672
13380536 237 18334855068964415114
14614273 12 18047187732981433037
14817 1 13289880865784606799
15279308 10 18060138687330227489
15852999 172 17973133369992941156
16945 1 18265052431652028203
17357990 137 17487074279184409833
20510252 161 17691689304389073056
21041028 32 17256530721223819731
21501502 16 18336266829004497782
21639500 275 18337664235416617821
220403 375 18192700361903201504
22344851 341 18187634855820368315
23402539 116 17910381797966094438
2748010 2 18262528098930840686
3286 77 18188215282322322591
350125 39 18263378043120573810
5084963 1 18127681648037925013
568465 68 17608115094606471907
63268167 104 18266740181858142300
7364860 26 18342453725347091596
81228 2 17685227457124630098

>  <PUBCHEM_SHAPE_MULTIPOLES>  (1) 
286.99
4.04
2.8
1.13
0.09
0.08
0.15
1.77
0.31
-1.76
-0.69
0.61
0.19
0.22

>  <PUBCHEM_SHAPE_SELFOVERLAP>  (1) 
594.297

>  <PUBCHEM_SHAPE_VOLUME>  (1) 
163.7

>  <PUBCHEM_COORDINATE_TYPE>  (1) 
2
5
10

$$$$
