12854
     RDKit          3D

 15 16  0  0  0  0  0  0  0  0999 V2000
    4.4480   -0.5108   -0.0026 O   0  0  0  0  0  0  0  0  0  0  0  0
    3.0231   -2.2817    0.0015 O   0  0  0  0  0  0  0  0  0  0  0  0
   -0.1947    0.5226    0.0004 C   0  0  0  0  0  0  0  0  0  0  0  0
   -1.5842    0.1190    0.0001 C   0  0  0  0  0  0  0  0  0  0  0  0
    0.8123   -0.4428    0.0015 C   0  0  0  0  0  0  0  0  0  0  0  0
    0.1381    1.8773   -0.0008 C   0  0  0  0  0  0  0  0  0  0  0  0
    2.1517   -0.0535    0.0014 C   0  0  0  0  0  0  0  0  0  0  0  0
   -2.2546   -0.0743    1.2079 C   0  0  0  0  0  0  0  0  0  0  0  0
   -2.2533   -0.0767   -1.2081 C   0  0  0  0  0  0  0  0  0  0  0  0
    1.4774    2.2666   -0.0009 C   0  0  0  0  0  0  0  0  0  0  0  0
    2.4843    1.3011    0.0002 C   0  0  0  0  0  0  0  0  0  0  0  0
   -3.5942   -0.4632    1.2076 C   0  0  0  0  0  0  0  0  0  0  0  0
   -3.5928   -0.4655   -1.2084 C   0  0  0  0  0  0  0  0  0  0  0  0
   -4.2632   -0.6588   -0.0005 C   0  0  0  0  0  0  0  0  0  0  0  0
    3.2021   -1.0594    0.0006 C   0  0  0  0  0  0  0  0  0  0  0  0
  1 15  1  0
  2 15  2  0
  3  4  1  0
  3  5  2  0
  3  6  1  0
  4  8  2  0
  4  9  1  0
  5  7  1  0
  6 10  2  0
  7 11  2  0
  7 15  1  0
  8 12  1  0
  9 13  2  0
 10 11  1  0
 12 14  2  0
 13 14  1  0
M  END
>  <PUBCHEM_COMPOUND_CID>  (1) 
12854

>  <PUBCHEM_CONFORMER_RMSD>  (1) 
0.6

>  <PUBCHEM_CONFORMER_DIVERSEORDER>  (1) 
1
2

>  <PUBCHEM_MMFF94_PARTIAL_CHARGES>  (1) 
23
1 -0.65
10 -0.15
11 -0.15
12 -0.15
13 -0.15
14 -0.15
15 0.63
16 0.15
17 0.15
18 0.15
19 0.15
2 -0.57
20 0.15
21 0.15
22 0.15
23 0.15
24 0.15
25 0.5
5 -0.15
6 -0.15
7 0.09
8 -0.15
9 -0.15

>  <PUBCHEM_EFFECTIVE_ROTOR_COUNT>  (1) 
2

>  <PUBCHEM_PHARMACOPHORE_FEATURES>  (1) 
5
1 1 acceptor
1 2 acceptor
3 1 2 15 anion
6 3 5 6 7 10 11 rings
6 4 8 9 12 13 14 rings

>  <PUBCHEM_HEAVY_ATOM_COUNT>  (1) 
15

>  <PUBCHEM_ATOM_DEF_STEREO_COUNT>  (1) 
0

>  <PUBCHEM_ATOM_UDEF_STEREO_COUNT>  (1) 
0

>  <PUBCHEM_BOND_DEF_STEREO_COUNT>  (1) 
0

>  <PUBCHEM_BOND_UDEF_STEREO_COUNT>  (1) 
0

>  <PUBCHEM_ISOTOPIC_ATOM_COUNT>  (1) 
0

>  <PUBCHEM_COMPONENT_COUNT>  (1) 
1

>  <PUBCHEM_CACTVS_TAUTO_COUNT>  (1) 
1

>  <PUBCHEM_CONFORMER_ID>  (1) 
0000323600000001

>  <PUBCHEM_MMFF94_ENERGY>  (1) 
49.4314

>  <PUBCHEM_FEATURE_SELFOVERLAP>  (1) 
25.429

>  <PUBCHEM_SHAPE_FINGERPRINT>  (1) 
10751810 167 14779547894097001331
11137873 295 18335137562259766687
11471102 20 18336827588719718500
11543360 7 15719687510344858046
11578080 2 17487586742066701833
11796584 16 16660915596107343962
12032990 46 18334579031426772794
12186901 62 15936404529592949863
12236239 1 17703512172718128843
12251169 10 17703791418200695966
12553582 1 18340770351707617894
12707595 3 18259698999772664514
13296908 3 17967531302683833809
13296909 8 16988562355923520225
13581323 91 16415482662010136069
13705890 14 17530686515479659188
14251717 144 18411697711936970662
14252887 29 18130511851445782126
15219456 202 17968374662472846725
15375462 189 18130790066104179560
15477762 27 18411134749277885198
16945 1 18338516464265559012
1813 80 18129398037444853732
18186145 218 17603859010113625757
19422 9 18059857320006877919
200 152 18272927233157233647
20201158 50 18259704492951673882
20279233 1 17822005458263948081
20361792 2 18413385419225021357
204376 136 17906449179838972600
20645477 70 18336256920715302263
20671657 53 18334859385533128660
20871998 22 18200040525642238542
21296965 67 18411136896661390752
21501925 9 18412539908037441600
22094290 60 16298104276675123583
22112679 90 17418098749509692177
221490 88 18191028008791093859
2255824 54 18270403922501385260
22646028 28 18202843270812332815
232386 152 16702016521716330349
23402539 116 18338795607496793778
23559900 14 17095516293132589666
2748010 2 18266727009705453724
474 4 17556005132604488376
6049 1 17749388200165524317
7364860 26 18270115846260362296
7615 1 17703511086102349033
77492 1 17703795868182550917
81228 2 18046622300896253944
83771 10 18413107238799410888
90316 7 16988572273134849961

>  <PUBCHEM_SHAPE_MULTIPOLES>  (1) 
296.95
7.61
1.76
1.01
1.01
0.39
0
-3.28
0
-2.04
0
1.17
-0.08
0

>  <PUBCHEM_SHAPE_SELFOVERLAP>  (1) 
648.434

>  <PUBCHEM_SHAPE_VOLUME>  (1) 
162

>  <PUBCHEM_COORDINATE_TYPE>  (1) 
2
5
10

$$$$
