12857
     RDKit          3D

 15 15  0  0  1  0  0  0  0  0999 V2000
    5.2012    0.8251    0.0035 F   0  0  0  0  0  0  0  0  0  0  0  0
   -4.5139   -0.3200    0.3159 O   0  0  0  0  0  0  0  0  0  0  0  0
   -3.1855    1.3882   -0.4534 O   0  0  0  0  0  0  0  0  0  0  0  0
   -1.0132    0.0746    0.6888 N   0  0  0  0  0  0  0  0  0  0  0  0
   -2.3126   -0.3990    0.7420 N   0  0  0  0  0  0  0  0  0  0  0  0
   -0.1474   -0.9010    0.0410 C   0  0  0  0  0  0  0  0  0  0  0  0
    1.2929   -0.4362    0.0311 C   0  0  0  0  0  0  0  0  0  0  0  0
   -0.6639   -1.2332   -1.3574 C   0  0  0  0  0  0  0  0  0  0  0  0
    2.3048   -1.3711    0.1613 C   0  0  0  0  0  0  0  0  0  0  0  0
    1.5659    0.9132   -0.1083 C   0  0  0  0  0  0  0  0  0  0  0  0
    3.6323   -0.9427    0.1523 C   0  0  0  0  0  0  0  0  0  0  0  0
    2.8932    1.3416   -0.1173 C   0  0  0  0  0  0  0  0  0  0  0  0
    3.9264    0.4137    0.0130 C   0  0  0  0  0  0  0  0  0  0  0  0
   -3.3213    0.3252    0.1447 C   0  0  0  0  0  0  0  0  0  0  0  0
   -5.6587    0.3216   -0.2572 C   0  0  0  0  0  0  0  0  0  0  0  0
  1 13  1  0
  2 14  1  0
  2 15  1  0
  3 14  2  0
  4  5  1  0
  4  6  1  0
  5 14  1  0
  6  7  1  0
  6  8  1  0
  7  9  2  0
  7 10  1  0
  9 11  1  0
 10 12  2  0
 11 13  2  0
 12 13  1  0
M  END
>  <PUBCHEM_COMPOUND_CID>  (1) 
12857

>  <PUBCHEM_CONFORMER_RMSD>  (1) 
0.6

>  <PUBCHEM_CONFORMER_DIVERSEORDER>  (1) 
2
17
6
11
3
9
4
10
7
12
14
15
1
13
18
5
8
16

>  <PUBCHEM_MMFF94_PARTIAL_CHARGES>  (1) 
20
1 -0.19
10 -0.15
11 -0.15
12 -0.15
13 0.19
14 0.78
15 0.28
2 -0.43
20 0.36
21 0.15
22 0.15
23 0.15
24 0.15
25 0.37
3 -0.57
4 -0.64
5 -0.42
6 0.41
7 -0.14
9 -0.15

>  <PUBCHEM_EFFECTIVE_ROTOR_COUNT>  (1) 
5

>  <PUBCHEM_PHARMACOPHORE_FEATURES>  (1) 
4
1 3 acceptor
1 4 donor
1 5 donor
6 7 9 10 11 12 13 rings

>  <PUBCHEM_HEAVY_ATOM_COUNT>  (1) 
15

>  <PUBCHEM_ATOM_DEF_STEREO_COUNT>  (1) 
0

>  <PUBCHEM_ATOM_UDEF_STEREO_COUNT>  (1) 
1

>  <PUBCHEM_BOND_DEF_STEREO_COUNT>  (1) 
0

>  <PUBCHEM_BOND_UDEF_STEREO_COUNT>  (1) 
0

>  <PUBCHEM_ISOTOPIC_ATOM_COUNT>  (1) 
0

>  <PUBCHEM_COMPONENT_COUNT>  (1) 
1

>  <PUBCHEM_CACTVS_TAUTO_COUNT>  (1) 
2

>  <PUBCHEM_CONFORMER_ID>  (1) 
0000323900000002

>  <PUBCHEM_MMFF94_ENERGY>  (1) 
28.3282

>  <PUBCHEM_FEATURE_SELFOVERLAP>  (1) 
21.791

>  <PUBCHEM_SHAPE_FINGERPRINT>  (1) 
11471102 20 18408886226772088586
12236239 1 18060419114134061534
13081056 2 18408041801414890133
14123238 8 18344145895253920515
14252887 29 12540689302316857720
14897335 6 18272369797731103078
14993402 34 17775569745022757514
15048467 5 17022628597912182276
15196674 1 18336827481192737149
15342168 16 17823987938233216044
15775835 57 18272370896920704764
17802600 8 18408601461523771321
17834072 33 18410291445202491559
17834072 8 18201729448875545414
187816 3 16128378185575505859
200 152 18201718449284990921
20279233 1 17822301179446830163
20645477 70 18339925905302870254
21652331 79 18409165510972931317
22854114 59 17676205771103331703
23402539 116 18260261967517988559
23402655 69 18342737399262746141
23559900 14 18113902649675361650
265663 24 18410571782192216811
351380 180 18260828198446693653
3545911 37 18409732875946712227
4047638 21 17418092139776231978
4990 188 14261354647968677519
522135 26 18409449168051328658
69090 78 18409728474006426803
8272917 22 18339083683290034439

>  <PUBCHEM_SHAPE_MULTIPOLES>  (1) 
279.72
10.44
1.34
0.8
8.02
0
0.14
2.6
-0.12
-0.75
0.18
0.25
-0.16
-0.06

>  <PUBCHEM_SHAPE_SELFOVERLAP>  (1) 
570.844

>  <PUBCHEM_SHAPE_VOLUME>  (1) 
163

>  <PUBCHEM_COORDINATE_TYPE>  (1) 
2
5
10

$$$$
