12874
     RDKit          3D

 16 17  0  0  0  0  0  0  0  0999 V2000
   -0.2952    0.0002    0.5493 N   0  0  0  0  0  0  0  0  0  0  0  0
    0.3049   -0.0003   -0.5514 N   0  0  0  0  0  0  0  0  0  0  0  0
    5.8391   -0.0003    0.2925 N   0  0  0  0  0  0  0  0  0  0  0  0
   -4.4365   -0.0002   -0.0744 C   0  0  0  0  0  0  0  0  0  0  0  0
   -1.6778    0.0001    0.3404 C   0  0  0  0  0  0  0  0  0  0  0  0
   -3.7469   -1.2081    0.0293 C   0  0  0  0  0  0  0  0  0  0  0  0
   -3.7470    1.2078    0.0292 C   0  0  0  0  0  0  0  0  0  0  0  0
   -2.3675   -1.2080    0.2368 C   0  0  0  0  0  0  0  0  0  0  0  0
   -2.3676    1.2079    0.2365 C   0  0  0  0  0  0  0  0  0  0  0  0
    1.6945    0.0000   -0.3409 C   0  0  0  0  0  0  0  0  0  0  0  0
    4.4454    0.0002    0.0782 C   0  0  0  0  0  0  0  0  0  0  0  0
   -5.9110    0.0003   -0.2979 C   0  0  0  0  0  0  0  0  0  0  0  0
    2.3769   -1.2079   -0.2371 C   0  0  0  0  0  0  0  0  0  0  0  0
    2.3770    1.2081   -0.2369 C   0  0  0  0  0  0  0  0  0  0  0  0
    3.7559   -1.2079   -0.0268 C   0  0  0  0  0  0  0  0  0  0  0  0
    3.7560    1.2081   -0.0268 C   0  0  0  0  0  0  0  0  0  0  0  0
  1  2  2  0
  1  5  1  0
  2 10  1  0
  3 11  1  0
  4  6  2  0
  4  7  1  0
  4 12  1  0
  5  8  2  0
  5  9  1  0
  6  8  1  0
  7  9  2  0
 10 13  2  0
 10 14  1  0
 11 15  2  0
 11 16  1  0
 13 15  1  0
 14 16  2  0
M  END
>  <PUBCHEM_COMPOUND_CID>  (1) 
12874

>  <PUBCHEM_CONFORMER_RMSD>  (1) 
0.6

>  <PUBCHEM_CONFORMER_DIVERSEORDER>  (1) 
1
2

>  <PUBCHEM_MMFF94_PARTIAL_CHARGES>  (1) 
26
1 -0.18
10 0.18
11 0.1
12 0.14
13 -0.15
14 -0.15
15 -0.15
16 -0.15
17 0.15
18 0.15
19 0.15
2 -0.18
20 0.15
24 0.15
25 0.15
26 0.15
27 0.15
28 0.4
29 0.4
3 -0.9
4 -0.14
5 0.18
6 -0.15
7 -0.15
8 -0.15
9 -0.15

>  <PUBCHEM_EFFECTIVE_ROTOR_COUNT>  (1) 
2

>  <PUBCHEM_PHARMACOPHORE_FEATURES>  (1) 
4
1 3 cation
1 3 donor
6 10 11 13 14 15 16 rings
6 4 5 6 7 8 9 rings

>  <PUBCHEM_HEAVY_ATOM_COUNT>  (1) 
16

>  <PUBCHEM_ATOM_DEF_STEREO_COUNT>  (1) 
0

>  <PUBCHEM_ATOM_UDEF_STEREO_COUNT>  (1) 
0

>  <PUBCHEM_BOND_DEF_STEREO_COUNT>  (1) 
0

>  <PUBCHEM_BOND_UDEF_STEREO_COUNT>  (1) 
0

>  <PUBCHEM_ISOTOPIC_ATOM_COUNT>  (1) 
0

>  <PUBCHEM_COMPONENT_COUNT>  (1) 
1

>  <PUBCHEM_CACTVS_TAUTO_COUNT>  (1) 
2

>  <PUBCHEM_CONFORMER_ID>  (1) 
0000324A00000001

>  <PUBCHEM_MMFF94_ENERGY>  (1) 
53.3412

>  <PUBCHEM_FEATURE_SELFOVERLAP>  (1) 
20.297

>  <PUBCHEM_SHAPE_FINGERPRINT>  (1) 
11315181 36 18410859875449754200
11401426 45 18186519908253813591
12107183 9 17689997834376810272
12815109 37 18410855464444332039
128620 24 15769777948406965949
13167823 11 18410854360638016295
13533116 47 18341610369642796490
14123238 8 18343021086084161237
15375358 24 18410579482720600747
17802600 8 18410572885661390093
17834072 33 18410012165133202948
17834076 25 18411136939405159998
18186145 218 17240478147874122565
18522853 276 18343022185469461425
19489759 90 18412543206445691865
200 152 18060418010680777409
20279233 1 18410865360059687447
20645477 56 18333450933087589789
20645477 70 18342460283815432974
21267235 1 18410865355738261935
23402539 116 18411694405307732927
23402655 69 18411983559258759140
23557571 272 18202006490671104773
23559900 14 18411978104471107712
26918003 58 18408604781311626931
29717793 49 17989212525269584836
300161 21 18409441492490992627
351380 180 18411136943705369545
3545911 37 18410857659151443372
42 15 18334296465670754782
4214541 1 18410293592781039525
42788 4 18410855464428416837
5104073 3 18410577288002414721
5374978 207 18342454846059301401
542803 24 17167866365347064508
58051976 378 18202005416934250551
67856867 119 18263925608443606012
69090 78 18410292514797054231
7495541 125 17560515213494938683
77779 3 18410577283702165221
9709674 26 18411709785053603751
9971528 1 17749109998064520308

>  <PUBCHEM_SHAPE_MULTIPOLES>  (1) 
314.33
12.69
1.37
0.67
0.26
0
0
0
-0.13
-0.04
0
0.03
0
0

>  <PUBCHEM_SHAPE_SELFOVERLAP>  (1) 
674.224

>  <PUBCHEM_SHAPE_VOLUME>  (1) 
174.1

>  <PUBCHEM_COORDINATE_TYPE>  (1) 
2
5
10

$$$$
