12873
     RDKit          3D

 16 17  0  0  0  0  0  0  0  0999 V2000
   -0.3765   -0.1944   -0.5301 N   0  0  0  0  0  0  0  0  0  0  0  0
    0.2303   -0.1280    0.5647 N   0  0  0  0  0  0  0  0  0  0  0  0
    5.7444    0.2432   -0.3280 N   0  0  0  0  0  0  0  0  0  0  0  0
   -3.9007    0.7784   -0.0016 C   0  0  0  0  0  0  0  0  0  0  0  0
   -1.7541   -0.2871   -0.3081 C   0  0  0  0  0  0  0  0  0  0  0  0
   -2.5267    0.8712   -0.2232 C   0  0  0  0  0  0  0  0  0  0  0  0
   -4.5022   -0.4728    0.1349 C   0  0  0  0  0  0  0  0  0  0  0  0
    1.6148   -0.0351    0.3420 C   0  0  0  0  0  0  0  0  0  0  0  0
   -2.3557   -1.5382   -0.1715 C   0  0  0  0  0  0  0  0  0  0  0  0
   -3.7298   -1.6310    0.0499 C   0  0  0  0  0  0  0  0  0  0  0  0
   -4.7270    2.0165    0.0891 C   0  0  0  0  0  0  0  0  0  0  0  0
    4.3558    0.1494   -0.1015 C   0  0  0  0  0  0  0  0  0  0  0  0
    2.2096    1.2154    0.2067 C   0  0  0  0  0  0  0  0  0  0  0  0
    2.3801   -1.1940    0.2572 C   0  0  0  0  0  0  0  0  0  0  0  0
    3.5836    1.3079   -0.0157 C   0  0  0  0  0  0  0  0  0  0  0  0
    3.7541   -1.1014    0.0350 C   0  0  0  0  0  0  0  0  0  0  0  0
  1  2  2  0
  1  5  1  0
  2  8  1  0
  3 12  1  0
  4  6  2  0
  4  7  1  0
  4 11  1  0
  5  6  1  0
  5  9  2  0
  7 10  2  0
  8 13  2  0
  8 14  1  0
  9 10  1  0
 12 15  2  0
 12 16  1  0
 13 15  1  0
 14 16  2  0
M  END
>  <PUBCHEM_COMPOUND_CID>  (1) 
12873

>  <PUBCHEM_CONFORMER_RMSD>  (1) 
0.6

>  <PUBCHEM_CONFORMER_DIVERSEORDER>  (1) 
1
3
2

>  <PUBCHEM_MMFF94_PARTIAL_CHARGES>  (1) 
26
1 -0.18
10 -0.15
11 0.14
12 0.1
13 -0.15
14 -0.15
15 -0.15
16 -0.15
17 0.15
18 0.15
19 0.15
2 -0.18
20 0.15
24 0.15
25 0.15
26 0.15
27 0.15
28 0.4
29 0.4
3 -0.9
4 -0.14
5 0.18
6 -0.15
7 -0.15
8 0.18
9 -0.15

>  <PUBCHEM_EFFECTIVE_ROTOR_COUNT>  (1) 
2

>  <PUBCHEM_PHARMACOPHORE_FEATURES>  (1) 
4
1 3 cation
1 3 donor
6 4 5 6 7 9 10 rings
6 8 12 13 14 15 16 rings

>  <PUBCHEM_HEAVY_ATOM_COUNT>  (1) 
16

>  <PUBCHEM_ATOM_DEF_STEREO_COUNT>  (1) 
0

>  <PUBCHEM_ATOM_UDEF_STEREO_COUNT>  (1) 
0

>  <PUBCHEM_BOND_DEF_STEREO_COUNT>  (1) 
0

>  <PUBCHEM_BOND_UDEF_STEREO_COUNT>  (1) 
0

>  <PUBCHEM_ISOTOPIC_ATOM_COUNT>  (1) 
0

>  <PUBCHEM_COMPONENT_COUNT>  (1) 
1

>  <PUBCHEM_CACTVS_TAUTO_COUNT>  (1) 
2

>  <PUBCHEM_CONFORMER_ID>  (1) 
0000324900000001

>  <PUBCHEM_MMFF94_ENERGY>  (1) 
53.3218

>  <PUBCHEM_FEATURE_SELFOVERLAP>  (1) 
20.297

>  <PUBCHEM_SHAPE_FINGERPRINT>  (1) 
10014705 185 18186514389658837845
10616163 171 18339642347014053831
10680689 15 18412547647600261339
10912923 1 17821723953343733802
11405975 8 18409163294574342258
12107183 9 17832983845649391411
12500047 106 18342171176644588943
13167823 11 18409445903422756434
13675066 3 17917706924612755450
13760787 19 18410854352032199027
14251764 75 16623513329073197345
15196674 1 18410573980867033362
15239154 128 18410293622677096497
15242433 33 18410575063473332414
17834072 33 18411418444536364598
17844677 252 18339932605055998761
18186145 218 18040708165003985426
200 152 18202845469577041090
20645477 56 18409167680442962741
20645477 70 18130791105798066942
21065198 57 18411418423040461483
21267235 1 18337679701788990331
21709351 56 18409725192587862780
23402539 116 18412539916395261156
23402655 69 18410573981262685268
23557571 272 18341901804679892909
23559900 14 18200312104914481550
2916195 48 18200865309935177320
300161 21 18408877425851303632
3004659 81 18336831884436412670
3545911 37 18411702079966092505
42 15 18408041814236319614
4214541 1 18411136935395113737
474 4 17459193052453591724
4990 188 18272096002366791086
5104073 3 18408600361821798690
542803 24 17603588530068388236
543358 83 18338519634272982170
633830 44 17967250914270675426
77779 3 18410293626871531683
9709674 26 18411142454233605431

>  <PUBCHEM_SHAPE_MULTIPOLES>  (1) 
314.33
11.79
1.69
0.66
3.59
0.13
0.01
1.96
-0.35
-1.4
0.04
0.01
-0.01
-0.1

>  <PUBCHEM_SHAPE_SELFOVERLAP>  (1) 
674.197

>  <PUBCHEM_SHAPE_VOLUME>  (1) 
174.5

>  <PUBCHEM_COORDINATE_TYPE>  (1) 
2
5
10

$$$$
