1288
     RDKit          3D

 22 24  0  0  1  0  0  0  0  0999 V2000
    2.6376    1.6028   -0.8884 O   0  0  0  0  0  0  0  0  0  0  0  0
   -0.0339    4.2037    1.4709 O   0  0  0  0  0  0  0  0  0  0  0  0
    0.9021   -0.9975   -0.6953 N   0  0  0  0  0  0  0  0  0  0  0  0
    0.7540    1.7048    0.4794 N   0  0  0  0  0  0  0  0  0  0  0  0
   -3.6702   -0.1486    0.1443 N   0  0  0  0  0  0  0  0  0  0  0  0
    1.8637   -0.3981    0.2419 C   0  0  0  0  0  0  0  0  0  0  0  0
    3.2547   -1.0111    0.1348 C   0  0  0  0  0  0  0  0  0  0  0  0
   -0.0602    2.6126   -0.3109 C   0  0  0  0  0  0  0  0  0  0  0  0
   -0.9054    1.7897   -1.3117 C   0  0  0  0  0  0  0  0  0  0  0  0
   -1.5028   -0.5823   -0.2314 C   0  0  0  0  0  0  0  0  0  0  0  0
   -0.3356   -1.4090   -0.2041 C   0  0  0  0  0  0  0  0  0  0  0  0
   -1.8100    0.7634   -0.6814 C   0  0  0  0  0  0  0  0  0  0  0  0
    1.8622    1.0860   -0.0899 C   0  0  0  0  0  0  0  0  0  0  0  0
   -2.6963   -1.1088    0.2803 C   0  0  0  0  0  0  0  0  0  0  0  0
    4.2298   -0.3023    1.0735 C   0  0  0  0  0  0  0  0  0  0  0  0
    3.2095   -2.5074    0.4406 C   0  0  0  0  0  0  0  0  0  0  0  0
   -3.1537    0.9715   -0.4344 C   0  0  0  0  0  0  0  0  0  0  0  0
   -0.9004    3.5084    0.5927 C   0  0  0  0  0  0  0  0  0  0  0  0
    1.2823   -1.4843   -2.0092 C   0  0  0  0  0  0  0  0  0  0  0  0
   -0.4587   -2.7088    0.3402 C   0  0  0  0  0  0  0  0  0  0  0  0
   -2.8052   -2.3954    0.8180 C   0  0  0  0  0  0  0  0  0  0  0  0
   -1.6637   -3.1893    0.8402 C   0  0  0  0  0  0  0  0  0  0  0  0
  1 13  2  0
  2 18  1  0
  3  6  1  0
  3 11  1  0
  3 19  1  0
  4  8  1  0
  4 13  1  0
  5 14  1  0
  5 17  1  0
  6  7  1  0
  6 13  1  0
  7 15  1  0
  7 16  1  0
  8  9  1  0
  8 18  1  0
  9 12  1  0
 10 11  2  0
 10 12  1  0
 10 14  1  0
 11 20  1  0
 12 17  2  0
 14 21  2  0
 20 22  2  0
 21 22  1  0
M  END
>  <PUBCHEM_COMPOUND_CID>  (1) 
1288

>  <PUBCHEM_CONFORMER_RMSD>  (1) 
0.6

>  <PUBCHEM_CONFORMER_DIVERSEORDER>  (1) 
1
7
4
5
11
8
15
14
12
3
2
13
6
10
9

>  <PUBCHEM_MMFF94_PARTIAL_CHARGES>  (1) 
25
1 -0.57
11 0.1
12 -0.18
13 0.57
14 -0.15
17 -0.3
18 0.28
19 0.37
2 -0.68
20 -0.15
21 -0.15
22 -0.15
28 0.37
3 -0.84
35 0.15
4 -0.73
41 0.15
42 0.27
43 0.15
44 0.15
45 0.4
5 0.03
6 0.43
8 0.3
9 0.18

>  <PUBCHEM_EFFECTIVE_ROTOR_COUNT>  (1) 
3

>  <PUBCHEM_PHARMACOPHORE_FEATURES>  (1) 
10
1 1 acceptor
1 2 acceptor
1 2 donor
1 3 cation
1 4 donor
1 5 cation
1 5 donor
3 7 15 16 hydrophobe
5 5 10 12 14 17 rings
6 10 11 14 20 21 22 rings

>  <PUBCHEM_HEAVY_ATOM_COUNT>  (1) 
22

>  <PUBCHEM_ATOM_DEF_STEREO_COUNT>  (1) 
0

>  <PUBCHEM_ATOM_UDEF_STEREO_COUNT>  (1) 
2

>  <PUBCHEM_BOND_DEF_STEREO_COUNT>  (1) 
0

>  <PUBCHEM_BOND_UDEF_STEREO_COUNT>  (1) 
0

>  <PUBCHEM_ISOTOPIC_ATOM_COUNT>  (1) 
0

>  <PUBCHEM_COMPONENT_COUNT>  (1) 
1

>  <PUBCHEM_CACTVS_TAUTO_COUNT>  (1) 
2

>  <PUBCHEM_CONFORMER_ID>  (1) 
0000050800000001

>  <PUBCHEM_MMFF94_ENERGY>  (1) 
75.1491

>  <PUBCHEM_FEATURE_SELFOVERLAP>  (1) 
50.836

>  <PUBCHEM_SHAPE_FINGERPRINT>  (1) 
104564 63 18270971120135238212
10759866 29 17968106330396476254
10863032 1 18261675985919285716
10906281 52 18342183228191180277
10967382 1 18408040723372902015
1100329 8 18338519617235745625
11578080 2 14686603822411487409
12011746 2 18192435396854675663
12035759 4 18116740511378867620
12403259 226 18334570283206547647
12553582 1 18338804514720720132
12633257 1 18338807817935848955
12788726 201 18270411464253272248
13027679 85 18410570708397736269
13140716 1 18409732850308959323
14081887 123 18266718260951602050
14178342 30 17762896563685160272
14223421 5 17830454238840401315
14866123 147 17256805590657673026
16945 1 18193289498235329447
17780758 139 17826475978797374586
19591789 44 17185605615393159831
20510252 161 18265888064683670768
20600515 1 18334863792317358949
20691752 17 16966610365535296476
20905425 154 18048327922207618007
21501502 16 18263364865902758735
23184049 29 18261675973114148126
2334 1 18337112379390056791
23402539 116 18340471293055689343
23419403 2 15762397059998908534
23557571 272 18339933640543979062
23558518 356 17982172210325038412
23559900 14 17900253410256929871
2748010 2 18409730698598915831
3084891 72 18266452122965767491
58807428 26 17328577328883091458
5939293 188 18197786693850183529
7364860 26 17906175409653055282
81228 2 18124611789929740797
8809292 202 18335983056389095334

>  <PUBCHEM_SHAPE_MULTIPOLES>  (1) 
426.07
5.38
4.4
1.2
2.9
2.32
-0.31
-1.99
0.97
-1.59
1.68
0.28
0.18
0.42

>  <PUBCHEM_SHAPE_SELFOVERLAP>  (1) 
911.995

>  <PUBCHEM_SHAPE_VOLUME>  (1) 
236

>  <PUBCHEM_COORDINATE_TYPE>  (1) 
2
5
10

$$$$
