12881
     RDKit          3D

 17 19  0  0  1  0  0  0  0  0999 V2000
    3.5094    1.8501    0.3832 O   0  0  0  0  0  0  0  0  0  0  0  0
    0.0194    1.6740   -0.6220 O   0  0  0  0  0  0  0  0  0  0  0  0
    1.4112   -2.6627   -0.0571 O   0  0  0  0  0  0  0  0  0  0  0  0
   -0.6875   -1.6405    0.1828 N   0  0  0  0  0  0  0  0  0  0  0  0
    1.0545   -0.3930   -0.4380 N   0  0  0  0  0  0  0  0  0  0  0  0
   -1.2789   -0.3013    0.0399 C   0  0  0  0  0  0  0  0  0  0  0  0
   -1.8115    0.2330    1.3794 C   0  0  0  0  0  0  0  0  0  0  0  0
   -2.3264   -0.2588   -1.0848 C   0  0  0  0  0  0  0  0  0  0  0  0
   -0.0133    0.4731   -0.3800 C   0  0  0  0  0  0  0  0  0  0  0  0
   -2.5676    1.5553    1.2507 C   0  0  0  0  0  0  0  0  0  0  0  0
   -3.0737    1.0719   -1.1712 C   0  0  0  0  0  0  0  0  0  0  0  0
   -3.6476    1.4882    0.1777 C   0  0  0  0  0  0  0  0  0  0  0  0
    2.3986    0.0113   -0.8024 C   0  0  0  0  0  0  0  0  0  0  0  0
    0.6841   -1.6775   -0.1015 C   0  0  0  0  0  0  0  0  0  0  0  0
    3.1881    0.4671    0.4073 C   0  0  0  0  0  0  0  0  0  0  0  0
    4.5927    0.9205    0.2523 C   0  0  0  0  0  0  0  0  0  0  0  0
   -1.4516   -2.8107    0.5837 C   0  0  0  0  0  0  0  0  0  0  0  0
  1 15  1  0
  1 16  1  0
  2  9  2  0
  3 14  2  0
  4  6  1  0
  4 14  1  0
  4 17  1  0
  5  9  1  0
  5 13  1  0
  5 14  1  0
  6  7  1  0
  6  8  1  0
  6  9  1  0
  7 10  1  0
  8 11  1  0
 10 12  1  0
 11 12  1  0
 13 15  1  0
 15 16  1  0
M  END
>  <PUBCHEM_COMPOUND_CID>  (1) 
12881

>  <PUBCHEM_CONFORMER_RMSD>  (1) 
0.6

>  <PUBCHEM_CONFORMER_DIVERSEORDER>  (1) 
1
9
4
7
2
11
8
5
12
10
3
6

>  <PUBCHEM_MMFF94_PARTIAL_CHARGES>  (1) 
15
1 -0.3
13 0.4
14 0.69
15 -0.05
16 -0.05
17 0.3
2 -0.57
3 -0.57
30 0.1
31 0.1
32 0.1
4 -0.66
5 -0.42
6 0.36
9 0.57

>  <PUBCHEM_EFFECTIVE_ROTOR_COUNT>  (1) 
4

>  <PUBCHEM_PHARMACOPHORE_FEATURES>  (1) 
5
1 1 acceptor
1 2 acceptor
1 3 acceptor
5 4 5 6 9 14 rings
6 6 7 8 10 11 12 rings

>  <PUBCHEM_HEAVY_ATOM_COUNT>  (1) 
17

>  <PUBCHEM_ATOM_DEF_STEREO_COUNT>  (1) 
0

>  <PUBCHEM_ATOM_UDEF_STEREO_COUNT>  (1) 
1

>  <PUBCHEM_BOND_DEF_STEREO_COUNT>  (1) 
0

>  <PUBCHEM_BOND_UDEF_STEREO_COUNT>  (1) 
0

>  <PUBCHEM_ISOTOPIC_ATOM_COUNT>  (1) 
0

>  <PUBCHEM_COMPONENT_COUNT>  (1) 
1

>  <PUBCHEM_CACTVS_TAUTO_COUNT>  (1) 
1

>  <PUBCHEM_CONFORMER_ID>  (1) 
0000325100000001

>  <PUBCHEM_MMFF94_ENERGY>  (1) 
25.3116

>  <PUBCHEM_FEATURE_SELFOVERLAP>  (1) 
25.378

>  <PUBCHEM_SHAPE_FINGERPRINT>  (1) 
11543360 7 16128367194770201644
11725454 13 17024561483355902405
12382932 28 18334580139660191088
12423570 1 11367958918872395171
12491281 212 17346608438830734041
13140716 1 18263650734578363065
13380535 76 18410288107912662814
13571099 52 18114457860392763741
13583140 156 16515680073964572788
14178342 30 18335150811817306026
14614273 12 18334292114927322207
14787075 74 18130790118139730889
14897335 6 18412260614561310270
15309172 13 18334295353131988640
15534591 1 17703240541621961553
15775835 57 18129944473059305697
16945 1 18334024881887734477
18186145 218 18341899532668554156
18219364 16 18410018757565487848
19765921 60 18271801281499806627
204376 136 18408606967671604468
20510252 161 18125160691245493258
21339142 149 18059574732469977213
21524375 3 18343015580094401822
22079108 93 18271822215492362329
23236772 104 18059855035110753965
23402539 116 18266166404851519167
23493267 7 16879089472018901460
23559900 14 18341065055942853390
25 1 18341610378205954380
2748010 2 18190202116892796311
3071541 236 18261387901056822715
4340502 62 18337685135465789793
474 4 18342176656885929536
5706482 22 18409445907828155867
63268167 104 18268709411910959981
633830 44 18202008702948352292
7364860 26 18126285246959694310
77492 1 17773026450474541221
81228 2 18045801218881273723
84936 182 18127404558043807217

>  <PUBCHEM_SHAPE_MULTIPOLES>  (1) 
322.28
6.37
2.48
1.1
5.11
1.79
-0.07
-4.35
-0.41
-0.24
-0.4
-0.76
-0.23
0.2

>  <PUBCHEM_SHAPE_SELFOVERLAP>  (1) 
673.148

>  <PUBCHEM_SHAPE_VOLUME>  (1) 
183.8

>  <PUBCHEM_COORDINATE_TYPE>  (1) 
2
5
10

$$$$
