12880
     RDKit          3D

 17 17  0  0  0  0  0  0  0  0999 V2000
   -0.9721    1.1035   -1.6864 O   0  0  0  0  0  0  0  0  0  0  0  0
    0.1317   -2.3472    1.0655 O   0  0  0  0  0  0  0  0  0  0  0  0
    3.3883    0.7399   -0.1314 O   0  0  0  0  0  0  0  0  0  0  0  0
    1.1948    1.0517   -0.8337 N   0  0  0  0  0  0  0  0  0  0  0  0
    1.7744   -0.7603    0.6081 N   0  0  0  0  0  0  0  0  0  0  0  0
   -0.5879   -0.1691    0.3246 C   0  0  0  0  0  0  0  0  0  0  0  0
   -1.9269   -0.8547    0.0019 C   0  0  0  0  0  0  0  0  0  0  0  0
   -0.7834    0.7438    1.5492 C   0  0  0  0  0  0  0  0  0  0  0  0
   -0.1641    0.7050   -0.8465 C   0  0  0  0  0  0  0  0  0  0  0  0
    0.4517   -1.2196    0.6870 C   0  0  0  0  0  0  0  0  0  0  0  0
    2.2053    0.3833   -0.1041 C   0  0  0  0  0  0  0  0  0  0  0  0
   -1.7846   -1.7672   -1.1703 C   0  0  0  0  0  0  0  0  0  0  0  0
   -1.8847    1.7228    1.3101 C   0  0  0  0  0  0  0  0  0  0  0  0
    1.6310    2.1118   -1.7365 C   0  0  0  0  0  0  0  0  0  0  0  0
    2.8160   -1.5873    1.2084 C   0  0  0  0  0  0  0  0  0  0  0  0
   -2.4932   -1.6418   -2.2979 C   0  0  0  0  0  0  0  0  0  0  0  0
   -2.9960    1.7854    2.0522 C   0  0  0  0  0  0  0  0  0  0  0  0
  1  9  2  0
  2 10  2  0
  3 11  2  0
  4  9  1  0
  4 11  1  0
  4 14  1  0
  5 10  1  0
  5 11  1  0
  5 15  1  0
  6  7  1  0
  6  8  1  0
  6  9  1  0
  6 10  1  0
  7 12  1  0
  8 13  1  0
 12 16  2  0
 13 17  2  0
M  END
>  <PUBCHEM_COMPOUND_CID>  (1) 
12880

>  <PUBCHEM_CONFORMER_RMSD>  (1) 
0.6

>  <PUBCHEM_CONFORMER_DIVERSEORDER>  (1) 
2
14
9
10
11
3
4
6
13
1
5
12
8
7
15

>  <PUBCHEM_MMFF94_PARTIAL_CHARGES>  (1) 
23
1 -0.57
10 0.57
11 0.69
12 -0.29
13 -0.29
14 0.3
15 0.3
16 -0.3
17 -0.3
2 -0.57
22 0.15
23 0.15
3 -0.57
30 0.15
31 0.15
32 0.15
33 0.15
4 -0.42
5 -0.42
6 0.12
7 0.14
8 0.14
9 0.57

>  <PUBCHEM_EFFECTIVE_ROTOR_COUNT>  (1) 
4.6

>  <PUBCHEM_PHARMACOPHORE_FEATURES>  (1) 
6
1 1 acceptor
1 16 hydrophobe
1 17 hydrophobe
1 2 acceptor
1 3 acceptor
6 4 5 6 9 10 11 rings

>  <PUBCHEM_HEAVY_ATOM_COUNT>  (1) 
17

>  <PUBCHEM_ATOM_DEF_STEREO_COUNT>  (1) 
0

>  <PUBCHEM_ATOM_UDEF_STEREO_COUNT>  (1) 
0

>  <PUBCHEM_BOND_DEF_STEREO_COUNT>  (1) 
0

>  <PUBCHEM_BOND_UDEF_STEREO_COUNT>  (1) 
0

>  <PUBCHEM_ISOTOPIC_ATOM_COUNT>  (1) 
0

>  <PUBCHEM_COMPONENT_COUNT>  (1) 
1

>  <PUBCHEM_CACTVS_TAUTO_COUNT>  (1) 
1

>  <PUBCHEM_CONFORMER_ID>  (1) 
0000325000000002

>  <PUBCHEM_MMFF94_ENERGY>  (1) 
41.5831

>  <PUBCHEM_FEATURE_SELFOVERLAP>  (1) 
30.446

>  <PUBCHEM_SHAPE_FINGERPRINT>  (1) 
11578080 2 17908097167137678953
12138202 97 17274837813106580097
12423570 1 12416878176600133585
13380537 58 17560253439543874361
13538477 17 18202278087417726465
13898156 1 18341622533063518385
14004458 79 17560524022789458221
14617773 55 18341885303357512763
14817 1 13263793169930385321
15881359 60 17897155832350196145
15906896 17 18127716957085579851
16945 1 17898272042900444046
18534176 82 16487266447356063112
20711985 344 17632300128833898175
21524375 3 18054259611541482857
22112679 90 18340482283802743874
2334 1 17968079903357241102
23419403 2 17262373831014547872
23493267 7 16845301505546231122
23557571 272 16845020116252932928
2748010 2 17677605368180887756
528886 8 17751335469428071919
5845 1 12574699885402792101
68419 9 18271254892745145013
6992083 37 18124587596378865042
81228 2 17346046674741901995

>  <PUBCHEM_SHAPE_MULTIPOLES>  (1) 
322.28
4.07
2.47
2.12
1.32
0.24
0.67
-0.53
-0.5
-2.18
-0.08
0.15
-0.1
-2.4

>  <PUBCHEM_SHAPE_SELFOVERLAP>  (1) 
661.927

>  <PUBCHEM_SHAPE_VOLUME>  (1) 
184

>  <PUBCHEM_COORDINATE_TYPE>  (1) 
2
5
10

$$$$
