12896
     RDKit          3D

 18 19  0  0  0  0  0  0  0  0999 V2000
   -5.7333    1.0975    0.2472 O   0  0  0  0  0  0  0  0  0  0  0  0
   -5.7330   -1.0976    0.2470 O   0  0  0  0  0  0  0  0  0  0  0  0
    0.4269    0.0000   -0.5868 N   0  0  0  0  0  0  0  0  0  0  0  0
    1.0084   -0.0002    0.5237 N   0  0  0  0  0  0  0  0  0  0  0  0
   -5.1305    0.0000    0.1653 N   0  0  0  0  0  0  0  0  0  0  0  0
    6.5563    0.0006   -0.2255 N   0  0  0  0  0  0  0  0  0  0  0  0
   -0.9660   -0.0001   -0.3997 C   0  0  0  0  0  0  0  0  0  0  0  0
    2.3944   -0.0003    0.3380 C   0  0  0  0  0  0  0  0  0  0  0  0
   -3.7237    0.0003   -0.0262 C   0  0  0  0  0  0  0  0  0  0  0  0
   -1.6501    1.2079   -0.3077 C   0  0  0  0  0  0  0  0  0  0  0  0
   -1.6504   -1.2081   -0.3063 C   0  0  0  0  0  0  0  0  0  0  0  0
    5.1591    0.0000   -0.0351 C   0  0  0  0  0  0  0  0  0  0  0  0
   -3.0324    1.2081   -0.1204 C   0  0  0  0  0  0  0  0  0  0  0  0
   -3.0327   -1.2077   -0.1192 C   0  0  0  0  0  0  0  0  0  0  0  0
    3.0855    1.2078    0.2455 C   0  0  0  0  0  0  0  0  0  0  0  0
    3.0856   -1.2082    0.2440 C   0  0  0  0  0  0  0  0  0  0  0  0
    4.4678    1.2079    0.0588 C   0  0  0  0  0  0  0  0  0  0  0  0
    4.4680   -1.2081    0.0576 C   0  0  0  0  0  0  0  0  0  0  0  0
  1  5  1  0
  2  5  2  0
  3  4  2  0
  3  7  1  0
  4  8  1  0
  5  9  1  0
  6 12  1  0
  7 10  2  0
  7 11  1  0
  8 15  2  0
  8 16  1  0
  9 13  2  0
  9 14  1  0
 10 13  1  0
 11 14  2  0
 12 17  2  0
 12 18  1  0
 15 17  1  0
 16 18  2  0
M  CHG  2   1  -1   5   1
M  END
>  <PUBCHEM_COMPOUND_CID>  (1) 
12896

>  <PUBCHEM_CONFORMER_RMSD>  (1) 
0.6

>  <PUBCHEM_CONFORMER_DIVERSEORDER>  (1) 
1
2

>  <PUBCHEM_MMFF94_PARTIAL_CHARGES>  (1) 
28
1 -0.52
10 -0.15
11 -0.15
12 0.1
13 -0.15
14 -0.15
15 -0.15
16 -0.15
17 -0.15
18 -0.15
19 0.15
2 -0.52
20 0.15
21 0.15
22 0.15
23 0.15
24 0.15
25 0.15
26 0.15
27 0.4
28 0.4
3 -0.18
4 -0.18
5 0.91
6 -0.9
7 0.18
8 0.18
9 0.13

>  <PUBCHEM_EFFECTIVE_ROTOR_COUNT>  (1) 
3

>  <PUBCHEM_PHARMACOPHORE_FEATURES>  (1) 
7
1 1 acceptor
1 1 anion
1 2 acceptor
1 6 cation
1 6 donor
6 7 9 10 11 13 14 rings
6 8 12 15 16 17 18 rings

>  <PUBCHEM_HEAVY_ATOM_COUNT>  (1) 
18

>  <PUBCHEM_ATOM_DEF_STEREO_COUNT>  (1) 
0

>  <PUBCHEM_ATOM_UDEF_STEREO_COUNT>  (1) 
0

>  <PUBCHEM_BOND_DEF_STEREO_COUNT>  (1) 
0

>  <PUBCHEM_BOND_UDEF_STEREO_COUNT>  (1) 
0

>  <PUBCHEM_ISOTOPIC_ATOM_COUNT>  (1) 
0

>  <PUBCHEM_COMPONENT_COUNT>  (1) 
1

>  <PUBCHEM_CACTVS_TAUTO_COUNT>  (1) 
2

>  <PUBCHEM_CONFORMER_ID>  (1) 
0000326000000001

>  <PUBCHEM_MMFF94_ENERGY>  (1) 
62.9421

>  <PUBCHEM_FEATURE_SELFOVERLAP>  (1) 
35.602

>  <PUBCHEM_SHAPE_FINGERPRINT>  (1) 
10354089 29 18411981364978870216
10366900 7 16370445544666097000
10968037 39 18187366540776056295
12107183 9 17690560780019485538
12236239 1 18040716965270616773
13167823 11 18410007728194849554
13288520 33 18410855482410152367
13533116 47 13182751299316103900
1420 363 17822015310792292147
14341114 176 18411985771193498128
15242433 33 18411981368925853262
17834072 33 18411980286377706462
17844677 252 18411143536486008857
1813 80 16950565467376489044
200 152 18202562877871799778
20279233 1 8358257085591110872
20645477 70 18341613655989090662
21267235 1 18410862057672675670
2297311 6 18342464724726909092
23035841 295 17676204671844976714
23402539 116 18130781266196322501
23536379 177 18412545396683814610
23557571 272 18334577906499126900
23559900 14 18412257367639900680
300161 21 18271799133921277714
3004659 81 18337112259927817254
3545911 37 18411418414867193324
4073 2 18041847324071308138
42 15 18408041801372510255
4214541 1 18411417297690568564
42788 4 18410855468723377633
4463277 17 18409449184767058661
5104073 3 18410852183073449091
542803 24 18410572881344869069
59755656 520 17095239237313795610
77779 3 18410572886056541788
8272917 22 18201441337884738198

>  <PUBCHEM_SHAPE_MULTIPOLES>  (1) 
338.77
14.56
1.4
0.66
0.5
0
0.01
0
-0.75
-0.17
-0.01
0.04
0
0

>  <PUBCHEM_SHAPE_SELFOVERLAP>  (1) 
731.383

>  <PUBCHEM_SHAPE_VOLUME>  (1) 
185.8

>  <PUBCHEM_COORDINATE_TYPE>  (1) 
2
5
10

$$$$
