1289
     RDKit          3D

 25 25  0  0  1  0  0  0  0  0999 V2000
   -1.2308   -0.2538    1.5789 O   0  0  0  0  0  0  0  0  0  0  0  0
   -1.6962   -2.5449   -1.0916 O   0  0  0  0  0  0  0  0  0  0  0  0
    0.9703    2.1231   -2.1091 O   0  0  0  0  0  0  0  0  0  0  0  0
   -3.5694   -4.1917   -0.0402 O   0  0  0  0  0  0  0  0  0  0  0  0
   -0.6090    0.5702   -0.4971 N   0  0  0  0  0  0  0  0  0  0  0  0
    2.4407    2.3491   -0.3255 N   0  0  0  0  0  0  0  0  0  0  0  0
   -3.8616   -2.8551   -0.3425 N   0  0  0  0  0  0  0  0  0  0  0  0
   -2.9813    0.2447    0.0051 C   0  0  0  0  0  0  0  0  0  0  0  0
   -3.4038    1.6905   -0.3252 C   0  0  0  0  0  0  0  0  0  0  0  0
   -3.3414    2.6767    0.8606 C   0  0  0  0  0  0  0  0  0  0  0  0
   -3.2220   -0.6940   -1.1907 C   0  0  0  0  0  0  0  0  0  0  0  0
   -1.5238    0.1554    0.4558 C   0  0  0  0  0  0  0  0  0  0  0  0
    0.8155    0.5631   -0.2604 C   0  0  0  0  0  0  0  0  0  0  0  0
   -1.9142    2.9011    1.3619 C   0  0  0  0  0  0  0  0  0  0  0  0
   -4.2139    2.1581    2.0075 C   0  0  0  0  0  0  0  0  0  0  0  0
    1.4713   -0.7463   -0.7136 C   0  0  0  0  0  0  0  0  0  0  0  0
   -2.8293   -2.1227   -0.8707 C   0  0  0  0  0  0  0  0  0  0  0  0
    1.4055    1.7433   -1.0240 C   0  0  0  0  0  0  0  0  0  0  0  0
    2.8053   -0.9907   -0.0514 C   0  0  0  0  0  0  0  0  0  0  0  0
    3.9598   -0.5130   -0.6518 C   0  0  0  0  0  0  0  0  0  0  0  0
    2.8528   -1.6888    1.1450 C   0  0  0  0  0  0  0  0  0  0  0  0
    5.1929   -0.7392   -0.0401 C   0  0  0  0  0  0  0  0  0  0  0  0
    4.0858   -1.9150    1.7568 C   0  0  0  0  0  0  0  0  0  0  0  0
    3.1410    3.5201   -0.8020 C   0  0  0  0  0  0  0  0  0  0  0  0
    5.2559   -1.4401    1.1641 C   0  0  0  0  0  0  0  0  0  0  0  0
  1 12  2  0
  2 17  2  0
  3 18  2  0
  4  7  1  0
  5 12  1  0
  5 13  1  0
  6 18  1  0
  6 24  1  0
  7 17  1  0
  8  9  1  0
  8 11  1  0
  8 12  1  0
  9 10  1  0
 10 14  1  0
 10 15  1  0
 11 17  1  0
 13 16  1  0
 13 18  1  0
 16 19  1  0
 19 20  2  0
 19 21  1  0
 20 22  1  0
 21 23  2  0
 22 25  2  0
 23 25  1  0
M  END
>  <PUBCHEM_COMPOUND_CID>  (1) 
1289

>  <PUBCHEM_CONFORMER_RMSD>  (1) 
1

>  <PUBCHEM_CONFORMER_DIVERSEORDER>  (1) 
1
277
109
75
349
33
151
167
48
283
293
347
178
331
213
343
12
275
112
335
300
179
39
320
314
133
329
286
116
332
4
58
279
45
291
295
227
17
252
161
18
278
264
149
202
3
142
322
128
123
307
313
337
271
187
135
84
339
175
194
221
34
302
344
289
44
345
173
296
20
220
182
152
246
83
312
207
43
348
311
29
240
134
23
231
8
203
219
244
130
108
145
118
209
22
315
141
281
214
351
285
256
340
100
216
61
346
233
185
276
338
330
62
238
104
328
249
242
31
171
140
235
40
81
158
212
195
180
333
166
290
7
137
325
117
147
284
144
59
160
52
250
288
177
15
38
49
169
189
197
294
226
32
253
71
269
113
55
211
114
210
199
30
143
35
150
321
162
243
280
99
274
298
16
76
139
282
86
54
146
129
218
111
157
170
41
352
91
336
122
299
184
159
304
153
232
174
13
228
301
168
106
258
191
239
103
205
5
255
154
77
326
245
208
265
89
292
126
251
121
270
327
272
87
230
73
163
260
127
125
57
97
9
229
324
64
155
47
261
156
248
287
273
6
14
101
138
236
63
102
136
132
124
37
196
310
350
215
222
85
42
10
36
254
224
318
268
259
266
26
110
107
183
88
72
309
68
78
74
200
56
319
341
303
98
105
188
317
193
50
11
316
115
297
237
217
267
148
204
262
201
90
223
95
234
66
69
190
176
93
82
67
225
70
131
21
94
334
181
305
92
53
308
51
28
65
79
323
206
172
2
263
25
27
186
257
60
120
46
247
306
164
241
198
342
19
80
119
165
192
24
96

>  <PUBCHEM_MMFF94_PARTIAL_CHARGES>  (1) 
30
1 -0.57
11 0.06
12 0.57
13 0.36
16 0.14
17 0.57
18 0.57
19 -0.14
2 -0.57
20 -0.15
21 -0.15
22 -0.15
23 -0.15
24 0.3
25 -0.15
3 -0.57
39 0.37
4 -0.44
42 0.15
43 0.15
44 0.37
45 0.37
46 0.15
47 0.15
5 -0.73
51 0.15
52 0.4
6 -0.73
7 -0.39
8 0.06

>  <PUBCHEM_EFFECTIVE_ROTOR_COUNT>  (1) 
12

>  <PUBCHEM_PHARMACOPHORE_FEATURES>  (1) 
9
1 1 acceptor
1 2 acceptor
1 3 acceptor
1 5 donor
1 6 donor
1 7 donor
3 10 14 15 hydrophobe
4 8 9 10 11 hydrophobe
6 19 20 21 22 23 25 rings

>  <PUBCHEM_HEAVY_ATOM_COUNT>  (1) 
25

>  <PUBCHEM_ATOM_DEF_STEREO_COUNT>  (1) 
0

>  <PUBCHEM_ATOM_UDEF_STEREO_COUNT>  (1) 
2

>  <PUBCHEM_BOND_DEF_STEREO_COUNT>  (1) 
0

>  <PUBCHEM_BOND_UDEF_STEREO_COUNT>  (1) 
0

>  <PUBCHEM_ISOTOPIC_ATOM_COUNT>  (1) 
0

>  <PUBCHEM_COMPONENT_COUNT>  (1) 
1

>  <PUBCHEM_CACTVS_TAUTO_COUNT>  (1) 
12

>  <PUBCHEM_CONFORMER_ID>  (1) 
0000050900000001

>  <PUBCHEM_MMFF94_ENERGY>  (1) 
57.2359

>  <PUBCHEM_FEATURE_SELFOVERLAP>  (1) 
45.737

>  <PUBCHEM_SHAPE_FINGERPRINT>  (1) 
12553582 1 18042409032657393298
12633257 1 18340770329942780564
12788726 201 18269847569649567407
13004483 165 18199749322812821023
13009979 54 18411701018982466030
13140716 1 18413670231539020393
13583140 156 17822581503857784009
14178342 30 18342738468572914158
15099037 8 18337388344060792207
15537594 2 17969512519869406218
15842332 3 18262535778432606069
17492 89 18264485255435398710
17818456 19 18343024345922732192
17980427 23 18059002900424662820
19319366 153 17399515014156237150
20511986 3 18115857525947378728
20600515 1 18199751349926517492
21033648 29 17770776814939979760
212916 134 17843113706421509777
2132832 1 18340474655904188885
23557571 272 17489874799650927161
23558518 356 18263372536814166995
23559900 14 18340751736918138129
23598288 3 18272372022766775511
23598291 2 18335989747947844110
23622692 118 18340199799292726775
25147074 1 18336276720351091013
312423 11 18336274538512706469
463206 1 17689715685091103958
5104073 3 18342170077406969658
53777708 50 18338240469635294173
5486654 36 18333454239590221130
6992083 37 18335986346450101829
7064713 232 18200020738701746338
9981440 41 17830172763927618328

>  <PUBCHEM_SHAPE_MULTIPOLES>  (1) 
476.07
10.15
4.27
1.62
6.21
0.66
-0.36
2.6
-3.2
-3.46
0.48
-0.12
-0.46
-3.5

>  <PUBCHEM_SHAPE_SELFOVERLAP>  (1) 
959.534

>  <PUBCHEM_SHAPE_VOLUME>  (1) 
277.2

>  <PUBCHEM_COORDINATE_TYPE>  (1) 
2
5
10

$$$$
