12903
     RDKit          3D

 19 20  0  0  0  0  0  0  0  0999 V2000
    6.5803    0.7947    0.0687 F   0  0  0  0  0  0  0  0  0  0  0  0
    0.9813   -2.0191   -0.3110 O   0  0  0  0  0  0  0  0  0  0  0  0
   -1.6936    1.9349   -0.3194 O   0  0  0  0  0  0  0  0  0  0  0  0
    0.3112    0.1304    0.2311 N   0  0  0  0  0  0  0  0  0  0  0  0
   -1.0209   -0.2105    0.2354 N   0  0  0  0  0  0  0  0  0  0  0  0
    2.6652   -0.4100   -0.0220 C   0  0  0  0  0  0  0  0  0  0  0  0
   -3.3761    0.3277   -0.0126 C   0  0  0  0  0  0  0  0  0  0  0  0
    1.2452   -0.8469   -0.0549 C   0  0  0  0  0  0  0  0  0  0  0  0
    3.6415   -1.3406    0.2661 C   0  0  0  0  0  0  0  0  0  0  0  0
    2.9610    0.9121   -0.2808 C   0  0  0  0  0  0  0  0  0  0  0  0
   -1.9868    0.7552   -0.0530 C   0  0  0  0  0  0  0  0  0  0  0  0
   -4.3819    1.2510    0.2732 C   0  0  0  0  0  0  0  0  0  0  0  0
   -3.7032   -1.0056   -0.2603 C   0  0  0  0  0  0  0  0  0  0  0  0
    4.9743   -0.9305    0.2969 C   0  0  0  0  0  0  0  0  0  0  0  0
    4.2939    1.3223   -0.2502 C   0  0  0  0  0  0  0  0  0  0  0  0
    5.3006    0.4010    0.0387 C   0  0  0  0  0  0  0  0  0  0  0  0
   -5.7145    0.8412    0.3117 C   0  0  0  0  0  0  0  0  0  0  0  0
   -5.0360   -1.4153   -0.2218 C   0  0  0  0  0  0  0  0  0  0  0  0
   -6.0416   -0.4919    0.0642 C   0  0  0  0  0  0  0  0  0  0  0  0
  1 16  1  0
  2  8  2  0
  3 11  2  0
  4  5  1  0
  4  8  1  0
  5 11  1  0
  6  8  1  0
  6  9  2  0
  6 10  1  0
  7 11  1  0
  7 12  2  0
  7 13  1  0
  9 14  1  0
 10 15  2  0
 12 17  1  0
 13 18  2  0
 14 16  2  0
 15 16  1  0
 17 19  2  0
 18 19  1  0
M  END
>  <PUBCHEM_COMPOUND_CID>  (1) 
12903

>  <PUBCHEM_CONFORMER_RMSD>  (1) 
0.6

>  <PUBCHEM_CONFORMER_DIVERSEORDER>  (1) 
1
5
4
6
2
3

>  <PUBCHEM_MMFF94_PARTIAL_CHARGES>  (1) 
30
1 -0.19
10 -0.15
11 0.54
12 -0.15
13 -0.15
14 -0.15
15 -0.15
16 0.19
17 -0.15
18 -0.15
19 -0.15
2 -0.57
20 0.15
21 0.15
22 0.15
23 0.15
24 0.37
25 0.37
26 0.15
27 0.15
28 0.15
29 0.15
3 -0.57
30 0.15
4 -0.43
5 -0.43
6 0.09
7 0.09
8 0.54
9 -0.15

>  <PUBCHEM_EFFECTIVE_ROTOR_COUNT>  (1) 
5

>  <PUBCHEM_PHARMACOPHORE_FEATURES>  (1) 
6
1 2 acceptor
1 3 acceptor
1 4 donor
1 5 donor
6 6 9 10 14 15 16 rings
6 7 12 13 17 18 19 rings

>  <PUBCHEM_HEAVY_ATOM_COUNT>  (1) 
19

>  <PUBCHEM_ATOM_DEF_STEREO_COUNT>  (1) 
0

>  <PUBCHEM_ATOM_UDEF_STEREO_COUNT>  (1) 
0

>  <PUBCHEM_BOND_DEF_STEREO_COUNT>  (1) 
0

>  <PUBCHEM_BOND_UDEF_STEREO_COUNT>  (1) 
0

>  <PUBCHEM_ISOTOPIC_ATOM_COUNT>  (1) 
0

>  <PUBCHEM_COMPONENT_COUNT>  (1) 
1

>  <PUBCHEM_CACTVS_TAUTO_COUNT>  (1) 
4

>  <PUBCHEM_CONFORMER_ID>  (1) 
0000326700000001

>  <PUBCHEM_MMFF94_ENERGY>  (1) 
51.6606

>  <PUBCHEM_FEATURE_SELFOVERLAP>  (1) 
31.979

>  <PUBCHEM_SHAPE_FINGERPRINT>  (1) 
10354089 29 18334576846000536612
10595046 47 18410855464555062969
10968037 39 18411136948870794463
11089746 13 13190340196989835558
11287383 113 18410013238590190299
11315181 36 18273497888572329425
12107183 9 17617377281874647739
12166972 35 18113059337659055444
12236239 1 18342738507221825158
12916748 109 18343023277103135636
13167372 99 18339925909275895984
13167823 11 18409445860557473083
13533116 47 17168416070106804786
13631057 29 18271803588441297239
14123256 10 18411135861732352607
1420 363 18113343011452766867
14251732 16 18411699923734105090
14251764 18 18259700104428481632
14341114 176 18409452444826363590
14528608 73 18411984688666430956
15196674 1 18410573972277098781
17834072 33 18413107273095793809
17834072 8 9943811079704951393
17844677 252 18341057311009275872
19489759 90 14779262008357786893
200 152 18343300362322472601
20645477 70 18338798910416711446
21267235 1 18410300193871401982
23272321 79 18410575106164445100
23402539 116 18187079551161492911
23536379 177 18410855447274941203
23559900 14 18342448288515022833
239999 70 18201444627877315742
300161 21 18334009472019810335
34797466 226 17418102047743960124
351380 180 18260548926703667016
3545911 37 18408041818990099326
4073 2 18041005067398138178
4214541 1 18411418376339315561
42788 4 18411138030358488731
4325135 7 18411136948232439199
474229 33 18411136956664631215
5104073 3 18410293588459517491
542803 24 18411699880953289091
5486654 2 18413392055002358031
59755656 215 18342746182924885374
59755656 520 17749384897225332730
67856867 119 18262804089355978205
7062679 117 18411136970082166103
7495541 125 18131627915450028480

>  <PUBCHEM_SHAPE_MULTIPOLES>  (1) 
362.04
16.29
1.65
0.64
0.05
0.09
0
-0.99
-0.77
-0.12
0.1
-0.04
0
-0.48

>  <PUBCHEM_SHAPE_SELFOVERLAP>  (1) 
779.664

>  <PUBCHEM_SHAPE_VOLUME>  (1) 
199.1

>  <PUBCHEM_COORDINATE_TYPE>  (1) 
2
5
10

$$$$
