12904
     RDKit          3D

 19 20  0  0  0  0  0  0  0  0999 V2000
   -3.4698   -2.4520   -1.7780 Cl  0  0  0  0  0  0  0  0  0  0  0  0
   -3.6092    2.7823    1.0981 Cl  0  0  0  0  0  0  0  0  0  0  0  0
    5.3571   -0.3267    0.6847 O   0  0  0  0  0  0  0  0  0  0  0  0
    5.2096    0.5409   -1.4010 O   0  0  0  0  0  0  0  0  0  0  0  0
   -2.7416    0.0827   -0.1513 N   0  0  0  0  0  0  0  0  0  0  0  0
    2.6482   -0.4307    0.9833 N   0  0  0  0  0  0  0  0  0  0  0  0
   -1.3816   -0.0721    0.1964 C   0  0  0  0  0  0  0  0  0  0  0  0
    0.9652    0.1433   -0.3641 C   0  0  0  0  0  0  0  0  0  0  0  0
    1.2753   -0.3824    0.8920 C   0  0  0  0  0  0  0  0  0  0  0  0
   -3.7424   -0.8131    0.3908 C   0  0  0  0  0  0  0  0  0  0  0  0
   -3.1526    1.1477   -1.0428 C   0  0  0  0  0  0  0  0  0  0  0  0
   -0.3896    0.3011   -0.7177 C   0  0  0  0  0  0  0  0  0  0  0  0
   -1.0427   -0.5944    1.4431 C   0  0  0  0  0  0  0  0  0  0  0  0
    0.2944   -0.7600    1.8158 C   0  0  0  0  0  0  0  0  0  0  0  0
    2.1988    0.4079   -1.0223 C   0  0  0  0  0  0  0  0  0  0  0  0
    3.2150    0.0450   -0.1686 C   0  0  0  0  0  0  0  0  0  0  0  0
   -3.4591   -2.2529   -0.0079 C   0  0  0  0  0  0  0  0  0  0  0  0
   -2.7999    2.5095   -0.4651 C   0  0  0  0  0  0  0  0  0  0  0  0
    4.6249    0.1237   -0.3854 C   0  0  0  0  0  0  0  0  0  0  0  0
  1 17  1  0
  2 18  1  0
  3 19  1  0
  4 19  2  0
  5  7  1  0
  5 10  1  0
  5 11  1  0
  6  9  1  0
  6 16  1  0
  7 12  2  0
  7 13  1  0
  8  9  2  0
  8 12  1  0
  8 15  1  0
  9 14  1  0
 10 17  1  0
 11 18  1  0
 13 14  2  0
 15 16  2  0
 16 19  1  0
M  END
>  <PUBCHEM_COMPOUND_CID>  (1) 
12904

>  <PUBCHEM_CONFORMER_RMSD>  (1) 
0.8

>  <PUBCHEM_CONFORMER_DIVERSEORDER>  (1) 
1
20
14
21
17
25
24
22
19
7
9
10
12
11
13
6
4
3
16
5
15
23
18
2
8

>  <PUBCHEM_MMFF94_PARTIAL_CHARGES>  (1) 
24
1 -0.29
10 0.37
11 0.37
12 -0.15
13 -0.15
14 -0.15
15 -0.15
16 -0.24
17 0.29
18 0.29
19 0.81
2 -0.29
24 0.15
25 0.15
26 0.15
27 0.15
28 0.27
3 -0.65
33 0.5
4 -0.57
5 -0.84
6 0.03
7 0.1
9 -0.15

>  <PUBCHEM_EFFECTIVE_ROTOR_COUNT>  (1) 
6

>  <PUBCHEM_PHARMACOPHORE_FEATURES>  (1) 
8
1 3 acceptor
1 4 acceptor
1 5 cation
1 6 cation
1 6 donor
3 3 4 19 anion
5 6 8 9 15 16 rings
6 7 8 9 12 13 14 rings

>  <PUBCHEM_HEAVY_ATOM_COUNT>  (1) 
19

>  <PUBCHEM_ATOM_DEF_STEREO_COUNT>  (1) 
0

>  <PUBCHEM_ATOM_UDEF_STEREO_COUNT>  (1) 
0

>  <PUBCHEM_BOND_DEF_STEREO_COUNT>  (1) 
0

>  <PUBCHEM_BOND_UDEF_STEREO_COUNT>  (1) 
0

>  <PUBCHEM_ISOTOPIC_ATOM_COUNT>  (1) 
0

>  <PUBCHEM_COMPONENT_COUNT>  (1) 
1

>  <PUBCHEM_CACTVS_TAUTO_COUNT>  (1) 
2

>  <PUBCHEM_CONFORMER_ID>  (1) 
0000326800000001

>  <PUBCHEM_MMFF94_ENERGY>  (1) 
47.6627

>  <PUBCHEM_FEATURE_SELFOVERLAP>  (1) 
40.746

>  <PUBCHEM_SHAPE_FINGERPRINT>  (1) 
10291535 26 17632016342806554625
10680689 15 18272091612335207975
11543360 7 18342458187986839270
11796584 16 17988364746387265334
12236239 1 17894912927745908071
12553582 1 18264477563745044635
12788726 201 18337656569664937267
13583140 156 17774705503388029882
13675066 3 13190341271000476866
14251751 93 18413666911382036663
15209294 21 18041002786828545160
17349148 13 17458339775579648442
1813 80 14979688739994933696
18186145 218 17346874555125635538
18785283 64 17548146524396235851
200 152 18040712619017167631
20300324 65 18260550051774056461
20645477 56 18342182116179603433
20645477 70 15430581884377586202
21426921 1 18412825794077349469
22094290 60 18342737442328398623
231179 274 14490462110799859290
23402539 116 18186516630956520038
23402655 69 17603855698451195751
23493267 7 17988641844269483475
23557571 272 18202850945834591969
23559900 14 17240488057213000548
25147074 1 17896863405512887955
26918003 58 16702027495110273862
3268164 11 18334288794864458711
5104073 3 17240489126401947200
6049 1 17631719577993754521
633830 44 17531250504847165346

>  <PUBCHEM_SHAPE_MULTIPOLES>  (1) 
373.05
9.63
2.27
1.52
11.13
0.58
0.15
0.14
-2.06
-5.05
-0.36
-0.09
-0.28
-1.05

>  <PUBCHEM_SHAPE_SELFOVERLAP>  (1) 
771.688

>  <PUBCHEM_SHAPE_VOLUME>  (1) 
217.2

>  <PUBCHEM_COORDINATE_TYPE>  (1) 
2
5
10

$$$$
