12908
     RDKit          3D

 20 20  0  0  1  0  0  0  0  0999 V2000
   -5.6741    1.8211    0.5789 Cl  0  0  0  0  0  0  0  0  0  0  0  0
   -6.1376   -0.7539   -0.7195 Cl  0  0  0  0  0  0  0  0  0  0  0  0
   -0.6668    0.9872    1.8319 O   0  0  0  0  0  0  0  0  0  0  0  0
   -1.2478   -2.6965   -0.3139 O   0  0  0  0  0  0  0  0  0  0  0  0
   -3.5969    0.8366   -1.4979 O   0  0  0  0  0  0  0  0  0  0  0  0
    5.5538    1.2570   -1.2232 O   0  0  0  0  0  0  0  0  0  0  0  0
   -2.6818   -0.2524    0.3326 N   0  0  0  0  0  0  0  0  0  0  0  0
   -1.3142   -0.2577   -0.1509 C   0  0  0  0  0  0  0  0  0  0  0  0
   -0.3418   -0.1632    1.0446 C   0  0  0  0  0  0  0  0  0  0  0  0
    1.1103   -0.0305    0.6449 C   0  0  0  0  0  0  0  0  0  0  0  0
   -1.0948   -1.4854   -1.0429 C   0  0  0  0  0  0  0  0  0  0  0  0
    2.0303   -0.9498    1.1208 C   0  0  0  0  0  0  0  0  0  0  0  0
    1.4908    1.0070   -0.1898 C   0  0  0  0  0  0  0  0  0  0  0  0
    3.3698   -0.8278    0.7516 C   0  0  0  0  0  0  0  0  0  0  0  0
    2.8304    1.1287   -0.5591 C   0  0  0  0  0  0  0  0  0  0  0  0
    3.7699    0.2113   -0.0883 C   0  0  0  0  0  0  0  0  0  0  0  0
   -3.7176    0.3033   -0.3960 C   0  0  0  0  0  0  0  0  0  0  0  0
   -5.0472    0.1863    0.3117 C   0  0  0  0  0  0  0  0  0  0  0  0
    5.1665    0.3388   -0.4733 C   0  0  0  0  0  0  0  0  0  0  0  0
    6.1989   -0.6603    0.0378 C   0  0  0  0  0  0  0  0  0  0  0  0
  1 18  1  0
  2 18  1  0
  3  9  1  0
  4 11  1  0
  5 17  2  0
  6 19  2  0
  7  8  1  0
  7 17  1  0
  8  9  1  0
  8 11  1  0
  9 10  1  0
 10 12  2  0
 10 13  1  0
 12 14  1  0
 13 15  2  0
 14 16  2  0
 15 16  1  0
 16 19  1  0
 17 18  1  0
 19 20  1  0
M  END
>  <PUBCHEM_COMPOUND_CID>  (1) 
12908

>  <PUBCHEM_CONFORMER_RMSD>  (1) 
0.8

>  <PUBCHEM_CONFORMER_DIVERSEORDER>  (1) 
1
86
72
16
66
41
23
30
44
34
43
58
70
42
74
81
31
87
29
37
59
32
57
17
15
54
21
53
5
18
56
35
82
26
79
7
48
63
84
78
38
24
51
88
80
83
10
76
73
47
11
85
36
28
64
45
50
69
3
61
55
75
6
77
13
27
49
14
9
46
67
65
39
33
22
40
2
4
71
52
19
25
60
8
62
68
12
20

>  <PUBCHEM_MMFF94_PARTIAL_CHARGES>  (1) 
27
1 -0.29
10 -0.14
11 0.28
12 -0.15
13 -0.15
14 -0.15
15 -0.15
16 0.09
17 0.57
18 0.64
19 0.42
2 -0.29
20 0.06
25 0.37
26 0.15
27 0.15
28 0.4
29 0.15
3 -0.68
30 0.15
31 0.4
4 -0.68
5 -0.57
6 -0.57
7 -0.73
8 0.3
9 0.42

>  <PUBCHEM_EFFECTIVE_ROTOR_COUNT>  (1) 
7

>  <PUBCHEM_PHARMACOPHORE_FEATURES>  (1) 
8
1 3 acceptor
1 3 donor
1 4 acceptor
1 4 donor
1 5 acceptor
1 6 acceptor
1 7 donor
6 10 12 13 14 15 16 rings

>  <PUBCHEM_HEAVY_ATOM_COUNT>  (1) 
20

>  <PUBCHEM_ATOM_DEF_STEREO_COUNT>  (1) 
1

>  <PUBCHEM_ATOM_UDEF_STEREO_COUNT>  (1) 
1

>  <PUBCHEM_BOND_DEF_STEREO_COUNT>  (1) 
0

>  <PUBCHEM_BOND_UDEF_STEREO_COUNT>  (1) 
0

>  <PUBCHEM_ISOTOPIC_ATOM_COUNT>  (1) 
0

>  <PUBCHEM_COMPONENT_COUNT>  (1) 
1

>  <PUBCHEM_CACTVS_TAUTO_COUNT>  (1) 
4

>  <PUBCHEM_CONFORMER_ID>  (1) 
0000326C00000001

>  <PUBCHEM_MMFF94_ENERGY>  (1) 
43.7097

>  <PUBCHEM_FEATURE_SELFOVERLAP>  (1) 
40.603

>  <PUBCHEM_SHAPE_FINGERPRINT>  (1) 
11045977 3 14779556715975996053
11796584 16 17060337431539936350
12236239 1 18411983550658314072
12730499 353 16950568761743031490
12788726 201 17774727445969731448
12815109 37 15052014563272116404
12916748 109 15936412216956772644
13533116 47 17632016343523907358
14115302 16 18202001070669738474
14251752 14 17774724168967712561
14341114 176 17240768341819255345
14911166 2 17917992793092992754
15048467 5 17894632552001425717
15099037 51 18342459248437611862
15183329 4 18410577262564919652
18186145 218 17917414450446404457
18222031 100 12967137129470769896
187816 3 17704073997163362947
200 152 18273496762837295080
20374829 77 16056595452185394932
20645477 70 18113896001635888074
20681677 155 18341328976586683218
20871999 31 18269832167559285847
22079108 93 16081089302871828864
221357 26 17968089820009927781
22224240 67 14851607696033287689
23402539 116 17775283850445928777
23402655 69 18333452062547781648
23536379 177 18410856546839387720
23559900 14 17774716567645615512
26918003 58 11600004366602966781
29717793 49 18201164269897413788
3004659 81 18342459197726738086
347723 3 18201720639074746760
3545911 37 17676489449208361241
3759504 43 18335984246179789699
542803 24 18411699876800844041
58051976 100 18336542836820208535
59682541 35 15213317339105694025
59755656 215 16773801350876454181
59755656 520 18341890805870405103
69474 34 13045946828056164999
8272917 22 18188492358841572466

>  <PUBCHEM_SHAPE_MULTIPOLES>  (1) 
386.87
14.59
1.59
1.21
2.3
0.46
0.1
-2.82
-2.91
0.92
-0.15
0.06
-0.13
-1.26

>  <PUBCHEM_SHAPE_SELFOVERLAP>  (1) 
774.095

>  <PUBCHEM_SHAPE_VOLUME>  (1) 
228.4

>  <PUBCHEM_COORDINATE_TYPE>  (1) 
2
5
10

$$$$
