12911
     RDKit          3D

 20 20  0  0  1  0  0  0  0  0999 V2000
   -1.1824   -3.1597    0.3560 Cl  0  0  0  0  0  0  0  0  0  0  0  0
   -0.0816    1.9400   -0.8592 O   0  0  0  0  0  0  0  0  0  0  0  0
    3.9444   -0.0336    0.4399 N   0  0  0  0  0  0  0  0  0  0  0  0
   -0.2673   -0.3448   -0.3404 N   0  0  0  0  0  0  0  0  0  0  0  0
    2.5044    0.1711    0.6067 C   0  0  0  0  0  0  0  0  0  0  0  0
    1.9072    0.6217   -0.7322 C   0  0  0  0  0  0  0  0  0  0  0  0
    4.1997   -1.0609   -0.5683 C   0  0  0  0  0  0  0  0  0  0  0  0
    4.5979    1.2208    0.0702 C   0  0  0  0  0  0  0  0  0  0  0  0
    2.2798    1.2043    1.7101 C   0  0  0  0  0  0  0  0  0  0  0  0
    0.4027    0.8304   -0.6557 C   0  0  0  0  0  0  0  0  0  0  0  0
    3.5268   -2.3720   -0.1987 C   0  0  0  0  0  0  0  0  0  0  0  0
    6.1018    1.0419   -0.0494 C   0  0  0  0  0  0  0  0  0  0  0  0
   -1.6620   -0.5272   -0.1861 C   0  0  0  0  0  0  0  0  0  0  0  0
   -3.8650    0.4286   -0.2199 C   0  0  0  0  0  0  0  0  0  0  0  0
   -2.4853    0.5748   -0.3631 C   0  0  0  0  0  0  0  0  0  0  0  0
   -2.1853   -1.7710    0.1308 C   0  0  0  0  0  0  0  0  0  0  0  0
   -4.7631    1.6043   -0.4075 C   0  0  0  0  0  0  0  0  0  0  0  0
   -4.4050   -0.8173    0.0989 C   0  0  0  0  0  0  0  0  0  0  0  0
   -3.5650   -1.9171    0.2742 C   0  0  0  0  0  0  0  0  0  0  0  0
   -5.0024    2.3660    0.8936 C   0  0  0  0  0  0  0  0  0  0  0  0
  1 16  1  0
  2 10  2  0
  3  5  1  0
  3  7  1  0
  3  8  1  0
  4 10  1  0
  4 13  1  0
  5  6  1  0
  5  9  1  0
  6 10  1  0
  7 11  1  0
  8 12  1  0
 13 15  2  0
 13 16  1  0
 14 15  1  0
 14 17  1  0
 14 18  2  0
 16 19  2  0
 17 20  1  0
 18 19  1  0
M  END
>  <PUBCHEM_COMPOUND_CID>  (1) 
12911

>  <PUBCHEM_CONFORMER_RMSD>  (1) 
0.8

>  <PUBCHEM_CONFORMER_DIVERSEORDER>  (1) 
1
48
107
100
158
121
55
148
129
99
70
168
49
36
157
146
105
180
58
98
137
154
118
102
126
167
122
61
51
109
174
152
176
62
172
136
151
63
46
171
114
53
166
54
128
8
56
163
134
75
175
130
81
22
145
117
52
42
160
139
162
27
33
143
106
31
34
103
170
96
177
112
161
178
141
45
13
84
181
50
4
144
132
91
159
17
115
40
169
101
138
41
97
18
156
82
142
147
35
24
120
150
39
21
135
76
44
88
83
37
38
179
155
149
127
92
10
104
95
111
165
5
173
59
78
113
57
140
86
30
77
119
131
89
47
116
25
67
153
133
11
72
6
32
123
23
73
60
64
16
68
43
164
69
29
110
79
28
87
2
12
85
20
66
7
124
94
125
93
3
9
90
71
26
65
80
19
74
15
108
14

>  <PUBCHEM_MMFF94_PARTIAL_CHARGES>  (1) 
20
1 -0.18
10 0.57
13 0.12
14 -0.14
15 -0.15
16 0.18
17 0.14
18 -0.15
19 -0.15
2 -0.57
3 -0.81
37 0.37
38 0.15
4 -0.55
41 0.15
42 0.15
5 0.27
6 0.06
7 0.27
8 0.27

>  <PUBCHEM_EFFECTIVE_ROTOR_COUNT>  (1) 
8

>  <PUBCHEM_PHARMACOPHORE_FEATURES>  (1) 
5
1 2 acceptor
1 20 hydrophobe
1 3 cation
1 4 donor
6 13 14 15 16 18 19 rings

>  <PUBCHEM_HEAVY_ATOM_COUNT>  (1) 
20

>  <PUBCHEM_ATOM_DEF_STEREO_COUNT>  (1) 
0

>  <PUBCHEM_ATOM_UDEF_STEREO_COUNT>  (1) 
1

>  <PUBCHEM_BOND_DEF_STEREO_COUNT>  (1) 
0

>  <PUBCHEM_BOND_UDEF_STEREO_COUNT>  (1) 
0

>  <PUBCHEM_ISOTOPIC_ATOM_COUNT>  (1) 
0

>  <PUBCHEM_COMPONENT_COUNT>  (1) 
1

>  <PUBCHEM_CACTVS_TAUTO_COUNT>  (1) 
2

>  <PUBCHEM_CONFORMER_ID>  (1) 
0000326F00000001

>  <PUBCHEM_MMFF94_ENERGY>  (1) 
48.65

>  <PUBCHEM_FEATURE_SELFOVERLAP>  (1) 
25.371

>  <PUBCHEM_SHAPE_FINGERPRINT>  (1) 
10366900 7 18059850714083296184
10616163 171 18264772241150542734
11315181 36 18115024220313133420
12107183 9 18050848810343896514
12166972 35 13614233810775796130
12236239 1 17458059387456640316
12500047 106 18341326785863172786
12507560 40 18200869707338044944
12616971 3 16877944958029928796
128620 24 8790884090324640625
13073987 5 18410577279639560003
13533116 47 18059572447315663403
13544592 145 18340493261881986638
13583140 156 17774154733687514375
13675066 3 18411698807269422367
14178342 30 18121485015236723018
14573314 32 18343582940720857740
14790565 3 18050008788146022193
14866123 147 17192080656818410690
15042514 8 18119534490916849427
15196674 1 18409166597547039534
15256400 18 18409450246014124173
15375358 24 18411418436252664470
17349148 13 13542466483444107028
17804303 29 18410293644304686533
17844677 252 18341337798180685136
1813 80 16877948221735549702
200 152 12247681577990945749
20600515 1 18409460175831528133
20645477 56 18334853926740653765
20645477 70 17917714574334826934
20681677 155 18187364346074083520
21033648 29 17846205691869147249
21065198 57 18342174504969722425
21065199 12 18270396212802688177
21279426 13 18198346164922209015
212916 134 18341036455180700481
21421861 104 17896307040129485986
23402539 116 18342450461557120765
23559900 14 18342455933160871560
3004659 81 18335703794027521234
4214541 1 18409166636143430621
495365 180 17632280273136967242
5104073 3 18335701628577819970
5385378 56 18193281789470438809
59755656 215 18408599250296206623
9709674 26 18337393854277538238

>  <PUBCHEM_SHAPE_MULTIPOLES>  (1) 
397.63
12.28
2.78
0.96
5.33
1.52
-0.23
-4.38
-0.64
-1.78
-0.35
0.25
-0.33
0.32

>  <PUBCHEM_SHAPE_SELFOVERLAP>  (1) 
790.235

>  <PUBCHEM_SHAPE_VOLUME>  (1) 
238.7

>  <PUBCHEM_COORDINATE_TYPE>  (1) 
2
5
10

$$$$
