12917
     RDKit          3D

 21 22  0  0  0  0  0  0  0  0999 V2000
    2.5166   -2.7091   -0.1491 Cl  0  0  0  0  0  0  0  0  0  0  0  0
   -5.2385    1.1653    0.2847 O   0  0  0  0  0  0  0  0  0  0  0  0
    3.7100    3.4488    0.0582 O   0  0  0  0  0  0  0  0  0  0  0  0
    4.2047    2.1480   -0.0197 N   0  0  0  0  0  0  0  0  0  0  0  0
    0.0764   -3.7692   -0.0731 N   0  0  0  0  0  0  0  0  0  0  0  0
    0.9487   -0.4335    0.0182 C   0  0  0  0  0  0  0  0  0  0  0  0
    3.3957   -0.1682   -0.0834 C   0  0  0  0  0  0  0  0  0  0  0  0
   -0.1612   -1.1965    0.0412 C   0  0  0  0  0  0  0  0  0  0  0  0
    2.3122   -0.9788   -0.0676 C   0  0  0  0  0  0  0  0  0  0  0  0
   -1.4981   -0.5739    0.1055 C   0  0  0  0  0  0  0  0  0  0  0  0
    0.7640    1.0072    0.0852 C   0  0  0  0  0  0  0  0  0  0  0  0
    3.1957    1.3323   -0.0107 C   0  0  0  0  0  0  0  0  0  0  0  0
    1.8031    1.8448    0.0724 C   0  0  0  0  0  0  0  0  0  0  0  0
   -2.0759   -0.3397    1.3413 C   0  0  0  0  0  0  0  0  0  0  0  0
   -2.1445   -0.2388   -1.0717 C   0  0  0  0  0  0  0  0  0  0  0  0
    4.8350   -0.6055   -0.1689 C   0  0  0  0  0  0  0  0  0  0  0  0
   -4.0056    0.5922    0.2254 C   0  0  0  0  0  0  0  0  0  0  0  0
   -3.3396    0.2480    1.4017 C   0  0  0  0  0  0  0  0  0  0  0  0
   -3.4081    0.3489   -1.0112 C   0  0  0  0  0  0  0  0  0  0  0  0
   -0.0273   -2.6144   -0.0224 C   0  0  0  0  0  0  0  0  0  0  0  0
   -5.8632    1.4921   -0.9559 C   0  0  0  0  0  0  0  0  0  0  0  0
  1  9  1  0
  2 17  1  0
  2 21  1  0
  3  4  1  0
  4 12  2  0
  5 20  3  0
  6  8  2  0
  6  9  1  0
  6 11  1  0
  7  9  2  0
  7 12  1  0
  7 16  1  0
  8 10  1  0
  8 20  1  0
 10 14  2  0
 10 15  1  0
 11 13  2  0
 12 13  1  0
 14 18  1  0
 15 19  2  0
 17 18  2  0
 17 19  1  0
M  END
>  <PUBCHEM_COMPOUND_CID>  (1) 
12917

>  <PUBCHEM_CONFORMER_RMSD>  (1) 
0.6

>  <PUBCHEM_CONFORMER_DIVERSEORDER>  (1) 
1

>  <PUBCHEM_MMFF94_PARTIAL_CHARGES>  (1) 
27
1 -0.14
10 0.03
11 -0.15
12 0.42
13 -0.14
14 -0.15
15 -0.15
16 0.14
17 0.08
18 -0.15
19 -0.15
2 -0.36
20 0.49
21 0.28
22 0.15
23 0.15
24 0.15
25 0.15
29 0.15
3 -0.34
30 0.15
34 0.4
4 -0.51
5 -0.56
7 -0.12
8 0.04
9 0.14

>  <PUBCHEM_EFFECTIVE_ROTOR_COUNT>  (1) 
2

>  <PUBCHEM_PHARMACOPHORE_FEATURES>  (1) 
6
1 2 acceptor
1 3 anion
1 4 acceptor
1 5 acceptor
6 10 14 15 17 18 19 rings
6 6 7 9 11 12 13 rings

>  <PUBCHEM_HEAVY_ATOM_COUNT>  (1) 
21

>  <PUBCHEM_ATOM_DEF_STEREO_COUNT>  (1) 
0

>  <PUBCHEM_ATOM_UDEF_STEREO_COUNT>  (1) 
0

>  <PUBCHEM_BOND_DEF_STEREO_COUNT>  (1) 
0

>  <PUBCHEM_BOND_UDEF_STEREO_COUNT>  (1) 
2

>  <PUBCHEM_ISOTOPIC_ATOM_COUNT>  (1) 
0

>  <PUBCHEM_COMPONENT_COUNT>  (1) 
1

>  <PUBCHEM_CACTVS_TAUTO_COUNT>  (1) 
2

>  <PUBCHEM_CONFORMER_ID>  (1) 
0000327500000001

>  <PUBCHEM_MMFF94_ENERGY>  (1) 
103.2842

>  <PUBCHEM_FEATURE_SELFOVERLAP>  (1) 
30.446

>  <PUBCHEM_SHAPE_FINGERPRINT>  (1) 
10411042 1 17762336916657204062
10693767 8 17915740864731944270
11471102 20 18338517426385563199
12236239 1 17632292333441869103
12403259 415 18261683644268006657
12730499 353 18335708217643129371
13140716 1 18337672044316021530
14178342 30 17978218693550997696
14848178 96 18270679891193372832
15099037 51 18411421700733712598
15196674 1 18410856606884436324
15309172 13 18409735070743799651
15342168 16 18336548308513546405
16945 1 18411421709307764266
1813 80 17555181246482343814
18186145 218 18342181063611740702
19862831 5 17704353273174788137
20157964 124 18338513046220443997
204376 136 18411141363517068931
20645477 70 18265894666217722927
21033648 29 18187637024694651316
21033650 10 14835583391530722003
21307412 95 17915486955503945630
2255824 54 18270681961172261494
23557571 272 16878226346933012637
23558518 356 18044376264649215530
23559900 14 18337955575933538795
25 1 18410009927160050390
2838139 119 18264761083342667725
3060560 45 18341613659687985166
335352 9 18411138022591721166
350125 39 17906460174632724018
474 4 18341613694100107043
495365 180 18412252935191368857
5104073 3 18262514909333935376
602551 16 16154002338251701024
633830 44 18272371962183435799
77492 1 17632294532444168611
81228 2 17613151188590375067
8272917 22 18269558251914718983
84936 182 18202841062919685200
9981440 41 16624298783531557736

>  <PUBCHEM_SHAPE_MULTIPOLES>  (1) 
412.34
10.06
3.14
0.95
7.81
0.88
0.11
-6.49
-1.18
-3.63
-0.13
1.08
-0.03
0.45

>  <PUBCHEM_SHAPE_SELFOVERLAP>  (1) 
881.388

>  <PUBCHEM_SHAPE_VOLUME>  (1) 
229.6

>  <PUBCHEM_COORDINATE_TYPE>  (1) 
2
5
10

$$$$
