12921
     RDKit          3D

 21 21  0  0  0  0  0  0  0  0999 V2000
   -7.9041    2.3506   -0.0222 O   0  0  0  0  0  0  0  0  0  0  0  0
   -5.8292    3.2553   -0.2584 O   0  0  0  0  0  0  0  0  0  0  0  0
    2.5020   -3.6831   -0.0761 C   0  0  0  0  0  0  0  0  0  0  0  0
    1.2727   -4.1043   -0.0073 C   0  0  0  0  0  0  0  0  0  0  0  0
    2.2978   -5.0983   -0.0773 C   0  0  0  0  0  0  0  0  0  0  0  0
    3.5491   -2.7007   -0.1327 C   0  0  0  0  0  0  0  0  0  0  0  0
   -0.2109   -3.9646    0.0767 C   0  0  0  0  0  0  0  0  0  0  0  0
    3.0811   -1.2226   -0.0360 C   0  0  0  0  0  0  0  0  0  0  0  0
   -0.6441   -2.4979    0.0630 C   0  0  0  0  0  0  0  0  0  0  0  0
    4.2561   -0.2385   -0.0639 C   0  0  0  0  0  0  0  0  0  0  0  0
   -2.1616   -2.3118    0.1600 C   0  0  0  0  0  0  0  0  0  0  0  0
    3.7645    1.2098    0.0037 C   0  0  0  0  0  0  0  0  0  0  0  0
   -2.6027   -0.8491    0.0725 C   0  0  0  0  0  0  0  0  0  0  0  0
    4.8967    2.2403   -0.0333 C   0  0  0  0  0  0  0  0  0  0  0  0
   -4.1261   -0.7246    0.1514 C   0  0  0  0  0  0  0  0  0  0  0  0
    4.4043    3.6886    0.0079 C   0  0  0  0  0  0  0  0  0  0  0  0
   -4.5725    0.7326    0.0261 C   0  0  0  0  0  0  0  0  0  0  0  0
    5.5763    4.6706    0.0421 C   0  0  0  0  0  0  0  0  0  0  0  0
   -6.0946    0.8542    0.0719 C   0  0  0  0  0  0  0  0  0  0  0  0
    5.0945    6.1104    0.1213 C   0  0  0  0  0  0  0  0  0  0  0  0
   -6.5495    2.2832   -0.0893 C   0  0  0  0  0  0  0  0  0  0  0  0
  1 21  1  0
  2 21  2  0
  3  4  2  0
  3  5  1  0
  3  6  1  0
  4  5  1  0
  4  7  1  0
  6  8  1  0
  7  9  1  0
  8 10  1  0
  9 11  1  0
 10 12  1  0
 11 13  1  0
 12 14  1  0
 13 15  1  0
 14 16  1  0
 15 17  1  0
 16 18  1  0
 17 19  1  0
 18 20  1  0
 19 21  1  0
M  END
>  <PUBCHEM_COMPOUND_CID>  (1) 
12921

>  <PUBCHEM_CONFORMER_RMSD>  (1) 
1.4

>  <PUBCHEM_CONFORMER_DIVERSEORDER>  (1) 
1
12
11
33
29
4
105
75
10
27
2
82
97
100
94
96
90
24
84
50
39
3
49
76
7
42
54
22
15
61
52
69
66
77
48
35
45
53
36
44
57
103
99
56
81
64
101
78
31
9
87
70
14
71
59
79
63
17
37
88
18
46
65
55
73
13
67
28
20
98
25
16
74
62
47
40
43
34
30
80
23
51
5
89
86
92
93
41
38
21
68
26
60
85
19
58
32
8
104
6
95
83
106
102
91
72

>  <PUBCHEM_MMFF94_PARTIAL_CHARGES>  (1) 
12
1 -0.65
19 0.06
2 -0.57
21 0.66
22 0.1
23 0.1
3 -0.18
4 -0.18
5 -0.12
55 0.5
6 0.14
7 0.14

>  <PUBCHEM_EFFECTIVE_ROTOR_COUNT>  (1) 
15.2

>  <PUBCHEM_PHARMACOPHORE_FEATURES>  (1) 
4
1 1 acceptor
1 2 acceptor
1 20 hydrophobe
3 1 2 21 anion

>  <PUBCHEM_HEAVY_ATOM_COUNT>  (1) 
21

>  <PUBCHEM_ATOM_DEF_STEREO_COUNT>  (1) 
0

>  <PUBCHEM_ATOM_UDEF_STEREO_COUNT>  (1) 
0

>  <PUBCHEM_BOND_DEF_STEREO_COUNT>  (1) 
0

>  <PUBCHEM_BOND_UDEF_STEREO_COUNT>  (1) 
0

>  <PUBCHEM_ISOTOPIC_ATOM_COUNT>  (1) 
0

>  <PUBCHEM_COMPONENT_COUNT>  (1) 
1

>  <PUBCHEM_CACTVS_TAUTO_COUNT>  (1) 
1

>  <PUBCHEM_CONFORMER_ID>  (1) 
0000327900000001

>  <PUBCHEM_MMFF94_ENERGY>  (1) 
34.1284

>  <PUBCHEM_FEATURE_SELFOVERLAP>  (1) 
20.354

>  <PUBCHEM_SHAPE_FINGERPRINT>  (1) 
10675989 125 18411139104332850408
10864689 126 18267031725146335788
10937287 8 18339362002009244386
11059845 2 17980450655332944624
11374522 174 18189068627568155212
11386260 185 18054224332775156831
11761917 142 17548409767185106120
12107183 9 18192133006352513322
13944108 23 18191596263698727414
14223995 32 18198897210144736144
14251764 75 18340778146724762986
14429114 114 18339641260486827129
15198563 99 17622185472964297094
15400415 2 18338797947801140384
155225 5 17762619899346198992
155225 6 18410294752274912777
1768 85 18337113363343671343
21049683 118 17385726851182933203
21315764 268 18119528726816562893
437795 171 18333722524949927509
5047190 47 17832130633829283861
5047190 92 18338234976888918389
5312510 48 18339362946754012243
57366028 249 18047181957750074533
5951187 136 18272097067355345654
6176135 31 18409157823066257448
9849439 229 18336549442432404758

>  <PUBCHEM_SHAPE_MULTIPOLES>  (1) 
420.43
18.56
9.92
0.62
25.83
2.75
0
36.3
0.27
-14.3
0.04
-0.04
-0.02
0.72

>  <PUBCHEM_SHAPE_SELFOVERLAP>  (1) 
790.935

>  <PUBCHEM_SHAPE_VOLUME>  (1) 
262.2

>  <PUBCHEM_COORDINATE_TYPE>  (1) 
2
5
10

$$$$
