12935
     RDKit          3D

 24 26  0  0  0  0  0  0  0  0999 V2000
    0.2281    1.8587   -1.1874 O   0  0  0  0  0  0  0  0  0  0  0  0
   -2.2569   -1.0645    1.4450 O   0  0  0  0  0  0  0  0  0  0  0  0
    2.3047   -1.4055    1.3999 O   0  0  0  0  0  0  0  0  0  0  0  0
   -1.0694    0.3660    0.0324 N   0  0  0  0  0  0  0  0  0  0  0  0
    1.3126    0.1962    0.0199 N   0  0  0  0  0  0  0  0  0  0  0  0
   -2.2503    1.1337   -0.2810 C   0  0  0  0  0  0  0  0  0  0  0  0
    2.5849    0.7916   -0.3105 C   0  0  0  0  0  0  0  0  0  0  0  0
   -3.2645    0.2798   -1.0465 C   0  0  0  0  0  0  0  0  0  0  0  0
   -2.8638    1.7185    0.9935 C   0  0  0  0  0  0  0  0  0  0  0  0
    3.3023    1.2734    0.9532 C   0  0  0  0  0  0  0  0  0  0  0  0
    3.4493   -0.1940   -1.1004 C   0  0  0  0  0  0  0  0  0  0  0  0
   -4.5449    1.0570   -1.3411 C   0  0  0  0  0  0  0  0  0  0  0  0
   -4.1457    2.4926    0.6969 C   0  0  0  0  0  0  0  0  0  0  0  0
    4.6752    1.8580    0.6318 C   0  0  0  0  0  0  0  0  0  0  0  0
    4.8228    0.3915   -1.4181 C   0  0  0  0  0  0  0  0  0  0  0  0
   -0.0117   -1.6478    0.9214 C   0  0  0  0  0  0  0  0  0  0  0  0
   -5.1537    1.6408   -0.0694 C   0  0  0  0  0  0  0  0  0  0  0  0
    5.5345    0.8746   -0.1575 C   0  0  0  0  0  0  0  0  0  0  0  0
    0.1608    0.8703   -0.4483 C   0  0  0  0  0  0  0  0  0  0  0  0
   -1.2212   -0.7556    0.8538 C   0  0  0  0  0  0  0  0  0  0  0  0
    1.3143   -0.9419    0.8326 C   0  0  0  0  0  0  0  0  0  0  0  0
   -0.0976   -2.6907   -0.1906 C   0  0  0  0  0  0  0  0  0  0  0  0
   -1.3686   -3.5237   -0.0690 C   0  0  0  0  0  0  0  0  0  0  0  0
   -1.4412   -4.5791   -1.1607 C   0  0  0  0  0  0  0  0  0  0  0  0
  1 19  2  0
  2 20  2  0
  3 21  2  0
  4  6  1  0
  4 19  1  0
  4 20  1  0
  5  7  1  0
  5 19  1  0
  5 21  1  0
  6  8  1  0
  6  9  1  0
  7 10  1  0
  7 11  1  0
  8 12  1  0
  9 13  1  0
 10 14  1  0
 11 15  1  0
 12 17  1  0
 13 17  1  0
 14 18  1  0
 15 18  1  0
 16 20  1  0
 16 21  1  0
 16 22  1  0
 22 23  1  0
 23 24  1  0
M  END
>  <PUBCHEM_COMPOUND_CID>  (1) 
12935

>  <PUBCHEM_CONFORMER_RMSD>  (1) 
0.8

>  <PUBCHEM_CONFORMER_DIVERSEORDER>  (1) 
1
5
8
4
9
14
10
6
2
12
13
7
3
11

>  <PUBCHEM_MMFF94_PARTIAL_CHARGES>  (1) 
11
1 -0.57
16 0.12
19 0.69
2 -0.57
20 0.57
21 0.57
3 -0.57
4 -0.42
5 -0.42
6 0.3
7 0.3

>  <PUBCHEM_EFFECTIVE_ROTOR_COUNT>  (1) 
7

>  <PUBCHEM_PHARMACOPHORE_FEATURES>  (1) 
8
1 1 acceptor
1 16 anion
1 2 acceptor
1 24 hydrophobe
1 3 acceptor
6 4 5 16 19 20 21 rings
6 6 8 9 12 13 17 rings
6 7 10 11 14 15 18 rings

>  <PUBCHEM_HEAVY_ATOM_COUNT>  (1) 
24

>  <PUBCHEM_ATOM_DEF_STEREO_COUNT>  (1) 
0

>  <PUBCHEM_ATOM_UDEF_STEREO_COUNT>  (1) 
0

>  <PUBCHEM_BOND_DEF_STEREO_COUNT>  (1) 
0

>  <PUBCHEM_BOND_UDEF_STEREO_COUNT>  (1) 
0

>  <PUBCHEM_ISOTOPIC_ATOM_COUNT>  (1) 
0

>  <PUBCHEM_COMPONENT_COUNT>  (1) 
1

>  <PUBCHEM_CACTVS_TAUTO_COUNT>  (1) 
1

>  <PUBCHEM_CONFORMER_ID>  (1) 
0000328700000001

>  <PUBCHEM_MMFF94_ENERGY>  (1) 
40.861

>  <PUBCHEM_FEATURE_SELFOVERLAP>  (1) 
40.597

>  <PUBCHEM_SHAPE_FINGERPRINT>  (1) 
11578080 2 17627791138779887929
12236239 1 18342453687204602029
12293681 4 18131636694833095808
12643181 29 18411427185918776278
12788726 201 17830736821887051734
12969540 114 18336255773853617445
13140716 1 18188208684899550891
13583140 156 17417251095207148128
14790565 3 18339364045880816897
15664445 248 17194898730911479479
1601671 61 17894635833520327764
17492 54 18042102367834921663
17539 30 18054503874916389647
200 152 12031786946275151709
20602899 9 18060143128315952995
20739085 24 17826244998907344573
21033648 29 18272087218584178105
21344244 181 18060145336166676759
21524375 3 18261107426770419410
22182313 1 18264514847807443387
2255824 54 17981321192994633807
22620623 9 18198069268734434134
23557571 272 18126841831570947442
23558518 356 17974006455456467820
23559900 14 17835791998763475315
23566358 27 17910677566899726439
25147074 1 18042104566673807690
2748010 2 18261408705899542459
283562 15 17902783395165771986
34934 24 17894908533936478504
350125 39 17970363700688220777
38695281 34 18338515240573965295
474 4 18265329504682756777
53917941 68 18264191651475702063
59755656 520 18409727357198508788
633830 44 18130503029234959085
7164475 11 17978513362240045214
81228 2 17974289021222821194
8863177 126 13109806502574639405
9862522 239 17749658640933369396

>  <PUBCHEM_SHAPE_MULTIPOLES>  (1) 
466.34
9.88
3.75
1.34
4.72
5.57
0.06
-8.62
1.83
-3.27
0.43
0.04
0.09
-0.2

>  <PUBCHEM_SHAPE_SELFOVERLAP>  (1) 
967.414

>  <PUBCHEM_SHAPE_VOLUME>  (1) 
260

>  <PUBCHEM_COORDINATE_TYPE>  (1) 
2
5
10

$$$$
