12930
     RDKit          3D

 14 14  0  0  1  0  0  0  0  0999 V2000
   -1.3938   -0.2758    0.3227 O   0  0  0  0  0  0  0  0  0  0  0  0
   -2.5148   -0.2323   -0.5195 N   0  0  0  0  0  0  0  0  0  0  0  0
   -4.4314    1.0453   -0.8995 N   0  0  0  0  0  0  0  0  0  0  0  0
   -3.0345    1.7083    0.7837 N   0  0  0  0  0  0  0  0  0  0  0  0
    0.6562   -1.4586    0.8191 C   0  0  0  0  0  0  0  0  0  0  0  0
   -0.6069   -1.3974   -0.0478 C   0  0  0  0  0  0  0  0  0  0  0  0
    1.7113   -0.4806    0.3596 C   0  0  0  0  0  0  0  0  0  0  0  0
   -1.4528   -2.6537    0.1174 C   0  0  0  0  0  0  0  0  0  0  0  0
    2.6469   -0.8835   -0.5797 C   0  0  0  0  0  0  0  0  0  0  0  0
    1.7236    0.8014    0.8853 C   0  0  0  0  0  0  0  0  0  0  0  0
    3.6213    0.0197   -1.0045 C   0  0  0  0  0  0  0  0  0  0  0  0
    2.6980    1.7045    0.4604 C   0  0  0  0  0  0  0  0  0  0  0  0
    3.6468    1.3136   -0.4845 C   0  0  0  0  0  0  0  0  0  0  0  0
   -3.2701    0.7890   -0.2126 C   0  0  0  0  0  0  0  0  0  0  0  0
  1  2  1  0
  1  6  1  0
  2 14  2  3
  3 14  1  0
  4 14  1  0
  5  6  1  0
  5  7  1  0
  6  8  1  0
  7  9  2  0
  7 10  1  0
  9 11  1  0
 10 12  2  0
 11 13  2  0
 12 13  1  0
M  END
>  <PUBCHEM_COMPOUND_CID>  (1) 
12930

>  <PUBCHEM_CONFORMER_RMSD>  (1) 
0.6

>  <PUBCHEM_CONFORMER_DIVERSEORDER>  (1) 
1
52
2
51
27
57
41
3
55
49
42
36
11
29
56
60
37
23
32
54
63
53
18
24
58
21
34
38
4
8
48
31
39
9
50
33
12
62
14
16
30
15
44
43
19
59
40
35
13
5
10
46
61
45
22
17
6
28
47
20
26
25
7

>  <PUBCHEM_MMFF94_PARTIAL_CHARGES>  (1) 
22
1 -0.22
10 -0.15
11 -0.15
12 -0.15
13 -0.15
14 0.55
2 -0.51
21 0.15
22 0.15
23 0.15
24 0.15
25 0.15
26 0.4
27 0.4
28 0.4
29 0.4
3 -0.85
4 -0.85
5 0.14
6 0.28
7 -0.14
9 -0.15

>  <PUBCHEM_EFFECTIVE_ROTOR_COUNT>  (1) 
4

>  <PUBCHEM_PHARMACOPHORE_FEATURES>  (1) 
4
1 3 donor
1 4 donor
4 2 3 4 14 cation
6 7 9 10 11 12 13 rings

>  <PUBCHEM_HEAVY_ATOM_COUNT>  (1) 
14

>  <PUBCHEM_ATOM_DEF_STEREO_COUNT>  (1) 
0

>  <PUBCHEM_ATOM_UDEF_STEREO_COUNT>  (1) 
1

>  <PUBCHEM_BOND_DEF_STEREO_COUNT>  (1) 
0

>  <PUBCHEM_BOND_UDEF_STEREO_COUNT>  (1) 
0

>  <PUBCHEM_ISOTOPIC_ATOM_COUNT>  (1) 
0

>  <PUBCHEM_COMPONENT_COUNT>  (1) 
1

>  <PUBCHEM_CACTVS_TAUTO_COUNT>  (1) 
2

>  <PUBCHEM_CONFORMER_ID>  (1) 
0000328200000001

>  <PUBCHEM_MMFF94_ENERGY>  (1) 
35.8952

>  <PUBCHEM_FEATURE_SELFOVERLAP>  (1) 
20.352

>  <PUBCHEM_SHAPE_FINGERPRINT>  (1) 
10498660 4 18261104175823321157
10608611 8 18197498626441402624
122479 349 18041000660882634467
13294875 104 18338218411142146538
13618510 140 18409728448046654001
13764800 53 18187370973214065011
14123255 52 18333728009595757301
14252887 29 9439394761448716621
15279308 100 18413111679779809726
15775835 57 18259983764509694372
17134986 127 18335978701118093014
1741750 31 18410572911446842994
17834072 14 9799412174674350715
1798214 55 18335135393000907173
18186145 218 18342458110471842401
20233049 118 18409449159530011304
20361792 2 13973696065066118114
20645477 56 18339646762202666472
20645477 70 17346052142314521558
20653085 51 18411144657519653826
20671657 1 18336538313982386162
20671657 53 14117514320382675690
21524375 3 18335697196308953659
22802520 49 18201728404686782792
22926399 65 18336551611628129412
231179 274 17967529043336052292
23402655 69 18202283602061029268
23557571 272 18196097865612553302
23559900 14 18343590642773508766
25 1 18339649953447958146
251288 83 8358250428534155460
2637199 183 18341061704897696993
4028521 119 18411133641187054317
549884 4 18131062727649977152
7832392 63 18335138734664519380
81228 2 17899700347249763003
93112 12 18272654566784030726
9882013 296 11025804214585627022

>  <PUBCHEM_SHAPE_MULTIPOLES>  (1) 
267.3
7.34
2.21
0.96
3.29
0.73
-0.01
-4.31
-2.18
0.96
0.28
-0.21
-0.1
0.27

>  <PUBCHEM_SHAPE_SELFOVERLAP>  (1) 
540.457

>  <PUBCHEM_SHAPE_VOLUME>  (1) 
156.7

>  <PUBCHEM_COORDINATE_TYPE>  (1) 
2
5
10

$$$$
