12939
     RDKit          3D

 25 27  0  0  1  0  0  0  0  0999 V2000
   -0.1407    1.9851   -1.2004 O   0  0  0  0  0  0  0  0  0  0  0  0
   -2.3056   -1.1858    1.4281 O   0  0  0  0  0  0  0  0  0  0  0  0
    2.2642   -0.9802    1.4613 O   0  0  0  0  0  0  0  0  0  0  0  0
   -1.2723    0.3612    0.0169 N   0  0  0  0  0  0  0  0  0  0  0  0
    1.1128    0.4769    0.0452 N   0  0  0  0  0  0  0  0  0  0  0  0
   -2.5307    0.9790   -0.3253 C   0  0  0  0  0  0  0  0  0  0  0  0
    2.3106    1.2164   -0.2720 C   0  0  0  0  0  0  0  0  0  0  0  0
    0.0021   -1.5024    0.9483 C   0  0  0  0  0  0  0  0  0  0  0  0
   -3.4222    0.0021   -1.0963 C   0  0  0  0  0  0  0  0  0  0  0  0
   -3.2318    1.4999    0.9316 C   0  0  0  0  0  0  0  0  0  0  0  0
    2.9432    1.7937    0.9970 C   0  0  0  0  0  0  0  0  0  0  0  0
    3.3002    0.3327   -1.0352 C   0  0  0  0  0  0  0  0  0  0  0  0
   -4.7807    0.6177   -1.4214 C   0  0  0  0  0  0  0  0  0  0  0  0
   -4.5914    2.1122    0.6045 C   0  0  0  0  0  0  0  0  0  0  0  0
    4.2420    2.5347    0.6906 C   0  0  0  0  0  0  0  0  0  0  0  0
    4.5995    1.0747   -1.3380 C   0  0  0  0  0  0  0  0  0  0  0  0
   -0.1027    1.0036   -0.4501 C   0  0  0  0  0  0  0  0  0  0  0  0
    0.0607   -2.5598   -0.1516 C   0  0  0  0  0  0  0  0  0  0  0  0
   -1.3038   -0.7617    0.8498 C   0  0  0  0  0  0  0  0  0  0  0  0
    1.2358   -0.6442    0.8722 C   0  0  0  0  0  0  0  0  0  0  0  0
   -5.4770    1.1381   -0.1671 C   0  0  0  0  0  0  0  0  0  0  0  0
    5.2262    1.6526   -0.0723 C   0  0  0  0  0  0  0  0  0  0  0  0
    1.4086   -3.3013   -0.0952 C   0  0  0  0  0  0  0  0  0  0  0  0
   -1.1311   -3.5105   -0.0218 C   0  0  0  0  0  0  0  0  0  0  0  0
    1.5840   -4.3346   -1.1988 C   0  0  0  0  0  0  0  0  0  0  0  0
  1 17  2  0
  2 19  2  0
  3 20  2  0
  4  6  1  0
  4 17  1  0
  4 19  1  0
  5  7  1  0
  5 17  1  0
  5 20  1  0
  6  9  1  0
  6 10  1  0
  7 11  1  0
  7 12  1  0
  8 18  1  0
  8 19  1  0
  8 20  1  0
  9 13  1  0
 10 14  1  0
 11 15  1  0
 12 16  1  0
 13 21  1  0
 14 21  1  0
 15 22  1  0
 16 22  1  0
 18 23  1  0
 18 24  1  0
 23 25  1  0
M  END
>  <PUBCHEM_COMPOUND_CID>  (1) 
12939

>  <PUBCHEM_CONFORMER_RMSD>  (1) 
0.8

>  <PUBCHEM_CONFORMER_DIVERSEORDER>  (1) 
1
14
10
20
7
8
4
5
16
21
18
19
13
6
9
15
17
3
22
12
11
2

>  <PUBCHEM_MMFF94_PARTIAL_CHARGES>  (1) 
11
1 -0.57
17 0.69
19 0.57
2 -0.57
20 0.57
3 -0.57
4 -0.42
5 -0.42
6 0.3
7 0.3
8 0.12

>  <PUBCHEM_EFFECTIVE_ROTOR_COUNT>  (1) 
7

>  <PUBCHEM_PHARMACOPHORE_FEATURES>  (1) 
9
1 1 acceptor
1 2 acceptor
1 24 hydrophobe
1 25 hydrophobe
1 3 acceptor
1 8 anion
6 4 5 8 17 19 20 rings
6 6 9 10 13 14 21 rings
6 7 11 12 15 16 22 rings

>  <PUBCHEM_HEAVY_ATOM_COUNT>  (1) 
25

>  <PUBCHEM_ATOM_DEF_STEREO_COUNT>  (1) 
0

>  <PUBCHEM_ATOM_UDEF_STEREO_COUNT>  (1) 
1

>  <PUBCHEM_BOND_DEF_STEREO_COUNT>  (1) 
0

>  <PUBCHEM_BOND_UDEF_STEREO_COUNT>  (1) 
0

>  <PUBCHEM_ISOTOPIC_ATOM_COUNT>  (1) 
0

>  <PUBCHEM_COMPONENT_COUNT>  (1) 
1

>  <PUBCHEM_CACTVS_TAUTO_COUNT>  (1) 
1

>  <PUBCHEM_CONFORMER_ID>  (1) 
0000328B00000001

>  <PUBCHEM_MMFF94_ENERGY>  (1) 
49.7679

>  <PUBCHEM_FEATURE_SELFOVERLAP>  (1) 
45.672

>  <PUBCHEM_SHAPE_FINGERPRINT>  (1) 
12236239 1 18342453717364279669
12553582 1 17545877136518003947
12730499 353 18411147913495013915
12788726 201 17541944634005995102
12969540 114 18336253617785400541
13140716 1 18260827068459001227
13533116 47 18270116791680460673
14790565 3 18410015420371013589
15664445 248 17482002137604022775
1601671 61 17967252013703643412
16752209 62 18119802771067782586
167882 2 18338521828959416622
17913733 40 18269577016974755131
1813 80 17763742096548309355
20554085 129 18129360696788335368
20602899 9 17988365978420295682
20645477 70 18116985603660973317
20739085 24 18042412322133551909
21033648 144 18187353337830382261
21033648 29 18199748214247327936
22182313 1 18189359942631003203
2255824 54 18124029031972603475
23419403 2 17395911579787237106
23558518 356 17684646923939459436
23559900 14 17980470171194597915
23566358 27 18198903604907570503
23598288 3 17681283470751669870
25147074 1 18042104587926955186
2748010 2 18187943754353128835
3380486 145 16969704979766624219
34934 24 17894622695257352760
350125 39 18043526114917827636
4516262 110 18341334380109897737
474 4 18337103454827577137
495365 180 18343011190780347832
5265222 85 18047778146132197316
532947 4 18269564857827783766
59755656 520 18408879672493928028
6287921 2 18268423530250441415
633830 44 18202280299315841141
6443956 14 17836362653344951874
7364860 26 18267585693478297098
81228 2 17758114083283212258
8863177 126 12678311973316268293
9862522 239 17822277015961011341

>  <PUBCHEM_SHAPE_MULTIPOLES>  (1) 
486.92
9.58
4.07
1.32
2.92
5.53
-0.06
-9.41
-1.8
-2.18
-0.4
0
0.01
0.32

>  <PUBCHEM_SHAPE_SELFOVERLAP>  (1) 
1011.024

>  <PUBCHEM_SHAPE_VOLUME>  (1) 
271.8

>  <PUBCHEM_COORDINATE_TYPE>  (1) 
2
5
10

$$$$
