12944
     RDKit          3D

 26 28  0  0  1  0  0  0  0  0999 V2000
    2.2081   -0.4137    1.5864 O   0  0  0  0  0  0  0  0  0  0  0  0
   -2.3045   -1.1605    1.5148 O   0  0  0  0  0  0  0  0  0  0  0  0
   -0.4754    2.0605   -1.3012 O   0  0  0  0  0  0  0  0  0  0  0  0
    0.9217    0.7984    0.0600 N   0  0  0  0  0  0  0  0  0  0  0  0
   -1.4323    0.3995    0.0122 N   0  0  0  0  0  0  0  0  0  0  0  0
    2.0305    1.6515   -0.2937 C   0  0  0  0  0  0  0  0  0  0  0  0
   -2.7475    0.8397   -0.3863 C   0  0  0  0  0  0  0  0  0  0  0  0
    0.0333   -1.2332    1.0847 C   0  0  0  0  0  0  0  0  0  0  0  0
    2.5659    2.3836    0.9396 C   0  0  0  0  0  0  0  0  0  0  0  0
    3.1317    0.8419   -0.9826 C   0  0  0  0  0  0  0  0  0  0  0  0
   -3.5030   -0.2855   -1.0983 C   0  0  0  0  0  0  0  0  0  0  0  0
   -3.5295    1.3572    0.8234 C   0  0  0  0  0  0  0  0  0  0  0  0
    0.2371   -2.3478    0.0611 C   0  0  0  0  0  0  0  0  0  0  0  0
    3.7747    3.2508    0.5977 C   0  0  0  0  0  0  0  0  0  0  0  0
    4.3406    1.7103   -1.3209 C   0  0  0  0  0  0  0  0  0  0  0  0
   -4.9177    0.1417   -1.4808 C   0  0  0  0  0  0  0  0  0  0  0  0
   -4.9448    1.7810    0.4392 C   0  0  0  0  0  0  0  0  0  0  0  0
    1.1591   -0.2421    0.9637 C   0  0  0  0  0  0  0  0  0  0  0  0
   -1.3483   -0.6607    0.9202 C   0  0  0  0  0  0  0  0  0  0  0  0
   -0.3373    1.1431   -0.4845 C   0  0  0  0  0  0  0  0  0  0  0  0
    4.8703    2.4421   -0.0909 C   0  0  0  0  0  0  0  0  0  0  0  0
   -5.6947    0.6592   -0.2736 C   0  0  0  0  0  0  0  0  0  0  0  0
    1.6306   -2.9962    0.1629 C   0  0  0  0  0  0  0  0  0  0  0  0
   -0.8425   -3.4187    0.2403 C   0  0  0  0  0  0  0  0  0  0  0  0
    1.8809   -4.0723   -0.8964 C   0  0  0  0  0  0  0  0  0  0  0  0
    3.2929   -4.6300   -0.7971 C   0  0  0  0  0  0  0  0  0  0  0  0
  1 18  2  0
  2 19  2  0
  3 20  2  0
  4  6  1  0
  4 18  1  0
  4 20  1  0
  5  7  1  0
  5 19  1  0
  5 20  1  0
  6  9  1  0
  6 10  1  0
  7 11  1  0
  7 12  1  0
  8 13  1  0
  8 18  1  0
  8 19  1  0
  9 14  1  0
 10 15  1  0
 11 16  1  0
 12 17  1  0
 13 23  1  0
 13 24  1  0
 14 21  1  0
 15 21  1  0
 16 22  1  0
 17 22  1  0
 23 25  1  0
 25 26  1  0
M  END
>  <PUBCHEM_COMPOUND_CID>  (1) 
12944

>  <PUBCHEM_CONFORMER_RMSD>  (1) 
0.8

>  <PUBCHEM_CONFORMER_DIVERSEORDER>  (1) 
1
23
7
33
17
19
31
32
5
11
12
30
27
24
22
13
20
10
29
4
3
15
14
28
9
21
6
2
16
18
26
8
25

>  <PUBCHEM_MMFF94_PARTIAL_CHARGES>  (1) 
11
1 -0.57
18 0.57
19 0.57
2 -0.57
20 0.69
3 -0.57
4 -0.42
5 -0.42
6 0.3
7 0.3
8 0.12

>  <PUBCHEM_EFFECTIVE_ROTOR_COUNT>  (1) 
8

>  <PUBCHEM_PHARMACOPHORE_FEATURES>  (1) 
9
1 1 acceptor
1 2 acceptor
1 24 hydrophobe
1 26 hydrophobe
1 3 acceptor
1 8 anion
6 4 5 8 18 19 20 rings
6 6 9 10 14 15 21 rings
6 7 11 12 16 17 22 rings

>  <PUBCHEM_HEAVY_ATOM_COUNT>  (1) 
26

>  <PUBCHEM_ATOM_DEF_STEREO_COUNT>  (1) 
0

>  <PUBCHEM_ATOM_UDEF_STEREO_COUNT>  (1) 
1

>  <PUBCHEM_BOND_DEF_STEREO_COUNT>  (1) 
0

>  <PUBCHEM_BOND_UDEF_STEREO_COUNT>  (1) 
0

>  <PUBCHEM_ISOTOPIC_ATOM_COUNT>  (1) 
0

>  <PUBCHEM_COMPONENT_COUNT>  (1) 
1

>  <PUBCHEM_CACTVS_TAUTO_COUNT>  (1) 
1

>  <PUBCHEM_CONFORMER_ID>  (1) 
0000329000000001

>  <PUBCHEM_MMFF94_ENERGY>  (1) 
49.0576

>  <PUBCHEM_FEATURE_SELFOVERLAP>  (1) 
45.671

>  <PUBCHEM_SHAPE_FINGERPRINT>  (1) 
10411042 1 17762620594651236354
10930396 42 17975387159474946106
12107183 9 17624424073894737481
12553582 1 17833259823511671835
12730499 353 18410303522950896635
12788726 201 17252867663918291576
12969540 114 18263350538071292245
13004483 165 17184468162114091930
13009979 54 17557705763960231211
13140716 1 18259979383664282042
13533116 47 18341328895620432513
13540713 4 18042140816487767427
13955234 65 18339646641996537795
14790565 3 18408887356001185373
14955137 171 17548159743888900147
15439362 3 18338235968425107076
15664445 248 17769105544359824103
167882 2 18410297973748103238
17913733 40 18268168572649541947
1813 80 17978221664977822131
20554085 129 18129080355593495472
20600515 1 17035257322154685464
20602899 9 18058172910842338594
20739085 24 18041282058687720581
21033648 144 18115011008967409381
21033648 29 18126846229549478480
21344244 246 18341612586447503134
22182313 1 18042426723517325371
23419403 2 17465995571901600978
23558518 356 17396131808551690952
23559900 14 18196081145816436515
23566358 27 18341891832230146135
2748010 2 18114194037742481579
3298306 158 18411147935170518502
3380486 145 16535672794719184179
34934 24 17677320744640208416
4516262 110 18412546488418800273
46194498 28 18191575372993610983
474 4 18335975390310088289
495365 180 18342166800167964120
5265222 85 17974034987741711652
532947 4 18339931424493847894
59755656 520 18335976588273959780
6287921 2 18339633439451555951
633830 44 18273213123160546837
6443956 14 18051970320846929066
6669772 16 18412830205040742846
70251023 43 18122058707251329083

>  <PUBCHEM_SHAPE_MULTIPOLES>  (1) 
507.5
9.58
4.94
1.32
7.75
6.27
-0.01
-7.13
-2.39
-7.35
-0.61
0.09
-0.03
0.49

>  <PUBCHEM_SHAPE_SELFOVERLAP>  (1) 
1048.65

>  <PUBCHEM_SHAPE_VOLUME>  (1) 
284.6

>  <PUBCHEM_COORDINATE_TYPE>  (1) 
2
5
10

$$$$
