12942
     RDKit          3D

 25 27  0  0  0  0  0  0  0  0999 V2000
    2.1810    0.6957    1.9404 O   0  0  0  0  0  0  0  0  0  0  0  0
   -1.9877    1.8901    1.7853 O   0  0  0  0  0  0  0  0  0  0  0  0
   -0.5274   -1.2974   -1.3097 O   0  0  0  0  0  0  0  0  0  0  0  0
    0.8942   -0.4818    0.3546 N   0  0  0  0  0  0  0  0  0  0  0  0
   -1.4132    0.1803    0.2675 N   0  0  0  0  0  0  0  0  0  0  0  0
    0.2631    1.7665    1.0377 C   0  0  0  0  0  0  0  0  0  0  0  0
    0.5404    2.5694   -0.2288 C   0  0  0  0  0  0  0  0  0  0  0  0
    1.9680    3.1152   -0.2449 C   0  0  0  0  0  0  0  0  0  0  0  0
    1.2266    0.6165    1.1673 C   0  0  0  0  0  0  0  0  0  0  0  0
   -1.1691    1.3033    1.0777 C   0  0  0  0  0  0  0  0  0  0  0  0
    2.2525    3.8904   -1.5310 C   0  0  0  0  0  0  0  0  0  0  0  0
   -0.3714   -0.6194   -0.2870 C   0  0  0  0  0  0  0  0  0  0  0  0
    1.8874   -1.5123    0.1360 C   0  0  0  0  0  0  0  0  0  0  0  0
   -2.7833   -0.1709   -0.0414 C   0  0  0  0  0  0  0  0  0  0  0  0
    3.6822    4.4064   -1.5659 C   0  0  0  0  0  0  0  0  0  0  0  0
    3.2369   -1.1800    0.1501 C   0  0  0  0  0  0  0  0  0  0  0  0
   -3.7485    0.8264   -0.1147 C   0  0  0  0  0  0  0  0  0  0  0  0
    1.4812   -2.8230   -0.0849 C   0  0  0  0  0  0  0  0  0  0  0  0
   -3.1189   -1.5015   -0.2622 C   0  0  0  0  0  0  0  0  0  0  0  0
    4.1939   -2.1726   -0.0601 C   0  0  0  0  0  0  0  0  0  0  0  0
   -5.0686    0.4883   -0.4126 C   0  0  0  0  0  0  0  0  0  0  0  0
    2.4384   -3.8156   -0.2950 C   0  0  0  0  0  0  0  0  0  0  0  0
   -4.4389   -1.8394   -0.5603 C   0  0  0  0  0  0  0  0  0  0  0  0
    3.7948   -3.4903   -0.2825 C   0  0  0  0  0  0  0  0  0  0  0  0
   -5.4138   -0.8444   -0.6355 C   0  0  0  0  0  0  0  0  0  0  0  0
  1  9  2  0
  2 10  2  0
  3 12  2  0
  4  9  1  0
  4 12  1  0
  4 13  1  0
  5 10  1  0
  5 12  1  0
  5 14  1  0
  6  7  1  0
  6  9  1  0
  6 10  1  0
  7  8  1  0
  8 11  1  0
 11 15  1  0
 13 16  2  0
 13 18  1  0
 14 17  2  0
 14 19  1  0
 16 20  1  0
 17 21  1  0
 18 22  2  0
 19 23  2  0
 20 24  2  0
 21 25  2  0
 22 24  1  0
 23 25  1  0
M  END
>  <PUBCHEM_COMPOUND_CID>  (1) 
12942

>  <PUBCHEM_CONFORMER_RMSD>  (1) 
0.8

>  <PUBCHEM_CONFORMER_DIVERSEORDER>  (1) 
1
18
12
7
3
15
16
17
6
4
14
9
11
13
2
8
10
5

>  <PUBCHEM_MMFF94_PARTIAL_CHARGES>  (1) 
31
1 -0.57
10 0.57
12 0.69
13 0.12
14 0.12
16 -0.15
17 -0.15
18 -0.15
19 -0.15
2 -0.57
20 -0.15
21 -0.15
22 -0.15
23 -0.15
24 -0.15
25 -0.15
3 -0.57
36 0.15
37 0.15
38 0.15
39 0.15
4 -0.24
40 0.15
41 0.15
42 0.15
43 0.15
44 0.15
45 0.15
5 -0.24
6 0.12
9 0.57

>  <PUBCHEM_EFFECTIVE_ROTOR_COUNT>  (1) 
5.6

>  <PUBCHEM_PHARMACOPHORE_FEATURES>  (1) 
8
1 1 acceptor
1 15 hydrophobe
1 2 acceptor
1 3 acceptor
1 6 anion
6 13 16 18 20 22 24 rings
6 14 17 19 21 23 25 rings
6 4 5 6 9 10 12 rings

>  <PUBCHEM_HEAVY_ATOM_COUNT>  (1) 
25

>  <PUBCHEM_ATOM_DEF_STEREO_COUNT>  (1) 
0

>  <PUBCHEM_ATOM_UDEF_STEREO_COUNT>  (1) 
0

>  <PUBCHEM_BOND_DEF_STEREO_COUNT>  (1) 
0

>  <PUBCHEM_BOND_UDEF_STEREO_COUNT>  (1) 
0

>  <PUBCHEM_ISOTOPIC_ATOM_COUNT>  (1) 
0

>  <PUBCHEM_COMPONENT_COUNT>  (1) 
1

>  <PUBCHEM_CACTVS_TAUTO_COUNT>  (1) 
1

>  <PUBCHEM_CONFORMER_ID>  (1) 
0000328E00000001

>  <PUBCHEM_MMFF94_ENERGY>  (1) 
91.5494

>  <PUBCHEM_FEATURE_SELFOVERLAP>  (1) 
40.597

>  <PUBCHEM_SHAPE_FINGERPRINT>  (1) 
10190108 129 17401778913621359843
10554248 39 18339062866791047605
10759866 29 18268149928085927957
107951 10 17763476410118818708
11045515 52 18117560621823896836
11135609 187 18336833116849524460
12035759 4 18270133416591872508
12160290 23 17189782698742775224
12293681 160 17698740416465670840
12403259 226 17981599369678963578
12788726 201 17537719889288238954
13004483 165 17903913353621302867
13009979 54 18059304145082628529
13140716 1 17555426772328644073
133893 2 18267607795338031889
13540713 5 18201731647967736433
13690498 29 17404042326789217894
138480 1 18412541002900693544
14508225 48 18193553359619614180
14790565 3 17979070810245778280
14863182 85 18198612427346439928
15352361 1 18200306607314332931
15664445 248 18260541191667962304
167882 2 18262242234814292100
17492 54 18188788231439793596
17492 89 18270108128558053087
1813 80 18263072249954559536
18915476 22 18117576217082179401
19591789 44 17186442884950325595
20600515 1 17912371922269591653
20642791 178 18410576227256482424
21267235 1 18129665184115895399
21304303 282 16313536764416742980
21641784 216 18122642552447597038
221490 88 18410855507927339811
22182313 1 18124565649075110872
23114952 82 18334007333031541421
23366157 5 18334288790537972539
23419403 2 17984108531884643016
23559900 14 18341319046817350299
25147074 1 18059028219747184625
26353 1 18042407924218741044
335352 9 18129094516849340293
38695281 34 18119531191949007652
394222 165 17753315767153104848
4017518 198 18196381545078936980
4280585 95 18263916636446529962
4394409 98 14808286503585900254
4409770 3 17183058047020259220
46194498 28 18187071880634960221
5104073 3 17701811103407617507
9709674 26 18338227276187292715
9981440 41 17975978983368929665

>  <PUBCHEM_SHAPE_MULTIPOLES>  (1) 
486.92
8.83
5.3
1.28
9.78
2.52
-0.26
-3.25
2.56
-9.19
2.31
-0.42
1.05
-1.76

>  <PUBCHEM_SHAPE_SELFOVERLAP>  (1) 
1048.296

>  <PUBCHEM_SHAPE_VOLUME>  (1) 
264.5

>  <PUBCHEM_COORDINATE_TYPE>  (1) 
2
5
10

$$$$
