1294
     RDKit          3D

 16 16  0  0  1  0  0  0  0  0999 V2000
   -4.7850   -1.2235    1.0371 Cl  0  0  0  0  0  0  0  0  0  0  0  0
   -3.0995   -1.0662   -0.0334 P   0  0  0  0  0  0  0  0  0  0  0  0
   -2.5129    0.3436    0.4833 O   0  0  0  0  0  0  0  0  0  0  0  0
    0.8900    0.5071   -0.8291 O   0  0  0  0  0  0  0  0  0  0  0  0
   -2.2028   -2.2543    0.1542 O   0  0  0  0  0  0  0  0  0  0  0  0
   -1.4078    0.9210   -0.2118 C   0  0  0  0  0  0  0  0  0  0  0  0
   -1.0375    2.2437    0.4618 C   0  0  0  0  0  0  0  0  0  0  0  0
   -0.2403   -0.0616   -0.1762 C   0  0  0  0  0  0  0  0  0  0  0  0
   -2.2065    3.2195    0.5008 C   0  0  0  0  0  0  0  0  0  0  0  0
    2.1225    0.1016   -0.3909 C   0  0  0  0  0  0  0  0  0  0  0  0
   -3.6264   -0.7760   -1.7081 C   0  0  0  0  0  0  0  0  0  0  0  0
    2.2814   -1.1767    0.1331 C   0  0  0  0  0  0  0  0  0  0  0  0
    3.2037    0.9724   -0.4738 C   0  0  0  0  0  0  0  0  0  0  0  0
    3.5367   -1.5892    0.5801 C   0  0  0  0  0  0  0  0  0  0  0  0
    4.4589    0.5597   -0.0269 C   0  0  0  0  0  0  0  0  0  0  0  0
    4.6254   -0.7211    0.5000 C   0  0  0  0  0  0  0  0  0  0  0  0
  1  2  1  0
  2  3  1  0
  2  5  2  0
  2 11  1  0
  3  6  1  0
  4  8  1  0
  4 10  1  0
  6  7  1  0
  6  8  1  0
  7  9  1  0
 10 12  2  0
 10 13  1  0
 12 14  1  0
 13 15  2  0
 14 16  2  0
 15 16  1  0
M  END
>  <PUBCHEM_COMPOUND_CID>  (1) 
1294

>  <PUBCHEM_CONFORMER_RMSD>  (1) 
0.8

>  <PUBCHEM_CONFORMER_DIVERSEORDER>  (1) 
1
68
53
51
65
21
37
36
18
9
60
69
33
17
61
38
46
35
31
55
54
63
40
8
58
13
27
45
41
47
5
39
4
56
24
66
16
48
67
34
15
49
25
10
23
2
28
50
62
32
44
7
43
74
70
52
26
12
73
6
29
3
71
64
14
11
22
42
59
20
57
72
30
19

>  <PUBCHEM_MMFF94_PARTIAL_CHARGES>  (1) 
18
1 -0.32
10 0.08
12 -0.15
13 -0.15
14 -0.15
15 -0.15
16 -0.15
2 1.29
28 0.15
29 0.15
3 -0.55
30 0.15
31 0.15
32 0.15
4 -0.36
5 -0.7
6 0.28
8 0.28

>  <PUBCHEM_EFFECTIVE_ROTOR_COUNT>  (1) 
6

>  <PUBCHEM_PHARMACOPHORE_FEATURES>  (1) 
3
1 4 acceptor
1 9 hydrophobe
6 10 12 13 14 15 16 rings

>  <PUBCHEM_HEAVY_ATOM_COUNT>  (1) 
16

>  <PUBCHEM_ATOM_DEF_STEREO_COUNT>  (1) 
0

>  <PUBCHEM_ATOM_UDEF_STEREO_COUNT>  (1) 
2

>  <PUBCHEM_BOND_DEF_STEREO_COUNT>  (1) 
0

>  <PUBCHEM_BOND_UDEF_STEREO_COUNT>  (1) 
0

>  <PUBCHEM_ISOTOPIC_ATOM_COUNT>  (1) 
0

>  <PUBCHEM_COMPONENT_COUNT>  (1) 
1

>  <PUBCHEM_CACTVS_TAUTO_COUNT>  (1) 
1

>  <PUBCHEM_CONFORMER_ID>  (1) 
0000050E00000001

>  <PUBCHEM_MMFF94_ENERGY>  (1) 
39.8159

>  <PUBCHEM_FEATURE_SELFOVERLAP>  (1) 
15.223

>  <PUBCHEM_SHAPE_FINGERPRINT>  (1) 
10366900 7 18201712985812491738
10616163 171 18411983524968047214
11357001 24 18340208497028820841
12553582 1 18342460382467331103
13583140 156 17488160631427665954
14178342 30 18191861237258060266
14289901 80 18410575063747490000
14965852 173 18337671889306697960
15375462 189 18337959007664707323
15442244 35 18192429676258982298
17492 89 18337112250499463658
19050596 39 18411420592262716144
200 152 18336256907645628199
20279233 1 15430038755856458392
20510252 161 18271812276452690537
20645477 70 17967810535841129490
21267235 1 18335430066765611234
21339142 126 18273213084695153997
23402539 116 18343578547554733655
23557571 272 17988374680213896132
23558518 356 18190191095795530003
23559900 14 18336537317876955872
26918003 58 18186237350929669643
312423 11 18262813890702975404
5104073 3 18339636729850134192
5283173 99 18263063458521164429
5374978 207 18411980286593874048
58051976 100 18190462662219086437
58051976 378 18412543223995047134
7615 1 18041576766511171252
9709674 26 18341334388156032814

>  <PUBCHEM_SHAPE_MULTIPOLES>  (1) 
317.38
9.67
2.52
1.02
3.13
1.81
-0.24
-3.86
1.17
-2.15
0.62
-0.9
-0.18
-0.61

>  <PUBCHEM_SHAPE_SELFOVERLAP>  (1) 
610.613

>  <PUBCHEM_SHAPE_VOLUME>  (1) 
195.9

>  <PUBCHEM_COORDINATE_TYPE>  (1) 
2
5
10

$$$$
