12940
     RDKit          3D

 25 27  0  0  0  0  0  0  0  0999 V2000
   -0.0630    1.9857   -0.5949 O   0  0  0  0  0  0  0  0  0  0  0  0
   -2.1380   -1.7142    1.3169 O   0  0  0  0  0  0  0  0  0  0  0  0
    2.4180   -1.6532    0.9099 O   0  0  0  0  0  0  0  0  0  0  0  0
   -1.1609    0.1262    0.2633 N   0  0  0  0  0  0  0  0  0  0  0  0
    1.2185    0.1632    0.0636 N   0  0  0  0  0  0  0  0  0  0  0  0
   -2.4099    0.8484    0.2350 C   0  0  0  0  0  0  0  0  0  0  0  0
    2.4196    0.9270   -0.1737 C   0  0  0  0  0  0  0  0  0  0  0  0
   -2.3328    2.0986    1.1153 C   0  0  0  0  0  0  0  0  0  0  0  0
   -2.7920    1.2030   -1.2041 C   0  0  0  0  0  0  0  0  0  0  0  0
    3.2029    1.1232    1.1269 C   0  0  0  0  0  0  0  0  0  0  0  0
    3.2800    0.2543   -1.2461 C   0  0  0  0  0  0  0  0  0  0  0  0
    0.0913   -1.9543    0.5242 C   0  0  0  0  0  0  0  0  0  0  0  0
   -3.6262    2.9073    1.0573 C   0  0  0  0  0  0  0  0  0  0  0  0
   -4.0840    2.0142   -1.2595 C   0  0  0  0  0  0  0  0  0  0  0  0
    4.5056    1.8826    0.8895 C   0  0  0  0  0  0  0  0  0  0  0  0
    4.5834    1.0138   -1.4798 C   0  0  0  0  0  0  0  0  0  0  0  0
   -4.0064    3.2578   -0.3785 C   0  0  0  0  0  0  0  0  0  0  0  0
    5.3607    1.2115   -0.1815 C   0  0  0  0  0  0  0  0  0  0  0  0
   -0.0078    0.8377   -0.1402 C   0  0  0  0  0  0  0  0  0  0  0  0
   -1.1746   -1.1783    0.7671 C   0  0  0  0  0  0  0  0  0  0  0  0
    1.3579   -1.1422    0.5455 C   0  0  0  0  0  0  0  0  0  0  0  0
   -0.0158   -2.6774   -0.8164 C   0  0  0  0  0  0  0  0  0  0  0  0
   -1.1409   -3.7225   -0.8569 C   0  0  0  0  0  0  0  0  0  0  0  0
   -0.9899   -4.7871    0.2306 C   0  0  0  0  0  0  0  0  0  0  0  0
   -2.4958   -3.0253   -0.7135 C   0  0  0  0  0  0  0  0  0  0  0  0
  1 19  2  0
  2 20  2  0
  3 21  2  0
  4  6  1  0
  4 19  1  0
  4 20  1  0
  5  7  1  0
  5 19  1  0
  5 21  1  0
  6  8  1  0
  6  9  1  0
  7 10  1  0
  7 11  1  0
  8 13  1  0
  9 14  1  0
 10 15  1  0
 11 16  1  0
 12 20  1  0
 12 21  1  0
 12 22  1  0
 13 17  1  0
 14 17  1  0
 15 18  1  0
 16 18  1  0
 22 23  1  0
 23 24  1  0
 23 25  1  0
M  END
>  <PUBCHEM_COMPOUND_CID>  (1) 
12940

>  <PUBCHEM_CONFORMER_RMSD>  (1) 
0.8

>  <PUBCHEM_CONFORMER_DIVERSEORDER>  (1) 
5
1
4
8
6
7
2
3

>  <PUBCHEM_MMFF94_PARTIAL_CHARGES>  (1) 
11
1 -0.57
12 0.12
19 0.69
2 -0.57
20 0.57
21 0.57
3 -0.57
4 -0.42
5 -0.42
6 0.3
7 0.3

>  <PUBCHEM_EFFECTIVE_ROTOR_COUNT>  (1) 
7

>  <PUBCHEM_PHARMACOPHORE_FEATURES>  (1) 
8
1 1 acceptor
1 12 anion
1 2 acceptor
1 3 acceptor
3 23 24 25 hydrophobe
6 4 5 12 19 20 21 rings
6 6 8 9 13 14 17 rings
6 7 10 11 15 16 18 rings

>  <PUBCHEM_HEAVY_ATOM_COUNT>  (1) 
25

>  <PUBCHEM_ATOM_DEF_STEREO_COUNT>  (1) 
0

>  <PUBCHEM_ATOM_UDEF_STEREO_COUNT>  (1) 
0

>  <PUBCHEM_BOND_DEF_STEREO_COUNT>  (1) 
0

>  <PUBCHEM_BOND_UDEF_STEREO_COUNT>  (1) 
0

>  <PUBCHEM_ISOTOPIC_ATOM_COUNT>  (1) 
0

>  <PUBCHEM_COMPONENT_COUNT>  (1) 
1

>  <PUBCHEM_CACTVS_TAUTO_COUNT>  (1) 
1

>  <PUBCHEM_CONFORMER_ID>  (1) 
0000328C00000005

>  <PUBCHEM_MMFF94_ENERGY>  (1) 
64.4676

>  <PUBCHEM_FEATURE_SELFOVERLAP>  (1) 
40.597

>  <PUBCHEM_SHAPE_FINGERPRINT>  (1) 
10411042 1 17617940674384572186
105312 117 18409173194769644580
11045515 52 17617373321910084071
11833330 49 18050562151410341243
12160290 23 18262527016619953819
12173636 292 18413110545792425165
12553582 1 17903363941542130538
12788726 201 17975134554449486146
13134695 92 17256247043208753551
13140716 1 18263646164780438475
13583140 156 15574431020325073868
138480 1 17258497743135952555
14142880 1 18187356670893796101
14790565 3 18267870480059961368
15042514 8 18122072163067700915
15230672 131 18336841780373502502
16087824 20 18338517577786013603
16752209 62 18263073491295235242
16945 1 18118405283040721826
17138139 8 17769332237629359775
1741750 31 18410294696503297232
1813 80 17476649044990430574
19784866 34 18340768118171948465
20600515 1 17107310990381307072
20739085 24 17260184398268253475
21033648 29 18343580741803851456
21033650 10 18046089270270040252
21304303 282 18051938606771602911
21524375 3 18262514784468653315
21796203 349 17044893437823881635
22182313 1 18266480774439469559
2255824 54 17837489648837824143
22907989 373 18194689391159304997
23557571 272 18127689546730650216
23558518 356 18045786947074077612
23559900 14 17763735495673588313
23929065 36 17982425369003931448
25147074 1 18114727296871854906
2748010 2 18336563624213962347
283562 15 18047463710764326802
3091708 16 9124287906061936683
376196 1 18044086865694928393
394222 165 18042960974013822753
4409770 3 18265888232636210511
458136 41 18122918533591325681
469060 322 17896335768965177769
474 4 18123746461678641953
495365 180 18196080054235659064
59755656 520 18341339919989331900
633830 44 17987800679162104525
7399639 24 17340119358170846952
81228 2 18121222244657645338
84936 182 18056190268023633961
9862522 239 18334019397335979041
9981440 41 18338792321620050777

>  <PUBCHEM_SHAPE_MULTIPOLES>  (1) 
486.92
8.34
5.04
1.3
7.79
5.59
0.11
-9.13
1.3
-5.6
0.09
0.05
-0.27
-0.03

>  <PUBCHEM_SHAPE_SELFOVERLAP>  (1) 
1013.859

>  <PUBCHEM_SHAPE_VOLUME>  (1) 
270.6

>  <PUBCHEM_COORDINATE_TYPE>  (1) 
2
5
10

$$$$
