12949
     RDKit          3D

 27 30  0  0  0  0  0  0  0  0999 V2000
    0.0097   -2.8461    0.3571 O   0  0  0  0  0  0  0  0  0  0  0  0
   -2.3564    1.0353   -0.6045 O   0  0  0  0  0  0  0  0  0  0  0  0
    2.3516    1.0592   -0.5623 O   0  0  0  0  0  0  0  0  0  0  0  0
   -1.2033   -0.9318   -0.1321 N   0  0  0  0  0  0  0  0  0  0  0  0
    1.1990   -0.9179   -0.1361 N   0  0  0  0  0  0  0  0  0  0  0  0
   -2.4248   -1.6541    0.1294 C   0  0  0  0  0  0  0  0  0  0  0  0
    2.4382   -1.6254    0.0786 C   0  0  0  0  0  0  0  0  0  0  0  0
   -3.1901   -1.0209    1.2943 C   0  0  0  0  0  0  0  0  0  0  0  0
   -3.2882   -1.7227   -1.1326 C   0  0  0  0  0  0  0  0  0  0  0  0
    3.2701   -1.6635   -1.2061 C   0  0  0  0  0  0  0  0  0  0  0  0
    3.2229   -0.9952    1.2318 C   0  0  0  0  0  0  0  0  0  0  0  0
   -4.5131   -1.7372    1.5532 C   0  0  0  0  0  0  0  0  0  0  0  0
   -4.6118   -2.4366   -0.8708 C   0  0  0  0  0  0  0  0  0  0  0  0
    4.6103   -2.3607   -0.9873 C   0  0  0  0  0  0  0  0  0  0  0  0
    4.5640   -1.6920    1.4468 C   0  0  0  0  0  0  0  0  0  0  0  0
   -5.3712   -1.8061    0.2932 C   0  0  0  0  0  0  0  0  0  0  0  0
    5.3898   -1.7322    0.1642 C   0  0  0  0  0  0  0  0  0  0  0  0
    0.0066   -1.6496    0.0438 C   0  0  0  0  0  0  0  0  0  0  0  0
   -0.0002    1.0980   -0.8795 C   0  0  0  0  0  0  0  0  0  0  0  0
   -1.2931    0.4146   -0.5183 C   0  0  0  0  0  0  0  0  0  0  0  0
    1.2941    0.4258   -0.5022 C   0  0  0  0  0  0  0  0  0  0  0  0
   -0.0088    2.4963   -0.3419 C   0  0  0  0  0  0  0  0  0  0  0  0
   -0.5085    3.5338   -1.1235 C   0  0  0  0  0  0  0  0  0  0  0  0
    0.4822    2.7486    0.9355 C   0  0  0  0  0  0  0  0  0  0  0  0
   -0.5168    4.8357   -0.6231 C   0  0  0  0  0  0  0  0  0  0  0  0
    0.4737    4.0506    1.4359 C   0  0  0  0  0  0  0  0  0  0  0  0
   -0.0259    5.0941    0.6566 C   0  0  0  0  0  0  0  0  0  0  0  0
  1 18  2  0
  2 20  2  0
  3 21  2  0
  4  6  1  0
  4 18  1  0
  4 20  1  0
  5  7  1  0
  5 18  1  0
  5 21  1  0
  6  8  1  0
  6  9  1  0
  7 10  1  0
  7 11  1  0
  8 12  1  0
  9 13  1  0
 10 14  1  0
 11 15  1  0
 12 16  1  0
 13 16  1  0
 14 17  1  0
 15 17  1  0
 19 20  1  0
 19 21  1  0
 19 22  1  0
 22 23  2  0
 22 24  1  0
 23 25  1  0
 24 26  2  0
 25 27  2  0
 26 27  1  0
M  END
>  <PUBCHEM_COMPOUND_CID>  (1) 
12949

>  <PUBCHEM_CONFORMER_RMSD>  (1) 
0.8

>  <PUBCHEM_CONFORMER_DIVERSEORDER>  (1) 
1
2

>  <PUBCHEM_MMFF94_PARTIAL_CHARGES>  (1) 
22
1 -0.57
18 0.69
19 0.27
2 -0.57
20 0.57
21 0.57
22 -0.14
23 -0.15
24 -0.15
25 -0.15
26 -0.15
27 -0.15
3 -0.57
4 -0.42
5 -0.42
51 0.15
52 0.15
53 0.15
54 0.15
55 0.15
6 0.3
7 0.3

>  <PUBCHEM_EFFECTIVE_ROTOR_COUNT>  (1) 
6

>  <PUBCHEM_PHARMACOPHORE_FEATURES>  (1) 
8
1 1 acceptor
1 19 anion
1 2 acceptor
1 3 acceptor
6 22 23 24 25 26 27 rings
6 4 5 18 19 20 21 rings
6 6 8 9 12 13 16 rings
6 7 10 11 14 15 17 rings

>  <PUBCHEM_HEAVY_ATOM_COUNT>  (1) 
27

>  <PUBCHEM_ATOM_DEF_STEREO_COUNT>  (1) 
0

>  <PUBCHEM_ATOM_UDEF_STEREO_COUNT>  (1) 
0

>  <PUBCHEM_BOND_DEF_STEREO_COUNT>  (1) 
0

>  <PUBCHEM_BOND_UDEF_STEREO_COUNT>  (1) 
0

>  <PUBCHEM_ISOTOPIC_ATOM_COUNT>  (1) 
0

>  <PUBCHEM_COMPONENT_COUNT>  (1) 
1

>  <PUBCHEM_CACTVS_TAUTO_COUNT>  (1) 
1

>  <PUBCHEM_CONFORMER_ID>  (1) 
0000329500000001

>  <PUBCHEM_MMFF94_ENERGY>  (1) 
59.8437

>  <PUBCHEM_FEATURE_SELFOVERLAP>  (1) 
40.598

>  <PUBCHEM_SHAPE_FINGERPRINT>  (1) 
10411042 1 18410291419280051399
1100329 8 18338235942945934261
11115154 58 17912045458376100397
12160290 23 17975125444491496876
12293681 160 17619032094357344525
12342043 65 17460897313210785435
12516196 113 18409729586123667386
12549972 3 17677616539733716619
12553582 1 18408609162200108350
12788726 201 18046617919934140571
13134695 92 18336546135296842503
13140716 1 18336828602142102865
13590594 115 18410864256959889953
13692114 37 17547560484144756007
138480 1 14952090521127139613
13965767 371 17194079633577104307
14178342 30 18047467825622655354
14955137 171 18339095859955004403
15042514 8 18266182734079509053
15081414 286 18338518676041412428
15131766 46 15839261625101475274
15420108 30 17625808736964270634
16087824 20 18193838134039303525
17980427 23 17775009016042370339
17980427 26 17767117983787266877
1813 80 18342184374863110839
18222031 100 18411699902302291535
20642791 268 17987239013287347233
20739085 24 18341065097784918667
21041028 32 18410300198356104401
21049683 271 18189906498593847348
21120745 212 18266199269915199684
21796203 349 18048069459676729330
23366157 5 17975694205883978391
23419403 2 17756101856492181540
23558518 356 17828491271393674922
23559900 14 18051692445168882927
23845131 108 17330560843406980625
283562 15 18263083223823380178
3091708 16 9137211544075512229
314173 85 18411983546179308418
3380486 145 18126536094403083700
345986 75 18041826329886160634
4408954 87 17197438642138660545
4409770 3 18119809097744591805
469060 322 18264223425812595858
474 4 17692250055698845409
5171179 24 18266723840262065661
59755656 520 17474385777956359020
7399639 24 18059563664820018030
79837 15 17689997834498401960
9658208 31 17693383235453753740
9981440 41 17337551624588796930

>  <PUBCHEM_SHAPE_MULTIPOLES>  (1) 
528.08
8.78
6.12
1.35
0.21
11.44
0.26
-13.45
1.18
-0.48
0.39
-0.01
0.02
0.45

>  <PUBCHEM_SHAPE_SELFOVERLAP>  (1) 
1133.096

>  <PUBCHEM_SHAPE_VOLUME>  (1) 
285

>  <PUBCHEM_COORDINATE_TYPE>  (1) 
2
5
10

$$$$
