12961
     RDKit          3D

  5  4  0  0  0  0  0  0  0  0999 V2000
   -2.0958    0.0495    0.4040 S   0  0  0  0  0  0  0  0  0  0  0  0
    0.7614    1.2814   -0.0404 O   0  0  0  0  0  0  0  0  0  0  0  0
    1.4846   -0.8689    0.3291 N   0  0  0  0  0  0  0  0  0  0  0  0
   -0.7150   -0.5306   -0.6096 C   0  0  0  0  0  0  0  0  0  0  0  0
    0.5648    0.0687   -0.0830 C   0  0  0  0  0  0  0  0  0  0  0  0
  1  4  1  0
  2  5  2  0
  3  5  1  0
  4  5  1  0
M  END
>  <PUBCHEM_COMPOUND_CID>  (1) 
12961

>  <PUBCHEM_CONFORMER_RMSD>  (1) 
0.4

>  <PUBCHEM_CONFORMER_DIVERSEORDER>  (1) 
2
6
3
4
5
1

>  <PUBCHEM_MMFF94_PARTIAL_CHARGES>  (1) 
8
1 -0.41
10 0.18
2 -0.57
3 -0.8
4 0.29
5 0.57
8 0.37
9 0.37

>  <PUBCHEM_EFFECTIVE_ROTOR_COUNT>  (1) 
1

>  <PUBCHEM_PHARMACOPHORE_FEATURES>  (1) 
2
1 2 acceptor
1 3 donor

>  <PUBCHEM_HEAVY_ATOM_COUNT>  (1) 
5

>  <PUBCHEM_ATOM_DEF_STEREO_COUNT>  (1) 
0

>  <PUBCHEM_ATOM_UDEF_STEREO_COUNT>  (1) 
0

>  <PUBCHEM_BOND_DEF_STEREO_COUNT>  (1) 
0

>  <PUBCHEM_BOND_UDEF_STEREO_COUNT>  (1) 
0

>  <PUBCHEM_ISOTOPIC_ATOM_COUNT>  (1) 
0

>  <PUBCHEM_COMPONENT_COUNT>  (1) 
1

>  <PUBCHEM_CACTVS_TAUTO_COUNT>  (1) 
2

>  <PUBCHEM_CONFORMER_ID>  (1) 
000032A100000002

>  <PUBCHEM_MMFF94_ENERGY>  (1) 
6.2835

>  <PUBCHEM_FEATURE_SELFOVERLAP>  (1) 
10.148

>  <PUBCHEM_SHAPE_FINGERPRINT>  (1) 
139733 1 10447630418570617146
20096714 4 18200038489548217077
21015797 1 8644565532449438510
29004967 10 18186801344412346978
5943 1 11953782952877851094

>  <PUBCHEM_SHAPE_MULTIPOLES>  (1) 
95.9
2.3
1.04
0.74
1.01
0.2
0.02
-0.12
-0.45
-0.32
0.01
0.12
-0.07
-0.16

>  <PUBCHEM_SHAPE_SELFOVERLAP>  (1) 
161.067

>  <PUBCHEM_SHAPE_VOLUME>  (1) 
66.5

>  <PUBCHEM_COORDINATE_TYPE>  (1) 
2
5
10

$$$$
