12966
     RDKit          3D

 14 13  0  0  0  0  0  0  0  0999 V2000
   -2.2669   -0.2946   -0.5509 O   0  0  0  0  0  0  0  0  0  0  0  0
    2.3731   -0.1219   -0.5231 O   0  0  0  0  0  0  0  0  0  0  0  0
   -1.3263   -0.9506    1.4473 O   0  0  0  0  0  0  0  0  0  0  0  0
    1.3197   -1.5726    0.9227 O   0  0  0  0  0  0  0  0  0  0  0  0
    0.1969    1.6471    0.0747 C   0  0  0  0  0  0  0  0  0  0  0  0
    0.0381    0.1419   -0.2551 C   0  0  0  0  0  0  0  0  0  0  0  0
    0.3050    1.9275    1.5772 C   0  0  0  0  0  0  0  0  0  0  0  0
   -0.9265    2.4911   -0.5345 C   0  0  0  0  0  0  0  0  0  0  0  0
   -1.2394   -0.4419    0.3373 C   0  0  0  0  0  0  0  0  0  0  0  0
    1.2921   -0.6314    0.1408 C   0  0  0  0  0  0  0  0  0  0  0  0
   -3.5371   -0.7875   -0.1131 C   0  0  0  0  0  0  0  0  0  0  0  0
    3.6224   -0.7674   -0.2568 C   0  0  0  0  0  0  0  0  0  0  0  0
   -4.5605   -0.5504   -1.2031 C   0  0  0  0  0  0  0  0  0  0  0  0
    4.7094   -0.0893   -1.0633 C   0  0  0  0  0  0  0  0  0  0  0  0
  1  9  1  0
  1 11  1  0
  2 10  1  0
  2 12  1  0
  3  9  2  0
  4 10  2  0
  5  6  1  0
  5  7  1  0
  5  8  1  0
  6  9  1  0
  6 10  1  0
 11 13  1  0
 12 14  1  0
M  END
>  <PUBCHEM_COMPOUND_CID>  (1) 
12966

>  <PUBCHEM_CONFORMER_RMSD>  (1) 
0.8

>  <PUBCHEM_CONFORMER_DIVERSEORDER>  (1) 
1
67
57
10
71
12
55
56
9
68
19
17
25
74
29
66
60
58
34
14
48
54
36
47
5
43
65
52
39
49
37
33
46
2
31
51
35
41
26
63
64
13
53
70
50
44
22
27
40
32
73
6
61
30
3
24
28
8
69
42
45
11
21
18
20
59
7
23
16
4
15
38
62
72

>  <PUBCHEM_MMFF94_PARTIAL_CHARGES>  (1) 
9
1 -0.43
10 0.66
11 0.28
12 0.28
2 -0.43
3 -0.57
4 -0.57
6 0.12
9 0.66

>  <PUBCHEM_EFFECTIVE_ROTOR_COUNT>  (1) 
7

>  <PUBCHEM_PHARMACOPHORE_FEATURES>  (1) 
4
1 3 acceptor
1 4 acceptor
1 6 anion
3 5 7 8 hydrophobe

>  <PUBCHEM_HEAVY_ATOM_COUNT>  (1) 
14

>  <PUBCHEM_ATOM_DEF_STEREO_COUNT>  (1) 
0

>  <PUBCHEM_ATOM_UDEF_STEREO_COUNT>  (1) 
0

>  <PUBCHEM_BOND_DEF_STEREO_COUNT>  (1) 
0

>  <PUBCHEM_BOND_UDEF_STEREO_COUNT>  (1) 
0

>  <PUBCHEM_ISOTOPIC_ATOM_COUNT>  (1) 
0

>  <PUBCHEM_COMPONENT_COUNT>  (1) 
1

>  <PUBCHEM_CACTVS_TAUTO_COUNT>  (1) 
1

>  <PUBCHEM_CONFORMER_ID>  (1) 
000032A600000001

>  <PUBCHEM_MMFF94_ENERGY>  (1) 
14.0449

>  <PUBCHEM_FEATURE_SELFOVERLAP>  (1) 
20.302

>  <PUBCHEM_SHAPE_FINGERPRINT>  (1) 
10756046 5 17973724675642522438
10922049 32 10737281333670179368
12251169 10 11312052166887963559
13380536 53 11599731700540902763
14178000 29 17561081440323751660
14911166 2 18334011718013640095
14943859 89 13984663659040178495
14993402 34 18202001049026486951
15048467 5 17385722487231519343
161256 15 18341597252854749001
16945 1 18186805768202197144
18186145 218 18336813300049216543
18410436 195 18059851792125680649
187816 3 18187367631539682270
200 152 18412547587602562158
20671657 53 17988644124986840301
20711985 327 17704079520417510885
20871999 31 18260543386212063125
21256008 61 18130785698096176055
21339142 36 18130787807057311904
21501502 16 18118401731345172674
21524375 3 8070025558319332157
21637258 2 16702292443100218535
228727 97 18336552629445597346
23402539 116 18342177735080729726
23402655 69 17967803930270865559
23419403 2 16380226735460477538
23526113 38 17894345566866706219
23557571 272 17917158204286854284
23559900 14 18187087291299156766
23598291 2 17915731171348543479
2748010 2 17974292315330699467
276578 36 11386359322971821133
366044 4 11458425751725971292
68521 5 18411420566266429445
7364860 26 17773305958066326945
81228 2 18267038166805339352

>  <PUBCHEM_SHAPE_MULTIPOLES>  (1) 
264.64
7.04
1.93
1.22
1.04
1.62
0.26
-3.64
-3.74
-0.28
0.28
-0.13
0.11
0.02

>  <PUBCHEM_SHAPE_SELFOVERLAP>  (1) 
501.389

>  <PUBCHEM_SHAPE_VOLUME>  (1) 
163.9

>  <PUBCHEM_COORDINATE_TYPE>  (1) 
2
5
10

$$$$
