12965
     RDKit          3D

  7  6  0  0  0  0  0  0  0  0999 V2000
    0.5430   -1.5125   -0.0030 O   0  0  0  0  0  0  0  0  0  0  0  0
   -1.0985    0.1263    0.0002 N   0  0  0  0  0  0  0  0  0  0  0  0
    1.2992    0.7614   -0.0051 C   0  0  0  0  0  0  0  0  0  0  0  0
    0.2274   -0.3195   -0.0030 C   0  0  0  0  0  0  0  0  0  0  0  0
   -2.2314   -0.7910    0.0040 C   0  0  0  0  0  0  0  0  0  0  0  0
   -1.4478    1.5450    0.0002 C   0  0  0  0  0  0  0  0  0  0  0  0
    2.7082    0.1902    0.0068 C   0  0  0  0  0  0  0  0  0  0  0  0
  1  4  2  0
  2  4  1  0
  2  5  1  0
  2  6  1  0
  3  4  1  0
  3  7  1  0
M  END
>  <PUBCHEM_COMPOUND_CID>  (1) 
12965

>  <PUBCHEM_CONFORMER_RMSD>  (1) 
0.4

>  <PUBCHEM_CONFORMER_DIVERSEORDER>  (1) 
1
2
3

>  <PUBCHEM_MMFF94_PARTIAL_CHARGES>  (1) 
6
1 -0.57
2 -0.66
3 0.06
4 0.57
5 0.3
6 0.3

>  <PUBCHEM_EFFECTIVE_ROTOR_COUNT>  (1) 
2

>  <PUBCHEM_PHARMACOPHORE_FEATURES>  (1) 
2
1 1 acceptor
1 7 hydrophobe

>  <PUBCHEM_HEAVY_ATOM_COUNT>  (1) 
7

>  <PUBCHEM_ATOM_DEF_STEREO_COUNT>  (1) 
0

>  <PUBCHEM_ATOM_UDEF_STEREO_COUNT>  (1) 
0

>  <PUBCHEM_BOND_DEF_STEREO_COUNT>  (1) 
0

>  <PUBCHEM_BOND_UDEF_STEREO_COUNT>  (1) 
0

>  <PUBCHEM_ISOTOPIC_ATOM_COUNT>  (1) 
0

>  <PUBCHEM_COMPONENT_COUNT>  (1) 
1

>  <PUBCHEM_CACTVS_TAUTO_COUNT>  (1) 
1

>  <PUBCHEM_CONFORMER_ID>  (1) 
000032A500000001

>  <PUBCHEM_MMFF94_ENERGY>  (1) 
10.9703

>  <PUBCHEM_FEATURE_SELFOVERLAP>  (1) 
10.148

>  <PUBCHEM_SHAPE_FINGERPRINT>  (1) 
14390081 3 18343297033411919568
16714656 1 18339926038077006630
20096714 4 18339361846899259152
21040471 1 18194402190901536741
23552423 10 18261398789073159526
24536 1 18194666099625264233
29004967 10 18263371428939535971
5084963 1 18272937154157309968
5460574 1 9295299339065518624

>  <PUBCHEM_SHAPE_MULTIPOLES>  (1) 
133.21
3.26
1.42
0.59
0.98
0.12
0
0.08
0.01
-0.49
0
0.01
0.02
0

>  <PUBCHEM_SHAPE_SELFOVERLAP>  (1) 
237.889

>  <PUBCHEM_SHAPE_VOLUME>  (1) 
88.1

>  <PUBCHEM_COORDINATE_TYPE>  (1) 
2
5
10

$$$$
