12976
     RDKit          3D

  8  7  0  0  0  0  0  0  0  0999 V2000
    1.8404   -0.7736   -0.0001 O   0  0  0  0  0  0  0  0  0  0  0  0
    0.9033    1.3239    0.0001 O   0  0  0  0  0  0  0  0  0  0  0  0
   -1.9236    1.1708    0.0001 O   0  0  0  0  0  0  0  0  0  0  0  0
   -0.4040   -0.6024   -0.0005 N   0  0  0  0  0  0  0  0  0  0  0  0
   -2.6716   -1.0020    0.0005 N   0  0  0  0  0  0  0  0  0  0  0  0
    0.7917    0.1024   -0.0003 C   0  0  0  0  0  0  0  0  0  0  0  0
   -1.6816   -0.0348   -0.0003 C   0  0  0  0  0  0  0  0  0  0  0  0
    3.1455   -0.1844    0.0004 C   0  0  0  0  0  0  0  0  0  0  0  0
  1  6  1  0
  1  8  1  0
  2  6  2  0
  3  7  2  0
  4  6  1  0
  4  7  1  0
  5  7  1  0
M  END
>  <PUBCHEM_COMPOUND_CID>  (1) 
12976

>  <PUBCHEM_CONFORMER_RMSD>  (1) 
0.6

>  <PUBCHEM_CONFORMER_DIVERSEORDER>  (1) 
1
4
2
3

>  <PUBCHEM_MMFF94_PARTIAL_CHARGES>  (1) 
11
1 -0.43
13 0.37
14 0.37
2 -0.57
3 -0.57
4 -0.49
5 -0.8
6 0.78
7 0.69
8 0.28
9 0.37

>  <PUBCHEM_EFFECTIVE_ROTOR_COUNT>  (1) 
3

>  <PUBCHEM_PHARMACOPHORE_FEATURES>  (1) 
4
1 2 acceptor
1 3 acceptor
1 4 donor
1 5 donor

>  <PUBCHEM_HEAVY_ATOM_COUNT>  (1) 
8

>  <PUBCHEM_ATOM_DEF_STEREO_COUNT>  (1) 
0

>  <PUBCHEM_ATOM_UDEF_STEREO_COUNT>  (1) 
0

>  <PUBCHEM_BOND_DEF_STEREO_COUNT>  (1) 
0

>  <PUBCHEM_BOND_UDEF_STEREO_COUNT>  (1) 
0

>  <PUBCHEM_ISOTOPIC_ATOM_COUNT>  (1) 
0

>  <PUBCHEM_COMPONENT_COUNT>  (1) 
1

>  <PUBCHEM_CACTVS_TAUTO_COUNT>  (1) 
5

>  <PUBCHEM_CONFORMER_ID>  (1) 
000032B000000001

>  <PUBCHEM_MMFF94_ENERGY>  (1) 
12.3397

>  <PUBCHEM_FEATURE_SELFOVERLAP>  (1) 
20.351

>  <PUBCHEM_SHAPE_FINGERPRINT>  (1) 
10857977 72 18340756105195173442
12932764 1 16988554702249444406
14325111 11 18410575072136957606
14390081 3 18342453738253202896
21040471 1 18050567344099810949
23552423 10 18260268572386320950
29004967 10 18342740697918922786
5460574 1 9223230745468750018

>  <PUBCHEM_SHAPE_MULTIPOLES>  (1) 
137.07
4.23
1.11
0.55
1.08
0.24
0
-0.75
0
-0.31
0
0.03
0
0

>  <PUBCHEM_SHAPE_SELFOVERLAP>  (1) 
257.931

>  <PUBCHEM_SHAPE_VOLUME>  (1) 
85.1

>  <PUBCHEM_COORDINATE_TYPE>  (1) 
2
5
10

$$$$
