12973
     RDKit          3D

  8  7  0  0  0  0  0  0  0  0999 V2000
    0.2261   -1.6493   -0.0033 O   0  0  0  0  0  0  0  0  0  0  0  0
    1.5461    0.2577   -0.0030 N   0  0  0  0  0  0  0  0  0  0  0  0
   -0.9276    0.4521    0.0087 C   0  0  0  0  0  0  0  0  0  0  0  0
   -2.2166   -0.3695    0.0112 C   0  0  0  0  0  0  0  0  0  0  0  0
    0.3217   -0.4191   -0.0002 C   0  0  0  0  0  0  0  0  0  0  0  0
   -3.4468    0.5233   -0.0122 C   0  0  0  0  0  0  0  0  0  0  0  0
    1.7088    1.7098    0.0006 C   0  0  0  0  0  0  0  0  0  0  0  0
    2.7883   -0.5051   -0.0018 C   0  0  0  0  0  0  0  0  0  0  0  0
  1  5  2  0
  2  5  1  0
  2  7  1  0
  2  8  1  0
  3  4  1  0
  3  5  1  0
  4  6  1  0
M  END
>  <PUBCHEM_COMPOUND_CID>  (1) 
12973

>  <PUBCHEM_CONFORMER_RMSD>  (1) 
0.6

>  <PUBCHEM_CONFORMER_DIVERSEORDER>  (1) 
1
7
8
6
2
5
3
9
4

>  <PUBCHEM_MMFF94_PARTIAL_CHARGES>  (1) 
6
1 -0.57
2 -0.66
3 0.06
5 0.57
7 0.3
8 0.3

>  <PUBCHEM_EFFECTIVE_ROTOR_COUNT>  (1) 
3

>  <PUBCHEM_PHARMACOPHORE_FEATURES>  (1) 
2
1 1 acceptor
1 6 hydrophobe

>  <PUBCHEM_HEAVY_ATOM_COUNT>  (1) 
8

>  <PUBCHEM_ATOM_DEF_STEREO_COUNT>  (1) 
0

>  <PUBCHEM_ATOM_UDEF_STEREO_COUNT>  (1) 
0

>  <PUBCHEM_BOND_DEF_STEREO_COUNT>  (1) 
0

>  <PUBCHEM_BOND_UDEF_STEREO_COUNT>  (1) 
0

>  <PUBCHEM_ISOTOPIC_ATOM_COUNT>  (1) 
0

>  <PUBCHEM_COMPONENT_COUNT>  (1) 
1

>  <PUBCHEM_CACTVS_TAUTO_COUNT>  (1) 
1

>  <PUBCHEM_CONFORMER_ID>  (1) 
000032AD00000001

>  <PUBCHEM_MMFF94_ENERGY>  (1) 
10.1058

>  <PUBCHEM_FEATURE_SELFOVERLAP>  (1) 
10.148

>  <PUBCHEM_SHAPE_FINGERPRINT>  (1) 
11062470 55 13110959816555416315
12897270 3 18410572877450893445
12932764 1 17385713708244512635
14325111 11 18410575132129323713
14390081 3 18411698803217385969
20096714 4 18338516451464656912
21040471 1 18266460004146125696
29004967 10 18261398814832128075
3248919 1 17131843074792659007
5084963 1 18273495671514564776
5460574 1 9223229645830411267

>  <PUBCHEM_SHAPE_MULTIPOLES>  (1) 
153.79
4.65
1.39
0.59
2.44
0.16
0
0.63
0.01
-0.67
0
0.02
0.02
0

>  <PUBCHEM_SHAPE_SELFOVERLAP>  (1) 
275.744

>  <PUBCHEM_SHAPE_VOLUME>  (1) 
100.9

>  <PUBCHEM_COORDINATE_TYPE>  (1) 
2
5
10

$$$$
