12983
     RDKit          3D

  4  3  0  0  0  0  0  0  0  0999 V2000
   -1.6557   -0.5455   -0.1179 Cl  0  0  0  0  0  0  0  0  0  0  0  0
    1.3251   -0.6916    0.1701 F   0  0  0  0  0  0  0  0  0  0  0  0
   -0.5132    0.7595    0.2776 C   0  0  0  0  0  0  0  0  0  0  0  0
    0.8438    0.4776   -0.3298 C   0  0  0  0  0  0  0  0  0  0  0  0
  1  3  1  0
  2  4  1  0
  3  4  1  0
M  END
>  <PUBCHEM_COMPOUND_CID>  (1) 
12983

>  <PUBCHEM_CONFORMER_RMSD>  (1) 
0.4

>  <PUBCHEM_CONFORMER_DIVERSEORDER>  (1) 
1
3
2

>  <PUBCHEM_MMFF94_PARTIAL_CHARGES>  (1) 
4
1 -0.29
2 -0.34
3 0.29
4 0.34

>  <PUBCHEM_EFFECTIVE_ROTOR_COUNT>  (1) 
1

>  <PUBCHEM_PHARMACOPHORE_FEATURES>  (1) 
0

>  <PUBCHEM_HEAVY_ATOM_COUNT>  (1) 
4

>  <PUBCHEM_ATOM_DEF_STEREO_COUNT>  (1) 
0

>  <PUBCHEM_ATOM_UDEF_STEREO_COUNT>  (1) 
0

>  <PUBCHEM_BOND_DEF_STEREO_COUNT>  (1) 
0

>  <PUBCHEM_BOND_UDEF_STEREO_COUNT>  (1) 
0

>  <PUBCHEM_ISOTOPIC_ATOM_COUNT>  (1) 
0

>  <PUBCHEM_COMPONENT_COUNT>  (1) 
1

>  <PUBCHEM_CACTVS_TAUTO_COUNT>  (1) 
1

>  <PUBCHEM_CONFORMER_ID>  (1) 
000032B700000001

>  <PUBCHEM_MMFF94_ENERGY>  (1) 
-0.9887

>  <PUBCHEM_FEATURE_SELFOVERLAP>  (1) 
0

>  <PUBCHEM_SHAPE_FINGERPRINT>  (1) 
139733 1 8718831989560414231
21015797 1 9222958032098794112
5943 1 15406909540422844437

>  <PUBCHEM_SHAPE_MULTIPOLES>  (1) 
76.91
1.95
0.97
0.66
0.47
0.03
0.02
-0.48
0.08
-0.05
-0.06
0.02
0.03
-0.11

>  <PUBCHEM_SHAPE_SELFOVERLAP>  (1) 
119.211

>  <PUBCHEM_SHAPE_VOLUME>  (1) 
56.2

>  <PUBCHEM_COORDINATE_TYPE>  (1) 
2
5
10

$$$$
