12980
     RDKit          3D

 10  9  0  0  0  0  0  0  0  0999 V2000
   -2.5487    0.9431    0.0930 O   0  0  0  0  0  0  0  0  0  0  0  0
    2.5487    0.9430   -0.0934 O   0  0  0  0  0  0  0  0  0  0  0  0
   -2.6633   -1.3532   -0.1689 O   0  0  0  0  0  0  0  0  0  0  0  0
    2.6632   -1.3532    0.1694 O   0  0  0  0  0  0  0  0  0  0  0  0
   -3.9772    1.0300    0.0756 C   0  0  0  0  0  0  0  0  0  0  0  0
    3.9773    1.0301   -0.0748 C   0  0  0  0  0  0  0  0  0  0  0  0
   -2.0394   -0.3106   -0.0391 C   0  0  0  0  0  0  0  0  0  0  0  0
    2.0394   -0.3107    0.0387 C   0  0  0  0  0  0  0  0  0  0  0  0
   -0.6003   -0.3093   -0.0116 C   0  0  0  0  0  0  0  0  0  0  0  0
    0.6003   -0.3092    0.0111 C   0  0  0  0  0  0  0  0  0  0  0  0
  1  5  1  0
  1  7  1  0
  2  6  1  0
  2  8  1  0
  3  7  2  0
  4  8  2  0
  7  9  1  0
  8 10  1  0
  9 10  3  0
M  END
>  <PUBCHEM_COMPOUND_CID>  (1) 
12980

>  <PUBCHEM_CONFORMER_RMSD>  (1) 
0.4

>  <PUBCHEM_CONFORMER_DIVERSEORDER>  (1) 
1

>  <PUBCHEM_MMFF94_PARTIAL_CHARGES>  (1) 
10
1 -0.43
10 -0.1
2 -0.43
3 -0.57
4 -0.57
5 0.28
6 0.28
7 0.83
8 0.83
9 -0.1

>  <PUBCHEM_EFFECTIVE_ROTOR_COUNT>  (1) 
2

>  <PUBCHEM_PHARMACOPHORE_FEATURES>  (1) 
2
1 3 acceptor
1 4 acceptor

>  <PUBCHEM_HEAVY_ATOM_COUNT>  (1) 
10

>  <PUBCHEM_ATOM_DEF_STEREO_COUNT>  (1) 
0

>  <PUBCHEM_ATOM_UDEF_STEREO_COUNT>  (1) 
0

>  <PUBCHEM_BOND_DEF_STEREO_COUNT>  (1) 
0

>  <PUBCHEM_BOND_UDEF_STEREO_COUNT>  (1) 
0

>  <PUBCHEM_ISOTOPIC_ATOM_COUNT>  (1) 
0

>  <PUBCHEM_COMPONENT_COUNT>  (1) 
1

>  <PUBCHEM_CACTVS_TAUTO_COUNT>  (1) 
1

>  <PUBCHEM_CONFORMER_ID>  (1) 
000032B400000001

>  <PUBCHEM_MMFF94_ENERGY>  (1) 
9.378

>  <PUBCHEM_FEATURE_SELFOVERLAP>  (1) 
10.149

>  <PUBCHEM_SHAPE_FINGERPRINT>  (1) 
11062470 55 18412826880255747345
12932764 1 17489299836552626995
14325111 11 18410573993752130114
14390081 3 18411699906575445232
15775835 57 18410858758663181540
20645477 70 18342456989253776606
20711983 171 18273494572113635493
3248919 1 18338784671950999367
449060 50 18334018302150967021

>  <PUBCHEM_SHAPE_MULTIPOLES>  (1) 
182.32
7.36
1.3
0.58
0
0.06
0
-2.63
0
0
0
0
0
-0.2

>  <PUBCHEM_SHAPE_SELFOVERLAP>  (1) 
349.773

>  <PUBCHEM_SHAPE_VOLUME>  (1) 
111

>  <PUBCHEM_COORDINATE_TYPE>  (1) 
2
5
10

$$$$
