12991
     RDKit          3D

  5  4  0  0  0  0  0  0  0  0999 V2000
   -2.2056    0.6469    0.0000 O   0  0  0  0  0  0  0  0  0  0  0  0
   -1.4709   -0.5689   -0.0001 C   0  0  0  0  0  0  0  0  0  0  0  0
    2.5737    0.2443   -0.0001 C   0  0  0  0  0  0  0  0  0  0  0  0
   -0.0374   -0.2790    0.0001 C   0  0  0  0  0  0  0  0  0  0  0  0
    1.1401   -0.0432    0.0002 C   0  0  0  0  0  0  0  0  0  0  0  0
  1  2  1  0
  2  4  1  0
  3  5  1  0
  4  5  3  0
M  END
>  <PUBCHEM_COMPOUND_CID>  (1) 
12991

>  <PUBCHEM_CONFORMER_RMSD>  (1) 
0.4

>  <PUBCHEM_CONFORMER_DIVERSEORDER>  (1) 
1

>  <PUBCHEM_MMFF94_PARTIAL_CHARGES>  (1) 
6
1 -0.68
11 0.4
2 0.48
3 0.2
4 -0.2
5 -0.2

>  <PUBCHEM_EFFECTIVE_ROTOR_COUNT>  (1) 
0

>  <PUBCHEM_PHARMACOPHORE_FEATURES>  (1) 
3
1 1 acceptor
1 1 donor
1 3 hydrophobe

>  <PUBCHEM_HEAVY_ATOM_COUNT>  (1) 
5

>  <PUBCHEM_ATOM_DEF_STEREO_COUNT>  (1) 
0

>  <PUBCHEM_ATOM_UDEF_STEREO_COUNT>  (1) 
0

>  <PUBCHEM_BOND_DEF_STEREO_COUNT>  (1) 
0

>  <PUBCHEM_BOND_UDEF_STEREO_COUNT>  (1) 
0

>  <PUBCHEM_ISOTOPIC_ATOM_COUNT>  (1) 
0

>  <PUBCHEM_COMPONENT_COUNT>  (1) 
1

>  <PUBCHEM_CACTVS_TAUTO_COUNT>  (1) 
1

>  <PUBCHEM_CONFORMER_ID>  (1) 
000032BF00000001

>  <PUBCHEM_MMFF94_ENERGY>  (1) 
0.7388

>  <PUBCHEM_FEATURE_SELFOVERLAP>  (1) 
15.223

>  <PUBCHEM_SHAPE_FINGERPRINT>  (1) 
14390081 3 18272085028335147960
16714656 1 18412265042646075805
20096714 4 18408323306361224876
29004967 10 14764353764213696862
5460574 1 9295294936523632130

>  <PUBCHEM_SHAPE_MULTIPOLES>  (1) 
97.03
3.46
0.75
0.6
0.67
0
0
0.59
0
-0.22
0
0.04
-0.01
0

>  <PUBCHEM_SHAPE_SELFOVERLAP>  (1) 
168.087

>  <PUBCHEM_SHAPE_VOLUME>  (1) 
64

>  <PUBCHEM_COORDINATE_TYPE>  (1) 
2
5
10

$$$$
