13000
     RDKit          3D

 14 13  0  0  0  0  0  0  0  0999 V2000
   -8.5118   -0.5509    0.1088 Br  0  0  0  0  0  0  0  0  0  0  0  0
    0.6488    0.4611   -0.1171 C   0  0  0  0  0  0  0  0  0  0  0  0
   -0.6261   -0.3855   -0.0918 C   0  0  0  0  0  0  0  0  0  0  0  0
    1.8991   -0.4212   -0.1174 C   0  0  0  0  0  0  0  0  0  0  0  0
   -1.8773    0.4938   -0.0572 C   0  0  0  0  0  0  0  0  0  0  0  0
    3.2067    0.3758   -0.1190 C   0  0  0  0  0  0  0  0  0  0  0  0
   -3.1519   -0.3517   -0.0659 C   0  0  0  0  0  0  0  0  0  0  0  0
    4.4562   -0.5047   -0.0443 C   0  0  0  0  0  0  0  0  0  0  0  0
   -4.4025    0.5263    0.0025 C   0  0  0  0  0  0  0  0  0  0  0  0
    5.7279    0.3442    0.0247 C   0  0  0  0  0  0  0  0  0  0  0  0
   -5.6761   -0.3198    0.0277 C   0  0  0  0  0  0  0  0  0  0  0  0
    6.9755   -0.5318    0.1387 C   0  0  0  0  0  0  0  0  0  0  0  0
   -6.9116    0.5577    0.1364 C   0  0  0  0  0  0  0  0  0  0  0  0
    8.2431    0.3066    0.1739 C   0  0  0  0  0  0  0  0  0  0  0  0
  1 13  1  0
  2  3  1  0
  2  4  1  0
  3  5  1  0
  4  6  1  0
  5  7  1  0
  6  8  1  0
  7  9  1  0
  8 10  1  0
  9 11  1  0
 10 12  1  0
 11 13  1  0
 12 14  1  0
M  END
>  <PUBCHEM_COMPOUND_CID>  (1) 
13000

>  <PUBCHEM_CONFORMER_RMSD>  (1) 
1.2

>  <PUBCHEM_CONFORMER_DIVERSEORDER>  (1) 
1
45
23
4
11
47
32
3
27
12
43
61
7
6
34
29
50
16
26
58
25
37
31
13
49
17
44
39
54
21
19
56
5
48
28
22
8
15
20
40
41
51
2
10
24
42
53
33
14
60
62
36
18
38
30
35
46
52
57
59
9
55

>  <PUBCHEM_MMFF94_PARTIAL_CHARGES>  (1) 
2
1 -0.23
13 0.23

>  <PUBCHEM_EFFECTIVE_ROTOR_COUNT>  (1) 
11

>  <PUBCHEM_PHARMACOPHORE_FEATURES>  (1) 
2
1 1 hydrophobe
1 14 hydrophobe

>  <PUBCHEM_HEAVY_ATOM_COUNT>  (1) 
14

>  <PUBCHEM_ATOM_DEF_STEREO_COUNT>  (1) 
0

>  <PUBCHEM_ATOM_UDEF_STEREO_COUNT>  (1) 
0

>  <PUBCHEM_BOND_DEF_STEREO_COUNT>  (1) 
0

>  <PUBCHEM_BOND_UDEF_STEREO_COUNT>  (1) 
0

>  <PUBCHEM_ISOTOPIC_ATOM_COUNT>  (1) 
0

>  <PUBCHEM_COMPONENT_COUNT>  (1) 
1

>  <PUBCHEM_CACTVS_TAUTO_COUNT>  (1) 
1

>  <PUBCHEM_CONFORMER_ID>  (1) 
000032C800000001

>  <PUBCHEM_MMFF94_ENERGY>  (1) 
-3.8732

>  <PUBCHEM_FEATURE_SELFOVERLAP>  (1) 
10.149

>  <PUBCHEM_SHAPE_FINGERPRINT>  (1) 
11315181 36 17989209261389735035
12091667 2 18411418411036352245
13533116 47 18339918213375159194
14123256 10 18411138030332095451
14251764 18 18410575076078419091
14251764 46 18410575088958065698
17834076 25 18410575084663078916
18006028 8 18259703397972539733
21315763 28 18334858320560853757
22224240 67 18409446998734349482
232437 2 18411138030828324894
23521765 1 18341894090839332333
246663 6 17313107453836132651
28498 318 11097848588735388408
33684 2 18410573980856490347
42788 4 18410011031351533436
59567204 34 17346042157069999017
59682541 35 18341612645948550667
67123 10 18410575106137915397
8209 1 18410573985156732397

>  <PUBCHEM_SHAPE_MULTIPOLES>  (1) 
294.06
27.9
0.83
0.64
1.26
0.01
0
1.64
2.27
0.23
0
0.07
0
0

>  <PUBCHEM_SHAPE_SELFOVERLAP>  (1) 
509.726

>  <PUBCHEM_SHAPE_VOLUME>  (1) 
195.4

>  <PUBCHEM_COORDINATE_TYPE>  (1) 
2
5
10

$$$$
