13003
     RDKit          3D

  6  6  0  0  1  0  0  0  0  0999 V2000
    0.0063    1.1217    0.1827 N   0  0  0  0  0  0  0  0  0  0  0  0
   -0.7583    0.0058   -0.3769 C   0  0  0  0  0  0  0  0  0  0  0  0
    0.0455   -1.2020    0.0810 C   0  0  0  0  0  0  0  0  0  0  0  0
    1.4907   -0.7188    0.0624 C   0  0  0  0  0  0  0  0  0  0  0  0
    1.4070    0.7954   -0.0757 C   0  0  0  0  0  0  0  0  0  0  0  0
   -2.1912   -0.0021    0.1265 C   0  0  0  0  0  0  0  0  0  0  0  0
  1  2  1  0
  1  5  1  0
  2  3  1  0
  2  6  1  0
  3  4  1  0
  4  5  1  0
M  END
>  <PUBCHEM_COMPOUND_CID>  (1) 
13003

>  <PUBCHEM_CONFORMER_RMSD>  (1) 
0.4

>  <PUBCHEM_CONFORMER_DIVERSEORDER>  (1) 
1

>  <PUBCHEM_MMFF94_PARTIAL_CHARGES>  (1) 
4
1 -0.9
14 0.36
2 0.27
5 0.27

>  <PUBCHEM_EFFECTIVE_ROTOR_COUNT>  (1) 
1

>  <PUBCHEM_PHARMACOPHORE_FEATURES>  (1) 
3
1 1 cation
1 1 donor
5 1 2 3 4 5 rings

>  <PUBCHEM_HEAVY_ATOM_COUNT>  (1) 
6

>  <PUBCHEM_ATOM_DEF_STEREO_COUNT>  (1) 
0

>  <PUBCHEM_ATOM_UDEF_STEREO_COUNT>  (1) 
1

>  <PUBCHEM_BOND_DEF_STEREO_COUNT>  (1) 
0

>  <PUBCHEM_BOND_UDEF_STEREO_COUNT>  (1) 
0

>  <PUBCHEM_ISOTOPIC_ATOM_COUNT>  (1) 
0

>  <PUBCHEM_COMPONENT_COUNT>  (1) 
1

>  <PUBCHEM_CACTVS_TAUTO_COUNT>  (1) 
1

>  <PUBCHEM_CONFORMER_ID>  (1) 
000032CB00000001

>  <PUBCHEM_MMFF94_ENERGY>  (1) 
0.1187

>  <PUBCHEM_FEATURE_SELFOVERLAP>  (1) 
15.223

>  <PUBCHEM_SHAPE_FINGERPRINT>  (1) 
139733 1 9294989285086322039
16714656 1 18411987944536451942
20096714 4 18340486780385582741
21015797 1 9149729505558899686
21040471 1 18266458883038290196
29004967 10 18261115149190000931
5943 1 17270073539002649050

>  <PUBCHEM_SHAPE_MULTIPOLES>  (1) 
118.5
2.27
1.22
0.64
0.84
0.06
-0.02
-0.06
0.08
-0.3
0.05
0.02
0.01
-0.02

>  <PUBCHEM_SHAPE_SELFOVERLAP>  (1) 
224.098

>  <PUBCHEM_SHAPE_VOLUME>  (1) 
75.8

>  <PUBCHEM_COORDINATE_TYPE>  (1) 
2
5
10

$$$$
