13017
     RDKit          3D

  9  9  0  0  0  0  0  0  0  0999 V2000
    3.1410   -0.2894   -0.2746 O   0  0  0  0  0  0  0  0  0  0  0  0
    1.0894    0.4305    0.5858 N   0  0  0  0  0  0  0  0  0  0  0  0
    0.2780    0.2652   -0.5996 C   0  0  0  0  0  0  0  0  0  0  0  0
   -0.2915   -1.1549   -0.6835 C   0  0  0  0  0  0  0  0  0  0  0  0
   -0.8369    1.3150   -0.6551 C   0  0  0  0  0  0  0  0  0  0  0  0
   -1.3889   -1.4070    0.3505 C   0  0  0  0  0  0  0  0  0  0  0  0
   -1.9334    1.0590    0.3790 C   0  0  0  0  0  0  0  0  0  0  0  0
   -2.4920   -0.3563    0.2683 C   0  0  0  0  0  0  0  0  0  0  0  0
    2.4343    0.1378    0.6293 C   0  0  0  0  0  0  0  0  0  0  0  0
  1  9  2  0
  2  3  1  0
  2  9  1  0
  3  4  1  0
  3  5  1  0
  4  6  1  0
  5  7  1  0
  6  8  1  0
  7  8  1  0
M  END
>  <PUBCHEM_COMPOUND_CID>  (1) 
13017

>  <PUBCHEM_CONFORMER_RMSD>  (1) 
0.6

>  <PUBCHEM_CONFORMER_DIVERSEORDER>  (1) 
1
8
2
5
3
4
6
7

>  <PUBCHEM_MMFF94_PARTIAL_CHARGES>  (1) 
6
1 -0.57
2 -0.73
21 0.37
22 0.06
3 0.3
9 0.57

>  <PUBCHEM_EFFECTIVE_ROTOR_COUNT>  (1) 
3.2

>  <PUBCHEM_PHARMACOPHORE_FEATURES>  (1) 
3
1 1 acceptor
1 2 donor
6 3 4 5 6 7 8 rings

>  <PUBCHEM_HEAVY_ATOM_COUNT>  (1) 
9

>  <PUBCHEM_ATOM_DEF_STEREO_COUNT>  (1) 
0

>  <PUBCHEM_ATOM_UDEF_STEREO_COUNT>  (1) 
0

>  <PUBCHEM_BOND_DEF_STEREO_COUNT>  (1) 
0

>  <PUBCHEM_BOND_UDEF_STEREO_COUNT>  (1) 
0

>  <PUBCHEM_ISOTOPIC_ATOM_COUNT>  (1) 
0

>  <PUBCHEM_COMPONENT_COUNT>  (1) 
1

>  <PUBCHEM_CACTVS_TAUTO_COUNT>  (1) 
2

>  <PUBCHEM_CONFORMER_ID>  (1) 
000032D900000001

>  <PUBCHEM_MMFF94_ENERGY>  (1) 
2.0805

>  <PUBCHEM_FEATURE_SELFOVERLAP>  (1) 
15.223

>  <PUBCHEM_SHAPE_FINGERPRINT>  (1) 
10857977 72 18337103557352995113
12423570 1 11408480290184648285
12897270 3 11241963776658198514
13024252 1 15068616067828100877
16714656 1 18407759235384364100
18185500 45 17474388457667726767
20645464 45 17917134075007526482
20653085 51 14692575433049085184
20871998 184 18270967963170914431
21040471 1 18266191543157724885
23235685 24 18341609261773037249
23552423 10 17897164834654220436
29004967 10 13984663650429170772
369184 2 16415191304002434426
5084963 1 18343299275347697457

>  <PUBCHEM_SHAPE_MULTIPOLES>  (1) 
174.37
3.72
1.37
0.87
2.52
0.08
0.04
0.14
-0.67
-0.73
0.1
0.04
-0.02
0.12

>  <PUBCHEM_SHAPE_SELFOVERLAP>  (1) 
335.88

>  <PUBCHEM_SHAPE_VOLUME>  (1) 
104.6

>  <PUBCHEM_COORDINATE_TYPE>  (1) 
2
5
10

$$$$
