13013
     RDKit          3D

  9  9  0  0  0  0  0  0  0  0999 V2000
   -0.4579   -0.4377   -0.0508 O   0  0  0  0  0  0  0  0  0  0  0  0
    0.7342    1.5213    0.0726 O   0  0  0  0  0  0  0  0  0  0  0  0
    1.7865   -0.5476   -0.0922 N   0  0  0  0  0  0  0  0  0  0  0  0
    3.0257   -0.1457   -0.6893 C   0  0  0  0  0  0  0  0  0  0  0  0
    2.9289   -0.4049    0.7613 C   0  0  0  0  0  0  0  0  0  0  0  0
    0.6939    0.2977   -0.0147 C   0  0  0  0  0  0  0  0  0  0  0  0
   -1.6777    0.3091    0.0206 C   0  0  0  0  0  0  0  0  0  0  0  0
   -2.8503   -0.6583   -0.0319 C   0  0  0  0  0  0  0  0  0  0  0  0
   -4.1832    0.0662    0.0244 C   0  0  0  0  0  0  0  0  0  0  0  0
  1  6  1  0
  1  7  1  0
  2  6  2  0
  3  4  1  0
  3  5  1  0
  3  6  1  0
  4  5  1  0
  7  8  1  0
  8  9  1  0
M  END
>  <PUBCHEM_COMPOUND_CID>  (1) 
13013

>  <PUBCHEM_CONFORMER_RMSD>  (1) 
0.6

>  <PUBCHEM_CONFORMER_DIVERSEORDER>  (1) 
1
27
22
31
16
20
24
33
7
14
26
23
2
15
12
18
25
13
32
8
10
11
3
4
28
9
29
6
21
17
5
30
19

>  <PUBCHEM_MMFF94_PARTIAL_CHARGES>  (1) 
11
1 -0.43
10 0.1
11 0.1
12 0.1
13 0.1
2 -0.57
3 -0.36
4 -0.05
5 -0.05
6 0.78
7 0.28

>  <PUBCHEM_EFFECTIVE_ROTOR_COUNT>  (1) 
4.6

>  <PUBCHEM_PHARMACOPHORE_FEATURES>  (1) 
2
1 2 acceptor
1 9 hydrophobe

>  <PUBCHEM_HEAVY_ATOM_COUNT>  (1) 
9

>  <PUBCHEM_ATOM_DEF_STEREO_COUNT>  (1) 
0

>  <PUBCHEM_ATOM_UDEF_STEREO_COUNT>  (1) 
0

>  <PUBCHEM_BOND_DEF_STEREO_COUNT>  (1) 
0

>  <PUBCHEM_BOND_UDEF_STEREO_COUNT>  (1) 
0

>  <PUBCHEM_ISOTOPIC_ATOM_COUNT>  (1) 
0

>  <PUBCHEM_COMPONENT_COUNT>  (1) 
1

>  <PUBCHEM_CACTVS_TAUTO_COUNT>  (1) 
1

>  <PUBCHEM_CONFORMER_ID>  (1) 
000032D500000001

>  <PUBCHEM_MMFF94_ENERGY>  (1) 
18.9488

>  <PUBCHEM_FEATURE_SELFOVERLAP>  (1) 
10.148

>  <PUBCHEM_SHAPE_FINGERPRINT>  (1) 
10219947 1 17418377995102619780
11062470 55 16128655254100270147
12932764 1 17531232994349616195
14325111 11 18410293653047536847
14390081 3 11025793206468584727
21293036 1 18334583455496230478
29004967 10 18341894082608132938

>  <PUBCHEM_SHAPE_MULTIPOLES>  (1) 
168.5
6.64
0.93
0.72
4.22
0.25
-0.01
-0.97
0.01
-0.09
-0.03
-0.37
-0.04
-0.08

>  <PUBCHEM_SHAPE_SELFOVERLAP>  (1) 
319.146

>  <PUBCHEM_SHAPE_VOLUME>  (1) 
105.8

>  <PUBCHEM_COORDINATE_TYPE>  (1) 
2
5
10

$$$$
