13038
     RDKit          3D

 11 11  0  0  0  0  0  0  0  0999 V2000
    3.6376   -1.1804   -0.0253 Cl  0  0  0  0  0  0  0  0  0  0  0  0
    2.1571    1.1494   -1.5604 Cl  0  0  0  0  0  0  0  0  0  0  0  0
    2.1031    0.0958    0.1412 P   0  0  0  0  0  0  0  0  0  0  0  0
    0.8067   -0.8613    0.0209 O   0  0  0  0  0  0  0  0  0  0  0  0
    2.2077    0.9368    1.3792 O   0  0  0  0  0  0  0  0  0  0  0  0
   -0.4899   -0.4474    0.0138 C   0  0  0  0  0  0  0  0  0  0  0  0
   -0.7890    0.9111    0.1163 C   0  0  0  0  0  0  0  0  0  0  0  0
   -1.5196   -1.3819   -0.0952 C   0  0  0  0  0  0  0  0  0  0  0  0
   -2.1178    1.3352    0.1101 C   0  0  0  0  0  0  0  0  0  0  0  0
   -2.8485   -0.9579   -0.1016 C   0  0  0  0  0  0  0  0  0  0  0  0
   -3.1475    0.4007    0.0010 C   0  0  0  0  0  0  0  0  0  0  0  0
  1  3  1  0
  2  3  1  0
  3  4  1  0
  3  5  2  0
  4  6  1  0
  6  7  2  0
  6  8  1  0
  7  9  1  0
  8 10  2  0
  9 11  2  0
 10 11  1  0
M  END
>  <PUBCHEM_COMPOUND_CID>  (1) 
13038

>  <PUBCHEM_CONFORMER_RMSD>  (1) 
0.4

>  <PUBCHEM_CONFORMER_DIVERSEORDER>  (1) 
1
5
2
8
4
6
7
3

>  <PUBCHEM_MMFF94_PARTIAL_CHARGES>  (1) 
16
1 -0.32
10 -0.15
11 -0.15
12 0.15
13 0.15
14 0.15
15 0.15
16 0.15
2 -0.32
3 1.6
4 -0.35
5 -0.7
6 0.08
7 -0.15
8 -0.15
9 -0.15

>  <PUBCHEM_EFFECTIVE_ROTOR_COUNT>  (1) 
2

>  <PUBCHEM_PHARMACOPHORE_FEATURES>  (1) 
1
6 6 7 8 9 10 11 rings

>  <PUBCHEM_HEAVY_ATOM_COUNT>  (1) 
11

>  <PUBCHEM_ATOM_DEF_STEREO_COUNT>  (1) 
0

>  <PUBCHEM_ATOM_UDEF_STEREO_COUNT>  (1) 
0

>  <PUBCHEM_BOND_DEF_STEREO_COUNT>  (1) 
0

>  <PUBCHEM_BOND_UDEF_STEREO_COUNT>  (1) 
0

>  <PUBCHEM_ISOTOPIC_ATOM_COUNT>  (1) 
0

>  <PUBCHEM_COMPONENT_COUNT>  (1) 
1

>  <PUBCHEM_CACTVS_TAUTO_COUNT>  (1) 
1

>  <PUBCHEM_CONFORMER_ID>  (1) 
000032EE00000001

>  <PUBCHEM_MMFF94_ENERGY>  (1) 
25.8003

>  <PUBCHEM_FEATURE_SELFOVERLAP>  (1) 
5.074

>  <PUBCHEM_SHAPE_FINGERPRINT>  (1) 
10857977 72 18339916134225248683
12716758 59 18412541011722782339
12932764 1 17988649652277525326
14325111 11 18412543206250422016
15775835 57 18413394232645644656
16945 1 18339643468284484109
18186145 218 16950558913256492103
19786989 88 16343418530931899720
20201158 50 17775003453495317070
20645464 45 17561082505723612403
20653085 51 17385438813284326381
207724 885 17895761694866909726
21028194 46 18342175535851518187
23552423 10 18260267451415979755
3248919 1 18041274473516441163
369184 2 18131626807453869827
5084963 1 18334858290263649208
57812782 119 18131062710659842846
6333449 129 18272365365414329495
7364860 26 18337956804752887332

>  <PUBCHEM_SHAPE_MULTIPOLES>  (1) 
222.23
5.66
1.54
0.98
1.35
0
-0.05
-0.74
-0.14
0.05
-0.18
0.74
0.38
-0.37

>  <PUBCHEM_SHAPE_SELFOVERLAP>  (1) 
422.252

>  <PUBCHEM_SHAPE_VOLUME>  (1) 
138.9

>  <PUBCHEM_COORDINATE_TYPE>  (1) 
2
5
10

$$$$
