13039
     RDKit          3D

 11 11  0  0  0  0  0  0  0  0999 V2000
   -2.3618    2.0717    0.0000 F   0  0  0  0  0  0  0  0  0  0  0  0
    2.3135    1.4404    0.0001 O   0  0  0  0  0  0  0  0  0  0  0  0
    1.4898   -0.7666   -0.0002 N   0  0  0  0  0  0  0  0  0  0  0  0
    3.7591   -0.3292    0.0001 N   0  0  0  0  0  0  0  0  0  0  0  0
    0.1042   -0.6033   -0.0001 C   0  0  0  0  0  0  0  0  0  0  0  0
   -0.4471    0.6780   -0.0001 C   0  0  0  0  0  0  0  0  0  0  0  0
   -0.7298   -1.7214    0.0000 C   0  0  0  0  0  0  0  0  0  0  0  0
   -1.8323    0.8412    0.0000 C   0  0  0  0  0  0  0  0  0  0  0  0
   -2.1150   -1.5582    0.0002 C   0  0  0  0  0  0  0  0  0  0  0  0
   -2.6663   -0.2769    0.0000 C   0  0  0  0  0  0  0  0  0  0  0  0
    2.4858    0.2242    0.0000 C   0  0  0  0  0  0  0  0  0  0  0  0
  1  8  1  0
  2 11  2  0
  3  5  1  0
  3 11  1  0
  4 11  1  0
  5  6  2  0
  5  7  1  0
  6  8  1  0
  7  9  2  0
  8 10  2  0
  9 10  1  0
M  END
>  <PUBCHEM_COMPOUND_CID>  (1) 
13039

>  <PUBCHEM_CONFORMER_RMSD>  (1) 
0.4

>  <PUBCHEM_CONFORMER_DIVERSEORDER>  (1) 
1
11
19
20
15
14
24
22
8
7
2
21
13
16
23
9
10
18
17
12
3
4
5
6

>  <PUBCHEM_MMFF94_PARTIAL_CHARGES>  (1) 
18
1 -0.19
10 -0.15
11 0.69
12 0.15
13 0.15
14 0.37
15 0.15
16 0.15
17 0.37
18 0.37
2 -0.57
3 -0.55
4 -0.8
5 0.12
6 -0.15
7 -0.15
8 0.19
9 -0.15

>  <PUBCHEM_EFFECTIVE_ROTOR_COUNT>  (1) 
2

>  <PUBCHEM_PHARMACOPHORE_FEATURES>  (1) 
4
1 2 acceptor
1 3 donor
1 4 donor
6 5 6 7 8 9 10 rings

>  <PUBCHEM_HEAVY_ATOM_COUNT>  (1) 
11

>  <PUBCHEM_ATOM_DEF_STEREO_COUNT>  (1) 
0

>  <PUBCHEM_ATOM_UDEF_STEREO_COUNT>  (1) 
0

>  <PUBCHEM_BOND_DEF_STEREO_COUNT>  (1) 
0

>  <PUBCHEM_BOND_UDEF_STEREO_COUNT>  (1) 
0

>  <PUBCHEM_ISOTOPIC_ATOM_COUNT>  (1) 
0

>  <PUBCHEM_COMPONENT_COUNT>  (1) 
1

>  <PUBCHEM_CACTVS_TAUTO_COUNT>  (1) 
3

>  <PUBCHEM_CONFORMER_ID>  (1) 
000032EF00000001

>  <PUBCHEM_MMFF94_ENERGY>  (1) 
27.7374

>  <PUBCHEM_FEATURE_SELFOVERLAP>  (1) 
20.346

>  <PUBCHEM_SHAPE_FINGERPRINT>  (1) 
10608611 8 18341890818480779072
12716758 59 18412822490757012042
12897270 3 18411417357872773838
12932764 1 17458335338894171284
13024252 1 11458416947322680311
13380535 76 18339640023652348927
14325111 11 18410575080700479460
15775835 57 18188213091625413352
16945 1 18410856589852494055
19973954 147 18338518646240612820
20653085 51 18338248075974649466
20871998 184 18200600327237361135
21028194 46 18272370867003639624
21040471 1 18338516309799405351
23402539 116 18342446067657974847
23552423 10 18188489215125601214
2748010 2 18194690271838538287
369184 2 18336545009793903491
5084963 1 18273496796890954914
6333449 129 18412261731484688431

>  <PUBCHEM_SHAPE_MULTIPOLES>  (1) 
203.27
4.79
1.77
0.58
3.71
0.29
0
0.4
0
-1.03
0
-0.04
-0.03
0

>  <PUBCHEM_SHAPE_SELFOVERLAP>  (1) 
423.283

>  <PUBCHEM_SHAPE_VOLUME>  (1) 
115.1

>  <PUBCHEM_COORDINATE_TYPE>  (1) 
2
5
10

$$$$
