13047
     RDKit          3D

 13 14  0  0  0  0  0  0  0  0999 V2000
   -3.4185   -0.4524   -1.0501 O   0  0  0  0  0  0  0  0  0  0  0  0
   -0.9823    0.1240    0.4865 C   0  0  0  0  0  0  0  0  0  0  0  0
    0.3538   -0.2235    0.2285 C   0  0  0  0  0  0  0  0  0  0  0  0
   -2.0113   -0.8989    0.8582 C   0  0  0  0  0  0  0  0  0  0  0  0
    1.2779    0.7907   -0.1183 C   0  0  0  0  0  0  0  0  0  0  0  0
   -1.4013    1.4523    0.4040 C   0  0  0  0  0  0  0  0  0  0  0  0
    0.7930   -1.5551    0.3069 C   0  0  0  0  0  0  0  0  0  0  0  0
    0.8387    2.1224   -0.1971 C   0  0  0  0  0  0  0  0  0  0  0  0
   -2.7285   -1.4855   -0.3583 C   0  0  0  0  0  0  0  0  0  0  0  0
   -0.4925    2.4496    0.0626 C   0  0  0  0  0  0  0  0  0  0  0  0
    2.6139    0.4434   -0.3765 C   0  0  0  0  0  0  0  0  0  0  0  0
    2.1242   -1.8821    0.0474 C   0  0  0  0  0  0  0  0  0  0  0  0
    3.0330   -0.8847   -0.2937 C   0  0  0  0  0  0  0  0  0  0  0  0
  1  9  1  0
  2  3  2  0
  2  4  1  0
  2  6  1  0
  3  5  1  0
  3  7  1  0
  4  9  1  0
  5  8  2  0
  5 11  1  0
  6 10  2  0
  7 12  2  0
  8 10  1  0
 11 13  2  0
 12 13  1  0
M  END
>  <PUBCHEM_COMPOUND_CID>  (1) 
13047

>  <PUBCHEM_CONFORMER_RMSD>  (1) 
0.6

>  <PUBCHEM_CONFORMER_DIVERSEORDER>  (1) 
1
2
3

>  <PUBCHEM_MMFF94_PARTIAL_CHARGES>  (1) 
19
1 -0.68
10 -0.15
11 -0.15
12 -0.15
13 -0.15
16 0.15
17 0.15
18 0.15
2 -0.14
21 0.15
22 0.15
23 0.15
24 0.15
25 0.4
4 0.14
6 -0.15
7 -0.15
8 -0.15
9 0.28

>  <PUBCHEM_EFFECTIVE_ROTOR_COUNT>  (1) 
2

>  <PUBCHEM_PHARMACOPHORE_FEATURES>  (1) 
4
1 1 acceptor
1 1 donor
6 2 3 5 6 8 10 rings
6 3 5 7 11 12 13 rings

>  <PUBCHEM_HEAVY_ATOM_COUNT>  (1) 
13

>  <PUBCHEM_ATOM_DEF_STEREO_COUNT>  (1) 
0

>  <PUBCHEM_ATOM_UDEF_STEREO_COUNT>  (1) 
0

>  <PUBCHEM_BOND_DEF_STEREO_COUNT>  (1) 
0

>  <PUBCHEM_BOND_UDEF_STEREO_COUNT>  (1) 
0

>  <PUBCHEM_ISOTOPIC_ATOM_COUNT>  (1) 
0

>  <PUBCHEM_COMPONENT_COUNT>  (1) 
1

>  <PUBCHEM_CACTVS_TAUTO_COUNT>  (1) 
1

>  <PUBCHEM_CONFORMER_ID>  (1) 
000032F700000001

>  <PUBCHEM_MMFF94_ENERGY>  (1) 
37.2467

>  <PUBCHEM_FEATURE_SELFOVERLAP>  (1) 
20.324

>  <PUBCHEM_SHAPE_FINGERPRINT>  (1) 
1 1 17761774365976576325
10967382 1 18194127549412719586
11206711 2 18335431131621744572
12202030 40 16629412332971143734
12423570 1 14156608139387555425
14128692 85 18272656765612139834
16945 1 18337683025940475904
193761 8 18337678524804706832
20201158 50 18334572481744279011
20645476 183 16597077796131991014
20645477 70 18124590040875159391
20871998 184 18053112722081419961
21501502 16 18265900155401639832
2334 1 18409457959669821266
23388829 49 18340771528301589192
23419403 2 17468418968659791648
23552423 10 18188224104153532448
23559900 14 17476928953201221638
241688 4 18337397054117422720
2748010 2 18409736148996732240
63268167 104 18196095666604829569
6338986 31 18339347596182206627
81228 2 18264773151277025136

>  <PUBCHEM_SHAPE_MULTIPOLES>  (1) 
261.66
4.28
2.45
0.8
0.75
0.96
0.03
-2.13
1.01
-0.01
-0.02
0.37
-0.1
-0.28

>  <PUBCHEM_SHAPE_SELFOVERLAP>  (1) 
565.351

>  <PUBCHEM_SHAPE_VOLUME>  (1) 
144.3

>  <PUBCHEM_COORDINATE_TYPE>  (1) 
2
5
10

$$$$
