13044
     RDKit          3D

 12 12  0  0  0  0  0  0  0  0999 V2000
    2.9694    2.0169   -0.9964 Br  0  0  0  0  0  0  0  0  0  0  0  0
    2.7003   -1.5367    0.1256 O   0  0  0  0  0  0  0  0  0  0  0  0
   -3.4522   -0.3822   -0.2866 O   0  0  0  0  0  0  0  0  0  0  0  0
   -2.7231    1.6293    0.2046 O   0  0  0  0  0  0  0  0  0  0  0  0
   -2.5176    0.4128   -0.0243 N   0  0  0  0  0  0  0  0  0  0  0  0
    1.1769    0.3013    0.3431 C   0  0  0  0  0  0  0  0  0  0  0  0
   -0.1307    0.7853    0.3046 C   0  0  0  0  0  0  0  0  0  0  0  0
    1.4290   -1.0475    0.0924 C   0  0  0  0  0  0  0  0  0  0  0  0
   -1.1862   -0.0795    0.0152 C   0  0  0  0  0  0  0  0  0  0  0  0
    0.3736   -1.9122   -0.1969 C   0  0  0  0  0  0  0  0  0  0  0  0
   -0.9341   -1.4283   -0.2356 C   0  0  0  0  0  0  0  0  0  0  0  0
    2.2948    1.2410    0.6543 C   0  0  0  0  0  0  0  0  0  0  0  0
  1 12  1  0
  2  8  1  0
  3  5  1  0
  4  5  2  0
  5  9  1  0
  6  7  2  0
  6  8  1  0
  6 12  1  0
  7  9  1  0
  8 10  2  0
  9 11  2  0
 10 11  1  0
M  CHG  2   3  -1   5   1
M  END
>  <PUBCHEM_COMPOUND_CID>  (1) 
13044

>  <PUBCHEM_CONFORMER_RMSD>  (1) 
0.6

>  <PUBCHEM_CONFORMER_DIVERSEORDER>  (1) 
1
2

>  <PUBCHEM_MMFF94_PARTIAL_CHARGES>  (1) 
16
1 -0.23
10 -0.15
11 -0.15
12 0.37
13 0.15
14 0.15
15 0.15
18 0.45
2 -0.53
3 -0.52
4 -0.52
5 0.91
6 -0.14
7 -0.15
8 0.08
9 0.13

>  <PUBCHEM_EFFECTIVE_ROTOR_COUNT>  (1) 
2

>  <PUBCHEM_PHARMACOPHORE_FEATURES>  (1) 
6
1 1 hydrophobe
1 2 donor
1 3 acceptor
1 3 anion
1 4 acceptor
6 6 7 8 9 10 11 rings

>  <PUBCHEM_HEAVY_ATOM_COUNT>  (1) 
12

>  <PUBCHEM_ATOM_DEF_STEREO_COUNT>  (1) 
0

>  <PUBCHEM_ATOM_UDEF_STEREO_COUNT>  (1) 
0

>  <PUBCHEM_BOND_DEF_STEREO_COUNT>  (1) 
0

>  <PUBCHEM_BOND_UDEF_STEREO_COUNT>  (1) 
0

>  <PUBCHEM_ISOTOPIC_ATOM_COUNT>  (1) 
0

>  <PUBCHEM_COMPONENT_COUNT>  (1) 
1

>  <PUBCHEM_CACTVS_TAUTO_COUNT>  (1) 
5

>  <PUBCHEM_CONFORMER_ID>  (1) 
000032F400000001

>  <PUBCHEM_MMFF94_ENERGY>  (1) 
31.7299

>  <PUBCHEM_FEATURE_SELFOVERLAP>  (1) 
30.528

>  <PUBCHEM_SHAPE_FINGERPRINT>  (1) 
12423570 1 18188749722214436728
12932764 1 17632290211701657649
13380535 21 18339090409313983794
13380535 76 18338792428967858690
14325111 11 18412822482451881417
14897335 6 18339636853961066688
15219459 52 18411139112948911534
15775835 57 18343025531364983949
16945 1 18052813938318084058
20511035 2 18343011212271235594
20653085 51 18044389450641510124
20671657 1 18409449206790384948
21040471 1 18341607182945322178
21501502 16 18411980282209495539
21524375 3 18261953076124998028
23552423 10 18338514140751263123
241688 4 17260757243884256010
2748010 2 18412263973183648110
3071541 158 18192714445248521900
5084963 1 18201714007803588211
528862 383 18334569148986632122
57177213 63 18335422417054076836
7364860 26 18344144787437292174

>  <PUBCHEM_SHAPE_MULTIPOLES>  (1) 
230.31
4.74
2.17
0.78
0.92
0.38
-0.06
-2.49
-0.74
-0.78
-0.21
-0.42
-0.19
-0.51

>  <PUBCHEM_SHAPE_SELFOVERLAP>  (1) 
467.067

>  <PUBCHEM_SHAPE_VOLUME>  (1) 
139

>  <PUBCHEM_COORDINATE_TYPE>  (1) 
2
5
10

$$$$
