1304
     RDKit          2D

 23 22  0  0  1  0  0  0  0  0999 V2000
    0.0000    0.0000    0.0000 S   0  0  0  0  0  0  0  0  0  0  0  0
    0.0000    0.0000    0.0000 O   0  0  0  0  0  0  0  0  0  0  0  0
    0.0000    0.0000    0.0000 O   0  0  0  0  0  0  0  0  0  0  0  0
    0.0000    0.0000    0.0000 N   0  0  0  0  0  0  0  0  0  0  0  0
    0.0000    0.0000    0.0000 C   0  0  0  0  0  0  0  0  0  0  0  0
    0.0000    0.0000    0.0000 C   0  0  0  0  0  0  0  0  0  0  0  0
    0.0000    0.0000    0.0000 C   0  0  0  0  0  0  0  0  0  0  0  0
    0.0000    0.0000    0.0000 C   0  0  0  0  0  0  0  0  0  0  0  0
    0.0000    0.0000    0.0000 C   0  0  0  0  0  0  0  0  0  0  0  0
    0.0000    0.0000    0.0000 C   0  0  0  0  0  0  0  0  0  0  0  0
    0.0000    0.0000    0.0000 C   0  0  0  0  0  0  0  0  0  0  0  0
    0.0000    0.0000    0.0000 C   0  0  0  0  0  0  0  0  0  0  0  0
    0.0000    0.0000    0.0000 C   0  0  0  0  0  0  0  0  0  0  0  0
    0.0000    0.0000    0.0000 C   0  0  0  0  0  0  0  0  0  0  0  0
    0.0000    0.0000    0.0000 C   0  0  0  0  0  0  0  0  0  0  0  0
    0.0000    0.0000    0.0000 C   0  0  0  0  0  0  0  0  0  0  0  0
    0.0000    0.0000    0.0000 C   0  0  0  0  0  0  0  0  0  0  0  0
    0.0000    0.0000    0.0000 C   0  0  0  0  0  0  0  0  0  0  0  0
    0.0000    0.0000    0.0000 C   0  0  0  0  0  0  0  0  0  0  0  0
    0.0000    0.0000    0.0000 C   0  0  0  0  0  0  0  0  0  0  0  0
    0.0000    0.0000    0.0000 C   0  0  0  0  0  0  0  0  0  0  0  0
    0.0000    0.0000    0.0000 C   0  0  0  0  0  0  0  0  0  0  0  0
    0.0000    0.0000    0.0000 C   0  0  0  0  0  0  0  0  0  0  0  0
  1 16  1  0
  1 17  1  0
  2 22  1  0
  2 23  1  0
  3 22  2  0
  4 18  1  0
  5  6  1  0
  5  9  1  0
  6 10  1  0
  7  8  1  0
  7 11  1  0
  8  9  2  3
  8 12  1  0
 10 13  2  3
 10 15  1  0
 11 14  1  0
 13 16  1  0
 14 19  2  3
 17 18  1  0
 18 22  1  0
 19 20  1  0
 19 21  1  0
M  END
>  <PUBCHEM_COMPOUND_CID>  (1) 
1304

>  <PUBCHEM_CONFORMER_RMSD>  (1) 
1.4

>  <PUBCHEM_CONFORMER_DIVERSEORDER>  (1) 
15
16
177
276
156
212
216
331
64
101
21
342
10
265
217
234
312
22
268
235
251
150
106
333
229
271
50
324
155
62
119
302
122
91
170
297
346
270
341
12
167
154
283
151
56
104
259
116
37
78
183
254
330
173
138
201
113
132
195
153
102
147
3
88
29
327
237
55
255
285
134
258
319
71
160
204
307
184
110
243
191
49
41
249
185
313
299
242
338
164
220
329
89
180
59
145
19
293
45
70
72
53
47
317
90
28
146
27
306
231
269
14
345
159
182
261
163
264
131
253
267
18
252
326
246
65
140
198
189
311
157
17
69
295
178
321
118
240
31
197
26
57
280
232
196
95
277
81
339
179
337
124
262
30
51
107
245
136
250
83
328
23
343
80
115
125
6
24
121
142
166
310
263
40
85
135
149
168
334
228
287
294
193
296
298
13
202
241
7
320
230
108
266
194
187
9
127
105
203
100
323
273
344
332
74
93
39
35
46
103
289
2
244
82
286
141
304
190
248
274
174
79
126
158
279
300
34
67
5
123
68
60
87
63
213
224
335
290
176
340
25
282
278
275
315
114
20
66
207
291
247
109
256
314
11
238
148
73
111
211
336
44
219
309
86
347
221
303
52
137
128
208
301
281
288
75
225
226
99
129
130
144
98
325
305
272
348
172
120
36
33
94
42
188
84
322
117
4
209
260
236
292
58
215
169
222
48
76
214
32
161
200
77
257
96
97
152
171
316
181
192
227
205
162
112
175
239
38
139
206
143
210
92
165
284
133
43
186
223
54
318
233
199
218
1
8
61
308

>  <PUBCHEM_MMFF94_PARTIAL_CHARGES>  (1) 
28
1 -0.46
10 -0.28
11 0.14
12 0.14
13 -0.29
14 -0.29
15 0.14
16 0.37
17 0.23
18 0.33
19 -0.28
2 -0.43
20 0.14
21 0.14
22 0.66
23 0.28
3 -0.57
30 0.15
36 0.15
37 0.15
4 -0.99
5 0.14
52 0.36
53 0.36
6 0.14
7 0.14
8 -0.28
9 -0.29

>  <PUBCHEM_EFFECTIVE_ROTOR_COUNT>  (1) 
12

>  <PUBCHEM_PHARMACOPHORE_FEATURES>  (1) 
9
1 12 hydrophobe
1 15 hydrophobe
1 3 acceptor
1 4 cation
1 4 donor
3 19 20 21 hydrophobe
4 1 13 16 17 hydrophobe
4 5 6 9 10 hydrophobe
4 7 8 11 14 hydrophobe

>  <PUBCHEM_HEAVY_ATOM_COUNT>  (1) 
23

>  <PUBCHEM_ATOM_DEF_STEREO_COUNT>  (1) 
0

>  <PUBCHEM_ATOM_UDEF_STEREO_COUNT>  (1) 
1

>  <PUBCHEM_BOND_DEF_STEREO_COUNT>  (1) 
0

>  <PUBCHEM_BOND_UDEF_STEREO_COUNT>  (1) 
2

>  <PUBCHEM_ISOTOPIC_ATOM_COUNT>  (1) 
0

>  <PUBCHEM_COMPONENT_COUNT>  (1) 
1

>  <PUBCHEM_CACTVS_TAUTO_COUNT>  (1) 
1

$$$$
