13040
     RDKit          3D

 12 12  0  0  0  0  0  0  0  0999 V2000
   -1.3680    2.3663    0.0005 F   0  0  0  0  0  0  0  0  0  0  0  0
   -1.3384   -2.3832    0.0000 F   0  0  0  0  0  0  0  0  0  0  0  0
    1.3859   -2.3596    0.0003 F   0  0  0  0  0  0  0  0  0  0  0  0
    1.3571    2.3761    0.0000 F   0  0  0  0  0  0  0  0  0  0  0  0
    2.7386    0.0171    0.0001 F   0  0  0  0  0  0  0  0  0  0  0  0
   -2.8009   -0.0166    0.0001 N   0  0  0  0  0  0  0  0  0  0  0  0
   -1.3905   -0.0084   -0.0002 C   0  0  0  0  0  0  0  0  0  0  0  0
   -0.7006    1.2038   -0.0003 C   0  0  0  0  0  0  0  0  0  0  0  0
   -0.6858   -1.2122   -0.0001 C   0  0  0  0  0  0  0  0  0  0  0  0
    0.7091   -1.2038    0.0000 C   0  0  0  0  0  0  0  0  0  0  0  0
    0.6942    1.2122   -0.0003 C   0  0  0  0  0  0  0  0  0  0  0  0
    1.3992    0.0085   -0.0001 C   0  0  0  0  0  0  0  0  0  0  0  0
  1  8  1  0
  2  9  1  0
  3 10  1  0
  4 11  1  0
  5 12  1  0
  6  7  1  0
  7  8  2  0
  7  9  1  0
  8 11  1  0
  9 10  2  0
 10 12  1  0
 11 12  2  0
M  END
>  <PUBCHEM_COMPOUND_CID>  (1) 
13040

>  <PUBCHEM_CONFORMER_RMSD>  (1) 
0.4

>  <PUBCHEM_CONFORMER_DIVERSEORDER>  (1) 
1

>  <PUBCHEM_MMFF94_PARTIAL_CHARGES>  (1) 
14
1 -0.19
10 0.19
11 0.19
12 0.19
13 0.4
14 0.4
2 -0.19
3 -0.19
4 -0.19
5 -0.19
6 -0.9
7 0.1
8 0.19
9 0.19

>  <PUBCHEM_EFFECTIVE_ROTOR_COUNT>  (1) 
0

>  <PUBCHEM_PHARMACOPHORE_FEATURES>  (1) 
3
1 6 cation
1 6 donor
6 7 8 9 10 11 12 rings

>  <PUBCHEM_HEAVY_ATOM_COUNT>  (1) 
12

>  <PUBCHEM_ATOM_DEF_STEREO_COUNT>  (1) 
0

>  <PUBCHEM_ATOM_UDEF_STEREO_COUNT>  (1) 
0

>  <PUBCHEM_BOND_DEF_STEREO_COUNT>  (1) 
0

>  <PUBCHEM_BOND_UDEF_STEREO_COUNT>  (1) 
0

>  <PUBCHEM_ISOTOPIC_ATOM_COUNT>  (1) 
0

>  <PUBCHEM_COMPONENT_COUNT>  (1) 
1

>  <PUBCHEM_CACTVS_TAUTO_COUNT>  (1) 
1

>  <PUBCHEM_CONFORMER_ID>  (1) 
000032F000000001

>  <PUBCHEM_MMFF94_ENERGY>  (1) 
26.455

>  <PUBCHEM_FEATURE_SELFOVERLAP>  (1) 
15.223

>  <PUBCHEM_SHAPE_FINGERPRINT>  (1) 
12423570 1 12099404819702362034
16945 1 18410856563945306373
18185500 45 18411135874279793759
193761 8 18410573989451693191
21040471 1 18266459810888350176
2334 1 17978228597017542663
23552423 10 17972879434520573132
241688 4 17978229348642094561
2748010 2 18122624946548046205
5084963 1 18131350803986003953
66348 1 18410575063198791937

>  <PUBCHEM_SHAPE_MULTIPOLES>  (1) 
205.6
2.7
2.6
0.56
0.14
0
0
0
0
-0.06
0
0.01
0
0

>  <PUBCHEM_SHAPE_SELFOVERLAP>  (1) 
443.754

>  <PUBCHEM_SHAPE_VOLUME>  (1) 
113

>  <PUBCHEM_COORDINATE_TYPE>  (1) 
2
5
10

$$$$
