13042
     RDKit          3D

 12 12  0  0  0  0  0  0  0  0999 V2000
    3.1447    0.0011    0.0000 S   0  0  0  0  0  0  0  0  0  0  0  0
    1.3155   -2.3800    0.0000 F   0  0  0  0  0  0  0  0  0  0  0  0
    1.3138    2.3810   -0.0005 F   0  0  0  0  0  0  0  0  0  0  0  0
   -1.4022    2.3674   -0.0003 F   0  0  0  0  0  0  0  0  0  0  0  0
   -1.4004   -2.3684   -0.0004 F   0  0  0  0  0  0  0  0  0  0  0  0
   -2.7682   -0.0010    0.0000 F   0  0  0  0  0  0  0  0  0  0  0  0
    1.3611    0.0004    0.0001 C   0  0  0  0  0  0  0  0  0  0  0  0
    0.6640   -1.2079    0.0000 C   0  0  0  0  0  0  0  0  0  0  0  0
    0.6631    1.2082    0.0003 C   0  0  0  0  0  0  0  0  0  0  0  0
   -0.7318    1.2078    0.0005 C   0  0  0  0  0  0  0  0  0  0  0  0
   -0.7309   -1.2083    0.0000 C   0  0  0  0  0  0  0  0  0  0  0  0
   -1.4287   -0.0004    0.0003 C   0  0  0  0  0  0  0  0  0  0  0  0
  1  7  1  0
  2  8  1  0
  3  9  1  0
  4 10  1  0
  5 11  1  0
  6 12  1  0
  7  8  2  0
  7  9  1  0
  8 11  1  0
  9 10  2  0
 10 12  1  0
 11 12  2  0
M  END
>  <PUBCHEM_COMPOUND_CID>  (1) 
13042

>  <PUBCHEM_CONFORMER_RMSD>  (1) 
0.4

>  <PUBCHEM_CONFORMER_DIVERSEORDER>  (1) 
1

>  <PUBCHEM_MMFF94_PARTIAL_CHARGES>  (1) 
13
1 -0.28
10 0.19
11 0.19
12 0.19
13 0.18
2 -0.19
3 -0.19
4 -0.19
5 -0.19
6 -0.19
7 0.1
8 0.19
9 0.19

>  <PUBCHEM_EFFECTIVE_ROTOR_COUNT>  (1) 
0

>  <PUBCHEM_PHARMACOPHORE_FEATURES>  (1) 
1
6 7 8 9 10 11 12 rings

>  <PUBCHEM_HEAVY_ATOM_COUNT>  (1) 
12

>  <PUBCHEM_ATOM_DEF_STEREO_COUNT>  (1) 
0

>  <PUBCHEM_ATOM_UDEF_STEREO_COUNT>  (1) 
0

>  <PUBCHEM_BOND_DEF_STEREO_COUNT>  (1) 
0

>  <PUBCHEM_BOND_UDEF_STEREO_COUNT>  (1) 
0

>  <PUBCHEM_ISOTOPIC_ATOM_COUNT>  (1) 
0

>  <PUBCHEM_COMPONENT_COUNT>  (1) 
1

>  <PUBCHEM_CACTVS_TAUTO_COUNT>  (1) 
2

>  <PUBCHEM_CONFORMER_ID>  (1) 
000032F200000001

>  <PUBCHEM_MMFF94_ENERGY>  (1) 
15.7162

>  <PUBCHEM_FEATURE_SELFOVERLAP>  (1) 
5.074

>  <PUBCHEM_SHAPE_FINGERPRINT>  (1) 
11206711 2 18409446951410497477
12423570 1 17183899710228209369
16945 1 18410575084715826438
193761 8 18410855464428403847
21040471 1 18266459806640855648
2334 1 17978511167237287556
23552423 10 17972879438905276188
23559900 14 18199756839612146910
241688 4 17906171754604166624
2748010 2 18122342651232588492
5084963 1 18131070467333882280
528886 8 18339637953203721258
53812653 166 18270957925837586024
66348 1 18410855443059062410

>  <PUBCHEM_SHAPE_MULTIPOLES>  (1) 
214.44
3.17
2.54
0.58
1.07
0
0
0
0
-0.31
0
0.06
0
0

>  <PUBCHEM_SHAPE_SELFOVERLAP>  (1) 
450.738

>  <PUBCHEM_SHAPE_VOLUME>  (1) 
123.6

>  <PUBCHEM_COORDINATE_TYPE>  (1) 
2
5
10

$$$$
