13057
     RDKit          3D

 14 15  0  0  0  0  0  0  0  0999 V2000
   -3.4889    0.5447   -0.0031 O   0  0  0  0  0  0  0  0  0  0  0  0
   -2.6047   -1.4646   -0.0010 O   0  0  0  0  0  0  0  0  0  0  0  0
   -2.4958   -0.2175   -0.0006 N   0  0  0  0  0  0  0  0  0  0  0  0
    2.5443    2.2883   -0.0028 N   0  0  0  0  0  0  0  0  0  0  0  0
   -0.0284   -0.4316    0.0013 C   0  0  0  0  0  0  0  0  0  0  0  0
    1.2374    0.2014    0.0003 C   0  0  0  0  0  0  0  0  0  0  0  0
   -1.1906    0.3569    0.0023 C   0  0  0  0  0  0  0  0  0  0  0  0
    1.3038    1.6042    0.0002 C   0  0  0  0  0  0  0  0  0  0  0  0
   -0.0948   -1.8344    0.0012 C   0  0  0  0  0  0  0  0  0  0  0  0
    2.3996   -0.5871   -0.0008 C   0  0  0  0  0  0  0  0  0  0  0  0
   -1.1058    1.7495    0.0022 C   0  0  0  0  0  0  0  0  0  0  0  0
    0.1389    2.3720    0.0012 C   0  0  0  0  0  0  0  0  0  0  0  0
    1.0701   -2.6022    0.0002 C   0  0  0  0  0  0  0  0  0  0  0  0
    2.3149   -1.9797   -0.0007 C   0  0  0  0  0  0  0  0  0  0  0  0
  1  3  1  0
  2  3  2  0
  3  7  1  0
  4  8  1  0
  5  6  1  0
  5  7  2  0
  5  9  1  0
  6  8  2  0
  6 10  1  0
  7 11  1  0
  8 12  1  0
  9 13  2  0
 10 14  2  0
 11 12  2  0
 13 14  1  0
M  CHG  2   1  -1   3   1
M  END
>  <PUBCHEM_COMPOUND_CID>  (1) 
13057

>  <PUBCHEM_CONFORMER_RMSD>  (1) 
0.4

>  <PUBCHEM_CONFORMER_DIVERSEORDER>  (1) 
1

>  <PUBCHEM_MMFF94_PARTIAL_CHARGES>  (1) 
20
1 -0.52
10 -0.15
11 -0.15
12 -0.15
13 -0.15
14 -0.15
15 0.15
16 0.15
17 0.15
18 0.15
19 0.15
2 -0.52
20 0.15
21 0.4
22 0.4
3 0.91
4 -0.9
7 0.13
8 0.1
9 -0.15

>  <PUBCHEM_EFFECTIVE_ROTOR_COUNT>  (1) 
1

>  <PUBCHEM_PHARMACOPHORE_FEATURES>  (1) 
7
1 1 acceptor
1 1 anion
1 2 acceptor
1 4 cation
1 4 donor
6 5 6 7 8 11 12 rings
6 5 6 9 10 13 14 rings

>  <PUBCHEM_HEAVY_ATOM_COUNT>  (1) 
14

>  <PUBCHEM_ATOM_DEF_STEREO_COUNT>  (1) 
0

>  <PUBCHEM_ATOM_UDEF_STEREO_COUNT>  (1) 
0

>  <PUBCHEM_BOND_DEF_STEREO_COUNT>  (1) 
0

>  <PUBCHEM_BOND_UDEF_STEREO_COUNT>  (1) 
0

>  <PUBCHEM_ISOTOPIC_ATOM_COUNT>  (1) 
0

>  <PUBCHEM_COMPONENT_COUNT>  (1) 
1

>  <PUBCHEM_CACTVS_TAUTO_COUNT>  (1) 
1

>  <PUBCHEM_CONFORMER_ID>  (1) 
0000330100000001

>  <PUBCHEM_MMFF94_ENERGY>  (1) 
72.5392

>  <PUBCHEM_FEATURE_SELFOVERLAP>  (1) 
35.628

>  <PUBCHEM_SHAPE_FINGERPRINT>  (1) 
10967382 1 18410575084689478661
11471102 20 18337667517098497645
12382932 28 17763174744363698898
13140716 1 18410293639772323259
13380535 76 18122339348729882866
15001771 113 18124319311162428280
16945 1 18338798892592698850
17990270 104 18409165510914811643
193761 8 18266458694155122916
20645476 183 17463421860331807580
20645477 70 18410285935397806431
20871998 184 17624404286368182574
2334 1 18266740375147384259
23388829 49 18341598292246942334
23402539 116 17332222222608238381
23526114 1 18338796818250154063
23552423 10 18409169891728498069
23559900 14 17550386234088921430
241688 4 17905890271248524488
2748010 2 18265617756611406102
2897 32 18266458900175955005
54173680 148 17329430540979090210
7364860 26 18413670201521735032
81228 2 17691125933270023754

>  <PUBCHEM_SHAPE_MULTIPOLES>  (1) 
266.41
3.8
3.01
0.59
1.78
0.79
0
-1.15
0
-1.11
0
-0.05
0
0

>  <PUBCHEM_SHAPE_SELFOVERLAP>  (1) 
589.433

>  <PUBCHEM_SHAPE_VOLUME>  (1) 
143.5

>  <PUBCHEM_COORDINATE_TYPE>  (1) 
2
5
10

$$$$
