13064
     RDKit          3D

 14 14  0  0  0  0  0  0  0  0999 V2000
    1.8557    0.5189   -0.8320 O   0  0  0  0  0  0  0  0  0  0  0  0
   -1.8547    0.5204    0.8317 O   0  0  0  0  0  0  0  0  0  0  0  0
    2.8032   -0.3070    1.1064 O   0  0  0  0  0  0  0  0  0  0  0  0
   -2.8036   -0.3045   -1.1064 O   0  0  0  0  0  0  0  0  0  0  0  0
    0.3627   -1.9753   -0.6765 C   0  0  0  0  0  0  0  0  0  0  0  0
   -0.3651   -1.9759    0.6763 C   0  0  0  0  0  0  0  0  0  0  0  0
    0.6265    2.1717    0.4474 C   0  0  0  0  0  0  0  0  0  0  0  0
   -0.6238    2.1722   -0.4470 C   0  0  0  0  0  0  0  0  0  0  0  0
    1.8772   -1.8207   -0.5298 C   0  0  0  0  0  0  0  0  0  0  0  0
   -1.8794   -1.8193    0.5299 C   0  0  0  0  0  0  0  0  0  0  0  0
    1.9007    1.8742   -0.3433 C   0  0  0  0  0  0  0  0  0  0  0  0
   -1.8985    1.8758    0.3432 C   0  0  0  0  0  0  0  0  0  0  0  0
    2.2527   -0.4663    0.0246 C   0  0  0  0  0  0  0  0  0  0  0  0
   -2.2534   -0.4643   -0.0245 C   0  0  0  0  0  0  0  0  0  0  0  0
  1 11  1  0
  1 13  1  0
  2 12  1  0
  2 14  1  0
  3 13  2  0
  4 14  2  0
  5  6  1  0
  5  9  1  0
  6 10  1  0
  7  8  1  0
  7 11  1  0
  8 12  1  0
  9 13  1  0
 10 14  1  0
M  END
>  <PUBCHEM_COMPOUND_CID>  (1) 
13064

>  <PUBCHEM_CONFORMER_RMSD>  (1) 
0.6

>  <PUBCHEM_CONFORMER_DIVERSEORDER>  (1) 
1
13
6
7
5
11
2
9
16
8
12
15
4
14
3
17
10

>  <PUBCHEM_MMFF94_PARTIAL_CHARGES>  (1) 
10
1 -0.43
10 0.06
11 0.28
12 0.28
13 0.66
14 0.66
2 -0.43
3 -0.57
4 -0.57
9 0.06

>  <PUBCHEM_EFFECTIVE_ROTOR_COUNT>  (1) 
2

>  <PUBCHEM_PHARMACOPHORE_FEATURES>  (1) 
2
1 3 acceptor
1 4 acceptor

>  <PUBCHEM_HEAVY_ATOM_COUNT>  (1) 
14

>  <PUBCHEM_ATOM_DEF_STEREO_COUNT>  (1) 
0

>  <PUBCHEM_ATOM_UDEF_STEREO_COUNT>  (1) 
0

>  <PUBCHEM_BOND_DEF_STEREO_COUNT>  (1) 
0

>  <PUBCHEM_BOND_UDEF_STEREO_COUNT>  (1) 
0

>  <PUBCHEM_ISOTOPIC_ATOM_COUNT>  (1) 
0

>  <PUBCHEM_COMPONENT_COUNT>  (1) 
1

>  <PUBCHEM_CACTVS_TAUTO_COUNT>  (1) 
1

>  <PUBCHEM_CONFORMER_ID>  (1) 
0000330800000001

>  <PUBCHEM_MMFF94_ENERGY>  (1) 
15.1141

>  <PUBCHEM_FEATURE_SELFOVERLAP>  (1) 
10.149

>  <PUBCHEM_SHAPE_FINGERPRINT>  (1) 
12382932 28 18268427928070170776
13897977 150 18266740375585182187
1420 336 18266183820400461666
14251711 518 17763181745176280258
15775835 57 18117565251729810054
15881359 60 17979033293552986396
16945 1 18410580582221464646
19930374 2 17320683982273285580
19973954 147 18410866455244933250
20201158 50 18410569604379871807
22802520 49 17912380739769209662
2334 1 17978512266738515235
23419403 2 17041125608484442232
2748010 2 17979079614775247564
2897 32 17543922204141594196
57483677 51 18191018117470465244
66348 1 18194973065053587041

>  <PUBCHEM_SHAPE_MULTIPOLES>  (1) 
264.64
3.83
3.07
0.96
0
0.54
0
-0.27
0
0
0
0
-0.12
0.06

>  <PUBCHEM_SHAPE_SELFOVERLAP>  (1) 
515.721

>  <PUBCHEM_SHAPE_VOLUME>  (1) 
156.9

>  <PUBCHEM_COORDINATE_TYPE>  (1) 
2
5
10

$$$$
