13067
     RDKit          3D

 15 16  0  0  0  0  0  0  0  0999 V2000
    3.3154   -0.1262   -0.3837 O   0  0  0  0  0  0  0  0  0  0  0  0
    1.7748    0.0831    1.3196 O   0  0  0  0  0  0  0  0  0  0  0  0
   -1.9828    1.9664    0.2167 N   0  0  0  0  0  0  0  0  0  0  0  0
   -0.2386    0.8036   -0.5128 C   0  0  0  0  0  0  0  0  0  0  0  0
   -1.3192   -0.0986   -0.3050 C   0  0  0  0  0  0  0  0  0  0  0  0
   -2.4013    0.6564    0.1527 C   0  0  0  0  0  0  0  0  0  0  0  0
    1.1147    0.4595   -0.9944 C   0  0  0  0  0  0  0  0  0  0  0  0
   -0.6774    2.0653   -0.1835 C   0  0  0  0  0  0  0  0  0  0  0  0
   -1.4811   -1.4895   -0.4626 C   0  0  0  0  0  0  0  0  0  0  0  0
   -3.6421    0.0879    0.4618 C   0  0  0  0  0  0  0  0  0  0  0  0
    2.0751    0.1232    0.1343 C   0  0  0  0  0  0  0  0  0  0  0  0
   -2.7167   -2.0719   -0.1574 C   0  0  0  0  0  0  0  0  0  0  0  0
   -3.7791   -1.2935    0.2976 C   0  0  0  0  0  0  0  0  0  0  0  0
    4.3267   -0.4604    0.5723 C   0  0  0  0  0  0  0  0  0  0  0  0
    5.6315   -0.7054   -0.1554 C   0  0  0  0  0  0  0  0  0  0  0  0
  1 11  1  0
  1 14  1  0
  2 11  2  0
  3  6  1  0
  3  8  1  0
  4  5  1  0
  4  7  1  0
  4  8  2  0
  5  6  2  0
  5  9  1  0
  6 10  1  0
  7 11  1  0
  9 12  2  0
 10 13  2  0
 12 13  1  0
 14 15  1  0
M  END
>  <PUBCHEM_COMPOUND_CID>  (1) 
13067

>  <PUBCHEM_CONFORMER_RMSD>  (1) 
0.6

>  <PUBCHEM_CONFORMER_DIVERSEORDER>  (1) 
1
47
35
52
25
2
11
54
19
8
41
22
40
58
6
24
36
53
13
20
18
9
51
12
56
16
14
34
7
38
42
43
27
21
39
45
55
49
37
33
30
17
57
50
59
3
10
23
5
26
46
15
44
28
4
31
48
32
29

>  <PUBCHEM_MMFF94_PARTIAL_CHARGES>  (1) 
19
1 -0.43
10 -0.15
11 0.66
12 -0.15
13 -0.15
14 0.28
18 0.15
19 0.27
2 -0.57
20 0.15
21 0.15
22 0.15
23 0.15
3 0.03
4 -0.18
6 -0.15
7 0.24
8 -0.3
9 -0.15

>  <PUBCHEM_EFFECTIVE_ROTOR_COUNT>  (1) 
4

>  <PUBCHEM_PHARMACOPHORE_FEATURES>  (1) 
5
1 2 acceptor
1 3 cation
1 3 donor
5 3 4 5 6 8 rings
6 5 6 9 10 12 13 rings

>  <PUBCHEM_HEAVY_ATOM_COUNT>  (1) 
15

>  <PUBCHEM_ATOM_DEF_STEREO_COUNT>  (1) 
0

>  <PUBCHEM_ATOM_UDEF_STEREO_COUNT>  (1) 
0

>  <PUBCHEM_BOND_DEF_STEREO_COUNT>  (1) 
0

>  <PUBCHEM_BOND_UDEF_STEREO_COUNT>  (1) 
0

>  <PUBCHEM_ISOTOPIC_ATOM_COUNT>  (1) 
0

>  <PUBCHEM_COMPONENT_COUNT>  (1) 
1

>  <PUBCHEM_CACTVS_TAUTO_COUNT>  (1) 
1

>  <PUBCHEM_CONFORMER_ID>  (1) 
0000330B00000001

>  <PUBCHEM_MMFF94_ENERGY>  (1) 
19.0649

>  <PUBCHEM_FEATURE_SELFOVERLAP>  (1) 
25.463

>  <PUBCHEM_SHAPE_FINGERPRINT>  (1) 
10616163 171 18410012126542417742
11046707 91 18334010596979488482
11128504 68 17530977886667909070
11578080 2 17751056176063282916
12119455 92 16773795879256852445
12236239 1 17822015302402817564
12251169 10 18202002144200663276
12633257 1 17203337757305505611
13167823 11 18261671468510872546
13288520 33 18409450271910606398
15375462 189 18113335331734587747
15653759 3 18060414720756927904
16945 1 18341625832220881093
17804303 29 18343586260735696352
17834072 33 18260272971319172652
17834074 16 18342741767592931774
1813 80 17531538594189550582
18186145 218 13117998928703872501
19049666 15 17487068764403852948
19422 9 18260554432915057060
200 152 16298104276638265084
20871998 184 18272369763191776735
21267235 1 18335428997197428763
21650355 55 18413107268811707329
2297311 6 18272101478550274852
232386 152 18336833099136177951
23402539 116 18201431476713250893
23559900 14 18411974793505210840
2838139 119 14548181965990141017
43471831 8 18262518087378352763
465052 167 18044674215916935515
7364860 26 18053385688775981077

>  <PUBCHEM_SHAPE_MULTIPOLES>  (1) 
291.97
8.64
1.83
0.86
12.18
0.19
0.04
-3.87
1.15
-1.77
-0.1
0.24
0.01
-0.18

>  <PUBCHEM_SHAPE_SELFOVERLAP>  (1) 
622.298

>  <PUBCHEM_SHAPE_VOLUME>  (1) 
163.9

>  <PUBCHEM_COORDINATE_TYPE>  (1) 
2
5
10

$$$$
