13065
     RDKit          3D

 15 16  0  0  0  0  0  0  0  0999 V2000
   -0.0078    1.1575   -0.0010 C   0  0  0  0  0  0  0  0  0  0  0  0
   -1.2495    0.3324   -0.0477 C   0  0  0  0  0  0  0  0  0  0  0  0
    1.2886    0.2823    0.0488 C   0  0  0  0  0  0  0  0  0  0  0  0
    0.1197    2.1264    1.2343 C   0  0  0  0  0  0  0  0  0  0  0  0
   -0.0086    2.1292   -1.2331 C   0  0  0  0  0  0  0  0  0  0  0  0
   -1.4565   -0.5573   -1.1019 C   0  0  0  0  0  0  0  0  0  0  0  0
    1.4284   -0.5667    1.1016 C   0  0  0  0  0  0  0  0  0  0  0  0
   -2.2039    0.4508    0.9625 C   0  0  0  0  0  0  0  0  0  0  0  0
    2.1831    0.4336   -0.9639 C   0  0  0  0  0  0  0  0  0  0  0  0
   -2.6181   -1.3286   -1.1458 C   0  0  0  0  0  0  0  0  0  0  0  0
    2.5841   -1.3465    1.1464 C   0  0  0  0  0  0  0  0  0  0  0  0
   -3.3653   -0.3205    0.9188 C   0  0  0  0  0  0  0  0  0  0  0  0
    3.3388   -0.3462   -0.9193 C   0  0  0  0  0  0  0  0  0  0  0  0
   -3.5723   -1.2101   -0.1355 C   0  0  0  0  0  0  0  0  0  0  0  0
    3.5393   -1.2362    0.1359 C   0  0  0  0  0  0  0  0  0  0  0  0
  1  2  1  0
  1  3  1  0
  1  4  1  0
  1  5  1  0
  2  6  2  0
  2  8  1  0
  3  7  2  0
  3  9  1  0
  6 10  1  0
  7 11  1  0
  8 12  2  0
  9 13  2  0
 10 14  2  0
 11 15  2  0
 12 14  1  0
 13 15  1  0
M  END
>  <PUBCHEM_COMPOUND_CID>  (1) 
13065

>  <PUBCHEM_CONFORMER_RMSD>  (1) 
0.6

>  <PUBCHEM_CONFORMER_DIVERSEORDER>  (1) 
1
2
3

>  <PUBCHEM_MMFF94_PARTIAL_CHARGES>  (1) 
23
1 0.29
10 -0.15
11 -0.15
12 -0.15
13 -0.15
14 -0.15
15 -0.15
2 -0.14
22 0.15
23 0.15
24 0.15
25 0.15
26 0.15
27 0.15
28 0.15
29 0.15
3 -0.14
30 0.15
31 0.15
6 -0.15
7 -0.15
8 -0.15
9 -0.15

>  <PUBCHEM_EFFECTIVE_ROTOR_COUNT>  (1) 
2

>  <PUBCHEM_PHARMACOPHORE_FEATURES>  (1) 
3
3 1 4 5 hydrophobe
6 2 6 8 10 12 14 rings
6 3 7 9 11 13 15 rings

>  <PUBCHEM_HEAVY_ATOM_COUNT>  (1) 
15

>  <PUBCHEM_ATOM_DEF_STEREO_COUNT>  (1) 
0

>  <PUBCHEM_ATOM_UDEF_STEREO_COUNT>  (1) 
0

>  <PUBCHEM_BOND_DEF_STEREO_COUNT>  (1) 
0

>  <PUBCHEM_BOND_UDEF_STEREO_COUNT>  (1) 
0

>  <PUBCHEM_ISOTOPIC_ATOM_COUNT>  (1) 
0

>  <PUBCHEM_COMPONENT_COUNT>  (1) 
1

>  <PUBCHEM_CACTVS_TAUTO_COUNT>  (1) 
1

>  <PUBCHEM_CONFORMER_ID>  (1) 
0000330900000001

>  <PUBCHEM_MMFF94_ENERGY>  (1) 
59.9091

>  <PUBCHEM_FEATURE_SELFOVERLAP>  (1) 
15.223

>  <PUBCHEM_SHAPE_FINGERPRINT>  (1) 
10618630 7 18340486677549350606
11471102 22 13973974177046207086
11578080 2 18338780273910542544
11769659 78 18410856559639802563
12251169 10 15985098634778942706
12346177 29 17561073701441517679
124424 183 15338845218034872251
12553582 1 18410573985162390407
12892183 10 15770060514284517602
13296908 3 18410565189063833629
13299463 15 16008753480804908762
13581323 91 16702024201175994735
13705890 14 16877942745963482890
15375462 189 18410860970666245826
15653759 3 16200435762259601674
15906896 17 17754449054403579133
16752209 62 18269265769105503605
16945 1 17895761810498834252
17804303 29 16988575597059676271
1813 80 18337409161593073190
18186145 218 14779550062765458876
18522851 12 18410865355733363943
18981168 100 9222106073785468989
19422 9 18410867554761413543
200 152 17603868871311006194
20361792 2 18336258007252149495
20645477 70 18196643215270121735
20671657 53 17531243916393583670
21296965 67 18411979161170238281
21713013 43 17022625294824440195
21731516 1 18410567392397887215
22112679 90 18200049398670495761
2255824 54 18192716871525378949
22802520 49 15864058837226992623
232386 152 18060143179881336805
23402539 116 18260549987935239390
23419403 2 15903966818822241767
23559900 14 16988018106415993740
3323516 105 17241055412858693595
449060 23 18341620286927667006
465052 167 18338529650527561147
5262128 65 15213309590420144686
7364860 26 17629760333951084609
74978 22 18201152282274516343
77492 1 18338812164052335909
81228 2 17915738665407585489
83771 10 18409731759276249250

>  <PUBCHEM_SHAPE_MULTIPOLES>  (1) 
308.69
5.84
1.84
1.4
0.21
0.81
0
-3.57
0
-0.05
0
0
0.12
-0.69

>  <PUBCHEM_SHAPE_SELFOVERLAP>  (1) 
664.049

>  <PUBCHEM_SHAPE_VOLUME>  (1) 
163.8

>  <PUBCHEM_COORDINATE_TYPE>  (1) 
2
5
10

$$$$
