13072
     RDKit          3D

 15 15  0  0  0  0  0  0  0  0999 V2000
   -1.8799    0.2581    0.9373 O   0  0  0  0  0  0  0  0  0  0  0  0
   -2.4200   -0.2784   -1.2596 O   0  0  0  0  0  0  0  0  0  0  0  0
   -3.9548   -0.5921    0.4515 N   0  0  0  0  0  0  0  0  0  0  0  0
    2.7841   -0.8402   -0.0222 C   0  0  0  0  0  0  0  0  0  0  0  0
    1.6190    0.1775    0.0286 C   0  0  0  0  0  0  0  0  0  0  0  0
    3.9341   -0.3666    0.8932 C   0  0  0  0  0  0  0  0  0  0  0  0
    3.3028   -0.9716   -1.4707 C   0  0  0  0  0  0  0  0  0  0  0  0
    2.3805   -2.2552    0.4476 C   0  0  0  0  0  0  0  0  0  0  0  0
    0.4004   -0.2647    0.4639 C   0  0  0  0  0  0  0  0  0  0  0  0
    1.8731    1.4625   -0.3639 C   0  0  0  0  0  0  0  0  0  0  0  0
   -0.6494    0.6527    0.5103 C   0  0  0  0  0  0  0  0  0  0  0  0
    0.8234    2.3798   -0.3176 C   0  0  0  0  0  0  0  0  0  0  0  0
   -0.4377    1.9749    0.1197 C   0  0  0  0  0  0  0  0  0  0  0  0
   -2.7359   -0.2172   -0.0750 C   0  0  0  0  0  0  0  0  0  0  0  0
   -5.0397   -1.1196   -0.3430 C   0  0  0  0  0  0  0  0  0  0  0  0
  1 11  1  0
  1 14  1  0
  2 14  2  0
  3 14  1  0
  3 15  1  0
  4  5  1  0
  4  6  1  0
  4  7  1  0
  4  8  1  0
  5  9  2  0
  5 10  1  0
  9 11  1  0
 10 12  2  0
 11 13  2  0
 12 13  1  0
M  END
>  <PUBCHEM_COMPOUND_CID>  (1) 
13072

>  <PUBCHEM_CONFORMER_RMSD>  (1) 
0.6

>  <PUBCHEM_CONFORMER_DIVERSEORDER>  (1) 
1
37
44
14
50
45
48
7
43
32
30
40
23
31
27
18
33
26
36
49
28
19
8
38
15
39
20
25
42
22
17
9
6
21
51
13
16
4
5
46
34
35
12
29
41
11
47
24
3
10
2

>  <PUBCHEM_MMFF94_PARTIAL_CHARGES>  (1) 
17
1 -0.23
10 -0.15
11 0.08
12 -0.15
13 -0.15
14 0.78
15 0.3
2 -0.57
25 0.15
26 0.15
27 0.15
28 0.15
29 0.37
3 -0.73
4 0.14
5 -0.14
9 -0.15

>  <PUBCHEM_EFFECTIVE_ROTOR_COUNT>  (1) 
4

>  <PUBCHEM_PHARMACOPHORE_FEATURES>  (1) 
4
1 2 acceptor
1 3 donor
4 4 6 7 8 hydrophobe
6 5 9 10 11 12 13 rings

>  <PUBCHEM_HEAVY_ATOM_COUNT>  (1) 
15

>  <PUBCHEM_ATOM_DEF_STEREO_COUNT>  (1) 
0

>  <PUBCHEM_ATOM_UDEF_STEREO_COUNT>  (1) 
0

>  <PUBCHEM_BOND_DEF_STEREO_COUNT>  (1) 
0

>  <PUBCHEM_BOND_UDEF_STEREO_COUNT>  (1) 
0

>  <PUBCHEM_ISOTOPIC_ATOM_COUNT>  (1) 
0

>  <PUBCHEM_COMPONENT_COUNT>  (1) 
1

>  <PUBCHEM_CACTVS_TAUTO_COUNT>  (1) 
2

>  <PUBCHEM_CONFORMER_ID>  (1) 
0000331000000001

>  <PUBCHEM_MMFF94_ENERGY>  (1) 
49.3593

>  <PUBCHEM_FEATURE_SELFOVERLAP>  (1) 
20.297

>  <PUBCHEM_SHAPE_FINGERPRINT>  (1) 
10618630 7 18341050726813699218
11471102 20 18335137648011523405
11543360 7 15430331264208598091
11578080 2 17916845972886599745
11806522 49 18412544331769314928
122479 349 9439106663653560157
12553582 1 18263660505639244930
13296908 3 18341047423936349812
13675066 3 17775849012739796867
14178342 30 18124308312204662936
14251717 144 18409449223458544738
14252887 29 18131918152249894662
14576447 43 18410576197154995934
15342816 4 18411704253283075398
15477762 27 18409448106730124474
15757776 16 18408604747284353690
15848700 24 18409448076823517972
16945 1 18261123941410165896
18186145 218 17603861230833198961
19422 9 18272097136359333449
200 152 18114461171844418170
20281475 54 18337959973974222744
20339313 130 18341899614394251753
20361792 2 18412543193328726941
20645477 70 18339361976207279095
20671657 53 18334856099756670113
20871998 22 18342742871156433404
21296965 67 18411416189699834481
21501925 9 18412259545188280792
22112679 90 18058474056716822921
221490 88 18117567451107000435
2255824 54 18337396061895483524
23402539 116 18262512590283807354
23419403 2 18051374536159492368
23557571 272 18271243799272049880
23598291 2 18199772313298074209
2748010 2 17901406780964040840
3286 77 17967806167584569831
4463277 69 17917713452862832111
6338986 31 18336820884259678912
7364860 26 18200877408446664608
81228 2 18044943363788880280
83771 10 18412543197660565337
94968 8 18410579487205322790

>  <PUBCHEM_SHAPE_MULTIPOLES>  (1) 
291.97
7.54
2.06
1.02
7.67
0.69
0.22
-4.74
0.57
-0.93
0.08
-0.4
-0.18
-0.21

>  <PUBCHEM_SHAPE_SELFOVERLAP>  (1) 
598.337

>  <PUBCHEM_SHAPE_VOLUME>  (1) 
168.5

>  <PUBCHEM_COORDINATE_TYPE>  (1) 
2
5
10

$$$$
