13074
     RDKit          3D

 16 16  0  0  0  0  0  0  0  0999 V2000
   -0.0519    1.0233   -1.9360 O   0  0  0  0  0  0  0  0  0  0  0  0
   -0.7134   -2.0050    1.5046 O   0  0  0  0  0  0  0  0  0  0  0  0
    3.5139   -0.4828    0.6337 O   0  0  0  0  0  0  0  0  0  0  0  0
    1.7544    0.4543   -0.5822 N   0  0  0  0  0  0  0  0  0  0  0  0
    1.3848   -1.1751    1.0909 N   0  0  0  0  0  0  0  0  0  0  0  0
   -0.5417    0.0375    0.2124 C   0  0  0  0  0  0  0  0  0  0  0  0
   -0.7146    1.1870    1.2218 C   0  0  0  0  0  0  0  0  0  0  0  0
   -1.9136   -0.3183   -0.3818 C   0  0  0  0  0  0  0  0  0  0  0  0
    0.3874    0.5378   -0.8921 C   0  0  0  0  0  0  0  0  0  0  0  0
    0.0047   -1.1587    0.9743 C   0  0  0  0  0  0  0  0  0  0  0  0
    2.3055   -0.3869    0.4038 C   0  0  0  0  0  0  0  0  0  0  0  0
   -1.3190    2.3825    0.5639 C   0  0  0  0  0  0  0  0  0  0  0  0
   -1.8163   -1.5210   -1.2616 C   0  0  0  0  0  0  0  0  0  0  0  0
    2.6879    1.1705   -1.4435 C   0  0  0  0  0  0  0  0  0  0  0  0
   -2.4903    2.9166    0.9276 C   0  0  0  0  0  0  0  0  0  0  0  0
   -2.4777   -2.6617   -1.0359 C   0  0  0  0  0  0  0  0  0  0  0  0
  1  9  2  0
  2 10  2  0
  3 11  2  0
  4  9  1  0
  4 11  1  0
  4 14  1  0
  5 10  1  0
  5 11  1  0
  6  7  1  0
  6  8  1  0
  6  9  1  0
  6 10  1  0
  7 12  1  0
  8 13  1  0
 12 15  2  0
 13 16  2  0
M  END
>  <PUBCHEM_COMPOUND_CID>  (1) 
13074

>  <PUBCHEM_CONFORMER_RMSD>  (1) 
0.6

>  <PUBCHEM_CONFORMER_DIVERSEORDER>  (1) 
2
22
24
20
7
12
15
14
11
6
29
25
1
5
28
27
21
19
8
13
26
23
3
17
18
16
4
9
10

>  <PUBCHEM_MMFF94_PARTIAL_CHARGES>  (1) 
23
1 -0.57
10 0.57
11 0.69
12 -0.29
13 -0.29
14 0.3
15 -0.3
16 -0.3
2 -0.57
21 0.37
22 0.15
23 0.15
27 0.15
28 0.15
29 0.15
3 -0.57
30 0.15
4 -0.42
5 -0.49
6 0.12
7 0.14
8 0.14
9 0.57

>  <PUBCHEM_EFFECTIVE_ROTOR_COUNT>  (1) 
4.6

>  <PUBCHEM_PHARMACOPHORE_FEATURES>  (1) 
7
1 1 acceptor
1 15 hydrophobe
1 16 hydrophobe
1 2 acceptor
1 3 acceptor
1 5 donor
6 4 5 6 9 10 11 rings

>  <PUBCHEM_HEAVY_ATOM_COUNT>  (1) 
16

>  <PUBCHEM_ATOM_DEF_STEREO_COUNT>  (1) 
0

>  <PUBCHEM_ATOM_UDEF_STEREO_COUNT>  (1) 
0

>  <PUBCHEM_BOND_DEF_STEREO_COUNT>  (1) 
0

>  <PUBCHEM_BOND_UDEF_STEREO_COUNT>  (1) 
0

>  <PUBCHEM_ISOTOPIC_ATOM_COUNT>  (1) 
0

>  <PUBCHEM_COMPONENT_COUNT>  (1) 
1

>  <PUBCHEM_CACTVS_TAUTO_COUNT>  (1) 
3

>  <PUBCHEM_CONFORMER_ID>  (1) 
0000331200000002

>  <PUBCHEM_MMFF94_ENERGY>  (1) 
39.7563

>  <PUBCHEM_FEATURE_SELFOVERLAP>  (1) 
35.522

>  <PUBCHEM_SHAPE_FINGERPRINT>  (1) 
1 1 17407965384028260129
10702982 57 18195248814944432777
12138202 97 17774161180291091844
12423570 1 10147957154320289785
13380537 58 17987799583786753077
14617773 55 18335703866334791292
14761567 1 17754462574833616958
14817 1 16455525827289563811
15881359 60 17387685003470218312
15906896 17 18338536165470092851
16945 1 18272933816920254701
20233049 118 18268403851079413727
21524375 3 18194136113403973801
22112679 90 18199758109972809315
23419403 2 16966255605668738120
23557571 272 17704349979088158568
2748010 2 17242459545400887730
4175511 376 17118316040770651439
430814 3 17980194188863880361
528886 8 17386543822296330103
53812653 217 18270139966358456877
81228 2 18060422425970519809

>  <PUBCHEM_SHAPE_MULTIPOLES>  (1) 
301.7
3.82
2.87
1.61
2.43
0.88
-0.26
-0.23
-0.44
-3.34
0.32
0.27
-0.19
-1.4

>  <PUBCHEM_SHAPE_SELFOVERLAP>  (1) 
620.737

>  <PUBCHEM_SHAPE_VOLUME>  (1) 
170.9

>  <PUBCHEM_COORDINATE_TYPE>  (1) 
2
5
10

$$$$
