13079
     RDKit          3D

 16 17  0  0  0  0  0  0  0  0999 V2000
    2.6614    2.3363    1.2443 Cl  0  0  0  0  0  0  0  0  0  0  0  0
   -3.7235    2.3664   -1.2529 Cl  0  0  0  0  0  0  0  0  0  0  0  0
   -0.3535   -0.8156    0.9483 N   0  0  0  0  0  0  0  0  0  0  0  0
    0.6378    0.0859    0.9186 N   0  0  0  0  0  0  0  0  0  0  0  0
   -1.6706   -0.5865    0.4987 C   0  0  0  0  0  0  0  0  0  0  0  0
    1.8765   -0.0936    0.2818 C   0  0  0  0  0  0  0  0  0  0  0  0
   -2.0063    0.6345   -0.0861 C   0  0  0  0  0  0  0  0  0  0  0  0
   -2.6379   -1.5815    0.6398 C   0  0  0  0  0  0  0  0  0  0  0  0
    2.8876    0.8707    0.3584 C   0  0  0  0  0  0  0  0  0  0  0  0
    2.1010   -1.2673   -0.4459 C   0  0  0  0  0  0  0  0  0  0  0  0
   -3.3092    0.8606   -0.5298 C   0  0  0  0  0  0  0  0  0  0  0  0
   -3.9408   -1.3555    0.1961 C   0  0  0  0  0  0  0  0  0  0  0  0
    4.1079    0.6635   -0.2848 C   0  0  0  0  0  0  0  0  0  0  0  0
    3.3213   -1.4744   -1.0891 C   0  0  0  0  0  0  0  0  0  0  0  0
   -4.2764   -0.1344   -0.3887 C   0  0  0  0  0  0  0  0  0  0  0  0
    4.3248   -0.5090   -1.0085 C   0  0  0  0  0  0  0  0  0  0  0  0
  1  9  1  0
  2 11  1  0
  3  4  1  0
  3  5  1  0
  4  6  1  0
  5  7  2  0
  5  8  1  0
  6  9  2  0
  6 10  1  0
  7 11  1  0
  8 12  2  0
  9 13  1  0
 10 14  2  0
 11 15  2  0
 12 15  1  0
 13 16  2  0
 14 16  1  0
M  END
>  <PUBCHEM_COMPOUND_CID>  (1) 
13079

>  <PUBCHEM_CONFORMER_RMSD>  (1) 
0.6

>  <PUBCHEM_CONFORMER_DIVERSEORDER>  (1) 
1
46
52
48
4
50
41
2
42
6
44
8
49
33
5
51
10
12
43
24
38
11
7
9
35
39
23
15
14
34
16
13
31
40
25
3
47
30
27
29
22
32
37
18
45
36
17
19
26
28
20
21

>  <PUBCHEM_MMFF94_PARTIAL_CHARGES>  (1) 
26
1 -0.18
10 -0.15
11 0.18
12 -0.15
13 -0.15
14 -0.15
15 -0.15
16 -0.15
17 0.4
18 0.4
19 0.15
2 -0.18
20 0.15
21 0.15
22 0.15
23 0.15
24 0.15
25 0.15
26 0.15
3 -0.5
4 -0.5
5 0.1
6 0.1
7 -0.15
8 -0.15
9 0.18

>  <PUBCHEM_EFFECTIVE_ROTOR_COUNT>  (1) 
3

>  <PUBCHEM_PHARMACOPHORE_FEATURES>  (1) 
4
1 3 donor
1 4 donor
6 5 7 8 11 12 15 rings
6 6 9 10 13 14 16 rings

>  <PUBCHEM_HEAVY_ATOM_COUNT>  (1) 
16

>  <PUBCHEM_ATOM_DEF_STEREO_COUNT>  (1) 
0

>  <PUBCHEM_ATOM_UDEF_STEREO_COUNT>  (1) 
0

>  <PUBCHEM_BOND_DEF_STEREO_COUNT>  (1) 
0

>  <PUBCHEM_BOND_UDEF_STEREO_COUNT>  (1) 
0

>  <PUBCHEM_ISOTOPIC_ATOM_COUNT>  (1) 
0

>  <PUBCHEM_COMPONENT_COUNT>  (1) 
1

>  <PUBCHEM_CACTVS_TAUTO_COUNT>  (1) 
1

>  <PUBCHEM_CONFORMER_ID>  (1) 
0000331700000001

>  <PUBCHEM_MMFF94_ENERGY>  (1) 
49.4175

>  <PUBCHEM_FEATURE_SELFOVERLAP>  (1) 
21.981

>  <PUBCHEM_SHAPE_FINGERPRINT>  (1) 
10498660 4 17895467034298864101
10608611 8 18410570712497368897
10646746 165 18259699004099435972
11471102 20 18131356332210222538
11615757 297 17632303401208620186
11715629 250 18336817680214167009
12173636 292 18187074023881708391
12186901 62 18334859390302875751
12390115 104 18192717748727881485
12596602 18 15357991082829247245
12670546 177 18130499829600225407
12916748 109 17894636958753792683
13134695 92 17418091001715783512
14123260 362 16370731421978433067
14251757 17 18411976944946352713
15961568 22 17824539914239884188
18186145 218 18412546496232287843
19433438 38 18411422808344709910
200 152 17275107214798288138
20361792 2 15697996331972038219
20645477 56 18334858299444466489
20645477 70 17847066571135553014
20671657 53 17917161502684554698
21065201 7 18187080663289224794
21713013 43 18201723980765356303
221357 26 18342736300009841069
221490 88 18128544940981382566
22646028 28 14261348050635121398
22943178 12 18412823616143899587
23402539 116 18040713658752395518
23402655 69 18272091578255018484
23557571 272 18334015020917187693
23559900 14 18339640032463972458
23596394 208 18342454833438214830
3268164 11 18040708191206494799
32948 21 18261115110883623854
4028521 119 18261107435729638557
4990 188 18410013217326441230
5161694 15 18342176622372742836
5281201 14 18413675716170137452
6049 1 18411706512356524537
7471813 234 16487255452725147600
9709674 26 18338516455775623931

>  <PUBCHEM_SHAPE_MULTIPOLES>  (1) 
323.05
9.83
2.12
1.15
0.76
1
0.06
0.69
2.75
0.51
0.04
-0.27
0.26
2.24

>  <PUBCHEM_SHAPE_SELFOVERLAP>  (1) 
669.984

>  <PUBCHEM_SHAPE_VOLUME>  (1) 
183.7

>  <PUBCHEM_COORDINATE_TYPE>  (1) 
2
5
10

$$$$
