13088
     RDKit          3D

 18 18  0  0  0  0  0  0  0  0999 V2000
    3.4377    1.0043   -0.0007 O   0  0  0  0  0  0  0  0  0  0  0  0
    5.0329   -0.6382    0.0016 O   0  0  0  0  0  0  0  0  0  0  0  0
   -5.7450   -0.0786   -0.0015 O   0  0  0  0  0  0  0  0  0  0  0  0
   -4.9192    1.9554    0.0028 O   0  0  0  0  0  0  0  0  0  0  0  0
    2.7743   -1.2018    0.0003 N   0  0  0  0  0  0  0  0  0  0  0  0
    1.5159   -0.6526    0.0002 N   0  0  0  0  0  0  0  0  0  0  0  0
   -4.7686    0.7095    0.0003 N   0  0  0  0  0  0  0  0  0  0  0  0
   -0.8888   -0.8666   -0.0005 C   0  0  0  0  0  0  0  0  0  0  0  0
   -1.9692   -1.7314   -0.0024 C   0  0  0  0  0  0  0  0  0  0  0  0
   -1.0599    0.5070    0.0017 C   0  0  0  0  0  0  0  0  0  0  0  0
   -3.4531    0.1753    0.0000 C   0  0  0  0  0  0  0  0  0  0  0  0
   -3.2615   -1.2064   -0.0023 C   0  0  0  0  0  0  0  0  0  0  0  0
   -2.3522    1.0320    0.0019 C   0  0  0  0  0  0  0  0  0  0  0  0
    0.4788   -1.4223   -0.0001 C   0  0  0  0  0  0  0  0  0  0  0  0
    4.4764    1.9903   -0.0009 C   0  0  0  0  0  0  0  0  0  0  0  0
    3.8493   -0.3053    0.0007 C   0  0  0  0  0  0  0  0  0  0  0  0
    3.0035   -2.6385    0.0013 C   0  0  0  0  0  0  0  0  0  0  0  0
    3.8486    3.3678   -0.0025 C   0  0  0  0  0  0  0  0  0  0  0  0
  1 15  1  0
  1 16  1  0
  2 16  2  0
  3  7  1  0
  4  7  2  0
  5  6  1  0
  5 16  1  0
  5 17  1  0
  6 14  2  0
  7 11  1  0
  8  9  2  0
  8 10  1  0
  8 14  1  0
  9 12  1  0
 10 13  2  0
 11 12  2  0
 11 13  1  0
 15 18  1  0
M  CHG  2   3  -1   7   1
M  END
>  <PUBCHEM_COMPOUND_CID>  (1) 
13088

>  <PUBCHEM_CONFORMER_RMSD>  (1) 
0.8

>  <PUBCHEM_CONFORMER_DIVERSEORDER>  (1) 
1
7
4
12
9
10
3
2
11
5
6
8

>  <PUBCHEM_MMFF94_PARTIAL_CHARGES>  (1) 
22
1 -0.43
10 -0.15
11 0.13
12 -0.15
13 -0.15
14 0.3
15 0.28
16 0.78
17 0.3
19 0.15
2 -0.57
20 0.15
21 0.15
22 0.15
23 0.06
3 -0.52
4 -0.52
5 -0.3
6 -0.51
7 0.91
8 0.09
9 -0.15

>  <PUBCHEM_EFFECTIVE_ROTOR_COUNT>  (1) 
6

>  <PUBCHEM_PHARMACOPHORE_FEATURES>  (1) 
6
1 2 acceptor
1 3 acceptor
1 3 anion
1 4 acceptor
1 6 acceptor
6 8 9 10 11 12 13 rings

>  <PUBCHEM_HEAVY_ATOM_COUNT>  (1) 
18

>  <PUBCHEM_ATOM_DEF_STEREO_COUNT>  (1) 
0

>  <PUBCHEM_ATOM_UDEF_STEREO_COUNT>  (1) 
0

>  <PUBCHEM_BOND_DEF_STEREO_COUNT>  (1) 
0

>  <PUBCHEM_BOND_UDEF_STEREO_COUNT>  (1) 
1

>  <PUBCHEM_ISOTOPIC_ATOM_COUNT>  (1) 
0

>  <PUBCHEM_COMPONENT_COUNT>  (1) 
1

>  <PUBCHEM_CACTVS_TAUTO_COUNT>  (1) 
1

>  <PUBCHEM_CONFORMER_ID>  (1) 
0000332000000001

>  <PUBCHEM_MMFF94_ENERGY>  (1) 
47.2868

>  <PUBCHEM_FEATURE_SELFOVERLAP>  (1) 
30.53

>  <PUBCHEM_SHAPE_FINGERPRINT>  (1) 
10014705 185 18408882945438160503
12596602 18 13840275775122571412
13675066 3 17967822621878807987
14251732 16 18337112384323412043
14251764 75 18196385920585384112
14528608 73 18341049704616679878
14790565 3 18269280071689945625
15196674 1 18410856606916097824
15342168 16 18189336938843974060
17834072 32 18412547625745382806
17834072 33 18343017813604145839
17844677 252 18340495469542246529
17959699 21 18411699880927162337
20645477 56 18259705579831652751
20645477 70 18200314295179367982
21065198 57 18409731750845070442
21304253 335 18261681398021665109
21652331 79 18408322189643607581
22224240 67 7853275494869719166
23227448 37 18340204201723577231
23402539 116 18271236136997692007
23532345 1 18409732872073900626
23559900 14 18341048515275346042
245318 6 17244998373436935452
34797466 226 17917722330787014685
3545911 37 18410013213036917606
474 4 17822578316923290036
5104073 3 18333450971135667298
633830 44 18410287047462098182
67856867 119 18411691106746800586
77779 3 18411138030401056987
9709674 26 18411143528170731670
9981440 41 18120651590165904786

>  <PUBCHEM_SHAPE_MULTIPOLES>  (1) 
332.01
12.06
2.83
0.58
2.98
1.24
0
5.63
0
-3.46
0
-0.02
-0.01
-0.01

>  <PUBCHEM_SHAPE_SELFOVERLAP>  (1) 
679.737

>  <PUBCHEM_SHAPE_VOLUME>  (1) 
192.7

>  <PUBCHEM_COORDINATE_TYPE>  (1) 
2
5
10

$$$$
