13082
     RDKit          3D

 18 19  0  0  1  0  0  0  0  0999 V2000
    0.3509    1.2029    1.6991 O   0  0  0  0  0  0  0  0  0  0  0  0
    3.8231   -1.4992    0.5213 O   0  0  0  0  0  0  0  0  0  0  0  0
   -0.2954   -2.4029   -1.2362 O   0  0  0  0  0  0  0  0  0  0  0  0
   -0.1133   -0.4919    0.1343 N   0  0  0  0  0  0  0  0  0  0  0  0
    1.7003   -1.9796   -0.2320 N   0  0  0  0  0  0  0  0  0  0  0  0
    2.1947    0.2588    0.5375 C   0  0  0  0  0  0  0  0  0  0  0  0
    0.7230    0.3813    0.8587 C   0  0  0  0  0  0  0  0  0  0  0  0
    2.5143    1.1058   -0.6911 C   0  0  0  0  0  0  0  0  0  0  0  0
    2.6631   -1.1505    0.3120 C   0  0  0  0  0  0  0  0  0  0  0  0
   -1.5297   -0.1971    0.0929 C   0  0  0  0  0  0  0  0  0  0  0  0
    0.3611   -1.6748   -0.4867 C   0  0  0  0  0  0  0  0  0  0  0  0
    2.1288    2.5365   -0.4781 C   0  0  0  0  0  0  0  0  0  0  0  0
   -1.9589    1.1224    0.1688 C   0  0  0  0  0  0  0  0  0  0  0  0
   -2.4448   -1.2365   -0.0229 C   0  0  0  0  0  0  0  0  0  0  0  0
   -3.3238    1.4069    0.1287 C   0  0  0  0  0  0  0  0  0  0  0  0
   -3.8098   -0.9519   -0.0633 C   0  0  0  0  0  0  0  0  0  0  0  0
   -4.2492    0.3698    0.0125 C   0  0  0  0  0  0  0  0  0  0  0  0
    1.2655    3.2001   -1.2553 C   0  0  0  0  0  0  0  0  0  0  0  0
  1  7  2  0
  2  9  2  0
  3 11  2  0
  4  7  1  0
  4 10  1  0
  4 11  1  0
  5  9  1  0
  5 11  1  0
  6  7  1  0
  6  8  1  0
  6  9  1  0
  8 12  1  0
 10 13  2  0
 10 14  1  0
 12 18  2  0
 13 15  1  0
 14 16  2  0
 15 17  2  0
 16 17  1  0
M  END
>  <PUBCHEM_COMPOUND_CID>  (1) 
13082

>  <PUBCHEM_CONFORMER_RMSD>  (1) 
0.6

>  <PUBCHEM_CONFORMER_DIVERSEORDER>  (1) 
1
3
22
2
23
21
9
8
10
24
4
11
20
18
17
25
7
26
6
15
13
14
5
12
19
16

>  <PUBCHEM_MMFF94_PARTIAL_CHARGES>  (1) 
27
1 -0.57
10 0.12
11 0.69
12 -0.29
13 -0.15
14 -0.15
15 -0.15
16 -0.15
17 -0.15
18 -0.3
2 -0.57
22 0.37
23 0.15
24 0.15
25 0.15
26 0.15
27 0.15
28 0.15
29 0.15
3 -0.57
30 0.15
4 -0.24
5 -0.49
6 0.12
7 0.57
8 0.14
9 0.57

>  <PUBCHEM_EFFECTIVE_ROTOR_COUNT>  (1) 
3.6

>  <PUBCHEM_PHARMACOPHORE_FEATURES>  (1) 
8
1 1 acceptor
1 18 hydrophobe
1 2 acceptor
1 3 acceptor
1 5 donor
1 6 anion
6 10 13 14 15 16 17 rings
6 4 5 6 7 9 11 rings

>  <PUBCHEM_HEAVY_ATOM_COUNT>  (1) 
18

>  <PUBCHEM_ATOM_DEF_STEREO_COUNT>  (1) 
0

>  <PUBCHEM_ATOM_UDEF_STEREO_COUNT>  (1) 
1

>  <PUBCHEM_BOND_DEF_STEREO_COUNT>  (1) 
0

>  <PUBCHEM_BOND_UDEF_STEREO_COUNT>  (1) 
0

>  <PUBCHEM_ISOTOPIC_ATOM_COUNT>  (1) 
0

>  <PUBCHEM_COMPONENT_COUNT>  (1) 
1

>  <PUBCHEM_CACTVS_TAUTO_COUNT>  (1) 
3

>  <PUBCHEM_CONFORMER_ID>  (1) 
0000331A00000001

>  <PUBCHEM_MMFF94_ENERGY>  (1) 
60.7967

>  <PUBCHEM_FEATURE_SELFOVERLAP>  (1) 
40.596

>  <PUBCHEM_SHAPE_FINGERPRINT>  (1) 
116883 192 18049161068801888164
13583140 156 17676481714747948627
14115302 16 18202283593571113617
15375462 6 18262803007113253423
15442244 35 18336547122849390817
16945 1 18335431213073285106
17093844 170 17400351252836751229
17134986 127 18119817056071058684
18186145 218 18272102611862666373
19591789 44 16679231617306233331
20233049 118 18059855082117985272
20511035 2 18200304554356596394
20559304 39 18409729586181273968
20645476 183 18267590280461301374
20671657 1 18337675333733546852
21501502 16 18412546535277467747
21524375 3 17826230984566168620
22094290 62 18409448111135829124
2255824 54 18260829310685032962
22854114 111 18409450314438221141
23402539 116 18192702363094113371
23419403 2 15969011366641750779
23463225 33 18411698768514580899
23559900 14 18408598176047694467
2748010 2 17911519792078661102
3060560 45 18411708694358095276
3071541 158 18411135792701736960
4409770 3 17321530593172934036
44154327 71 18267871755959939559
474 4 17460879745918649581
6992083 37 18122919632902825025
7364860 26 18409449227912079320
81228 2 17620772590839893003
9709674 26 18410579474642654915
9981440 41 17613153387919774480

>  <PUBCHEM_SHAPE_MULTIPOLES>  (1) 
342.86
6.21
2.86
1.01
4.21
1.15
-0.08
0.01
-0.15
-1.96
1.07
-0.33
0.2
-0.75

>  <PUBCHEM_SHAPE_SELFOVERLAP>  (1) 
732.497

>  <PUBCHEM_SHAPE_VOLUME>  (1) 
187.5

>  <PUBCHEM_COORDINATE_TYPE>  (1) 
2
5
10

$$$$
