13089
     RDKit          3D

 19 20  0  0  1  0  0  0  0  0999 V2000
    0.3068   -2.5401   -1.7488 Cl  0  0  0  0  0  0  0  0  0  0  0  0
   -0.6106   -3.2946    0.8827 Cl  0  0  0  0  0  0  0  0  0  0  0  0
    2.2087   -2.8493    0.4401 Cl  0  0  0  0  0  0  0  0  0  0  0  0
    1.1691    1.3795    2.5370 Cl  0  0  0  0  0  0  0  0  0  0  0  0
   -5.1264    1.5069   -0.5581 Cl  0  0  0  0  0  0  0  0  0  0  0  0
    0.3539   -0.7284    0.4398 C   0  0  0  0  0  0  0  0  0  0  0  0
   -1.0075   -0.1721    0.1921 C   0  0  0  0  0  0  0  0  0  0  0  0
    1.4837    0.2650    0.0681 C   0  0  0  0  0  0  0  0  0  0  0  0
    0.5695   -2.2367   -0.0013 C   0  0  0  0  0  0  0  0  0  0  0  0
   -1.2941    0.4577   -1.0191 C   0  0  0  0  0  0  0  0  0  0  0  0
   -1.9948   -0.2824    1.1714 C   0  0  0  0  0  0  0  0  0  0  0  0
    1.8744    1.2146    0.9703 C   0  0  0  0  0  0  0  0  0  0  0  0
    2.0321    0.1220   -1.1789 C   0  0  0  0  0  0  0  0  0  0  0  0
   -2.5675    0.9775   -1.2509 C   0  0  0  0  0  0  0  0  0  0  0  0
   -3.2683    0.2372    0.9395 C   0  0  0  0  0  0  0  0  0  0  0  0
    2.8932    2.0921    0.5990 C   0  0  0  0  0  0  0  0  0  0  0  0
    3.0510    0.9994   -1.5501 C   0  0  0  0  0  0  0  0  0  0  0  0
   -3.5546    0.8673   -0.2716 C   0  0  0  0  0  0  0  0  0  0  0  0
    3.4814    1.9844   -0.6613 C   0  0  0  0  0  0  0  0  0  0  0  0
  1  9  1  0
  2  9  1  0
  3  9  1  0
  4 12  1  0
  5 18  1  0
  6  7  1  0
  6  8  1  0
  6  9  1  0
  7 10  2  0
  7 11  1  0
  8 12  2  0
  8 13  1  0
 10 14  1  0
 11 15  2  0
 12 16  1  0
 13 17  2  0
 14 18  2  0
 15 18  1  0
 16 19  2  0
 17 19  1  0
M  END
>  <PUBCHEM_COMPOUND_CID>  (1) 
13089

>  <PUBCHEM_CONFORMER_RMSD>  (1) 
0.6

>  <PUBCHEM_CONFORMER_DIVERSEORDER>  (1) 
1
2
4
3

>  <PUBCHEM_MMFF94_PARTIAL_CHARGES>  (1) 
27
1 -0.29
10 -0.15
11 -0.15
12 0.18
13 -0.15
14 -0.15
15 -0.15
16 -0.15
17 -0.15
18 0.18
19 -0.15
2 -0.29
21 0.15
22 0.15
23 0.15
24 0.15
25 0.15
26 0.15
27 0.15
28 0.15
3 -0.29
4 -0.18
5 -0.18
6 0.29
7 -0.14
8 -0.14
9 0.87

>  <PUBCHEM_EFFECTIVE_ROTOR_COUNT>  (1) 
3

>  <PUBCHEM_PHARMACOPHORE_FEATURES>  (1) 
2
6 7 10 11 14 15 18 rings
6 8 12 13 16 17 19 rings

>  <PUBCHEM_HEAVY_ATOM_COUNT>  (1) 
19

>  <PUBCHEM_ATOM_DEF_STEREO_COUNT>  (1) 
0

>  <PUBCHEM_ATOM_UDEF_STEREO_COUNT>  (1) 
1

>  <PUBCHEM_BOND_DEF_STEREO_COUNT>  (1) 
0

>  <PUBCHEM_BOND_UDEF_STEREO_COUNT>  (1) 
0

>  <PUBCHEM_ISOTOPIC_ATOM_COUNT>  (1) 
0

>  <PUBCHEM_COMPONENT_COUNT>  (1) 
1

>  <PUBCHEM_CACTVS_TAUTO_COUNT>  (1) 
1

>  <PUBCHEM_CONFORMER_ID>  (1) 
0000332100000001

>  <PUBCHEM_MMFF94_ENERGY>  (1) 
62.5863

>  <PUBCHEM_FEATURE_SELFOVERLAP>  (1) 
10.149

>  <PUBCHEM_SHAPE_FINGERPRINT>  (1) 
10165383 225 18193021363242560201
10498660 4 18410009970521608781
11101153 10 17477226937911107374
12532896 13 18267300009671019774
12716301 132 18052810640152355970
12730499 353 18337119994963002721
12788726 201 17690265436567170671
13132413 78 17764865793315712024
13134695 92 18123171416954825142
13294875 104 18129929161748484392
13681431 1 17908988707779569446
14955137 171 18058442102297413878
15309172 13 18335425711436508553
15490181 7 18198902702600532250
16945 1 18336268938244896722
17134986 127 18410574028317674964
1813 80 17626672591947369678
18186145 218 18130239232179965276
20559304 39 17773304639579743921
20600515 1 17041467324709356751
20645477 70 18270116804158979695
21524375 3 18341047505614769950
21756936 100 16155978251664508844
22149856 69 17824002069599052185
2255824 54 18265892445930523463
23419403 2 16740077096228221042
23526113 38 17844544381745139288
23559900 14 17749956531839295143
238 59 18272934912279313991
25 1 18059309724250381248
2748010 2 17842853384327387264
298252 57 18042135404480781664
3060560 45 17918269831458320157
350125 39 18335708281514244626
3729539 64 18047219404914858598
495365 180 18264197042092252805
5845 1 9706931151908033058
633830 44 17845112747520893905
6442390 28 18337681935245941411
7364860 26 18264485087841470654
7471813 234 17841981205133978641
7808743 9 17972324172654434516
81228 2 17548411961205752058
8272917 22 18269558239351395029
84936 182 18341331072456994193
9981440 41 15980002561988812544
9999458 23 17386003919058434346

>  <PUBCHEM_SHAPE_MULTIPOLES>  (1) 
400.36
6.42
3.24
1.78
6.73
3.1
0.36
-5.28
-1.44
-1.99
0.26
-0.56
-0.3
0.46

>  <PUBCHEM_SHAPE_SELFOVERLAP>  (1) 
808.014

>  <PUBCHEM_SHAPE_VOLUME>  (1) 
226

>  <PUBCHEM_COORDINATE_TYPE>  (1) 
2
5
10

$$$$
