13104
     RDKit          3D

 22 23  0  0  1  0  0  0  0  0999 V2000
    3.1445    1.2072    0.1960 N   0  0  0  0  0  0  0  0  0  0  0  0
    4.9706   -0.2475    0.0555 C   0  0  0  0  0  0  0  0  0  0  0  0
    4.3617   -0.1060   -1.3588 C   0  0  0  0  0  0  0  0  0  0  0  0
    4.4919    1.0435    0.7422 C   0  0  0  0  0  0  0  0  0  0  0  0
    4.4037   -1.4951    0.7830 C   0  0  0  0  0  0  0  0  0  0  0  0
    6.5085   -0.3143    0.0330 C   0  0  0  0  0  0  0  0  0  0  0  0
    3.2840    0.9743   -1.2413 C   0  0  0  0  0  0  0  0  0  0  0  0
    4.9543   -2.8154    0.2406 C   0  0  0  0  0  0  0  0  0  0  0  0
    7.0355   -1.6275   -0.5414 C   0  0  0  0  0  0  0  0  0  0  0  0
    6.4780   -2.8281    0.2137 C   0  0  0  0  0  0  0  0  0  0  0  0
    2.5727    2.5104    0.4980 C   0  0  0  0  0  0  0  0  0  0  0  0
    1.1693    2.6691   -0.0898 C   0  0  0  0  0  0  0  0  0  0  0  0
    0.1791    1.6204    0.4261 C   0  0  0  0  0  0  0  0  0  0  0  0
   -1.2255    1.8623   -0.1336 C   0  0  0  0  0  0  0  0  0  0  0  0
   -2.2088    0.7983    0.3591 C   0  0  0  0  0  0  0  0  0  0  0  0
   -3.6251    0.9744   -0.1964 C   0  0  0  0  0  0  0  0  0  0  0  0
   -4.6261   -0.0454    0.3534 C   0  0  0  0  0  0  0  0  0  0  0  0
   -6.0357    0.2232   -0.1806 C   0  0  0  0  0  0  0  0  0  0  0  0
   -7.0780   -0.7813    0.3193 C   0  0  0  0  0  0  0  0  0  0  0  0
   -8.4715   -0.5574   -0.2719 C   0  0  0  0  0  0  0  0  0  0  0  0
   -9.4529   -1.6295    0.2037 C   0  0  0  0  0  0  0  0  0  0  0  0
  -10.8304   -1.4356   -0.4099 C   0  0  0  0  0  0  0  0  0  0  0  0
  1  4  1  0
  1  7  1  0
  1 11  1  0
  2  3  1  0
  2  4  1  0
  2  5  1  0
  2  6  1  0
  3  7  1  0
  5  8  1  0
  6  9  1  0
  8 10  1  0
  9 10  1  0
 11 12  1  0
 12 13  1  0
 13 14  1  0
 14 15  1  0
 15 16  1  0
 16 17  1  0
 17 18  1  0
 18 19  1  0
 19 20  1  0
 20 21  1  0
 21 22  1  0
M  END
>  <PUBCHEM_COMPOUND_CID>  (1) 
13104

>  <PUBCHEM_CONFORMER_RMSD>  (1) 
1.4

>  <PUBCHEM_CONFORMER_DIVERSEORDER>  (1) 
1
2
17
54
71
76
5
22
25
24
43
75
29
21
32
26
40
35
68
63
16
33
46
10
28
4
44
15
37
23
39
60
14
12
47
53
57
3
59
38
77
27
62
19
55
56
13
7
31
64
20
70
9
58
48
51
34
18
74
50
65
8
41
30
66
72
73
67
11
36
69
61
52
6
45
42
49

>  <PUBCHEM_MMFF94_PARTIAL_CHARGES>  (1) 
4
1 -0.81
11 0.27
4 0.27
7 0.27

>  <PUBCHEM_EFFECTIVE_ROTOR_COUNT>  (1) 
12.8

>  <PUBCHEM_PHARMACOPHORE_FEATURES>  (1) 
4
1 1 cation
1 22 hydrophobe
5 1 2 3 4 7 rings
6 2 5 6 8 9 10 rings

>  <PUBCHEM_HEAVY_ATOM_COUNT>  (1) 
22

>  <PUBCHEM_ATOM_DEF_STEREO_COUNT>  (1) 
0

>  <PUBCHEM_ATOM_UDEF_STEREO_COUNT>  (1) 
0

>  <PUBCHEM_BOND_DEF_STEREO_COUNT>  (1) 
0

>  <PUBCHEM_BOND_UDEF_STEREO_COUNT>  (1) 
0

>  <PUBCHEM_ISOTOPIC_ATOM_COUNT>  (1) 
0

>  <PUBCHEM_COMPONENT_COUNT>  (1) 
1

>  <PUBCHEM_CACTVS_TAUTO_COUNT>  (1) 
1

>  <PUBCHEM_CONFORMER_ID>  (1) 
0000333000000001

>  <PUBCHEM_MMFF94_ENERGY>  (1) 
18.2046

>  <PUBCHEM_FEATURE_SELFOVERLAP>  (1) 
20.302

>  <PUBCHEM_SHAPE_FINGERPRINT>  (1) 
10 15 11959734876408964413
10066227 49 18410011057796830315
10666366 153 18260259751663173205
11211813 74 8646499514143845603
11386260 185 16877948282266330813
12539765 74 11963654609909090257
12592606 108 18411700972439406761
12838863 1 17969213453060612690
13533116 47 18343581879975271024
13685833 64 18411982459599873576
14026016 60 15864618471845646210
14216079 64 18410573994453522749
14251757 52 10015866475036278047
14565420 104 11384119630735052957
14919807 6 17822276944233600917
15183329 4 15936408922986031501
15690457 1 18344144804685752703
17134984 74 17894346658062693186
1754908 1 14117523182161055431
1768 124 18130790031686880382
20165401 70 18342735252301721087
2026 5 18410571748154771039
20621476 38 18411136944454579241
20721686 124 11530755986785142032
20721686 146 7997099372747607258
20771845 140 16630811010783254095
21130991 4 18188203209228101290
21133410 62 17969488338734701015
21197605 99 18342739577413123726
21344244 78 16487258768107980768
270888 7 9222930575063765944
2835820 83 18339361847243059966
28498 318 18408038529625691709
3004659 81 17967534550048712536
33532 11 18411698812244962563
3472631 163 8142073274186116144
406291 66 18340485577990406027
439807 62 18408042918422820271
445580 126 8935000348153354036
46194498 28 17312827087230439196
465052 167 18129942279037704588
5718773 13 18410292480136388648
57676310 108 17345208705945118302
57676310 82 17986092219620508384
58260988 393 14979965722499052490
6438161 24 18410291428402222617

>  <PUBCHEM_SHAPE_MULTIPOLES>  (1) 
447.77
31.58
2.95
0.9
87.65
0.37
-0.16
28.43
-2.15
-4.27
0.31
-0.78
-0.04
-0.22

>  <PUBCHEM_SHAPE_SELFOVERLAP>  (1) 
863.83

>  <PUBCHEM_SHAPE_VOLUME>  (1) 
273.8

>  <PUBCHEM_COORDINATE_TYPE>  (1) 
2
5
10

$$$$
