13100
     RDKit          3D

 20 21  0  0  0  0  0  0  0  0999 V2000
   -6.7241    1.1088    0.2177 O   0  0  0  0  0  0  0  0  0  0  0  0
    6.7166    1.1085   -0.2599 O   0  0  0  0  0  0  0  0  0  0  0  0
   -0.4021   -0.0001   -0.6291 C   0  0  0  0  0  0  0  0  0  0  0  0
    0.4079    0.0006    0.6825 C   0  0  0  0  0  0  0  0  0  0  0  0
   -1.8803    0.0107   -0.4306 C   0  0  0  0  0  0  0  0  0  0  0  0
    1.9006    0.0113    0.4594 C   0  0  0  0  0  0  0  0  0  0  0  0
   -2.5790   -1.1925   -0.3312 C   0  0  0  0  0  0  0  0  0  0  0  0
    2.5800   -1.1921    0.3535 C   0  0  0  0  0  0  0  0  0  0  0  0
   -2.5638    1.2234   -0.3434 C   0  0  0  0  0  0  0  0  0  0  0  0
    2.5651    1.2238    0.3631 C   0  0  0  0  0  0  0  0  0  0  0  0
   -4.6448    0.0297   -0.0573 C   0  0  0  0  0  0  0  0  0  0  0  0
    4.6416    0.0297    0.0474 C   0  0  0  0  0  0  0  0  0  0  0  0
   -3.9613   -1.1829   -0.1446 C   0  0  0  0  0  0  0  0  0  0  0  0
    3.9595   -1.1828    0.1463 C   0  0  0  0  0  0  0  0  0  0  0  0
   -3.9461    1.2330   -0.1566 C   0  0  0  0  0  0  0  0  0  0  0  0
    3.9445    1.2331    0.1558 C   0  0  0  0  0  0  0  0  0  0  0  0
   -6.0863    0.0403    0.1355 C   0  0  0  0  0  0  0  0  0  0  0  0
    6.0800    0.0400   -0.1669 C   0  0  0  0  0  0  0  0  0  0  0  0
   -6.8570   -1.2712    0.2430 C   0  0  0  0  0  0  0  0  0  0  0  0
    6.8490   -1.2715   -0.2844 C   0  0  0  0  0  0  0  0  0  0  0  0
  1 17  2  0
  2 18  2  0
  3  4  1  0
  3  5  1  0
  4  6  1  0
  5  7  2  0
  5  9  1  0
  6  8  2  0
  6 10  1  0
  7 13  1  0
  8 14  1  0
  9 15  2  0
 10 16  2  0
 11 13  2  0
 11 15  1  0
 11 17  1  0
 12 14  2  0
 12 16  1  0
 12 18  1  0
 17 19  1  0
 18 20  1  0
M  END
>  <PUBCHEM_COMPOUND_CID>  (1) 
13100

>  <PUBCHEM_CONFORMER_RMSD>  (1) 
0.8

>  <PUBCHEM_CONFORMER_DIVERSEORDER>  (1) 
1
8
4
7
2
10
3
6
5
12
9
11

>  <PUBCHEM_MMFF94_PARTIAL_CHARGES>  (1) 
28
1 -0.57
10 -0.15
11 0.09
12 0.09
13 -0.15
14 -0.15
15 -0.15
16 -0.15
17 0.42
18 0.42
19 0.06
2 -0.57
20 0.06
25 0.15
26 0.15
27 0.15
28 0.15
29 0.15
3 0.14
30 0.15
31 0.15
32 0.15
4 0.14
5 -0.14
6 -0.14
7 -0.15
8 -0.15
9 -0.15

>  <PUBCHEM_EFFECTIVE_ROTOR_COUNT>  (1) 
5

>  <PUBCHEM_PHARMACOPHORE_FEATURES>  (1) 
4
1 1 acceptor
1 2 acceptor
6 5 7 9 11 13 15 rings
6 6 8 10 12 14 16 rings

>  <PUBCHEM_HEAVY_ATOM_COUNT>  (1) 
20

>  <PUBCHEM_ATOM_DEF_STEREO_COUNT>  (1) 
0

>  <PUBCHEM_ATOM_UDEF_STEREO_COUNT>  (1) 
0

>  <PUBCHEM_BOND_DEF_STEREO_COUNT>  (1) 
0

>  <PUBCHEM_BOND_UDEF_STEREO_COUNT>  (1) 
0

>  <PUBCHEM_ISOTOPIC_ATOM_COUNT>  (1) 
0

>  <PUBCHEM_COMPONENT_COUNT>  (1) 
1

>  <PUBCHEM_CACTVS_TAUTO_COUNT>  (1) 
3

>  <PUBCHEM_CONFORMER_ID>  (1) 
0000332C00000001

>  <PUBCHEM_MMFF94_ENERGY>  (1) 
55.6038

>  <PUBCHEM_FEATURE_SELFOVERLAP>  (1) 
20.297

>  <PUBCHEM_SHAPE_FINGERPRINT>  (1) 
10299344 5 18410857659162213699
10354089 29 18410571786676873776
10968037 39 18186519912991886071
11315181 36 18410577297505166497
11524674 6 16702301278301776879
12091667 2 16587740933121404053
12107183 9 17689995631253818233
12166972 35 18409168830888186232
12236239 1 18410575084663117889
12516196 113 18411980273540472201
12730499 353 18259987068036189394
13073987 5 18340484461440898760
13288520 33 18409729574034590495
13533116 47 13542477423169000292
14123256 10 17821728338573946946
14170010 4 18409447012357820568
1420 363 17676209069485221354
14251764 18 18343864428788153175
14251764 46 18410854360616566506
14341114 176 18411702105572508865
14617045 38 18409450275694266938
14933364 13 18410575088968855557
15183329 4 18131071515137058586
17844677 252 18411705382617043345
19489759 90 12535630475292992123
20281389 69 18408882928105726280
21267235 1 18411141333156710281
221357 26 18411416202864480144
22224240 67 16587740966974798984
2297311 6 18411984646017633181
23035841 295 18186518804188866267
23536379 177 18412825776802508824
23559900 14 18340761649808399369
29717793 49 17632582647783080428
3004659 81 18410572886104151248
347723 3 15698000734107989155
34797466 226 18060145362289518132
3545911 37 18410572885645137088
4073 2 18113623430020893650
4214541 1 18411697673319181733
4325135 7 18186239532910063270
4463277 17 18410573989457169317
5104073 3 18339353063633058968
542803 24 17458061568777624796
54446538 1 18410573989452219372
59755656 215 18412547587196672606
59755656 520 17385721413379490763

>  <PUBCHEM_SHAPE_MULTIPOLES>  (1) 
399.85
19.76
1.46
0.72
0.14
0.02
0
1.55
-0.23
0
0
-0.02
0.01
0.12

>  <PUBCHEM_SHAPE_SELFOVERLAP>  (1) 
848.302

>  <PUBCHEM_SHAPE_VOLUME>  (1) 
224.5

>  <PUBCHEM_COORDINATE_TYPE>  (1) 
2
5
10

$$$$
