13116
     RDKit          3D

 25 28  0  0  1  0  0  0  0  0999 V2000
    1.0248   -1.2434   -2.2791 O   0  0  0  0  0  0  0  0  0  0  0  0
    2.7271    1.2900   -0.2231 O   0  0  0  0  0  0  0  0  0  0  0  0
   -3.2161   -2.1030    0.2949 O   0  0  0  0  0  0  0  0  0  0  0  0
   -1.4154    2.8781   -0.4492 O   0  0  0  0  0  0  0  0  0  0  0  0
    3.4026    2.6290    1.5234 O   0  0  0  0  0  0  0  0  0  0  0  0
    1.7849   -1.7257    1.3762 N   0  0  0  0  0  0  0  0  0  0  0  0
   -0.4478   -1.6010   -0.4498 N   0  0  0  0  0  0  0  0  0  0  0  0
   -3.9961    2.6387    0.3408 N   0  0  0  0  0  0  0  0  0  0  0  0
    4.9183    1.7964    0.0080 N   0  0  0  0  0  0  0  0  0  0  0  0
    1.8702   -1.5984   -0.0766 C   0  0  0  0  0  0  0  0  0  0  0  0
    1.2625   -2.8086    0.5611 C   0  0  0  0  0  0  0  0  0  0  0  0
    0.8013   -0.9458   -0.9002 C   0  0  0  0  0  0  0  0  0  0  0  0
   -0.2078   -2.8529    0.2563 C   0  0  0  0  0  0  0  0  0  0  0  0
    0.5041    0.5803   -0.7350 C   0  0  0  0  0  0  0  0  0  0  0  0
   -1.4277   -0.6643   -0.2243 C   0  0  0  0  0  0  0  0  0  0  0  0
   -0.9728    0.5765   -0.3932 C   0  0  0  0  0  0  0  0  0  0  0  0
    2.9437   -2.0857    2.1594 C   0  0  0  0  0  0  0  0  0  0  0  0
    1.3823    1.3868    0.2123 C   0  0  0  0  0  0  0  0  0  0  0  0
   -2.8109   -0.9534    0.1613 C   0  0  0  0  0  0  0  0  0  0  0  0
   -1.8402    1.7459   -0.2403 C   0  0  0  0  0  0  0  0  0  0  0  0
    2.1270   -0.5120   -2.7915 C   0  0  0  0  0  0  0  0  0  0  0  0
   -3.7048    0.2342    0.3703 C   0  0  0  0  0  0  0  0  0  0  0  0
   -3.2604    1.4961    0.1822 C   0  0  0  0  0  0  0  0  0  0  0  0
   -5.1061   -0.1216    0.7913 C   0  0  0  0  0  0  0  0  0  0  0  0
    3.6575    1.9639    0.5249 C   0  0  0  0  0  0  0  0  0  0  0  0
  1 12  1  0
  1 21  1  0
  2 18  1  0
  2 25  1  0
  3 19  2  0
  4 20  2  0
  5 25  2  0
  6 10  1  0
  6 11  1  0
  6 17  1  0
  7 12  1  0
  7 13  1  0
  7 15  1  0
  8 23  1  0
  9 25  1  0
 10 11  1  0
 10 12  1  0
 11 13  1  0
 12 14  1  0
 14 16  1  0
 14 18  1  0
 15 16  2  0
 15 19  1  0
 16 20  1  0
 19 22  1  0
 20 23  1  0
 22 23  2  0
 22 24  1  0
M  END
>  <PUBCHEM_COMPOUND_CID>  (1) 
13116

>  <PUBCHEM_CONFORMER_RMSD>  (1) 
0.8

>  <PUBCHEM_CONFORMER_DIVERSEORDER>  (1) 
3
4
6
5
1
2

>  <PUBCHEM_MMFF94_PARTIAL_CHARGES>  (1) 
31
1 -0.56
10 -0.04
11 -0.04
12 0.74
13 0.46
14 0.14
15 0.11
16 -0.12
17 0.27
18 0.28
19 0.54
2 -0.43
20 0.54
21 0.28
22 -0.12
23 0.11
24 0.14
25 0.78
26 0.1
27 0.1
3 -0.57
4 -0.57
42 0.4
43 0.4
44 0.37
45 0.37
5 -0.57
6 -0.59
7 -0.84
8 -0.9
9 -0.8

>  <PUBCHEM_EFFECTIVE_ROTOR_COUNT>  (1) 
4.6

>  <PUBCHEM_PHARMACOPHORE_FEATURES>  (1) 
12
1 1 acceptor
1 3 acceptor
1 4 acceptor
1 5 acceptor
1 6 cation
1 7 cation
1 8 cation
1 8 donor
1 9 donor
5 7 12 14 15 16 rings
6 15 16 19 20 22 23 rings
6 6 7 10 11 12 13 rings

>  <PUBCHEM_HEAVY_ATOM_COUNT>  (1) 
25

>  <PUBCHEM_ATOM_DEF_STEREO_COUNT>  (1) 
4

>  <PUBCHEM_ATOM_UDEF_STEREO_COUNT>  (1) 
0

>  <PUBCHEM_BOND_DEF_STEREO_COUNT>  (1) 
0

>  <PUBCHEM_BOND_UDEF_STEREO_COUNT>  (1) 
0

>  <PUBCHEM_ISOTOPIC_ATOM_COUNT>  (1) 
0

>  <PUBCHEM_COMPONENT_COUNT>  (1) 
1

>  <PUBCHEM_CACTVS_TAUTO_COUNT>  (1) 
42

>  <PUBCHEM_CONFORMER_ID>  (1) 
0000333C00000003

>  <PUBCHEM_MMFF94_ENERGY>  (1) 
96.1473

>  <PUBCHEM_FEATURE_SELFOVERLAP>  (1) 
61.139

>  <PUBCHEM_SHAPE_FINGERPRINT>  (1) 
10948715 1 18200313359018129322
10967382 1 18409173212207651335
11578080 2 17242155873721734956
12633257 1 18192701246476502489
12788726 201 17106238979576950038
13140716 1 18263645074348972203
13544653 18 12613017401906134672
14178342 30 18187937217644577433
14223421 5 18335420106430184877
14787075 74 17986954240266616705
14790565 3 18191313886204715669
14955137 171 18195800766151559474
16945 1 18193838133300162479
17980427 23 17698687399451794992
1813 80 16081365207618802422
19591789 44 18409727374610447314
20559304 39 18118412752247325311
20600515 1 17407112158815582016
20691752 17 17894640227398108069
20905425 154 18412825810745502676
21421861 104 18260551078476949617
21452121 103 18343589529269118653
21524375 3 18200876300271054220
21756936 100 18198328753884608592
2334 1 18337961176965992359
23419403 2 16626861376117245230
23559900 14 17984427326022080191
2748010 2 18339377330757339615
34934 24 18412262870146965631
350125 39 18335984164548556492
394222 165 17242201065330920486
427121 178 18337120054512244170
5104073 3 18263093137172116705
58807428 26 18336261348641760402
59755656 215 18272381875158170804
7097593 13 17609772003196356403
7364860 26 18340209570454114286
81228 2 17406242895984549760

>  <PUBCHEM_SHAPE_MULTIPOLES>  (1) 
465.22
7.46
3.47
1.59
3.41
0.18
0.73
3.97
-2.68
-1.45
-1.07
-1.86
-0.57
0.12

>  <PUBCHEM_SHAPE_SELFOVERLAP>  (1) 
1015.393

>  <PUBCHEM_SHAPE_VOLUME>  (1) 
256.3

>  <PUBCHEM_COORDINATE_TYPE>  (1) 
2
5
10

$$$$
