1313
     RDKit          3D

 11 11  0  0  1  0  0  0  0  0999 V2000
   -0.8532    1.8381   -0.9880 O   0  0  0  0  0  0  0  0  0  0  0  0
   -3.0240    0.7163    0.9253 O   0  0  0  0  0  0  0  0  0  0  0  0
    2.2173   -1.4630   -0.2383 O   0  0  0  0  0  0  0  0  0  0  0  0
    3.4288    0.8349    0.7341 O   0  0  0  0  0  0  0  0  0  0  0  0
   -0.6351   -1.6196   -0.3867 N   0  0  0  0  0  0  0  0  0  0  0  0
    0.1077   -0.3602   -0.5527 C   0  0  0  0  0  0  0  0  0  0  0  0
   -0.8293    0.7529   -0.0745 C   0  0  0  0  0  0  0  0  0  0  0  0
   -2.1934    0.0862   -0.0330 C   0  0  0  0  0  0  0  0  0  0  0  0
   -1.8446   -1.3284    0.3784 C   0  0  0  0  0  0  0  0  0  0  0  0
    1.4213   -0.3731    0.2231 C   0  0  0  0  0  0  0  0  0  0  0  0
    2.2044    0.9159    0.0123 C   0  0  0  0  0  0  0  0  0  0  0  0
  1  7  1  0
  2  8  1  0
  3 10  1  0
  4 11  1  0
  5  6  1  0
  5  9  1  0
  6  7  1  0
  6 10  1  0
  7  8  1  0
  8  9  1  0
 10 11  1  0
M  END
>  <PUBCHEM_COMPOUND_CID>  (1) 
1313

>  <PUBCHEM_CONFORMER_RMSD>  (1) 
0.6

>  <PUBCHEM_CONFORMER_DIVERSEORDER>  (1) 
1
53
9
16
33
29
21
68
64
66
47
17
18
31
50
4
60
12
41
61
57
54
30
11
48
62
59
39
43
40
13
67
23
15
65
55
63
5
51
6
58
27
52
70
7
44
20
46
42
35
73
3
37
69
26
45
24
2
10
34
36
25
49
22
71
8
19
14
32
72
28
38
56

>  <PUBCHEM_MMFF94_PARTIAL_CHARGES>  (1) 
16
1 -0.68
10 0.28
11 0.28
17 0.36
2 -0.68
21 0.4
22 0.4
23 0.4
24 0.4
3 -0.68
4 -0.68
5 -0.9
6 0.27
7 0.28
8 0.28
9 0.27

>  <PUBCHEM_EFFECTIVE_ROTOR_COUNT>  (1) 
3

>  <PUBCHEM_PHARMACOPHORE_FEATURES>  (1) 
11
1 1 acceptor
1 1 donor
1 2 acceptor
1 2 donor
1 3 acceptor
1 3 donor
1 4 acceptor
1 4 donor
1 5 cation
1 5 donor
5 5 6 7 8 9 rings

>  <PUBCHEM_HEAVY_ATOM_COUNT>  (1) 
11

>  <PUBCHEM_ATOM_DEF_STEREO_COUNT>  (1) 
0

>  <PUBCHEM_ATOM_UDEF_STEREO_COUNT>  (1) 
4

>  <PUBCHEM_BOND_DEF_STEREO_COUNT>  (1) 
0

>  <PUBCHEM_BOND_UDEF_STEREO_COUNT>  (1) 
0

>  <PUBCHEM_ISOTOPIC_ATOM_COUNT>  (1) 
0

>  <PUBCHEM_COMPONENT_COUNT>  (1) 
1

>  <PUBCHEM_CACTVS_TAUTO_COUNT>  (1) 
1

>  <PUBCHEM_CONFORMER_ID>  (1) 
0000052100000001

>  <PUBCHEM_MMFF94_ENERGY>  (1) 
22.2918

>  <PUBCHEM_FEATURE_SELFOVERLAP>  (1) 
55.835

>  <PUBCHEM_SHAPE_FINGERPRINT>  (1) 
10857977 72 18261392316288126923
12524768 44 18409167701247821375
12932764 1 18260830345719390542
13024252 1 15936676130033483175
13380535 21 18341061778091735910
14325111 11 18343866602020434451
14390081 3 17989207078997806728
15310529 11 15482677883161886884
15775835 57 18413392050902459216
16945 1 18261112980157741349
20645464 45 18202283610756263926
20653085 51 14405186187730046715
20871998 184 18129104609273899943
21040471 1 18341058470713625975
23552423 10 18259707813035357046
2748010 2 18191018998002227260
29004967 10 15357694210257350895
369184 2 17240470442423238240
5084963 1 18128806461133503343

>  <PUBCHEM_SHAPE_MULTIPOLES>  (1) 
197.92
4.22
1.63
0.82
1.73
0.11
0
-0.72
-1.32
-0.14
0.25
-0.12
-0.15
0.19

>  <PUBCHEM_SHAPE_SELFOVERLAP>  (1) 
390.978

>  <PUBCHEM_SHAPE_VOLUME>  (1) 
119.5

>  <PUBCHEM_COORDINATE_TYPE>  (1) 
2
5
10

$$$$
