1314
     RDKit          3D

 18 18  0  0  1  0  0  0  0  0999 V2000
    1.6744   -1.8287   -1.1885 F   0  0  0  0  0  0  0  0  0  0  0  0
    2.8528   -2.4856    0.5231 F   0  0  0  0  0  0  0  0  0  0  0  0
    3.6733   -1.0210   -0.8690 F   0  0  0  0  0  0  0  0  0  0  0  0
    2.5973    0.1962    1.5328 O   0  0  0  0  0  0  0  0  0  0  0  0
    1.3025    2.2567   -1.6109 O   0  0  0  0  0  0  0  0  0  0  0  0
    0.5113    1.5803    0.4721 N   0  0  0  0  0  0  0  0  0  0  0  0
    0.5515    0.1580    0.2490 C   0  0  0  0  0  0  0  0  0  0  0  0
   -0.4708   -0.6004    1.0975 C   0  0  0  0  0  0  0  0  0  0  0  0
   -1.8623   -0.5481    0.5163 C   0  0  0  0  0  0  0  0  0  0  0  0
    1.9605   -0.2935    0.5999 C   0  0  0  0  0  0  0  0  0  0  0  0
   -2.7140    0.4824    0.8829 C   0  0  0  0  0  0  0  0  0  0  0  0
   -2.2647   -1.5311   -0.3745 C   0  0  0  0  0  0  0  0  0  0  0  0
    2.5381   -1.4033   -0.2322 C   0  0  0  0  0  0  0  0  0  0  0  0
    0.8922    2.5124   -0.4817 C   0  0  0  0  0  0  0  0  0  0  0  0
   -4.0003    0.5310    0.3454 C   0  0  0  0  0  0  0  0  0  0  0  0
   -3.5510   -1.4823   -0.9121 C   0  0  0  0  0  0  0  0  0  0  0  0
   -4.4187   -0.4512   -0.5520 C   0  0  0  0  0  0  0  0  0  0  0  0
    0.7279    3.9283    0.0019 C   0  0  0  0  0  0  0  0  0  0  0  0
  1 13  1  0
  2 13  1  0
  3 13  1  0
  4 10  2  0
  5 14  2  0
  6  7  1  0
  6 14  1  0
  7  8  1  0
  7 10  1  0
  8  9  1  0
  9 11  2  0
  9 12  1  0
 10 13  1  0
 11 15  1  0
 12 16  2  0
 14 18  1  0
 15 17  2  0
 16 17  1  0
M  END
>  <PUBCHEM_COMPOUND_CID>  (1) 
1314

>  <PUBCHEM_CONFORMER_RMSD>  (1) 
0.8

>  <PUBCHEM_CONFORMER_DIVERSEORDER>  (1) 
1
7
28
17
19
32
27
26
29
25
31
33
4
16
3
30
34
2
20
6
5
15
37
8
38
21
18
36
24
22
23
13
12
14
35
10
9
11

>  <PUBCHEM_MMFF94_PARTIAL_CHARGES>  (1) 
24
1 -0.34
10 0.45
11 -0.15
12 -0.15
13 1.08
14 0.57
15 -0.15
16 -0.15
17 -0.15
18 0.06
2 -0.34
22 0.37
23 0.15
24 0.15
25 0.15
26 0.15
27 0.15
3 -0.34
4 -0.57
5 -0.57
6 -0.73
7 0.36
8 0.14
9 -0.14

>  <PUBCHEM_EFFECTIVE_ROTOR_COUNT>  (1) 
6

>  <PUBCHEM_PHARMACOPHORE_FEATURES>  (1) 
4
1 4 acceptor
1 5 acceptor
1 6 donor
6 9 11 12 15 16 17 rings

>  <PUBCHEM_HEAVY_ATOM_COUNT>  (1) 
18

>  <PUBCHEM_ATOM_DEF_STEREO_COUNT>  (1) 
0

>  <PUBCHEM_ATOM_UDEF_STEREO_COUNT>  (1) 
1

>  <PUBCHEM_BOND_DEF_STEREO_COUNT>  (1) 
0

>  <PUBCHEM_BOND_UDEF_STEREO_COUNT>  (1) 
0

>  <PUBCHEM_ISOTOPIC_ATOM_COUNT>  (1) 
0

>  <PUBCHEM_COMPONENT_COUNT>  (1) 
1

>  <PUBCHEM_CACTVS_TAUTO_COUNT>  (1) 
4

>  <PUBCHEM_CONFORMER_ID>  (1) 
0000052200000001

>  <PUBCHEM_MMFF94_ENERGY>  (1) 
34.4979

>  <PUBCHEM_FEATURE_SELFOVERLAP>  (1) 
20.297

>  <PUBCHEM_SHAPE_FINGERPRINT>  (1) 
10465860 71 18341908367326682607
10922523 26 18343580725071581915
116883 192 18268148651990205948
12553582 1 18337115561776388762
13134695 92 18335976523611787652
13464514 151 18116164435430590620
14115302 16 17917992798089709875
14181834 199 18189608517857461504
14250199 8 18336545036112268457
14350558 41 17846499253184606059
15848700 24 18336819806043539496
17041 50 18335130978090784701
17980427 23 18053635226243705113
18186145 218 17895467124872608203
18981168 100 16444199796988341213
20339313 130 18408895031133357233
20559304 39 18271243949358534993
20600515 1 18262220192988979384
20645476 183 18057327395317567967
20645477 70 18264761246334562063
20671657 1 18339648965779585949
20711985 344 17974007250035532208
21524375 3 17395851424190608041
2255824 54 18336826501966398635
23402539 116 18262237703771383706
23419403 2 17484764222486913864
23557571 272 18263921043346433778
23559900 14 17489579048229259914
23598291 2 18343032107387162569
312423 11 18269566090799713795
6049 1 17532386429402563827
6992083 37 18127987316760723273
7364860 26 18268149931932768505
74978 22 18334297612701693379
7832392 63 18339359665546522457
81228 2 18045225933923885064
84936 182 17983296216415223353
9709674 26 18267581493465031475
9971528 1 18413099554950022177
9981440 41 17689707988825981121

>  <PUBCHEM_SHAPE_MULTIPOLES>  (1) 
331.89
6.63
3.17
1.18
5.2
3
0.06
-2.72
0.84
-3.01
0.73
-0.3
0.01
-0.55

>  <PUBCHEM_SHAPE_SELFOVERLAP>  (1) 
685.648

>  <PUBCHEM_SHAPE_VOLUME>  (1) 
190.2

>  <PUBCHEM_COORDINATE_TYPE>  (1) 
2
5
10

$$$$
