13143
     RDKit          3D

  6  5  0  0  0  0  0  0  0  0999 V2000
    1.1138   -1.3353    0.0001 O   0  0  0  0  0  0  0  0  0  0  0  0
   -0.7343    0.1483   -0.0001 C   0  0  0  0  0  0  0  0  0  0  0  0
    0.7332   -0.1636   -0.0002 C   0  0  0  0  0  0  0  0  0  0  0  0
   -1.6697   -1.0243    0.0000 C   0  0  0  0  0  0  0  0  0  0  0  0
    1.7368    0.9627    0.0000 C   0  0  0  0  0  0  0  0  0  0  0  0
   -1.1798    1.4122    0.0001 C   0  0  0  0  0  0  0  0  0  0  0  0
  1  3  2  0
  2  3  1  0
  2  4  1  0
  2  6  2  0
  3  5  1  0
M  END
>  <PUBCHEM_COMPOUND_CID>  (1) 
13143

>  <PUBCHEM_CONFORMER_RMSD>  (1) 
0.4

>  <PUBCHEM_CONFORMER_DIVERSEORDER>  (1) 
1
2

>  <PUBCHEM_MMFF94_PARTIAL_CHARGES>  (1) 
8
1 -0.57
13 0.15
14 0.15
2 -0.12
3 0.49
4 0.14
5 0.06
6 -0.3

>  <PUBCHEM_EFFECTIVE_ROTOR_COUNT>  (1) 
1

>  <PUBCHEM_PHARMACOPHORE_FEATURES>  (1) 
1
1 1 acceptor

>  <PUBCHEM_HEAVY_ATOM_COUNT>  (1) 
6

>  <PUBCHEM_ATOM_DEF_STEREO_COUNT>  (1) 
0

>  <PUBCHEM_ATOM_UDEF_STEREO_COUNT>  (1) 
0

>  <PUBCHEM_BOND_DEF_STEREO_COUNT>  (1) 
0

>  <PUBCHEM_BOND_UDEF_STEREO_COUNT>  (1) 
0

>  <PUBCHEM_ISOTOPIC_ATOM_COUNT>  (1) 
0

>  <PUBCHEM_COMPONENT_COUNT>  (1) 
1

>  <PUBCHEM_CACTVS_TAUTO_COUNT>  (1) 
2

>  <PUBCHEM_CONFORMER_ID>  (1) 
0000335700000001

>  <PUBCHEM_MMFF94_ENERGY>  (1) 
6.9195

>  <PUBCHEM_FEATURE_SELFOVERLAP>  (1) 
5.074

>  <PUBCHEM_SHAPE_FINGERPRINT>  (1) 
139733 1 9222970165639757731
16714656 1 18051418662499808940
20096714 4 18194122919227172721
21040471 1 18194682566382456869
24536 1 18339065000171195136
29004967 10 18190185783152885595

>  <PUBCHEM_SHAPE_MULTIPOLES>  (1) 
117.61
2.21
1.51
0.6
0.21
0.1
0
0.01
0
-0.16
0
-0.02
0.02
0

>  <PUBCHEM_SHAPE_SELFOVERLAP>  (1) 
214.268

>  <PUBCHEM_SHAPE_VOLUME>  (1) 
76

>  <PUBCHEM_COORDINATE_TYPE>  (1) 
2
5
10

$$$$
