13156
     RDKit          3D

  6  5  0  0  0  0  0  0  0  0999 V2000
   -2.4176   -0.6111   -0.6655 Br  0  0  0  0  0  0  0  0  0  0  0  0
    0.2877    1.4245   -0.3025 O   0  0  0  0  0  0  0  0  0  0  0  0
    1.0478   -0.7897    0.2933 C   0  0  0  0  0  0  0  0  0  0  0  0
    0.0323    0.3379    0.2169 C   0  0  0  0  0  0  0  0  0  0  0  0
    2.3810   -0.4180   -0.3305 C   0  0  0  0  0  0  0  0  0  0  0  0
   -1.3312    0.0564    0.7882 C   0  0  0  0  0  0  0  0  0  0  0  0
  1  6  1  0
  2  4  2  0
  3  4  1  0
  3  5  1  0
  4  6  1  0
M  END
>  <PUBCHEM_COMPOUND_CID>  (1) 
13156

>  <PUBCHEM_CONFORMER_RMSD>  (1) 
0.4

>  <PUBCHEM_CONFORMER_DIVERSEORDER>  (1) 
1
14
3
15
20
5
4
13
6
8
10
19
12
11
2
17
9
18
7
16

>  <PUBCHEM_MMFF94_PARTIAL_CHARGES>  (1) 
5
1 -0.23
2 -0.57
3 0.06
4 0.45
6 0.29

>  <PUBCHEM_EFFECTIVE_ROTOR_COUNT>  (1) 
2

>  <PUBCHEM_PHARMACOPHORE_FEATURES>  (1) 
3
1 1 hydrophobe
1 2 acceptor
1 5 hydrophobe

>  <PUBCHEM_HEAVY_ATOM_COUNT>  (1) 
6

>  <PUBCHEM_ATOM_DEF_STEREO_COUNT>  (1) 
0

>  <PUBCHEM_ATOM_UDEF_STEREO_COUNT>  (1) 
0

>  <PUBCHEM_BOND_DEF_STEREO_COUNT>  (1) 
0

>  <PUBCHEM_BOND_UDEF_STEREO_COUNT>  (1) 
0

>  <PUBCHEM_ISOTOPIC_ATOM_COUNT>  (1) 
0

>  <PUBCHEM_COMPONENT_COUNT>  (1) 
1

>  <PUBCHEM_CACTVS_TAUTO_COUNT>  (1) 
3

>  <PUBCHEM_CONFORMER_ID>  (1) 
0000336400000001

>  <PUBCHEM_MMFF94_ENERGY>  (1) 
3.1858

>  <PUBCHEM_FEATURE_SELFOVERLAP>  (1) 
15.223

>  <PUBCHEM_SHAPE_FINGERPRINT>  (1) 
139733 1 9079110055407808851
14390081 3 13045939110057741639
16714656 1 18342745065663370438
20653085 51 13696160531043361254
21040471 1 9223223070325138978
23552449 11 18198602479990925801
29004967 10 18333736814088777627
5460574 1 8286199444071100890
5943 1 10992734018478417769

>  <PUBCHEM_SHAPE_MULTIPOLES>  (1) 
123.55
3.3
1.1
0.87
0.26
0.18
-0.04
-1.17
0.65
-0.04
0.13
0.22
0
-0.21

>  <PUBCHEM_SHAPE_SELFOVERLAP>  (1) 
207.004

>  <PUBCHEM_SHAPE_VOLUME>  (1) 
86

>  <PUBCHEM_COORDINATE_TYPE>  (1) 
2
5
10

$$$$
