13152
     RDKit          3D

 10  9  0  0  0  0  0  0  0  0999 V2000
    0.0054   -1.8497   -0.0232 O   0  0  0  0  0  0  0  0  0  0  0  0
   -1.3723    0.1279   -0.0371 C   0  0  0  0  0  0  0  0  0  0  0  0
    1.3593    0.1442   -0.0108 C   0  0  0  0  0  0  0  0  0  0  0  0
   -0.0021   -0.6096   -0.0238 C   0  0  0  0  0  0  0  0  0  0  0  0
   -1.3418    1.4896   -0.7359 C   0  0  0  0  0  0  0  0  0  0  0  0
   -2.4546   -0.7722   -0.6491 C   0  0  0  0  0  0  0  0  0  0  0  0
   -1.7782    0.3971    1.4346 C   0  0  0  0  0  0  0  0  0  0  0  0
    1.4634    1.0317    1.2373 C   0  0  0  0  0  0  0  0  0  0  0  0
    2.4857   -0.9165    0.0858 C   0  0  0  0  0  0  0  0  0  0  0  0
    1.6353    0.9576   -1.2779 C   0  0  0  0  0  0  0  0  0  0  0  0
  1  4  2  0
  2  4  1  0
  2  5  1  0
  2  6  1  0
  2  7  1  0
  3  4  1  0
  3  8  1  0
  3  9  1  0
  3 10  1  0
M  END
>  <PUBCHEM_COMPOUND_CID>  (1) 
13152

>  <PUBCHEM_CONFORMER_RMSD>  (1) 
0.4

>  <PUBCHEM_CONFORMER_DIVERSEORDER>  (1) 
1

>  <PUBCHEM_MMFF94_PARTIAL_CHARGES>  (1) 
4
1 -0.57
2 0.06
3 0.06
4 0.45

>  <PUBCHEM_EFFECTIVE_ROTOR_COUNT>  (1) 
2

>  <PUBCHEM_PHARMACOPHORE_FEATURES>  (1) 
3
1 1 acceptor
4 2 5 6 7 hydrophobe
4 3 8 9 10 hydrophobe

>  <PUBCHEM_HEAVY_ATOM_COUNT>  (1) 
10

>  <PUBCHEM_ATOM_DEF_STEREO_COUNT>  (1) 
0

>  <PUBCHEM_ATOM_UDEF_STEREO_COUNT>  (1) 
0

>  <PUBCHEM_BOND_DEF_STEREO_COUNT>  (1) 
0

>  <PUBCHEM_BOND_UDEF_STEREO_COUNT>  (1) 
0

>  <PUBCHEM_ISOTOPIC_ATOM_COUNT>  (1) 
0

>  <PUBCHEM_COMPONENT_COUNT>  (1) 
1

>  <PUBCHEM_CACTVS_TAUTO_COUNT>  (1) 
1

>  <PUBCHEM_CONFORMER_ID>  (1) 
0000336000000001

>  <PUBCHEM_MMFF94_ENERGY>  (1) 
35.2499

>  <PUBCHEM_FEATURE_SELFOVERLAP>  (1) 
15.223

>  <PUBCHEM_SHAPE_FINGERPRINT>  (1) 
12897270 3 18337657668627705287
15775835 57 18342460330774794569
16945 1 18040444278066103466
18185500 45 17986394382161848563
21040471 1 18337951293803119454
21922407 69 16734382914080322056
23235687 12 16271922757080934365
23552423 10 18260264144275324655
241688 4 18411415111657612673
24536 1 17676206857614097453
29004967 10 17604158025694400026
369184 2 17988916777868512489
5084963 1 18410853261105023223

>  <PUBCHEM_SHAPE_MULTIPOLES>  (1) 
199.93
3.25
1.49
1.24
0
0.16
0.22
0.24
-0.11
-0.05
-0.17
0.05
-0.44
-0.11

>  <PUBCHEM_SHAPE_SELFOVERLAP>  (1) 
376.753

>  <PUBCHEM_SHAPE_VOLUME>  (1) 
126.5

>  <PUBCHEM_COORDINATE_TYPE>  (1) 
2
5
10

$$$$
