13157
     RDKit          3D

  9  8  0  0  0  0  0  0  0  0999 V2000
   -1.1865   -1.9557    0.2277 O   0  0  0  0  0  0  0  0  0  0  0  0
    0.2159    2.4272    0.0877 O   0  0  0  0  0  0  0  0  0  0  0  0
   -0.3864    0.2250    0.1881 N   0  0  0  0  0  0  0  0  0  0  0  0
   -0.7336    1.6575   -0.0940 N   0  0  0  0  0  0  0  0  0  0  0  0
   -2.6250   -0.3123   -0.4001 N   0  0  0  0  0  0  0  0  0  0  0  0
    0.9439   -0.1040    0.6196 C   0  0  0  0  0  0  0  0  0  0  0  0
    1.8750   -0.4057   -0.5485 C   0  0  0  0  0  0  0  0  0  0  0  0
    3.2812   -0.7767   -0.0993 C   0  0  0  0  0  0  0  0  0  0  0  0
   -1.3846   -0.7553    0.0188 C   0  0  0  0  0  0  0  0  0  0  0  0
  1  9  2  0
  2  4  2  0
  3  4  1  0
  3  6  1  0
  3  9  1  0
  5  9  1  0
  6  7  1  0
  7  8  1  0
M  END
>  <PUBCHEM_COMPOUND_CID>  (1) 
13157

>  <PUBCHEM_CONFORMER_RMSD>  (1) 
0.6

>  <PUBCHEM_CONFORMER_DIVERSEORDER>  (1) 
1
29
35
27
37
32
30
11
28
38
2
36
26
31
7
22
25
23
6
15
17
21
16
19
24
9
20
10
18
8
12
5
34
4
3
33
14
13

>  <PUBCHEM_MMFF94_PARTIAL_CHARGES>  (1) 
9
1 -0.57
17 0.37
18 0.37
2 -0.16
3 -0.18
4 -0.02
5 -0.8
6 0.3
9 0.69

>  <PUBCHEM_EFFECTIVE_ROTOR_COUNT>  (1) 
4

>  <PUBCHEM_PHARMACOPHORE_FEATURES>  (1) 
3
1 1 acceptor
1 5 donor
1 8 hydrophobe

>  <PUBCHEM_HEAVY_ATOM_COUNT>  (1) 
9

>  <PUBCHEM_ATOM_DEF_STEREO_COUNT>  (1) 
0

>  <PUBCHEM_ATOM_UDEF_STEREO_COUNT>  (1) 
0

>  <PUBCHEM_BOND_DEF_STEREO_COUNT>  (1) 
0

>  <PUBCHEM_BOND_UDEF_STEREO_COUNT>  (1) 
0

>  <PUBCHEM_ISOTOPIC_ATOM_COUNT>  (1) 
0

>  <PUBCHEM_COMPONENT_COUNT>  (1) 
1

>  <PUBCHEM_CACTVS_TAUTO_COUNT>  (1) 
2

>  <PUBCHEM_CONFORMER_ID>  (1) 
0000336500000001

>  <PUBCHEM_MMFF94_ENERGY>  (1) 
11.7332

>  <PUBCHEM_FEATURE_SELFOVERLAP>  (1) 
15.223

>  <PUBCHEM_SHAPE_FINGERPRINT>  (1) 
12716758 59 18053383193752987866
12897270 3 18410299116346352702
16714656 1 18410577245105592299
20653085 51 16153432705503259678
21040471 1 17690557485990695360
22082395 3 18408888420967873763
23552423 10 18117279374485525926
23552449 1 18340488859656403012
29004967 10 18269840972352694186

>  <PUBCHEM_SHAPE_MULTIPOLES>  (1) 
158.53
3.64
1.92
0.68
2.21
1.07
0.01
-1.48
-0.53
-0.69
0.08
0.11
-0.04
0.07

>  <PUBCHEM_SHAPE_SELFOVERLAP>  (1) 
289.229

>  <PUBCHEM_SHAPE_VOLUME>  (1) 
100.8

>  <PUBCHEM_COORDINATE_TYPE>  (1) 
2
5
10

$$$$
