13174
     RDKit          3D

 10  9  0  0  1  0  0  0  0  0999 V2000
   -0.6292   -0.3981   -0.0026 O   0  0  0  0  0  0  0  0  0  0  0  0
    0.6612    1.0538   -1.2474 O   0  0  0  0  0  0  0  0  0  0  0  0
   -1.7608    0.4782   -0.0134 C   0  0  0  0  0  0  0  0  0  0  0  0
   -2.9929   -0.2880    0.4725 C   0  0  0  0  0  0  0  0  0  0  0  0
   -1.4660    1.6734    0.8832 C   0  0  0  0  0  0  0  0  0  0  0  0
    1.6918   -0.5285    0.2855 C   0  0  0  0  0  0  0  0  0  0  0  0
    3.0468    0.0189   -0.1561 C   0  0  0  0  0  0  0  0  0  0  0  0
   -3.2862   -1.5122   -0.3849 C   0  0  0  0  0  0  0  0  0  0  0  0
    0.5463    0.1543   -0.4263 C   0  0  0  0  0  0  0  0  0  0  0  0
    4.1889   -0.6520    0.5895 C   0  0  0  0  0  0  0  0  0  0  0  0
  1  3  1  0
  1  9  1  0
  2  9  2  0
  3  4  1  0
  3  5  1  0
  4  8  1  0
  6  7  1  0
  6  9  1  0
  7 10  1  0
M  END
>  <PUBCHEM_COMPOUND_CID>  (1) 
13174

>  <PUBCHEM_CONFORMER_RMSD>  (1) 
0.6

>  <PUBCHEM_CONFORMER_DIVERSEORDER>  (1) 
2
181
185
153
4
46
172
147
41
66
173
18
142
83
176
29
175
128
95
74
80
165
11
184
70
7
157
78
52
125
32
169
149
160
13
34
183
60
84
96
182
59
126
69
167
99
145
90
180
156
19
158
51
134
104
148
36
122
133
8
174
123
75
168
79
91
170
119
68
6
100
64
20
1
77
97
107
22
35
10
140
162
118
114
63
166
116
150
113
23
37
164
16
3
26
93
105
58
144
25
146
171
87
47
33
28
82
21
53
117
38
81
55
94
73
54
152
103
177
30
14
161
115
110
129
179
42
102
101
49
48
178
89
15
120
43
138
136
5
155
92
76
143
151
9
130
85
124
31
137
72
139
61
141
24
154
131
108
106
111
17
86
50
27
159
127
98
88
67
71
44
40
163
12
121
56
112
132
109
135
65
45
62
57
39

>  <PUBCHEM_MMFF94_PARTIAL_CHARGES>  (1) 
5
1 -0.43
2 -0.57
3 0.28
6 0.06
9 0.66

>  <PUBCHEM_EFFECTIVE_ROTOR_COUNT>  (1) 
5

>  <PUBCHEM_PHARMACOPHORE_FEATURES>  (1) 
3
1 10 hydrophobe
1 2 acceptor
1 8 hydrophobe

>  <PUBCHEM_HEAVY_ATOM_COUNT>  (1) 
10

>  <PUBCHEM_ATOM_DEF_STEREO_COUNT>  (1) 
0

>  <PUBCHEM_ATOM_UDEF_STEREO_COUNT>  (1) 
1

>  <PUBCHEM_BOND_DEF_STEREO_COUNT>  (1) 
0

>  <PUBCHEM_BOND_UDEF_STEREO_COUNT>  (1) 
0

>  <PUBCHEM_ISOTOPIC_ATOM_COUNT>  (1) 
0

>  <PUBCHEM_COMPONENT_COUNT>  (1) 
1

>  <PUBCHEM_CACTVS_TAUTO_COUNT>  (1) 
1

>  <PUBCHEM_CONFORMER_ID>  (1) 
0000337600000002

>  <PUBCHEM_MMFF94_ENERGY>  (1) 
7.7529

>  <PUBCHEM_FEATURE_SELFOVERLAP>  (1) 
15.223

>  <PUBCHEM_SHAPE_FINGERPRINT>  (1) 
10726558 24 12180112156057724881
10857977 72 17561086933993078769
11062470 55 13695587745820384770
14128692 85 18262237832409003327
14325111 11 18342459205862537210
14993402 34 17894915148128208982
177051 138 18412263960420020054
20201158 50 15140961729770487616
20211469 26 18260824895384669554
20645477 70 15285632158655430114
20653085 51 9294995903768211798
20671657 53 17894910762797548127
20711985 327 18040442074964126372
20711985 344 15575258884198520236
22485316 2 18040427776944203066
23402539 116 18059284380307893693
75552 356 18413109446338670139

>  <PUBCHEM_SHAPE_MULTIPOLES>  (1) 
194.06
6.49
1.35
0.9
3.88
0.21
-0.11
-2.56
1.2
-1.15
0.1
0.12
0.18
-0.53

>  <PUBCHEM_SHAPE_SELFOVERLAP>  (1) 
354.419

>  <PUBCHEM_SHAPE_VOLUME>  (1) 
124.3

>  <PUBCHEM_COORDINATE_TYPE>  (1) 
2
5
10

$$$$
