13177
     RDKit          3D

  8  7  0  0  0  0  0  0  0  0999 V2000
   -2.1619    1.3030    0.0142 O   0  0  0  0  0  0  0  0  0  0  0  0
    2.1575   -1.3025    0.0122 O   0  0  0  0  0  0  0  0  0  0  0  0
   -0.5173   -0.4226   -0.0034 C   0  0  0  0  0  0  0  0  0  0  0  0
    0.5169    0.4260   -0.0056 C   0  0  0  0  0  0  0  0  0  0  0  0
   -1.9125    0.1000   -0.0067 C   0  0  0  0  0  0  0  0  0  0  0  0
    1.9112   -0.0983   -0.0017 C   0  0  0  0  0  0  0  0  0  0  0  0
   -3.0159   -0.9248   -0.0038 C   0  0  0  0  0  0  0  0  0  0  0  0
    3.0220    0.9193   -0.0051 C   0  0  0  0  0  0  0  0  0  0  0  0
  1  5  2  0
  2  6  2  0
  3  4  2  0
  3  5  1  0
  4  6  1  0
  5  7  1  0
  6  8  1  0
M  END
>  <PUBCHEM_COMPOUND_CID>  (1) 
13177

>  <PUBCHEM_CONFORMER_RMSD>  (1) 
0.4

>  <PUBCHEM_CONFORMER_DIVERSEORDER>  (1) 
1
5
2
4
3

>  <PUBCHEM_MMFF94_PARTIAL_CHARGES>  (1) 
10
1 -0.57
10 0.15
2 -0.57
3 -0.14
4 -0.14
5 0.49
6 0.49
7 0.06
8 0.06
9 0.15

>  <PUBCHEM_EFFECTIVE_ROTOR_COUNT>  (1) 
2

>  <PUBCHEM_PHARMACOPHORE_FEATURES>  (1) 
2
1 1 acceptor
1 2 acceptor

>  <PUBCHEM_HEAVY_ATOM_COUNT>  (1) 
8

>  <PUBCHEM_ATOM_DEF_STEREO_COUNT>  (1) 
0

>  <PUBCHEM_ATOM_UDEF_STEREO_COUNT>  (1) 
0

>  <PUBCHEM_BOND_DEF_STEREO_COUNT>  (1) 
0

>  <PUBCHEM_BOND_UDEF_STEREO_COUNT>  (1) 
1

>  <PUBCHEM_ISOTOPIC_ATOM_COUNT>  (1) 
0

>  <PUBCHEM_COMPONENT_COUNT>  (1) 
1

>  <PUBCHEM_CACTVS_TAUTO_COUNT>  (1) 
3

>  <PUBCHEM_CONFORMER_ID>  (1) 
0000337900000001

>  <PUBCHEM_MMFF94_ENERGY>  (1) 
10.8591

>  <PUBCHEM_FEATURE_SELFOVERLAP>  (1) 
10.149

>  <PUBCHEM_SHAPE_FINGERPRINT>  (1) 
11062470 55 17022895791864118559
12897270 3 18410855498793449525
12932764 1 18412832373444968453
14325111 11 18410575076088968581
14390081 3 18413387657093074872
15310529 11 18343580750355998183
19973954 147 18411420574803544800
23552423 10 18261957344963800642
29004967 10 18261115179391954448
3248919 1 18410001118123844123
5460574 1 9295293836911706116

>  <PUBCHEM_SHAPE_MULTIPOLES>  (1) 
152.9
5.01
1.19
0.59
0.01
0
0
0
0
0
0
0
0
-0.01

>  <PUBCHEM_SHAPE_SELFOVERLAP>  (1) 
286.38

>  <PUBCHEM_SHAPE_VOLUME>  (1) 
95.3

>  <PUBCHEM_COORDINATE_TYPE>  (1) 
2
5
10

$$$$
