1317
     RDKit          3D

 12 11  0  0  0  0  0  0  0  0999 V2000
   -6.9467    0.3533   -0.0138 N   0  0  0  0  0  0  0  0  0  0  0  0
    6.9332   -0.2716   -0.0769 N   0  0  0  0  0  0  0  0  0  0  0  0
   -0.6317   -0.4604    0.0326 C   0  0  0  0  0  0  0  0  0  0  0  0
    0.6478    0.3825    0.0255 C   0  0  0  0  0  0  0  0  0  0  0  0
   -1.9102    0.3801   -0.0213 C   0  0  0  0  0  0  0  0  0  0  0  0
    1.9280   -0.4568    0.0530 C   0  0  0  0  0  0  0  0  0  0  0  0
   -3.1895   -0.4640   -0.0272 C   0  0  0  0  0  0  0  0  0  0  0  0
    3.1721    0.4355    0.0671 C   0  0  0  0  0  0  0  0  0  0  0  0
   -4.4696    0.3783   -0.0013 C   0  0  0  0  0  0  0  0  0  0  0  0
    4.4863   -0.3510    0.0227 C   0  0  0  0  0  0  0  0  0  0  0  0
   -5.7434   -0.4697   -0.0207 C   0  0  0  0  0  0  0  0  0  0  0  0
    5.7238    0.5437   -0.0397 C   0  0  0  0  0  0  0  0  0  0  0  0
  1 11  1  0
  2 12  1  0
  3  4  1  0
  3  5  1  0
  4  6  1  0
  5  7  1  0
  6  8  1  0
  7  9  1  0
  8 10  1  0
  9 11  1  0
 10 12  1  0
M  END
>  <PUBCHEM_COMPOUND_CID>  (1) 
1317

>  <PUBCHEM_CONFORMER_RMSD>  (1) 
0.8

>  <PUBCHEM_CONFORMER_DIVERSEORDER>  (1) 
1
47
15
31
168
158
16
202
68
209
161
122
81
38
3
198
115
220
173
9
2
208
11
95
85
59
7
28
77
17
187
117
20
41
159
196
10
73
65
8
165
61
106
5
82
212
121
190
33
178
200
134
136
24
183
125
49
177
74
19
213
83
57
135
36
23
204
206
120
171
153
98
6
75
194
179
87
43
105
166
27
110
60
12
192
32
180
76
22
219
91
216
184
26
99
210
46
78
21
69
127
207
53
97
119
182
94
144
130
56
181
112
186
114
48
93
118
188
18
14
128
35
70
164
197
133
67
25
152
146
150
96
160
191
131
44
90
58
214
4
189
205
147
100
71
86
54
50
123
185
55
148
89
34
113
145
169
138
88
151
64
172
103
201
80
45
218
79
193
217
170
142
175
108
157
39
66
174
13
63
84
176
199
40
129
42
124
116
195
52
30
156
37
51
211
139
163
92
102
126
167
109
101
104
140
62
154
111
132
149
29
215
203
72
137
107
162
141
143
155

>  <PUBCHEM_MMFF94_PARTIAL_CHARGES>  (1) 
8
1 -0.99
11 0.27
12 0.27
2 -0.99
33 0.36
34 0.36
35 0.36
36 0.36

>  <PUBCHEM_EFFECTIVE_ROTOR_COUNT>  (1) 
9

>  <PUBCHEM_PHARMACOPHORE_FEATURES>  (1) 
4
1 1 cation
1 1 donor
1 2 cation
1 2 donor

>  <PUBCHEM_HEAVY_ATOM_COUNT>  (1) 
12

>  <PUBCHEM_ATOM_DEF_STEREO_COUNT>  (1) 
0

>  <PUBCHEM_ATOM_UDEF_STEREO_COUNT>  (1) 
0

>  <PUBCHEM_BOND_DEF_STEREO_COUNT>  (1) 
0

>  <PUBCHEM_BOND_UDEF_STEREO_COUNT>  (1) 
0

>  <PUBCHEM_ISOTOPIC_ATOM_COUNT>  (1) 
0

>  <PUBCHEM_COMPONENT_COUNT>  (1) 
1

>  <PUBCHEM_CACTVS_TAUTO_COUNT>  (1) 
1

>  <PUBCHEM_CONFORMER_ID>  (1) 
0000052500000001

>  <PUBCHEM_MMFF94_ENERGY>  (1) 
-8.2663

>  <PUBCHEM_FEATURE_SELFOVERLAP>  (1) 
20.297

>  <PUBCHEM_SHAPE_FINGERPRINT>  (1) 
12091667 2 18334576846179845691
13533116 47 16878212087879109848
14123238 8 18410292510180021739
1420 363 18408046212219585626
14251764 46 17632577149866115310
17834076 25 18410292514474989026
187816 3 15698001842420665043
20281389 69 18259982673994650804
20621476 8 18335422326965135381
20645477 70 18200596882536589190
20767249 213 16443067209580015852
23402539 116 18343578564170191455
23521765 1 18341894095129018370
33684 2 18410854356332194211
42788 4 18410855464723880904
4463277 17 18410573989689420801
8209 1 18410855464428410357

>  <PUBCHEM_SHAPE_MULTIPOLES>  (1) 
236.99
18.6
0.78
0.6
0.24
0
0
-0.48
-0.41
0
0
-0.01
0
0

>  <PUBCHEM_SHAPE_SELFOVERLAP>  (1) 
416.968

>  <PUBCHEM_SHAPE_VOLUME>  (1) 
153.2

>  <PUBCHEM_COORDINATE_TYPE>  (1) 
2
5
10

$$$$
