13179
     RDKit          3D

 11 10  0  0  0  0  0  0  0  0999 V2000
    1.6453   -1.4707   -0.0023 O   0  0  0  0  0  0  0  0  0  0  0  0
   -2.3962    1.4076   -0.0024 O   0  0  0  0  0  0  0  0  0  0  0  0
    0.0546    0.2680   -0.0004 N   0  0  0  0  0  0  0  0  0  0  0  0
   -3.4746   -0.6514    0.0010 N   0  0  0  0  0  0  0  0  0  0  0  0
   -4.7343   -0.0881    0.0032 N   0  0  0  0  0  0  0  0  0  0  0  0
    3.7759    0.3221    0.0011 N   0  0  0  0  0  0  0  0  0  0  0  0
    4.8047   -0.0149    0.0014 N   0  0  0  0  0  0  0  0  0  0  0  0
   -1.0814   -0.6201   -0.0005 C   0  0  0  0  0  0  0  0  0  0  0  0
   -2.3659    0.1793   -0.0017 C   0  0  0  0  0  0  0  0  0  0  0  0
    1.3807   -0.1084   -0.0005 C   0  0  0  0  0  0  0  0  0  0  0  0
    2.3913    0.7765    0.0009 C   0  0  0  0  0  0  0  0  0  0  0  0
  1 10  1  0
  2  9  2  0
  3  8  1  0
  3 10  1  0
  4  5  1  0
  4  9  1  0
  6  7  3  0
  6 11  1  0
  8  9  1  0
 10 11  2  0
M  CHG  1   6   1
M  END
>  <PUBCHEM_COMPOUND_CID>  (1) 
13179

>  <PUBCHEM_CONFORMER_RMSD>  (1) 
0.6

>  <PUBCHEM_CONFORMER_DIVERSEORDER>  (1) 
1
12
11
4
6
7
9
5
10
8
13
14
2
3

>  <PUBCHEM_MMFF94_PARTIAL_CHARGES>  (1) 
17
1 -0.53
10 0.18
11 -0.02
14 0.4
15 0.37
16 0.15
17 0.36
18 0.36
19 0.45
2 -0.57
3 -0.87
4 -0.42
5 -0.73
6 1.36
7 -0.49
8 0.43
9 0.57

>  <PUBCHEM_EFFECTIVE_ROTOR_COUNT>  (1) 
4

>  <PUBCHEM_PHARMACOPHORE_FEATURES>  (1) 
6
1 1 donor
1 2 acceptor
1 3 cation
1 3 donor
1 4 donor
1 5 donor

>  <PUBCHEM_HEAVY_ATOM_COUNT>  (1) 
11

>  <PUBCHEM_ATOM_DEF_STEREO_COUNT>  (1) 
0

>  <PUBCHEM_ATOM_UDEF_STEREO_COUNT>  (1) 
0

>  <PUBCHEM_BOND_DEF_STEREO_COUNT>  (1) 
0

>  <PUBCHEM_BOND_UDEF_STEREO_COUNT>  (1) 
1

>  <PUBCHEM_ISOTOPIC_ATOM_COUNT>  (1) 
0

>  <PUBCHEM_COMPONENT_COUNT>  (1) 
1

>  <PUBCHEM_CACTVS_TAUTO_COUNT>  (1) 
2

>  <PUBCHEM_CONFORMER_ID>  (1) 
0000337B00000001

>  <PUBCHEM_MMFF94_ENERGY>  (1) 
12.2209

>  <PUBCHEM_FEATURE_SELFOVERLAP>  (1) 
31.997

>  <PUBCHEM_SHAPE_FINGERPRINT>  (1) 
10219947 1 16153708726240658654
11062470 55 10737280251401555380
12932764 1 17203030920641408875
13380535 76 18408606971951130842
14123238 8 17489870457639236500
14325111 11 18410575046024197511
17834076 25 16515400772731463021
20279233 1 17676496038105100299
20645477 70 18339356345415925079
20719005 15 18410575089205992034
22485316 2 9943809976009372932
23402539 116 18410003360481914303
23402655 69 18341607080135275501
3248919 1 16878240679022646283
42788 4 18410855473039534884

>  <PUBCHEM_SHAPE_MULTIPOLES>  (1) 
189.73
8.68
1.04
0.55
0.57
0.02
0
-0.29
-0.01
-0.09
0
0
0
0

>  <PUBCHEM_SHAPE_SELFOVERLAP>  (1) 
361.032

>  <PUBCHEM_SHAPE_VOLUME>  (1) 
114.1

>  <PUBCHEM_COORDINATE_TYPE>  (1) 
2
5
10

$$$$
