13184
     RDKit          3D

  9  8  0  0  0  0  0  0  0  0999 V2000
    3.2748    1.4005   -0.7045 Cl  0  0  0  0  0  0  0  0  0  0  0  0
    3.1935   -1.5116   -0.5839 Cl  0  0  0  0  0  0  0  0  0  0  0  0
   -0.9788    0.0555    0.6699 C   0  0  0  0  0  0  0  0  0  0  0  0
    0.3713    0.0491   -0.0551 C   0  0  0  0  0  0  0  0  0  0  0  0
   -2.1416    0.0057   -0.3238 C   0  0  0  0  0  0  0  0  0  0  0  0
    1.5340    0.0581    0.9466 C   0  0  0  0  0  0  0  0  0  0  0  0
   -3.5149   -0.0134    0.3509 C   0  0  0  0  0  0  0  0  0  0  0  0
    2.9364   -0.0068    0.3328 C   0  0  0  0  0  0  0  0  0  0  0  0
   -4.6745   -0.0371   -0.6329 C   0  0  0  0  0  0  0  0  0  0  0  0
  1  8  1  0
  2  8  1  0
  3  4  1  0
  3  5  1  0
  4  6  1  0
  5  7  1  0
  6  8  1  0
  7  9  1  0
M  END
>  <PUBCHEM_COMPOUND_CID>  (1) 
13184

>  <PUBCHEM_CONFORMER_RMSD>  (1) 
0.6

>  <PUBCHEM_CONFORMER_DIVERSEORDER>  (1) 
1
82
81
77
24
80
2
67
76
21
85
75
6
59
79
51
84
37
68
42
72
35
61
19
38
23
73
88
30
25
65
12
62
63
13
3
69
70
34
5
48
46
64
18
57
4
52
27
87
89
28
58
86
41
60
26
16
66
9
56
36
29
39
71
7
40
44
49
78
55
74
50
47
32
33
17
15
22
83
11
45
20
43
31
14
53
10
8
54

>  <PUBCHEM_MMFF94_PARTIAL_CHARGES>  (1) 
3
1 -0.29
2 -0.29
8 0.58

>  <PUBCHEM_EFFECTIVE_ROTOR_COUNT>  (1) 
5

>  <PUBCHEM_PHARMACOPHORE_FEATURES>  (1) 
2
1 9 hydrophobe
5 3 4 5 6 7 hydrophobe

>  <PUBCHEM_HEAVY_ATOM_COUNT>  (1) 
9

>  <PUBCHEM_ATOM_DEF_STEREO_COUNT>  (1) 
0

>  <PUBCHEM_ATOM_UDEF_STEREO_COUNT>  (1) 
0

>  <PUBCHEM_BOND_DEF_STEREO_COUNT>  (1) 
0

>  <PUBCHEM_BOND_UDEF_STEREO_COUNT>  (1) 
0

>  <PUBCHEM_ISOTOPIC_ATOM_COUNT>  (1) 
0

>  <PUBCHEM_COMPONENT_COUNT>  (1) 
1

>  <PUBCHEM_CACTVS_TAUTO_COUNT>  (1) 
1

>  <PUBCHEM_CONFORMER_ID>  (1) 
0000338000000001

>  <PUBCHEM_MMFF94_ENERGY>  (1) 
-0.4161

>  <PUBCHEM_FEATURE_SELFOVERLAP>  (1) 
10.149

>  <PUBCHEM_SHAPE_FINGERPRINT>  (1) 
11062470 55 16950278512153435241
11987891 27 17418368086897937135
11987891 38 17918273151816394239
12932764 1 17275097332104900753
14251717 144 17988361472878361215
14325111 11 17988923366464467067
14390081 3 16950280719529378384
177051 138 17132115701968162254
18186145 218 17748828496969793817
190213 19 18409448089829719801
20606313 2 18040999578830762748
20645477 70 18412265004039362678
21293036 1 18259985989397770729
22485316 2 17561074817806005615
3248919 1 18411142437248122898
522135 26 18272933816772451086

>  <PUBCHEM_SHAPE_MULTIPOLES>  (1) 
188.96
8.65
1.13
0.95
7.25
0.08
0.04
0.12
-2.12
-1.63
-0.31
-0.17
-0.02
-0.05

>  <PUBCHEM_SHAPE_SELFOVERLAP>  (1) 
316.513

>  <PUBCHEM_SHAPE_VOLUME>  (1) 
127.5

>  <PUBCHEM_COORDINATE_TYPE>  (1) 
2
5
10

$$$$
