13183
     RDKit          3D

  6  5  0  0  0  0  0  0  0  0999 V2000
   -0.5353    0.3206   -0.0066 N   0  0  0  0  0  0  0  0  0  0  0  0
    0.5351   -0.3203   -0.0066 N   0  0  0  0  0  0  0  0  0  0  0  0
   -1.6958   -0.5682   -0.0063 C   0  0  0  0  0  0  0  0  0  0  0  0
    1.6960    0.5683   -0.0063 C   0  0  0  0  0  0  0  0  0  0  0  0
   -2.9592    0.2675    0.0129 C   0  0  0  0  0  0  0  0  0  0  0  0
    2.9592   -0.2679    0.0129 C   0  0  0  0  0  0  0  0  0  0  0  0
  1  2  2  0
  1  3  1  0
  2  4  1  0
  3  5  1  0
  4  6  1  0
M  END
>  <PUBCHEM_COMPOUND_CID>  (1) 
13183

>  <PUBCHEM_CONFORMER_RMSD>  (1) 
0.4

>  <PUBCHEM_CONFORMER_DIVERSEORDER>  (1) 
1
7
5
9
10
4
6
2
3
8

>  <PUBCHEM_MMFF94_PARTIAL_CHARGES>  (1) 
4
1 -0.25
2 -0.25
3 0.25
4 0.25

>  <PUBCHEM_EFFECTIVE_ROTOR_COUNT>  (1) 
2

>  <PUBCHEM_PHARMACOPHORE_FEATURES>  (1) 
0

>  <PUBCHEM_HEAVY_ATOM_COUNT>  (1) 
6

>  <PUBCHEM_ATOM_DEF_STEREO_COUNT>  (1) 
0

>  <PUBCHEM_ATOM_UDEF_STEREO_COUNT>  (1) 
0

>  <PUBCHEM_BOND_DEF_STEREO_COUNT>  (1) 
0

>  <PUBCHEM_BOND_UDEF_STEREO_COUNT>  (1) 
0

>  <PUBCHEM_ISOTOPIC_ATOM_COUNT>  (1) 
0

>  <PUBCHEM_COMPONENT_COUNT>  (1) 
1

>  <PUBCHEM_CACTVS_TAUTO_COUNT>  (1) 
1

>  <PUBCHEM_CONFORMER_ID>  (1) 
0000337F00000001

>  <PUBCHEM_MMFF94_ENERGY>  (1) 
-2.4237

>  <PUBCHEM_FEATURE_SELFOVERLAP>  (1) 
0

>  <PUBCHEM_SHAPE_FINGERPRINT>  (1) 
14390081 3 18273210915393992497
16714656 1 18333730221493235277
29004967 10 14836130978438742622
5460574 1 9295291642183417860

>  <PUBCHEM_SHAPE_MULTIPOLES>  (1) 
113.52
4.88
0.76
0.59
0
0
0
0
0.03
0
0
0
0
-0.01

>  <PUBCHEM_SHAPE_SELFOVERLAP>  (1) 
192.491

>  <PUBCHEM_SHAPE_VOLUME>  (1) 
77.6

>  <PUBCHEM_COORDINATE_TYPE>  (1) 
2
5
10

$$$$
