13188
     RDKit          3D

 10  9  0  0  0  0  0  0  0  0999 V2000
    4.5595   -1.2234    0.6200 Cl  0  0  0  0  0  0  0  0  0  0  0  0
   -4.4453    0.4862    0.2770 O   0  0  0  0  0  0  0  0  0  0  0  0
   -3.3157   -1.3681   -0.3886 O   0  0  0  0  0  0  0  0  0  0  0  0
    0.4414    0.7465    0.1120 C   0  0  0  0  0  0  0  0  0  0  0  0
    1.7237   -0.0063   -0.2501 C   0  0  0  0  0  0  0  0  0  0  0  0
   -0.7950   -0.1295   -0.0935 C   0  0  0  0  0  0  0  0  0  0  0  0
    2.9559    0.8884   -0.0859 C   0  0  0  0  0  0  0  0  0  0  0  0
   -2.0776    0.6324    0.2366 C   0  0  0  0  0  0  0  0  0  0  0  0
    4.2639    0.1824   -0.4286 C   0  0  0  0  0  0  0  0  0  0  0  0
   -3.3108   -0.2088    0.0010 C   0  0  0  0  0  0  0  0  0  0  0  0
  1  9  1  0
  2 10  1  0
  3 10  2  0
  4  5  1  0
  4  6  1  0
  5  7  1  0
  6  8  1  0
  7  9  1  0
  8 10  1  0
M  END
>  <PUBCHEM_COMPOUND_CID>  (1) 
13188

>  <PUBCHEM_CONFORMER_RMSD>  (1) 
0.6

>  <PUBCHEM_CONFORMER_DIVERSEORDER>  (1) 
1
164
72
33
11
160
87
159
48
47
74
61
10
117
162
134
3
147
59
30
44
88
16
66
54
163
144
24
67
100
12
142
103
161
56
152
158
57
76
2
64
133
37
75
118
102
151
25
157
34
52
128
51
165
148
138
27
85
97
80
105
21
123
62
45
108
36
60
135
68
63
46
130
96
69
14
166
149
121
91
131
106
19
129
86
141
31
32
79
116
17
26
70
43
155
18
119
73
93
40
29
15
124
77
23
114
38
22
154
84
92
104
122
71
94
42
49
98
82
150
65
143
111
101
90
78
4
140
112
53
81
5
109
28
13
137
55
50
95
145
35
139
156
89
58
110
20
39
146
41
126
99
127
113
8
83
6
153
9
7
136
125
107
115
132
120

>  <PUBCHEM_MMFF94_PARTIAL_CHARGES>  (1) 
7
1 -0.29
10 0.66
2 -0.65
23 0.5
3 -0.57
8 0.06
9 0.29

>  <PUBCHEM_EFFECTIVE_ROTOR_COUNT>  (1) 
6

>  <PUBCHEM_PHARMACOPHORE_FEATURES>  (1) 
4
1 2 acceptor
1 3 acceptor
3 2 3 10 anion
5 4 5 6 7 8 hydrophobe

>  <PUBCHEM_HEAVY_ATOM_COUNT>  (1) 
10

>  <PUBCHEM_ATOM_DEF_STEREO_COUNT>  (1) 
0

>  <PUBCHEM_ATOM_UDEF_STEREO_COUNT>  (1) 
0

>  <PUBCHEM_BOND_DEF_STEREO_COUNT>  (1) 
0

>  <PUBCHEM_BOND_UDEF_STEREO_COUNT>  (1) 
0

>  <PUBCHEM_ISOTOPIC_ATOM_COUNT>  (1) 
0

>  <PUBCHEM_COMPONENT_COUNT>  (1) 
1

>  <PUBCHEM_CACTVS_TAUTO_COUNT>  (1) 
1

>  <PUBCHEM_CONFORMER_ID>  (1) 
0000338400000001

>  <PUBCHEM_MMFF94_ENERGY>  (1) 
1.8637

>  <PUBCHEM_FEATURE_SELFOVERLAP>  (1) 
20.355

>  <PUBCHEM_SHAPE_FINGERPRINT>  (1) 
11062470 55 18408888451101099677
11987891 27 18409163320708168574
11987891 38 18408324380446180658
12932764 1 14346068793215554009
13690532 89 18333731308294099370
14123238 8 10303809882436332880
14251717 144 18187080616582960074
14325111 11 18341614849282675341
177051 138 18411981334966846626
17834072 33 18408325510491876676
17834076 25 12973602226996619301
18186145 218 15647053793556956212
190213 19 16774083976846279916
20279233 1 16988851583337117213
20645477 70 17240765052164548418
20719005 15 18410857667741364941
20828058 44 18060419122760932470
22485316 2 18411134753546368172
23402539 116 18272927215508178061
42 15 18411980243823561914
573450 72 18342453712214244059

>  <PUBCHEM_SHAPE_MULTIPOLES>  (1) 
195.93
10.05
1.12
0.7
0.67
0.26
-0.01
2.21
-0.48
0.4
-0.03
0.21
0.04
-0.63

>  <PUBCHEM_SHAPE_SELFOVERLAP>  (1) 
347.334

>  <PUBCHEM_SHAPE_VOLUME>  (1) 
127.7

>  <PUBCHEM_COORDINATE_TYPE>  (1) 
2
5
10

$$$$
