13189
     RDKit          3D

 11 10  0  0  0  0  0  0  0  0999 V2000
    4.2804    1.5716   -0.6030 Cl  0  0  0  0  0  0  0  0  0  0  0  0
    4.4020   -1.3119   -0.9273 Cl  0  0  0  0  0  0  0  0  0  0  0  0
   -0.9435   -0.0671   -0.2095 C   0  0  0  0  0  0  0  0  0  0  0  0
    0.2380   -0.1046    0.7624 C   0  0  0  0  0  0  0  0  0  0  0  0
   -2.2785   -0.0755    0.5372 C   0  0  0  0  0  0  0  0  0  0  0  0
    1.5721   -0.0588    0.0144 C   0  0  0  0  0  0  0  0  0  0  0  0
   -3.4591   -0.0050   -0.4327 C   0  0  0  0  0  0  0  0  0  0  0  0
    2.7943   -0.0975    0.9416 C   0  0  0  0  0  0  0  0  0  0  0  0
   -4.7920    0.0202    0.3150 C   0  0  0  0  0  0  0  0  0  0  0  0
    4.1536    0.0049    0.2462 C   0  0  0  0  0  0  0  0  0  0  0  0
   -5.9672    0.1238   -0.6442 C   0  0  0  0  0  0  0  0  0  0  0  0
  1 10  1  0
  2 10  1  0
  3  4  1  0
  3  5  1  0
  4  6  1  0
  5  7  1  0
  6  8  1  0
  7  9  1  0
  8 10  1  0
  9 11  1  0
M  END
>  <PUBCHEM_COMPOUND_CID>  (1) 
13189

>  <PUBCHEM_CONFORMER_RMSD>  (1) 
0.6

>  <PUBCHEM_CONFORMER_DIVERSEORDER>  (1) 
1
332
180
420
299
257
222
429
21
160
2
146
433
189
49
3
296
26
374
192
376
363
98
285
40
197
454
411
33
188
184
4
157
370
77
428
261
94
182
135
50
234
360
203
7
151
206
288
97
361
426
120
30
461
282
20
71
412
92
110
278
100
161
439
415
423
383
208
41
262
131
45
421
218
193
449
66
93
5
372
274
199
150
125
369
339
324
386
229
176
112
68
162
11
12
172
96
140
294
153
9
62
419
375
121
304
460
217
147
238
60
190
113
16
6
352
457
214
317
171
108
54
331
169
371
301
327
84
187
59
43
210
399
258
163
142
158
55
459
250
201
303
284
13
177
223
149
198
117
53
268
88
435
155
35
213
207
212
359
216
145
309
389
164
46
219
366
265
338
462
111
105
82
432
57
249
272
448
281
446
18
400
103
73
393
159
61
31
231
237
115
175
34
437
15
183
109
266
373
27
225
166
318
8
152
263
260
173
10
409
240
413
72
114
379
141
336
130
28
367
280
297
51
24
154
382
455
74
397
170
89
384
292
226
422
248
65
174
90
291
227
405
23
118
293
364
200
78
404
194
247
434
195
394
387
275
255
302
458
63
313
321
224
64
42
254
325
444
32
452
67
355
273
119
341
245
286
396
85
320
451
235
392
106
39
333
211
300
264
312
185
322
290
178
315
417
236
256
37
279
277
99
124
418
253
269
87
345
456
276
410
52
362
137
447
337
205
81
295
346
47
204
228
107
128
441
232
191
402
287
440
83
252
129
430
343
450
134
416
347
244
354
17
179
132
443
319
243
340
445
335
390
102
136
357
80
91
56
283
233
270
348
79
377
156
316
144
311
69
133
442
221
127
220
307
289
186
306
101
230
310
86
271
25
241
401
76
298
196
305
328
36
104
251
22
403
209
342
353
242
408
116
314
246
70
368
381
356
38
330
19
344
181
138
378
425
14
168
414
148
267
44
351
167
29
350
365
407
406
95
139
349
48
380
58
438
202
165
453
427
329
326
395
308
122
388
391
259
215
431
323
126
463
75
143
239
123
436
358
398
334
385
424

>  <PUBCHEM_MMFF94_PARTIAL_CHARGES>  (1) 
3
1 -0.29
10 0.58
2 -0.29

>  <PUBCHEM_EFFECTIVE_ROTOR_COUNT>  (1) 
7

>  <PUBCHEM_PHARMACOPHORE_FEATURES>  (1) 
1
1 11 hydrophobe

>  <PUBCHEM_HEAVY_ATOM_COUNT>  (1) 
11

>  <PUBCHEM_ATOM_DEF_STEREO_COUNT>  (1) 
0

>  <PUBCHEM_ATOM_UDEF_STEREO_COUNT>  (1) 
0

>  <PUBCHEM_BOND_DEF_STEREO_COUNT>  (1) 
0

>  <PUBCHEM_BOND_UDEF_STEREO_COUNT>  (1) 
0

>  <PUBCHEM_ISOTOPIC_ATOM_COUNT>  (1) 
0

>  <PUBCHEM_COMPONENT_COUNT>  (1) 
1

>  <PUBCHEM_CACTVS_TAUTO_COUNT>  (1) 
1

>  <PUBCHEM_CONFORMER_ID>  (1) 
0000338500000001

>  <PUBCHEM_MMFF94_ENERGY>  (1) 
-0.6027

>  <PUBCHEM_FEATURE_SELFOVERLAP>  (1) 
5.074

>  <PUBCHEM_SHAPE_FINGERPRINT>  (1) 
11287383 113 18187649140981438075
13081056 2 17894628149638887516
14123238 8 18342455950361657889
14251718 22 18261673766017409499
15242439 84 17894635850689212074
17834072 33 18339922718389020781
17834076 25 18259982673936173811
20281389 69 16805594825575376117
20645477 70 18130792213968097038
20719005 15 15554446301615754731
20767249 13 14836402527941152527
22485316 2 16917342653911906318
23402539 116 9655577397029795779
42788 4 17748824116430063089
522135 26 18060138739259672946
5374978 207 16081078286523625872
57483677 66 16630519644465289799

>  <PUBCHEM_SHAPE_MULTIPOLES>  (1) 
230.11
13.62
1.04
0.97
11.61
0.12
-0.01
0.51
3.33
-1.77
0.3
-0.36
-0.04
0.11

>  <PUBCHEM_SHAPE_SELFOVERLAP>  (1) 
392.846

>  <PUBCHEM_SHAPE_VOLUME>  (1) 
152.9

>  <PUBCHEM_COORDINATE_TYPE>  (1) 
2
5
10

$$$$
