13196
     RDKit          3D

  6  6  0  0  0  0  0  0  0  0999 V2000
   -0.0716   -1.4637   -0.1396 S   0  0  0  0  0  0  0  0  0  0  0  0
   -0.0716    1.4635    0.1400 S   0  0  0  0  0  0  0  0  0  0  0  0
    2.5628    0.0000   -0.0005 S   0  0  0  0  0  0  0  0  0  0  0  0
   -1.6568   -0.6980    0.2929 C   0  0  0  0  0  0  0  0  0  0  0  0
   -1.6566    0.6982   -0.2934 C   0  0  0  0  0  0  0  0  0  0  0  0
    0.8938   -0.0001    0.0006 C   0  0  0  0  0  0  0  0  0  0  0  0
  1  4  1  0
  1  6  1  0
  2  5  1  0
  2  6  1  0
  3  6  2  0
  4  5  1  0
M  END
>  <PUBCHEM_COMPOUND_CID>  (1) 
13196

>  <PUBCHEM_CONFORMER_RMSD>  (1) 
0.4

>  <PUBCHEM_CONFORMER_DIVERSEORDER>  (1) 
1

>  <PUBCHEM_MMFF94_PARTIAL_CHARGES>  (1) 
6
1 -0.37
2 -0.37
3 -0.38
4 0.23
5 0.23
6 0.66

>  <PUBCHEM_EFFECTIVE_ROTOR_COUNT>  (1) 
0.8

>  <PUBCHEM_PHARMACOPHORE_FEATURES>  (1) 
2
1 3 acceptor
5 1 2 4 5 6 rings

>  <PUBCHEM_HEAVY_ATOM_COUNT>  (1) 
6

>  <PUBCHEM_ATOM_DEF_STEREO_COUNT>  (1) 
0

>  <PUBCHEM_ATOM_UDEF_STEREO_COUNT>  (1) 
0

>  <PUBCHEM_BOND_DEF_STEREO_COUNT>  (1) 
0

>  <PUBCHEM_BOND_UDEF_STEREO_COUNT>  (1) 
0

>  <PUBCHEM_ISOTOPIC_ATOM_COUNT>  (1) 
0

>  <PUBCHEM_COMPONENT_COUNT>  (1) 
1

>  <PUBCHEM_CACTVS_TAUTO_COUNT>  (1) 
1

>  <PUBCHEM_CONFORMER_ID>  (1) 
0000338C00000001

>  <PUBCHEM_MMFF94_ENERGY>  (1) 
0.4527

>  <PUBCHEM_FEATURE_SELFOVERLAP>  (1) 
10.148

>  <PUBCHEM_SHAPE_FINGERPRINT>  (1) 
16714656 1 18411140246725117782
18185500 45 18264205979555224866
20096714 4 18410009909927251718
21040471 1 18266176141030435444
23552423 10 18188215308124158062
29004967 10 16487259867661123422
5460574 1 9511465519782906978

>  <PUBCHEM_SHAPE_MULTIPOLES>  (1) 
135.03
2.8
1.58
0.69
1.41
0
0
0
0
-0.33
0
-0.02
0
0.1

>  <PUBCHEM_SHAPE_SELFOVERLAP>  (1) 
225.028

>  <PUBCHEM_SHAPE_VOLUME>  (1) 
90

>  <PUBCHEM_COORDINATE_TYPE>  (1) 
2
5
10

$$$$
