13191
     RDKit          3D

 11 10  0  0  0  0  0  0  0  0999 V2000
   -5.3541   -1.2134   -0.8718 Cl  0  0  0  0  0  0  0  0  0  0  0  0
    5.3896   -1.0939    0.9041 Cl  0  0  0  0  0  0  0  0  0  0  0  0
   -0.0012   -0.1338    0.1124 C   0  0  0  0  0  0  0  0  0  0  0  0
   -1.2582    0.7407    0.0981 C   0  0  0  0  0  0  0  0  0  0  0  0
    1.2573    0.7019   -0.1329 C   0  0  0  0  0  0  0  0  0  0  0  0
   -2.5200   -0.0997    0.3066 C   0  0  0  0  0  0  0  0  0  0  0  0
    2.5388   -0.1354   -0.2001 C   0  0  0  0  0  0  0  0  0  0  0  0
   -3.8110    0.7276    0.3065 C   0  0  0  0  0  0  0  0  0  0  0  0
    3.7998    0.7055   -0.4247 C   0  0  0  0  0  0  0  0  0  0  0  0
   -5.1068   -0.0633    0.4611 C   0  0  0  0  0  0  0  0  0  0  0  0
    5.0659   -0.1361   -0.5592 C   0  0  0  0  0  0  0  0  0  0  0  0
  1 10  1  0
  2 11  1  0
  3  4  1  0
  3  5  1  0
  4  6  1  0
  5  7  1  0
  6  8  1  0
  7  9  1  0
  8 10  1  0
  9 11  1  0
M  END
>  <PUBCHEM_COMPOUND_CID>  (1) 
13191

>  <PUBCHEM_CONFORMER_RMSD>  (1) 
0.8

>  <PUBCHEM_CONFORMER_DIVERSEORDER>  (1) 
1
64
83
2
84
119
10
54
106
145
37
41
89
5
74
126
3
115
23
43
42
44
124
29
21
140
61
77
71
153
4
85
97
117
80
76
150
45
35
109
20
121
138
108
55
53
105
93
8
22
134
113
51
31
146
7
15
99
52
60
123
110
133
9
39
129
57
78
136
101
135
81
102
34
122
59
147
69
118
11
98
88
114
151
95
16
82
36
48
26
142
141
111
14
66
127
120
49
152
154
13
148
128
132
40
30
70
125
56
107
19
131
96
32
137
38
62
139
104
12
47
17
87
58
112
50
75
86
130
46
25
100
27
143
149
65
67
116
24
63
91
94
103
73
6
144
18
90
79
72
68
155
92
33
28

>  <PUBCHEM_MMFF94_PARTIAL_CHARGES>  (1) 
4
1 -0.29
10 0.29
11 0.29
2 -0.29

>  <PUBCHEM_EFFECTIVE_ROTOR_COUNT>  (1) 
8

>  <PUBCHEM_PHARMACOPHORE_FEATURES>  (1) 
0

>  <PUBCHEM_HEAVY_ATOM_COUNT>  (1) 
11

>  <PUBCHEM_ATOM_DEF_STEREO_COUNT>  (1) 
0

>  <PUBCHEM_ATOM_UDEF_STEREO_COUNT>  (1) 
0

>  <PUBCHEM_BOND_DEF_STEREO_COUNT>  (1) 
0

>  <PUBCHEM_BOND_UDEF_STEREO_COUNT>  (1) 
0

>  <PUBCHEM_ISOTOPIC_ATOM_COUNT>  (1) 
0

>  <PUBCHEM_COMPONENT_COUNT>  (1) 
1

>  <PUBCHEM_CACTVS_TAUTO_COUNT>  (1) 
1

>  <PUBCHEM_CONFORMER_ID>  (1) 
0000338700000001

>  <PUBCHEM_MMFF94_ENERGY>  (1) 
-0.2376

>  <PUBCHEM_FEATURE_SELFOVERLAP>  (1) 
0

>  <PUBCHEM_SHAPE_FINGERPRINT>  (1) 
100836 57 8502375546315800351
10912923 1 18341902891338423208
11287383 113 16630242584350877866
117890 112 7925915871970150942
13533116 47 18261390019293208578
13690532 89 18259987067624498512
13862211 1 18410008836175060130
14123238 8 18410859862485561988
1420 363 16200156503549040095
14251718 22 18059858389036918661
15242439 84 15502377832965250208
15501527 16 8430322337893285759
17834072 33 18411138056091336718
17834072 8 15647051559999778386
17834076 25 8214142949576358224
18342897 14 8070028856833188055
20621476 66 11098120142807657199
20645477 70 17676205728686759890
20719005 15 18411704283242091364
20767249 13 18410575084673654416
23402539 116 18410572877609305077
42788 4 18408889533337912685
449060 50 12895072907723544480
49783359 22 17989205953985595399
522135 26 17313107445620744284
57483677 66 18343021077389030566

>  <PUBCHEM_SHAPE_MULTIPOLES>  (1) 
230.11
14.9
1.07
0.86
0.02
0.17
0
4.78
-0.17
0.15
-0.02
-0.1
0.15
-1.18

>  <PUBCHEM_SHAPE_SELFOVERLAP>  (1) 
390.45

>  <PUBCHEM_SHAPE_VOLUME>  (1) 
154

>  <PUBCHEM_COORDINATE_TYPE>  (1) 
2
5
10

$$$$
