13207
     RDKit          3D

  9  9  0  0  0  0  0  0  0  0999 V2000
   -2.1275    0.8443   -0.9400 O   0  0  0  0  0  0  0  0  0  0  0  0
   -0.3385   -0.0552    0.3586 C   0  0  0  0  0  0  0  0  0  0  0  0
    0.4165    1.2657    0.1516 C   0  0  0  0  0  0  0  0  0  0  0  0
    0.3332   -1.1944   -0.4214 C   0  0  0  0  0  0  0  0  0  0  0  0
    1.8968    1.1312    0.5028 C   0  0  0  0  0  0  0  0  0  0  0  0
    1.8139   -1.3235   -0.0694 C   0  0  0  0  0  0  0  0  0  0  0  0
    2.5570   -0.0066   -0.2690 C   0  0  0  0  0  0  0  0  0  0  0  0
   -1.7778    0.0860   -0.0368 C   0  0  0  0  0  0  0  0  0  0  0  0
   -2.7735   -0.7475    0.7236 C   0  0  0  0  0  0  0  0  0  0  0  0
  1  8  2  0
  2  3  1  0
  2  4  1  0
  2  8  1  0
  3  5  1  0
  4  6  1  0
  5  7  1  0
  6  7  1  0
  8  9  1  0
M  END
>  <PUBCHEM_COMPOUND_CID>  (1) 
13207

>  <PUBCHEM_CONFORMER_RMSD>  (1) 
0.4

>  <PUBCHEM_CONFORMER_DIVERSEORDER>  (1) 
1
9
17
16
6
14
15
5
7
2
8
3
18
4
20
22
11
25
10
28
13
23
24
12
27
26
19
21

>  <PUBCHEM_MMFF94_PARTIAL_CHARGES>  (1) 
4
1 -0.57
2 0.06
8 0.45
9 0.06

>  <PUBCHEM_EFFECTIVE_ROTOR_COUNT>  (1) 
2.2

>  <PUBCHEM_PHARMACOPHORE_FEATURES>  (1) 
2
1 1 acceptor
6 2 3 4 5 6 7 rings

>  <PUBCHEM_HEAVY_ATOM_COUNT>  (1) 
9

>  <PUBCHEM_ATOM_DEF_STEREO_COUNT>  (1) 
0

>  <PUBCHEM_ATOM_UDEF_STEREO_COUNT>  (1) 
0

>  <PUBCHEM_BOND_DEF_STEREO_COUNT>  (1) 
0

>  <PUBCHEM_BOND_UDEF_STEREO_COUNT>  (1) 
0

>  <PUBCHEM_ISOTOPIC_ATOM_COUNT>  (1) 
0

>  <PUBCHEM_COMPONENT_COUNT>  (1) 
1

>  <PUBCHEM_CACTVS_TAUTO_COUNT>  (1) 
3

>  <PUBCHEM_CONFORMER_ID>  (1) 
0000339700000001

>  <PUBCHEM_MMFF94_ENERGY>  (1) 
6.2677

>  <PUBCHEM_FEATURE_SELFOVERLAP>  (1) 
10.148

>  <PUBCHEM_SHAPE_FINGERPRINT>  (1) 
10857977 72 18041281075150031699
12716758 59 17749947735413917995
12897270 3 18410573959434453516
12932741 1 18260543403312420871
12932764 1 18408324388767018371
14325111 11 18340770432968838761
15310529 11 17894914039931486614
16945 1 18273493472707482970
19973954 147 18334858294543123669
20201158 50 18408886217781487291
21040471 1 18269550722958114832
21293036 1 18340221768593524444
23235685 24 18272090560337330304
23552423 10 18187370870018778994
2748010 2 18411416172498632588
29004967 10 18412266116451164410
5084963 1 18260274074234184880

>  <PUBCHEM_SHAPE_MULTIPOLES>  (1) 
179.35
3.81
1.42
0.81
1.12
0.06
-0.03
0.23
0.2
-0.49
-0.01
0.26
-0.05
0.43

>  <PUBCHEM_SHAPE_SELFOVERLAP>  (1) 
347.696

>  <PUBCHEM_SHAPE_VOLUME>  (1) 
108

>  <PUBCHEM_COORDINATE_TYPE>  (1) 
2
5
10

$$$$
