13200
     RDKit          3D

  8  9  0  0  0  0  0  0  0  0999 V2000
    2.0625   -0.6656    0.0051 O   0  0  0  0  0  0  0  0  0  0  0  0
    0.6593   -0.8566    0.0109 C   0  0  0  0  0  0  0  0  0  0  0  0
   -0.0847   -0.0949    1.1204 C   0  0  0  0  0  0  0  0  0  0  0  0
   -0.0753   -0.1122   -1.1170 C   0  0  0  0  0  0  0  0  0  0  0  0
    0.2074    1.3275    0.6655 C   0  0  0  0  0  0  0  0  0  0  0  0
   -1.4941   -0.4524    0.6735 C   0  0  0  0  0  0  0  0  0  0  0  0
    0.2133    1.3170   -0.6820 C   0  0  0  0  0  0  0  0  0  0  0  0
   -1.4884   -0.4629   -0.6763 C   0  0  0  0  0  0  0  0  0  0  0  0
  1  2  1  0
  2  3  1  0
  2  4  1  0
  3  5  1  0
  3  6  1  0
  4  7  1  0
  4  8  1  0
  5  7  2  0
  6  8  2  0
M  END
>  <PUBCHEM_COMPOUND_CID>  (1) 
13200

>  <PUBCHEM_CONFORMER_RMSD>  (1) 
0.4

>  <PUBCHEM_CONFORMER_DIVERSEORDER>  (1) 
1

>  <PUBCHEM_MMFF94_PARTIAL_CHARGES>  (1) 
13
1 -0.68
12 0.15
13 0.15
14 0.15
15 0.15
16 0.4
2 0.28
3 0.28
4 0.28
5 -0.29
6 -0.29
7 -0.29
8 -0.29

>  <PUBCHEM_EFFECTIVE_ROTOR_COUNT>  (1) 
0.2

>  <PUBCHEM_PHARMACOPHORE_FEATURES>  (1) 
3
1 1 acceptor
1 1 donor
7 2 3 4 5 6 7 8 rings

>  <PUBCHEM_HEAVY_ATOM_COUNT>  (1) 
8

>  <PUBCHEM_ATOM_DEF_STEREO_COUNT>  (1) 
0

>  <PUBCHEM_ATOM_UDEF_STEREO_COUNT>  (1) 
0

>  <PUBCHEM_BOND_DEF_STEREO_COUNT>  (1) 
0

>  <PUBCHEM_BOND_UDEF_STEREO_COUNT>  (1) 
0

>  <PUBCHEM_ISOTOPIC_ATOM_COUNT>  (1) 
0

>  <PUBCHEM_COMPONENT_COUNT>  (1) 
1

>  <PUBCHEM_CACTVS_TAUTO_COUNT>  (1) 
1

>  <PUBCHEM_CONFORMER_ID>  (1) 
0000339000000001

>  <PUBCHEM_MMFF94_ENERGY>  (1) 
50.2748

>  <PUBCHEM_FEATURE_SELFOVERLAP>  (1) 
15.223

>  <PUBCHEM_SHAPE_FINGERPRINT>  (1) 
12423570 1 13917333818993872173
13024252 1 17387708106399710930
137420 1 10228995778345660115
16945 1 18267021661219438881
21040471 1 17545884188331414949
29004967 10 18335140903359357106
369184 2 18190449468559763474
5943 1 15510610898735012665

>  <PUBCHEM_SHAPE_MULTIPOLES>  (1) 
158.77
1.65
1.24
1.17
0.06
0.33
0
-0.5
0
-0.38
0
0.15
0.08
-0.01

>  <PUBCHEM_SHAPE_SELFOVERLAP>  (1) 
351.533

>  <PUBCHEM_SHAPE_VOLUME>  (1) 
89.5

>  <PUBCHEM_COORDINATE_TYPE>  (1) 
2
5
10

$$$$
