13205
     RDKit          3D

  9  9  0  0  0  0  0  0  0  0999 V2000
   -2.4418   -0.7559    0.0000 N   0  0  0  0  0  0  0  0  0  0  0  0
    2.4421   -0.7554    0.0000 N   0  0  0  0  0  0  0  0  0  0  0  0
    0.0000   -0.7659    0.0000 C   0  0  0  0  0  0  0  0  0  0  0  0
   -1.2080   -0.0685    0.0000 C   0  0  0  0  0  0  0  0  0  0  0  0
    1.2080   -0.0683    0.0000 C   0  0  0  0  0  0  0  0  0  0  0  0
    0.0002   -2.2632    0.0000 C   0  0  0  0  0  0  0  0  0  0  0  0
   -1.2081    1.3265    0.0000 C   0  0  0  0  0  0  0  0  0  0  0  0
    1.2078    1.3267    0.0000 C   0  0  0  0  0  0  0  0  0  0  0  0
   -0.0002    2.0240    0.0000 C   0  0  0  0  0  0  0  0  0  0  0  0
  1  4  1  0
  2  5  1  0
  3  4  2  0
  3  5  1  0
  3  6  1  0
  4  7  1  0
  5  8  2  0
  7  9  2  0
  8  9  1  0
M  END
>  <PUBCHEM_COMPOUND_CID>  (1) 
13205

>  <PUBCHEM_CONFORMER_RMSD>  (1) 
0.4

>  <PUBCHEM_CONFORMER_DIVERSEORDER>  (1) 
1

>  <PUBCHEM_MMFF94_PARTIAL_CHARGES>  (1) 
16
1 -0.9
13 0.15
14 0.15
15 0.15
16 0.4
17 0.4
18 0.4
19 0.4
2 -0.9
3 -0.14
4 0.1
5 0.1
6 0.14
7 -0.15
8 -0.15
9 -0.15

>  <PUBCHEM_EFFECTIVE_ROTOR_COUNT>  (1) 
0

>  <PUBCHEM_PHARMACOPHORE_FEATURES>  (1) 
5
1 1 cation
1 1 donor
1 2 cation
1 2 donor
6 3 4 5 7 8 9 rings

>  <PUBCHEM_HEAVY_ATOM_COUNT>  (1) 
9

>  <PUBCHEM_ATOM_DEF_STEREO_COUNT>  (1) 
0

>  <PUBCHEM_ATOM_UDEF_STEREO_COUNT>  (1) 
0

>  <PUBCHEM_BOND_DEF_STEREO_COUNT>  (1) 
0

>  <PUBCHEM_BOND_UDEF_STEREO_COUNT>  (1) 
0

>  <PUBCHEM_ISOTOPIC_ATOM_COUNT>  (1) 
0

>  <PUBCHEM_COMPONENT_COUNT>  (1) 
1

>  <PUBCHEM_CACTVS_TAUTO_COUNT>  (1) 
1

>  <PUBCHEM_CONFORMER_ID>  (1) 
0000339500000001

>  <PUBCHEM_MMFF94_ENERGY>  (1) 
46.8391

>  <PUBCHEM_FEATURE_SELFOVERLAP>  (1) 
25.371

>  <PUBCHEM_SHAPE_FINGERPRINT>  (1) 
16945 1 9221787090869989796
18185500 45 9151170943696306169
193761 8 9292807841184692554
21040471 1 9223227451149654244
23552423 10 10300774182371871825
241688 4 9289455430168436765
2748010 2 9079115574430540040
29004967 10 10519715526311442327

>  <PUBCHEM_SHAPE_MULTIPOLES>  (1) 
175.25
2.34
2.26
0.6
0
0.14
0
0.43
0
0
0
0
-0.01
0

>  <PUBCHEM_SHAPE_SELFOVERLAP>  (1) 
363.735

>  <PUBCHEM_SHAPE_VOLUME>  (1) 
101.2

>  <PUBCHEM_COORDINATE_TYPE>  (1) 
2
5
10

$$$$
