13213
     RDKit          3D

 10 11  0  0  0  0  0  0  0  0999 V2000
   -2.1776   -0.0001    0.2689 C   0  0  0  0  0  0  0  0  0  0  0  0
   -1.2829   -1.2363    0.5149 C   0  0  0  0  0  0  0  0  0  0  0  0
   -1.2831    1.2360    0.5153 C   0  0  0  0  0  0  0  0  0  0  0  0
    0.0794   -0.6993    0.2048 C   0  0  0  0  0  0  0  0  0  0  0  0
    0.0793    0.6993    0.2047 C   0  0  0  0  0  0  0  0  0  0  0  0
   -2.7481    0.0002   -1.1542 C   0  0  0  0  0  0  0  0  0  0  0  0
    1.2445   -1.4136   -0.0192 C   0  0  0  0  0  0  0  0  0  0  0  0
    1.2444    1.4136   -0.0192 C   0  0  0  0  0  0  0  0  0  0  0  0
    2.4221   -0.7018   -0.2579 C   0  0  0  0  0  0  0  0  0  0  0  0
    2.4220    0.7019   -0.2580 C   0  0  0  0  0  0  0  0  0  0  0  0
  1  2  1  0
  1  3  1  0
  1  6  1  0
  2  4  1  0
  3  5  1  0
  4  5  2  0
  4  7  1  0
  5  8  1  0
  7  9  2  0
  8 10  2  0
  9 10  1  0
M  END
>  <PUBCHEM_COMPOUND_CID>  (1) 
13213

>  <PUBCHEM_CONFORMER_RMSD>  (1) 
0.4

>  <PUBCHEM_CONFORMER_DIVERSEORDER>  (1) 
2
1

>  <PUBCHEM_MMFF94_PARTIAL_CHARGES>  (1) 
12
10 -0.15
19 0.15
2 0.14
20 0.15
21 0.15
22 0.15
3 0.14
4 -0.14
5 -0.14
7 -0.15
8 -0.15
9 -0.15

>  <PUBCHEM_EFFECTIVE_ROTOR_COUNT>  (1) 
0.6

>  <PUBCHEM_PHARMACOPHORE_FEATURES>  (1) 
2
5 1 2 3 4 5 rings
6 4 5 7 8 9 10 rings

>  <PUBCHEM_HEAVY_ATOM_COUNT>  (1) 
10

>  <PUBCHEM_ATOM_DEF_STEREO_COUNT>  (1) 
0

>  <PUBCHEM_ATOM_UDEF_STEREO_COUNT>  (1) 
0

>  <PUBCHEM_BOND_DEF_STEREO_COUNT>  (1) 
0

>  <PUBCHEM_BOND_UDEF_STEREO_COUNT>  (1) 
0

>  <PUBCHEM_ISOTOPIC_ATOM_COUNT>  (1) 
0

>  <PUBCHEM_COMPONENT_COUNT>  (1) 
1

>  <PUBCHEM_CACTVS_TAUTO_COUNT>  (1) 
1

>  <PUBCHEM_CONFORMER_ID>  (1) 
0000339D00000002

>  <PUBCHEM_MMFF94_ENERGY>  (1) 
25.4038

>  <PUBCHEM_FEATURE_SELFOVERLAP>  (1) 
10.23

>  <PUBCHEM_SHAPE_FINGERPRINT>  (1) 
11206711 2 18337114445137470644
12138202 97 17895187865513713103
12423570 1 12572469117932847977
12897270 3 18411419535384139773
14128692 85 17989200443210037311
16945 1 18410579487125876698
17844478 74 17895208726596793641
18185500 45 18195251009651583074
20201158 50 18409727356956071270
20653085 51 17240204309338922941
21040471 1 18266184022617144568
23402655 69 18339631266593951381
23552423 10 18334584554881406938
241688 4 17977951176748448632
2748010 2 18050855716820158400
29004967 10 18410301315031796818
369184 2 18409454686662109651
5084963 1 17749118823668275707
528886 8 18411420613415643449
8030462 33 18342745112944901492

>  <PUBCHEM_SHAPE_MULTIPOLES>  (1) 
205.8
3.66
1.52
0.83
0.3
0
-0.13
0
-0.88
-0.35
0.14
0.42
0
0

>  <PUBCHEM_SHAPE_SELFOVERLAP>  (1) 
439.688

>  <PUBCHEM_SHAPE_VOLUME>  (1) 
109.8

>  <PUBCHEM_COORDINATE_TYPE>  (1) 
2
5
10

$$$$
