13219
     RDKit          3D

 11 11  0  0  0  0  0  0  0  0999 V2000
    0.0000    0.5165    0.0004 O   0  0  0  0  0  0  0  0  0  0  0  0
   -3.3955   -0.3216   -0.0009 O   0  0  0  0  0  0  0  0  0  0  0  0
    3.3954   -0.3219   -0.0002 O   0  0  0  0  0  0  0  0  0  0  0  0
   -2.3726    1.6207    0.0005 O   0  0  0  0  0  0  0  0  0  0  0  0
    2.3729    1.6207   -0.0004 O   0  0  0  0  0  0  0  0  0  0  0  0
   -2.3250    0.3550   -0.0001 N   0  0  0  0  0  0  0  0  0  0  0  0
    2.3249    0.3550   -0.0001 N   0  0  0  0  0  0  0  0  0  0  0  0
   -1.0897   -0.2955    0.0004 C   0  0  0  0  0  0  0  0  0  0  0  0
    1.0896   -0.2953    0.0000 C   0  0  0  0  0  0  0  0  0  0  0  0
   -0.7077   -1.6168    0.0003 C   0  0  0  0  0  0  0  0  0  0  0  0
    0.7076   -1.6167    0.0000 C   0  0  0  0  0  0  0  0  0  0  0  0
  1  8  1  0
  1  9  1  0
  2  6  1  0
  3  7  1  0
  4  6  2  0
  5  7  2  0
  6  8  1  0
  7  9  1  0
  8 10  2  0
  9 11  2  0
 10 11  1  0
M  CHG  4   2  -1   3  -1   6   1   7   1
M  END
>  <PUBCHEM_COMPOUND_CID>  (1) 
13219

>  <PUBCHEM_CONFORMER_RMSD>  (1) 
0.4

>  <PUBCHEM_CONFORMER_DIVERSEORDER>  (1) 
1

>  <PUBCHEM_MMFF94_PARTIAL_CHARGES>  (1) 
13
1 -0.28
10 -0.15
11 -0.15
12 0.15
13 0.15
2 -0.52
3 -0.52
4 -0.52
5 -0.52
6 0.96
7 0.96
8 0.22
9 0.22

>  <PUBCHEM_EFFECTIVE_ROTOR_COUNT>  (1) 
2

>  <PUBCHEM_PHARMACOPHORE_FEATURES>  (1) 
8
1 1 acceptor
1 2 acceptor
1 2 anion
1 3 acceptor
1 3 anion
1 4 acceptor
1 5 acceptor
5 1 8 9 10 11 rings

>  <PUBCHEM_HEAVY_ATOM_COUNT>  (1) 
11

>  <PUBCHEM_ATOM_DEF_STEREO_COUNT>  (1) 
0

>  <PUBCHEM_ATOM_UDEF_STEREO_COUNT>  (1) 
0

>  <PUBCHEM_BOND_DEF_STEREO_COUNT>  (1) 
0

>  <PUBCHEM_BOND_UDEF_STEREO_COUNT>  (1) 
0

>  <PUBCHEM_ISOTOPIC_ATOM_COUNT>  (1) 
0

>  <PUBCHEM_COMPONENT_COUNT>  (1) 
1

>  <PUBCHEM_CACTVS_TAUTO_COUNT>  (1) 
1

>  <PUBCHEM_CONFORMER_ID>  (1) 
000033A300000001

>  <PUBCHEM_MMFF94_ENERGY>  (1) 
19.5932

>  <PUBCHEM_FEATURE_SELFOVERLAP>  (1) 
40.783

>  <PUBCHEM_SHAPE_FINGERPRINT>  (1) 
13380535 76 18410572889935420771
14325111 11 18410855464433724064
14390081 3 18412543202061066625
16945 1 18410856559640068902
20653085 51 18341625810065452170
21028194 46 18410577292286838064
21040471 1 18410855468818550530
23402655 69 18124861388492903701
23552423 10 18194964041707418103
2748010 2 18051132789249727326
29004967 10 9007053569587559326
5084963 1 18202001031703829041

>  <PUBCHEM_SHAPE_MULTIPOLES>  (1) 
187.07
4.52
1.6
0.55
0
0.02
0
-1.34
0
0
0
0
0.04
0

>  <PUBCHEM_SHAPE_SELFOVERLAP>  (1) 
393.131

>  <PUBCHEM_SHAPE_VOLUME>  (1) 
106.2

>  <PUBCHEM_COORDINATE_TYPE>  (1) 
2
5
10

$$$$
