13224
     RDKit          3D

 12 13  0  0  0  0  0  0  0  0999 V2000
    1.2819   -2.4631    0.0001 O   0  0  0  0  0  0  0  0  0  0  0  0
   -1.0412   -0.9857    0.0000 N   0  0  0  0  0  0  0  0  0  0  0  0
    0.2487    1.0499    0.0000 C   0  0  0  0  0  0  0  0  0  0  0  0
    0.1497   -0.3572   -0.0001 C   0  0  0  0  0  0  0  0  0  0  0  0
   -0.9384    1.7948    0.0000 C   0  0  0  0  0  0  0  0  0  0  0  0
   -2.1632   -0.2301    0.0000 C   0  0  0  0  0  0  0  0  0  0  0  0
    1.3291   -1.0967    0.0000 C   0  0  0  0  0  0  0  0  0  0  0  0
    1.5083    1.6727    0.0000 C   0  0  0  0  0  0  0  0  0  0  0  0
   -2.1669    1.1501    0.0001 C   0  0  0  0  0  0  0  0  0  0  0  0
    2.5817   -0.4777   -0.0001 C   0  0  0  0  0  0  0  0  0  0  0  0
    2.6718    0.9087    0.0000 C   0  0  0  0  0  0  0  0  0  0  0  0
   -3.4615   -0.9656    0.0000 C   0  0  0  0  0  0  0  0  0  0  0  0
  1  7  1  0
  2  4  2  0
  2  6  1  0
  3  4  1  0
  3  5  2  0
  3  8  1  0
  4  7  1  0
  5  9  1  0
  6  9  2  0
  6 12  1  0
  7 10  2  0
  8 11  2  0
 10 11  1  0
M  END
>  <PUBCHEM_COMPOUND_CID>  (1) 
13224

>  <PUBCHEM_CONFORMER_RMSD>  (1) 
0.4

>  <PUBCHEM_CONFORMER_DIVERSEORDER>  (1) 
1

>  <PUBCHEM_MMFF94_PARTIAL_CHARGES>  (1) 
17
1 -0.53
10 -0.15
11 -0.15
12 0.14
13 0.15
14 0.15
15 0.15
16 0.15
17 0.15
2 -0.62
21 0.45
4 0.31
5 -0.15
6 0.17
7 0.08
8 -0.15
9 -0.15

>  <PUBCHEM_EFFECTIVE_ROTOR_COUNT>  (1) 
0

>  <PUBCHEM_PHARMACOPHORE_FEATURES>  (1) 
4
1 1 donor
1 2 acceptor
6 2 3 4 5 6 9 rings
6 3 4 7 8 10 11 rings

>  <PUBCHEM_HEAVY_ATOM_COUNT>  (1) 
12

>  <PUBCHEM_ATOM_DEF_STEREO_COUNT>  (1) 
0

>  <PUBCHEM_ATOM_UDEF_STEREO_COUNT>  (1) 
0

>  <PUBCHEM_BOND_DEF_STEREO_COUNT>  (1) 
0

>  <PUBCHEM_BOND_UDEF_STEREO_COUNT>  (1) 
0

>  <PUBCHEM_ISOTOPIC_ATOM_COUNT>  (1) 
0

>  <PUBCHEM_COMPONENT_COUNT>  (1) 
1

>  <PUBCHEM_CACTVS_TAUTO_COUNT>  (1) 
3

>  <PUBCHEM_CONFORMER_ID>  (1) 
000033A800000001

>  <PUBCHEM_MMFF94_ENERGY>  (1) 
33.1499

>  <PUBCHEM_FEATURE_SELFOVERLAP>  (1) 
20.329

>  <PUBCHEM_SHAPE_FINGERPRINT>  (1) 
10967382 1 18338517576535072391
11206711 2 18408326557630518845
11471102 20 18410288146973342549
12032990 46 18410863186800902463
12524768 44 18052822446616571047
12897270 3 18410011043846110229
14251717 144 18267860765086232311
14325111 11 18410856581120290565
16945 1 18410856551060566884
17844478 74 18113626702806707889
17990270 104 18338234856144602402
193761 8 18194683661588463909
19973954 147 18339080363327326149
20201158 50 18335419084323011475
20645477 70 18412821391968434727
21040471 1 18122344842098672864
21501502 16 18337955584417536329
2334 1 17762337324314184323
23402655 69 18340753855186705293
23463225 33 18334853896891900632
23552423 10 18335144141717056517
23559900 14 17333086430928940878
241688 4 18048317734735167312
2748010 2 18267302019446565566
5084963 1 18202005455694327640
528886 8 18267300009422957016
7364860 26 18271524187432188926
8809292 202 18187089498079436603

>  <PUBCHEM_SHAPE_MULTIPOLES>  (1) 
236.1
4.28
2.07
0.6
1.68
0.3
0
0.57
0
-0.42
0
0
-0.03
0

>  <PUBCHEM_SHAPE_SELFOVERLAP>  (1) 
518.468

>  <PUBCHEM_SHAPE_VOLUME>  (1) 
128.3

>  <PUBCHEM_COORDINATE_TYPE>  (1) 
2
5
10

$$$$
