1322
     RDKit          3D

  4  3  0  0  0  0  0  0  0  0999 V2000
   -0.5047   -0.5100   -0.0064 N   0  0  0  0  0  0  0  0  0  0  0  0
    0.5046    0.5099   -0.0064 N   0  0  0  0  0  0  0  0  0  0  0  0
   -1.8073    0.1424    0.0064 C   0  0  0  0  0  0  0  0  0  0  0  0
    1.8074   -0.1423    0.0064 C   0  0  0  0  0  0  0  0  0  0  0  0
  1  2  1  0
  1  3  1  0
  2  4  1  0
M  END
>  <PUBCHEM_COMPOUND_CID>  (1) 
1322

>  <PUBCHEM_CONFORMER_RMSD>  (1) 
0.4

>  <PUBCHEM_CONFORMER_DIVERSEORDER>  (1) 
1
3
2

>  <PUBCHEM_MMFF94_PARTIAL_CHARGES>  (1) 
6
1 -0.63
2 -0.63
3 0.27
4 0.27
5 0.36
6 0.36

>  <PUBCHEM_EFFECTIVE_ROTOR_COUNT>  (1) 
1

>  <PUBCHEM_PHARMACOPHORE_FEATURES>  (1) 
2
1 1 donor
1 2 donor

>  <PUBCHEM_HEAVY_ATOM_COUNT>  (1) 
4

>  <PUBCHEM_ATOM_DEF_STEREO_COUNT>  (1) 
0

>  <PUBCHEM_ATOM_UDEF_STEREO_COUNT>  (1) 
0

>  <PUBCHEM_BOND_DEF_STEREO_COUNT>  (1) 
0

>  <PUBCHEM_BOND_UDEF_STEREO_COUNT>  (1) 
0

>  <PUBCHEM_ISOTOPIC_ATOM_COUNT>  (1) 
0

>  <PUBCHEM_COMPONENT_COUNT>  (1) 
1

>  <PUBCHEM_CACTVS_TAUTO_COUNT>  (1) 
1

>  <PUBCHEM_CONFORMER_ID>  (1) 
0000052A00000001

>  <PUBCHEM_MMFF94_ENERGY>  (1) 
1.5969

>  <PUBCHEM_FEATURE_SELFOVERLAP>  (1) 
11.445

>  <PUBCHEM_SHAPE_FINGERPRINT>  (1) 
139733 1 9367343738868948224
20096714 4 18336548303991614981
21015797 1 9221500118308487193
5460574 1 9295291642183417856

>  <PUBCHEM_SHAPE_MULTIPOLES>  (1) 
72.36
2.54
0.69
0.57
0
0
0
0
-0.01
0
0
0
0
0

>  <PUBCHEM_SHAPE_SELFOVERLAP>  (1) 
112.723

>  <PUBCHEM_SHAPE_VOLUME>  (1) 
53.2

>  <PUBCHEM_COORDINATE_TYPE>  (1) 
2
5
10

$$$$
