13235
     RDKit          3D

 13 15  0  0  0  0  0  0  0  0999 V2000
    2.7545    1.1923    0.0002 O   0  0  0  0  0  0  0  0  0  0  0  0
    2.9366   -1.0799    0.0011 O   0  0  0  0  0  0  0  0  0  0  0  0
    0.7515   -0.0398   -0.0075 C   0  0  0  0  0  0  0  0  0  0  0  0
   -1.3431   -1.4486   -0.0003 C   0  0  0  0  0  0  0  0  0  0  0  0
   -1.2994    0.7376   -1.2572 C   0  0  0  0  0  0  0  0  0  0  0  0
   -1.2862    0.7326    1.2654 C   0  0  0  0  0  0  0  0  0  0  0  0
    0.1952   -1.4778   -0.0075 C   0  0  0  0  0  0  0  0  0  0  0  0
    0.2389    0.6998   -1.2593 C   0  0  0  0  0  0  0  0  0  0  0  0
    0.2521    0.6944    1.2524 C   0  0  0  0  0  0  0  0  0  0  0  0
   -1.8404   -0.7026   -1.2506 C   0  0  0  0  0  0  0  0  0  0  0  0
   -1.8282   -0.7074    1.2577 C   0  0  0  0  0  0  0  0  0  0  0  0
   -1.7845    1.4665    0.0081 C   0  0  0  0  0  0  0  0  0  0  0  0
    2.2530   -0.0670   -0.0025 C   0  0  0  0  0  0  0  0  0  0  0  0
  1 13  1  0
  2 13  2  0
  3  7  1  0
  3  8  1  0
  3  9  1  0
  3 13  1  0
  4  7  1  0
  4 10  1  0
  4 11  1  0
  5  8  1  0
  5 10  1  0
  5 12  1  0
  6  9  1  0
  6 11  1  0
  6 12  1  0
M  END
>  <PUBCHEM_COMPOUND_CID>  (1) 
13235

>  <PUBCHEM_CONFORMER_RMSD>  (1) 
0.6

>  <PUBCHEM_CONFORMER_DIVERSEORDER>  (1) 
1

>  <PUBCHEM_MMFF94_PARTIAL_CHARGES>  (1) 
5
1 -0.65
13 0.66
2 -0.57
29 0.5
3 0.06

>  <PUBCHEM_EFFECTIVE_ROTOR_COUNT>  (1) 
2.2

>  <PUBCHEM_PHARMACOPHORE_FEATURES>  (1) 
7
1 1 acceptor
1 2 acceptor
3 1 2 13 anion
6 3 4 5 7 8 10 rings
6 3 4 6 7 9 11 rings
6 3 5 6 8 9 12 rings
6 4 5 6 10 11 12 rings

>  <PUBCHEM_HEAVY_ATOM_COUNT>  (1) 
13

>  <PUBCHEM_ATOM_DEF_STEREO_COUNT>  (1) 
0

>  <PUBCHEM_ATOM_UDEF_STEREO_COUNT>  (1) 
0

>  <PUBCHEM_BOND_DEF_STEREO_COUNT>  (1) 
0

>  <PUBCHEM_BOND_UDEF_STEREO_COUNT>  (1) 
0

>  <PUBCHEM_ISOTOPIC_ATOM_COUNT>  (1) 
0

>  <PUBCHEM_COMPONENT_COUNT>  (1) 
1

>  <PUBCHEM_CACTVS_TAUTO_COUNT>  (1) 
1

>  <PUBCHEM_CONFORMER_ID>  (1) 
000033B300000001

>  <PUBCHEM_MMFF94_ENERGY>  (1) 
30.8708

>  <PUBCHEM_FEATURE_SELFOVERLAP>  (1) 
48.122

>  <PUBCHEM_SHAPE_FINGERPRINT>  (1) 
10702982 57 17914331277833795521
12423570 1 10076675364905101533
13024252 1 13767929013626053379
137420 1 11652257286708156803
14817 1 8594525375632696681
15557651 10 17388250148209781349
16945 1 18194682794052399968
19837323 101 17895462631809361021
20653085 51 18188201005429258549
2748010 2 18260829306400407342
369184 2 18202565081290203794
5084963 1 18341038670930157214
528886 8 18115856430456242629
535629 181 17131534064432707356

>  <PUBCHEM_SHAPE_MULTIPOLES>  (1) 
255.8
3.2
1.51
1.37
2.51
0.16
0
0.05
0
-0.24
0
-0.68
-0.19
0

>  <PUBCHEM_SHAPE_SELFOVERLAP>  (1) 
560.583

>  <PUBCHEM_SHAPE_VOLUME>  (1) 
132.5

>  <PUBCHEM_COORDINATE_TYPE>  (1) 
2
5
10

$$$$
