13239
     RDKit          3D

 13 14  0  0  0  0  0  0  0  0999 V2000
    0.0354   -1.6733    0.2453 P   0  0  0  0  0  0  0  0  0  0  0  0
    1.4702   -0.5036    0.4509 C   0  0  0  0  0  0  0  0  0  0  0  0
   -1.2975   -0.4249   -0.1201 C   0  0  0  0  0  0  0  0  0  0  0  0
    2.8022   -1.2432    0.2721 C   0  0  0  0  0  0  0  0  0  0  0  0
    1.3557    0.6720   -0.5278 C   0  0  0  0  0  0  0  0  0  0  0  0
   -2.4751   -1.0867   -0.8471 C   0  0  0  0  0  0  0  0  0  0  0  0
   -1.7619    0.2654    1.1686 C   0  0  0  0  0  0  0  0  0  0  0  0
    3.9904   -0.2903    0.3938 C   0  0  0  0  0  0  0  0  0  0  0  0
    2.5477    1.6199   -0.4041 C   0  0  0  0  0  0  0  0  0  0  0  0
   -3.5982   -0.0863   -1.1163 C   0  0  0  0  0  0  0  0  0  0  0  0
   -2.8869    1.2621    0.8944 C   0  0  0  0  0  0  0  0  0  0  0  0
    3.8726    0.8831   -0.5740 C   0  0  0  0  0  0  0  0  0  0  0  0
   -4.0546    0.6059    0.1643 C   0  0  0  0  0  0  0  0  0  0  0  0
  1  2  1  0
  1  3  1  0
  2  4  1  0
  2  5  1  0
  3  6  1  0
  3  7  1  0
  4  8  1  0
  5  9  1  0
  6 10  1  0
  7 11  1  0
  8 12  1  0
  9 12  1  0
 10 13  1  0
 11 13  1  0
M  END
>  <PUBCHEM_COMPOUND_CID>  (1) 
13239

>  <PUBCHEM_CONFORMER_RMSD>  (1) 
0.6

>  <PUBCHEM_CONFORMER_DIVERSEORDER>  (1) 
3
19
1
17
2
20
5
7
14
11
10
6
8
4
18
9
13
16
15
12

>  <PUBCHEM_MMFF94_PARTIAL_CHARGES>  (1) 
4
1 -0.43
2 0.17
24 0.1
3 0.17

>  <PUBCHEM_EFFECTIVE_ROTOR_COUNT>  (1) 
4.4

>  <PUBCHEM_PHARMACOPHORE_FEATURES>  (1) 
2
6 2 4 5 8 9 12 rings
6 3 6 7 10 11 13 rings

>  <PUBCHEM_HEAVY_ATOM_COUNT>  (1) 
13

>  <PUBCHEM_ATOM_DEF_STEREO_COUNT>  (1) 
0

>  <PUBCHEM_ATOM_UDEF_STEREO_COUNT>  (1) 
0

>  <PUBCHEM_BOND_DEF_STEREO_COUNT>  (1) 
0

>  <PUBCHEM_BOND_UDEF_STEREO_COUNT>  (1) 
0

>  <PUBCHEM_ISOTOPIC_ATOM_COUNT>  (1) 
0

>  <PUBCHEM_COMPONENT_COUNT>  (1) 
1

>  <PUBCHEM_CACTVS_TAUTO_COUNT>  (1) 
1

>  <PUBCHEM_CONFORMER_ID>  (1) 
000033B700000003

>  <PUBCHEM_MMFF94_ENERGY>  (1) 
14.692

>  <PUBCHEM_FEATURE_SELFOVERLAP>  (1) 
10.149

>  <PUBCHEM_SHAPE_FINGERPRINT>  (1) 
10980938 120 18259981565977159610
11471102 20 18259702294413487486
12162725 195 18342458144594080470
124424 183 17022897935015850058
12500047 106 15647050460720162227
12932764 1 17060337443886773883
13705890 14 14476964488972110610
14123260 362 18341343261283776245
14144814 61 18410013243048583896
14251717 144 18335697222052130302
14897335 6 18410011069853355746
14993402 34 18411138039359990462
15309172 13 18113900459273675891
15442244 35 18195528095488286770
15653759 3 15647055962378102133
15775835 57 18411704287515979173
17802600 8 18410567379502715176
18186145 218 18334577932094662054
19049666 15 16082475662380299307
19107657 47 17822006497445703504
200 152 18341324570029189879
20279233 1 16587742040331565866
20300324 65 17775281694625222469
20645464 45 16443066097457805827
20645476 183 18272928332616569023
20645477 70 17968088686476190898
20711983 171 18060140929107496556
21119208 17 18201999923665589591
21524375 3 18410293614044983459
22485316 2 9799692592994154219
231179 274 17676481748658956214
23402539 116 17632570543932211556
23402655 69 18411981351635207956
23557571 272 16128365008716107659
23559900 14 16845574193431447026
474 4 18334579044280000242
57812782 119 15626503895516558474
74978 22 18336830908818888166
77492 1 18343861095824992131
9971528 1 18412540978001230338

>  <PUBCHEM_SHAPE_MULTIPOLES>  (1) 
271.38
8.05
1.57
1.04
0.42
0.08
-0.01
-1.87
0.68
0.48
-0.01
-0.62
-0.07
-0.96

>  <PUBCHEM_SHAPE_SELFOVERLAP>  (1) 
518.88

>  <PUBCHEM_SHAPE_VOLUME>  (1) 
164.1

>  <PUBCHEM_COORDINATE_TYPE>  (1) 
2
5
10

$$$$
