13249
     RDKit          3D

 14 15  0  0  0  0  0  0  0  0999 V2000
   -3.6169   -2.5704    0.0229 Br  0  0  0  0  0  0  0  0  0  0  0  0
    3.2402   -0.3900    0.0740 N   0  0  0  0  0  0  0  0  0  0  0  0
   -0.0839    2.2928   -0.0293 N   0  0  0  0  0  0  0  0  0  0  0  0
    0.9608    0.3749   -0.4257 C   0  0  0  0  0  0  0  0  0  0  0  0
   -0.4195    0.0956   -0.2214 C   0  0  0  0  0  0  0  0  0  0  0  0
    2.0230   -0.6088   -0.7194 C   0  0  0  0  0  0  0  0  0  0  0  0
   -1.0524    1.3158    0.0254 C   0  0  0  0  0  0  0  0  0  0  0  0
    1.1359    1.7339   -0.3014 C   0  0  0  0  0  0  0  0  0  0  0  0
   -1.1936   -1.0818   -0.2227 C   0  0  0  0  0  0  0  0  0  0  0  0
   -2.4261    1.4179    0.2720 C   0  0  0  0  0  0  0  0  0  0  0  0
    4.2479   -1.3917   -0.2620 C   0  0  0  0  0  0  0  0  0  0  0  0
    2.9269   -0.4300    1.4995 C   0  0  0  0  0  0  0  0  0  0  0  0
   -2.5689   -0.9949    0.0224 C   0  0  0  0  0  0  0  0  0  0  0  0
   -3.1735    0.2367    0.2657 C   0  0  0  0  0  0  0  0  0  0  0  0
  1 13  1  0
  2  6  1  0
  2 11  1  0
  2 12  1  0
  3  7  1  0
  3  8  1  0
  4  5  1  0
  4  6  1  0
  4  8  2  0
  5  7  2  0
  5  9  1  0
  7 10  1  0
  9 13  2  0
 10 14  2  0
 13 14  1  0
M  END
>  <PUBCHEM_COMPOUND_CID>  (1) 
13249

>  <PUBCHEM_CONFORMER_RMSD>  (1) 
0.6

>  <PUBCHEM_CONFORMER_DIVERSEORDER>  (1) 
1
2
5
3
4

>  <PUBCHEM_MMFF94_PARTIAL_CHARGES>  (1) 
18
1 -0.11
10 -0.15
11 0.27
12 0.27
13 0.11
14 -0.15
17 0.15
18 0.27
19 0.15
2 -0.81
20 0.15
27 0.15
3 0.03
4 -0.18
6 0.45
7 -0.15
8 -0.3
9 -0.15

>  <PUBCHEM_EFFECTIVE_ROTOR_COUNT>  (1) 
2

>  <PUBCHEM_PHARMACOPHORE_FEATURES>  (1) 
6
1 1 hydrophobe
1 2 cation
1 3 cation
1 3 donor
5 3 4 5 7 8 rings
6 5 7 9 10 13 14 rings

>  <PUBCHEM_HEAVY_ATOM_COUNT>  (1) 
14

>  <PUBCHEM_ATOM_DEF_STEREO_COUNT>  (1) 
0

>  <PUBCHEM_ATOM_UDEF_STEREO_COUNT>  (1) 
0

>  <PUBCHEM_BOND_DEF_STEREO_COUNT>  (1) 
0

>  <PUBCHEM_BOND_UDEF_STEREO_COUNT>  (1) 
0

>  <PUBCHEM_ISOTOPIC_ATOM_COUNT>  (1) 
0

>  <PUBCHEM_COMPONENT_COUNT>  (1) 
1

>  <PUBCHEM_CACTVS_TAUTO_COUNT>  (1) 
1

>  <PUBCHEM_CONFORMER_ID>  (1) 
000033C100000001

>  <PUBCHEM_MMFF94_ENERGY>  (1) 
29.048

>  <PUBCHEM_FEATURE_SELFOVERLAP>  (1) 
30.537

>  <PUBCHEM_SHAPE_FINGERPRINT>  (1) 
10130415 120 18335706048252056633
11132069 177 18339356375332340352
11769659 78 18335420226842211023
11806522 49 18263081187855348814
12032990 46 18411704296011065718
12382932 28 18342458101670833338
13140716 1 18341339971876924001
13296908 3 18411698794426854886
14178342 30 18130241367084738091
15375462 189 18040436572783998562
16945 1 18339369556645273357
17804303 29 18271812280763429736
17834072 14 18269254902769484693
18175812 5 17917987248675296460
200 152 16153708679106807666
20281475 54 18409172112363772734
20361792 2 17385442107297440900
20559304 39 18196374946784803557
20645477 70 18047746281158489111
20871998 184 18202282485221696655
20871998 22 18339924925664678630
21296965 67 18338514248183448263
21452121 199 18195235853028500153
21501502 16 18338808934627436485
21501925 9 18268705176851659987
21650355 55 18338789031500969664
232386 152 18408893940058624854
23402539 116 18201431429695704197
23463225 33 18410016545667503036
23532345 42 18341043103658192610
23552423 10 18045227282580506549
23559900 14 18269552746309782494
23598291 2 17968109624156532988
2748010 2 18340486776497057437
5493415 88 18412262878182979617
5902787 121 18408321120212315314
7364860 26 18125160682582049664
77492 1 17676495995139368958
8809292 202 18334864934762990835

>  <PUBCHEM_SHAPE_MULTIPOLES>  (1) 
284.09
6.62
2.35
0.86
2.29
0.03
0.21
-4.89
0.68
-1.39
-0.06
0.53
-0.12
-0.14

>  <PUBCHEM_SHAPE_SELFOVERLAP>  (1) 
591.9

>  <PUBCHEM_SHAPE_VOLUME>  (1) 
167.7

>  <PUBCHEM_COORDINATE_TYPE>  (1) 
2
5
10

$$$$
