13244
     RDKit          3D

 13 13  0  0  0  0  0  0  0  0999 V2000
    0.7532    0.2807   -0.0259 O   0  0  0  0  0  0  0  0  0  0  0  0
    4.2450    0.4209   -0.0228 O   0  0  0  0  0  0  0  0  0  0  0  0
    2.7167    1.9973   -0.1515 O   0  0  0  0  0  0  0  0  0  0  0  0
   -4.1656    1.3838    0.4638 O   0  0  0  0  0  0  0  0  0  0  0  0
   -4.0762   -0.5846   -0.5202 O   0  0  0  0  0  0  0  0  0  0  0  0
    3.0302    0.7748   -0.0549 N   0  0  0  0  0  0  0  0  0  0  0  0
   -3.5518    0.4268   -0.0308 N   0  0  0  0  0  0  0  0  0  0  0  0
   -0.0664   -0.8002    0.0542 C   0  0  0  0  0  0  0  0  0  0  0  0
    0.6693   -1.9586    0.1472 C   0  0  0  0  0  0  0  0  0  0  0  0
    2.0261   -0.1927    0.0161 C   0  0  0  0  0  0  0  0  0  0  0  0
    2.0283   -1.5641    0.1223 C   0  0  0  0  0  0  0  0  0  0  0  0
   -1.4751   -0.6783    0.0393 C   0  0  0  0  0  0  0  0  0  0  0  0
   -2.1337    0.4943   -0.0368 C   0  0  0  0  0  0  0  0  0  0  0  0
  1  8  1  0
  1 10  1  0
  2  6  1  0
  3  6  2  0
  4  7  1  0
  5  7  2  0
  6 10  1  0
  7 13  1  0
  8  9  2  0
  8 12  1  0
  9 11  1  0
 10 11  2  0
 12 13  2  0
M  CHG  4   2  -1   4  -1   6   1   7   1
M  END
>  <PUBCHEM_COMPOUND_CID>  (1) 
13244

>  <PUBCHEM_CONFORMER_RMSD>  (1) 
0.6

>  <PUBCHEM_CONFORMER_DIVERSEORDER>  (1) 
1
2

>  <PUBCHEM_MMFF94_PARTIAL_CHARGES>  (1) 
17
1 -0.28
10 0.22
11 -0.15
12 -0.11
13 0.05
14 0.15
15 0.15
16 0.15
17 0.15
2 -0.52
3 -0.52
4 -0.52
5 -0.52
6 0.96
7 0.84
8 0.09
9 -0.15

>  <PUBCHEM_EFFECTIVE_ROTOR_COUNT>  (1) 
3

>  <PUBCHEM_PHARMACOPHORE_FEATURES>  (1) 
8
1 1 acceptor
1 2 acceptor
1 2 anion
1 3 acceptor
1 4 acceptor
1 4 anion
1 5 acceptor
5 1 8 9 10 11 rings

>  <PUBCHEM_HEAVY_ATOM_COUNT>  (1) 
13

>  <PUBCHEM_ATOM_DEF_STEREO_COUNT>  (1) 
0

>  <PUBCHEM_ATOM_UDEF_STEREO_COUNT>  (1) 
0

>  <PUBCHEM_BOND_DEF_STEREO_COUNT>  (1) 
0

>  <PUBCHEM_BOND_UDEF_STEREO_COUNT>  (1) 
1

>  <PUBCHEM_ISOTOPIC_ATOM_COUNT>  (1) 
0

>  <PUBCHEM_COMPONENT_COUNT>  (1) 
1

>  <PUBCHEM_CACTVS_TAUTO_COUNT>  (1) 
2

>  <PUBCHEM_CONFORMER_ID>  (1) 
000033BC00000001

>  <PUBCHEM_MMFF94_ENERGY>  (1) 
25.5369

>  <PUBCHEM_FEATURE_SELFOVERLAP>  (1) 
40.769

>  <PUBCHEM_SHAPE_FINGERPRINT>  (1) 
10465860 228 18339647728459512202
10608611 8 18261952943007288325
10980938 120 18410009909921873030
11471102 20 18337387149822468134
12346645 44 18411699880963838539
12932764 1 17604709950540930655
13380535 76 18408040736257992370
14325111 11 18411136914068048259
14415576 193 18341334400934919895
14897335 6 18411133658087413398
15442244 35 17979919310956994763
15775835 57 18342176661233170117
170605 34 18407759235395199514
18186145 218 18338798914331409535
20279233 1 16732703831492718643
20281407 28 9583526420713667766
20606313 2 18410573968351468084
20645477 70 18267297647719004223
21499 59 18409443717379186127
21524375 3 18336542810923706662
23402539 116 18059849576085936740
23402655 69 18342734079506214597
25 1 18410012135020997910
449060 62 18411421687226149465
4990 188 17989214737172513062
57096353 35 18272362101318319343
7364860 26 18268430140173825126

>  <PUBCHEM_SHAPE_MULTIPOLES>  (1) 
228.23
7.31
1.71
0.6
4.26
0.05
0.01
-3.19
-0.14
-0.9
0.06
0.12
0.03
-0.35

>  <PUBCHEM_SHAPE_SELFOVERLAP>  (1) 
478.785

>  <PUBCHEM_SHAPE_VOLUME>  (1) 
129.6

>  <PUBCHEM_COORDINATE_TYPE>  (1) 
2
5
10

$$$$
