13276
     RDKit          3D

 17 18  0  0  1  0  0  0  0  0999 V2000
    0.0366   -1.7702    0.1826 O   0  0  0  0  0  0  0  0  0  0  0  0
    0.0211    2.8565   -0.2831 O   0  0  0  0  0  0  0  0  0  0  0  0
   -3.9478    0.5802   -0.0936 O   0  0  0  0  0  0  0  0  0  0  0  0
    0.1091    0.5577    0.1165 N   0  0  0  0  0  0  0  0  0  0  0  0
   -1.9456    1.7029   -0.1302 N   0  0  0  0  0  0  0  0  0  0  0  0
    1.5656    0.5625   -0.0059 C   0  0  0  0  0  0  0  0  0  0  0  0
    2.1974   -0.0021    1.2712 C   0  0  0  0  0  0  0  0  0  0  0  0
    1.9877   -0.2478   -1.2364 C   0  0  0  0  0  0  0  0  0  0  0  0
    3.7181   -0.0843    1.1504 C   0  0  0  0  0  0  0  0  0  0  0  0
    3.5087   -0.3290   -1.3542 C   0  0  0  0  0  0  0  0  0  0  0  0
    4.1430   -0.8803   -0.0803 C   0  0  0  0  0  0  0  0  0  0  0  0
   -1.9832   -0.5735    0.7079 C   0  0  0  0  0  0  0  0  0  0  0  0
   -0.5278   -0.6809    0.2909 C   0  0  0  0  0  0  0  0  0  0  0  0
   -0.5552    1.7822   -0.0922 C   0  0  0  0  0  0  0  0  0  0  0  0
   -2.7273   -1.8859    0.4665 C   0  0  0  0  0  0  0  0  0  0  0  0
   -2.7344    0.5897    0.1045 C   0  0  0  0  0  0  0  0  0  0  0  0
   -2.8660   -2.1776   -1.0148 C   0  0  0  0  0  0  0  0  0  0  0  0
  1 13  2  0
  2 14  2  0
  3 16  2  0
  4  6  1  0
  4 13  1  0
  4 14  1  0
  5 14  1  0
  5 16  1  0
  6  7  1  0
  6  8  1  0
  7  9  1  0
  8 10  1  0
  9 11  1  0
 10 11  1  0
 12 13  1  0
 12 15  1  0
 12 16  1  0
 15 17  1  0
M  END
>  <PUBCHEM_COMPOUND_CID>  (1) 
13276

>  <PUBCHEM_CONFORMER_RMSD>  (1) 
0.6

>  <PUBCHEM_CONFORMER_DIVERSEORDER>  (1) 
1
11
15
12
14
13
4
8
6
3
10
17
16
9
7
2
5

>  <PUBCHEM_MMFF94_PARTIAL_CHARGES>  (1) 
11
1 -0.57
12 0.12
13 0.57
14 0.69
16 0.57
2 -0.57
3 -0.57
32 0.37
4 -0.42
5 -0.49
6 0.3

>  <PUBCHEM_EFFECTIVE_ROTOR_COUNT>  (1) 
3.8

>  <PUBCHEM_PHARMACOPHORE_FEATURES>  (1) 
8
1 1 acceptor
1 12 anion
1 17 hydrophobe
1 2 acceptor
1 3 acceptor
1 5 donor
6 4 5 12 13 14 16 rings
6 6 7 8 9 10 11 rings

>  <PUBCHEM_HEAVY_ATOM_COUNT>  (1) 
17

>  <PUBCHEM_ATOM_DEF_STEREO_COUNT>  (1) 
0

>  <PUBCHEM_ATOM_UDEF_STEREO_COUNT>  (1) 
1

>  <PUBCHEM_BOND_DEF_STEREO_COUNT>  (1) 
0

>  <PUBCHEM_BOND_UDEF_STEREO_COUNT>  (1) 
0

>  <PUBCHEM_ISOTOPIC_ATOM_COUNT>  (1) 
0

>  <PUBCHEM_COMPONENT_COUNT>  (1) 
1

>  <PUBCHEM_CACTVS_TAUTO_COUNT>  (1) 
3

>  <PUBCHEM_CONFORMER_ID>  (1) 
000033DC00000001

>  <PUBCHEM_MMFF94_ENERGY>  (1) 
30.894

>  <PUBCHEM_FEATURE_SELFOVERLAP>  (1) 
40.596

>  <PUBCHEM_SHAPE_FINGERPRINT>  (1) 
10062212 137 18259981574245652891
10989021 7 18194967563617192827
11132069 177 18412823585941926488
12236239 1 17458348511785714992
12346177 29 18342731931933025695
12553582 1 18264498440895203259
13083527 12 17623544846284923099
13140716 1 18337959003728618465
13296908 3 18271807955720904154
13538477 17 17967536761603065354
14115302 16 17967819340075219197
14289901 80 16056876944347392522
14911166 2 18408038499123044933
15219456 202 17846495954770736810
15669948 3 18334014964866218034
15848700 24 18341607148464219079
16752209 62 18188483554327290401
16945 1 18409732824776480241
18175812 5 17917991685186602604
18186145 218 16008751329358817250
19049666 15 17772195202424939026
19141452 34 17989211481883110783
19862831 5 17603588530052700342
19868273 325 18407761456014324949
20279233 1 17917712383516260126
20281407 28 18272095989318397602
20361792 2 18337110188761543943
20510252 161 18269834212053506824
20645476 183 17386019363839711507
20645477 70 17833546074523709711
21501502 16 18266743678315182845
232386 152 18261393372786791052
2334 1 18120939666254303425
23402539 116 18408601474809281774
23419403 2 17407064136786628577
23532345 42 18270959163035729610
23557571 272 18272089426576597570
23559900 14 18341616967555997366
2748010 2 18192427691868033897
3286 77 17132114619847153328
474 4 16807030942269324212
5902787 121 18335701693023388768
69090 78 17846491517716300175
7364860 26 17981893256530956336
74978 22 18115590490276209579
77492 1 17458348520286004784
81228 2 18339092475119608200

>  <PUBCHEM_SHAPE_MULTIPOLES>  (1) 
322.28
6.72
2.16
1.12
2.36
0.62
-0.07
-2.2
-0.2
-1.77
-0.34
0.83
-0.24
0.02

>  <PUBCHEM_SHAPE_SELFOVERLAP>  (1) 
667.309

>  <PUBCHEM_SHAPE_VOLUME>  (1) 
179.8

>  <PUBCHEM_COORDINATE_TYPE>  (1) 
2
5
10

$$$$
