13278
     RDKit          3D

 17 19  0  0  0  0  0  0  0  0999 V2000
    1.4172    1.6945    0.0024 O   0  0  0  0  0  0  0  0  0  0  0  0
   -0.7166    2.5000   -0.0299 O   0  0  0  0  0  0  0  0  0  0  0  0
   -3.9729   -0.5091   -1.2130 N   0  0  0  0  0  0  0  0  0  0  0  0
    1.8080   -0.7013   -0.0007 C   0  0  0  0  0  0  0  0  0  0  0  0
   -0.4788    0.1327   -0.0029 C   0  0  0  0  0  0  0  0  0  0  0  0
    2.2997    0.5984    0.0017 C   0  0  0  0  0  0  0  0  0  0  0  0
    0.3689   -0.9073    0.0026 C   0  0  0  0  0  0  0  0  0  0  0  0
   -1.9304   -0.1279    0.0169 C   0  0  0  0  0  0  0  0  0  0  0  0
    0.0345    1.5301   -0.0088 C   0  0  0  0  0  0  0  0  0  0  0  0
    2.7136   -1.7650   -0.0026 C   0  0  0  0  0  0  0  0  0  0  0  0
    3.6671    0.8661    0.0020 C   0  0  0  0  0  0  0  0  0  0  0  0
    4.0886   -1.5129   -0.0026 C   0  0  0  0  0  0  0  0  0  0  0  0
   -2.6194   -0.2368    1.2175 C   0  0  0  0  0  0  0  0  0  0  0  0
    4.5640   -0.1998   -0.0003 C   0  0  0  0  0  0  0  0  0  0  0  0
   -2.6433   -0.2699   -1.1605 C   0  0  0  0  0  0  0  0  0  0  0  0
   -3.9879   -0.4825    1.2044 C   0  0  0  0  0  0  0  0  0  0  0  0
   -4.6123   -0.6093   -0.0260 C   0  0  0  0  0  0  0  0  0  0  0  0
  1  6  1  0
  1  9  1  0
  2  9  2  0
  3 15  2  0
  3 17  1  0
  4  6  2  0
  4  7  1  0
  4 10  1  0
  5  7  2  0
  5  8  1  0
  5  9  1  0
  6 11  1  0
  8 13  2  0
  8 15  1  0
 10 12  2  0
 11 14  2  0
 12 14  1  0
 13 16  1  0
 16 17  2  0
M  END
>  <PUBCHEM_COMPOUND_CID>  (1) 
13278

>  <PUBCHEM_CONFORMER_RMSD>  (1) 
0.6

>  <PUBCHEM_CONFORMER_DIVERSEORDER>  (1) 
1
3
2
4

>  <PUBCHEM_MMFF94_PARTIAL_CHARGES>  (1) 
26
1 -0.23
10 -0.15
11 -0.15
12 -0.15
13 -0.15
14 -0.15
15 0.16
16 -0.15
17 0.16
18 0.15
19 0.15
2 -0.57
20 0.15
21 0.15
22 0.15
23 0.15
24 0.15
25 0.15
26 0.15
3 -0.62
4 0.03
5 -0.01
6 0.08
7 -0.18
8 0.03
9 0.71

>  <PUBCHEM_EFFECTIVE_ROTOR_COUNT>  (1) 
1

>  <PUBCHEM_PHARMACOPHORE_FEATURES>  (1) 
5
1 2 acceptor
1 3 acceptor
6 1 4 5 6 7 9 rings
6 3 8 13 15 16 17 rings
6 4 6 10 11 12 14 rings

>  <PUBCHEM_HEAVY_ATOM_COUNT>  (1) 
17

>  <PUBCHEM_ATOM_DEF_STEREO_COUNT>  (1) 
0

>  <PUBCHEM_ATOM_UDEF_STEREO_COUNT>  (1) 
0

>  <PUBCHEM_BOND_DEF_STEREO_COUNT>  (1) 
0

>  <PUBCHEM_BOND_UDEF_STEREO_COUNT>  (1) 
0

>  <PUBCHEM_ISOTOPIC_ATOM_COUNT>  (1) 
0

>  <PUBCHEM_COMPONENT_COUNT>  (1) 
1

>  <PUBCHEM_CACTVS_TAUTO_COUNT>  (1) 
1

>  <PUBCHEM_CONFORMER_ID>  (1) 
000033DE00000001

>  <PUBCHEM_MMFF94_ENERGY>  (1) 
59.2917

>  <PUBCHEM_FEATURE_SELFOVERLAP>  (1) 
25.399

>  <PUBCHEM_SHAPE_FINGERPRINT>  (1) 
10618630 7 18408606937559256700
11471102 20 18408885165746309460
11578080 2 17487586737808599361
11796584 16 16660636332896424426
12032990 46 18334861610241766010
12236239 1 17775287183846725251
12553582 1 18413669106431727198
12670546 56 17418089931778121521
13140716 1 18122903394211188400
13296908 3 18259703384860543899
13544653 18 18335141977079913190
13760787 5 18411141350568688244
13862211 1 18410569574827206306
14115302 16 17604160297384206222
14252887 29 18201165377540377782
14289901 80 15195567930807439038
14386348 63 18040157331195660347
14576447 43 18128805520662539447
15196674 1 18410575042114481992
15375358 24 18113616806832773522
15375462 189 18202846556340767696
15848702 151 17988650653005041926
16945 1 18410575115239669828
17357779 13 18261099769033784413
1813 80 18271260351559148340
18186145 218 17385442107228855881
200 152 18341608205015663183
20279233 1 17749391472534932403
20645477 70 18409162195195057246
21267235 1 18411708664504612558
22094290 60 16370723729823939879
221490 88 18119250820546822387
23175994 123 18186525410355067165
23184049 59 18343305880965265639
23402539 116 18341327820908015190
23559900 14 17458060439739569218
26918003 58 18113054934947817994
2748010 2 18267297626270184116
2871803 45 18261392213588940682
312423 11 18264781960898488094
474 4 17771613831193924696
4990 188 12396299236080752922
5104073 3 18267580209559246560
573450 72 17060339621835937667
602551 16 15195275482173450486
77492 1 17703514384679027313
83771 10 18341611503571691008

>  <PUBCHEM_SHAPE_MULTIPOLES>  (1) 
333.13
8.99
1.69
0.93
1.1
0.7
-0.01
-3.03
-0.11
-1.08
0
1.08
-0.13
0.02

>  <PUBCHEM_SHAPE_SELFOVERLAP>  (1) 
741.859

>  <PUBCHEM_SHAPE_VOLUME>  (1) 
175.6

>  <PUBCHEM_COORDINATE_TYPE>  (1) 
2
5
10

$$$$
