13272
     RDKit          3D

 16 16  0  0  0  0  0  0  0  0999 V2000
   -1.2948   -0.0174   -0.2289 O   0  0  0  0  0  0  0  0  0  0  0  0
    3.7750   -0.8049    0.0427 O   0  0  0  0  0  0  0  0  0  0  0  0
    3.5850    1.4431   -0.4129 O   0  0  0  0  0  0  0  0  0  0  0  0
   -4.7386   -0.5773   -0.0309 O   0  0  0  0  0  0  0  0  0  0  0  0
   -3.0672   -1.9064   -0.5579 O   0  0  0  0  0  0  0  0  0  0  0  0
   -3.5001   -0.7696   -0.2078 N   0  0  0  0  0  0  0  0  0  0  0  0
    0.7558   -2.2546    0.6293 N   0  0  0  0  0  0  0  0  0  0  0  0
   -0.6075    1.1209    0.0074 C   0  0  0  0  0  0  0  0  0  0  0  0
   -1.4361    2.1452    0.3669 C   0  0  0  0  0  0  0  0  0  0  0  0
   -2.6027    0.2825   -0.0156 C   0  0  0  0  0  0  0  0  0  0  0  0
   -2.7423    1.6004    0.3529 C   0  0  0  0  0  0  0  0  0  0  0  0
    0.8158    1.1757   -0.1217 C   0  0  0  0  0  0  0  0  0  0  0  0
    1.6269    0.1140    0.0516 C   0  0  0  0  0  0  0  0  0  0  0  0
    3.0901    0.3587   -0.1386 C   0  0  0  0  0  0  0  0  0  0  0  0
    1.1444   -1.1919    0.3713 C   0  0  0  0  0  0  0  0  0  0  0  0
    5.1960   -0.7185   -0.1078 C   0  0  0  0  0  0  0  0  0  0  0  0
  1  8  1  0
  1 10  1  0
  2 14  1  0
  2 16  1  0
  3 14  2  0
  4  6  1  0
  5  6  2  0
  6 10  1  0
  7 15  3  0
  8  9  2  0
  8 12  1  0
  9 11  1  0
 10 11  2  0
 12 13  2  0
 13 14  1  0
 13 15  1  0
M  CHG  2   4  -1   6   1
M  END
>  <PUBCHEM_COMPOUND_CID>  (1) 
13272

>  <PUBCHEM_CONFORMER_RMSD>  (1) 
0.6

>  <PUBCHEM_CONFORMER_DIVERSEORDER>  (1) 
2
17
8
7
6
15
10
1
5
13
12
9
4
14
3
16
11

>  <PUBCHEM_MMFF94_PARTIAL_CHARGES>  (1) 
19
1 -0.28
10 0.22
11 -0.15
12 -0.11
13 0.08
14 0.71
15 0.49
16 0.28
17 0.15
18 0.15
19 0.15
2 -0.43
3 -0.57
4 -0.52
5 -0.52
6 0.96
7 -0.56
8 0.09
9 -0.15

>  <PUBCHEM_EFFECTIVE_ROTOR_COUNT>  (1) 
4

>  <PUBCHEM_PHARMACOPHORE_FEATURES>  (1) 
7
1 1 acceptor
1 3 acceptor
1 4 acceptor
1 4 anion
1 5 acceptor
1 7 acceptor
5 1 8 9 10 11 rings

>  <PUBCHEM_HEAVY_ATOM_COUNT>  (1) 
16

>  <PUBCHEM_ATOM_DEF_STEREO_COUNT>  (1) 
0

>  <PUBCHEM_ATOM_UDEF_STEREO_COUNT>  (1) 
0

>  <PUBCHEM_BOND_DEF_STEREO_COUNT>  (1) 
0

>  <PUBCHEM_BOND_UDEF_STEREO_COUNT>  (1) 
1

>  <PUBCHEM_ISOTOPIC_ATOM_COUNT>  (1) 
0

>  <PUBCHEM_COMPONENT_COUNT>  (1) 
1

>  <PUBCHEM_CACTVS_TAUTO_COUNT>  (1) 
1

>  <PUBCHEM_CONFORMER_ID>  (1) 
000033D800000002

>  <PUBCHEM_MMFF94_ENERGY>  (1) 
31.2298

>  <PUBCHEM_FEATURE_SELFOVERLAP>  (1) 
35.615

>  <PUBCHEM_SHAPE_FINGERPRINT>  (1) 
10616163 171 18412827958329851767
108231 29 18271805765235017976
11046707 91 18412824676879521705
11132069 177 18411412891386399944
11806522 49 18410291457907941460
12500047 106 18194957453117089073
13690532 89 18261392213942258130
14325111 11 18409731746829515524
15196674 1 18410012164795547189
15279307 12 18266744575878562121
15375462 189 18411141324999338337
17862501 102 18335133160124049298
18186145 218 18408886205355586340
19422 9 18341899575787155324
200 152 18410849958676105829
21267235 1 18410582777065868903
21634736 98 18196090169009787228
221490 88 18263931105932646866
22959321 4 18410011048441952644
23402539 116 18410851045418785404
23557571 272 17917437488445362140
23559900 14 18342450469941716536
2871803 45 18408316692370039023
3286 77 18412541016381915276
3312278 4 18411698747303715913
5104073 3 18413108351096026536
57096353 35 18408889567819022844
8809292 202 18261114131557474227
9709674 26 18411709759637000502

>  <PUBCHEM_SHAPE_MULTIPOLES>  (1) 
289.96
8.45
2.05
0.66
3.77
0.2
-0.02
2.06
0.75
-0.88
-0.15
0
0.03
-0.62

>  <PUBCHEM_SHAPE_SELFOVERLAP>  (1) 
609.494

>  <PUBCHEM_SHAPE_VOLUME>  (1) 
162.6

>  <PUBCHEM_COORDINATE_TYPE>  (1) 
2
5
10

$$$$
