13289
     RDKit          3D

 18 18  0  0  1  0  0  0  0  0999 V2000
    1.4121    1.7382    0.4024 O   0  0  0  0  0  0  0  0  0  0  0  0
    1.1897    1.9903   -1.8725 O   0  0  0  0  0  0  0  0  0  0  0  0
   -4.6356   -0.0759    1.1671 O   0  0  0  0  0  0  0  0  0  0  0  0
    3.0670   -2.5737   -0.4166 O   0  0  0  0  0  0  0  0  0  0  0  0
    1.7105   -0.8319    0.3231 N   0  0  0  0  0  0  0  0  0  0  0  0
    1.4377   -0.2332   -0.9595 C   0  0  0  0  0  0  0  0  0  0  0  0
    0.2050   -0.8671   -1.6209 C   0  0  0  0  0  0  0  0  0  0  0  0
   -1.0922   -0.6549   -0.8737 C   0  0  0  0  0  0  0  0  0  0  0  0
    1.3255    1.2836   -0.8790 C   0  0  0  0  0  0  0  0  0  0  0  0
   -1.4817   -1.5785    0.0812 C   0  0  0  0  0  0  0  0  0  0  0  0
   -1.8634    0.4588   -1.1600 C   0  0  0  0  0  0  0  0  0  0  0  0
    2.5056   -1.9561    0.4844 C   0  0  0  0  0  0  0  0  0  0  0  0
   -2.6786   -1.3829    0.7704 C   0  0  0  0  0  0  0  0  0  0  0  0
   -3.0602    0.6546   -0.4707 C   0  0  0  0  0  0  0  0  0  0  0  0
   -3.4678   -0.2663    0.4946 C   0  0  0  0  0  0  0  0  0  0  0  0
    1.3346    3.1580    0.5645 C   0  0  0  0  0  0  0  0  0  0  0  0
    2.6459   -2.3562    1.9286 C   0  0  0  0  0  0  0  0  0  0  0  0
    1.4461    3.4931    2.0365 C   0  0  0  0  0  0  0  0  0  0  0  0
  1  9  1  0
  1 16  1  0
  2  9  2  0
  3 15  1  0
  4 12  2  0
  5  6  1  0
  5 12  1  0
  6  7  1  0
  6  9  1  0
  7  8  1  0
  8 10  2  0
  8 11  1  0
 10 13  1  0
 11 14  2  0
 12 17  1  0
 13 15  2  0
 14 15  1  0
 16 18  1  0
M  END
>  <PUBCHEM_COMPOUND_CID>  (1) 
13289

>  <PUBCHEM_CONFORMER_RMSD>  (1) 
0.8

>  <PUBCHEM_CONFORMER_DIVERSEORDER>  (1) 
1
58
3
65
66
18
8
59
26
20
50
27
60
36
34
56
9
10
68
13
46
49
11
57
14
63
29
22
44
52
38
15
64
45
5
47
55
25
12
4
37
30
62
51
6
33
32
35
7
42
53
61
23
54
31
17
43
28
2
21
19
41
40
39
48
24
16
67

>  <PUBCHEM_MMFF94_PARTIAL_CHARGES>  (1) 
23
1 -0.43
10 -0.15
11 -0.15
12 0.57
13 -0.15
14 -0.15
15 0.08
16 0.28
17 0.06
2 -0.57
22 0.37
23 0.15
24 0.15
25 0.15
26 0.15
3 -0.53
35 0.45
4 -0.57
5 -0.73
6 0.36
7 0.14
8 -0.14
9 0.66

>  <PUBCHEM_EFFECTIVE_ROTOR_COUNT>  (1) 
7

>  <PUBCHEM_PHARMACOPHORE_FEATURES>  (1) 
5
1 2 acceptor
1 3 donor
1 4 acceptor
1 5 donor
6 8 10 11 13 14 15 rings

>  <PUBCHEM_HEAVY_ATOM_COUNT>  (1) 
18

>  <PUBCHEM_ATOM_DEF_STEREO_COUNT>  (1) 
1

>  <PUBCHEM_ATOM_UDEF_STEREO_COUNT>  (1) 
0

>  <PUBCHEM_BOND_DEF_STEREO_COUNT>  (1) 
0

>  <PUBCHEM_BOND_UDEF_STEREO_COUNT>  (1) 
0

>  <PUBCHEM_ISOTOPIC_ATOM_COUNT>  (1) 
0

>  <PUBCHEM_COMPONENT_COUNT>  (1) 
1

>  <PUBCHEM_CACTVS_TAUTO_COUNT>  (1) 
4

>  <PUBCHEM_CONFORMER_ID>  (1) 
000033E900000001

>  <PUBCHEM_MMFF94_ENERGY>  (1) 
33.7079

>  <PUBCHEM_FEATURE_SELFOVERLAP>  (1) 
25.371

>  <PUBCHEM_SHAPE_FINGERPRINT>  (1) 
10366900 7 18189057666974307235
104564 63 17764307241266636706
12507560 14 18340489941882926599
12507560 18 17899696756788426393
13134695 92 18270668775601226269
13275264 69 17979054004212367970
13533116 47 18262525896509735227
14178342 30 17829614203551436275
14817 1 10792808127151500756
15375462 189 17822294531138636162
17357990 137 17489319593718491909
17804303 29 17822862961681141999
17841504 4 18409165502330034863
19784866 9 18334866055971066332
20600515 1 18194135026861378030
21041028 32 18269561537379947436
21524375 3 17697315483802725236
21731228 192 17833539477010467768
23419403 2 17760320532342631724
23559900 14 18040155149848113575
305870 269 18123177172211086212
31174 14 18409733993112891327
3286 77 18336268964257092343
4175511 71 18272086046263262198
539174 4 17123051465858857072
7097593 13 18409445877874752131
7364860 26 18410578422063931022
81228 2 17689990138206949846

>  <PUBCHEM_SHAPE_MULTIPOLES>  (1) 
341.97
5.6
3.59
1.77
5.35
2.44
-0.16
-1.81
-2.37
-4.53
-1.89
-0.64
0.43
0.13

>  <PUBCHEM_SHAPE_SELFOVERLAP>  (1) 
695.377

>  <PUBCHEM_SHAPE_VOLUME>  (1) 
198.6

>  <PUBCHEM_COORDINATE_TYPE>  (1) 
2
5
10

$$$$
