13286
     RDKit          3D

 18 18  0  0  0  0  0  0  0  0999 V2000
   -0.9183   -2.6241    0.3468 O   0  0  0  0  0  0  0  0  0  0  0  0
   -1.7864    1.9328    0.5352 O   0  0  0  0  0  0  0  0  0  0  0  0
    2.2486    0.4088   -1.1811 O   0  0  0  0  0  0  0  0  0  0  0  0
   -3.8487    0.4324   -0.8783 O   0  0  0  0  0  0  0  0  0  0  0  0
    3.2784   -1.4928    0.7424 O   0  0  0  0  0  0  0  0  0  0  0  0
    2.5035    2.4132    0.8272 O   0  0  0  0  0  0  0  0  0  0  0  0
   -1.3962   -0.3497    0.4112 N   0  0  0  0  0  0  0  0  0  0  0  0
    0.6752   -1.1314   -0.4338 N   0  0  0  0  0  0  0  0  0  0  0  0
    0.2229    1.1937   -0.3707 N   0  0  0  0  0  0  0  0  0  0  0  0
   -0.5777   -1.4579    0.1243 C   0  0  0  0  0  0  0  0  0  0  0  0
   -1.0430    1.0006    0.2131 C   0  0  0  0  0  0  0  0  0  0  0  0
    1.1356    0.1712   -0.7017 C   0  0  0  0  0  0  0  0  0  0  0  0
   -2.7221   -0.6212    0.9600 C   0  0  0  0  0  0  0  0  0  0  0  0
    1.5566   -2.2536   -0.7460 C   0  0  0  0  0  0  0  0  0  0  0  0
    0.6248    2.5682   -0.6578 C   0  0  0  0  0  0  0  0  0  0  0  0
   -3.7585   -0.7778   -0.1377 C   0  0  0  0  0  0  0  0  0  0  0  0
    2.4498   -2.6050    0.4297 C   0  0  0  0  0  0  0  0  0  0  0  0
    1.3556    3.1924    0.5170 C   0  0  0  0  0  0  0  0  0  0  0  0
  1 10  2  0
  2 11  2  0
  3 12  2  0
  4 16  1  0
  5 17  1  0
  6 18  1  0
  7 10  1  0
  7 11  1  0
  7 13  1  0
  8 10  1  0
  8 12  1  0
  8 14  1  0
  9 11  1  0
  9 12  1  0
  9 15  1  0
 13 16  1  0
 14 17  1  0
 15 18  1  0
M  END
>  <PUBCHEM_COMPOUND_CID>  (1) 
13286

>  <PUBCHEM_CONFORMER_RMSD>  (1) 
0.8

>  <PUBCHEM_CONFORMER_DIVERSEORDER>  (1) 
2
6
4
1
5
3

>  <PUBCHEM_MMFF94_PARTIAL_CHARGES>  (1) 
21
1 -0.57
10 0.69
11 0.69
12 0.69
13 0.3
14 0.3
15 0.3
16 0.28
17 0.28
18 0.28
2 -0.57
3 -0.57
31 0.4
32 0.4
33 0.4
4 -0.68
5 -0.68
6 -0.68
7 -0.42
8 -0.42
9 -0.42

>  <PUBCHEM_EFFECTIVE_ROTOR_COUNT>  (1) 
6

>  <PUBCHEM_PHARMACOPHORE_FEATURES>  (1) 
10
1 1 acceptor
1 2 acceptor
1 3 acceptor
1 4 acceptor
1 4 donor
1 5 acceptor
1 5 donor
1 6 acceptor
1 6 donor
6 7 8 9 10 11 12 rings

>  <PUBCHEM_HEAVY_ATOM_COUNT>  (1) 
18

>  <PUBCHEM_ATOM_DEF_STEREO_COUNT>  (1) 
0

>  <PUBCHEM_ATOM_UDEF_STEREO_COUNT>  (1) 
0

>  <PUBCHEM_BOND_DEF_STEREO_COUNT>  (1) 
0

>  <PUBCHEM_BOND_UDEF_STEREO_COUNT>  (1) 
0

>  <PUBCHEM_ISOTOPIC_ATOM_COUNT>  (1) 
0

>  <PUBCHEM_COMPONENT_COUNT>  (1) 
1

>  <PUBCHEM_CACTVS_TAUTO_COUNT>  (1) 
1

>  <PUBCHEM_CONFORMER_ID>  (1) 
000033E600000002

>  <PUBCHEM_MMFF94_ENERGY>  (1) 
21.4608

>  <PUBCHEM_FEATURE_SELFOVERLAP>  (1) 
50.757

>  <PUBCHEM_SHAPE_FINGERPRINT>  (1) 
10967382 1 18338805631401661077
11680986 33 18337675342101727450
12011746 2 18411694388059317612
12382932 28 18051419461310874674
12423570 1 10703088725475124469
13083527 12 18269536356102748535
13140716 1 18051427454065625618
13380535 76 18051128395888404695
14181834 199 18337667611334700743
15490181 7 17906184192872082430
16945 1 18339657727280579183
20510252 161 17403458473149766824
20645476 183 17177722628250098396
21029758 11 18338796689337980966
21524375 3 17766567128329355383
22112679 90 18125737685636282339
22344851 341 17980772849908001098
2334 1 17619646012359774887
23388829 49 18265050232650138023
23402539 116 18197200473933245023
23419403 2 17971722580789813956
23557571 272 17911799063995566214
257057 1 18265612074427754247
2748010 2 18265346009835834791
305870 269 18049440641028549424
3071541 236 17259618673675982456
5845 1 11967292007982167221
58807428 26 18051975019747042176
7364860 26 18412546547771921098
81228 2 17615423462475756099

>  <PUBCHEM_SHAPE_MULTIPOLES>  (1) 
320.27
4.81
3.69
0.95
3.33
1.17
0.05
-1.24
-0.19
-2.9
-0.53
-0.14
0.07
0.17

>  <PUBCHEM_SHAPE_SELFOVERLAP>  (1) 
646.597

>  <PUBCHEM_SHAPE_VOLUME>  (1) 
185.4

>  <PUBCHEM_COORDINATE_TYPE>  (1) 
2
5
10

$$$$
