13285
     RDKit          3D

 18 19  0  0  1  0  0  0  0  0999 V2000
    0.3211    1.3879    1.3559 O   0  0  0  0  0  0  0  0  0  0  0  0
    0.0735   -2.5471   -1.1199 O   0  0  0  0  0  0  0  0  0  0  0  0
   -3.7079   -0.9031    0.8763 O   0  0  0  0  0  0  0  0  0  0  0  0
    0.2416   -0.4995   -0.0121 N   0  0  0  0  0  0  0  0  0  0  0  0
   -1.8020   -1.6831   -0.1443 N   0  0  0  0  0  0  0  0  0  0  0  0
    1.6862   -0.4679   -0.2321 C   0  0  0  0  0  0  0  0  0  0  0  0
    2.0698    0.8080   -0.9899 C   0  0  0  0  0  0  0  0  0  0  0  0
    2.4197   -0.5548    1.1108 C   0  0  0  0  0  0  0  0  0  0  0  0
    3.5830    0.9139   -1.1713 C   0  0  0  0  0  0  0  0  0  0  0  0
    3.9325   -0.4479    0.9263 C   0  0  0  0  0  0  0  0  0  0  0  0
    4.3182    0.8156    0.1624 C   0  0  0  0  0  0  0  0  0  0  0  0
   -1.8344    0.5821    0.7427 C   0  0  0  0  0  0  0  0  0  0  0  0
   -0.3242    0.5298    0.7500 C   0  0  0  0  0  0  0  0  0  0  0  0
   -2.2843    1.5649   -0.3360 C   0  0  0  0  0  0  0  0  0  0  0  0
   -0.4529   -1.6298   -0.4840 C   0  0  0  0  0  0  0  0  0  0  0  0
   -2.5406   -0.7289    0.5286 C   0  0  0  0  0  0  0  0  0  0  0  0
   -1.9120    1.0460   -1.7227 C   0  0  0  0  0  0  0  0  0  0  0  0
   -3.7875    1.8141   -0.2408 C   0  0  0  0  0  0  0  0  0  0  0  0
  1 13  2  0
  2 15  2  0
  3 16  2  0
  4  6  1  0
  4 13  1  0
  4 15  1  0
  5 15  1  0
  5 16  1  0
  6  7  1  0
  6  8  1  0
  7  9  1  0
  8 10  1  0
  9 11  1  0
 10 11  1  0
 12 13  1  0
 12 14  1  0
 12 16  1  0
 14 17  1  0
 14 18  1  0
M  END
>  <PUBCHEM_COMPOUND_CID>  (1) 
13285

>  <PUBCHEM_CONFORMER_RMSD>  (1) 
0.6

>  <PUBCHEM_CONFORMER_DIVERSEORDER>  (1) 
2
17
7
15
16
18
9
8
10
12
1
11
13
6
3
4
14
5

>  <PUBCHEM_MMFF94_PARTIAL_CHARGES>  (1) 
11
1 -0.57
12 0.12
13 0.57
15 0.69
16 0.57
2 -0.57
3 -0.57
32 0.37
4 -0.42
5 -0.49
6 0.3

>  <PUBCHEM_EFFECTIVE_ROTOR_COUNT>  (1) 
3.8

>  <PUBCHEM_PHARMACOPHORE_FEATURES>  (1) 
8
1 1 acceptor
1 12 anion
1 2 acceptor
1 3 acceptor
1 5 donor
3 14 17 18 hydrophobe
6 4 5 12 13 15 16 rings
6 6 7 8 9 10 11 rings

>  <PUBCHEM_HEAVY_ATOM_COUNT>  (1) 
18

>  <PUBCHEM_ATOM_DEF_STEREO_COUNT>  (1) 
0

>  <PUBCHEM_ATOM_UDEF_STEREO_COUNT>  (1) 
1

>  <PUBCHEM_BOND_DEF_STEREO_COUNT>  (1) 
0

>  <PUBCHEM_BOND_UDEF_STEREO_COUNT>  (1) 
0

>  <PUBCHEM_ISOTOPIC_ATOM_COUNT>  (1) 
0

>  <PUBCHEM_COMPONENT_COUNT>  (1) 
1

>  <PUBCHEM_CACTVS_TAUTO_COUNT>  (1) 
3

>  <PUBCHEM_CONFORMER_ID>  (1) 
000033E500000002

>  <PUBCHEM_MMFF94_ENERGY>  (1) 
38.9262

>  <PUBCHEM_FEATURE_SELFOVERLAP>  (1) 
40.596

>  <PUBCHEM_SHAPE_FINGERPRINT>  (1) 
11031198 65 18129657474944420141
11132069 177 18201449111479995051
11680986 33 18124318198792662055
12173636 292 18411419466918351477
12236239 1 18260268573108955602
12403814 3 18260551168708218009
12670546 56 17676479553740906856
13296909 8 16153425022017601221
13538477 17 18263081192235121338
13581323 91 18410572911842247922
13675066 3 18335134298332567874
14289901 80 17603590754787698896
14614273 12 18410581673528149967
15219456 202 18339368439964312823
15309172 13 18201445782737825083
15375462 478 17821451287033730359
15775835 57 18259709994963087516
16752209 62 18341880935365528535
16945 1 18340207496053449455
18186145 218 17703518726785552968
19422 9 17967252005266130906
19868273 293 18412545418490882268
200 152 16805599330136037795
20645476 183 18335704965915192198
21501502 16 17967535670428385341
21524375 3 18336257942954220951
23402539 116 17703783705014575180
23419403 2 16034580764033519954
23493267 7 18334862684089234850
23557571 272 18334869306791687428
23559900 14 17918000464948958348
25 1 18128529371693136761
2748010 2 18200328610236351887
3286 77 16443061725202262554
4175511 318 18261105257833066293
5104073 3 18040151812426747968
58051976 100 18187366527838393828
633830 44 17131844135470434672
69090 78 17968089781518557125
7097593 13 17604419679217951794
77492 1 18260266391112750762
81228 2 17626652048950000494
90525 40 18409168813644286110

>  <PUBCHEM_SHAPE_MULTIPOLES>  (1) 
342.86
6.93
1.94
1.31
3.15
0.48
0.15
-2.13
-0.7
-1.12
0.55
0.18
-0.09
-0.11

>  <PUBCHEM_SHAPE_SELFOVERLAP>  (1) 
711.633

>  <PUBCHEM_SHAPE_VOLUME>  (1) 
192.6

>  <PUBCHEM_COORDINATE_TYPE>  (1) 
2
5
10

$$$$
