13300
     RDKit          3D

 20 21  0  0  1  0  0  0  0  0999 V2000
    0.6833   -0.4151    2.0156 O   0  0  0  0  0  0  0  0  0  0  0  0
    0.4482   -1.0908   -2.5848 O   0  0  0  0  0  0  0  0  0  0  0  0
   -3.1050   -2.2842    0.0491 O   0  0  0  0  0  0  0  0  0  0  0  0
    0.5793   -0.5961   -0.3074 N   0  0  0  0  0  0  0  0  0  0  0  0
   -1.3215   -1.6412   -1.2503 N   0  0  0  0  0  0  0  0  0  0  0  0
    1.9389   -0.1366   -0.4578 C   0  0  0  0  0  0  0  0  0  0  0  0
    2.0749    1.3152    0.0085 C   0  0  0  0  0  0  0  0  0  0  0  0
    2.9025   -1.0564    0.2961 C   0  0  0  0  0  0  0  0  0  0  0  0
    3.5173    1.8048   -0.0911 C   0  0  0  0  0  0  0  0  0  0  0  0
    4.3438   -0.5633    0.1977 C   0  0  0  0  0  0  0  0  0  0  0  0
    4.4764    0.8852    0.6594 C   0  0  0  0  0  0  0  0  0  0  0  0
   -1.4465   -0.8823    1.0578 C   0  0  0  0  0  0  0  0  0  0  0  0
   -2.1690    0.4609    1.1334 C   0  0  0  0  0  0  0  0  0  0  0  0
    0.0412   -0.6277    0.9849 C   0  0  0  0  0  0  0  0  0  0  0  0
   -2.0388    1.2748   -0.1674 C   0  0  0  0  0  0  0  0  0  0  0  0
   -0.0602   -1.0907   -1.4603 C   0  0  0  0  0  0  0  0  0  0  0  0
   -2.0358   -1.6867   -0.0685 C   0  0  0  0  0  0  0  0  0  0  0  0
   -3.6488    0.2338    1.4531 C   0  0  0  0  0  0  0  0  0  0  0  0
   -2.6995    2.6534   -0.0929 C   0  0  0  0  0  0  0  0  0  0  0  0
   -2.4808    3.4428   -1.3749 C   0  0  0  0  0  0  0  0  0  0  0  0
  1 14  2  0
  2 16  2  0
  3 17  2  0
  4  6  1  0
  4 14  1  0
  4 16  1  0
  5 16  1  0
  5 17  1  0
  6  7  1  0
  6  8  1  0
  7  9  1  0
  8 10  1  0
  9 11  1  0
 10 11  1  0
 12 13  1  0
 12 14  1  0
 12 17  1  0
 13 15  1  0
 13 18  1  0
 15 19  1  0
 19 20  1  0
M  END
>  <PUBCHEM_COMPOUND_CID>  (1) 
13300

>  <PUBCHEM_CONFORMER_RMSD>  (1) 
0.8

>  <PUBCHEM_CONFORMER_DIVERSEORDER>  (1) 
2
13
25
4
16
9
5
19
18
23
21
20
22
10
24
17
8
12
6
14
15
11
1
7
3

>  <PUBCHEM_MMFF94_PARTIAL_CHARGES>  (1) 
11
1 -0.57
12 0.12
14 0.57
16 0.69
17 0.57
2 -0.57
3 -0.57
39 0.37
4 -0.42
5 -0.49
6 0.3

>  <PUBCHEM_EFFECTIVE_ROTOR_COUNT>  (1) 
5.8

>  <PUBCHEM_PHARMACOPHORE_FEATURES>  (1) 
9
1 1 acceptor
1 12 anion
1 18 hydrophobe
1 2 acceptor
1 20 hydrophobe
1 3 acceptor
1 5 donor
6 4 5 12 14 16 17 rings
6 6 7 8 9 10 11 rings

>  <PUBCHEM_HEAVY_ATOM_COUNT>  (1) 
20

>  <PUBCHEM_ATOM_DEF_STEREO_COUNT>  (1) 
0

>  <PUBCHEM_ATOM_UDEF_STEREO_COUNT>  (1) 
2

>  <PUBCHEM_BOND_DEF_STEREO_COUNT>  (1) 
0

>  <PUBCHEM_BOND_UDEF_STEREO_COUNT>  (1) 
0

>  <PUBCHEM_ISOTOPIC_ATOM_COUNT>  (1) 
0

>  <PUBCHEM_COMPONENT_COUNT>  (1) 
1

>  <PUBCHEM_CACTVS_TAUTO_COUNT>  (1) 
3

>  <PUBCHEM_CONFORMER_ID>  (1) 
000033F400000002

>  <PUBCHEM_MMFF94_ENERGY>  (1) 
38.5354

>  <PUBCHEM_FEATURE_SELFOVERLAP>  (1) 
45.671

>  <PUBCHEM_SHAPE_FINGERPRINT>  (1) 
11045515 52 17973152109494494407
12077114 3 18262520282016547845
121448 382 13758061983704908516
12403814 3 18341056302082033537
12596599 1 14852475193010866704
12670546 56 18409724084428401306
12892183 10 17749678406641572634
13103583 49 12036879798758332933
13296909 8 17894915113736685685
13464514 151 17401771817701819045
13583140 156 18335708182777080042
14251751 93 18409724037104620208
14289901 80 18261392282324138138
14614273 12 17988651825768432023
14817 1 15969533918622980343
16945 1 18269846315118001946
18186145 218 18131360682938201450
18981168 100 17986364850241287928
19930381 70 17325770778024202568
21296965 12 18343867710095584133
21524375 3 17971194716682955857
22907989 373 17916572250056332149
23227448 37 18409165523757554313
23402539 116 18270397321395425959
23419403 2 15683889284287318418
23557571 272 18269575942958584675
23559900 14 15841006550429391940
3286 77 18114175397922046338
4175511 318 18273215300349678472
4340502 62 17488204637910643987
4921388 177 10879992471182999852
58051976 100 18201726192773480410
7832392 63 18335413513972013696
90316 7 18263094334940412217
9925002 15 16766199619687317727

>  <PUBCHEM_SHAPE_MULTIPOLES>  (1) 
384.02
6.95
2.74
1.62
5.46
2.1
-0.49
2.37
1.68
-2.71
-1.01
-0.56
-0.4
0.57

>  <PUBCHEM_SHAPE_SELFOVERLAP>  (1) 
788.144

>  <PUBCHEM_SHAPE_VOLUME>  (1) 
217.8

>  <PUBCHEM_COORDINATE_TYPE>  (1) 
2
5
10

$$$$
