13319
     RDKit          3D

 22 24  0  0  0  0  0  0  0  0999 V2000
   -6.3088   -1.1573    0.0303 Cl  0  0  0  0  0  0  0  0  0  0  0  0
    2.6590   -3.9576   -0.0119 O   0  0  0  0  0  0  0  0  0  0  0  0
    3.3335   -2.7377   -0.0034 N   0  0  0  0  0  0  0  0  0  0  0  0
   -0.3301    3.5411   -0.0164 N   0  0  0  0  0  0  0  0  0  0  0  0
    1.7258    0.6295   -0.0007 C   0  0  0  0  0  0  0  0  0  0  0  0
    0.3133    0.1525   -0.0136 C   0  0  0  0  0  0  0  0  0  0  0  0
    2.7697   -0.3263    0.0049 C   0  0  0  0  0  0  0  0  0  0  0  0
   -0.7426    0.9874   -0.0219 C   0  0  0  0  0  0  0  0  0  0  0  0
    2.4494   -1.7885   -0.0031 C   0  0  0  0  0  0  0  0  0  0  0  0
    0.0445   -1.2744   -0.0175 C   0  0  0  0  0  0  0  0  0  0  0  0
    2.0717    1.9940    0.0064 C   0  0  0  0  0  0  0  0  0  0  0  0
    4.1083    0.1003    0.0177 C   0  0  0  0  0  0  0  0  0  0  0  0
    1.0192   -2.1860   -0.0125 C   0  0  0  0  0  0  0  0  0  0  0  0
   -2.1203    0.4561   -0.0094 C   0  0  0  0  0  0  0  0  0  0  0  0
    3.4059    2.4036    0.0185 C   0  0  0  0  0  0  0  0  0  0  0  0
    4.4216    1.4586    0.0245 C   0  0  0  0  0  0  0  0  0  0  0  0
   -2.7638    0.2181   -1.2112 C   0  0  0  0  0  0  0  0  0  0  0  0
   -2.7372    0.2083    1.2045 C   0  0  0  0  0  0  0  0  0  0  0  0
   -4.0654   -0.2835   -1.1989 C   0  0  0  0  0  0  0  0  0  0  0  0
   -4.0386   -0.2935    1.2170 C   0  0  0  0  0  0  0  0  0  0  0  0
   -0.5127    2.3949   -0.0184 C   0  0  0  0  0  0  0  0  0  0  0  0
   -4.7028   -0.5395    0.0152 C   0  0  0  0  0  0  0  0  0  0  0  0
  1 22  1  0
  2  3  1  0
  3  9  2  0
  4 21  3  0
  5  6  1  0
  5  7  2  0
  5 11  1  0
  6  8  2  0
  6 10  1  0
  7  9  1  0
  7 12  1  0
  8 14  1  0
  8 21  1  0
  9 13  1  0
 10 13  2  0
 11 15  2  0
 12 16  2  0
 14 17  2  0
 14 18  1  0
 15 16  1  0
 17 19  1  0
 18 20  2  0
 19 22  2  0
 20 22  1  0
M  END
>  <PUBCHEM_COMPOUND_CID>  (1) 
13319

>  <PUBCHEM_CONFORMER_RMSD>  (1) 
0.6

>  <PUBCHEM_CONFORMER_DIVERSEORDER>  (1) 
1

>  <PUBCHEM_MMFF94_PARTIAL_CHARGES>  (1) 
33
1 -0.18
10 -0.15
11 -0.15
12 -0.15
13 -0.14
14 0.03
15 -0.15
16 -0.15
17 -0.15
18 -0.15
19 -0.15
2 -0.34
20 -0.15
21 0.49
22 0.18
23 0.15
24 0.15
25 0.15
26 0.15
27 0.15
28 0.15
29 0.15
3 -0.51
30 0.15
31 0.15
32 0.15
33 0.4
4 -0.56
5 0.03
6 -0.03
7 0.09
8 0.04
9 0.35

>  <PUBCHEM_EFFECTIVE_ROTOR_COUNT>  (1) 
1

>  <PUBCHEM_PHARMACOPHORE_FEATURES>  (1) 
6
1 2 anion
1 3 acceptor
1 4 acceptor
6 14 17 18 19 20 22 rings
6 5 6 7 9 10 13 rings
6 5 7 11 12 15 16 rings

>  <PUBCHEM_HEAVY_ATOM_COUNT>  (1) 
22

>  <PUBCHEM_ATOM_DEF_STEREO_COUNT>  (1) 
0

>  <PUBCHEM_ATOM_UDEF_STEREO_COUNT>  (1) 
0

>  <PUBCHEM_BOND_DEF_STEREO_COUNT>  (1) 
0

>  <PUBCHEM_BOND_UDEF_STEREO_COUNT>  (1) 
2

>  <PUBCHEM_ISOTOPIC_ATOM_COUNT>  (1) 
0

>  <PUBCHEM_COMPONENT_COUNT>  (1) 
1

>  <PUBCHEM_CACTVS_TAUTO_COUNT>  (1) 
2

>  <PUBCHEM_CONFORMER_ID>  (1) 
0000340700000001

>  <PUBCHEM_MMFF94_ENERGY>  (1) 
109.6084

>  <PUBCHEM_FEATURE_SELFOVERLAP>  (1) 
30.465

>  <PUBCHEM_SHAPE_FINGERPRINT>  (1) 
10090160 65 18335135436187697132
10366900 7 18260562112411424016
10411042 1 18194683653563551406
10967382 1 18410855490694183724
1100329 8 18052819435929334256
11135609 187 18122901195019776969
11578080 2 17387405732206967564
12107183 9 17838911326173346985
12236239 1 17775290495303446745
12403259 226 18191584151579631350
12553582 1 18341885294793783116
12596602 18 17346321556859268219
12730499 353 18336551615416824474
13009979 54 17558836087646887546
13140716 1 18267581506486512000
13224815 77 18410573968124699193
13533116 47 18344145900018737291
13544653 18 18334019371866732125
13583140 156 16517344769224039620
13836976 161 18261395610871174868
13862211 1 18410572886235987306
13911987 19 18118134781737367748
14223421 5 18336827468571481940
14386348 63 17967254221754111675
14787075 74 18188490293141326083
14790565 3 18194130843759066076
14863182 85 18336554897024942630
15196674 1 18410575041987835973
15375462 189 18060416923948673569
16945 1 18410855447844705076
17492 89 18267018358337366967
1813 80 17914345575980943214
19591789 44 17905611355956381262
200 152 18343299293218617561
20028762 73 17840592818301789871
20645477 70 18334288764673242667
20775438 99 17468710210218184717
21065198 48 18130514059179973563
21197605 99 17976831101140032747
21267235 1 18412550911685553670
21285901 2 17749100102312183949
221490 88 18265051336614657438
2334 1 17978228589092434708
23557571 272 17240477001371283701
23558518 356 18117005372879011224
23559900 14 18192982721463703674
2748010 2 18121788493736754408
312423 11 18270690744480049894
314194 84 18341891935504630831
335352 9 18339083817562882900
33824 294 18409448111320425994
350125 39 18339364046513416880
42630746 31 18341333370105942966
46194498 28 17676767686465566125
474 4 18268711778121682344
5104073 3 18340483344543713033
5283173 99 17968928679237554525
59755656 215 18335706048410364390
602551 16 15195275482437110117
70251023 43 18265051323756532347
9709674 26 18334578988556325163

>  <PUBCHEM_SHAPE_MULTIPOLES>  (1) 
438.79
10.11
3.28
0.88
10.56
1.11
0
2.08
0.11
-4.18
-0.02
0.94
-0.03
0.04

>  <PUBCHEM_SHAPE_SELFOVERLAP>  (1) 
965.059

>  <PUBCHEM_SHAPE_VOLUME>  (1) 
236.4

>  <PUBCHEM_COORDINATE_TYPE>  (1) 
2
5
10

$$$$
