13316
     RDKit          3D

 22 24  0  0  1  0  0  0  0  0999 V2000
   -4.3473    3.3654   -1.4300 Br  0  0  0  0  0  0  0  0  0  0  0  0
   -2.1180   -1.8556    1.7144 S   0  0  0  0  0  0  0  0  0  0  0  0
    4.2918    2.2236    0.0348 N   0  0  0  0  0  0  0  0  0  0  0  0
   -0.2256    0.1811   -0.4198 C   0  0  0  0  0  0  0  0  0  0  0  0
    0.6738    1.1076    0.4162 C   0  0  0  0  0  0  0  0  0  0  0  0
    0.3207   -1.2340   -0.5179 C   0  0  0  0  0  0  0  0  0  0  0  0
    2.0741    1.1755   -0.1775 C   0  0  0  0  0  0  0  0  0  0  0  0
   -1.7057    0.3787   -0.0921 C   0  0  0  0  0  0  0  0  0  0  0  0
    0.3302   -2.1341    0.5597 C   0  0  0  0  0  0  0  0  0  0  0  0
    2.9742    2.1302    0.5998 C   0  0  0  0  0  0  0  0  0  0  0  0
   -2.5231   -0.3876    0.7646 C   0  0  0  0  0  0  0  0  0  0  0  0
   -0.3211   -1.7955    1.8643 C   0  0  0  0  0  0  0  0  0  0  0  0
    0.8951   -1.6462   -1.7387 C   0  0  0  0  0  0  0  0  0  0  0  0
   -2.2956    1.5051   -0.7278 C   0  0  0  0  0  0  0  0  0  0  0  0
    0.9026   -3.4102    0.3969 C   0  0  0  0  0  0  0  0  0  0  0  0
   -3.8810   -0.0168    0.9228 C   0  0  0  0  0  0  0  0  0  0  0  0
    1.4602   -2.9129   -1.8876 C   0  0  0  0  0  0  0  0  0  0  0  0
   -3.6323    1.8561   -0.5507 C   0  0  0  0  0  0  0  0  0  0  0  0
    1.4659   -3.7958   -0.8170 C   0  0  0  0  0  0  0  0  0  0  0  0
   -4.4295    1.0890    0.2768 C   0  0  0  0  0  0  0  0  0  0  0  0
    4.9920    0.9303    0.0889 C   0  0  0  0  0  0  0  0  0  0  0  0
    5.0986    3.2461    0.7199 C   0  0  0  0  0  0  0  0  0  0  0  0
  1 18  1  0
  2 11  1  0
  2 12  1  0
  3 10  1  0
  3 21  1  0
  3 22  1  0
  4  5  1  0
  4  6  1  0
  4  8  1  0
  5  7  1  0
  6  9  2  0
  6 13  1  0
  7 10  1  0
  8 11  2  0
  8 14  1  0
  9 12  1  0
  9 15  1  0
 11 16  1  0
 13 17  2  0
 14 18  2  0
 15 19  2  0
 16 20  2  0
 17 19  1  0
 18 20  1  0
M  END
>  <PUBCHEM_COMPOUND_CID>  (1) 
13316

>  <PUBCHEM_CONFORMER_RMSD>  (1) 
0.8

>  <PUBCHEM_CONFORMER_DIVERSEORDER>  (1) 
4
1
18
12
11
14
16
10
2
17
13
7
3
9
15
8
5
6

>  <PUBCHEM_MMFF94_PARTIAL_CHARGES>  (1) 
27
1 -0.11
10 0.27
11 0.1
12 0.37
13 -0.15
14 -0.15
15 -0.15
16 -0.15
17 -0.15
18 0.11
19 -0.15
2 -0.33
20 -0.15
21 0.27
22 0.27
3 -0.81
32 0.15
33 0.15
34 0.15
35 0.15
36 0.15
37 0.15
38 0.15
4 0.29
6 -0.14
8 -0.14
9 -0.14

>  <PUBCHEM_EFFECTIVE_ROTOR_COUNT>  (1) 
4.6

>  <PUBCHEM_PHARMACOPHORE_FEATURES>  (1) 
5
1 1 hydrophobe
1 3 cation
6 6 9 13 15 17 19 rings
6 8 11 14 16 18 20 rings
7 2 4 6 8 9 11 12 rings

>  <PUBCHEM_HEAVY_ATOM_COUNT>  (1) 
22

>  <PUBCHEM_ATOM_DEF_STEREO_COUNT>  (1) 
0

>  <PUBCHEM_ATOM_UDEF_STEREO_COUNT>  (1) 
1

>  <PUBCHEM_BOND_DEF_STEREO_COUNT>  (1) 
0

>  <PUBCHEM_BOND_UDEF_STEREO_COUNT>  (1) 
0

>  <PUBCHEM_ISOTOPIC_ATOM_COUNT>  (1) 
0

>  <PUBCHEM_COMPONENT_COUNT>  (1) 
1

>  <PUBCHEM_CACTVS_TAUTO_COUNT>  (1) 
1

>  <PUBCHEM_CONFORMER_ID>  (1) 
0000340400000004

>  <PUBCHEM_MMFF94_ENERGY>  (1) 
69.9169

>  <PUBCHEM_FEATURE_SELFOVERLAP>  (1) 
25.384

>  <PUBCHEM_SHAPE_FINGERPRINT>  (1) 
10764073 3 17606663752665176010
107951 10 18113904905213654674
11578080 2 16880747436627006766
12293681 160 17468778289671095394
12549972 3 17752787739910849305
12592029 89 18343304751758216442
12707595 3 17907302053117007847
12788726 201 17764847479770827786
13004483 165 17046541030059383878
13540713 4 18116158779728671529
13681431 1 17841996581080189390
15230672 131 18335425691111328062
15664445 248 17550103663114224311
17980427 26 17899675887769188911
1813 80 16626602998889123078
18915476 22 18272380724075065639
20600515 1 17329686748710113249
21033648 29 18199455731391185544
21120745 212 17042055031076156516
21524375 3 18269836574116116453
22182313 1 18041857112412278705
23419403 2 17981647893612877078
23559900 14 18049720720120205603
23598288 3 17829615316079873860
23728640 28 18052533559085561186
2748010 2 17972350475329281483
3298306 158 18411985745787392676
3411729 13 18264764376711768545
376196 1 18336251380007400632
5265222 85 18192164892021089060
532947 4 18342463591272293918
59755656 215 18409732863599867589
6138700 20 18269280063321310366
633830 44 17488768725455774912
7364860 26 18268432334738199791
7399639 24 18338250335834504211
81228 2 17334475598543039266
9862522 239 18268152148272816018
9981440 41 18410004459825016601

>  <PUBCHEM_SHAPE_MULTIPOLES>  (1) 
457.56
8.58
4.87
1.57
0.96
0.73
0.17
-11.72
-0.18
3.98
0.71
-0.34
0.99
3.31

>  <PUBCHEM_SHAPE_SELFOVERLAP>  (1) 
939.345

>  <PUBCHEM_SHAPE_VOLUME>  (1) 
268.8

>  <PUBCHEM_COORDINATE_TYPE>  (1) 
2
5
10

$$$$
