13310
     RDKit          3D

 21 23  0  0  1  0  0  0  0  0999 V2000
   -2.6662   -1.0585    1.6616 S   0  0  0  0  0  0  0  0  0  0  0  0
    4.4609    1.5715   -0.0219 N   0  0  0  0  0  0  0  0  0  0  0  0
   -0.3408    0.3637   -0.5416 C   0  0  0  0  0  0  0  0  0  0  0  0
    0.6849    1.1886    0.2543 C   0  0  0  0  0  0  0  0  0  0  0  0
   -0.0693   -1.1305   -0.4757 C   0  0  0  0  0  0  0  0  0  0  0  0
    2.0945    0.9352   -0.2620 C   0  0  0  0  0  0  0  0  0  0  0  0
   -1.7681    0.8639   -0.3190 C   0  0  0  0  0  0  0  0  0  0  0  0
   -0.2725   -1.9017    0.6799 C   0  0  0  0  0  0  0  0  0  0  0  0
    3.1285    1.7816    0.4731 C   0  0  0  0  0  0  0  0  0  0  0  0
   -2.7485    0.3539    0.5573 C   0  0  0  0  0  0  0  0  0  0  0  0
   -0.8976   -1.3166    1.9078 C   0  0  0  0  0  0  0  0  0  0  0  0
    0.4632   -1.7647   -1.6178 C   0  0  0  0  0  0  0  0  0  0  0  0
   -2.1088    2.0088   -1.0898 C   0  0  0  0  0  0  0  0  0  0  0  0
    0.0535   -3.2714    0.6701 C   0  0  0  0  0  0  0  0  0  0  0  0
   -4.0166    0.9835    0.6022 C   0  0  0  0  0  0  0  0  0  0  0  0
    0.7832   -3.1225   -1.6152 C   0  0  0  0  0  0  0  0  0  0  0  0
   -3.3605    2.6171   -1.0230 C   0  0  0  0  0  0  0  0  0  0  0  0
    0.5800   -3.8768   -0.4683 C   0  0  0  0  0  0  0  0  0  0  0  0
   -4.3200    2.0995   -0.1745 C   0  0  0  0  0  0  0  0  0  0  0  0
    4.9005    0.1834    0.1927 C   0  0  0  0  0  0  0  0  0  0  0  0
    5.4198    2.4919    0.6097 C   0  0  0  0  0  0  0  0  0  0  0  0
  1 10  1  0
  1 11  1  0
  2  9  1  0
  2 20  1  0
  2 21  1  0
  3  4  1  0
  3  5  1  0
  3  7  1  0
  4  6  1  0
  5  8  2  0
  5 12  1  0
  6  9  1  0
  7 10  2  0
  7 13  1  0
  8 11  1  0
  8 14  1  0
 10 15  1  0
 12 16  2  0
 13 17  2  0
 14 18  2  0
 15 19  2  0
 16 18  1  0
 17 19  1  0
M  END
>  <PUBCHEM_COMPOUND_CID>  (1) 
13310

>  <PUBCHEM_CONFORMER_RMSD>  (1) 
0.8

>  <PUBCHEM_CONFORMER_DIVERSEORDER>  (1) 
5
1
20
11
10
4
15
13
3
18
12
2
6
19
16
17
9
14
8
7

>  <PUBCHEM_MMFF94_PARTIAL_CHARGES>  (1) 
27
1 -0.33
10 0.1
11 0.37
12 -0.15
13 -0.15
14 -0.15
15 -0.15
16 -0.15
17 -0.15
18 -0.15
19 -0.15
2 -0.81
20 0.27
21 0.27
3 0.29
31 0.15
32 0.15
33 0.15
34 0.15
35 0.15
36 0.15
37 0.15
38 0.15
5 -0.14
7 -0.14
8 -0.14
9 0.27

>  <PUBCHEM_EFFECTIVE_ROTOR_COUNT>  (1) 
4.6

>  <PUBCHEM_PHARMACOPHORE_FEATURES>  (1) 
4
1 2 cation
6 5 8 12 14 16 18 rings
6 7 10 13 15 17 19 rings
7 1 3 5 7 8 10 11 rings

>  <PUBCHEM_HEAVY_ATOM_COUNT>  (1) 
21

>  <PUBCHEM_ATOM_DEF_STEREO_COUNT>  (1) 
0

>  <PUBCHEM_ATOM_UDEF_STEREO_COUNT>  (1) 
1

>  <PUBCHEM_BOND_DEF_STEREO_COUNT>  (1) 
0

>  <PUBCHEM_BOND_UDEF_STEREO_COUNT>  (1) 
0

>  <PUBCHEM_ISOTOPIC_ATOM_COUNT>  (1) 
0

>  <PUBCHEM_COMPONENT_COUNT>  (1) 
1

>  <PUBCHEM_CACTVS_TAUTO_COUNT>  (1) 
1

>  <PUBCHEM_CONFORMER_ID>  (1) 
000033FE00000005

>  <PUBCHEM_MMFF94_ENERGY>  (1) 
68.9426

>  <PUBCHEM_FEATURE_SELFOVERLAP>  (1) 
20.309

>  <PUBCHEM_SHAPE_FINGERPRINT>  (1) 
10764073 3 17244123943806672386
107951 10 18040442087997007178
11101153 10 17111839926538922632
11578080 2 18197800833636779993
12592029 89 18341891831918818738
12707595 3 17689718559019609679
12788726 201 17979331373211392978
13004483 165 17476915126809289138
13681431 1 17624692358398737878
14251751 93 18341324573891464950
15042514 8 17975700802722026467
15230672 131 18335145281265843150
15664445 248 17336471835318994911
17980427 26 17682659745982651109
18915476 22 18200041620779829427
21033648 29 18271514394907540752
21120745 212 17400936682917824052
21524375 3 18412260666174718901
21731228 192 18410294739373692828
22182313 1 17896619301600436001
22224240 67 18341617057624060969
23419403 2 17981081589300449631
23559900 14 17832420900049316299
23598288 3 17972606755969473732
23728640 28 18266452294991143882
2748010 2 17971504890889568987
3298306 158 18339083692459828286
3380486 77 16901889288498818183
3729539 64 18126587625980085166
5265222 85 18264223559790070604
532947 4 18269840809523998574
59755656 215 18335421227796535437
6138700 20 18124034529952670830
633830 44 17559977457820104088
7364860 26 18122905326635150543
81228 2 17692510626452379145
9862522 239 18337954592301170538
9981440 41 18410571769223055881

>  <PUBCHEM_SHAPE_MULTIPOLES>  (1) 
431.04
8.01
4.31
1.46
7.9
3.37
-0.08
-10.21
-1.52
1.13
0.94
-0.6
0.81
1.91

>  <PUBCHEM_SHAPE_SELFOVERLAP>  (1) 
897.764

>  <PUBCHEM_SHAPE_VOLUME>  (1) 
244.4

>  <PUBCHEM_COORDINATE_TYPE>  (1) 
2
5
10

$$$$
