13321
     RDKit          3D

 22 23  0  0  0  0  0  0  0  0999 V2000
    2.0394   -1.5482   -0.1089 O   0  0  0  0  0  0  0  0  0  0  0  0
   -2.4545    0.2084    0.8288 O   0  0  0  0  0  0  0  0  0  0  0  0
    1.1671   -1.0815   -2.1926 O   0  0  0  0  0  0  0  0  0  0  0  0
   -4.1841   -1.2891    0.5202 O   0  0  0  0  0  0  0  0  0  0  0  0
    2.8752   -0.3995   -0.2002 C   0  0  0  0  0  0  0  0  0  0  0  0
   -3.1877    1.2063    0.1214 C   0  0  0  0  0  0  0  0  0  0  0  0
    4.1784   -0.6518    0.5565 C   0  0  0  0  0  0  0  0  0  0  0  0
    2.1334    0.8193    0.3475 C   0  0  0  0  0  0  0  0  0  0  0  0
   -2.8719    1.0820   -1.3692 C   0  0  0  0  0  0  0  0  0  0  0  0
   -2.8283    2.5921    0.6599 C   0  0  0  0  0  0  0  0  0  0  0  0
    5.0681    0.5869    0.5705 C   0  0  0  0  0  0  0  0  0  0  0  0
    3.0229    2.0581    0.3615 C   0  0  0  0  0  0  0  0  0  0  0  0
   -1.4278    1.4717   -1.6875 C   0  0  0  0  0  0  0  0  0  0  0  0
   -1.3838    2.9771    0.3399 C   0  0  0  0  0  0  0  0  0  0  0  0
    4.3263    1.8053    1.1155 C   0  0  0  0  0  0  0  0  0  0  0  0
   -1.0888    2.8602   -1.1528 C   0  0  0  0  0  0  0  0  0  0  0  0
   -0.9364   -2.7794   -0.3248 C   0  0  0  0  0  0  0  0  0  0  0  0
   -0.8340   -2.1511    1.0707 C   0  0  0  0  0  0  0  0  0  0  0  0
    0.4356   -3.0389   -0.9476 C   0  0  0  0  0  0  0  0  0  0  0  0
   -2.2007   -1.9569    1.7223 C   0  0  0  0  0  0  0  0  0  0  0  0
    1.2284   -1.7725   -1.1850 C   0  0  0  0  0  0  0  0  0  0  0  0
   -3.0766   -0.9985    0.9538 C   0  0  0  0  0  0  0  0  0  0  0  0
  1  5  1  0
  1 21  1  0
  2  6  1  0
  2 22  1  0
  3 21  2  0
  4 22  2  0
  5  7  1  0
  5  8  1  0
  6  9  1  0
  6 10  1  0
  7 11  1  0
  8 12  1  0
  9 13  1  0
 10 14  1  0
 11 15  1  0
 12 15  1  0
 13 16  1  0
 14 16  1  0
 17 18  1  0
 17 19  1  0
 18 20  1  0
 19 21  1  0
 20 22  1  0
M  END
>  <PUBCHEM_COMPOUND_CID>  (1) 
13321

>  <PUBCHEM_CONFORMER_RMSD>  (1) 
1.4

>  <PUBCHEM_CONFORMER_DIVERSEORDER>  (1) 
1
13
11
3
6
10
8
12
4
5
18
7
15
19
9
2
16
17
14

>  <PUBCHEM_MMFF94_PARTIAL_CHARGES>  (1) 
10
1 -0.43
19 0.06
2 -0.43
20 0.06
21 0.66
22 0.66
3 -0.57
4 -0.57
5 0.28
6 0.28

>  <PUBCHEM_EFFECTIVE_ROTOR_COUNT>  (1) 
11.4

>  <PUBCHEM_PHARMACOPHORE_FEATURES>  (1) 
5
1 3 acceptor
1 4 acceptor
4 17 18 19 20 hydrophobe
6 5 7 8 11 12 15 rings
6 6 9 10 13 14 16 rings

>  <PUBCHEM_HEAVY_ATOM_COUNT>  (1) 
22

>  <PUBCHEM_ATOM_DEF_STEREO_COUNT>  (1) 
0

>  <PUBCHEM_ATOM_UDEF_STEREO_COUNT>  (1) 
0

>  <PUBCHEM_BOND_DEF_STEREO_COUNT>  (1) 
0

>  <PUBCHEM_BOND_UDEF_STEREO_COUNT>  (1) 
0

>  <PUBCHEM_ISOTOPIC_ATOM_COUNT>  (1) 
0

>  <PUBCHEM_COMPONENT_COUNT>  (1) 
1

>  <PUBCHEM_CACTVS_TAUTO_COUNT>  (1) 
1

>  <PUBCHEM_CONFORMER_ID>  (1) 
0000340900000001

>  <PUBCHEM_MMFF94_ENERGY>  (1) 
13.758

>  <PUBCHEM_FEATURE_SELFOVERLAP>  (1) 
25.372

>  <PUBCHEM_SHAPE_FINGERPRINT>  (1) 
10366900 7 18266745679437400180
11014199 57 17259059027296522082
11221954 11 18269275668567121538
11370993 70 18340765949028477592
11759241 127 18130791187307421887
12633257 1 18190739730791668104
13402501 40 18411419518341661209
14081887 123 18334297543522942821
14178342 30 18262813847721939717
14251751 93 18409439311143569914
14251764 38 18268422439175663634
17974551 9 17243018951684784362
19930381 70 18342459214536894081
20600515 1 17676776465167761175
23557571 272 18261126157360238883
238 59 18129078074902219397
3187 122 18114475560143050787
35225 105 17752731776032956778
3524813 1 18343023328014976738
57091435 65 17468776524407641204
9862522 239 18272076241280407778

>  <PUBCHEM_SHAPE_MULTIPOLES>  (1) 
429.27
7.97
4
1.57
7.01
0
0.45
-2.74
-2.83
-1.82
0.24
-0.54
0.3
1.66

>  <PUBCHEM_SHAPE_SELFOVERLAP>  (1) 
853.978

>  <PUBCHEM_SHAPE_VOLUME>  (1) 
249.8

>  <PUBCHEM_COORDINATE_TYPE>  (1) 
2
5
10

$$$$
