13324
     RDKit          3D

 23 26  0  0  1  0  0  0  0  0999 V2000
   -3.9088   -1.0712    0.7534 O   0  0  0  0  0  0  0  0  0  0  0  0
    5.9801    1.3019    0.9108 O   0  0  0  0  0  0  0  0  0  0  0  0
   -2.0178   -0.5405   -0.7235 C   0  0  0  0  0  0  0  0  0  0  0  0
   -1.0545   -1.2360    0.2840 C   0  0  0  0  0  0  0  0  0  0  0  0
   -3.1174    0.0079    0.2365 C   0  0  0  0  0  0  0  0  0  0  0  0
    0.3675   -1.4287   -0.2864 C   0  0  0  0  0  0  0  0  0  0  0  0
   -1.1201   -0.3779    1.5693 C   0  0  0  0  0  0  0  0  0  0  0  0
   -2.3121    0.5695    1.4114 C   0  0  0  0  0  0  0  0  0  0  0  0
   -1.2921    0.5521   -1.4922 C   0  0  0  0  0  0  0  0  0  0  0  0
    0.9765   -0.1154   -0.7768 C   0  0  0  0  0  0  0  0  0  0  0  0
   -2.5649   -1.5461   -1.7506 C   0  0  0  0  0  0  0  0  0  0  0  0
    1.2691   -2.1834    0.7050 C   0  0  0  0  0  0  0  0  0  0  0  0
   -4.0789    1.0443   -0.3410 C   0  0  0  0  0  0  0  0  0  0  0  0
    0.0368    0.7386   -1.4922 C   0  0  0  0  0  0  0  0  0  0  0  0
    2.2837    0.1904   -0.5862 C   0  0  0  0  0  0  0  0  0  0  0  0
    2.7109   -2.1768    0.2143 C   0  0  0  0  0  0  0  0  0  0  0  0
    3.1943   -0.7553    0.0765 C   0  0  0  0  0  0  0  0  0  0  0  0
    2.9540    1.4716   -1.0419 C   0  0  0  0  0  0  0  0  0  0  0  0
   -5.0595    1.5074    0.6907 C   0  0  0  0  0  0  0  0  0  0  0  0
    4.3998   -0.4037    0.5533 C   0  0  0  0  0  0  0  0  0  0  0  0
    3.8806    2.0459    0.0226 C   0  0  0  0  0  0  0  0  0  0  0  0
    4.8594    1.0047    0.5036 C   0  0  0  0  0  0  0  0  0  0  0  0
   -6.3864    1.4008    0.5594 C   0  0  0  0  0  0  0  0  0  0  0  0
  1  5  1  0
  2 22  2  0
  3  4  1  0
  3  5  1  0
  3  9  1  0
  3 11  1  0
  4  6  1  0
  4  7  1  0
  5  8  1  0
  5 13  1  0
  6 10  1  0
  6 12  1  0
  7  8  1  0
  9 14  2  0
 10 14  1  0
 10 15  2  0
 12 16  1  0
 13 19  1  0
 15 17  1  0
 15 18  1  0
 16 17  1  0
 17 20  2  0
 18 21  1  0
 19 23  2  0
 20 22  1  0
 21 22  1  0
M  END
>  <PUBCHEM_COMPOUND_CID>  (1) 
13324

>  <PUBCHEM_CONFORMER_RMSD>  (1) 
0.6

>  <PUBCHEM_CONFORMER_DIVERSEORDER>  (1) 
1
54
59
63
4
29
10
41
42
44
45
40
34
2
27
70
53
38
61
21
73
22
62
55
5
14
37
49
20
48
16
18
74
8
6
11
13
47
17
72
9
66
43
26
46
25
3
35
69
12
36
58
7
24
60
50
23
19
75
33
32
31
57
28
51
67
52
15
64
71
65
39
30
68
56

>  <PUBCHEM_MMFF94_PARTIAL_CHARGES>  (1) 
25
1 -0.68
10 -0.14
13 0.14
14 -0.15
15 -0.14
16 0.14
17 -0.14
18 0.14
19 -0.29
2 -0.57
20 -0.14
21 0.06
22 0.49
23 -0.3
3 0.14
30 0.15
38 0.15
41 0.4
44 0.15
45 0.15
48 0.15
49 0.15
5 0.28
6 0.14
9 -0.29

>  <PUBCHEM_EFFECTIVE_ROTOR_COUNT>  (1) 
3.4

>  <PUBCHEM_PHARMACOPHORE_FEATURES>  (1) 
8
1 1 acceptor
1 1 donor
1 2 acceptor
1 23 hydrophobe
5 3 4 5 7 8 rings
6 15 17 18 20 21 22 rings
6 3 4 6 9 10 14 rings
6 6 10 12 15 16 17 rings

>  <PUBCHEM_HEAVY_ATOM_COUNT>  (1) 
23

>  <PUBCHEM_ATOM_DEF_STEREO_COUNT>  (1) 
0

>  <PUBCHEM_ATOM_UDEF_STEREO_COUNT>  (1) 
4

>  <PUBCHEM_BOND_DEF_STEREO_COUNT>  (1) 
0

>  <PUBCHEM_BOND_UDEF_STEREO_COUNT>  (1) 
0

>  <PUBCHEM_ISOTOPIC_ATOM_COUNT>  (1) 
0

>  <PUBCHEM_COMPONENT_COUNT>  (1) 
1

>  <PUBCHEM_CACTVS_TAUTO_COUNT>  (1) 
5

>  <PUBCHEM_CONFORMER_ID>  (1) 
0000340C00000001

>  <PUBCHEM_MMFF94_ENERGY>  (1) 
59.9089

>  <PUBCHEM_FEATURE_SELFOVERLAP>  (1) 
40.883

>  <PUBCHEM_SHAPE_FINGERPRINT>  (1) 
10498660 4 16272207509196832592
10693767 8 10015587164254450100
11089746 13 18060412521491455900
11370993 70 18335423482200854322
11640471 11 18201729439494449586
11961588 58 16702295754657010289
12236239 1 18131064926715437103
12633257 1 16588031241949329680
12670546 177 12319738068106467936
12788726 201 16845015598353442273
12892183 10 18261403191746836889
12969540 114 15267053706264852077
13140716 1 17750239277994424012
13224815 77 17603587469375100646
13533116 47 18264212409063485331
13583140 156 18342180003065879931
13675066 3 17676214533248104821
14178342 30 17968948611574048467
14739800 52 17774708797633091544
15163728 17 16915959357169162617
15183329 4 10087646966737972139
15209294 21 18412825806661629516
15238133 3 18408892858260285196
15342168 16 18335426793678388764
15840311 113 18267311928875705189
16945 1 17967809436223902934
1813 80 15140974936942901887
18222031 100 9223232931770627788
193927 3 11242251809939570576
20157964 124 18339361860369658557
20511986 3 18272072890778603361
20715895 44 17982735165127503553
20739085 24 17749117711731202476
20871999 31 12895078422213385828
21033648 29 18339915030788276448
21452121 103 18187363173527009929
21637258 2 12035733145400177929
22182313 1 17314500444505297903
22854114 59 18334856138896490558
23184049 59 18114180856603784110
23227448 37 17988360472440760909
23557571 272 16558467616293611670
23559900 14 16916511341511992854
2838139 119 17917988360972353073
296302 2 18131070407541794237
3472631 163 17918274268101780485
34934 24 18131348609294664829
4340502 62 18261403226180487179
465052 167 12252201653387365521
474 4 18410012160890937680
5104073 3 18260272923726470707
58807428 26 17530963583482704338
633830 44 18411703222828255542
7970288 3 8502387619781060984
8272917 22 18340489967626161726

>  <PUBCHEM_SHAPE_MULTIPOLES>  (1) 
461.59
11.38
2.06
1.4
2.61
0.32
-0.22
-6.95
3.64
-0.98
0.08
0.61
0.01
-0.59

>  <PUBCHEM_SHAPE_SELFOVERLAP>  (1) 
1001.394

>  <PUBCHEM_SHAPE_VOLUME>  (1) 
250.6

>  <PUBCHEM_COORDINATE_TYPE>  (1) 
2
5
10

$$$$
