13336
     RDKit          3D

 28 29  0  0  0  0  0  0  0  0999 V2000
   -0.5307   -0.9299   -2.7603 S   0  0  0  0  0  0  0  0  0  0  0  0
    0.5276    0.8332   -2.7866 S   0  0  0  0  0  0  0  0  0  0  0  0
   -5.5809    1.4629    0.9769 F   0  0  0  0  0  0  0  0  0  0  0  0
   -5.6950   -0.6219    1.5642 F   0  0  0  0  0  0  0  0  0  0  0  0
   -4.2952    0.7106    2.5612 F   0  0  0  0  0  0  0  0  0  0  0  0
    5.5880   -1.4227    1.0212 F   0  0  0  0  0  0  0  0  0  0  0  0
    5.6968    0.6802    1.5404 F   0  0  0  0  0  0  0  0  0  0  0  0
    4.3017   -0.6231    2.5816 F   0  0  0  0  0  0  0  0  0  0  0  0
   -1.2019   -3.0642    0.9936 O   0  0  0  0  0  0  0  0  0  0  0  0
    1.1963    3.0901    0.8954 O   0  0  0  0  0  0  0  0  0  0  0  0
   -0.1490   -2.7260   -0.9027 O   0  0  0  0  0  0  0  0  0  0  0  0
    0.1426    2.6875   -0.9879 O   0  0  0  0  0  0  0  0  0  0  0  0
   -1.0407   -2.4294   -0.0743 N   0  0  0  0  0  0  0  0  0  0  0  0
    1.0360    2.4206   -0.1513 N   0  0  0  0  0  0  0  0  0  0  0  0
   -3.7544    0.0548    0.3405 C   0  0  0  0  0  0  0  0  0  0  0  0
    3.7570   -0.0412    0.3414 C   0  0  0  0  0  0  0  0  0  0  0  0
   -1.7787   -0.5782   -1.5245 C   0  0  0  0  0  0  0  0  0  0  0  0
    1.7726    0.5266   -1.5465 C   0  0  0  0  0  0  0  0  0  0  0  0
   -1.9027   -1.3315   -0.3570 C   0  0  0  0  0  0  0  0  0  0  0  0
    1.9008    1.3164   -0.3991 C   0  0  0  0  0  0  0  0  0  0  0  0
   -2.8906   -1.0150    0.5755 C   0  0  0  0  0  0  0  0  0  0  0  0
    2.8904    1.0331    0.5422 C   0  0  0  0  0  0  0  0  0  0  0  0
   -3.6305    0.8080   -0.8268 C   0  0  0  0  0  0  0  0  0  0  0  0
    3.6341   -0.8323   -0.8008 C   0  0  0  0  0  0  0  0  0  0  0  0
   -2.6427    0.4914   -1.7594 C   0  0  0  0  0  0  0  0  0  0  0  0
    2.6446   -0.5490   -1.7422 C   0  0  0  0  0  0  0  0  0  0  0  0
   -4.8105    0.3940    1.3375 C   0  0  0  0  0  0  0  0  0  0  0  0
    4.8150   -0.3450    1.3477 C   0  0  0  0  0  0  0  0  0  0  0  0
  1  2  1  0
  1 17  1  0
  2 18  1  0
  3 27  1  0
  4 27  1  0
  5 27  1  0
  6 28  1  0
  7 28  1  0
  8 28  1  0
  9 13  1  0
 10 14  1  0
 11 13  2  0
 12 14  2  0
 13 19  1  0
 14 20  1  0
 15 21  2  0
 15 23  1  0
 15 27  1  0
 16 22  2  0
 16 24  1  0
 16 28  1  0
 17 19  2  0
 17 25  1  0
 18 20  2  0
 18 26  1  0
 19 21  1  0
 20 22  1  0
 23 25  2  0
 24 26  2  0
M  CHG  4   9  -1  10  -1  13   1  14   1
M  END
>  <PUBCHEM_COMPOUND_CID>  (1) 
13336

>  <PUBCHEM_CONFORMER_RMSD>  (1) 
0.8

>  <PUBCHEM_CONFORMER_DIVERSEORDER>  (1) 
1
26
44
17
30
27
35
22
28
8
24
34
12
7
25
29
37
5
33
21
2
15
45
23
18
46
6
11
47
31
43
9
32
10
16
40
39
42
41
20
19
4
3
38
36
13
14

>  <PUBCHEM_MMFF94_PARTIAL_CHARGES>  (1) 
34
1 -0.1
10 -0.52
11 -0.52
12 -0.52
13 0.91
14 0.91
15 -0.14
16 -0.14
17 0.1
18 0.1
19 0.13
2 -0.1
20 0.13
21 -0.15
22 -0.15
23 -0.15
24 -0.15
25 -0.15
26 -0.15
27 1.16
28 1.16
29 0.15
3 -0.34
30 0.15
31 0.15
32 0.15
33 0.15
34 0.15
4 -0.34
5 -0.34
6 -0.34
7 -0.34
8 -0.34
9 -0.52

>  <PUBCHEM_EFFECTIVE_ROTOR_COUNT>  (1) 
7

>  <PUBCHEM_PHARMACOPHORE_FEATURES>  (1) 
8
1 10 acceptor
1 10 anion
1 11 acceptor
1 12 acceptor
1 9 acceptor
1 9 anion
6 15 17 19 21 23 25 rings
6 16 18 20 22 24 26 rings

>  <PUBCHEM_HEAVY_ATOM_COUNT>  (1) 
28

>  <PUBCHEM_ATOM_DEF_STEREO_COUNT>  (1) 
0

>  <PUBCHEM_ATOM_UDEF_STEREO_COUNT>  (1) 
0

>  <PUBCHEM_BOND_DEF_STEREO_COUNT>  (1) 
0

>  <PUBCHEM_BOND_UDEF_STEREO_COUNT>  (1) 
0

>  <PUBCHEM_ISOTOPIC_ATOM_COUNT>  (1) 
0

>  <PUBCHEM_COMPONENT_COUNT>  (1) 
1

>  <PUBCHEM_CACTVS_TAUTO_COUNT>  (1) 
1

>  <PUBCHEM_CONFORMER_ID>  (1) 
0000341800000001

>  <PUBCHEM_MMFF94_ENERGY>  (1) 
76.1078

>  <PUBCHEM_FEATURE_SELFOVERLAP>  (1) 
40.761

>  <PUBCHEM_SHAPE_FINGERPRINT>  (1) 
10498660 4 10375863087154964468
10692045 39 17560243514049183214
11370993 70 15769774649850769719
11640471 11 15769784584120668606
11954058 11 15430617159186795395
11961588 58 13038889019798524686
12403259 327 18337399347577081199
12422481 6 18123470470989819419
12633257 1 18410574023806157142
13103583 49 18410853287038246906
13965767 371 17417537899531288045
13994607 96 13110102313824511868
14251764 30 15719392828106127994
14466204 15 18339925896818580225
15238133 3 18341904004072569612
16110190 28 18260266395307608120
17974551 9 18194120939241741176
17980427 23 17417522626680850136
20715895 44 15625393298773474651
21033648 29 18337394825287794149
21403212 168 18342171112758162713
21475661 188 18129399128683499197
22950370 63 15647058139926463124
23379529 103 15719675372856742952
238 59 9727642700101412302
2818148 4 16951418804237698166
2838139 119 13182735922942650618
3472631 163 14620799284408393257
465052 167 16805904973526647595
474 4 17774455931539008077
7097593 13 17898012575283411021
7970288 3 15864077606487154459
8509985 295 18337122219270784805

>  <PUBCHEM_SHAPE_MULTIPOLES>  (1) 
506.84
10.96
2.6
2.49
0.05
0.54
-0.03
-9.56
-0.22
-0.02
0.03
0.01
-0.25
0.4

>  <PUBCHEM_SHAPE_SELFOVERLAP>  (1) 
1072.233

>  <PUBCHEM_SHAPE_VOLUME>  (1) 
290.9

>  <PUBCHEM_COORDINATE_TYPE>  (1) 
2
5
10

$$$$
