13333
     RDKit          3D

 26 28  0  0  1  0  0  0  0  0999 V2000
   -9.2305   -1.0884   -0.2347 F   0  0  0  0  0  0  0  0  0  0  0  0
   -3.9523    2.0867    0.5708 O   0  0  0  0  0  0  0  0  0  0  0  0
    5.4254   -1.9876    0.2977 O   0  0  0  0  0  0  0  0  0  0  0  0
    0.8474    0.0427    0.7822 N   0  0  0  0  0  0  0  0  0  0  0  0
    3.6279    0.1838    0.1434 N   0  0  0  0  0  0  0  0  0  0  0  0
    1.7912   -0.9230    1.3583 C   0  0  0  0  0  0  0  0  0  0  0  0
    1.2815    0.4205   -0.5682 C   0  0  0  0  0  0  0  0  0  0  0  0
    3.1980   -0.3274    1.4510 C   0  0  0  0  0  0  0  0  0  0  0  0
    2.6719    1.0600   -0.5406 C   0  0  0  0  0  0  0  0  0  0  0  0
   -0.5032   -0.5173    0.7492 C   0  0  0  0  0  0  0  0  0  0  0  0
   -1.5115    0.5095    0.2324 C   0  0  0  0  0  0  0  0  0  0  0  0
   -2.9290   -0.0700    0.2167 C   0  0  0  0  0  0  0  0  0  0  0  0
    4.9998    0.3439   -0.0813 C   0  0  0  0  0  0  0  0  0  0  0  0
   -3.9861    0.9328   -0.2713 C   0  0  0  0  0  0  0  0  0  0  0  0
    5.8942   -0.7436   -0.0034 C   0  0  0  0  0  0  0  0  0  0  0  0
    5.5291    1.6122   -0.3959 C   0  0  0  0  0  0  0  0  0  0  0  0
   -5.3963    0.3899   -0.2620 C   0  0  0  0  0  0  0  0  0  0  0  0
    7.2594   -0.5698   -0.2304 C   0  0  0  0  0  0  0  0  0  0  0  0
    6.8945    1.7859   -0.6228 C   0  0  0  0  0  0  0  0  0  0  0  0
    7.7596    0.6950   -0.5401 C   0  0  0  0  0  0  0  0  0  0  0  0
   -5.8832   -0.2515   -1.3889 C   0  0  0  0  0  0  0  0  0  0  0  0
   -6.1738    0.5440    0.8738 C   0  0  0  0  0  0  0  0  0  0  0  0
   -7.1848   -0.7530   -1.3796 C   0  0  0  0  0  0  0  0  0  0  0  0
   -7.4754    0.0423    0.8831 C   0  0  0  0  0  0  0  0  0  0  0  0
   -7.9808   -0.6061   -0.2436 C   0  0  0  0  0  0  0  0  0  0  0  0
    5.0271   -2.8115   -0.7958 C   0  0  0  0  0  0  0  0  0  0  0  0
  1 25  1  0
  2 14  1  0
  3 15  1  0
  3 26  1  0
  4  6  1  0
  4  7  1  0
  4 10  1  0
  5  8  1  0
  5  9  1  0
  5 13  1  0
  6  8  1  0
  7  9  1  0
 10 11  1  0
 11 12  1  0
 12 14  1  0
 13 15  2  0
 13 16  1  0
 14 17  1  0
 15 18  1  0
 16 19  2  0
 17 21  2  0
 17 22  1  0
 18 20  2  0
 19 20  1  0
 21 23  1  0
 22 24  2  0
 23 25  2  0
 24 25  1  0
M  END
>  <PUBCHEM_COMPOUND_CID>  (1) 
13333

>  <PUBCHEM_CONFORMER_RMSD>  (1) 
1

>  <PUBCHEM_CONFORMER_DIVERSEORDER>  (1) 
1
108
113
81
28
35
46
54
62
50
97
121
15
99
98
101
42
61
87
56
103
41
69
75
127
78
34
16
5
32
77
59
10
26
86
80
100
123
52
122
110
91
73
14
17
83
118
125
57
44
38
31
43
47
64
22
68
85
111
29
120
7
119
106
51
76
53
36
21
63
92
65
70
95
12
112
11
84
117
23
90
19
13
124
66
88
18
24
109
114
48
4
39
20
94
40
8
96
6
72
93
9
79
126
105
104
71
37
33
3
27
45
102
107
82
30
60
49
67
116
2
55
115
74
25
58
89

>  <PUBCHEM_MMFF94_PARTIAL_CHARGES>  (1) 
33
1 -0.19
10 0.27
13 0.1
14 0.42
15 0.08
16 -0.15
17 -0.14
18 -0.15
19 -0.15
2 -0.68
20 -0.15
21 -0.15
22 -0.15
23 -0.15
24 -0.15
25 0.19
26 0.28
3 -0.36
4 -0.81
42 0.15
43 0.15
44 0.15
45 0.4
46 0.15
47 0.15
48 0.15
49 0.15
5 -0.84
50 0.15
6 0.27
7 0.27
8 0.37
9 0.37

>  <PUBCHEM_EFFECTIVE_ROTOR_COUNT>  (1) 
8.2

>  <PUBCHEM_PHARMACOPHORE_FEATURES>  (1) 
8
1 2 acceptor
1 2 donor
1 3 acceptor
1 4 cation
1 5 cation
6 13 15 16 18 19 20 rings
6 17 21 22 23 24 25 rings
6 4 5 6 7 8 9 rings

>  <PUBCHEM_HEAVY_ATOM_COUNT>  (1) 
26

>  <PUBCHEM_ATOM_DEF_STEREO_COUNT>  (1) 
0

>  <PUBCHEM_ATOM_UDEF_STEREO_COUNT>  (1) 
1

>  <PUBCHEM_BOND_DEF_STEREO_COUNT>  (1) 
0

>  <PUBCHEM_BOND_UDEF_STEREO_COUNT>  (1) 
0

>  <PUBCHEM_ISOTOPIC_ATOM_COUNT>  (1) 
0

>  <PUBCHEM_COMPONENT_COUNT>  (1) 
1

>  <PUBCHEM_CACTVS_TAUTO_COUNT>  (1) 
1

>  <PUBCHEM_CONFORMER_ID>  (1) 
0000341500000001

>  <PUBCHEM_MMFF94_ENERGY>  (1) 
86.8232

>  <PUBCHEM_FEATURE_SELFOVERLAP>  (1) 
40.599

>  <PUBCHEM_SHAPE_FINGERPRINT>  (1) 
10 15 15936404563398845953
10066227 49 18341050705408194782
10299344 5 17988925574293928495
10319688 140 17969496009915667610
10595046 47 18341332193200592400
11135609 127 18264772233278208556
11315181 36 17894349982936949049
11524674 6 14836117780647944725
11719270 70 14405187265856710476
12082328 90 18410572865125297413
12166972 35 18272931630766759369
12236239 1 18411136913941597249
13533116 47 18272932683608200722
13673619 4 16486970704957009713
13835254 42 18338796702935903260
13885169 127 14045752508458836883
14123256 10 17967812756423195205
14170010 4 17822012029933481524
14251757 52 12685101392886904422
14251764 18 18060700589337541287
14251764 46 17748826323536961512
15131766 46 11820721469336334502
15142383 8 13840265892930051284
15183329 4 18341892987175421914
15328684 2 17416976031989403403
15352257 5 17847059978482332879
15419008 47 16805315617835288637
1577012 14 17967809393564386849
15849732 13 17530684324809228039
16120349 18 18260267495009504140
1754911 235 18113614591183355005
20157964 124 18408606959767251278
20554085 129 14996277041800754224
20771845 171 17703805721465425924
21095086 128 18273494581247083743
21150785 3 18411980269271586322
21315759 40 18060142042068528681
21315763 28 18409167675921200576
220451 1 17775563130588674463
22224240 67 15864069892493944248
22956985 138 16197362490807361942
23035841 295 17561080315786079171
23081809 10 18202004295958277361
232437 2 18131071520571534734
23522609 53 17916610698693796097
246663 6 16917351454795573093
335352 9 18113905949476003302
34797466 226 18335141981849601582
4073 2 17895483625989513834
4325135 7 18410291420075954325
445580 167 18409165528142179501
5283156 175 18344146982334385597
59755656 215 17095520673492978955
67123 10 18408323306920355125

>  <PUBCHEM_SHAPE_MULTIPOLES>  (1) 
506.09
28.9
1.7
1.13
27.32
0.51
0.05
2.33
-5.91
-2.97
-0.28
0.77
0.18
-1.01

>  <PUBCHEM_SHAPE_SELFOVERLAP>  (1) 
1061.152

>  <PUBCHEM_SHAPE_VOLUME>  (1) 
286.9

>  <PUBCHEM_COORDINATE_TYPE>  (1) 
2
5
10

$$$$
