1335
     RDKit          3D

  9  9  0  0  1  0  0  0  0  0999 V2000
   -0.3424    1.8353   -0.5492 O   0  0  0  0  0  0  0  0  0  0  0  0
    2.4165    0.7453    0.7861 O   0  0  0  0  0  0  0  0  0  0  0  0
   -2.7996    0.4644    0.1650 O   0  0  0  0  0  0  0  0  0  0  0  0
    0.2299   -1.6347    0.0210 N   0  0  0  0  0  0  0  0  0  0  0  0
   -0.6867   -0.5435   -0.3102 C   0  0  0  0  0  0  0  0  0  0  0  0
    0.1038    0.6771    0.1374 C   0  0  0  0  0  0  0  0  0  0  0  0
    1.5387    0.3328   -0.2519 C   0  0  0  0  0  0  0  0  0  0  0  0
    1.5562   -1.1858   -0.4105 C   0  0  0  0  0  0  0  0  0  0  0  0
   -2.0165   -0.6909    0.4122 C   0  0  0  0  0  0  0  0  0  0  0  0
  1  6  1  0
  2  7  1  0
  3  9  1  0
  4  5  1  0
  4  8  1  0
  5  6  1  0
  5  9  1  0
  6  7  1  0
  7  8  1  0
M  END
>  <PUBCHEM_COMPOUND_CID>  (1) 
1335

>  <PUBCHEM_CONFORMER_RMSD>  (1) 
0.4

>  <PUBCHEM_CONFORMER_DIVERSEORDER>  (1) 
5
37
14
36
23
26
33
12
24
17
39
3
25
4
38
30
9
19
22
6
21
18
7
15
31
28
10
35
16
2
27
20
8
34
29
32
11
13
1

>  <PUBCHEM_MMFF94_PARTIAL_CHARGES>  (1) 
13
1 -0.68
15 0.36
18 0.4
19 0.4
2 -0.68
20 0.4
3 -0.68
4 -0.9
5 0.27
6 0.28
7 0.28
8 0.27
9 0.28

>  <PUBCHEM_EFFECTIVE_ROTOR_COUNT>  (1) 
2

>  <PUBCHEM_PHARMACOPHORE_FEATURES>  (1) 
9
1 1 acceptor
1 1 donor
1 2 acceptor
1 2 donor
1 3 acceptor
1 3 donor
1 4 cation
1 4 donor
5 4 5 6 7 8 rings

>  <PUBCHEM_HEAVY_ATOM_COUNT>  (1) 
9

>  <PUBCHEM_ATOM_DEF_STEREO_COUNT>  (1) 
0

>  <PUBCHEM_ATOM_UDEF_STEREO_COUNT>  (1) 
3

>  <PUBCHEM_BOND_DEF_STEREO_COUNT>  (1) 
0

>  <PUBCHEM_BOND_UDEF_STEREO_COUNT>  (1) 
0

>  <PUBCHEM_ISOTOPIC_ATOM_COUNT>  (1) 
0

>  <PUBCHEM_COMPONENT_COUNT>  (1) 
1

>  <PUBCHEM_CACTVS_TAUTO_COUNT>  (1) 
1

>  <PUBCHEM_CONFORMER_ID>  (1) 
0000053700000005

>  <PUBCHEM_MMFF94_ENERGY>  (1) 
14.3318

>  <PUBCHEM_FEATURE_SELFOVERLAP>  (1) 
45.676

>  <PUBCHEM_SHAPE_FINGERPRINT>  (1) 
10857977 72 18334295417719911731
161256 15 18268435637451908574
20711978 78 17774155674232475134
21040471 1 18340211915485028886
23552423 10 18115318773438906166
2748010 2 18411145735651494495
29004967 10 18334021609154296819
5084963 1 18339934705474003702

>  <PUBCHEM_SHAPE_MULTIPOLES>  (1) 
162.63
3.01
1.55
0.72
1.01
0.06
-0.02
0.22
-0.52
-0.18
0.16
-0.13
0.06
0.27

>  <PUBCHEM_SHAPE_SELFOVERLAP>  (1) 
319.822

>  <PUBCHEM_SHAPE_VOLUME>  (1) 
99

>  <PUBCHEM_COORDINATE_TYPE>  (1) 
2
5
10

$$$$
