13360
     RDKit          3D

  9  8  0  0  0  0  0  0  0  0999 V2000
   -0.4827   -0.0169   -0.1780 O   0  0  0  0  0  0  0  0  0  0  0  0
   -2.9775   -0.9573    0.6311 O   0  0  0  0  0  0  0  0  0  0  0  0
    0.8912    1.7944    0.1825 O   0  0  0  0  0  0  0  0  0  0  0  0
   -1.6261    0.8445   -0.1801 C   0  0  0  0  0  0  0  0  0  0  0  0
   -2.8730    0.0113   -0.4054 C   0  0  0  0  0  0  0  0  0  0  0  0
    1.8057   -0.4208   -0.0090 C   0  0  0  0  0  0  0  0  0  0  0  0
    0.7172    0.5957    0.0149 C   0  0  0  0  0  0  0  0  0  0  0  0
    1.4841   -1.8683   -0.2221 C   0  0  0  0  0  0  0  0  0  0  0  0
    3.0610    0.0175    0.1661 C   0  0  0  0  0  0  0  0  0  0  0  0
  1  4  1  0
  1  7  1  0
  2  5  1  0
  3  7  2  0
  4  5  1  0
  6  7  1  0
  6  8  1  0
  6  9  2  0
M  END
>  <PUBCHEM_COMPOUND_CID>  (1) 
13360

>  <PUBCHEM_CONFORMER_RMSD>  (1) 
0.6

>  <PUBCHEM_CONFORMER_DIVERSEORDER>  (1) 
1
12
32
20
31
17
25
6
28
30
29
26
21
18
5
23
19
16
11
7
13
8
27
15
22
10
2
4
14
24
3
9

>  <PUBCHEM_MMFF94_PARTIAL_CHARGES>  (1) 
12
1 -0.43
17 0.15
18 0.15
19 0.4
2 -0.68
3 -0.57
4 0.28
5 0.28
6 -0.12
7 0.71
8 0.14
9 -0.3

>  <PUBCHEM_EFFECTIVE_ROTOR_COUNT>  (1) 
4

>  <PUBCHEM_PHARMACOPHORE_FEATURES>  (1) 
3
1 2 acceptor
1 2 donor
1 3 acceptor

>  <PUBCHEM_HEAVY_ATOM_COUNT>  (1) 
9

>  <PUBCHEM_ATOM_DEF_STEREO_COUNT>  (1) 
0

>  <PUBCHEM_ATOM_UDEF_STEREO_COUNT>  (1) 
0

>  <PUBCHEM_BOND_DEF_STEREO_COUNT>  (1) 
0

>  <PUBCHEM_BOND_UDEF_STEREO_COUNT>  (1) 
0

>  <PUBCHEM_ISOTOPIC_ATOM_COUNT>  (1) 
0

>  <PUBCHEM_COMPONENT_COUNT>  (1) 
1

>  <PUBCHEM_CACTVS_TAUTO_COUNT>  (1) 
1

>  <PUBCHEM_CONFORMER_ID>  (1) 
0000343000000001

>  <PUBCHEM_MMFF94_ENERGY>  (1) 
12.4791

>  <PUBCHEM_FEATURE_SELFOVERLAP>  (1) 
15.223

>  <PUBCHEM_SHAPE_FINGERPRINT>  (1) 
10219947 1 18343861126053124596
10857977 72 18339348708694462744
12932764 1 17346587556631116917
14325111 11 18409446977222251932
20201158 50 18407758131868185771
23552423 10 18046070358801048286
29004967 10 18412261701325023808
3248919 1 18333727983794291973

>  <PUBCHEM_SHAPE_MULTIPOLES>  (1) 
167.61
4.67
1.52
0.66
1.88
0.16
0
0.94
0.24
-0.45
0.03
0.13
0.06
0.31

>  <PUBCHEM_SHAPE_SELFOVERLAP>  (1) 
313.642

>  <PUBCHEM_SHAPE_VOLUME>  (1) 
105.1

>  <PUBCHEM_COORDINATE_TYPE>  (1) 
2
5
10

$$$$
