13361
     RDKit          3D

  6  5  0  0  0  0  0  0  0  0999 V2000
   -0.0403   -0.5473    0.3809 P   0  0  0  0  0  0  0  0  0  0  0  0
   -0.7995    0.7167   -0.3072 O   0  0  0  0  0  0  0  0  0  0  0  0
    1.4937   -0.2989   -0.1001 O   0  0  0  0  0  0  0  0  0  0  0  0
   -0.5691   -1.8623   -0.1304 O   0  0  0  0  0  0  0  0  0  0  0  0
   -2.1240    0.9907    0.1140 C   0  0  0  0  0  0  0  0  0  0  0  0
    2.0393    1.0013    0.0428 C   0  0  0  0  0  0  0  0  0  0  0  0
  1  2  1  0
  1  3  1  0
  1  4  2  0
  2  5  1  0
  3  6  1  0
M  END
>  <PUBCHEM_COMPOUND_CID>  (1) 
13361

>  <PUBCHEM_CONFORMER_RMSD>  (1) 
0.4

>  <PUBCHEM_CONFORMER_DIVERSEORDER>  (1) 
3
8
1
2
7
6
4
5

>  <PUBCHEM_MMFF94_PARTIAL_CHARGES>  (1) 
7
1 1.28
2 -0.55
3 -0.55
4 -0.7
5 0.28
6 0.28
7 -0.04

>  <PUBCHEM_EFFECTIVE_ROTOR_COUNT>  (1) 
2

>  <PUBCHEM_PHARMACOPHORE_FEATURES>  (1) 
1
1 4 acceptor

>  <PUBCHEM_HEAVY_ATOM_COUNT>  (1) 
6

>  <PUBCHEM_ATOM_DEF_STEREO_COUNT>  (1) 
0

>  <PUBCHEM_ATOM_UDEF_STEREO_COUNT>  (1) 
0

>  <PUBCHEM_BOND_DEF_STEREO_COUNT>  (1) 
0

>  <PUBCHEM_BOND_UDEF_STEREO_COUNT>  (1) 
0

>  <PUBCHEM_ISOTOPIC_ATOM_COUNT>  (1) 
0

>  <PUBCHEM_COMPONENT_COUNT>  (1) 
1

>  <PUBCHEM_CACTVS_TAUTO_COUNT>  (1) 
2

>  <PUBCHEM_CONFORMER_ID>  (1) 
0000343100000003

>  <PUBCHEM_MMFF94_ENERGY>  (1) 
4.836

>  <PUBCHEM_FEATURE_SELFOVERLAP>  (1) 
5.074

>  <PUBCHEM_SHAPE_FINGERPRINT>  (1) 
139733 1 9364585059863221058
16714656 1 18266744756182922219
20096714 4 18409165472223039672
21040471 1 18410292506027628672
23552449 1 18124593347398174568
5943 1 8347360637380777347

>  <PUBCHEM_SHAPE_MULTIPOLES>  (1) 
109.72
2.64
1.56
0.63
0.18
0.61
-0.05
-1.41
-0.02
-0.3
0.06
-0.02
0
-0.01

>  <PUBCHEM_SHAPE_SELFOVERLAP>  (1) 
178.616

>  <PUBCHEM_SHAPE_VOLUME>  (1) 
77.1

>  <PUBCHEM_COORDINATE_TYPE>  (1) 
2
5
10

$$$$
