13376
     RDKit          3D

  7  6  0  0  0  0  0  0  0  0999 V2000
    2.3684   -1.1858   -0.2973 O   0  0  0  0  0  0  0  0  0  0  0  0
    1.4419    0.8754    0.2947 N   0  0  0  0  0  0  0  0  0  0  0  0
   -0.8993    0.1508    0.3291 C   0  0  0  0  0  0  0  0  0  0  0  0
   -2.2015    0.0786   -0.4693 C   0  0  0  0  0  0  0  0  0  0  0  0
    0.2159    0.7975   -0.4907 C   0  0  0  0  0  0  0  0  0  0  0  0
   -3.3071   -0.5958    0.3271 C   0  0  0  0  0  0  0  0  0  0  0  0
    2.3817   -0.1208    0.3063 C   0  0  0  0  0  0  0  0  0  0  0  0
  1  7  2  0
  2  5  1  0
  2  7  1  0
  3  4  1  0
  3  5  1  0
  4  6  1  0
M  END
>  <PUBCHEM_COMPOUND_CID>  (1) 
13376

>  <PUBCHEM_CONFORMER_RMSD>  (1) 
0.6

>  <PUBCHEM_CONFORMER_DIVERSEORDER>  (1) 
1
9
26
19
14
21
22
17
12
24
25
2
5
20
23
13
3
4
16
15
6
10
7
8
18
11

>  <PUBCHEM_MMFF94_PARTIAL_CHARGES>  (1) 
6
1 -0.57
17 0.37
18 0.06
2 -0.73
5 0.3
7 0.57

>  <PUBCHEM_EFFECTIVE_ROTOR_COUNT>  (1) 
4

>  <PUBCHEM_PHARMACOPHORE_FEATURES>  (1) 
3
1 1 acceptor
1 2 donor
1 6 hydrophobe

>  <PUBCHEM_HEAVY_ATOM_COUNT>  (1) 
7

>  <PUBCHEM_ATOM_DEF_STEREO_COUNT>  (1) 
0

>  <PUBCHEM_ATOM_UDEF_STEREO_COUNT>  (1) 
0

>  <PUBCHEM_BOND_DEF_STEREO_COUNT>  (1) 
0

>  <PUBCHEM_BOND_UDEF_STEREO_COUNT>  (1) 
0

>  <PUBCHEM_ISOTOPIC_ATOM_COUNT>  (1) 
0

>  <PUBCHEM_COMPONENT_COUNT>  (1) 
1

>  <PUBCHEM_CACTVS_TAUTO_COUNT>  (1) 
2

>  <PUBCHEM_CONFORMER_ID>  (1) 
0000344000000001

>  <PUBCHEM_MMFF94_ENERGY>  (1) 
-3.0322

>  <PUBCHEM_FEATURE_SELFOVERLAP>  (1) 
15.223

>  <PUBCHEM_SHAPE_FINGERPRINT>  (1) 
12897270 3 11891333144888665563
12932764 1 17632291311097390229
14390081 3 10087645892442461267
20096714 4 8718536225428080284
21293036 1 16153433865054647895
29004967 10 18410288125145214536
5460574 1 11312063161930381561

>  <PUBCHEM_SHAPE_MULTIPOLES>  (1) 
133.21
4.88
1
0.73
1.66
0.07
-0.01
1.58
0.26
-0.36
-0.07
0.06
-0.01
0.25

>  <PUBCHEM_SHAPE_SELFOVERLAP>  (1) 
232.71

>  <PUBCHEM_SHAPE_VOLUME>  (1) 
87.6

>  <PUBCHEM_COORDINATE_TYPE>  (1) 
2
5
10

$$$$
