13382
     RDKit          3D

 11 10  0  0  0  0  0  0  0  0999 V2000
   -0.0035   -1.0091    0.0000 S   0  0  0  0  0  0  0  0  0  0  0  0
    2.7121   -0.5513    0.0145 C   0  0  0  0  0  0  0  0  0  0  0  0
   -2.7123   -0.5535   -0.0145 C   0  0  0  0  0  0  0  0  0  0  0  0
    3.8754    0.4442    0.0274 C   0  0  0  0  0  0  0  0  0  0  0  0
   -3.8742    0.4434   -0.0274 C   0  0  0  0  0  0  0  0  0  0  0  0
    1.3712    0.1772    0.0073 C   0  0  0  0  0  0  0  0  0  0  0  0
   -1.3704    0.1734   -0.0073 C   0  0  0  0  0  0  0  0  0  0  0  0
    5.2238   -0.2750   -0.0015 C   0  0  0  0  0  0  0  0  0  0  0  0
   -5.2236   -0.2741    0.0016 C   0  0  0  0  0  0  0  0  0  0  0  0
    6.3807    0.7113   -0.0231 C   0  0  0  0  0  0  0  0  0  0  0  0
   -6.3792    0.7136    0.0230 C   0  0  0  0  0  0  0  0  0  0  0  0
  1  6  1  0
  1  7  1  0
  2  4  1  0
  2  6  1  0
  3  5  1  0
  3  7  1  0
  4  8  1  0
  5  9  1  0
  8 10  1  0
  9 11  1  0
M  END
>  <PUBCHEM_COMPOUND_CID>  (1) 
13382

>  <PUBCHEM_CONFORMER_RMSD>  (1) 
0.8

>  <PUBCHEM_CONFORMER_DIVERSEORDER>  (1) 
1
51
95
13
11
76
73
53
16
46
5
140
126
9
105
133
7
65
37
49
71
17
109
132
38
88
74
83
116
68
130
14
56
131
137
138
41
47
52
54
18
3
43
26
101
15
122
120
79
24
115
4
108
2
134
8
59
6
39
19
78
94
55
102
30
82
33
127
10
12
80
81
66
139
75
77
99
63
60
128
100
36
89
124
107
70
50
22
117
45
84
40
23
35
28
114
62
112
29
57
69
110
64
48
32
34
87
27
42
136
106
86
103
96
25
72
111
121
91
119
98
85
21
58
135
67
31
104
90
92
20
93
123
97
44
129
118
125
113
61

>  <PUBCHEM_MMFF94_PARTIAL_CHARGES>  (1) 
3
1 -0.46
6 0.23
7 0.23

>  <PUBCHEM_EFFECTIVE_ROTOR_COUNT>  (1) 
8

>  <PUBCHEM_PHARMACOPHORE_FEATURES>  (1) 
2
1 10 hydrophobe
1 11 hydrophobe

>  <PUBCHEM_HEAVY_ATOM_COUNT>  (1) 
11

>  <PUBCHEM_ATOM_DEF_STEREO_COUNT>  (1) 
0

>  <PUBCHEM_ATOM_UDEF_STEREO_COUNT>  (1) 
0

>  <PUBCHEM_BOND_DEF_STEREO_COUNT>  (1) 
0

>  <PUBCHEM_BOND_UDEF_STEREO_COUNT>  (1) 
0

>  <PUBCHEM_ISOTOPIC_ATOM_COUNT>  (1) 
0

>  <PUBCHEM_COMPONENT_COUNT>  (1) 
1

>  <PUBCHEM_CACTVS_TAUTO_COUNT>  (1) 
1

>  <PUBCHEM_CONFORMER_ID>  (1) 
0000344600000001

>  <PUBCHEM_MMFF94_ENERGY>  (1) 
0.3529

>  <PUBCHEM_FEATURE_SELFOVERLAP>  (1) 
10.149

>  <PUBCHEM_SHAPE_FINGERPRINT>  (1) 
10354089 29 17458063768386397316
12091667 2 18272370884816595951
12714333 28 17989487420018722547
12815109 37 18410856559639945476
13533116 47 18338230471595313162
14123238 8 18410855460133462535
1420 363 8070027783038648888
14251718 22 18060700602238358223
15048467 5 18410573989446600324
15242439 84 16271924930366255386
15501527 16 18409449202047005211
17834072 8 16774078479261721856
17834076 25 18410573989446418439
187816 3 15482673485110445150
20281389 69 18260264140312803084
20605781 2 18411699889654038862
20621476 8 18340208496574880437
20645477 70 17702953522043419454
20767249 213 18410293622571283141
21130983 4 18259989283906913516
23035841 295 9799693696658409109
23402539 116 18131345332340035391
23521765 1 18341894090834051077
366044 4 18411418418835593730
42788 4 18411136939399839751
8209 1 18342738515769496820

>  <PUBCHEM_SHAPE_MULTIPOLES>  (1) 
230.22
17.11
0.93
0.62
0.03
0.07
0
-4.64
0
0
0
0
0.01
-0.01

>  <PUBCHEM_SHAPE_SELFOVERLAP>  (1) 
391.309

>  <PUBCHEM_SHAPE_VOLUME>  (1) 
153.6

>  <PUBCHEM_COORDINATE_TYPE>  (1) 
2
5
10

$$$$
