13387
     RDKit          3D

  7  7  0  0  0  0  0  0  0  0999 V2000
    1.0953   -1.7042    0.0498 O   0  0  0  0  0  0  0  0  0  0  0  0
    0.5109    0.5758    0.0065 N   0  0  0  0  0  0  0  0  0  0  0  0
   -1.7866    0.3643    0.2327 C   0  0  0  0  0  0  0  0  0  0  0  0
   -0.6992    1.3470   -0.1527 C   0  0  0  0  0  0  0  0  0  0  0  0
   -1.2120   -0.9910   -0.1621 C   0  0  0  0  0  0  0  0  0  0  0  0
    0.2782   -0.7974   -0.0051 C   0  0  0  0  0  0  0  0  0  0  0  0
    1.8133    1.2054    0.0309 C   0  0  0  0  0  0  0  0  0  0  0  0
  1  6  2  0
  2  4  1  0
  2  6  1  0
  2  7  1  0
  3  4  1  0
  3  5  1  0
  5  6  1  0
M  END
>  <PUBCHEM_COMPOUND_CID>  (1) 
13387

>  <PUBCHEM_CONFORMER_RMSD>  (1) 
0.4

>  <PUBCHEM_CONFORMER_DIVERSEORDER>  (1) 
1

>  <PUBCHEM_MMFF94_PARTIAL_CHARGES>  (1) 
6
1 -0.57
2 -0.66
4 0.3
5 0.06
6 0.57
7 0.3

>  <PUBCHEM_EFFECTIVE_ROTOR_COUNT>  (1) 
0.8

>  <PUBCHEM_PHARMACOPHORE_FEATURES>  (1) 
2
1 1 acceptor
5 2 3 4 5 6 rings

>  <PUBCHEM_HEAVY_ATOM_COUNT>  (1) 
7

>  <PUBCHEM_ATOM_DEF_STEREO_COUNT>  (1) 
0

>  <PUBCHEM_ATOM_UDEF_STEREO_COUNT>  (1) 
0

>  <PUBCHEM_BOND_DEF_STEREO_COUNT>  (1) 
0

>  <PUBCHEM_BOND_UDEF_STEREO_COUNT>  (1) 
0

>  <PUBCHEM_ISOTOPIC_ATOM_COUNT>  (1) 
0

>  <PUBCHEM_COMPONENT_COUNT>  (1) 
1

>  <PUBCHEM_CACTVS_TAUTO_COUNT>  (1) 
2

>  <PUBCHEM_CONFORMER_ID>  (1) 
0000344B00000001

>  <PUBCHEM_MMFF94_ENERGY>  (1) 
7.4873

>  <PUBCHEM_FEATURE_SELFOVERLAP>  (1) 
10.148

>  <PUBCHEM_SHAPE_FINGERPRINT>  (1) 
16714656 1 18049164667894629332
20096714 4 18412548699518926745
21040471 1 18338800151013030212
23552423 10 18261677077268298814
29004967 10 18115036302319692969
5943 1 13817201814674776733

>  <PUBCHEM_SHAPE_MULTIPOLES>  (1) 
133.21
2.08
1.71
0.61
0.39
0.42
0
-0.48
-0.07
0.18
0.02
-0.04
-0.03
-0.05

>  <PUBCHEM_SHAPE_SELFOVERLAP>  (1) 
260.874

>  <PUBCHEM_SHAPE_VOLUME>  (1) 
82.9

>  <PUBCHEM_COORDINATE_TYPE>  (1) 
2
5
10

$$$$
