134
     RDKit          3D

 10  9  0  0  0  0  0  0  0  0999 V2000
    3.9189   -0.6417    0.0013 O   0  0  0  0  0  0  0  0  0  0  0  0
    2.7585    1.3104   -0.0018 O   0  0  0  0  0  0  0  0  0  0  0  0
   -2.2509    0.0085   -0.0012 N   0  0  0  0  0  0  0  0  0  0  0  0
   -1.0004   -0.8583    0.0312 C   0  0  0  0  0  0  0  0  0  0  0  0
    0.2539    0.0060    0.0146 C   0  0  0  0  0  0  0  0  0  0  0  0
   -3.4857   -0.8807    0.0302 C   0  0  0  0  0  0  0  0  0  0  0  0
   -2.2595    0.9315    1.2089 C   0  0  0  0  0  0  0  0  0  0  0  0
   -2.2580    0.8416   -1.2749 C   0  0  0  0  0  0  0  0  0  0  0  0
    1.5511   -0.8045   -0.0044 C   0  0  0  0  0  0  0  0  0  0  0  0
    2.7721    0.0873   -0.0038 C   0  0  0  0  0  0  0  0  0  0  0  0
  1 10  1  0
  2 10  2  0
  3  4  1  0
  3  6  1  0
  3  7  1  0
  3  8  1  0
  4  5  1  0
  5  9  1  0
  9 10  1  0
M  CHG  1   3   1
M  END
>  <PUBCHEM_COMPOUND_CID>  (1) 
134

>  <PUBCHEM_CONFORMER_RMSD>  (1) 
0.6

>  <PUBCHEM_CONFORMER_DIVERSEORDER>  (1) 
1
3
2
4

>  <PUBCHEM_MMFF94_PARTIAL_CHARGES>  (1) 
10
1 -0.65
10 0.66
2 -0.57
26 0.5
3 -1.01
4 0.5
6 0.5
7 0.5
8 0.5
9 0.06

>  <PUBCHEM_EFFECTIVE_ROTOR_COUNT>  (1) 
4

>  <PUBCHEM_PHARMACOPHORE_FEATURES>  (1) 
4
1 1 acceptor
1 2 acceptor
1 3 cation
3 1 2 10 anion

>  <PUBCHEM_HEAVY_ATOM_COUNT>  (1) 
10

>  <PUBCHEM_ATOM_DEF_STEREO_COUNT>  (1) 
0

>  <PUBCHEM_ATOM_UDEF_STEREO_COUNT>  (1) 
0

>  <PUBCHEM_BOND_DEF_STEREO_COUNT>  (1) 
0

>  <PUBCHEM_BOND_UDEF_STEREO_COUNT>  (1) 
0

>  <PUBCHEM_ISOTOPIC_ATOM_COUNT>  (1) 
0

>  <PUBCHEM_COMPONENT_COUNT>  (1) 
1

>  <PUBCHEM_CACTVS_TAUTO_COUNT>  (1) 
1

>  <PUBCHEM_CONFORMER_ID>  (1) 
0000008600000001

>  <PUBCHEM_MMFF94_ENERGY>  (1) 
23.6968

>  <PUBCHEM_FEATURE_SELFOVERLAP>  (1) 
20.355

>  <PUBCHEM_SHAPE_FINGERPRINT>  (1) 
10857977 72 16515692155854892637
11062470 55 8574715697519948074
12162725 195 18273218599074517808
12932764 1 18040152894510157210
14144814 61 18341049636219099274
14325111 11 18410856572677743722
14390081 3 18041273305311567557
15310529 11 17131838633791336727
190213 19 18060136531219253830
20711983 171 17703519817327704505
21028194 46 18334576849689024382
23402539 116 17774994687662037063
3248919 1 18059572464563903054
57812782 119 18114176453871869938

>  <PUBCHEM_SHAPE_MULTIPOLES>  (1) 
189.08
6.42
1.16
0.92
3.32
0.12
-0.03
-0.27
0
-0.13
0.02
-0.76
0.29
0

>  <PUBCHEM_SHAPE_SELFOVERLAP>  (1) 
344.027

>  <PUBCHEM_SHAPE_VOLUME>  (1) 
122.8

>  <PUBCHEM_COORDINATE_TYPE>  (1) 
2
5
10

$$$$
