13409
     RDKit          3D

 11 13  0  0  1  0  0  0  0  0999 V2000
    2.2778   -0.8592   -0.6872 O   0  0  0  0  0  0  0  0  0  0  0  0
   -0.5292    1.2786   -0.6196 C   0  0  0  0  0  0  0  0  0  0  0  0
    0.2598    1.7114    0.5745 C   0  0  0  0  0  0  0  0  0  0  0  0
    0.9788    1.1864   -0.6374 C   0  0  0  0  0  0  0  0  0  0  0  0
   -1.0887   -0.1212   -0.3525 C   0  0  0  0  0  0  0  0  0  0  0  0
    0.1159   -0.5882    0.5771 C   0  0  0  0  0  0  0  0  0  0  0  0
    0.2506    0.5954    1.6038 C   0  0  0  0  0  0  0  0  0  0  0  0
    1.3131   -0.2254   -0.3177 C   0  0  0  0  0  0  0  0  0  0  0  0
   -2.4500   -0.0626    0.3487 C   0  0  0  0  0  0  0  0  0  0  0  0
   -1.2275   -0.9401   -1.6427 C   0  0  0  0  0  0  0  0  0  0  0  0
    0.0994   -1.9752    1.1530 C   0  0  0  0  0  0  0  0  0  0  0  0
  1  8  2  0
  2  3  1  0
  2  4  1  0
  2  5  1  0
  3  4  1  0
  3  7  1  0
  4  8  1  0
  5  6  1  0
  5  9  1  0
  5 10  1  0
  6  7  1  0
  6  8  1  0
  6 11  1  0
M  END
>  <PUBCHEM_COMPOUND_CID>  (1) 
13409

>  <PUBCHEM_CONFORMER_RMSD>  (1) 
0.4

>  <PUBCHEM_CONFORMER_DIVERSEORDER>  (1) 
2
1

>  <PUBCHEM_MMFF94_PARTIAL_CHARGES>  (1) 
11
1 -0.57
12 0.1
13 0.1
14 0.1
2 -0.19
3 -0.19
4 -0.1
5 0.09
6 0.06
7 0.09
8 0.51

>  <PUBCHEM_EFFECTIVE_ROTOR_COUNT>  (1) 
0.4

>  <PUBCHEM_PHARMACOPHORE_FEATURES>  (1) 
3
1 1 acceptor
3 5 9 10 hydrophobe
7 2 3 4 5 6 7 8 rings

>  <PUBCHEM_HEAVY_ATOM_COUNT>  (1) 
11

>  <PUBCHEM_ATOM_DEF_STEREO_COUNT>  (1) 
0

>  <PUBCHEM_ATOM_UDEF_STEREO_COUNT>  (1) 
4

>  <PUBCHEM_BOND_DEF_STEREO_COUNT>  (1) 
0

>  <PUBCHEM_BOND_UDEF_STEREO_COUNT>  (1) 
0

>  <PUBCHEM_ISOTOPIC_ATOM_COUNT>  (1) 
0

>  <PUBCHEM_COMPONENT_COUNT>  (1) 
1

>  <PUBCHEM_CACTVS_TAUTO_COUNT>  (1) 
1

>  <PUBCHEM_CONFORMER_ID>  (1) 
0000346100000002

>  <PUBCHEM_MMFF94_ENERGY>  (1) 
64.87

>  <PUBCHEM_FEATURE_SELFOVERLAP>  (1) 
15.223

>  <PUBCHEM_SHAPE_FINGERPRINT>  (1) 
12423570 1 12125917189048588865
13024252 1 17461190714820318870
137420 1 12012565640480364889
16945 1 18271541800776409373
21040471 1 17899130804489445233
21922407 69 15693448876433588461
241688 4 18269818952044616607
29004967 10 18411144661830256760
369184 2 18191594055927170646
5084963 1 18340774844359070721
528886 8 18114184116125193993
54276843 12 18270975539403183313
68250623 7 18127711519588352735

>  <PUBCHEM_SHAPE_MULTIPOLES>  (1) 
220.51
2.06
1.73
1.42
0.61
0.27
0.03
0.19
-0.45
-0.31
0.29
0.11
0.2
0.06

>  <PUBCHEM_SHAPE_SELFOVERLAP>  (1) 
488.52

>  <PUBCHEM_SHAPE_VOLUME>  (1) 
125.9

>  <PUBCHEM_COORDINATE_TYPE>  (1) 
2
5
10

$$$$
