13412
     RDKit          3D

 12 12  0  0  0  0  0  0  0  0999 V2000
   -2.7002   -1.6049    0.0011 Cl  0  0  0  0  0  0  0  0  0  0  0  0
    2.6923   -1.6182    0.0001 Cl  0  0  0  0  0  0  0  0  0  0  0  0
    2.7247    1.5412   -0.0002 Cl  0  0  0  0  0  0  0  0  0  0  0  0
   -2.7169    1.5544   -0.0010 Cl  0  0  0  0  0  0  0  0  0  0  0  0
    0.0078    3.1240    0.0008 Cl  0  0  0  0  0  0  0  0  0  0  0  0
   -0.0037   -1.4093   -0.0002 C   0  0  0  0  0  0  0  0  0  0  0  0
   -1.2098   -0.7088   -0.0003 C   0  0  0  0  0  0  0  0  0  0  0  0
    1.2062   -0.7150    0.0000 C   0  0  0  0  0  0  0  0  0  0  0  0
    1.2099    0.6799    0.0002 C   0  0  0  0  0  0  0  0  0  0  0  0
   -1.2062    0.6860   -0.0002 C   0  0  0  0  0  0  0  0  0  0  0  0
    0.0036    1.3805    0.0001 C   0  0  0  0  0  0  0  0  0  0  0  0
   -0.0076   -2.9099   -0.0002 C   0  0  0  0  0  0  0  0  0  0  0  0
  1  7  1  0
  2  8  1  0
  3  9  1  0
  4 10  1  0
  5 11  1  0
  6  7  2  0
  6  8  1  0
  6 12  1  0
  7 10  1  0
  8  9  2  0
  9 11  1  0
 10 11  2  0
M  END
>  <PUBCHEM_COMPOUND_CID>  (1) 
13412

>  <PUBCHEM_CONFORMER_RMSD>  (1) 
0.4

>  <PUBCHEM_CONFORMER_DIVERSEORDER>  (1) 
1

>  <PUBCHEM_MMFF94_PARTIAL_CHARGES>  (1) 
12
1 -0.18
10 0.18
11 0.18
12 0.14
2 -0.18
3 -0.18
4 -0.18
5 -0.18
6 -0.14
7 0.18
8 0.18
9 0.18

>  <PUBCHEM_EFFECTIVE_ROTOR_COUNT>  (1) 
0

>  <PUBCHEM_PHARMACOPHORE_FEATURES>  (1) 
1
6 6 7 8 9 10 11 rings

>  <PUBCHEM_HEAVY_ATOM_COUNT>  (1) 
12

>  <PUBCHEM_ATOM_DEF_STEREO_COUNT>  (1) 
0

>  <PUBCHEM_ATOM_UDEF_STEREO_COUNT>  (1) 
0

>  <PUBCHEM_BOND_DEF_STEREO_COUNT>  (1) 
0

>  <PUBCHEM_BOND_UDEF_STEREO_COUNT>  (1) 
0

>  <PUBCHEM_ISOTOPIC_ATOM_COUNT>  (1) 
0

>  <PUBCHEM_COMPONENT_COUNT>  (1) 
1

>  <PUBCHEM_CACTVS_TAUTO_COUNT>  (1) 
1

>  <PUBCHEM_CONFORMER_ID>  (1) 
0000346400000001

>  <PUBCHEM_MMFF94_ENERGY>  (1) 
34.9251

>  <PUBCHEM_FEATURE_SELFOVERLAP>  (1) 
5.074

>  <PUBCHEM_SHAPE_FINGERPRINT>  (1) 
10967382 1 18194401087105289793
11206711 2 18265616670206434581
12423570 1 15746138839293789850
13140716 1 18410575041713412906
16945 1 18122625225710422790
193761 8 18410573985151483623
20588541 1 18122065574355350734
21040471 1 18410574032570320608
21501502 16 18410573989451725671
2334 1 18410855490192932870
23526114 1 18410856563945306479
23552423 10 18334296457081002070
23559900 14 18198911314970167422
241688 4 18410856525280084027
2748010 2 18410856559639796166
528886 8 18339074870011303283
66348 1 18410855438653351296

>  <PUBCHEM_SHAPE_MULTIPOLES>  (1) 
256.3
3.67
3.51
0.63
0
0.43
0
-0.11
0
0
0
0
0.01
0

>  <PUBCHEM_SHAPE_SELFOVERLAP>  (1) 
492.142

>  <PUBCHEM_SHAPE_VOLUME>  (1) 
153.8

>  <PUBCHEM_COORDINATE_TYPE>  (1) 
2
5
10

$$$$
