13423
     RDKit          3D

 13 14  0  0  0  0  0  0  0  0999 V2000
   -0.4809    2.2352   -0.0003 O   0  0  0  0  0  0  0  0  0  0  0  0
    3.4462   -0.0984    0.0013 O   0  0  0  0  0  0  0  0  0  0  0  0
    1.2043   -0.8150   -0.0003 N   0  0  0  0  0  0  0  0  0  0  0  0
    1.6546    1.3655   -0.0008 N   0  0  0  0  0  0  0  0  0  0  0  0
   -0.1351   -0.2022   -0.0004 C   0  0  0  0  0  0  0  0  0  0  0  0
   -0.9142   -0.5351    1.2823 C   0  0  0  0  0  0  0  0  0  0  0  0
   -0.9148   -0.5363   -1.2821 C   0  0  0  0  0  0  0  0  0  0  0  0
   -2.3603   -0.0403    1.2608 C   0  0  0  0  0  0  0  0  0  0  0  0
   -2.3610   -0.0415   -1.2602 C   0  0  0  0  0  0  0  0  0  0  0  0
   -3.0927   -0.4853    0.0008 C   0  0  0  0  0  0  0  0  0  0  0  0
    0.2861    1.2812   -0.0008 C   0  0  0  0  0  0  0  0  0  0  0  0
    2.2424    0.1238   -0.0002 C   0  0  0  0  0  0  0  0  0  0  0  0
    1.4254   -2.2516   -0.0001 C   0  0  0  0  0  0  0  0  0  0  0  0
  1 11  2  0
  2 12  2  0
  3  5  1  0
  3 12  1  0
  3 13  1  0
  4 11  1  0
  4 12  1  0
  5  6  1  0
  5  7  1  0
  5 11  1  0
  6  8  1  0
  7  9  1  0
  8 10  1  0
  9 10  1  0
M  END
>  <PUBCHEM_COMPOUND_CID>  (1) 
13423

>  <PUBCHEM_CONFORMER_RMSD>  (1) 
0.4

>  <PUBCHEM_CONFORMER_DIVERSEORDER>  (1) 
1
2

>  <PUBCHEM_MMFF94_PARTIAL_CHARGES>  (1) 
9
1 -0.57
11 0.57
12 0.69
13 0.3
2 -0.57
24 0.37
3 -0.66
4 -0.49
5 0.36

>  <PUBCHEM_EFFECTIVE_ROTOR_COUNT>  (1) 
1.4

>  <PUBCHEM_PHARMACOPHORE_FEATURES>  (1) 
5
1 1 acceptor
1 2 acceptor
1 4 donor
5 3 4 5 11 12 rings
6 5 6 7 8 9 10 rings

>  <PUBCHEM_HEAVY_ATOM_COUNT>  (1) 
13

>  <PUBCHEM_ATOM_DEF_STEREO_COUNT>  (1) 
0

>  <PUBCHEM_ATOM_UDEF_STEREO_COUNT>  (1) 
0

>  <PUBCHEM_BOND_DEF_STEREO_COUNT>  (1) 
0

>  <PUBCHEM_BOND_UDEF_STEREO_COUNT>  (1) 
0

>  <PUBCHEM_ISOTOPIC_ATOM_COUNT>  (1) 
0

>  <PUBCHEM_COMPONENT_COUNT>  (1) 
1

>  <PUBCHEM_CACTVS_TAUTO_COUNT>  (1) 
3

>  <PUBCHEM_CONFORMER_ID>  (1) 
0000346F00000001

>  <PUBCHEM_MMFF94_ENERGY>  (1) 
21.4958

>  <PUBCHEM_FEATURE_SELFOVERLAP>  (1) 
25.376

>  <PUBCHEM_SHAPE_FINGERPRINT>  (1) 
10219947 1 18411142471333554274
12138202 97 17313090973741110935
12423570 1 12408070293787410787
13024252 1 17676206857703644861
14128692 85 17631154471950848191
14993402 34 17988925595510276373
15775835 57 17632304462223642113
16945 1 18410575084684203908
17844478 74 17749113305009892269
18534176 82 16877943862396536499
20201158 50 18186237325012224755
21501502 16 18121219779573082186
23236772 104 17703508899531160267
23402539 116 16732968860765547871
2748010 2 18121225543503654330
29004967 10 18407762538293388067
5084963 1 18059572541809861417
528886 8 18340760524421284115
63268167 104 18200308960671132809
68250623 7 18051131389137744637
77492 1 17703793651710335875

>  <PUBCHEM_SHAPE_MULTIPOLES>  (1) 
245.83
4.04
1.68
1.13
0.42
0.12
0
-0.51
0
0.74
0
-0.85
-0.15
0

>  <PUBCHEM_SHAPE_SELFOVERLAP>  (1) 
512.9

>  <PUBCHEM_SHAPE_VOLUME>  (1) 
140.1

>  <PUBCHEM_COORDINATE_TYPE>  (1) 
2
5
10

$$$$
