13449
     RDKit          3D

 16 17  0  0  0  0  0  0  0  0999 V2000
    1.5051    1.4846   -2.1434 Cl  0  0  0  0  0  0  0  0  0  0  0  0
   -1.8338   -2.6032   -0.7818 F   0  0  0  0  0  0  0  0  0  0  0  0
   -4.3009    1.0734    0.3551 F   0  0  0  0  0  0  0  0  0  0  0  0
    0.2888    1.2372    0.5948 O   0  0  0  0  0  0  0  0  0  0  0  0
   -2.0226    1.2097    0.4926 N   0  0  0  0  0  0  0  0  0  0  0  0
   -0.7275   -0.7203   -0.1042 N   0  0  0  0  0  0  0  0  0  0  0  0
   -3.1227   -0.7979   -0.2265 N   0  0  0  0  0  0  0  0  0  0  0  0
    1.4721    0.5827    0.4225 C   0  0  0  0  0  0  0  0  0  0  0  0
    2.1457    0.6150   -0.7984 C   0  0  0  0  0  0  0  0  0  0  0  0
    2.0086   -0.1274    1.4966 C   0  0  0  0  0  0  0  0  0  0  0  0
    3.3559   -0.0628   -0.9453 C   0  0  0  0  0  0  0  0  0  0  0  0
    3.2188   -0.8053    1.3496 C   0  0  0  0  0  0  0  0  0  0  0  0
    3.8924   -0.7731    0.1286 C   0  0  0  0  0  0  0  0  0  0  0  0
   -0.8751    0.5430    0.3144 C   0  0  0  0  0  0  0  0  0  0  0  0
   -1.8968   -1.3303   -0.3564 C   0  0  0  0  0  0  0  0  0  0  0  0
   -3.1080    0.4746    0.2018 C   0  0  0  0  0  0  0  0  0  0  0  0
  1  9  1  0
  2 15  1  0
  3 16  1  0
  4  8  1  0
  4 14  1  0
  5 14  2  0
  5 16  1  0
  6 14  1  0
  6 15  2  0
  7 15  1  0
  7 16  2  0
  8  9  2  0
  8 10  1  0
  9 11  1  0
 10 12  2  0
 11 13  2  0
 12 13  1  0
M  END
>  <PUBCHEM_COMPOUND_CID>  (1) 
13449

>  <PUBCHEM_CONFORMER_RMSD>  (1) 
0.6

>  <PUBCHEM_CONFORMER_DIVERSEORDER>  (1) 
1
7
5
6
2
3
4

>  <PUBCHEM_MMFF94_PARTIAL_CHARGES>  (1) 
20
1 -0.18
10 -0.15
11 -0.15
12 -0.15
13 -0.15
14 0.7
15 0.81
16 0.81
17 0.15
18 0.15
19 0.15
2 -0.19
20 0.15
3 -0.19
4 -0.17
5 -0.62
6 -0.62
7 -0.62
8 0.08
9 0.18

>  <PUBCHEM_EFFECTIVE_ROTOR_COUNT>  (1) 
2

>  <PUBCHEM_PHARMACOPHORE_FEATURES>  (1) 
5
3 5 6 14 cation
3 5 7 16 cation
3 6 7 15 cation
6 5 6 7 14 15 16 rings
6 8 9 10 11 12 13 rings

>  <PUBCHEM_HEAVY_ATOM_COUNT>  (1) 
16

>  <PUBCHEM_ATOM_DEF_STEREO_COUNT>  (1) 
0

>  <PUBCHEM_ATOM_UDEF_STEREO_COUNT>  (1) 
0

>  <PUBCHEM_BOND_DEF_STEREO_COUNT>  (1) 
0

>  <PUBCHEM_BOND_UDEF_STEREO_COUNT>  (1) 
0

>  <PUBCHEM_ISOTOPIC_ATOM_COUNT>  (1) 
0

>  <PUBCHEM_COMPONENT_COUNT>  (1) 
1

>  <PUBCHEM_CACTVS_TAUTO_COUNT>  (1) 
1

>  <PUBCHEM_CONFORMER_ID>  (1) 
0000348900000001

>  <PUBCHEM_MMFF94_ENERGY>  (1) 
41.33

>  <PUBCHEM_FEATURE_SELFOVERLAP>  (1) 
28.159

>  <PUBCHEM_SHAPE_FINGERPRINT>  (1) 
11031198 65 15936699224246681110
11471102 22 15410897340780161848
11578080 2 17898818397396405988
12236239 1 18187368705582050280
12346177 29 17917417753281549479
124424 183 17203608164362074914
12500047 106 18130783443153975510
12932764 1 18113328726085701996
13538477 17 18409168839392854281
14115302 16 18341338837594023012
15207287 21 17060338483294934852
15375358 24 17275100626439638896
16752209 62 18340196389484287033
16945 1 18340192004016599240
18186145 218 17095521815985837160
18522853 266 18342740749237120854
18522853 295 18201445774174056291
19049666 15 16485867791298253744
19422 9 18113624525041946139
20201158 50 16773803571332185406
20279233 1 17060338521939025646
20361792 2 17604134974541586222
20645476 183 18114472244196384111
21639500 275 16805889618702060156
2255824 54 17676775370045954940
232386 152 18343299305597006894
23402539 116 17703497806105758449
23559900 14 18060704975153219676
23598291 2 18113623412355201525
25 1 16515980258441024828
465052 167 18187943810767803323
474 4 17460605963724303404
57426455 114 17917705786214242147
57812782 119 16558747901474508977
69090 78 16486962986731791293
7364860 26 18127971021554991016
74978 22 18341891947798494225
77492 1 18187086148104769432
81228 2 16700360549599090184
8272917 22 17386851591284184945
84936 182 17971771114121511356

>  <PUBCHEM_SHAPE_MULTIPOLES>  (1) 
295.78
6.72
1.66
1.37
2.17
0.21
0.19
-0.9
-0.21
-0.29
0.71
-0.16
-0.07
-1.54

>  <PUBCHEM_SHAPE_SELFOVERLAP>  (1) 
632.418

>  <PUBCHEM_SHAPE_VOLUME>  (1) 
164

>  <PUBCHEM_COORDINATE_TYPE>  (1) 
2
5
10

$$$$
