13446
     RDKit          3D

 16 17  0  0  1  0  0  0  0  0999 V2000
    0.8945    2.5125   -0.8085 O   0  0  0  0  0  0  0  0  0  0  0  0
   -1.4543    2.7389    0.4576 N   0  0  0  0  0  0  0  0  0  0  0  0
   -0.7388    1.4713    0.6510 C   0  0  0  0  0  0  0  0  0  0  0  0
   -1.5958    0.2998    0.2171 C   0  0  0  0  0  0  0  0  0  0  0  0
    0.6166    1.5245   -0.0978 C   0  0  0  0  0  0  0  0  0  0  0  0
    1.5715    0.4349    0.0254 C   0  0  0  0  0  0  0  0  0  0  0  0
   -2.4715   -0.2677    1.1252 C   0  0  0  0  0  0  0  0  0  0  0  0
   -1.4826   -0.1754   -1.0772 C   0  0  0  0  0  0  0  0  0  0  0  0
    1.6243   -0.3172    1.1990 C   0  0  0  0  0  0  0  0  0  0  0  0
    2.4348    0.1415   -1.0303 C   0  0  0  0  0  0  0  0  0  0  0  0
   -3.2603   -1.3466    0.7257 C   0  0  0  0  0  0  0  0  0  0  0  0
   -2.2716   -1.2540   -1.4767 C   0  0  0  0  0  0  0  0  0  0  0  0
   -3.1606   -1.8396   -0.5754 C   0  0  0  0  0  0  0  0  0  0  0  0
    2.5401   -1.3626    1.3167 C   0  0  0  0  0  0  0  0  0  0  0  0
    3.3505   -0.9040   -0.9126 C   0  0  0  0  0  0  0  0  0  0  0  0
    3.4032   -1.6561    0.2609 C   0  0  0  0  0  0  0  0  0  0  0  0
  1  5  2  0
  2  3  1  0
  3  4  1  0
  3  5  1  0
  4  7  2  0
  4  8  1  0
  5  6  1  0
  6  9  2  0
  6 10  1  0
  7 11  1  0
  8 12  2  0
  9 14  1  0
 10 15  2  0
 11 13  2  0
 12 13  1  0
 14 16  2  0
 15 16  1  0
M  END
>  <PUBCHEM_COMPOUND_CID>  (1) 
13446

>  <PUBCHEM_CONFORMER_RMSD>  (1) 
0.6

>  <PUBCHEM_CONFORMER_DIVERSEORDER>  (1) 
3
7
20
15
10
21
12
2
6
17
8
16
14
18
23
9
19
4
1
5
22
13
11

>  <PUBCHEM_MMFF94_PARTIAL_CHARGES>  (1) 
28
1 -0.57
10 -0.15
11 -0.15
12 -0.15
13 -0.15
14 -0.15
15 -0.15
16 -0.15
18 0.15
19 0.15
2 -0.99
20 0.36
21 0.36
22 0.15
23 0.15
24 0.15
25 0.15
26 0.15
27 0.15
28 0.15
29 0.15
3 0.47
4 -0.14
5 0.42
6 0.09
7 -0.15
8 -0.15
9 -0.15

>  <PUBCHEM_EFFECTIVE_ROTOR_COUNT>  (1) 
3

>  <PUBCHEM_PHARMACOPHORE_FEATURES>  (1) 
5
1 1 acceptor
1 2 cation
1 2 donor
6 4 7 8 11 12 13 rings
6 6 9 10 14 15 16 rings

>  <PUBCHEM_HEAVY_ATOM_COUNT>  (1) 
16

>  <PUBCHEM_ATOM_DEF_STEREO_COUNT>  (1) 
0

>  <PUBCHEM_ATOM_UDEF_STEREO_COUNT>  (1) 
1

>  <PUBCHEM_BOND_DEF_STEREO_COUNT>  (1) 
0

>  <PUBCHEM_BOND_UDEF_STEREO_COUNT>  (1) 
0

>  <PUBCHEM_ISOTOPIC_ATOM_COUNT>  (1) 
0

>  <PUBCHEM_COMPONENT_COUNT>  (1) 
1

>  <PUBCHEM_CACTVS_TAUTO_COUNT>  (1) 
3

>  <PUBCHEM_CONFORMER_ID>  (1) 
0000348600000003

>  <PUBCHEM_MMFF94_ENERGY>  (1) 
47.661

>  <PUBCHEM_FEATURE_SELFOVERLAP>  (1) 
25.371

>  <PUBCHEM_SHAPE_FINGERPRINT>  (1) 
10618630 7 18413105069545735178
11578080 2 18339344331991893496
11725454 13 14331734254461427835
12403259 327 15482681177608089767
12553582 1 18411423924825320667
12633257 1 15482672394173213590
13083527 12 18052224535935556000
13134695 92 11021623832421845760
13299463 15 16805326616802725730
13538477 17 18117563933391439720
15276787 5 15554458370120714322
15375462 189 18336556009126053306
15906896 17 18047752603096861785
16752209 62 18267013960786299329
16945 1 17987518121663243856
17349148 13 17417819495732693591
18186145 218 10737552895846540299
18981168 100 8574150634458428456
19766037 51 18187370960218581419
20291156 8 18411421721506974382
20361792 2 18410568504794417047
20442098 301 18272653420038461422
20645477 70 18192987351950554703
20871998 184 18198910201449699324
21713013 43 17095529521326620955
21731516 1 18412261752690661907
22112679 90 18059308667852015313
23402539 116 18041849398777745534
23419403 2 14722589867199503856
23728640 28 17906441130742744931
449060 23 18341618096526026830
465052 167 18267883820798075699
6338986 31 18339065056069099503
7364860 26 18056479688679032488
81228 2 18195229045189260137
90525 40 18194129520649805579

>  <PUBCHEM_SHAPE_MULTIPOLES>  (1) 
318.42
5.78
2.37
1.36
0.71
1.38
-0.04
-4.13
-0.08
-0.47
-0.05
0
-0.33
-0.73

>  <PUBCHEM_SHAPE_SELFOVERLAP>  (1) 
685.014

>  <PUBCHEM_SHAPE_VOLUME>  (1) 
174.6

>  <PUBCHEM_COORDINATE_TYPE>  (1) 
2
5
10

$$$$
