13452
     RDKit          3D

 16 17  0  0  0  0  0  0  0  0999 V2000
   -3.1323   -0.2920    0.1078 C   0  0  0  0  0  0  0  0  0  0  0  0
    3.1458    0.2887   -0.1069 C   0  0  0  0  0  0  0  0  0  0  0  0
   -1.7225   -0.6334    0.2149 C   0  0  0  0  0  0  0  0  0  0  0  0
    1.7179    0.6344   -0.2151 C   0  0  0  0  0  0  0  0  0  0  0  0
   -3.5280    1.0456    0.1090 C   0  0  0  0  0  0  0  0  0  0  0  0
    3.5236   -1.0445   -0.1097 C   0  0  0  0  0  0  0  0  0  0  0  0
   -4.0886   -1.3021    0.0043 C   0  0  0  0  0  0  0  0  0  0  0  0
    4.0840    1.3032   -0.0041 C   0  0  0  0  0  0  0  0  0  0  0  0
   -0.6878    0.1953   -0.0570 C   0  0  0  0  0  0  0  0  0  0  0  0
    0.7013   -0.1988    0.0580 C   0  0  0  0  0  0  0  0  0  0  0  0
   -4.8800    1.3730    0.0065 C   0  0  0  0  0  0  0  0  0  0  0  0
    4.8756   -1.3718   -0.0070 C   0  0  0  0  0  0  0  0  0  0  0  0
   -5.4407   -0.9747   -0.0985 C   0  0  0  0  0  0  0  0  0  0  0  0
    5.4360    0.9759    0.0983 C   0  0  0  0  0  0  0  0  0  0  0  0
   -5.8364    0.3628   -0.0975 C   0  0  0  0  0  0  0  0  0  0  0  0
    5.8319   -0.3616    0.0969 C   0  0  0  0  0  0  0  0  0  0  0  0
  1  3  1  0
  1  5  2  0
  1  7  1  0
  2  4  1  0
  2  6  2  0
  2  8  1  0
  3  9  2  0
  4 10  2  0
  5 11  1  0
  6 12  1  0
  7 13  2  0
  8 14  2  0
  9 10  1  0
 11 15  2  0
 12 16  2  0
 13 15  1  0
 14 16  1  0
M  END
>  <PUBCHEM_COMPOUND_CID>  (1) 
13452

>  <PUBCHEM_CONFORMER_RMSD>  (1) 
0.6

>  <PUBCHEM_CONFORMER_DIVERSEORDER>  (1) 
1
2
3

>  <PUBCHEM_MMFF94_PARTIAL_CHARGES>  (1) 
30
1 0.03
10 -0.15
11 -0.15
12 -0.15
13 -0.15
14 -0.15
15 -0.15
16 -0.15
17 0.15
18 0.15
19 0.15
2 0.03
20 0.15
21 0.15
22 0.15
23 0.15
24 0.15
25 0.15
26 0.15
27 0.15
28 0.15
29 0.15
3 -0.18
30 0.15
4 -0.18
5 -0.15
6 -0.15
7 -0.15
8 -0.15
9 -0.15

>  <PUBCHEM_EFFECTIVE_ROTOR_COUNT>  (1) 
3

>  <PUBCHEM_PHARMACOPHORE_FEATURES>  (1) 
2
6 1 5 7 11 13 15 rings
6 2 6 8 12 14 16 rings

>  <PUBCHEM_HEAVY_ATOM_COUNT>  (1) 
16

>  <PUBCHEM_ATOM_DEF_STEREO_COUNT>  (1) 
0

>  <PUBCHEM_ATOM_UDEF_STEREO_COUNT>  (1) 
0

>  <PUBCHEM_BOND_DEF_STEREO_COUNT>  (1) 
0

>  <PUBCHEM_BOND_UDEF_STEREO_COUNT>  (1) 
2

>  <PUBCHEM_ISOTOPIC_ATOM_COUNT>  (1) 
0

>  <PUBCHEM_COMPONENT_COUNT>  (1) 
1

>  <PUBCHEM_CACTVS_TAUTO_COUNT>  (1) 
1

>  <PUBCHEM_CONFORMER_ID>  (1) 
0000348C00000001

>  <PUBCHEM_MMFF94_ENERGY>  (1) 
45.4925

>  <PUBCHEM_FEATURE_SELFOVERLAP>  (1) 
10.149

>  <PUBCHEM_SHAPE_FINGERPRINT>  (1) 
10595046 47 18411418440156916673
11287383 113 18411701001913347098
11315181 36 18202004339387991705
11858739 19 18060141994729098966
12091667 2 18410857676753396691
12107183 9 17690280404517427418
12236239 1 18410855464423142099
12516196 113 18060135453156329456
13073987 5 18411138021789646929
13167372 99 18270966743236782616
13167823 11 18411697698952030399
13288520 33 18412825811731985303
13533116 47 14189306915645043502
14123238 8 17775568645395091663
1420 363 18040159526103192707
14251718 22 18412262856634303219
14251732 16 18339642351160457504
14933364 13 18410858762974116025
15183329 4 18409448055206230907
17834072 33 18341893012955593310
17844677 252 18411707590303956585
19427546 62 18262801912640371898
19489759 90 18408040710925557777
200 152 18202282498175020585
20281389 69 18335138674688451505
20645477 70 18341615876423762286
220451 1 18059861687529870447
23402539 116 18413385445453715645
23536379 177 18411136922256907075
23559900 14 18341043116532766105
239999 70 18271812298640047350
29717793 49 17703516519515248004
300161 21 18060132163459111934
3004659 81 18408042888706143834
314173 85 16732702744206545284
34797466 226 17489034854577549708
351380 180 18410575097653722713
3545911 37 18410857663456953641
4073 2 18040722519164848186
4214541 1 18410575084984975201
42788 4 18410856563934756865
5104073 3 18410857659156699515
542803 24 18410855468718109380
57483677 66 18411417314886313967
67856867 119 18265053702841444597
7495541 125 17703787071693838304
77779 3 18410294722082904417
9971528 1 17967253109189004644

>  <PUBCHEM_SHAPE_MULTIPOLES>  (1) 
329.27
16.85
1.4
0.63
0.07
0
0
0.01
0
0
0
0
0
0

>  <PUBCHEM_SHAPE_SELFOVERLAP>  (1) 
700.507

>  <PUBCHEM_SHAPE_VOLUME>  (1) 
171.8

>  <PUBCHEM_COORDINATE_TYPE>  (1) 
2
5
10

$$$$
