13451
     RDKit          3D

 16 17  0  0  0  0  0  0  0  0999 V2000
    0.1490    1.7069   -0.2538 O   0  0  0  0  0  0  0  0  0  0  0  0
   -1.3190   -0.0733   -0.3942 N   0  0  0  0  0  0  0  0  0  0  0  0
    0.9237   -0.5078   -0.1780 N   0  0  0  0  0  0  0  0  0  0  0  0
   -2.5263    0.7140   -0.5107 C   0  0  0  0  0  0  0  0  0  0  0  0
   -3.5690   -0.0014   -1.3762 C   0  0  0  0  0  0  0  0  0  0  0  0
   -3.0937    1.0604    0.8700 C   0  0  0  0  0  0  0  0  0  0  0  0
   -4.1829   -1.2114   -0.6720 C   0  0  0  0  0  0  0  0  0  0  0  0
   -3.7083   -0.1514    1.5706 C   0  0  0  0  0  0  0  0  0  0  0  0
   -4.7505   -0.8395    0.6944 C   0  0  0  0  0  0  0  0  0  0  0  0
   -0.0463    0.4940   -0.2718 C   0  0  0  0  0  0  0  0  0  0  0  0
    2.3230   -0.3512   -0.0433 C   0  0  0  0  0  0  0  0  0  0  0  0
    3.1273   -1.4766    0.0337 C   0  0  0  0  0  0  0  0  0  0  0  0
    2.8607    0.9244    0.0079 C   0  0  0  0  0  0  0  0  0  0  0  0
    4.5074   -1.3221    0.1655 C   0  0  0  0  0  0  0  0  0  0  0  0
    4.2407    1.0791    0.1396 C   0  0  0  0  0  0  0  0  0  0  0  0
    5.0640   -0.0442    0.2185 C   0  0  0  0  0  0  0  0  0  0  0  0
  1 10  2  0
  2  4  1  0
  2 10  1  0
  3 10  1  0
  3 11  1  0
  4  5  1  0
  4  6  1  0
  5  7  1  0
  6  8  1  0
  7  9  1  0
  8  9  1  0
 11 12  2  0
 11 13  1  0
 12 14  1  0
 13 15  2  0
 14 16  2  0
 15 16  1  0
M  END
>  <PUBCHEM_COMPOUND_CID>  (1) 
13451

>  <PUBCHEM_CONFORMER_RMSD>  (1) 
0.6

>  <PUBCHEM_CONFORMER_DIVERSEORDER>  (1) 
2
16
12
15
5
7
13
17
11
18
6
8
19
3
4
1
10
14
9

>  <PUBCHEM_MMFF94_PARTIAL_CHARGES>  (1) 
18
1 -0.57
10 0.69
11 0.12
12 -0.15
13 -0.15
14 -0.15
15 -0.15
16 -0.15
2 -0.73
28 0.37
29 0.37
3 -0.55
30 0.15
31 0.15
32 0.15
33 0.15
34 0.15
4 0.3

>  <PUBCHEM_EFFECTIVE_ROTOR_COUNT>  (1) 
5.2

>  <PUBCHEM_PHARMACOPHORE_FEATURES>  (1) 
5
1 1 acceptor
1 2 donor
1 3 donor
6 11 12 13 14 15 16 rings
6 4 5 6 7 8 9 rings

>  <PUBCHEM_HEAVY_ATOM_COUNT>  (1) 
16

>  <PUBCHEM_ATOM_DEF_STEREO_COUNT>  (1) 
0

>  <PUBCHEM_ATOM_UDEF_STEREO_COUNT>  (1) 
0

>  <PUBCHEM_BOND_DEF_STEREO_COUNT>  (1) 
0

>  <PUBCHEM_BOND_UDEF_STEREO_COUNT>  (1) 
0

>  <PUBCHEM_ISOTOPIC_ATOM_COUNT>  (1) 
0

>  <PUBCHEM_COMPONENT_COUNT>  (1) 
1

>  <PUBCHEM_CACTVS_TAUTO_COUNT>  (1) 
3

>  <PUBCHEM_CONFORMER_ID>  (1) 
0000348B00000002

>  <PUBCHEM_MMFF94_ENERGY>  (1) 
29.0433

>  <PUBCHEM_FEATURE_SELFOVERLAP>  (1) 
25.424

>  <PUBCHEM_SHAPE_FINGERPRINT>  (1) 
10680689 15 17676488319953722341
10912923 1 17775563156579926642
11615757 297 18273213105727028208
12107183 9 17481719554293244779
12236239 1 17917712418034065621
12596602 18 17346880078422176874
13167823 11 18272650138604410558
13544653 18 18261112967283538429
14123238 8 18408605872539203570
1420 363 18113340816492460842
14252887 29 18343025458830568486
14386348 63 17822013116243462371
15375462 189 18202281403048141408
15788980 27 18113615677134905894
17834072 33 18343581875795646268
17834072 8 9007063478319717464
17844677 252 18408608050014218092
17870717 6 16298389046139936499
18186145 218 16660365869967914068
19050596 39 17989208135517517985
19489759 90 15791724204876543461
200 152 18341325665546394319
20279233 1 17240201027778030843
20281475 54 18131063814503510774
20432913 95 18408325483925546363
20645477 70 18336817594383808918
21079973 296 17458347458949067339
21267235 1 18411986845425861206
22485316 2 18333729091885207287
22646028 1 18342736316751522534
23402539 116 18335979792044963380
23557571 272 17168416073963876653
23559900 14 17095518462207177242
26918003 58 18187364311461299816
3268164 11 15936680511042829879
42 15 18411984645801088864
4214541 1 18412261696977536317
5104073 3 18339073783912300128
542803 24 15841551890304613266
77779 3 18342738494521507140

>  <PUBCHEM_SHAPE_MULTIPOLES>  (1) 
313.44
11.88
1.42
1.04
2.54
0.02
-0.11
2.7
-1.48
0.55
0
-1.49
0.01
-0.18

>  <PUBCHEM_SHAPE_SELFOVERLAP>  (1) 
646.851

>  <PUBCHEM_SHAPE_VOLUME>  (1) 
177.4

>  <PUBCHEM_COORDINATE_TYPE>  (1) 
2
5
10

$$$$
