13461
     RDKit          3D

 18 19  0  0  1  0  0  0  0  0999 V2000
    0.3380    1.0453    0.0604 O   0  0  0  0  0  0  0  0  0  0  0  0
   -3.0031    2.2370    0.6413 O   0  0  0  0  0  0  0  0  0  0  0  0
   -0.8411    2.7950   -0.8709 O   0  0  0  0  0  0  0  0  0  0  0  0
   -1.9053    1.3436    0.7586 C   0  0  0  0  0  0  0  0  0  0  0  0
   -2.3713   -0.0450    0.3954 C   0  0  0  0  0  0  0  0  0  0  0  0
    1.4881    1.4119   -0.6921 C   0  0  0  0  0  0  0  0  0  0  0  0
    2.5690    0.4437   -0.3476 C   0  0  0  0  0  0  0  0  0  0  0  0
   -0.7712    1.8275   -0.1236 C   0  0  0  0  0  0  0  0  0  0  0  0
   -3.3827   -0.2000   -0.5397 C   0  0  0  0  0  0  0  0  0  0  0  0
   -1.7799   -1.1412    1.0036 C   0  0  0  0  0  0  0  0  0  0  0  0
    3.4337    0.7122    0.7133 C   0  0  0  0  0  0  0  0  0  0  0  0
    2.7152   -0.7300   -1.0868 C   0  0  0  0  0  0  0  0  0  0  0  0
   -3.8134   -1.4835   -0.8751 C   0  0  0  0  0  0  0  0  0  0  0  0
   -2.2107   -2.4248    0.6682 C   0  0  0  0  0  0  0  0  0  0  0  0
   -3.2274   -2.5960   -0.2713 C   0  0  0  0  0  0  0  0  0  0  0  0
    4.4448   -0.1932    1.0351 C   0  0  0  0  0  0  0  0  0  0  0  0
    3.7263   -1.6355   -0.7649 C   0  0  0  0  0  0  0  0  0  0  0  0
    4.5910   -1.3672    0.2961 C   0  0  0  0  0  0  0  0  0  0  0  0
  1  6  1  0
  1  8  1  0
  2  4  1  0
  3  8  2  0
  4  5  1  0
  4  8  1  0
  5  9  2  0
  5 10  1  0
  6  7  1  0
  7 11  2  0
  7 12  1  0
  9 13  1  0
 10 14  2  0
 11 16  1  0
 12 17  2  0
 13 15  2  0
 14 15  1  0
 16 18  2  0
 17 18  1  0
M  END
>  <PUBCHEM_COMPOUND_CID>  (1) 
13461

>  <PUBCHEM_CONFORMER_RMSD>  (1) 
0.6

>  <PUBCHEM_CONFORMER_DIVERSEORDER>  (1) 
1
22
44
46
35
114
108
14
135
82
157
71
11
119
94
72
165
31
105
86
79
21
89
67
99
150
75
2
6
90
73
151
69
98
125
26
54
12
156
115
18
159
59
83
96
45
66
131
152
29
93
10
137
162
100
56
74
49
13
15
112
41
138
167
9
78
107
32
68
24
50
126
25
95
16
139
103
28
110
40
5
121
155
109
70
48
127
61
27
30
23
77
87
43
60
17
53
117
158
51
36
19
122
106
47
33
134
148
65
132
164
81
62
20
42
154
34
7
128
102
92
55
88
3
104
163
123
64
147
91
37
58
4
39
142
136
85
63
141
161
153
140
80
8
113
145
146
143
166
57
149
101
120
52
84
97
160
116
76
130
144
118
38
133
111
129
124

>  <PUBCHEM_MMFF94_PARTIAL_CHARGES>  (1) 
29
1 -0.43
10 -0.15
11 -0.15
12 -0.15
13 -0.15
14 -0.15
15 -0.15
16 -0.15
17 -0.15
18 -0.15
2 -0.68
22 0.15
23 0.15
24 0.15
25 0.15
26 0.15
27 0.15
28 0.15
29 0.15
3 -0.57
30 0.15
31 0.4
32 0.15
4 0.48
5 -0.14
6 0.42
7 -0.14
8 0.66
9 -0.15

>  <PUBCHEM_EFFECTIVE_ROTOR_COUNT>  (1) 
5

>  <PUBCHEM_PHARMACOPHORE_FEATURES>  (1) 
5
1 2 acceptor
1 2 donor
1 3 acceptor
6 5 9 10 13 14 15 rings
6 7 11 12 16 17 18 rings

>  <PUBCHEM_HEAVY_ATOM_COUNT>  (1) 
18

>  <PUBCHEM_ATOM_DEF_STEREO_COUNT>  (1) 
0

>  <PUBCHEM_ATOM_UDEF_STEREO_COUNT>  (1) 
1

>  <PUBCHEM_BOND_DEF_STEREO_COUNT>  (1) 
0

>  <PUBCHEM_BOND_UDEF_STEREO_COUNT>  (1) 
0

>  <PUBCHEM_ISOTOPIC_ATOM_COUNT>  (1) 
0

>  <PUBCHEM_COMPONENT_COUNT>  (1) 
1

>  <PUBCHEM_CACTVS_TAUTO_COUNT>  (1) 
1

>  <PUBCHEM_CONFORMER_ID>  (1) 
0000349500000001

>  <PUBCHEM_MMFF94_ENERGY>  (1) 
39.6298

>  <PUBCHEM_FEATURE_SELFOVERLAP>  (1) 
25.379

>  <PUBCHEM_SHAPE_FINGERPRINT>  (1) 
10366900 7 18059011808418339280
10616163 171 18412269419534638374
10764073 3 17533813501412416523
11552529 35 17775001297580022410
12346177 29 18337388249313139821
12363563 72 18336271239988632302
12422481 6 18056227750909854707
12553582 1 18265071273567846390
12633257 1 18130236951747263600
13083527 12 18192138507451667068
13583140 156 16558737989006449192
13931106 250 18115857521235927085
14081887 123 18269265782053488530
1420 369 18340490061814885123
14468879 13 13613139685422430315
15342168 16 8501841175644946511
15352361 1 18338514247983300086
16752209 62 17750221539399949625
17834072 14 18339635736942619654
19141452 34 18340209579086396225
19862831 5 17530677731902494762
20281475 54 18410299120462114788
20403669 9 18411981377283965206
20621476 51 18265879281840339994
21673915 165 18412539912570090930
22646028 28 18335421287657006522
23114952 82 17463124992192301773
23557571 272 18272930509911449162
23559900 14 18341323496177031504
23728640 28 18338807706335076099
24859131 72 18343863312065170310
339767 52 18188474852992678330
5281201 14 11819286520740511378
5924683 9 18271517632895182059
602551 16 18337107865980802402
81228 2 18335425655486097265
9709674 26 18342741797435916302
9882013 296 17274822506032911358

>  <PUBCHEM_SHAPE_MULTIPOLES>  (1) 
352.82
9
2.87
1.08
5.97
0.32
0
-4.78
0.35
-2.27
-0.18
0.2
-0.09
-0.06

>  <PUBCHEM_SHAPE_SELFOVERLAP>  (1) 
751.133

>  <PUBCHEM_SHAPE_VOLUME>  (1) 
195

>  <PUBCHEM_COORDINATE_TYPE>  (1) 
2
5
10

$$$$
