13460
     RDKit          3D

 18 19  0  0  1  0  0  0  0  0999 V2000
    0.0817    1.6185   -0.4817 O   0  0  0  0  0  0  0  0  0  0  0  0
    0.5687   -2.8782    0.5984 O   0  0  0  0  0  0  0  0  0  0  0  0
   -3.6166   -1.1433   -0.0678 O   0  0  0  0  0  0  0  0  0  0  0  0
    0.4163   -0.6557   -0.1012 N   0  0  0  0  0  0  0  0  0  0  0  0
   -1.5047   -2.0008    0.2064 N   0  0  0  0  0  0  0  0  0  0  0  0
    1.8356   -0.4705    0.0820 C   0  0  0  0  0  0  0  0  0  0  0  0
    2.4954   -0.0149   -1.2223 C   0  0  0  0  0  0  0  0  0  0  0  0
    2.1052    0.5193    1.2179 C   0  0  0  0  0  0  0  0  0  0  0  0
    3.9891    0.2395   -1.0374 C   0  0  0  0  0  0  0  0  0  0  0  0
    3.5994    0.7745    1.3991 C   0  0  0  0  0  0  0  0  0  0  0  0
    4.2556    1.2248    0.0969 C   0  0  0  0  0  0  0  0  0  0  0  0
   -0.3467    0.4638   -0.4678 C   0  0  0  0  0  0  0  0  0  0  0  0
   -1.7529    0.1283   -0.9298 C   0  0  0  0  0  0  0  0  0  0  0  0
   -0.1146   -1.9150    0.2403 C   0  0  0  0  0  0  0  0  0  0  0  0
   -2.4005   -1.0307   -0.2096 C   0  0  0  0  0  0  0  0  0  0  0  0
   -2.6555    1.3608   -0.8992 C   0  0  0  0  0  0  0  0  0  0  0  0
   -2.8751    1.8351    0.5030 C   0  0  0  0  0  0  0  0  0  0  0  0
   -4.0805    1.9445    1.0728 C   0  0  0  0  0  0  0  0  0  0  0  0
  1 12  2  0
  2 14  2  0
  3 15  2  0
  4  6  1  0
  4 12  1  0
  4 14  1  0
  5 14  1  0
  5 15  1  0
  6  7  1  0
  6  8  1  0
  7  9  1  0
  8 10  1  0
  9 11  1  0
 10 11  1  0
 12 13  1  0
 13 15  1  0
 13 16  1  0
 16 17  1  0
 17 18  2  0
M  END
>  <PUBCHEM_COMPOUND_CID>  (1) 
13460

>  <PUBCHEM_CONFORMER_RMSD>  (1) 
0.6

>  <PUBCHEM_CONFORMER_DIVERSEORDER>  (1) 
1
21
28
31
29
22
35
37
33
8
34
27
9
19
32
20
39
11
24
18
25
15
23
7
3
14
10
17
38
5
13
30
16
26
2
4
36
6
12

>  <PUBCHEM_MMFF94_PARTIAL_CHARGES>  (1) 
17
1 -0.57
12 0.57
13 0.12
14 0.69
15 0.57
16 0.14
17 -0.29
18 -0.3
2 -0.57
3 -0.57
33 0.37
34 0.15
35 0.15
36 0.15
4 -0.42
5 -0.49
6 0.3

>  <PUBCHEM_EFFECTIVE_ROTOR_COUNT>  (1) 
4.8

>  <PUBCHEM_PHARMACOPHORE_FEATURES>  (1) 
8
1 1 acceptor
1 13 anion
1 18 hydrophobe
1 2 acceptor
1 3 acceptor
1 5 donor
6 4 5 12 13 14 15 rings
6 6 7 8 9 10 11 rings

>  <PUBCHEM_HEAVY_ATOM_COUNT>  (1) 
18

>  <PUBCHEM_ATOM_DEF_STEREO_COUNT>  (1) 
0

>  <PUBCHEM_ATOM_UDEF_STEREO_COUNT>  (1) 
1

>  <PUBCHEM_BOND_DEF_STEREO_COUNT>  (1) 
0

>  <PUBCHEM_BOND_UDEF_STEREO_COUNT>  (1) 
0

>  <PUBCHEM_ISOTOPIC_ATOM_COUNT>  (1) 
0

>  <PUBCHEM_COMPONENT_COUNT>  (1) 
1

>  <PUBCHEM_CACTVS_TAUTO_COUNT>  (1) 
3

>  <PUBCHEM_CONFORMER_ID>  (1) 
0000349400000001

>  <PUBCHEM_MMFF94_ENERGY>  (1) 
33.8055

>  <PUBCHEM_FEATURE_SELFOVERLAP>  (1) 
40.596

>  <PUBCHEM_SHAPE_FINGERPRINT>  (1) 
10493431 412 18410301280952107369
10498660 4 18408878512621006789
11132069 177 18187642487982332989
11543360 7 16343405276541693685
12173636 292 18340486673317667637
12236239 1 17168415065237249062
12346645 44 18410856538434140875
12382932 28 18335129844045403601
12390115 104 18341909501314379032
12403814 3 17240479200273362749
13140716 1 18191865622277653923
13380535 21 18338521815989787367
13538477 17 17460025400072759050
13764800 53 18411705374242977585
13965767 371 17897715479732768588
14123255 52 18267868289726782777
14178342 30 18409163294869721593
14614273 12 18041545980195805199
15209294 21 18342178847619586761
15219456 202 17917711314264458924
15309172 13 18187364315782653717
15534591 1 18131350770111627157
16945 1 18264202676646512943
1741750 31 18412824672600372274
18186145 218 18340487772918862180
19049666 15 18202285805616466426
20112054 60 18337668723514802871
20510252 161 18340486780438401953
20671657 1 18124313805172701275
21501502 16 18337666404507211235
2334 1 18335414626242183119
23402539 116 18267008634599727694
23557571 272 18271818972707735516
23559900 14 18342461414177341206
25 1 18201722799728165532
2748010 2 18262518066198662143
276578 36 18337677386500762104
350125 39 17903923253505076356
43471831 8 18260540113114868762
458136 41 18263654956583644298
5104073 3 18408035222120858560
57003041 12 18411419501319839713
58807428 26 18261385607734119538
633830 44 18201434757767870420
6442390 28 18339375110054006395
7364860 26 18124871253383968166
77492 1 17168415065163461014
81228 2 18118117206667531114
90316 7 17677312979492337892

>  <PUBCHEM_SHAPE_MULTIPOLES>  (1) 
342.86
7.39
2.31
1.18
1.64
1.01
-0.05
-4.02
-0.63
-1.59
-0.6
0.54
-0.3
-0.14

>  <PUBCHEM_SHAPE_SELFOVERLAP>  (1) 
711.002

>  <PUBCHEM_SHAPE_VOLUME>  (1) 
190.7

>  <PUBCHEM_COORDINATE_TYPE>  (1) 
2
5
10

$$$$
