13467
     RDKit          3D

 16 16  0  0  0  0  0  0  0  0999 V2000
    0.8475   -0.2411   -0.0904 N   0  0  0  0  0  0  0  0  0  0  0  0
   -2.8344   -0.6590    0.2963 N   0  0  0  0  0  0  0  0  0  0  0  0
   -5.1515   -0.6494    0.2851 N   0  0  0  0  0  0  0  0  0  0  0  0
   -4.1043    0.9567   -0.9474 N   0  0  0  0  0  0  0  0  0  0  0  0
    1.0801    1.1706    0.3173 C   0  0  0  0  0  0  0  0  0  0  0  0
    2.0132   -1.1530   -0.0702 C   0  0  0  0  0  0  0  0  0  0  0  0
    2.5742    1.5873    0.2656 C   0  0  0  0  0  0  0  0  0  0  0  0
    3.1639   -0.5576   -0.9321 C   0  0  0  0  0  0  0  0  0  0  0  0
    3.3129    0.9600   -0.8984 C   0  0  0  0  0  0  0  0  0  0  0  0
   -0.4103   -0.8151    0.3864 C   0  0  0  0  0  0  0  0  0  0  0  0
    0.5660    1.5128    1.7363 C   0  0  0  0  0  0  0  0  0  0  0  0
    0.3037    2.0536   -0.6917 C   0  0  0  0  0  0  0  0  0  0  0  0
    1.6710   -2.5195   -0.7261 C   0  0  0  0  0  0  0  0  0  0  0  0
    2.5052   -1.4774    1.3595 C   0  0  0  0  0  0  0  0  0  0  0  0
   -1.5937   -0.0410   -0.1766 C   0  0  0  0  0  0  0  0  0  0  0  0
   -3.9434   -0.1277   -0.1138 C   0  0  0  0  0  0  0  0  0  0  0  0
  1  5  1  0
  1  6  1  0
  1 10  1  0
  2 15  1  0
  2 16  2  3
  3 16  1  0
  4 16  1  0
  5  7  1  0
  5 11  1  0
  5 12  1  0
  6  8  1  0
  6 13  1  0
  6 14  1  0
  7  9  1  0
  8  9  1  0
 10 15  1  0
M  END
>  <PUBCHEM_COMPOUND_CID>  (1) 
13467

>  <PUBCHEM_CONFORMER_RMSD>  (1) 
0.6

>  <PUBCHEM_CONFORMER_DIVERSEORDER>  (1) 
4
15
13
5
14
1
10
7
11
9
3
12
2
6
8
16

>  <PUBCHEM_MMFF94_PARTIAL_CHARGES>  (1) 
13
1 -0.81
10 0.27
15 0.25
16 0.55
2 -0.7
3 -0.85
39 0.4
4 -0.85
40 0.4
41 0.4
42 0.4
5 0.27
6 0.27

>  <PUBCHEM_EFFECTIVE_ROTOR_COUNT>  (1) 
4.2

>  <PUBCHEM_PHARMACOPHORE_FEATURES>  (1) 
7
1 1 cation
1 3 donor
1 4 donor
3 5 11 12 hydrophobe
3 6 13 14 hydrophobe
4 2 3 4 16 cation
6 1 5 6 7 8 9 rings

>  <PUBCHEM_HEAVY_ATOM_COUNT>  (1) 
16

>  <PUBCHEM_ATOM_DEF_STEREO_COUNT>  (1) 
0

>  <PUBCHEM_ATOM_UDEF_STEREO_COUNT>  (1) 
0

>  <PUBCHEM_BOND_DEF_STEREO_COUNT>  (1) 
0

>  <PUBCHEM_BOND_UDEF_STEREO_COUNT>  (1) 
0

>  <PUBCHEM_ISOTOPIC_ATOM_COUNT>  (1) 
0

>  <PUBCHEM_COMPONENT_COUNT>  (1) 
1

>  <PUBCHEM_CACTVS_TAUTO_COUNT>  (1) 
2

>  <PUBCHEM_CONFORMER_ID>  (1) 
0000349B00000004

>  <PUBCHEM_MMFF94_ENERGY>  (1) 
58.2658

>  <PUBCHEM_FEATURE_SELFOVERLAP>  (1) 
35.576

>  <PUBCHEM_SHAPE_FINGERPRINT>  (1) 
10498660 4 17313654972178158709
10980938 120 18411136956680013807
11471102 20 18412547625814026140
116883 192 18051130293905507053
12346645 6 18412543236431250646
12616999 72 18334582360084521078
12654215 9 18409730677245287948
14251717 144 18343304768605763270
15757776 16 18408608045898189362
16945 1 18057629714013002792
18186145 218 18408045091681397387
20339313 130 18410294692376933497
20559304 39 18131632270504622939
20645477 70 18410857650820387511
20820808 20 18115031913021449684
21452121 103 18272925051467159696
21501502 16 18264211305336089256
21637258 2 15697450906081309996
22289505 5 18335695014771360445
23402655 69 18413671309829097445
23419403 2 17831818475410011496
23526113 38 18114753654706420315
23557571 272 15792000178242826095
25 1 18411140268057711390
2748010 2 18051711111492435702
3060560 45 18272374195682734174
4072396 5 18335408081075527432
522135 26 18412546505112463335
54040823 5 18041001764726081546
7364860 26 18272932751657465592
81228 2 17835806291844872354
81539 233 18260830453262131372

>  <PUBCHEM_SHAPE_MULTIPOLES>  (1) 
309.35
7.22
2.16
1.18
11.58
0.19
0.32
0.85
-1.21
-1.62
-0.05
-0.58
-0.17
0.2

>  <PUBCHEM_SHAPE_SELFOVERLAP>  (1) 
607.556

>  <PUBCHEM_SHAPE_VOLUME>  (1) 
185

>  <PUBCHEM_COORDINATE_TYPE>  (1) 
2
5
10

$$$$
