13477
     RDKit          3D

 21 22  0  0  0  0  0  0  0  0999 V2000
    2.6001   -0.1093   -0.7586 P   0  0  0  0  0  0  0  0  0  0  0  0
    1.6523    1.1327   -0.3298 O   0  0  0  0  0  0  0  0  0  0  0  0
   -2.3793   -1.4175   -0.3987 O   0  0  0  0  0  0  0  0  0  0  0  0
    2.5268   -1.1160    0.5095 O   0  0  0  0  0  0  0  0  0  0  0  0
    4.0980    0.5081   -0.6843 O   0  0  0  0  0  0  0  0  0  0  0  0
    2.2703   -0.7270   -2.0883 O   0  0  0  0  0  0  0  0  0  0  0  0
   -4.3029   -2.6536   -0.4360 O   0  0  0  0  0  0  0  0  0  0  0  0
   -2.4923    0.9510    0.1883 C   0  0  0  0  0  0  0  0  0  0  0  0
   -1.7536   -0.1732   -0.1835 C   0  0  0  0  0  0  0  0  0  0  0  0
   -3.9459    0.8151    0.3528 C   0  0  0  0  0  0  0  0  0  0  0  0
    0.3036    1.0699   -0.1621 C   0  0  0  0  0  0  0  0  0  0  0  0
   -0.3696   -0.1309   -0.3609 C   0  0  0  0  0  0  0  0  0  0  0  0
   -1.7956    2.1511    0.3838 C   0  0  0  0  0  0  0  0  0  0  0  0
   -0.4081    2.2091    0.2098 C   0  0  0  0  0  0  0  0  0  0  0  0
   -4.5141   -0.3805    0.1412 C   0  0  0  0  0  0  0  0  0  0  0  0
   -4.7683    2.0053    0.7517 C   0  0  0  0  0  0  0  0  0  0  0  0
   -3.7484   -1.5758   -0.2510 C   0  0  0  0  0  0  0  0  0  0  0  0
    3.3716   -2.2536    0.5172 C   0  0  0  0  0  0  0  0  0  0  0  0
    4.5529    1.1249    0.5080 C   0  0  0  0  0  0  0  0  0  0  0  0
    3.1301   -3.0385    1.7890 C   0  0  0  0  0  0  0  0  0  0  0  0
    5.9725    1.6088    0.3022 C   0  0  0  0  0  0  0  0  0  0  0  0
  1  2  1  0
  1  4  1  0
  1  5  1  0
  1  6  2  0
  2 11  1  0
  3  9  1  0
  3 17  1  0
  4 18  1  0
  5 19  1  0
  7 17  2  0
  8  9  2  0
  8 10  1  0
  8 13  1  0
  9 12  1  0
 10 15  2  0
 10 16  1  0
 11 12  2  0
 11 14  1  0
 13 14  2  0
 15 17  1  0
 18 20  1  0
 19 21  1  0
M  END
>  <PUBCHEM_COMPOUND_CID>  (1) 
13477

>  <PUBCHEM_CONFORMER_RMSD>  (1) 
0.8

>  <PUBCHEM_CONFORMER_DIVERSEORDER>  (1) 
1
22
10
11
36
13
45
24
43
54
41
23
2
21
12
31
44
20
9
42
32
53
16
3
52
37
15
38
14
61
46
48
19
30
57
39
47
58
34
35
40
56
4
59
28
60
55
26
25
49
29
17
50
27
18
6
33
51
8
7
5

>  <PUBCHEM_MMFF94_PARTIAL_CHARGES>  (1) 
23
1 1.51
10 -0.17
11 0.08
12 -0.15
13 -0.15
14 -0.15
15 -0.14
16 0.14
17 0.71
18 0.28
19 0.28
2 -0.35
22 0.15
23 0.15
24 0.15
25 0.15
3 -0.23
4 -0.55
5 -0.55
6 -0.7
7 -0.57
8 0.03
9 0.08

>  <PUBCHEM_EFFECTIVE_ROTOR_COUNT>  (1) 
6

>  <PUBCHEM_PHARMACOPHORE_FEATURES>  (1) 
4
1 6 acceptor
1 7 acceptor
6 3 8 9 10 15 17 rings
6 8 9 11 12 13 14 rings

>  <PUBCHEM_HEAVY_ATOM_COUNT>  (1) 
21

>  <PUBCHEM_ATOM_DEF_STEREO_COUNT>  (1) 
0

>  <PUBCHEM_ATOM_UDEF_STEREO_COUNT>  (1) 
0

>  <PUBCHEM_BOND_DEF_STEREO_COUNT>  (1) 
0

>  <PUBCHEM_BOND_UDEF_STEREO_COUNT>  (1) 
0

>  <PUBCHEM_ISOTOPIC_ATOM_COUNT>  (1) 
0

>  <PUBCHEM_COMPONENT_COUNT>  (1) 
1

>  <PUBCHEM_CACTVS_TAUTO_COUNT>  (1) 
1

>  <PUBCHEM_CONFORMER_ID>  (1) 
000034A500000001

>  <PUBCHEM_MMFF94_ENERGY>  (1) 
47.2595

>  <PUBCHEM_FEATURE_SELFOVERLAP>  (1) 
20.324

>  <PUBCHEM_SHAPE_FINGERPRINT>  (1) 
10062212 137 18337108978261339403
10090160 65 18187642570177477284
10616163 171 18341618139491628239
11578080 2 17678440996976280860
12107183 9 17905889171605268585
12670545 47 16128644250066951683
12788726 201 17559962025865629457
13073987 5 18408325458714872921
13140716 1 18342738499164640761
13167823 11 18336549326167509747
13533116 47 18042973072989345234
13631057 29 18267865175732879995
14341114 328 18411133645734995392
14787075 74 18269274745745622152
15196674 1 18413110541323351983
15537594 2 18335720328992052579
17349148 13 17458345243326334192
17492 89 18337952285925656546
1813 80 17240489078397313789
20281475 54 18408600353469252981
20511986 3 18335687334868395517
20681651 13 18342460296494210617
21033648 29 15841549648231640315
21054139 6 18263078980495652134
21065198 48 18411415098756964418
21267235 1 18269003131892107687
21421861 104 18187923911872889752
23366157 5 18263928915774392421
23402539 116 18410570725440423124
23557571 272 18130232643779066180
23559900 14 17987247633534571926
300161 21 18411697669150919037
34934 24 18413107251389154125
5104073 3 18338805515801561249
59554788 62 17894907404328626460
6823239 73 17916598527098805046
6913067 236 17604136134235698948
7097593 13 17830729851303116026

>  <PUBCHEM_SHAPE_MULTIPOLES>  (1) 
400.8
11.42
2.94
1.09
4.15
1.53
0.1
-0.69
-1.73
0.4
-0.98
0.91
0.51
-1.61

>  <PUBCHEM_SHAPE_SELFOVERLAP>  (1) 
819.361

>  <PUBCHEM_SHAPE_VOLUME>  (1) 
232.8

>  <PUBCHEM_COORDINATE_TYPE>  (1) 
2
5
10

$$$$
