13471
     RDKit          3D

 21 24  0  0  1  0  0  0  0  0999 V2000
    4.3606   -0.7662   -1.0601 O   0  0  0  0  0  0  0  0  0  0  0  0
    1.9734   -0.3775   -0.5823 C   0  0  0  0  0  0  0  0  0  0  0  0
    1.2791    0.7937    0.1500 C   0  0  0  0  0  0  0  0  0  0  0  0
   -0.2178    0.8728   -0.1581 C   0  0  0  0  0  0  0  0  0  0  0  0
   -0.9005   -0.4447    0.3184 C   0  0  0  0  0  0  0  0  0  0  0  0
    3.4555   -0.1286   -0.1688 C   0  0  0  0  0  0  0  0  0  0  0  0
    1.3210   -1.6911   -0.1128 C   0  0  0  0  0  0  0  0  0  0  0  0
    2.1630    1.9938   -0.1780 C   0  0  0  0  0  0  0  0  0  0  0  0
   -0.2084   -1.6819   -0.3106 C   0  0  0  0  0  0  0  0  0  0  0  0
    3.5900    1.4141   -0.2719 C   0  0  0  0  0  0  0  0  0  0  0  0
   -0.8967    2.0652    0.5140 C   0  0  0  0  0  0  0  0  0  0  0  0
   -2.4198   -0.3850    0.1419 C   0  0  0  0  0  0  0  0  0  0  0  0
    1.8534   -0.3049   -2.1340 C   0  0  0  0  0  0  0  0  0  0  0  0
   -2.3670    2.1348    0.1062 C   0  0  0  0  0  0  0  0  0  0  0  0
   -3.0721    0.7984    0.0661 C   0  0  0  0  0  0  0  0  0  0  0  0
   -3.1748   -1.6995    0.1260 C   0  0  0  0  0  0  0  0  0  0  0  0
   -4.5771    0.8955   -0.0416 C   0  0  0  0  0  0  0  0  0  0  0  0
    3.7664   -0.5750    1.2036 C   0  0  0  0  0  0  0  0  0  0  0  0
   -4.6437   -1.5908   -0.2847 C   0  0  0  0  0  0  0  0  0  0  0  0
   -5.3042   -0.3850    0.3572 C   0  0  0  0  0  0  0  0  0  0  0  0
    4.0197   -0.9381    2.3194 C   0  0  0  0  0  0  0  0  0  0  0  0
  1  6  1  0
  2  3  1  0
  2  6  1  0
  2  7  1  0
  2 13  1  0
  3  4  1  0
  3  8  1  0
  4  5  1  0
  4 11  1  0
  5  9  1  0
  5 12  1  0
  6 10  1  0
  6 18  1  0
  7  9  1  0
  8 10  1  0
 11 14  1  0
 12 15  2  0
 12 16  1  0
 14 15  1  0
 15 17  1  0
 16 19  1  0
 17 20  1  0
 18 21  3  0
 19 20  1  0
M  END
>  <PUBCHEM_COMPOUND_CID>  (1) 
13471

>  <PUBCHEM_CONFORMER_RMSD>  (1) 
0.6

>  <PUBCHEM_CONFORMER_DIVERSEORDER>  (1) 
1

>  <PUBCHEM_MMFF94_PARTIAL_CHARGES>  (1) 
12
1 -0.68
12 -0.28
14 0.14
15 -0.28
16 0.14
17 0.14
18 -0.2
21 -0.18
44 0.4
49 0.18
5 0.14
6 0.48

>  <PUBCHEM_EFFECTIVE_ROTOR_COUNT>  (1) 
2.2

>  <PUBCHEM_PHARMACOPHORE_FEATURES>  (1) 
7
1 1 acceptor
1 1 donor
1 21 hydrophobe
5 2 3 6 8 10 rings
6 12 15 16 17 19 20 rings
6 2 3 4 5 7 9 rings
6 4 5 11 12 14 15 rings

>  <PUBCHEM_HEAVY_ATOM_COUNT>  (1) 
21

>  <PUBCHEM_ATOM_DEF_STEREO_COUNT>  (1) 
5

>  <PUBCHEM_ATOM_UDEF_STEREO_COUNT>  (1) 
0

>  <PUBCHEM_BOND_DEF_STEREO_COUNT>  (1) 
0

>  <PUBCHEM_BOND_UDEF_STEREO_COUNT>  (1) 
0

>  <PUBCHEM_ISOTOPIC_ATOM_COUNT>  (1) 
0

>  <PUBCHEM_COMPONENT_COUNT>  (1) 
1

>  <PUBCHEM_CACTVS_TAUTO_COUNT>  (1) 
1

>  <PUBCHEM_CONFORMER_ID>  (1) 
0000349F00000001

>  <PUBCHEM_MMFF94_ENERGY>  (1) 
53.3167

>  <PUBCHEM_FEATURE_SELFOVERLAP>  (1) 
35.61

>  <PUBCHEM_SHAPE_FINGERPRINT>  (1) 
10062212 137 18409160039469335379
10616163 171 18413675699438713119
10646746 165 18341615880043171484
10759866 29 18041285481902606396
10967382 1 18412268328491281477
11132069 177 18060135448966746447
12107183 9 17683230370457334424
12236239 1 17894632530885161970
12403259 226 18411979135411347828
12403259 415 17560798810422974264
12403260 363 18408599262394793377
12553582 1 18411705378896458849
12633257 1 18337955593160672833
12670546 56 17821720641591671416
12788726 201 18412554192846013049
12839892 36 18339626854934888787
128620 24 17489590060720344719
13134695 92 16153432735847482438
13140716 1 18268140040575457410
13224815 77 18413111671142402425
13533116 47 17603579712363685459
13583140 156 17313396655069073657
13675066 3 17775280560421507949
13862211 1 18411412938968838555
14081887 123 18201714007982923529
14115302 16 17895204340934271335
14178342 30 18125720089113397760
14251739 40 17385999529665025106
15196674 1 18412267267803190421
15375358 24 18202001015056761759
15536298 74 18343587368921856181
15788980 27 17530960272489796643
16752209 62 18409735040689461122
16945 1 18339653221717597301
17349148 13 18260547818554742251
17492 89 18408604747042345459
17862501 102 18261385624681652619
18186145 218 18187643626095782453
18681886 176 18341617057634519252
19141452 34 17846223293462881415
200 152 17918277554205039805
20028762 73 18272928362360139055
20261772 1 17846497071172343623
20715895 44 17900811666254416693
21033648 29 17131254775963336928
21069387 34 16877662327137160465
21267235 1 18339936977976147839
21421861 104 18116153268610417667
22646028 1 18040150712650881675
23402539 116 18342171185070779191
23557571 272 18060147500655515629
23559900 14 18200317593740059902
2871803 45 18410575097985791919
3004659 81 18334860519494191733
3286 77 18113610184014353908
335352 9 18411704244534508733
34934 24 18196370544949967616
350125 39 18411420639629162788
3680242 22 18336549313688536987
4072396 5 18338506465734486555
474 4 17242463943489863780
5104073 3 18410294752759742553
5374978 207 18411979182492029321
573450 72 18261103041925191465
67856867 119 18261950868496399384
9709674 26 18412554205931088799

>  <PUBCHEM_SHAPE_MULTIPOLES>  (1) 
426.3
9.66
2.11
1.26
5.25
0.53
-0.1
-1.87
-1.43
0.65
-0.09
-1.84
-0.38
-0.56

>  <PUBCHEM_SHAPE_SELFOVERLAP>  (1) 
911.769

>  <PUBCHEM_SHAPE_VOLUME>  (1) 
234.3

>  <PUBCHEM_COORDINATE_TYPE>  (1) 
2
5
10

$$$$
