13481
     RDKit          3D

 23 23  0  0  1  0  0  0  0  0999 V2000
   -1.8291   -1.2752   -1.4795 S   0  0  0  0  0  0  0  0  0  0  0  0
    2.8930    1.6612   -1.2568 O   0  0  0  0  0  0  0  0  0  0  0  0
    4.2755    2.3174    0.4655 O   0  0  0  0  0  0  0  0  0  0  0  0
   -0.5231   -0.8533   -1.9478 O   0  0  0  0  0  0  0  0  0  0  0  0
   -2.8441   -1.7052   -2.4221 O   0  0  0  0  0  0  0  0  0  0  0  0
    5.4382   -0.1336    0.5782 N   0  0  0  0  0  0  0  0  0  0  0  0
    0.4263   -1.7571    0.5728 N   0  0  0  0  0  0  0  0  0  0  0  0
   -1.6400   -2.4729   -0.2717 N   0  0  0  0  0  0  0  0  0  0  0  0
   -0.7401   -3.6219    1.5377 N   0  0  0  0  0  0  0  0  0  0  0  0
    3.2057   -0.9751   -0.0965 C   0  0  0  0  0  0  0  0  0  0  0  0
    2.5870   -0.8643    1.3061 C   0  0  0  0  0  0  0  0  0  0  0  0
    4.3385    0.0256   -0.3722 C   0  0  0  0  0  0  0  0  0  0  0  0
    1.5076   -1.9161    1.5470 C   0  0  0  0  0  0  0  0  0  0  0  0
    3.8575    1.4652   -0.3078 C   0  0  0  0  0  0  0  0  0  0  0  0
   -2.5351    0.0479   -0.5443 C   0  0  0  0  0  0  0  0  0  0  0  0
   -0.5533   -2.5884    0.6567 C   0  0  0  0  0  0  0  0  0  0  0  0
   -1.6987    0.9732    0.0560 C   0  0  0  0  0  0  0  0  0  0  0  0
   -3.9118    0.1346   -0.4293 C   0  0  0  0  0  0  0  0  0  0  0  0
   -3.6414    2.1203    0.9201 C   0  0  0  0  0  0  0  0  0  0  0  0
   -2.2561    2.0176    0.7939 C   0  0  0  0  0  0  0  0  0  0  0  0
   -4.4693    1.1788    0.3085 C   0  0  0  0  0  0  0  0  0  0  0  0
   -4.2376    3.2375    1.7078 C   0  0  0  0  0  0  0  0  0  0  0  0
    2.3504    2.9839   -1.3222 C   0  0  0  0  0  0  0  0  0  0  0  0
  1  4  2  0
  1  5  2  0
  1  8  1  0
  1 15  1  0
  2 14  1  0
  2 23  1  0
  3 14  2  0
  6 12  1  0
  7 13  1  0
  7 16  2  0
  8 16  1  0
  9 16  1  0
 10 11  1  0
 10 12  1  0
 11 13  1  0
 12 14  1  0
 15 17  2  0
 15 18  1  0
 17 20  1  0
 18 21  2  0
 19 20  2  0
 19 21  1  0
 19 22  1  0
M  END
>  <PUBCHEM_COMPOUND_CID>  (1) 
13481

>  <PUBCHEM_CONFORMER_RMSD>  (1) 
1

>  <PUBCHEM_CONFORMER_DIVERSEORDER>  (1) 
1
157
409
126
68
186
23
165
40
48
34
233
149
91
426
184
69
194
326
118
383
432
84
288
199
299
36
368
428
44
133
364
247
50
136
178
220
304
146
420
366
393
352
451
72
49
374
232
181
17
92
411
262
26
45
46
207
106
147
188
55
124
296
60
153
94
219
63
120
361
3
222
177
197
89
267
7
131
10
414
347
185
290
47
88
8
459
71
385
121
416
79
357
305
127
24
275
158
80
318
285
384
253
260
13
281
289
350
444
216
249
443
338
25
73
14
130
110
358
83
367
398
226
323
97
372
410
116
191
155
37
348
306
142
452
240
424
298
309
381
375
166
202
78
4
277
246
6
258
456
21
356
230
76
129
193
341
30
65
321
114
101
354
344
35
62
115
322
204
66
11
159
317
454
311
119
70
297
236
313
56
270
107
90
32
362
111
445
292
294
250
421
221
276
27
18
135
278
225
257
394
397
433
342
248
59
28
437
169
371
151
427
5
402
412
307
51
340
458
329
345
22
395
413
224
161
438
43
417
105
404
279
431
211
324
439
333
418
351
228
170
122
325
19
334
208
370
86
238
109
42
406
259
214
123
87
58
389
315
168
100
93
291
29
145
457
308
349
196
187
77
434
254
284
33
223
330
61
256
310
359
243
140
167
218
9
282
41
200
378
237
205
82
425
209
396
103
312
419
141
343
99
239
346
64
39
128
132
134
242
235
163
182
203
2
422
195
172
75
387
212
339
112
429
450
164
154
244
20
263
213
104
379
183
373
53
229
335
336
241
447
189
198
227
160
442
96
403
12
273
314
283
435
353
144
316
234
16
400
331
117
210
448
301
108
271
369
436
179
386
300
441
74
57
180
408
280
391
295
392
81
268
125
85
173
355
430
52
138
143
54
269
171
176
337
67
148
264
38
102
327
286
113
293
192
98
15
261
152
190
407
320
31
156
95
287
377
206
215
272
255
139
174
363
266
399
455
360
365
440
446
201
453
390
231
251
380
175
302
303
150
415
388
252
265
274
162
423
319
328
332
401
405
449
245
137
382
376
217

>  <PUBCHEM_MMFF94_PARTIAL_CHARGES>  (1) 
30
1 1.45
12 0.33
13 0.25
14 0.66
15 -0.01
16 0.74
17 -0.15
18 -0.15
19 -0.14
2 -0.43
20 -0.15
21 -0.15
22 0.14
23 0.28
3 -0.57
31 0.36
32 0.36
33 0.42
34 0.15
35 0.15
36 0.15
37 0.15
4 -0.65
41 0.4
42 0.4
5 -0.65
6 -0.99
7 -0.7
8 -0.79
9 -0.85

>  <PUBCHEM_EFFECTIVE_ROTOR_COUNT>  (1) 
9

>  <PUBCHEM_PHARMACOPHORE_FEATURES>  (1) 
8
1 3 acceptor
1 4 acceptor
1 5 acceptor
1 6 cation
1 6 donor
1 8 donor
1 9 donor
6 15 17 18 19 20 21 rings

>  <PUBCHEM_HEAVY_ATOM_COUNT>  (1) 
23

>  <PUBCHEM_ATOM_DEF_STEREO_COUNT>  (1) 
0

>  <PUBCHEM_ATOM_UDEF_STEREO_COUNT>  (1) 
1

>  <PUBCHEM_BOND_DEF_STEREO_COUNT>  (1) 
0

>  <PUBCHEM_BOND_UDEF_STEREO_COUNT>  (1) 
0

>  <PUBCHEM_ISOTOPIC_ATOM_COUNT>  (1) 
0

>  <PUBCHEM_COMPONENT_COUNT>  (1) 
1

>  <PUBCHEM_CACTVS_TAUTO_COUNT>  (1) 
3

>  <PUBCHEM_CONFORMER_ID>  (1) 
000034A900000001

>  <PUBCHEM_MMFF94_ENERGY>  (1) 
26.6643

>  <PUBCHEM_FEATURE_SELFOVERLAP>  (1) 
40.659

>  <PUBCHEM_SHAPE_FINGERPRINT>  (1) 
12173636 292 18338237179727567538
12539773 59 18268978950888608943
12633257 1 18113610210358898014
12788726 201 18198068182186530575
13583140 156 15792276164230161642
14123250 116 18336264668720077578
14251751 93 18272370858382218965
14251757 17 15482670126630473729
14251764 38 18055623161164473032
14468879 13 17988657318852229982
14787075 74 18336822091810783355
15163728 17 17273424859608934521
21756936 100 18411419501309576138
21864079 5 18410008844975959074
22182937 141 18188494691203914978
22749437 52 17972028399973616852
22849341 161 17753309995276299978
23227448 37 18336550498725236455
23558518 356 18264774440067751056
2637199 183 18338525127393826402
392239 28 18261972828980344955
445580 8 18268148647674340968
469060 322 15792291638876659491
474 4 18335138644264594691
5048184 11 18409171017089577136
633830 44 18269274565019281863

>  <PUBCHEM_SHAPE_MULTIPOLES>  (1) 
433.78
9.78
3.98
1.76
4.86
0.18
0.46
-7.41
-1.36
-0.99
-0.99
-0.76
0.5
-2.99

>  <PUBCHEM_SHAPE_SELFOVERLAP>  (1) 
862.725

>  <PUBCHEM_SHAPE_VOLUME>  (1) 
257

>  <PUBCHEM_COORDINATE_TYPE>  (1) 
2
5
10

$$$$
