1348
     RDKit          3D

 24 27  0  0  0  0  0  0  0  0999 V2000
   -4.7238   -2.8244   -1.7742 Cl  0  0  0  0  0  0  0  0  0  0  0  0
   -2.1493    0.9766    0.5174 N   0  0  0  0  0  0  0  0  0  0  0  0
    0.7887   -1.1245    0.5981 N   0  0  0  0  0  0  0  0  0  0  0  0
   -0.4983   -0.6983    0.6959 N   0  0  0  0  0  0  0  0  0  0  0  0
    1.4866    1.0747   -0.1066 C   0  0  0  0  0  0  0  0  0  0  0  0
    0.1582    1.5144   -0.0063 C   0  0  0  0  0  0  0  0  0  0  0  0
    1.7457   -0.2549    0.2073 C   0  0  0  0  0  0  0  0  0  0  0  0
   -0.7941    0.5859    0.3996 C   0  0  0  0  0  0  0  0  0  0  0  0
    3.0633   -0.8506    0.1503 C   0  0  0  0  0  0  0  0  0  0  0  0
    2.4873    1.9734   -0.5124 C   0  0  0  0  0  0  0  0  0  0  0  0
   -0.1571    2.8489   -0.3128 C   0  0  0  0  0  0  0  0  0  0  0  0
    2.1638    3.2969   -0.8145 C   0  0  0  0  0  0  0  0  0  0  0  0
    0.8440    3.7337   -0.7149 C   0  0  0  0  0  0  0  0  0  0  0  0
   -3.3563    0.2743    0.3620 C   0  0  0  0  0  0  0  0  0  0  0  0
    3.8875   -0.8285    1.2753 C   0  0  0  0  0  0  0  0  0  0  0  0
    3.5087   -1.4471   -1.0292 C   0  0  0  0  0  0  0  0  0  0  0  0
   -3.4342   -0.8021   -0.5261 C   0  0  0  0  0  0  0  0  0  0  0  0
   -4.4859    0.6478    1.0954 C   0  0  0  0  0  0  0  0  0  0  0  0
    5.1576   -1.4027    1.2208 C   0  0  0  0  0  0  0  0  0  0  0  0
    4.7786   -2.0215   -1.0837 C   0  0  0  0  0  0  0  0  0  0  0  0
    5.6030   -1.9993    0.0414 C   0  0  0  0  0  0  0  0  0  0  0  0
   -4.6325   -1.4996   -0.6795 C   0  0  0  0  0  0  0  0  0  0  0  0
   -5.6840   -0.0496    0.9421 C   0  0  0  0  0  0  0  0  0  0  0  0
   -5.7573   -1.1234    0.0548 C   0  0  0  0  0  0  0  0  0  0  0  0
  1 22  1  0
  2  8  1  0
  2 14  1  0
  3  4  2  0
  3  7  1  0
  4  8  1  0
  5  6  1  0
  5  7  2  0
  5 10  1  0
  6  8  2  0
  6 11  1  0
  7  9  1  0
  9 15  2  0
  9 16  1  0
 10 12  2  0
 11 13  2  0
 12 13  1  0
 14 17  2  0
 14 18  1  0
 15 19  1  0
 16 20  2  0
 17 22  1  0
 18 23  2  0
 19 21  2  0
 20 21  1  0
 22 24  2  0
 23 24  1  0
M  END
>  <PUBCHEM_COMPOUND_CID>  (1) 
1348

>  <PUBCHEM_CONFORMER_RMSD>  (1) 
0.6

>  <PUBCHEM_CONFORMER_DIVERSEORDER>  (1) 
1
18
25
17
7
21
23
12
19
26
16
20
14
13
15
10
8
24
6
9
22
2
5
11
4
3

>  <PUBCHEM_MMFF94_PARTIAL_CHARGES>  (1) 
35
1 -0.18
10 -0.15
11 -0.15
12 -0.15
13 -0.15
14 0.1
15 -0.15
16 -0.15
17 -0.15
18 -0.15
19 -0.15
2 -0.6
20 -0.15
21 -0.15
22 0.18
23 -0.15
24 -0.15
25 0.15
26 0.15
27 0.4
28 0.15
29 0.15
3 -0.31
30 0.15
31 0.15
32 0.15
33 0.15
34 0.15
35 0.15
36 0.15
37 0.15
38 0.15
4 -0.31
7 0.31
8 0.41

>  <PUBCHEM_EFFECTIVE_ROTOR_COUNT>  (1) 
3

>  <PUBCHEM_PHARMACOPHORE_FEATURES>  (1) 
7
1 2 donor
1 3 acceptor
3 2 4 8 cation
6 14 17 18 22 23 24 rings
6 3 4 5 6 7 8 rings
6 5 6 10 11 12 13 rings
6 9 15 16 19 20 21 rings

>  <PUBCHEM_HEAVY_ATOM_COUNT>  (1) 
24

>  <PUBCHEM_ATOM_DEF_STEREO_COUNT>  (1) 
0

>  <PUBCHEM_ATOM_UDEF_STEREO_COUNT>  (1) 
0

>  <PUBCHEM_BOND_DEF_STEREO_COUNT>  (1) 
0

>  <PUBCHEM_BOND_UDEF_STEREO_COUNT>  (1) 
0

>  <PUBCHEM_ISOTOPIC_ATOM_COUNT>  (1) 
0

>  <PUBCHEM_COMPONENT_COUNT>  (1) 
1

>  <PUBCHEM_CACTVS_TAUTO_COUNT>  (1) 
2

>  <PUBCHEM_CONFORMER_ID>  (1) 
0000054400000001

>  <PUBCHEM_MMFF94_ENERGY>  (1) 
92.3507

>  <PUBCHEM_FEATURE_SELFOVERLAP>  (1) 
35.549

>  <PUBCHEM_SHAPE_FINGERPRINT>  (1) 
10042902 136 18202006521062690270
10411042 1 18334859368669926584
10622 236 17985810748364095759
11265709 11 18335704901575039856
12107183 9 18269567052946377889
12236239 1 18272655653853803505
12422481 6 17561082475427142806
12516196 113 18335422348698493226
12553582 1 18262233326672117210
12616971 3 18411986884149060707
12623949 98 17631742552159391302
13009979 54 18201731643145255185
13690498 29 18187087204777683141
13782708 43 17386294298167157499
13862211 1 18261673679849376458
13899415 180 18260822696256101229
14117953 113 18342455890659351933
14347329 18 15358240612277008703
14556957 393 17387721339594702510
14739800 52 17488740232405708281
14767858 380 18041860453981192646
15250474 111 18057600061496053431
17492 89 18267306624300989743
17818456 19 17987531333610823161
1813 80 18410579448576718236
18222031 100 18409450258893738402
19141452 34 18130228155849393667
19319366 153 17046814804364955351
20028762 73 18343581850063746895
20612939 158 18334015034013164125
20645477 70 18261111936834174729
21267235 1 18409457964276232995
21424621 283 8574418825734646406
21641784 216 17459769024958442444
21709351 56 18335415756129344191
21781055 127 16915130390152941537
23402539 116 18338231557578142106
23559900 14 18335699502832550835
24771293 8 18341043112628344896
249057 3 18410854327259303869
3004659 81 18271814548701263125
312425 54 17417812794750606499
314194 84 18333736805820843426
338550 245 18131069372175848719
351380 3 18335140860489143387
463206 1 18114180813275122106
5104073 3 18271815674367797755
559249 180 18342457011735778611
6058803 2 18127140882271641249
67856867 119 18270396230030543337
7471813 234 18408322185470134980
7495541 125 17822584879369632963
7970288 3 18336544919742820730
8863177 126 17678198159662372379
9709674 26 18262804115499879963
9841814 1 18113610210063882400
9971528 1 18411697703383927112
9981440 41 17401763519914928065

>  <PUBCHEM_SHAPE_MULTIPOLES>  (1) 
480.84
13.18
3.59
1.22
7.93
2.91
0.1
-11.97
-0.73
-2.13
1.75
0.17
-0.49
-1.92

>  <PUBCHEM_SHAPE_SELFOVERLAP>  (1) 
1064.054

>  <PUBCHEM_SHAPE_VOLUME>  (1) 
256.6

>  <PUBCHEM_COORDINATE_TYPE>  (1) 
2
5
10

$$$$
