13485
     RDKit          3D

 25 26  0  0  0  0  0  0  0  0999 V2000
    0.0031    0.3043   -0.3213 P   0  0  0  0  0  0  0  0  0  0  0  0
   -1.2635    1.0940    0.3125 O   0  0  0  0  0  0  0  0  0  0  0  0
    1.2621    1.0943    0.3150 O   0  0  0  0  0  0  0  0  0  0  0  0
    0.0018   -1.1350    0.4259 O   0  0  0  0  0  0  0  0  0  0  0  0
    0.0037    0.2434   -1.8234 O   0  0  0  0  0  0  0  0  0  0  0  0
   -6.8858   -1.3170   -1.0869 O   0  0  0  0  0  0  0  0  0  0  0  0
    6.8832   -1.3192   -1.0848 O   0  0  0  0  0  0  0  0  0  0  0  0
   -7.4968    0.3819    0.1619 O   0  0  0  0  0  0  0  0  0  0  0  0
    7.4952    0.3822    0.1602 O   0  0  0  0  0  0  0  0  0  0  0  0
   -6.6080   -0.3141   -0.3860 N   0  0  0  0  0  0  0  0  0  0  0  0
    6.6060   -0.3144   -0.3862 N   0  0  0  0  0  0  0  0  0  0  0  0
   -2.5694    0.7502    0.1416 C   0  0  0  0  0  0  0  0  0  0  0  0
    2.5756    0.7479    0.1430 C   0  0  0  0  0  0  0  0  0  0  0  0
    0.0011   -1.2070    1.8415 C   0  0  0  0  0  0  0  0  0  0  0  0
   -2.9023   -0.3620   -0.6315 C   0  0  0  0  0  0  0  0  0  0  0  0
    2.9002   -0.3615   -0.6303 C   0  0  0  0  0  0  0  0  0  0  0  0
   -3.5745    1.5095    0.7405 C   0  0  0  0  0  0  0  0  0  0  0  0
    3.5733    1.5092    0.7422 C   0  0  0  0  0  0  0  0  0  0  0  0
   -5.2457    0.0441   -0.2066 C   0  0  0  0  0  0  0  0  0  0  0  0
    5.2440    0.0456   -0.2085 C   0  0  0  0  0  0  0  0  0  0  0  0
   -4.2405   -0.7151   -0.8056 C   0  0  0  0  0  0  0  0  0  0  0  0
    4.2384   -0.7138   -0.8066 C   0  0  0  0  0  0  0  0  0  0  0  0
   -4.9127    1.1564    0.5665 C   0  0  0  0  0  0  0  0  0  0  0  0
    4.9115    1.1571    0.5659 C   0  0  0  0  0  0  0  0  0  0  0  0
    0.0000   -2.6614    2.2612 C   0  0  0  0  0  0  0  0  0  0  0  0
  1  2  1  0
  1  3  1  0
  1  4  1  0
  1  5  2  0
  2 12  1  0
  3 13  1  0
  4 14  1  0
  6 10  1  0
  7 11  1  0
  8 10  2  0
  9 11  2  0
 10 19  1  0
 11 20  1  0
 12 15  2  0
 12 17  1  0
 13 16  2  0
 13 18  1  0
 14 25  1  0
 15 21  1  0
 16 22  1  0
 17 23  2  0
 18 24  2  0
 19 21  2  0
 19 23  1  0
 20 22  2  0
 20 24  1  0
M  CHG  4   6  -1   7  -1  10   1  11   1
M  END
>  <PUBCHEM_COMPOUND_CID>  (1) 
13485

>  <PUBCHEM_CONFORMER_RMSD>  (1) 
0.8

>  <PUBCHEM_CONFORMER_DIVERSEORDER>  (1) 
1
34
24
9
18
31
19
22
32
17
39
25
7
10
33
11
3
35
13
28
23
21
38
16
12
2
27
37
26
14
15
4
20
29
5
6
30
8
36

>  <PUBCHEM_MMFF94_PARTIAL_CHARGES>  (1) 
32
1 1.51
10 0.91
11 0.91
12 0.08
13 0.08
14 0.28
15 -0.15
16 -0.15
17 -0.15
18 -0.15
19 0.13
2 -0.35
20 0.13
21 -0.15
22 -0.15
23 -0.15
24 -0.15
28 0.15
29 0.15
3 -0.35
30 0.15
31 0.15
32 0.15
33 0.15
34 0.15
35 0.15
4 -0.55
5 -0.7
6 -0.52
7 -0.52
8 -0.52
9 -0.52

>  <PUBCHEM_EFFECTIVE_ROTOR_COUNT>  (1) 
8

>  <PUBCHEM_PHARMACOPHORE_FEATURES>  (1) 
9
1 5 acceptor
1 6 acceptor
1 6 anion
1 7 acceptor
1 7 anion
1 8 acceptor
1 9 acceptor
6 12 15 17 19 21 23 rings
6 13 16 18 20 22 24 rings

>  <PUBCHEM_HEAVY_ATOM_COUNT>  (1) 
25

>  <PUBCHEM_ATOM_DEF_STEREO_COUNT>  (1) 
0

>  <PUBCHEM_ATOM_UDEF_STEREO_COUNT>  (1) 
0

>  <PUBCHEM_BOND_DEF_STEREO_COUNT>  (1) 
0

>  <PUBCHEM_BOND_UDEF_STEREO_COUNT>  (1) 
0

>  <PUBCHEM_ISOTOPIC_ATOM_COUNT>  (1) 
0

>  <PUBCHEM_COMPONENT_COUNT>  (1) 
1

>  <PUBCHEM_CACTVS_TAUTO_COUNT>  (1) 
1

>  <PUBCHEM_CONFORMER_ID>  (1) 
000034AD00000001

>  <PUBCHEM_MMFF94_ENERGY>  (1) 
66.0939

>  <PUBCHEM_FEATURE_SELFOVERLAP>  (1) 
45.837

>  <PUBCHEM_SHAPE_FINGERPRINT>  (1) 
10299344 5 18060702792444826004
11315181 36 17847064389719473433
11719270 70 17132115715354231350
11991303 11 16660653993559735843
12011746 2 17458345242793538696
12107183 9 17339296510338368914
12166972 35 18202284723069151552
12236239 1 18413669123928185405
12788726 201 13758085043342446918
13533116 47 18187920634897654674
13968360 50 17313097527861439251
14251764 18 17989208157171962404
14251764 46 18186521008171714252
15131766 46 12758591706985925654
15183329 4 18342177752276514042
15849732 13 16226051106633124990
17844677 252 17917436431656996081
18681886 176 18131342038580212625
200 152 17131835357052978232
20771845 171 15647055924056323578
21150785 3 16950566596852699524
21267235 1 18059860566553903677
22224240 67 17749389282396692291
22956985 138 16518473770039521930
23035841 295 18273214205607693661
23402539 116 18201718444420707604
23536379 177 17775287148975336048
23559900 14 18339357595029673736
23569943 247 18121503449564016082
23622692 88 16732989738859822094
3004659 81 18343581841631372672
3545911 37 18060700589110934661
4073 2 18339642360241359882
4325135 7 18060700593780325069
59755656 215 18333449824448184526
59755656 520 18186797006754418811
7495541 125 16199862973010651193

>  <PUBCHEM_SHAPE_MULTIPOLES>  (1) 
461.42
18.93
1.65
1.34
0.05
0.98
0.18
-0.21
-4.65
0
0.98
0
0.61
0

>  <PUBCHEM_SHAPE_SELFOVERLAP>  (1) 
962.37

>  <PUBCHEM_SHAPE_VOLUME>  (1) 
262.8

>  <PUBCHEM_COORDINATE_TYPE>  (1) 
2
5
10

$$$$
