13483
     RDKit          3D

 24 25  0  0  0  0  0  0  0  0999 V2000
    2.6592    0.0014   -2.4243 Cl  0  0  0  0  0  0  0  0  0  0  0  0
   -0.7339    0.0026   -0.4716 O   0  0  0  0  0  0  0  0  0  0  0  0
   -0.0393   -0.9530   -2.4423 O   0  0  0  0  0  0  0  0  0  0  0  0
   -4.3803   -0.1467    0.0460 N   0  0  0  0  0  0  0  0  0  0  0  0
   -2.9796    0.1569    0.3375 C   0  0  0  0  0  0  0  0  0  0  0  0
    1.6318   -0.0243   -0.8953 C   0  0  0  0  0  0  0  0  0  0  0  0
   -2.0798   -0.3277   -0.7881 C   0  0  0  0  0  0  0  0  0  0  0  0
   -4.5665   -1.5873   -0.1234 C   0  0  0  0  0  0  0  0  0  0  0  0
   -5.2451    0.3587    1.1116 C   0  0  0  0  0  0  0  0  0  0  0  0
    1.6456    1.3802   -0.2601 C   0  0  0  0  0  0  0  0  0  0  0  0
    2.2391   -1.1402   -0.0251 C   0  0  0  0  0  0  0  0  0  0  0  0
    0.2131   -0.3693   -1.3942 C   0  0  0  0  0  0  0  0  0  0  0  0
   -6.0044   -1.9159   -0.4873 C   0  0  0  0  0  0  0  0  0  0  0  0
   -5.0648    1.8551    1.3017 C   0  0  0  0  0  0  0  0  0  0  0  0
    1.5689    1.4741    1.1052 C   0  0  0  0  0  0  0  0  0  0  0  0
    3.5523   -1.0258    0.3535 C   0  0  0  0  0  0  0  0  0  0  0  0
    1.7344    2.4662   -1.0917 C   0  0  0  0  0  0  0  0  0  0  0  0
    1.4380   -2.1950    0.3301 C   0  0  0  0  0  0  0  0  0  0  0  0
    1.5817    2.7449    1.6800 C   0  0  0  0  0  0  0  0  0  0  0  0
    4.1025   -2.0364    1.1419 C   0  0  0  0  0  0  0  0  0  0  0  0
    1.7473    3.7370   -0.5166 C   0  0  0  0  0  0  0  0  0  0  0  0
    1.9883   -3.2055    1.1187 C   0  0  0  0  0  0  0  0  0  0  0  0
    1.6709    3.8762    0.8693 C   0  0  0  0  0  0  0  0  0  0  0  0
    3.3206   -3.1261    1.5245 C   0  0  0  0  0  0  0  0  0  0  0  0
  1  6  1  0
  2  7  1  0
  2 12  1  0
  3 12  2  0
  4  5  1  0
  4  8  1  0
  4  9  1  0
  5  7  1  0
  6 10  1  0
  6 11  1  0
  6 12  1  0
  8 13  1  0
  9 14  1  0
 10 15  2  0
 10 17  1  0
 11 16  2  0
 11 18  1  0
 15 19  1  0
 16 20  1  0
 17 21  2  0
 18 22  2  0
 19 23  2  0
 20 24  2  0
 21 23  1  0
 22 24  1  0
M  END
>  <PUBCHEM_COMPOUND_CID>  (1) 
13483

>  <PUBCHEM_CONFORMER_RMSD>  (1) 
1

>  <PUBCHEM_CONFORMER_DIVERSEORDER>  (1) 
1
30
51
18
55
13
7
38
22
49
21
53
23
59
43
52
54
35
58
16
31
44
6
10
65
28
62
69
67
36
70
34
46
9
61
29
63
39
25
72
50
2
64
68
14
33
56
47
48
60
3
11
15
5
41
17
27
32
19
42
57
66
45
26
20
24
4
71
40
12
37
8

>  <PUBCHEM_MMFF94_PARTIAL_CHARGES>  (1) 
32
1 -0.29
10 -0.14
11 -0.14
12 0.66
15 -0.15
16 -0.15
17 -0.15
18 -0.15
19 -0.15
2 -0.43
20 -0.15
21 -0.15
22 -0.15
23 -0.15
24 -0.15
3 -0.57
39 0.15
4 -0.81
40 0.15
41 0.15
42 0.15
43 0.15
44 0.15
45 0.15
46 0.15
47 0.15
48 0.15
5 0.27
6 0.64
7 0.28
8 0.27
9 0.27

>  <PUBCHEM_EFFECTIVE_ROTOR_COUNT>  (1) 
9

>  <PUBCHEM_PHARMACOPHORE_FEATURES>  (1) 
4
1 3 acceptor
1 4 cation
6 10 15 17 19 21 23 rings
6 11 16 18 20 22 24 rings

>  <PUBCHEM_HEAVY_ATOM_COUNT>  (1) 
24

>  <PUBCHEM_ATOM_DEF_STEREO_COUNT>  (1) 
0

>  <PUBCHEM_ATOM_UDEF_STEREO_COUNT>  (1) 
0

>  <PUBCHEM_BOND_DEF_STEREO_COUNT>  (1) 
0

>  <PUBCHEM_BOND_UDEF_STEREO_COUNT>  (1) 
0

>  <PUBCHEM_ISOTOPIC_ATOM_COUNT>  (1) 
0

>  <PUBCHEM_COMPONENT_COUNT>  (1) 
1

>  <PUBCHEM_CACTVS_TAUTO_COUNT>  (1) 
1

>  <PUBCHEM_CONFORMER_ID>  (1) 
000034AB00000001

>  <PUBCHEM_MMFF94_ENERGY>  (1) 
70.5134

>  <PUBCHEM_FEATURE_SELFOVERLAP>  (1) 
20.297

>  <PUBCHEM_SHAPE_FINGERPRINT>  (1) 
10366900 7 18187938312787547375
11405975 8 18411422800466698217
12107183 9 18194968435933657777
12403259 118 17846498124119526837
12633257 1 18271253707935746505
13004483 165 17903067842027379322
13103583 49 18268990886808803051
13134695 92 18265313045951353860
13533116 47 18334294310352059507
13583140 156 18337095827087160943
13965767 371 17703493455066420096
14950920 106 18194148324966058139
14955137 171 18131072628034917110
15238133 3 18267881479549931481
15420108 30 17702647982348981588
17809404 112 14907896021470686289
17868525 174 18336544894304995097
17980427 23 17202459208791414100
17980427 26 18266171919367760620
18681886 176 17632307803544791716
19078846 21 18342463586597414309
20775530 9 17244417491583622386
21033648 29 16342852123635469307
2255824 54 18338239361501823694
23558518 356 17691964186743582222
23559900 14 17894911884200912567
345986 75 17826224091043172826
394222 165 18129383880779043240
5104073 3 18271254915132735227
58260988 114 17106216495555720034
5895379 119 16987461736146962729
6086070 43 18340759361234357133
6442390 28 17758120680036415490
67856867 119 18341326786564533027
6786 2 17683259314716740692
7097593 13 18339357474976272079
8509985 295 18267028250126727393
9841814 1 18341057349616235934
9999458 23 18192429886443413356

>  <PUBCHEM_SHAPE_MULTIPOLES>  (1) 
479.06
9.91
4.42
1.85
21.55
2.46
0.69
-4.8
-2.73
-4.52
-1.99
-1.07
0.04
-2.1

>  <PUBCHEM_SHAPE_SELFOVERLAP>  (1) 
992.519

>  <PUBCHEM_SHAPE_VOLUME>  (1) 
274.5

>  <PUBCHEM_COORDINATE_TYPE>  (1) 
2
5
10

$$$$
