13513
     RDKit          3D

  6  5  0  0  0  0  0  0  0  0999 V2000
   -1.3355   -1.4165    0.0844 Cl  0  0  0  0  0  0  0  0  0  0  0  0
    2.0462   -0.1226    0.0086 O   0  0  0  0  0  0  0  0  0  0  0  0
   -0.3768    0.0927    0.0061 C   0  0  0  0  0  0  0  0  0  0  0  0
   -1.0525    1.0723   -0.9486 C   0  0  0  0  0  0  0  0  0  0  0  0
   -0.2549    0.6851    1.4068 C   0  0  0  0  0  0  0  0  0  0  0  0
    0.9735   -0.3110   -0.5572 C   0  0  0  0  0  0  0  0  0  0  0  0
  1  3  1  0
  2  6  2  0
  3  4  1  0
  3  5  1  0
  3  6  1  0
M  END
>  <PUBCHEM_COMPOUND_CID>  (1) 
13513

>  <PUBCHEM_CONFORMER_RMSD>  (1) 
0.4

>  <PUBCHEM_CONFORMER_DIVERSEORDER>  (1) 
1
3
2

>  <PUBCHEM_MMFF94_PARTIAL_CHARGES>  (1) 
5
1 -0.29
13 0.06
2 -0.57
3 0.35
6 0.45

>  <PUBCHEM_EFFECTIVE_ROTOR_COUNT>  (1) 
1

>  <PUBCHEM_PHARMACOPHORE_FEATURES>  (1) 
2
1 2 acceptor
3 3 4 5 hydrophobe

>  <PUBCHEM_HEAVY_ATOM_COUNT>  (1) 
6

>  <PUBCHEM_ATOM_DEF_STEREO_COUNT>  (1) 
0

>  <PUBCHEM_ATOM_UDEF_STEREO_COUNT>  (1) 
0

>  <PUBCHEM_BOND_DEF_STEREO_COUNT>  (1) 
0

>  <PUBCHEM_BOND_UDEF_STEREO_COUNT>  (1) 
0

>  <PUBCHEM_ISOTOPIC_ATOM_COUNT>  (1) 
0

>  <PUBCHEM_COMPONENT_COUNT>  (1) 
1

>  <PUBCHEM_CACTVS_TAUTO_COUNT>  (1) 
1

>  <PUBCHEM_CONFORMER_ID>  (1) 
000034C900000001

>  <PUBCHEM_MMFF94_ENERGY>  (1) 
9.4789

>  <PUBCHEM_FEATURE_SELFOVERLAP>  (1) 
10.148

>  <PUBCHEM_SHAPE_FINGERPRINT>  (1) 
137420 1 8995711196497971144
139733 1 9078578965569528327
16714656 1 18187080646394029703
20096714 4 16879627060027117636
21040471 1 17971746679624438693
24536 1 17917157087326273214
29004967 10 17680157566122566059
5943 1 14619658119865955713

>  <PUBCHEM_SHAPE_MULTIPOLES>  (1) 
119.48
1.84
1.28
1.16
0.79
0.12
-0.32
0.51
0.2
-0.63
0.1
-0.14
-0.39
0.2

>  <PUBCHEM_SHAPE_SELFOVERLAP>  (1) 
208.239

>  <PUBCHEM_SHAPE_VOLUME>  (1) 
80.6

>  <PUBCHEM_COORDINATE_TYPE>  (1) 
2
5
10

$$$$
