13518
     RDKit          3D

 20 19  0  0  0  0  0  0  0  0999 V2000
    1.7333    1.4126    1.3634 F   0  0  0  0  0  0  0  0  0  0  0  0
    2.8032    1.1492   -0.5082 F   0  0  0  0  0  0  0  0  0  0  0  0
    1.0231    2.3822   -0.4560 F   0  0  0  0  0  0  0  0  0  0  0  0
    0.9555   -2.3754   -0.3963 F   0  0  0  0  0  0  0  0  0  0  0  0
    2.7758   -1.1916   -0.4844 F   0  0  0  0  0  0  0  0  0  0  0  0
    1.7053   -1.3776    1.3943 F   0  0  0  0  0  0  0  0  0  0  0  0
   -0.9525   -2.3765    0.4093 F   0  0  0  0  0  0  0  0  0  0  0  0
   -1.6554   -1.3971   -1.3952 F   0  0  0  0  0  0  0  0  0  0  0  0
   -2.7991   -1.2133    0.4436 F   0  0  0  0  0  0  0  0  0  0  0  0
   -1.7546    1.4079   -1.3589 F   0  0  0  0  0  0  0  0  0  0  0  0
   -0.9870    2.3731    0.4221 F   0  0  0  0  0  0  0  0  0  0  0  0
   -2.8074    1.1939    0.5392 F   0  0  0  0  0  0  0  0  0  0  0  0
    0.6081    0.0072   -1.7302 O   0  0  0  0  0  0  0  0  0  0  0  0
   -0.6035   -0.0046    1.7363 O   0  0  0  0  0  0  0  0  0  0  0  0
    0.7224    0.0096   -0.2938 C   0  0  0  0  0  0  0  0  0  0  0  0
   -0.7393    0.0075    0.3012 C   0  0  0  0  0  0  0  0  0  0  0  0
    1.5653    1.2480    0.0351 C   0  0  0  0  0  0  0  0  0  0  0  0
    1.5365   -1.2456    0.0606 C   0  0  0  0  0  0  0  0  0  0  0  0
   -1.5442   -1.2537   -0.0523 C   0  0  0  0  0  0  0  0  0  0  0  0
   -1.5857    1.2440   -0.0299 C   0  0  0  0  0  0  0  0  0  0  0  0
  1 17  1  0
  2 17  1  0
  3 17  1  0
  4 18  1  0
  5 18  1  0
  6 18  1  0
  7 19  1  0
  8 19  1  0
  9 19  1  0
 10 20  1  0
 11 20  1  0
 12 20  1  0
 13 15  1  0
 14 16  1  0
 15 16  1  0
 15 17  1  0
 15 18  1  0
 16 19  1  0
 16 20  1  0
M  END
>  <PUBCHEM_COMPOUND_CID>  (1) 
13518

>  <PUBCHEM_CONFORMER_RMSD>  (1) 
0.8

>  <PUBCHEM_CONFORMER_DIVERSEORDER>  (1) 
1
3
2

>  <PUBCHEM_MMFF94_PARTIAL_CHARGES>  (1) 
22
1 -0.34
10 -0.34
11 -0.34
12 -0.34
13 -0.68
14 -0.68
15 0.28
16 0.28
17 1.02
18 1.02
19 1.02
2 -0.34
20 1.02
21 0.4
22 0.4
3 -0.34
4 -0.34
5 -0.34
6 -0.34
7 -0.34
8 -0.34
9 -0.34

>  <PUBCHEM_EFFECTIVE_ROTOR_COUNT>  (1) 
5

>  <PUBCHEM_PHARMACOPHORE_FEATURES>  (1) 
4
1 13 acceptor
1 13 donor
1 14 acceptor
1 14 donor

>  <PUBCHEM_HEAVY_ATOM_COUNT>  (1) 
20

>  <PUBCHEM_ATOM_DEF_STEREO_COUNT>  (1) 
0

>  <PUBCHEM_ATOM_UDEF_STEREO_COUNT>  (1) 
0

>  <PUBCHEM_BOND_DEF_STEREO_COUNT>  (1) 
0

>  <PUBCHEM_BOND_UDEF_STEREO_COUNT>  (1) 
0

>  <PUBCHEM_ISOTOPIC_ATOM_COUNT>  (1) 
0

>  <PUBCHEM_COMPONENT_COUNT>  (1) 
1

>  <PUBCHEM_CACTVS_TAUTO_COUNT>  (1) 
1

>  <PUBCHEM_CONFORMER_ID>  (1) 
000034CE00000001

>  <PUBCHEM_MMFF94_ENERGY>  (1) 
47.2823

>  <PUBCHEM_FEATURE_SELFOVERLAP>  (1) 
20.298

>  <PUBCHEM_SHAPE_FINGERPRINT>  (1) 
10863032 1 18413395336283350125
10967382 1 18410863161078383043
12423570 1 15450278948020656015
12524768 44 18339918199751148381
13140716 1 18338793425130980026
13172582 1 17977378339537653707
13299463 15 18269566094461535340
13380536 237 18266713888068427457
144361 1 18059584610631091846
14614273 12 18262507229727044997
15775835 57 18338533983310273025
16945 1 18410572885639823367
20511035 2 18201431467527327468
20525323 117 18198049472897512873
21501502 16 18410577287981308257
2334 1 18410289241704628231
23419403 2 16755704578993931904
23559900 14 18198353867001760238
241688 4 18123487221515234760
2748010 2 18410572885650385988
353137 74 18191579955058907983
5084963 1 17985560089334017192
528886 8 18050568744222050947
589210 1 18410855460128233255

>  <PUBCHEM_SHAPE_MULTIPOLES>  (1) 
312.57
3.26
2.47
1.22
0.02
0
0
-0.06
0
0.01
0
0
0
-0.02

>  <PUBCHEM_SHAPE_SELFOVERLAP>  (1) 
671.292

>  <PUBCHEM_SHAPE_VOLUME>  (1) 
170.9

>  <PUBCHEM_COORDINATE_TYPE>  (1) 
2
5
10

$$$$
