13516
     RDKit          3D

  7  6  0  0  1  0  0  0  0  0999 V2000
    0.7628    0.1093   -0.0869 S   0  0  0  0  0  0  0  0  0  0  0  0
   -1.5720   -1.2106   -0.0268 O   0  0  0  0  0  0  0  0  0  0  0  0
    1.3406   -1.1640    0.7514 O   0  0  0  0  0  0  0  0  0  0  0  0
    1.3331    1.3237    0.4589 O   0  0  0  0  0  0  0  0  0  0  0  0
    0.8312   -0.2016   -1.5004 O   0  0  0  0  0  0  0  0  0  0  0  0
   -0.9429   -0.0239    0.4446 C   0  0  0  0  0  0  0  0  0  0  0  0
   -1.7528    1.1670   -0.0408 C   0  0  0  0  0  0  0  0  0  0  0  0
  1  3  1  0
  1  4  2  0
  1  5  2  0
  1  6  1  0
  2  6  1  0
  6  7  1  0
M  END
>  <PUBCHEM_COMPOUND_CID>  (1) 
13516

>  <PUBCHEM_CONFORMER_RMSD>  (1) 
0.4

>  <PUBCHEM_CONFORMER_DIVERSEORDER>  (1) 
2
1

>  <PUBCHEM_MMFF94_PARTIAL_CHARGES>  (1) 
8
1 1.38
12 0.4
13 0.5
2 -0.68
3 -0.68
4 -0.65
5 -0.65
6 0.39

>  <PUBCHEM_EFFECTIVE_ROTOR_COUNT>  (1) 
1

>  <PUBCHEM_PHARMACOPHORE_FEATURES>  (1) 
6
1 2 acceptor
1 2 donor
1 3 acceptor
1 4 acceptor
1 5 acceptor
4 1 3 4 5 anion

>  <PUBCHEM_HEAVY_ATOM_COUNT>  (1) 
7

>  <PUBCHEM_ATOM_DEF_STEREO_COUNT>  (1) 
0

>  <PUBCHEM_ATOM_UDEF_STEREO_COUNT>  (1) 
1

>  <PUBCHEM_BOND_DEF_STEREO_COUNT>  (1) 
0

>  <PUBCHEM_BOND_UDEF_STEREO_COUNT>  (1) 
0

>  <PUBCHEM_ISOTOPIC_ATOM_COUNT>  (1) 
0

>  <PUBCHEM_COMPONENT_COUNT>  (1) 
1

>  <PUBCHEM_CACTVS_TAUTO_COUNT>  (1) 
1

>  <PUBCHEM_CONFORMER_ID>  (1) 
000034CC00000002

>  <PUBCHEM_MMFF94_ENERGY>  (1) 
3.056

>  <PUBCHEM_FEATURE_SELFOVERLAP>  (1) 
30.503

>  <PUBCHEM_SHAPE_FINGERPRINT>  (1) 
137420 1 12697113776125721580
20096714 4 18337675217684864905
21040471 1 18263651662591680497
24536 1 17417821608012259537
29004967 10 17202230467618121590
5943 1 14757943529935272756

>  <PUBCHEM_SHAPE_MULTIPOLES>  (1) 
124.43
2.14
1.33
0.96
0.57
0.02
0.31
0.14
-0.12
0.1
-0.19
-0.34
-0.05
-0.01

>  <PUBCHEM_SHAPE_SELFOVERLAP>  (1) 
216.553

>  <PUBCHEM_SHAPE_VOLUME>  (1) 
82.7

>  <PUBCHEM_COORDINATE_TYPE>  (1) 
2
5
10

$$$$
