13521
     RDKit          3D

 14 13  0  0  0  0  0  0  0  0999 V2000
    0.4161    0.0042   -0.0109 Si  0  0  0  0  0  4  0  0  0  0  0  0
    1.7303    0.0153    1.0325 O   0  0  0  0  0  0  0  0  0  0  0  0
    0.4676    1.3704   -0.9821 O   0  0  0  0  0  0  0  0  0  0  0  0
    0.5143   -1.3592   -0.9835 O   0  0  0  0  0  0  0  0  0  0  0  0
   -4.9173   -0.0345    0.2825 N   0  0  0  0  0  0  0  0  0  0  0  0
   -1.1724   -0.0345    0.9914 C   0  0  0  0  0  0  0  0  0  0  0  0
   -2.4676   -0.0477    0.1705 C   0  0  0  0  0  0  0  0  0  0  0  0
   -3.6965   -0.0302    1.0800 C   0  0  0  0  0  0  0  0  0  0  0  0
    3.0456    0.0439    0.4962 C   0  0  0  0  0  0  0  0  0  0  0  0
    0.4212    2.6578   -0.3842 C   0  0  0  0  0  0  0  0  0  0  0  0
    0.5196   -2.6469   -0.3844 C   0  0  0  0  0  0  0  0  0  0  0  0
    4.0426    0.0485    1.6354 C   0  0  0  0  0  0  0  0  0  0  0  0
    0.4821    3.7091   -1.4718 C   0  0  0  0  0  0  0  0  0  0  0  0
    0.6145   -3.6961   -1.4716 C   0  0  0  0  0  0  0  0  0  0  0  0
  1  2  1  0
  1  3  1  0
  1  4  1  0
  1  6  1  0
  2  9  1  0
  3 10  1  0
  4 11  1  0
  5  8  1  0
  6  7  1  0
  7  8  1  0
  9 12  1  0
 10 13  1  0
 11 14  1  0
M  END
>  <PUBCHEM_COMPOUND_CID>  (1) 
13521

>  <PUBCHEM_CONFORMER_RMSD>  (1) 
0.8

>  <PUBCHEM_CONFORMER_DIVERSEORDER>  (1) 
1
97
67
78
43
73
98
58
27
88
86
72
54
19
76
3
95
41
14
68
94
51
46
10
24
2
62
66
57
42
25
16
92
69
32
8
81
63
21
65
9
89
26
23
30
87
15
20
93
91
79
13
35
31
12
82
34
22
96
77
4
29
33
74
90
11
17
53
6
47
5
64
45
85
61
75
7
70
83
59
80
60
28
55
84
18
52
38
49
40
50
36
37
39
48
56
71
44

>  <PUBCHEM_MMFF94_PARTIAL_CHARGES>  (1) 
12
1 0.97
10 0.28
11 0.28
2 -0.58
27 0.36
28 0.36
3 -0.58
4 -0.58
5 -0.99
6 -0.08
8 0.27
9 0.28

>  <PUBCHEM_EFFECTIVE_ROTOR_COUNT>  (1) 
9

>  <PUBCHEM_PHARMACOPHORE_FEATURES>  (1) 
2
1 5 cation
1 5 donor

>  <PUBCHEM_HEAVY_ATOM_COUNT>  (1) 
14

>  <PUBCHEM_ATOM_DEF_STEREO_COUNT>  (1) 
0

>  <PUBCHEM_ATOM_UDEF_STEREO_COUNT>  (1) 
0

>  <PUBCHEM_BOND_DEF_STEREO_COUNT>  (1) 
0

>  <PUBCHEM_BOND_UDEF_STEREO_COUNT>  (1) 
0

>  <PUBCHEM_ISOTOPIC_ATOM_COUNT>  (1) 
0

>  <PUBCHEM_COMPONENT_COUNT>  (1) 
1

>  <PUBCHEM_CACTVS_TAUTO_COUNT>  (1) 
1

>  <PUBCHEM_CONFORMER_ID>  (1) 
000034D100000001

>  <PUBCHEM_MMFF94_ENERGY>  (1) 
1.1514

>  <PUBCHEM_FEATURE_SELFOVERLAP>  (1) 
10.148

>  <PUBCHEM_SHAPE_FINGERPRINT>  (1) 
10219947 1 18410013238569000489
10756046 70 18191583262378976500
13134695 92 17968370242830387949
13380536 167 17762335125417509854
14178342 30 18342752805753730899
14943834 7 17689430911789623052
14993402 34 18338806714050047780
15502708 68 18130785603649489882
17041 49 18113627776622716585
18380122 1 18267016150929294578
20388701 513 17970908856191363969
20511035 2 17826527844015058713
20600515 1 17458634371433476373
20671657 1 17974857477303684437
20711985 344 17394467805155751723
20871998 184 18264473010826223764
21524375 3 17397575441628128997
23402539 116 18335124381036731977
23419403 2 17694780718700544302
23557571 272 17970916548572217109
23558518 356 17397801515679186188
2748010 2 18049168774167954093
3060560 45 18267041590126155837
3250762 1 17690837861471407516
68419 9 17547573033960028164
6992083 37 18195229230136240506
81228 2 17755880618527177625
9999458 23 17703782647951422137

>  <PUBCHEM_SHAPE_MULTIPOLES>  (1) 
283.74
5.63
3.84
1.5
4.99
0.06
0.05
-0.08
-3.89
-1.5
3.55
-0.71
0.01
0.12

>  <PUBCHEM_SHAPE_SELFOVERLAP>  (1) 
504.733

>  <PUBCHEM_SHAPE_VOLUME>  (1) 
184.9

>  <PUBCHEM_COORDINATE_TYPE>  (1) 
2
5
10

$$$$
