1352
     RDKit          3D

 20 22  0  0  1  0  0  0  0  0999 V2000
   -0.4959   -1.0231   -0.2773 S   0  0  0  0  0  0  0  0  0  0  0  0
   -0.4830   -1.6249   -1.5942 O   0  0  0  0  0  0  0  0  0  0  0  0
   -0.2358   -1.7928    0.9206 O   0  0  0  0  0  0  0  0  0  0  0  0
   -1.9664   -0.1662   -0.0854 N   0  0  0  0  0  0  0  0  0  0  0  0
   -4.5152    0.7809    0.8377 N   0  0  0  0  0  0  0  0  0  0  0  0
    4.8380   -0.7939    0.4720 N   0  0  0  0  0  0  0  0  0  0  0  0
   -4.4131   -0.0148   -0.3925 C   0  0  0  0  0  0  0  0  0  0  0  0
   -3.2077   -0.9600   -0.3240 C   0  0  0  0  0  0  0  0  0  0  0  0
   -2.0730    0.6542    1.1547 C   0  0  0  0  0  0  0  0  0  0  0  0
   -3.2968    1.5596    1.0606 C   0  0  0  0  0  0  0  0  0  0  0  0
   -5.7048   -0.8064   -0.5845 C   0  0  0  0  0  0  0  0  0  0  0  0
    0.8264    0.1816   -0.3114 C   0  0  0  0  0  0  0  0  0  0  0  0
    2.1408   -0.1753   -0.0474 C   0  0  0  0  0  0  0  0  0  0  0  0
    0.4467    1.4750   -0.6151 C   0  0  0  0  0  0  0  0  0  0  0  0
    3.1233    0.8352   -0.0940 C   0  0  0  0  0  0  0  0  0  0  0  0
    1.4200    2.4704   -0.6600 C   0  0  0  0  0  0  0  0  0  0  0  0
    2.5294   -1.4842    0.2603 C   0  0  0  0  0  0  0  0  0  0  0  0
    2.7538    2.1552   -0.4010 C   0  0  0  0  0  0  0  0  0  0  0  0
    4.4426    0.4642    0.1734 C   0  0  0  0  0  0  0  0  0  0  0  0
    3.8706   -1.7349    0.5075 C   0  0  0  0  0  0  0  0  0  0  0  0
  1  2  2  0
  1  3  2  0
  1  4  1  0
  1 12  1  0
  4  8  1  0
  4  9  1  0
  5  7  1  0
  5 10  1  0
  6 19  2  0
  6 20  1  0
  7  8  1  0
  7 11  1  0
  9 10  1  0
 12 13  1  0
 12 14  2  0
 13 15  2  0
 13 17  1  0
 14 16  1  0
 15 18  1  0
 15 19  1  0
 16 18  2  0
 17 20  2  0
M  END
>  <PUBCHEM_COMPOUND_CID>  (1) 
1352

>  <PUBCHEM_CONFORMER_RMSD>  (1) 
0.6

>  <PUBCHEM_CONFORMER_DIVERSEORDER>  (1) 
2
4
44
1
50
35
47
24
36
30
13
18
39
48
38
49
20
32
11
42
12
25
22
15
6
27
14
46
19
16
8
3
34
41
9
7
17
40
31
21
37
43
33
5
45
29
23
10
28
26

>  <PUBCHEM_MMFF94_PARTIAL_CHARGES>  (1) 
24
1 1.45
10 0.27
12 -0.01
14 -0.15
16 -0.15
17 -0.15
18 -0.15
19 0.16
2 -0.65
20 0.16
28 0.36
3 -0.65
32 0.15
33 0.15
34 0.15
35 0.15
36 0.15
37 0.15
4 -0.85
5 -0.9
6 -0.62
7 0.27
8 0.36
9 0.36

>  <PUBCHEM_EFFECTIVE_ROTOR_COUNT>  (1) 
3.2

>  <PUBCHEM_PHARMACOPHORE_FEATURES>  (1) 
8
1 2 acceptor
1 3 acceptor
1 5 cation
1 5 donor
1 6 acceptor
6 12 13 14 15 16 18 rings
6 4 5 7 8 9 10 rings
6 6 13 15 17 19 20 rings

>  <PUBCHEM_HEAVY_ATOM_COUNT>  (1) 
20

>  <PUBCHEM_ATOM_DEF_STEREO_COUNT>  (1) 
0

>  <PUBCHEM_ATOM_UDEF_STEREO_COUNT>  (1) 
1

>  <PUBCHEM_BOND_DEF_STEREO_COUNT>  (1) 
0

>  <PUBCHEM_BOND_UDEF_STEREO_COUNT>  (1) 
0

>  <PUBCHEM_ISOTOPIC_ATOM_COUNT>  (1) 
0

>  <PUBCHEM_COMPONENT_COUNT>  (1) 
1

>  <PUBCHEM_CACTVS_TAUTO_COUNT>  (1) 
1

>  <PUBCHEM_CONFORMER_ID>  (1) 
0000054800000002

>  <PUBCHEM_MMFF94_ENERGY>  (1) 
45.556

>  <PUBCHEM_FEATURE_SELFOVERLAP>  (1) 
40.64

>  <PUBCHEM_SHAPE_FINGERPRINT>  (1) 
10062212 137 18201718470654351775
10366900 7 16877659046204217089
10688039 33 17676765383756862644
10906281 52 18261971703925363168
11471102 20 18260828215663284796
12011746 2 18334017185728346158
12107183 9 17764874589208313747
12236239 1 18272086102277191519
12251169 10 18411421695916278304
12403260 363 18411418410551562217
12507557 5 18408039607119027585
12633257 1 17895466012317849402
12670546 56 18273210910877453113
13140716 1 18190458453905653320
13533116 47 18340485663905244873
13583140 156 18041002890366436563
13862211 1 18261387802821259578
14178342 30 17976810210491989992
14251739 40 18410012121977977023
14341114 176 18408611378903795363
14573314 32 16515960381100198855
14739800 52 17631158874778358008
14790565 3 17828494896710440332
15196674 1 18409729530241294949
15442244 35 18410576175816971616
15848702 151 18341050713929057359
16945 1 18261401069938125124
17349148 13 18201721756124887783
17492 89 18341618152403534039
17862501 102 18272368668170281633
1813 80 17967821492476294734
192875 21 18342457062700587641
200 152 18342171181250532789
20028762 73 18343014497763572599
20645477 70 18186798093169544030
20715895 44 17981890744777279337
21033648 29 17168130261566198829
21267235 1 18411426102452737606
21524375 3 18342179989996367799
23184049 59 18409451366815913588
23402539 116 17775278370484124381
23557571 272 15841561773077245529
23558518 356 17462851204627003322
23559900 14 18336543931709477296
23598288 3 17842836904543960119
2748010 2 17975966575994251964
3286 77 18060131059547340353
345986 75 18118388575971089680
34797466 226 16702025335232263048
34934 24 18337669832349659668
351380 180 18407758140605728873
4409770 3 16034950118500007159
474 4 18334858358893435763
5104073 3 18337391646621494859
67856867 119 18270676592626567913
7064713 232 17988363646242368481
7832392 63 18340485694275821612
84936 182 17911237540166881960
9971528 1 18410573972862771632
9981440 41 17402322071711094424

>  <PUBCHEM_SHAPE_MULTIPOLES>  (1) 
388.76
10.13
2.18
1.01
6.75
0.57
-0.01
-1.23
-0.79
-1.37
0.14
0.54
-0.01
-1.28

>  <PUBCHEM_SHAPE_SELFOVERLAP>  (1) 
821.848

>  <PUBCHEM_SHAPE_VOLUME>  (1) 
218.3

>  <PUBCHEM_COORDINATE_TYPE>  (1) 
2
5
10

$$$$
