13539
     RDKit          3D

 10  9  0  0  1  0  0  0  0  0999 V2000
   -0.0663    0.1038   -0.1415 O   0  0  0  0  0  0  0  0  0  0  0  0
   -2.4439    1.2547    0.7183 O   0  0  0  0  0  0  0  0  0  0  0  0
    1.1760   -1.7983    0.2291 O   0  0  0  0  0  0  0  0  0  0  0  0
   -2.4613    0.2594   -0.3038 C   0  0  0  0  0  0  0  0  0  0  0  0
   -1.2714   -0.6673   -0.0897 C   0  0  0  0  0  0  0  0  0  0  0  0
   -3.7778   -0.4989   -0.2297 C   0  0  0  0  0  0  0  0  0  0  0  0
    1.0887   -0.5940    0.0347 C   0  0  0  0  0  0  0  0  0  0  0  0
    2.2500    0.3356   -0.0432 C   0  0  0  0  0  0  0  0  0  0  0  0
    2.0331    1.7979   -0.2857 C   0  0  0  0  0  0  0  0  0  0  0  0
    3.4728   -0.1929    0.1115 C   0  0  0  0  0  0  0  0  0  0  0  0
  1  5  1  0
  1  7  1  0
  2  4  1  0
  3  7  2  0
  4  5  1  0
  4  6  1  0
  7  8  1  0
  8  9  1  0
  8 10  2  0
M  END
>  <PUBCHEM_COMPOUND_CID>  (1) 
13539

>  <PUBCHEM_CONFORMER_RMSD>  (1) 
0.6

>  <PUBCHEM_CONFORMER_DIVERSEORDER>  (1) 
1
58
54
38
37
20
46
52
41
4
14
45
59
61
51
33
56
22
53
55
62
11
27
30
63
60
36
16
49
25
34
12
50
44
39
47
17
18
48
31
57
5
23
35
26
32
42
28
7
8
2
13
43
6
15
24
10
3
21
29
9
40
19

>  <PUBCHEM_MMFF94_PARTIAL_CHARGES>  (1) 
12
1 -0.43
10 -0.3
17 0.4
2 -0.68
21 0.15
22 0.15
3 -0.57
4 0.28
5 0.28
7 0.71
8 -0.12
9 0.14

>  <PUBCHEM_EFFECTIVE_ROTOR_COUNT>  (1) 
4

>  <PUBCHEM_PHARMACOPHORE_FEATURES>  (1) 
3
1 2 acceptor
1 2 donor
1 3 acceptor

>  <PUBCHEM_HEAVY_ATOM_COUNT>  (1) 
10

>  <PUBCHEM_ATOM_DEF_STEREO_COUNT>  (1) 
0

>  <PUBCHEM_ATOM_UDEF_STEREO_COUNT>  (1) 
1

>  <PUBCHEM_BOND_DEF_STEREO_COUNT>  (1) 
0

>  <PUBCHEM_BOND_UDEF_STEREO_COUNT>  (1) 
0

>  <PUBCHEM_ISOTOPIC_ATOM_COUNT>  (1) 
0

>  <PUBCHEM_COMPONENT_COUNT>  (1) 
1

>  <PUBCHEM_CACTVS_TAUTO_COUNT>  (1) 
1

>  <PUBCHEM_CONFORMER_ID>  (1) 
000034E300000001

>  <PUBCHEM_MMFF94_ENERGY>  (1) 
14.7944

>  <PUBCHEM_FEATURE_SELFOVERLAP>  (1) 
15.223

>  <PUBCHEM_SHAPE_FINGERPRINT>  (1) 
10219947 1 17603586331050420542
11062470 55 10737282446114064959
12162725 195 18412265047046693945
12897270 3 18410854386628995941
12932764 1 17240753004016229166
14144814 61 18410008806120604810
14325111 11 18409448128241780300
14390081 3 18343018904246186097
170605 34 18408322211223809106
20201158 50 18260546714637312483
21028194 46 18260547856929723669
23402655 69 18411974746233924325
23552423 10 18268994189691407335
3248919 1 18413105052550371887

>  <PUBCHEM_SHAPE_MULTIPOLES>  (1) 
188.19
6.02
1.45
0.66
2.48
0.18
-0.01
0.38
0.09
-0.59
-0.07
0.12
0.07
-0.35

>  <PUBCHEM_SHAPE_SELFOVERLAP>  (1) 
353.962

>  <PUBCHEM_SHAPE_VOLUME>  (1) 
117.7

>  <PUBCHEM_COORDINATE_TYPE>  (1) 
2
5
10

$$$$
