13534
     RDKit          3D

  9  8  0  0  1  0  0  0  0  0999 V2000
    0.1550    0.8284    0.3750 C   0  0  0  0  0  0  0  0  0  0  0  0
   -0.8592   -0.2865   -0.0299 C   0  0  0  0  0  0  0  0  0  0  0  0
    1.6096    0.5639   -0.0816 C   0  0  0  0  0  0  0  0  0  0  0  0
   -2.2391   -0.0495    0.6269 C   0  0  0  0  0  0  0  0  0  0  0  0
   -0.2621    2.2266   -0.1042 C   0  0  0  0  0  0  0  0  0  0  0  0
   -0.9929   -0.4544   -1.5483 C   0  0  0  0  0  0  0  0  0  0  0  0
    2.1877   -0.7641    0.4119 C   0  0  0  0  0  0  0  0  0  0  0  0
   -3.2490   -1.1517    0.3323 C   0  0  0  0  0  0  0  0  0  0  0  0
    3.6499   -0.9126    0.0179 C   0  0  0  0  0  0  0  0  0  0  0  0
  1  2  1  0
  1  3  1  0
  1  5  1  0
  2  4  1  0
  2  6  1  0
  3  7  1  0
  4  8  1  0
  7  9  1  0
M  END
>  <PUBCHEM_COMPOUND_CID>  (1) 
13534

>  <PUBCHEM_CONFORMER_RMSD>  (1) 
0.6

>  <PUBCHEM_CONFORMER_DIVERSEORDER>  (1) 
1
31
41
26
23
13
34
11
12
54
24
43
48
8
46
16
50
15
38
49
32
21
51
17
3
45
27
39
53
42
10
36
9
47
37
35
44
14
25
18
29
52
33
40
28
22
19
2
7
5
20
6
30
4

>  <PUBCHEM_MMFF94_PARTIAL_CHARGES>  (1) 
0

>  <PUBCHEM_EFFECTIVE_ROTOR_COUNT>  (1) 
4

>  <PUBCHEM_PHARMACOPHORE_FEATURES>  (1) 
5
1 5 hydrophobe
1 6 hydrophobe
1 8 hydrophobe
1 9 hydrophobe
5 1 2 3 4 7 hydrophobe

>  <PUBCHEM_HEAVY_ATOM_COUNT>  (1) 
9

>  <PUBCHEM_ATOM_DEF_STEREO_COUNT>  (1) 
0

>  <PUBCHEM_ATOM_UDEF_STEREO_COUNT>  (1) 
2

>  <PUBCHEM_BOND_DEF_STEREO_COUNT>  (1) 
0

>  <PUBCHEM_BOND_UDEF_STEREO_COUNT>  (1) 
0

>  <PUBCHEM_ISOTOPIC_ATOM_COUNT>  (1) 
0

>  <PUBCHEM_COMPONENT_COUNT>  (1) 
1

>  <PUBCHEM_CACTVS_TAUTO_COUNT>  (1) 
1

>  <PUBCHEM_CONFORMER_ID>  (1) 
000034DE00000001

>  <PUBCHEM_MMFF94_ENERGY>  (1) 
8.5848

>  <PUBCHEM_FEATURE_SELFOVERLAP>  (1) 
25.519

>  <PUBCHEM_SHAPE_FINGERPRINT>  (1) 
12897270 3 15068341224191335042
12932764 1 17774144726941261410
20201158 50 17967816045983425290
20711978 78 18046897453538244893
20711985 344 18044074787909275200
20871998 184 18130222636589623724
20871998 22 18271255932201311150
21028194 46 8502368949372569368
21293036 1 12540701439572669635
23211744 25 11098428121589324337
23211744 41 13326312346168360113
23552423 10 18114185220100665656
29004967 10 18262514909017631488
528862 383 18194403526620437636
59915604 170 13840275822229931462

>  <PUBCHEM_SHAPE_MULTIPOLES>  (1) 
185.22
4.85
1.62
0.98
1.79
0.99
-0.37
-3.03
0.79
-0.11
0.01
-0.36
-0.14
-0.01

>  <PUBCHEM_SHAPE_SELFOVERLAP>  (1) 
326.459

>  <PUBCHEM_SHAPE_VOLUME>  (1) 
123.9

>  <PUBCHEM_COORDINATE_TYPE>  (1) 
2
5
10

$$$$
