1354
     RDKit          3D

 14 14  0  0  0  0  0  0  0  0999 V2000
   -3.5120   -2.4369    0.1958 Cl  0  0  0  0  0  0  0  0  0  0  0  0
    0.5519    0.5563   -0.6696 N   0  0  0  0  0  0  0  0  0  0  0  0
    2.7035    0.7453   -0.0056 N   0  0  0  0  0  0  0  0  0  0  0  0
    1.0387    0.6921    1.6796 N   0  0  0  0  0  0  0  0  0  0  0  0
    4.7102   -0.3535   -0.4592 N   0  0  0  0  0  0  0  0  0  0  0  0
    2.9042   -1.6500    0.0635 N   0  0  0  0  0  0  0  0  0  0  0  0
   -0.8268    0.4577   -0.4188 C   0  0  0  0  0  0  0  0  0  0  0  0
   -1.4125   -0.7944   -0.2559 C   0  0  0  0  0  0  0  0  0  0  0  0
   -1.5983    1.6131   -0.3352 C   0  0  0  0  0  0  0  0  0  0  0  0
   -2.7815   -0.8919   -0.0071 C   0  0  0  0  0  0  0  0  0  0  0  0
   -2.9673    1.5158   -0.0865 C   0  0  0  0  0  0  0  0  0  0  0  0
   -3.5588    0.2631    0.0776 C   0  0  0  0  0  0  0  0  0  0  0  0
    1.3703    0.6531    0.3414 C   0  0  0  0  0  0  0  0  0  0  0  0
    3.3784   -0.3699   -0.1200 C   0  0  0  0  0  0  0  0  0  0  0  0
  1 10  1  0
  2  7  1  0
  2 13  2  0
  3 13  1  0
  3 14  2  0
  4 13  1  0
  5 14  1  0
  6 14  1  0
  7  8  2  0
  7  9  1  0
  8 10  1  0
  9 11  2  0
 10 12  2  0
 11 12  1  0
M  END
>  <PUBCHEM_COMPOUND_CID>  (1) 
1354

>  <PUBCHEM_CONFORMER_RMSD>  (1) 
0.6

>  <PUBCHEM_CONFORMER_DIVERSEORDER>  (1) 
1
4
6
2
3
5

>  <PUBCHEM_MMFF94_PARTIAL_CHARGES>  (1) 
24
1 -0.18
10 0.18
11 -0.15
12 -0.15
13 0.71
14 0.55
15 0.15
16 0.15
17 0.15
18 0.15
19 0.4
2 -0.63
20 0.4
21 0.4
22 0.4
23 0.4
24 0.4
3 -0.66
4 -0.85
5 -0.85
6 -0.85
7 0.18
8 -0.15
9 -0.15

>  <PUBCHEM_EFFECTIVE_ROTOR_COUNT>  (1) 
2

>  <PUBCHEM_PHARMACOPHORE_FEATURES>  (1) 
6
1 4 donor
1 5 donor
1 6 donor
4 2 3 4 13 cation
4 3 5 6 14 cation
6 7 8 9 10 11 12 rings

>  <PUBCHEM_HEAVY_ATOM_COUNT>  (1) 
14

>  <PUBCHEM_ATOM_DEF_STEREO_COUNT>  (1) 
0

>  <PUBCHEM_ATOM_UDEF_STEREO_COUNT>  (1) 
0

>  <PUBCHEM_BOND_DEF_STEREO_COUNT>  (1) 
0

>  <PUBCHEM_BOND_UDEF_STEREO_COUNT>  (1) 
0

>  <PUBCHEM_ISOTOPIC_ATOM_COUNT>  (1) 
0

>  <PUBCHEM_COMPONENT_COUNT>  (1) 
1

>  <PUBCHEM_CACTVS_TAUTO_COUNT>  (1) 
5

>  <PUBCHEM_CONFORMER_ID>  (1) 
0000054A00000001

>  <PUBCHEM_MMFF94_ENERGY>  (1) 
45.2076

>  <PUBCHEM_FEATURE_SELFOVERLAP>  (1) 
30.547

>  <PUBCHEM_SHAPE_FINGERPRINT>  (1) 
10465860 250 17988918930027079000
10616163 171 18409732871715665614
11769659 78 18408037424727040966
12032990 46 18337674238706608399
124424 183 17775281634306036073
12500047 106 18337383838692982701
12932764 1 17560514126662594677
14965852 173 18410854356537916069
15653759 3 18343861130116171881
17804303 29 18342742931285975517
17834074 16 18412265021208441918
18186145 218 15502383339456104884
19422 9 18260834825232968004
200 152 16988551412642177629
20281407 28 18411983567743179170
20281475 54 18334009476140918670
20871998 184 18271809068465645823
20871999 31 18040428906515184551
22485316 2 18335136471248370182
23175994 123 17275109413953581520
23402539 116 16660361451158352876
23559900 14 18339352067201048233
31174 14 17487329589415252961
3312278 4 18342459201467245760
449060 23 18040713696890240147
5104073 3 18413105069930598088
53748568 43 17458054941933302569
58051976 100 18409731759281517901
633830 44 16009039319747993044
7364860 26 18265616678759880876
77779 3 18410295809152911020
9709674 26 18341898450347682934

>  <PUBCHEM_SHAPE_MULTIPOLES>  (1) 
265.08
7.59
1.89
0.84
5.37
0.75
-0.25
2.72
0.41
-1.86
-0.02
0.2
-0.13
0.31

>  <PUBCHEM_SHAPE_SELFOVERLAP>  (1) 
541.563

>  <PUBCHEM_SHAPE_VOLUME>  (1) 
153.4

>  <PUBCHEM_COORDINATE_TYPE>  (1) 
2
5
10

$$$$
