13544
     RDKit          3D

  7  6  0  0  1  0  0  0  0  0999 V2000
   -0.4626   -0.3698   -0.2287 O   0  0  0  0  0  0  0  0  0  0  0  0
   -2.6950   -0.7800   -0.1675 O   0  0  0  0  0  0  0  0  0  0  0  0
   -1.7251    0.0091    0.3038 N   0  0  0  0  0  0  0  0  0  0  0  0
    0.5340    0.4988    0.3027 C   0  0  0  0  0  0  0  0  0  0  0  0
    1.9039    0.0770   -0.2330 C   0  0  0  0  0  0  0  0  0  0  0  0
    0.2027    1.9304   -0.0971 C   0  0  0  0  0  0  0  0  0  0  0  0
    2.2421   -1.3655    0.1198 C   0  0  0  0  0  0  0  0  0  0  0  0
  1  3  1  0
  1  4  1  0
  2  3  2  0
  4  5  1  0
  4  6  1  0
  5  7  1  0
M  END
>  <PUBCHEM_COMPOUND_CID>  (1) 
13544

>  <PUBCHEM_CONFORMER_RMSD>  (1) 
0.4

>  <PUBCHEM_CONFORMER_DIVERSEORDER>  (1) 
2
22
25
3
8
10
21
17
1
4
32
11
13
9
18
19
14
7
12
16
20
28
15
30
31
29
5
6
27
23
26
24

>  <PUBCHEM_MMFF94_PARTIAL_CHARGES>  (1) 
4
1 -0.09
2 -0.3
3 0.12
4 0.28

>  <PUBCHEM_EFFECTIVE_ROTOR_COUNT>  (1) 
3

>  <PUBCHEM_PHARMACOPHORE_FEATURES>  (1) 
1
1 7 hydrophobe

>  <PUBCHEM_HEAVY_ATOM_COUNT>  (1) 
7

>  <PUBCHEM_ATOM_DEF_STEREO_COUNT>  (1) 
0

>  <PUBCHEM_ATOM_UDEF_STEREO_COUNT>  (1) 
1

>  <PUBCHEM_BOND_DEF_STEREO_COUNT>  (1) 
0

>  <PUBCHEM_BOND_UDEF_STEREO_COUNT>  (1) 
0

>  <PUBCHEM_ISOTOPIC_ATOM_COUNT>  (1) 
0

>  <PUBCHEM_COMPONENT_COUNT>  (1) 
1

>  <PUBCHEM_CACTVS_TAUTO_COUNT>  (1) 
1

>  <PUBCHEM_CONFORMER_ID>  (1) 
000034E800000002

>  <PUBCHEM_MMFF94_ENERGY>  (1) 
6.6297

>  <PUBCHEM_FEATURE_SELFOVERLAP>  (1) 
5.074

>  <PUBCHEM_SHAPE_FINGERPRINT>  (1) 
139733 1 9151167649640948000
21040471 1 17329991811737364336
23552423 10 18115878395098485166
23552449 1 18123184607063297632
23552449 11 18130782403745399320
29004967 10 18335704970157113320
5460574 1 8502381022262004619

>  <PUBCHEM_SHAPE_MULTIPOLES>  (1) 
127.34
3.22
1.6
0.62
1.01
0.68
-0.01
-1.9
0.08
-0.19
0.04
-0.06
0.02
-0.11

>  <PUBCHEM_SHAPE_SELFOVERLAP>  (1) 
221.366

>  <PUBCHEM_SHAPE_VOLUME>  (1) 
85.6

>  <PUBCHEM_COORDINATE_TYPE>  (1) 
2
5
10

$$$$
