13548
     RDKit          3D

 11 10  0  0  0  0  0  0  0  0999 V2000
    0.3980   -0.1959   -0.4614 N   0  0  0  0  0  0  0  0  0  0  0  0
   -1.8255   -0.4532   -0.7019 N   0  0  0  0  0  0  0  0  0  0  0  0
   -0.6741   -2.0390    0.6285 N   0  0  0  0  0  0  0  0  0  0  0  0
   -3.7148    0.8994   -0.5015 N   0  0  0  0  0  0  0  0  0  0  0  0
   -2.2105    0.9454    1.2162 N   0  0  0  0  0  0  0  0  0  0  0  0
    2.8010    0.3356   -0.3470 C   0  0  0  0  0  0  0  0  0  0  0  0
    1.6824   -0.6226    0.0777 C   0  0  0  0  0  0  0  0  0  0  0  0
    2.5373    1.7652    0.1281 C   0  0  0  0  0  0  0  0  0  0  0  0
    4.1731   -0.1441    0.1278 C   0  0  0  0  0  0  0  0  0  0  0  0
   -0.6418   -0.9037   -0.1520 C   0  0  0  0  0  0  0  0  0  0  0  0
   -2.5251    0.4131   -0.0146 C   0  0  0  0  0  0  0  0  0  0  0  0
  1  7  1  0
  1 10  2  0
  2 10  1  0
  2 11  2  0
  3 10  1  0
  4 11  1  0
  5 11  1  0
  6  7  1  0
  6  8  1  0
  6  9  1  0
M  END
>  <PUBCHEM_COMPOUND_CID>  (1) 
13548

>  <PUBCHEM_CONFORMER_RMSD>  (1) 
0.6

>  <PUBCHEM_CONFORMER_DIVERSEORDER>  (1) 
1
9
3
5
6
8
4
7
2

>  <PUBCHEM_MMFF94_PARTIAL_CHARGES>  (1) 
14
1 -0.7
10 0.71
11 0.55
2 -0.66
21 0.4
22 0.4
23 0.4
24 0.4
25 0.4
26 0.4
3 -0.85
4 -0.85
5 -0.85
7 0.25

>  <PUBCHEM_EFFECTIVE_ROTOR_COUNT>  (1) 
3

>  <PUBCHEM_PHARMACOPHORE_FEATURES>  (1) 
6
1 3 donor
1 4 donor
1 5 donor
3 6 8 9 hydrophobe
4 1 2 3 10 cation
4 2 4 5 11 cation

>  <PUBCHEM_HEAVY_ATOM_COUNT>  (1) 
11

>  <PUBCHEM_ATOM_DEF_STEREO_COUNT>  (1) 
0

>  <PUBCHEM_ATOM_UDEF_STEREO_COUNT>  (1) 
0

>  <PUBCHEM_BOND_DEF_STEREO_COUNT>  (1) 
0

>  <PUBCHEM_BOND_UDEF_STEREO_COUNT>  (1) 
0

>  <PUBCHEM_ISOTOPIC_ATOM_COUNT>  (1) 
0

>  <PUBCHEM_COMPONENT_COUNT>  (1) 
1

>  <PUBCHEM_CACTVS_TAUTO_COUNT>  (1) 
5

>  <PUBCHEM_CONFORMER_ID>  (1) 
000034EC00000001

>  <PUBCHEM_MMFF94_ENERGY>  (1) 
28.7795

>  <PUBCHEM_FEATURE_SELFOVERLAP>  (1) 
30.547

>  <PUBCHEM_SHAPE_FINGERPRINT>  (1) 
10130415 120 18408880729430188712
10149128 111 18272376364440667136
10857977 72 16081375158715142415
12162725 195 18131915974638094156
124424 183 18342458140921527414
12932764 1 16950829401991657190
13380535 76 18412826876124706774
14325111 11 18408885156771421998
14390081 3 18271525389774923604
15775835 57 18333447625345508917
18186145 218 18270970054640223662
18511873 20 18408038511896929970
19973954 147 18194686105804650476
20281407 28 8070028852364101940
20645464 45 18335426772077217950
20653085 51 17702683080515398995
21028194 46 18410296925464463407
21293036 1 13973959909112069894
21524375 3 18411136913846508815
22485316 2 8286200535098230629
23402539 116 17774993592450742421
305870 269 18190461562723432259
3248919 1 18202006555485517246

>  <PUBCHEM_SHAPE_MULTIPOLES>  (1) 
201.47
6.51
1.52
0.81
1.64
0.1
-0.11
-2.18
0.19
0
-0.27
-0.34
-0.05
-0.04

>  <PUBCHEM_SHAPE_SELFOVERLAP>  (1) 
378.894

>  <PUBCHEM_SHAPE_VOLUME>  (1) 
121.3

>  <PUBCHEM_COORDINATE_TYPE>  (1) 
2
5
10

$$$$
