13562
     RDKit          3D

  7  6  0  0  0  0  0  0  0  0999 V2000
    3.2961    0.3558   -0.0151 O   0  0  0  0  0  0  0  0  0  0  0  0
   -1.7175    1.3140   -0.0129 O   0  0  0  0  0  0  0  0  0  0  0  0
   -2.7310   -0.7489   -0.0179 N   0  0  0  0  0  0  0  0  0  0  0  0
    0.9054    0.2252    0.0442 C   0  0  0  0  0  0  0  0  0  0  0  0
   -0.3259   -0.6745    0.0204 C   0  0  0  0  0  0  0  0  0  0  0  0
    2.2096   -0.5607   -0.0222 C   0  0  0  0  0  0  0  0  0  0  0  0
   -1.6368    0.0893    0.0034 C   0  0  0  0  0  0  0  0  0  0  0  0
  1  6  1  0
  2  7  2  0
  3  7  1  0
  4  5  1  0
  4  6  1  0
  5  7  1  0
M  END
>  <PUBCHEM_COMPOUND_CID>  (1) 
13562

>  <PUBCHEM_CONFORMER_RMSD>  (1) 
0.4

>  <PUBCHEM_CONFORMER_DIVERSEORDER>  (1) 
1
25
11
26
30
18
10
31
6
20
9
15
29
17
4
19
14
24
21
28
16
23
12
3
27
13
22
7
2
8
5

>  <PUBCHEM_MMFF94_PARTIAL_CHARGES>  (1) 
9
1 -0.68
14 0.4
15 0.37
16 0.37
2 -0.57
3 -0.8
5 0.06
6 0.28
7 0.57

>  <PUBCHEM_EFFECTIVE_ROTOR_COUNT>  (1) 
3

>  <PUBCHEM_PHARMACOPHORE_FEATURES>  (1) 
4
1 1 acceptor
1 1 donor
1 2 acceptor
1 3 donor

>  <PUBCHEM_HEAVY_ATOM_COUNT>  (1) 
7

>  <PUBCHEM_ATOM_DEF_STEREO_COUNT>  (1) 
0

>  <PUBCHEM_ATOM_UDEF_STEREO_COUNT>  (1) 
0

>  <PUBCHEM_BOND_DEF_STEREO_COUNT>  (1) 
0

>  <PUBCHEM_BOND_UDEF_STEREO_COUNT>  (1) 
0

>  <PUBCHEM_ISOTOPIC_ATOM_COUNT>  (1) 
0

>  <PUBCHEM_COMPONENT_COUNT>  (1) 
1

>  <PUBCHEM_CACTVS_TAUTO_COUNT>  (1) 
2

>  <PUBCHEM_CONFORMER_ID>  (1) 
000034FA00000001

>  <PUBCHEM_MMFF94_ENERGY>  (1) 
6.1444

>  <PUBCHEM_FEATURE_SELFOVERLAP>  (1) 
20.298

>  <PUBCHEM_SHAPE_FINGERPRINT>  (1) 
12932764 1 17275094029507126110
14325111 11 18410575059178228682
14390081 3 18412542107002700744
16714656 1 18341894112514765359
23552423 10 18190183390713968986
29004967 10 16343706525494859858
5460574 1 9223232944539445866

>  <PUBCHEM_SHAPE_MULTIPOLES>  (1) 
127.34
4.46
0.99
0.58
1.85
0.14
0
0.02
-0.06
-0.39
0
0.01
-0.02
0

>  <PUBCHEM_SHAPE_SELFOVERLAP>  (1) 
228.434

>  <PUBCHEM_SHAPE_VOLUME>  (1) 
82.2

>  <PUBCHEM_COORDINATE_TYPE>  (1) 
2
5
10

$$$$
