13566
     RDKit          3D

  5  4  0  0  0  0  0  0  0  0999 V2000
   -1.6061   -0.9364    0.1961 O   0  0  0  0  0  0  0  0  0  0  0  0
   -0.1387    0.9711    0.2551 C   0  0  0  0  0  0  0  0  0  0  0  0
   -1.3649    0.3378   -0.3880 C   0  0  0  0  0  0  0  0  0  0  0  0
    1.0634    0.1484    0.0507 C   0  0  0  0  0  0  0  0  0  0  0  0
    2.0463   -0.5209   -0.1139 C   0  0  0  0  0  0  0  0  0  0  0  0
  1  3  1  0
  2  3  1  0
  2  4  1  0
  4  5  3  0
M  END
>  <PUBCHEM_COMPOUND_CID>  (1) 
13566

>  <PUBCHEM_CONFORMER_RMSD>  (1) 
0.4

>  <PUBCHEM_CONFORMER_DIVERSEORDER>  (1) 
1
3
2

>  <PUBCHEM_MMFF94_PARTIAL_CHARGES>  (1) 
7
1 -0.68
10 0.4
11 0.18
2 0.2
3 0.28
4 -0.2
5 -0.18

>  <PUBCHEM_EFFECTIVE_ROTOR_COUNT>  (1) 
1

>  <PUBCHEM_PHARMACOPHORE_FEATURES>  (1) 
3
1 1 acceptor
1 1 donor
1 5 hydrophobe

>  <PUBCHEM_HEAVY_ATOM_COUNT>  (1) 
5

>  <PUBCHEM_ATOM_DEF_STEREO_COUNT>  (1) 
0

>  <PUBCHEM_ATOM_UDEF_STEREO_COUNT>  (1) 
0

>  <PUBCHEM_BOND_DEF_STEREO_COUNT>  (1) 
0

>  <PUBCHEM_BOND_UDEF_STEREO_COUNT>  (1) 
0

>  <PUBCHEM_ISOTOPIC_ATOM_COUNT>  (1) 
0

>  <PUBCHEM_COMPONENT_COUNT>  (1) 
1

>  <PUBCHEM_CACTVS_TAUTO_COUNT>  (1) 
1

>  <PUBCHEM_CONFORMER_ID>  (1) 
000034FE00000001

>  <PUBCHEM_MMFF94_ENERGY>  (1) 
0.8382

>  <PUBCHEM_FEATURE_SELFOVERLAP>  (1) 
15.223

>  <PUBCHEM_SHAPE_FINGERPRINT>  (1) 
139733 1 8574715701851702208
16714656 1 18187929409046101165
20096714 4 9007061266158313190
24536 1 18342730785028953960
29004967 10 18201719574117977608
5460574 1 9079112267521701044
5943 1 9794924857115278117

>  <PUBCHEM_SHAPE_MULTIPOLES>  (1) 
97.03
2.51
1.01
0.65
0.57
0
-0.02
-0.67
-0.14
-0.23
0.08
-0.03
0.02
0.1

>  <PUBCHEM_SHAPE_SELFOVERLAP>  (1) 
168.394

>  <PUBCHEM_SHAPE_VOLUME>  (1) 
63.8

>  <PUBCHEM_COORDINATE_TYPE>  (1) 
2
5
10

$$$$
