13561
     RDKit          3D

 12 11  0  0  0  0  0  0  0  0999 V2000
   -0.0376   -1.4535    0.0438 O   0  0  0  0  0  0  0  0  0  0  0  0
   -2.5448   -0.2954    0.0056 C   0  0  0  0  0  0  0  0  0  0  0  0
    2.5393   -0.3214    0.0031 C   0  0  0  0  0  0  0  0  0  0  0  0
   -1.2971    0.5795    0.0769 C   0  0  0  0  0  0  0  0  0  0  0  0
    1.2935    0.5619    0.0733 C   0  0  0  0  0  0  0  0  0  0  0  0
   -3.8381    0.5244    0.0277 C   0  0  0  0  0  0  0  0  0  0  0  0
    3.8346    0.4976    0.0182 C   0  0  0  0  0  0  0  0  0  0  0  0
   -0.0092   -0.2230    0.0731 C   0  0  0  0  0  0  0  0  0  0  0  0
   -5.0676   -0.3786   -0.0742 C   0  0  0  0  0  0  0  0  0  0  0  0
    5.0962   -0.3651   -0.0663 C   0  0  0  0  0  0  0  0  0  0  0  0
   -6.3540    0.4316   -0.0917 C   0  0  0  0  0  0  0  0  0  0  0  0
    6.3851    0.4420   -0.0894 C   0  0  0  0  0  0  0  0  0  0  0  0
  1  8  2  0
  2  4  1  0
  2  6  1  0
  3  5  1  0
  3  7  1  0
  4  8  1  0
  5  8  1  0
  6  9  1  0
  7 10  1  0
  9 11  1  0
 10 12  1  0
M  END
>  <PUBCHEM_COMPOUND_CID>  (1) 
13561

>  <PUBCHEM_CONFORMER_RMSD>  (1) 
0.8

>  <PUBCHEM_CONFORMER_DIVERSEORDER>  (1) 
1
205
130
245
97
197
136
99
8
135
219
76
179
117
186
138
15
172
7
98
3
204
126
50
170
4
26
238
13
61
228
24
234
105
230
125
155
181
123
150
169
65
74
218
64
237
95
173
66
101
244
199
178
184
217
91
140
159
57
115
216
185
5
229
166
32
243
41
188
104
233
6
29
37
63
77
231
175
30
48
51
9
148
112
52
39
62
174
11
131
2
44
224
94
42
194
36
111
53
43
236
160
34
210
113
88
28
227
167
153
215
22
10
93
187
18
176
12
165
223
85
151
139
38
49
232
40
154
100
211
35
56
144
116
225
239
147
162
103
157
183
20
149
19
118
241
122
177
96
16
71
137
92
25
145
119
213
193
134
163
240
58
102
180
14
212
67
70
191
214
161
31
208
17
110
192
235
203
127
156
141
152
60
109
107
132
182
168
171
45
81
90
164
129
195
82
189
206
120
158
207
59
21
83
33
196
68
221
222
114
209
80
23
226
202
86
106
55
146
69
198
143
124
142
200
87
27
47
79
108
54
72
128
46
75
84
121
242
190
78
133
89
220
73
201

>  <PUBCHEM_MMFF94_PARTIAL_CHARGES>  (1) 
4
1 -0.57
4 0.06
5 0.06
8 0.45

>  <PUBCHEM_EFFECTIVE_ROTOR_COUNT>  (1) 
8

>  <PUBCHEM_PHARMACOPHORE_FEATURES>  (1) 
5
1 1 acceptor
1 11 hydrophobe
1 12 hydrophobe
4 2 4 6 9 hydrophobe
4 3 5 7 10 hydrophobe

>  <PUBCHEM_HEAVY_ATOM_COUNT>  (1) 
12

>  <PUBCHEM_ATOM_DEF_STEREO_COUNT>  (1) 
0

>  <PUBCHEM_ATOM_UDEF_STEREO_COUNT>  (1) 
0

>  <PUBCHEM_BOND_DEF_STEREO_COUNT>  (1) 
0

>  <PUBCHEM_BOND_UDEF_STEREO_COUNT>  (1) 
0

>  <PUBCHEM_ISOTOPIC_ATOM_COUNT>  (1) 
0

>  <PUBCHEM_COMPONENT_COUNT>  (1) 
1

>  <PUBCHEM_CACTVS_TAUTO_COUNT>  (1) 
2

>  <PUBCHEM_CONFORMER_ID>  (1) 
000034F900000001

>  <PUBCHEM_MMFF94_ENERGY>  (1) 
-1.5421

>  <PUBCHEM_FEATURE_SELFOVERLAP>  (1) 
25.374

>  <PUBCHEM_SHAPE_FINGERPRINT>  (1) 
11401426 45 18342175574442926847
12091667 2 18409167714939597753
12714333 28 18411136931047346981
13533116 47 18339637846542124426
14123238 8 18411699880779170228
1420 363 18409736161849933747
14251718 22 18410573993741398730
15048467 5 14706929549049780100
17834072 33 18131067168788462396
17834076 25 18410292514469720773
187816 3 17275106132550951626
20645477 70 18129947763226099806
20767249 13 9799691501945698084
20767249 213 17894914044437496020
23402539 116 18059851783709572549
23521765 1 18341894095129102828
366044 4 18410856568456999810
42788 4 18410855464423259012
4463277 17 18411136935126367729
8209 1 18411981364330082212

>  <PUBCHEM_SHAPE_MULTIPOLES>  (1) 
241.09
15.85
0.91
0.61
0.45
0.13
0
-1.96
0.85
-0.01
-0.01
0
-0.01
0

>  <PUBCHEM_SHAPE_SELFOVERLAP>  (1) 
432.575

>  <PUBCHEM_SHAPE_VOLUME>  (1) 
156

>  <PUBCHEM_COORDINATE_TYPE>  (1) 
2
5
10

$$$$
