13572
     RDKit          3D

  9  8  0  0  0  0  0  0  0  0999 V2000
   -2.3221    1.3955   -0.0438 O   0  0  0  0  0  0  0  0  0  0  0  0
    2.6682   -0.3237    0.0212 C   0  0  0  0  0  0  0  0  0  0  0  0
    1.2960   -1.0228   -0.0181 C   0  0  0  0  0  0  0  0  0  0  0  0
    0.1138   -0.0453   -0.0097 C   0  0  0  0  0  0  0  0  0  0  0  0
   -1.2346   -0.7660   -0.0199 C   0  0  0  0  0  0  0  0  0  0  0  0
    2.7689    0.5507    1.2737 C   0  0  0  0  0  0  0  0  0  0  0  0
    2.9281    0.5264   -1.2231 C   0  0  0  0  0  0  0  0  0  0  0  0
   -2.4315    0.1706   -0.0215 C   0  0  0  0  0  0  0  0  0  0  0  0
   -3.7866   -0.4854    0.0412 C   0  0  0  0  0  0  0  0  0  0  0  0
  1  8  2  0
  2  3  1  0
  2  6  1  0
  2  7  1  0
  3  4  1  0
  4  5  1  0
  5  8  1  0
  8  9  1  0
M  END
>  <PUBCHEM_COMPOUND_CID>  (1) 
13572

>  <PUBCHEM_CONFORMER_RMSD>  (1) 
0.6

>  <PUBCHEM_CONFORMER_DIVERSEORDER>  (1) 
1
4
6
2
8
5
7
3

>  <PUBCHEM_MMFF94_PARTIAL_CHARGES>  (1) 
4
1 -0.57
5 0.06
8 0.45
9 0.06

>  <PUBCHEM_EFFECTIVE_ROTOR_COUNT>  (1) 
4

>  <PUBCHEM_PHARMACOPHORE_FEATURES>  (1) 
3
1 1 acceptor
3 2 6 7 hydrophobe
4 2 3 4 5 hydrophobe

>  <PUBCHEM_HEAVY_ATOM_COUNT>  (1) 
9

>  <PUBCHEM_ATOM_DEF_STEREO_COUNT>  (1) 
0

>  <PUBCHEM_ATOM_UDEF_STEREO_COUNT>  (1) 
0

>  <PUBCHEM_BOND_DEF_STEREO_COUNT>  (1) 
0

>  <PUBCHEM_BOND_UDEF_STEREO_COUNT>  (1) 
0

>  <PUBCHEM_ISOTOPIC_ATOM_COUNT>  (1) 
0

>  <PUBCHEM_COMPONENT_COUNT>  (1) 
1

>  <PUBCHEM_CACTVS_TAUTO_COUNT>  (1) 
3

>  <PUBCHEM_CONFORMER_ID>  (1) 
0000350400000001

>  <PUBCHEM_MMFF94_ENERGY>  (1) 
6.6001

>  <PUBCHEM_FEATURE_SELFOVERLAP>  (1) 
15.295

>  <PUBCHEM_SHAPE_FINGERPRINT>  (1) 
10857977 72 18334292084935994737
11062470 55 14923943461880328823
12162725 195 17967816032945171948
12932741 1 17632582690326662310
12932764 1 18060697282096821615
14325111 11 18410012100550522231
14390081 3 18272646835679322097
170605 34 17313395564542571006
18186145 218 17418377978028343075
21028194 46 18342457019381454546
21293036 1 17560804350629988558
23048698 100 16805040726694638676
3248919 1 17967813838290821163

>  <PUBCHEM_SHAPE_MULTIPOLES>  (1) 
179.35
6.42
1.06
0.96
2.59
0.1
-0.02
0.62
0.06
0.21
0
-1.02
0.17
0.06

>  <PUBCHEM_SHAPE_SELFOVERLAP>  (1) 
322.473

>  <PUBCHEM_SHAPE_VOLUME>  (1) 
116.5

>  <PUBCHEM_COORDINATE_TYPE>  (1) 
2
5
10

$$$$
