13577
     RDKit          3D

  7  6  0  0  0  0  0  0  0  0999 V2000
    3.1534    0.9566   -0.1047 O   0  0  0  0  0  0  0  0  0  0  0  0
   -1.2848   -0.6207   -0.2163 C   0  0  0  0  0  0  0  0  0  0  0  0
   -2.1728    0.4861    0.3530 C   0  0  0  0  0  0  0  0  0  0  0  0
    0.1006   -0.5561    0.3579 C   0  0  0  0  0  0  0  0  0  0  0  0
   -3.5851    0.4079   -0.2057 C   0  0  0  0  0  0  0  0  0  0  0  0
    1.2050   -0.3634   -0.3780 C   0  0  0  0  0  0  0  0  0  0  0  0
    2.5838   -0.3103    0.1939 C   0  0  0  0  0  0  0  0  0  0  0  0
  1  7  1  0
  2  3  1  0
  2  4  1  0
  3  5  1  0
  4  6  2  0
  6  7  1  0
M  END
>  <PUBCHEM_COMPOUND_CID>  (1) 
13577

>  <PUBCHEM_CONFORMER_RMSD>  (1) 
0.4

>  <PUBCHEM_CONFORMER_DIVERSEORDER>  (1) 
1
8
2
7
14
5
9
10
12
6
4
3
13
11

>  <PUBCHEM_MMFF94_PARTIAL_CHARGES>  (1) 
8
1 -0.68
12 0.15
16 0.15
19 0.4
2 0.14
4 -0.29
6 -0.29
7 0.42

>  <PUBCHEM_EFFECTIVE_ROTOR_COUNT>  (1) 
3

>  <PUBCHEM_PHARMACOPHORE_FEATURES>  (1) 
3
1 1 acceptor
1 1 donor
1 5 hydrophobe

>  <PUBCHEM_HEAVY_ATOM_COUNT>  (1) 
7

>  <PUBCHEM_ATOM_DEF_STEREO_COUNT>  (1) 
0

>  <PUBCHEM_ATOM_UDEF_STEREO_COUNT>  (1) 
0

>  <PUBCHEM_BOND_DEF_STEREO_COUNT>  (1) 
0

>  <PUBCHEM_BOND_UDEF_STEREO_COUNT>  (1) 
1

>  <PUBCHEM_ISOTOPIC_ATOM_COUNT>  (1) 
0

>  <PUBCHEM_COMPONENT_COUNT>  (1) 
1

>  <PUBCHEM_CACTVS_TAUTO_COUNT>  (1) 
1

>  <PUBCHEM_CONFORMER_ID>  (1) 
0000350900000001

>  <PUBCHEM_MMFF94_ENERGY>  (1) 
-1.1732

>  <PUBCHEM_FEATURE_SELFOVERLAP>  (1) 
15.223

>  <PUBCHEM_SHAPE_FINGERPRINT>  (1) 
11062470 55 17385442107555864589
12897270 3 16056879126137849387
14325111 11 18409730651370047587
14390081 3 18412826875992435129
21293036 1 15482668000447400400
29004967 10 14418130712506965166
5460574 1 11458430132729698307

>  <PUBCHEM_SHAPE_MULTIPOLES>  (1) 
138.19
5.72
0.89
0.68
0.76
0.06
-0.01
1.72
0.25
-0.21
0.01
0.05
-0.02
-0.09

>  <PUBCHEM_SHAPE_SELFOVERLAP>  (1) 
241.822

>  <PUBCHEM_SHAPE_VOLUME>  (1) 
91.3

>  <PUBCHEM_COORDINATE_TYPE>  (1) 
2
5
10

$$$$
