13583
     RDKit          3D

 13 12  0  0  0  0  0  0  0  0999 V2000
   -7.5574   -0.4197    0.0221 N   0  0  0  0  0  0  0  0  0  0  0  0
    0.0045   -0.3515   -0.0493 C   0  0  0  0  0  0  0  0  0  0  0  0
    1.2692    0.5109   -0.0142 C   0  0  0  0  0  0  0  0  0  0  0  0
   -1.2905    0.4659   -0.0410 C   0  0  0  0  0  0  0  0  0  0  0  0
    2.5275   -0.3592    0.0481 C   0  0  0  0  0  0  0  0  0  0  0  0
   -2.5540   -0.3964   -0.0016 C   0  0  0  0  0  0  0  0  0  0  0  0
    3.8275    0.4505    0.0630 C   0  0  0  0  0  0  0  0  0  0  0  0
   -3.8168    0.4691   -0.0269 C   0  0  0  0  0  0  0  0  0  0  0  0
    5.0863   -0.4196    0.0508 C   0  0  0  0  0  0  0  0  0  0  0  0
   -5.0814   -0.3953   -0.0161 C   0  0  0  0  0  0  0  0  0  0  0  0
    6.3510    0.4384   -0.0070 C   0  0  0  0  0  0  0  0  0  0  0  0
   -6.3706    0.4269    0.0302 C   0  0  0  0  0  0  0  0  0  0  0  0
    7.6048   -0.4200   -0.0579 C   0  0  0  0  0  0  0  0  0  0  0  0
  1 12  1  0
  2  3  1  0
  2  4  1  0
  3  5  1  0
  4  6  1  0
  5  7  1  0
  6  8  1  0
  7  9  1  0
  8 10  1  0
  9 11  1  0
 10 12  1  0
 11 13  1  0
M  END
>  <PUBCHEM_COMPOUND_CID>  (1) 
13583

>  <PUBCHEM_CONFORMER_RMSD>  (1) 
1

>  <PUBCHEM_CONFORMER_DIVERSEORDER>  (1) 
1
148
3
546
30
774
256
151
640
2
291
59
197
305
372
24
164
720
28
37
843
328
732
179
224
261
249
236
829
658
807
758
95
623
820
462
763
9
561
379
25
749
247
454
47
113
431
52
846
750
716
272
70
11
27
831
124
589
94
86
806
213
42
49
792
553
208
619
699
739
162
627
159
633
57
163
459
64
303
564
218
485
460
621
320
34
803
555
495
445
105
8
68
104
96
310
389
231
376
496
478
522
17
268
409
413
226
713
194
405
715
512
93
634
830
55
282
790
446
470
434
525
269
344
710
717
743
675
284
558
801
815

>  <PUBCHEM_MMFF94_PARTIAL_CHARGES>  (1) 
4
1 -0.99
12 0.27
39 0.36
40 0.36

>  <PUBCHEM_EFFECTIVE_ROTOR_COUNT>  (1) 
10

>  <PUBCHEM_PHARMACOPHORE_FEATURES>  (1) 
3
1 1 cation
1 1 donor
1 13 hydrophobe

>  <PUBCHEM_HEAVY_ATOM_COUNT>  (1) 
13

>  <PUBCHEM_ATOM_DEF_STEREO_COUNT>  (1) 
0

>  <PUBCHEM_ATOM_UDEF_STEREO_COUNT>  (1) 
0

>  <PUBCHEM_BOND_DEF_STEREO_COUNT>  (1) 
0

>  <PUBCHEM_BOND_UDEF_STEREO_COUNT>  (1) 
0

>  <PUBCHEM_ISOTOPIC_ATOM_COUNT>  (1) 
0

>  <PUBCHEM_COMPONENT_COUNT>  (1) 
1

>  <PUBCHEM_CACTVS_TAUTO_COUNT>  (1) 
1

>  <PUBCHEM_CONFORMER_ID>  (1) 
0000350F00000001

>  <PUBCHEM_MMFF94_ENERGY>  (1) 
-7.3497

>  <PUBCHEM_FEATURE_SELFOVERLAP>  (1) 
15.223

>  <PUBCHEM_SHAPE_FINGERPRINT>  (1) 
10968037 39 18187364333605906231
12091667 2 18186802479117071729
13533116 47 18262230024438554314
14123256 10 18410293605396708227
14251764 18 18409729547347005947
14251764 46 18410575084663085411
17834076 25 18410573989446424928
18006028 8 18202563977515712057
20281389 69 18410571786645641112
20621476 8 18333448716288229830
22224240 67 15841546379887979166
23402539 116 17489863851773904613
23521765 1 18341894090839332324
33532 11 18335700508108787458
33684 2 18409165506994111227
42788 4 18410855460756000192
8209 1 18410573985151457644

>  <PUBCHEM_SHAPE_MULTIPOLES>  (1) 
262.55
22.47
0.79
0.61
0.59
0.02
0
-1.6
-0.02
-0.05
0
-0.05
0
0.01

>  <PUBCHEM_SHAPE_SELFOVERLAP>  (1) 
462.79

>  <PUBCHEM_SHAPE_VOLUME>  (1) 
171.2

>  <PUBCHEM_COORDINATE_TYPE>  (1) 
2
5
10

$$$$
