13580
     RDKit          3D

 10  9  0  0  0  0  0  0  0  0999 V2000
    4.5178    0.7568   -0.0091 O   0  0  0  0  0  0  0  0  0  0  0  0
    3.5560   -1.2994    0.0494 O   0  0  0  0  0  0  0  0  0  0  0  0
   -5.4094    0.2328    0.0459 N   0  0  0  0  0  0  0  0  0  0  0  0
   -0.4042    0.4885    0.0224 C   0  0  0  0  0  0  0  0  0  0  0  0
   -1.6547   -0.3939   -0.0425 C   0  0  0  0  0  0  0  0  0  0  0  0
    0.9361   -0.2498   -0.0335 C   0  0  0  0  0  0  0  0  0  0  0  0
   -2.9632    0.3958    0.0400 C   0  0  0  0  0  0  0  0  0  0  0  0
    2.1458    0.6843   -0.0287 C   0  0  0  0  0  0  0  0  0  0  0  0
   -4.1729   -0.5336   -0.0545 C   0  0  0  0  0  0  0  0  0  0  0  0
    3.4487   -0.0816    0.0107 C   0  0  0  0  0  0  0  0  0  0  0  0
  1 10  1  0
  2 10  2  0
  3  9  1  0
  4  5  1  0
  4  6  1  0
  5  7  1  0
  6  8  1  0
  7  9  1  0
  8 10  1  0
M  END
>  <PUBCHEM_COMPOUND_CID>  (1) 
13580

>  <PUBCHEM_CONFORMER_RMSD>  (1) 
0.6

>  <PUBCHEM_CONFORMER_DIVERSEORDER>  (1) 
1
169
49
161
24
105
170
27
176
178
37
158
8
156
107
159
31
32
139
155
44
43
160
66
149
136
177
142
53
145
120
157
96
179
3
38
172
147
111
5
166
60
154
7
183
9
113
129
148
151
46
181
122
6
30
182
57
33
80
173
18
63
55
88
13
144
48
171
164
102
28
67
175
109
58
68
168
180
10
21
153
130
119
59
26
114
104
83
42
84
47
4
89
93
184
90
163
135
133
17
165
132
152
134
15
106
162
56
16
115
74
81
140
2
110
52
36
174
39
146
143
108
22
11
141
65
61
95
123
75
150
78
131
54
103
41
29
126
124
50
70
19
101
34
73
138
79
45
125
137
14
121
82
85
23
87
112
92
99
64
12
77
72
167
116
127
86
117
25
71
62
51
40
94
91
69
128
35
118
98
76
100
97
20

>  <PUBCHEM_MMFF94_PARTIAL_CHARGES>  (1) 
9
1 -0.65
10 0.66
2 -0.57
23 0.36
24 0.36
25 0.5
3 -0.99
8 0.06
9 0.27

>  <PUBCHEM_EFFECTIVE_ROTOR_COUNT>  (1) 
6

>  <PUBCHEM_PHARMACOPHORE_FEATURES>  (1) 
6
1 1 acceptor
1 2 acceptor
1 3 cation
1 3 donor
3 1 2 10 anion
5 4 5 6 7 8 hydrophobe

>  <PUBCHEM_HEAVY_ATOM_COUNT>  (1) 
10

>  <PUBCHEM_ATOM_DEF_STEREO_COUNT>  (1) 
0

>  <PUBCHEM_ATOM_UDEF_STEREO_COUNT>  (1) 
0

>  <PUBCHEM_BOND_DEF_STEREO_COUNT>  (1) 
0

>  <PUBCHEM_BOND_UDEF_STEREO_COUNT>  (1) 
0

>  <PUBCHEM_ISOTOPIC_ATOM_COUNT>  (1) 
0

>  <PUBCHEM_COMPONENT_COUNT>  (1) 
1

>  <PUBCHEM_CACTVS_TAUTO_COUNT>  (1) 
1

>  <PUBCHEM_CONFORMER_ID>  (1) 
0000350C00000001

>  <PUBCHEM_MMFF94_ENERGY>  (1) 
-1.4606

>  <PUBCHEM_FEATURE_SELFOVERLAP>  (1) 
30.504

>  <PUBCHEM_SHAPE_FINGERPRINT>  (1) 
11062470 55 18343584048801204116
11987891 38 18411702088630133455
14123238 8 18060419127309009869
14325111 11 18410573972577766118
17834072 33 18340486780496443677
17834076 25 17632578262289057708
18342897 14 17989489627837771105
190213 19 17748829617850607061
20279233 1 17531252759678349498
20645477 70 18337953390143318526
20719005 15 18411419509862229743
22485316 2 18411697703426111871
23402539 116 18060412513481555813
42 15 18410575071899606799
42788 4 18410856564309355213
522135 26 18410575076532125734

>  <PUBCHEM_SHAPE_MULTIPOLES>  (1) 
189.08
10.62
0.92
0.59
4.85
0.12
0
0.09
0.09
-0.54
0
0.04
0
-0.05

>  <PUBCHEM_SHAPE_SELFOVERLAP>  (1) 
341.058

>  <PUBCHEM_SHAPE_VOLUME>  (1) 
121.3

>  <PUBCHEM_COORDINATE_TYPE>  (1) 
2
5
10

$$$$
