13594
     RDKit          3D

  7  7  0  0  0  0  0  0  0  0999 V2000
    2.2931   -0.0141    0.0732 O   0  0  0  0  0  0  0  0  0  0  0  0
   -1.1010   -1.2230    0.3268 C   0  0  0  0  0  0  0  0  0  0  0  0
    0.2917   -1.2901   -0.2821 C   0  0  0  0  0  0  0  0  0  0  0  0
   -1.8535    0.0223   -0.1327 C   0  0  0  0  0  0  0  0  0  0  0  0
    1.0667   -0.0174   -0.0165 C   0  0  0  0  0  0  0  0  0  0  0  0
   -1.0160    1.2603   -0.0269 C   0  0  0  0  0  0  0  0  0  0  0  0
    0.3190    1.2620    0.0581 C   0  0  0  0  0  0  0  0  0  0  0  0
  1  5  2  0
  2  3  1  0
  2  4  1  0
  3  5  1  0
  4  6  1  0
  5  7  1  0
  6  7  2  0
M  END
>  <PUBCHEM_COMPOUND_CID>  (1) 
13594

>  <PUBCHEM_CONFORMER_RMSD>  (1) 
0.4

>  <PUBCHEM_CONFORMER_DIVERSEORDER>  (1) 
1

>  <PUBCHEM_MMFF94_PARTIAL_CHARGES>  (1) 
8
1 -0.57
14 0.15
15 0.15
3 0.06
4 0.14
5 0.49
6 -0.29
7 -0.14

>  <PUBCHEM_EFFECTIVE_ROTOR_COUNT>  (1) 
0.6

>  <PUBCHEM_PHARMACOPHORE_FEATURES>  (1) 
2
1 1 acceptor
6 2 3 4 5 6 7 rings

>  <PUBCHEM_HEAVY_ATOM_COUNT>  (1) 
7

>  <PUBCHEM_ATOM_DEF_STEREO_COUNT>  (1) 
0

>  <PUBCHEM_ATOM_UDEF_STEREO_COUNT>  (1) 
0

>  <PUBCHEM_BOND_DEF_STEREO_COUNT>  (1) 
0

>  <PUBCHEM_BOND_UDEF_STEREO_COUNT>  (1) 
0

>  <PUBCHEM_ISOTOPIC_ATOM_COUNT>  (1) 
0

>  <PUBCHEM_COMPONENT_COUNT>  (1) 
1

>  <PUBCHEM_CACTVS_TAUTO_COUNT>  (1) 
5

>  <PUBCHEM_CONFORMER_ID>  (1) 
0000351A00000001

>  <PUBCHEM_MMFF94_ENERGY>  (1) 
1.7554

>  <PUBCHEM_FEATURE_SELFOVERLAP>  (1) 
10.148

>  <PUBCHEM_SHAPE_FINGERPRINT>  (1) 
16714656 1 18410860970745275964
18185500 45 16972801195719981431
20096714 4 17834959672276102981
21040471 1 18265899042583279365
23552423 10 18188217507136877174
29004967 10 18411989082439034787

>  <PUBCHEM_SHAPE_MULTIPOLES>  (1) 
138.19
2.2
1.55
0.63
0.54
0.01
0
-0.03
0.03
-0.28
0.01
-0.05
-0.03
0.09

>  <PUBCHEM_SHAPE_SELFOVERLAP>  (1) 
273.379

>  <PUBCHEM_SHAPE_VOLUME>  (1) 
81.6

>  <PUBCHEM_COORDINATE_TYPE>  (1) 
2
5
10

$$$$
