13609
     RDKit          3D

  8  8  0  0  0  0  0  0  0  0999 V2000
   -0.8835   -1.3468   -0.5917 C   0  0  0  0  0  0  0  0  0  0  0  0
    0.3192   -1.7168    0.2827 C   0  0  0  0  0  0  0  0  0  0  0  0
   -1.8941   -0.3906    0.0569 C   0  0  0  0  0  0  0  0  0  0  0  0
    1.6221   -0.9775   -0.0593 C   0  0  0  0  0  0  0  0  0  0  0  0
   -1.3178    0.8951    0.6475 C   0  0  0  0  0  0  0  0  0  0  0  0
    1.6980    0.4792    0.4040 C   0  0  0  0  0  0  0  0  0  0  0  0
   -0.4331    1.6250   -0.3149 C   0  0  0  0  0  0  0  0  0  0  0  0
    0.8891    1.4323   -0.4251 C   0  0  0  0  0  0  0  0  0  0  0  0
  1  2  1  0
  1  3  1  0
  2  4  1  0
  3  5  1  0
  4  6  1  0
  5  7  1  0
  6  8  1  0
  7  8  2  0
M  END
>  <PUBCHEM_COMPOUND_CID>  (1) 
13609

>  <PUBCHEM_CONFORMER_RMSD>  (1) 
0.4

>  <PUBCHEM_CONFORMER_DIVERSEORDER>  (1) 
1

>  <PUBCHEM_MMFF94_PARTIAL_CHARGES>  (1) 
6
21 0.15
22 0.15
5 0.14
6 0.14
7 -0.29
8 -0.29

>  <PUBCHEM_EFFECTIVE_ROTOR_COUNT>  (1) 
1.2

>  <PUBCHEM_PHARMACOPHORE_FEATURES>  (1) 
0

>  <PUBCHEM_HEAVY_ATOM_COUNT>  (1) 
8

>  <PUBCHEM_ATOM_DEF_STEREO_COUNT>  (1) 
0

>  <PUBCHEM_ATOM_UDEF_STEREO_COUNT>  (1) 
0

>  <PUBCHEM_BOND_DEF_STEREO_COUNT>  (1) 
0

>  <PUBCHEM_BOND_UDEF_STEREO_COUNT>  (1) 
1

>  <PUBCHEM_ISOTOPIC_ATOM_COUNT>  (1) 
0

>  <PUBCHEM_COMPONENT_COUNT>  (1) 
1

>  <PUBCHEM_CACTVS_TAUTO_COUNT>  (1) 
1

>  <PUBCHEM_CONFORMER_ID>  (1) 
0000352900000001

>  <PUBCHEM_MMFF94_ENERGY>  (1) 
9.0721

>  <PUBCHEM_FEATURE_SELFOVERLAP>  (1) 
0

>  <PUBCHEM_SHAPE_FINGERPRINT>  (1) 
16714656 1 18123200008583717750
18185500 45 18267581501563744951
21040471 1 18050288368604032577
21922407 69 16197579153820102640
241688 4 18410010992322275114
5084963 1 18343304729892905394
66348 1 18122341285443628727

>  <PUBCHEM_SHAPE_MULTIPOLES>  (1) 
164.64
2.2
2.07
0.78
0.01
0.05
-0.01
0.1
-0.19
0.08
0.17
-0.06
-0.03
-0.18

>  <PUBCHEM_SHAPE_SELFOVERLAP>  (1) 
311.461

>  <PUBCHEM_SHAPE_VOLUME>  (1) 
98.7

>  <PUBCHEM_COORDINATE_TYPE>  (1) 
2
5
10

$$$$
