1360
     RDKit          3D

 21 22  0  0  0  0  0  0  0  0999 V2000
   -3.5015    2.6116   -1.1237 Cl  0  0  0  0  0  0  0  0  0  0  0  0
   -2.2625    0.9062    1.0201 O   0  0  0  0  0  0  0  0  0  0  0  0
   -7.0597   -1.0055   -0.9120 O   0  0  0  0  0  0  0  0  0  0  0  0
    6.3314    0.0607   -0.2194 N   0  0  0  0  0  0  0  0  0  0  0  0
    8.1639   -1.1026    0.1757 N   0  0  0  0  0  0  0  0  0  0  0  0
    2.6253    0.9042    0.4675 C   0  0  0  0  0  0  0  0  0  0  0  0
    1.3700    0.0403    0.6065 C   0  0  0  0  0  0  0  0  0  0  0  0
    3.8727    0.0405    0.2610 C   0  0  0  0  0  0  0  0  0  0  0  0
    0.1200    0.9003    0.7788 C   0  0  0  0  0  0  0  0  0  0  0  0
    5.1430    0.8653    0.0381 C   0  0  0  0  0  0  0  0  0  0  0  0
   -1.1383    0.0494    0.8759 C   0  0  0  0  0  0  0  0  0  0  0  0
    6.7668   -0.3436   -1.4397 C   0  0  0  0  0  0  0  0  0  0  0  0
    7.1894   -0.4100    0.7222 C   0  0  0  0  0  0  0  0  0  0  0  0
   -3.4564    0.4489    0.5257 C   0  0  0  0  0  0  0  0  0  0  0  0
    7.9067   -1.0646   -1.1719 C   0  0  0  0  0  0  0  0  0  0  0  0
   -4.1336    1.1458   -0.4695 C   0  0  0  0  0  0  0  0  0  0  0  0
   -3.9790   -0.7324    1.0422 C   0  0  0  0  0  0  0  0  0  0  0  0
   -5.3466    0.6561   -0.9537 C   0  0  0  0  0  0  0  0  0  0  0  0
   -5.1923   -1.2220    0.5581 C   0  0  0  0  0  0  0  0  0  0  0  0
   -5.8761   -0.5276   -0.4398 C   0  0  0  0  0  0  0  0  0  0  0  0
   -7.5429   -2.2210   -0.3422 C   0  0  0  0  0  0  0  0  0  0  0  0
  1 16  1  0
  2 11  1  0
  2 14  1  0
  3 20  1  0
  3 21  1  0
  4 10  1  0
  4 12  1  0
  4 13  1  0
  5 13  2  0
  5 15  1  0
  6  7  1  0
  6  8  1  0
  7  9  1  0
  8 10  1  0
  9 11  1  0
 12 15  2  0
 14 16  2  0
 14 17  1  0
 16 18  1  0
 17 19  2  0
 18 20  2  0
 19 20  1  0
M  END
>  <PUBCHEM_COMPOUND_CID>  (1) 
1360

>  <PUBCHEM_CONFORMER_RMSD>  (1) 
1

>  <PUBCHEM_CONFORMER_DIVERSEORDER>  (1) 
1
57
277
31
45
110
123
245
406
399
162
197
396
84
264
81
341
385
95
338
118
53
135
124
27
140
365
178
416
279
218
312
426
152
340
189
172
109
9
377
169
248
24
217
261
147
415
315
61
153
398
356
63
145
397
161
253
388
325
78
381
370
419
425
41
170
2
304
22
211
239
3
324
229
237
187
300
102
228
79
175
174
71
44
407
205
326
271
163
294
348
301
298
97
182
200
86
67
330
20
17
435
5
422
99
247
202
296
389
267
252
379
10
46
64
402
72
214
349
363
391
6
244
155
158
165
91
424
395
13
322
16
73
413
358
58
88
69
134
142
32
327
4
130
392
51
276
409
317
310
25
132
306
108
384
166
76
149
249
250
89
183
168
146
437
181
342
410
68
372
334
12
224
231
85
251
360
180
83
75
111
115
256
203
112
34
375
299
30
80
87
90
258
387
265
429
43
15
21
219
207
14
92
210
268
74
352
129
364
28
335
227
283
139
159
421
106
18
120
344
308
215
428
23
144
221
173
198
353
351
368
127
33
100
331
193
242
209
50
164
275
293
255
329
374
117
98
432
274
191
238
35
427
11
40
188
107
263
148
393
204
201
292
116
42
309
418
126
154
77
66
222
101
7
369
347
420
380
366
367
26
337
184
65
280
333
357
414
281
37
246
234
318
138
225
212
48
190
269
29
151
54
307
150
291
38
199
343
136
382
195
119
403
185
103
216
56
36
157
282
405
288
270
297
314
305
436
104
49
94
390
125
156
160
378
434
262
167
371
52
62
39
233
176
254
278
171
430
433
96
82
137
59
206
131
8
192
93
143
60
290
70
241
316
303
243
257
208
19
177
223
386
260
105
313
114
431
133
194
319
226
47
186
400
401
266
408
113
355
311
121
412
230
332
273
141
346
213
376
320
55
423
196
404
345
220
179
122
272
289
287
236
354
362
259
328
394
321
361
383
417
284
411
323
336
339
286
235
240
302
359
350
438
373
295
232
285
128

>  <PUBCHEM_MMFF94_PARTIAL_CHARGES>  (1) 
23
1 -0.18
10 0.26
11 0.28
12 -0.3
13 0.04
14 0.08
15 0.08
16 0.18
17 -0.15
18 -0.15
19 -0.15
2 -0.36
20 0.08
21 0.28
3 -0.36
34 0.15
35 0.15
36 0.15
37 0.15
38 0.15
39 0.15
4 0.05
5 -0.57

>  <PUBCHEM_EFFECTIVE_ROTOR_COUNT>  (1) 
9

>  <PUBCHEM_PHARMACOPHORE_FEATURES>  (1) 
6
1 2 acceptor
1 3 acceptor
3 4 5 13 cation
4 6 7 8 9 hydrophobe
5 4 5 12 13 15 rings
6 14 16 17 18 19 20 rings

>  <PUBCHEM_HEAVY_ATOM_COUNT>  (1) 
21

>  <PUBCHEM_ATOM_DEF_STEREO_COUNT>  (1) 
0

>  <PUBCHEM_ATOM_UDEF_STEREO_COUNT>  (1) 
0

>  <PUBCHEM_BOND_DEF_STEREO_COUNT>  (1) 
0

>  <PUBCHEM_BOND_UDEF_STEREO_COUNT>  (1) 
0

>  <PUBCHEM_ISOTOPIC_ATOM_COUNT>  (1) 
0

>  <PUBCHEM_COMPONENT_COUNT>  (1) 
1

>  <PUBCHEM_CACTVS_TAUTO_COUNT>  (1) 
1

>  <PUBCHEM_CONFORMER_ID>  (1) 
0000055000000001

>  <PUBCHEM_MMFF94_ENERGY>  (1) 
46.5982

>  <PUBCHEM_FEATURE_SELFOVERLAP>  (1) 
30.446

>  <PUBCHEM_SHAPE_FINGERPRINT>  (1) 
10 15 9943811088073391832
10066227 112 13406798835168427126
10066227 49 18341051805600258958
10299344 5 14333406753502559728
106641 1 8862941702486761333
10670039 82 17676765396763083381
11315181 36 16225771822221460977
12091667 2 17603591811117752928
12166972 35 18341615940685163872
125118 31 7925908184707126598
12838862 33 11959738136457778563
13668630 136 18131353003346772118
13685833 64 17203328914479084592
13885169 127 17703795786789403401
14251752 14 18186519895748745922
14251757 52 11891329872688030478
14729087 3 11530477835479114047
14849402 71 13470106545948847370
14933364 13 9799691502589257002
15183329 4 17385724673697108536
15348495 7 10303515213705094102
15419008 91 18058146406974358064
15690457 1 17489866055028960310
15716309 27 15267341816770505480
16992828 155 16444741624351612077
17093844 174 14692573191767064945
17780758 139 12607400001542486777
1818759 1 16702030768803301230
18335252 114 15647051573744575654
18643901 69 18411419536333842071
2026 5 18201441346264092174
20281389 69 10953732318433307802
21150785 3 17748826319289538466
21267235 1 18187365476473428081
21307412 95 18192421078399717711
21927370 108 18261404377696297105
22224240 67 10663819671916045416
22288116 15 16298390218924731619
2297311 6 18335417985391814289
23035841 295 16917350350609228375
23081809 10 17022901221140949240
23198884 109 17167583786695861408
23559900 14 18188770694508653505
246663 6 18060140959562839523
328310 630 15357995446821683132
5758199 1 9655578508867552100
59682541 35 16558746832919423274
59755656 215 18334859394719474170
636775 72 8069764996436263295
9953998 17 11959728274411006797
999808 66 17275103951060999847

>  <PUBCHEM_SHAPE_MULTIPOLES>  (1) 
412.34
27.4
1.73
1.19
33.98
0.42
-0.17
-13.59
-8.98
-3.33
-0.47
0.32
0.02
0.76

>  <PUBCHEM_SHAPE_SELFOVERLAP>  (1) 
837.829

>  <PUBCHEM_SHAPE_VOLUME>  (1) 
242.2

>  <PUBCHEM_COORDINATE_TYPE>  (1) 
2
5
10

$$$$
