13614
     RDKit          3D

  9  9  0  0  0  0  0  0  0  0999 V2000
    3.4346    0.0000    0.2306 Cl  0  0  0  0  0  0  0  0  0  0  0  0
   -3.0301    0.0003    0.7002 O   0  0  0  0  0  0  0  0  0  0  0  0
   -2.4175   -0.0002   -0.3779 N   0  0  0  0  0  0  0  0  0  0  0  0
   -1.0518   -0.0001   -0.2367 C   0  0  0  0  0  0  0  0  0  0  0  0
   -0.3582   -1.2081   -0.1644 C   0  0  0  0  0  0  0  0  0  0  0  0
   -0.3582    1.2080   -0.1645 C   0  0  0  0  0  0  0  0  0  0  0  0
    1.0291   -1.2080   -0.0198 C   0  0  0  0  0  0  0  0  0  0  0  0
    1.0292    1.2081   -0.0200 C   0  0  0  0  0  0  0  0  0  0  0  0
    1.7229    0.0000    0.0524 C   0  0  0  0  0  0  0  0  0  0  0  0
  1  9  1  0
  2  3  2  0
  3  4  1  0
  4  5  2  0
  4  6  1  0
  5  7  1  0
  6  8  2  0
  7  9  2  0
  8  9  1  0
M  END
>  <PUBCHEM_COMPOUND_CID>  (1) 
13614

>  <PUBCHEM_CONFORMER_RMSD>  (1) 
0.4

>  <PUBCHEM_CONFORMER_DIVERSEORDER>  (1) 
1
2

>  <PUBCHEM_MMFF94_PARTIAL_CHARGES>  (1) 
13
1 -0.18
10 0.15
11 0.15
12 0.15
13 0.15
2 -0.16
3 -0.14
4 0.3
5 -0.15
6 -0.15
7 -0.15
8 -0.15
9 0.18

>  <PUBCHEM_EFFECTIVE_ROTOR_COUNT>  (1) 
1

>  <PUBCHEM_PHARMACOPHORE_FEATURES>  (1) 
1
6 4 5 6 7 8 9 rings

>  <PUBCHEM_HEAVY_ATOM_COUNT>  (1) 
9

>  <PUBCHEM_ATOM_DEF_STEREO_COUNT>  (1) 
0

>  <PUBCHEM_ATOM_UDEF_STEREO_COUNT>  (1) 
0

>  <PUBCHEM_BOND_DEF_STEREO_COUNT>  (1) 
0

>  <PUBCHEM_BOND_UDEF_STEREO_COUNT>  (1) 
0

>  <PUBCHEM_ISOTOPIC_ATOM_COUNT>  (1) 
0

>  <PUBCHEM_COMPONENT_COUNT>  (1) 
1

>  <PUBCHEM_CACTVS_TAUTO_COUNT>  (1) 
1

>  <PUBCHEM_CONFORMER_ID>  (1) 
0000352E00000001

>  <PUBCHEM_MMFF94_ENERGY>  (1) 
20.435

>  <PUBCHEM_FEATURE_SELFOVERLAP>  (1) 
5.074

>  <PUBCHEM_SHAPE_FINGERPRINT>  (1) 
10219947 1 18410012139036273408
10857977 72 18334007306870964209
14325111 11 18411134753467298876
15310529 11 16660634151105433884
16945 1 18410569587273732246
193761 8 17618502082375356924
21040471 1 18267302229926375684
23235685 24 18412258445787253640
23402655 69 18123448524635995045
23552423 10 18044370771733424044
2748010 2 18122902023731440548
29004967 10 18260832579012499433
5084963 1 18343013436678874241

>  <PUBCHEM_SHAPE_MULTIPOLES>  (1) 
176.24
4.1
1.28
0.67
0.38
0
0.02
0
0.67
0.16
-0.06
-0.1
0
0

>  <PUBCHEM_SHAPE_SELFOVERLAP>  (1) 
358.407

>  <PUBCHEM_SHAPE_VOLUME>  (1) 
103.9

>  <PUBCHEM_COORDINATE_TYPE>  (1) 
2
5
10

$$$$
