13610
     RDKit          3D

  9  9  0  0  0  0  0  0  0  0999 V2000
    1.4754    1.6740   -0.0004 O   0  0  0  0  0  0  0  0  0  0  0  0
    2.0960   -1.6198    0.0005 N   0  0  0  0  0  0  0  0  0  0  0  0
    0.5973    0.5472   -0.0001 C   0  0  0  0  0  0  0  0  0  0  0  0
   -0.2713    0.6074   -1.2669 C   0  0  0  0  0  0  0  0  0  0  0  0
   -0.2713    0.6082    1.2664 C   0  0  0  0  0  0  0  0  0  0  0  0
   -1.4043   -0.4190   -1.2634 C   0  0  0  0  0  0  0  0  0  0  0  0
   -1.4044   -0.4181    1.2636 C   0  0  0  0  0  0  0  0  0  0  0  0
   -2.2533   -0.3144    0.0001 C   0  0  0  0  0  0  0  0  0  0  0  0
    1.4359   -0.6655    0.0002 C   0  0  0  0  0  0  0  0  0  0  0  0
  1  3  1  0
  2  9  3  0
  3  4  1  0
  3  5  1  0
  3  9  1  0
  4  6  1  0
  5  7  1  0
  6  8  1  0
  7  8  1  0
M  END
>  <PUBCHEM_COMPOUND_CID>  (1) 
13610

>  <PUBCHEM_CONFORMER_RMSD>  (1) 
0.4

>  <PUBCHEM_CONFORMER_DIVERSEORDER>  (1) 
1
2
4
3

>  <PUBCHEM_MMFF94_PARTIAL_CHARGES>  (1) 
5
1 -0.68
2 -0.56
20 0.4
3 0.48
9 0.36

>  <PUBCHEM_EFFECTIVE_ROTOR_COUNT>  (1) 
1.2

>  <PUBCHEM_PHARMACOPHORE_FEATURES>  (1) 
4
1 1 acceptor
1 1 donor
1 2 acceptor
6 3 4 5 6 7 8 rings

>  <PUBCHEM_HEAVY_ATOM_COUNT>  (1) 
9

>  <PUBCHEM_ATOM_DEF_STEREO_COUNT>  (1) 
0

>  <PUBCHEM_ATOM_UDEF_STEREO_COUNT>  (1) 
0

>  <PUBCHEM_BOND_DEF_STEREO_COUNT>  (1) 
0

>  <PUBCHEM_BOND_UDEF_STEREO_COUNT>  (1) 
0

>  <PUBCHEM_ISOTOPIC_ATOM_COUNT>  (1) 
0

>  <PUBCHEM_COMPONENT_COUNT>  (1) 
1

>  <PUBCHEM_CACTVS_TAUTO_COUNT>  (1) 
1

>  <PUBCHEM_CONFORMER_ID>  (1) 
0000352A00000001

>  <PUBCHEM_MMFF94_ENERGY>  (1) 
7.472

>  <PUBCHEM_FEATURE_SELFOVERLAP>  (1) 
20.297

>  <PUBCHEM_SHAPE_FINGERPRINT>  (1) 
12423570 1 10923846960729379513
13024252 1 17027427772545885482
137420 1 11740492050854198976
18185500 45 17489016162631671727
21922407 69 18130514153046904523
23552333 60 17917425492506537927
24536 1 17676773187896658877
29004967 10 18335416867987790568

>  <PUBCHEM_SHAPE_MULTIPOLES>  (1) 
174.37
2.53
1.35
1.3
0.04
0
0.02
0
-0.8
0.59
0.08
-0.89
0
0

>  <PUBCHEM_SHAPE_SELFOVERLAP>  (1) 
344.39

>  <PUBCHEM_SHAPE_VOLUME>  (1) 
101.2

>  <PUBCHEM_COORDINATE_TYPE>  (1) 
2
5
10

$$$$
