13612
     RDKit          3D

  9  9  0  0  0  0  0  0  0  0999 V2000
    2.3616   -1.0701   -0.4645 O   0  0  0  0  0  0  0  0  0  0  0  0
   -1.8519    1.1706   -0.5000 C   0  0  0  0  0  0  0  0  0  0  0  0
   -2.5274    0.0923    0.3432 C   0  0  0  0  0  0  0  0  0  0  0  0
   -0.3655    1.2954   -0.1520 C   0  0  0  0  0  0  0  0  0  0  0  0
   -1.8566   -1.2703    0.1495 C   0  0  0  0  0  0  0  0  0  0  0  0
    0.3052   -0.0370   -0.0049 C   0  0  0  0  0  0  0  0  0  0  0  0
   -0.3571   -1.1967    0.1165 C   0  0  0  0  0  0  0  0  0  0  0  0
    1.7692   -0.0860   -0.0157 C   0  0  0  0  0  0  0  0  0  0  0  0
    2.5226    1.1018    0.5278 C   0  0  0  0  0  0  0  0  0  0  0  0
  1  8  2  0
  2  3  1  0
  2  4  1  0
  3  5  1  0
  4  6  1  0
  5  7  1  0
  6  7  2  0
  6  8  1  0
  8  9  1  0
M  END
>  <PUBCHEM_COMPOUND_CID>  (1) 
13612

>  <PUBCHEM_CONFORMER_RMSD>  (1) 
0.4

>  <PUBCHEM_CONFORMER_DIVERSEORDER>  (1) 
1
2
3

>  <PUBCHEM_MMFF94_PARTIAL_CHARGES>  (1) 
8
1 -0.57
18 0.15
4 0.14
5 0.14
6 -0.12
7 -0.29
8 0.49
9 0.06

>  <PUBCHEM_EFFECTIVE_ROTOR_COUNT>  (1) 
1.8

>  <PUBCHEM_PHARMACOPHORE_FEATURES>  (1) 
2
1 1 acceptor
6 2 3 4 5 6 7 rings

>  <PUBCHEM_HEAVY_ATOM_COUNT>  (1) 
9

>  <PUBCHEM_ATOM_DEF_STEREO_COUNT>  (1) 
0

>  <PUBCHEM_ATOM_UDEF_STEREO_COUNT>  (1) 
0

>  <PUBCHEM_BOND_DEF_STEREO_COUNT>  (1) 
0

>  <PUBCHEM_BOND_UDEF_STEREO_COUNT>  (1) 
0

>  <PUBCHEM_ISOTOPIC_ATOM_COUNT>  (1) 
0

>  <PUBCHEM_COMPONENT_COUNT>  (1) 
1

>  <PUBCHEM_CACTVS_TAUTO_COUNT>  (1) 
5

>  <PUBCHEM_CONFORMER_ID>  (1) 
0000352C00000001

>  <PUBCHEM_MMFF94_ENERGY>  (1) 
5.4869

>  <PUBCHEM_FEATURE_SELFOVERLAP>  (1) 
10.148

>  <PUBCHEM_SHAPE_FINGERPRINT>  (1) 
10857977 72 18262513818201322985
12524768 44 18411699893679909446
12716758 59 18334574599057505131
12897270 3 18409729534451522045
12932764 1 18333734593696212986
14325111 11 18411136918041223209
14390081 3 18342172288808938656
16714656 1 18335143072518126135
16945 1 18260550034699656285
19973954 147 18412265029924970488
20645464 45 18343014502020622400
21040471 1 18190175694053102533
23552423 10 18187087260480316942
2748010 2 18409729560274086359
29004967 10 18339646753586377570
369184 2 18410851066471576619
5084963 1 18041571225696955548

>  <PUBCHEM_SHAPE_MULTIPOLES>  (1) 
179.35
3.71
1.54
0.7
0.91
0.01
0.01
0.18
0.27
-0.19
-0.07
0.02
0.04
0.41

>  <PUBCHEM_SHAPE_SELFOVERLAP>  (1) 
355.147

>  <PUBCHEM_SHAPE_VOLUME>  (1) 
106

>  <PUBCHEM_COORDINATE_TYPE>  (1) 
2
5
10

$$$$
