13613
     RDKit          3D

  9  9  0  0  0  0  0  0  0  0999 V2000
    2.6997    0.4897    0.6176 O   0  0  0  0  0  0  0  0  0  0  0  0
    0.8624   -0.2439   -0.0414 N   0  0  0  0  0  0  0  0  0  0  0  0
    2.1647   -0.3975   -0.0546 N   0  0  0  0  0  0  0  0  0  0  0  0
   -2.0390   -0.4277    0.6821 C   0  0  0  0  0  0  0  0  0  0  0  0
   -2.0670    0.9857    0.1063 C   0  0  0  0  0  0  0  0  0  0  0  0
   -1.3924   -1.4276   -0.2716 C   0  0  0  0  0  0  0  0  0  0  0  0
   -0.7046    1.6579   -0.0375 C   0  0  0  0  0  0  0  0  0  0  0  0
    0.1347   -1.5075   -0.1678 C   0  0  0  0  0  0  0  0  0  0  0  0
    0.3417    0.8711   -0.8332 C   0  0  0  0  0  0  0  0  0  0  0  0
  1  3  2  0
  2  3  1  0
  2  8  1  0
  2  9  1  0
  4  5  1  0
  4  6  1  0
  5  7  1  0
  6  8  1  0
  7  9  1  0
M  END
>  <PUBCHEM_COMPOUND_CID>  (1) 
13613

>  <PUBCHEM_CONFORMER_RMSD>  (1) 
0.4

>  <PUBCHEM_CONFORMER_DIVERSEORDER>  (1) 
1
29
15
31
19
4
27
30
12
28
23
9
20
11
21
6
10
16
5
26
18
17
25
22
14
3
24
7
8
13
2

>  <PUBCHEM_MMFF94_PARTIAL_CHARGES>  (1) 
5
1 -0.16
2 -0.36
3 -0.01
8 0.27
9 0.27

>  <PUBCHEM_EFFECTIVE_ROTOR_COUNT>  (1) 
2.4

>  <PUBCHEM_PHARMACOPHORE_FEATURES>  (1) 
1
7 2 4 5 6 7 8 9 rings

>  <PUBCHEM_HEAVY_ATOM_COUNT>  (1) 
9

>  <PUBCHEM_ATOM_DEF_STEREO_COUNT>  (1) 
0

>  <PUBCHEM_ATOM_UDEF_STEREO_COUNT>  (1) 
0

>  <PUBCHEM_BOND_DEF_STEREO_COUNT>  (1) 
0

>  <PUBCHEM_BOND_UDEF_STEREO_COUNT>  (1) 
0

>  <PUBCHEM_ISOTOPIC_ATOM_COUNT>  (1) 
0

>  <PUBCHEM_COMPONENT_COUNT>  (1) 
1

>  <PUBCHEM_CACTVS_TAUTO_COUNT>  (1) 
1

>  <PUBCHEM_CONFORMER_ID>  (1) 
0000352D00000001

>  <PUBCHEM_MMFF94_ENERGY>  (1) 
15.6078

>  <PUBCHEM_FEATURE_SELFOVERLAP>  (1) 
5.074

>  <PUBCHEM_SHAPE_FINGERPRINT>  (1) 
10857977 72 18336543901628992401
16714656 1 18410579478425224263
18185500 45 17977954801658784615
20645464 45 18060135431987187914
20653085 51 13758078527718303570
21040471 1 18265624173387485453
23235685 24 18337108939237349077
23552423 10 18187654587142705958
2748010 2 18120665621517942687
29004967 10 14923943457469148006
5084963 1 18271820007230364147
54338 74 18191568951368701883
66348 1 17905332827385154037

>  <PUBCHEM_SHAPE_MULTIPOLES>  (1) 
169.38
3.02
1.72
0.77
1.32
0.04
0.02
-0.2
-0.74
-0.56
0.16
0
-0.05
0.04

>  <PUBCHEM_SHAPE_SELFOVERLAP>  (1) 
324.387

>  <PUBCHEM_SHAPE_VOLUME>  (1) 
102

>  <PUBCHEM_COORDINATE_TYPE>  (1) 
2
5
10

$$$$
