13616
     RDKit          3D

 10 10  0  0  0  0  0  0  0  0999 V2000
    1.6241   -0.4011   -0.8907 O   0  0  0  0  0  0  0  0  0  0  0  0
    0.7674    0.6513    1.0074 O   0  0  0  0  0  0  0  0  0  0  0  0
    0.4345   -0.0686   -0.1788 C   0  0  0  0  0  0  0  0  0  0  0  0
   -0.2876   -1.3733    0.1811 C   0  0  0  0  0  0  0  0  0  0  0  0
   -0.4573    0.8219   -1.0535 C   0  0  0  0  0  0  0  0  0  0  0  0
   -1.6531   -1.1230    0.8184 C   0  0  0  0  0  0  0  0  0  0  0  0
   -1.8249    1.0729   -0.4199 C   0  0  0  0  0  0  0  0  0  0  0  0
   -2.5267   -0.2344   -0.0627 C   0  0  0  0  0  0  0  0  0  0  0  0
    2.4860   -1.2111   -0.1062 C   0  0  0  0  0  0  0  0  0  0  0  0
    1.4378    1.8655    0.7050 C   0  0  0  0  0  0  0  0  0  0  0  0
  1  3  1  0
  1  9  1  0
  2  3  1  0
  2 10  1  0
  3  4  1  0
  3  5  1  0
  4  6  1  0
  5  7  1  0
  6  8  1  0
  7  8  1  0
M  END
>  <PUBCHEM_COMPOUND_CID>  (1) 
13616

>  <PUBCHEM_CONFORMER_RMSD>  (1) 
0.6

>  <PUBCHEM_CONFORMER_DIVERSEORDER>  (1) 
1
2
4
3
5

>  <PUBCHEM_MMFF94_PARTIAL_CHARGES>  (1) 
5
1 -0.56
10 0.28
2 -0.56
3 0.56
9 0.28

>  <PUBCHEM_EFFECTIVE_ROTOR_COUNT>  (1) 
3.2

>  <PUBCHEM_PHARMACOPHORE_FEATURES>  (1) 
3
1 1 acceptor
1 2 acceptor
6 3 4 5 6 7 8 rings

>  <PUBCHEM_HEAVY_ATOM_COUNT>  (1) 
10

>  <PUBCHEM_ATOM_DEF_STEREO_COUNT>  (1) 
0

>  <PUBCHEM_ATOM_UDEF_STEREO_COUNT>  (1) 
0

>  <PUBCHEM_BOND_DEF_STEREO_COUNT>  (1) 
0

>  <PUBCHEM_BOND_UDEF_STEREO_COUNT>  (1) 
0

>  <PUBCHEM_ISOTOPIC_ATOM_COUNT>  (1) 
0

>  <PUBCHEM_COMPONENT_COUNT>  (1) 
1

>  <PUBCHEM_CACTVS_TAUTO_COUNT>  (1) 
1

>  <PUBCHEM_CONFORMER_ID>  (1) 
0000353000000001

>  <PUBCHEM_MMFF94_ENERGY>  (1) 
27.3575

>  <PUBCHEM_FEATURE_SELFOVERLAP>  (1) 
15.267

>  <PUBCHEM_SHAPE_FINGERPRINT>  (1) 
12423570 1 9150016503858395309
13024252 1 12975045881600875238
137420 1 14154858421245276903
16945 1 18338521845864589375
20653085 51 16953126139810855558
21040471 1 17968649411593848085
21061003 4 18130795503765112090
21922407 69 16772969158102922919
23235685 24 17822572690589874973
23552423 10 17676215692346183046
241688 4 18187369835084550601
2748010 2 18261674895414466887
29004967 10 17703509883189557766
369184 2 17702939228049087006
5084963 1 18113620062565579343

>  <PUBCHEM_SHAPE_MULTIPOLES>  (1) 
194.06
3.08
1.7
1
0.07
0.26
-0.01
-0.5
0.03
-0.42
-0.28
-0.09
0.17
0.63

>  <PUBCHEM_SHAPE_SELFOVERLAP>  (1) 
377.852

>  <PUBCHEM_SHAPE_VOLUME>  (1) 
116.8

>  <PUBCHEM_COORDINATE_TYPE>  (1) 
2
5
10

$$$$
