13624
     RDKit          3D

 10 11  0  0  0  0  0  0  0  0999 V2000
    1.2053    1.0838   -0.0004 N   0  0  0  0  0  0  0  0  0  0  0  0
    1.2333   -1.1386   -0.0002 N   0  0  0  0  0  0  0  0  0  0  0  0
    3.3139    0.0844    0.0007 N   0  0  0  0  0  0  0  0  0  0  0  0
   -0.1116    0.7012   -0.0002 C   0  0  0  0  0  0  0  0  0  0  0  0
   -0.0676   -0.6903   -0.0002 C   0  0  0  0  0  0  0  0  0  0  0  0
    1.9694   -0.0498   -0.0002 C   0  0  0  0  0  0  0  0  0  0  0  0
   -1.3012    1.4304    0.0000 C   0  0  0  0  0  0  0  0  0  0  0  0
   -1.2723   -1.4135   -0.0001 C   0  0  0  0  0  0  0  0  0  0  0  0
   -2.4906    0.6945    0.0003 C   0  0  0  0  0  0  0  0  0  0  0  0
   -2.4786   -0.7022    0.0002 C   0  0  0  0  0  0  0  0  0  0  0  0
  1  4  1  0
  1  6  1  0
  2  5  1  0
  2  6  2  0
  3  6  1  0
  4  5  2  0
  4  7  1  0
  5  8  1  0
  7  9  2  0
  8 10  2  0
  9 10  1  0
M  END
>  <PUBCHEM_COMPOUND_CID>  (1) 
13624

>  <PUBCHEM_CONFORMER_RMSD>  (1) 
0.4

>  <PUBCHEM_CONFORMER_DIVERSEORDER>  (1) 
1

>  <PUBCHEM_MMFF94_PARTIAL_CHARGES>  (1) 
17
1 0.03
10 -0.15
11 0.27
12 0.15
13 0.15
14 0.15
15 0.15
16 0.4
17 0.4
2 -0.57
3 -0.88
4 -0.15
5 0.23
6 0.27
7 -0.15
8 -0.15
9 -0.15

>  <PUBCHEM_EFFECTIVE_ROTOR_COUNT>  (1) 
0

>  <PUBCHEM_PHARMACOPHORE_FEATURES>  (1) 
5
1 1 donor
1 3 donor
4 1 2 3 6 cation
5 1 2 4 5 6 rings
6 4 5 7 8 9 10 rings

>  <PUBCHEM_HEAVY_ATOM_COUNT>  (1) 
10

>  <PUBCHEM_ATOM_DEF_STEREO_COUNT>  (1) 
0

>  <PUBCHEM_ATOM_UDEF_STEREO_COUNT>  (1) 
0

>  <PUBCHEM_BOND_DEF_STEREO_COUNT>  (1) 
0

>  <PUBCHEM_BOND_UDEF_STEREO_COUNT>  (1) 
0

>  <PUBCHEM_ISOTOPIC_ATOM_COUNT>  (1) 
0

>  <PUBCHEM_COMPONENT_COUNT>  (1) 
1

>  <PUBCHEM_CACTVS_TAUTO_COUNT>  (1) 
2

>  <PUBCHEM_CONFORMER_ID>  (1) 
0000353800000001

>  <PUBCHEM_MMFF94_ENERGY>  (1) 
15.7361

>  <PUBCHEM_FEATURE_SELFOVERLAP>  (1) 
25.522

>  <PUBCHEM_SHAPE_FINGERPRINT>  (1) 
10857977 72 18339913917658205057
12897270 3 18411135848541482693
13024252 1 15791450426665862953
14325111 11 18410855443238540388
16945 1 18410575089074097255
20871998 184 18129666421118912687
21040471 1 18338516318146636389
23235685 24 18340200804536509353
23402655 69 18196072371552094853
23552423 10 18188491396800091630
2748010 2 18050848015838256221
29004967 10 18411141350362985875
369184 2 18410007723820468723
5084963 1 18272370901252614833
528886 8 18411131420641158147

>  <PUBCHEM_SHAPE_MULTIPOLES>  (1) 
190.85
3.82
1.44
0.59
1.62
0.01
0
-0.06
0
-0.51
0
-0.05
0
0

>  <PUBCHEM_SHAPE_SELFOVERLAP>  (1) 
421.873

>  <PUBCHEM_SHAPE_VOLUME>  (1) 
103.8

>  <PUBCHEM_COORDINATE_TYPE>  (1) 
2
5
10

$$$$
