13620
     RDKit          3D

 10 10  0  0  0  0  0  0  0  0999 V2000
   -0.5815    2.4788   -0.0005 Br  0  0  0  0  0  0  0  0  0  0  0  0
    2.2227    1.2251   -0.0006 O   0  0  0  0  0  0  0  0  0  0  0  0
    2.6751   -0.9230    0.0002 O   0  0  0  0  0  0  0  0  0  0  0  0
   -1.7077   -0.2226    0.0005 N   0  0  0  0  0  0  0  0  0  0  0  0
    0.0531   -1.5761   -0.0007 N   0  0  0  0  0  0  0  0  0  0  0  0
    1.8366    0.0222   -0.0001 N   0  0  0  0  0  0  0  0  0  0  0  0
   -0.6101    0.5913    0.0012 C   0  0  0  0  0  0  0  0  0  0  0  0
    0.4644   -0.2667    0.0009 C   0  0  0  0  0  0  0  0  0  0  0  0
   -1.2600   -1.5144   -0.0005 C   0  0  0  0  0  0  0  0  0  0  0  0
   -3.0924    0.1854   -0.0004 C   0  0  0  0  0  0  0  0  0  0  0  0
  1  7  1  0
  2  6  1  0
  3  6  2  0
  4  7  1  0
  4  9  1  0
  4 10  1  0
  5  8  1  0
  5  9  2  0
  6  8  1  0
  7  8  2  0
M  CHG  2   2  -1   6   1
M  END
>  <PUBCHEM_COMPOUND_CID>  (1) 
13620

>  <PUBCHEM_CONFORMER_RMSD>  (1) 
0.4

>  <PUBCHEM_CONFORMER_DIVERSEORDER>  (1) 
1

>  <PUBCHEM_MMFF94_PARTIAL_CHARGES>  (1) 
11
1 -0.06
10 0.26
11 0.15
2 -0.52
3 -0.52
4 0.05
5 -0.57
6 0.96
7 -0.09
8 0.31
9 0.04

>  <PUBCHEM_EFFECTIVE_ROTOR_COUNT>  (1) 
1

>  <PUBCHEM_PHARMACOPHORE_FEATURES>  (1) 
6
1 1 hydrophobe
1 2 acceptor
1 2 anion
1 3 acceptor
3 4 5 9 cation
5 4 5 7 8 9 rings

>  <PUBCHEM_HEAVY_ATOM_COUNT>  (1) 
10

>  <PUBCHEM_ATOM_DEF_STEREO_COUNT>  (1) 
0

>  <PUBCHEM_ATOM_UDEF_STEREO_COUNT>  (1) 
0

>  <PUBCHEM_BOND_DEF_STEREO_COUNT>  (1) 
0

>  <PUBCHEM_BOND_UDEF_STEREO_COUNT>  (1) 
0

>  <PUBCHEM_ISOTOPIC_ATOM_COUNT>  (1) 
0

>  <PUBCHEM_COMPONENT_COUNT>  (1) 
1

>  <PUBCHEM_CACTVS_TAUTO_COUNT>  (1) 
1

>  <PUBCHEM_CONFORMER_ID>  (1) 
0000353400000001

>  <PUBCHEM_MMFF94_ENERGY>  (1) 
14.5781

>  <PUBCHEM_FEATURE_SELFOVERLAP>  (1) 
30.528

>  <PUBCHEM_SHAPE_FINGERPRINT>  (1) 
10219947 1 18410862062062582073
12524768 44 18342746251090012550
14325111 11 18410574006969250439
16945 1 18338517426258884679
18185500 45 18193559088974085444
193761 8 17618221707005284487
21040471 1 18410855507430947747
23552423 10 18188772872024942982
2748010 2 18339644567369038959
5084963 1 18130504115681849610

>  <PUBCHEM_SHAPE_MULTIPOLES>  (1) 
185.06
3.4
2.16
0.59
0.3
1.16
0
-0.29
0
-0.25
0
-0.07
0.05
0

>  <PUBCHEM_SHAPE_SELFOVERLAP>  (1) 
368.504

>  <PUBCHEM_SHAPE_VOLUME>  (1) 
113.5

>  <PUBCHEM_COORDINATE_TYPE>  (1) 
2
5
10

$$$$
