13629
     RDKit          3D

 10 10  0  0  0  0  0  0  0  0999 V2000
    1.1861   -0.0721    0.2925 C   0  0  0  0  0  0  0  0  0  0  0  0
   -1.0498    0.8069    0.0364 C   0  0  0  0  0  0  0  0  0  0  0  0
   -1.5471   -0.4914   -0.0769 C   0  0  0  0  0  0  0  0  0  0  0  0
    2.6473    0.1515    0.4895 C   0  0  0  0  0  0  0  0  0  0  0  0
    0.3169    1.0166    0.2211 C   0  0  0  0  0  0  0  0  0  0  0  0
    0.6886   -1.3704    0.1792 C   0  0  0  0  0  0  0  0  0  0  0  0
   -0.6780   -1.5801   -0.0054 C   0  0  0  0  0  0  0  0  0  0  0  0
   -1.9619    1.9875   -0.0351 C   0  0  0  0  0  0  0  0  0  0  0  0
   -3.0065   -0.7406   -0.2744 C   0  0  0  0  0  0  0  0  0  0  0  0
    3.4044    0.2920   -0.8267 C   0  0  0  0  0  0  0  0  0  0  0  0
  1  4  1  0
  1  5  2  0
  1  6  1  0
  2  3  2  0
  2  5  1  0
  2  8  1  0
  3  7  1  0
  3  9  1  0
  4 10  1  0
  6  7  2  0
M  END
>  <PUBCHEM_COMPOUND_CID>  (1) 
13629

>  <PUBCHEM_CONFORMER_RMSD>  (1) 
0.4

>  <PUBCHEM_CONFORMER_DIVERSEORDER>  (1) 
1
3
4
2

>  <PUBCHEM_MMFF94_PARTIAL_CHARGES>  (1) 
12
1 -0.14
13 0.15
14 0.15
15 0.15
2 -0.14
3 -0.14
4 0.14
5 -0.15
6 -0.15
7 -0.15
8 0.14
9 0.14

>  <PUBCHEM_EFFECTIVE_ROTOR_COUNT>  (1) 
1

>  <PUBCHEM_PHARMACOPHORE_FEATURES>  (1) 
2
1 10 hydrophobe
6 1 2 3 5 6 7 rings

>  <PUBCHEM_HEAVY_ATOM_COUNT>  (1) 
10

>  <PUBCHEM_ATOM_DEF_STEREO_COUNT>  (1) 
0

>  <PUBCHEM_ATOM_UDEF_STEREO_COUNT>  (1) 
0

>  <PUBCHEM_BOND_DEF_STEREO_COUNT>  (1) 
0

>  <PUBCHEM_BOND_UDEF_STEREO_COUNT>  (1) 
0

>  <PUBCHEM_ISOTOPIC_ATOM_COUNT>  (1) 
0

>  <PUBCHEM_COMPONENT_COUNT>  (1) 
1

>  <PUBCHEM_CACTVS_TAUTO_COUNT>  (1) 
1

>  <PUBCHEM_CONFORMER_ID>  (1) 
0000353D00000001

>  <PUBCHEM_MMFF94_ENERGY>  (1) 
22.0337

>  <PUBCHEM_FEATURE_SELFOVERLAP>  (1) 
10.148

>  <PUBCHEM_SHAPE_FINGERPRINT>  (1) 
11206711 2 18410847763794921461
12032990 46 18267307714874354427
12716758 59 18342741784640503202
12897270 3 18411414029236079254
12932764 1 17775277270740478666
13380535 21 18197789799354008297
14325111 11 18410292476221274992
15310529 11 16660628678990155074
16945 1 18411130376732178491
193761 8 18051128090829967987
20645464 45 17845918719740232560
20653085 51 18262254230726151052
21040471 1 18267578018366380016
21293036 1 18336264651498075526
21501502 16 18266455404183566627
23235685 24 18408598180036511607
23402655 69 18196914610401772013
23552423 10 18190176776395793970
23559900 14 18201440217620589918
2748010 2 18267864973811154527
369184 2 10519990344183718046
5084963 1 18130788987956618392
53812653 8 18335422373993478138
68250623 7 18193275200162847291

>  <PUBCHEM_SHAPE_MULTIPOLES>  (1) 
205.8
4.36
1.71
0.73
2.01
0.24
-0.04
0.37
-0.84
-1.02
0.02
0.29
0.02
-0.13

>  <PUBCHEM_SHAPE_SELFOVERLAP>  (1) 
418.114

>  <PUBCHEM_SHAPE_VOLUME>  (1) 
116.1

>  <PUBCHEM_COORDINATE_TYPE>  (1) 
2
5
10

$$$$
