13634
     RDKit          3D

 11 11  0  0  0  0  0  0  0  0999 V2000
    0.4677    0.6187   -0.8828 O   0  0  0  0  0  0  0  0  0  0  0  0
    1.5108    0.0146    1.1333 O   0  0  0  0  0  0  0  0  0  0  0  0
    0.3128   -0.1046    0.3490 C   0  0  0  0  0  0  0  0  0  0  0  0
   -0.8562    0.4939    1.1211 C   0  0  0  0  0  0  0  0  0  0  0  0
   -2.1784    0.4880    0.3353 C   0  0  0  0  0  0  0  0  0  0  0  0
    0.0771   -1.5781    0.0417 C   0  0  0  0  0  0  0  0  0  0  0  0
    1.8607    0.9212   -0.9519 C   0  0  0  0  0  0  0  0  0  0  0  0
    2.2616    1.0454    0.4924 C   0  0  0  0  0  0  0  0  0  0  0  0
   -2.0696    1.2342   -0.9951 C   0  0  0  0  0  0  0  0  0  0  0  0
   -2.6257   -0.9541    0.0844 C   0  0  0  0  0  0  0  0  0  0  0  0
    1.2392   -2.1791   -0.7275 C   0  0  0  0  0  0  0  0  0  0  0  0
  1  3  1  0
  1  7  1  0
  2  3  1  0
  2  8  1  0
  3  4  1  0
  3  6  1  0
  4  5  1  0
  5  9  1  0
  5 10  1  0
  6 11  1  0
  7  8  1  0
M  END
>  <PUBCHEM_COMPOUND_CID>  (1) 
13634

>  <PUBCHEM_CONFORMER_RMSD>  (1) 
0.6

>  <PUBCHEM_CONFORMER_DIVERSEORDER>  (1) 
2
3
1

>  <PUBCHEM_MMFF94_PARTIAL_CHARGES>  (1) 
5
1 -0.56
2 -0.56
3 0.56
7 0.28
8 0.28

>  <PUBCHEM_EFFECTIVE_ROTOR_COUNT>  (1) 
4

>  <PUBCHEM_PHARMACOPHORE_FEATURES>  (1) 
5
1 1 acceptor
1 11 hydrophobe
1 2 acceptor
3 5 9 10 hydrophobe
5 1 2 3 7 8 rings

>  <PUBCHEM_HEAVY_ATOM_COUNT>  (1) 
11

>  <PUBCHEM_ATOM_DEF_STEREO_COUNT>  (1) 
0

>  <PUBCHEM_ATOM_UDEF_STEREO_COUNT>  (1) 
0

>  <PUBCHEM_BOND_DEF_STEREO_COUNT>  (1) 
0

>  <PUBCHEM_BOND_UDEF_STEREO_COUNT>  (1) 
0

>  <PUBCHEM_ISOTOPIC_ATOM_COUNT>  (1) 
0

>  <PUBCHEM_COMPONENT_COUNT>  (1) 
1

>  <PUBCHEM_CACTVS_TAUTO_COUNT>  (1) 
1

>  <PUBCHEM_CONFORMER_ID>  (1) 
0000354200000002

>  <PUBCHEM_MMFF94_ENERGY>  (1) 
42.0971

>  <PUBCHEM_FEATURE_SELFOVERLAP>  (1) 
25.412

>  <PUBCHEM_SHAPE_FINGERPRINT>  (1) 
1 1 18413389826093705486
12138202 97 17843683511385406412
12423570 1 9042826721536685555
12897270 3 18410294748248431645
13380535 239 18334581230851046247
14128692 85 17985280576978136342
15775835 57 18188775075079590573
16945 1 17677331752440577208
20082192 1 18261678060699856121
21028194 46 18409447033146543120
21040471 1 18339927124840915090
23235687 12 18187362099922348953
23552423 10 18338804399089282835
2748010 2 18335705988206910615
29004967 10 15482404134757514673
5084963 1 18334580165308669104
68250623 7 17677316243524570618

>  <PUBCHEM_SHAPE_MULTIPOLES>  (1) 
214.64
3.35
1.79
1.14
1.09
1.02
-0.01
-0.66
-0.16
-0.46
-0.42
-0.11
-0.24
0.31

>  <PUBCHEM_SHAPE_SELFOVERLAP>  (1) 
420.548

>  <PUBCHEM_SHAPE_VOLUME>  (1) 
129.9

>  <PUBCHEM_COORDINATE_TYPE>  (1) 
2
5
10

$$$$
