13633
     RDKit          3D

 10 10  0  0  0  0  0  0  0  0999 V2000
   -0.5367   -1.6374   -0.3894 C   0  0  0  0  0  0  0  0  0  0  0  0
    0.5896   -1.5634    0.6515 C   0  0  0  0  0  0  0  0  0  0  0  0
   -1.9133   -1.2703    0.1950 C   0  0  0  0  0  0  0  0  0  0  0  0
    1.9857   -1.2974    0.0705 C   0  0  0  0  0  0  0  0  0  0  0  0
   -2.5226    0.0396   -0.3431 C   0  0  0  0  0  0  0  0  0  0  0  0
    2.2074    0.0195   -0.6978 C   0  0  0  0  0  0  0  0  0  0  0  0
   -1.8907    1.3443    0.1707 C   0  0  0  0  0  0  0  0  0  0  0  0
    1.9860    1.3211    0.0948 C   0  0  0  0  0  0  0  0  0  0  0  0
   -0.4770    1.5037   -0.2935 C   0  0  0  0  0  0  0  0  0  0  0  0
    0.5716    1.5404    0.5413 C   0  0  0  0  0  0  0  0  0  0  0  0
  1  2  1  0
  1  3  1  0
  2  4  1  0
  3  5  1  0
  4  6  1  0
  5  7  1  0
  6  8  1  0
  7  9  1  0
  8 10  1  0
  9 10  2  0
M  END
>  <PUBCHEM_COMPOUND_CID>  (1) 
13633

>  <PUBCHEM_CONFORMER_RMSD>  (1) 
0.4

>  <PUBCHEM_CONFORMER_DIVERSEORDER>  (1) 
1

>  <PUBCHEM_MMFF94_PARTIAL_CHARGES>  (1) 
6
10 -0.29
27 0.15
28 0.15
7 0.14
8 0.14
9 -0.29

>  <PUBCHEM_EFFECTIVE_ROTOR_COUNT>  (1) 
1.6

>  <PUBCHEM_PHARMACOPHORE_FEATURES>  (1) 
0

>  <PUBCHEM_HEAVY_ATOM_COUNT>  (1) 
10

>  <PUBCHEM_ATOM_DEF_STEREO_COUNT>  (1) 
0

>  <PUBCHEM_ATOM_UDEF_STEREO_COUNT>  (1) 
0

>  <PUBCHEM_BOND_DEF_STEREO_COUNT>  (1) 
0

>  <PUBCHEM_BOND_UDEF_STEREO_COUNT>  (1) 
1

>  <PUBCHEM_ISOTOPIC_ATOM_COUNT>  (1) 
0

>  <PUBCHEM_COMPONENT_COUNT>  (1) 
1

>  <PUBCHEM_CACTVS_TAUTO_COUNT>  (1) 
1

>  <PUBCHEM_CONFORMER_ID>  (1) 
0000354100000001

>  <PUBCHEM_MMFF94_ENERGY>  (1) 
16.1584

>  <PUBCHEM_FEATURE_SELFOVERLAP>  (1) 
0

>  <PUBCHEM_SHAPE_FINGERPRINT>  (1) 
12897270 3 18408887351520783253
14251711 518 18340197600264378183
14251717 144 17762612898660451837
15775835 57 18335994068505712404
16945 1 18411421738686525280
18185500 45 17833267515196049674
20201158 50 18340201989725761668
22802520 49 18270422545448003806
23552423 10 18334577983539311085
241688 4 17907578382269048259
2748010 2 18410574023869466935
2897 32 18408605829331067844
5084963 1 17749390342900452791
528862 383 18045507408868842985
63268167 104 18411985775293078907
66348 1 18410855460238944615

>  <PUBCHEM_SHAPE_MULTIPOLES>  (1) 
205.8
3.37
2.28
0.78
0.33
0.07
0
-0.04
-0.34
-0.06
0.21
-0.1
0.03
-0.01

>  <PUBCHEM_SHAPE_SELFOVERLAP>  (1) 
386.34

>  <PUBCHEM_SHAPE_VOLUME>  (1) 
124.8

>  <PUBCHEM_COORDINATE_TYPE>  (1) 
2
5
10

$$$$
