13640
     RDKit          3D

 11 11  0  0  0  0  0  0  0  0999 V2000
    4.3010   -0.2302   -0.0005 Br  0  0  0  0  0  0  0  0  0  0  0  0
   -3.7823   -0.7050    0.0003 O   0  0  0  0  0  0  0  0  0  0  0  0
   -1.7731    0.2110   -0.0005 N   0  0  0  0  0  0  0  0  0  0  0  0
   -2.5645   -0.9119    0.0002 N   0  0  0  0  0  0  0  0  0  0  0  0
   -0.3663    0.1092   -0.0006 C   0  0  0  0  0  0  0  0  0  0  0  0
    0.4164    1.2637   -0.0001 C   0  0  0  0  0  0  0  0  0  0  0  0
    0.2421   -1.1460   -0.0004 C   0  0  0  0  0  0  0  0  0  0  0  0
    1.8076    1.1630    0.0004 C   0  0  0  0  0  0  0  0  0  0  0  0
    1.6334   -1.2466    0.0003 C   0  0  0  0  0  0  0  0  0  0  0  0
    2.4161   -0.0921    0.0007 C   0  0  0  0  0  0  0  0  0  0  0  0
   -2.3305    1.5848    0.0001 C   0  0  0  0  0  0  0  0  0  0  0  0
  1 10  1  0
  2  4  2  0
  3  4  1  0
  3  5  1  0
  3 11  1  0
  5  6  2  0
  5  7  1  0
  6  8  1  0
  7  9  2  0
  8 10  2  0
  9 10  1  0
M  END
>  <PUBCHEM_COMPOUND_CID>  (1) 
13640

>  <PUBCHEM_CONFORMER_RMSD>  (1) 
0.4

>  <PUBCHEM_CONFORMER_DIVERSEORDER>  (1) 
1
5
3
2
4
6
7

>  <PUBCHEM_MMFF94_PARTIAL_CHARGES>  (1) 
14
1 -0.11
10 0.11
11 0.37
12 0.15
13 0.15
14 0.15
15 0.15
2 -0.16
3 -0.3
5 0.1
6 -0.15
7 -0.15
8 -0.15
9 -0.15

>  <PUBCHEM_EFFECTIVE_ROTOR_COUNT>  (1) 
2

>  <PUBCHEM_PHARMACOPHORE_FEATURES>  (1) 
2
1 1 hydrophobe
6 5 6 7 8 9 10 rings

>  <PUBCHEM_HEAVY_ATOM_COUNT>  (1) 
11

>  <PUBCHEM_ATOM_DEF_STEREO_COUNT>  (1) 
0

>  <PUBCHEM_ATOM_UDEF_STEREO_COUNT>  (1) 
0

>  <PUBCHEM_BOND_DEF_STEREO_COUNT>  (1) 
0

>  <PUBCHEM_BOND_UDEF_STEREO_COUNT>  (1) 
0

>  <PUBCHEM_ISOTOPIC_ATOM_COUNT>  (1) 
0

>  <PUBCHEM_COMPONENT_COUNT>  (1) 
1

>  <PUBCHEM_CACTVS_TAUTO_COUNT>  (1) 
1

>  <PUBCHEM_CONFORMER_ID>  (1) 
0000354800000001

>  <PUBCHEM_MMFF94_ENERGY>  (1) 
35.8842

>  <PUBCHEM_FEATURE_SELFOVERLAP>  (1) 
10.148

>  <PUBCHEM_SHAPE_FINGERPRINT>  (1) 
11062470 55 11746933196312867558
12032990 46 18413112740842544630
12897270 3 18409445908012681151
12932764 1 17131819959051864046
13690532 89 18408040706683467810
14325111 11 18410856547166480736
14993402 34 18040441009928177462
16945 1 18410855498925415686
193761 8 17474106501944660288
200 152 18130776872381358189
20201158 50 18407761443092844203
21040471 1 18338799017542473760
21293036 1 18409172125591416590
21501925 9 18409157818849683770
23402539 116 18341322362041531495
23402655 69 18196637511638182661
23463225 33 18334856074561703874
23552423 10 18261396606902433189
2748010 2 18268149751586054438
3312278 4 18341050705354856024
5084963 1 18343304790054070096
528886 8 18339073792169781712
8809292 202 18115030826073341123

>  <PUBCHEM_SHAPE_MULTIPOLES>  (1) 
216.49
6.12
1.5
0.61
0.71
0.22
0
-0.77
0
-0.46
0
0.13
0.01
0

>  <PUBCHEM_SHAPE_SELFOVERLAP>  (1) 
429.386

>  <PUBCHEM_SHAPE_VOLUME>  (1) 
133.2

>  <PUBCHEM_COORDINATE_TYPE>  (1) 
2
5
10

$$$$
