13655
     RDKit          3D

 12 12  0  0  0  0  0  0  0  0999 V2000
   -2.5436    1.8249   -0.0018 Cl  0  0  0  0  0  0  0  0  0  0  0  0
   -1.6106   -2.3883   -0.0011 O   0  0  0  0  0  0  0  0  0  0  0  0
   -3.0184   -0.7038   -0.0001 O   0  0  0  0  0  0  0  0  0  0  0  0
   -1.8507   -1.1583   -0.0001 N   0  0  0  0  0  0  0  0  0  0  0  0
    4.0401   -0.8564   -0.0018 N   0  0  0  0  0  0  0  0  0  0  0  0
   -0.7584   -0.2456    0.0016 C   0  0  0  0  0  0  0  0  0  0  0  0
    0.5373   -0.7623    0.0020 C   0  0  0  0  0  0  0  0  0  0  0  0
   -0.9585    1.1350    0.0005 C   0  0  0  0  0  0  0  0  0  0  0  0
    1.6327    0.1014    0.0013 C   0  0  0  0  0  0  0  0  0  0  0  0
    0.1370    1.9985   -0.0002 C   0  0  0  0  0  0  0  0  0  0  0  0
    1.4326    1.4817    0.0002 C   0  0  0  0  0  0  0  0  0  0  0  0
    2.9605   -0.4268   -0.0005 C   0  0  0  0  0  0  0  0  0  0  0  0
  1  8  1  0
  2  4  1  0
  3  4  2  0
  4  6  1  0
  5 12  3  0
  6  7  2  0
  6  8  1  0
  7  9  1  0
  8 10  2  0
  9 11  2  0
  9 12  1  0
 10 11  1  0
M  CHG  2   2  -1   4   1
M  END
>  <PUBCHEM_COMPOUND_CID>  (1) 
13655

>  <PUBCHEM_CONFORMER_RMSD>  (1) 
0.4

>  <PUBCHEM_CONFORMER_DIVERSEORDER>  (1) 
1

>  <PUBCHEM_MMFF94_PARTIAL_CHARGES>  (1) 
15
1 -0.18
10 -0.15
11 -0.15
12 0.48
13 0.15
14 0.15
15 0.15
2 -0.52
3 -0.52
4 0.91
5 -0.56
6 0.13
7 -0.15
8 0.18
9 0.07

>  <PUBCHEM_EFFECTIVE_ROTOR_COUNT>  (1) 
1

>  <PUBCHEM_PHARMACOPHORE_FEATURES>  (1) 
5
1 2 acceptor
1 2 anion
1 3 acceptor
1 5 acceptor
6 6 7 8 9 10 11 rings

>  <PUBCHEM_HEAVY_ATOM_COUNT>  (1) 
12

>  <PUBCHEM_ATOM_DEF_STEREO_COUNT>  (1) 
0

>  <PUBCHEM_ATOM_UDEF_STEREO_COUNT>  (1) 
0

>  <PUBCHEM_BOND_DEF_STEREO_COUNT>  (1) 
0

>  <PUBCHEM_BOND_UDEF_STEREO_COUNT>  (1) 
0

>  <PUBCHEM_ISOTOPIC_ATOM_COUNT>  (1) 
0

>  <PUBCHEM_COMPONENT_COUNT>  (1) 
1

>  <PUBCHEM_CACTVS_TAUTO_COUNT>  (1) 
1

>  <PUBCHEM_CONFORMER_ID>  (1) 
0000355700000001

>  <PUBCHEM_MMFF94_ENERGY>  (1) 
36.53

>  <PUBCHEM_FEATURE_SELFOVERLAP>  (1) 
25.453

>  <PUBCHEM_SHAPE_FINGERPRINT>  (1) 
13380535 220 18334016107269996980
13380535 76 18197776600708615207
14128692 85 18336270136493124252
16945 1 18050286169639007173
193761 8 18266459986803180932
20588541 1 18198343953167123044
20711985 365 18410293622666417149
20871998 184 18201438051896704862
21040471 1 18266741272832849153
21501502 16 18339085985418742508
23402539 116 18199455589519367357
23463225 33 18335984156143199254
23552423 10 18116433824321519628
23559900 14 18270115705169707806
241688 4 18335982046892523920
2748010 2 18339636840844413620
528886 8 18267016163619297025
6333449 129 18340765936080102964
7364860 26 18197780118688153384
75552 356 18411699850893792692

>  <PUBCHEM_SHAPE_MULTIPOLES>  (1) 
227.12
4.74
2.19
0.59
2.97
0.14
0
1
0
-1.38
0
0.01
-0.05
0

>  <PUBCHEM_SHAPE_SELFOVERLAP>  (1) 
472.31

>  <PUBCHEM_SHAPE_VOLUME>  (1) 
129.7

>  <PUBCHEM_COORDINATE_TYPE>  (1) 
2
5
10

$$$$
