13652
     RDKit          3D

 12 13  0  0  0  0  0  0  0  0999 V2000
   -1.8023    0.0216    0.2853 C   0  0  0  0  0  0  0  0  0  0  0  0
    0.5480   -0.5810    0.1097 C   0  0  0  0  0  0  0  0  0  0  0  0
    0.8820    0.7879   -0.0227 C   0  0  0  0  0  0  0  0  0  0  0  0
   -3.2281   -0.3854    0.4491 C   0  0  0  0  0  0  0  0  0  0  0  0
   -0.7990   -0.9476    0.2630 C   0  0  0  0  0  0  0  0  0  0  0  0
   -1.4740    1.3678    0.1552 C   0  0  0  0  0  0  0  0  0  0  0  0
   -0.1409    1.7499    0.0020 C   0  0  0  0  0  0  0  0  0  0  0  0
    1.5709   -1.5430    0.0847 C   0  0  0  0  0  0  0  0  0  0  0  0
    2.2289    1.1545   -0.1761 C   0  0  0  0  0  0  0  0  0  0  0  0
   -3.9216   -0.6492   -0.8830 C   0  0  0  0  0  0  0  0  0  0  0  0
    2.9039   -1.1609   -0.0684 C   0  0  0  0  0  0  0  0  0  0  0  0
    3.2323    0.1854   -0.1985 C   0  0  0  0  0  0  0  0  0  0  0  0
  1  4  1  0
  1  5  2  0
  1  6  1  0
  2  3  2  0
  2  5  1  0
  2  8  1  0
  3  7  1  0
  3  9  1  0
  4 10  1  0
  6  7  2  0
  8 11  2  0
  9 12  2  0
 11 12  1  0
M  END
>  <PUBCHEM_COMPOUND_CID>  (1) 
13652

>  <PUBCHEM_CONFORMER_RMSD>  (1) 
0.4

>  <PUBCHEM_CONFORMER_DIVERSEORDER>  (1) 
2
1
3
4

>  <PUBCHEM_MMFF94_PARTIAL_CHARGES>  (1) 
16
1 -0.14
11 -0.15
12 -0.15
15 0.15
16 0.15
17 0.15
18 0.15
19 0.15
23 0.15
24 0.15
4 0.14
5 -0.15
6 -0.15
7 -0.15
8 -0.15
9 -0.15

>  <PUBCHEM_EFFECTIVE_ROTOR_COUNT>  (1) 
1

>  <PUBCHEM_PHARMACOPHORE_FEATURES>  (1) 
3
1 10 hydrophobe
6 1 2 3 5 6 7 rings
6 2 3 8 9 11 12 rings

>  <PUBCHEM_HEAVY_ATOM_COUNT>  (1) 
12

>  <PUBCHEM_ATOM_DEF_STEREO_COUNT>  (1) 
0

>  <PUBCHEM_ATOM_UDEF_STEREO_COUNT>  (1) 
0

>  <PUBCHEM_BOND_DEF_STEREO_COUNT>  (1) 
0

>  <PUBCHEM_BOND_UDEF_STEREO_COUNT>  (1) 
0

>  <PUBCHEM_ISOTOPIC_ATOM_COUNT>  (1) 
0

>  <PUBCHEM_COMPONENT_COUNT>  (1) 
1

>  <PUBCHEM_CACTVS_TAUTO_COUNT>  (1) 
1

>  <PUBCHEM_CONFORMER_ID>  (1) 
0000355400000002

>  <PUBCHEM_MMFF94_ENERGY>  (1) 
30.8156

>  <PUBCHEM_FEATURE_SELFOVERLAP>  (1) 
15.249

>  <PUBCHEM_SHAPE_FINGERPRINT>  (1) 
10219947 1 18413111679568845583
11206711 2 18261680255138020165
11471102 20 18408601482855760885
11769659 78 18341046315866520418
12032990 46 18409176514552413179
12897270 3 18408044008906488082
13380535 76 18336548308640224690
14251717 144 18412258471530898183
14325111 11 18410296886773035768
14576447 43 18128524058839840495
14993402 34 18201719587034716599
15757776 16 18409161121315797215
16945 1 18337117842493368784
17844478 74 17895204302611783961
18186145 218 17603866685093472731
193761 8 17760931740437177387
200 152 18272080591781383919
20201158 50 18334014999162860883
20645477 70 18410570669964726279
21501502 16 18265901263234391232
21501925 9 18335973186860048594
221490 88 17976259359462051819
2334 1 17617664692443562680
23402539 116 18341041956501056486
23402655 69 18411132516058467301
23463225 33 18409452457658459424
23552423 10 18188498960459019978
2748010 2 18265333910950008580
5084963 1 18271527507204278816
528886 8 18338515343400102458
53812654 25 18130495414009737398
57096353 35 18410300232673788188
581208 293 18340764935537300368
7364860 26 18343024436686562584
8030462 33 18261968366060645014

>  <PUBCHEM_SHAPE_MULTIPOLES>  (1) 
246.95
5.56
1.65
0.72
2.46
0.28
0.05
-1.42
0.9
-0.45
-0.01
0.31
-0.05
-0.2

>  <PUBCHEM_SHAPE_SELFOVERLAP>  (1) 
533.516

>  <PUBCHEM_SHAPE_VOLUME>  (1) 
126.9

>  <PUBCHEM_COORDINATE_TYPE>  (1) 
2
5
10

$$$$
