13667
     RDKit          3D

 13 13  0  0  0  0  0  0  0  0999 V2000
    0.8108    0.2745    0.9141 O   0  0  0  0  0  0  0  0  0  0  0  0
    1.5331    0.6120   -1.2702 O   0  0  0  0  0  0  0  0  0  0  0  0
    3.0552    0.2846    0.4498 N   0  0  0  0  0  0  0  0  0  0  0  0
   -0.1140   -3.0906    0.0675 N   0  0  0  0  0  0  0  0  0  0  0  0
   -0.4758    0.3852    0.4755 C   0  0  0  0  0  0  0  0  0  0  0  0
   -1.1930   -0.7326    0.0495 C   0  0  0  0  0  0  0  0  0  0  0  0
   -1.0737    1.6453    0.4588 C   0  0  0  0  0  0  0  0  0  0  0  0
   -2.5081   -0.5905   -0.3932 C   0  0  0  0  0  0  0  0  0  0  0  0
   -2.3888    1.7876    0.0163 C   0  0  0  0  0  0  0  0  0  0  0  0
   -3.1059    0.6697   -0.4099 C   0  0  0  0  0  0  0  0  0  0  0  0
    1.7905    0.4109   -0.0869 C   0  0  0  0  0  0  0  0  0  0  0  0
    4.2669    0.3777   -0.3309 C   0  0  0  0  0  0  0  0  0  0  0  0
   -0.5974   -2.0338    0.0594 C   0  0  0  0  0  0  0  0  0  0  0  0
  1  5  1  0
  1 11  1  0
  2 11  2  0
  3 11  1  0
  3 12  1  0
  4 13  3  0
  5  6  2  0
  5  7  1  0
  6  8  1  0
  6 13  1  0
  7  9  2  0
  8 10  2  0
  9 10  1  0
M  END
>  <PUBCHEM_COMPOUND_CID>  (1) 
13667

>  <PUBCHEM_CONFORMER_RMSD>  (1) 
0.6

>  <PUBCHEM_CONFORMER_DIVERSEORDER>  (1) 
1
20
11
18
17
12
7
19
10
3
8
14
16
4
15
13
9
2
5
6

>  <PUBCHEM_MMFF94_PARTIAL_CHARGES>  (1) 
18
1 -0.23
10 -0.15
11 0.78
12 0.3
13 0.48
14 0.15
15 0.15
16 0.15
17 0.15
18 0.37
2 -0.57
3 -0.73
4 -0.56
5 0.08
6 0.07
7 -0.15
8 -0.15
9 -0.15

>  <PUBCHEM_EFFECTIVE_ROTOR_COUNT>  (1) 
3

>  <PUBCHEM_PHARMACOPHORE_FEATURES>  (1) 
4
1 2 acceptor
1 3 donor
1 4 acceptor
6 5 6 7 8 9 10 rings

>  <PUBCHEM_HEAVY_ATOM_COUNT>  (1) 
13

>  <PUBCHEM_ATOM_DEF_STEREO_COUNT>  (1) 
0

>  <PUBCHEM_ATOM_UDEF_STEREO_COUNT>  (1) 
0

>  <PUBCHEM_BOND_DEF_STEREO_COUNT>  (1) 
0

>  <PUBCHEM_BOND_UDEF_STEREO_COUNT>  (1) 
0

>  <PUBCHEM_ISOTOPIC_ATOM_COUNT>  (1) 
0

>  <PUBCHEM_COMPONENT_COUNT>  (1) 
1

>  <PUBCHEM_CACTVS_TAUTO_COUNT>  (1) 
2

>  <PUBCHEM_CONFORMER_ID>  (1) 
0000356300000001

>  <PUBCHEM_MMFF94_ENERGY>  (1) 
28.596

>  <PUBCHEM_FEATURE_SELFOVERLAP>  (1) 
20.297

>  <PUBCHEM_SHAPE_FINGERPRINT>  (1) 
10726558 24 18338237059441576885
12500047 106 18411695509177657124
12716758 59 18340763853168527816
13024252 1 13406790043201618837
14614273 12 18262512577325390373
14993402 34 18187359934963562796
15207287 21 17775001310417373982
15669948 3 18337105791216036826
15775835 57 18114180800363267572
16945 1 18339082695478620241
18534176 82 18271814574355080684
20201158 50 17632298977603282380
20645476 183 18113334240813205991
20645477 56 18410294748391200736
20871998 184 18199755923454881479
23402539 116 18342728641750635373
23419403 2 13611954626393634566
23552423 10 18050561846921363323
23559900 14 18273210907579375064
2748010 2 18339091388640425767
305870 269 18263926523065365887
3250762 1 17694209372170793241
43471831 8 18336823096131491371
7364860 26 17982166712877363903
81228 2 17978781638803542683

>  <PUBCHEM_SHAPE_MULTIPOLES>  (1) 
245.83
5.22
2.22
0.82
5.19
1.9
0.07
-2
0.88
-1.04
-0.14
0.15
-0.12
-0.13

>  <PUBCHEM_SHAPE_SELFOVERLAP>  (1) 
510.479

>  <PUBCHEM_SHAPE_VOLUME>  (1) 
136.7

>  <PUBCHEM_COORDINATE_TYPE>  (1) 
2
5
10

$$$$
