13664
     RDKit          3D

 13 15  0  0  0  0  0  0  0  0999 V2000
   -0.0005    1.6417   -0.0447 N   0  0  0  0  0  0  0  0  0  0  0  0
    0.7008   -0.4724    0.0121 C   0  0  0  0  0  0  0  0  0  0  0  0
    1.1078    0.8451   -0.0196 C   0  0  0  0  0  0  0  0  0  0  0  0
    1.6697   -1.6043    0.0603 C   0  0  0  0  0  0  0  0  0  0  0  0
    2.5110    1.3341   -0.0544 C   0  0  0  0  0  0  0  0  0  0  0  0
    3.0865   -1.1415   -0.3320 C   0  0  0  0  0  0  0  0  0  0  0  0
    3.4683    0.1929    0.3366 C   0  0  0  0  0  0  0  0  0  0  0  0
   -0.7225   -0.4776    0.0143 C   0  0  0  0  0  0  0  0  0  0  0  0
   -1.1354    0.8589   -0.0230 C   0  0  0  0  0  0  0  0  0  0  0  0
   -1.7047   -1.4883    0.0464 C   0  0  0  0  0  0  0  0  0  0  0  0
   -2.4848    1.2307   -0.0327 C   0  0  0  0  0  0  0  0  0  0  0  0
   -3.0572   -1.1292    0.0379 C   0  0  0  0  0  0  0  0  0  0  0  0
   -3.4390    0.2100   -0.0012 C   0  0  0  0  0  0  0  0  0  0  0  0
  1  3  1  0
  1  9  1  0
  2  3  2  0
  2  4  1  0
  2  8  1  0
  3  5  1  0
  4  6  1  0
  5  7  1  0
  6  7  1  0
  8  9  2  0
  8 10  1  0
  9 11  1  0
 10 12  2  0
 11 13  2  0
 12 13  1  0
M  END
>  <PUBCHEM_COMPOUND_CID>  (1) 
13664

>  <PUBCHEM_CONFORMER_RMSD>  (1) 
0.4

>  <PUBCHEM_CONFORMER_DIVERSEORDER>  (1) 
1

>  <PUBCHEM_MMFF94_PARTIAL_CHARGES>  (1) 
15
1 0.03
10 -0.15
11 -0.15
12 -0.15
13 -0.15
2 -0.18
22 0.27
23 0.15
24 0.15
25 0.15
26 0.15
3 -0.33
4 0.18
5 0.18
9 -0.15

>  <PUBCHEM_EFFECTIVE_ROTOR_COUNT>  (1) 
0.8

>  <PUBCHEM_PHARMACOPHORE_FEATURES>  (1) 
5
1 1 cation
1 1 donor
5 1 2 3 8 9 rings
6 2 3 4 5 6 7 rings
6 8 9 10 11 12 13 rings

>  <PUBCHEM_HEAVY_ATOM_COUNT>  (1) 
13

>  <PUBCHEM_ATOM_DEF_STEREO_COUNT>  (1) 
0

>  <PUBCHEM_ATOM_UDEF_STEREO_COUNT>  (1) 
0

>  <PUBCHEM_BOND_DEF_STEREO_COUNT>  (1) 
0

>  <PUBCHEM_BOND_UDEF_STEREO_COUNT>  (1) 
0

>  <PUBCHEM_ISOTOPIC_ATOM_COUNT>  (1) 
0

>  <PUBCHEM_COMPONENT_COUNT>  (1) 
1

>  <PUBCHEM_CACTVS_TAUTO_COUNT>  (1) 
1

>  <PUBCHEM_CONFORMER_ID>  (1) 
0000356000000001

>  <PUBCHEM_MMFF94_ENERGY>  (1) 
18.8565

>  <PUBCHEM_FEATURE_SELFOVERLAP>  (1) 
25.547

>  <PUBCHEM_SHAPE_FINGERPRINT>  (1) 
10608611 8 18410851062092641928
10967382 1 18410574023816784262
11132069 177 18411130346793891120
11471102 20 18410851057828920573
11769659 78 18411414016330253695
11806522 49 18267017443788654527
12032990 46 18410299111555493579
12382932 28 18413106151898326722
12932764 1 17531241721211465253
13296908 3 18411703183609280726
13380535 76 18410290324063163371
14144814 61 18410856546834067595
14325111 11 18410855473018559296
15196674 1 18410573985172686570
15219456 202 18412825780696542876
15442244 35 18195528090966440210
15536298 74 18343584040733463478
16945 1 18337105653270700604
17844478 74 17968104109713923329
18186145 218 17894910715447542471
193761 8 17257653313910755861
200 152 18060126670454351519
20201158 50 18410292501616727258
20510252 161 18200876184328134105
20645477 70 18341327816966742471
20871998 184 18201722881491124847
21267235 1 18410583885067327915
21501502 16 18410576197070184085
21501925 9 18410001161289873018
2334 1 18410575123323091822
23402539 116 18202273689925272269
23402655 69 18268977727598713997
23463225 33 18408321090390143772
23552423 10 18261114092548963654
23559900 14 18268988696839672878
2748010 2 18410573985156758551
3312278 4 18411704291700020873
5104073 3 18410856563940045610
528886 8 18411131446289753074
53812653 166 18271520991802428248
57096353 35 18338517576535053534
69090 78 18342451539467343703
7364860 26 18270119136141981424
8809292 202 18260835920391989627
9709674 26 18411704308922705150

>  <PUBCHEM_SHAPE_MULTIPOLES>  (1) 
262.55
5.66
1.76
0.63
0.15
0.06
0
0.46
-0.07
0.1
0.03
0.06
0.02
0.11

>  <PUBCHEM_SHAPE_SELFOVERLAP>  (1) 
580.566

>  <PUBCHEM_SHAPE_VOLUME>  (1) 
142

>  <PUBCHEM_COORDINATE_TYPE>  (1) 
2
5
10

$$$$
