13678
     RDKit          3D

 14 14  0  0  0  0  0  0  0  0999 V2000
   -1.5959   -2.6935   -0.1832 Cl  0  0  0  0  0  0  0  0  0  0  0  0
    1.5982   -2.6918   -0.1820 Cl  0  0  0  0  0  0  0  0  0  0  0  0
   -1.5988    2.6917   -0.1814 Cl  0  0  0  0  0  0  0  0  0  0  0  0
    1.5965    2.6928   -0.1827 Cl  0  0  0  0  0  0  0  0  0  0  0  0
   -2.7614   -0.0012   -0.1807 O   0  0  0  0  0  0  0  0  0  0  0  0
    2.7611    0.0006   -0.1809 O   0  0  0  0  0  0  0  0  0  0  0  0
   -1.3950   -0.0006   -0.1820 C   0  0  0  0  0  0  0  0  0  0  0  0
    1.3947    0.0004   -0.1809 C   0  0  0  0  0  0  0  0  0  0  0  0
   -0.6972   -1.2083   -0.1807 C   0  0  0  0  0  0  0  0  0  0  0  0
    0.6977   -1.2079   -0.1802 C   0  0  0  0  0  0  0  0  0  0  0  0
   -0.6979    1.2076   -0.1829 C   0  0  0  0  0  0  0  0  0  0  0  0
    0.6969    1.2081   -0.1823 C   0  0  0  0  0  0  0  0  0  0  0  0
   -3.4043    0.0006    1.0904 C   0  0  0  0  0  0  0  0  0  0  0  0
    3.4051    0.0014    1.0896 C   0  0  0  0  0  0  0  0  0  0  0  0
  1  9  1  0
  2 10  1  0
  3 11  1  0
  4 12  1  0
  5  7  1  0
  5 13  1  0
  6  8  1  0
  6 14  1  0
  7  9  2  0
  7 11  1  0
  8 10  2  0
  8 12  1  0
  9 10  1  0
 11 12  2  0
M  END
>  <PUBCHEM_COMPOUND_CID>  (1) 
13678

>  <PUBCHEM_CONFORMER_RMSD>  (1) 
0.6

>  <PUBCHEM_CONFORMER_DIVERSEORDER>  (1) 
1

>  <PUBCHEM_MMFF94_PARTIAL_CHARGES>  (1) 
14
1 -0.18
10 0.18
11 0.18
12 0.18
13 0.28
14 0.28
2 -0.18
3 -0.18
4 -0.18
5 -0.36
6 -0.36
7 0.08
8 0.08
9 0.18

>  <PUBCHEM_EFFECTIVE_ROTOR_COUNT>  (1) 
2

>  <PUBCHEM_PHARMACOPHORE_FEATURES>  (1) 
3
1 5 acceptor
1 6 acceptor
6 7 8 9 10 11 12 rings

>  <PUBCHEM_HEAVY_ATOM_COUNT>  (1) 
14

>  <PUBCHEM_ATOM_DEF_STEREO_COUNT>  (1) 
0

>  <PUBCHEM_ATOM_UDEF_STEREO_COUNT>  (1) 
0

>  <PUBCHEM_BOND_DEF_STEREO_COUNT>  (1) 
0

>  <PUBCHEM_BOND_UDEF_STEREO_COUNT>  (1) 
0

>  <PUBCHEM_ISOTOPIC_ATOM_COUNT>  (1) 
0

>  <PUBCHEM_COMPONENT_COUNT>  (1) 
1

>  <PUBCHEM_CACTVS_TAUTO_COUNT>  (1) 
1

>  <PUBCHEM_CONFORMER_ID>  (1) 
0000356E00000001

>  <PUBCHEM_MMFF94_ENERGY>  (1) 
57.0212

>  <PUBCHEM_FEATURE_SELFOVERLAP>  (1) 
15.223

>  <PUBCHEM_SHAPE_FINGERPRINT>  (1) 
10967382 1 18410575097569092933
11132069 177 18411691119409909402
11471102 22 18191331367116236275
11680986 33 17906448831734864882
12251169 10 18410574032396091681
12382932 28 18412545435380926163
13140716 1 18266459995371471216
13172582 1 18410855490192933010
13380535 76 17975123254491134069
14617773 55 17841431741457293479
161256 15 18197224646098519854
16945 1 18410855464423129270
193761 8 18410856559639789775
20510252 161 18271803476091425648
20588541 1 18411985758108136190
21501502 16 18122626325221998623
2334 1 17978228592727850255
23463225 33 18264204897080976516
23526114 1 18122062280073119941
23552423 10 17900820758119348668
23559900 14 17911242716304210870
241688 4 17905896876834366040
2748010 2 18122626041754157335
53812653 166 18199178503925451512

>  <PUBCHEM_SHAPE_MULTIPOLES>  (1) 
283.85
4.32
3.33
0.82
0
0
-0.18
0
-1.46
0
0.5
0
0
0

>  <PUBCHEM_SHAPE_SELFOVERLAP>  (1) 
555.335

>  <PUBCHEM_SHAPE_VOLUME>  (1) 
175.4

>  <PUBCHEM_COORDINATE_TYPE>  (1) 
2
5
10

$$$$
