13674
     RDKit          3D

 13 14  0  0  0  0  0  0  0  0999 V2000
    3.1373    0.3028   -0.7555 O   0  0  0  0  0  0  0  0  0  0  0  0
   -1.2311    0.4328    0.3129 N   0  0  0  0  0  0  0  0  0  0  0  0
    2.0201    1.1066   -0.9466 N   0  0  0  0  0  0  0  0  0  0  0  0
   -1.2904   -0.5176   -0.8065 C   0  0  0  0  0  0  0  0  0  0  0  0
   -2.5141    1.1279    0.4882 C   0  0  0  0  0  0  0  0  0  0  0  0
   -2.3840   -1.5638   -0.5850 C   0  0  0  0  0  0  0  0  0  0  0  0
   -3.6476    0.1355    0.7520 C   0  0  0  0  0  0  0  0  0  0  0  0
   -3.7406   -0.9076   -0.3558 C   0  0  0  0  0  0  0  0  0  0  0  0
   -0.1505    1.3972    0.1086 C   0  0  0  0  0  0  0  0  0  0  0  0
    1.1892    0.7270    0.0083 C   0  0  0  0  0  0  0  0  0  0  0  0
    1.6791   -0.2804    0.8273 C   0  0  0  0  0  0  0  0  0  0  0  0
    2.9222   -0.5188    0.3036 C   0  0  0  0  0  0  0  0  0  0  0  0
    4.0105   -1.4416    0.6487 C   0  0  0  0  0  0  0  0  0  0  0  0
  1  3  1  0
  1 12  1  0
  2  4  1  0
  2  5  1  0
  2  9  1  0
  3 10  2  0
  4  6  1  0
  5  7  1  0
  6  8  1  0
  7  8  1  0
  9 10  1  0
 10 11  1  0
 11 12  2  0
 12 13  1  0
M  END
>  <PUBCHEM_COMPOUND_CID>  (1) 
13674

>  <PUBCHEM_CONFORMER_RMSD>  (1) 
0.6

>  <PUBCHEM_CONFORMER_DIVERSEORDER>  (1) 
1
5
9
10
13
15
2
6
3
12
7
8
4
11
14

>  <PUBCHEM_MMFF94_PARTIAL_CHARGES>  (1) 
11
1 -0.02
10 0.11
11 -0.15
12 -0.04
13 0.18
2 -0.81
26 0.15
3 -0.41
4 0.27
5 0.27
9 0.45

>  <PUBCHEM_EFFECTIVE_ROTOR_COUNT>  (1) 
3.2

>  <PUBCHEM_PHARMACOPHORE_FEATURES>  (1) 
4
1 2 cation
1 3 acceptor
5 1 3 10 11 12 rings
6 2 4 5 6 7 8 rings

>  <PUBCHEM_HEAVY_ATOM_COUNT>  (1) 
13

>  <PUBCHEM_ATOM_DEF_STEREO_COUNT>  (1) 
0

>  <PUBCHEM_ATOM_UDEF_STEREO_COUNT>  (1) 
0

>  <PUBCHEM_BOND_DEF_STEREO_COUNT>  (1) 
0

>  <PUBCHEM_BOND_UDEF_STEREO_COUNT>  (1) 
0

>  <PUBCHEM_ISOTOPIC_ATOM_COUNT>  (1) 
0

>  <PUBCHEM_COMPONENT_COUNT>  (1) 
1

>  <PUBCHEM_CACTVS_TAUTO_COUNT>  (1) 
1

>  <PUBCHEM_CONFORMER_ID>  (1) 
0000356A00000001

>  <PUBCHEM_MMFF94_ENERGY>  (1) 
8.17

>  <PUBCHEM_FEATURE_SELFOVERLAP>  (1) 
20.297

>  <PUBCHEM_SHAPE_FINGERPRINT>  (1) 
10130415 120 18343585161361322657
11769659 78 18410569600000430427
12346177 29 17703498948650968469
124424 183 16845285003944328368
12932764 1 18409731785178331053
13581323 91 17917710197161453161
13690532 89 18413102884061327431
14144814 61 18343022211529103641
15375462 189 18408886226350050394
17804303 29 18060422408426647187
18186145 218 16081087073673207729
190213 19 18259983786184990969
19049666 15 15983438256262217185
19422 9 18335425676971028371
20279233 1 16271927107924990261
20281475 54 18409728495164550711
20361792 2 18187075169973253621
20645464 45 16415474952533264187
20645477 70 17967525779124191787
22169311 14 17346593071374393642
22485316 2 18410852165988576568
2255824 54 18260553376506160980
22646028 28 18409163311786080450
232386 152 18272367589911937886
23402655 69 17967813825405977988
23463225 33 18411983541915522071
23552423 10 17979071910073670373
23559900 14 17489598827070641732
23598291 2 18261402117562076916
465052 167 18337402655435570275
474 4 17973165324956636884
57812782 119 16200152101582049357
7364860 26 17843963890718695449
74978 22 18269833271697755021
77492 1 18408612469340107317
81228 2 16414097191164686528

>  <PUBCHEM_SHAPE_MULTIPOLES>  (1) 
251.7
7.22
1.48
0.94
1
0.13
0.03
2.61
-0.85
-0.18
0.07
0.13
0.01
-0.96

>  <PUBCHEM_SHAPE_SELFOVERLAP>  (1) 
514.874

>  <PUBCHEM_SHAPE_VOLUME>  (1) 
147.7

>  <PUBCHEM_COORDINATE_TYPE>  (1) 
2
5
10

$$$$
