13686
     RDKit          3D

 14 14  0  0  0  0  0  0  0  0999 V2000
   -4.7750    1.9281   -0.8927 Cl  0  0  0  0  0  0  0  0  0  0  0  0
    0.7688   -0.8920    0.4678 O   0  0  0  0  0  0  0  0  0  0  0  0
   -2.6768    0.0511    0.2992 O   0  0  0  0  0  0  0  0  0  0  0  0
   -1.6138   -1.9276   -0.2327 O   0  0  0  0  0  0  0  0  0  0  0  0
    1.9715   -0.3148    0.1992 C   0  0  0  0  0  0  0  0  0  0  0  0
   -0.3568   -0.0230    0.5856 C   0  0  0  0  0  0  0  0  0  0  0  0
   -3.9357   -0.5238   -0.0654 C   0  0  0  0  0  0  0  0  0  0  0  0
    2.2394    0.9796    0.6450 C   0  0  0  0  0  0  0  0  0  0  0  0
    2.9366   -1.0175   -0.5224 C   0  0  0  0  0  0  0  0  0  0  0  0
   -1.5945   -0.7704    0.1642 C   0  0  0  0  0  0  0  0  0  0  0  0
    3.4719    1.5714    0.3690 C   0  0  0  0  0  0  0  0  0  0  0  0
    4.1693   -0.4257   -0.7983 C   0  0  0  0  0  0  0  0  0  0  0  0
   -5.0416    0.4960    0.1339 C   0  0  0  0  0  0  0  0  0  0  0  0
    4.4368    0.8688   -0.3525 C   0  0  0  0  0  0  0  0  0  0  0  0
  1 13  1  0
  2  5  1  0
  2  6  1  0
  3  7  1  0
  3 10  1  0
  4 10  2  0
  5  8  2  0
  5  9  1  0
  6 10  1  0
  7 13  1  0
  8 11  1  0
  9 12  2  0
 11 14  2  0
 12 14  1  0
M  END
>  <PUBCHEM_COMPOUND_CID>  (1) 
13686

>  <PUBCHEM_CONFORMER_RMSD>  (1) 
0.6

>  <PUBCHEM_CONFORMER_DIVERSEORDER>  (1) 
1
347
130
242
393
123
32
210
398
253
191
48
143
156
107
419
404
343
22
247
179
296
237
57
73
109
291
267
400
16
137
350
232
277
11
172
376
158
121
33
163
38
337
316
8
388
169
224
24
335
31
250
391
418
4
396
339
275
117
50
289
104
255
305
7
407
161
155
293
286
357
61
321
390
76
51
206
349
5
44
180
198
72
302
126
367
203
238
100
131
108
136
252
17
30
122
10
226
215
373
384
208
62
405
159
217
197
371
119
362
229
411
417
322
149
157
134
188
282
241
278
45
205
317
351
28
95
124
270
326
160
167
25
236
39
59
69
23
97
227
340
34
176
246
348
56
166
214
18
225
281
395
165
284
223
182
260
144
78
334
381
14
336
231
173
202
43
331
409
243
125
370
408
15
295
133
36
249
58
352
26
299
402
200
329
294
135
111
361
219
82
55
92
2
330
90
21
174
300
262
53
235
304
338
323
89
3
345
221
190
287
310
254
40
422
66
71
20
415
187
6
309
93
319
74
341
420
147
257
37
364
12
383
271
211
356
244
183
280
13
265
75
213
209
192
207
328
47
195
77
332
412
84
318
102
222
346
375
301
115
378
171
80
86
186
132
185
406
312
308
106
399
279
162
98
70
233
9
245
146
91
264
138
285
359
127
94
60
154
234
380
230
175
120
353
113
358
152
387
369
307
401
145
194
67
363
374
397
274
239
46
114
292
259
68
394
27
65
377
355
327
29
266
64
199
110
218
283
96
256
52
42
333
248
315
303
148
196
81
228
263
139
184
164
105
372
216
189
88
386
240
368
150
311
129
140
101
382
314
83
298
403
313
344
290
269
220
19
416
421
177
212
324
389
128
354
273
366
342
392
170
306
272
79
112
178
201
85
118
49
142
325
204
268
360
151
297
168
99
41
288
54
414
258
116
379
35
413
87
103
63
385
141
276
365
251
261
181
153
320
410
193

>  <PUBCHEM_MMFF94_PARTIAL_CHARGES>  (1) 
19
1 -0.29
10 0.66
11 -0.15
12 -0.15
13 0.29
14 -0.15
19 0.15
2 -0.36
20 0.15
23 0.15
24 0.15
25 0.15
3 -0.43
4 -0.57
5 0.08
6 0.34
7 0.28
8 -0.15
9 -0.15

>  <PUBCHEM_EFFECTIVE_ROTOR_COUNT>  (1) 
6

>  <PUBCHEM_PHARMACOPHORE_FEATURES>  (1) 
3
1 2 acceptor
1 4 acceptor
6 5 8 9 11 12 14 rings

>  <PUBCHEM_HEAVY_ATOM_COUNT>  (1) 
14

>  <PUBCHEM_ATOM_DEF_STEREO_COUNT>  (1) 
0

>  <PUBCHEM_ATOM_UDEF_STEREO_COUNT>  (1) 
0

>  <PUBCHEM_BOND_DEF_STEREO_COUNT>  (1) 
0

>  <PUBCHEM_BOND_UDEF_STEREO_COUNT>  (1) 
0

>  <PUBCHEM_ISOTOPIC_ATOM_COUNT>  (1) 
0

>  <PUBCHEM_COMPONENT_COUNT>  (1) 
1

>  <PUBCHEM_CACTVS_TAUTO_COUNT>  (1) 
1

>  <PUBCHEM_CONFORMER_ID>  (1) 
0000357600000001

>  <PUBCHEM_MMFF94_ENERGY>  (1) 
30.6462

>  <PUBCHEM_FEATURE_SELFOVERLAP>  (1) 
15.23

>  <PUBCHEM_SHAPE_FINGERPRINT>  (1) 
10014705 185 18410854403866887377
100836 57 18113624490392180788
10498660 4 18261386703146328805
11471102 20 18202005438957433576
12251169 10 11386363772848090330
12500047 106 18341611567980668590
12596602 18 14851896845990312821
13081056 2 18410012135226823665
14123255 352 18187359879814855285
14123255 52 18334572443258411019
1420 369 10087634927512507893
14252887 29 12252177446656123672
15239154 128 18333449829085932869
177051 138 10015866487425249059
17834072 32 18263077726639807213
17834072 33 18060135483431928135
17834072 8 18343869891786074292
17959699 21 18408886251998989176
18186145 218 18344143683472396371
193927 3 11959721729260987413
200 152 16415483739741030835
20432913 95 8574712420829153613
20645477 56 18339080492387244353
20645477 70 17846226535598901982
20871999 31 18129936905485309471
21119208 17 17988929985024907322
212847 35 18187081733047161720
221357 26 18202278083529545097
22289505 5 18341892961637954236
231179 274 18408885122406324339
23402539 116 18272082803357232053
23402655 69 18201722859836667116
23559900 14 18060420231463875146
29717793 49 16558759983555337140
3060560 45 17846504733916115798
32948 21 18336267851475421462
3545911 37 18342179998217030819
4028521 119 18410292501933244945
42 15 8718836383206541018
4990 188 18273218594579246374
522135 26 18343867706011769226
633830 44 17895193359156562894
77779 3 18341897432403282739
90127 26 18187373142119769417
93112 12 18202286947977572874

>  <PUBCHEM_SHAPE_MULTIPOLES>  (1) 
272.38
11.37
1.64
0.84
7.78
0.29
0.07
4.53
2.39
0.58
0.21
-0.11
0.12
0.92

>  <PUBCHEM_SHAPE_SELFOVERLAP>  (1) 
540.925

>  <PUBCHEM_SHAPE_VOLUME>  (1) 
161.7

>  <PUBCHEM_COORDINATE_TYPE>  (1) 
2
5
10

$$$$
