1368
     RDKit          3D

 13 13  0  0  1  0  0  0  0  0999 V2000
   -1.8728   -1.9897   -0.3603 O   0  0  0  0  0  0  0  0  0  0  0  0
    2.7724   -1.6194   -0.5714 O   0  0  0  0  0  0  0  0  0  0  0  0
   -2.4276   -0.0722   -1.4610 O   0  0  0  0  0  0  0  0  0  0  0  0
    3.3593    0.2512    0.5913 O   0  0  0  0  0  0  0  0  0  0  0  0
   -2.0103   -0.3348    1.8280 N   0  0  0  0  0  0  0  0  0  0  0  0
   -1.2320    0.0427    0.6465 C   0  0  0  0  0  0  0  0  0  0  0  0
    0.2100   -0.4650    0.8016 C   0  0  0  0  0  0  0  0  0  0  0  0
    1.1295    0.0398   -0.3170 C   0  0  0  0  0  0  0  0  0  0  0  0
   -1.2797    1.5678    0.4713 C   0  0  0  0  0  0  0  0  0  0  0  0
    1.0778    1.5620   -0.4419 C   0  0  0  0  0  0  0  0  0  0  0  0
   -0.3504    2.0588   -0.6404 C   0  0  0  0  0  0  0  0  0  0  0  0
   -1.9105   -0.6434   -0.5124 C   0  0  0  0  0  0  0  0  0  0  0  0
    2.5343   -0.3980   -0.0343 C   0  0  0  0  0  0  0  0  0  0  0  0
  1 12  1  0
  2 13  1  0
  3 12  2  0
  4 13  2  0
  5  6  1  0
  6  7  1  0
  6  9  1  0
  6 12  1  0
  7  8  1  0
  8 10  1  0
  8 13  1  0
  9 11  1  0
 10 11  1  0
M  END
>  <PUBCHEM_COMPOUND_CID>  (1) 
1368

>  <PUBCHEM_CONFORMER_RMSD>  (1) 
0.6

>  <PUBCHEM_CONFORMER_DIVERSEORDER>  (1) 
4
27
20
34
24
36
32
43
30
41
6
42
23
1
18
25
40
37
44
35
12
39
3
16
38
29
15
2
28
13
26
10
7
8
14
21
22
11
9
19
5
31
17
33

>  <PUBCHEM_MMFF94_PARTIAL_CHARGES>  (1) 
13
1 -0.65
12 0.66
13 0.66
2 -0.65
23 0.36
24 0.36
25 0.5
26 0.5
3 -0.57
4 -0.57
5 -0.99
6 0.33
8 0.06

>  <PUBCHEM_EFFECTIVE_ROTOR_COUNT>  (1) 
3.2

>  <PUBCHEM_PHARMACOPHORE_FEATURES>  (1) 
9
1 1 acceptor
1 2 acceptor
1 3 acceptor
1 4 acceptor
1 5 cation
1 5 donor
3 1 3 12 anion
3 2 4 13 anion
6 6 7 8 9 10 11 rings

>  <PUBCHEM_HEAVY_ATOM_COUNT>  (1) 
13

>  <PUBCHEM_ATOM_DEF_STEREO_COUNT>  (1) 
0

>  <PUBCHEM_ATOM_UDEF_STEREO_COUNT>  (1) 
2

>  <PUBCHEM_BOND_DEF_STEREO_COUNT>  (1) 
0

>  <PUBCHEM_BOND_UDEF_STEREO_COUNT>  (1) 
0

>  <PUBCHEM_ISOTOPIC_ATOM_COUNT>  (1) 
0

>  <PUBCHEM_COMPONENT_COUNT>  (1) 
1

>  <PUBCHEM_CACTVS_TAUTO_COUNT>  (1) 
1

>  <PUBCHEM_CONFORMER_ID>  (1) 
0000055800000004

>  <PUBCHEM_MMFF94_ENERGY>  (1) 
17.5997

>  <PUBCHEM_FEATURE_SELFOVERLAP>  (1) 
45.783

>  <PUBCHEM_SHAPE_FINGERPRINT>  (1) 
12423570 1 16896495613128584545
12932764 1 18130235856773215242
13024252 1 16660652812617119649
14128692 85 18126840727627091863
14817 1 14084942770616549269
15852999 172 13757529768489932161
16945 1 18341619243192572080
20653085 51 13479410509593315622
20871998 184 18266474100075946836
21524375 3 17180807355308610476
2748010 2 18114185297225610044
369184 2 17561082458304879536
535629 181 18260831449409752725
8030462 33 17896039849939558114
81228 2 18115585920658314644

>  <PUBCHEM_SHAPE_MULTIPOLES>  (1) 
239.08
3.95
1.84
1.17
2.59
0.43
0.19
-1.39
-0.14
-0.23
-0.37
-0.73
-0.11
0.02

>  <PUBCHEM_SHAPE_SELFOVERLAP>  (1) 
488.564

>  <PUBCHEM_SHAPE_VOLUME>  (1) 
136

>  <PUBCHEM_COORDINATE_TYPE>  (1) 
2
5
10

$$$$
