13680
     RDKit          3D

 14 15  0  0  0  0  0  0  0  0999 V2000
    4.4086    0.3353    0.3462 O   0  0  0  0  0  0  0  0  0  0  0  0
    0.1313    0.8947   -0.1204 N   0  0  0  0  0  0  0  0  0  0  0  0
    0.0734   -1.3166    0.0957 N   0  0  0  0  0  0  0  0  0  0  0  0
    3.0412    0.6080    0.4180 N   0  0  0  0  0  0  0  0  0  0  0  0
   -1.1991    0.5680   -0.0561 C   0  0  0  0  0  0  0  0  0  0  0  0
    0.8508   -0.2638   -0.0255 C   0  0  0  0  0  0  0  0  0  0  0  0
   -1.2088   -0.8176    0.0786 C   0  0  0  0  0  0  0  0  0  0  0  0
   -2.3592    1.3417   -0.1026 C   0  0  0  0  0  0  0  0  0  0  0  0
    0.6749    2.2263   -0.2628 C   0  0  0  0  0  0  0  0  0  0  0  0
   -2.4402   -1.4878    0.1738 C   0  0  0  0  0  0  0  0  0  0  0  0
    2.2739   -0.3720   -0.0511 C   0  0  0  0  0  0  0  0  0  0  0  0
   -3.5759    0.6584   -0.0063 C   0  0  0  0  0  0  0  0  0  0  0  0
   -3.6178   -0.7311    0.1294 C   0  0  0  0  0  0  0  0  0  0  0  0
    2.9468   -1.6436   -0.6169 C   0  0  0  0  0  0  0  0  0  0  0  0
  1  4  1  0
  2  5  1  0
  2  6  1  0
  2  9  1  0
  3  6  2  0
  3  7  1  0
  4 11  2  0
  5  7  2  0
  5  8  1  0
  6 11  1  0
  7 10  1  0
  8 12  2  0
 10 13  2  0
 11 14  1  0
 12 13  1  0
M  END
>  <PUBCHEM_COMPOUND_CID>  (1) 
13680

>  <PUBCHEM_CONFORMER_RMSD>  (1) 
0.4

>  <PUBCHEM_CONFORMER_DIVERSEORDER>  (1) 
1
2
3

>  <PUBCHEM_MMFF94_PARTIAL_CHARGES>  (1) 
19
1 -0.34
10 -0.15
11 0.47
12 -0.15
13 -0.15
14 0.06
15 0.15
19 0.15
2 0.05
20 0.15
21 0.15
25 0.4
3 -0.57
4 -0.51
5 -0.15
6 0.1
7 0.23
8 -0.15
9 0.26

>  <PUBCHEM_EFFECTIVE_ROTOR_COUNT>  (1) 
1

>  <PUBCHEM_PHARMACOPHORE_FEATURES>  (1) 
5
1 1 anion
1 4 acceptor
3 2 3 6 cation
5 2 3 5 6 7 rings
6 5 7 8 10 12 13 rings

>  <PUBCHEM_HEAVY_ATOM_COUNT>  (1) 
14

>  <PUBCHEM_ATOM_DEF_STEREO_COUNT>  (1) 
0

>  <PUBCHEM_ATOM_UDEF_STEREO_COUNT>  (1) 
0

>  <PUBCHEM_BOND_DEF_STEREO_COUNT>  (1) 
0

>  <PUBCHEM_BOND_UDEF_STEREO_COUNT>  (1) 
1

>  <PUBCHEM_ISOTOPIC_ATOM_COUNT>  (1) 
0

>  <PUBCHEM_COMPONENT_COUNT>  (1) 
1

>  <PUBCHEM_CACTVS_TAUTO_COUNT>  (1) 
2

>  <PUBCHEM_CONFORMER_ID>  (1) 
0000357000000001

>  <PUBCHEM_MMFF94_ENERGY>  (1) 
33.7393

>  <PUBCHEM_FEATURE_SELFOVERLAP>  (1) 
25.478

>  <PUBCHEM_SHAPE_FINGERPRINT>  (1) 
10608611 8 18412822460724019184
10967382 1 18410293631314302495
11132069 177 18408321068714964141
11806522 49 18338513157393760447
12032990 46 18410581651758024655
12251169 10 18410862087795475625
12932764 1 17603864447062038143
13214271 11 18341041995440475268
13296908 3 18411703157908055270
14144814 61 18409167692805521371
14325111 11 18411418384317060579
15219456 202 18272090461526780166
15536298 74 18343302531270647806
16945 1 18408328791445924995
18175812 5 18201157663509881270
18186145 218 18336549296134179406
18522853 276 18411419522895019689
19026448 5 16415478220977067647
193761 8 17832990829197622735
200 152 17632571652102339159
20201158 50 18411419522483569450
20279233 1 18413392029253718150
20510252 161 18271244924258219065
20645477 70 17916585332442443526
21267235 1 18409739473011470411
21501502 16 18192155012741603021
21501925 9 18337668728010178163
23402539 116 18340474621396568982
23402655 69 18267849607320457901
23463225 33 18335420140805740974
23552423 10 18188492513876651975
23559900 14 18339642223087197606
2748010 2 18339081488598279887
5104073 3 18411138004572920098
528886 8 18410568479045601843
53812653 166 18412821386929311488
6333449 129 18411978057490035903
69090 78 18273208699333377063
7364860 26 18196092367975598208
81228 2 18190473653225493800
8809292 202 18114467876309648491
9709674 26 18411705408508237902

>  <PUBCHEM_SHAPE_MULTIPOLES>  (1) 
267.3
6.44
1.83
0.65
2.36
0.35
-0.02
-0.66
0.39
0.02
-0.16
0.1
-0.03
0.38

>  <PUBCHEM_SHAPE_SELFOVERLAP>  (1) 
574.991

>  <PUBCHEM_SHAPE_VOLUME>  (1) 
150.8

>  <PUBCHEM_COORDINATE_TYPE>  (1) 
2
5
10

$$$$
