1369
     RDKit          3D

 21 23  0  0  0  0  0  0  0  0999 V2000
   -0.8066   -2.2923   -0.0622 S   0  0  0  0  0  0  0  0  0  0  0  0
   -0.3782   -2.4218    1.5062 O   0  0  0  0  0  0  0  0  0  0  0  0
   -1.5903   -3.4672   -0.3959 O   0  0  0  0  0  0  0  0  0  0  0  0
    0.3672   -1.9268   -0.8315 O   0  0  0  0  0  0  0  0  0  0  0  0
    0.8857   -0.1021    0.4181 N   0  0  0  0  0  0  0  0  0  0  0  0
   -1.5231    0.4399    0.0659 C   0  0  0  0  0  0  0  0  0  0  0  0
   -2.5179    1.4440   -0.0080 C   0  0  0  0  0  0  0  0  0  0  0  0
   -0.1924    0.8090    0.3206 C   0  0  0  0  0  0  0  0  0  0  0  0
   -1.8886   -0.9038   -0.1171 C   0  0  0  0  0  0  0  0  0  0  0  0
   -2.1524    2.7877    0.1753 C   0  0  0  0  0  0  0  0  0  0  0  0
   -3.8487    1.0748   -0.2625 C   0  0  0  0  0  0  0  0  0  0  0  0
    0.1528    2.1489    0.4999 C   0  0  0  0  0  0  0  0  0  0  0  0
   -3.2157   -1.2524   -0.3695 C   0  0  0  0  0  0  0  0  0  0  0  0
   -0.8253    3.1364    0.4274 C   0  0  0  0  0  0  0  0  0  0  0  0
   -4.1938   -0.2650   -0.4420 C   0  0  0  0  0  0  0  0  0  0  0  0
    2.2565    0.0148    0.1312 C   0  0  0  0  0  0  0  0  0  0  0  0
    3.1911   -0.7368    0.8484 C   0  0  0  0  0  0  0  0  0  0  0  0
    2.6923    0.8839   -0.8726 C   0  0  0  0  0  0  0  0  0  0  0  0
    4.5517   -0.6201    0.5640 C   0  0  0  0  0  0  0  0  0  0  0  0
    4.0529    1.0004   -1.1570 C   0  0  0  0  0  0  0  0  0  0  0  0
    4.9826    0.2484   -0.4386 C   0  0  0  0  0  0  0  0  0  0  0  0
  1  2  1  0
  1  3  2  0
  1  4  2  0
  1  9  1  0
  5  8  1  0
  5 16  1  0
  6  7  1  0
  6  8  1  0
  6  9  2  0
  7 10  1  0
  7 11  2  0
  8 12  2  0
  9 13  1  0
 10 14  2  0
 11 15  1  0
 12 14  1  0
 13 15  2  0
 16 17  2  0
 16 18  1  0
 17 19  1  0
 18 20  2  0
 19 21  2  0
 20 21  1  0
M  END
>  <PUBCHEM_COMPOUND_CID>  (1) 
1369

>  <PUBCHEM_CONFORMER_RMSD>  (1) 
0.6

>  <PUBCHEM_CONFORMER_DIVERSEORDER>  (1) 
1
3
2

>  <PUBCHEM_MMFF94_PARTIAL_CHARGES>  (1) 
32
1 1.49
10 -0.15
11 -0.15
12 -0.15
13 -0.15
14 -0.15
15 -0.15
16 0.1
17 -0.15
18 -0.15
19 -0.15
2 -0.68
20 -0.15
21 -0.15
22 0.15
23 0.15
24 0.15
25 0.15
26 0.4
27 0.15
28 0.15
29 0.15
3 -0.65
30 0.15
31 0.15
32 0.15
33 0.5
34 0.15
4 -0.65
5 -0.6
8 0.1
9 -0.01

>  <PUBCHEM_EFFECTIVE_ROTOR_COUNT>  (1) 
3

>  <PUBCHEM_PHARMACOPHORE_FEATURES>  (1) 
9
1 2 acceptor
1 3 acceptor
1 4 acceptor
1 5 cation
1 5 donor
4 1 2 3 4 anion
6 16 17 18 19 20 21 rings
6 6 7 8 10 12 14 rings
6 6 7 9 11 13 15 rings

>  <PUBCHEM_HEAVY_ATOM_COUNT>  (1) 
21

>  <PUBCHEM_ATOM_DEF_STEREO_COUNT>  (1) 
0

>  <PUBCHEM_ATOM_UDEF_STEREO_COUNT>  (1) 
0

>  <PUBCHEM_BOND_DEF_STEREO_COUNT>  (1) 
0

>  <PUBCHEM_BOND_UDEF_STEREO_COUNT>  (1) 
0

>  <PUBCHEM_ISOTOPIC_ATOM_COUNT>  (1) 
0

>  <PUBCHEM_COMPONENT_COUNT>  (1) 
1

>  <PUBCHEM_CACTVS_TAUTO_COUNT>  (1) 
1

>  <PUBCHEM_CONFORMER_ID>  (1) 
0000055900000001

>  <PUBCHEM_MMFF94_ENERGY>  (1) 
93.3287

>  <PUBCHEM_FEATURE_SELFOVERLAP>  (1) 
45.752

>  <PUBCHEM_SHAPE_FINGERPRINT>  (1) 
10319926 262 18199723931461676434
10411042 1 18051691350063830335
10616163 171 18411141359401735590
10693767 8 17915435364245821303
10759866 29 18187087252227869118
10967382 1 18340200899241931297
1100329 8 18339924922029321825
11578080 2 17057238062362931627
11680986 33 17981599682852639705
12173636 292 18339637833029448908
12236239 1 18113335298023799424
12403814 3 17676203563632774661
12553582 1 18340483490599123411
12788726 201 18342469127021297752
13140716 1 18197499730395716979
13538477 17 18334856151855232486
13583140 156 17095815364205554096
13862211 1 18341325678320870695
14115302 16 18261678163805581444
14787075 74 17968381264038470003
14790565 3 18340498772526039569
15042514 8 18410577326889806251
16752209 62 18410847737835135472
16945 1 18342736351564921995
17492 54 18335695074863621861
17492 89 18337110038654655098
19591789 44 18338516460445027203
200 152 18260547822892050428
20028762 73 17916022563669452735
20510252 161 18272370823985726536
20645476 183 18186523232352850503
20715895 44 17900248711668476621
20775438 99 16689875912182055703
20871999 31 18411982485406425285
20905425 154 18055912100213503735
21029758 27 18335425715974088489
21267235 1 18410019839886300362
21524375 3 18335139730896452370
2334 1 17764019568910327459
23366157 5 17756995505958590123
23402539 116 18342449335642640932
23557571 272 18131635591174147888
23558518 356 18049731711057242505
23559900 14 18343300397167897296
3084891 72 18412541007248713647
3178227 256 18336840775176354243
335352 9 18340764936418132487
350125 39 18052263890467473414
43471831 8 18193834847375991331
559249 180 18263359193047474290
59755656 215 18198343948692775694
67856867 119 18261670493632735756
70251023 43 17618504723543932602
90525 40 18336828576414399568
9709674 26 18343028770282138886

>  <PUBCHEM_SHAPE_MULTIPOLES>  (1) 
413.43
7.98
3.24
0.94
7.06
0.43
-0.03
-0.54
1.43
-2.5
-0.31
0.5
0.14
-0.72

>  <PUBCHEM_SHAPE_SELFOVERLAP>  (1) 
905.034

>  <PUBCHEM_SHAPE_VOLUME>  (1) 
222.7

>  <PUBCHEM_COORDINATE_TYPE>  (1) 
2
5
10

$$$$
