13695
     RDKit          3D

 15 17  0  0  0  0  0  0  0  0999 V2000
    1.5714    2.9376   -0.0001 N   0  0  0  0  0  0  0  0  0  0  0  0
    0.5626   -0.6759    0.0001 C   0  0  0  0  0  0  0  0  0  0  0  0
   -0.8694   -0.5253    0.0001 C   0  0  0  0  0  0  0  0  0  0  0  0
    1.3811    0.4837    0.0001 C   0  0  0  0  0  0  0  0  0  0  0  0
   -1.4280    0.7797    0.0000 C   0  0  0  0  0  0  0  0  0  0  0  0
    0.7939    1.7516    0.0003 C   0  0  0  0  0  0  0  0  0  0  0  0
   -0.5895    1.8973    0.0001 C   0  0  0  0  0  0  0  0  0  0  0  0
    1.2304   -1.9261    0.0001 C   0  0  0  0  0  0  0  0  0  0  0  0
   -1.7836   -1.6087    0.0001 C   0  0  0  0  0  0  0  0  0  0  0  0
    2.7819    0.3702   -0.0001 C   0  0  0  0  0  0  0  0  0  0  0  0
   -2.8217    0.9608   -0.0002 C   0  0  0  0  0  0  0  0  0  0  0  0
    2.6245   -2.0249    0.0000 C   0  0  0  0  0  0  0  0  0  0  0  0
    3.4004   -0.8762   -0.0003 C   0  0  0  0  0  0  0  0  0  0  0  0
   -3.1674   -1.4145    0.0001 C   0  0  0  0  0  0  0  0  0  0  0  0
   -3.6865   -0.1292   -0.0003 C   0  0  0  0  0  0  0  0  0  0  0  0
  1  6  1  0
  2  3  2  0
  2  4  1  0
  2  8  1  0
  3  5  1  0
  3  9  1  0
  4  6  2  0
  4 10  1  0
  5  7  2  0
  5 11  1  0
  6  7  1  0
  8 12  2  0
  9 14  2  0
 10 13  2  0
 11 15  2  0
 12 13  1  0
 14 15  1  0
M  END
>  <PUBCHEM_COMPOUND_CID>  (1) 
13695

>  <PUBCHEM_CONFORMER_RMSD>  (1) 
0.4

>  <PUBCHEM_CONFORMER_DIVERSEORDER>  (1) 
1

>  <PUBCHEM_MMFF94_PARTIAL_CHARGES>  (1) 
22
1 -0.9
10 -0.15
11 -0.15
12 -0.15
13 -0.15
14 -0.15
15 -0.15
16 0.15
17 0.15
18 0.15
19 0.15
20 0.15
21 0.15
22 0.15
23 0.15
24 0.15
25 0.4
26 0.4
6 0.1
7 -0.15
8 -0.15
9 -0.15

>  <PUBCHEM_EFFECTIVE_ROTOR_COUNT>  (1) 
0

>  <PUBCHEM_PHARMACOPHORE_FEATURES>  (1) 
5
1 1 cation
1 1 donor
6 2 3 4 5 6 7 rings
6 2 4 8 10 12 13 rings
6 3 5 9 11 14 15 rings

>  <PUBCHEM_HEAVY_ATOM_COUNT>  (1) 
15

>  <PUBCHEM_ATOM_DEF_STEREO_COUNT>  (1) 
0

>  <PUBCHEM_ATOM_UDEF_STEREO_COUNT>  (1) 
0

>  <PUBCHEM_BOND_DEF_STEREO_COUNT>  (1) 
0

>  <PUBCHEM_BOND_UDEF_STEREO_COUNT>  (1) 
0

>  <PUBCHEM_ISOTOPIC_ATOM_COUNT>  (1) 
0

>  <PUBCHEM_COMPONENT_COUNT>  (1) 
1

>  <PUBCHEM_CACTVS_TAUTO_COUNT>  (1) 
1

>  <PUBCHEM_CONFORMER_ID>  (1) 
0000357F00000001

>  <PUBCHEM_MMFF94_ENERGY>  (1) 
64.6464

>  <PUBCHEM_FEATURE_SELFOVERLAP>  (1) 
25.42

>  <PUBCHEM_SHAPE_FINGERPRINT>  (1) 
10608611 8 18408599279769854429
10967382 1 18266740366562717926
11132069 177 18411131403350655626
11471102 20 18410288125345492807
12032990 46 18339084795717959270
12251169 10 18341902874601314835
12382932 28 18340484452624227722
12553582 1 18338803316414333962
13140716 1 18267022941098581537
13221675 6 18410575080500227279
14144814 61 18411700963279948387
14648413 74 18335984280370235921
15001771 113 18412550881378332425
15196674 1 18410575063193621127
15375462 189 18187931620938519147
15442244 35 18340208492485712857
15536298 74 18271807972979946584
16945 1 18410856564061500325
17990270 104 18409727391268213530
193761 8 17906452478157058278
19591789 44 16823350090588660057
200 152 18059563707700541271
20201158 50 18409165510951728259
20559304 39 18410296946912893524
20645477 70 18264479758420215079
21267235 1 18410865330016301187
21501502 16 18339083799633433373
221490 88 18263933300566444299
22721475 48 18410296891141674159
2334 1 17978511158710799393
23402539 116 18198328568383337375
23463225 33 18410012109029687078
23552423 10 18337110189004000629
23559900 14 18124307208762505922
2748010 2 18123185697499440949
3071541 12 18267026231133596884
3071541 158 18333449837259194788
335352 9 18266741268722212789
34934 24 18337943489779081258
5104073 3 18411136918025451915
7364860 26 18341049734776669032
81228 2 18051423859420617904
8809292 202 18260553333198110355
9709674 26 18410296947098243895

>  <PUBCHEM_SHAPE_MULTIPOLES>  (1) 
303.71
5.38
2.57
0.61
1.32
0.95
0
-1.81
0
-0.91
0
0.01
-0.02
0

>  <PUBCHEM_SHAPE_SELFOVERLAP>  (1) 
687.032

>  <PUBCHEM_SHAPE_VOLUME>  (1) 
157.7

>  <PUBCHEM_COORDINATE_TYPE>  (1) 
2
5
10

$$$$
