13694
     RDKit          3D

 15 17  0  0  0  0  0  0  0  0999 V2000
    1.7679    3.1740   -0.0008 Cl  0  0  0  0  0  0  0  0  0  0  0  0
    0.5376   -0.7083    0.0001 C   0  0  0  0  0  0  0  0  0  0  0  0
   -0.8905   -0.5246    0.0000 C   0  0  0  0  0  0  0  0  0  0  0  0
    1.3827    0.4321    0.0003 C   0  0  0  0  0  0  0  0  0  0  0  0
   -1.4188    0.7929    0.0002 C   0  0  0  0  0  0  0  0  0  0  0  0
    0.8249    1.7133    0.0006 C   0  0  0  0  0  0  0  0  0  0  0  0
   -0.5547    1.8909    0.0004 C   0  0  0  0  0  0  0  0  0  0  0  0
    1.1764   -1.9736    0.0000 C   0  0  0  0  0  0  0  0  0  0  0  0
   -1.8295   -1.5866    0.0000 C   0  0  0  0  0  0  0  0  0  0  0  0
    2.7804    0.2863    0.0001 C   0  0  0  0  0  0  0  0  0  0  0  0
   -2.8080    1.0062   -0.0001 C   0  0  0  0  0  0  0  0  0  0  0  0
    2.5678   -2.1045   -0.0001 C   0  0  0  0  0  0  0  0  0  0  0  0
   -3.2085   -1.3605   -0.0001 C   0  0  0  0  0  0  0  0  0  0  0  0
    3.3700   -0.9740   -0.0002 C   0  0  0  0  0  0  0  0  0  0  0  0
   -3.6977   -0.0636   -0.0003 C   0  0  0  0  0  0  0  0  0  0  0  0
  1  6  1  0
  2  3  2  0
  2  4  1  0
  2  8  1  0
  3  5  1  0
  3  9  1  0
  4  6  2  0
  4 10  1  0
  5  7  2  0
  5 11  1  0
  6  7  1  0
  8 12  2  0
  9 13  2  0
 10 14  2  0
 11 15  2  0
 12 14  1  0
 13 15  1  0
M  END
>  <PUBCHEM_COMPOUND_CID>  (1) 
13694

>  <PUBCHEM_CONFORMER_RMSD>  (1) 
0.4

>  <PUBCHEM_CONFORMER_DIVERSEORDER>  (1) 
1

>  <PUBCHEM_MMFF94_PARTIAL_CHARGES>  (1) 
20
1 -0.18
10 -0.15
11 -0.15
12 -0.15
13 -0.15
14 -0.15
15 -0.15
16 0.15
17 0.15
18 0.15
19 0.15
20 0.15
21 0.15
22 0.15
23 0.15
24 0.15
6 0.18
7 -0.15
8 -0.15
9 -0.15

>  <PUBCHEM_EFFECTIVE_ROTOR_COUNT>  (1) 
0

>  <PUBCHEM_PHARMACOPHORE_FEATURES>  (1) 
3
6 2 3 4 5 6 7 rings
6 2 4 8 10 12 14 rings
6 3 5 9 11 13 15 rings

>  <PUBCHEM_HEAVY_ATOM_COUNT>  (1) 
15

>  <PUBCHEM_ATOM_DEF_STEREO_COUNT>  (1) 
0

>  <PUBCHEM_ATOM_UDEF_STEREO_COUNT>  (1) 
0

>  <PUBCHEM_BOND_DEF_STEREO_COUNT>  (1) 
0

>  <PUBCHEM_BOND_UDEF_STEREO_COUNT>  (1) 
0

>  <PUBCHEM_ISOTOPIC_ATOM_COUNT>  (1) 
0

>  <PUBCHEM_COMPONENT_COUNT>  (1) 
1

>  <PUBCHEM_CACTVS_TAUTO_COUNT>  (1) 
1

>  <PUBCHEM_CONFORMER_ID>  (1) 
0000357E00000001

>  <PUBCHEM_MMFF94_ENERGY>  (1) 
51.9673

>  <PUBCHEM_FEATURE_SELFOVERLAP>  (1) 
15.272

>  <PUBCHEM_SHAPE_FINGERPRINT>  (1) 
10608611 8 18408599284064867197
10967382 1 18266740370868208742
11132069 177 18339073800706994826
11471102 20 18410288121034675271
12032990 46 18339366266378623110
12382932 28 18340484448308167922
12553582 1 18338803299244994794
13140716 1 18266458895886275721
13221675 6 18410575071894474935
13380535 76 17976252766249038920
13897977 150 18337669844670202013
14144814 61 18411700954695308035
14648413 74 18336265746730657721
14790565 3 17475525979862580712
15001771 113 18340493283024357665
15196674 1 18410575058914549543
15375462 189 18187932711870774827
15442244 35 18340208492485777817
15536298 74 18271809076791868360
16945 1 18410855455944139685
17990270 104 18409727382704678674
193761 8 17978229688145224002
19591789 44 16968307491702340722
19868273 325 18337111138080983766
200 152 18059562599593697655
20201158 50 18409165502367081411
20510252 161 17838611163519663384
20559304 39 18410577313898876572
20645477 70 18264198279132641407
21267235 1 18338807731699243207
21501502 16 18339927133678808397
221490 88 18263933296276719275
22721475 48 18410578357517907215
2334 1 18050568744127222177
23366157 5 18041275590693455612
23402539 116 18126270965755422879
23463225 33 18410012108998025574
23552423 10 18337673134646649869
23559900 14 18124307204451759850
2748010 2 18048601709203437436
3071541 12 18339083816576302476
3071541 158 18333731307972619132
3091708 16 9430210515347732664
335352 9 18266740173505591293
34934 24 18337663105729338538
352729 6 17112412771362816036
43471831 8 17905322180071647512
5104073 3 18411136913741053619
7364860 26 18340769355064124072
7832392 63 18340487751290999225
81228 2 17980209586501004088
84936 182 17986394618454226249
8809292 202 18260553324613463507
9709674 26 18410577318331604543

>  <PUBCHEM_SHAPE_MULTIPOLES>  (1) 
310.56
5.37
2.86
0.62
2.05
1.38
0
-1.56
0
-1.71
0
0
0.01
0

>  <PUBCHEM_SHAPE_SELFOVERLAP>  (1) 
691.765

>  <PUBCHEM_SHAPE_VOLUME>  (1) 
158.3

>  <PUBCHEM_COORDINATE_TYPE>  (1) 
2
5
10

$$$$
