13705
     RDKit          3D

 15 16  0  0  0  0  0  0  0  0999 V2000
    0.0871    0.0001   -0.5712 N   0  0  0  0  0  0  0  0  0  0  0  0
    0.7002    0.0003    0.5221 N   0  0  0  0  0  0  0  0  0  0  0  0
   -4.0463    0.0001    0.1030 C   0  0  0  0  0  0  0  0  0  0  0  0
   -1.2929    0.0001   -0.3455 C   0  0  0  0  0  0  0  0  0  0  0  0
   -3.3579    1.2081   -0.0087 C   0  0  0  0  0  0  0  0  0  0  0  0
   -3.3580   -1.2079   -0.0095 C   0  0  0  0  0  0  0  0  0  0  0  0
   -1.9812    1.2081   -0.2331 C   0  0  0  0  0  0  0  0  0  0  0  0
   -1.9812   -1.2078   -0.2337 C   0  0  0  0  0  0  0  0  0  0  0  0
   -5.5179   -0.0006    0.3445 C   0  0  0  0  0  0  0  0  0  0  0  0
    2.0873    0.0001    0.2958 C   0  0  0  0  0  0  0  0  0  0  0  0
    2.7686    1.2080    0.1843 C   0  0  0  0  0  0  0  0  0  0  0  0
    2.7683   -1.2080    0.1848 C   0  0  0  0  0  0  0  0  0  0  0  0
    4.1454    1.2078   -0.0405 C   0  0  0  0  0  0  0  0  0  0  0  0
    4.1450   -1.2082   -0.0398 C   0  0  0  0  0  0  0  0  0  0  0  0
    4.8334   -0.0003   -0.1525 C   0  0  0  0  0  0  0  0  0  0  0  0
  1  2  2  0
  1  4  1  0
  2 10  1  0
  3  5  2  0
  3  6  1  0
  3  9  1  0
  4  7  2  0
  4  8  1  0
  5  7  1  0
  6  8  2  0
 10 11  2  0
 10 12  1  0
 11 13  1  0
 12 14  2  0
 13 15  2  0
 14 15  1  0
M  END
>  <PUBCHEM_COMPOUND_CID>  (1) 
13705

>  <PUBCHEM_CONFORMER_RMSD>  (1) 
0.6

>  <PUBCHEM_CONFORMER_DIVERSEORDER>  (1) 
1
2

>  <PUBCHEM_MMFF94_PARTIAL_CHARGES>  (1) 
24
1 -0.18
10 0.18
11 -0.15
12 -0.15
13 -0.15
14 -0.15
15 -0.15
16 0.15
17 0.15
18 0.15
19 0.15
2 -0.18
23 0.15
24 0.15
25 0.15
26 0.15
27 0.15
3 -0.14
4 0.18
5 -0.15
6 -0.15
7 -0.15
8 -0.15
9 0.14

>  <PUBCHEM_EFFECTIVE_ROTOR_COUNT>  (1) 
2

>  <PUBCHEM_PHARMACOPHORE_FEATURES>  (1) 
2
6 10 11 12 13 14 15 rings
6 3 4 5 6 7 8 rings

>  <PUBCHEM_HEAVY_ATOM_COUNT>  (1) 
15

>  <PUBCHEM_ATOM_DEF_STEREO_COUNT>  (1) 
0

>  <PUBCHEM_ATOM_UDEF_STEREO_COUNT>  (1) 
0

>  <PUBCHEM_BOND_DEF_STEREO_COUNT>  (1) 
0

>  <PUBCHEM_BOND_UDEF_STEREO_COUNT>  (1) 
0

>  <PUBCHEM_ISOTOPIC_ATOM_COUNT>  (1) 
0

>  <PUBCHEM_COMPONENT_COUNT>  (1) 
1

>  <PUBCHEM_CACTVS_TAUTO_COUNT>  (1) 
1

>  <PUBCHEM_CONFORMER_ID>  (1) 
0000358900000001

>  <PUBCHEM_MMFF94_ENERGY>  (1) 
40.4499

>  <PUBCHEM_FEATURE_SELFOVERLAP>  (1) 
10.149

>  <PUBCHEM_SHAPE_FINGERPRINT>  (1) 
10616163 171 18340768246873410830
11401426 45 11167939152144505163
12107183 9 17690844462641021843
12236239 1 17822012008257814485
12251169 10 18410012152153381525
128620 24 15864068771481151242
13081056 2 18410292514607176156
13167823 11 18410572881419072882
13760787 19 18271806856230511990
13897977 58 18411141355059022605
14123238 8 18410856559639789582
14341114 176 18410581686043812584
15242433 33 18411701001813289166
17834072 33 18341328972128049151
17834074 16 18410575080563628230
18186145 218 18113329804496812278
19050596 39 18409725188234833682
200 152 17988921176126078571
20645477 70 18342459193120521598
21267235 1 18410301293499087238
21652331 79 18409446994381372901
22485316 2 18412260653247670878
2297311 6 18342469118241030660
23402539 116 18130781253474963893
23402655 69 18412826897947235076
23557571 272 18335987475831439036
23559900 14 18411695525835494960
300161 21 18341041986539343112
3545911 37 18411138043544187868
42 15 18408605850753150302
4214541 1 18410855430158583109
42788 4 18410856559998505209
449060 50 18335137617756906924
474 4 17459476722390738220
5104073 3 18410854364932640250
522135 26 18413671301386719206
5374978 207 18410569591521395840
542803 24 17132117943861794129
58051976 100 18271805765118901942
77779 3 18410856559834961900
8272917 22 18130794412701241254
9709674 26 18411142445738570934

>  <PUBCHEM_SHAPE_MULTIPOLES>  (1) 
298.73
11.4
1.41
0.67
1
0
0
0
-0.61
-0.32
0.02
0.03
0
0

>  <PUBCHEM_SHAPE_SELFOVERLAP>  (1) 
640.015

>  <PUBCHEM_SHAPE_VOLUME>  (1) 
166

>  <PUBCHEM_COORDINATE_TYPE>  (1) 
2
5
10

$$$$
