13718
     RDKit          3D

 16 17  0  0  1  0  0  0  0  0999 V2000
    0.6087    1.1195   -0.4379 O   0  0  0  0  0  0  0  0  0  0  0  0
    1.0172   -1.3996    0.9003 O   0  0  0  0  0  0  0  0  0  0  0  0
   -2.8543   -0.0130    0.0069 N   0  0  0  0  0  0  0  0  0  0  0  0
   -0.4373    0.1550   -0.2575 C   0  0  0  0  0  0  0  0  0  0  0  0
   -1.7570    0.9097   -0.1925 C   0  0  0  0  0  0  0  0  0  0  0  0
   -0.1895   -0.6391    1.0180 C   0  0  0  0  0  0  0  0  0  0  0  0
   -2.9327   -0.9825   -1.0923 C   0  0  0  0  0  0  0  0  0  0  0  0
   -4.1287    0.7043    0.1312 C   0  0  0  0  0  0  0  0  0  0  0  0
    1.8510    0.5767   -0.2397 C   0  0  0  0  0  0  0  0  0  0  0  0
    2.0482   -0.6494    0.3990 C   0  0  0  0  0  0  0  0  0  0  0  0
   -4.0635   -1.9389   -0.8935 C   0  0  0  0  0  0  0  0  0  0  0  0
   -4.1107    1.6471    1.2904 C   0  0  0  0  0  0  0  0  0  0  0  0
    2.9457    1.3101   -0.6982 C   0  0  0  0  0  0  0  0  0  0  0  0
    3.3369   -1.1643    0.5404 C   0  0  0  0  0  0  0  0  0  0  0  0
    4.2354    0.8011   -0.5440 C   0  0  0  0  0  0  0  0  0  0  0  0
    4.4304   -0.4368    0.0695 C   0  0  0  0  0  0  0  0  0  0  0  0
  1  4  1  0
  1  9  1  0
  2  6  1  0
  2 10  1  0
  3  5  1  0
  3  7  1  0
  3  8  1  0
  4  5  1  0
  4  6  1  0
  7 11  1  0
  8 12  1  0
  9 10  2  0
  9 13  1  0
 10 14  1  0
 13 15  2  0
 14 16  2  0
 15 16  1  0
M  END
>  <PUBCHEM_COMPOUND_CID>  (1) 
13718

>  <PUBCHEM_CONFORMER_RMSD>  (1) 
0.6

>  <PUBCHEM_CONFORMER_DIVERSEORDER>  (1) 
1
8
6
2
22
14
19
13
9
21
16
15
18
20
5
10
12
7
17
3
11
4

>  <PUBCHEM_MMFF94_PARTIAL_CHARGES>  (1) 
18
1 -0.36
10 0.08
13 -0.15
14 -0.15
15 -0.15
16 -0.15
2 -0.36
3 -0.81
32 0.15
33 0.15
34 0.15
35 0.15
4 0.28
5 0.27
6 0.28
7 0.27
8 0.27
9 0.08

>  <PUBCHEM_EFFECTIVE_ROTOR_COUNT>  (1) 
4.8

>  <PUBCHEM_PHARMACOPHORE_FEATURES>  (1) 
5
1 1 acceptor
1 2 acceptor
1 3 cation
6 1 2 4 6 9 10 rings
6 9 10 13 14 15 16 rings

>  <PUBCHEM_HEAVY_ATOM_COUNT>  (1) 
16

>  <PUBCHEM_ATOM_DEF_STEREO_COUNT>  (1) 
0

>  <PUBCHEM_ATOM_UDEF_STEREO_COUNT>  (1) 
1

>  <PUBCHEM_BOND_DEF_STEREO_COUNT>  (1) 
0

>  <PUBCHEM_BOND_UDEF_STEREO_COUNT>  (1) 
0

>  <PUBCHEM_ISOTOPIC_ATOM_COUNT>  (1) 
0

>  <PUBCHEM_COMPONENT_COUNT>  (1) 
1

>  <PUBCHEM_CACTVS_TAUTO_COUNT>  (1) 
1

>  <PUBCHEM_CONFORMER_ID>  (1) 
0000359600000001

>  <PUBCHEM_MMFF94_ENERGY>  (1) 
43.2646

>  <PUBCHEM_FEATURE_SELFOVERLAP>  (1) 
25.413

>  <PUBCHEM_SHAPE_FINGERPRINT>  (1) 
10062212 137 18411695487186102823
10616163 171 18343300392314137959
11471102 20 18040151821211295444
11543360 7 17988646345432119796
11796584 16 16988571152269867390
12236239 1 18410575076695701473
124424 183 15267339600430120147
12500047 106 17346595249260357759
13167823 11 18413388756425302775
13296908 3 15339117957084915615
13760787 19 18272371957841047279
13760787 5 17821729429479803022
14251717 144 18186794803441016086
14576447 43 18337099189440268694
15375462 189 18335417941761393233
17834072 33 18410571812436030765
18186145 218 17748825215651696366
19026448 4 16917064473322655434
19026448 5 18413670218522178260
19050596 39 18409446972906205200
19422 9 18412542128345655551
200 152 18409726291756592159
20279233 1 15864065477515346995
20281475 54 18411974745801439718
20645477 70 17677036954602200715
21618674 53 18411428289018073811
22094290 60 17846778542080725503
23402539 116 18411978061927493148
23402655 69 18334010562488063516
23557571 272 17489871535533726585
23559900 14 17060066904471461356
2748010 2 17751657665406226330
474 4 18042690679211971108
4990 188 18272940418606651358
5104073 3 18408884053207420816
57096353 35 18334857267992900486
573450 72 18272928310888160715
602551 16 16988272204933738278
633830 44 18041005020258635054
69090 78 18260264178983177146
77492 1 18411697681956387749
77779 3 18343302573819192820
9981440 41 17402043890879568504

>  <PUBCHEM_SHAPE_MULTIPOLES>  (1) 
312.55
9.46
1.66
1.05
1.29
0.2
0.1
-0.25
-0.45
1.27
-0.01
0.41
0.05
-1.78

>  <PUBCHEM_SHAPE_SELFOVERLAP>  (1) 
648

>  <PUBCHEM_SHAPE_VOLUME>  (1) 
179.3

>  <PUBCHEM_COORDINATE_TYPE>  (1) 
2
5
10

$$$$
