13723
     RDKit          3D

 17 18  0  0  1  0  0  0  0  0999 V2000
    4.7853    1.8957    0.5496 Cl  0  0  0  0  0  0  0  0  0  0  0  0
    0.1444   -1.8911   -1.3795 S   0  0  0  0  0  0  0  0  0  0  0  0
   -1.0350   -1.1042    0.9491 N   0  0  0  0  0  0  0  0  0  0  0  0
   -2.0096   -0.2072    0.4647 C   0  0  0  0  0  0  0  0  0  0  0  0
   -0.6544   -2.3047    0.2141 C   0  0  0  0  0  0  0  0  0  0  0  0
   -0.3257   -0.8033    2.1822 C   0  0  0  0  0  0  0  0  0  0  0  0
   -2.0121    1.1196    0.8954 C   0  0  0  0  0  0  0  0  0  0  0  0
   -2.9714   -0.6469   -0.4448 C   0  0  0  0  0  0  0  0  0  0  0  0
    1.4633   -0.8150   -0.8313 C   0  0  0  0  0  0  0  0  0  0  0  0
   -2.9765    2.0065    0.4167 C   0  0  0  0  0  0  0  0  0  0  0  0
   -3.9357    0.2400   -0.9235 C   0  0  0  0  0  0  0  0  0  0  0  0
   -3.9382    1.5667   -0.4927 C   0  0  0  0  0  0  0  0  0  0  0  0
    2.4235   -1.2944    0.0547 C   0  0  0  0  0  0  0  0  0  0  0  0
    1.5226    0.4966   -1.2935 C   0  0  0  0  0  0  0  0  0  0  0  0
    3.4521   -0.4550    0.4825 C   0  0  0  0  0  0  0  0  0  0  0  0
    2.5512    1.3361   -0.8659 C   0  0  0  0  0  0  0  0  0  0  0  0
    3.5161    0.8604    0.0222 C   0  0  0  0  0  0  0  0  0  0  0  0
  1 17  1  0
  2  5  1  0
  2  9  1  0
  3  4  1  0
  3  5  1  0
  3  6  1  0
  4  7  2  0
  4  8  1  0
  7 10  1  0
  8 11  2  0
  9 13  2  0
  9 14  1  0
 10 12  2  0
 11 12  1  0
 13 15  1  0
 14 16  2  0
 15 17  2  0
 16 17  1  0
M  END
>  <PUBCHEM_COMPOUND_CID>  (1) 
13723

>  <PUBCHEM_CONFORMER_RMSD>  (1) 
0.6

>  <PUBCHEM_CONFORMER_DIVERSEORDER>  (1) 
6
8
14
15
10
19
16
13
9
4
17
1
12
11
2
3
5
18
7

>  <PUBCHEM_MMFF94_PARTIAL_CHARGES>  (1) 
26
1 -0.18
10 -0.15
11 -0.15
12 -0.15
13 -0.15
14 -0.15
15 -0.15
16 -0.15
17 0.18
2 -0.33
23 0.15
24 0.15
25 0.15
26 0.15
27 0.15
28 0.15
29 0.15
3 -0.84
30 0.15
31 0.15
4 0.1
5 0.6
6 0.37
7 -0.15
8 -0.15
9 0.1

>  <PUBCHEM_EFFECTIVE_ROTOR_COUNT>  (1) 
4

>  <PUBCHEM_PHARMACOPHORE_FEATURES>  (1) 
3
1 3 cation
6 4 7 8 10 11 12 rings
6 9 13 14 15 16 17 rings

>  <PUBCHEM_HEAVY_ATOM_COUNT>  (1) 
17

>  <PUBCHEM_ATOM_DEF_STEREO_COUNT>  (1) 
0

>  <PUBCHEM_ATOM_UDEF_STEREO_COUNT>  (1) 
0

>  <PUBCHEM_BOND_DEF_STEREO_COUNT>  (1) 
0

>  <PUBCHEM_BOND_UDEF_STEREO_COUNT>  (1) 
0

>  <PUBCHEM_ISOTOPIC_ATOM_COUNT>  (1) 
0

>  <PUBCHEM_COMPONENT_COUNT>  (1) 
1

>  <PUBCHEM_CACTVS_TAUTO_COUNT>  (1) 
1

>  <PUBCHEM_CONFORMER_ID>  (1) 
0000359B00000006

>  <PUBCHEM_MMFF94_ENERGY>  (1) 
57.5953

>  <PUBCHEM_FEATURE_SELFOVERLAP>  (1) 
15.223

>  <PUBCHEM_SHAPE_FINGERPRINT>  (1) 
10618630 7 10879989146899203855
11370993 70 18413383237481751246
11640471 11 18410012147774070086
11961588 58 17916003837057309224
12077114 3 18335707195087283506
12506688 2 8358255938718571078
12633257 1 16878218762200511564
12788726 201 17463143679173409666
128620 24 15410891859943086116
14178342 30 17241331407826725034
14251764 30 10663815338405125949
15061688 2 18410007732373499540
15239191 94 9943808867681054812
15276787 5 15502097448947026205
15775835 57 18412827971124693117
15848702 105 18271234010704193063
17492 89 18411138013490947383
17804303 29 7925907097831811685
18186145 218 18264219027702754567
18522851 12 9295281750979399229
192875 21 18410285891799319445
19784866 135 11314571122262572212
21524375 3 18114184112115206283
21713013 43 11527952239858141544
21731516 1 9295004609571897303
22749437 52 18410578374629497069
23379529 103 8286202794684389768
23402539 116 18338508750794205767
23557571 272 18269561700789431243
23559900 14 18131067074837641778
2871803 45 11815893427256145485
328317 168 18202279233973774652
351380 180 18411975836939358744
4340502 62 17459201694734614041
465052 167 11242267225210172601
474 4 18261398793404939685
6328613 192 18261401057601934188
7832392 63 17476369301043295373
83771 10 9367342639199233886
9981440 41 18410852204796607922

>  <PUBCHEM_SHAPE_MULTIPOLES>  (1) 
350.59
7.91
2.3
1.43
2.13
0.09
-0.36
-5.5
0.49
0.04
0.07
-0.12
0.3
0.12

>  <PUBCHEM_SHAPE_SELFOVERLAP>  (1) 
714.978

>  <PUBCHEM_SHAPE_VOLUME>  (1) 
205.5

>  <PUBCHEM_COORDINATE_TYPE>  (1) 
2
5
10

$$$$
