13722
     RDKit          3D

 17 18  0  0  0  0  0  0  0  0999 V2000
    0.0177   -0.9308   -0.4872 S   0  0  0  0  0  0  0  0  0  0  0  0
   -0.9096    0.3858   -0.2176 O   0  0  0  0  0  0  0  0  0  0  0  0
   -0.0269   -1.2619   -1.8981 O   0  0  0  0  0  0  0  0  0  0  0  0
   -0.2964   -1.9144    0.5320 O   0  0  0  0  0  0  0  0  0  0  0  0
   -2.3189    0.2766   -0.3854 C   0  0  0  0  0  0  0  0  0  0  0  0
   -2.8685   -0.7828    0.5690 C   0  0  0  0  0  0  0  0  0  0  0  0
   -2.9707    1.6384   -0.1503 C   0  0  0  0  0  0  0  0  0  0  0  0
   -4.3895   -0.8687    0.4965 C   0  0  0  0  0  0  0  0  0  0  0  0
   -4.4918    1.5527   -0.2228 C   0  0  0  0  0  0  0  0  0  0  0  0
   -5.0409    0.4927    0.7292 C   0  0  0  0  0  0  0  0  0  0  0  0
    1.6609   -0.3686   -0.1725 C   0  0  0  0  0  0  0  0  0  0  0  0
    2.1782   -0.4704    1.1087 C   0  0  0  0  0  0  0  0  0  0  0  0
    2.4064    0.1652   -1.2111 C   0  0  0  0  0  0  0  0  0  0  0  0
    4.2399    0.5140    0.3232 C   0  0  0  0  0  0  0  0  0  0  0  0
    3.4767   -0.0260    1.3582 C   0  0  0  0  0  0  0  0  0  0  0  0
    3.7049    0.6095   -0.9615 C   0  0  0  0  0  0  0  0  0  0  0  0
    5.6285    0.9888    0.5897 C   0  0  0  0  0  0  0  0  0  0  0  0
  1  2  1  0
  1  3  2  0
  1  4  2  0
  1 11  1  0
  2  5  1  0
  5  6  1  0
  5  7  1  0
  6  8  1  0
  7  9  1  0
  8 10  1  0
  9 10  1  0
 11 12  2  0
 11 13  1  0
 12 15  1  0
 13 16  2  0
 14 15  2  0
 14 16  1  0
 14 17  1  0
M  END
>  <PUBCHEM_COMPOUND_CID>  (1) 
13722

>  <PUBCHEM_CONFORMER_RMSD>  (1) 
0.6

>  <PUBCHEM_CONFORMER_DIVERSEORDER>  (1) 
2
5
7
6
8
9
1
4
3

>  <PUBCHEM_MMFF94_PARTIAL_CHARGES>  (1) 
16
1 1.49
11 -0.01
12 -0.15
13 -0.15
14 -0.14
15 -0.15
16 -0.15
17 0.14
2 -0.46
29 0.15
3 -0.65
30 0.15
31 0.15
32 0.15
4 -0.65
5 0.28

>  <PUBCHEM_EFFECTIVE_ROTOR_COUNT>  (1) 
4.2

>  <PUBCHEM_PHARMACOPHORE_FEATURES>  (1) 
4
1 3 acceptor
1 4 acceptor
6 11 12 13 14 15 16 rings
6 5 6 7 8 9 10 rings

>  <PUBCHEM_HEAVY_ATOM_COUNT>  (1) 
17

>  <PUBCHEM_ATOM_DEF_STEREO_COUNT>  (1) 
0

>  <PUBCHEM_ATOM_UDEF_STEREO_COUNT>  (1) 
0

>  <PUBCHEM_BOND_DEF_STEREO_COUNT>  (1) 
0

>  <PUBCHEM_BOND_UDEF_STEREO_COUNT>  (1) 
0

>  <PUBCHEM_ISOTOPIC_ATOM_COUNT>  (1) 
0

>  <PUBCHEM_COMPONENT_COUNT>  (1) 
1

>  <PUBCHEM_CACTVS_TAUTO_COUNT>  (1) 
1

>  <PUBCHEM_CONFORMER_ID>  (1) 
0000359A00000002

>  <PUBCHEM_MMFF94_ENERGY>  (1) 
22.839

>  <PUBCHEM_FEATURE_SELFOVERLAP>  (1) 
20.314

>  <PUBCHEM_SHAPE_FINGERPRINT>  (1) 
10354089 29 17748828514534810880
10498660 4 17632287961075660009
11046707 91 8646771105445740260
11132069 177 18335425651470263061
11471102 20 15698004033212337862
11543360 7 13038896746544871319
11796584 16 8935009169795159904
12107183 9 17028793344349541969
12236239 1 17821446876534898800
12251169 10 17095523997903147874
12363563 72 12468642698709785079
12507557 5 18113053844237524173
12507560 40 18335419024161846798
12596602 18 17095526222622731385
12633257 1 16081089294477307032
12730499 353 17060627706361252414
12788726 201 17318475436759500914
12892183 10 17313099709503890721
12969540 114 17489580156425715405
13214271 11 18413950590367462309
13288520 33 9295294945213748200
13544653 18 13551471453610879838
14252887 29 14779544569792359880
14341114 176 18040436555625091872
14341114 328 17894635854699544049
14943859 89 18131350825766892910
15188451 53 15575007221064435073
1798214 20 11312055439579287324
1813 80 14779551136734571638
18186145 218 16272204189086983406
19050596 39 17458349649530185141
193927 3 11530766955228547329
19862831 5 13758354466371503431
200 152 15140673704873691623
20325693 3 11743840262083724345
20374829 77 9151174242320873281
20432913 95 14923943435873167849
204376 136 17703789219393874551
20645477 56 17917989516418028708
20645477 70 16128107676040562790
20671657 53 8574424352698160142
20871999 31 15841255039313523477
21065198 48 17748822994926718841
21119208 17 12823297905158372576
22854114 59 18131354107137503881
231179 274 17917710197451577634
23402539 116 18343013415425584092
23402655 69 14620522211477697098
23557571 272 17489023880767095591
23559900 14 18190756240488010271
25 1 16343705434879148102
26918003 58 15213020453374478913
2916195 48 18130499825315833528
314173 85 14201394950153521126
351380 180 18409448098182498361
4028521 119 17203326693574966545
4047638 21 17632580461644544764
42 15 15864072061431257789
465052 167 14056722344527437544
474 4 16128363913319865408
5104073 3 18189060798448578545
633830 44 18340202994716740143
9882013 296 17603586326591916203

>  <PUBCHEM_SHAPE_MULTIPOLES>  (1) 
336.09
11.43
1.44
1.24
0.07
0
0.26
4.41
-3.25
1.1
0.03
-0.82
-0.21
0.1

>  <PUBCHEM_SHAPE_SELFOVERLAP>  (1) 
683.628

>  <PUBCHEM_SHAPE_VOLUME>  (1) 
195.7

>  <PUBCHEM_COORDINATE_TYPE>  (1) 
2
5
10

$$$$
