1372
     RDKit          3D

 23 25  0  0  0  0  0  0  0  0999 V2000
    3.1768   -3.3150    0.5987 O   0  0  0  0  0  0  0  0  0  0  0  0
    3.9596    3.6380    0.7255 O   0  0  0  0  0  0  0  0  0  0  0  0
    3.2510    2.4162   -1.0539 O   0  0  0  0  0  0  0  0  0  0  0  0
   -0.5534    0.4609   -0.7740 N   0  0  0  0  0  0  0  0  0  0  0  0
    0.2582   -0.6232   -0.5263 C   0  0  0  0  0  0  0  0  0  0  0  0
   -0.0019    1.5951   -0.2414 C   0  0  0  0  0  0  0  0  0  0  0  0
    1.1844    1.2463    0.3616 C   0  0  0  0  0  0  0  0  0  0  0  0
    1.3621   -0.1550    0.1895 C   0  0  0  0  0  0  0  0  0  0  0  0
   -1.8086    0.4075   -1.4952 C   0  0  0  0  0  0  0  0  0  0  0  0
    2.1070    2.1636    1.0633 C   0  0  0  0  0  0  0  0  0  0  0  0
    2.3594   -1.0728    0.5750 C   0  0  0  0  0  0  0  0  0  0  0  0
    0.1011   -1.9687   -0.8774 C   0  0  0  0  0  0  0  0  0  0  0  0
   -0.6596    2.9147   -0.3552 C   0  0  0  0  0  0  0  0  0  0  0  0
   -2.9650    0.1523   -0.5668 C   0  0  0  0  0  0  0  0  0  0  0  0
    2.2156   -2.4218    0.2308 C   0  0  0  0  0  0  0  0  0  0  0  0
    1.1030   -2.8606   -0.4844 C   0  0  0  0  0  0  0  0  0  0  0  0
    3.1382    2.7437    0.1207 C   0  0  0  0  0  0  0  0  0  0  0  0
   -3.6300    1.2263    0.0092 C   0  0  0  0  0  0  0  0  0  0  0  0
   -3.3516   -1.1537   -0.2982 C   0  0  0  0  0  0  0  0  0  0  0  0
   -4.7017    0.9898    0.8703 C   0  0  0  0  0  0  0  0  0  0  0  0
   -4.4233   -1.3903    0.5627 C   0  0  0  0  0  0  0  0  0  0  0  0
   -5.0983   -0.3185    1.1469 C   0  0  0  0  0  0  0  0  0  0  0  0
    2.9769   -4.6748    0.2188 C   0  0  0  0  0  0  0  0  0  0  0  0
  1 15  1  0
  1 23  1  0
  2 17  1  0
  3 17  2  0
  4  5  1  0
  4  6  1  0
  4  9  1  0
  5  8  2  0
  5 12  1  0
  6  7  2  0
  6 13  1  0
  7  8  1  0
  7 10  1  0
  8 11  1  0
  9 14  1  0
 10 17  1  0
 11 15  2  0
 12 16  2  0
 14 18  2  0
 14 19  1  0
 15 16  1  0
 18 20  1  0
 19 21  2  0
 20 22  2  0
 21 22  1  0
M  END
>  <PUBCHEM_COMPOUND_CID>  (1) 
1372

>  <PUBCHEM_CONFORMER_RMSD>  (1) 
0.8

>  <PUBCHEM_CONFORMER_DIVERSEORDER>  (1) 
2
23
10
12
17
16
15
9
22
18
6
4
19
20
11
13
8
14
21
7
1
5
3

>  <PUBCHEM_MMFF94_PARTIAL_CHARGES>  (1) 
31
1 -0.36
10 0.24
11 -0.15
12 -0.15
13 0.18
14 -0.14
15 0.08
16 -0.15
17 0.66
18 -0.15
19 -0.15
2 -0.65
20 -0.15
21 -0.15
22 -0.15
23 0.28
28 0.15
29 0.15
3 -0.57
33 0.15
34 0.15
35 0.15
36 0.15
37 0.15
38 0.15
4 0.05
42 0.5
5 -0.15
6 -0.33
7 -0.18
9 0.4

>  <PUBCHEM_EFFECTIVE_ROTOR_COUNT>  (1) 
5

>  <PUBCHEM_PHARMACOPHORE_FEATURES>  (1) 
8
1 1 acceptor
1 2 acceptor
1 3 acceptor
1 4 cation
3 2 3 17 anion
5 4 5 6 7 8 rings
6 14 18 19 20 21 22 rings
6 5 8 11 12 15 16 rings

>  <PUBCHEM_HEAVY_ATOM_COUNT>  (1) 
23

>  <PUBCHEM_ATOM_DEF_STEREO_COUNT>  (1) 
0

>  <PUBCHEM_ATOM_UDEF_STEREO_COUNT>  (1) 
0

>  <PUBCHEM_BOND_DEF_STEREO_COUNT>  (1) 
0

>  <PUBCHEM_BOND_UDEF_STEREO_COUNT>  (1) 
0

>  <PUBCHEM_ISOTOPIC_ATOM_COUNT>  (1) 
0

>  <PUBCHEM_COMPONENT_COUNT>  (1) 
1

>  <PUBCHEM_CACTVS_TAUTO_COUNT>  (1) 
1

>  <PUBCHEM_CONFORMER_ID>  (1) 
0000055C00000002

>  <PUBCHEM_MMFF94_ENERGY>  (1) 
59.0649

>  <PUBCHEM_FEATURE_SELFOVERLAP>  (1) 
40.746

>  <PUBCHEM_SHAPE_FINGERPRINT>  (1) 
10366900 7 18127408072044155233
10382601 240 18342469161438649149
10493431 412 18051972816244605192
1100329 8 18340482357313456178
12107183 9 17981334396103559881
12160290 23 16618134444784170854
12422481 6 18191278594937953728
12553582 1 18197492918182446879
12644460 14 18410296908258266096
12839892 36 18119522391201854507
12892183 10 18338247050347929817
13140716 1 18267295603287801138
13533116 47 18412542124900157123
13583140 156 16808099572507130712
13782708 43 12831136302907341888
138480 1 18339077064956044626
14022347 108 17549553902968348367
14223421 5 18408601435970264981
14347424 109 18339378366419620913
14787075 74 18114187389254959154
14790565 3 18121505918727105629
14863182 85 18116727398289577733
14866123 147 17834669771122456786
14955137 171 18339917131106151906
15309172 13 18194111048243729781
15475509 84 17985275079821275665
15842332 3 17773858926652935383
15927050 60 18197217169167307438
1813 80 17985551039774809878
18785283 64 18334293197601536712
19591789 44 18266455602100221982
20028762 73 17550110702566129383
20101258 96 17835806296730968986
20600515 1 17337034793677812008
20603629 256 18411149021564908643
20681677 274 18337112263816180579
20739085 24 18334013929821882452
21120745 212 17622744020317035846
21756936 100 17771622627049582400
21796203 349 18051161144614137186
22224240 67 18053100907032765625
23366157 5 18260550008798081310
23419403 2 18042106683596468318
23559900 14 18265325115052113193
283562 15 16322863844109261092
3091708 16 9288894709651149474
3421961 26 18409170974361047619
350125 39 18411138035202731752
4409770 3 17035566254377460012
458136 41 18337674221215476932
5104073 3 18339377292651189267
58807428 26 18195795483093735448
59755656 520 18124030397967440908
633830 44 18059015127969818325
6442390 28 18121786290043972192
7097593 13 18412830213878206871
79837 15 17833546074206926122
81228 2 17119726177276075460

>  <PUBCHEM_SHAPE_MULTIPOLES>  (1) 
450.74
8.31
4.88
1.06
8.69
1.57
-0.08
0.69
2.82
-8.44
0.51
0.35
-0.14
0.12

>  <PUBCHEM_SHAPE_SELFOVERLAP>  (1) 
982.703

>  <PUBCHEM_SHAPE_VOLUME>  (1) 
247.4

>  <PUBCHEM_COORDINATE_TYPE>  (1) 
2
5
10

$$$$
