13725
     RDKit          3D

 17 17  0  0  0  0  0  0  0  0999 V2000
   -5.5211   -0.1104   -0.2609 Br  0  0  0  0  0  0  0  0  0  0  0  0
    0.7447   -3.3769   -1.4344 Cl  0  0  0  0  0  0  0  0  0  0  0  0
    3.1456   -2.1946   -0.3647 Cl  0  0  0  0  0  0  0  0  0  0  0  0
    1.2318   -3.3635    1.4513 Cl  0  0  0  0  0  0  0  0  0  0  0  0
    1.0561    3.4222    1.4535 Cl  0  0  0  0  0  0  0  0  0  0  0  0
    3.0171    2.3611   -0.3727 Cl  0  0  0  0  0  0  0  0  0  0  0  0
    0.5433    3.4071   -1.4278 Cl  0  0  0  0  0  0  0  0  0  0  0  0
   -0.7828    1.1757    0.2962 N   0  0  0  0  0  0  0  0  0  0  0  0
   -0.7160   -1.2229    0.2963 N   0  0  0  0  0  0  0  0  0  0  0  0
    1.2973    0.0334   -0.0587 N   0  0  0  0  0  0  0  0  0  0  0  0
   -2.8118   -0.0812    0.6538 C   0  0  0  0  0  0  0  0  0  0  0  0
   -1.3434   -0.0402    0.3993 C   0  0  0  0  0  0  0  0  0  0  0  0
    0.5396    1.1349    0.0672 C   0  0  0  0  0  0  0  0  0  0  0  0
    0.6022   -1.1084    0.0672 C   0  0  0  0  0  0  0  0  0  0  0  0
   -3.6127   -0.1035   -0.6445 C   0  0  0  0  0  0  0  0  0  0  0  0
    1.3723   -2.3786   -0.0605 C   0  0  0  0  0  0  0  0  0  0  0  0
    1.2377    2.4459   -0.0605 C   0  0  0  0  0  0  0  0  0  0  0  0
  1 15  1  0
  2 16  1  0
  3 16  1  0
  4 16  1  0
  5 17  1  0
  6 17  1  0
  7 17  1  0
  8 12  2  0
  8 13  1  0
  9 12  1  0
  9 14  2  0
 10 13  2  0
 10 14  1  0
 11 12  1  0
 11 15  1  0
 13 17  1  0
 14 16  1  0
M  END
>  <PUBCHEM_COMPOUND_CID>  (1) 
13725

>  <PUBCHEM_CONFORMER_RMSD>  (1) 
0.6

>  <PUBCHEM_CONFORMER_DIVERSEORDER>  (1) 
1
13
12
16
11
9
17
2
10
6
15
3
14
7
4
18
5
8

>  <PUBCHEM_MMFF94_PARTIAL_CHARGES>  (1) 
17
1 -0.23
10 -0.62
11 0.14
12 0.48
13 0.48
14 0.48
15 0.23
16 1.01
17 1.01
2 -0.29
3 -0.29
4 -0.29
5 -0.29
6 -0.29
7 -0.29
8 -0.62
9 -0.62

>  <PUBCHEM_EFFECTIVE_ROTOR_COUNT>  (1) 
4

>  <PUBCHEM_PHARMACOPHORE_FEATURES>  (1) 
5
1 1 hydrophobe
3 8 10 13 cation
3 8 9 12 cation
3 9 10 14 cation
6 8 9 10 12 13 14 rings

>  <PUBCHEM_HEAVY_ATOM_COUNT>  (1) 
17

>  <PUBCHEM_ATOM_DEF_STEREO_COUNT>  (1) 
0

>  <PUBCHEM_ATOM_UDEF_STEREO_COUNT>  (1) 
0

>  <PUBCHEM_BOND_DEF_STEREO_COUNT>  (1) 
0

>  <PUBCHEM_BOND_UDEF_STEREO_COUNT>  (1) 
0

>  <PUBCHEM_ISOTOPIC_ATOM_COUNT>  (1) 
0

>  <PUBCHEM_COMPONENT_COUNT>  (1) 
1

>  <PUBCHEM_CACTVS_TAUTO_COUNT>  (1) 
3

>  <PUBCHEM_CONFORMER_ID>  (1) 
0000359D00000001

>  <PUBCHEM_MMFF94_ENERGY>  (1) 
26.114

>  <PUBCHEM_FEATURE_SELFOVERLAP>  (1) 
28.144

>  <PUBCHEM_SHAPE_FINGERPRINT>  (1) 
1 1 18338795748877280261
116883 192 17621880886050270655
12500047 106 17691969679865192536
12553582 1 18122070797415813315
12730499 353 18266182906484823419
13140716 1 18194112139122763995
13681431 1 18339090280596612875
13955234 65 18411979200499995915
15490181 7 17836372914090445866
15502722 9 18409168848647518135
15906896 17 17544757193129037463
16945 1 18338811068877730731
17134986 127 18047194325899144733
17980427 26 17701235148267070061
20645476 183 17756991477384514708
20645477 70 18411697695448263039
20671657 53 18265049125049540731
21524375 3 18122345945720430843
2255824 54 18413109476609409887
23419403 2 17751893883927515118
23557571 272 17404560205075733450
23598291 2 18129676196812325921
257057 1 17975406923953215083
2748010 2 17977119164131370507
3060560 45 18337953514238213693
3071541 37 18336831986755602205
3091708 16 9648903373727552715
352729 6 17762064632519148904
6025842 7 18341325678637291095
6443956 14 18341612573024114801
7164475 11 17469882186444701683
7364860 26 18413389843273340721
81228 2 17546449977221244075
81539 233 18261953058939600839
8272917 22 18411986871206000149
84936 182 18201438138171136561
9841814 1 18189611657969120395

>  <PUBCHEM_SHAPE_MULTIPOLES>  (1) 
352.07
6.05
5.18
1.24
12.03
0.33
-0.02
-0.43
0.87
-5.69
0.17
-0.34
0
-0.01

>  <PUBCHEM_SHAPE_SELFOVERLAP>  (1) 
644.778

>  <PUBCHEM_SHAPE_VOLUME>  (1) 
234.1

>  <PUBCHEM_COORDINATE_TYPE>  (1) 
2
5
10

$$$$
