13737
     RDKit          3D

 18 19  0  0  1  0  0  0  0  0999 V2000
   -5.1202   -1.1207    0.1114 O   0  0  0  0  0  0  0  0  0  0  0  0
   -3.1571   -2.1202   -0.4190 O   0  0  0  0  0  0  0  0  0  0  0  0
   -3.1397    0.2065    0.3375 C   0  0  0  0  0  0  0  0  0  0  0  0
   -1.6216    0.1470    0.2515 C   0  0  0  0  0  0  0  0  0  0  0  0
   -3.7754    1.3215   -0.5173 C   0  0  0  0  0  0  0  0  0  0  0  0
   -0.8805    0.3192    1.4029 C   0  0  0  0  0  0  0  0  0  0  0  0
   -1.0315   -0.0774   -0.9757 C   0  0  0  0  0  0  0  0  0  0  0  0
    1.1313    0.0395    0.0948 C   0  0  0  0  0  0  0  0  0  0  0  0
   -3.3057    2.7157   -0.1214 C   0  0  0  0  0  0  0  0  0  0  0  0
    0.5110    0.2649    1.3236 C   0  0  0  0  0  0  0  0  0  0  0  0
    0.3600   -0.1316   -1.0548 C   0  0  0  0  0  0  0  0  0  0  0  0
   -3.7684   -1.1318   -0.0341 C   0  0  0  0  0  0  0  0  0  0  0  0
    2.5747   -0.0175    0.0125 C   0  0  0  0  0  0  0  0  0  0  0  0
    3.3060    1.1460   -0.2272 C   0  0  0  0  0  0  0  0  0  0  0  0
    3.2351   -1.2357    0.1732 C   0  0  0  0  0  0  0  0  0  0  0  0
    4.6976    1.0913   -0.3064 C   0  0  0  0  0  0  0  0  0  0  0  0
    4.6267   -1.2901    0.0941 C   0  0  0  0  0  0  0  0  0  0  0  0
    5.3578   -0.1266   -0.1457 C   0  0  0  0  0  0  0  0  0  0  0  0
  1 12  1  0
  2 12  2  0
  3  4  1  0
  3  5  1  0
  3 12  1  0
  4  6  2  0
  4  7  1  0
  5  9  1  0
  6 10  1  0
  7 11  2  0
  8 10  2  0
  8 11  1  0
  8 13  1  0
 13 14  2  0
 13 15  1  0
 14 16  1  0
 15 17  2  0
 16 18  2  0
 17 18  1  0
M  END
>  <PUBCHEM_COMPOUND_CID>  (1) 
13737

>  <PUBCHEM_CONFORMER_RMSD>  (1) 
0.6

>  <PUBCHEM_CONFORMER_DIVERSEORDER>  (1) 
1
5
13
12
4
3
11
6
7
14
2
8
9
10

>  <PUBCHEM_MMFF94_PARTIAL_CHARGES>  (1) 
24
1 -0.65
10 -0.15
11 -0.15
12 0.66
14 -0.15
15 -0.15
16 -0.15
17 -0.15
18 -0.15
2 -0.57
22 0.15
23 0.15
27 0.15
28 0.15
29 0.15
3 0.2
30 0.15
31 0.15
32 0.15
33 0.5
34 0.15
4 -0.14
6 -0.15
7 -0.15

>  <PUBCHEM_EFFECTIVE_ROTOR_COUNT>  (1) 
4

>  <PUBCHEM_PHARMACOPHORE_FEATURES>  (1) 
6
1 1 acceptor
1 2 acceptor
1 9 hydrophobe
3 1 2 12 anion
6 13 14 15 16 17 18 rings
6 4 6 7 8 10 11 rings

>  <PUBCHEM_HEAVY_ATOM_COUNT>  (1) 
18

>  <PUBCHEM_ATOM_DEF_STEREO_COUNT>  (1) 
0

>  <PUBCHEM_ATOM_UDEF_STEREO_COUNT>  (1) 
1

>  <PUBCHEM_BOND_DEF_STEREO_COUNT>  (1) 
0

>  <PUBCHEM_BOND_UDEF_STEREO_COUNT>  (1) 
0

>  <PUBCHEM_ISOTOPIC_ATOM_COUNT>  (1) 
0

>  <PUBCHEM_COMPONENT_COUNT>  (1) 
1

>  <PUBCHEM_CACTVS_TAUTO_COUNT>  (1) 
1

>  <PUBCHEM_CONFORMER_ID>  (1) 
000035A900000001

>  <PUBCHEM_MMFF94_ENERGY>  (1) 
49.975

>  <PUBCHEM_FEATURE_SELFOVERLAP>  (1) 
30.505

>  <PUBCHEM_SHAPE_FINGERPRINT>  (1) 
10595046 47 18334858341982656860
10680689 15 18335427858830252137
11401426 45 15430032192650603291
11405975 8 18335417911802110704
11543360 7 18409167740065914432
12107183 9 17687178695237555632
12236239 1 18131072628414419632
12670546 56 18334290959375189656
13140716 1 15984245473864400527
13167823 11 18408039602534202306
13288520 33 18409731772525336431
13583140 156 17988629792559608712
13675066 3 17917985062637234430
13760787 19 18411698764077331674
13760787 5 16343698854783574192
14289901 80 18335702766738754704
15209294 21 17458625545339551997
15239154 128 18408605851043631956
15788980 27 18408325471209293546
15848702 151 18187083949144739670
16945 1 16128654145729682349
17349148 13 16370443375585715034
17834072 33 18408605881276753380
17844677 252 18410863157121415732
1813 80 14836130978465389872
19026448 5 18334012774496220168
200 152 18410575093659260530
20300324 65 18333169475053566321
20645477 56 18337956680241118061
20645477 70 18335421228007869594
20871999 31 18412257333802356105
21267235 1 18410302423059817758
21709351 56 18335137588177250972
22094290 60 18410572898978496897
23402539 116 17749385953691594724
23402655 69 18335140856652760916
23493267 7 18200871773512375745
23536379 177 18335701619887456568
23557571 272 18341900683815007669
23559900 14 18340198682564222104
3268164 11 16877932837162708263
4214541 1 18409729534483391349
465052 167 17774727583561989991
5104073 3 18408602539729102200
542803 24 17530970176731958052
559249 180 18338511920396005234
633830 44 17240489087192794280
69090 78 17821728360085992866
7495541 125 17988924534479248528
77779 3 18409167697237541188
9709674 26 18335991899895868282

>  <PUBCHEM_SHAPE_MULTIPOLES>  (1) 
358.69
11
1.77
0.98
4.36
0.44
0.16
-0.78
-0.92
-1.75
-0.18
-0.16
0.05
-0.16

>  <PUBCHEM_SHAPE_SELFOVERLAP>  (1) 
767.193

>  <PUBCHEM_SHAPE_VOLUME>  (1) 
199.5

>  <PUBCHEM_COORDINATE_TYPE>  (1) 
2
5
10

$$$$
