13736
     RDKit          3D

 18 20  0  0  0  0  0  0  0  0999 V2000
    0.5213   -1.6712    0.0025 S   0  0  0  0  0  0  0  0  0  0  0  0
   -4.3919   -0.4929   -0.0013 N   0  0  0  0  0  0  0  0  0  0  0  0
    0.6866    1.4951    0.0005 N   0  0  0  0  0  0  0  0  0  0  0  0
    5.6395   -1.1542   -0.0023 N   0  0  0  0  0  0  0  0  0  0  0  0
   -0.7745   -0.5367    0.0016 C   0  0  0  0  0  0  0  0  0  0  0  0
   -3.1858   -0.0522    0.0012 C   0  0  0  0  0  0  0  0  0  0  0  0
   -0.4761    0.9230    0.0010 C   0  0  0  0  0  0  0  0  0  0  0  0
   -2.0392   -0.9813    0.0017 C   0  0  0  0  0  0  0  0  0  0  0  0
    1.9549   -0.6290    0.0008 C   0  0  0  0  0  0  0  0  0  0  0  0
    1.8818    0.7668    0.0002 C   0  0  0  0  0  0  0  0  0  0  0  0
   -2.9122    1.3923    0.0011 C   0  0  0  0  0  0  0  0  0  0  0  0
   -1.6541    1.8348    0.0013 C   0  0  0  0  0  0  0  0  0  0  0  0
    3.2119   -1.2572    0.0003 C   0  0  0  0  0  0  0  0  0  0  0  0
    3.0747    1.5091   -0.0009 C   0  0  0  0  0  0  0  0  0  0  0  0
    4.3870   -0.5070   -0.0007 C   0  0  0  0  0  0  0  0  0  0  0  0
   -4.6866   -1.9490   -0.0013 C   0  0  0  0  0  0  0  0  0  0  0  0
   -5.5559    0.4300   -0.0042 C   0  0  0  0  0  0  0  0  0  0  0  0
    4.3186    0.8797   -0.0014 C   0  0  0  0  0  0  0  0  0  0  0  0
  1  5  1  0
  1  9  1  0
  2  6  2  3
  2 16  1  0
  2 17  1  0
  3  7  2  0
  3 10  1  0
  4 15  1  0
  5  7  1  0
  5  8  2  0
  6  8  1  0
  6 11  1  0
  7 12  1  0
  9 10  2  0
  9 13  1  0
 10 14  1  0
 11 12  2  0
 13 15  2  0
 14 18  2  0
 15 18  1  0
M  CHG  1   2   1
M  END
>  <PUBCHEM_COMPOUND_CID>  (1) 
13736

>  <PUBCHEM_CONFORMER_RMSD>  (1) 
0.4

>  <PUBCHEM_CONFORMER_DIVERSEORDER>  (1) 
1

>  <PUBCHEM_MMFF94_PARTIAL_CHARGES>  (1) 
26
1 -0.2
10 0.18
11 -0.14
12 -0.14
13 -0.15
14 -0.15
15 0.1
16 0.35
17 0.35
18 -0.15
19 0.15
2 -0.09
20 0.15
21 0.15
22 0.15
23 0.15
3 -0.63
30 0.15
31 0.4
32 0.4
4 -0.9
5 0.12
6 0.37
7 0.42
8 -0.14
9 0.1

>  <PUBCHEM_EFFECTIVE_ROTOR_COUNT>  (1) 
0

>  <PUBCHEM_PHARMACOPHORE_FEATURES>  (1) 
6
1 3 acceptor
1 4 cation
1 4 donor
6 1 3 5 7 9 10 rings
6 5 6 7 8 11 12 rings
6 9 10 13 14 15 18 rings

>  <PUBCHEM_HEAVY_ATOM_COUNT>  (1) 
18

>  <PUBCHEM_ATOM_DEF_STEREO_COUNT>  (1) 
0

>  <PUBCHEM_ATOM_UDEF_STEREO_COUNT>  (1) 
0

>  <PUBCHEM_BOND_DEF_STEREO_COUNT>  (1) 
0

>  <PUBCHEM_BOND_UDEF_STEREO_COUNT>  (1) 
0

>  <PUBCHEM_ISOTOPIC_ATOM_COUNT>  (1) 
0

>  <PUBCHEM_COMPONENT_COUNT>  (1) 
1

>  <PUBCHEM_CACTVS_TAUTO_COUNT>  (1) 
1

>  <PUBCHEM_CONFORMER_ID>  (1) 
000035A800000001

>  <PUBCHEM_MMFF94_ENERGY>  (1) 
71.4973

>  <PUBCHEM_FEATURE_SELFOVERLAP>  (1) 
30.484

>  <PUBCHEM_SHAPE_FINGERPRINT>  (1) 
10967382 1 18410856594242270464
11471102 20 18410292527813558620
11806522 49 18408885161129595285
12032990 46 18410576192780601961
12107183 9 17689998933851566771
12236239 1 17989205958306702383
12403259 226 18410568483573366124
12403259 415 18409439280836608052
12715332 25 17988921197369177070
13167823 11 18411980277793131039
13288520 33 18412265008312672212
13533116 47 13757809083446357332
13690532 89 18410011048088225952
13862211 1 18411133653882194871
14115302 16 17749117728594189582
14341114 176 18408610265979459091
15196674 1 18410574010937105157
15536298 74 18341895203241143240
17492 89 18339360747425373146
17802600 8 18410853252689239872
17804303 29 18413390942563636729
17834072 33 18410856589746778310
18522853 276 18413388726397389865
19141452 34 18272652376804559383
200 152 18202280312464006145
20028762 73 18201433718085806326
20261772 1 18059855120619982999
20374829 77 18408319986667990219
20510252 161 18272653411348495361
20645477 70 18411983546796116846
21267235 1 18410864243674139094
21682296 61 17915751877259952486
221490 88 18335707207650425731
23402539 116 18412538825763809319
23557571 272 18130511829390664405
23559900 14 18411132584519734384
26918003 58 18412824685833310355
2871803 45 18333728013721841443
3004659 81 18260550009510062284
335352 9 18410573972947129109
350125 39 18410575085075029300
351380 180 18409448094008765930
3545911 37 18408886213855460271
42 15 18410013238516298213
4214541 1 18410856525459789025
465052 167 18270687583595493655
474 4 17241335818953394548
474229 33 18412544318631543198
4990 188 18202290182129956686
5104073 3 18412826893114282905
59755656 215 18337110060123664839
69090 78 18343299288190518278
7495541 125 17632009848905134218
77779 3 18411138034616519713
9709674 26 18410581673296424502

>  <PUBCHEM_SHAPE_MULTIPOLES>  (1) 
359.34
11.12
1.95
0.61
1.19
0
0
2.37
-0.01
0.33
0
0.01
0.01
0

>  <PUBCHEM_SHAPE_SELFOVERLAP>  (1) 
770.379

>  <PUBCHEM_SHAPE_VOLUME>  (1) 
199.8

>  <PUBCHEM_COORDINATE_TYPE>  (1) 
2
5
10

$$$$
