13742
     RDKit          3D

 18 18  0  0  0  0  0  0  0  0999 V2000
    5.4266    1.4388    1.1250 Cl  0  0  0  0  0  0  0  0  0  0  0  0
   -4.0103    3.7333   -0.7807 Cl  0  0  0  0  0  0  0  0  0  0  0  0
   -1.0289   -5.0548    0.9385 Cl  0  0  0  0  0  0  0  0  0  0  0  0
    2.7194    1.0562   -0.2316 O   0  0  0  0  0  0  0  0  0  0  0  0
   -1.7746    1.9889    0.3483 O   0  0  0  0  0  0  0  0  0  0  0  0
   -0.3891   -2.3679   -0.3602 O   0  0  0  0  0  0  0  0  0  0  0  0
    0.4832    1.5709    0.0639 N   0  0  0  0  0  0  0  0  0  0  0  0
    1.2018   -0.6888   -0.3037 N   0  0  0  0  0  0  0  0  0  0  0  0
   -1.1292   -0.2050   -0.0029 N   0  0  0  0  0  0  0  0  0  0  0  0
    3.7024    0.0572   -0.4622 C   0  0  0  0  0  0  0  0  0  0  0  0
   -3.0943    1.4679    0.4148 C   0  0  0  0  0  0  0  0  0  0  0  0
   -1.7598   -2.7283   -0.2674 C   0  0  0  0  0  0  0  0  0  0  0  0
    1.4146    0.6285   -0.1539 C   0  0  0  0  0  0  0  0  0  0  0  0
   -0.7655    1.0810    0.1274 C   0  0  0  0  0  0  0  0  0  0  0  0
   -0.0933   -1.0325   -0.2163 C   0  0  0  0  0  0  0  0  0  0  0  0
    5.0836    0.6860   -0.4534 C   0  0  0  0  0  0  0  0  0  0  0  0
   -4.0847    2.6034    0.5954 C   0  0  0  0  0  0  0  0  0  0  0  0
   -1.9020   -4.2349   -0.3810 C   0  0  0  0  0  0  0  0  0  0  0  0
  1 16  1  0
  2 17  1  0
  3 18  1  0
  4 10  1  0
  4 13  1  0
  5 11  1  0
  5 14  1  0
  6 12  1  0
  6 15  1  0
  7 13  2  0
  7 14  1  0
  8 13  1  0
  8 15  2  0
  9 14  2  0
  9 15  1  0
 10 16  1  0
 11 17  1  0
 12 18  1  0
M  END
>  <PUBCHEM_COMPOUND_CID>  (1) 
13742

>  <PUBCHEM_CONFORMER_RMSD>  (1) 
0.8

>  <PUBCHEM_CONFORMER_DIVERSEORDER>  (1) 
1
56
34
14
8
11
60
49
2
39
13
27
46
40
52
63
31
47
62
36
57
55
6
21
15
29
28
24
12
59
25
19
43
30
44
50
26
23
35
17
61
33
9
45
41
53
22
16
37
42
54
18
38
48
7
20
32
58
51
3
5
4
10

>  <PUBCHEM_MMFF94_PARTIAL_CHARGES>  (1) 
18
1 -0.29
10 0.28
11 0.28
12 0.28
13 0.7
14 0.7
15 0.7
16 0.29
17 0.29
18 0.29
2 -0.29
3 -0.29
4 -0.36
5 -0.36
6 -0.36
7 -0.62
8 -0.62
9 -0.62

>  <PUBCHEM_EFFECTIVE_ROTOR_COUNT>  (1) 
9

>  <PUBCHEM_PHARMACOPHORE_FEATURES>  (1) 
4
3 7 8 13 cation
3 7 9 14 cation
3 8 9 15 cation
6 7 8 9 13 14 15 rings

>  <PUBCHEM_HEAVY_ATOM_COUNT>  (1) 
18

>  <PUBCHEM_ATOM_DEF_STEREO_COUNT>  (1) 
0

>  <PUBCHEM_ATOM_UDEF_STEREO_COUNT>  (1) 
0

>  <PUBCHEM_BOND_DEF_STEREO_COUNT>  (1) 
0

>  <PUBCHEM_BOND_UDEF_STEREO_COUNT>  (1) 
0

>  <PUBCHEM_ISOTOPIC_ATOM_COUNT>  (1) 
0

>  <PUBCHEM_COMPONENT_COUNT>  (1) 
1

>  <PUBCHEM_CACTVS_TAUTO_COUNT>  (1) 
1

>  <PUBCHEM_CONFORMER_ID>  (1) 
000035AE00000001

>  <PUBCHEM_MMFF94_ENERGY>  (1) 
38.6046

>  <PUBCHEM_FEATURE_SELFOVERLAP>  (1) 
23.07

>  <PUBCHEM_SHAPE_FINGERPRINT>  (1) 
10411042 1 17763464310953897630
12293681 160 17845930706551656401
12532896 13 18341335495998723214
12788726 201 18265883825636118963
13052359 8 18410856585541501135
13134695 92 17332240304505463983
13140716 1 17907301301144335563
138480 1 17185599014255331183
13955234 65 17834122940075659761
13968360 50 18191576455230475605
14178000 22 18410570656589142332
14178342 30 18337663226784826082
14866123 147 18410577305388888594
15042514 8 18194411206449523299
15842332 3 17751088109835510140
17539 30 18198336454185925071
18915476 22 17757541959422520165
19427546 20 18192724551560141148
19784866 34 18197777704874549345
20645477 70 17831019027556978281
21426921 1 18267588086254986020
22224240 67 18272381849979185001
23557571 272 18129115561972845580
23558518 356 18117842333430211328
23559900 14 17472694733299273769
2748010 2 18122653598544033087
3091708 16 8908958449424750683
3759504 43 18410576162810952021
53917941 68 18269819991385056805
54173680 148 18195532712346118743
58779409 54 18268701886838276287
58779409 8 18339375096920821167
59755656 520 18410290272982271260
6025842 7 17978787905662169301
633830 44 17700985335857616565
77188 2 17546165663424391167
81539 233 18120097178212055741
9981440 41 18265055739119991625

>  <PUBCHEM_SHAPE_MULTIPOLES>  (1) 
343.49
8.73
6.14
0.86
11.42
9.24
-0.11
-10.51
-0.87
-9.31
-0.63
0.19
-0.01
0.51

>  <PUBCHEM_SHAPE_SELFOVERLAP>  (1) 
654.685

>  <PUBCHEM_SHAPE_VOLUME>  (1) 
212.3

>  <PUBCHEM_COORDINATE_TYPE>  (1) 
2
5
10

$$$$
