1375
     RDKit          3D

 30 31  0  0  1  0  0  0  0  0999 V2000
    0.2091   -1.2102    0.9346 O   0  0  0  0  0  0  0  0  0  0  0  0
   -2.3361    1.0890   -0.1090 O   0  0  0  0  0  0  0  0  0  0  0  0
    4.3219   -2.5956    0.7545 O   0  0  0  0  0  0  0  0  0  0  0  0
    4.0316   -1.6200   -1.3044 O   0  0  0  0  0  0  0  0  0  0  0  0
   -0.2506   -0.2413   -1.1164 N   0  0  0  0  0  0  0  0  0  0  0  0
   -3.5666   -0.8825    0.0272 N   0  0  0  0  0  0  0  0  0  0  0  0
    2.7645   -0.9811    0.5328 N   0  0  0  0  0  0  0  0  0  0  0  0
   -4.5382   -0.3263    0.8427 N   0  0  0  0  0  0  0  0  0  0  0  0
  -10.7516    0.4166    0.7443 N   0  0  0  0  0  0  0  0  0  0  0  0
   -1.5689   -0.8370   -1.2903 C   0  0  0  0  0  0  0  0  0  0  0  0
   -1.9005   -0.6202   -2.7622 C   0  0  0  0  0  0  0  0  0  0  0  0
   -1.1424    0.6578   -3.1124 C   0  0  0  0  0  0  0  0  0  0  0  0
    0.1296    0.5474   -2.2856 C   0  0  0  0  0  0  0  0  0  0  0  0
    0.5652   -0.5404   -0.0363 C   0  0  0  0  0  0  0  0  0  0  0  0
   -2.5112   -0.0939   -0.3919 C   0  0  0  0  0  0  0  0  0  0  0  0
    1.9618    0.0247   -0.1009 C   0  0  0  0  0  0  0  0  0  0  0  0
    2.0193    1.3688    0.6128 C   0  0  0  0  0  0  0  0  0  0  0  0
    3.4058    1.9642    0.5928 C   0  0  0  0  0  0  0  0  0  0  0  0
   -5.8466   -0.4280    0.2105 C   0  0  0  0  0  0  0  0  0  0  0  0
   -6.9292    0.1237    1.1380 C   0  0  0  0  0  0  0  0  0  0  0  0
    3.7351   -1.7233   -0.1185 C   0  0  0  0  0  0  0  0  0  0  0  0
    4.3032    1.6767    1.6214 C   0  0  0  0  0  0  0  0  0  0  0  0
    3.7905    2.8015   -0.4546 C   0  0  0  0  0  0  0  0  0  0  0  0
   -8.3145    0.0163    0.4920 C   0  0  0  0  0  0  0  0  0  0  0  0
    5.5849    2.2268    1.6029 C   0  0  0  0  0  0  0  0  0  0  0  0
    5.0723    3.3514   -0.4730 C   0  0  0  0  0  0  0  0  0  0  0  0
   -9.4467    0.5286    1.3847 C   0  0  0  0  0  0  0  0  0  0  0  0
    5.9694    3.0640    0.5557 C   0  0  0  0  0  0  0  0  0  0  0  0
    5.3499   -3.4295    0.2079 C   0  0  0  0  0  0  0  0  0  0  0  0
    5.8890   -4.3280    1.3005 C   0  0  0  0  0  0  0  0  0  0  0  0
  1 14  2  0
  2 15  2  0
  3 21  1  0
  3 29  1  0
  4 21  2  0
  5 10  1  0
  5 13  1  0
  5 14  1  0
  6  8  1  0
  6 15  1  0
  7 16  1  0
  7 21  1  0
  8 19  1  0
  9 27  1  0
 10 11  1  0
 10 15  1  0
 11 12  1  0
 12 13  1  0
 14 16  1  0
 16 17  1  0
 17 18  1  0
 18 22  2  0
 18 23  1  0
 19 20  1  0
 20 24  1  0
 22 25  1  0
 23 26  2  0
 24 27  1  0
 25 28  2  0
 26 28  1  0
 29 30  1  0
M  END
>  <PUBCHEM_COMPOUND_CID>  (1) 
1375

>  <PUBCHEM_CONFORMER_RMSD>  (1) 
1.2

>  <PUBCHEM_CONFORMER_DIVERSEORDER>  (1) 
1
85
15
78
100
111
93
47
105
96
109
22
94
77
102
88
103
28
60
25
104
106
11
39
29
108
51
110
65
82
84
87
17
92
98
95
107
62
35
13
26
79
97
18
37
76
75
101
40
99
49
73
61
57
56
48
80
12
90
59
68
20
50
36
55
52
31
69
41
67
83
74
63
54
3
4
91
19
71
53
14
89
42
43
81
16
70
24
34
58
23
44
27
32
72
46
86
5
64
7
38
6
45
33
21
10
9
30
66
8
2

>  <PUBCHEM_MMFF94_PARTIAL_CHARGES>  (1) 
35
1 -0.57
10 0.36
13 0.3
14 0.57
15 0.57
16 0.36
17 0.14
18 -0.14
19 0.27
2 -0.57
21 0.78
22 -0.15
23 -0.15
25 -0.15
26 -0.15
27 0.27
28 -0.15
29 0.28
3 -0.43
4 -0.57
41 0.37
42 0.37
43 0.36
48 0.15
49 0.15
5 -0.66
52 0.15
53 0.15
56 0.15
59 0.36
6 -0.42
60 0.36
7 -0.73
8 -0.64
9 -0.99

>  <PUBCHEM_EFFECTIVE_ROTOR_COUNT>  (1) 
16

>  <PUBCHEM_PHARMACOPHORE_FEATURES>  (1) 
10
1 1 acceptor
1 2 acceptor
1 4 acceptor
1 6 donor
1 7 donor
1 8 donor
1 9 cation
1 9 donor
5 5 10 11 12 13 rings
6 18 22 23 25 26 28 rings

>  <PUBCHEM_HEAVY_ATOM_COUNT>  (1) 
30

>  <PUBCHEM_ATOM_DEF_STEREO_COUNT>  (1) 
0

>  <PUBCHEM_ATOM_UDEF_STEREO_COUNT>  (1) 
2

>  <PUBCHEM_BOND_DEF_STEREO_COUNT>  (1) 
0

>  <PUBCHEM_BOND_UDEF_STEREO_COUNT>  (1) 
0

>  <PUBCHEM_ISOTOPIC_ATOM_COUNT>  (1) 
0

>  <PUBCHEM_COMPONENT_COUNT>  (1) 
1

>  <PUBCHEM_CACTVS_TAUTO_COUNT>  (1) 
4

>  <PUBCHEM_CONFORMER_ID>  (1) 
0000055F00000001

>  <PUBCHEM_MMFF94_ENERGY>  (1) 
49.8509

>  <PUBCHEM_FEATURE_SELFOVERLAP>  (1) 
52.237

>  <PUBCHEM_SHAPE_FINGERPRINT>  (1) 
10006869 2 17917713495913231793
10165383 225 18115035199167239052
11411753 29 18041555823960258340
11475781 23 13254785842195865037
13540713 4 17823397341443337844
13540713 5 17845072125799609486
13673619 4 17968944067773020902
14347424 109 18413671292633280723
15131766 46 18056753454131918361
15183329 4 10951785079325429301
15392192 104 18041848453167243283
1577012 14 17704069625640880271
15840311 113 18334580140541042035
1813 80 17987228933975348518
19315958 150 18260552255656723683
20505436 4 17916301817983494972
21049683 271 18261396603852626006
21521239 73 10663829572316608501
22182313 1 17677309672504183110
25147074 1 17774988137858302326
5385378 56 18339635737960718648
57527293 21 17532364456170639450
58260988 587 18261398892721911400

>  <PUBCHEM_SHAPE_MULTIPOLES>  (1) 
569
23.17
3.77
2.06
69.95
2.09
-1.8
-3.31
15.58
-14.22
1.36
0.79
-0.13
-0.82

>  <PUBCHEM_SHAPE_SELFOVERLAP>  (1) 
1154.801

>  <PUBCHEM_SHAPE_VOLUME>  (1) 
330.2

>  <PUBCHEM_COORDINATE_TYPE>  (1) 
2
5
10

$$$$
