13766
     RDKit          3D

 21 24  0  0  1  0  0  0  0  0999 V2000
    4.2699    1.6549    0.3069 O   0  0  0  0  0  0  0  0  0  0  0  0
   -5.6091    0.5761    0.9002 O   0  0  0  0  0  0  0  0  0  0  0  0
    2.6231    0.0309   -0.5521 C   0  0  0  0  0  0  0  0  0  0  0  0
    1.6991   -0.9940    0.1661 C   0  0  0  0  0  0  0  0  0  0  0  0
    3.6075    0.4268    0.5917 C   0  0  0  0  0  0  0  0  0  0  0  0
    0.3341   -1.1615   -0.5363 C   0  0  0  0  0  0  0  0  0  0  0  0
    1.6142   -0.5036    1.6333 C   0  0  0  0  0  0  0  0  0  0  0  0
    2.6755    0.5848    1.7977 C   0  0  0  0  0  0  0  0  0  0  0  0
   -0.3981    0.1689   -0.7064 C   0  0  0  0  0  0  0  0  0  0  0  0
    1.8100    1.2214   -1.0476 C   0  0  0  0  0  0  0  0  0  0  0  0
   -0.5189   -2.2397    0.1528 C   0  0  0  0  0  0  0  0  0  0  0  0
    3.3235   -0.5783   -1.7752 C   0  0  0  0  0  0  0  0  0  0  0  0
    4.6986   -0.6132    0.8884 C   0  0  0  0  0  0  0  0  0  0  0  0
    0.4701    1.2730   -1.0947 C   0  0  0  0  0  0  0  0  0  0  0  0
   -1.7394    0.2813   -0.5419 C   0  0  0  0  0  0  0  0  0  0  0  0
   -1.9275   -2.2445   -0.4259 C   0  0  0  0  0  0  0  0  0  0  0  0
   -2.5651   -0.8932   -0.2237 C   0  0  0  0  0  0  0  0  0  0  0  0
   -2.5309    1.5656   -0.6941 C   0  0  0  0  0  0  0  0  0  0  0  0
   -3.8252   -0.8044    0.2332 C   0  0  0  0  0  0  0  0  0  0  0  0
   -3.5689    1.7363    0.4082 C   0  0  0  0  0  0  0  0  0  0  0  0
   -4.4425    0.5124    0.5194 C   0  0  0  0  0  0  0  0  0  0  0  0
  1  5  1  0
  2 21  2  0
  3  4  1  0
  3  5  1  0
  3 10  1  0
  3 12  1  0
  4  6  1  0
  4  7  1  0
  5  8  1  0
  5 13  1  0
  6  9  1  0
  6 11  1  0
  7  8  1  0
  9 14  1  0
  9 15  2  0
 10 14  2  0
 11 16  1  0
 15 17  1  0
 15 18  1  0
 16 17  1  0
 17 19  2  0
 18 20  1  0
 19 21  1  0
 20 21  1  0
M  END
>  <PUBCHEM_COMPOUND_CID>  (1) 
13766

>  <PUBCHEM_CONFORMER_RMSD>  (1) 
0.6

>  <PUBCHEM_CONFORMER_DIVERSEORDER>  (1) 
1
8
6
2
4
10
5
3
7
9

>  <PUBCHEM_MMFF94_PARTIAL_CHARGES>  (1) 
19
1 -0.68
10 -0.29
14 -0.15
15 -0.14
16 0.14
17 -0.14
18 0.14
19 -0.14
2 -0.57
20 0.06
21 0.49
28 0.15
3 0.14
37 0.15
40 0.4
43 0.15
5 0.28
6 0.14
9 -0.14

>  <PUBCHEM_EFFECTIVE_ROTOR_COUNT>  (1) 
1.4

>  <PUBCHEM_PHARMACOPHORE_FEATURES>  (1) 
7
1 1 acceptor
1 1 donor
1 2 acceptor
5 3 4 5 7 8 rings
6 15 17 18 19 20 21 rings
6 3 4 6 9 10 14 rings
6 6 9 11 15 16 17 rings

>  <PUBCHEM_HEAVY_ATOM_COUNT>  (1) 
21

>  <PUBCHEM_ATOM_DEF_STEREO_COUNT>  (1) 
1

>  <PUBCHEM_ATOM_UDEF_STEREO_COUNT>  (1) 
3

>  <PUBCHEM_BOND_DEF_STEREO_COUNT>  (1) 
0

>  <PUBCHEM_BOND_UDEF_STEREO_COUNT>  (1) 
0

>  <PUBCHEM_ISOTOPIC_ATOM_COUNT>  (1) 
0

>  <PUBCHEM_COMPONENT_COUNT>  (1) 
1

>  <PUBCHEM_CACTVS_TAUTO_COUNT>  (1) 
5

>  <PUBCHEM_CONFORMER_ID>  (1) 
000035C600000001

>  <PUBCHEM_MMFF94_ENERGY>  (1) 
57.5723

>  <PUBCHEM_FEATURE_SELFOVERLAP>  (1) 
35.816

>  <PUBCHEM_SHAPE_FINGERPRINT>  (1) 
10366900 7 17774150335540620556
10498660 4 18412260602051136589
10646746 165 18201718461647620896
11132069 177 18411140242720288015
12236239 1 17749108893724960421
12251169 10 18187082854001899501
12293681 4 17418095416293051338
12363563 72 10881406404824375675
12403259 415 18270970038019906973
12403814 3 17749102301483028357
12500047 106 17703788171232164630
12553582 1 17822009817487007261
12596602 18 17822295720949767425
12633257 1 18271225205989445376
12644460 14 17168156671061716940
12670546 177 10159692521165223402
12788726 201 17684944887058613035
13134695 92 15769774628929808186
13140716 1 18189620621365003699
13221675 6 17967813872597818527
13224815 77 18411975875741575789
13544592 145 18129675105711603486
13544653 18 12901555636949720983
13583140 156 16733253608791862909
13675066 3 18272658960641205991
13965767 371 17756432560527112721
14178342 30 18337664334127545098
14341114 328 17313116249865922921
14955137 171 17967823730011934580
15209289 33 17167860850735722314
15209294 21 18343017792028855171
15295992 7 17631720668841562274
15309172 13 18261388932112600791
15375462 189 17458337537722410544
15788980 27 16877938330504916223
16945 1 18261107512654025638
17349148 13 18263628693396894743
1813 80 16661201426666448350
18186145 218 18131071493704355095
19862831 5 11959728287216930281
200 152 14418131811934112493
20261772 1 18259984872664056217
20510252 161 18343303665152576553
20645477 70 14129059218386480744
21033648 29 18129649816923156601
21267235 1 17968099690139990778
22112679 90 18040990786932149878
22182313 1 18044652006097255055
22854114 59 18412545388531729657
22892500 29 16988841692085411008
231179 274 16056879147892306240
23419403 2 17043958187029826253
23557571 272 17916585483003668547
23558518 356 17104832690893134580
23559900 14 18130798866940588212
25147074 1 18043253650307250750
2748010 2 17901096430753602351
2871803 45 9943808876207399917
296302 2 16702301277900394526
350125 39 18194406580426652647
38570 142 17242766257763692788
427121 178 18343303639145357091
465052 167 17458641020596745307
474 4 14764343855602734677
495365 180 17274822428692235182
5104073 3 18335700597695770770
58807428 26 18335422348656756427
633830 44 17917711249760951741
6442390 28 18342181080871231303
7064713 232 18410857629588189553
7097593 13 17822842100539695451
76465 3 10881665919633522792
7808743 9 18341048639676222184
8272917 22 16128382532156074548
9862522 239 18187915124459726253
9981440 41 16962391002702257624

>  <PUBCHEM_SHAPE_MULTIPOLES>  (1) 
420.43
9.03
1.9
1.38
3.66
0.41
0.13
-2.17
2.77
0.84
-0.19
-1.15
-0.12
-0.17

>  <PUBCHEM_SHAPE_SELFOVERLAP>  (1) 
918.717

>  <PUBCHEM_SHAPE_VOLUME>  (1) 
227.2

>  <PUBCHEM_COORDINATE_TYPE>  (1) 
2
5
10

$$$$
