13763
     RDKit          3D

 20 20  0  0  0  0  0  0  0  0999 V2000
    2.6796   -1.7157    0.0436 N   0  0  0  0  0  0  0  0  0  0  0  0
    1.6157   -0.8159    0.5474 C   0  0  0  0  0  0  0  0  0  0  0  0
    0.2551   -1.2227   -0.0076 C   0  0  0  0  0  0  0  0  0  0  0  0
    4.0496   -1.3151    0.6101 C   0  0  0  0  0  0  0  0  0  0  0  0
   -0.8832   -0.2979    0.4353 C   0  0  0  0  0  0  0  0  0  0  0  0
    2.7641   -1.6589   -1.4888 C   0  0  0  0  0  0  0  0  0  0  0  0
    2.4042   -3.1708    0.4505 C   0  0  0  0  0  0  0  0  0  0  0  0
   -2.2371   -0.6618   -0.1834 C   0  0  0  0  0  0  0  0  0  0  0  0
   -3.3904    0.2140    0.3118 C   0  0  0  0  0  0  0  0  0  0  0  0
    4.4337    0.0964    0.2768 C   0  0  0  0  0  0  0  0  0  0  0  0
   -4.7268   -0.2429   -0.2806 C   0  0  0  0  0  0  0  0  0  0  0  0
   -5.8849    0.6084    0.2447 C   0  0  0  0  0  0  0  0  0  0  0  0
   -7.2444    0.2146   -0.3401 C   0  0  0  0  0  0  0  0  0  0  0  0
    5.1437    0.3682   -0.8927 C   0  0  0  0  0  0  0  0  0  0  0  0
    4.0805    1.1371    1.1360 C   0  0  0  0  0  0  0  0  0  0  0  0
   -8.4107    1.0158    0.2398 C   0  0  0  0  0  0  0  0  0  0  0  0
    5.5008    1.6804   -1.2030 C   0  0  0  0  0  0  0  0  0  0  0  0
    4.4375    2.4493    0.8256 C   0  0  0  0  0  0  0  0  0  0  0  0
    5.1476    2.7209   -0.3438 C   0  0  0  0  0  0  0  0  0  0  0  0
   -9.7345    0.5965   -0.3814 C   0  0  0  0  0  0  0  0  0  0  0  0
  1  2  1  0
  1  4  1  0
  1  6  1  0
  1  7  1  0
  2  3  1  0
  3  5  1  0
  4 10  1  0
  5  8  1  0
  8  9  1  0
  9 11  1  0
 10 14  2  0
 10 15  1  0
 11 12  1  0
 12 13  1  0
 13 16  1  0
 14 17  1  0
 15 18  2  0
 16 20  1  0
 17 19  2  0
 18 19  1  0
M  CHG  1   1   1
M  END
>  <PUBCHEM_COMPOUND_CID>  (1) 
13763

>  <PUBCHEM_CONFORMER_RMSD>  (1) 
1.2

>  <PUBCHEM_CONFORMER_DIVERSEORDER>  (1) 
1
32
64
51
36
19
86
85
13
75
15
88
87
89
40
84
50
55
80
63
21
39
77
91
28
41
34
47
60
92
58
43
54
42
22
90
11
25
83
5
68
66
37
49
33
78
16
69
7
70
18
2
26
46
6
30
61
17
67
23
14
73
44
10
52
82
27
12
31
38
35
62
59
56
45
74
4
65
20
29
57
72
9
53
81
8
71
79
24
3
48
76

>  <PUBCHEM_MMFF94_PARTIAL_CHARGES>  (1) 
16
1 -1.01
10 -0.14
14 -0.15
15 -0.15
17 -0.15
18 -0.15
19 -0.15
2 0.5
4 0.65
45 0.15
46 0.15
49 0.15
50 0.15
51 0.15
6 0.5
7 0.5

>  <PUBCHEM_EFFECTIVE_ROTOR_COUNT>  (1) 
11

>  <PUBCHEM_PHARMACOPHORE_FEATURES>  (1) 
3
1 1 cation
1 20 hydrophobe
6 10 14 15 17 18 19 rings

>  <PUBCHEM_HEAVY_ATOM_COUNT>  (1) 
20

>  <PUBCHEM_ATOM_DEF_STEREO_COUNT>  (1) 
0

>  <PUBCHEM_ATOM_UDEF_STEREO_COUNT>  (1) 
0

>  <PUBCHEM_BOND_DEF_STEREO_COUNT>  (1) 
0

>  <PUBCHEM_BOND_UDEF_STEREO_COUNT>  (1) 
0

>  <PUBCHEM_ISOTOPIC_ATOM_COUNT>  (1) 
0

>  <PUBCHEM_COMPONENT_COUNT>  (1) 
1

>  <PUBCHEM_CACTVS_TAUTO_COUNT>  (1) 
1

>  <PUBCHEM_CONFORMER_ID>  (1) 
000035C300000001

>  <PUBCHEM_MMFF94_ENERGY>  (1) 
40.6051

>  <PUBCHEM_FEATURE_SELFOVERLAP>  (1) 
15.223

>  <PUBCHEM_SHAPE_FINGERPRINT>  (1) 
10066227 49 10015868678787608525
10165383 225 18113623404941640670
10411042 1 17905606602230457970
10638233 991 18060140938420527409
11211813 74 18335417934116139453
11719270 70 12757146862474865977
125118 31 18261673680377020213
12730499 353 18408892845153603546
13533116 47 18262516983766826243
13617811 41 15769777953224257521
13914758 101 9295297153729291503
13955234 65 18187921721308525138
14142895 15 18338516443745050239
14170010 4 18186522107657208901
14251757 52 18411980252740706601
14251764 18 18060136532279596081
14347332 77 9583530810629596035
14429380 56 18410282623888305125
14461889 52 17749398104523711203
14528608 73 18272368715304171606
14598715 104 17313370207610089757
15183329 4 17775007882297813009
155225 6 17898298452861076588
16120349 18 18410287022193324205
1754908 1 16805332081262461761
18335252 114 18272937116014307444
19427546 62 18408886247815227066
20157964 124 18409449167919420947
20281389 69 18187361005138309021
20554085 129 16587738742588305201
20621476 38 9295289443914646785
21049683 118 18116134736127365738
21150785 3 17988924475314985733
21304303 94 15913337883754361366
21344244 78 18124860288881127546
22224240 67 17458062660786287635
2303208 19 13326567501880997263
255183 451 17771636650693083950
28498 318 10519989254011020305
328311 84 11743835881480742173
34797466 226 18273218565115680431
4073 2 18260551156398927219
4325135 7 18272369759086791165
444735 82 18259705584506883333
44555599 121 18200600173119750809
445580 126 18341603846257185936
465052 167 8935004776185605912
5312510 48 18341894146769606608
59521099 67 17346597457406876784
59682541 52 16845583006271815780
60111433 81 18054506078309348712
6025842 7 18342177726454397950
6438161 24 11887678351058413756

>  <PUBCHEM_SHAPE_MULTIPOLES>  (1) 
406.61
24.37
2.59
1.03
71.28
0.28
-0.16
-14.5
-2.91
-5.86
0.13
-1.31
-0.06
-0.24

>  <PUBCHEM_SHAPE_SELFOVERLAP>  (1) 
783.508

>  <PUBCHEM_SHAPE_VOLUME>  (1) 
249.1

>  <PUBCHEM_COORDINATE_TYPE>  (1) 
2
5
10

$$$$
