13773
     RDKit          3D

 22 24  0  0  0  0  0  0  0  0999 V2000
   -1.4576    0.0541   -1.5879 O   0  0  0  0  0  0  0  0  0  0  0  0
   -3.7202   -0.9699   -0.3686 N   0  0  0  0  0  0  0  0  0  0  0  0
   -4.8874   -1.7566    0.0290 C   0  0  0  0  0  0  0  0  0  0  0  0
   -3.6692    0.1407    0.5818 C   0  0  0  0  0  0  0  0  0  0  0  0
   -5.9286   -0.6907    0.3371 C   0  0  0  0  0  0  0  0  0  0  0  0
   -5.1281    0.5572    0.6969 C   0  0  0  0  0  0  0  0  0  0  0  0
   -2.4951   -1.7556   -0.3711 C   0  0  0  0  0  0  0  0  0  0  0  0
    1.1780   -0.3218   -0.6158 C   0  0  0  0  0  0  0  0  0  0  0  0
    0.0174   -1.2489   -0.1836 C   0  0  0  0  0  0  0  0  0  0  0  0
   -1.3324   -0.8755   -0.7920 C   0  0  0  0  0  0  0  0  0  0  0  0
    0.9828    1.1368   -0.2156 C   0  0  0  0  0  0  0  0  0  0  0  0
    2.5413   -0.8378   -0.1665 C   0  0  0  0  0  0  0  0  0  0  0  0
    1.5342    2.1218   -1.0068 C   0  0  0  0  0  0  0  0  0  0  0  0
    3.6481   -0.5428   -0.9330 C   0  0  0  0  0  0  0  0  0  0  0  0
    0.2611    1.4219    0.9237 C   0  0  0  0  0  0  0  0  0  0  0  0
    2.6208   -1.5815    0.9913 C   0  0  0  0  0  0  0  0  0  0  0  0
    1.3556    3.4559   -0.6410 C   0  0  0  0  0  0  0  0  0  0  0  0
    4.8948   -1.0143   -0.5221 C   0  0  0  0  0  0  0  0  0  0  0  0
    0.0824    2.7562    1.2893 C   0  0  0  0  0  0  0  0  0  0  0  0
    3.8677   -2.0529    1.4023 C   0  0  0  0  0  0  0  0  0  0  0  0
    0.6298    3.7730    0.5069 C   0  0  0  0  0  0  0  0  0  0  0  0
    5.0045   -1.7693    0.6455 C   0  0  0  0  0  0  0  0  0  0  0  0
  1 10  2  0
  2  3  1  0
  2  4  1  0
  2  7  1  0
  3  5  1  0
  4  6  1  0
  5  6  1  0
  7 10  1  0
  8  9  1  0
  8 11  1  0
  8 12  1  0
  9 10  1  0
 11 13  2  0
 11 15  1  0
 12 14  2  0
 12 16  1  0
 13 17  1  0
 14 18  1  0
 15 19  2  0
 16 20  2  0
 17 21  2  0
 18 22  2  0
 19 21  1  0
 20 22  1  0
M  END
>  <PUBCHEM_COMPOUND_CID>  (1) 
13773

>  <PUBCHEM_CONFORMER_RMSD>  (1) 
0.8

>  <PUBCHEM_CONFORMER_DIVERSEORDER>  (1) 
1
59
16
22
10
2
6
33
51
65
13
63
48
30
52
58
60
38
55
47
23
32
17
43
4
20
42
8
35
11
50
5
31
41
61
21
36
15
24
54
57
46
14
56
64
12
7
26
66
34
49
28
29
3
39
25
18
53
40
37
9
45
44
62
19
27

>  <PUBCHEM_MMFF94_PARTIAL_CHARGES>  (1) 
30
1 -0.57
10 0.45
11 -0.14
12 -0.14
13 -0.15
14 -0.15
15 -0.15
16 -0.15
17 -0.15
18 -0.15
19 -0.15
2 -0.81
20 -0.15
21 -0.15
22 -0.15
3 0.27
36 0.15
37 0.15
38 0.15
39 0.15
4 0.27
40 0.15
41 0.15
42 0.15
43 0.15
44 0.15
45 0.15
7 0.33
8 0.29
9 0.06

>  <PUBCHEM_EFFECTIVE_ROTOR_COUNT>  (1) 
7

>  <PUBCHEM_PHARMACOPHORE_FEATURES>  (1) 
5
1 1 acceptor
1 2 cation
5 2 3 4 5 6 rings
6 11 13 15 17 19 21 rings
6 12 14 16 18 20 22 rings

>  <PUBCHEM_HEAVY_ATOM_COUNT>  (1) 
22

>  <PUBCHEM_ATOM_DEF_STEREO_COUNT>  (1) 
0

>  <PUBCHEM_ATOM_UDEF_STEREO_COUNT>  (1) 
0

>  <PUBCHEM_BOND_DEF_STEREO_COUNT>  (1) 
0

>  <PUBCHEM_BOND_UDEF_STEREO_COUNT>  (1) 
0

>  <PUBCHEM_ISOTOPIC_ATOM_COUNT>  (1) 
0

>  <PUBCHEM_COMPONENT_COUNT>  (1) 
1

>  <PUBCHEM_CACTVS_TAUTO_COUNT>  (1) 
3

>  <PUBCHEM_CONFORMER_ID>  (1) 
000035CD00000001

>  <PUBCHEM_MMFF94_ENERGY>  (1) 
58.329

>  <PUBCHEM_FEATURE_SELFOVERLAP>  (1) 
25.373

>  <PUBCHEM_SHAPE_FINGERPRINT>  (1) 
10162869 55 18202844337150826945
11045515 52 17968375641904875220
11135609 187 17975991061725048556
11265709 11 18410575055025634288
11405975 8 18337393859258106635
12166972 35 18060137665554915627
12403260 363 18272650186698168975
12507557 5 18272654541684146491
12516196 113 18410291406642939418
12553582 1 18339349804038185030
12616971 3 17988365975085275015
12633257 1 18270976682639859793
12788726 201 18265342720228457282
13004483 165 18338226060405112290
13257819 101 13686295729946070043
133893 2 17836047398671874908
13533116 47 18192711370527276059
13590594 115 18336553741684482273
13878862 14 18265876112823960325
13899415 154 18337402594709688662
14022347 108 18341629083195133094
14251757 17 14851891296359323362
14466204 15 18339361838947439849
14739800 52 17487331784038553241
14950920 106 18121248560866806899
14955137 171 18272093802821653334
15042514 8 18123189000682764764
15238133 3 18338812121598444405
15420108 30 17486193802794472388
15664445 248 18342472439052532630
15849732 13 17846498136287290239
15885798 251 18341049631787059706
15927050 60 17835805566633735182
1601671 61 18271811185351883006
17349148 13 17703794734437850335
17492 89 18123750018228678079
17868525 174 18408597055272298129
17980427 23 17059477656032496341
17980427 26 17696740435106364236
1813 80 18413111632572131998
18222031 100 18272927223982256575
18785283 64 17971189476659447948
19078846 21 18412830178985751143
19784866 9 18195808707013501848
20600515 1 18202847664658822238
20671657 1 18196934589797958405
20681677 274 18265897046151785987
20739085 24 18343020012606263264
20832881 197 18260266330825063843
21033648 29 16844999118474522659
21041028 32 18413103944338364749
21421861 104 18337102471159292832
22950370 63 18408323254975098338
23366157 5 18119525685378674621
23419403 2 18057294293867785656
23558518 356 17545876496214176502
23559900 14 18337666538125756419
312423 11 18057037133033136847
3286 77 18335701680560506143
3411729 13 18057879341717920104
345986 75 17970331638435577530
4409770 3 17901373512047607189
5104073 3 18270130144739228307
5895379 119 17130736936067691337
6086070 43 18263623140415176469
6442390 28 17111010893963210897
7164475 11 18192150391805380238
7495541 125 18187088394462686703
81228 2 18126560120682135396
8509985 295 18413672422272904805
8863177 126 17970080035468470715
9841814 1 18335693979457200146
9971528 1 18131631196631079422
9981440 41 17403729446699733529

>  <PUBCHEM_SHAPE_MULTIPOLES>  (1) 
441.9
10.68
3.57
1.2
9.87
4.4
-0.07
-8.62
-1.68
-2.05
-0.59
-0.53
0.11
-1.19

>  <PUBCHEM_SHAPE_SELFOVERLAP>  (1) 
941.864

>  <PUBCHEM_SHAPE_VOLUME>  (1) 
245.7

>  <PUBCHEM_COORDINATE_TYPE>  (1) 
2
5
10

$$$$
