13792
     RDKit          3D

 26 28  0  0  1  0  0  0  0  0999 V2000
    1.7153   -0.9642    1.2116 S   0  0  0  0  0  0  0  0  0  0  0  0
   -1.3020   -1.5418    1.1712 O   0  0  0  0  0  0  0  0  0  0  0  0
   -1.9546   -4.3865    0.2881 O   0  0  0  0  0  0  0  0  0  0  0  0
   -3.4750   -2.8617   -1.3697 O   0  0  0  0  0  0  0  0  0  0  0  0
    5.5231   -0.2607   -1.8916 O   0  0  0  0  0  0  0  0  0  0  0  0
    6.9048   -0.5661   -0.1206 O   0  0  0  0  0  0  0  0  0  0  0  0
   -3.0183   -0.1735    0.2699 N   0  0  0  0  0  0  0  0  0  0  0  0
   -4.4339    1.5379    0.0577 N   0  0  0  0  0  0  0  0  0  0  0  0
   -0.9058    1.0069    0.0542 N   0  0  0  0  0  0  0  0  0  0  0  0
   -1.2553    3.3993   -0.2781 N   0  0  0  0  0  0  0  0  0  0  0  0
   -3.4369    4.3790   -0.3662 N   0  0  0  0  0  0  0  0  0  0  0  0
    6.0954    1.8741    0.8747 N   0  0  0  0  0  0  0  0  0  0  0  0
   -1.2819   -3.3312   -0.3988 C   0  0  0  0  0  0  0  0  0  0  0  0
   -2.2930   -2.2931   -0.8443 C   0  0  0  0  0  0  0  0  0  0  0  0
   -0.4363   -2.5522    0.6038 C   0  0  0  0  0  0  0  0  0  0  0  0
   -2.5519   -1.5458    0.4550 C   0  0  0  0  0  0  0  0  0  0  0  0
    0.7558   -1.8571   -0.0388 C   0  0  0  0  0  0  0  0  0  0  0  0
   -2.2451    0.9400    0.0940 C   0  0  0  0  0  0  0  0  0  0  0  0
   -4.3255    0.2384    0.2397 C   0  0  0  0  0  0  0  0  0  0  0  0
   -3.1411    1.9892   -0.0349 C   0  0  0  0  0  0  0  0  0  0  0  0
    2.9984   -0.2895    0.1314 C   0  0  0  0  0  0  0  0  0  0  0  0
    4.0331    0.5561    0.8797 C   0  0  0  0  0  0  0  0  0  0  0  0
   -2.6016    3.2571   -0.2271 C   0  0  0  0  0  0  0  0  0  0  0  0
    5.1642    1.1342    0.0171 C   0  0  0  0  0  0  0  0  0  0  0  0
   -0.5021    2.2819   -0.1363 C   0  0  0  0  0  0  0  0  0  0  0  0
    5.9700    0.0290   -0.6422 C   0  0  0  0  0  0  0  0  0  0  0  0
  1 17  1  0
  1 21  1  0
  2 15  1  0
  2 16  1  0
  3 13  1  0
  4 14  1  0
  5 26  1  0
  6 26  2  0
  7 16  1  0
  7 18  1  0
  7 19  1  0
  8 19  2  0
  8 20  1  0
  9 18  1  0
  9 25  2  0
 10 23  2  0
 10 25  1  0
 11 23  1  0
 12 24  1  0
 13 14  1  0
 13 15  1  0
 14 16  1  0
 15 17  1  0
 18 20  2  0
 20 23  1  0
 21 22  1  0
 22 24  1  0
 24 26  1  0
M  END
>  <PUBCHEM_COMPOUND_CID>  (1) 
13792

>  <PUBCHEM_CONFORMER_RMSD>  (1) 
1

>  <PUBCHEM_CONFORMER_DIVERSEORDER>  (1) 
5
82
460
56
431
58
443
736
147
476
578
412
16
641
330
54
109
678
389
430
48
269
229
116
97
735
46
677
79
306
526
528
265
63
53
11
625
241
121
280
671
85
3
560
399
524
634
7
613
128
346
15
515
67
1
621
507
418
313
113
110
420
92
192
363
321
8
312
691
70
123
343
562
221
133
100
271
197
529
704
653
371
663
208
400
81
673
422
424
741
632
172
19
294
2
65
438
57
317
314
83
646
707
27
436
135
530
211
254
726
188
40
362
628
570
675
23
503
13
693
18
61
73
610
51
517
49
130
74
724
12
255
668
525
473
711
91
415
184
481
661
223
190
218
508
118
25
486
506
159
329
500
243
572
624
101
9
71
261
29
94
55
659
485
203
574
66
44
510
470
450
305
52
440
471
78
351
77
567
151
645
226
715
207
167
377
520
493
231
374
365
235
499
622
30
519
692
672
326
272
185
95
32
204
398
387
86
247
344
706
20
264
68
742
233
366
72
408
435

>  <PUBCHEM_MMFF94_PARTIAL_CHARGES>  (1) 
34
1 -0.46
10 -0.62
11 -0.9
12 -0.99
13 0.28
14 0.28
15 0.28
16 0.54
17 0.23
18 0.11
19 0.04
2 -0.56
20 0.23
21 0.23
23 0.41
24 0.33
25 0.47
26 0.66
3 -0.68
33 0.4
34 0.4
35 0.15
4 -0.68
41 0.15
42 0.4
43 0.4
44 0.36
45 0.36
46 0.5
5 -0.65
6 -0.57
7 0.05
8 -0.57
9 -0.57

>  <PUBCHEM_EFFECTIVE_ROTOR_COUNT>  (1) 
8

>  <PUBCHEM_PHARMACOPHORE_FEATURES>  (1) 
19
1 11 cation
1 11 donor
1 12 cation
1 12 donor
1 2 acceptor
1 3 acceptor
1 3 donor
1 4 acceptor
1 4 donor
1 5 acceptor
1 6 acceptor
3 5 6 26 anion
3 7 8 19 cation
3 7 9 18 cation
3 9 10 25 cation
4 1 17 21 22 hydrophobe
5 2 13 14 15 16 rings
5 7 8 18 19 20 rings
6 9 10 18 20 23 25 rings

>  <PUBCHEM_HEAVY_ATOM_COUNT>  (1) 
26

>  <PUBCHEM_ATOM_DEF_STEREO_COUNT>  (1) 
4

>  <PUBCHEM_ATOM_UDEF_STEREO_COUNT>  (1) 
1

>  <PUBCHEM_BOND_DEF_STEREO_COUNT>  (1) 
0

>  <PUBCHEM_BOND_UDEF_STEREO_COUNT>  (1) 
0

>  <PUBCHEM_ISOTOPIC_ATOM_COUNT>  (1) 
0

>  <PUBCHEM_COMPONENT_COUNT>  (1) 
1

>  <PUBCHEM_CACTVS_TAUTO_COUNT>  (1) 
3

>  <PUBCHEM_CONFORMER_ID>  (1) 
000035E000000005

>  <PUBCHEM_MMFF94_ENERGY>  (1) 
54.746

>  <PUBCHEM_FEATURE_SELFOVERLAP>  (1) 
97.1

>  <PUBCHEM_SHAPE_FINGERPRINT>  (1) 
10165383 225 18202008681589197017
10411042 1 17905327677868072755
10670039 82 18334574646956214606
10864689 126 18267018354696852132
10871710 139 18410566297761702863
1100329 8 18265051513035312201
11014199 57 17905889532493576530
11135609 187 18119512268634948789
12107183 9 18118389654461996786
12390115 104 18198351658381124625
12788726 201 18263348317378131819
13402501 40 18343303669489832800
138480 1 16897641291185712795
13911987 19 18262499426525563343
14251757 5 18411702110247070274
14251764 75 17981891839376865585
14508225 48 17981593073093500871
14790565 3 18195809565922721105
14840074 17 16950577579469314844
15042514 8 18265058101356979779
15230672 131 18192716640705576894
15575132 122 18260828146812433165
15876981 60 18190746534135994406
16087824 20 18410571787637021727
17492 54 18264187185379692079
20101258 96 18119255214324896459
21236236 1 18341891943767374890
22122407 14 15502097440473143734
23557571 272 18200599210645902230
23559900 14 18270671103437188129
255183 451 17478602868932806839
3610482 184 18042143058513274582
508706 21 18342167912732999778
5283173 99 18341331171873945952
531348 171 18411422787497991290
53794403 172 17255116745139881485
7288768 16 17676774175660204707
7808743 9 18410568470603464504
9981440 41 18188782634427604603

>  <PUBCHEM_SHAPE_MULTIPOLES>  (1) 
479.68
12.38
4.97
1.02
27.15
0.14
-0.14
5.2
-1.84
-7.24
-0.62
0.74
-0.39
0.19

>  <PUBCHEM_SHAPE_SELFOVERLAP>  (1) 
1003.441

>  <PUBCHEM_SHAPE_VOLUME>  (1) 
273.9

>  <PUBCHEM_COORDINATE_TYPE>  (1) 
2
5
10

$$$$
