13809
     RDKit          3D

 35 39  0  0  1  0  0  0  0  0999 V2000
   -5.4820   -2.5266   -0.4891 P   0  0  0  0  0  0  0  0  0  0  0  0
    2.1908   -0.0397   -1.1432 F   0  0  0  0  0  0  0  0  0  0  0  0
   -2.0138    1.2310   -1.0801 O   0  0  0  0  0  0  0  0  0  0  0  0
   -2.0862    3.3918   -0.1588 O   0  0  0  0  0  0  0  0  0  0  0  0
    1.0380   -2.2187    1.4713 O   0  0  0  0  0  0  0  0  0  0  0  0
   -4.0595    1.1051    1.4577 O   0  0  0  0  0  0  0  0  0  0  0  0
   -4.9519   -1.0941    0.0549 O   0  0  0  0  0  0  0  0  0  0  0  0
    6.8825   -0.9163   -2.1254 O   0  0  0  0  0  0  0  0  0  0  0  0
   -4.8208   -3.5919    0.5322 O   0  0  0  0  0  0  0  0  0  0  0  0
   -4.6328   -2.7386   -1.8488 O   0  0  0  0  0  0  0  0  0  0  0  0
   -6.9707   -2.6299   -0.6490 O   0  0  0  0  0  0  0  0  0  0  0  0
   -0.7220    0.2638    0.7987 C   0  0  0  0  0  0  0  0  0  0  0  0
    0.3865    1.3146    0.5642 C   0  0  0  0  0  0  0  0  0  0  0  0
    1.7779    0.8388    1.0046 C   0  0  0  0  0  0  0  0  0  0  0  0
   -1.9561    1.0804    0.3361 C   0  0  0  0  0  0  0  0  0  0  0  0
    2.1594   -0.4418    0.1834 C   0  0  0  0  0  0  0  0  0  0  0  0
   -1.7086    2.4907    0.8782 C   0  0  0  0  0  0  0  0  0  0  0  0
   -0.1958    2.5929    1.1721 C   0  0  0  0  0  0  0  0  0  0  0  0
   -0.3734   -0.9687   -0.0563 C   0  0  0  0  0  0  0  0  0  0  0  0
    1.0401   -1.5264    0.2323 C   0  0  0  0  0  0  0  0  0  0  0  0
    3.6228   -0.9386    0.5093 C   0  0  0  0  0  0  0  0  0  0  0  0
    2.8154    1.9584    0.8038 C   0  0  0  0  0  0  0  0  0  0  0  0
   -0.8917   -0.1291    2.2919 C   0  0  0  0  0  0  0  0  0  0  0  0
   -3.2711    0.4848    0.7456 C   0  0  0  0  0  0  0  0  0  0  0  0
    4.2332    1.4931    1.1145 C   0  0  0  0  0  0  0  0  0  0  0  0
   -2.2907    2.6107   -1.3377 C   0  0  0  0  0  0  0  0  0  0  0  0
    4.5655    0.2562    0.3193 C   0  0  0  0  0  0  0  0  0  0  0  0
    3.8040   -1.4642    1.9518 C   0  0  0  0  0  0  0  0  0  0  0  0
    4.0032   -2.0901   -0.4106 C   0  0  0  0  0  0  0  0  0  0  0  0
   -3.5636   -0.9099    0.2347 C   0  0  0  0  0  0  0  0  0  0  0  0
   -3.7439    2.7618   -1.7789 C   0  0  0  0  0  0  0  0  0  0  0  0
   -1.3504    3.1055   -2.4301 C   0  0  0  0  0  0  0  0  0  0  0  0
    5.6067    0.2576   -0.5278 C   0  0  0  0  0  0  0  0  0  0  0  0
    5.0376   -2.0939   -1.2570 C   0  0  0  0  0  0  0  0  0  0  0  0
    5.9214   -0.9189   -1.3636 C   0  0  0  0  0  0  0  0  0  0  0  0
  1  7  1  0
  1  9  1  0
  1 10  1  0
  1 11  2  0
  2 16  1  0
  3 15  1  0
  3 26  1  0
  4 17  1  0
  4 26  1  0
  5 20  1  0
  6 24  2  0
  7 30  1  0
  8 35  2  0
 12 13  1  0
 12 15  1  0
 12 19  1  0
 12 23  1  0
 13 14  1  0
 13 18  1  0
 14 16  1  0
 14 22  1  0
 15 17  1  0
 15 24  1  0
 16 20  1  0
 16 21  1  0
 17 18  1  0
 19 20  1  0
 21 27  1  0
 21 28  1  0
 21 29  1  0
 22 25  1  0
 24 30  1  0
 25 27  1  0
 26 31  1  0
 26 32  1  0
 27 33  2  0
 29 34  2  0
 33 35  1  0
 34 35  1  0
M  END
>  <PUBCHEM_COMPOUND_CID>  (1) 
13809

>  <PUBCHEM_CONFORMER_RMSD>  (1) 
0.8

>  <PUBCHEM_CONFORMER_DIVERSEORDER>  (1) 
1
5
10
2
9
8
3
4
6
7

>  <PUBCHEM_MMFF94_PARTIAL_CHARGES>  (1) 
31
1 1.51
10 -0.77
11 -0.7
15 0.34
16 0.34
17 0.28
2 -0.34
20 0.28
21 0.28
24 0.45
25 0.14
26 0.56
27 -0.28
29 -0.29
3 -0.56
30 0.34
33 -0.14
34 -0.14
35 0.54
4 -0.56
5 -0.68
54 0.15
55 0.4
6 -0.57
64 0.15
65 0.15
66 0.5
67 0.5
7 -0.55
8 -0.57
9 -0.77

>  <PUBCHEM_EFFECTIVE_ROTOR_COUNT>  (1) 
5.6

>  <PUBCHEM_PHARMACOPHORE_FEATURES>  (1) 
16
1 10 acceptor
1 11 acceptor
1 3 acceptor
1 4 acceptor
1 5 acceptor
1 5 donor
1 6 acceptor
1 8 acceptor
1 9 acceptor
3 26 31 32 hydrophobe
4 1 9 10 11 anion
5 12 13 15 17 18 rings
5 3 4 15 17 26 rings
6 12 13 14 16 19 20 rings
6 14 16 21 22 25 27 rings
6 21 27 29 33 34 35 rings

>  <PUBCHEM_HEAVY_ATOM_COUNT>  (1) 
35

>  <PUBCHEM_ATOM_DEF_STEREO_COUNT>  (1) 
8

>  <PUBCHEM_ATOM_UDEF_STEREO_COUNT>  (1) 
0

>  <PUBCHEM_BOND_DEF_STEREO_COUNT>  (1) 
0

>  <PUBCHEM_BOND_UDEF_STEREO_COUNT>  (1) 
0

>  <PUBCHEM_ISOTOPIC_ATOM_COUNT>  (1) 
0

>  <PUBCHEM_COMPONENT_COUNT>  (1) 
1

>  <PUBCHEM_CACTVS_TAUTO_COUNT>  (1) 
6

>  <PUBCHEM_CONFORMER_ID>  (1) 
000035F100000001

>  <PUBCHEM_MMFF94_ENERGY>  (1) 
83.9105

>  <PUBCHEM_FEATURE_SELFOVERLAP>  (1) 
81.999

>  <PUBCHEM_SHAPE_FINGERPRINT>  (1) 
10190108 129 18337684083062288739
10366900 7 18041002855890355232
10498660 4 17969790679321450364
11227688 84 17988074470252211374
11315621 246 18411425007173085862
11477941 20 17967542263456588292
11497681 19 18058167400441398686
11578080 2 17535195440550479180
12403259 415 18335986368183706408
12422481 6 17060342954583055399
12788726 201 18260826016255693922
131258 38 16123277731823924415
13224815 77 18338516318616433992
13690498 29 18410296886889087183
13782708 43 18412267225070217506
13944108 23 15881223000065031260
14347332 77 18411697651955335930
14556957 393 17313397716020591429
14856354 85 17703242710485630433
14955137 171 17275106136740573680
15082195 135 17603862291305077852
15361156 5 18335719229375053297
17349148 13 17385730175011949690
17492 89 18342454794989666218
17980427 23 16298967354326514804
18608769 82 18341614836977885922
20775530 9 18338509846269510667
21033648 29 18261955155279884456
21641784 216 17967810548340533381
22122407 14 13190346763884432246
22182313 1 18200008729693696720
22393880 68 18335979753864875008
23559900 14 18271805667094348288
350125 39 18263656081907514400
46194498 28 18343305903315711204
469060 322 18113617897933957437
497634 4 18131079203260517233
6086070 43 18041834014204884828
7237137 82 18334297526374852308

>  <PUBCHEM_SHAPE_MULTIPOLES>  (1) 
664.04
13.58
3.88
1.9
2.61
0.14
-0.4
-10.86
-5.83
-5.79
-1.16
0.43
0.47
0.98

>  <PUBCHEM_SHAPE_SELFOVERLAP>  (1) 
1433.438

>  <PUBCHEM_SHAPE_VOLUME>  (1) 
371.5

>  <PUBCHEM_COORDINATE_TYPE>  (1) 
2
5
10

$$$$
