13819
     RDKit          3D

  8  7  0  0  0  0  0  0  0  0999 V2000
    0.0313   -1.8299   -1.4290 Cl  0  0  0  0  0  0  0  0  0  0  0  0
    0.0102   -0.3142   -0.0376 Si  0  0  0  0  0  4  0  0  0  0  0  0
   -1.5188   -0.5128    1.0009 C   0  0  0  0  0  0  0  0  0  0  0  0
    1.5446   -0.4699    1.0001 C   0  0  0  0  0  0  0  0  0  0  0  0
   -0.0125    1.3027   -0.9544 C   0  0  0  0  0  0  0  0  0  0  0  0
   -2.8412   -0.4036    0.2530 C   0  0  0  0  0  0  0  0  0  0  0  0
    2.8631   -0.3238    0.2518 C   0  0  0  0  0  0  0  0  0  0  0  0
   -0.0768    2.5516   -0.0849 C   0  0  0  0  0  0  0  0  0  0  0  0
  1  2  1  0
  2  3  1  0
  2  4  1  0
  2  5  1  0
  3  6  1  0
  4  7  1  0
  5  8  1  0
M  END
>  <PUBCHEM_COMPOUND_CID>  (1) 
13819

>  <PUBCHEM_CONFORMER_RMSD>  (1) 
0.6

>  <PUBCHEM_CONFORMER_DIVERSEORDER>  (1) 
1
11
4
5
8
7
6
9
3
2
10

>  <PUBCHEM_MMFF94_PARTIAL_CHARGES>  (1) 
5
1 -0.37
2 0.61
3 -0.08
4 -0.08
5 -0.08

>  <PUBCHEM_EFFECTIVE_ROTOR_COUNT>  (1) 
3

>  <PUBCHEM_PHARMACOPHORE_FEATURES>  (1) 
0

>  <PUBCHEM_HEAVY_ATOM_COUNT>  (1) 
8

>  <PUBCHEM_ATOM_DEF_STEREO_COUNT>  (1) 
0

>  <PUBCHEM_ATOM_UDEF_STEREO_COUNT>  (1) 
0

>  <PUBCHEM_BOND_DEF_STEREO_COUNT>  (1) 
0

>  <PUBCHEM_BOND_UDEF_STEREO_COUNT>  (1) 
0

>  <PUBCHEM_ISOTOPIC_ATOM_COUNT>  (1) 
0

>  <PUBCHEM_COMPONENT_COUNT>  (1) 
1

>  <PUBCHEM_CACTVS_TAUTO_COUNT>  (1) 
1

>  <PUBCHEM_CONFORMER_ID>  (1) 
000035FB00000001

>  <PUBCHEM_MMFF94_ENERGY>  (1) 
-3.9546

>  <PUBCHEM_FEATURE_SELFOVERLAP>  (1) 
0

>  <PUBCHEM_SHAPE_FINGERPRINT>  (1) 
10219947 1 18413674616790430347
12423570 1 11988268563831386618
137420 1 17473008549084467102
14128692 85 16154291509804829723
14993402 34 18342457105222713567
16945 1 16732983128251123266
20653091 64 17824565155814520425
21930827 45 17544487348949878350
23211744 25 16537649059422101933
23552449 11 18189346825832120427
29004967 10 17967812773154710818
3250762 1 17693382135404328607
528862 383 17752485635842101448
5943 1 12212230604096501318
68250623 7 17829323584341575642

>  <PUBCHEM_SHAPE_MULTIPOLES>  (1) 
184.72
3.03
2.11
1.28
0.07
1.37
-0.18
-0.79
1.04
-0.07
-0.81
0.01
-0.39
0.03

>  <PUBCHEM_SHAPE_SELFOVERLAP>  (1) 
306.22

>  <PUBCHEM_SHAPE_VOLUME>  (1) 
127.1

>  <PUBCHEM_COORDINATE_TYPE>  (1) 
2
5
10

$$$$
