13831
     RDKit          3D

 13 12  0  0  0  0  0  0  0  0999 V2000
    0.0918   -0.0398   -0.7653 P   0  0  0  0  0  0  0  0  0  0  0  0
    1.6135    0.3284    0.1859 C   0  0  0  0  0  0  0  0  0  0  0  0
   -0.3803   -1.6422   -0.0137 C   0  0  0  0  0  0  0  0  0  0  0  0
   -1.0959    1.0728    0.1124 C   0  0  0  0  0  0  0  0  0  0  0  0
    2.8168   -0.4659   -0.3181 C   0  0  0  0  0  0  0  0  0  0  0  0
   -1.8426   -1.9960   -0.2776 C   0  0  0  0  0  0  0  0  0  0  0  0
   -0.9448    2.5316   -0.3144 C   0  0  0  0  0  0  0  0  0  0  0  0
    4.0762   -0.1238    0.4794 C   0  0  0  0  0  0  0  0  0  0  0  0
   -2.2034   -3.3468    0.3426 C   0  0  0  0  0  0  0  0  0  0  0  0
   -1.9521    3.4252    0.4109 C   0  0  0  0  0  0  0  0  0  0  0  0
    5.2708   -0.9405    0.0126 C   0  0  0  0  0  0  0  0  0  0  0  0
   -3.6683   -3.6884    0.1213 C   0  0  0  0  0  0  0  0  0  0  0  0
   -1.7817    4.8856    0.0240 C   0  0  0  0  0  0  0  0  0  0  0  0
  1  2  1  0
  1  3  1  0
  1  4  1  0
  2  5  1  0
  3  6  1  0
  4  7  1  0
  5  8  1  0
  6  9  1  0
  7 10  1  0
  8 11  1  0
  9 12  1  0
 10 13  1  0
M  END
>  <PUBCHEM_COMPOUND_CID>  (1) 
13831

>  <PUBCHEM_CONFORMER_RMSD>  (1) 
0.8

>  <PUBCHEM_CONFORMER_DIVERSEORDER>  (1) 
1
180
167
176
189
51
61
70
90
139
2
28
33
100
186
190
128
85
117
132
12
55
188
182
118
115
126
39
96
92
46
191
145
155
62
178
106
63
185
26
166
154
65
77
108
141
71
162
87
110
124
45
138
94
66
36
181
169
144
52
73
53
15
79
72
149
20
89
69
59
64
111
151
133
19
160
121
173
97
177
119
44
107
81
140
95
22
11
37
101
172
67
130
99
116
93
8
38
156
105
127
30
161
41
158
76
88
29
21
157
9
50
6
170
84
150
104
42
114
143
18
146
57
43
14
142
83
25
184
10
171
174
134
131
56
168
165
7
75
91
147
183
175
103
78
80
112
125
13
49
135
98
113
187
137
31
120
54
32
129
86
74
27
48
148
17
123
152
47
102
40
163
5
35
109
122
82
159
153
179
60
3
16
23
58
24
4
164
34
136
68

>  <PUBCHEM_MMFF94_PARTIAL_CHARGES>  (1) 
4
1 -0.5
2 0.17
3 0.17
4 0.17

>  <PUBCHEM_EFFECTIVE_ROTOR_COUNT>  (1) 
9

>  <PUBCHEM_PHARMACOPHORE_FEATURES>  (1) 
3
1 11 hydrophobe
1 12 hydrophobe
1 13 hydrophobe

>  <PUBCHEM_HEAVY_ATOM_COUNT>  (1) 
13

>  <PUBCHEM_ATOM_DEF_STEREO_COUNT>  (1) 
0

>  <PUBCHEM_ATOM_UDEF_STEREO_COUNT>  (1) 
0

>  <PUBCHEM_BOND_DEF_STEREO_COUNT>  (1) 
0

>  <PUBCHEM_BOND_UDEF_STEREO_COUNT>  (1) 
0

>  <PUBCHEM_ISOTOPIC_ATOM_COUNT>  (1) 
0

>  <PUBCHEM_COMPONENT_COUNT>  (1) 
1

>  <PUBCHEM_CACTVS_TAUTO_COUNT>  (1) 
1

>  <PUBCHEM_CONFORMER_ID>  (1) 
0000360700000001

>  <PUBCHEM_MMFF94_ENERGY>  (1) 
-1.4797

>  <PUBCHEM_FEATURE_SELFOVERLAP>  (1) 
15.223

>  <PUBCHEM_SHAPE_FINGERPRINT>  (1) 
11357001 24 18410573985331078610
12500047 106 18196368127046566064
12532896 13 18052818048691308052
13134695 92 17978787136335418375
136203 1 18410855455838482475
13955234 65 17042331532654980673
14123255 52 17907574736148320976
14178000 15 17979356683384687211
14178000 22 18122059806467557736
14178342 30 18263909000437848002
15042514 8 18410298012360422475
17539 30 18341041973644002503
19021347 4 18194682557776418749
20671657 1 17044015988578850333
20671657 53 18124039193596155011
21426921 1 18410576176302261838
21524375 3 17768516201863789460
23526113 38 17832952282035102695
23558518 356 18261962825764570150
3091708 16 9203372465853901825
68521 5 18410857693722451262
7364860 26 17473827706727115423
77188 2 18194402431461656597
81228 2 18410012143304866965
81539 233 17616815427207088212

>  <PUBCHEM_SHAPE_MULTIPOLES>  (1) 
271.38
7.14
6.38
0.74
12.04
5.57
-0.04
-5.44
0.83
-11.4
0.65
0.03
0.01
0.08

>  <PUBCHEM_SHAPE_SELFOVERLAP>  (1) 
462.775

>  <PUBCHEM_SHAPE_VOLUME>  (1) 
182.6

>  <PUBCHEM_COORDINATE_TYPE>  (1) 
2
5
10

$$$$
