13839
     RDKit          3D

 15 14  0  0  0  0  0  0  0  0999 V2000
   -0.0140    2.0567   -0.0713 P   0  0  0  0  0  0  0  0  0  0  0  0
    1.5046    1.5969   -0.3799 O   0  0  0  0  0  0  0  0  0  0  0  0
   -0.8485    0.6696   -0.0792 O   0  0  0  0  0  0  0  0  0  0  0  0
   -0.5271    3.0962   -1.0263 O   0  0  0  0  0  0  0  0  0  0  0  0
    3.2905    0.0027   -0.4339 C   0  0  0  0  0  0  0  0  0  0  0  0
   -2.8056   -0.7043   -0.0733 C   0  0  0  0  0  0  0  0  0  0  0  0
    4.0006   -1.1248    0.3120 C   0  0  0  0  0  0  0  0  0  0  0  0
   -4.3321   -0.7270   -0.0393 C   0  0  0  0  0  0  0  0  0  0  0  0
    2.1102    0.5454    0.3594 C   0  0  0  0  0  0  0  0  0  0  0  0
   -2.2642    0.7184   -0.0613 C   0  0  0  0  0  0  0  0  0  0  0  0
    5.2093   -1.6352   -0.4719 C   0  0  0  0  0  0  0  0  0  0  0  0
   -4.8663   -2.1587   -0.0089 C   0  0  0  0  0  0  0  0  0  0  0  0
   -0.0114    2.5844    1.6315 C   0  0  0  0  0  0  0  0  0  0  0  0
    5.9389   -2.7350    0.2830 C   0  0  0  0  0  0  0  0  0  0  0  0
   -6.3849   -2.1853    0.0593 C   0  0  0  0  0  0  0  0  0  0  0  0
  1  2  1  0
  1  3  1  0
  1  4  2  0
  1 13  1  0
  2  9  1  0
  3 10  1  0
  5  7  1  0
  5  9  1  0
  6  8  1  0
  6 10  1  0
  7 11  1  0
  8 12  1  0
 11 14  1  0
 12 15  1  0
M  END
>  <PUBCHEM_COMPOUND_CID>  (1) 
13839

>  <PUBCHEM_CONFORMER_RMSD>  (1) 
1

>  <PUBCHEM_CONFORMER_DIVERSEORDER>  (1) 
1
596
599
462
340
26
230
57
13
428
293
289
327
424
60
357
80
130
284
250
297
448
321
77
76
281
283
33
44
48
247
72
238
105
268
114
372
204
4
414
438
8
35
319
6
571
314
129
58
108
52
453
322
276
103
573
360
216
296
257
30
81
112
270
184
536
24
124
439
425
546
200
447
482
2
7
195
265
461
93
163
111
55
161
9
99
495
3

>  <PUBCHEM_MMFF94_PARTIAL_CHARGES>  (1) 
6
1 1.24
10 0.28
2 -0.55
3 -0.55
4 -0.7
9 0.28

>  <PUBCHEM_EFFECTIVE_ROTOR_COUNT>  (1) 
10

>  <PUBCHEM_PHARMACOPHORE_FEATURES>  (1) 
3
1 14 hydrophobe
1 15 hydrophobe
1 4 acceptor

>  <PUBCHEM_HEAVY_ATOM_COUNT>  (1) 
15

>  <PUBCHEM_ATOM_DEF_STEREO_COUNT>  (1) 
0

>  <PUBCHEM_ATOM_UDEF_STEREO_COUNT>  (1) 
0

>  <PUBCHEM_BOND_DEF_STEREO_COUNT>  (1) 
0

>  <PUBCHEM_BOND_UDEF_STEREO_COUNT>  (1) 
0

>  <PUBCHEM_ISOTOPIC_ATOM_COUNT>  (1) 
0

>  <PUBCHEM_COMPONENT_COUNT>  (1) 
1

>  <PUBCHEM_CACTVS_TAUTO_COUNT>  (1) 
1

>  <PUBCHEM_CONFORMER_ID>  (1) 
0000360F00000001

>  <PUBCHEM_MMFF94_ENERGY>  (1) 
0.1874

>  <PUBCHEM_FEATURE_SELFOVERLAP>  (1) 
15.223

>  <PUBCHEM_SHAPE_FINGERPRINT>  (1) 
10753850 27 18335417967352147779
12633257 1 15697990864452458542
13533116 47 18126848420646807163
13631057 29 18337673015010395738
13911852 28 18413385441037877231
13955234 65 17908428296584674785
14123255 352 9007056872354307742
14123256 34 18411426106732264014
14178000 29 18334295404877500229
1420 369 18412265025772434442
14251731 5 18410853269694847332
14251764 30 18408884044544190999
14251764 75 8286209382921440511
14866123 147 18339366245705244105
15342168 16 9295294928070841475
15352361 1 18410012130573459086
20374829 77 18408602530775156903
20388580 30 18334862765524951180
20621476 21 17914909638832210182
20645477 70 18116428335733051957
23559900 14 18191019200656733683
3421961 26 18341611585070756664
351380 3 18410011031051411686
465052 167 18341899627105444527
559249 180 18412826863972800403
59345606 38 8862944974413194151
59682541 35 18271794766873306058
7062679 13 18408882902325470426
77188 2 18411699915129352961
7970288 3 18409728456531795090

>  <PUBCHEM_SHAPE_MULTIPOLES>  (1) 
294.93
14.02
3.63
0.9
1.87
1.03
-0.19
-20.49
-0.12
-0.32
-0.24
-0.18
0.6
-0.04

>  <PUBCHEM_SHAPE_SELFOVERLAP>  (1) 
518.354

>  <PUBCHEM_SHAPE_VOLUME>  (1) 
194

>  <PUBCHEM_COORDINATE_TYPE>  (1) 
2
5
10

$$$$
