13838
     RDKit          3D

  9  8  0  0  0  0  0  0  0  0999 V2000
    1.4695   -0.0146   -0.0998 Si  0  0  0  0  0  4  0  0  0  0  0  0
   -1.5030    0.0130   -0.1344 Si  0  0  0  0  0  4  0  0  0  0  0  0
   -0.0075   -0.0788   -0.9407 N   0  0  0  0  0  0  0  0  0  0  0  0
    2.8245    0.2753   -1.3916 C   0  0  0  0  0  0  0  0  0  0  0  0
    1.5304    1.4332    1.0906 C   0  0  0  0  0  0  0  0  0  0  0  0
    1.8884   -1.5990    0.8019 C   0  0  0  0  0  0  0  0  0  0  0  0
   -1.7594   -1.6499    0.7334 C   0  0  0  0  0  0  0  0  0  0  0  0
   -1.4706    1.3345    1.1979 C   0  0  0  0  0  0  0  0  0  0  0  0
   -2.9723    0.2864   -1.2572 C   0  0  0  0  0  0  0  0  0  0  0  0
  1  3  1  0
  1  4  1  0
  1  5  1  0
  1  6  1  0
  2  3  1  0
  2  7  1  0
  2  8  1  0
  2  9  1  0
M  END
>  <PUBCHEM_COMPOUND_CID>  (1) 
13838

>  <PUBCHEM_CONFORMER_RMSD>  (1) 
0.4

>  <PUBCHEM_CONFORMER_DIVERSEORDER>  (1) 
1

>  <PUBCHEM_MMFF94_PARTIAL_CHARGES>  (1) 
10
1 0.59
10 0.36
2 0.59
3 -1.05
4 -0.08
5 -0.08
6 -0.08
7 -0.08
8 -0.08
9 -0.08

>  <PUBCHEM_EFFECTIVE_ROTOR_COUNT>  (1) 
2

>  <PUBCHEM_PHARMACOPHORE_FEATURES>  (1) 
0

>  <PUBCHEM_HEAVY_ATOM_COUNT>  (1) 
9

>  <PUBCHEM_ATOM_DEF_STEREO_COUNT>  (1) 
0

>  <PUBCHEM_ATOM_UDEF_STEREO_COUNT>  (1) 
0

>  <PUBCHEM_BOND_DEF_STEREO_COUNT>  (1) 
0

>  <PUBCHEM_BOND_UDEF_STEREO_COUNT>  (1) 
0

>  <PUBCHEM_ISOTOPIC_ATOM_COUNT>  (1) 
0

>  <PUBCHEM_COMPONENT_COUNT>  (1) 
1

>  <PUBCHEM_CACTVS_TAUTO_COUNT>  (1) 
1

>  <PUBCHEM_CONFORMER_ID>  (1) 
0000360E00000001

>  <PUBCHEM_MMFF94_ENERGY>  (1) 
11.2346

>  <PUBCHEM_FEATURE_SELFOVERLAP>  (1) 
0

>  <PUBCHEM_SHAPE_FINGERPRINT>  (1) 
12423570 1 12919674562120464142
12897270 3 17895482530350528542
12932741 1 18341331201057664333
12932764 1 18411976992438470959
14817 1 16684650796138322074
15310529 11 17167869668409036555
15775835 57 18041006132634007343
16945 1 18413389834446074881
18186145 218 18342163458978722517
20082192 1 17603301561543630282
20653085 51 17168701913049398157
20653091 64 18272644645588970576
20711985 344 17988090962926646880
21922407 69 17968672604042894984
23235687 12 16805868671814182990
23552423 10 18201433726775194033
3248919 1 18412270501845018702
5084963 1 18189884327845746159
8030462 33 18341613698236610892

>  <PUBCHEM_SHAPE_MULTIPOLES>  (1) 
216.66
4.17
1.61
1.49
0.22
0.34
-0.15
-0.03
-1.24
-0.05
0.76
-0.07
-0.27
-0.03

>  <PUBCHEM_SHAPE_SELFOVERLAP>  (1) 
361.018

>  <PUBCHEM_SHAPE_VOLUME>  (1) 
148.4

>  <PUBCHEM_COORDINATE_TYPE>  (1) 
2
5
10

$$$$
