13845
     RDKit          3D

 12 11  0  0  1  0  0  0  0  0999 V2000
    3.6615    0.4919    0.1477 C   0  0  0  0  0  0  0  0  0  0  0  0
    2.2547    0.8712    0.6596 C   0  0  0  0  0  0  0  0  0  0  0  0
    1.0881    0.1921   -0.0659 C   0  0  0  0  0  0  0  0  0  0  0  0
   -0.2543    0.5931    0.5547 C   0  0  0  0  0  0  0  0  0  0  0  0
   -1.4243   -0.0535   -0.1904 C   0  0  0  0  0  0  0  0  0  0  0  0
    3.9627   -1.0028    0.3669 C   0  0  0  0  0  0  0  0  0  0  0  0
   -2.7916    0.2894    0.4083 C   0  0  0  0  0  0  0  0  0  0  0  0
    3.8593    0.9100   -1.3119 C   0  0  0  0  0  0  0  0  0  0  0  0
   -3.9601   -0.3766   -0.3216 C   0  0  0  0  0  0  0  0  0  0  0  0
   -5.3017    0.0566    0.2710 C   0  0  0  0  0  0  0  0  0  0  0  0
    5.3743   -1.3995   -0.0445 C   0  0  0  0  0  0  0  0  0  0  0  0
   -6.4686   -0.5720   -0.4738 C   0  0  0  0  0  0  0  0  0  0  0  0
  1  2  1  0
  1  6  1  0
  1  8  1  0
  2  3  1  0
  3  4  1  0
  4  5  1  0
  5  7  1  0
  6 11  1  0
  7  9  1  0
  9 10  1  0
 10 12  1  0
M  END
>  <PUBCHEM_COMPOUND_CID>  (1) 
13845

>  <PUBCHEM_CONFORMER_RMSD>  (1) 
0.8

>  <PUBCHEM_CONFORMER_DIVERSEORDER>  (1) 
1
252
118
19
235
3
123
147
185
217
104
254
66
166
41
85
134
198
2
138
18
98
71
75
120
29
215
50
201
5
40
21
141
253
239
77
256
36
187
111
135
122
8
237
112
168
196
97
6
167
88
130
73
51
30
81
116
80
214
119
174
233
52
216
157
164
32
208
95
203
12
245
10
220
47
170
195
33
246
39
109
176
13
243
20
69
110
92
72
87
169
125
106
250
24
227
240
26
17
149
65
67
161
38
194
94
48
155
53
234
101
11
96
210
213
145
140
59
9
108
184
223
229
74
37
14
197
4
238
255
162
70
22
15
186
102
193
137
132
100
91
126
90
247
152
86
154
257
131
115
82
230
191
62
58
206
64
188
228
160
139
143
222
236
42
151
207
148
221
181
244
159
7
182
153
150
34
105
136
144
219
16
158
31
165
46
25
190
200
60
129
177
133
55
209
212
103
242
84
61
107
249
27
248
202
128
127
99
199
49
146
45
43
56
117
79
171
28
231
76
178
189
68
44
78
163
179
173
183
63
89
83
205
241
172
114
121
175
224
57
192
54
156
124
113
218
35
232
225
23
251
226
142
211
93
204
180

>  <PUBCHEM_MMFF94_PARTIAL_CHARGES>  (1) 
0

>  <PUBCHEM_EFFECTIVE_ROTOR_COUNT>  (1) 
8

>  <PUBCHEM_PHARMACOPHORE_FEATURES>  (1) 
3
1 11 hydrophobe
1 12 hydrophobe
1 8 hydrophobe

>  <PUBCHEM_HEAVY_ATOM_COUNT>  (1) 
12

>  <PUBCHEM_ATOM_DEF_STEREO_COUNT>  (1) 
0

>  <PUBCHEM_ATOM_UDEF_STEREO_COUNT>  (1) 
1

>  <PUBCHEM_BOND_DEF_STEREO_COUNT>  (1) 
0

>  <PUBCHEM_BOND_UDEF_STEREO_COUNT>  (1) 
0

>  <PUBCHEM_ISOTOPIC_ATOM_COUNT>  (1) 
0

>  <PUBCHEM_COMPONENT_COUNT>  (1) 
1

>  <PUBCHEM_CACTVS_TAUTO_COUNT>  (1) 
1

>  <PUBCHEM_CONFORMER_ID>  (1) 
0000361500000001

>  <PUBCHEM_MMFF94_ENERGY>  (1) 
0.9325

>  <PUBCHEM_FEATURE_SELFOVERLAP>  (1) 
15.225

>  <PUBCHEM_SHAPE_FINGERPRINT>  (1) 
10354089 29 11095880476012461890
11287383 113 16950568817567127761
117890 112 9223236251975630055
11858739 19 18341611486413044423
12714333 28 12251905892874472902
13533116 47 18272369750549896514
13690532 89 18343019986488189545
13836976 161 18260270737788868638
13862211 1 17847056701648736335
14123238 8 18334858333735594109
1420 363 17168148944837193657
14251718 22 11097861791707520825
14252887 29 15698006215187573708
14455015 7 18334863809449833123
15048467 5 10665231449204127219
15242439 84 16515407369331828888
17834072 33 18409448115773616303
17834072 8 17167864157702420618
17834076 25 12612752414923394201
20369508 70 18201996634279979192
20605781 2 10809347736896904578
20645477 70 18260830371863825234
20767249 13 17632576050486323867
20767249 213 7925912586889751651
21130983 4 11025796475429307423
23218964 4 18343017775197216945
23402539 116 17561078099636013769
23402655 69 12685094786741542320
29717793 49 18333452023413086820
42 15 18060419105538767833
42788 4 16660641869504608093
449060 50 9511463324933462185
465052 167 18202005438541001286
522135 26 18334013904373383744
5374978 207 15841831161873443722
57483677 66 18343016722846080263
59345606 91 7997967977277199307

>  <PUBCHEM_SHAPE_MULTIPOLES>  (1) 
246.95
15.17
1.09
0.89
14.14
0.18
-0.15
4.79
-2.02
-1.44
-0.02
-0.45
-0.16
-0.58

>  <PUBCHEM_SHAPE_SELFOVERLAP>  (1) 
436.804

>  <PUBCHEM_SHAPE_VOLUME>  (1) 
163

>  <PUBCHEM_COORDINATE_TYPE>  (1) 
2
5
10

$$$$
