13850
     RDKit          3D

 17 16  0  0  0  0  0  0  0  0999 V2000
    8.0690   -2.2369   -0.3253 O   0  0  0  0  0  0  0  0  0  0  0  0
    2.5007    0.6255    0.3724 C   0  0  0  0  0  0  0  0  0  0  0  0
    1.7830    1.8981   -0.0910 C   0  0  0  0  0  0  0  0  0  0  0  0
    3.9521    0.5399   -0.1063 C   0  0  0  0  0  0  0  0  0  0  0  0
    0.3004    1.9986    0.2841 C   0  0  0  0  0  0  0  0  0  0  0  0
    4.6497   -0.7600    0.3077 C   0  0  0  0  0  0  0  0  0  0  0  0
   -0.3778    3.2612   -0.2577 C   0  0  0  0  0  0  0  0  0  0  0  0
    6.0762   -0.8808   -0.2386 C   0  0  0  0  0  0  0  0  0  0  0  0
   -1.8620    3.3586    0.1119 C   0  0  0  0  0  0  0  0  0  0  0  0
    6.7574   -2.1671    0.2150 C   0  0  0  0  0  0  0  0  0  0  0  0
   -2.6911    2.2509   -0.4740 C   0  0  0  0  0  0  0  0  0  0  0  0
   -3.3738    1.3643    0.2659 C   0  0  0  0  0  0  0  0  0  0  0  0
   -4.1645    0.2994   -0.3080 C   0  0  0  0  0  0  0  0  0  0  0  0
   -5.6693   -1.7000   -0.1531 C   0  0  0  0  0  0  0  0  0  0  0  0
   -5.1284   -3.0673    0.2661 C   0  0  0  0  0  0  0  0  0  0  0  0
   -4.8473   -0.5873    0.4315 C   0  0  0  0  0  0  0  0  0  0  0  0
   -5.9742   -4.1971   -0.3006 C   0  0  0  0  0  0  0  0  0  0  0  0
  1 10  1  0
  2  3  1  0
  2  4  1  0
  3  5  1  0
  4  6  1  0
  5  7  1  0
  6  8  1  0
  7  9  1  0
  8 10  1  0
  9 11  1  0
 11 12  2  0
 12 13  1  0
 13 16  2  0
 14 15  1  0
 14 16  1  0
 15 17  1  0
M  END
>  <PUBCHEM_COMPOUND_CID>  (1) 
13850

>  <PUBCHEM_CONFORMER_RMSD>  (1) 
1

>  <PUBCHEM_CONFORMER_DIVERSEORDER>  (1) 
2
69
25
292
265
63
314
274
317
309
129
252
9
215
152
174
62
10
273
144
57
29
49
321
268
159
157
20
4
197
7
235
43
154
169
120
119
168
71
311
188
1
8
166
269
18
261
263
276
243
34
194
233
53
238
113
3
299
210
75
182
50
19
212
37
27
138
22
126
278
165
205
73
81
191
285
277
96
105
6
177
223
109
296
143
147
78
93
38
316
112
94
47
133
221
52
234
227
95
208
161
11
97
130
218
214
108
31
300
256
70
40
82
72
64
232
65
220
264
260
107
140
183
44
124
302
186
121
30
77
61
173
60
46
171
240
318
88
320
5
131
136
250
193
16
228
184
17
304
162
137
167
280
67
28
259
33
36
275
202
103
315
262
211
222
150
201
185
74
207
253
66
189
92
122
54
206
286
295
99
213
32
255
266
203
45
289
290
135
230
12
110
271
141
55
163
51
79
308
127
180
125
242
56
151
155
142
305
128
294
146
68
39
204
209
101
58
196
149
117
24
231
175
134
83
293
291
195
48
287
297
156
148
84
239
160
98
80
23
281
158
90
153
312
226
176
219
85
139
164
217
106
42
114
307
76
288
249
283
237
145
14
13
118
102
246
322
192
41
306
91
115
111
104
200
116
247
254
100
298
310
251
132
89
181
187
258
303
199
87
179
59
245
123
198
35
15
248
284
319
170
244
21
224
279
267
229
26
190
270
172
313
282
86
257
301
241
272
216
225
236
323
178

>  <PUBCHEM_MMFF94_PARTIAL_CHARGES>  (1) 
13
1 -0.68
10 0.28
11 -0.29
12 -0.15
13 -0.15
14 0.14
16 -0.29
36 0.15
37 0.15
38 0.4
41 0.15
44 0.15
9 0.14

>  <PUBCHEM_EFFECTIVE_ROTOR_COUNT>  (1) 
12

>  <PUBCHEM_PHARMACOPHORE_FEATURES>  (1) 
3
1 1 acceptor
1 1 donor
1 17 hydrophobe

>  <PUBCHEM_HEAVY_ATOM_COUNT>  (1) 
17

>  <PUBCHEM_ATOM_DEF_STEREO_COUNT>  (1) 
0

>  <PUBCHEM_ATOM_UDEF_STEREO_COUNT>  (1) 
0

>  <PUBCHEM_BOND_DEF_STEREO_COUNT>  (1) 
0

>  <PUBCHEM_BOND_UDEF_STEREO_COUNT>  (1) 
2

>  <PUBCHEM_ISOTOPIC_ATOM_COUNT>  (1) 
0

>  <PUBCHEM_COMPONENT_COUNT>  (1) 
1

>  <PUBCHEM_CACTVS_TAUTO_COUNT>  (1) 
1

>  <PUBCHEM_CONFORMER_ID>  (1) 
0000361A00000002

>  <PUBCHEM_MMFF94_ENERGY>  (1) 
0.9092

>  <PUBCHEM_FEATURE_SELFOVERLAP>  (1) 
15.223

>  <PUBCHEM_SHAPE_FINGERPRINT>  (1) 
11197282 1 18411702092835605463
11273773 46 18408878565215571455
11463208 1 17985558745643368198
11761917 116 18339368564945951270
12174731 88 18200308957062507519
12645989 146 18339927146406429271
1361 4 18337953364832671474
13911852 28 18267582606219542773
14251740 57 18268142248484098793
14251764 30 18410572911425620406
14420673 8 18410013256687970267
14429380 30 18336830882938762915
14866123 147 18412268325177801753
14931854 50 17749380477867125707
15352361 1 18337672031272837825
17492 89 18338796827030668149
17780758 139 17845936225843022945
20281389 69 9871455531249405932
20621476 21 18342460314011565842
20621476 30 18408887330061901010
20843269 155 18335128787483514266
21054139 6 18041282050745963506
21095086 4 18042697272408894027
21307412 95 18335969927523261845
23424782 7 18341892979698479640
270888 7 9367358028510017633
316301 35 18340766060745106481
5718773 13 18411979195551199111
636775 72 8718245933227065142
7062679 13 18409447029057401537
7970288 3 18410290354476061547
8863177 126 18341891905249748040
88748 71 18192714673404027789

>  <PUBCHEM_SHAPE_MULTIPOLES>  (1) 
343.98
20.53
5.22
0.69
24.87
1.57
-0.01
30.39
0.9
-6.56
0.35
-0.09
-0.01
0.02

>  <PUBCHEM_SHAPE_SELFOVERLAP>  (1) 
625.873

>  <PUBCHEM_SHAPE_VOLUME>  (1) 
219

>  <PUBCHEM_COORDINATE_TYPE>  (1) 
2
5
10

$$$$
