1385
     RDKit          3D

 23 24  0  0  0  0  0  0  0  0999 V2000
   -4.1219   -2.2541   -0.0026 Cl  0  0  0  0  0  0  0  0  0  0  0  0
    4.1788    0.7408   -1.7866 S   0  0  0  0  0  0  0  0  0  0  0  0
    5.5386    0.9996    1.0260 O   0  0  0  0  0  0  0  0  0  0  0  0
   -4.2498    0.7516   -0.4955 O   0  0  0  0  0  0  0  0  0  0  0  0
    2.6815   -2.0428   -0.6068 O   0  0  0  0  0  0  0  0  0  0  0  0
   -3.4496    1.3206    1.5865 O   0  0  0  0  0  0  0  0  0  0  0  0
    1.3977   -0.1387   -0.0851 N   0  0  0  0  0  0  0  0  0  0  0  0
    3.7558    0.0058   -0.2786 C   0  0  0  0  0  0  0  0  0  0  0  0
    5.8180    1.3743   -1.3639 C   0  0  0  0  0  0  0  0  0  0  0  0
    5.7427    1.9894    0.0179 C   0  0  0  0  0  0  0  0  0  0  0  0
    4.4337    0.1792    0.8752 C   0  0  0  0  0  0  0  0  0  0  0  0
    0.0716   -0.6353   -0.0631 C   0  0  0  0  0  0  0  0  0  0  0  0
   -5.3582    1.6412   -0.3231 C   0  0  0  0  0  0  0  0  0  0  0  0
   -2.2770   -0.2583    0.2386 C   0  0  0  0  0  0  0  0  0  0  0  0
    2.5605   -0.8489   -0.3441 C   0  0  0  0  0  0  0  0  0  0  0  0
   -0.9712    0.2313    0.2171 C   0  0  0  0  0  0  0  0  0  0  0  0
   -0.1522   -1.9766   -0.3225 C   0  0  0  0  0  0  0  0  0  0  0  0
   -2.5206   -1.6071   -0.0205 C   0  0  0  0  0  0  0  0  0  0  0  0
    4.0989   -0.5276    2.1599 C   0  0  0  0  0  0  0  0  0  0  0  0
   -3.3558    0.6765    0.5357 C   0  0  0  0  0  0  0  0  0  0  0  0
   -6.2200    1.6161   -1.5763 C   0  0  0  0  0  0  0  0  0  0  0  0
   -6.1434    1.2294    0.9129 C   0  0  0  0  0  0  0  0  0  0  0  0
   -1.4581   -2.4662   -0.3011 C   0  0  0  0  0  0  0  0  0  0  0  0
  1 18  1  0
  2  8  1  0
  2  9  1  0
  3 10  1  0
  3 11  1  0
  4 13  1  0
  4 20  1  0
  5 15  2  0
  6 20  2  0
  7 12  1  0
  7 15  1  0
  8 11  2  0
  8 15  1  0
  9 10  1  0
 11 19  1  0
 12 16  1  0
 12 17  2  0
 13 21  1  0
 13 22  1  0
 14 16  2  0
 14 18  1  0
 14 20  1  0
 17 23  1  0
 18 23  2  0
M  END
>  <PUBCHEM_COMPOUND_CID>  (1) 
1385

>  <PUBCHEM_CONFORMER_RMSD>  (1) 
0.8

>  <PUBCHEM_CONFORMER_DIVERSEORDER>  (1) 
9
15
40
8
41
30
23
55
28
27
57
14
56
26
43
25
20
42
13
51
38
36
53
52
16
24
21
39
34
45
1
19
18
50
48
11
33
10
44
37
4
54
49
12
29
5
46
22
32
2
47
3
35
7
31
6
17

>  <PUBCHEM_MMFF94_PARTIAL_CHARGES>  (1) 
25
1 -0.18
10 0.28
11 -0.06
12 0.12
13 0.28
14 0.09
15 0.62
16 -0.15
17 -0.15
18 0.18
19 0.14
2 -0.33
20 0.63
23 -0.15
29 0.15
3 -0.36
30 0.37
31 0.15
4 -0.43
41 0.15
5 -0.57
6 -0.57
7 -0.55
8 0.12
9 0.23

>  <PUBCHEM_EFFECTIVE_ROTOR_COUNT>  (1) 
6.8

>  <PUBCHEM_PHARMACOPHORE_FEATURES>  (1) 
7
1 3 acceptor
1 5 acceptor
1 6 acceptor
1 7 donor
3 13 21 22 hydrophobe
6 12 14 16 17 18 23 rings
6 2 3 8 9 10 11 rings

>  <PUBCHEM_HEAVY_ATOM_COUNT>  (1) 
23

>  <PUBCHEM_ATOM_DEF_STEREO_COUNT>  (1) 
0

>  <PUBCHEM_ATOM_UDEF_STEREO_COUNT>  (1) 
0

>  <PUBCHEM_BOND_DEF_STEREO_COUNT>  (1) 
0

>  <PUBCHEM_BOND_UDEF_STEREO_COUNT>  (1) 
0

>  <PUBCHEM_ISOTOPIC_ATOM_COUNT>  (1) 
0

>  <PUBCHEM_COMPONENT_COUNT>  (1) 
1

>  <PUBCHEM_CACTVS_TAUTO_COUNT>  (1) 
2

>  <PUBCHEM_CONFORMER_ID>  (1) 
0000056900000009

>  <PUBCHEM_MMFF94_ENERGY>  (1) 
69.3695

>  <PUBCHEM_FEATURE_SELFOVERLAP>  (1) 
35.522

>  <PUBCHEM_SHAPE_FINGERPRINT>  (1) 
10 15 18186527605304700289
10014705 185 18408323285276720087
10498660 4 18201727275416417016
10554248 39 18263629715113912246
10670039 82 18200608994792749928
10912923 1 17749665294180608426
12107183 9 18116418255534921490
12236239 1 18114178674881775450
12390115 104 18130241409992109315
12403259 415 17775005747065953626
12596602 18 17676490553067912377
12616971 3 17385719210171426334
12788726 201 18046344403311348851
12969540 114 17131832087987033662
13533116 47 17845654720574505630
13668630 136 12535351199060469076
14216079 64 8574707997461432881
14251764 30 10015566334174312757
14341114 328 17749668610343539410
14528608 73 17132111325243558680
15238133 3 18334292102738596544
15348495 7 15213309646117627477
17980427 23 18260832643774717215
19377110 9 17677056853227809947
19427546 20 18267305507424721039
20281389 69 18187082841175312245
20511986 3 18260818345834012172
20645477 56 18410294709620021689
21033648 29 17489302036076939098
21065198 48 18186795920327919394
21859007 373 17606386653879981620
221357 26 15841555145826819664
23557571 272 17987812919866000782
23559900 14 18200881682297956782
268830 7 17313098704882229958
2748736 6 18337383843162413141
2767999 5 18410851045218688965
2838139 119 18272082756371353213
300161 21 18335137600692906772
312425 54 14707213210123315513
341906 21 18342453768523579050
3472631 163 18412266177013574260
34797466 226 17631741585279610828
34934 24 18408882936357816834
350125 39 18339930428335462475
4340502 62 16877666738242595041
465052 167 8790879705321663840
495365 180 17489299746933599774
5104073 3 18408325484205576514
53917941 68 18409438181936702351
59682541 52 16343429401631412924
7237137 82 18343017835464149983

>  <PUBCHEM_SHAPE_MULTIPOLES>  (1) 
450.59
16.33
2.38
1.43
0.32
0.79
0.23
-11.86
-0.45
1.82
-0.49
-1.09
-0.4
-0.53

>  <PUBCHEM_SHAPE_SELFOVERLAP>  (1) 
923.415

>  <PUBCHEM_SHAPE_VOLUME>  (1) 
262.1

>  <PUBCHEM_COORDINATE_TYPE>  (1) 
2
5
10

$$$$
