13853
     RDKit          3D

  6  6  0  0  1  0  0  0  0  0999 V2000
   -2.0493   -0.5509   -0.2320 O   0  0  0  0  0  0  0  0  0  0  0  0
   -0.9396   -0.1000    0.5266 C   0  0  0  0  0  0  0  0  0  0  0  0
   -1.7615    0.8533   -0.2547 C   0  0  0  0  0  0  0  0  0  0  0  0
    0.3955   -0.5777   -0.0218 C   0  0  0  0  0  0  0  0  0  0  0  0
    1.5127    0.4199    0.2774 C   0  0  0  0  0  0  0  0  0  0  0  0
    2.8421   -0.0445   -0.2956 C   0  0  0  0  0  0  0  0  0  0  0  0
  1  2  1  0
  1  3  1  0
  2  3  1  0
  2  4  1  0
  4  5  1  0
  5  6  1  0
M  END
>  <PUBCHEM_COMPOUND_CID>  (1) 
13853

>  <PUBCHEM_CONFORMER_RMSD>  (1) 
0.4

>  <PUBCHEM_CONFORMER_DIVERSEORDER>  (1) 
2
13
1
8
7
9
11
3
12
4
5
10
6

>  <PUBCHEM_MMFF94_PARTIAL_CHARGES>  (1) 
7
1 -0.3
2 -0.05
3 -0.05
4 0.09
7 0.1
8 0.1
9 0.1

>  <PUBCHEM_EFFECTIVE_ROTOR_COUNT>  (1) 
2.6

>  <PUBCHEM_PHARMACOPHORE_FEATURES>  (1) 
2
1 1 acceptor
1 6 hydrophobe

>  <PUBCHEM_HEAVY_ATOM_COUNT>  (1) 
6

>  <PUBCHEM_ATOM_DEF_STEREO_COUNT>  (1) 
0

>  <PUBCHEM_ATOM_UDEF_STEREO_COUNT>  (1) 
1

>  <PUBCHEM_BOND_DEF_STEREO_COUNT>  (1) 
0

>  <PUBCHEM_BOND_UDEF_STEREO_COUNT>  (1) 
0

>  <PUBCHEM_ISOTOPIC_ATOM_COUNT>  (1) 
0

>  <PUBCHEM_COMPONENT_COUNT>  (1) 
1

>  <PUBCHEM_CACTVS_TAUTO_COUNT>  (1) 
1

>  <PUBCHEM_CONFORMER_ID>  (1) 
0000361D00000002

>  <PUBCHEM_MMFF94_ENERGY>  (1) 
2.4728

>  <PUBCHEM_FEATURE_SELFOVERLAP>  (1) 
10.148

>  <PUBCHEM_SHAPE_FINGERPRINT>  (1) 
139733 1 18260546710173468658
14390081 3 18260546740528597884
16714656 1 18410575106143196693
20096714 4 18333167262812833216
29004967 10 8070027787491793844
5460574 1 8862947173467916354

>  <PUBCHEM_SHAPE_MULTIPOLES>  (1) 
117.61
3.66
0.86
0.7
1.62
0.06
0.03
0.25
-0.49
-0.22
-0.03
0.01
0.01
0.06

>  <PUBCHEM_SHAPE_SELFOVERLAP>  (1) 
212.033

>  <PUBCHEM_SHAPE_VOLUME>  (1) 
77.5

>  <PUBCHEM_COORDINATE_TYPE>  (1) 
2
5
10

$$$$
