13863
     RDKit          3D

  9  9  0  0  0  0  0  0  0  0999 V2000
    1.2049   -0.6995   -0.0004 N   0  0  0  0  0  0  0  0  0  0  0  0
   -1.2049   -0.6997   -0.0001 N   0  0  0  0  0  0  0  0  0  0  0  0
    2.3896    1.3657    0.0000 N   0  0  0  0  0  0  0  0  0  0  0  0
   -2.3898    1.3655   -0.0003 N   0  0  0  0  0  0  0  0  0  0  0  0
    0.0003   -2.7130    0.0003 N   0  0  0  0  0  0  0  0  0  0  0  0
    1.1679    0.6492   -0.0001 C   0  0  0  0  0  0  0  0  0  0  0  0
   -1.1680    0.6489    0.0002 C   0  0  0  0  0  0  0  0  0  0  0  0
    0.0000    1.3840    0.0004 C   0  0  0  0  0  0  0  0  0  0  0  0
    0.0001   -1.3010   -0.0002 C   0  0  0  0  0  0  0  0  0  0  0  0
  1  6  2  0
  1  9  1  0
  2  7  1  0
  2  9  2  0
  3  6  1  0
  4  7  1  0
  5  9  1  0
  6  8  1  0
  7  8  2  0
M  END
>  <PUBCHEM_COMPOUND_CID>  (1) 
13863

>  <PUBCHEM_CONFORMER_RMSD>  (1) 
0.4

>  <PUBCHEM_CONFORMER_DIVERSEORDER>  (1) 
1

>  <PUBCHEM_MMFF94_PARTIAL_CHARGES>  (1) 
16
1 -0.62
10 0.15
11 0.4
12 0.4
13 0.4
14 0.4
15 0.4
16 0.4
2 -0.62
3 -0.9
4 -0.9
5 -0.9
6 0.41
7 0.41
8 -0.15
9 0.72

>  <PUBCHEM_EFFECTIVE_ROTOR_COUNT>  (1) 
0

>  <PUBCHEM_PHARMACOPHORE_FEATURES>  (1) 
6
1 3 donor
1 4 cation
1 4 donor
1 5 donor
4 1 2 5 9 cation
6 1 2 6 7 8 9 rings

>  <PUBCHEM_HEAVY_ATOM_COUNT>  (1) 
9

>  <PUBCHEM_ATOM_DEF_STEREO_COUNT>  (1) 
0

>  <PUBCHEM_ATOM_UDEF_STEREO_COUNT>  (1) 
0

>  <PUBCHEM_BOND_DEF_STEREO_COUNT>  (1) 
0

>  <PUBCHEM_BOND_UDEF_STEREO_COUNT>  (1) 
0

>  <PUBCHEM_ISOTOPIC_ATOM_COUNT>  (1) 
0

>  <PUBCHEM_COMPONENT_COUNT>  (1) 
1

>  <PUBCHEM_CACTVS_TAUTO_COUNT>  (1) 
10

>  <PUBCHEM_CONFORMER_ID>  (1) 
0000362700000001

>  <PUBCHEM_MMFF94_ENERGY>  (1) 
46.0963

>  <PUBCHEM_FEATURE_SELFOVERLAP>  (1) 
30.446

>  <PUBCHEM_SHAPE_FINGERPRINT>  (1) 
18185500 45 17402614047919006223
21040471 1 18410575123460475712
23552423 10 16604648917115628127
23552449 1 17763179546031601476
241688 4 16897364209707280160
2748010 2 18409735057784739437
29004967 10 17832148216812209713

>  <PUBCHEM_SHAPE_MULTIPOLES>  (1) 
160.31
2.31
2.31
0.57
0.3
1.53
0
-1.46
0
-0.3
0
0
-0.02
0

>  <PUBCHEM_SHAPE_SELFOVERLAP>  (1) 
331.629

>  <PUBCHEM_SHAPE_VOLUME>  (1) 
85.5

>  <PUBCHEM_COORDINATE_TYPE>  (1) 
2
5
10

$$$$
