13872
     RDKit          3D

 11 12  0  0  0  0  0  0  0  0999 V2000
    2.9008   -0.0979   -0.0001 O   0  0  0  0  0  0  0  0  0  0  0  0
   -2.5607   -0.5758   -0.0001 N   0  0  0  0  0  0  0  0  0  0  0  0
   -0.6908    0.6411    0.0001 C   0  0  0  0  0  0  0  0  0  0  0  0
   -1.1869   -0.6644    0.0000 C   0  0  0  0  0  0  0  0  0  0  0  0
    0.7046    0.8363    0.0001 C   0  0  0  0  0  0  0  0  0  0  0  0
   -1.8142    1.5146    0.0000 C   0  0  0  0  0  0  0  0  0  0  0  0
   -0.3539   -1.7888    0.0001 C   0  0  0  0  0  0  0  0  0  0  0  0
    1.5500   -0.2791    0.0000 C   0  0  0  0  0  0  0  0  0  0  0  0
   -2.9493    0.7371   -0.0001 C   0  0  0  0  0  0  0  0  0  0  0  0
    1.0267   -1.5705    0.0000 C   0  0  0  0  0  0  0  0  0  0  0  0
    3.3737    1.2474   -0.0001 C   0  0  0  0  0  0  0  0  0  0  0  0
  1  8  1  0
  1 11  1  0
  2  4  1  0
  2  9  1  0
  3  4  2  0
  3  5  1  0
  3  6  1  0
  4  7  1  0
  5  8  2  0
  6  9  2  0
  7 10  2  0
  8 10  1  0
M  END
>  <PUBCHEM_COMPOUND_CID>  (1) 
13872

>  <PUBCHEM_CONFORMER_RMSD>  (1) 
0.4

>  <PUBCHEM_CONFORMER_DIVERSEORDER>  (1) 
1
2

>  <PUBCHEM_MMFF94_PARTIAL_CHARGES>  (1) 
16
1 -0.36
10 -0.15
11 0.28
12 0.15
13 0.15
14 0.15
15 0.27
16 0.15
17 0.15
2 0.03
4 -0.15
5 -0.15
6 -0.15
7 -0.15
8 0.08
9 -0.3

>  <PUBCHEM_EFFECTIVE_ROTOR_COUNT>  (1) 
1

>  <PUBCHEM_PHARMACOPHORE_FEATURES>  (1) 
5
1 1 acceptor
1 2 cation
1 2 donor
5 2 3 4 6 9 rings
6 3 4 5 7 8 10 rings

>  <PUBCHEM_HEAVY_ATOM_COUNT>  (1) 
11

>  <PUBCHEM_ATOM_DEF_STEREO_COUNT>  (1) 
0

>  <PUBCHEM_ATOM_UDEF_STEREO_COUNT>  (1) 
0

>  <PUBCHEM_BOND_DEF_STEREO_COUNT>  (1) 
0

>  <PUBCHEM_BOND_UDEF_STEREO_COUNT>  (1) 
0

>  <PUBCHEM_ISOTOPIC_ATOM_COUNT>  (1) 
0

>  <PUBCHEM_COMPONENT_COUNT>  (1) 
1

>  <PUBCHEM_CACTVS_TAUTO_COUNT>  (1) 
1

>  <PUBCHEM_CONFORMER_ID>  (1) 
0000363000000001

>  <PUBCHEM_MMFF94_ENERGY>  (1) 
28.8335

>  <PUBCHEM_FEATURE_SELFOVERLAP>  (1) 
25.463

>  <PUBCHEM_SHAPE_FINGERPRINT>  (1) 
12897270 3 18411418375774696293
13024252 1 12901533663696554927
13380535 76 18410290306914890706
14325111 11 18410575076247360548
15775835 57 18412548699445184201
16945 1 18410574011021618119
193761 8 17618222806321824388
20871998 184 18128262387556417823
21028194 46 18409451375474458836
21040471 1 18410856551108072130
23235685 24 18410288112149458305
23402655 69 18268976602407096189
23463225 33 18262513693979658594
23552423 10 18192431870538916487
23559900 14 18273219716810643084
241688 4 16394935735765828403
2748010 2 18265618688672102439
369184 2 16515398568954375713
5084963 1 18202002131252373529
528886 8 18410849949806505433
53812653 166 18343298171530683056
6333449 129 18341329010766780996
7364860 26 18197778795759039950

>  <PUBCHEM_SHAPE_MULTIPOLES>  (1) 
215.52
4.45
1.74
0.6
1.55
0.36
0
-1.81
0
0.06
0
-0.01
-0.01
0

>  <PUBCHEM_SHAPE_SELFOVERLAP>  (1) 
470.736

>  <PUBCHEM_SHAPE_VOLUME>  (1) 
119.2

>  <PUBCHEM_COORDINATE_TYPE>  (1) 
2
5
10

$$$$
