1387
     RDKit          3D

 15 16  0  0  1  0  0  0  0  0999 V2000
   -3.0893   -0.0750   -0.0967 S   0  0  0  0  0  0  0  0  0  0  0  0
    3.4987   -0.7207    0.0288 S   0  0  0  0  0  0  0  0  0  0  0  0
   -3.7373    1.0929   -0.6766 O   0  0  0  0  0  0  0  0  0  0  0  0
   -3.3266   -1.3928   -0.6692 O   0  0  0  0  0  0  0  0  0  0  0  0
    1.8199   -2.7859   -0.0073 O   0  0  0  0  0  0  0  0  0  0  0  0
    2.7764    0.7828    0.0206 N   0  0  0  0  0  0  0  0  0  0  0  0
   -3.4449   -0.1306    1.5735 N   0  0  0  0  0  0  0  0  0  0  0  0
    1.3898    0.7185   -0.0067 C   0  0  0  0  0  0  0  0  0  0  0  0
    0.8728   -0.5851   -0.0194 C   0  0  0  0  0  0  0  0  0  0  0  0
   -1.3671    0.2118   -0.0606 C   0  0  0  0  0  0  0  0  0  0  0  0
   -0.4846   -0.8653   -0.0460 C   0  0  0  0  0  0  0  0  0  0  0  0
    0.4957    1.7828   -0.0220 C   0  0  0  0  0  0  0  0  0  0  0  0
   -0.8811    1.5267   -0.0489 C   0  0  0  0  0  0  0  0  0  0  0  0
    1.9524   -1.5767   -0.0024 C   0  0  0  0  0  0  0  0  0  0  0  0
    3.5252    2.0169    0.0329 C   0  0  0  0  0  0  0  0  0  0  0  0
  1  3  2  0
  1  4  2  0
  1  7  1  0
  1 10  1  0
  2  6  1  0
  2 14  1  0
  5 14  2  0
  6  8  1  0
  6 15  1  0
  8  9  2  0
  8 12  1  0
  9 11  1  0
  9 14  1  0
 10 11  2  0
 10 13  1  0
 12 13  2  0
M  END
>  <PUBCHEM_COMPOUND_CID>  (1) 
1387

>  <PUBCHEM_CONFORMER_RMSD>  (1) 
0.4

>  <PUBCHEM_CONFORMER_DIVERSEORDER>  (1) 
1
2

>  <PUBCHEM_MMFF94_PARTIAL_CHARGES>  (1) 
20
1 1.45
10 -0.01
11 -0.15
12 -0.15
13 -0.15
14 0.62
15 0.37
16 0.15
17 0.15
18 0.15
2 -0.11
22 0.42
23 0.42
3 -0.65
4 -0.65
5 -0.57
6 -0.5
7 -0.98
8 0.1
9 0.09

>  <PUBCHEM_EFFECTIVE_ROTOR_COUNT>  (1) 
1

>  <PUBCHEM_PHARMACOPHORE_FEATURES>  (1) 
5
1 3 acceptor
1 4 acceptor
1 7 donor
5 2 6 8 9 14 rings
6 8 9 10 11 12 13 rings

>  <PUBCHEM_HEAVY_ATOM_COUNT>  (1) 
15

>  <PUBCHEM_ATOM_DEF_STEREO_COUNT>  (1) 
0

>  <PUBCHEM_ATOM_UDEF_STEREO_COUNT>  (1) 
0

>  <PUBCHEM_BOND_DEF_STEREO_COUNT>  (1) 
0

>  <PUBCHEM_BOND_UDEF_STEREO_COUNT>  (1) 
0

>  <PUBCHEM_ISOTOPIC_ATOM_COUNT>  (1) 
0

>  <PUBCHEM_COMPONENT_COUNT>  (1) 
1

>  <PUBCHEM_CACTVS_TAUTO_COUNT>  (1) 
1

>  <PUBCHEM_CONFORMER_ID>  (1) 
0000056B00000001

>  <PUBCHEM_MMFF94_ENERGY>  (1) 
23.3324

>  <PUBCHEM_FEATURE_SELFOVERLAP>  (1) 
25.462

>  <PUBCHEM_SHAPE_FINGERPRINT>  (1) 
10219947 1 18408886273637063592
10608611 8 18334851688915148965
10922523 26 18114461167549470709
10967382 1 18338796827014103388
10980938 120 18411135865874306574
11132069 177 18340759407967047120
11471102 20 18410568483430434828
11806522 49 18197209467778943943
12032990 46 18408891715318312682
13140716 1 18338516451765649506
13296908 3 18260270724555300435
13380535 76 18263077867882760202
14144814 61 18413670223075627867
14251717 144 18411975901242536038
14325111 11 18410571811956275077
14576447 43 18056743550406345431
15196674 1 18410853286885272628
15219456 202 18333170565774617545
15309172 13 18342463642416190835
15375358 24 18259697904661622281
15375462 189 18272656757354488939
15442244 35 18052537668746823121
15501101 241 18408323289366186556
15536298 74 18343863320945034132
16945 1 18411700946258087748
17844478 74 18040722454534369557
18186145 218 18272660077285314516
193761 8 18122623843084680204
19422 9 17917434241180866231
200 152 18201709631300400853
20201158 50 18335138657033471418
20279233 1 18113901559154315499
20645477 70 18340762654988885359
21267235 1 18412269423586934559
21501502 16 18268150842518465824
221490 88 18408610240542393394
2334 1 18050850223636062614
23402539 116 18410562986251987166
23402655 69 18412540990084519613
23463225 33 18410007719799807956
23559900 14 18267012878512699466
2748010 2 18193551177681399092
3248919 1 17203329975135592047
449060 62 18342177773682648600
5104073 3 18410291423658798329
528886 8 18339355391900978040
581208 293 18412257359287193280
63268167 104 18413388739572344769
7364860 26 18341892944673973014
77492 1 17704071785307946347
8809292 202 18187370930090565515

>  <PUBCHEM_SHAPE_MULTIPOLES>  (1) 
288.82
6.5
2.21
0.78
2.55
0.42
0.18
-0.29
0.13
-1.62
-0.11
0.61
0.02
0.04

>  <PUBCHEM_SHAPE_SELFOVERLAP>  (1) 
596.551

>  <PUBCHEM_SHAPE_VOLUME>  (1) 
168.1

>  <PUBCHEM_COORDINATE_TYPE>  (1) 
2
5
10

$$$$
