13888
     RDKit          3D

 12 12  0  0  0  0  0  0  0  0999 V2000
   -3.4999   -1.1062    0.0002 O   0  0  0  0  0  0  0  0  0  0  0  0
    3.5000   -1.1062    0.0004 O   0  0  0  0  0  0  0  0  0  0  0  0
   -1.3949   -0.0421    0.0002 C   0  0  0  0  0  0  0  0  0  0  0  0
    1.3948   -0.0420   -0.0008 C   0  0  0  0  0  0  0  0  0  0  0  0
   -0.6976    1.1659   -0.0001 C   0  0  0  0  0  0  0  0  0  0  0  0
    0.6973    1.1659   -0.0007 C   0  0  0  0  0  0  0  0  0  0  0  0
   -0.6974   -1.2501    0.0001 C   0  0  0  0  0  0  0  0  0  0  0  0
    0.6975   -1.2500   -0.0004 C   0  0  0  0  0  0  0  0  0  0  0  0
   -2.8488   -0.0422    0.0003 C   0  0  0  0  0  0  0  0  0  0  0  0
    2.8490   -0.0422   -0.0001 C   0  0  0  0  0  0  0  0  0  0  0  0
   -3.6180    1.2746    0.0001 C   0  0  0  0  0  0  0  0  0  0  0  0
    3.6179    1.2747    0.0009 C   0  0  0  0  0  0  0  0  0  0  0  0
  1  9  2  0
  2 10  2  0
  3  5  2  0
  3  7  1  0
  3  9  1  0
  4  6  2  0
  4  8  1  0
  4 10  1  0
  5  6  1  0
  7  8  2  0
  9 11  1  0
 10 12  1  0
M  END
>  <PUBCHEM_COMPOUND_CID>  (1) 
13888

>  <PUBCHEM_CONFORMER_RMSD>  (1) 
0.6

>  <PUBCHEM_CONFORMER_DIVERSEORDER>  (1) 
1
6
3
4
2
5

>  <PUBCHEM_MMFF94_PARTIAL_CHARGES>  (1) 
16
1 -0.57
10 0.42
11 0.06
12 0.06
13 0.15
14 0.15
15 0.15
16 0.15
2 -0.57
3 0.09
4 0.09
5 -0.15
6 -0.15
7 -0.15
8 -0.15
9 0.42

>  <PUBCHEM_EFFECTIVE_ROTOR_COUNT>  (1) 
2

>  <PUBCHEM_PHARMACOPHORE_FEATURES>  (1) 
3
1 1 acceptor
1 2 acceptor
6 3 4 5 6 7 8 rings

>  <PUBCHEM_HEAVY_ATOM_COUNT>  (1) 
12

>  <PUBCHEM_ATOM_DEF_STEREO_COUNT>  (1) 
0

>  <PUBCHEM_ATOM_UDEF_STEREO_COUNT>  (1) 
0

>  <PUBCHEM_BOND_DEF_STEREO_COUNT>  (1) 
0

>  <PUBCHEM_BOND_UDEF_STEREO_COUNT>  (1) 
0

>  <PUBCHEM_ISOTOPIC_ATOM_COUNT>  (1) 
0

>  <PUBCHEM_COMPONENT_COUNT>  (1) 
1

>  <PUBCHEM_CACTVS_TAUTO_COUNT>  (1) 
3

>  <PUBCHEM_CONFORMER_ID>  (1) 
0000364000000001

>  <PUBCHEM_MMFF94_ENERGY>  (1) 
33.2168

>  <PUBCHEM_FEATURE_SELFOVERLAP>  (1) 
15.223

>  <PUBCHEM_SHAPE_FINGERPRINT>  (1) 
10219947 1 18410576188480223532
10608611 8 18410570686616977056
11062470 55 18410856563950763009
11132069 177 18411975845349886960
11471102 20 18410851044907218845
11543360 7 15697707207463796813
11806522 49 18266735964696246711
12032990 46 18410580582221549091
14144814 61 18410575093258333880
14325111 11 18410856568235070368
14993402 34 18411418440151648668
16945 1 18410575084663104902
18186145 218 18187363203533641934
193761 8 17545882624773363173
20645476 183 17896620533755150094
20645477 70 18342737369008396175
23235685 24 18410849962570100868
23402539 116 18272359863466232596
23402655 69 18197201582883912869
23463225 33 18336544928411038442
23559900 14 18342457020235879906
2748010 2 18122625225715658590
5104073 3 18410575084663099392
528886 8 18411412887070132235
53812653 166 18341889684287523297

>  <PUBCHEM_SHAPE_MULTIPOLES>  (1) 
235.22
6.35
1.55
0.6
0
0.03
0
0.84
0
0
0
0
0.02
0

>  <PUBCHEM_SHAPE_SELFOVERLAP>  (1) 
489.491

>  <PUBCHEM_SHAPE_VOLUME>  (1) 
134.4

>  <PUBCHEM_COORDINATE_TYPE>  (1) 
2
5
10

$$$$
