13881
     RDKit          3D

 11 11  0  0  0  0  0  0  0  0999 V2000
    1.5300   -0.0143    0.3297 O   0  0  0  0  0  0  0  0  0  0  0  0
    3.4022    0.0187   -1.0235 O   0  0  0  0  0  0  0  0  0  0  0  0
   -1.3196    1.2047   -0.1765 N   0  0  0  0  0  0  0  0  0  0  0  0
   -0.7395    0.0008   -0.3812 C   0  0  0  0  0  0  0  0  0  0  0  0
    0.6880    0.0120   -0.8160 C   0  0  0  0  0  0  0  0  0  0  0  0
   -1.3883   -1.2117   -0.2116 C   0  0  0  0  0  0  0  0  0  0  0  0
   -2.7179   -1.1871    0.1943 C   0  0  0  0  0  0  0  0  0  0  0  0
   -3.3493    0.0320    0.4149 C   0  0  0  0  0  0  0  0  0  0  0  0
   -2.6128    1.1889    0.2174 C   0  0  0  0  0  0  0  0  0  0  0  0
    2.8744   -0.0075    0.0801 C   0  0  0  0  0  0  0  0  0  0  0  0
    3.6327   -0.0366    1.3725 C   0  0  0  0  0  0  0  0  0  0  0  0
  1  5  1  0
  1 10  1  0
  2 10  2  0
  3  4  2  0
  3  9  1  0
  4  5  1  0
  4  6  1  0
  6  7  2  0
  7  8  1  0
  8  9  2  0
 10 11  1  0
M  END
>  <PUBCHEM_COMPOUND_CID>  (1) 
13881

>  <PUBCHEM_CONFORMER_RMSD>  (1) 
0.6

>  <PUBCHEM_CONFORMER_DIVERSEORDER>  (1) 
1
9
10
3
7
13
4
6
14
11
2
5
12
8

>  <PUBCHEM_MMFF94_PARTIAL_CHARGES>  (1) 
15
1 -0.43
10 0.66
11 0.06
14 0.15
15 0.15
16 0.15
17 0.15
2 -0.57
3 -0.62
4 0.17
5 0.42
6 -0.15
7 -0.15
8 -0.15
9 0.16

>  <PUBCHEM_EFFECTIVE_ROTOR_COUNT>  (1) 
3

>  <PUBCHEM_PHARMACOPHORE_FEATURES>  (1) 
3
1 2 acceptor
1 3 acceptor
6 3 4 6 7 8 9 rings

>  <PUBCHEM_HEAVY_ATOM_COUNT>  (1) 
11

>  <PUBCHEM_ATOM_DEF_STEREO_COUNT>  (1) 
0

>  <PUBCHEM_ATOM_UDEF_STEREO_COUNT>  (1) 
0

>  <PUBCHEM_BOND_DEF_STEREO_COUNT>  (1) 
0

>  <PUBCHEM_BOND_UDEF_STEREO_COUNT>  (1) 
0

>  <PUBCHEM_ISOTOPIC_ATOM_COUNT>  (1) 
0

>  <PUBCHEM_COMPONENT_COUNT>  (1) 
1

>  <PUBCHEM_CACTVS_TAUTO_COUNT>  (1) 
1

>  <PUBCHEM_CONFORMER_ID>  (1) 
0000363900000001

>  <PUBCHEM_MMFF94_ENERGY>  (1) 
20.3103

>  <PUBCHEM_FEATURE_SELFOVERLAP>  (1) 
15.223

>  <PUBCHEM_SHAPE_FINGERPRINT>  (1) 
10857977 72 18343021120554714861
11062470 55 15502376737927769055
12932764 1 17676203580796663524
13024252 1 14851604376017961485
14144814 61 18259704501620476178
14325111 11 18413110537075805486
18186145 218 15051736399894493484
190213 19 17894347778558273594
19422 9 17748829609397952634
20279233 1 17775563139505591582
20645464 45 17846778507404553967
20645477 70 15430302634078065562
20715346 28 17632577167040677388
20871998 184 18201444739419734847
22485316 2 15502374547325669043
23402539 116 18343010104654574103
3248919 1 18335415768613488414
369184 2 18341891887885099843

>  <PUBCHEM_SHAPE_MULTIPOLES>  (1) 
209.66
6.58
1.12
0.97
4.08
0.01
-0.09
-0.05
-1.54
-1.06
-0.02
0.84
0.01
0.02

>  <PUBCHEM_SHAPE_SELFOVERLAP>  (1) 
426.418

>  <PUBCHEM_SHAPE_VOLUME>  (1) 
121

>  <PUBCHEM_COORDINATE_TYPE>  (1) 
2
5
10

$$$$
