1389
     RDKit          3D

 28 31  0  0  1  0  0  0  0  0999 V2000
    0.4948   -0.7883   -1.2427 S   0  0  0  0  0  0  0  0  0  0  0  0
    3.0265    0.9114    0.2811 O   0  0  0  0  0  0  0  0  0  0  0  0
    0.6651   -1.9241   -2.1289 O   0  0  0  0  0  0  0  0  0  0  0  0
    0.9883    0.5223   -1.6208 O   0  0  0  0  0  0  0  0  0  0  0  0
   -3.6082    2.9292    0.3407 O   0  0  0  0  0  0  0  0  0  0  0  0
   -6.2792    1.9434    0.5911 O   0  0  0  0  0  0  0  0  0  0  0  0
    1.0791   -1.1848    0.3034 N   0  0  0  0  0  0  0  0  0  0  0  0
   -5.2518   -0.0979   -0.0618 N   0  0  0  0  0  0  0  0  0  0  0  0
    1.1317   -0.1002    1.3362 C   0  0  0  0  0  0  0  0  0  0  0  0
    0.5597   -0.7392    2.6042 C   0  0  0  0  0  0  0  0  0  0  0  0
    0.5574   -2.4247    0.9406 C   0  0  0  0  0  0  0  0  0  0  0  0
    0.8309   -2.2210    2.4213 C   0  0  0  0  0  0  0  0  0  0  0  0
    2.5787    0.3443    1.5016 C   0  0  0  0  0  0  0  0  0  0  0  0
   -1.2319   -0.6336   -0.9003 C   0  0  0  0  0  0  0  0  0  0  0  0
   -1.7337    0.6032   -0.5263 C   0  0  0  0  0  0  0  0  0  0  0  0
   -2.0463   -1.7658   -1.0165 C   0  0  0  0  0  0  0  0  0  0  0  0
   -3.0877    0.6575   -0.2729 C   0  0  0  0  0  0  0  0  0  0  0  0
   -3.9266   -0.4502   -0.3788 C   0  0  0  0  0  0  0  0  0  0  0  0
   -3.4184   -1.6806   -0.7527 C   0  0  0  0  0  0  0  0  0  0  0  0
    4.3639    0.7982   -0.0025 C   0  0  0  0  0  0  0  0  0  0  0  0
   -3.9245    1.7827    0.1349 C   0  0  0  0  0  0  0  0  0  0  0  0
   -5.3445    1.2445    0.2640 C   0  0  0  0  0  0  0  0  0  0  0  0
   -6.3487   -1.0347   -0.0827 C   0  0  0  0  0  0  0  0  0  0  0  0
    5.2848    0.7527    1.0369 C   0  0  0  0  0  0  0  0  0  0  0  0
    4.7815    0.7309   -1.3260 C   0  0  0  0  0  0  0  0  0  0  0  0
    6.6447    0.6384    0.7484 C   0  0  0  0  0  0  0  0  0  0  0  0
    6.1415    0.6164   -1.6145 C   0  0  0  0  0  0  0  0  0  0  0  0
    7.0730    0.5701   -0.5772 C   0  0  0  0  0  0  0  0  0  0  0  0
  1  3  2  0
  1  4  2  0
  1  7  1  0
  1 14  1  0
  2 13  1  0
  2 20  1  0
  5 21  2  0
  6 22  2  0
  7  9  1  0
  7 11  1  0
  8 18  1  0
  8 22  1  0
  8 23  1  0
  9 10  1  0
  9 13  1  0
 10 12  1  0
 11 12  1  0
 14 15  2  0
 14 16  1  0
 15 17  1  0
 16 19  2  0
 17 18  2  0
 17 21  1  0
 18 19  1  0
 20 24  2  0
 20 25  1  0
 21 22  1  0
 24 26  1  0
 25 27  2  0
 26 28  2  0
 27 28  1  0
M  END
>  <PUBCHEM_COMPOUND_CID>  (1) 
1389

>  <PUBCHEM_CONFORMER_RMSD>  (1) 
0.8

>  <PUBCHEM_CONFORMER_DIVERSEORDER>  (1) 
2
102
21
178
136
194
53
76
115
107
117
157
33
99
166
108
163
38
127
32
171
103
155
98
104
75
168
177
61
86
126
95
36
146
13
50
195
174
93
184
186
169
83
40
133
78
91
191
85
196
52
112
43
30
16
35
1
15
29
132
81
62
139
145
74
197
8
121
200
23
106
59
73
84
58
187
161
48
113
79
47
27
151
206
183
96
41
56
11
97
198
175
119
18
154
9
60
159
124
204
55
140
125
17
138
37
109
130
116
144
90
34
131
101
128
72
156
199
3
153
22
149
111
118
82
165
129
105
66
162
88
205
147
68
192
167
160
51
77
45
19
190
71
24
122
14
28
123
181
137
179
100
80
170
12
120
202
134
20
143
201
39
87
25
150
182
70
135
31
89
64
164
69
10
110
185
141
148
44
114
92
46
203
152
57
26
5
42
189
176
172
193
7
67
6
49
188
54
180
65
173
63
94
158
4
142

>  <PUBCHEM_MMFF94_PARTIAL_CHARGES>  (1) 
34
1 1.45
11 0.36
13 0.28
14 -0.01
15 -0.15
16 -0.15
17 0.09
18 0.12
19 -0.15
2 -0.36
20 0.08
21 0.48
22 0.63
23 0.3
24 -0.15
25 -0.15
26 -0.15
27 -0.15
28 -0.15
3 -0.65
38 0.15
39 0.15
4 -0.65
40 0.15
44 0.15
45 0.15
46 0.15
47 0.15
48 0.15
5 -0.57
6 -0.57
7 -0.85
8 -0.48
9 0.36

>  <PUBCHEM_EFFECTIVE_ROTOR_COUNT>  (1) 
6.2

>  <PUBCHEM_PHARMACOPHORE_FEATURES>  (1) 
9
1 2 acceptor
1 3 acceptor
1 4 acceptor
1 5 acceptor
1 6 acceptor
5 7 9 10 11 12 rings
5 8 17 18 21 22 rings
6 14 15 16 17 18 19 rings
6 20 24 25 26 27 28 rings

>  <PUBCHEM_HEAVY_ATOM_COUNT>  (1) 
28

>  <PUBCHEM_ATOM_DEF_STEREO_COUNT>  (1) 
0

>  <PUBCHEM_ATOM_UDEF_STEREO_COUNT>  (1) 
1

>  <PUBCHEM_BOND_DEF_STEREO_COUNT>  (1) 
0

>  <PUBCHEM_BOND_UDEF_STEREO_COUNT>  (1) 
0

>  <PUBCHEM_ISOTOPIC_ATOM_COUNT>  (1) 
0

>  <PUBCHEM_COMPONENT_COUNT>  (1) 
1

>  <PUBCHEM_CACTVS_TAUTO_COUNT>  (1) 
1

>  <PUBCHEM_CONFORMER_ID>  (1) 
0000056D00000002

>  <PUBCHEM_MMFF94_ENERGY>  (1) 
72.4082

>  <PUBCHEM_FEATURE_SELFOVERLAP>  (1) 
45.789

>  <PUBCHEM_SHAPE_FINGERPRINT>  (1) 
10165383 225 17346884472674867231
10670039 82 18342452634367778789
11045977 3 12901546853889521132
11578080 2 17242716607772965245
1200032 147 18056777429213949505
12236239 1 18113335318876267333
12516196 113 12396298162407487684
12596602 18 17967811635615916971
13631057 29 18041841843935865355
13726171 33 18057611966897790345
13782708 43 16772665709921072231
14341114 328 18040428888955572065
14840074 17 16515402988676300686
14856354 85 18260552272589133895
14955137 171 14418137322852206342
15183329 4 17275109401411213552
18222031 100 10591764311946290296
19611394 137 18192721253267903019
21033648 29 17417517112369577544
21315759 40 17749381590316097466
21365058 27 17967257502793284290
21424621 283 18409162243024974496
21756936 100 18409440418786312986
22224240 67 16950281827483118137
23536364 44 16056328219273025704
23559900 14 17060048272608068601
3009799 131 15626223520473507922
335352 9 7925636588502973007
347723 3 15267065860821592758
3610482 184 18042697263681334998
3633792 109 17677312941512787463
3729539 64 16630254623413533326
38570 142 18186809049968947418
392239 28 16588023519751021368
465052 167 13984664741883607502
5265222 85 17843967177153939708
59755656 215 17988927747289041092
59755656 520 17894910750182087370
6081469 158 8862680005301770496
7808743 9 18272364261744917049

>  <PUBCHEM_SHAPE_MULTIPOLES>  (1) 
540.77
16.11
2.18
1.89
8.3
0.42
-0.17
-8.62
0.42
-2.03
-0.68
1.27
0.77
-1.79

>  <PUBCHEM_SHAPE_SELFOVERLAP>  (1) 
1166.5

>  <PUBCHEM_SHAPE_VOLUME>  (1) 
299.1

>  <PUBCHEM_COORDINATE_TYPE>  (1) 
2
5
10

$$$$
