13902
     RDKit          3D

 14 14  0  0  1  0  0  0  0  0999 V2000
    2.8299    0.6040   -0.1885 C   0  0  0  0  0  0  0  0  0  0  0  0
   -2.8154   -0.6011   -0.1899 C   0  0  0  0  0  0  0  0  0  0  0  0
    1.3444    0.2862   -0.1889 C   0  0  0  0  0  0  0  0  0  0  0  0
   -1.3569   -0.2900   -0.1897 C   0  0  0  0  0  0  0  0  0  0  0  0
    3.6818   -0.4803    0.5024 C   0  0  0  0  0  0  0  0  0  0  0  0
   -3.6942    0.4791    0.4988 C   0  0  0  0  0  0  0  0  0  0  0  0
    0.6903    0.1454   -1.3970 C   0  0  0  0  0  0  0  0  0  0  0  0
   -0.6739   -0.1454   -1.3975 C   0  0  0  0  0  0  0  0  0  0  0  0
    0.6888    0.1477    1.0189 C   0  0  0  0  0  0  0  0  0  0  0  0
   -0.6755   -0.1433    1.0186 C   0  0  0  0  0  0  0  0  0  0  0  0
    3.0860    1.9723    0.4550 C   0  0  0  0  0  0  0  0  0  0  0  0
   -3.0999   -1.9741    0.4554 C   0  0  0  0  0  0  0  0  0  0  0  0
    3.6126   -1.8319   -0.1983 C   0  0  0  0  0  0  0  0  0  0  0  0
   -3.6180    1.8315   -0.1993 C   0  0  0  0  0  0  0  0  0  0  0  0
  1  3  1  0
  1  5  1  0
  1 11  1  0
  2  4  1  0
  2  6  1  0
  2 12  1  0
  3  7  2  0
  3  9  1  0
  4  8  2  0
  4 10  1  0
  5 13  1  0
  6 14  1  0
  7  8  1  0
  9 10  2  0
M  END
>  <PUBCHEM_COMPOUND_CID>  (1) 
13902

>  <PUBCHEM_CONFORMER_RMSD>  (1) 
0.6

>  <PUBCHEM_CONFORMER_DIVERSEORDER>  (1) 
1
25
20
37
26
5
27
19
36
8
21
6
2
43
24
11
7
12
14
39
41
38
13
33
31
3
44
28
40
35
16
23
22
17
4
18
30
32
15
34
29
9
42
10

>  <PUBCHEM_MMFF94_PARTIAL_CHARGES>  (1) 
12
1 0.14
10 -0.15
2 0.14
21 0.15
22 0.15
23 0.15
24 0.15
3 -0.14
4 -0.14
7 -0.15
8 -0.15
9 -0.15

>  <PUBCHEM_EFFECTIVE_ROTOR_COUNT>  (1) 
4

>  <PUBCHEM_PHARMACOPHORE_FEATURES>  (1) 
5
1 11 hydrophobe
1 12 hydrophobe
1 13 hydrophobe
1 14 hydrophobe
6 3 4 7 8 9 10 rings

>  <PUBCHEM_HEAVY_ATOM_COUNT>  (1) 
14

>  <PUBCHEM_ATOM_DEF_STEREO_COUNT>  (1) 
0

>  <PUBCHEM_ATOM_UDEF_STEREO_COUNT>  (1) 
2

>  <PUBCHEM_BOND_DEF_STEREO_COUNT>  (1) 
0

>  <PUBCHEM_BOND_UDEF_STEREO_COUNT>  (1) 
0

>  <PUBCHEM_ISOTOPIC_ATOM_COUNT>  (1) 
0

>  <PUBCHEM_COMPONENT_COUNT>  (1) 
1

>  <PUBCHEM_CACTVS_TAUTO_COUNT>  (1) 
1

>  <PUBCHEM_CONFORMER_ID>  (1) 
0000364E00000001

>  <PUBCHEM_MMFF94_ENERGY>  (1) 
28.2747

>  <PUBCHEM_FEATURE_SELFOVERLAP>  (1) 
25.374

>  <PUBCHEM_SHAPE_FINGERPRINT>  (1) 
11132069 177 17313374656246317037
11401426 45 15123501472189081713
11769659 78 18408600396224247330
12032990 46 15647053759028165913
124424 183 17988638562919665985
12500047 106 18409164381528186791
12507560 40 18411701006076517017
12670546 56 18409440388979809777
12932764 1 17560516334349501352
13296908 3 18410575114775407258
13296909 8 18259982708617886645
13538477 17 17203039798718579118
13583140 156 18059283365883001283
13675066 3 18411698776972568874
13760787 19 18271811267082712742
14289901 80 18266740366541586755
15309172 13 16081085978672650065
15375462 6 18340486797586732836
16945 1 18266741285669862614
18186145 218 17967245395121506072
19026448 4 18410856585409593419
19026448 5 18410574019511189607
19422 9 18187086186569642487
20281475 54 17603304856047628330
20645476 183 17702943780988500468
20645477 56 18408608046125211577
20645477 70 18060702771260315510
21061003 4 14273745044844944421
22169311 14 18410012121824762278
23402539 116 18341606015489684445
23557571 272 18271539688080033997
23559900 14 18271524209133833474
3286 77 18334007324457157982
4072396 5 16558184882981127783
58051976 100 18411702080003184911
633830 44 16588027909022955471

>  <PUBCHEM_SHAPE_MULTIPOLES>  (1) 
288.11
7.33
1.75
1.12
0.06
0
-0.21
0
0.93
0.01
0.16
0
0
0.4

>  <PUBCHEM_SHAPE_SELFOVERLAP>  (1) 
574.575

>  <PUBCHEM_SHAPE_VOLUME>  (1) 
167.9

>  <PUBCHEM_COORDINATE_TYPE>  (1) 
2
5
10

$$$$
