13913
     RDKit          3D

 15 16  0  0  0  0  0  0  0  0999 V2000
   -0.0780    1.6324    0.0940 O   0  0  0  0  0  0  0  0  0  0  0  0
    3.7113   -0.7920    0.0569 N   0  0  0  0  0  0  0  0  0  0  0  0
    1.2941    1.8077   -0.0394 N   0  0  0  0  0  0  0  0  0  0  0  0
    3.2080    0.4157   -0.5965 C   0  0  0  0  0  0  0  0  0  0  0  0
    1.7364    0.6066   -0.3678 C   0  0  0  0  0  0  0  0  0  0  0  0
   -0.3909    0.3361   -0.1606 C   0  0  0  0  0  0  0  0  0  0  0  0
    0.7479   -0.3624   -0.4628 C   0  0  0  0  0  0  0  0  0  0  0  0
   -1.7821    0.0016   -0.0612 C   0  0  0  0  0  0  0  0  0  0  0  0
    3.4920   -0.7210    1.5011 C   0  0  0  0  0  0  0  0  0  0  0  0
    5.1322   -0.9772   -0.2358 C   0  0  0  0  0  0  0  0  0  0  0  0
   -2.2133   -1.3071   -0.3040 C   0  0  0  0  0  0  0  0  0  0  0  0
   -2.7205    0.9820    0.2787 C   0  0  0  0  0  0  0  0  0  0  0  0
   -3.5667   -1.6314   -0.2082 C   0  0  0  0  0  0  0  0  0  0  0  0
   -4.0737    0.6578    0.3746 C   0  0  0  0  0  0  0  0  0  0  0  0
   -4.4968   -0.6489    0.1311 C   0  0  0  0  0  0  0  0  0  0  0  0
  1  3  1  0
  1  6  1  0
  2  4  1  0
  2  9  1  0
  2 10  1  0
  3  5  2  0
  4  5  1  0
  5  7  1  0
  6  7  2  0
  6  8  1  0
  8 11  2  0
  8 12  1  0
 11 13  1  0
 12 14  2  0
 13 15  2  0
 14 15  1  0
M  END
>  <PUBCHEM_COMPOUND_CID>  (1) 
13913

>  <PUBCHEM_CONFORMER_RMSD>  (1) 
0.6

>  <PUBCHEM_CONFORMER_DIVERSEORDER>  (1) 
1
10
11
12
7
5
6
8
2
3
4
9

>  <PUBCHEM_MMFF94_PARTIAL_CHARGES>  (1) 
21
1 -0.02
10 0.27
11 -0.15
12 -0.15
13 -0.15
14 -0.15
15 -0.15
18 0.15
2 -0.81
25 0.15
26 0.15
27 0.15
28 0.15
29 0.15
3 -0.41
4 0.45
5 0.11
6 0.09
7 -0.15
8 0.05
9 0.27

>  <PUBCHEM_EFFECTIVE_ROTOR_COUNT>  (1) 
3

>  <PUBCHEM_PHARMACOPHORE_FEATURES>  (1) 
4
1 2 cation
1 3 acceptor
5 1 3 5 6 7 rings
6 8 11 12 13 14 15 rings

>  <PUBCHEM_HEAVY_ATOM_COUNT>  (1) 
15

>  <PUBCHEM_ATOM_DEF_STEREO_COUNT>  (1) 
0

>  <PUBCHEM_ATOM_UDEF_STEREO_COUNT>  (1) 
0

>  <PUBCHEM_BOND_DEF_STEREO_COUNT>  (1) 
0

>  <PUBCHEM_BOND_UDEF_STEREO_COUNT>  (1) 
0

>  <PUBCHEM_ISOTOPIC_ATOM_COUNT>  (1) 
0

>  <PUBCHEM_COMPONENT_COUNT>  (1) 
1

>  <PUBCHEM_CACTVS_TAUTO_COUNT>  (1) 
1

>  <PUBCHEM_CONFORMER_ID>  (1) 
0000365900000001

>  <PUBCHEM_MMFF94_ENERGY>  (1) 
33.271

>  <PUBCHEM_FEATURE_SELFOVERLAP>  (1) 
20.297

>  <PUBCHEM_SHAPE_FINGERPRINT>  (1) 
10062212 137 18410570695565594815
10130415 120 18410576201381170560
10465860 250 17704071789449985161
11046707 91 18409448080954929015
11543360 7 15647342982205207686
12032990 46 18411985770998124524
12236239 1 18113904840604197230
12251169 10 18343021094742706671
124424 183 18410009936150677845
13167823 11 18334296486977000530
13288520 33 18411140216723812782
13675066 3 17775565338280836302
13690532 89 18410013247385788183
13760787 5 18041006154103601717
14144814 61 18412266155322121737
14252887 29 18131639958955239486
14965852 173 18340769346727130815
15239191 94 18113332024594179266
15375462 189 18113896035525816242
15442244 35 18411704304748907645
17804303 29 18343023302345470637
17834072 33 18409172138566164724
17834072 8 18260823774667075087
1813 80 17749963171684785358
18186145 218 16877941676115673589
19422 9 18334862752766350917
200 152 17385724665006713068
20279233 1 16487260971436037847
20281475 54 18335139833896578782
204376 136 14405180690156116052
20645477 70 18261113010475888886
21267235 1 18410303514034316919
21501925 9 18342733052697761788
22094290 60 15430032136947865111
22485316 2 18334574659213446940
2255824 54 18041564757887787972
22646028 1 18335701658721555663
22646028 28 18408321094579862890
22854114 59 16128656349105972998
23402539 116 18060133224732980021
23463225 33 18410294722125109157
23559900 14 18272085024082502136
351380 3 18187364311809745378
42 15 18413390933989357502
4214541 1 18411421687300197397
5104073 3 18271533108279489803
559249 180 18335698282888089787
573450 72 18411134727839881123
76465 3 18200868608311772447
8809292 202 18335145348998836947
9981440 41 17327738908012044297

>  <PUBCHEM_SHAPE_MULTIPOLES>  (1) 
292.86
9.68
1.53
0.84
3.32
0.13
0.21
-3.55
0.83
-0.42
-0.01
0.58
-0.11
-0.52

>  <PUBCHEM_SHAPE_SELFOVERLAP>  (1) 
620.49

>  <PUBCHEM_SHAPE_VOLUME>  (1) 
166.3

>  <PUBCHEM_COORDINATE_TYPE>  (1) 
2
5
10

$$$$
