13919
     RDKit          3D

 16 16  0  0  0  0  0  0  0  0999 V2000
   -0.0978   -3.3628    0.3616 S   0  0  0  0  0  0  0  0  0  0  0  0
    2.4845    0.9264    0.1221 N   0  0  0  0  0  0  0  0  0  0  0  0
   -2.1899    1.1590   -0.1857 N   0  0  0  0  0  0  0  0  0  0  0  0
    0.1492    1.0745   -0.0355 N   0  0  0  0  0  0  0  0  0  0  0  0
   -1.1615   -0.9326    0.0703 N   0  0  0  0  0  0  0  0  0  0  0  0
    1.2298   -1.0517    0.2280 N   0  0  0  0  0  0  0  0  0  0  0  0
    1.2490    0.2966    0.1041 C   0  0  0  0  0  0  0  0  0  0  0  0
   -1.0099    0.3968   -0.0435 C   0  0  0  0  0  0  0  0  0  0  0  0
    3.7380    0.2285    0.2637 C   0  0  0  0  0  0  0  0  0  0  0  0
   -3.4932    0.5727   -0.2109 C   0  0  0  0  0  0  0  0  0  0  0  0
    0.0007   -1.5919    0.2029 C   0  0  0  0  0  0  0  0  0  0  0  0
    4.8510    1.2263    0.2450 C   0  0  0  0  0  0  0  0  0  0  0  0
   -4.5077    1.6578   -0.3778 C   0  0  0  0  0  0  0  0  0  0  0  0
    5.8384    1.2268   -0.6578 C   0  0  0  0  0  0  0  0  0  0  0  0
   -5.4825    1.9107    0.5030 C   0  0  0  0  0  0  0  0  0  0  0  0
   -1.5981   -3.7371   -0.5896 C   0  0  0  0  0  0  0  0  0  0  0  0
  1 11  1  0
  1 16  1  0
  2  7  1  0
  2  9  1  0
  3  8  1  0
  3 10  1  0
  4  7  2  0
  4  8  1  0
  5  8  2  0
  5 11  1  0
  6  7  1  0
  6 11  2  0
  9 12  1  0
 10 13  1  0
 12 14  2  0
 13 15  2  0
M  END
>  <PUBCHEM_COMPOUND_CID>  (1) 
13919

>  <PUBCHEM_CONFORMER_RMSD>  (1) 
0.8

>  <PUBCHEM_CONFORMER_DIVERSEORDER>  (1) 
1
35
26
32
9
20
27
14
30
18
7
12
3
28
21
33
29
34
13
16
23
24
22
15
17
36
25
11
10
6
19
8
2
5
31
4

>  <PUBCHEM_MMFF94_PARTIAL_CHARGES>  (1) 
24
1 -0.33
10 0.51
11 0.72
12 -0.29
13 -0.29
14 -0.3
15 -0.3
16 0.23
2 -0.87
21 0.4
22 0.4
23 0.15
24 0.15
25 0.15
26 0.15
27 0.15
28 0.15
3 -0.87
4 -0.62
5 -0.62
6 -0.62
7 0.72
8 0.72
9 0.51

>  <PUBCHEM_EFFECTIVE_ROTOR_COUNT>  (1) 
7

>  <PUBCHEM_PHARMACOPHORE_FEATURES>  (1) 
8
1 14 hydrophobe
1 15 hydrophobe
1 16 hydrophobe
1 2 donor
1 3 donor
4 2 4 6 7 cation
4 3 4 5 8 cation
6 4 5 6 7 8 11 rings

>  <PUBCHEM_HEAVY_ATOM_COUNT>  (1) 
16

>  <PUBCHEM_ATOM_DEF_STEREO_COUNT>  (1) 
0

>  <PUBCHEM_ATOM_UDEF_STEREO_COUNT>  (1) 
0

>  <PUBCHEM_BOND_DEF_STEREO_COUNT>  (1) 
0

>  <PUBCHEM_BOND_UDEF_STEREO_COUNT>  (1) 
0

>  <PUBCHEM_ISOTOPIC_ATOM_COUNT>  (1) 
0

>  <PUBCHEM_COMPONENT_COUNT>  (1) 
1

>  <PUBCHEM_CACTVS_TAUTO_COUNT>  (1) 
5

>  <PUBCHEM_CONFORMER_ID>  (1) 
0000365F00000001

>  <PUBCHEM_MMFF94_ENERGY>  (1) 
34.9372

>  <PUBCHEM_FEATURE_SELFOVERLAP>  (1) 
40.639

>  <PUBCHEM_SHAPE_FINGERPRINT>  (1) 
100836 57 18408606950413003764
10411042 1 17617659203465737763
10493431 412 18409729564801330997
12390115 104 18341907298185631593
12500047 106 18339640144153902880
12532896 13 18409730664118195782
14790565 3 18410859819573650248
17539 30 18054783159343747871
17834072 32 18336266842348575996
17980427 23 17458356272839072703
18222031 100 8934708973034731589
200 152 11455892455656184080
204376 136 18408885114032706609
20645477 56 18408323315463141796
20645477 70 18047460133641696341
20871999 31 18266455589336470534
21426921 1 18194401323703303838
22224240 67 18408888443255061377
22620623 9 17986955348051746310
23402539 116 18343576360936760884
23402655 69 18130783434632820717
23557571 272 18199197367943645814
23558518 356 17827638372508326952
23598288 3 17825969270749518830
293599 30 18410012130605042608
3071541 37 18263647259954809526
366044 4 18408884031542744449
3759504 43 18333450971119913706
474229 33 18335702771566491307
5104073 3 18042676368934569520
53917941 68 18266719424455144389
59755656 520 18409163312033805726
7364860 26 18051408475022239427
77188 2 17185034410782270567
81228 2 17829875887070868787
81539 233 18262514776184784143
9971528 1 8574130736312607695

>  <PUBCHEM_SHAPE_MULTIPOLES>  (1) 
308.22
10.6
3.53
0.71
4.8
5.18
0.02
-11.9
0.59
-2.75
0.2
0.02
0.06
-0.52

>  <PUBCHEM_SHAPE_SELFOVERLAP>  (1) 
596.726

>  <PUBCHEM_SHAPE_VOLUME>  (1) 
186.7

>  <PUBCHEM_COORDINATE_TYPE>  (1) 
2
5
10

$$$$
