13923
     RDKit          3D

 14 14  0  0  0  0  0  0  0  0999 V2000
    0.6254   -1.4057   -0.6170 O   0  0  0  0  0  0  0  0  0  0  0  0
   -2.4103   -0.0736    0.5157 N   0  0  0  0  0  0  0  0  0  0  0  0
   -3.2578    1.9948    1.1287 N   0  0  0  0  0  0  0  0  0  0  0  0
   -3.6693    1.2980   -1.0021 N   0  0  0  0  0  0  0  0  0  0  0  0
   -1.5075   -2.2896    0.0205 C   0  0  0  0  0  0  0  0  0  0  0  0
   -0.0990   -1.9384    0.4840 C   0  0  0  0  0  0  0  0  0  0  0  0
   -2.2639   -1.0882   -0.5289 C   0  0  0  0  0  0  0  0  0  0  0  0
    1.6118   -0.4995   -0.3273 C   0  0  0  0  0  0  0  0  0  0  0  0
    2.2904   -0.5845    0.8830 C   0  0  0  0  0  0  0  0  0  0  0  0
    1.9232    0.4957   -1.2467 C   0  0  0  0  0  0  0  0  0  0  0  0
    3.2939    0.3384    1.1781 C   0  0  0  0  0  0  0  0  0  0  0  0
    2.9268    1.4184   -0.9517 C   0  0  0  0  0  0  0  0  0  0  0  0
    3.6121    1.3397    0.2608 C   0  0  0  0  0  0  0  0  0  0  0  0
   -3.0758    0.9944    0.2030 C   0  0  0  0  0  0  0  0  0  0  0  0
  1  6  1  0
  1  8  1  0
  2  7  1  0
  2 14  2  3
  3 14  1  0
  4 14  1  0
  5  6  1  0
  5  7  1  0
  8  9  2  0
  8 10  1  0
  9 11  1  0
 10 12  2  0
 11 13  2  0
 12 13  1  0
M  END
>  <PUBCHEM_COMPOUND_CID>  (1) 
13923

>  <PUBCHEM_CONFORMER_RMSD>  (1) 
0.6

>  <PUBCHEM_CONFORMER_DIVERSEORDER>  (1) 
2
140
124
127
25
93
139
12
50
116
107
5
126
121
72
131
136
89
110
35
132
130
4
76
137
61
8
41
104
74
68
117
128
19
134
112
135
66
100
18
97
32
51
105
21
20
125
90
43
34
55
45
24
75
23
111
71
7
38
102
85
138
14
114
81
46
80
63
113
3
57
122
17
1
15
31
115
91
69
84
33
123
54
78
94
39
47
98
6
49
119
101
92
30
129
120
37
118
44
28
53
87
88
86
106
58
83
11
64
59
56
79
40
67
29
27
48
42
133
26
36
65
96
52
62
109
16
70
10
22
108
77
73
60
82
99
9
13
103
95

>  <PUBCHEM_MMFF94_PARTIAL_CHARGES>  (1) 
22
1 -0.36
10 -0.15
11 -0.15
12 -0.15
13 -0.15
14 0.55
2 -0.7
21 0.15
22 0.15
23 0.15
24 0.15
25 0.15
26 0.4
27 0.4
28 0.4
29 0.4
3 -0.85
4 -0.85
6 0.28
7 0.25
8 0.08
9 -0.15

>  <PUBCHEM_EFFECTIVE_ROTOR_COUNT>  (1) 
5

>  <PUBCHEM_PHARMACOPHORE_FEATURES>  (1) 
5
1 1 acceptor
1 3 donor
1 4 donor
4 2 3 4 14 cation
6 8 9 10 11 12 13 rings

>  <PUBCHEM_HEAVY_ATOM_COUNT>  (1) 
14

>  <PUBCHEM_ATOM_DEF_STEREO_COUNT>  (1) 
0

>  <PUBCHEM_ATOM_UDEF_STEREO_COUNT>  (1) 
0

>  <PUBCHEM_BOND_DEF_STEREO_COUNT>  (1) 
0

>  <PUBCHEM_BOND_UDEF_STEREO_COUNT>  (1) 
0

>  <PUBCHEM_ISOTOPIC_ATOM_COUNT>  (1) 
0

>  <PUBCHEM_COMPONENT_COUNT>  (1) 
1

>  <PUBCHEM_CACTVS_TAUTO_COUNT>  (1) 
2

>  <PUBCHEM_CONFORMER_ID>  (1) 
0000366300000002

>  <PUBCHEM_MMFF94_ENERGY>  (1) 
41.9372

>  <PUBCHEM_FEATURE_SELFOVERLAP>  (1) 
25.427

>  <PUBCHEM_SHAPE_FINGERPRINT>  (1) 
10465860 228 18336547123208015514
11086676 242 17458338611823021740
11471102 22 15575261207912827406
12162725 195 18262795293246825986
12491281 212 18115028640166641058
12841375 7 8358246030308179851
13618510 140 18410016507229269973
13764800 53 18340219573596392691
14123260 362 18336833081777031956
15276787 5 16009027242110026493
15775835 57 18334576858136501713
17357990 137 18041289854163450638
1741750 31 18342178873146823235
17834072 32 18409730689924961733
1798214 55 18341056220388399585
18186145 218 18341621351989638687
19107657 9 18339935835082252441
201361 129 18040995198243266810
20361792 2 9727626198747591475
20510252 161 18194125333204813931
20539926 19 18335991921074870316
20671657 1 18267308625212307471
20767249 462 18410008827701020757
21524375 3 18410852140472331111
21713013 43 14117506662894083661
22094290 62 18336264527060367170
22749437 52 18338513045640415973
22926399 65 18272092738001826488
23402655 69 12894535289682466146
23557571 272 17702384138007240719
305870 269 18334571322024325802
449060 23 8358253748322179713
568465 68 14346063257234668800
94968 8 10303514126793726285

>  <PUBCHEM_SHAPE_MULTIPOLES>  (1) 
267.3
7.03
2.25
1.17
1.26
0.37
0
-4.48
0.67
1.63
0.13
-0.35
-0.3
-0.62

>  <PUBCHEM_SHAPE_SELFOVERLAP>  (1) 
538.945

>  <PUBCHEM_SHAPE_VOLUME>  (1) 
155.1

>  <PUBCHEM_COORDINATE_TYPE>  (1) 
2
5
10

$$$$
