13935
     RDKit          3D

 19 20  0  0  1  0  0  0  0  0999 V2000
    0.1784   -1.5045   -0.6811 O   0  0  0  0  0  0  0  0  0  0  0  0
    0.5904    2.8967    0.7635 O   0  0  0  0  0  0  0  0  0  0  0  0
   -3.5589    1.1831   -0.1396 O   0  0  0  0  0  0  0  0  0  0  0  0
    0.4785    0.7345   -0.1101 N   0  0  0  0  0  0  0  0  0  0  0  0
   -1.4636    2.0350    0.2528 N   0  0  0  0  0  0  0  0  0  0  0  0
    1.8948    0.5491    0.0948 C   0  0  0  0  0  0  0  0  0  0  0  0
    2.1530   -0.5273    1.1523 C   0  0  0  0  0  0  0  0  0  0  0  0
    2.5879    0.2090   -1.2269 C   0  0  0  0  0  0  0  0  0  0  0  0
    3.6462   -0.7782    1.3460 C   0  0  0  0  0  0  0  0  0  0  0  0
    4.0804   -0.0445   -1.0305 C   0  0  0  0  0  0  0  0  0  0  0  0
    4.3356   -1.1150    0.0269 C   0  0  0  0  0  0  0  0  0  0  0  0
   -1.6616   -0.0004   -1.0527 C   0  0  0  0  0  0  0  0  0  0  0  0
   -0.2630   -0.3589   -0.5845 C   0  0  0  0  0  0  0  0  0  0  0  0
   -2.5512   -1.2395   -1.1406 C   0  0  0  0  0  0  0  0  0  0  0  0
   -0.0739    1.9586    0.3150 C   0  0  0  0  0  0  0  0  0  0  0  0
   -2.8344   -1.8846    0.2247 C   0  0  0  0  0  0  0  0  0  0  0  0
   -2.3386    1.0927   -0.2600 C   0  0  0  0  0  0  0  0  0  0  0  0
   -1.5543   -2.2868    0.9584 C   0  0  0  0  0  0  0  0  0  0  0  0
   -3.6457   -0.9189    1.0915 C   0  0  0  0  0  0  0  0  0  0  0  0
  1 13  2  0
  2 15  2  0
  3 17  2  0
  4  6  1  0
  4 13  1  0
  4 15  1  0
  5 15  1  0
  5 17  1  0
  6  7  1  0
  6  8  1  0
  7  9  1  0
  8 10  1  0
  9 11  1  0
 10 11  1  0
 12 13  1  0
 12 14  1  0
 12 17  1  0
 14 16  1  0
 16 18  1  0
 16 19  1  0
M  END
>  <PUBCHEM_COMPOUND_CID>  (1) 
13935

>  <PUBCHEM_CONFORMER_RMSD>  (1) 
0.6

>  <PUBCHEM_CONFORMER_DIVERSEORDER>  (1) 
1
5
3
2
4

>  <PUBCHEM_MMFF94_PARTIAL_CHARGES>  (1) 
11
1 -0.57
12 0.12
13 0.57
15 0.69
17 0.57
2 -0.57
3 -0.57
35 0.37
4 -0.42
5 -0.49
6 0.3

>  <PUBCHEM_EFFECTIVE_ROTOR_COUNT>  (1) 
4.8

>  <PUBCHEM_PHARMACOPHORE_FEATURES>  (1) 
8
1 1 acceptor
1 12 anion
1 2 acceptor
1 3 acceptor
1 5 donor
3 16 18 19 hydrophobe
6 4 5 12 13 15 17 rings
6 6 7 8 9 10 11 rings

>  <PUBCHEM_HEAVY_ATOM_COUNT>  (1) 
19

>  <PUBCHEM_ATOM_DEF_STEREO_COUNT>  (1) 
0

>  <PUBCHEM_ATOM_UDEF_STEREO_COUNT>  (1) 
1

>  <PUBCHEM_BOND_DEF_STEREO_COUNT>  (1) 
0

>  <PUBCHEM_BOND_UDEF_STEREO_COUNT>  (1) 
0

>  <PUBCHEM_ISOTOPIC_ATOM_COUNT>  (1) 
0

>  <PUBCHEM_COMPONENT_COUNT>  (1) 
1

>  <PUBCHEM_CACTVS_TAUTO_COUNT>  (1) 
3

>  <PUBCHEM_CONFORMER_ID>  (1) 
0000366F00000001

>  <PUBCHEM_MMFF94_ENERGY>  (1) 
61.4329

>  <PUBCHEM_FEATURE_SELFOVERLAP>  (1) 
40.596

>  <PUBCHEM_SHAPE_FINGERPRINT>  (1) 
10062212 137 18335695022833851886
11132069 177 18272927202528096516
11543360 7 16370724863526624470
11680986 33 18269263733038207137
12011746 2 18410578383941799879
12236239 1 18041282072020274740
12363563 72 18271517697404243718
12553582 1 18339361967116411766
12633257 1 18269296671680081147
12714826 92 18187080663436690367
12824470 246 17821725069719096346
13103583 49 17974042636814851939
13140716 1 18342737451008413569
13296908 3 18343293799559729116
13538477 17 18261110734306602756
13760787 19 17894916208800287406
14022347 108 18198080108941576292
14115302 16 18187364311461351892
14223421 5 18123184881476903145
15375462 189 18186804703034646042
16752209 62 18334842918739571439
16945 1 18201153274306609629
17804303 29 18409452522378393951
18186145 218 17603583024152520910
19422 9 18040436590206609918
20645476 183 18113622235671435669
232386 152 18409726270445234100
2334 1 18197772421980093461
23493267 7 18337115548901620384
23557571 272 18272376373800695972
23559900 14 18343300324205824196
2748010 2 18197764691033744493
465052 167 18266190607055924995
5902787 121 18410851092420975272
7364860 26 17912642698683506984
77492 1 18041279868580797532
81228 2 18058174916682022504
8809292 202 18410011022328958697

>  <PUBCHEM_SHAPE_MULTIPOLES>  (1) 
363.44
7.01
2.34
1.25
3.82
0.79
-0.01
-2.56
0.16
-1.3
0.68
0.35
-0.24
-0.05

>  <PUBCHEM_SHAPE_SELFOVERLAP>  (1) 
755.615

>  <PUBCHEM_SHAPE_VOLUME>  (1) 
202.2

>  <PUBCHEM_COORDINATE_TYPE>  (1) 
2
5
10

$$$$
