13947
     RDKit          3D

 21 22  0  0  0  0  0  0  0  0999 V2000
   -2.0497   -2.0465    0.0865 S   0  0  0  0  0  0  0  0  0  0  0  0
    0.3357   -1.0048   -1.6080 O   0  0  0  0  0  0  0  0  0  0  0  0
   -2.0826   -2.5472   -1.2742 O   0  0  0  0  0  0  0  0  0  0  0  0
   -2.6426   -2.8118    1.1661 O   0  0  0  0  0  0  0  0  0  0  0  0
    1.7606   -0.9186    0.2096 N   0  0  0  0  0  0  0  0  0  0  0  0
   -0.4422   -1.6384    0.5012 N   0  0  0  0  0  0  0  0  0  0  0  0
    2.9234   -0.4288   -0.5022 C   0  0  0  0  0  0  0  0  0  0  0  0
    2.8649    1.0998   -0.5847 C   0  0  0  0  0  0  0  0  0  0  0  0
    4.1997   -1.0334    0.0916 C   0  0  0  0  0  0  0  0  0  0  0  0
    4.1784    1.7798   -0.9612 C   0  0  0  0  0  0  0  0  0  0  0  0
    4.7795   -0.2803    1.2881 C   0  0  0  0  0  0  0  0  0  0  0  0
    5.0626    2.0648    0.2519 C   0  0  0  0  0  0  0  0  0  0  0  0
    5.7294    0.8428    0.8742 C   0  0  0  0  0  0  0  0  0  0  0  0
    0.5544   -1.1670   -0.4113 C   0  0  0  0  0  0  0  0  0  0  0  0
   -2.8184   -0.4551    0.1058 C   0  0  0  0  0  0  0  0  0  0  0  0
   -2.8464    0.2955   -1.0569 C   0  0  0  0  0  0  0  0  0  0  0  0
   -3.3781    0.0115    1.2828 C   0  0  0  0  0  0  0  0  0  0  0  0
   -4.0215    2.0377    0.1348 C   0  0  0  0  0  0  0  0  0  0  0  0
   -3.4526    1.5517   -1.0422 C   0  0  0  0  0  0  0  0  0  0  0  0
   -3.9843    1.2677    1.2973 C   0  0  0  0  0  0  0  0  0  0  0  0
   -4.6703    3.3807    0.1507 C   0  0  0  0  0  0  0  0  0  0  0  0
  1  3  2  0
  1  4  2  0
  1  6  1  0
  1 15  1  0
  2 14  2  0
  5  7  1  0
  5 14  1  0
  6 14  1  0
  7  8  1  0
  7  9  1  0
  8 10  1  0
  9 11  1  0
 10 12  1  0
 11 13  1  0
 12 13  1  0
 15 16  2  0
 15 17  1  0
 16 19  1  0
 17 20  2  0
 18 19  2  0
 18 20  1  0
 18 21  1  0
M  END
>  <PUBCHEM_COMPOUND_CID>  (1) 
13947

>  <PUBCHEM_CONFORMER_RMSD>  (1) 
0.8

>  <PUBCHEM_CONFORMER_DIVERSEORDER>  (1) 
1
40
64
43
28
65
14
47
53
4
57
70
55
54
35
22
26
44
67
29
69
18
36
46
42
50
75
74
25
73
49
23
7
13
21
19
60
15
63
56
38
6
20
24
32
37
10
58
27
33
9
41
31
51
48
11
76
72
66
30
62
8
34
61
68
12
5
39
45
3
59
52
17
16
71
2

>  <PUBCHEM_MMFF94_PARTIAL_CHARGES>  (1) 
21
1 1.45
14 0.87
15 -0.01
16 -0.15
17 -0.15
18 -0.14
19 -0.15
2 -0.57
20 -0.15
21 0.14
3 -0.65
35 0.37
36 0.42
37 0.15
38 0.15
39 0.15
4 -0.65
40 0.15
5 -0.73
6 -0.79
7 0.3

>  <PUBCHEM_EFFECTIVE_ROTOR_COUNT>  (1) 
6.4

>  <PUBCHEM_PHARMACOPHORE_FEATURES>  (1) 
7
1 2 acceptor
1 3 acceptor
1 4 acceptor
1 5 donor
1 6 donor
6 15 16 17 18 19 20 rings
7 7 8 9 10 11 12 13 rings

>  <PUBCHEM_HEAVY_ATOM_COUNT>  (1) 
21

>  <PUBCHEM_ATOM_DEF_STEREO_COUNT>  (1) 
0

>  <PUBCHEM_ATOM_UDEF_STEREO_COUNT>  (1) 
0

>  <PUBCHEM_BOND_DEF_STEREO_COUNT>  (1) 
0

>  <PUBCHEM_BOND_UDEF_STEREO_COUNT>  (1) 
0

>  <PUBCHEM_ISOTOPIC_ATOM_COUNT>  (1) 
0

>  <PUBCHEM_COMPONENT_COUNT>  (1) 
1

>  <PUBCHEM_CACTVS_TAUTO_COUNT>  (1) 
3

>  <PUBCHEM_CONFORMER_ID>  (1) 
0000367B00000001

>  <PUBCHEM_MMFF94_ENERGY>  (1) 
24.1131

>  <PUBCHEM_FEATURE_SELFOVERLAP>  (1) 
35.584

>  <PUBCHEM_SHAPE_FINGERPRINT>  (1) 
105312 117 17346882277656091286
10928967 22 11891338664122835744
10968037 57 7925905985446312117
11370993 144 18261110725574334374
11405975 8 18408602552872784578
11552529 35 17462008966357503826
12107183 9 18190169084610449410
12403259 118 18339633555774323608
12596602 18 17096085921264492512
12633257 1 18114176415480947580
12670546 177 13830123992858271338
12788726 201 18126825291948134535
12969540 114 16487260993042820782
13103583 49 12685387184369063949
13583140 156 17489015080806763606
14123255 352 18342175548689161752
14142880 1 18335419067681011423
14251758 9 18341331107386249750
14251764 38 18268987751483034008
14251764 75 17913498939480601865
14950920 106 16877949351354600952
17834072 32 18339081493083261517
193927 3 11530481116987037784
20621476 21 12035720960889449512
20715895 44 18267864982375202736
21054139 6 11024106552070052868
21401589 2 18341902848968784961
22182937 141 18410019836076668785
22393880 68 10519718773697010536
23403322 49 9511453412465447321
235170 7 14692569901289943920
23559900 14 18200036136492227646
27216 239 18334021579690802113
2838139 119 18271799069344164285
3117164 225 18188765046932250730
341906 21 18201712998934575800
4259306 186 9511455615493513512
46194498 28 13109804221608862049
5104073 3 18187918517652370480
5219985 9 17911514613266649743
633830 44 18411134723751097110
7064713 232 18334299734020152349
79837 15 17895198865099617202
90127 26 18340777022045049038
9981440 41 18413669102163634027

>  <PUBCHEM_SHAPE_MULTIPOLES>  (1) 
408.45
12.81
3.14
1.3
10.82
0.37
-0.01
9.16
3.06
-3.4
-0.01
-0.3
-0.13
-0.22

>  <PUBCHEM_SHAPE_SELFOVERLAP>  (1) 
824.121

>  <PUBCHEM_SHAPE_VOLUME>  (1) 
237.5

>  <PUBCHEM_COORDINATE_TYPE>  (1) 
2
5
10

$$$$
