13948
     RDKit          3D

 21 24  0  0  1  0  0  0  0  0999 V2000
   -5.0873    1.3410    0.6322 O   0  0  0  0  0  0  0  0  0  0  0  0
    5.5101   -0.0197    0.1429 O   0  0  0  0  0  0  0  0  0  0  0  0
   -3.0076    0.0184    0.5675 C   0  0  0  0  0  0  0  0  0  0  0  0
   -2.3960   -0.8582   -0.5496 C   0  0  0  0  0  0  0  0  0  0  0  0
   -0.8559   -0.9612   -0.5905 C   0  0  0  0  0  0  0  0  0  0  0  0
   -0.1462    0.3934   -0.3504 C   0  0  0  0  0  0  0  0  0  0  0  0
   -4.4349    0.2449    0.0169 C   0  0  0  0  0  0  0  0  0  0  0  0
   -2.2324    1.3425    0.7430 C   0  0  0  0  0  0  0  0  0  0  0  0
   -2.9598   -0.2476   -1.8528 C   0  0  0  0  0  0  0  0  0  0  0  0
   -0.7233    1.1407    0.8655 C   0  0  0  0  0  0  0  0  0  0  0  0
   -4.2550    0.4691   -1.4799 C   0  0  0  0  0  0  0  0  0  0  0  0
   -0.3187   -2.0219    0.3830 C   0  0  0  0  0  0  0  0  0  0  0  0
   -3.1116   -0.7058    1.9199 C   0  0  0  0  0  0  0  0  0  0  0  0
    1.3626    0.2480   -0.2189 C   0  0  0  0  0  0  0  0  0  0  0  0
    1.1682   -2.2653    0.1386 C   0  0  0  0  0  0  0  0  0  0  0  0
    1.9700   -0.9937    0.0438 C   0  0  0  0  0  0  0  0  0  0  0  0
    2.1746    1.3881   -0.3547 C   0  0  0  0  0  0  0  0  0  0  0  0
    3.3678   -1.0703    0.1568 C   0  0  0  0  0  0  0  0  0  0  0  0
    3.5607    1.3003   -0.2303 C   0  0  0  0  0  0  0  0  0  0  0  0
    4.1574    0.0709    0.0263 C   0  0  0  0  0  0  0  0  0  0  0  0
    6.2575    1.1863   -0.0094 C   0  0  0  0  0  0  0  0  0  0  0  0
  1  7  1  0
  2 20  1  0
  2 21  1  0
  3  4  1  0
  3  7  1  0
  3  8  1  0
  3 13  1  0
  4  5  1  0
  4  9  1  0
  5  6  1  0
  5 12  1  0
  6 10  1  0
  6 14  1  0
  7 11  1  0
  8 10  1  0
  9 11  1  0
 12 15  1  0
 14 16  2  0
 14 17  1  0
 15 16  1  0
 16 18  1  0
 17 19  2  0
 18 20  2  0
 19 20  1  0
M  END
>  <PUBCHEM_COMPOUND_CID>  (1) 
13948

>  <PUBCHEM_CONFORMER_RMSD>  (1) 
0.6

>  <PUBCHEM_CONFORMER_DIVERSEORDER>  (1) 
1
8
12
28
39
14
34
17
19
4
16
21
6
32
11
31
29
30
27
3
35
10
5
13
24
37
7
9
25
38
20
18
23
15
36
26
33
2
22

>  <PUBCHEM_MMFF94_PARTIAL_CHARGES>  (1) 
16
1 -0.68
14 -0.14
15 0.14
16 -0.14
17 -0.15
18 -0.15
19 -0.15
2 -0.36
20 0.08
21 0.28
41 0.4
42 0.15
43 0.15
44 0.15
6 0.14
7 0.28

>  <PUBCHEM_EFFECTIVE_ROTOR_COUNT>  (1) 
2.4

>  <PUBCHEM_PHARMACOPHORE_FEATURES>  (1) 
7
1 1 acceptor
1 1 donor
1 2 acceptor
5 3 4 7 9 11 rings
6 14 16 17 18 19 20 rings
6 3 4 5 6 8 10 rings
6 5 6 12 14 15 16 rings

>  <PUBCHEM_HEAVY_ATOM_COUNT>  (1) 
21

>  <PUBCHEM_ATOM_DEF_STEREO_COUNT>  (1) 
1

>  <PUBCHEM_ATOM_UDEF_STEREO_COUNT>  (1) 
4

>  <PUBCHEM_BOND_DEF_STEREO_COUNT>  (1) 
0

>  <PUBCHEM_BOND_UDEF_STEREO_COUNT>  (1) 
0

>  <PUBCHEM_ISOTOPIC_ATOM_COUNT>  (1) 
0

>  <PUBCHEM_COMPONENT_COUNT>  (1) 
1

>  <PUBCHEM_CACTVS_TAUTO_COUNT>  (1) 
1

>  <PUBCHEM_CONFORMER_ID>  (1) 
0000367C00000001

>  <PUBCHEM_MMFF94_ENERGY>  (1) 
77.8909

>  <PUBCHEM_FEATURE_SELFOVERLAP>  (1) 
35.748

>  <PUBCHEM_SHAPE_FINGERPRINT>  (1) 
10 15 17968373567968661272
10366900 7 17775562057347952058
10906281 52 18342189894576243292
11089746 13 17989200473966073784
11315181 36 16487257698987605704
12236239 1 18131631170892703302
12507557 5 18114184167833775500
13140716 1 18192153904829743432
13224815 77 18341896285572992811
13583140 156 17168137974852546106
15183329 4 18059866039450002110
15196674 1 18410576197408080050
15375358 24 17967812721783914475
16945 1 18412831261191194975
16988056 13 14317145749189922401
17349148 13 18341323453221693682
1813 80 17554339007500791422
18186145 218 18408884044496250798
19489759 90 15339122338041228310
19784866 240 8358250450098519953
19862831 5 18202841067267146325
200 152 18272645749137115653
20300324 65 17418372514729637711
204376 136 18334296482924866718
20645477 56 16950278495137103053
20645477 70 18337387141254126326
21033648 29 17968923271404269284
21033650 10 16700645388162804184
21267235 1 18343028804108919150
22094290 60 14908184148802858523
231179 274 17967808332337933110
23198884 109 16056889030812436594
23402539 116 18060135453330357140
23402655 69 18272649043561492236
23493267 7 17458334247809162409
23557571 272 14908184152886764515
23559900 14 18129657638517427808
26918003 58 18114185245633105848
296302 2 18260265226897064647
335352 9 18409448103379273254
34797466 226 15626220281725541704
34934 24 18131351861006940025
350125 39 18118972631003665819
3545911 37 18410012147663274254
4340502 62 18041574550930077507
474 4 18409730668338718806
5104073 3 18189328130208616802
542803 24 18060136544114783292
633830 44 18341903960679538127

>  <PUBCHEM_SHAPE_MULTIPOLES>  (1) 
420.43
10.88
1.76
1.22
8.84
0.56
0.05
-4.14
0.16
0.54
-0.21
-1.75
0.02
-0.2

>  <PUBCHEM_SHAPE_SELFOVERLAP>  (1) 
910.674

>  <PUBCHEM_SHAPE_VOLUME>  (1) 
229.4

>  <PUBCHEM_COORDINATE_TYPE>  (1) 
2
5
10

$$$$
