13954
     RDKit          3D

 22 24  0  0  1  0  0  0  0  0999 V2000
   -2.4027    1.9880   -0.2177 O   0  0  0  0  0  0  0  0  0  0  0  0
    0.2030   -1.6857    0.8731 O   0  0  0  0  0  0  0  0  0  0  0  0
    1.9900    2.3276   -0.7547 O   0  0  0  0  0  0  0  0  0  0  0  0
   -1.1143    0.0711    0.1336 N   0  0  0  0  0  0  0  0  0  0  0  0
    1.2671    0.2659    0.1142 N   0  0  0  0  0  0  0  0  0  0  0  0
   -2.2882   -0.7956    0.0501 C   0  0  0  0  0  0  0  0  0  0  0  0
   -3.2444   -0.4903    1.2085 C   0  0  0  0  0  0  0  0  0  0  0  0
   -2.9812   -0.6051   -1.3035 C   0  0  0  0  0  0  0  0  0  0  0  0
   -4.5206   -1.3245    1.1113 C   0  0  0  0  0  0  0  0  0  0  0  0
   -4.2574   -1.4398   -1.3975 C   0  0  0  0  0  0  0  0  0  0  0  0
   -5.2076   -1.1472   -0.2397 C   0  0  0  0  0  0  0  0  0  0  0  0
   -1.3264    1.4555    0.0481 C   0  0  0  0  0  0  0  0  0  0  0  0
   -0.0994    2.2507    0.4283 C   0  0  0  0  0  0  0  0  0  0  0  0
    0.1344   -0.5476    0.3977 C   0  0  0  0  0  0  0  0  0  0  0  0
    1.1682    1.6495   -0.1393 C   0  0  0  0  0  0  0  0  0  0  0  0
   -0.2473    3.7216    0.0457 C   0  0  0  0  0  0  0  0  0  0  0  0
    2.5717   -0.3548    0.0250 C   0  0  0  0  0  0  0  0  0  0  0  0
    3.7078    0.3891    0.3204 C   0  0  0  0  0  0  0  0  0  0  0  0
    2.6740   -1.6878   -0.3542 C   0  0  0  0  0  0  0  0  0  0  0  0
    4.9651   -0.2089    0.2349 C   0  0  0  0  0  0  0  0  0  0  0  0
    3.9314   -2.2857   -0.4395 C   0  0  0  0  0  0  0  0  0  0  0  0
    5.0769   -1.5462   -0.1449 C   0  0  0  0  0  0  0  0  0  0  0  0
  1 12  2  0
  2 14  2  0
  3 15  2  0
  4  6  1  0
  4 12  1  0
  4 14  1  0
  5 14  1  0
  5 15  1  0
  5 17  1  0
  6  7  1  0
  6  8  1  0
  7  9  1  0
  8 10  1  0
  9 11  1  0
 10 11  1  0
 12 13  1  0
 13 15  1  0
 13 16  1  0
 17 18  2  0
 17 19  1  0
 18 20  1  0
 19 21  2  0
 20 22  2  0
 21 22  1  0
M  END
>  <PUBCHEM_COMPOUND_CID>  (1) 
13954

>  <PUBCHEM_CONFORMER_RMSD>  (1) 
0.6

>  <PUBCHEM_CONFORMER_DIVERSEORDER>  (1) 
2
9
1
4
5
7
6
3
8
10

>  <PUBCHEM_MMFF94_PARTIAL_CHARGES>  (1) 
21
1 -0.57
12 0.57
13 0.12
14 0.69
15 0.57
17 0.12
18 -0.15
19 -0.15
2 -0.57
20 -0.15
21 -0.15
22 -0.15
3 -0.57
38 0.15
39 0.15
4 -0.42
40 0.15
41 0.15
42 0.15
5 -0.24
6 0.3

>  <PUBCHEM_EFFECTIVE_ROTOR_COUNT>  (1) 
3.8

>  <PUBCHEM_PHARMACOPHORE_FEATURES>  (1) 
7
1 1 acceptor
1 13 anion
1 2 acceptor
1 3 acceptor
6 17 18 19 20 21 22 rings
6 4 5 12 13 14 15 rings
6 6 7 8 9 10 11 rings

>  <PUBCHEM_HEAVY_ATOM_COUNT>  (1) 
22

>  <PUBCHEM_ATOM_DEF_STEREO_COUNT>  (1) 
0

>  <PUBCHEM_ATOM_UDEF_STEREO_COUNT>  (1) 
1

>  <PUBCHEM_BOND_DEF_STEREO_COUNT>  (1) 
0

>  <PUBCHEM_BOND_UDEF_STEREO_COUNT>  (1) 
0

>  <PUBCHEM_ISOTOPIC_ATOM_COUNT>  (1) 
0

>  <PUBCHEM_COMPONENT_COUNT>  (1) 
1

>  <PUBCHEM_CACTVS_TAUTO_COUNT>  (1) 
1

>  <PUBCHEM_CONFORMER_ID>  (1) 
0000368200000002

>  <PUBCHEM_MMFF94_ENERGY>  (1) 
66.3651

>  <PUBCHEM_FEATURE_SELFOVERLAP>  (1) 
35.522

>  <PUBCHEM_SHAPE_FINGERPRINT>  (1) 
10411042 1 18409732863056470595
10906281 52 18264221364523900112
11045515 52 18334008389377192621
11265709 11 18412546509143751548
11578080 2 17703206474110734137
12166972 35 17603589621243627198
12236239 1 17917996113841561051
12363563 72 18408892831872796011
12422481 6 17631183995603786439
12553582 1 18340778116755080230
13009979 54 17703234039421588619
13134695 92 18340485689754488389
13140716 1 18050004690799625498
13544653 18 18411138030500913590
13583140 156 14835836214685863138
138480 1 14879471072421529200
13862211 1 18409443696020757938
14840074 17 18060139877252037726
15042514 8 18267872670519519809
15196674 1 18410294671081386592
15352361 1 18411136935110387607
15848700 24 18410853278622457050
15848702 151 18343306976577759811
16945 1 18122907791904654529
17349148 13 18113903728265982178
17357779 13 18334847320911946269
17492 89 18195526991777514126
1813 80 18200890529444646909
18186145 218 17530958129401375211
18222031 100 18341322366326111499
19141452 34 18060139817207066343
193927 3 18334585637107767898
19784866 140 18259981552807726763
200 152 18411978065927158591
20645477 70 18261670505778522691
21029758 11 18409727378388586393
21033650 10 14057841526995237670
21041028 32 18411429409952258001
21267235 1 18411145723146426534
21478907 32 18339078172851696760
21641784 216 18114762459785198436
221357 26 18334846234918138855
221490 88 18335142037383638953
22182313 1 18265028362608296373
23175994 123 18334015021159728775
23402539 116 18412260606055888546
23557571 272 18201725007394096806
23559900 14 18263362663122482672
25147074 1 18339943565818176616
2748010 2 18337377297115204729
283562 15 18336546006489865802
2871803 45 18334573521279507946
314194 84 18341614870821094619
335352 9 18410013205027212509
3421961 26 18340769363601291897
34934 24 18192430775643957721
46194498 28 17750226075138278447
463206 1 18341327915461112758
5104073 3 18270113492976649730
70251023 43 18267851943545088375
7164475 11 18337958896233233516
7970288 3 18411697686099504639
8863177 126 17752219528849733699
9709674 26 18339368453229315126
9971528 1 18342170111234042040

>  <PUBCHEM_SHAPE_MULTIPOLES>  (1) 
425.18
10.09
3.02
1
0.59
2.82
-0.05
-7.78
-0.44
0.61
-0.28
-1.03
-0.3
0

>  <PUBCHEM_SHAPE_SELFOVERLAP>  (1) 
910.105

>  <PUBCHEM_SHAPE_VOLUME>  (1) 
230.3

>  <PUBCHEM_COORDINATE_TYPE>  (1) 
2
5
10

$$$$
