13972
     RDKit          3D

 24 26  0  0  1  0  0  0  0  0999 V2000
    2.4060    1.5593    0.9896 O   0  0  0  0  0  0  0  0  0  0  0  0
   -0.1754   -1.6583   -1.1162 O   0  0  0  0  0  0  0  0  0  0  0  0
   -2.0391    1.6881    1.5865 O   0  0  0  0  0  0  0  0  0  0  0  0
    1.1244   -0.1861    0.1098 N   0  0  0  0  0  0  0  0  0  0  0  0
   -1.2604   -0.0237    0.1722 N   0  0  0  0  0  0  0  0  0  0  0  0
    2.2938   -1.0060   -0.0967 C   0  0  0  0  0  0  0  0  0  0  0  0
    3.2306   -0.3648   -1.1239 C   0  0  0  0  0  0  0  0  0  0  0  0
    3.0124   -1.2595    1.2306 C   0  0  0  0  0  0  0  0  0  0  0  0
    4.5007   -1.1891   -1.3177 C   0  0  0  0  0  0  0  0  0  0  0  0
    4.2838   -2.0812    1.0342 C   0  0  0  0  0  0  0  0  0  0  0  0
    5.2143   -1.4423    0.0071 C   0  0  0  0  0  0  0  0  0  0  0  0
    0.0954    1.9668    0.5844 C   0  0  0  0  0  0  0  0  0  0  0  0
    1.3250    1.1021    0.6183 C   0  0  0  0  0  0  0  0  0  0  0  0
    0.0073    2.6935   -0.7546 C   0  0  0  0  0  0  0  0  0  0  0  0
   -0.1185   -0.7095   -0.3266 C   0  0  0  0  0  0  0  0  0  0  0  0
   -1.1819    1.2108    0.8416 C   0  0  0  0  0  0  0  0  0  0  0  0
   -1.1769    3.6575   -0.7653 C   0  0  0  0  0  0  0  0  0  0  0  0
    1.3081    3.4375   -1.0483 C   0  0  0  0  0  0  0  0  0  0  0  0
   -2.5621   -0.6409    0.0304 C   0  0  0  0  0  0  0  0  0  0  0  0
   -3.6963    0.1577   -0.0515 C   0  0  0  0  0  0  0  0  0  0  0  0
   -2.6630   -2.0259   -0.0210 C   0  0  0  0  0  0  0  0  0  0  0  0
   -4.9504   -0.4376   -0.1869 C   0  0  0  0  0  0  0  0  0  0  0  0
   -3.9171   -2.6213   -0.1564 C   0  0  0  0  0  0  0  0  0  0  0  0
   -5.0609   -1.8270   -0.2395 C   0  0  0  0  0  0  0  0  0  0  0  0
  1 13  2  0
  2 15  2  0
  3 16  2  0
  4  6  1  0
  4 13  1  0
  4 15  1  0
  5 15  1  0
  5 16  1  0
  5 19  1  0
  6  7  1  0
  6  8  1  0
  7  9  1  0
  8 10  1  0
  9 11  1  0
 10 11  1  0
 12 13  1  0
 12 14  1  0
 12 16  1  0
 14 17  1  0
 14 18  1  0
 19 20  2  0
 19 21  1  0
 20 22  1  0
 21 23  2  0
 22 24  2  0
 23 24  1  0
M  END
>  <PUBCHEM_COMPOUND_CID>  (1) 
13972

>  <PUBCHEM_CONFORMER_RMSD>  (1) 
0.8

>  <PUBCHEM_CONFORMER_DIVERSEORDER>  (1) 
1
3
7
6
8
2
4
5

>  <PUBCHEM_MMFF94_PARTIAL_CHARGES>  (1) 
21
1 -0.57
12 0.12
13 0.57
15 0.69
16 0.57
19 0.12
2 -0.57
20 -0.15
21 -0.15
22 -0.15
23 -0.15
24 -0.15
3 -0.57
4 -0.42
44 0.15
45 0.15
46 0.15
47 0.15
48 0.15
5 -0.24
6 0.3

>  <PUBCHEM_EFFECTIVE_ROTOR_COUNT>  (1) 
4.8

>  <PUBCHEM_PHARMACOPHORE_FEATURES>  (1) 
8
1 1 acceptor
1 12 anion
1 2 acceptor
1 3 acceptor
3 14 17 18 hydrophobe
6 19 20 21 22 23 24 rings
6 4 5 12 13 15 16 rings
6 6 7 8 9 10 11 rings

>  <PUBCHEM_HEAVY_ATOM_COUNT>  (1) 
24

>  <PUBCHEM_ATOM_DEF_STEREO_COUNT>  (1) 
0

>  <PUBCHEM_ATOM_UDEF_STEREO_COUNT>  (1) 
1

>  <PUBCHEM_BOND_DEF_STEREO_COUNT>  (1) 
0

>  <PUBCHEM_BOND_UDEF_STEREO_COUNT>  (1) 
0

>  <PUBCHEM_ISOTOPIC_ATOM_COUNT>  (1) 
0

>  <PUBCHEM_COMPONENT_COUNT>  (1) 
1

>  <PUBCHEM_CACTVS_TAUTO_COUNT>  (1) 
1

>  <PUBCHEM_CONFORMER_ID>  (1) 
0000369400000001

>  <PUBCHEM_MMFF94_ENERGY>  (1) 
72.9227

>  <PUBCHEM_FEATURE_SELFOVERLAP>  (1) 
40.597

>  <PUBCHEM_SHAPE_FINGERPRINT>  (1) 
10369192 42 17416386862389228784
11045515 52 18040152890057194725
11135609 187 17902520612219523692
11265709 11 18409450280173415475
11578080 2 17969481785136509060
11963148 33 17403732745478274895
12035759 4 18194140709061295716
12236239 1 18187930539197844174
12293681 160 17264712676852151185
12553582 1 18335145271335978523
12788726 201 18115867399787061634
13004483 165 18336251362895784826
13009979 54 18201173117092440825
13140716 1 18343301461686589513
133893 2 18120964911687207409
13583140 156 17840837735202179002
138480 1 14807124306809503149
15042514 8 18194115205813938882
16752209 62 18191577562925823498
16945 1 17985555437689387088
17349148 13 17988646328590198615
17357779 13 18200298944918129813
17492 54 18118990172282969748
17492 89 18121778598111778451
1813 80 18411421721612261878
18222031 100 18272647969751603175
200 152 17531250517753140298
20028762 73 17702941564965841687
20600515 1 18201170892162003679
20691752 17 18114188540358546112
21029758 27 18411140237998215119
21033648 29 16414620571669156354
21267235 1 18342464759398188931
221490 88 18118691156332975427
22182313 1 18266717182503931700
23366157 5 18044092594959423829
23402539 116 18341327804013242567
23419403 2 15188179234096128638
23557571 272 18058458590844915166
23559900 14 18339071709422061467
23598288 3 17753059297465097080
25147074 1 18270983309221029489
3004659 81 18186237316781414934
335352 9 18413107243695635311
4280585 95 18335415777324592666
4409770 3 17827908538751991885
5104073 3 18129666426010070403
7164475 11 18189616034635727118
7471813 234 18113903741245622148
81228 2 18196950880587852195
8863177 126 17970923386736120883
9709674 26 18047470312345676243

>  <PUBCHEM_SHAPE_MULTIPOLES>  (1) 
466.34
9.38
3.72
1.17
0.3
3.43
-0.06
-9.12
0.7
0.6
0.69
-0.8
0.18
-0.59

>  <PUBCHEM_SHAPE_SELFOVERLAP>  (1) 
994.252

>  <PUBCHEM_SHAPE_VOLUME>  (1) 
255.1

>  <PUBCHEM_COORDINATE_TYPE>  (1) 
2
5
10

$$$$
