13980
     RDKit          3D

 26 28  0  0  1  0  0  0  0  0999 V2000
    2.1802    1.8023   -1.4166 O   0  0  0  0  0  0  0  0  0  0  0  0
    0.8423   -1.6049    1.4201 O   0  0  0  0  0  0  0  0  0  0  0  0
   -1.7953   -0.1391   -2.1673 O   0  0  0  0  0  0  0  0  0  0  0  0
    1.6002   -0.0597   -0.1283 N   0  0  0  0  0  0  0  0  0  0  0  0
   -0.6094   -0.9557   -0.3063 N   0  0  0  0  0  0  0  0  0  0  0  0
    2.9577   -0.2227    0.3332 C   0  0  0  0  0  0  0  0  0  0  0  0
    3.9074   -0.4491   -0.8460 C   0  0  0  0  0  0  0  0  0  0  0  0
    3.3879    0.9837    1.1713 C   0  0  0  0  0  0  0  0  0  0  0  0
    5.3574   -0.5702   -0.3846 C   0  0  0  0  0  0  0  0  0  0  0  0
    4.8391    0.8620    1.6290 C   0  0  0  0  0  0  0  0  0  0  0  0
    5.7836    0.6325    0.4524 C   0  0  0  0  0  0  0  0  0  0  0  0
   -0.1297    1.2606   -1.2163 C   0  0  0  0  0  0  0  0  0  0  0  0
    1.3348    1.0276   -0.9684 C   0  0  0  0  0  0  0  0  0  0  0  0
   -0.7007    2.1764   -0.1374 C   0  0  0  0  0  0  0  0  0  0  0  0
    0.6258   -0.9437    0.3990 C   0  0  0  0  0  0  0  0  0  0  0  0
   -0.9388   -0.0080   -1.2916 C   0  0  0  0  0  0  0  0  0  0  0  0
   -2.1643    2.5211   -0.4124 C   0  0  0  0  0  0  0  0  0  0  0  0
   -2.7424    3.4116    0.6887 C   0  0  0  0  0  0  0  0  0  0  0  0
   -1.5564   -2.0174   -0.0376 C   0  0  0  0  0  0  0  0  0  0  0  0
   -4.1958    3.7840    0.3970 C   0  0  0  0  0  0  0  0  0  0  0  0
   -2.9150   -1.7881   -0.2180 C   0  0  0  0  0  0  0  0  0  0  0  0
   -1.0960   -3.2544    0.3967 C   0  0  0  0  0  0  0  0  0  0  0  0
   -4.7637    4.6964    1.4723 C   0  0  0  0  0  0  0  0  0  0  0  0
   -3.8272   -2.8114    0.0400 C   0  0  0  0  0  0  0  0  0  0  0  0
   -2.0081   -4.2778    0.6546 C   0  0  0  0  0  0  0  0  0  0  0  0
   -3.3737   -4.0561    0.4762 C   0  0  0  0  0  0  0  0  0  0  0  0
  1 13  2  0
  2 15  2  0
  3 16  2  0
  4  6  1  0
  4 13  1  0
  4 15  1  0
  5 15  1  0
  5 16  1  0
  5 19  1  0
  6  7  1  0
  6  8  1  0
  7  9  1  0
  8 10  1  0
  9 11  1  0
 10 11  1  0
 12 13  1  0
 12 14  1  0
 12 16  1  0
 14 17  1  0
 17 18  1  0
 18 20  1  0
 19 21  2  0
 19 22  1  0
 20 23  1  0
 21 24  1  0
 22 25  2  0
 24 26  2  0
 25 26  1  0
M  END
>  <PUBCHEM_COMPOUND_CID>  (1) 
13980

>  <PUBCHEM_CONFORMER_RMSD>  (1) 
0.8

>  <PUBCHEM_CONFORMER_DIVERSEORDER>  (1) 
1
56
17
47
55
11
13
33
50
8
2
24
49
57
5
40
52
42
54
14
58
9
19
34
16
21
53
12
46
27
29
7
4
32
51
15
30
44
31
41
28
45
37
23
3
25
20
39
43
26
10
18
22
48
35
38
6
36

>  <PUBCHEM_MMFF94_PARTIAL_CHARGES>  (1) 
21
1 -0.57
12 0.12
13 0.57
15 0.69
16 0.57
19 0.12
2 -0.57
21 -0.15
22 -0.15
24 -0.15
25 -0.15
26 -0.15
3 -0.57
4 -0.42
47 0.15
48 0.15
5 -0.24
52 0.15
53 0.15
54 0.15
6 0.3

>  <PUBCHEM_EFFECTIVE_ROTOR_COUNT>  (1) 
7.8

>  <PUBCHEM_PHARMACOPHORE_FEATURES>  (1) 
9
1 1 acceptor
1 12 anion
1 2 acceptor
1 23 hydrophobe
1 3 acceptor
4 14 17 18 20 hydrophobe
6 19 21 22 24 25 26 rings
6 4 5 12 13 15 16 rings
6 6 7 8 9 10 11 rings

>  <PUBCHEM_HEAVY_ATOM_COUNT>  (1) 
26

>  <PUBCHEM_ATOM_DEF_STEREO_COUNT>  (1) 
0

>  <PUBCHEM_ATOM_UDEF_STEREO_COUNT>  (1) 
1

>  <PUBCHEM_BOND_DEF_STEREO_COUNT>  (1) 
0

>  <PUBCHEM_BOND_UDEF_STEREO_COUNT>  (1) 
0

>  <PUBCHEM_ISOTOPIC_ATOM_COUNT>  (1) 
0

>  <PUBCHEM_COMPONENT_COUNT>  (1) 
1

>  <PUBCHEM_CACTVS_TAUTO_COUNT>  (1) 
1

>  <PUBCHEM_CONFORMER_ID>  (1) 
0000369C00000001

>  <PUBCHEM_MMFF94_ENERGY>  (1) 
66.3244

>  <PUBCHEM_FEATURE_SELFOVERLAP>  (1) 
45.671

>  <PUBCHEM_SHAPE_FINGERPRINT>  (1) 
1100329 8 18335983164180074133
11115154 58 17769056316256372791
11646440 116 18264772228645332283
12160290 23 18122588795839990572
12293681 4 18340483473988882455
12549972 3 17917414407797425442
12788726 201 18191599750584417244
13009979 54 18044665432054251899
13134695 92 17762901365542948087
13140716 1 18120089743428409483
13540713 5 18041292062251894988
13955234 65 17474678252439578681
14178342 30 18335410271440412738
14705955 166 18051947476501822248
14790565 3 18048879597977518549
14863182 85 17757577169332388277
14866123 147 18337393738302741939
15131766 46 15838724101148997344
15420108 30 18191023396338641873
15475509 84 18193283103461691833
15927050 60 18196093231469883295
19591789 44 17831583076352095191
20642791 13 18409166640928936990
21033648 29 18270398278830495704
21041028 32 18193835074940374509
21049683 118 18125697025191876841
21267235 1 17679298821909496315
21304303 172 18339926029983015679
22224240 67 18197220248527411969
23557571 272 18337101393254162030
23558518 356 18261962963203400268
23559900 14 17826784043167462670
23845131 108 18193275183594726089
283562 15 18261667190206539674
335352 9 17969773275877025863
3380486 145 17552894627209618148
345986 75 17970888171575905347
4058900 60 17838908031354013537
4403749 210 18335143047065866465
508180 173 18048568686371556759
5104073 3 17756149247589269283
563151 248 18043244648551670882
563151 40 18188787032901526282
57527585 21 17913184715272692580
59521099 67 17767120179523070995
59755656 520 18265332803096463588
6442390 28 18194406593385492033
79837 15 18338802204424330705
9658208 31 18269286664005438724
9777508 108 18412260614619553753

>  <PUBCHEM_SHAPE_MULTIPOLES>  (1) 
507.5
9.83
5.9
1.39
10.53
0.06
-0.17
5.05
3.15
-13.77
2.45
0.28
0.55
-0.76

>  <PUBCHEM_SHAPE_SELFOVERLAP>  (1) 
1064.856

>  <PUBCHEM_SHAPE_VOLUME>  (1) 
281.8

>  <PUBCHEM_COORDINATE_TYPE>  (1) 
2
5
10

$$$$
