13992
     RDKit          3D

 30 32  0  0  0  0  0  0  0  0999 V2000
   -7.0663   -1.5501   -0.1689 Cl  0  0  0  0  0  0  0  0  0  0  0  0
   -1.0704   -2.7669    0.2499 S   0  0  0  0  0  0  0  0  0  0  0  0
    6.3145   -0.1058   -0.3638 S   0  0  0  0  0  0  0  0  0  0  0  0
   -0.0017    2.2160    0.5379 O   0  0  0  0  0  0  0  0  0  0  0  0
    2.4366    3.0781    0.3339 O   0  0  0  0  0  0  0  0  0  0  0  0
   -1.9178   -2.6349   -1.1406 O   0  0  0  0  0  0  0  0  0  0  0  0
    6.9094   -0.3115    1.1451 O   0  0  0  0  0  0  0  0  0  0  0  0
   -0.2852   -3.9874    0.1575 O   0  0  0  0  0  0  0  0  0  0  0  0
   -1.9824   -2.5495    1.3602 O   0  0  0  0  0  0  0  0  0  0  0  0
    6.4515   -1.3815   -1.0515 O   0  0  0  0  0  0  0  0  0  0  0  0
    6.9019    1.1032   -0.9197 O   0  0  0  0  0  0  0  0  0  0  0  0
   -3.2818    2.9412   -0.2218 O   0  0  0  0  0  0  0  0  0  0  0  0
   -1.7785    0.1520    0.5691 N   0  0  0  0  0  0  0  0  0  0  0  0
   -2.3230    0.3255   -0.5448 N   0  0  0  0  0  0  0  0  0  0  0  0
    2.3295   -0.6130    0.0436 C   0  0  0  0  0  0  0  0  0  0  0  0
    1.8710    0.7162    0.2043 C   0  0  0  0  0  0  0  0  0  0  0  0
    0.0402   -1.4134    0.2360 C   0  0  0  0  0  0  0  0  0  0  0  0
    1.4011   -1.6666    0.0618 C   0  0  0  0  0  0  0  0  0  0  0  0
    0.4977    0.9527    0.3785 C   0  0  0  0  0  0  0  0  0  0  0  0
    3.7028   -0.8495   -0.1306 C   0  0  0  0  0  0  0  0  0  0  0  0
   -0.4106   -0.1062    0.3941 C   0  0  0  0  0  0  0  0  0  0  0  0
    4.6111    0.2094   -0.1460 C   0  0  0  0  0  0  0  0  0  0  0  0
    2.7994    1.7698    0.1861 C   0  0  0  0  0  0  0  0  0  0  0  0
    4.1602    1.5165    0.0121 C   0  0  0  0  0  0  0  0  0  0  0  0
   -3.6934    0.5838   -0.3701 C   0  0  0  0  0  0  0  0  0  0  0  0
   -4.1487    1.8898   -0.2112 C   0  0  0  0  0  0  0  0  0  0  0  0
   -4.5900   -0.4812   -0.3567 C   0  0  0  0  0  0  0  0  0  0  0  0
   -5.5111    2.1328   -0.0378 C   0  0  0  0  0  0  0  0  0  0  0  0
   -5.9527   -0.2382   -0.1831 C   0  0  0  0  0  0  0  0  0  0  0  0
   -6.4131    1.0689   -0.0235 C   0  0  0  0  0  0  0  0  0  0  0  0
  1 29  1  0
  2  6  1  0
  2  8  2  0
  2  9  2  0
  2 17  1  0
  3  7  1  0
  3 10  2  0
  3 11  2  0
  3 22  1  0
  4 19  1  0
  5 23  1  0
 12 26  1  0
 13 14  2  0
 13 21  1  0
 14 25  1  0
 15 16  2  0
 15 18  1  0
 15 20  1  0
 16 19  1  0
 16 23  1  0
 17 18  2  0
 17 21  1  0
 19 21  2  0
 20 22  2  0
 22 24  1  0
 23 24  2  0
 25 26  2  0
 25 27  1  0
 26 28  1  0
 27 29  2  0
 28 30  2  0
 29 30  1  0
M  END
>  <PUBCHEM_COMPOUND_CID>  (1) 
13992

>  <PUBCHEM_CONFORMER_RMSD>  (1) 
0.8

>  <PUBCHEM_CONFORMER_DIVERSEORDER>  (1) 
1
12
10
11
8
6
5
7
2
9
3
4

>  <PUBCHEM_MMFF94_PARTIAL_CHARGES>  (1) 
39
1 -0.18
10 -0.65
11 -0.65
12 -0.53
13 -0.18
14 -0.18
17 -0.01
18 -0.15
19 0.08
2 1.49
20 -0.15
21 0.18
22 -0.01
23 0.08
24 -0.15
25 0.18
26 0.08
27 -0.15
28 -0.15
29 0.18
3 1.49
30 -0.15
31 0.15
32 0.15
33 0.15
34 0.45
35 0.45
36 0.5
37 0.5
38 0.15
39 0.15
4 -0.53
40 0.15
41 0.45
5 -0.53
6 -0.68
7 -0.68
8 -0.65
9 -0.65

>  <PUBCHEM_EFFECTIVE_ROTOR_COUNT>  (1) 
4

>  <PUBCHEM_PHARMACOPHORE_FEATURES>  (1) 
14
1 10 acceptor
1 11 acceptor
1 12 donor
1 4 donor
1 5 donor
1 6 acceptor
1 7 acceptor
1 8 acceptor
1 9 acceptor
4 2 6 8 9 anion
4 3 7 10 11 anion
6 15 16 17 18 19 21 rings
6 15 16 20 22 23 24 rings
6 25 26 27 28 29 30 rings

>  <PUBCHEM_HEAVY_ATOM_COUNT>  (1) 
30

>  <PUBCHEM_ATOM_DEF_STEREO_COUNT>  (1) 
0

>  <PUBCHEM_ATOM_UDEF_STEREO_COUNT>  (1) 
0

>  <PUBCHEM_BOND_DEF_STEREO_COUNT>  (1) 
0

>  <PUBCHEM_BOND_UDEF_STEREO_COUNT>  (1) 
0

>  <PUBCHEM_ISOTOPIC_ATOM_COUNT>  (1) 
0

>  <PUBCHEM_COMPONENT_COUNT>  (1) 
1

>  <PUBCHEM_CACTVS_TAUTO_COUNT>  (1) 
68

>  <PUBCHEM_CONFORMER_ID>  (1) 
000036A800000001

>  <PUBCHEM_MMFF94_ENERGY>  (1) 
70.3969

>  <PUBCHEM_FEATURE_SELFOVERLAP>  (1) 
71.199

>  <PUBCHEM_SHAPE_FINGERPRINT>  (1) 
10050765 1 18122342643318075496
10411042 1 17401766320450219963
10906281 52 18199767894092997272
11488393 25 17772485503760956071
11578080 2 16700030881078888746
12166972 35 18335142011514407556
12788726 201 18130225935145898880
13402501 40 18410856551155629469
14790565 3 18411420605411745281
15131766 46 15504087681622349574
15183329 4 18411136922235807816
15849732 13 17894633668618940342
15927050 60 18409446985845075907
16628084 112 17973442110182357998
17980427 23 13190616093400361911
18608769 82 18410295856740702499
18681886 176 18410005559357905569
19319366 153 17530959155962370066
19611394 137 17896615066810239995
21267235 1 18412830200782490309
21279426 13 18267868281247079238
21307412 95 18058190370654868750
23559900 14 18271522113321902320
23569917 315 18411987935805261654
23569943 247 17628373571170200646
23576562 1 18043825379659420900
3004659 81 18333735698499742788
3178227 256 18336558148399523457
335352 9 18410575098323428148
3383291 50 18411978091623700915
350125 39 18409446986139305589
4073 2 18113905991143944451
4258327 124 17387151929783841468
484989 97 18339086002935968739
5265222 85 18339086011578455950
59755656 215 18410576154199697590
59755656 520 18186234048121307647
6138700 20 18340488867961319230
6328613 192 18260554463238706964
6669772 16 18130229259161007462

>  <PUBCHEM_SHAPE_MULTIPOLES>  (1) 
564.17
17.19
3.3
0.83
3.17
1.15
-0.01
-2.97
2.73
-1.97
-0.2
0.37
0.21
0.24

>  <PUBCHEM_SHAPE_SELFOVERLAP>  (1) 
1212.525

>  <PUBCHEM_SHAPE_VOLUME>  (1) 
312.9

>  <PUBCHEM_COORDINATE_TYPE>  (1) 
2
5
10

$$$$
