14000
     RDKit          3D

 33 35  0  0  1  0  0  0  0  0999 V2000
   -0.1597    2.3687   -0.0819 O   0  0  0  0  0  0  0  0  0  0  0  0
   -0.0539    1.7588    2.1353 O   0  0  0  0  0  0  0  0  0  0  0  0
   -4.8765    1.5478   -1.3133 O   0  0  0  0  0  0  0  0  0  0  0  0
   -3.8669   -1.7283    2.0309 O   0  0  0  0  0  0  0  0  0  0  0  0
   -5.6017   -0.7004    0.1325 O   0  0  0  0  0  0  0  0  0  0  0  0
    4.6776    0.5748    0.3218 N   0  0  0  0  0  0  0  0  0  0  0  0
    1.6692   -2.6494    0.5801 N   0  0  0  0  0  0  0  0  0  0  0  0
    5.3397   -0.5665   -0.3121 C   0  0  0  0  0  0  0  0  0  0  0  0
    4.7077    1.7386   -0.5564 C   0  0  0  0  0  0  0  0  0  0  0  0
    4.4357   -1.2127   -1.3649 C   0  0  0  0  0  0  0  0  0  0  0  0
    3.5915    2.7131   -0.1847 C   0  0  0  0  0  0  0  0  0  0  0  0
    3.1407   -1.6941   -0.7797 C   0  0  0  0  0  0  0  0  0  0  0  0
    5.3119    0.8812    1.6051 C   0  0  0  0  0  0  0  0  0  0  0  0
    2.2191    2.0524   -0.3047 C   0  0  0  0  0  0  0  0  0  0  0  0
    1.8414   -1.5104   -1.3304 C   0  0  0  0  0  0  0  0  0  0  0  0
    0.9367   -2.1192   -0.4579 C   0  0  0  0  0  0  0  0  0  0  0  0
    3.0021   -2.3975    0.3946 C   0  0  0  0  0  0  0  0  0  0  0  0
    5.2294   -0.3020    2.5546 C   0  0  0  0  0  0  0  0  0  0  0  0
    1.0956    3.0273    0.0230 C   0  0  0  0  0  0  0  0  0  0  0  0
    1.3468   -0.8830   -2.4911 C   0  0  0  0  0  0  0  0  0  0  0  0
   -0.4435   -2.1316   -0.6889 C   0  0  0  0  0  0  0  0  0  0  0  0
   -0.0313   -0.8876   -2.7351 C   0  0  0  0  0  0  0  0  0  0  0  0
   -0.9109   -1.5029   -1.8465 C   0  0  0  0  0  0  0  0  0  0  0  0
   -0.6199    1.7738    1.0532 C   0  0  0  0  0  0  0  0  0  0  0  0
   -1.9325    1.1232    0.8117 C   0  0  0  0  0  0  0  0  0  0  0  0
   -2.2940   -0.0096    1.5407 C   0  0  0  0  0  0  0  0  0  0  0  0
   -2.8031    1.6433   -0.1460 C   0  0  0  0  0  0  0  0  0  0  0  0
   -4.0352    1.0305   -0.3747 C   0  0  0  0  0  0  0  0  0  0  0  0
   -3.5260   -0.6225    1.3122 C   0  0  0  0  0  0  0  0  0  0  0  0
   -4.3966   -0.1024    0.3543 C   0  0  0  0  0  0  0  0  0  0  0  0
   -4.4308    2.7074   -2.0140 C   0  0  0  0  0  0  0  0  0  0  0  0
   -2.9201   -2.1952    2.9900 C   0  0  0  0  0  0  0  0  0  0  0  0
   -5.6426   -1.7254   -0.8577 C   0  0  0  0  0  0  0  0  0  0  0  0
  1 19  1  0
  1 24  1  0
  2 24  2  0
  3 28  1  0
  3 31  1  0
  4 29  1  0
  4 32  1  0
  5 30  1  0
  5 33  1  0
  6  8  1  0
  6  9  1  0
  6 13  1  0
  7 16  1  0
  7 17  1  0
  8 10  1  0
  9 11  1  0
 10 12  1  0
 11 14  1  0
 12 15  1  0
 12 17  2  0
 13 18  1  0
 14 19  1  0
 15 16  2  0
 15 20  1  0
 16 21  1  0
 20 22  2  0
 21 23  2  0
 22 23  1  0
 24 25  1  0
 25 26  2  0
 25 27  1  0
 26 29  1  0
 27 28  2  0
 28 30  1  0
 29 30  2  0
M  END
>  <PUBCHEM_COMPOUND_CID>  (1) 
14000

>  <PUBCHEM_CONFORMER_RMSD>  (1) 
1.4

>  <PUBCHEM_CONFORMER_DIVERSEORDER>  (1) 
2
17
87
77
1
82
11
70
78
57
61
63
12
64
40
75
25
46
3
34
90
74
36
62
37
14
52
20
38
53
16
15
9
50
71
47
56
4
69
68
89
41
8
33
65
26
49
67
59
83
31
48
66
19
80
81
10
51
79
32
13
39
28
60
5
24
43
55
42
44
72
88
18
6
54
85
23
58
84
21
22
76
30
35
73
7
45
86
29
27

>  <PUBCHEM_MMFF94_PARTIAL_CHARGES>  (1) 
37
1 -0.43
10 0.18
12 -0.18
13 0.27
16 -0.15
17 -0.3
19 0.28
2 -0.57
20 -0.15
21 -0.15
22 -0.15
23 -0.15
24 0.63
25 0.09
26 -0.15
27 -0.15
28 0.08
29 0.08
3 -0.36
30 0.08
31 0.28
32 0.28
33 0.28
4 -0.36
46 0.15
5 -0.36
52 0.27
53 0.15
54 0.15
55 0.15
56 0.15
57 0.15
58 0.15
6 -0.81
7 0.03
8 0.27
9 0.27

>  <PUBCHEM_EFFECTIVE_ROTOR_COUNT>  (1) 
14

>  <PUBCHEM_PHARMACOPHORE_FEATURES>  (1) 
10
1 2 acceptor
1 3 acceptor
1 4 acceptor
1 5 acceptor
1 6 cation
1 7 cation
1 7 donor
5 7 12 15 16 17 rings
6 15 16 20 21 22 23 rings
6 25 26 27 28 29 30 rings

>  <PUBCHEM_HEAVY_ATOM_COUNT>  (1) 
33

>  <PUBCHEM_ATOM_DEF_STEREO_COUNT>  (1) 
0

>  <PUBCHEM_ATOM_UDEF_STEREO_COUNT>  (1) 
0

>  <PUBCHEM_BOND_DEF_STEREO_COUNT>  (1) 
0

>  <PUBCHEM_BOND_UDEF_STEREO_COUNT>  (1) 
0

>  <PUBCHEM_ISOTOPIC_ATOM_COUNT>  (1) 
0

>  <PUBCHEM_COMPONENT_COUNT>  (1) 
1

>  <PUBCHEM_CACTVS_TAUTO_COUNT>  (1) 
1

>  <PUBCHEM_CONFORMER_ID>  (1) 
000036B000000002

>  <PUBCHEM_MMFF94_ENERGY>  (1) 
95.7406

>  <PUBCHEM_FEATURE_SELFOVERLAP>  (1) 
50.847

>  <PUBCHEM_SHAPE_FINGERPRINT>  (1) 
10076449 9 17130166221836740326
11578080 2 17895202056022382381
12422481 6 18130239219431927954
13583140 156 18334585619980834791
14840074 17 17846223266970351809
20775438 99 17473509500979554964
23227448 37 18342460391152536158
23559900 14 18118129073905023010
3298306 158 18411978095897386865
392239 28 18339654360132039274
463206 1 18200314467240991531
469060 322 18195219278770771612
508706 21 18113341916315091077
6287921 2 16843073838895449406
6669772 16 17486192702766335192

>  <PUBCHEM_SHAPE_MULTIPOLES>  (1) 
639.82
12.33
3.49
2.51
0.77
1.01
-0.55
0.71
-1.74
-0.36
0.33
0.6
-0.92
1.99

>  <PUBCHEM_SHAPE_SELFOVERLAP>  (1) 
1346.147

>  <PUBCHEM_SHAPE_VOLUME>  (1) 
363.2

>  <PUBCHEM_COORDINATE_TYPE>  (1) 
2
5
10

$$$$
