14017
     RDKit          3D

  6  5  0  0  0  0  0  0  0  0999 V2000
    0.4527   -0.0944   -0.0270 P   0  0  0  0  0  0  0  0  0  0  0  0
    0.5038    0.2147    1.5599 O   0  0  0  0  0  0  0  0  0  0  0  0
    1.6396    0.8228   -0.6322 O   0  0  0  0  0  0  0  0  0  0  0  0
    0.5508   -1.5500   -0.3798 O   0  0  0  0  0  0  0  0  0  0  0  0
   -2.0990   -0.0717    0.0701 N   0  0  0  0  0  0  0  0  0  0  0  0
   -1.0479    0.6786   -0.5910 C   0  0  0  0  0  0  0  0  0  0  0  0
  1  2  1  0
  1  3  1  0
  1  4  2  0
  1  6  1  0
  5  6  1  0
M  END
>  <PUBCHEM_COMPOUND_CID>  (1) 
14017

>  <PUBCHEM_CONFORMER_RMSD>  (1) 
0.4

>  <PUBCHEM_CONFORMER_DIVERSEORDER>  (1) 
1

>  <PUBCHEM_MMFF94_PARTIAL_CHARGES>  (1) 
10
1 1.24
10 0.36
11 0.5
12 0.5
2 -0.77
3 -0.77
4 -0.7
5 -0.99
6 0.27
9 0.36

>  <PUBCHEM_EFFECTIVE_ROTOR_COUNT>  (1) 
1

>  <PUBCHEM_PHARMACOPHORE_FEATURES>  (1) 
6
1 2 acceptor
1 3 acceptor
1 4 acceptor
1 5 cation
1 5 donor
4 1 2 3 4 anion

>  <PUBCHEM_HEAVY_ATOM_COUNT>  (1) 
6

>  <PUBCHEM_ATOM_DEF_STEREO_COUNT>  (1) 
0

>  <PUBCHEM_ATOM_UDEF_STEREO_COUNT>  (1) 
0

>  <PUBCHEM_BOND_DEF_STEREO_COUNT>  (1) 
0

>  <PUBCHEM_BOND_UDEF_STEREO_COUNT>  (1) 
0

>  <PUBCHEM_ISOTOPIC_ATOM_COUNT>  (1) 
0

>  <PUBCHEM_COMPONENT_COUNT>  (1) 
1

>  <PUBCHEM_CACTVS_TAUTO_COUNT>  (1) 
1

>  <PUBCHEM_CONFORMER_ID>  (1) 
000036C100000001

>  <PUBCHEM_MMFF94_ENERGY>  (1) 
-26.8494

>  <PUBCHEM_FEATURE_SELFOVERLAP>  (1) 
30.482

>  <PUBCHEM_SHAPE_FINGERPRINT>  (1) 
139733 1 7851558125387353351
16714656 1 18192157215774801028
20096714 4 17968377947901308292
24536 1 18191005825559011357
29004967 10 18120661236024218754
5943 1 10782005678690280922

>  <PUBCHEM_SHAPE_MULTIPOLES>  (1) 
104.74
1.94
1.1
1.04
0.87
0.04
0.39
-0.3
-0.1
-0.28
-0.27
-0.26
0.23
0.04

>  <PUBCHEM_SHAPE_SELFOVERLAP>  (1) 
172.618

>  <PUBCHEM_SHAPE_VOLUME>  (1) 
72.6

>  <PUBCHEM_COORDINATE_TYPE>  (1) 
2
5
10

$$$$
