14027
     RDKit          3D

 18 17  0  0  0  0  0  0  0  0999 V2000
   -3.1107   -0.0001    0.0009 N   0  0  0  0  0  0  0  0  0  0  0  0
    3.1106    0.0005   -0.0008 N   0  0  0  0  0  0  0  0  0  0  0  0
   -1.8023   -0.0088    0.6985 C   0  0  0  0  0  0  0  0  0  0  0  0
    1.8018    0.0103   -0.6976 C   0  0  0  0  0  0  0  0  0  0  0  0
   -0.6863   -0.0359   -0.3353 C   0  0  0  0  0  0  0  0  0  0  0  0
    0.6864    0.0010    0.3372 C   0  0  0  0  0  0  0  0  0  0  0  0
   -4.2679    0.0272    1.0096 C   0  0  0  0  0  0  0  0  0  0  0  0
   -3.2714   -1.2513   -0.8743 C   0  0  0  0  0  0  0  0  0  0  0  0
   -3.2392    1.2335   -0.9042 C   0  0  0  0  0  0  0  0  0  0  0  0
    3.2581    1.2331    0.9027 C   0  0  0  0  0  0  0  0  0  0  0  0
    3.2534   -1.2521    0.8758 C   0  0  0  0  0  0  0  0  0  0  0  0
    4.2674    0.0093   -1.0105 C   0  0  0  0  0  0  0  0  0  0  0  0
   -4.1814    1.2936    1.8330 C   0  0  0  0  0  0  0  0  0  0  0  0
   -3.1490   -2.4851   -0.0069 C   0  0  0  0  0  0  0  0  0  0  0  0
   -4.6002    1.2268   -1.5653 C   0  0  0  0  0  0  0  0  0  0  0  0
    4.6194    1.2070    1.5627 C   0  0  0  0  0  0  0  0  0  0  0  0
    3.1121   -2.4849    0.0100 C   0  0  0  0  0  0  0  0  0  0  0  0
    4.1990    1.2758   -1.8354 C   0  0  0  0  0  0  0  0  0  0  0  0
  1  3  1  0
  1  7  1  0
  1  8  1  0
  1  9  1  0
  2  4  1  0
  2 10  1  0
  2 11  1  0
  2 12  1  0
  3  5  1  0
  4  6  1  0
  5  6  1  0
  7 13  1  0
  8 14  1  0
  9 15  1  0
 10 16  1  0
 11 17  1  0
 12 18  1  0
M  CHG  2   1   1   2   1
M  END
>  <PUBCHEM_COMPOUND_CID>  (1) 
14027

>  <PUBCHEM_CONFORMER_RMSD>  (1) 
1

>  <PUBCHEM_CONFORMER_DIVERSEORDER>  (1) 
1
3
9
2
6
8
5
4
7

>  <PUBCHEM_MMFF94_PARTIAL_CHARGES>  (1) 
10
1 -1.01
10 0.5
11 0.5
12 0.5
2 -1.01
3 0.5
4 0.5
7 0.5
8 0.5
9 0.5

>  <PUBCHEM_EFFECTIVE_ROTOR_COUNT>  (1) 
11

>  <PUBCHEM_PHARMACOPHORE_FEATURES>  (1) 
2
1 1 cation
1 2 cation

>  <PUBCHEM_HEAVY_ATOM_COUNT>  (1) 
18

>  <PUBCHEM_ATOM_DEF_STEREO_COUNT>  (1) 
0

>  <PUBCHEM_ATOM_UDEF_STEREO_COUNT>  (1) 
0

>  <PUBCHEM_BOND_DEF_STEREO_COUNT>  (1) 
0

>  <PUBCHEM_BOND_UDEF_STEREO_COUNT>  (1) 
0

>  <PUBCHEM_ISOTOPIC_ATOM_COUNT>  (1) 
0

>  <PUBCHEM_COMPONENT_COUNT>  (1) 
1

>  <PUBCHEM_CACTVS_TAUTO_COUNT>  (1) 
1

>  <PUBCHEM_CONFORMER_ID>  (1) 
000036CB00000001

>  <PUBCHEM_MMFF94_ENERGY>  (1) 
79.0779

>  <PUBCHEM_FEATURE_SELFOVERLAP>  (1) 
10.149

>  <PUBCHEM_SHAPE_FINGERPRINT>  (1) 
10014705 185 18335974329411065421
10680689 15 18260269663671972013
11089746 13 17775279452805411288
11405975 8 18202847638699218370
11552529 35 18130504257743383263
12616971 3 17821445772506757760
13224815 77 18412542128240043450
13533116 47 18270680862087797599
13583140 156 18271229612456871183
13631057 29 18124595546290061527
13675066 3 17967534545373599329
13955234 65 18040443183535070162
14289901 80 18113899368399124222
15239154 128 18410575084663429708
15788980 27 17967526865766345786
18186145 218 18273216404314529032
19050596 39 18342455928676110898
19433438 15 17676198082990559309
200 152 10375587049933748649
20281475 54 18410576184185425094
20645477 56 18333726906190114909
20645477 70 18262232205791414222
20681651 13 18342453747017548955
22646028 1 12251905897232633473
23402539 116 17531237370826338924
23402655 69 18187085027213205492
23557571 272 18339654407450285965
23559900 14 18411693262778042066
268830 7 17989204811318612145
2838139 119 17769933485981278105
300161 21 18411130338040406543
5104073 3 18413669110452791386
5281201 14 17822017462782001566
58051976 100 18340209695377392031
633830 44 17275108318610080020
90127 26 17203616998893557544

>  <PUBCHEM_SHAPE_MULTIPOLES>  (1) 
360.47
11.92
2.02
1.64
0.06
1.31
0
-2.75
0
-0.03
0
0.01
-0.84
-0.14

>  <PUBCHEM_SHAPE_SELFOVERLAP>  (1) 
666.349

>  <PUBCHEM_SHAPE_VOLUME>  (1) 
227.7

>  <PUBCHEM_COORDINATE_TYPE>  (1) 
2
5
10

$$$$
