14033
     RDKit          3D

 13 12  0  0  0  0  0  0  0  0999 V2000
    0.8971   -0.0403    0.8001 P   0  0  0  0  0  0  0  0  0  0  0  0
    0.9150   -1.6340    0.5175 O   0  0  0  0  0  0  0  0  0  0  0  0
    2.1657    0.5146   -0.0385 O   0  0  0  0  0  0  0  0  0  0  0  0
    0.9169    0.3089    2.2607 O   0  0  0  0  0  0  0  0  0  0  0  0
   -2.9838    1.3034   -1.2238 O   0  0  0  0  0  0  0  0  0  0  0  0
   -0.5342    0.5749   -0.0664 C   0  0  0  0  0  0  0  0  0  0  0  0
   -1.8419    0.0379    0.4927 C   0  0  0  0  0  0  0  0  0  0  0  0
   -3.0609    0.5523   -0.2527 C   0  0  0  0  0  0  0  0  0  0  0  0
    1.0070   -2.1378   -0.8031 C   0  0  0  0  0  0  0  0  0  0  0  0
    2.3339    1.9133   -0.1869 C   0  0  0  0  0  0  0  0  0  0  0  0
   -4.3975    0.0815    0.2590 C   0  0  0  0  0  0  0  0  0  0  0  0
    1.0018   -3.6509   -0.7551 C   0  0  0  0  0  0  0  0  0  0  0  0
    3.5811    2.1761   -1.0035 C   0  0  0  0  0  0  0  0  0  0  0  0
  1  2  1  0
  1  3  1  0
  1  4  2  0
  1  6  1  0
  2  9  1  0
  3 10  1  0
  5  8  2  0
  6  7  1  0
  7  8  1  0
  8 11  1  0
  9 12  1  0
 10 13  1  0
M  END
>  <PUBCHEM_COMPOUND_CID>  (1) 
14033

>  <PUBCHEM_CONFORMER_RMSD>  (1) 
0.8

>  <PUBCHEM_CONFORMER_DIVERSEORDER>  (1) 
1
88
48
29
23
45
22
86
57
80
77
42
47
58
87
61
44
13
63
21
74
60
73
49
81
43
25
30
76
64
84
17
52
78
83
36
66
16
50
55
62
24
59
54
72
65
33
20
70
75
82
34
89
11
19
38
18
51
53
79
27
85
5
46
8
56
10
32
7
71
26
90
12
40
4
41
2
31
9
39
68
6
67
28
69
15
37
3
35
14

>  <PUBCHEM_MMFF94_PARTIAL_CHARGES>  (1) 
10
1 1.24
10 0.28
11 0.06
2 -0.55
3 -0.55
4 -0.7
5 -0.57
7 0.06
8 0.45
9 0.28

>  <PUBCHEM_EFFECTIVE_ROTOR_COUNT>  (1) 
7

>  <PUBCHEM_PHARMACOPHORE_FEATURES>  (1) 
2
1 4 acceptor
1 5 acceptor

>  <PUBCHEM_HEAVY_ATOM_COUNT>  (1) 
13

>  <PUBCHEM_ATOM_DEF_STEREO_COUNT>  (1) 
0

>  <PUBCHEM_ATOM_UDEF_STEREO_COUNT>  (1) 
0

>  <PUBCHEM_BOND_DEF_STEREO_COUNT>  (1) 
0

>  <PUBCHEM_BOND_UDEF_STEREO_COUNT>  (1) 
0

>  <PUBCHEM_ISOTOPIC_ATOM_COUNT>  (1) 
0

>  <PUBCHEM_COMPONENT_COUNT>  (1) 
1

>  <PUBCHEM_CACTVS_TAUTO_COUNT>  (1) 
3

>  <PUBCHEM_CONFORMER_ID>  (1) 
000036D100000001

>  <PUBCHEM_MMFF94_ENERGY>  (1) 
4.3418

>  <PUBCHEM_FEATURE_SELFOVERLAP>  (1) 
10.149

>  <PUBCHEM_SHAPE_FINGERPRINT>  (1) 
1 1 18411981360314689918
107287 299 18411421721902275739
10922049 32 18188780560074327660
12138202 97 18053117386843308052
12616999 72 18412820300861624681
12932764 1 17346302783779094409
13911882 115 18120399750506305979
14004458 79 17330011594488371878
14252887 29 18042141941800509521
14648413 74 18118964694072797549
14817 1 9997845960245550890
15502708 8 17692255552993058526
15502722 9 18339651048474669302
170605 34 17967812764580788657
18186145 218 18059302083651631728
19786989 88 18408604755826581617
20231682 184 17894914078480944188
20388580 30 17844257219831283254
20645477 56 18051140486496377068
20645477 70 18337945685298686495
20671657 53 17979925903721731902
20708731 107 18271525290927573643
20711985 344 17475783725276109330
20820808 20 18342744039282237848
21499 59 18338517546528590181
21524375 3 18188207731643611920
22218785 32 18337686311923026868
22620623 9 17552939720240148710
23382010 3 17844808294448030920
23419403 2 17539463886750318090
23530152 11 18341612676034842750
23532345 88 18198047102418502759
23557571 272 17314536840553691699
298252 57 18262521532289842160
3060560 45 18410575114960290356
3248919 1 18265596720510657689
458136 41 18341625827551542755
58051976 378 18335695044814713735
68419 9 17613400722348395106
7364860 26 18338800009289496724
76951 1 17346874551031154626
81228 2 17330547060793006946
81539 233 18334858328955245989

>  <PUBCHEM_SHAPE_MULTIPOLES>  (1) 
247.91
5.96
3.11
1.28
5.05
3.84
0.54
-4.46
-1.54
-3.07
-1.38
-0.32
-0.16
0

>  <PUBCHEM_SHAPE_SELFOVERLAP>  (1) 
441.65

>  <PUBCHEM_SHAPE_VOLUME>  (1) 
160.8

>  <PUBCHEM_COORDINATE_TYPE>  (1) 
2
5
10

$$$$
