14031
     RDKit          3D

 12 11  0  0  0  0  0  0  0  0999 V2000
    0.8438   -0.6693   -0.0233 P   0  0  0  0  0  0  0  0  0  0  0  0
   -1.8268    0.4131    0.6558 P   0  0  0  0  0  0  0  0  0  0  0  0
   -0.3128   -0.0808    0.9437 O   0  0  0  0  0  0  0  0  0  0  0  0
    2.1474   -0.7944    0.9308 O   0  0  0  0  0  0  0  0  0  0  0  0
    1.1980    0.5772   -0.9965 O   0  0  0  0  0  0  0  0  0  0  0  0
   -1.4906    1.6026   -0.3937 O   0  0  0  0  0  0  0  0  0  0  0  0
   -2.2332   -0.7271   -0.4240 O   0  0  0  0  0  0  0  0  0  0  0  0
    0.4817   -1.9388   -0.7405 O   0  0  0  0  0  0  0  0  0  0  0  0
    2.6002    0.3291    1.6668 C   0  0  0  0  0  0  0  0  0  0  0  0
    2.2806    0.4404   -1.9006 C   0  0  0  0  0  0  0  0  0  0  0  0
   -1.0751    2.8367    0.1740 C   0  0  0  0  0  0  0  0  0  0  0  0
   -2.6132   -1.9888    0.1076 C   0  0  0  0  0  0  0  0  0  0  0  0
  1  3  1  0
  1  4  1  0
  1  5  1  0
  1  8  2  0
  2  3  1  0
  2  6  1  0
  2  7  1  0
  4  9  1  0
  5 10  1  0
  6 11  1  0
  7 12  1  0
M  END
>  <PUBCHEM_COMPOUND_CID>  (1) 
14031

>  <PUBCHEM_CONFORMER_RMSD>  (1) 
0.6

>  <PUBCHEM_CONFORMER_DIVERSEORDER>  (1) 
1
27
43
61
10
59
51
52
28
66
24
56
8
4
41
15
63
9
18
22
21
19
47
12
37
48
6
20
57
53
17
46
2
62
13
3
16
73
39
68
45
44
14
67
29
74
70
26
49
31
71
5
11
55
72
25
35
7
50
38
34
33
58
69
32
65
40
42
64
23
60
36
54
30

>  <PUBCHEM_MMFF94_PARTIAL_CHARGES>  (1) 
12
1 1.51
10 0.28
11 0.28
12 0.28
2 0.3
3 -0.37
4 -0.55
5 -0.55
6 -0.38
7 -0.38
8 -0.7
9 0.28

>  <PUBCHEM_EFFECTIVE_ROTOR_COUNT>  (1) 
6

>  <PUBCHEM_PHARMACOPHORE_FEATURES>  (1) 
1
1 8 acceptor

>  <PUBCHEM_HEAVY_ATOM_COUNT>  (1) 
12

>  <PUBCHEM_ATOM_DEF_STEREO_COUNT>  (1) 
0

>  <PUBCHEM_ATOM_UDEF_STEREO_COUNT>  (1) 
0

>  <PUBCHEM_BOND_DEF_STEREO_COUNT>  (1) 
0

>  <PUBCHEM_BOND_UDEF_STEREO_COUNT>  (1) 
0

>  <PUBCHEM_ISOTOPIC_ATOM_COUNT>  (1) 
0

>  <PUBCHEM_COMPONENT_COUNT>  (1) 
1

>  <PUBCHEM_CACTVS_TAUTO_COUNT>  (1) 
1

>  <PUBCHEM_CONFORMER_ID>  (1) 
000036CF00000001

>  <PUBCHEM_MMFF94_ENERGY>  (1) 
16.2489

>  <PUBCHEM_FEATURE_SELFOVERLAP>  (1) 
5.074

>  <PUBCHEM_SHAPE_FINGERPRINT>  (1) 
1 1 17187281267272649297
12897270 3 18339661017309976311
13839132 238 17981591681128191640
16945 1 18339928121415830425
20653091 64 16950577553535915112
20711978 78 15769783450344351218
20711985 344 18270978872635447581
21922407 69 17967825937176718795
228727 97 17897751939440521525
23211744 41 17488442179123441066
23419403 2 17250560742262481109
23557571 272 18343298175851991513
5084963 1 18059030435454170542
528862 383 17547288269307485043
81228 2 18341335505195332209

>  <PUBCHEM_SHAPE_MULTIPOLES>  (1) 
219.44
3.82
2.33
1.48
0.16
1.16
-0.09
-0.86
0.28
-1.71
-0.18
1.56
0.11
-0.17

>  <PUBCHEM_SHAPE_SELFOVERLAP>  (1) 
376.739

>  <PUBCHEM_SHAPE_VOLUME>  (1) 
147.7

>  <PUBCHEM_COORDINATE_TYPE>  (1) 
2
5
10

$$$$
