14043
     RDKit          2D

 16 15  0  0  1  0  0  0  0  0999 V2000
    0.0000    0.0000    0.0000 S   0  0  0  0  0  0  0  0  0  0  0  0
    0.0000    0.0000    0.0000 S   0  0  0  0  0  0  0  0  0  0  0  0
    0.0000    0.0000    0.0000 O   0  0  0  0  0  0  0  0  0  0  0  0
    0.0000    0.0000    0.0000 O   0  0  0  0  0  0  0  0  0  0  0  0
    0.0000    0.0000    0.0000 O   0  0  0  0  0  0  0  0  0  0  0  0
    0.0000    0.0000    0.0000 O   0  0  0  0  0  0  0  0  0  0  0  0
    0.0000    0.0000    0.0000 N   0  0  0  0  0  0  0  0  0  0  0  0
    0.0000    0.0000    0.0000 N   0  0  0  0  0  0  0  0  0  0  0  0
    0.0000    0.0000    0.0000 C   0  0  0  0  0  0  0  0  0  0  0  0
    0.0000    0.0000    0.0000 C   0  0  0  0  0  0  0  0  0  0  0  0
    0.0000    0.0000    0.0000 C   0  0  0  0  0  0  0  0  0  0  0  0
    0.0000    0.0000    0.0000 C   0  0  0  0  0  0  0  0  0  0  0  0
    0.0000    0.0000    0.0000 C   0  0  0  0  0  0  0  0  0  0  0  0
    0.0000    0.0000    0.0000 C   0  0  0  0  0  0  0  0  0  0  0  0
    0.0000    0.0000    0.0000 C   0  0  0  0  0  0  0  0  0  0  0  0
    0.0000    0.0000    0.0000 C   0  0  0  0  0  0  0  0  0  0  0  0
  1  2  1  0
  1 11  1  0
  2 12  1  0
  3 13  1  0
  3 15  1  0
  4 14  1  0
  4 16  1  0
  5 13  2  0
  6 14  2  0
  7  9  1  0
  8 10  1  0
  9 11  1  0
  9 13  1  0
 10 12  1  0
 10 14  1  0
M  END
>  <PUBCHEM_COMPOUND_CID>  (1) 
14043

>  <PUBCHEM_CONFORMER_RMSD>  (1) 
1

>  <PUBCHEM_CONFORMER_DIVERSEORDER>  (1) 
23
462
256
130
560
388
1028
640
54
251
737
230
302
489
608
334
845
277
324
969
59
946
647
70
688
269
708
185
381
83
484
889
202
957
239
369
805
34
263
538
413
962
496
304
283
1014
482
80
150
675
901
521
4
109
604
403
733
330
652
913
931
416
694
171
58
295
642
745
121
1020
973
66
650
552
1009
126
1013
22
651
67
927
862
163
148
194
602
726
1016
52
231
956
165
8
124
168
672
740
890
643
108
21
899
65
823
28
190
223
860
827
797
40
935
461
1017
275
498
961
662
149
705
103
441
982
200
90
431
780
350
179
157
382
757
125
460
749
781
300
815
137
525
811
941
279
470
543
967
801
783
526
262
100
142
598
582
760
68
1008
7
960
114
31
176
299
663
750
766
285
445
591
102
5
294
689
184
809
178
378
174
748
95
57
979
24
79
894
687
42
676
425
437
87
1024
164
725
122
27
490
224
117
504
599
217
261
871
112
63
920
443
568
812
15
16
167
712
626
775
321
776
111
2
154
944
384
61
91
247
795
141
237
794
420
417
660
161
611
793
170
876
119
18
943
134
550
271
47
20
354
613
522
53
704
227
159
744
866
173
584
507
505
518
39
3
250
6
566
653
853
17
104
197
528
73
554
311
1
30

>  <PUBCHEM_MMFF94_PARTIAL_CHARGES>  (1) 
20
1 -0.23
10 0.33
11 0.23
12 0.23
13 0.66
14 0.66
15 0.28
16 0.28
2 -0.23
23 0.36
24 0.36
25 0.36
26 0.36
3 -0.43
4 -0.43
5 -0.57
6 -0.57
7 -0.99
8 -0.99
9 0.33

>  <PUBCHEM_EFFECTIVE_ROTOR_COUNT>  (1) 
9

>  <PUBCHEM_PHARMACOPHORE_FEATURES>  (1) 
7
1 5 acceptor
1 6 acceptor
1 7 cation
1 7 donor
1 8 cation
1 8 donor
4 1 2 11 12 hydrophobe

>  <PUBCHEM_HEAVY_ATOM_COUNT>  (1) 
16

>  <PUBCHEM_ATOM_DEF_STEREO_COUNT>  (1) 
0

>  <PUBCHEM_ATOM_UDEF_STEREO_COUNT>  (1) 
2

>  <PUBCHEM_BOND_DEF_STEREO_COUNT>  (1) 
0

>  <PUBCHEM_BOND_UDEF_STEREO_COUNT>  (1) 
0

>  <PUBCHEM_ISOTOPIC_ATOM_COUNT>  (1) 
0

>  <PUBCHEM_COMPONENT_COUNT>  (1) 
1

>  <PUBCHEM_CACTVS_TAUTO_COUNT>  (1) 
1

$$$$
