14045
     RDKit          3D

  9  8  0  0  1  0  0  0  0  0999 V2000
   -0.6120   -0.6283   -0.4047 C   0  0  0  0  0  0  0  0  0  0  0  0
    0.7706   -0.8113    0.2690 C   0  0  0  0  0  0  0  0  0  0  0  0
   -1.3459    0.6758    0.0208 C   0  0  0  0  0  0  0  0  0  0  0  0
    1.7751    0.3458    0.0971 C   0  0  0  0  0  0  0  0  0  0  0  0
   -1.4432   -1.8982   -0.1652 C   0  0  0  0  0  0  0  0  0  0  0  0
   -1.6320    0.7067    1.5270 C   0  0  0  0  0  0  0  0  0  0  0  0
   -2.6409    0.9407   -0.7519 C   0  0  0  0  0  0  0  0  0  0  0  0
    2.0235    0.5945   -1.3939 C   0  0  0  0  0  0  0  0  0  0  0  0
    3.1048    0.0745    0.8018 C   0  0  0  0  0  0  0  0  0  0  0  0
  1  2  1  0
  1  3  1  0
  1  5  1  0
  2  4  1  0
  3  6  1  0
  3  7  1  0
  4  8  1  0
  4  9  1  0
M  END
>  <PUBCHEM_COMPOUND_CID>  (1) 
14045

>  <PUBCHEM_CONFORMER_RMSD>  (1) 
0.6

>  <PUBCHEM_CONFORMER_DIVERSEORDER>  (1) 
1
4
2
3

>  <PUBCHEM_MMFF94_PARTIAL_CHARGES>  (1) 
0

>  <PUBCHEM_EFFECTIVE_ROTOR_COUNT>  (1) 
3

>  <PUBCHEM_PHARMACOPHORE_FEATURES>  (1) 
4
1 5 hydrophobe
3 3 6 7 hydrophobe
3 4 8 9 hydrophobe
4 1 2 3 4 hydrophobe

>  <PUBCHEM_HEAVY_ATOM_COUNT>  (1) 
9

>  <PUBCHEM_ATOM_DEF_STEREO_COUNT>  (1) 
0

>  <PUBCHEM_ATOM_UDEF_STEREO_COUNT>  (1) 
1

>  <PUBCHEM_BOND_DEF_STEREO_COUNT>  (1) 
0

>  <PUBCHEM_BOND_UDEF_STEREO_COUNT>  (1) 
0

>  <PUBCHEM_ISOTOPIC_ATOM_COUNT>  (1) 
0

>  <PUBCHEM_COMPONENT_COUNT>  (1) 
1

>  <PUBCHEM_CACTVS_TAUTO_COUNT>  (1) 
1

>  <PUBCHEM_CONFORMER_ID>  (1) 
000036DD00000001

>  <PUBCHEM_MMFF94_ENERGY>  (1) 
13.0543

>  <PUBCHEM_FEATURE_SELFOVERLAP>  (1) 
20.486

>  <PUBCHEM_SHAPE_FINGERPRINT>  (1) 
12423570 1 14467320856794292047
12897270 3 15338823270725765272
12932741 1 17703516570653876868
12932764 1 18187938317061474060
14390081 3 17632856404149659304
15775835 57 18334294283869871740
19837323 101 17346048791838947755
20653085 51 18186803552041341845
21028194 46 18341894043710769183
21040471 1 18340492170564277526
23402539 116 17202743947922164052
24536 1 17703238394069754460
29004967 10 16008742494716493440
3248919 1 17846784018164099260
369184 2 18334569178782312880
5084963 1 18408610248831368298

>  <PUBCHEM_SHAPE_MULTIPOLES>  (1) 
185.22
4.1
1.39
1.26
1.76
0.65
-0.1
-1.03
-0.09
-0.86
0.11
0.06
-0.35
-0.24

>  <PUBCHEM_SHAPE_SELFOVERLAP>  (1) 
329.59

>  <PUBCHEM_SHAPE_VOLUME>  (1) 
123.9

>  <PUBCHEM_COORDINATE_TYPE>  (1) 
2
5
10

$$$$
