14057
     RDKit          3D

  8  7  0  0  0  0  0  0  0  0999 V2000
   -1.9937    1.1574   -0.1038 O   0  0  0  0  0  0  0  0  0  0  0  0
   -2.0232   -1.1128   -0.0742 O   0  0  0  0  0  0  0  0  0  0  0  0
    1.0951   -0.0096    0.0080 C   0  0  0  0  0  0  0  0  0  0  0  0
   -0.1463    0.0405    0.9256 C   0  0  0  0  0  0  0  0  0  0  0  0
    2.3951    0.0826    0.8233 C   0  0  0  0  0  0  0  0  0  0  0  0
    1.0326    1.1959   -0.9498 C   0  0  0  0  0  0  0  0  0  0  0  0
    1.1111   -1.2981   -0.8315 C   0  0  0  0  0  0  0  0  0  0  0  0
   -1.4707   -0.0558    0.2023 C   0  0  0  0  0  0  0  0  0  0  0  0
  1  8  1  0
  2  8  2  0
  3  4  1  0
  3  5  1  0
  3  6  1  0
  3  7  1  0
  4  8  1  0
M  END
>  <PUBCHEM_COMPOUND_CID>  (1) 
14057

>  <PUBCHEM_CONFORMER_RMSD>  (1) 
0.4

>  <PUBCHEM_CONFORMER_DIVERSEORDER>  (1) 
1
3
5
2
4
6

>  <PUBCHEM_MMFF94_PARTIAL_CHARGES>  (1) 
5
1 -0.65
2 -0.57
20 0.5
4 0.06
8 0.66

>  <PUBCHEM_EFFECTIVE_ROTOR_COUNT>  (1) 
2

>  <PUBCHEM_PHARMACOPHORE_FEATURES>  (1) 
4
1 1 acceptor
1 2 acceptor
3 1 2 8 anion
4 3 5 6 7 hydrophobe

>  <PUBCHEM_HEAVY_ATOM_COUNT>  (1) 
8

>  <PUBCHEM_ATOM_DEF_STEREO_COUNT>  (1) 
0

>  <PUBCHEM_ATOM_UDEF_STEREO_COUNT>  (1) 
0

>  <PUBCHEM_BOND_DEF_STEREO_COUNT>  (1) 
0

>  <PUBCHEM_BOND_UDEF_STEREO_COUNT>  (1) 
0

>  <PUBCHEM_ISOTOPIC_ATOM_COUNT>  (1) 
0

>  <PUBCHEM_COMPONENT_COUNT>  (1) 
1

>  <PUBCHEM_CACTVS_TAUTO_COUNT>  (1) 
1

>  <PUBCHEM_CONFORMER_ID>  (1) 
000036E900000001

>  <PUBCHEM_MMFF94_ENERGY>  (1) 
15.0265

>  <PUBCHEM_FEATURE_SELFOVERLAP>  (1) 
20.355

>  <PUBCHEM_SHAPE_FINGERPRINT>  (1) 
137420 1 13793934504028008996
20096714 4 17749117694197527817
21040471 1 18266745679611453361
23235687 12 18334580156840105677
23552423 10 18337118890449831031
24536 1 18336274495631579095
29004967 10 17418096533021464578
5084963 1 18271818959442908234
5943 1 14759793926532290534

>  <PUBCHEM_SHAPE_MULTIPOLES>  (1) 
152.9
2.88
1.26
1.02
0.55
0.05
0
-0.01
0.34
0.09
-0.39
-0.41
-0.04
0.04

>  <PUBCHEM_SHAPE_SELFOVERLAP>  (1) 
283.499

>  <PUBCHEM_SHAPE_VOLUME>  (1) 
97.5

>  <PUBCHEM_COORDINATE_TYPE>  (1) 
2
5
10

$$$$
