14052
     RDKit          3D

 14 13  0  0  1  0  0  0  0  0999 V2000
    5.4428    0.6296   -0.1501 O   0  0  0  0  0  0  0  0  0  0  0  0
   -5.4415    0.6286    0.1585 O   0  0  0  0  0  0  0  0  0  0  0  0
    1.7805    0.5226   -0.5436 N   0  0  0  0  0  0  0  0  0  0  0  0
   -1.7844    0.5225    0.5384 N   0  0  0  0  0  0  0  0  0  0  0  0
    3.0502    0.5160    0.1832 C   0  0  0  0  0  0  0  0  0  0  0  0
   -3.0498    0.5165   -0.1814 C   0  0  0  0  0  0  0  0  0  0  0  0
    0.6581    0.5290    0.3813 C   0  0  0  0  0  0  0  0  0  0  0  0
   -0.6586    0.5341   -0.3894 C   0  0  0  0  0  0  0  0  0  0  0  0
    3.1645   -0.7227    1.0916 C   0  0  0  0  0  0  0  0  0  0  0  0
   -3.1660   -0.7210   -1.0914 C   0  0  0  0  0  0  0  0  0  0  0  0
    4.1963    0.5669   -0.8326 C   0  0  0  0  0  0  0  0  0  0  0  0
   -4.1932    0.5653    0.8375 C   0  0  0  0  0  0  0  0  0  0  0  0
    3.1040   -2.0440    0.3348 C   0  0  0  0  0  0  0  0  0  0  0  0
   -3.1029   -2.0434   -0.3367 C   0  0  0  0  0  0  0  0  0  0  0  0
  1 11  1  0
  2 12  1  0
  3  5  1  0
  3  7  1  0
  4  6  1  0
  4  8  1  0
  5  9  1  0
  5 11  1  0
  6 10  1  0
  6 12  1  0
  7  8  1  0
  9 13  1  0
 10 14  1  0
M  END
>  <PUBCHEM_COMPOUND_CID>  (1) 
14052

>  <PUBCHEM_CONFORMER_RMSD>  (1) 
0.8

>  <PUBCHEM_CONFORMER_DIVERSEORDER>  (1) 
1
58
7
69
89
52
35
86
31
91
94
3
70
50
71
40
4
83
42
76
78
62
84
98
79
43
21
18
19
59
74
37
5
87
34
85
15
12
65
92
96
27
10
39
93
53
20
41
6
14
95
9
29
2
45
49
56
64
8
47
97
61
33
57
28
60
13
30
54
81
44
75
25
67
66
72
68
88
36
73
16
11
48
63
22
77
26
38
51
82
46
23
90
55
24
32
80
17

>  <PUBCHEM_MMFF94_PARTIAL_CHARGES>  (1) 
14
1 -0.68
11 0.28
12 0.28
2 -0.68
21 0.36
22 0.36
3 -0.9
37 0.4
38 0.4
4 -0.9
5 0.27
6 0.27
7 0.27
8 0.27

>  <PUBCHEM_EFFECTIVE_ROTOR_COUNT>  (1) 
9

>  <PUBCHEM_PHARMACOPHORE_FEATURES>  (1) 
10
1 1 acceptor
1 1 donor
1 13 hydrophobe
1 14 hydrophobe
1 2 acceptor
1 2 donor
1 3 cation
1 3 donor
1 4 cation
1 4 donor

>  <PUBCHEM_HEAVY_ATOM_COUNT>  (1) 
14

>  <PUBCHEM_ATOM_DEF_STEREO_COUNT>  (1) 
2

>  <PUBCHEM_ATOM_UDEF_STEREO_COUNT>  (1) 
0

>  <PUBCHEM_BOND_DEF_STEREO_COUNT>  (1) 
0

>  <PUBCHEM_BOND_UDEF_STEREO_COUNT>  (1) 
0

>  <PUBCHEM_ISOTOPIC_ATOM_COUNT>  (1) 
0

>  <PUBCHEM_COMPONENT_COUNT>  (1) 
1

>  <PUBCHEM_CACTVS_TAUTO_COUNT>  (1) 
1

>  <PUBCHEM_CONFORMER_ID>  (1) 
000036E400000001

>  <PUBCHEM_MMFF94_ENERGY>  (1) 
4.841

>  <PUBCHEM_FEATURE_SELFOVERLAP>  (1) 
50.747

>  <PUBCHEM_SHAPE_FINGERPRINT>  (1) 
10366900 7 16702302334509939187
10616163 171 18341050825630206399
124424 183 16917068875965002641
13167823 11 18410856563934958246
13533116 47 17703508771109766527
13760787 19 18413670222817275510
14123238 8 15719395048535842501
14252887 29 17748831782899369704
15242433 33 18410575076173462071
15242439 84 15841554067441828932
17834072 33 18409168835493688260
17834076 25 18412827988341595888
18186145 218 18341885324895847576
19050596 39 18412819188159191978
20281475 54 18410567392376729734
20645477 70 17676484991538937962
21054139 6 18263637532603256310
22485316 2 18410571786128319013
23402539 116 17313099774039189428
23402655 69 18186798054567748388
23557571 272 17489035868063588312
23559900 14 17418100905656913628
300161 21 18411410713505645341
3268164 11 12468632863688507347
351380 180 9943807780969750871
522135 26 18335421236254419176
58051976 100 18411980299626475469
581208 293 18186796976973925794

>  <PUBCHEM_SHAPE_MULTIPOLES>  (1) 
266.41
11.49
1.52
0.96
0.02
1.18
0
-0.89
-0.02
0
0
0
0.06
-1.08

>  <PUBCHEM_SHAPE_SELFOVERLAP>  (1) 
486.281

>  <PUBCHEM_SHAPE_VOLUME>  (1) 
170.3

>  <PUBCHEM_COORDINATE_TYPE>  (1) 
2
5
10

$$$$
