14060
     RDKit          3D

 12 11  0  0  0  0  0  0  0  0999 V2000
    1.7118   -0.6706   -0.4795 N   0  0  0  0  0  0  0  0  0  0  0  0
    3.6533    0.5739   -0.6369 N   0  0  0  0  0  0  0  0  0  0  0  0
    1.9908    1.4177    0.6743 N   0  0  0  0  0  0  0  0  0  0  0  0
   -2.0539    0.4409   -0.1116 C   0  0  0  0  0  0  0  0  0  0  0  0
   -0.5232    0.3789   -0.4105 C   0  0  0  0  0  0  0  0  0  0  0  0
    0.3602   -0.7937    0.0880 C   0  0  0  0  0  0  0  0  0  0  0  0
   -2.6036    1.8733   -0.0764 C   0  0  0  0  0  0  0  0  0  0  0  0
   -2.7741   -0.3137   -1.2557 C   0  0  0  0  0  0  0  0  0  0  0  0
   -2.4154   -0.2818    1.1989 C   0  0  0  0  0  0  0  0  0  0  0  0
   -0.2241   -2.1135   -0.4470 C   0  0  0  0  0  0  0  0  0  0  0  0
    0.4963   -0.8962    1.6047 C   0  0  0  0  0  0  0  0  0  0  0  0
    2.3820    0.3848   -0.1483 C   0  0  0  0  0  0  0  0  0  0  0  0
  1  6  1  0
  1 12  2  3
  2 12  1  0
  3 12  1  0
  4  5  1  0
  4  7  1  0
  4  8  1  0
  4  9  1  0
  5  6  1  0
  6 10  1  0
  6 11  1  0
M  END
>  <PUBCHEM_COMPOUND_CID>  (1) 
14060

>  <PUBCHEM_CONFORMER_RMSD>  (1) 
0.6

>  <PUBCHEM_CONFORMER_DIVERSEORDER>  (1) 
1
2
6
3
7
5
4

>  <PUBCHEM_MMFF94_PARTIAL_CHARGES>  (1) 
9
1 -0.7
12 0.55
2 -0.85
3 -0.85
30 0.4
31 0.4
32 0.4
33 0.4
6 0.25

>  <PUBCHEM_EFFECTIVE_ROTOR_COUNT>  (1) 
3

>  <PUBCHEM_PHARMACOPHORE_FEATURES>  (1) 
5
1 2 donor
1 3 donor
3 6 10 11 hydrophobe
4 1 2 3 12 cation
4 4 7 8 9 hydrophobe

>  <PUBCHEM_HEAVY_ATOM_COUNT>  (1) 
12

>  <PUBCHEM_ATOM_DEF_STEREO_COUNT>  (1) 
0

>  <PUBCHEM_ATOM_UDEF_STEREO_COUNT>  (1) 
0

>  <PUBCHEM_BOND_DEF_STEREO_COUNT>  (1) 
0

>  <PUBCHEM_BOND_UDEF_STEREO_COUNT>  (1) 
0

>  <PUBCHEM_ISOTOPIC_ATOM_COUNT>  (1) 
0

>  <PUBCHEM_COMPONENT_COUNT>  (1) 
1

>  <PUBCHEM_CACTVS_TAUTO_COUNT>  (1) 
2

>  <PUBCHEM_CONFORMER_ID>  (1) 
000036EC00000001

>  <PUBCHEM_MMFF94_ENERGY>  (1) 
62.737

>  <PUBCHEM_FEATURE_SELFOVERLAP>  (1) 
25.428

>  <PUBCHEM_SHAPE_FINGERPRINT>  (1) 
10857977 72 17604158111440791065
12423570 1 14742979915178590499
12491281 212 18411986857630073072
12897270 3 18272079509396903837
12932764 1 18131632274683486961
13839132 238 18042134175829698899
14128692 85 11671770594122431746
14325111 11 18409169891844516708
14390081 3 18409164377133109669
14648413 74 17977671900842511447
15775835 57 18409167679725570533
16945 1 18339358668670861450
18186145 218 17489591160295321488
20361792 2 13110962041390667152
20653085 51 18342185500365652960
21028194 46 18410017645311018904
23552423 10 18054498119971085503
305870 269 18336823083309496586
369184 2 15285354024836110405
5084963 1 17822018617832739815
528886 8 18272932695796529913
63268167 104 18130793300156615504
6333449 129 18268994361210452926
81228 2 17765429138190424930

>  <PUBCHEM_SHAPE_MULTIPOLES>  (1) 
232.01
4.68
1.67
1.2
1.44
0.13
-0.3
-2.03
0.83
-0.26
0.02
-0.34
0.28
-0.05

>  <PUBCHEM_SHAPE_SELFOVERLAP>  (1) 
441.479

>  <PUBCHEM_SHAPE_VOLUME>  (1) 
143

>  <PUBCHEM_COORDINATE_TYPE>  (1) 
2
5
10

$$$$
