14077
     RDKit          3D

  7  7  0  0  0  0  0  0  0  0999 V2000
   -1.4698   -0.1885   -0.4641 N   0  0  0  0  0  0  0  0  0  0  0  0
    3.2800    0.3413    0.3294 N   0  0  0  0  0  0  0  0  0  0  0  0
   -2.5507    0.7103   -0.0864 C   0  0  0  0  0  0  0  0  0  0  0  0
   -2.2724   -0.5379    0.6990 C   0  0  0  0  0  0  0  0  0  0  0  0
   -0.1811    0.3563   -0.0530 C   0  0  0  0  0  0  0  0  0  0  0  0
    0.9448   -0.6060   -0.4227 C   0  0  0  0  0  0  0  0  0  0  0  0
    2.2492   -0.0756   -0.0021 C   0  0  0  0  0  0  0  0  0  0  0  0
  1  3  1  0
  1  4  1  0
  1  5  1  0
  2  7  3  0
  3  4  1  0
  5  6  1  0
  6  7  1  0
M  END
>  <PUBCHEM_COMPOUND_CID>  (1) 
14077

>  <PUBCHEM_CONFORMER_RMSD>  (1) 
0.4

>  <PUBCHEM_CONFORMER_DIVERSEORDER>  (1) 
1
3
5
4
2

>  <PUBCHEM_MMFF94_PARTIAL_CHARGES>  (1) 
11
1 -0.59
10 0.1
11 0.1
2 -0.56
3 -0.04
4 -0.04
5 0.27
6 0.2
7 0.36
8 0.1
9 0.1

>  <PUBCHEM_EFFECTIVE_ROTOR_COUNT>  (1) 
2.6

>  <PUBCHEM_PHARMACOPHORE_FEATURES>  (1) 
2
1 1 cation
1 2 acceptor

>  <PUBCHEM_HEAVY_ATOM_COUNT>  (1) 
7

>  <PUBCHEM_ATOM_DEF_STEREO_COUNT>  (1) 
0

>  <PUBCHEM_ATOM_UDEF_STEREO_COUNT>  (1) 
0

>  <PUBCHEM_BOND_DEF_STEREO_COUNT>  (1) 
0

>  <PUBCHEM_BOND_UDEF_STEREO_COUNT>  (1) 
0

>  <PUBCHEM_ISOTOPIC_ATOM_COUNT>  (1) 
0

>  <PUBCHEM_COMPONENT_COUNT>  (1) 
1

>  <PUBCHEM_CACTVS_TAUTO_COUNT>  (1) 
1

>  <PUBCHEM_CONFORMER_ID>  (1) 
000036FD00000001

>  <PUBCHEM_MMFF94_ENERGY>  (1) 
8.38

>  <PUBCHEM_FEATURE_SELFOVERLAP>  (1) 
10.148

>  <PUBCHEM_SHAPE_FINGERPRINT>  (1) 
10857977 72 18334293209927360449
11062470 55 18187080646241113749
14325111 11 18343019995363038606
14390081 3 17489585649493623672
16714656 1 12175620672358990387
29004967 10 18410019822716980754
5460574 1 8574712399021780198

>  <PUBCHEM_SHAPE_MULTIPOLES>  (1) 
134.09
4.8
0.81
0.73
1.99
0.01
-0.01
-0.48
-0.76
-0.25
-0.02
-0.08
0.05
0.23

>  <PUBCHEM_SHAPE_SELFOVERLAP>  (1) 
249.614

>  <PUBCHEM_SHAPE_VOLUME>  (1) 
83.8

>  <PUBCHEM_COORDINATE_TYPE>  (1) 
2
5
10

$$$$
