14080
     RDKit          3D

  8  8  0  0  0  0  0  0  0  0999 V2000
    2.0515   -1.1949    0.0007 O   0  0  0  0  0  0  0  0  0  0  0  0
    2.1912    1.0737   -0.0003 O   0  0  0  0  0  0  0  0  0  0  0  0
   -0.7688    1.1105    0.0004 N   0  0  0  0  0  0  0  0  0  0  0  0
   -2.1204   -0.6517   -0.0004 N   0  0  0  0  0  0  0  0  0  0  0  0
    0.0463    0.0138   -0.0002 C   0  0  0  0  0  0  0  0  0  0  0  0
   -0.8106   -1.0617   -0.0002 C   0  0  0  0  0  0  0  0  0  0  0  0
   -2.0601    0.6614    0.0004 C   0  0  0  0  0  0  0  0  0  0  0  0
    1.4709    0.0489   -0.0004 C   0  0  0  0  0  0  0  0  0  0  0  0
  1  8  1  0
  2  8  2  0
  3  5  1  0
  3  7  1  0
  4  6  1  0
  4  7  2  0
  5  6  2  0
  5  8  1  0
M  END
>  <PUBCHEM_COMPOUND_CID>  (1) 
14080

>  <PUBCHEM_CONFORMER_RMSD>  (1) 
0.4

>  <PUBCHEM_CONFORMER_DIVERSEORDER>  (1) 
1
2

>  <PUBCHEM_MMFF94_PARTIAL_CHARGES>  (1) 
12
1 -0.65
10 0.15
11 0.15
12 0.5
2 -0.57
3 0.03
4 -0.57
5 -0.24
6 0.08
7 0.04
8 0.81
9 0.27

>  <PUBCHEM_EFFECTIVE_ROTOR_COUNT>  (1) 
1

>  <PUBCHEM_PHARMACOPHORE_FEATURES>  (1) 
6
1 1 acceptor
1 2 acceptor
1 3 donor
3 1 2 8 anion
3 3 4 7 cation
5 3 4 5 6 7 rings

>  <PUBCHEM_HEAVY_ATOM_COUNT>  (1) 
8

>  <PUBCHEM_ATOM_DEF_STEREO_COUNT>  (1) 
0

>  <PUBCHEM_ATOM_UDEF_STEREO_COUNT>  (1) 
0

>  <PUBCHEM_BOND_DEF_STEREO_COUNT>  (1) 
0

>  <PUBCHEM_BOND_UDEF_STEREO_COUNT>  (1) 
0

>  <PUBCHEM_ISOTOPIC_ATOM_COUNT>  (1) 
0

>  <PUBCHEM_COMPONENT_COUNT>  (1) 
1

>  <PUBCHEM_CACTVS_TAUTO_COUNT>  (1) 
3

>  <PUBCHEM_CONFORMER_ID>  (1) 
0000370000000001

>  <PUBCHEM_MMFF94_ENERGY>  (1) 
5.7574

>  <PUBCHEM_FEATURE_SELFOVERLAP>  (1) 
30.503

>  <PUBCHEM_SHAPE_FINGERPRINT>  (1) 
14390081 3 18272087248806950656
20096714 4 18337673022766471080
21040471 1 18410855464423142084
23552423 10 18261114062563541206
24536 1 18338500989492688048
29004967 10 18188778369387656369
369184 2 18410289216077249337
5084963 1 18271521992366063323
5460574 1 9295297135478263937

>  <PUBCHEM_SHAPE_MULTIPOLES>  (1) 
142.94
3.06
1.24
0.57
0.48
0.05
0
-0.11
0
0.13
0
-0.02
0
0

>  <PUBCHEM_SHAPE_SELFOVERLAP>  (1) 
298.645

>  <PUBCHEM_SHAPE_VOLUME>  (1) 
83.3

>  <PUBCHEM_COORDINATE_TYPE>  (1) 
2
5
10

$$$$
