14089
     RDKit          3D

 10 10  0  0  1  0  0  0  0  0999 V2000
    1.8351   -2.0849   -0.7315 Cl  0  0  0  0  0  0  0  0  0  0  0  0
    2.2251    1.9684    0.7828 Cl  0  0  0  0  0  0  0  0  0  0  0  0
    1.4687   -0.6117    0.2406 C   0  0  0  0  0  0  0  0  0  0  0  0
    0.0217   -0.2747    0.1072 C   0  0  0  0  0  0  0  0  0  0  0  0
   -0.9100   -0.8449    0.9745 C   0  0  0  0  0  0  0  0  0  0  0  0
   -0.3996    0.6102   -0.8852 C   0  0  0  0  0  0  0  0  0  0  0  0
    2.4594    0.4878   -0.1846 C   0  0  0  0  0  0  0  0  0  0  0  0
   -2.2632   -0.5302    0.8494 C   0  0  0  0  0  0  0  0  0  0  0  0
   -1.7527    0.9251   -1.0103 C   0  0  0  0  0  0  0  0  0  0  0  0
   -2.6845    0.3549   -0.1429 C   0  0  0  0  0  0  0  0  0  0  0  0
  1  3  1  0
  2  7  1  0
  3  4  1  0
  3  7  1  0
  4  5  2  0
  4  6  1  0
  5  8  1  0
  6  9  2  0
  8 10  2  0
  9 10  1  0
M  END
>  <PUBCHEM_COMPOUND_CID>  (1) 
14089

>  <PUBCHEM_CONFORMER_RMSD>  (1) 
0.4

>  <PUBCHEM_CONFORMER_DIVERSEORDER>  (1) 
2
10
11
4
6
5
3
13
1
9
12
8
7

>  <PUBCHEM_MMFF94_PARTIAL_CHARGES>  (1) 
15
1 -0.29
10 -0.15
12 0.15
13 0.15
16 0.15
17 0.15
18 0.15
2 -0.29
3 0.43
4 -0.14
5 -0.15
6 -0.15
7 0.29
8 -0.15
9 -0.15

>  <PUBCHEM_EFFECTIVE_ROTOR_COUNT>  (1) 
2

>  <PUBCHEM_PHARMACOPHORE_FEATURES>  (1) 
1
6 4 5 6 8 9 10 rings

>  <PUBCHEM_HEAVY_ATOM_COUNT>  (1) 
10

>  <PUBCHEM_ATOM_DEF_STEREO_COUNT>  (1) 
0

>  <PUBCHEM_ATOM_UDEF_STEREO_COUNT>  (1) 
1

>  <PUBCHEM_BOND_DEF_STEREO_COUNT>  (1) 
0

>  <PUBCHEM_BOND_UDEF_STEREO_COUNT>  (1) 
0

>  <PUBCHEM_ISOTOPIC_ATOM_COUNT>  (1) 
0

>  <PUBCHEM_COMPONENT_COUNT>  (1) 
1

>  <PUBCHEM_CACTVS_TAUTO_COUNT>  (1) 
1

>  <PUBCHEM_CONFORMER_ID>  (1) 
0000370900000002

>  <PUBCHEM_MMFF94_ENERGY>  (1) 
22.8221

>  <PUBCHEM_FEATURE_SELFOVERLAP>  (1) 
5.074

>  <PUBCHEM_SHAPE_FINGERPRINT>  (1) 
10857977 72 17604150431986596257
12326174 3 17846226527193174334
12423570 1 10950321645948064399
12524768 44 18333449828779795879
12932741 1 18260548874931983447
12932764 1 18411142441332255647
15219456 202 18334861597562611910
15310529 11 17775564221858319145
16945 1 18343301457138219281
18380122 1 18261961871885561627
19973954 147 18337954484842786869
20201158 50 18336546010674374686
20645464 45 18187359922009861641
20653085 51 18198623220805034569
20711978 78 18342455915717115646
20871998 184 17974297812978807859
21040471 1 17096926863223923815
21061003 4 18127417739630864546
23211744 41 18261104218524723354
23552423 10 13830125113549453108
2748010 2 18040437668227460055
29004967 10 18271807861099806794
369184 2 14418124149622948029
5084963 1 17822579295806438375

>  <PUBCHEM_SHAPE_MULTIPOLES>  (1) 
209.53
3.93
1.8
1.1
0.34
0.15
-0.01
-0.68
0.16
-1.61
-0.04
0.27
-0.03
0.92

>  <PUBCHEM_SHAPE_SELFOVERLAP>  (1) 
407.328

>  <PUBCHEM_SHAPE_VOLUME>  (1) 
125.4

>  <PUBCHEM_COORDINATE_TYPE>  (1) 
2
5
10

$$$$
