14087
     RDKit          3D

  9  9  0  0  0  0  0  0  0  0999 V2000
    2.5341    0.7336   -0.0646 O   0  0  0  0  0  0  0  0  0  0  0  0
    1.5950   -1.3591    0.1834 O   0  0  0  0  0  0  0  0  0  0  0  0
   -2.2379    0.4153   -0.3691 N   0  0  0  0  0  0  0  0  0  0  0  0
   -3.3952   -0.4658   -0.3086 C   0  0  0  0  0  0  0  0  0  0  0  0
   -3.0262    0.4073    0.8550 C   0  0  0  0  0  0  0  0  0  0  0  0
   -1.0053   -0.3418   -0.1906 C   0  0  0  0  0  0  0  0  0  0  0  0
    0.2001    0.5935   -0.2156 C   0  0  0  0  0  0  0  0  0  0  0  0
    1.4974   -0.1545   -0.0061 C   0  0  0  0  0  0  0  0  0  0  0  0
    3.8380    0.1716    0.1161 C   0  0  0  0  0  0  0  0  0  0  0  0
  1  8  1  0
  1  9  1  0
  2  8  2  0
  3  4  1  0
  3  5  1  0
  3  6  1  0
  4  5  1  0
  6  7  1  0
  7  8  1  0
M  END
>  <PUBCHEM_COMPOUND_CID>  (1) 
14087

>  <PUBCHEM_CONFORMER_RMSD>  (1) 
0.6

>  <PUBCHEM_CONFORMER_DIVERSEORDER>  (1) 
1
15
4
8
13
7
2
6
12
9
11
14
10
16
3
5

>  <PUBCHEM_MMFF94_PARTIAL_CHARGES>  (1) 
13
1 -0.43
10 0.1
11 0.1
12 0.1
13 0.1
2 -0.57
3 -0.59
4 -0.04
5 -0.04
6 0.27
7 0.06
8 0.66
9 0.28

>  <PUBCHEM_EFFECTIVE_ROTOR_COUNT>  (1) 
4.6

>  <PUBCHEM_PHARMACOPHORE_FEATURES>  (1) 
2
1 2 acceptor
1 3 cation

>  <PUBCHEM_HEAVY_ATOM_COUNT>  (1) 
9

>  <PUBCHEM_ATOM_DEF_STEREO_COUNT>  (1) 
0

>  <PUBCHEM_ATOM_UDEF_STEREO_COUNT>  (1) 
0

>  <PUBCHEM_BOND_DEF_STEREO_COUNT>  (1) 
0

>  <PUBCHEM_BOND_UDEF_STEREO_COUNT>  (1) 
0

>  <PUBCHEM_ISOTOPIC_ATOM_COUNT>  (1) 
0

>  <PUBCHEM_COMPONENT_COUNT>  (1) 
1

>  <PUBCHEM_CACTVS_TAUTO_COUNT>  (1) 
1

>  <PUBCHEM_CONFORMER_ID>  (1) 
0000370700000001

>  <PUBCHEM_MMFF94_ENERGY>  (1) 
13.2965

>  <PUBCHEM_FEATURE_SELFOVERLAP>  (1) 
10.148

>  <PUBCHEM_SHAPE_FINGERPRINT>  (1) 
10219947 1 17894912944888912596
11062470 55 12251899295862592220
12932764 1 14261345821853017349
14325111 11 18413671300991099879
14390081 3 17918272064872923297
190213 19 17918275354780883652
20201158 50 17894349977518238811
20279233 1 17312823762561514171
20645477 70 18189887630913597223
21293036 1 11455890278154828584
29004967 10 17894635837630223657
3248919 1 16877951516186305751
5460574 1 9799692601647242997

>  <PUBCHEM_SHAPE_MULTIPOLES>  (1) 
168.5
6.55
0.92
0.71
1.08
0.16
-0.06
-0.31
-0.48
0.16
-0.04
-0.31
-0.04
-0.24

>  <PUBCHEM_SHAPE_SELFOVERLAP>  (1) 
318.247

>  <PUBCHEM_SHAPE_VOLUME>  (1) 
106.5

>  <PUBCHEM_COORDINATE_TYPE>  (1) 
2
5
10

$$$$
