14123
     RDKit          3D

 15 15  0  0  0  0  0  0  0  0999 V2000
   -0.4486   -2.0474    0.3876 O   0  0  0  0  0  0  0  0  0  0  0  0
    4.5031    0.0311    1.1859 O   0  0  0  0  0  0  0  0  0  0  0  0
    4.6276   -0.4753   -1.0522 O   0  0  0  0  0  0  0  0  0  0  0  0
    0.4315    0.0562   -0.0143 N   0  0  0  0  0  0  0  0  0  0  0  0
    1.7040   -0.3977    0.0469 N   0  0  0  0  0  0  0  0  0  0  0  0
   -4.5275    0.7441   -0.1160 N   0  0  0  0  0  0  0  0  0  0  0  0
   -1.9722   -0.2908    0.0689 C   0  0  0  0  0  0  0  0  0  0  0  0
   -0.5982   -0.8477    0.1697 C   0  0  0  0  0  0  0  0  0  0  0  0
   -2.9995   -1.1186   -0.3173 C   0  0  0  0  0  0  0  0  0  0  0  0
   -2.1764    1.0356    0.3659 C   0  0  0  0  0  0  0  0  0  0  0  0
    2.6460    0.4733   -0.1295 C   0  0  0  0  0  0  0  0  0  0  0  0
   -4.2615   -0.5518   -0.3945 C   0  0  0  0  0  0  0  0  0  0  0  0
   -3.4752    1.5060    0.2580 C   0  0  0  0  0  0  0  0  0  0  0  0
    2.5005    1.9454   -0.3891 C   0  0  0  0  0  0  0  0  0  0  0  0
    4.0463   -0.0625   -0.0700 C   0  0  0  0  0  0  0  0  0  0  0  0
  1  8  2  0
  2 15  1  0
  3 15  2  0
  4  5  1  0
  4  8  1  0
  5 11  2  0
  6 12  2  0
  6 13  1  0
  7  8  1  0
  7  9  2  0
  7 10  1  0
  9 12  1  0
 10 13  2  0
 11 14  1  0
 11 15  1  0
M  END
>  <PUBCHEM_COMPOUND_CID>  (1) 
14123

>  <PUBCHEM_CONFORMER_RMSD>  (1) 
0.6

>  <PUBCHEM_CONFORMER_DIVERSEORDER>  (1) 
1
3
2

>  <PUBCHEM_MMFF94_PARTIAL_CHARGES>  (1) 
21
1 -0.57
10 -0.15
11 0.39
12 0.16
13 0.16
14 0.06
15 0.72
16 0.15
17 0.15
18 0.37
2 -0.65
22 0.15
23 0.15
24 0.5
3 -0.57
4 -0.37
5 -0.51
6 -0.62
7 0.09
8 0.54
9 -0.15

>  <PUBCHEM_EFFECTIVE_ROTOR_COUNT>  (1) 
4

>  <PUBCHEM_PHARMACOPHORE_FEATURES>  (1) 
8
1 1 acceptor
1 2 acceptor
1 3 acceptor
1 4 donor
1 5 acceptor
1 6 acceptor
3 2 3 15 anion
6 6 7 9 10 12 13 rings

>  <PUBCHEM_HEAVY_ATOM_COUNT>  (1) 
15

>  <PUBCHEM_ATOM_DEF_STEREO_COUNT>  (1) 
0

>  <PUBCHEM_ATOM_UDEF_STEREO_COUNT>  (1) 
0

>  <PUBCHEM_BOND_DEF_STEREO_COUNT>  (1) 
0

>  <PUBCHEM_BOND_UDEF_STEREO_COUNT>  (1) 
1

>  <PUBCHEM_ISOTOPIC_ATOM_COUNT>  (1) 
0

>  <PUBCHEM_COMPONENT_COUNT>  (1) 
1

>  <PUBCHEM_CACTVS_TAUTO_COUNT>  (1) 
3

>  <PUBCHEM_CONFORMER_ID>  (1) 
0000372B00000001

>  <PUBCHEM_MMFF94_ENERGY>  (1) 
41.2839

>  <PUBCHEM_FEATURE_SELFOVERLAP>  (1) 
40.656

>  <PUBCHEM_SHAPE_FINGERPRINT>  (1) 
11132069 177 18342174462141589561
12162725 195 18411140268004996348
12916748 109 18410859871064888720
13675066 3 18131631209790138362
14004511 7 18411420609136591224
14123238 8 13901905626399059464
15196674 1 18410575127850622461
15536298 74 18270681952687724478
17802600 8 18409442596329645501
18186145 218 18334851736069839053
18522853 276 18343580754630191368
19107657 47 17095237025278686085
1986462 14 18343868809522789997
200 152 16989125352984242919
20279233 1 16200437978546908308
20281407 28 9151178648835980335
20300324 65 18059853987228203197
20645477 56 18131066073492544274
20645477 70 16845582980992603126
212847 35 17967532372268074556
21524375 3 18335420162333487443
23402539 116 18272080608845189213
23557571 272 17632585932974242697
23559900 14 18131069342622000522
351380 180 18343016700838383381
3545911 37 18342742883962298423
449060 50 13262401063550087286
5104073 3 18337111275409441121
58051976 100 18410293639756836671
6430166 295 18335416850776415680
69090 78 18060697316340632567
9709674 26 18342183296963547526
9971528 1 18413108351691975300
9981440 41 17253148035200008920

>  <PUBCHEM_SHAPE_MULTIPOLES>  (1) 
276.14
9.93
1.58
0.77
4.27
0.22
0.02
1.01
-0.67
-0.55
0.01
0.5
-0.02
-0.26

>  <PUBCHEM_SHAPE_SELFOVERLAP>  (1) 
573.429

>  <PUBCHEM_SHAPE_VOLUME>  (1) 
155.6

>  <PUBCHEM_COORDINATE_TYPE>  (1) 
2
5
10

$$$$
