1412
     RDKit          3D

 24 23  0  0  1  0  0  0  0  0999 V2000
   -0.9867   -1.9118   -3.0902 O   0  0  0  0  0  0  0  0  0  0  0  0
    4.3024    2.3502    1.9858 O   0  0  0  0  0  0  0  0  0  0  0  0
   -7.5264   -0.4719    1.8548 O   0  0  0  0  0  0  0  0  0  0  0  0
   -6.0517    1.1512    2.4628 O   0  0  0  0  0  0  0  0  0  0  0  0
    1.6841   -2.4605    1.0001 C   0  0  0  0  0  0  0  0  0  0  0  0
    1.6903   -2.5428   -0.5297 C   0  0  0  0  0  0  0  0  0  0  0  0
    3.0509   -2.7542    1.6286 C   0  0  0  0  0  0  0  0  0  0  0  0
    0.3149   -2.2121   -1.1049 C   0  0  0  0  0  0  0  0  0  0  0  0
    4.1223   -1.8109    1.1631 C   0  0  0  0  0  0  0  0  0  0  0  0
    0.3152   -2.2423   -2.6261 C   0  0  0  0  0  0  0  0  0  0  0  0
    5.4332    0.3291    1.2614 C   0  0  0  0  0  0  0  0  0  0  0  0
    4.3806   -0.6318    1.7476 C   0  0  0  0  0  0  0  0  0  0  0  0
    4.8579    1.6947    0.8480 C   0  0  0  0  0  0  0  0  0  0  0  0
   -4.1978    0.3716    0.4311 C   0  0  0  0  0  0  0  0  0  0  0  0
   -3.4030   -0.1680   -0.7624 C   0  0  0  0  0  0  0  0  0  0  0  0
    3.8563    1.5827   -0.2757 C   0  0  0  0  0  0  0  0  0  0  0  0
   -5.5250   -0.3624    0.6237 C   0  0  0  0  0  0  0  0  0  0  0  0
   -2.1394    0.6166   -0.9726 C   0  0  0  0  0  0  0  0  0  0  0  0
   -0.5908    2.0380   -2.4268 C   0  0  0  0  0  0  0  0  0  0  0  0
    2.5715    1.9684   -0.2282 C   0  0  0  0  0  0  0  0  0  0  0  0
   -1.8374    1.2522   -2.1158 C   0  0  0  0  0  0  0  0  0  0  0  0
    0.3744    2.1975   -1.2873 C   0  0  0  0  0  0  0  0  0  0  0  0
    1.6582    1.8110   -1.3378 C   0  0  0  0  0  0  0  0  0  0  0  0
   -6.3541    0.2054    1.7506 C   0  0  0  0  0  0  0  0  0  0  0  0
  1 10  1  0
  2 13  1  0
  3 24  1  0
  4 24  2  0
  5  6  1  0
  5  7  1  0
  6  8  1  0
  7  9  1  0
  8 10  1  0
  9 12  2  0
 11 12  1  0
 11 13  1  0
 13 16  1  0
 14 15  1  0
 14 17  1  0
 15 18  1  0
 16 20  2  0
 17 24  1  0
 18 21  2  0
 19 21  1  0
 19 22  1  0
 20 23  1  0
 22 23  2  0
M  END
>  <PUBCHEM_COMPOUND_CID>  (1) 
1412

>  <PUBCHEM_CONFORMER_RMSD>  (1) 
1.6

>  <PUBCHEM_CONFORMER_DIVERSEORDER>  (1) 
1
25
36
58
14
74
23
38
45
69
49
52
65
17
79
22
59
81
4
61
33
30
67
8
54
16
87
89
72
32
3
19
62
27
6
84
12
82
39
9
34
85
56
70
37
46
11
21
71
63
83
78
80
51
26
73
47
40
44
28
60
20
35
53
77
10
43
88
41
75
13
64
76
50
24
42
2
18
5
86
57
90
68
66
31
7
55
15
91
29
48

>  <PUBCHEM_MMFF94_PARTIAL_CHARGES>  (1) 
31
1 -0.68
10 0.28
11 0.14
12 -0.29
13 0.42
15 0.14
16 -0.29
17 0.06
18 -0.29
19 0.28
2 -0.68
20 -0.15
21 -0.29
22 -0.29
23 -0.15
24 0.66
3 -0.65
33 0.15
38 0.15
4 -0.57
44 0.15
47 0.15
48 0.4
51 0.15
52 0.15
53 0.4
54 0.15
55 0.15
56 0.5
7 0.14
9 -0.29

>  <PUBCHEM_EFFECTIVE_ROTOR_COUNT>  (1) 
15

>  <PUBCHEM_PHARMACOPHORE_FEATURES>  (1) 
9
1 1 acceptor
1 1 donor
1 2 acceptor
1 2 donor
1 3 acceptor
1 4 acceptor
3 3 4 24 anion
4 14 15 17 18 hydrophobe
5 5 6 7 8 9 hydrophobe

>  <PUBCHEM_HEAVY_ATOM_COUNT>  (1) 
24

>  <PUBCHEM_ATOM_DEF_STEREO_COUNT>  (1) 
0

>  <PUBCHEM_ATOM_UDEF_STEREO_COUNT>  (1) 
1

>  <PUBCHEM_BOND_DEF_STEREO_COUNT>  (1) 
0

>  <PUBCHEM_BOND_UDEF_STEREO_COUNT>  (1) 
4

>  <PUBCHEM_ISOTOPIC_ATOM_COUNT>  (1) 
0

>  <PUBCHEM_COMPONENT_COUNT>  (1) 
1

>  <PUBCHEM_CACTVS_TAUTO_COUNT>  (1) 
1

>  <PUBCHEM_CONFORMER_ID>  (1) 
0000058400000001

>  <PUBCHEM_MMFF94_ENERGY>  (1) 
10.4631

>  <PUBCHEM_FEATURE_SELFOVERLAP>  (1) 
45.729

>  <PUBCHEM_SHAPE_FINGERPRINT>  (1) 
10669705 162 17386272248010248415
10674148 151 17988655116673736700
10816530 23 16986298642334792388
12104220 4 16558741347391469624
12422481 6 18408879612258741381
12633257 1 17677051372907373771
12661589 4 14419572254377839065
12717326 69 17534085222297299963
12778500 126 16343426103328514174
13075007 39 17749109988936456688
14765038 42 18198615722082643480
1768 124 18041284374075409531
19301679 30 17822020800689508673
1979834 28 18408893927337265999
21585482 310 16805617992491450721
21796203 349 18187916301502811712
22864921 267 18263096439885656369
27425 322 15768907165505320442
3459 39 16773792572274797033
392239 28 18040987462369558467
465052 167 17313105288703682244

>  <PUBCHEM_SHAPE_MULTIPOLES>  (1) 
470.43
14.5
3.5
2.93
22.52
0.4
-1.29
2.27
16.51
-4.05
-0.84
1.97
0.52
1.27

>  <PUBCHEM_SHAPE_SELFOVERLAP>  (1) 
891.771

>  <PUBCHEM_SHAPE_VOLUME>  (1) 
287.5

>  <PUBCHEM_COORDINATE_TYPE>  (1) 
2
5
10

$$$$
