14128
     RDKit          3D

 16 16  0  0  0  0  0  0  0  0999 V2000
    1.6744    0.1921   -0.0393 O   0  0  0  0  0  0  0  0  0  0  0  0
   -2.2632   -2.7247   -0.4276 O   0  0  0  0  0  0  0  0  0  0  0  0
   -4.0030    1.5989    0.6741 O   0  0  0  0  0  0  0  0  0  0  0  0
   -4.4016   -1.1125    0.2785 O   0  0  0  0  0  0  0  0  0  0  0  0
    0.9028    2.2539   -0.7123 O   0  0  0  0  0  0  0  0  0  0  0  0
    3.9508   -0.5027    0.2230 C   0  0  0  0  0  0  0  0  0  0  0  0
    5.4162   -0.0868    0.1328 C   0  0  0  0  0  0  0  0  0  0  0  0
    3.0182    0.6383   -0.1582 C   0  0  0  0  0  0  0  0  0  0  0  0
    6.3428   -1.2155    0.5558 C   0  0  0  0  0  0  0  0  0  0  0  0
   -0.6426    0.5173   -0.1827 C   0  0  0  0  0  0  0  0  0  0  0  0
    0.7111    1.1042   -0.3479 C   0  0  0  0  0  0  0  0  0  0  0  0
   -1.6896    1.3441    0.1700 C   0  0  0  0  0  0  0  0  0  0  0  0
   -0.8123   -0.8371   -0.3865 C   0  0  0  0  0  0  0  0  0  0  0  0
   -2.0839   -1.3885   -0.2308 C   0  0  0  0  0  0  0  0  0  0  0  0
   -2.9614    0.7927    0.3258 C   0  0  0  0  0  0  0  0  0  0  0  0
   -3.1587   -0.5736    0.1253 C   0  0  0  0  0  0  0  0  0  0  0  0
  1  8  1  0
  1 11  1  0
  2 14  1  0
  3 15  1  0
  4 16  1  0
  5 11  2  0
  6  7  1  0
  6  8  1  0
  7  9  1  0
 10 11  1  0
 10 12  2  0
 10 13  1  0
 12 15  1  0
 13 14  2  0
 14 16  1  0
 15 16  2  0
M  END
>  <PUBCHEM_COMPOUND_CID>  (1) 
14128

>  <PUBCHEM_CONFORMER_RMSD>  (1) 
0.6

>  <PUBCHEM_CONFORMER_DIVERSEORDER>  (1) 
1
47
68
41
58
61
14
45
49
50
39
54
42
69
40
19
66
31
10
65
53
2
55
52
33
37
18
4
63
27
70
57
24
16
46
59
3
60
72
71
43
5
62
51
38
23
22
6
56
67
36
9
44
8
74
26
13
64
35
29
11
77
20
21
25
75
30
76
12
32
34
48
7
28
73
17
15

>  <PUBCHEM_MMFF94_PARTIAL_CHARGES>  (1) 
18
1 -0.43
10 0.09
11 0.63
12 -0.15
13 -0.15
14 0.08
15 0.08
16 0.08
2 -0.53
26 0.15
27 0.15
28 0.45
29 0.45
3 -0.53
30 0.45
4 -0.53
5 -0.57
8 0.28

>  <PUBCHEM_EFFECTIVE_ROTOR_COUNT>  (1) 
5

>  <PUBCHEM_PHARMACOPHORE_FEATURES>  (1) 
6
1 2 donor
1 3 donor
1 4 donor
1 5 acceptor
1 9 hydrophobe
6 10 12 13 14 15 16 rings

>  <PUBCHEM_HEAVY_ATOM_COUNT>  (1) 
16

>  <PUBCHEM_ATOM_DEF_STEREO_COUNT>  (1) 
0

>  <PUBCHEM_ATOM_UDEF_STEREO_COUNT>  (1) 
0

>  <PUBCHEM_BOND_DEF_STEREO_COUNT>  (1) 
0

>  <PUBCHEM_BOND_UDEF_STEREO_COUNT>  (1) 
0

>  <PUBCHEM_ISOTOPIC_ATOM_COUNT>  (1) 
0

>  <PUBCHEM_COMPONENT_COUNT>  (1) 
1

>  <PUBCHEM_CACTVS_TAUTO_COUNT>  (1) 
14

>  <PUBCHEM_CONFORMER_ID>  (1) 
0000373000000001

>  <PUBCHEM_MMFF94_ENERGY>  (1) 
31.533

>  <PUBCHEM_FEATURE_SELFOVERLAP>  (1) 
30.455

>  <PUBCHEM_SHAPE_FINGERPRINT>  (1) 
10465860 250 17846779611506704368
11046707 91 18407757036846483140
12251169 10 18413110584278254237
124424 183 17346876749727479232
12507557 5 14404894817222545530
12555020 224 18337096956447710607
13167823 11 18334293159126328634
13288520 33 18408041814199324887
13551218 46 18337671897976267186
13690532 89 18335702771133870613
13760787 5 17530973492388805372
13862211 1 18270119153828434823
14420673 8 18268434542916366502
14965852 173 18339643450693333741
15042514 8 18268432520007934055
15442244 35 18410014381072973300
16945 1 18199202857017351461
17804303 29 18343022202870909080
17834072 33 18335986458662524908
1813 80 17603593989383415134
18186145 218 15719393975384946740
19141452 34 18412263917702254366
19422 9 18261960751152304980
20281475 54 18335983176964489588
20828058 44 18341892983360216736
21267235 1 18408611378466003866
21339142 126 18114740435008138100
2297311 6 18272380741824686236
23402539 116 18202558502101939637
23559900 14 18272644675938987672
2748010 2 17978525139293610893
351380 3 17894908504378239818
42 15 18410857651126017656
4214541 1 18412825776818482440
5104073 3 18341338884844179152
559249 180 18334572408634857050
573450 72 18411133641308126690
5924683 9 17702934958767407110

>  <PUBCHEM_SHAPE_MULTIPOLES>  (1) 
299.93
11.09
2
0.71
17.37
0.4
0
3.72
-2.63
-1.52
0.24
0.01
-0.05
-0.77

>  <PUBCHEM_SHAPE_SELFOVERLAP>  (1) 
618.159

>  <PUBCHEM_SHAPE_VOLUME>  (1) 
173

>  <PUBCHEM_COORDINATE_TYPE>  (1) 
2
5
10

$$$$
