14133
     RDKit          3D

 17 19  0  0  0  0  0  0  0  0999 V2000
    0.4355   -1.2449    0.0004 N   0  0  0  0  0  0  0  0  0  0  0  0
    0.4147    1.4858    0.0003 N   0  0  0  0  0  0  0  0  0  0  0  0
   -2.0274    2.8653    0.0001 N   0  0  0  0  0  0  0  0  0  0  0  0
   -4.3741   -1.3741   -0.0009 N   0  0  0  0  0  0  0  0  0  0  0  0
   -0.7491   -0.6090    0.0002 C   0  0  0  0  0  0  0  0  0  0  0  0
    1.6102   -0.5910    0.0005 C   0  0  0  0  0  0  0  0  0  0  0  0
   -0.7414    0.7974    0.0002 C   0  0  0  0  0  0  0  0  0  0  0  0
    1.5810    0.8152    0.0002 C   0  0  0  0  0  0  0  0  0  0  0  0
   -1.9464   -1.3329   -0.0001 C   0  0  0  0  0  0  0  0  0  0  0  0
   -1.9712    1.4495    0.0002 C   0  0  0  0  0  0  0  0  0  0  0  0
    0.4472   -2.7216    0.0004 C   0  0  0  0  0  0  0  0  0  0  0  0
   -3.1612   -0.6555   -0.0002 C   0  0  0  0  0  0  0  0  0  0  0  0
    2.8184   -1.2965    0.0001 C   0  0  0  0  0  0  0  0  0  0  0  0
   -3.1738    0.7361   -0.0001 C   0  0  0  0  0  0  0  0  0  0  0  0
    2.8007    1.4859   -0.0002 C   0  0  0  0  0  0  0  0  0  0  0  0
    4.0228   -0.6007   -0.0005 C   0  0  0  0  0  0  0  0  0  0  0  0
    4.0140    0.7910   -0.0008 C   0  0  0  0  0  0  0  0  0  0  0  0
  1  5  2  0
  1  6  1  0
  1 11  1  0
  2  7  2  0
  2  8  1  0
  3 10  1  0
  4 12  1  0
  5  7  1  0
  5  9  1  0
  6  8  2  0
  6 13  1  0
  7 10  1  0
  8 15  1  0
  9 12  2  0
 10 14  2  0
 12 14  1  0
 13 16  2  0
 15 17  2  0
 16 17  1  0
M  CHG  1   1   1
M  END
>  <PUBCHEM_COMPOUND_CID>  (1) 
14133

>  <PUBCHEM_CONFORMER_RMSD>  (1) 
0.4

>  <PUBCHEM_CONFORMER_DIVERSEORDER>  (1) 
1

>  <PUBCHEM_MMFF94_PARTIAL_CHARGES>  (1) 
27
1 -0.21
10 0.1
11 0.49
12 0.1
13 -0.15
14 -0.15
15 -0.15
16 -0.15
17 -0.15
18 0.15
2 -0.62
22 0.15
23 0.15
24 0.15
25 0.15
26 0.15
27 0.4
28 0.4
29 0.4
3 -0.9
30 0.4
4 -0.9
5 0.36
6 0.36
7 0.31
8 0.31
9 -0.15

>  <PUBCHEM_EFFECTIVE_ROTOR_COUNT>  (1) 
0

>  <PUBCHEM_PHARMACOPHORE_FEATURES>  (1) 
8
1 2 acceptor
1 3 cation
1 3 donor
1 4 cation
1 4 donor
6 1 2 5 6 7 8 rings
6 5 7 9 10 12 14 rings
6 6 8 13 15 16 17 rings

>  <PUBCHEM_HEAVY_ATOM_COUNT>  (1) 
17

>  <PUBCHEM_ATOM_DEF_STEREO_COUNT>  (1) 
0

>  <PUBCHEM_ATOM_UDEF_STEREO_COUNT>  (1) 
0

>  <PUBCHEM_BOND_DEF_STEREO_COUNT>  (1) 
0

>  <PUBCHEM_BOND_UDEF_STEREO_COUNT>  (1) 
0

>  <PUBCHEM_ISOTOPIC_ATOM_COUNT>  (1) 
0

>  <PUBCHEM_COMPONENT_COUNT>  (1) 
1

>  <PUBCHEM_CACTVS_TAUTO_COUNT>  (1) 
12

>  <PUBCHEM_CONFORMER_ID>  (1) 
0000373500000001

>  <PUBCHEM_MMFF94_ENERGY>  (1) 
90.4913

>  <PUBCHEM_FEATURE_SELFOVERLAP>  (1) 
40.664

>  <PUBCHEM_SHAPE_FINGERPRINT>  (1) 
10062212 137 18338505340221056810
10411042 1 15744444497262279634
10608611 8 18411697660534623576
10616163 171 18411420574871973735
10967382 1 18266458887296308230
11132069 177 18411414007866783360
11471102 20 18410288137919275254
11806522 49 18338233868465713167
12032990 46 18411141346089169398
12403259 226 18412538816968360576
13140716 1 17833826453998351872
13221675 6 18411698794184255270
13380535 76 18409449176224694306
13862211 1 18338792429063154903
14144814 61 18410573972535620208
14178342 30 18194389001320513976
14325111 11 18410855447528362852
14614273 12 18188203200495131093
15042514 8 18265895950413210778
15196674 1 18410575084678916164
15309172 13 18412271644053150819
15442244 35 18193555567359528074
15536298 74 18342739615829705270
16945 1 18122343480171923457
17492 89 18337952290152091131
17802600 8 18412539929332910416
17804303 29 18412830174754158724
18186145 218 18201165356070549696
193761 8 18122626041796497991
19591789 44 18411420575046365366
200 152 18202273724158150263
20510252 161 18343584044622600104
21267235 1 18410583898073536110
21501502 16 18336826368737776066
221490 88 18338525136042036402
2334 1 18410855464702892324
23366157 5 17898016728812710978
23402539 116 18341885346370567431
23463225 33 18335701620251362318
23559900 14 18055068762580302822
238 59 15804081315535546141
2748010 2 18410573968240691892
2871803 45 18408879642402763543
335352 9 17906453229870995230
350125 39 18410577288277227072
43471831 8 18335135358667763618
474 4 17024318637726787940
5104073 3 18411136922241116032
54173680 148 18120657095728921786
69090 78 18271803570469819134
7364860 26 18125159338262567334
7832392 63 18051694347728774696
8809292 202 18188214302869819499
9709674 26 18411425003094305078

>  <PUBCHEM_SHAPE_MULTIPOLES>  (1) 
329.93
6.83
2.45
0.6
0.59
0.09
0
-0.16
0
-0.71
0
0.03
-0.01
0

>  <PUBCHEM_SHAPE_SELFOVERLAP>  (1) 
743.826

>  <PUBCHEM_SHAPE_VOLUME>  (1) 
173.8

>  <PUBCHEM_COORDINATE_TYPE>  (1) 
2
5
10

$$$$
