14131
     RDKit          3D

 14 14  0  0  1  0  0  0  0  0999 V2000
    1.4441    0.4335   -0.9209 N   0  0  0  0  0  0  0  0  0  0  0  0
   -2.4868   -0.2825    0.6720 N   0  0  0  0  0  0  0  0  0  0  0  0
   -4.7130    0.2731    1.0004 N   0  0  0  0  0  0  0  0  0  0  0  0
   -3.8136    0.7630   -1.0358 N   0  0  0  0  0  0  0  0  0  0  0  0
    1.1087   -0.9214   -0.4509 C   0  0  0  0  0  0  0  0  0  0  0  0
    2.3183   -1.5643    0.2617 C   0  0  0  0  0  0  0  0  0  0  0  0
    1.9779    1.3230    0.1161 C   0  0  0  0  0  0  0  0  0  0  0  0
    2.9068   -0.6729    1.3517 C   0  0  0  0  0  0  0  0  0  0  0  0
    3.2100    0.7123    0.7931 C   0  0  0  0  0  0  0  0  0  0  0  0
   -0.1344   -0.9052    0.4588 C   0  0  0  0  0  0  0  0  0  0  0  0
    0.7720   -1.7562   -1.7006 C   0  0  0  0  0  0  0  0  0  0  0  0
    2.3346    2.6649   -0.5240 C   0  0  0  0  0  0  0  0  0  0  0  0
   -1.3370   -0.2931   -0.2336 C   0  0  0  0  0  0  0  0  0  0  0  0
   -3.5875    0.2258    0.2119 C   0  0  0  0  0  0  0  0  0  0  0  0
  1  5  1  0
  1  7  1  0
  2 13  1  0
  2 14  2  3
  3 14  1  0
  4 14  1  0
  5  6  1  0
  5 10  1  0
  5 11  1  0
  6  8  1  0
  7  9  1  0
  7 12  1  0
  8  9  1  0
 10 13  1  0
M  END
>  <PUBCHEM_COMPOUND_CID>  (1) 
14131

>  <PUBCHEM_CONFORMER_RMSD>  (1) 
0.6

>  <PUBCHEM_CONFORMER_DIVERSEORDER>  (1) 
9
64
4
67
3
66
22
75
53
33
56
68
35
2
77
1
58
30
65
42
5
55
70
73
69
15
72
81
39
18
79
45
52
23
19
50
13
57
24
14
60
8
62
11
43
28
21
47
6
34
80
36
31
59
49
44
74
54
16
76
26
63
46
41
51
29
27
78
38
48
12
25
20
40
7
32
71
10
37
61
17

>  <PUBCHEM_MMFF94_PARTIAL_CHARGES>  (1) 
13
1 -0.9
13 0.25
14 0.55
2 -0.7
20 0.36
3 -0.85
33 0.4
34 0.4
35 0.4
36 0.4
4 -0.85
5 0.27
7 0.27

>  <PUBCHEM_EFFECTIVE_ROTOR_COUNT>  (1) 
4.2

>  <PUBCHEM_PHARMACOPHORE_FEATURES>  (1) 
6
1 1 cation
1 1 donor
1 3 donor
1 4 donor
4 2 3 4 14 cation
6 1 5 6 7 8 9 rings

>  <PUBCHEM_HEAVY_ATOM_COUNT>  (1) 
14

>  <PUBCHEM_ATOM_DEF_STEREO_COUNT>  (1) 
0

>  <PUBCHEM_ATOM_UDEF_STEREO_COUNT>  (1) 
2

>  <PUBCHEM_BOND_DEF_STEREO_COUNT>  (1) 
0

>  <PUBCHEM_BOND_UDEF_STEREO_COUNT>  (1) 
0

>  <PUBCHEM_ISOTOPIC_ATOM_COUNT>  (1) 
0

>  <PUBCHEM_COMPONENT_COUNT>  (1) 
1

>  <PUBCHEM_CACTVS_TAUTO_COUNT>  (1) 
2

>  <PUBCHEM_CONFORMER_ID>  (1) 
0000373300000009

>  <PUBCHEM_MMFF94_ENERGY>  (1) 
21.5539

>  <PUBCHEM_FEATURE_SELFOVERLAP>  (1) 
30.502

>  <PUBCHEM_SHAPE_FINGERPRINT>  (1) 
10219947 1 18271237236266739282
10980938 120 18272092712126540437
12251169 10 18333726940027548834
12932764 1 18041007232562606759
13134695 92 18263912259774342822
13922767 16 18187356602073955769
14123255 52 18048879890378699060
14252887 29 13551187784317266112
14344429 50 18186526483864710918
15775835 57 18201434843593174768
16945 1 18334844035699885878
18186145 218 18341619183300406783
19786989 88 18342744030934792503
20231682 184 18342458174658988103
20281475 54 9439409029836586221
20539784 86 17894906339187000482
20606313 2 18411415094414498361
21524375 3 18051416459202782636
21665062 11 18334575754572863648
22892500 29 18041827450603170343
230 275 18201726158281762776
293599 30 18190466142066268932
3060560 45 18059866047179989902
3248919 1 18060142016267251635
42 15 16950281784944836859
7364860 26 17203056157843289094
94968 8 7997969076488250864

>  <PUBCHEM_SHAPE_MULTIPOLES>  (1) 
268.19
7.02
1.96
1.26
9.77
0.78
0.18
2.29
-2.03
-2.04
0.65
-0.18
-0.31
-0.19

>  <PUBCHEM_SHAPE_SELFOVERLAP>  (1) 
522.761

>  <PUBCHEM_SHAPE_VOLUME>  (1) 
159.2

>  <PUBCHEM_COORDINATE_TYPE>  (1) 
2
5
10

$$$$
