14134
     RDKit          3D

 17 18  0  0  0  0  0  0  0  0999 V2000
    1.9127    2.0647   -0.3707 O   0  0  0  0  0  0  0  0  0  0  0  0
    2.2317   -0.5546   -1.7593 O   0  0  0  0  0  0  0  0  0  0  0  0
   -2.2538    1.5336    0.2552 N   0  0  0  0  0  0  0  0  0  0  0  0
    2.6806   -0.8193    0.5322 N   0  0  0  0  0  0  0  0  0  0  0  0
   -0.9641   -0.2496   -0.1113 C   0  0  0  0  0  0  0  0  0  0  0  0
   -0.1550    0.9207   -0.1280 C   0  0  0  0  0  0  0  0  0  0  0  0
   -2.2762    0.1626    0.1311 C   0  0  0  0  0  0  0  0  0  0  0  0
   -0.9762    2.0009    0.0998 C   0  0  0  0  0  0  0  0  0  0  0  0
   -0.7055   -1.6243   -0.2798 C   0  0  0  0  0  0  0  0  0  0  0  0
    1.2628    1.0062   -0.3406 C   0  0  0  0  0  0  0  0  0  0  0  0
   -3.3468   -0.7347    0.2139 C   0  0  0  0  0  0  0  0  0  0  0  0
   -0.6812    3.4445    0.1881 C   0  0  0  0  0  0  0  0  0  0  0  0
   -1.7664   -2.5336   -0.1995 C   0  0  0  0  0  0  0  0  0  0  0  0
   -3.0660   -2.0936    0.0436 C   0  0  0  0  0  0  0  0  0  0  0  0
    2.1209   -0.2128   -0.5878 C   0  0  0  0  0  0  0  0  0  0  0  0
    3.5161   -2.0065    0.4317 C   0  0  0  0  0  0  0  0  0  0  0  0
    2.4663   -0.3042    1.8812 C   0  0  0  0  0  0  0  0  0  0  0  0
  1 10  2  0
  2 15  2  0
  3  7  1  0
  3  8  1  0
  4 15  1  0
  4 16  1  0
  4 17  1  0
  5  6  1  0
  5  7  2  0
  5  9  1  0
  6  8  2  0
  6 10  1  0
  7 11  1  0
  8 12  1  0
  9 13  2  0
 10 15  1  0
 11 14  2  0
 13 14  1  0
M  END
>  <PUBCHEM_COMPOUND_CID>  (1) 
14134

>  <PUBCHEM_CONFORMER_RMSD>  (1) 
0.6

>  <PUBCHEM_CONFORMER_DIVERSEORDER>  (1) 
2
4
13
1
3
14
5
10
6
11
9
8
7
12

>  <PUBCHEM_MMFF94_PARTIAL_CHARGES>  (1) 
21
1 -0.57
10 0.66
11 -0.15
12 0.18
13 -0.15
14 -0.15
15 0.63
16 0.3
17 0.3
18 0.27
19 0.15
2 -0.57
20 0.15
24 0.15
25 0.15
3 0.03
4 -0.66
6 -0.09
7 -0.15
8 -0.33
9 -0.15

>  <PUBCHEM_EFFECTIVE_ROTOR_COUNT>  (1) 
3

>  <PUBCHEM_PHARMACOPHORE_FEATURES>  (1) 
6
1 1 acceptor
1 2 acceptor
1 3 cation
1 3 donor
5 3 5 6 7 8 rings
6 5 7 9 11 13 14 rings

>  <PUBCHEM_HEAVY_ATOM_COUNT>  (1) 
17

>  <PUBCHEM_ATOM_DEF_STEREO_COUNT>  (1) 
0

>  <PUBCHEM_ATOM_UDEF_STEREO_COUNT>  (1) 
0

>  <PUBCHEM_BOND_DEF_STEREO_COUNT>  (1) 
0

>  <PUBCHEM_BOND_UDEF_STEREO_COUNT>  (1) 
0

>  <PUBCHEM_ISOTOPIC_ATOM_COUNT>  (1) 
0

>  <PUBCHEM_COMPONENT_COUNT>  (1) 
1

>  <PUBCHEM_CACTVS_TAUTO_COUNT>  (1) 
7

>  <PUBCHEM_CONFORMER_ID>  (1) 
0000373600000002

>  <PUBCHEM_MMFF94_ENERGY>  (1) 
30.4712

>  <PUBCHEM_FEATURE_SELFOVERLAP>  (1) 
30.539

>  <PUBCHEM_SHAPE_FINGERPRINT>  (1) 
10967382 1 18051416467871656527
11578080 2 17459444733553484788
12382932 28 18198338648692446161
12553582 1 18338804514874103687
13083527 12 17548946289618308691
13140716 1 18411989035579737457
13538477 17 18261397702303710156
14022347 108 18194433097876465623
15001771 113 18334574654944756002
15076042 46 18410573946507314481
15375462 175 18196957494578914750
15375462 189 18119256305282882403
16752209 62 18262792948378967527
16945 1 18267311936774127669
17804303 29 18198904721488303978
17990270 104 18054800751608361239
19049666 15 17557707954272264694
19591789 44 17404326005088399085
20510252 161 18199746947020614880
20559304 39 18265050425765099042
21650355 55 18338782447294973552
2255824 54 17542223909996646357
23184049 29 18410571794871130500
232386 152 18335138674651281510
2334 1 18339930432155792973
23388829 49 17337854372132004711
23419403 2 16962321574534130176
23463225 33 18410295847623058727
23552423 10 17760932144601914159
23559900 14 18199754648709113078
23598291 2 17533236179991870606
23598294 1 18337690636612072425
257057 1 18339068410522914831
2748010 2 18341334469881438381
34934 24 18196372743609109541
427121 178 16266349174316805633
58807428 26 17401768519066248177
6338986 31 18197482129414334303
7364860 26 17695074687879887893
81228 2 18343026545256827849

>  <PUBCHEM_SHAPE_MULTIPOLES>  (1) 
328.15
5.09
3.2
1.03
1.04
1.63
0.11
-3.27
0.72
-1
0.07
0.95
-0.16
-0.38

>  <PUBCHEM_SHAPE_SELFOVERLAP>  (1) 
707.029

>  <PUBCHEM_SHAPE_VOLUME>  (1) 
182.9

>  <PUBCHEM_COORDINATE_TYPE>  (1) 
2
5
10

$$$$
