14148
     RDKit          3D

 18 19  0  0  1  0  0  0  0  0999 V2000
   -2.2316   -2.4263   -0.8464 O   0  0  0  0  0  0  0  0  0  0  0  0
   -0.1358   -1.8113    0.8188 O   0  0  0  0  0  0  0  0  0  0  0  0
    0.5853   -0.2650   -0.7958 N   0  0  0  0  0  0  0  0  0  0  0  0
    2.6324    0.8618   -1.1575 N   0  0  0  0  0  0  0  0  0  0  0  0
   -1.6722   -1.1156   -0.9083 C   0  0  0  0  0  0  0  0  0  0  0  0
   -2.6310   -0.1365   -0.3197 C   0  0  0  0  0  0  0  0  0  0  0  0
   -0.3232   -1.1188   -0.1775 C   0  0  0  0  0  0  0  0  0  0  0  0
   -3.4882   -0.5311    0.7076 C   0  0  0  0  0  0  0  0  0  0  0  0
   -2.6704    1.1741   -0.7961 C   0  0  0  0  0  0  0  0  0  0  0  0
    1.9231   -0.0061   -0.4145 C   0  0  0  0  0  0  0  0  0  0  0  0
    4.4851    0.4671    0.3446 C   0  0  0  0  0  0  0  0  0  0  0  0
    2.3954   -0.6703    0.6975 C   0  0  0  0  0  0  0  0  0  0  0  0
   -4.3849    0.3845    1.2583 C   0  0  0  0  0  0  0  0  0  0  0  0
   -3.5670    2.0896   -0.2451 C   0  0  0  0  0  0  0  0  0  0  0  0
    3.7091   -0.4222    1.0798 C   0  0  0  0  0  0  0  0  0  0  0  0
   -4.4242    1.6948    0.7821 C   0  0  0  0  0  0  0  0  0  0  0  0
    3.9050    1.0777   -0.7556 C   0  0  0  0  0  0  0  0  0  0  0  0
    5.8932    0.7534    0.7279 C   0  0  0  0  0  0  0  0  0  0  0  0
  1  5  1  0
  2  7  2  0
  3  7  1  0
  3 10  1  0
  4 10  2  0
  4 17  1  0
  5  6  1  0
  5  7  1  0
  6  8  2  0
  6  9  1  0
  8 13  1  0
  9 14  2  0
 10 12  1  0
 11 15  1  0
 11 17  2  0
 11 18  1  0
 12 15  2  0
 13 16  2  0
 14 16  1  0
M  END
>  <PUBCHEM_COMPOUND_CID>  (1) 
14148

>  <PUBCHEM_CONFORMER_RMSD>  (1) 
0.6

>  <PUBCHEM_CONFORMER_DIVERSEORDER>  (1) 
2
11
9
4
14
10
5
15
16
3
1
17
7
8
12
6
13

>  <PUBCHEM_MMFF94_PARTIAL_CHARGES>  (1) 
28
1 -0.68
10 0.43
11 -0.14
12 -0.15
13 -0.15
14 -0.15
15 -0.15
16 -0.15
17 0.16
18 0.14
2 -0.57
20 0.15
21 0.15
22 0.37
23 0.15
24 0.15
25 0.15
26 0.15
27 0.15
28 0.15
29 0.4
3 -0.55
4 -0.62
5 0.48
6 -0.14
7 0.57
8 -0.15
9 -0.15

>  <PUBCHEM_EFFECTIVE_ROTOR_COUNT>  (1) 
4

>  <PUBCHEM_PHARMACOPHORE_FEATURES>  (1) 
6
1 1 acceptor
1 1 donor
1 2 acceptor
1 3 donor
6 4 10 11 12 15 17 rings
6 6 8 9 13 14 16 rings

>  <PUBCHEM_HEAVY_ATOM_COUNT>  (1) 
18

>  <PUBCHEM_ATOM_DEF_STEREO_COUNT>  (1) 
0

>  <PUBCHEM_ATOM_UDEF_STEREO_COUNT>  (1) 
1

>  <PUBCHEM_BOND_DEF_STEREO_COUNT>  (1) 
0

>  <PUBCHEM_BOND_UDEF_STEREO_COUNT>  (1) 
0

>  <PUBCHEM_ISOTOPIC_ATOM_COUNT>  (1) 
0

>  <PUBCHEM_COMPONENT_COUNT>  (1) 
1

>  <PUBCHEM_CACTVS_TAUTO_COUNT>  (1) 
3

>  <PUBCHEM_CONFORMER_ID>  (1) 
0000374400000002

>  <PUBCHEM_MMFF94_ENERGY>  (1) 
48.9114

>  <PUBCHEM_FEATURE_SELFOVERLAP>  (1) 
30.451

>  <PUBCHEM_SHAPE_FINGERPRINT>  (1) 
10291535 26 17060341837653863354
10354089 29 18040157310126908152
11543360 7 13182728243498959601
11552529 35 17241902075287744843
11796584 16 12253274746966793984
12403259 118 18040721346659992061
12403814 3 18113898256530407725
12500047 106 17775560974953188750
12507557 5 17676203576465026365
12596602 18 17022906778222248144
12670546 177 12535344588746656264
12892183 10 17676207927145214057
13583140 156 17168134629273476061
13675066 3 18334295344774110730
14004511 7 18334853935351466502
14123255 352 18272647935233440208
14341114 328 17604446144875092025
15188451 53 15864363492743580601
15209294 21 18408037416358568052
15880784 105 14707219845752608201
1741750 31 18202566159543565295
17870717 6 9367349240970305913
1798214 20 10735872850679814984
18186145 218 16415760820976831519
193927 3 11097862847678807425
19784866 240 10881697801655821873
19862831 5 12535344588672569261
20261772 1 18260831488138564940
20432913 95 15213019336424454352
20645477 56 18131635603394034655
20871999 31 11887672858079779425
21065199 12 17822013047555536713
22646028 28 9007056868006443433
23402539 116 17561077012697947560
23402655 69 13398640445899847746
23403322 49 8502366729096348177
23557571 272 17417809603441673071
26918003 58 16298385764531623581
270888 7 17986675870672977089
27216 239 18409170991862670137
2916195 48 18059569217737582136
3268164 11 17632003243651595607
351380 3 8574422136869555769
38570 142 17170428292708688620
4028521 119 16917071018974348529
4921388 177 15482660308667609973
5104073 3 18334293132681376778
7226269 152 18201716241661674008

>  <PUBCHEM_SHAPE_MULTIPOLES>  (1) 
348.73
11.4
1.85
1.18
7.76
0.24
-0.07
-5.57
-3.44
-1.82
0.22
-0.1
0
-0.63

>  <PUBCHEM_SHAPE_SELFOVERLAP>  (1) 
743.787

>  <PUBCHEM_SHAPE_VOLUME>  (1) 
192

>  <PUBCHEM_COORDINATE_TYPE>  (1) 
2
5
10

$$$$
