14144
     RDKit          3D

 18 19  0  0  0  0  0  0  0  0999 V2000
   -2.5336    2.0735    0.5188 O   0  0  0  0  0  0  0  0  0  0  0  0
   -1.2486    1.0929    2.0978 O   0  0  0  0  0  0  0  0  0  0  0  0
   -1.4883   -0.0412   -0.0699 C   0  0  0  0  0  0  0  0  0  0  0  0
   -0.0964   -0.6944    0.0895 C   0  0  0  0  0  0  0  0  0  0  0  0
   -2.6352   -1.0965    0.1314 C   0  0  0  0  0  0  0  0  0  0  0  0
   -1.6109    0.5442   -1.5144 C   0  0  0  0  0  0  0  0  0  0  0  0
    1.0475    0.0673   -0.0277 C   0  0  0  0  0  0  0  0  0  0  0  0
   -1.7335    1.0709    0.9728 C   0  0  0  0  0  0  0  0  0  0  0  0
   -0.1022   -2.0436    0.3465 C   0  0  0  0  0  0  0  0  0  0  0  0
   -4.0630   -0.5623    0.0194 C   0  0  0  0  0  0  0  0  0  0  0  0
   -1.4234   -0.4457   -2.6636 C   0  0  0  0  0  0  0  0  0  0  0  0
    2.2911   -0.5903    0.1282 C   0  0  0  0  0  0  0  0  0  0  0  0
    1.0284    1.4466   -0.2910 C   0  0  0  0  0  0  0  0  0  0  0  0
    1.1205   -2.6903    0.4997 C   0  0  0  0  0  0  0  0  0  0  0  0
    2.3101   -1.9697    0.3916 C   0  0  0  0  0  0  0  0  0  0  0  0
    3.4787    0.1508    0.0161 C   0  0  0  0  0  0  0  0  0  0  0  0
    2.2181    2.1673   -0.3992 C   0  0  0  0  0  0  0  0  0  0  0  0
    3.4409    1.5205   -0.2459 C   0  0  0  0  0  0  0  0  0  0  0  0
  1  8  1  0
  2  8  2  0
  3  4  1  0
  3  5  1  0
  3  6  1  0
  3  8  1  0
  4  7  2  0
  4  9  1  0
  5 10  1  0
  6 11  1  0
  7 12  1  0
  7 13  1  0
  9 14  2  0
 12 15  2  0
 12 16  1  0
 13 17  2  0
 14 15  1  0
 16 18  2  0
 17 18  1  0
M  END
>  <PUBCHEM_COMPOUND_CID>  (1) 
14144

>  <PUBCHEM_CONFORMER_RMSD>  (1) 
0.6

>  <PUBCHEM_CONFORMER_DIVERSEORDER>  (1) 
1
6
4
2
5
3

>  <PUBCHEM_MMFF94_PARTIAL_CHARGES>  (1) 
20
1 -0.65
13 -0.15
14 -0.15
15 -0.15
16 -0.15
17 -0.15
18 -0.15
2 -0.57
23 0.15
3 0.2
30 0.15
31 0.15
32 0.15
33 0.15
34 0.15
35 0.5
36 0.15
4 -0.14
8 0.66
9 -0.15

>  <PUBCHEM_EFFECTIVE_ROTOR_COUNT>  (1) 
4

>  <PUBCHEM_PHARMACOPHORE_FEATURES>  (1) 
7
1 1 acceptor
1 10 hydrophobe
1 11 hydrophobe
1 2 acceptor
3 1 2 8 anion
6 4 7 9 12 14 15 rings
6 7 12 13 16 17 18 rings

>  <PUBCHEM_HEAVY_ATOM_COUNT>  (1) 
18

>  <PUBCHEM_ATOM_DEF_STEREO_COUNT>  (1) 
0

>  <PUBCHEM_ATOM_UDEF_STEREO_COUNT>  (1) 
0

>  <PUBCHEM_BOND_DEF_STEREO_COUNT>  (1) 
0

>  <PUBCHEM_BOND_UDEF_STEREO_COUNT>  (1) 
0

>  <PUBCHEM_ISOTOPIC_ATOM_COUNT>  (1) 
0

>  <PUBCHEM_COMPONENT_COUNT>  (1) 
1

>  <PUBCHEM_CACTVS_TAUTO_COUNT>  (1) 
1

>  <PUBCHEM_CONFORMER_ID>  (1) 
0000374000000001

>  <PUBCHEM_MMFF94_ENERGY>  (1) 
70.9908

>  <PUBCHEM_FEATURE_SELFOVERLAP>  (1) 
35.608

>  <PUBCHEM_SHAPE_FINGERPRINT>  (1) 
10863032 1 18336827503026016445
10967382 1 18336266833515554546
11640471 11 17988083266487638504
12553582 1 17615402563482204138
13140716 1 17975693110714836538
13294875 104 15146542700121102550
13538477 17 17917702535129844407
13898156 1 17702932639479311366
14178342 30 18266166249858020354
14787075 74 17910398617105192875
14817 1 15694861542516481246
15219456 202 17967520260286122791
15309172 13 18187653547697043864
15775835 57 18041561472158509780
16752209 62 17418083275006145405
16945 1 18267285681433325414
18219364 16 18113896065817258452
200 152 18341886428902668975
20510252 161 17763192731939760304
21501502 16 18336266730436261587
21524375 3 18187646959539244634
22112679 90 17345735512814117647
228727 97 18059858401990431457
2334 1 18408884001762900874
23402539 116 18128531750993982788
23419403 2 15174074531510531875
23557571 272 15912747505685995842
238 59 17826757504548645622
2748010 2 18261385586459677814
3286 77 18186802443866147175
4340502 62 18336832012936973203
45790113 50 18341899579902703271
63268167 104 18337388249529177280
6992083 37 17623016694061777323
7364860 26 18411985732697164918
77492 1 18059848441913734229
7832392 63 18124317103644125304
81228 2 17035276520484470642
8272917 22 18411426072873152799
90525 40 17846217709271985319

>  <PUBCHEM_SHAPE_MULTIPOLES>  (1) 
358.69
5.31
2.46
1.43
0.25
0.69
-0.67
-1.01
0.02
-1.16
0.45
1.17
-0.31
-0.58

>  <PUBCHEM_SHAPE_SELFOVERLAP>  (1) 
770.868

>  <PUBCHEM_SHAPE_VOLUME>  (1) 
197.9

>  <PUBCHEM_COORDINATE_TYPE>  (1) 
2
5
10

$$$$
