1416
     RDKit          3D

 21 21  0  0  1  0  0  0  0  0999 V2000
   -4.6041   -2.0470    0.4566 O   0  0  0  0  0  0  0  0  0  0  0  0
    5.0528   -1.1267   -0.5388 O   0  0  0  0  0  0  0  0  0  0  0  0
    4.8152    1.0264   -1.2433 O   0  0  0  0  0  0  0  0  0  0  0  0
   -3.2464   -1.7051    0.7635 C   0  0  0  0  0  0  0  0  0  0  0  0
   -3.9660   -1.0944   -0.4038 C   0  0  0  0  0  0  0  0  0  0  0  0
   -2.2758   -2.8064    0.5685 C   0  0  0  0  0  0  0  0  0  0  0  0
   -4.5285    0.2931   -0.3232 C   0  0  0  0  0  0  0  0  0  0  0  0
   -0.8810   -2.2944    0.1831 C   0  0  0  0  0  0  0  0  0  0  0  0
    0.1249   -3.4356    0.0274 C   0  0  0  0  0  0  0  0  0  0  0  0
   -3.6843    1.4388   -0.8112 C   0  0  0  0  0  0  0  0  0  0  0  0
    1.4993   -2.9125   -0.3887 C   0  0  0  0  0  0  0  0  0  0  0  0
   -3.2192    2.4646   -0.0818 C   0  0  0  0  0  0  0  0  0  0  0  0
   -2.3730    3.5702   -0.6474 C   0  0  0  0  0  0  0  0  0  0  0  0
   -1.0195    3.7179    0.0556 C   0  0  0  0  0  0  0  0  0  0  0  0
   -0.1187    2.4877   -0.0909 C   0  0  0  0  0  0  0  0  0  0  0  0
    1.2045    2.6791    0.6540 C   0  0  0  0  0  0  0  0  0  0  0  0
    2.1207    1.4659    0.4818 C   0  0  0  0  0  0  0  0  0  0  0  0
    2.4935   -4.0474   -0.5768 C   0  0  0  0  0  0  0  0  0  0  0  0
    3.4569    1.6732    1.2006 C   0  0  0  0  0  0  0  0  0  0  0  0
    4.3820    0.4667    1.0716 C   0  0  0  0  0  0  0  0  0  0  0  0
    4.7668    0.1858   -0.3567 C   0  0  0  0  0  0  0  0  0  0  0  0
  1  4  1  0
  1  5  1  0
  2 21  1  0
  3 21  2  0
  4  5  1  0
  4  6  1  0
  5  7  1  0
  6  8  1  0
  7 10  1  0
  8  9  1  0
  9 11  1  0
 10 12  2  0
 11 18  1  0
 12 13  1  0
 13 14  1  0
 14 15  1  0
 15 16  1  0
 16 17  1  0
 17 19  1  0
 19 20  1  0
 20 21  1  0
M  END
>  <PUBCHEM_COMPOUND_CID>  (1) 
1416

>  <PUBCHEM_CONFORMER_RMSD>  (1) 
1.6

>  <PUBCHEM_CONFORMER_DIVERSEORDER>  (1) 
1
9
13
16
25
7
20
28
30
23
37
10
46
32
5
27
6
41
43
18
39
26
35
8
34
36
48
50
31
3
45
29
12
17
22
4
49
52
51
38
33
42
24
14
2
15
40
44
11
47
21
19

>  <PUBCHEM_MMFF94_PARTIAL_CHARGES>  (1) 
17
1 -0.3
10 -0.29
12 -0.29
13 0.14
2 -0.65
20 0.06
21 0.66
22 0.1
23 0.1
3 -0.57
32 0.15
35 0.15
4 -0.05
5 -0.05
53 0.5
6 0.09
7 0.23

>  <PUBCHEM_EFFECTIVE_ROTOR_COUNT>  (1) 
14.6

>  <PUBCHEM_PHARMACOPHORE_FEATURES>  (1) 
6
1 1 acceptor
1 18 hydrophobe
1 2 acceptor
1 3 acceptor
3 2 3 21 anion
4 6 8 9 11 hydrophobe

>  <PUBCHEM_HEAVY_ATOM_COUNT>  (1) 
21

>  <PUBCHEM_ATOM_DEF_STEREO_COUNT>  (1) 
0

>  <PUBCHEM_ATOM_UDEF_STEREO_COUNT>  (1) 
2

>  <PUBCHEM_BOND_DEF_STEREO_COUNT>  (1) 
0

>  <PUBCHEM_BOND_UDEF_STEREO_COUNT>  (1) 
1

>  <PUBCHEM_ISOTOPIC_ATOM_COUNT>  (1) 
0

>  <PUBCHEM_COMPONENT_COUNT>  (1) 
1

>  <PUBCHEM_CACTVS_TAUTO_COUNT>  (1) 
1

>  <PUBCHEM_CONFORMER_ID>  (1) 
0000058800000001

>  <PUBCHEM_MMFF94_ENERGY>  (1) 
4.8382

>  <PUBCHEM_FEATURE_SELFOVERLAP>  (1) 
30.503

>  <PUBCHEM_SHAPE_FINGERPRINT>  (1) 
11014199 57 16681748399495812338
12038231 1 17978222756268299569
13402501 40 18411417340945949767
14251757 17 18342741784440244714
14251757 5 18191316072653500204
14251764 38 18263925436623737010
14363568 33 17758700109922121057
144659 178 18335992969474620316
14647877 51 18125151641865737354
15927050 60 18196361521698854989
20398071 114 18048029679894828957
238918 7 18272075115898840402
3014063 31 18412545384231727986
3027735 51 18341894069718112513
325973 47 18337954596633204004
3298306 158 18413100654335114391
338550 245 18192428576784004886
373842 8 18121488065191400786
463206 1 17837773327343728272
5047190 48 17764297741158148728
56633871 153 18050575342014985179
59755656 215 18410005508145053261
6433294 58 18124031230773682846

>  <PUBCHEM_SHAPE_MULTIPOLES>  (1) 
414.56
10.61
6.16
0.98
5.43
1.63
-0.04
-0.01
1.09
-1.34
0.28
0.56
-0.14
1.88

>  <PUBCHEM_SHAPE_SELFOVERLAP>  (1) 
780.851

>  <PUBCHEM_SHAPE_VOLUME>  (1) 
257.1

>  <PUBCHEM_COORDINATE_TYPE>  (1) 
2
5
10

$$$$
