14187
     RDKit          3D

 23 26  0  0  0  0  0  0  0  0999 V2000
    0.3350    2.3531    0.9089 O   0  0  0  0  0  0  0  0  0  0  0  0
    1.8044    2.8466   -1.3587 O   0  0  0  0  0  0  0  0  0  0  0  0
    0.0109    0.6891   -1.3269 C   0  0  0  0  0  0  0  0  0  0  0  0
   -1.0486    0.7855   -0.2698 C   0  0  0  0  0  0  0  0  0  0  0  0
    1.4108    0.5524   -0.7719 C   0  0  0  0  0  0  0  0  0  0  0  0
   -2.2397    0.0471   -0.3622 C   0  0  0  0  0  0  0  0  0  0  0  0
    1.8499   -0.6571   -0.2253 C   0  0  0  0  0  0  0  0  0  0  0  0
   -3.2111    0.1703    0.6594 C   0  0  0  0  0  0  0  0  0  0  0  0
    3.1684   -0.7379    0.2824 C   0  0  0  0  0  0  0  0  0  0  0  0
   -0.8187    1.6332    0.8142 C   0  0  0  0  0  0  0  0  0  0  0  0
    2.2364    1.6686   -0.8259 C   0  0  0  0  0  0  0  0  0  0  0  0
   -2.4879   -0.8109   -1.4461 C   0  0  0  0  0  0  0  0  0  0  0  0
    1.0210   -1.7893   -0.1671 C   0  0  0  0  0  0  0  0  0  0  0  0
   -2.9629    1.0280    1.7436 C   0  0  0  0  0  0  0  0  0  0  0  0
    3.9976    0.3942    0.2239 C   0  0  0  0  0  0  0  0  0  0  0  0
   -1.7739    1.7541    1.8190 C   0  0  0  0  0  0  0  0  0  0  0  0
    3.5332    1.5890   -0.3270 C   0  0  0  0  0  0  0  0  0  0  0  0
   -4.4023   -0.5680    0.5672 C   0  0  0  0  0  0  0  0  0  0  0  0
    3.6193   -1.9485    0.8333 C   0  0  0  0  0  0  0  0  0  0  0  0
   -3.6771   -1.5366   -1.5215 C   0  0  0  0  0  0  0  0  0  0  0  0
    1.4855   -2.9840    0.3840 C   0  0  0  0  0  0  0  0  0  0  0  0
   -4.6324   -1.4155   -0.5168 C   0  0  0  0  0  0  0  0  0  0  0  0
    2.7821   -3.0634    0.8834 C   0  0  0  0  0  0  0  0  0  0  0  0
  1 10  1  0
  2 11  1  0
  3  4  1  0
  3  5  1  0
  4  6  1  0
  4 10  2  0
  5  7  1  0
  5 11  2  0
  6  8  2  0
  6 12  1  0
  7  9  2  0
  7 13  1  0
  8 14  1  0
  8 18  1  0
  9 15  1  0
  9 19  1  0
 10 16  1  0
 11 17  1  0
 12 20  2  0
 13 21  2  0
 14 16  2  0
 15 17  2  0
 18 22  2  0
 19 23  2  0
 20 22  1  0
 21 23  1  0
M  END
>  <PUBCHEM_COMPOUND_CID>  (1) 
14187

>  <PUBCHEM_CONFORMER_RMSD>  (1) 
0.6

>  <PUBCHEM_CONFORMER_DIVERSEORDER>  (1) 
1
3
6
4
5
2

>  <PUBCHEM_MMFF94_PARTIAL_CHARGES>  (1) 
33
1 -0.53
10 0.08
11 0.08
12 -0.15
13 -0.15
14 -0.15
15 -0.15
16 -0.15
17 -0.15
18 -0.15
19 -0.15
2 -0.53
20 -0.15
21 -0.15
22 -0.15
23 -0.15
26 0.15
27 0.15
28 0.15
29 0.15
3 0.29
30 0.15
31 0.15
32 0.15
33 0.15
34 0.15
35 0.15
36 0.15
37 0.15
38 0.45
39 0.45
4 -0.14
5 -0.14

>  <PUBCHEM_EFFECTIVE_ROTOR_COUNT>  (1) 
2

>  <PUBCHEM_PHARMACOPHORE_FEATURES>  (1) 
6
1 1 donor
1 2 donor
6 4 6 8 10 14 16 rings
6 5 7 9 11 15 17 rings
6 6 8 12 18 20 22 rings
6 7 9 13 19 21 23 rings

>  <PUBCHEM_HEAVY_ATOM_COUNT>  (1) 
23

>  <PUBCHEM_ATOM_DEF_STEREO_COUNT>  (1) 
0

>  <PUBCHEM_ATOM_UDEF_STEREO_COUNT>  (1) 
0

>  <PUBCHEM_BOND_DEF_STEREO_COUNT>  (1) 
0

>  <PUBCHEM_BOND_UDEF_STEREO_COUNT>  (1) 
0

>  <PUBCHEM_ISOTOPIC_ATOM_COUNT>  (1) 
0

>  <PUBCHEM_COMPONENT_COUNT>  (1) 
1

>  <PUBCHEM_CACTVS_TAUTO_COUNT>  (1) 
5

>  <PUBCHEM_CONFORMER_ID>  (1) 
0000376B00000001

>  <PUBCHEM_MMFF94_ENERGY>  (1) 
86.348

>  <PUBCHEM_FEATURE_SELFOVERLAP>  (1) 
30.506

>  <PUBCHEM_SHAPE_FINGERPRINT>  (1) 
10090160 65 18263360450950509560
1100329 8 18122902294694285512
11578080 2 18198595831598849169
12236239 1 18272093828575373069
12363563 72 17240765021593251282
12553582 1 18118131281465374598
12596599 1 18128257770587913190
12788726 201 17845947294495392955
13004483 165 17975964372100860145
13009979 54 18128817452292710146
13140716 1 18119808264536338314
13224815 77 18412263917354244079
13544653 18 18114181891284740006
13583140 156 18263385667120600201
13726171 33 16629980900747330088
13911987 19 17607543606374676436
13965767 371 17554642532786553441
14081887 123 16988844951981413203
14178342 30 17983007856500123602
14223421 5 18199187287196440014
14341114 328 18130793364475565154
14713325 29 11667779419176334126
14787075 74 17986384714554734968
14844126 61 16457117551082072650
15099037 8 18339921502739391115
15375462 189 18343582984087223103
15475509 35 18122071068573941851
16945 1 18187089472546658700
17138139 8 17766829903013789191
17349148 13 18334008410846468466
17492 89 18340770330164722703
1813 80 18191598458184630358
18981168 100 13470104299078953354
200 152 18410289224820151757
20028762 73 18342731927781373398
20511986 3 18342726404499993801
20645477 70 17822289119183781543
20715895 44 17908984310524634741
21421861 104 18269291100780281179
22112679 90 18060422408664153925
2255824 54 18262528090667876004
23559900 14 18335692806614552048
23598288 3 17916860232150803733
23728640 28 16025049033376723458
33382 64 18115877480824722707
34934 24 18131358505442854697
3797600 57 17704352169521161368
392239 28 17987779939044140034
4409770 3 16392975306665860118
474 4 18335425732905992444
6287921 2 17986959556951287502
7097593 13 17982738467387193634

>  <PUBCHEM_SHAPE_MULTIPOLES>  (1) 
461.59
7.96
3.06
1.48
3.29
0.78
0.09
2.96
0.43
-2.33
0.39
0.94
-0.39
-2.28

>  <PUBCHEM_SHAPE_SELFOVERLAP>  (1) 
1050.967

>  <PUBCHEM_SHAPE_VOLUME>  (1) 
239.3

>  <PUBCHEM_COORDINATE_TYPE>  (1) 
2
5
10

$$$$
