14196
     RDKit          3D

 26 29  0  0  0  0  0  0  0  0999 V2000
    3.4366    1.1999   -0.3379 N   0  0  0  0  0  0  0  0  0  0  0  0
   -3.4372    1.2009    0.3373 N   0  0  0  0  0  0  0  0  0  0  0  0
    0.7195    1.2001   -0.0707 C   0  0  0  0  0  0  0  0  0  0  0  0
   -0.7201    1.2007    0.0707 C   0  0  0  0  0  0  0  0  0  0  0  0
    4.8896    1.2002   -0.4808 C   0  0  0  0  0  0  0  0  0  0  0  0
   -4.8903    1.2005    0.4798 C   0  0  0  0  0  0  0  0  0  0  0  0
    1.2994    0.8876   -1.2967 C   0  0  0  0  0  0  0  0  0  0  0  0
   -1.5274    1.5122   -1.0192 C   0  0  0  0  0  0  0  0  0  0  0  0
    1.5270    1.5124    1.0188 C   0  0  0  0  0  0  0  0  0  0  0  0
   -1.3002    0.8892    1.2967 C   0  0  0  0  0  0  0  0  0  0  0  0
    2.6829    0.8955   -1.4031 C   0  0  0  0  0  0  0  0  0  0  0  0
   -2.9052    1.5043   -0.8545 C   0  0  0  0  0  0  0  0  0  0  0  0
    2.9047    1.5044    0.8538 C   0  0  0  0  0  0  0  0  0  0  0  0
   -2.6837    0.8972    1.4029 C   0  0  0  0  0  0  0  0  0  0  0  0
    5.4674   -0.1540   -0.1725 C   0  0  0  0  0  0  0  0  0  0  0  0
   -5.4674   -0.1541    0.1722 C   0  0  0  0  0  0  0  0  0  0  0  0
    5.6162   -1.0834   -1.1934 C   0  0  0  0  0  0  0  0  0  0  0  0
   -5.6161   -1.0829    1.1938 C   0  0  0  0  0  0  0  0  0  0  0  0
    5.8451   -0.4573    1.1289 C   0  0  0  0  0  0  0  0  0  0  0  0
   -5.8444   -0.4586   -1.1290 C   0  0  0  0  0  0  0  0  0  0  0  0
    6.1521   -2.3391   -0.9077 C   0  0  0  0  0  0  0  0  0  0  0  0
   -6.1513   -2.3391    0.9088 C   0  0  0  0  0  0  0  0  0  0  0  0
    6.3811   -1.7130    1.4144 C   0  0  0  0  0  0  0  0  0  0  0  0
   -6.3798   -1.7148   -1.4139 C   0  0  0  0  0  0  0  0  0  0  0  0
    6.5347   -2.6539    0.3960 C   0  0  0  0  0  0  0  0  0  0  0  0
   -6.5332   -2.6550   -0.3949 C   0  0  0  0  0  0  0  0  0  0  0  0
  1  5  1  0
  1 11  2  0
  1 13  1  0
  2  6  1  0
  2 12  2  0
  2 14  1  0
  3  4  1  0
  3  7  2  0
  3  9  1  0
  4  8  2  0
  4 10  1  0
  5 15  1  0
  6 16  1  0
  7 11  1  0
  8 12  1  0
  9 13  2  0
 10 14  2  0
 15 17  2  0
 15 19  1  0
 16 18  2  0
 16 20  1  0
 17 21  1  0
 18 22  1  0
 19 23  2  0
 20 24  2  0
 21 25  2  0
 22 26  2  0
 23 25  1  0
 24 26  1  0
M  CHG  2   1   1   2   1
M  END
>  <PUBCHEM_COMPOUND_CID>  (1) 
14196

>  <PUBCHEM_CONFORMER_RMSD>  (1) 
0.8

>  <PUBCHEM_CONFORMER_DIVERSEORDER>  (1) 
1
9
11
10
7
2
4
6
8
5
3

>  <PUBCHEM_MMFF94_PARTIAL_CHARGES>  (1) 
42
1 -0.21
10 -0.15
11 0.21
12 0.21
13 0.21
14 0.21
15 -0.14
16 -0.14
17 -0.15
18 -0.15
19 -0.15
2 -0.21
20 -0.15
21 -0.15
22 -0.15
23 -0.15
24 -0.15
25 -0.15
26 -0.15
31 0.15
32 0.15
33 0.15
34 0.15
35 0.15
36 0.15
37 0.15
38 0.15
39 0.15
40 0.15
41 0.15
42 0.15
43 0.15
44 0.15
45 0.15
46 0.15
47 0.15
48 0.15
5 0.63
6 0.63
7 -0.15
8 -0.15
9 -0.15

>  <PUBCHEM_EFFECTIVE_ROTOR_COUNT>  (1) 
5

>  <PUBCHEM_PHARMACOPHORE_FEATURES>  (1) 
4
6 1 3 7 9 11 13 rings
6 15 17 19 21 23 25 rings
6 16 18 20 22 24 26 rings
6 2 4 8 10 12 14 rings

>  <PUBCHEM_HEAVY_ATOM_COUNT>  (1) 
26

>  <PUBCHEM_ATOM_DEF_STEREO_COUNT>  (1) 
0

>  <PUBCHEM_ATOM_UDEF_STEREO_COUNT>  (1) 
0

>  <PUBCHEM_BOND_DEF_STEREO_COUNT>  (1) 
0

>  <PUBCHEM_BOND_UDEF_STEREO_COUNT>  (1) 
0

>  <PUBCHEM_ISOTOPIC_ATOM_COUNT>  (1) 
0

>  <PUBCHEM_COMPONENT_COUNT>  (1) 
1

>  <PUBCHEM_CACTVS_TAUTO_COUNT>  (1) 
1

>  <PUBCHEM_CONFORMER_ID>  (1) 
0000377400000001

>  <PUBCHEM_MMFF94_ENERGY>  (1) 
86.1061

>  <PUBCHEM_FEATURE_SELFOVERLAP>  (1) 
20.3

>  <PUBCHEM_SHAPE_FINGERPRINT>  (1) 
10 15 15267339626163143816
10066227 112 8214148451619511411
10693767 8 17385714765233963650
10730089 47 18408885131376132120
11393246 34 18334295335962785939
11646440 116 15482673481163287144
11991303 11 14924237048517141923
12166972 35 18335707160527858220
12895837 130 10881667024247544539
13167372 99 9799695883260706990
13533116 47 18412265047664061048
1361 4 18338800142481533682
13782708 43 18410855464423226528
14211702 104 18272097079834285982
14347332 77 18040712520269973060
14849402 71 11239702120058775131
14951699 99 9943812204992028123
15183329 4 17385722491305018082
15188451 53 18343580754951749845
15326921 28 15553342302401296235
15352257 5 18410576188470057259
15475509 35 18343577435364062594
15575132 122 11602826782823555386
16994733 274 9727627293996147814
190975 80 16845283977484100135
19377110 9 15841551877008423540
19958102 18 17530963600710071995
20028762 73 18412826855051180254
2026 5 18410570687350901783
20281389 69 9871755684875044829
20567600 247 18334293137356177626
21033648 29 12031523115989054567
21130935 74 18272089379368965210
21298829 104 9583222956196095882
21424621 283 11024113157064921413
21521239 73 17894628171161067090
21585481 151 17914904141305706454
21585482 111 10447931663715243986
21585483 132 18187632601005476874
21637258 2 18410571790423552641
2215653 11 16877666742949245688
23081809 10 18336557070015098173
23522609 53 18122659173133145120
23559900 14 17095531750319799493
25122255 55 18335709359656206187
2747138 104 17703508793048527946
2838139 119 11458692946289896367
29717793 49 17458346346864164044
328310 630 11241967062630173815
3383291 50 18343580746104294254
3504750 166 18194119620697837169
3680242 22 14261350224606082298
392239 28 16056875858036989329
4058900 60 12324232833076249529
439807 62 18341614841463036399
465052 167 18201722838842008692
504579 68 15864064356228358237
5104073 3 15697703926103222081
531348 171 18260546672252323837
5718773 13 18410852165888531586
59682541 52 16081081550856715202
6328613 192 8430316835734432471

>  <PUBCHEM_SHAPE_MULTIPOLES>  (1) 
525.11
21.76
2.72
1.51
0.02
1.83
0
20.05
0
0
0
0
0.11
-0.57

>  <PUBCHEM_SHAPE_SELFOVERLAP>  (1) 
1157.746

>  <PUBCHEM_SHAPE_VOLUME>  (1) 
281.3

>  <PUBCHEM_COORDINATE_TYPE>  (1) 
2
5
10

$$$$
