1419
     RDKit          3D

 29 32  0  0  1  0  0  0  0  0999 V2000
   -1.5688   -2.6481    0.0129 O   0  0  0  0  0  0  0  0  0  0  0  0
    2.7678   -0.6658   -0.4556 O   0  0  0  0  0  0  0  0  0  0  0  0
   -1.1190    2.1475    0.1078 O   0  0  0  0  0  0  0  0  0  0  0  0
   -0.9531    4.4247    0.1911 O   0  0  0  0  0  0  0  0  0  0  0  0
   -3.4006    0.8385   -0.9239 N   0  0  0  0  0  0  0  0  0  0  0  0
   -3.9428    1.8767   -0.5157 N   0  0  0  0  0  0  0  0  0  0  0  0
   -4.4441    2.8355   -0.1549 N   0  0  0  0  0  0  0  0  0  0  0  0
   -3.6417   -1.3891    0.0131 C   0  0  0  0  0  0  0  0  0  0  0  0
   -2.8741   -0.0540    0.1232 C   0  0  0  0  0  0  0  0  0  0  0  0
   -2.8194   -2.4887    0.6990 C   0  0  0  0  0  0  0  0  0  0  0  0
   -1.3750   -0.2331    0.0043 C   0  0  0  0  0  0  0  0  0  0  0  0
   -0.8073   -1.5081   -0.0566 C   0  0  0  0  0  0  0  0  0  0  0  0
    0.5805   -1.6687   -0.2191 C   0  0  0  0  0  0  0  0  0  0  0  0
   -0.5059    0.8761   -0.0246 C   0  0  0  0  0  0  0  0  0  0  0  0
    0.8867    0.7689   -0.1652 C   0  0  0  0  0  0  0  0  0  0  0  0
    1.4168   -0.5353   -0.2677 C   0  0  0  0  0  0  0  0  0  0  0  0
   -5.0509   -1.2464    0.5965 C   0  0  0  0  0  0  0  0  0  0  0  0
    3.4104   -1.9315   -0.2170 C   0  0  0  0  0  0  0  0  0  0  0  0
   -3.4950   -3.8571    0.6696 C   0  0  0  0  0  0  0  0  0  0  0  0
    1.6722    2.0275   -0.1905 C   0  0  0  0  0  0  0  0  0  0  0  0
    1.1720   -3.0004   -0.3436 C   0  0  0  0  0  0  0  0  0  0  0  0
    2.5001   -3.1216   -0.3314 C   0  0  0  0  0  0  0  0  0  0  0  0
    3.1678    2.0257   -0.3389 C   0  0  0  0  0  0  0  0  0  0  0  0
    4.5177   -2.0379   -1.2726 C   0  0  0  0  0  0  0  0  0  0  0  0
    4.0368   -1.8794    1.1811 C   0  0  0  0  0  0  0  0  0  0  0  0
    1.0417    3.2056   -0.0738 C   0  0  0  0  0  0  0  0  0  0  0  0
   -0.4101    3.3315    0.0845 C   0  0  0  0  0  0  0  0  0  0  0  0
    3.8628    1.9662    1.0154 C   0  0  0  0  0  0  0  0  0  0  0  0
    5.3746    1.9408    0.8524 C   0  0  0  0  0  0  0  0  0  0  0  0
  1 10  1  0
  1 12  1  0
  2 16  1  0
  2 18  1  0
  3 14  1  0
  3 27  1  0
  4 27  2  0
  5  6  2  0
  5  9  1  0
  6  7  2  0
  8  9  1  0
  8 10  1  0
  8 17  1  0
  9 11  1  0
 10 19  1  0
 11 12  2  0
 11 14  1  0
 12 13  1  0
 13 16  2  0
 13 21  1  0
 14 15  2  0
 15 16  1  0
 15 20  1  0
 18 22  1  0
 18 24  1  0
 18 25  1  0
 20 23  1  0
 20 26  2  0
 21 22  2  0
 23 28  1  0
 26 27  1  0
 28 29  1  0
M  CHG  2   6   1   7  -1
M  END
>  <PUBCHEM_COMPOUND_CID>  (1) 
1419

>  <PUBCHEM_CONFORMER_RMSD>  (1) 
0.8

>  <PUBCHEM_CONFORMER_DIVERSEORDER>  (1) 
2
7
27
15
31
26
6
28
24
20
23
8
18
21
10
19
9
29
17
32
14
11
25
22
12
16
5
30
13
3
1
4

>  <PUBCHEM_MMFF94_PARTIAL_CHARGES>  (1) 
25
1 -0.36
10 0.28
11 -0.14
12 0.08
13 0.03
14 0.08
15 0.03
16 0.08
18 0.42
2 -0.36
20 -0.17
21 -0.18
22 -0.29
23 0.14
26 -0.14
27 0.71
3 -0.23
39 0.15
4 -0.57
40 0.15
49 0.15
5 -0.56
6 0.69
7 -0.37
9 0.39

>  <PUBCHEM_EFFECTIVE_ROTOR_COUNT>  (1) 
4.2

>  <PUBCHEM_PHARMACOPHORE_FEATURES>  (1) 
9
1 1 acceptor
1 2 acceptor
1 29 hydrophobe
1 4 acceptor
3 18 24 25 hydrophobe
6 1 8 9 10 11 12 rings
6 11 12 13 14 15 16 rings
6 2 13 16 18 21 22 rings
6 3 14 15 20 26 27 rings

>  <PUBCHEM_HEAVY_ATOM_COUNT>  (1) 
29

>  <PUBCHEM_ATOM_DEF_STEREO_COUNT>  (1) 
0

>  <PUBCHEM_ATOM_UDEF_STEREO_COUNT>  (1) 
3

>  <PUBCHEM_BOND_DEF_STEREO_COUNT>  (1) 
0

>  <PUBCHEM_BOND_UDEF_STEREO_COUNT>  (1) 
0

>  <PUBCHEM_ISOTOPIC_ATOM_COUNT>  (1) 
0

>  <PUBCHEM_COMPONENT_COUNT>  (1) 
1

>  <PUBCHEM_CACTVS_TAUTO_COUNT>  (1) 
1

>  <PUBCHEM_CONFORMER_ID>  (1) 
0000058B00000002

>  <PUBCHEM_MMFF94_ENERGY>  (1) 
91.9115

>  <PUBCHEM_FEATURE_SELFOVERLAP>  (1) 
45.75

>  <PUBCHEM_SHAPE_FINGERPRINT>  (1) 
10319926 262 17979332190057468642
10411042 1 18410863156736768079
10906281 52 18126018060969620069
10967382 1 18339082708490207190
1100329 8 18265333906829062601
11513181 2 18131347497220038998
11578080 2 17201889649194379115
11680986 33 18411699889654058436
12422481 6 18196907021062275738
12553582 1 18338808801140747254
12788726 201 17978790108215033323
13140716 1 18409726253397539066
138480 1 18338805622854093415
140371 6 18196660596406390094
14223421 5 18412545384252476178
14466204 15 18194960966437059488
14790565 3 17762346807781984573
14955137 171 18121784099916574136
15420108 30 18058730341631253526
16728300 4 17898538069296770098
16945 1 18267030461729007606
19591789 44 17473829905766266639
19930381 70 17833552671429562667
20028762 73 17481150428478090758
20642791 35 18267866090729283908
20739085 24 18196117575169917603
20905425 154 18339652255460647926
22182313 1 18341336690342503278
2334 1 18267024032183954126
23558518 356 18187649145535186467
23559900 14 18340484470336690798
2748010 2 18339928215804975286
335352 9 18266179422401274375
3380486 145 18335715978490959961
350125 39 18049445034785790189
5104073 3 18409451362568478235
59755656 215 18337389439003120324
9709674 26 18337672018192893575

>  <PUBCHEM_SHAPE_MULTIPOLES>  (1) 
558.39
9.12
5.38
0.88
0.61
1.8
-0.05
-1.43
-1.38
0.35
-0.11
-0.53
-0.23
1.6

>  <PUBCHEM_SHAPE_SELFOVERLAP>  (1) 
1211.153

>  <PUBCHEM_SHAPE_VOLUME>  (1) 
305.1

>  <PUBCHEM_COORDINATE_TYPE>  (1) 
2
5
10

$$$$
