14200
     RDKit          3D

 27 30  0  0  0  0  0  0  0  0999 V2000
   -1.4998   -1.6527    1.3152 S   0  0  0  0  0  0  0  0  0  0  0  0
    0.0585   -1.3228    1.6631 O   0  0  0  0  0  0  0  0  0  0  0  0
   -2.2362   -1.6417    2.5644 O   0  0  0  0  0  0  0  0  0  0  0  0
   -1.5421   -2.7951    0.4238 O   0  0  0  0  0  0  0  0  0  0  0  0
    2.1570    3.0602    1.0889 O   0  0  0  0  0  0  0  0  0  0  0  0
    0.2456    0.5638    0.3858 N   0  0  0  0  0  0  0  0  0  0  0  0
    0.9795    1.1067   -0.4721 N   0  0  0  0  0  0  0  0  0  0  0  0
   -3.3910   -0.1249   -0.0144 C   0  0  0  0  0  0  0  0  0  0  0  0
   -2.0477   -0.2679    0.3700 C   0  0  0  0  0  0  0  0  0  0  0  0
   -3.7769    1.0054   -0.7736 C   0  0  0  0  0  0  0  0  0  0  0  0
   -1.0988    0.6897    0.0111 C   0  0  0  0  0  0  0  0  0  0  0  0
   -2.8083    1.9594   -1.1260 C   0  0  0  0  0  0  0  0  0  0  0  0
    3.0902   -0.1267   -0.5023 C   0  0  0  0  0  0  0  0  0  0  0  0
   -1.4783    1.8013   -0.7355 C   0  0  0  0  0  0  0  0  0  0  0  0
   -4.3595   -1.0787    0.3381 C   0  0  0  0  0  0  0  0  0  0  0  0
    4.4451   -0.2178   -0.1034 C   0  0  0  0  0  0  0  0  0  0  0  0
   -5.1200    1.1486   -1.1580 C   0  0  0  0  0  0  0  0  0  0  0  0
    2.3276    0.9804   -0.0959 C   0  0  0  0  0  0  0  0  0  0  0  0
   -5.6895   -0.9206   -0.0524 C   0  0  0  0  0  0  0  0  0  0  0  0
   -6.0691    0.1909   -0.7991 C   0  0  0  0  0  0  0  0  0  0  0  0
    2.8924    1.9831    0.6925 C   0  0  0  0  0  0  0  0  0  0  0  0
    4.9972    0.8009    0.6902 C   0  0  0  0  0  0  0  0  0  0  0  0
    2.5381   -1.1452   -1.2961 C   0  0  0  0  0  0  0  0  0  0  0  0
    5.2078   -1.3247   -0.5099 C   0  0  0  0  0  0  0  0  0  0  0  0
    4.2247    1.8936    1.0849 C   0  0  0  0  0  0  0  0  0  0  0  0
    3.3106   -2.2378   -1.6909 C   0  0  0  0  0  0  0  0  0  0  0  0
    4.6428   -2.3274   -1.2985 C   0  0  0  0  0  0  0  0  0  0  0  0
  1  2  1  0
  1  3  2  0
  1  4  2  0
  1  9  1  0
  5 21  1  0
  6  7  2  0
  6 11  1  0
  7 18  1  0
  8  9  2  0
  8 10  1  0
  8 15  1  0
  9 11  1  0
 10 12  2  0
 10 17  1  0
 11 14  2  0
 12 14  1  0
 13 16  2  0
 13 18  1  0
 13 23  1  0
 15 19  2  0
 16 22  1  0
 16 24  1  0
 17 20  2  0
 18 21  2  0
 19 20  1  0
 21 25  1  0
 22 25  2  0
 23 26  2  0
 24 27  2  0
 26 27  1  0
M  END
>  <PUBCHEM_COMPOUND_CID>  (1) 
14200

>  <PUBCHEM_CONFORMER_RMSD>  (1) 
0.6

>  <PUBCHEM_CONFORMER_DIVERSEORDER>  (1) 
1
6
3
5
10
7
8
2
11
9
4

>  <PUBCHEM_MMFF94_PARTIAL_CHARGES>  (1) 
37
1 1.49
11 0.18
12 -0.15
14 -0.15
15 -0.15
17 -0.15
18 0.18
19 -0.15
2 -0.68
20 -0.15
21 0.08
22 -0.15
23 -0.15
24 -0.15
25 -0.15
26 -0.15
27 -0.15
28 0.15
29 0.15
3 -0.65
30 0.15
31 0.15
32 0.15
33 0.15
34 0.15
35 0.15
36 0.15
37 0.15
38 0.15
39 0.15
4 -0.65
40 0.5
41 0.45
5 -0.53
6 -0.18
7 -0.18
9 -0.01

>  <PUBCHEM_EFFECTIVE_ROTOR_COUNT>  (1) 
3

>  <PUBCHEM_PHARMACOPHORE_FEATURES>  (1) 
9
1 2 acceptor
1 3 acceptor
1 4 acceptor
1 5 donor
4 1 2 3 4 anion
6 13 16 18 21 22 25 rings
6 13 16 23 24 26 27 rings
6 8 10 15 17 19 20 rings
6 8 9 10 11 12 14 rings

>  <PUBCHEM_HEAVY_ATOM_COUNT>  (1) 
27

>  <PUBCHEM_ATOM_DEF_STEREO_COUNT>  (1) 
0

>  <PUBCHEM_ATOM_UDEF_STEREO_COUNT>  (1) 
0

>  <PUBCHEM_BOND_DEF_STEREO_COUNT>  (1) 
0

>  <PUBCHEM_BOND_UDEF_STEREO_COUNT>  (1) 
0

>  <PUBCHEM_ISOTOPIC_ATOM_COUNT>  (1) 
0

>  <PUBCHEM_COMPONENT_COUNT>  (1) 
1

>  <PUBCHEM_CACTVS_TAUTO_COUNT>  (1) 
3

>  <PUBCHEM_CONFORMER_ID>  (1) 
0000377800000001

>  <PUBCHEM_MMFF94_ENERGY>  (1) 
86.6181

>  <PUBCHEM_FEATURE_SELFOVERLAP>  (1) 
45.779

>  <PUBCHEM_SHAPE_FINGERPRINT>  (1) 
10366900 7 18342188769089024924
108634 29 18333735723473059010
11578080 2 16914515929776050587
11828532 37 17968943127412456291
12166972 35 17060338492407277306
12236239 1 15913330199435420932
12422481 6 18048629137788451675
12596602 18 15841544223687841100
13402501 40 18409728460973513636
13533116 47 17846780715059870768
13544592 145 18408324380219106525
1361 2 18131063835793965215
13617811 41 17312820451458331725
140371 6 18339083799418182168
14251757 17 18410855425821255706
14294032 229 16807004326494524861
14790565 3 17184467617218423477
14866123 147 17551241662049272424
14910302 57 18114458972557282678
15361156 5 18335991951113242157
15635459 17 18341619204949329574
15961568 22 17749954478956705292
17349148 13 16415485943212137188
17844677 252 18060142011698302541
200 152 17632294557955431493
20645477 70 18273215288050222142
21033650 10 17314799494678438428
21279426 13 18337948983475081597
21285901 2 18335420132311057956
21781051 124 16950579796009984739
21792961 116 18337969900709488406
221357 26 18340484478315066125
22182313 1 18261968452113426803
22393880 68 18189608359328520973
23559900 14 18333734649662975204
23569914 152 17260156932637744063
239999 70 18408881841705541820
3004659 81 18187086122915259998
3298306 158 18262233318209107687
3380486 145 18124889099094051939
4015057 19 18201432618947964505
404807 14 17196311624685732567
4403749 210 17697020806924904080
46194498 28 18334856130402210316
495365 180 17916294108296009824
508706 21 18113340786680663479
5104073 3 18059009475982371288
513532 50 18341879780636368562
5283173 99 18337106770157805309
59755656 215 18187078417601577583
9709674 26 18410013273007905406

>  <PUBCHEM_SHAPE_MULTIPOLES>  (1) 
526.06
13.11
2.73
1.52
4.14
0.02
-0.43
-1.51
3
-2
-0.19
0.05
-0.59
3.27

>  <PUBCHEM_SHAPE_SELFOVERLAP>  (1) 
1174.158

>  <PUBCHEM_SHAPE_VOLUME>  (1) 
279.2

>  <PUBCHEM_COORDINATE_TYPE>  (1) 
2
5
10

$$$$
