14212
     RDKit          3D

 14 13  0  0  0  0  0  0  0  0999 V2000
   -2.0163    0.6493    0.0101 S   0  0  0  0  0  0  0  0  0  0  0  0
    2.0064   -0.6530    0.0099 S   0  0  0  0  0  0  0  0  0  0  0  0
   -2.0886    1.3697    1.2704 O   0  0  0  0  0  0  0  0  0  0  0  0
   -2.0887    1.3698   -1.2503 O   0  0  0  0  0  0  0  0  0  0  0  0
    2.0971   -1.3717    1.2702 O   0  0  0  0  0  0  0  0  0  0  0  0
    2.0972   -1.3713   -1.2505 O   0  0  0  0  0  0  0  0  0  0  0  0
   -3.3042   -0.5570    0.0099 C   0  0  0  0  0  0  0  0  0  0  0  0
    3.3020    0.5620    0.0101 C   0  0  0  0  0  0  0  0  0  0  0  0
   -4.6752    0.0971   -0.0349 C   0  0  0  0  0  0  0  0  0  0  0  0
    4.6734   -0.0913   -0.0349 C   0  0  0  0  0  0  0  0  0  0  0  0
   -0.5857   -0.3252    0.0100 C   0  0  0  0  0  0  0  0  0  0  0  0
    0.5849    0.3152    0.0100 C   0  0  0  0  0  0  0  0  0  0  0  0
   -5.7864   -0.9391   -0.0150 C   0  0  0  0  0  0  0  0  0  0  0  0
    5.7840    0.9456   -0.0149 C   0  0  0  0  0  0  0  0  0  0  0  0
  1  3  2  0
  1  4  2  0
  1  7  1  0
  1 11  1  0
  2  5  2  0
  2  6  2  0
  2  8  1  0
  2 12  1  0
  7  9  1  0
  8 10  1  0
  9 13  1  0
 10 14  1  0
 11 12  2  0
M  END
>  <PUBCHEM_COMPOUND_CID>  (1) 
14212

>  <PUBCHEM_CONFORMER_RMSD>  (1) 
0.6

>  <PUBCHEM_CONFORMER_DIVERSEORDER>  (1) 
1
146
93
77
27
70
12
126
56
4
156
120
66
90
65
22
2
14
60
122
53
80
54
160
16
63
13
57
140
94
24
35
59
153
69
154
101
23
85
64
62
21
161
137
18
25
104
109
131
117
116
74
125
157
138
3
136
15
36
87
147
33
26
82
72
84
118
29
113
97
155
150
149
112
86
134
92
89
95
98
71
133
67
45
110
61
115
20
51
143
128
5
105
130
152
17
159
100
50
32
123
102
108
55
124
10
135
114
42
151
127
44
99
148
38
11
75
142
132
49
7
107
145
46
30
79
83
41
68
9
6
48
47
58
28
139
43
19
52
91
73
162
37
158
106
141
88
8
78
119
103
39
121
129
76
31
111
40
81
34
144
96

>  <PUBCHEM_MMFF94_PARTIAL_CHARGES>  (1) 
12
1 1.21
11 -0.17
12 -0.17
2 1.21
23 0.15
24 0.15
3 -0.65
4 -0.65
5 -0.65
6 -0.65
7 0.11
8 0.11

>  <PUBCHEM_EFFECTIVE_ROTOR_COUNT>  (1) 
6

>  <PUBCHEM_PHARMACOPHORE_FEATURES>  (1) 
6
1 13 hydrophobe
1 14 hydrophobe
1 3 acceptor
1 4 acceptor
1 5 acceptor
1 6 acceptor

>  <PUBCHEM_HEAVY_ATOM_COUNT>  (1) 
14

>  <PUBCHEM_ATOM_DEF_STEREO_COUNT>  (1) 
0

>  <PUBCHEM_ATOM_UDEF_STEREO_COUNT>  (1) 
0

>  <PUBCHEM_BOND_DEF_STEREO_COUNT>  (1) 
0

>  <PUBCHEM_BOND_UDEF_STEREO_COUNT>  (1) 
1

>  <PUBCHEM_ISOTOPIC_ATOM_COUNT>  (1) 
0

>  <PUBCHEM_COMPONENT_COUNT>  (1) 
1

>  <PUBCHEM_CACTVS_TAUTO_COUNT>  (1) 
1

>  <PUBCHEM_CONFORMER_ID>  (1) 
0000378400000001

>  <PUBCHEM_MMFF94_ENERGY>  (1) 
1.6009

>  <PUBCHEM_FEATURE_SELFOVERLAP>  (1) 
30.483

>  <PUBCHEM_SHAPE_FINGERPRINT>  (1) 
11401426 45 15068339025310335323
124424 183 10809344429603255790
12815109 37 17530962497050766879
12916748 109 17846782910389649592
13533116 47 15719656698218082040
14123238 8 18410573989446418455
1420 363 18410862074446635763
14251718 22 18411982476985003219
15048467 5 18412546479791370865
15531645 54 8935009165267551263
17834072 33 18273495697268485748
17834076 25 16732699467199141433
187816 3 15791448236702137805
19489759 90 15574709197125051669
200 152 18409728469705892385
20279233 1 16732991902916600011
20645477 70 18130229237733383550
20681677 155 13470682655132800196
212847 35 8574710213021037783
22485316 2 18259982657078213839
23402539 116 13190335799191367635
23557571 272 18334577910419567172
23559900 14 13407083638280529772
42 15 8718827591418957608
42788 4 18410856572762139756
4325135 7 18410855485903240663
58051976 378 18202568384120282078

>  <PUBCHEM_SHAPE_MULTIPOLES>  (1) 
272.34
12.34
1.28
0.95
0.01
0
0.01
-0.02
-0.15
-0.01
0
0
0
-0.01

>  <PUBCHEM_SHAPE_SELFOVERLAP>  (1) 
491.354

>  <PUBCHEM_SHAPE_VOLUME>  (1) 
175.2

>  <PUBCHEM_COORDINATE_TYPE>  (1) 
2
5
10

$$$$
