14216
     RDKit          3D

 11 10  0  0  1  0  0  0  0  0999 V2000
    1.0455   -0.6761    1.5041 O   0  0  0  0  0  0  0  0  0  0  0  0
    1.2579   -1.5256   -0.6440 N   0  0  0  0  0  0  0  0  0  0  0  0
    0.6133    0.8001   -0.3670 C   0  0  0  0  0  0  0  0  0  0  0  0
   -0.8152    1.2030    0.0490 C   0  0  0  0  0  0  0  0  0  0  0  0
   -1.8531    0.1341   -0.3133 C   0  0  0  0  0  0  0  0  0  0  0  0
    1.6110    1.8927    0.0599 C   0  0  0  0  0  0  0  0  0  0  0  0
   -3.2468    0.5274    0.1770 C   0  0  0  0  0  0  0  0  0  0  0  0
    1.0001   -0.5288    0.2842 C   0  0  0  0  0  0  0  0  0  0  0  0
    3.0462    1.5917   -0.3519 C   0  0  0  0  0  0  0  0  0  0  0  0
   -4.2735   -0.5481   -0.1411 C   0  0  0  0  0  0  0  0  0  0  0  0
    1.6145   -2.8703   -0.2569 C   0  0  0  0  0  0  0  0  0  0  0  0
  1  8  2  0
  2  8  1  0
  2 11  1  0
  3  4  1  0
  3  6  1  0
  3  8  1  0
  4  5  1  0
  5  7  1  0
  6  9  1  0
  7 10  1  0
M  END
>  <PUBCHEM_COMPOUND_CID>  (1) 
14216

>  <PUBCHEM_CONFORMER_RMSD>  (1) 
0.6

>  <PUBCHEM_CONFORMER_DIVERSEORDER>  (1) 
1
56
94
100
35
114
80
121
99
58
73
97
106
111
101
38
113
59
112
82
27
119
4
18
108
54
50
118
117
21
51
96
87
98
116
46
49
20
109
115
91
68
52
64
41
57
95
103
79
74
10
77
37
81
107
60
29
45
120
104
24
53
39
84
78
48
3
40
17
93
89
71
32
105
9
55
6
69
19
47
88
90
85
7
28
86
26
83
75
36
16
14
2
44
61
76
67
63
72
92
110
31
42
8
30
102
25
66
23
13
33
12
43
15
70
62
5
34
65
22
11

>  <PUBCHEM_MMFF94_PARTIAL_CHARGES>  (1) 
6
1 -0.57
11 0.3
2 -0.73
27 0.37
3 0.06
8 0.57

>  <PUBCHEM_EFFECTIVE_ROTOR_COUNT>  (1) 
6

>  <PUBCHEM_PHARMACOPHORE_FEATURES>  (1) 
5
1 1 acceptor
1 10 hydrophobe
1 2 donor
1 9 hydrophobe
5 3 4 5 6 7 hydrophobe

>  <PUBCHEM_HEAVY_ATOM_COUNT>  (1) 
11

>  <PUBCHEM_ATOM_DEF_STEREO_COUNT>  (1) 
0

>  <PUBCHEM_ATOM_UDEF_STEREO_COUNT>  (1) 
1

>  <PUBCHEM_BOND_DEF_STEREO_COUNT>  (1) 
0

>  <PUBCHEM_BOND_UDEF_STEREO_COUNT>  (1) 
0

>  <PUBCHEM_ISOTOPIC_ATOM_COUNT>  (1) 
0

>  <PUBCHEM_COMPONENT_COUNT>  (1) 
1

>  <PUBCHEM_CACTVS_TAUTO_COUNT>  (1) 
2

>  <PUBCHEM_CONFORMER_ID>  (1) 
0000378800000001

>  <PUBCHEM_MMFF94_ENERGY>  (1) 
5.9566

>  <PUBCHEM_FEATURE_SELFOVERLAP>  (1) 
25.373

>  <PUBCHEM_SHAPE_FINGERPRINT>  (1) 
1 1 18410292553462251172
10219947 1 17458903850519628429
12346645 6 18411134753572865549
12932764 1 17459471057455221589
13380535 76 18262237840809150867
14251717 144 18411699893690478551
14252887 29 18188504548723142833
15279307 12 18129941299252521775
161256 15 18261957340647812597
170605 34 18261110819947615761
17990270 104 18337669703036339091
19021347 11 18411984671665922820
201361 129 18272384061206989977
20279233 1 16950562212340027761
20645477 70 18335692828928334151
20708731 107 18341334413730248366
20711978 78 18338784637765282749
20711985 344 17113521628759982112
20871998 22 18194397792876046803
21524375 3 18044092577901334996
23530152 11 18267305515550282334
23552423 10 18339081471792774989
366044 4 18338237201624247796
528862 383 18409161117120777477
7364860 26 18412826858706966917
81228 2 17115495248048005784
81539 233 18187644747119209052

>  <PUBCHEM_SHAPE_MULTIPOLES>  (1) 
215.52
5.44
2.45
0.84
6.72
1.72
0.2
-0.64
-0.41
-2.56
-0.27
-0.21
0.14
-0.11

>  <PUBCHEM_SHAPE_SELFOVERLAP>  (1) 
392.428

>  <PUBCHEM_SHAPE_VOLUME>  (1) 
138.6

>  <PUBCHEM_COORDINATE_TYPE>  (1) 
2
5
10

$$$$
