14228
     RDKit          3D

 16 15  0  0  0  0  0  0  0  0999 V2000
   -1.2115   -0.1421    0.0505 O   0  0  0  0  0  0  0  0  0  0  0  0
   -0.0320    1.8396    0.0033 O   0  0  0  0  0  0  0  0  0  0  0  0
    3.6629   -0.4892   -0.0243 C   0  0  0  0  0  0  0  0  0  0  0  0
    4.9787    0.2918   -0.0255 C   0  0  0  0  0  0  0  0  0  0  0  0
    2.4575    0.4546    0.0302 C   0  0  0  0  0  0  0  0  0  0  0  0
    6.1843   -0.6496   -0.0464 C   0  0  0  0  0  0  0  0  0  0  0  0
   -4.9490    0.3167   -0.0448 C   0  0  0  0  0  0  0  0  0  0  0  0
    1.1275   -0.2983    0.0609 C   0  0  0  0  0  0  0  0  0  0  0  0
   -3.6012   -0.4000    0.0185 C   0  0  0  0  0  0  0  0  0  0  0  0
   -6.1476   -0.6353   -0.0005 C   0  0  0  0  0  0  0  0  0  0  0  0
    7.4987    0.1296   -0.0139 C   0  0  0  0  0  0  0  0  0  0  0  0
   -2.4420    0.5877    0.0047 C   0  0  0  0  0  0  0  0  0  0  0  0
   -7.4960    0.0805   -0.0887 C   0  0  0  0  0  0  0  0  0  0  0  0
   -0.0764    0.6176    0.0441 C   0  0  0  0  0  0  0  0  0  0  0  0
    8.6990   -0.8034   -0.0004 C   0  0  0  0  0  0  0  0  0  0  0  0
   -8.6529   -0.9000    0.0323 C   0  0  0  0  0  0  0  0  0  0  0  0
  1 12  1  0
  1 14  1  0
  2 14  2  0
  3  4  1  0
  3  5  1  0
  4  6  1  0
  5  8  1  0
  6 11  1  0
  7  9  1  0
  7 10  1  0
  8 14  1  0
  9 12  1  0
 10 13  1  0
 11 15  1  0
 13 16  1  0
M  END
>  <PUBCHEM_COMPOUND_CID>  (1) 
14228

>  <PUBCHEM_CONFORMER_RMSD>  (1) 
1.2

>  <PUBCHEM_CONFORMER_DIVERSEORDER>  (1) 
1
316
164
52
177
38
505
292
8
73
493
4
60
329
66
15
521
34
440
30
196
55
24
517
284
474
262
539
2
462
144
28
205
253
5
358
245
234
25
208
216
364
62
37
298
522
3
54
163
280
117
221
479
17
261
175
506
12
232
16
9
46
540
203
481
193
396
13
545
10
490
127
401
133
105
498
497
115
227
323
101
471
286
420
152
350
256
47
388
77
134
110
282
248
421
394
355

>  <PUBCHEM_MMFF94_PARTIAL_CHARGES>  (1) 
5
1 -0.43
12 0.28
14 0.66
2 -0.57
8 0.06

>  <PUBCHEM_EFFECTIVE_ROTOR_COUNT>  (1) 
12

>  <PUBCHEM_PHARMACOPHORE_FEATURES>  (1) 
6
1 15 hydrophobe
1 16 hydrophobe
1 2 acceptor
3 3 5 8 hydrophobe
3 4 6 11 hydrophobe
4 7 9 10 13 hydrophobe

>  <PUBCHEM_HEAVY_ATOM_COUNT>  (1) 
16

>  <PUBCHEM_ATOM_DEF_STEREO_COUNT>  (1) 
0

>  <PUBCHEM_ATOM_UDEF_STEREO_COUNT>  (1) 
0

>  <PUBCHEM_BOND_DEF_STEREO_COUNT>  (1) 
0

>  <PUBCHEM_BOND_UDEF_STEREO_COUNT>  (1) 
0

>  <PUBCHEM_ISOTOPIC_ATOM_COUNT>  (1) 
0

>  <PUBCHEM_COMPONENT_COUNT>  (1) 
1

>  <PUBCHEM_CACTVS_TAUTO_COUNT>  (1) 
1

>  <PUBCHEM_CONFORMER_ID>  (1) 
0000379400000001

>  <PUBCHEM_MMFF94_ENERGY>  (1) 
-0.7146

>  <PUBCHEM_FEATURE_SELFOVERLAP>  (1) 
30.462

>  <PUBCHEM_SHAPE_FINGERPRINT>  (1) 
106641 1 16773794809604260578
11315181 36 18413111675901587185
11638347 137 15770063813510062822
12091667 2 17675926487224638673
13885169 127 18411700950780265649
13968360 50 15936403421269907458
14123256 10 17967813842606841938
14251764 18 17988928863880168209
14251764 46 16950564380844805403
14729087 3 10519993651873298347
155225 1 8790882986930028382
15690457 1 18343862225275017934
15716309 27 17775564247343286486
17834076 25 18409730659732946956
18006028 8 18272932721556167505
20735858 18 16773798095169742412
21150785 3 16153707621980428335
21267235 1 18411702088403228185
21315763 28 18410012134715380620
22224240 67 16415757531195387590
23035841 295 18412825789276109842
232437 2 18410856563935192110
23521765 1 18341894090849933798
246663 6 18413110562777108855
28498 318 18409165493745329583
33684 2 18040433287318613562
4325135 7 17967814946476818654
59682541 35 17632292401976911634
67123 10 18410575101842948102
8209 1 18410292510174753486

>  <PUBCHEM_SHAPE_MULTIPOLES>  (1) 
317.53
28.41
1.02
0.61
0.59
0.21
0
-9.27
0.4
0.09
0
0
-0.01
0.04

>  <PUBCHEM_SHAPE_SELFOVERLAP>  (1) 
576.116

>  <PUBCHEM_SHAPE_VOLUME>  (1) 
203.3

>  <PUBCHEM_COORDINATE_TYPE>  (1) 
2
5
10

$$$$
