1422
     RDKit          3D

 27 30  0  0  1  0  0  0  0  0999 V2000
    3.3031    1.9924   -1.6914 S   0  0  0  0  0  0  0  0  0  0  0  0
    2.5811   -1.7361   -0.2486 O   0  0  0  0  0  0  0  0  0  0  0  0
   -2.1694   -1.2290    0.0377 O   0  0  0  0  0  0  0  0  0  0  0  0
    0.6674    2.6760    0.2220 O   0  0  0  0  0  0  0  0  0  0  0  0
   -0.1946    4.7790    0.4536 O   0  0  0  0  0  0  0  0  0  0  0  0
    4.1310    0.1250    0.1870 C   0  0  0  0  0  0  0  0  0  0  0  0
    3.0133    1.1557   -0.0764 C   0  0  0  0  0  0  0  0  0  0  0  0
    3.8288   -1.1463   -0.6263 C   0  0  0  0  0  0  0  0  0  0  0  0
    1.6457    0.5044   -0.0490 C   0  0  0  0  0  0  0  0  0  0  0  0
    1.5068   -0.8842   -0.1585 C   0  0  0  0  0  0  0  0  0  0  0  0
    0.2313   -1.4784   -0.1131 C   0  0  0  0  0  0  0  0  0  0  0  0
    0.4746    1.2763    0.1001 C   0  0  0  0  0  0  0  0  0  0  0  0
   -0.8175    0.7308    0.1365 C   0  0  0  0  0  0  0  0  0  0  0  0
   -0.9168   -0.6729    0.0333 C   0  0  0  0  0  0  0  0  0  0  0  0
    4.2563   -0.1456    1.6969 C   0  0  0  0  0  0  0  0  0  0  0  0
   -2.3318   -2.6346    0.3010 C   0  0  0  0  0  0  0  0  0  0  0  0
    4.9013   -2.2214   -0.4714 C   0  0  0  0  0  0  0  0  0  0  0  0
   -1.9550    1.6713    0.2882 C   0  0  0  0  0  0  0  0  0  0  0  0
    0.0744   -2.9278   -0.2369 C   0  0  0  0  0  0  0  0  0  0  0  0
   -1.1270   -3.4689   -0.0299 C   0  0  0  0  0  0  0  0  0  0  0  0
   -3.3788    1.1921    0.3366 C   0  0  0  0  0  0  0  0  0  0  0  0
   -2.6947   -2.7940    1.7818 C   0  0  0  0  0  0  0  0  0  0  0  0
   -3.5127   -3.0834   -0.5684 C   0  0  0  0  0  0  0  0  0  0  0  0
   -1.7188    2.9880    0.3881 C   0  0  0  0  0  0  0  0  0  0  0  0
   -0.3743    3.5707    0.3592 C   0  0  0  0  0  0  0  0  0  0  0  0
   -3.9957    1.1348   -1.0552 C   0  0  0  0  0  0  0  0  0  0  0  0
   -5.4278    0.6262   -0.9969 C   0  0  0  0  0  0  0  0  0  0  0  0
  1  7  1  0
  2  8  1  0
  2 10  1  0
  3 14  1  0
  3 16  1  0
  4 12  1  0
  4 25  1  0
  5 25  2  0
  6  7  1  0
  6  8  1  0
  6 15  1  0
  7  9  1  0
  8 17  1  0
  9 10  2  0
  9 12  1  0
 10 11  1  0
 11 14  2  0
 11 19  1  0
 12 13  2  0
 13 14  1  0
 13 18  1  0
 16 20  1  0
 16 22  1  0
 16 23  1  0
 18 21  1  0
 18 24  2  0
 19 20  2  0
 21 26  1  0
 24 25  1  0
 26 27  1  0
M  END
>  <PUBCHEM_COMPOUND_CID>  (1) 
1422

>  <PUBCHEM_CONFORMER_RMSD>  (1) 
0.8

>  <PUBCHEM_CONFORMER_DIVERSEORDER>  (1) 
1
8
13
12
14
6
4
7
5
11
10
2
9
3

>  <PUBCHEM_MMFF94_PARTIAL_CHARGES>  (1) 
24
1 -0.41
10 0.08
11 0.03
12 0.08
13 0.03
14 0.08
16 0.42
18 -0.17
19 -0.18
2 -0.36
20 -0.29
21 0.14
24 -0.14
25 0.71
3 -0.36
37 0.15
38 0.15
39 0.18
4 -0.23
48 0.15
5 -0.57
7 0.37
8 0.28
9 -0.14

>  <PUBCHEM_EFFECTIVE_ROTOR_COUNT>  (1) 
3.2

>  <PUBCHEM_PHARMACOPHORE_FEATURES>  (1) 
9
1 2 acceptor
1 27 hydrophobe
1 3 acceptor
1 5 acceptor
3 16 22 23 hydrophobe
6 2 6 7 8 9 10 rings
6 3 11 14 16 19 20 rings
6 4 12 13 18 24 25 rings
6 9 10 11 12 13 14 rings

>  <PUBCHEM_HEAVY_ATOM_COUNT>  (1) 
27

>  <PUBCHEM_ATOM_DEF_STEREO_COUNT>  (1) 
0

>  <PUBCHEM_ATOM_UDEF_STEREO_COUNT>  (1) 
3

>  <PUBCHEM_BOND_DEF_STEREO_COUNT>  (1) 
0

>  <PUBCHEM_BOND_UDEF_STEREO_COUNT>  (1) 
0

>  <PUBCHEM_ISOTOPIC_ATOM_COUNT>  (1) 
0

>  <PUBCHEM_COMPONENT_COUNT>  (1) 
1

>  <PUBCHEM_CACTVS_TAUTO_COUNT>  (1) 
1

>  <PUBCHEM_CONFORMER_ID>  (1) 
0000058E00000001

>  <PUBCHEM_MMFF94_ENERGY>  (1) 
92.1752

>  <PUBCHEM_FEATURE_SELFOVERLAP>  (1) 
45.75

>  <PUBCHEM_SHAPE_FINGERPRINT>  (1) 
10319926 262 18198040532031572626
10411042 1 18339929319554230054
10693767 8 17986649538338826839
108634 29 18341054016801197206
10906281 52 18270695194340923405
10967382 1 18339362967864468497
1100329 8 18410854378292496329
11578080 2 16986575706084762835
12035758 1 18410853291818557017
12403260 363 18194398884235427404
12422481 6 18194429821180819251
12553582 1 18051704531307418458
12788726 201 18267579100692831506
13140716 1 18410022021903922746
138480 1 16032961089069330250
13911987 19 18335423435209597277
14178342 30 17474372591847714520
14790565 3 18268159669151656017
15042514 8 18409736131621801434
15420108 30 17329136980217109770
15927050 60 17116635441400489108
16752209 62 18337949116181347562
16945 1 18194413198949929328
17349148 13 18337382721816687532
19591789 44 17762623889196633302
20028762 73 18129089035722588943
20715895 44 18188478074149598333
20775438 99 17121937746770059727
20905425 154 17619919795082064437
22182313 1 17981885555686437921
2334 1 18339087097857158286
23419403 2 17468434512082834012
23558518 356 17907869405058479525
23559900 14 18413389813762782510
2748010 2 18341904003729671430
283562 15 18124873460939220633
3091708 16 8844488576487215114
335352 9 18338518542903065270
3380486 145 18337686298932454569
350125 39 17907582428138939904
352729 6 18410582746958717974
463206 1 18412819179912369901
484989 97 18335140934226319239
59755656 215 18122624946975619725
7164475 11 18338520845469720398
9709674 26 18200317593977404246

>  <PUBCHEM_SHAPE_MULTIPOLES>  (1) 
536.02
8.33
5.03
1.12
1.6
1.6
0.1
-2.05
-1.54
-2.52
0.55
0.21
-0.02
0.25

>  <PUBCHEM_SHAPE_SELFOVERLAP>  (1) 
1151.835

>  <PUBCHEM_SHAPE_VOLUME>  (1) 
301.5

>  <PUBCHEM_COORDINATE_TYPE>  (1) 
2
5
10

$$$$
