14232
     RDKit          3D

  4  3  0  0  0  0  0  0  0  0999 V2000
    0.5045   -0.5029    0.0000 O   0  0  0  0  0  0  0  0  0  0  0  0
   -0.5072    0.5448    0.0000 N   0  0  0  0  0  0  0  0  0  0  0  0
   -1.7748   -0.1701    0.0000 C   0  0  0  0  0  0  0  0  0  0  0  0
    1.7776    0.1283    0.0000 C   0  0  0  0  0  0  0  0  0  0  0  0
  1  2  1  0
  1  4  1  0
  2  3  1  0
M  END
>  <PUBCHEM_COMPOUND_CID>  (1) 
14232

>  <PUBCHEM_CONFORMER_RMSD>  (1) 
0.4

>  <PUBCHEM_CONFORMER_DIVERSEORDER>  (1) 
1
2
3

>  <PUBCHEM_MMFF94_PARTIAL_CHARGES>  (1) 
5
1 -0.18
2 -0.73
3 0.27
4 0.28
8 0.36

>  <PUBCHEM_EFFECTIVE_ROTOR_COUNT>  (1) 
1

>  <PUBCHEM_PHARMACOPHORE_FEATURES>  (1) 
0

>  <PUBCHEM_HEAVY_ATOM_COUNT>  (1) 
4

>  <PUBCHEM_ATOM_DEF_STEREO_COUNT>  (1) 
0

>  <PUBCHEM_ATOM_UDEF_STEREO_COUNT>  (1) 
0

>  <PUBCHEM_BOND_DEF_STEREO_COUNT>  (1) 
0

>  <PUBCHEM_BOND_UDEF_STEREO_COUNT>  (1) 
0

>  <PUBCHEM_ISOTOPIC_ATOM_COUNT>  (1) 
0

>  <PUBCHEM_COMPONENT_COUNT>  (1) 
1

>  <PUBCHEM_CACTVS_TAUTO_COUNT>  (1) 
1

>  <PUBCHEM_CONFORMER_ID>  (1) 
0000379800000001

>  <PUBCHEM_MMFF94_ENERGY>  (1) 
3.0367

>  <PUBCHEM_FEATURE_SELFOVERLAP>  (1) 
0

>  <PUBCHEM_SHAPE_FINGERPRINT>  (1) 
139733 1 18410856572709314278
20096714 4 9871459928731193643
21015797 1 17978510063420149501
5460574 1 18410856551049854983

>  <PUBCHEM_SHAPE_MULTIPOLES>  (1) 
71.47
2.49
0.7
0.57
0.03
0.01
0
-0.04
0
-0.01
0
0
0
0

>  <PUBCHEM_SHAPE_SELFOVERLAP>  (1) 
111.18

>  <PUBCHEM_SHAPE_VOLUME>  (1) 
52.6

>  <PUBCHEM_COORDINATE_TYPE>  (1) 
2
5
10

$$$$
