14235
     RDKit          3D

 14 13  0  0  0  0  0  0  0  0999 V2000
    2.0427    0.1982   -0.8023 O   0  0  0  0  0  0  0  0  0  0  0  0
    2.1241    1.3508    1.1982 O   0  0  0  0  0  0  0  0  0  0  0  0
    1.9118   -1.0360   -0.0935 C   0  0  0  0  0  0  0  0  0  0  0  0
    0.6123   -0.9845    0.7354 C   0  0  0  0  0  0  0  0  0  0  0  0
   -0.6571   -0.7198   -0.0865 C   0  0  0  0  0  0  0  0  0  0  0  0
    1.8180   -2.1638   -1.1265 C   0  0  0  0  0  0  0  0  0  0  0  0
    3.1545   -1.2284    0.7785 C   0  0  0  0  0  0  0  0  0  0  0  0
   -1.8961   -0.6633    0.8179 C   0  0  0  0  0  0  0  0  0  0  0  0
   -3.1636   -0.3620    0.0464 C   0  0  0  0  0  0  0  0  0  0  0  0
    2.1394    1.3151   -0.0248 C   0  0  0  0  0  0  0  0  0  0  0  0
   -3.5372    1.0136   -0.2558 C   0  0  0  0  0  0  0  0  0  0  0  0
   -3.9387   -1.3711   -0.3884 C   0  0  0  0  0  0  0  0  0  0  0  0
    2.2712    2.5259   -0.8981 C   0  0  0  0  0  0  0  0  0  0  0  0
   -2.8812    2.1253    0.0995 C   0  0  0  0  0  0  0  0  0  0  0  0
  1  3  1  0
  1 10  1  0
  2 10  2  0
  3  4  1  0
  3  6  1  0
  3  7  1  0
  4  5  1  0
  5  8  1  0
  8  9  1  0
  9 11  1  0
  9 12  2  0
 10 13  1  0
 11 14  2  0
M  END
>  <PUBCHEM_COMPOUND_CID>  (1) 
14235

>  <PUBCHEM_CONFORMER_RMSD>  (1) 
0.8

>  <PUBCHEM_CONFORMER_DIVERSEORDER>  (1) 
1
71
48
62
67
93
17
82
92
31
7
57
46
56
22
72
15
70
47
21
73
14
95
85
84
16
66
36
60
68
10
28
97
74
42
83
26
88
90
58
27
30
32
44
13
86
78
18
8
50
63
39
19
65
76
4
3
53
34
87
38
96
54
40
79
9
59
11
69
6
80
5
35
12
64
81
45
49
29
61
89
25
77
94
37
55
51
41
20
75
43
33
91
2
23
24
52

>  <PUBCHEM_MMFF94_PARTIAL_CHARGES>  (1) 
15
1 -0.43
10 0.66
11 -0.15
12 -0.3
13 0.06
14 -0.3
2 -0.57
27 0.15
28 0.15
29 0.15
3 0.28
33 0.15
34 0.15
8 0.14
9 -0.14

>  <PUBCHEM_EFFECTIVE_ROTOR_COUNT>  (1) 
7

>  <PUBCHEM_PHARMACOPHORE_FEATURES>  (1) 
5
1 12 hydrophobe
1 14 hydrophobe
1 2 acceptor
3 3 6 7 hydrophobe
5 4 5 8 9 11 hydrophobe

>  <PUBCHEM_HEAVY_ATOM_COUNT>  (1) 
14

>  <PUBCHEM_ATOM_DEF_STEREO_COUNT>  (1) 
0

>  <PUBCHEM_ATOM_UDEF_STEREO_COUNT>  (1) 
0

>  <PUBCHEM_BOND_DEF_STEREO_COUNT>  (1) 
0

>  <PUBCHEM_BOND_UDEF_STEREO_COUNT>  (1) 
0

>  <PUBCHEM_ISOTOPIC_ATOM_COUNT>  (1) 
0

>  <PUBCHEM_COMPONENT_COUNT>  (1) 
1

>  <PUBCHEM_CACTVS_TAUTO_COUNT>  (1) 
1

>  <PUBCHEM_CONFORMER_ID>  (1) 
0000379B00000001

>  <PUBCHEM_MMFF94_ENERGY>  (1) 
29.5788

>  <PUBCHEM_FEATURE_SELFOVERLAP>  (1) 
25.397

>  <PUBCHEM_SHAPE_FINGERPRINT>  (1) 
10608611 8 18409729556322049257
10922523 26 18200873959598202583
10980938 120 18341334490992115369
11615756 256 18335430075239631237
11715629 250 18271520991855038989
12162725 195 18408602561172185403
12932764 1 17846500374223622859
13618510 140 18189339137498178525
13922767 16 18337666430176470114
14250199 8 18408044005033663541
14415576 193 18411983584843979111
15375462 6 18342459283251258439
15442244 35 18263924345474722880
17041 49 18116428150680264850
17041 50 18196098750222757622
17802600 8 18262511499235545989
18186145 218 18261110738675533487
18522851 268 18272650126030634823
19973954 147 18410015412128563017
20233049 118 17678457450705327590
20279233 1 11599725030683636307
20653085 51 18338525119162334707
20671657 1 18261395597996646956
21501502 16 18409451379785412785
21524375 3 18123193673665192112
21947302 44 18261394489525799890
22096605 113 18337391672570691379
230 275 18335983168042167504
23402539 116 18267013965113337322
23419403 2 16980080573145828058
23532345 88 18411698794173627998
23557571 272 17774999068586746763
312423 11 18409177618765151187
3286 77 18187358826772530911
58051976 378 18341890835613455031
6049 1 18190766213692007283
6333272 397 17969784270686536131
7364860 26 18272090487359809382
74978 22 18261396615740606131
7832392 63 18193558857235878885
8050 44 18261385689491654085
81228 2 17547308704767264842
93112 12 18341614755226106511

>  <PUBCHEM_SHAPE_MULTIPOLES>  (1) 
276.37
6.82
2.55
1.02
5.08
1.25
-0.01
0.31
0.29
-0.98
0.55
-0.55
-0.09
-0.18

>  <PUBCHEM_SHAPE_SELFOVERLAP>  (1) 
528.245

>  <PUBCHEM_SHAPE_VOLUME>  (1) 
169.6

>  <PUBCHEM_COORDINATE_TYPE>  (1) 
2
5
10

$$$$
