1423
     RDKit          3D

 22 22  0  0  1  0  0  0  0  0999 V2000
   -9.3446   -1.9567    0.2469 O   0  0  0  0  0  0  0  0  0  0  0  0
   -7.6370   -3.1570   -0.6475 O   0  0  0  0  0  0  0  0  0  0  0  0
    2.0707    1.1011    0.4894 N   0  0  0  0  0  0  0  0  0  0  0  0
   -0.2077    2.1326    0.2876 C   0  0  0  0  0  0  0  0  0  0  0  0
    1.2424    2.0737   -0.2059 C   0  0  0  0  0  0  0  0  0  0  0  0
   -0.7084    3.4529   -0.3061 C   0  0  0  0  0  0  0  0  0  0  0  0
    1.7178    3.5064    0.0217 C   0  0  0  0  0  0  0  0  0  0  0  0
    0.5173    4.3692   -0.3662 C   0  0  0  0  0  0  0  0  0  0  0  0
   -1.0563    0.9397   -0.1261 C   0  0  0  0  0  0  0  0  0  0  0  0
   -2.5162    1.1183    0.2931 C   0  0  0  0  0  0  0  0  0  0  0  0
    3.3021    0.8415   -0.2458 C   0  0  0  0  0  0  0  0  0  0  0  0
   -3.3559   -0.1011   -0.0926 C   0  0  0  0  0  0  0  0  0  0  0  0
    4.1477   -0.2006    0.4861 C   0  0  0  0  0  0  0  0  0  0  0  0
   -4.8317    0.0266    0.2974 C   0  0  0  0  0  0  0  0  0  0  0  0
    5.4422   -0.4932   -0.2768 C   0  0  0  0  0  0  0  0  0  0  0  0
   -5.7266   -1.1560   -0.0841 C   0  0  0  0  0  0  0  0  0  0  0  0
    6.3488   -1.5071    0.4272 C   0  0  0  0  0  0  0  0  0  0  0  0
    7.6074   -1.8551   -0.3705 C   0  0  0  0  0  0  0  0  0  0  0  0
   -7.1964   -0.9487    0.2795 C   0  0  0  0  0  0  0  0  0  0  0  0
    8.4801   -2.8598    0.3832 C   0  0  0  0  0  0  0  0  0  0  0  0
   -8.0442   -2.1413   -0.1011 C   0  0  0  0  0  0  0  0  0  0  0  0
    9.7484   -3.1854   -0.3892 C   0  0  0  0  0  0  0  0  0  0  0  0
  1 21  1  0
  2 21  2  0
  3  5  1  0
  3 11  1  0
  4  5  1  0
  4  6  1  0
  4  9  1  0
  5  7  1  0
  6  8  1  0
  7  8  1  0
  9 10  1  0
 10 12  1  0
 11 13  1  0
 12 14  1  0
 13 15  1  0
 14 16  1  0
 15 17  1  0
 16 19  1  0
 17 18  1  0
 18 20  1  0
 19 21  1  0
 20 22  1  0
M  END
>  <PUBCHEM_COMPOUND_CID>  (1) 
1423

>  <PUBCHEM_CONFORMER_RMSD>  (1) 
1.4

>  <PUBCHEM_CONFORMER_DIVERSEORDER>  (1) 
1
75
34
62
67
26
38
46
17
50
22
36
39
33
15
66
68
42
7
64
63
24
11
40
58
49
20
55
31
44
37
35
54
5
14
47
3
19
59
16
73
41
25
30
32
8
56
18
29
43
53
65
10
70
21
57
52
2
9
13
6
60
72
28
51
74
12
4
61
45
23
69
27
71
48

>  <PUBCHEM_MMFF94_PARTIAL_CHARGES>  (1) 
9
1 -0.65
11 0.27
19 0.06
2 -0.57
21 0.66
3 -0.9
33 0.36
5 0.27
59 0.5

>  <PUBCHEM_EFFECTIVE_ROTOR_COUNT>  (1) 
15

>  <PUBCHEM_PHARMACOPHORE_FEATURES>  (1) 
10
1 1 acceptor
1 2 acceptor
1 22 hydrophobe
1 3 cation
1 3 donor
3 1 2 21 anion
3 14 16 19 hydrophobe
3 9 10 12 hydrophobe
5 13 15 17 18 20 hydrophobe
5 4 5 6 7 8 rings

>  <PUBCHEM_HEAVY_ATOM_COUNT>  (1) 
22

>  <PUBCHEM_ATOM_DEF_STEREO_COUNT>  (1) 
0

>  <PUBCHEM_ATOM_UDEF_STEREO_COUNT>  (1) 
2

>  <PUBCHEM_BOND_DEF_STEREO_COUNT>  (1) 
0

>  <PUBCHEM_BOND_UDEF_STEREO_COUNT>  (1) 
0

>  <PUBCHEM_ISOTOPIC_ATOM_COUNT>  (1) 
0

>  <PUBCHEM_COMPONENT_COUNT>  (1) 
1

>  <PUBCHEM_CACTVS_TAUTO_COUNT>  (1) 
1

>  <PUBCHEM_CONFORMER_ID>  (1) 
0000058F00000001

>  <PUBCHEM_MMFF94_ENERGY>  (1) 
8.1933

>  <PUBCHEM_FEATURE_SELFOVERLAP>  (1) 
50.804

>  <PUBCHEM_SHAPE_FINGERPRINT>  (1) 
10411042 1 18410293601424312788
10838868 160 8718552679332546007
11273773 46 18334294280202976811
11463208 1 17827366789311902611
11672396 167 18341044234005576007
11761917 87 18261405489902786627
12539745 222 17846219895468582608
13248334 5 18121500425596082044
13533116 47 18267303325971789553
13631057 29 18263363591215103528
13974486 7 18410282627989106730
14428016 167 18412258445782790999
14931854 50 17603300427804451866
14965480 1 17169004425320382075
15152005 304 18339374014669437166
15152005 77 18059852831476690271
15773216 30 18190747621333094828
1768 4 8790886315914642751
20165401 70 18270396221910321551
20721686 146 8357959093225741642
20771845 65 18273215326099286832
21130935 74 18124597742167739355
21304304 249 18411420626327490895
21307412 95 17603873338356764459
23523766 6 18334859437411223868
23523787 8 15357698604336255496
23523788 1 17489317334903240638
23528940 14 18337950075220383266
25242607 90 18342730823805330114
255183 451 18334575771531485836
2835820 83 18410856555472384227
393628 194 9655279441452005962
406291 66 18411981364341073394
54039377 194 18409169896451051862
5718773 13 18410855460128174790
636775 8 18338803308853470166
77188 2 18410012160744556772

>  <PUBCHEM_SHAPE_MULTIPOLES>  (1) 
436.03
30.16
5.16
0.71
3.24
3.49
0
-55.16
-0.96
1.46
-0.68
0.17
-0.05
-0.32

>  <PUBCHEM_SHAPE_SELFOVERLAP>  (1) 
825.734

>  <PUBCHEM_SHAPE_VOLUME>  (1) 
269.7

>  <PUBCHEM_COORDINATE_TYPE>  (1) 
2
5
10

$$$$
