14241
     RDKit          3D

 12 11  0  0  1  0  0  0  0  0999 V2000
    2.5511    0.2285    0.3143 O   0  0  0  0  0  0  0  0  0  0  0  0
   -3.2654   -1.2820   -0.5787 O   0  0  0  0  0  0  0  0  0  0  0  0
    1.2942   -1.5274   -0.4957 O   0  0  0  0  0  0  0  0  0  0  0  0
   -3.9109    0.8679   -0.2571 O   0  0  0  0  0  0  0  0  0  0  0  0
   -1.3763    1.7564   -0.0208 N   0  0  0  0  0  0  0  0  0  0  0  0
   -0.9784   -0.4763    1.0171 C   0  0  0  0  0  0  0  0  0  0  0  0
   -1.5332    0.3121   -0.1809 C   0  0  0  0  0  0  0  0  0  0  0  0
    0.4842   -0.1693    1.3512 C   0  0  0  0  0  0  0  0  0  0  0  0
    1.4564   -0.5871    0.2701 C   0  0  0  0  0  0  0  0  0  0  0  0
   -3.0191    0.0321   -0.3313 C   0  0  0  0  0  0  0  0  0  0  0  0
    3.5816   -0.0709   -0.6326 C   0  0  0  0  0  0  0  0  0  0  0  0
    4.7159    0.9159   -0.4555 C   0  0  0  0  0  0  0  0  0  0  0  0
  1  9  1  0
  1 11  1  0
  2 10  1  0
  3  9  2  0
  4 10  2  0
  5  7  1  0
  6  7  1  0
  6  8  1  0
  7 10  1  0
  8  9  1  0
 11 12  1  0
M  END
>  <PUBCHEM_COMPOUND_CID>  (1) 
14241

>  <PUBCHEM_CONFORMER_RMSD>  (1) 
0.6

>  <PUBCHEM_CONFORMER_DIVERSEORDER>  (1) 
3
300
237
345
165
20
82
238
97
366
328
310
157
327
16
364
114
17
138
103
89
192
337
353
319
83
204
357
111
388
264
273
323
298
203
331
321
181
351
128
60
158
229
313
69
53
188
136
31
100
147
289
124
287
255
44
396
387
339
266
315
25
381
377
70
248
146
14
329
261
308
392
390
341
35
54
318
295
307
277
120
86
142
217
28
88
379
267
208
91
137
361
19
211
257
58
285
1
185
156
283
65
242
240
107
205
304
294
7
356
110
126
99
380
362
46
87
385
368
184
326
109
71
334
322
15
55
105
314
37
226
376
219
178
309
62
163
251
134
198
338
271
74
144
161
350
235
2
8
336
22
265
167
253
393
101
239
200
41
171
382
340
148
5
187
395
67
153
79
301
47
77
119
176
360
51
306
179
293
370
199
66
371
175
367
12
13
75
223
213
95
196
149
243
297
133
23
166
230
164
375
11
247
214
4
92
278
98
129
227
347
389
115
231
317
127
130
197
155
312
116
56
39
234
296
104
258
122
212
332
232
45
363
246
135
169
233
272
279
372
6
216
84
76
270
245
209
189
61
30
40
398
59
94
42
378
85
391
218
222
141
57
288
34
72
348
9
254
27
250
259
299
354
386
335
394
173
21
139
303
18
373
352
190
49
342
397
24
131
191
152
325
183
93
159
125
333
186
112
48
268
305
275
64
26
249
260
252
282
50
281
193
180
383
284
36
228
73
118
38
10
359
220
256
291
225
355
194
374
113
43
117
344
290
150
286
330
96
174
324
33
123
90
121
276
262
177
343
221
52
369
143
311
151
108
102
78
316
168
358
80
81
263
399
106
132
269
346
349
140
215
320
32
292
154
384
210
68
172
170
29
63
365
201
206
145
236
207
182
202
244
162
195
302
224
280
160
241
274

>  <PUBCHEM_MMFF94_PARTIAL_CHARGES>  (1) 
13
1 -0.43
10 0.66
11 0.28
18 0.36
19 0.36
2 -0.65
25 0.5
3 -0.57
4 -0.57
5 -0.99
7 0.33
8 0.06
9 0.66

>  <PUBCHEM_EFFECTIVE_ROTOR_COUNT>  (1) 
6

>  <PUBCHEM_PHARMACOPHORE_FEATURES>  (1) 
6
1 2 acceptor
1 3 acceptor
1 4 acceptor
1 5 cation
1 5 donor
3 2 4 10 anion

>  <PUBCHEM_HEAVY_ATOM_COUNT>  (1) 
12

>  <PUBCHEM_ATOM_DEF_STEREO_COUNT>  (1) 
0

>  <PUBCHEM_ATOM_UDEF_STEREO_COUNT>  (1) 
1

>  <PUBCHEM_BOND_DEF_STEREO_COUNT>  (1) 
0

>  <PUBCHEM_BOND_UDEF_STEREO_COUNT>  (1) 
0

>  <PUBCHEM_ISOTOPIC_ATOM_COUNT>  (1) 
0

>  <PUBCHEM_COMPONENT_COUNT>  (1) 
1

>  <PUBCHEM_CACTVS_TAUTO_COUNT>  (1) 
1

>  <PUBCHEM_CONFORMER_ID>  (1) 
000037A100000003

>  <PUBCHEM_MMFF94_ENERGY>  (1) 
7.6352

>  <PUBCHEM_FEATURE_SELFOVERLAP>  (1) 
30.506

>  <PUBCHEM_SHAPE_FINGERPRINT>  (1) 
11062470 55 17603866697635424853
12119455 92 14634856579018545282
12251169 10 8286190652330918880
124424 183 8574436408866304875
12897270 3 18343297059176169267
14897335 6 17168142351767183722
15310529 11 18200306615682149831
15775835 57 16588023506713047600
17834069 15 9511191745603573283
18511873 20 9439403540419859206
18534176 82 18187375371081416498
19422 9 13038900075044357459
20281407 28 13110966401040883462
20300324 65 18410294730868258228
20645464 45 10953456315054956905
20871999 31 18338786901814473471
21119208 17 18202283597750075348
21293036 1 17989490740550629858
22169311 14 10881405352573134532
22485316 2 13110962007257691148
23402539 116 18259979383954314838
23402655 69 18410010992333064908
23557571 272 18042707128598773370
265663 24 18186513315827375474
328317 168 17676769854986167516
351380 180 18333447669086771460
42 15 9727633916582172389
449060 23 14476965579645929408
528716 315 18411981373352526975
83771 10 12751240290051796570

>  <PUBCHEM_SHAPE_MULTIPOLES>  (1) 
218.5
7.69
1.27
0.97
3.9
0.15
0.22
2.09
-2.37
-0.31
-0.12
0.03
-0.18
-0.16

>  <PUBCHEM_SHAPE_SELFOVERLAP>  (1) 
412.861

>  <PUBCHEM_SHAPE_VOLUME>  (1) 
134.9

>  <PUBCHEM_COORDINATE_TYPE>  (1) 
2
5
10

$$$$
