14265
     RDKit          3D

  7  7  0  0  1  0  0  0  0  0999 V2000
   -1.0040   -1.7435   -0.0543 O   0  0  0  0  0  0  0  0  0  0  0  0
   -0.5876    0.6229   -0.4007 C   0  0  0  0  0  0  0  0  0  0  0  0
    0.6408    1.3801    0.1076 C   0  0  0  0  0  0  0  0  0  0  0  0
    1.7962    0.4164   -0.1312 C   0  0  0  0  0  0  0  0  0  0  0  0
    1.2466   -0.9441    0.2794 C   0  0  0  0  0  0  0  0  0  0  0  0
   -0.2164   -0.8058   -0.0591 C   0  0  0  0  0  0  0  0  0  0  0  0
   -1.8755    1.0741    0.2582 C   0  0  0  0  0  0  0  0  0  0  0  0
  1  6  2  0
  2  3  1  0
  2  6  1  0
  2  7  1  0
  3  4  1  0
  4  5  1  0
  5  6  1  0
M  END
>  <PUBCHEM_COMPOUND_CID>  (1) 
14265

>  <PUBCHEM_CONFORMER_RMSD>  (1) 
0.4

>  <PUBCHEM_CONFORMER_DIVERSEORDER>  (1) 
1
2

>  <PUBCHEM_MMFF94_PARTIAL_CHARGES>  (1) 
4
1 -0.57
2 0.06
5 0.06
6 0.45

>  <PUBCHEM_EFFECTIVE_ROTOR_COUNT>  (1) 
0.8

>  <PUBCHEM_PHARMACOPHORE_FEATURES>  (1) 
2
1 1 acceptor
5 2 3 4 5 6 rings

>  <PUBCHEM_HEAVY_ATOM_COUNT>  (1) 
7

>  <PUBCHEM_ATOM_DEF_STEREO_COUNT>  (1) 
0

>  <PUBCHEM_ATOM_UDEF_STEREO_COUNT>  (1) 
1

>  <PUBCHEM_BOND_DEF_STEREO_COUNT>  (1) 
0

>  <PUBCHEM_BOND_UDEF_STEREO_COUNT>  (1) 
0

>  <PUBCHEM_ISOTOPIC_ATOM_COUNT>  (1) 
0

>  <PUBCHEM_COMPONENT_COUNT>  (1) 
1

>  <PUBCHEM_CACTVS_TAUTO_COUNT>  (1) 
3

>  <PUBCHEM_CONFORMER_ID>  (1) 
000037B900000001

>  <PUBCHEM_MMFF94_ENERGY>  (1) 
4.8871

>  <PUBCHEM_FEATURE_SELFOVERLAP>  (1) 
10.148

>  <PUBCHEM_SHAPE_FINGERPRINT>  (1) 
16714656 1 18193845846934643566
20096714 4 18411136896539999972
21040471 1 18411136900840300500
23552423 10 18187930637860253054
29004967 10 17759248396804296713
5943 1 11000623340745986909

>  <PUBCHEM_SHAPE_MULTIPOLES>  (1) 
138.19
2.08
1.67
0.65
0.33
0.44
0
-0.43
0.16
0.09
0.02
0.01
-0.04
-0.1

>  <PUBCHEM_SHAPE_SELFOVERLAP>  (1) 
271.549

>  <PUBCHEM_SHAPE_VOLUME>  (1) 
85.4

>  <PUBCHEM_COORDINATE_TYPE>  (1) 
2
5
10

$$$$
