14263
     RDKit          3D

  6  6  0  0  1  0  0  0  0  0999 V2000
   -0.8039    0.0237   -0.4231 C   0  0  0  0  0  0  0  0  0  0  0  0
    0.0655    1.2111    0.0163 C   0  0  0  0  0  0  0  0  0  0  0  0
    1.5044    0.6943    0.0377 C   0  0  0  0  0  0  0  0  0  0  0  0
    0.0621   -1.1495   -0.0812 C   0  0  0  0  0  0  0  0  0  0  0  0
    1.3226   -0.7803    0.1658 C   0  0  0  0  0  0  0  0  0  0  0  0
   -2.1507    0.0006    0.2846 C   0  0  0  0  0  0  0  0  0  0  0  0
  1  2  1  0
  1  4  1  0
  1  6  1  0
  2  3  1  0
  3  5  1  0
  4  5  2  0
M  END
>  <PUBCHEM_COMPOUND_CID>  (1) 
14263

>  <PUBCHEM_CONFORMER_RMSD>  (1) 
0.4

>  <PUBCHEM_CONFORMER_DIVERSEORDER>  (1) 
1

>  <PUBCHEM_MMFF94_PARTIAL_CHARGES>  (1) 
6
1 0.14
12 0.15
13 0.15
3 0.14
4 -0.29
5 -0.29

>  <PUBCHEM_EFFECTIVE_ROTOR_COUNT>  (1) 
0.6

>  <PUBCHEM_PHARMACOPHORE_FEATURES>  (1) 
1
5 1 2 3 4 5 rings

>  <PUBCHEM_HEAVY_ATOM_COUNT>  (1) 
6

>  <PUBCHEM_ATOM_DEF_STEREO_COUNT>  (1) 
0

>  <PUBCHEM_ATOM_UDEF_STEREO_COUNT>  (1) 
1

>  <PUBCHEM_BOND_DEF_STEREO_COUNT>  (1) 
0

>  <PUBCHEM_BOND_UDEF_STEREO_COUNT>  (1) 
0

>  <PUBCHEM_ISOTOPIC_ATOM_COUNT>  (1) 
0

>  <PUBCHEM_COMPONENT_COUNT>  (1) 
1

>  <PUBCHEM_CACTVS_TAUTO_COUNT>  (1) 
1

>  <PUBCHEM_CONFORMER_ID>  (1) 
000037B700000001

>  <PUBCHEM_MMFF94_ENERGY>  (1) 
5.2907

>  <PUBCHEM_FEATURE_SELFOVERLAP>  (1) 
5.074

>  <PUBCHEM_SHAPE_FINGERPRINT>  (1) 
16714656 1 18411143549707962348
20096714 4 18341331213905701248
21015797 1 9150300164999677374
21040471 1 18267021832986469244
29004967 10 18187368713892345121
5943 1 12563653813342466614

>  <PUBCHEM_SHAPE_MULTIPOLES>  (1) 
123.48
2.17
1.26
0.67
0.79
0.02
0.01
0.04
-0.24
-0.28
-0.01
0.05
0
-0.02

>  <PUBCHEM_SHAPE_SELFOVERLAP>  (1) 
240.667

>  <PUBCHEM_SHAPE_VOLUME>  (1) 
75

>  <PUBCHEM_COORDINATE_TYPE>  (1) 
2
5
10

$$$$
