14268
     RDKit          3D

  7  7  0  0  0  0  0  0  0  0999 V2000
    2.8130    0.0001   -0.0002 Br  0  0  0  0  0  0  0  0  0  0  0  0
   -1.8713   -0.0001   -0.0001 N   0  0  0  0  0  0  0  0  0  0  0  0
    0.9239    0.0000    0.0002 C   0  0  0  0  0  0  0  0  0  0  0  0
    0.2257    1.2026    0.0002 C   0  0  0  0  0  0  0  0  0  0  0  0
    0.2260   -1.2025    0.0000 C   0  0  0  0  0  0  0  0  0  0  0  0
   -1.1587    1.1487   -0.0001 C   0  0  0  0  0  0  0  0  0  0  0  0
   -1.1585   -1.1488    0.0001 C   0  0  0  0  0  0  0  0  0  0  0  0
  1  3  1  0
  2  6  2  0
  2  7  1  0
  3  4  2  0
  3  5  1  0
  4  6  1  0
  5  7  2  0
M  END
>  <PUBCHEM_COMPOUND_CID>  (1) 
14268

>  <PUBCHEM_CONFORMER_RMSD>  (1) 
0.4

>  <PUBCHEM_CONFORMER_DIVERSEORDER>  (1) 
1

>  <PUBCHEM_MMFF94_PARTIAL_CHARGES>  (1) 
11
1 -0.11
10 0.15
11 0.15
2 -0.62
3 0.11
4 -0.15
5 -0.15
6 0.16
7 0.16
8 0.15
9 0.15

>  <PUBCHEM_EFFECTIVE_ROTOR_COUNT>  (1) 
0

>  <PUBCHEM_PHARMACOPHORE_FEATURES>  (1) 
3
1 1 hydrophobe
1 2 acceptor
6 2 3 4 5 6 7 rings

>  <PUBCHEM_HEAVY_ATOM_COUNT>  (1) 
7

>  <PUBCHEM_ATOM_DEF_STEREO_COUNT>  (1) 
0

>  <PUBCHEM_ATOM_UDEF_STEREO_COUNT>  (1) 
0

>  <PUBCHEM_BOND_DEF_STEREO_COUNT>  (1) 
0

>  <PUBCHEM_BOND_UDEF_STEREO_COUNT>  (1) 
0

>  <PUBCHEM_ISOTOPIC_ATOM_COUNT>  (1) 
0

>  <PUBCHEM_COMPONENT_COUNT>  (1) 
1

>  <PUBCHEM_CACTVS_TAUTO_COUNT>  (1) 
1

>  <PUBCHEM_CONFORMER_ID>  (1) 
000037BC00000001

>  <PUBCHEM_MMFF94_ENERGY>  (1) 
14.3754

>  <PUBCHEM_FEATURE_SELFOVERLAP>  (1) 
15.223

>  <PUBCHEM_SHAPE_FINGERPRINT>  (1) 
16714656 1 18410577288213390902
21040471 1 18266740177631740100
23552423 10 18260270724692755742
29004967 10 18337117846830527722
369184 2 18412258437392465490

>  <PUBCHEM_SHAPE_MULTIPOLES>  (1) 
145.02
2.93
1.41
0.63
2.02
0
0
0
0
-0.4
0
0.08
0
0

>  <PUBCHEM_SHAPE_SELFOVERLAP>  (1) 
283.226

>  <PUBCHEM_SHAPE_VOLUME>  (1) 
89.4

>  <PUBCHEM_COORDINATE_TYPE>  (1) 
2
5
10

$$$$
