14273
     RDKit          3D

  8  8  0  0  0  0  0  0  0  0999 V2000
    2.8018   -0.3617   -0.0001 O   0  0  0  0  0  0  0  0  0  0  0  0
    0.1700   -1.0492    0.0005 N   0  0  0  0  0  0  0  0  0  0  0  0
    0.5182    0.2572    0.0007 C   0  0  0  0  0  0  0  0  0  0  0  0
   -0.3915    1.3024    0.0004 C   0  0  0  0  0  0  0  0  0  0  0  0
   -1.7456    0.9865   -0.0002 C   0  0  0  0  0  0  0  0  0  0  0  0
   -2.1431   -0.3460   -0.0004 C   0  0  0  0  0  0  0  0  0  0  0  0
   -1.1551   -1.3174   -0.0002 C   0  0  0  0  0  0  0  0  0  0  0  0
    1.9455    0.5281   -0.0007 C   0  0  0  0  0  0  0  0  0  0  0  0
  1  8  2  0
  2  3  2  0
  2  7  1  0
  3  4  1  0
  3  8  1  0
  4  5  2  0
  5  6  1  0
  6  7  2  0
M  END
>  <PUBCHEM_COMPOUND_CID>  (1) 
14273

>  <PUBCHEM_CONFORMER_RMSD>  (1) 
0.4

>  <PUBCHEM_CONFORMER_DIVERSEORDER>  (1) 
1
2

>  <PUBCHEM_MMFF94_PARTIAL_CHARGES>  (1) 
13
1 -0.57
10 0.15
11 0.15
12 0.15
13 0.06
2 -0.62
3 0.4
4 -0.15
5 -0.15
6 -0.15
7 0.16
8 0.42
9 0.15

>  <PUBCHEM_EFFECTIVE_ROTOR_COUNT>  (1) 
1

>  <PUBCHEM_PHARMACOPHORE_FEATURES>  (1) 
3
1 1 acceptor
1 2 acceptor
6 2 3 4 5 6 7 rings

>  <PUBCHEM_HEAVY_ATOM_COUNT>  (1) 
8

>  <PUBCHEM_ATOM_DEF_STEREO_COUNT>  (1) 
0

>  <PUBCHEM_ATOM_UDEF_STEREO_COUNT>  (1) 
0

>  <PUBCHEM_BOND_DEF_STEREO_COUNT>  (1) 
0

>  <PUBCHEM_BOND_UDEF_STEREO_COUNT>  (1) 
0

>  <PUBCHEM_ISOTOPIC_ATOM_COUNT>  (1) 
0

>  <PUBCHEM_COMPONENT_COUNT>  (1) 
1

>  <PUBCHEM_CACTVS_TAUTO_COUNT>  (1) 
1

>  <PUBCHEM_CONFORMER_ID>  (1) 
000037C100000001

>  <PUBCHEM_MMFF94_ENERGY>  (1) 
16.8563

>  <PUBCHEM_FEATURE_SELFOVERLAP>  (1) 
15.229

>  <PUBCHEM_SHAPE_FINGERPRINT>  (1) 
16714656 1 18410013242864032493
18185500 45 18263078975646517431
21040471 1 18338798892698388769
23552423 10 18187929520878696606
29004967 10 16200156499385954364
369184 2 15195285317743431622
5084963 1 18412262839312106640

>  <PUBCHEM_SHAPE_MULTIPOLES>  (1) 
153.79
3.1
1.37
0.59
1.59
0.01
0
0.18
0
-0.44
0
-0.04
-0.02
0

>  <PUBCHEM_SHAPE_SELFOVERLAP>  (1) 
318.572

>  <PUBCHEM_SHAPE_VOLUME>  (1) 
86.8

>  <PUBCHEM_COORDINATE_TYPE>  (1) 
2
5
10

$$$$
