14272
     RDKit          3D

  8  8  0  0  0  0  0  0  0  0999 V2000
    1.3013   -1.3322    0.0174 N   0  0  0  0  0  0  0  0  0  0  0  0
   -0.5439    0.2275    0.1033 C   0  0  0  0  0  0  0  0  0  0  0  0
    0.3430    1.2937    0.0015 C   0  0  0  0  0  0  0  0  0  0  0  0
   -0.0188   -1.0547    0.1069 C   0  0  0  0  0  0  0  0  0  0  0  0
    1.7084    1.0483   -0.0925 C   0  0  0  0  0  0  0  0  0  0  0  0
   -1.9747    0.4510    0.2032 C   0  0  0  0  0  0  0  0  0  0  0  0
    2.1327   -0.2705   -0.0801 C   0  0  0  0  0  0  0  0  0  0  0  0
   -2.9480   -0.3631   -0.2596 C   0  0  0  0  0  0  0  0  0  0  0  0
  1  4  2  0
  1  7  1  0
  2  3  2  0
  2  4  1  0
  2  6  1  0
  3  5  1  0
  5  7  2  0
  6  8  2  0
M  END
>  <PUBCHEM_COMPOUND_CID>  (1) 
14272

>  <PUBCHEM_CONFORMER_RMSD>  (1) 
0.4

>  <PUBCHEM_CONFORMER_DIVERSEORDER>  (1) 
1
2

>  <PUBCHEM_MMFF94_PARTIAL_CHARGES>  (1) 
15
1 -0.62
10 0.15
11 0.15
12 0.15
13 0.15
14 0.15
15 0.15
2 0.03
3 -0.15
4 0.16
5 -0.15
6 -0.18
7 0.16
8 -0.3
9 0.15

>  <PUBCHEM_EFFECTIVE_ROTOR_COUNT>  (1) 
1

>  <PUBCHEM_PHARMACOPHORE_FEATURES>  (1) 
3
1 1 acceptor
1 8 hydrophobe
6 1 2 3 4 5 7 rings

>  <PUBCHEM_HEAVY_ATOM_COUNT>  (1) 
8

>  <PUBCHEM_ATOM_DEF_STEREO_COUNT>  (1) 
0

>  <PUBCHEM_ATOM_UDEF_STEREO_COUNT>  (1) 
0

>  <PUBCHEM_BOND_DEF_STEREO_COUNT>  (1) 
0

>  <PUBCHEM_BOND_UDEF_STEREO_COUNT>  (1) 
0

>  <PUBCHEM_ISOTOPIC_ATOM_COUNT>  (1) 
0

>  <PUBCHEM_COMPONENT_COUNT>  (1) 
1

>  <PUBCHEM_CACTVS_TAUTO_COUNT>  (1) 
1

>  <PUBCHEM_CONFORMER_ID>  (1) 
000037C000000001

>  <PUBCHEM_MMFF94_ENERGY>  (1) 
21.2282

>  <PUBCHEM_FEATURE_SELFOVERLAP>  (1) 
15.223

>  <PUBCHEM_SHAPE_FINGERPRINT>  (1) 
12897270 3 18409164428793796277
14128692 85 18272371949177240207
14325111 11 18410293652942152229
18185500 45 18341612564412736891
21040471 1 18265898153746569176
23402655 69 18267287761031323821
23552423 10 18262244296023605839
29004967 10 18334581221881225393
5084963 1 18413952788747314881

>  <PUBCHEM_SHAPE_MULTIPOLES>  (1) 
159.66
3.41
1.34
0.63
1.92
0.04
0
0.16
-0.27
-0.47
0.01
0.05
-0.01
-0.07

>  <PUBCHEM_SHAPE_SELFOVERLAP>  (1) 
327.448

>  <PUBCHEM_SHAPE_VOLUME>  (1) 
91.6

>  <PUBCHEM_COORDINATE_TYPE>  (1) 
2
5
10

$$$$
