14277
     RDKit          3D

  9  9  0  0  0  0  0  0  0  0999 V2000
   -2.3946   -0.7344    0.4479 S   0  0  0  0  0  0  0  0  0  0  0  0
   -2.2502    0.9114   -0.7631 S   0  0  0  0  0  0  0  0  0  0  0  0
    2.3090    1.1992   -0.0314 O   0  0  0  0  0  0  0  0  0  0  0  0
    1.3136   -1.9096   -0.4948 O   0  0  0  0  0  0  0  0  0  0  0  0
    0.1968    0.0991    0.1571 C   0  0  0  0  0  0  0  0  0  0  0  0
   -0.7221   -0.6485    1.1452 C   0  0  0  0  0  0  0  0  0  0  0  0
   -0.5464    1.3598   -0.3309 C   0  0  0  0  0  0  0  0  0  0  0  0
    1.4800    0.5278    0.8927 C   0  0  0  0  0  0  0  0  0  0  0  0
    0.6140   -0.8047   -1.0227 C   0  0  0  0  0  0  0  0  0  0  0  0
  1  2  1  0
  1  6  1  0
  2  7  1  0
  3  8  1  0
  4  9  1  0
  5  6  1  0
  5  7  1  0
  5  8  1  0
  5  9  1  0
M  END
>  <PUBCHEM_COMPOUND_CID>  (1) 
14277

>  <PUBCHEM_CONFORMER_RMSD>  (1) 
0.6

>  <PUBCHEM_CONFORMER_DIVERSEORDER>  (1) 
1
8
2
3
7
4
6
5

>  <PUBCHEM_MMFF94_PARTIAL_CHARGES>  (1) 
10
1 -0.23
18 0.4
19 0.4
2 -0.23
3 -0.68
4 -0.68
6 0.23
7 0.23
8 0.28
9 0.28

>  <PUBCHEM_EFFECTIVE_ROTOR_COUNT>  (1) 
3

>  <PUBCHEM_PHARMACOPHORE_FEATURES>  (1) 
5
1 3 acceptor
1 3 donor
1 4 acceptor
1 4 donor
5 1 2 5 6 7 rings

>  <PUBCHEM_HEAVY_ATOM_COUNT>  (1) 
9

>  <PUBCHEM_ATOM_DEF_STEREO_COUNT>  (1) 
0

>  <PUBCHEM_ATOM_UDEF_STEREO_COUNT>  (1) 
0

>  <PUBCHEM_BOND_DEF_STEREO_COUNT>  (1) 
0

>  <PUBCHEM_BOND_UDEF_STEREO_COUNT>  (1) 
0

>  <PUBCHEM_ISOTOPIC_ATOM_COUNT>  (1) 
0

>  <PUBCHEM_COMPONENT_COUNT>  (1) 
1

>  <PUBCHEM_CACTVS_TAUTO_COUNT>  (1) 
1

>  <PUBCHEM_CONFORMER_ID>  (1) 
000037C500000001

>  <PUBCHEM_MMFF94_ENERGY>  (1) 
23.3113

>  <PUBCHEM_FEATURE_SELFOVERLAP>  (1) 
25.372

>  <PUBCHEM_SHAPE_FINGERPRINT>  (1) 
12138202 97 18187070754989473071
12423570 1 14575468266377412837
137420 1 11608379239297742617
13839132 238 18114739339538127037
14128692 85 17130403710702652126
16945 1 18341886450335294329
20711978 78 17774176603708490975
21040471 1 18128522941873633640
23211744 41 18261946461653673497
23552333 60 16916773055559938543
24536 1 18269547261093291449
29004967 10 18343586252398988953
5084963 1 17843967172062542672
68250623 7 18188188958140938858

>  <PUBCHEM_SHAPE_MULTIPOLES>  (1) 
181.18
2.99
1.58
1.11
0.58
0.12
0.01
-0.37
0.01
-0.16
-0.25
-0.04
0.2
0.64

>  <PUBCHEM_SHAPE_SELFOVERLAP>  (1) 
330.496

>  <PUBCHEM_SHAPE_VOLUME>  (1) 
118.4

>  <PUBCHEM_COORDINATE_TYPE>  (1) 
2
5
10

$$$$
