14280
     RDKit          3D

  9  9  0  0  0  0  0  0  0  0999 V2000
   -1.2027   -1.2216   -0.0002 N   0  0  0  0  0  0  0  0  0  0  0  0
    0.7487    0.7798    0.0000 C   0  0  0  0  0  0  0  0  0  0  0  0
    1.1225   -0.5594    0.0000 C   0  0  0  0  0  0  0  0  0  0  0  0
   -0.5998    1.1195   -0.0001 C   0  0  0  0  0  0  0  0  0  0  0  0
   -1.5277    0.0906   -0.0003 C   0  0  0  0  0  0  0  0  0  0  0  0
    1.7739    1.8649    0.0000 C   0  0  0  0  0  0  0  0  0  0  0  0
    0.1174   -1.5131    0.0001 C   0  0  0  0  0  0  0  0  0  0  0  0
    2.5515   -0.9789    0.0001 C   0  0  0  0  0  0  0  0  0  0  0  0
   -2.9837    0.4183    0.0004 C   0  0  0  0  0  0  0  0  0  0  0  0
  1  5  2  0
  1  7  1  0
  2  3  1  0
  2  4  2  0
  2  6  1  0
  3  7  2  0
  3  8  1  0
  4  5  1  0
  5  9  1  0
M  END
>  <PUBCHEM_COMPOUND_CID>  (1) 
14280

>  <PUBCHEM_CONFORMER_RMSD>  (1) 
0.4

>  <PUBCHEM_CONFORMER_DIVERSEORDER>  (1) 
1

>  <PUBCHEM_MMFF94_PARTIAL_CHARGES>  (1) 
11
1 -0.62
10 0.15
14 0.15
2 -0.14
3 -0.14
4 -0.15
5 0.17
6 0.14
7 0.16
8 0.14
9 0.14

>  <PUBCHEM_EFFECTIVE_ROTOR_COUNT>  (1) 
0

>  <PUBCHEM_PHARMACOPHORE_FEATURES>  (1) 
2
1 1 acceptor
6 1 2 3 4 5 7 rings

>  <PUBCHEM_HEAVY_ATOM_COUNT>  (1) 
9

>  <PUBCHEM_ATOM_DEF_STEREO_COUNT>  (1) 
0

>  <PUBCHEM_ATOM_UDEF_STEREO_COUNT>  (1) 
0

>  <PUBCHEM_BOND_DEF_STEREO_COUNT>  (1) 
0

>  <PUBCHEM_BOND_UDEF_STEREO_COUNT>  (1) 
0

>  <PUBCHEM_ISOTOPIC_ATOM_COUNT>  (1) 
0

>  <PUBCHEM_COMPONENT_COUNT>  (1) 
1

>  <PUBCHEM_CACTVS_TAUTO_COUNT>  (1) 
1

>  <PUBCHEM_CONFORMER_ID>  (1) 
000037C800000001

>  <PUBCHEM_MMFF94_ENERGY>  (1) 
21.5159

>  <PUBCHEM_FEATURE_SELFOVERLAP>  (1) 
10.148

>  <PUBCHEM_SHAPE_FINGERPRINT>  (1) 
12423570 1 11470992190489560681
14325111 11 18410575119550487365
16945 1 18338517439127864871
18185500 45 18194401095684726898
193761 8 18194402431488283590
21040471 1 18266741478943579233
23402655 69 17906433456512328757
23552423 10 18261955274984593438
241688 4 17619636778217141842
2748010 2 18337956817073137351
29004967 10 18264493892529656891
5084963 1 18201997694709418817

>  <PUBCHEM_SHAPE_MULTIPOLES>  (1) 
180.23
3.37
1.77
0.61
1.12
0.26
0
0.1
0
-0.78
0
-0.01
0.01
0

>  <PUBCHEM_SHAPE_SELFOVERLAP>  (1) 
368.509

>  <PUBCHEM_SHAPE_VOLUME>  (1) 
105.6

>  <PUBCHEM_COORDINATE_TYPE>  (1) 
2
5
10

$$$$
