14291
     RDKit          3D

  9  9  0  0  1  0  0  0  0  0999 V2000
   -0.2016   -2.6935    0.0738 O   0  0  0  0  0  0  0  0  0  0  0  0
    1.2921    0.5839    0.3282 C   0  0  0  0  0  0  0  0  0  0  0  0
    0.1067    1.4365   -0.1439 C   0  0  0  0  0  0  0  0  0  0  0  0
    1.2348   -0.8089   -0.2956 C   0  0  0  0  0  0  0  0  0  0  0  0
   -1.2120    0.7157   -0.0194 C   0  0  0  0  0  0  0  0  0  0  0  0
    2.6177    1.2712    0.0098 C   0  0  0  0  0  0  0  0  0  0  0  0
   -0.0955   -1.4717   -0.0174 C   0  0  0  0  0  0  0  0  0  0  0  0
   -1.3075   -0.6198    0.0689 C   0  0  0  0  0  0  0  0  0  0  0  0
   -2.4348    1.5867   -0.0043 C   0  0  0  0  0  0  0  0  0  0  0  0
  1  7  2  0
  2  3  1  0
  2  4  1  0
  2  6  1  0
  3  5  1  0
  4  7  1  0
  5  8  2  0
  5  9  1  0
  7  8  1  0
M  END
>  <PUBCHEM_COMPOUND_CID>  (1) 
14291

>  <PUBCHEM_CONFORMER_RMSD>  (1) 
0.4

>  <PUBCHEM_CONFORMER_DIVERSEORDER>  (1) 
1
3
2

>  <PUBCHEM_MMFF94_PARTIAL_CHARGES>  (1) 
8
1 -0.57
18 0.15
3 0.14
4 0.06
5 -0.28
7 0.49
8 -0.14
9 0.14

>  <PUBCHEM_EFFECTIVE_ROTOR_COUNT>  (1) 
0.6

>  <PUBCHEM_PHARMACOPHORE_FEATURES>  (1) 
2
1 1 acceptor
6 2 3 4 5 7 8 rings

>  <PUBCHEM_HEAVY_ATOM_COUNT>  (1) 
9

>  <PUBCHEM_ATOM_DEF_STEREO_COUNT>  (1) 
0

>  <PUBCHEM_ATOM_UDEF_STEREO_COUNT>  (1) 
1

>  <PUBCHEM_BOND_DEF_STEREO_COUNT>  (1) 
0

>  <PUBCHEM_BOND_UDEF_STEREO_COUNT>  (1) 
0

>  <PUBCHEM_ISOTOPIC_ATOM_COUNT>  (1) 
0

>  <PUBCHEM_COMPONENT_COUNT>  (1) 
1

>  <PUBCHEM_CACTVS_TAUTO_COUNT>  (1) 
8

>  <PUBCHEM_CONFORMER_ID>  (1) 
000037D300000001

>  <PUBCHEM_MMFF94_ENERGY>  (1) 
7.6263

>  <PUBCHEM_FEATURE_SELFOVERLAP>  (1) 
10.148

>  <PUBCHEM_SHAPE_FINGERPRINT>  (1) 
12423570 1 18048904053526440400
16945 1 18194401327728966432
18185500 45 17042328238055750895
20871998 184 17911808186489986470
21040471 1 18410855481761474700
23235685 24 18411414012051363977
23552423 10 18123749751570849533
23552449 1 17834954548395962608
2748010 2 18410017619409268509
29004967 10 17760654663686313017
5084963 1 18202565085469165553

>  <PUBCHEM_SHAPE_MULTIPOLES>  (1) 
179.35
2.81
2.37
0.63
0.13
1.37
0
-1.9
-0.02
-0.11
-0.01
0.03
-0.03
0.08

>  <PUBCHEM_SHAPE_SELFOVERLAP>  (1) 
355.338

>  <PUBCHEM_SHAPE_VOLUME>  (1) 
106.8

>  <PUBCHEM_COORDINATE_TYPE>  (1) 
2
5
10

$$$$
