14301
     RDKit          3D

 10 10  0  0  0  0  0  0  0  0999 V2000
    2.6799    0.6704   -0.7970 O   0  0  0  0  0  0  0  0  0  0  0  0
    0.8537   -0.4217    0.1474 N   0  0  0  0  0  0  0  0  0  0  0  0
   -0.1436   -0.0082   -0.8145 C   0  0  0  0  0  0  0  0  0  0  0  0
   -1.2155   -1.0882   -0.9953 C   0  0  0  0  0  0  0  0  0  0  0  0
   -0.7684    1.3337   -0.4181 C   0  0  0  0  0  0  0  0  0  0  0  0
   -2.1390   -1.2046    0.2173 C   0  0  0  0  0  0  0  0  0  0  0  0
   -1.6926    1.2134    0.7937 C   0  0  0  0  0  0  0  0  0  0  0  0
   -2.7572    0.1407    0.5855 C   0  0  0  0  0  0  0  0  0  0  0  0
    2.1836   -0.0438    0.0703 C   0  0  0  0  0  0  0  0  0  0  0  0
    2.9991   -0.5917    1.2106 C   0  0  0  0  0  0  0  0  0  0  0  0
  1  9  2  0
  2  3  1  0
  2  9  1  0
  3  4  1  0
  3  5  1  0
  4  6  1  0
  5  7  1  0
  6  8  1  0
  7  8  1  0
  9 10  1  0
M  END
>  <PUBCHEM_COMPOUND_CID>  (1) 
14301

>  <PUBCHEM_CONFORMER_RMSD>  (1) 
0.6

>  <PUBCHEM_CONFORMER_DIVERSEORDER>  (1) 
1
4
5
2
3

>  <PUBCHEM_MMFF94_PARTIAL_CHARGES>  (1) 
6
1 -0.57
10 0.06
2 -0.73
22 0.37
3 0.3
9 0.57

>  <PUBCHEM_EFFECTIVE_ROTOR_COUNT>  (1) 
3.2

>  <PUBCHEM_PHARMACOPHORE_FEATURES>  (1) 
3
1 1 acceptor
1 2 donor
6 3 4 5 6 7 8 rings

>  <PUBCHEM_HEAVY_ATOM_COUNT>  (1) 
10

>  <PUBCHEM_ATOM_DEF_STEREO_COUNT>  (1) 
0

>  <PUBCHEM_ATOM_UDEF_STEREO_COUNT>  (1) 
0

>  <PUBCHEM_BOND_DEF_STEREO_COUNT>  (1) 
0

>  <PUBCHEM_BOND_UDEF_STEREO_COUNT>  (1) 
0

>  <PUBCHEM_ISOTOPIC_ATOM_COUNT>  (1) 
0

>  <PUBCHEM_COMPONENT_COUNT>  (1) 
1

>  <PUBCHEM_CACTVS_TAUTO_COUNT>  (1) 
2

>  <PUBCHEM_CONFORMER_ID>  (1) 
000037DD00000001

>  <PUBCHEM_MMFF94_ENERGY>  (1) 
5.3003

>  <PUBCHEM_FEATURE_SELFOVERLAP>  (1) 
15.223

>  <PUBCHEM_SHAPE_FINGERPRINT>  (1) 
10857977 72 18130790091900350433
12696612 119 17844512495855628440
12897270 3 11891336447707992818
12932764 1 17967254191393967508
13024252 1 15936688173237838733
16945 1 18131072640703255031
20645464 45 16845566513560455874
20653085 51 13686306742284362563
20871998 184 17845661468347812575
21028194 46 17417534588069304273
23552423 10 17974854174552572005
29004967 10 15864077597559667493
3248919 1 18413385428025984998
369184 2 17603864498722952005
5084963 1 18200321995912421054
54338 74 18269546290536080135

>  <PUBCHEM_SHAPE_MULTIPOLES>  (1) 
194.94
4.45
1.31
1.1
2.63
0.08
0.04
-0.25
1.34
-0.75
-0.05
0.28
-0.03
-0.46

>  <PUBCHEM_SHAPE_SELFOVERLAP>  (1) 
376.338

>  <PUBCHEM_SHAPE_VOLUME>  (1) 
117.6

>  <PUBCHEM_COORDINATE_TYPE>  (1) 
2
5
10

$$$$
