14314
     RDKit          3D

 12 13  0  0  0  0  0  0  0  0999 V2000
    2.6346    1.2374   -0.2821 S   0  0  0  0  0  0  0  0  0  0  0  0
   -2.1711    0.2610    0.0769 N   0  0  0  0  0  0  0  0  0  0  0  0
   -0.5588    1.7941   -0.0626 N   0  0  0  0  0  0  0  0  0  0  0  0
   -0.8290   -1.7626    0.0117 N   0  0  0  0  0  0  0  0  0  0  0  0
    1.5491   -1.2435   -0.1661 N   0  0  0  0  0  0  0  0  0  0  0  0
   -0.9962   -0.4316    0.0034 C   0  0  0  0  0  0  0  0  0  0  0  0
   -0.0089    0.5369   -0.0818 C   0  0  0  0  0  0  0  0  0  0  0  0
   -1.8566    1.5934    0.0330 C   0  0  0  0  0  0  0  0  0  0  0  0
    1.3056    0.0893   -0.1687 C   0  0  0  0  0  0  0  0  0  0  0  0
   -3.4988   -0.2943    0.1817 C   0  0  0  0  0  0  0  0  0  0  0  0
    0.4825   -2.0744   -0.0773 C   0  0  0  0  0  0  0  0  0  0  0  0
    3.9476    0.2943    0.5318 C   0  0  0  0  0  0  0  0  0  0  0  0
  1  9  1  0
  1 12  1  0
  2  6  1  0
  2  8  1  0
  2 10  1  0
  3  7  1  0
  3  8  2  0
  4  6  2  0
  4 11  1  0
  5  9  1  0
  5 11  2  0
  6  7  1  0
  7  9  2  0
M  END
>  <PUBCHEM_COMPOUND_CID>  (1) 
14314

>  <PUBCHEM_CONFORMER_RMSD>  (1) 
0.4

>  <PUBCHEM_CONFORMER_DIVERSEORDER>  (1) 
1
5
2
4
3

>  <PUBCHEM_MMFF94_PARTIAL_CHARGES>  (1) 
14
1 -0.33
10 0.26
11 0.47
12 0.23
13 0.15
17 0.15
2 0.05
3 -0.57
4 -0.57
5 -0.62
6 0.11
7 0.23
8 0.04
9 0.41

>  <PUBCHEM_EFFECTIVE_ROTOR_COUNT>  (1) 
1

>  <PUBCHEM_PHARMACOPHORE_FEATURES>  (1) 
6
1 12 hydrophobe
1 5 acceptor
3 2 3 8 cation
3 4 5 11 cation
5 2 3 6 7 8 rings
6 4 5 6 7 9 11 rings

>  <PUBCHEM_HEAVY_ATOM_COUNT>  (1) 
12

>  <PUBCHEM_ATOM_DEF_STEREO_COUNT>  (1) 
0

>  <PUBCHEM_ATOM_UDEF_STEREO_COUNT>  (1) 
0

>  <PUBCHEM_BOND_DEF_STEREO_COUNT>  (1) 
0

>  <PUBCHEM_BOND_UDEF_STEREO_COUNT>  (1) 
0

>  <PUBCHEM_ISOTOPIC_ATOM_COUNT>  (1) 
0

>  <PUBCHEM_COMPONENT_COUNT>  (1) 
1

>  <PUBCHEM_CACTVS_TAUTO_COUNT>  (1) 
1

>  <PUBCHEM_CONFORMER_ID>  (1) 
000037EA00000001

>  <PUBCHEM_MMFF94_ENERGY>  (1) 
19.1073

>  <PUBCHEM_FEATURE_SELFOVERLAP>  (1) 
30.579

>  <PUBCHEM_SHAPE_FINGERPRINT>  (1) 
11132069 177 18342736355406189210
12251169 10 18334569175115223024
13380535 76 18411136952501402774
14325111 11 18410856534176181268
16945 1 18410020952293373133
17846911 113 18341327868279275576
193761 8 17978230461160144589
20510252 161 18272652342118078944
20645476 183 17533515666298639270
20871998 184 18127697238706205030
21028194 46 18342738516218006688
21040471 1 18410579478593970902
21501502 16 18267022743757003849
23235685 24 18410569608632679980
2334 1 17690564503735161381
23402539 116 18342446080041515380
23402655 69 18268132190446268685
23463225 33 18333729122261273200
23552423 10 18191312567785996287
23559900 14 18200038473365808980
2748010 2 18193280697683686229
369184 2 16515680074148987596
5084963 1 18129664084424218010
528886 8 18411697733321915595
53812653 166 18272368710766650448
7364860 26 18127411142471310286

>  <PUBCHEM_SHAPE_MULTIPOLES>  (1) 
230.88
4.92
1.96
0.64
1.74
0.44
-0.01
-1.01
-0.72
-0.14
0.09
0.15
-0.02
-0.03

>  <PUBCHEM_SHAPE_SELFOVERLAP>  (1) 
482.333

>  <PUBCHEM_SHAPE_VOLUME>  (1) 
134

>  <PUBCHEM_COORDINATE_TYPE>  (1) 
2
5
10

$$$$
