1433
     RDKit          3D

 13 13  0  0  0  0  0  0  0  0999 V2000
   -2.1261   -0.2454   -0.4160 N   0  0  0  0  0  0  0  0  0  0  0  0
    3.4931   -2.1971   -0.5738 N   0  0  0  0  0  0  0  0  0  0  0  0
   -4.3161   -0.9788   -1.0914 N   0  0  0  0  0  0  0  0  0  0  0  0
    0.0579    0.5886    0.3244 C   0  0  0  0  0  0  0  0  0  0  0  0
    2.3292   -0.2028    0.2621 C   0  0  0  0  0  0  0  0  0  0  0  0
    0.9893   -0.4067    0.5920 C   0  0  0  0  0  0  0  0  0  0  0  0
   -1.3861    0.3688    0.6789 C   0  0  0  0  0  0  0  0  0  0  0  0
    3.3374   -1.2652    0.5444 C   0  0  0  0  0  0  0  0  0  0  0  0
    0.4443    1.7844   -0.2678 C   0  0  0  0  0  0  0  0  0  0  0  0
    2.7265    0.9947   -0.3329 C   0  0  0  0  0  0  0  0  0  0  0  0
    1.7840    1.9884   -0.5977 C   0  0  0  0  0  0  0  0  0  0  0  0
   -3.3909   -0.4358   -0.2304 C   0  0  0  0  0  0  0  0  0  0  0  0
   -3.9425    0.0069    1.1083 C   0  0  0  0  0  0  0  0  0  0  0  0
  1  7  1  0
  1 12  2  0
  2  8  1  0
  3 12  1  0
  4  6  2  0
  4  7  1  0
  4  9  1  0
  5  6  1  0
  5  8  1  0
  5 10  2  0
  9 11  2  0
 10 11  1  0
 12 13  1  0
M  END
>  <PUBCHEM_COMPOUND_CID>  (1) 
1433

>  <PUBCHEM_CONFORMER_RMSD>  (1) 
0.6

>  <PUBCHEM_CONFORMER_DIVERSEORDER>  (1) 
1
22
7
19
10
16
4
8
23
21
2
11
3
6
18
17
13
12
20
9
14
15
5

>  <PUBCHEM_MMFF94_PARTIAL_CHARGES>  (1) 
21
1 -0.7
10 -0.15
11 -0.15
12 0.44
13 0.06
14 0.15
19 0.15
2 -0.99
20 0.15
21 0.15
22 0.36
23 0.36
27 0.4
28 0.4
3 -0.85
4 -0.14
5 -0.14
6 -0.15
7 0.39
8 0.41
9 -0.15

>  <PUBCHEM_EFFECTIVE_ROTOR_COUNT>  (1) 
3

>  <PUBCHEM_PHARMACOPHORE_FEATURES>  (1) 
5
1 2 cation
1 2 donor
1 3 donor
3 1 3 12 cation
6 4 5 6 9 10 11 rings

>  <PUBCHEM_HEAVY_ATOM_COUNT>  (1) 
13

>  <PUBCHEM_ATOM_DEF_STEREO_COUNT>  (1) 
0

>  <PUBCHEM_ATOM_UDEF_STEREO_COUNT>  (1) 
0

>  <PUBCHEM_BOND_DEF_STEREO_COUNT>  (1) 
0

>  <PUBCHEM_BOND_UDEF_STEREO_COUNT>  (1) 
0

>  <PUBCHEM_ISOTOPIC_ATOM_COUNT>  (1) 
0

>  <PUBCHEM_COMPONENT_COUNT>  (1) 
1

>  <PUBCHEM_CACTVS_TAUTO_COUNT>  (1) 
2

>  <PUBCHEM_CONFORMER_ID>  (1) 
0000059900000001

>  <PUBCHEM_MMFF94_ENERGY>  (1) 
38.1971

>  <PUBCHEM_FEATURE_SELFOVERLAP>  (1) 
25.371

>  <PUBCHEM_SHAPE_FINGERPRINT>  (1) 
11471102 20 18187642539448054773
11769659 78 18201154369201276282
12932764 1 18059579134927948665
14251717 144 18335697269112128210
14252887 29 18410854339706336826
14350558 41 18131914849267004862
14576447 43 18270395139024116375
15477762 27 18409165541026801990
16945 1 18262531406446185072
18186145 218 17385442120382841777
19422 9 18343304794818503163
20279233 1 17022894705437904849
20281475 54 18343301504889437131
20339313 130 18408327674432694384
20645477 70 18334006220555747391
20671657 53 18114461163169873224
20871998 22 18338517413927766850
21501925 9 18335974307851729176
23402655 69 18261386780481795725
23598291 2 18413113848743543037
4463277 69 17988358148842452806
449060 23 18268713818415731754
5281201 14 17676485068885064677
7364860 26 18340768238794672368
77492 1 18130237033452011689
81539 233 17823702056656982524

>  <PUBCHEM_SHAPE_MULTIPOLES>  (1) 
252.59
7.45
1.82
0.95
6.28
0.15
-0.02
-3.61
0.75
-2.16
0.41
0.6
-0.12
-0.44

>  <PUBCHEM_SHAPE_SELFOVERLAP>  (1) 
513.021

>  <PUBCHEM_SHAPE_VOLUME>  (1) 
144.5

>  <PUBCHEM_COORDINATE_TYPE>  (1) 
2
5
10

$$$$
