14343
     RDKit          3D

 15 16  0  0  0  0  0  0  0  0999 V2000
    2.0967    1.9292    0.0003 O   0  0  0  0  0  0  0  0  0  0  0  0
    0.1254   -2.1599    0.0008 O   0  0  0  0  0  0  0  0  0  0  0  0
    2.3906   -2.3485   -0.0004 O   0  0  0  0  0  0  0  0  0  0  0  0
    0.7087    1.9959    0.0001 N   0  0  0  0  0  0  0  0  0  0  0  0
    0.2983    0.7227   -0.0003 C   0  0  0  0  0  0  0  0  0  0  0  0
    1.3773   -0.1812   -0.0003 C   0  0  0  0  0  0  0  0  0  0  0  0
   -1.1038    0.4107   -0.0002 C   0  0  0  0  0  0  0  0  0  0  0  0
    2.4828    0.6276    0.0000 C   0  0  0  0  0  0  0  0  0  0  0  0
   -1.7845    0.2593    1.2079 C   0  0  0  0  0  0  0  0  0  0  0  0
   -1.7847    0.2593   -1.2081 C   0  0  0  0  0  0  0  0  0  0  0  0
    3.9310    0.3794    0.0003 C   0  0  0  0  0  0  0  0  0  0  0  0
    1.3816   -1.6132   -0.0004 C   0  0  0  0  0  0  0  0  0  0  0  0
   -3.1461   -0.0435    1.2081 C   0  0  0  0  0  0  0  0  0  0  0  0
   -3.1463   -0.0433   -1.2079 C   0  0  0  0  0  0  0  0  0  0  0  0
   -3.8270   -0.1947    0.0002 C   0  0  0  0  0  0  0  0  0  0  0  0
  1  4  1  0
  1  8  1  0
  2 12  1  0
  3 12  2  0
  4  5  2  0
  5  6  1  0
  5  7  1  0
  6  8  2  0
  6 12  1  0
  7  9  2  0
  7 10  1  0
  8 11  1  0
  9 13  1  0
 10 14  2  0
 13 15  2  0
 14 15  1  0
M  END
>  <PUBCHEM_COMPOUND_CID>  (1) 
14343

>  <PUBCHEM_CONFORMER_RMSD>  (1) 
0.6

>  <PUBCHEM_CONFORMER_DIVERSEORDER>  (1) 
1
2
3

>  <PUBCHEM_MMFF94_PARTIAL_CHARGES>  (1) 
21
1 -0.02
10 -0.15
11 0.18
12 0.81
13 -0.15
14 -0.15
15 -0.15
16 0.15
17 0.15
2 -0.65
21 0.15
22 0.15
23 0.15
24 0.5
3 -0.57
4 -0.41
5 0.23
6 -0.09
7 0.05
8 -0.04
9 -0.15

>  <PUBCHEM_EFFECTIVE_ROTOR_COUNT>  (1) 
2

>  <PUBCHEM_PHARMACOPHORE_FEATURES>  (1) 
6
1 2 acceptor
1 3 acceptor
1 4 acceptor
3 2 3 12 anion
5 1 4 5 6 8 rings
6 7 9 10 13 14 15 rings

>  <PUBCHEM_HEAVY_ATOM_COUNT>  (1) 
15

>  <PUBCHEM_ATOM_DEF_STEREO_COUNT>  (1) 
0

>  <PUBCHEM_ATOM_UDEF_STEREO_COUNT>  (1) 
0

>  <PUBCHEM_BOND_DEF_STEREO_COUNT>  (1) 
0

>  <PUBCHEM_BOND_UDEF_STEREO_COUNT>  (1) 
0

>  <PUBCHEM_ISOTOPIC_ATOM_COUNT>  (1) 
0

>  <PUBCHEM_COMPONENT_COUNT>  (1) 
1

>  <PUBCHEM_CACTVS_TAUTO_COUNT>  (1) 
1

>  <PUBCHEM_CONFORMER_ID>  (1) 
0000380700000001

>  <PUBCHEM_MMFF94_ENERGY>  (1) 
30.5163

>  <PUBCHEM_FEATURE_SELFOVERLAP>  (1) 
30.504

>  <PUBCHEM_SHAPE_FINGERPRINT>  (1) 
10219947 1 18408323310909620616
107287 299 18187653525974229132
11471102 20 18410008827632423029
11471102 22 18335147483280779761
12202030 40 17532113660092596507
12236239 1 17703791422901871113
12932764 1 17703784812810260649
13140716 1 18194398016720670744
13538477 17 17418368104336288527
13581323 91 14923940167608770769
14251717 144 18411416211185162007
15207287 21 17967246524650569083
15219456 202 18113617850757583687
15279307 12 18059572524830874983
15309172 13 18409733997028102539
15375462 189 17989488537084753187
15775835 57 18413106186426954647
16945 1 18410574006821648324
18175812 5 17604148232868427677
18186145 218 18271527610357807964
19049666 15 17823409397353116437
19422 9 17632300098563269037
200 152 18272363200882726701
20201158 50 18187365424026472179
20279233 1 17822010908825392419
204376 136 18265894846906854296
20645477 70 18339350860832060279
21501502 16 18192711146323638021
21730867 7 18334576836730269471
22445834 79 18202286879321217833
22802520 49 17969494910266181157
23236772 104 17775286088323992897
2334 1 17834113426464609756
23557571 272 17168145654813168997
23559900 14 16732973177450091610
23728640 28 15669563678633118395
2748010 2 18122054313357165828
474 4 17630029701668455760
528862 383 18410854347758272299
581208 293 18411979174070743600
63268167 104 18341608205042075927
77492 1 17703790318989742017
81228 2 17042031374395919666
8272917 22 18341902844673706679
9981440 41 16264580412110890120

>  <PUBCHEM_SHAPE_MULTIPOLES>  (1) 
286.1
5.99
1.81
1.01
0.76
0.7
0
-0.07
0
-1.7
0
1.03
-0.05
0

>  <PUBCHEM_SHAPE_SELFOVERLAP>  (1) 
622.472

>  <PUBCHEM_SHAPE_VOLUME>  (1) 
157.2

>  <PUBCHEM_COORDINATE_TYPE>  (1) 
2
5
10

$$$$
