14346
     RDKit          3D

 15 16  0  0  0  0  0  0  0  0999 V2000
   -0.5628    2.3903   -0.0007 O   0  0  0  0  0  0  0  0  0  0  0  0
    4.7593   -1.0171    0.0002 N   0  0  0  0  0  0  0  0  0  0  0  0
    0.9174    0.5792   -0.0001 C   0  0  0  0  0  0  0  0  0  0  0  0
   -1.6537    0.3213    0.0002 C   0  0  0  0  0  0  0  0  0  0  0  0
   -0.4617    1.1544    0.0000 C   0  0  0  0  0  0  0  0  0  0  0  0
    1.5242    0.3260   -1.2081 C   0  0  0  0  0  0  0  0  0  0  0  0
    1.5250    0.3275    1.2079 C   0  0  0  0  0  0  0  0  0  0  0  0
    3.4565   -0.4769   -0.0001 C   0  0  0  0  0  0  0  0  0  0  0  0
    2.8121   -0.2098   -1.2080 C   0  0  0  0  0  0  0  0  0  0  0  0
    2.8128   -0.2082    1.2078 C   0  0  0  0  0  0  0  0  0  0  0  0
   -1.5336   -1.0683    0.0006 C   0  0  0  0  0  0  0  0  0  0  0  0
   -2.9172    0.9121   -0.0002 C   0  0  0  0  0  0  0  0  0  0  0  0
   -2.6770   -1.8672    0.0004 C   0  0  0  0  0  0  0  0  0  0  0  0
   -4.0607    0.1133   -0.0001 C   0  0  0  0  0  0  0  0  0  0  0  0
   -3.9405   -1.2765    0.0002 C   0  0  0  0  0  0  0  0  0  0  0  0
  1  5  2  0
  2  8  1  0
  3  5  1  0
  3  6  2  0
  3  7  1  0
  4  5  1  0
  4 11  2  0
  4 12  1  0
  6  9  1  0
  7 10  2  0
  8  9  2  0
  8 10  1  0
 11 13  1  0
 12 14  2  0
 13 15  2  0
 14 15  1  0
M  END
>  <PUBCHEM_COMPOUND_CID>  (1) 
14346

>  <PUBCHEM_CONFORMER_RMSD>  (1) 
0.6

>  <PUBCHEM_CONFORMER_DIVERSEORDER>  (1) 
1

>  <PUBCHEM_MMFF94_PARTIAL_CHARGES>  (1) 
26
1 -0.57
10 -0.15
11 -0.15
12 -0.15
13 -0.15
14 -0.15
15 -0.15
16 0.15
17 0.15
18 0.15
19 0.15
2 -0.9
20 0.15
21 0.15
22 0.15
23 0.15
24 0.15
25 0.4
26 0.4
3 0.09
4 0.09
5 0.4
6 -0.15
7 -0.15
8 0.1
9 -0.15

>  <PUBCHEM_EFFECTIVE_ROTOR_COUNT>  (1) 
2

>  <PUBCHEM_PHARMACOPHORE_FEATURES>  (1) 
5
1 1 acceptor
1 2 cation
1 2 donor
6 3 6 7 8 9 10 rings
6 4 11 12 13 14 15 rings

>  <PUBCHEM_HEAVY_ATOM_COUNT>  (1) 
15

>  <PUBCHEM_ATOM_DEF_STEREO_COUNT>  (1) 
0

>  <PUBCHEM_ATOM_UDEF_STEREO_COUNT>  (1) 
0

>  <PUBCHEM_BOND_DEF_STEREO_COUNT>  (1) 
0

>  <PUBCHEM_BOND_UDEF_STEREO_COUNT>  (1) 
0

>  <PUBCHEM_ISOTOPIC_ATOM_COUNT>  (1) 
0

>  <PUBCHEM_COMPONENT_COUNT>  (1) 
1

>  <PUBCHEM_CACTVS_TAUTO_COUNT>  (1) 
4

>  <PUBCHEM_CONFORMER_ID>  (1) 
0000380A00000001

>  <PUBCHEM_MMFF94_ENERGY>  (1) 
60.3563

>  <PUBCHEM_FEATURE_SELFOVERLAP>  (1) 
25.371

>  <PUBCHEM_SHAPE_FINGERPRINT>  (1) 
10465860 250 18202561752906846864
10465860 71 18335998539619428365
10618630 7 18410856572556469982
10751810 167 18040438806425435407
11031198 65 13623527956990767818
11046707 91 18408885131038541379
11471102 22 16415481536712867200
11543360 7 15574997329401362699
11578080 2 17532905346877344708
12032990 46 18411983589487079955
12236239 1 17676490523045143644
12251169 10 15841549686691010844
12346177 29 18272922852417432959
13288520 33 18410857629614348934
13296908 3 18341046414793089145
14115302 16 18040158439191623519
14386348 63 17988927760020988062
15375358 24 17989485212479346551
15375462 189 18040715865948912889
15653759 3 18131912658807102314
16752209 62 18188757367509476525
16945 1 18410575059363007393
17804303 29 18343022211692653545
18175812 5 17846493755330905652
18186145 218 15719112486948132805
18915474 69 18113903796574021678
19049666 15 17416134875449631069
19422 9 18040442121987181175
19862831 5 17530685415630525090
200 152 17022903428374077416
20279233 1 17704075092332641647
20281407 28 18272658939013245622
20361792 2 18188203303553156085
20645476 183 17458063781055482883
21119208 17 17240483602203156686
21713013 43 16371288956210761779
22485316 2 18410291419400831302
22646028 28 18260547831197103010
232386 152 18336546113679529095
23402539 116 18410849928247325092
23402655 69 14923936838782334639
23557571 272 18201443519902255972
23559900 14 18413103940639086960
23598291 2 17822303382823185981
25 1 13406787809560162072
26918003 58 16845573119273067131
465052 167 18116731792764431795
474 4 17024885998310981052
568465 68 17275390927627189134
5902787 121 18337951302398413321
69090 78 17275097354107310263
7364860 26 18054229009925924321
74978 22 18262519337624597235
77492 1 17676209048010501632
81228 2 18128835052863149201

>  <PUBCHEM_SHAPE_MULTIPOLES>  (1) 
297.84
7.76
1.59
1.01
0.88
0.23
0
-3.21
0
-1.06
0
0.88
0.01
0

>  <PUBCHEM_SHAPE_SELFOVERLAP>  (1) 
648.549

>  <PUBCHEM_SHAPE_VOLUME>  (1) 
162.4

>  <PUBCHEM_COORDINATE_TYPE>  (1) 
2
5
10

$$$$
