14353
     RDKit          3D

 16 18  0  0  0  0  0  0  0  0999 V2000
    0.2489    4.8377   -0.3035 Cl  0  0  0  0  0  0  0  0  0  0  0  0
    0.0350    0.8234    0.3239 N   0  0  0  0  0  0  0  0  0  0  0  0
   -1.1303    0.1073    0.1837 C   0  0  0  0  0  0  0  0  0  0  0  0
    1.1314    0.0054    0.1842 C   0  0  0  0  0  0  0  0  0  0  0  0
   -0.7732   -1.2202   -0.0542 C   0  0  0  0  0  0  0  0  0  0  0  0
    0.6565   -1.2846   -0.0539 C   0  0  0  0  0  0  0  0  0  0  0  0
    0.0984    2.2484    0.5828 C   0  0  0  0  0  0  0  0  0  0  0  0
   -2.4620    0.5328    0.2496 C   0  0  0  0  0  0  0  0  0  0  0  0
    2.4958    0.3095    0.2506 C   0  0  0  0  0  0  0  0  0  0  0  0
   -1.7983   -2.1721   -0.2359 C   0  0  0  0  0  0  0  0  0  0  0  0
    1.5919   -2.3248   -0.2352 C   0  0  0  0  0  0  0  0  0  0  0  0
    0.1374    3.1012   -0.6808 C   0  0  0  0  0  0  0  0  0  0  0  0
   -3.4595   -0.4287    0.0663 C   0  0  0  0  0  0  0  0  0  0  0  0
    3.4029   -0.7376    0.0672 C   0  0  0  0  0  0  0  0  0  0  0  0
   -3.1348   -1.7617   -0.1729 C   0  0  0  0  0  0  0  0  0  0  0  0
    2.9599   -2.0362   -0.1720 C   0  0  0  0  0  0  0  0  0  0  0  0
  1 12  1  0
  2  3  1  0
  2  4  1  0
  2  7  1  0
  3  5  2  0
  3  8  1  0
  4  6  2  0
  4  9  1  0
  5  6  1  0
  5 10  1  0
  6 11  1  0
  7 12  1  0
  8 13  2  0
  9 14  2  0
 10 15  2  0
 11 16  2  0
 13 15  1  0
 14 16  1  0
M  END
>  <PUBCHEM_COMPOUND_CID>  (1) 
14353

>  <PUBCHEM_CONFORMER_RMSD>  (1) 
0.6

>  <PUBCHEM_CONFORMER_DIVERSEORDER>  (1) 
1
3
2

>  <PUBCHEM_MMFF94_PARTIAL_CHARGES>  (1) 
22
1 -0.29
10 -0.15
11 -0.15
12 0.29
13 -0.15
14 -0.15
15 -0.15
16 -0.15
19 0.15
2 0.05
20 0.15
21 0.15
22 0.15
25 0.15
26 0.15
27 0.15
28 0.15
3 -0.15
4 -0.15
7 0.26
8 -0.15
9 -0.15

>  <PUBCHEM_EFFECTIVE_ROTOR_COUNT>  (1) 
2

>  <PUBCHEM_PHARMACOPHORE_FEATURES>  (1) 
4
1 2 cation
5 2 3 4 5 6 rings
6 3 5 8 10 13 15 rings
6 4 6 9 11 14 16 rings

>  <PUBCHEM_HEAVY_ATOM_COUNT>  (1) 
16

>  <PUBCHEM_ATOM_DEF_STEREO_COUNT>  (1) 
0

>  <PUBCHEM_ATOM_UDEF_STEREO_COUNT>  (1) 
0

>  <PUBCHEM_BOND_DEF_STEREO_COUNT>  (1) 
0

>  <PUBCHEM_BOND_UDEF_STEREO_COUNT>  (1) 
0

>  <PUBCHEM_ISOTOPIC_ATOM_COUNT>  (1) 
0

>  <PUBCHEM_COMPONENT_COUNT>  (1) 
1

>  <PUBCHEM_CACTVS_TAUTO_COUNT>  (1) 
1

>  <PUBCHEM_CONFORMER_ID>  (1) 
0000381100000001

>  <PUBCHEM_MMFF94_ENERGY>  (1) 
32.9237

>  <PUBCHEM_FEATURE_SELFOVERLAP>  (1) 
20.477

>  <PUBCHEM_SHAPE_FINGERPRINT>  (1) 
10967382 1 18267865162684311402
13132413 78 18341054098352626661
13140716 1 18338235959856577147
14648413 74 18192148428588289483
15490181 7 17401778419029305027
15490181 8 17617930774262824298
16945 1 18267587003612406707
17134986 127 17543347619248843085
18785283 64 17974016342634473361
193761 8 17474668828864488898
19591789 44 17259348769552235305
19868273 325 18410011018023643267
20510252 161 18055067658198253418
20645477 70 17976526540893278407
20739085 24 18053134794277063731
21029758 27 18336559269243555779
21267235 1 18341622507199490151
21501502 16 18053385693434672435
21524375 3 17035836176055869369
2255824 54 18123190374808412503
2334 1 18412825810745989914
23366157 5 17899687157140945936
23402539 116 18271514295901142311
23419403 2 17319250510994628964
23463225 33 18412263926102713522
23552423 10 18124031501457154543
23558518 356 17829337878061418818
2748010 2 18341889688524617494
3071541 12 18122629628147067597
3071541 158 18336542828055986341
3091708 16 9427125285466946664
34934 24 18411409592572201507
350125 39 17474960821952110096
352729 6 17259060697442285632
43471831 8 17328862613231841283
458136 41 17617394212957520513
6992083 37 18270697367625569345
7364860 26 18123470745983984697
81228 2 18267030453006912240
90316 7 18264470841635358440

>  <PUBCHEM_SHAPE_MULTIPOLES>  (1) 
326.16
4.64
4.55
0.7
1.24
7.45
0.01
-3.45
-0.03
-1.7
0.88
-0.02
0.15
-0.11

>  <PUBCHEM_SHAPE_SELFOVERLAP>  (1) 
711.762

>  <PUBCHEM_SHAPE_VOLUME>  (1) 
180.7

>  <PUBCHEM_COORDINATE_TYPE>  (1) 
2
5
10

$$$$
