14352
     RDKit          3D

 16 17  0  0  0  0  0  0  0  0999 V2000
   -2.0159   -2.7789   -0.0001 O   0  0  0  0  0  0  0  0  0  0  0  0
    0.0367   -2.0002   -0.0020 O   0  0  0  0  0  0  0  0  0  0  0  0
   -1.2039   -1.8248   -0.0010 N   0  0  0  0  0  0  0  0  0  0  0  0
    4.7631    0.0018    0.0006 N   0  0  0  0  0  0  0  0  0  0  0  0
   -0.8513    0.6093   -0.0005 C   0  0  0  0  0  0  0  0  0  0  0  0
    0.5871    0.4526    0.0000 C   0  0  0  0  0  0  0  0  0  0  0  0
   -1.7091   -0.4934   -0.0012 C   0  0  0  0  0  0  0  0  0  0  0  0
    1.2800    0.3752    1.2081 C   0  0  0  0  0  0  0  0  0  0  0  0
    1.2809    0.3805   -1.2079 C   0  0  0  0  0  0  0  0  0  0  0  0
   -1.3845    1.9006    0.0009 C   0  0  0  0  0  0  0  0  0  0  0  0
   -3.0913   -0.3060   -0.0005 C   0  0  0  0  0  0  0  0  0  0  0  0
    3.3607    0.1538    0.0004 C   0  0  0  0  0  0  0  0  0  0  0  0
    2.6669    0.2259    1.2082 C   0  0  0  0  0  0  0  0  0  0  0  0
    2.6678    0.2310   -1.2076 C   0  0  0  0  0  0  0  0  0  0  0  0
   -2.7668    2.0880    0.0016 C   0  0  0  0  0  0  0  0  0  0  0  0
   -3.6202    0.9847    0.0009 C   0  0  0  0  0  0  0  0  0  0  0  0
  1  3  1  0
  2  3  2  0
  3  7  1  0
  4 12  1  0
  5  6  1  0
  5  7  2  0
  5 10  1  0
  6  8  2  0
  6  9  1  0
  7 11  1  0
  8 13  1  0
  9 14  2  0
 10 15  2  0
 11 16  2  0
 12 13  2  0
 12 14  1  0
 15 16  1  0
M  CHG  2   1  -1   3   1
M  END
>  <PUBCHEM_COMPOUND_CID>  (1) 
14352

>  <PUBCHEM_CONFORMER_RMSD>  (1) 
0.6

>  <PUBCHEM_CONFORMER_DIVERSEORDER>  (1) 
1

>  <PUBCHEM_MMFF94_PARTIAL_CHARGES>  (1) 
24
1 -0.52
10 -0.15
11 -0.15
12 0.1
13 -0.15
14 -0.15
15 -0.15
16 -0.15
17 0.15
18 0.15
19 0.15
2 -0.52
20 0.15
21 0.15
22 0.15
23 0.15
24 0.15
25 0.4
26 0.4
3 0.91
4 -0.9
7 0.13
8 -0.15
9 -0.15

>  <PUBCHEM_EFFECTIVE_ROTOR_COUNT>  (1) 
2

>  <PUBCHEM_PHARMACOPHORE_FEATURES>  (1) 
7
1 1 acceptor
1 1 anion
1 2 acceptor
1 4 cation
1 4 donor
6 5 7 10 11 15 16 rings
6 6 8 9 12 13 14 rings

>  <PUBCHEM_HEAVY_ATOM_COUNT>  (1) 
16

>  <PUBCHEM_ATOM_DEF_STEREO_COUNT>  (1) 
0

>  <PUBCHEM_ATOM_UDEF_STEREO_COUNT>  (1) 
0

>  <PUBCHEM_BOND_DEF_STEREO_COUNT>  (1) 
0

>  <PUBCHEM_BOND_UDEF_STEREO_COUNT>  (1) 
0

>  <PUBCHEM_ISOTOPIC_ATOM_COUNT>  (1) 
0

>  <PUBCHEM_COMPONENT_COUNT>  (1) 
1

>  <PUBCHEM_CACTVS_TAUTO_COUNT>  (1) 
1

>  <PUBCHEM_CONFORMER_ID>  (1) 
0000381000000001

>  <PUBCHEM_MMFF94_ENERGY>  (1) 
71.5037

>  <PUBCHEM_FEATURE_SELFOVERLAP>  (1) 
35.602

>  <PUBCHEM_SHAPE_FINGERPRINT>  (1) 
12236239 1 17676206866219966728
124424 183 17775564213463621832
12500047 106 18412538786987563204
13140716 1 18194971961800795857
13380535 76 18341612573023991583
13538477 17 18186798123086550523
13581323 91 18408601461375779464
14115302 16 18410018736406954476
14614273 12 18189332364841239525
14993402 34 18186516592344116365
15042514 8 18336553815020517203
15207287 21 17918273142814736878
15219456 202 17846492699122463424
15279307 12 18114458985511035466
15279308 132 18343300353342180411
15309172 13 18336554815584165561
15669948 3 18335703887677616118
15775835 57 18336546019074301553
15852999 172 18201442424004646214
16752209 62 18335126623099545391
16945 1 18410575102191192161
18186145 218 17987246538054446052
19049666 15 17845101687831978198
19422 9 17676493864587650866
200 152 15936410052572862849
20201158 50 17561086895190680084
20279233 1 17846782905677840540
20510252 161 18271810090404429937
20645476 183 17894630357473604123
20645477 70 16629970932539347756
20871998 184 18271810193515053039
23175994 123 17131841962612725752
2334 1 17834394897267529489
23402539 116 18342166757054747949
23419403 2 14187289465857775743
23463225 33 18115584833777731658
23526113 38 17560527213849971230
23557571 272 18198350748085064032
23559900 14 18272935995323079702
23598291 2 17822299040880021710
2748010 2 18193286182857966183
276578 36 18267592303628177081
305870 269 18192147088558388953
43471831 8 18335417907649964411
465052 167 17825129223066431859
474 4 17024602311605597332
53812653 166 18272932678738162001
69090 78 18413105043759827965
6992083 37 17968100819394539204
7364860 26 17839179606667794719
74978 22 18335982064103943932
77492 1 17676204684471421952
81228 2 18267860773697097035
8809292 202 18272370892726048704
90525 40 18187364302976769207
9709674 26 18272376364741555806

>  <PUBCHEM_SHAPE_MULTIPOLES>  (1) 
307.57
6.37
1.99
0.98
3.47
1.16
0
-1.26
0
-2.17
0
0.77
-0.14
0

>  <PUBCHEM_SHAPE_SELFOVERLAP>  (1) 
674.447

>  <PUBCHEM_SHAPE_VOLUME>  (1) 
166.8

>  <PUBCHEM_COORDINATE_TYPE>  (1) 
2
5
10

$$$$
