14360
     RDKit          3D

 16 17  0  0  0  0  0  0  0  0999 V2000
    4.9392    2.0834   -0.4915 Cl  0  0  0  0  0  0  0  0  0  0  0  0
   -4.8854    2.2380    0.3156 Cl  0  0  0  0  0  0  0  0  0  0  0  0
    0.5273   -2.1641    0.9557 S   0  0  0  0  0  0  0  0  0  0  0  0
   -0.5820   -2.2216   -0.7773 S   0  0  0  0  0  0  0  0  0  0  0  0
    1.7772   -0.9613    0.5457 C   0  0  0  0  0  0  0  0  0  0  0  0
   -1.8015   -0.9573   -0.4674 C   0  0  0  0  0  0  0  0  0  0  0  0
    2.6357   -1.1862   -0.5304 C   0  0  0  0  0  0  0  0  0  0  0  0
   -1.5476    0.3617   -0.8409 C   0  0  0  0  0  0  0  0  0  0  0  0
    1.8965    0.2053    1.3011 C   0  0  0  0  0  0  0  0  0  0  0  0
   -3.0078   -1.2897    0.1480 C   0  0  0  0  0  0  0  0  0  0  0  0
    3.6135   -0.2445   -0.8511 C   0  0  0  0  0  0  0  0  0  0  0  0
   -2.5017    1.3501   -0.5988 C   0  0  0  0  0  0  0  0  0  0  0  0
    2.8743    1.1470    0.9802 C   0  0  0  0  0  0  0  0  0  0  0  0
   -3.9617   -0.3013    0.3901 C   0  0  0  0  0  0  0  0  0  0  0  0
    3.7327    0.9220   -0.0958 C   0  0  0  0  0  0  0  0  0  0  0  0
   -3.7087    1.0186    0.0167 C   0  0  0  0  0  0  0  0  0  0  0  0
  1 15  1  0
  2 16  1  0
  3  4  1  0
  3  5  1  0
  4  6  1  0
  5  7  2  0
  5  9  1  0
  6  8  2  0
  6 10  1  0
  7 11  1  0
  8 12  1  0
  9 13  2  0
 10 14  2  0
 11 15  2  0
 12 16  2  0
 13 15  1  0
 14 16  1  0
M  END
>  <PUBCHEM_COMPOUND_CID>  (1) 
14360

>  <PUBCHEM_CONFORMER_RMSD>  (1) 
0.6

>  <PUBCHEM_CONFORMER_DIVERSEORDER>  (1) 
2
17
25
20
15
7
24
3
16
4
23
28
26
27
9
5
1
14
13
22
10
21
8
6
11
12
18
19

>  <PUBCHEM_MMFF94_PARTIAL_CHARGES>  (1) 
24
1 -0.18
10 -0.15
11 -0.15
12 -0.15
13 -0.15
14 -0.15
15 0.18
16 0.18
17 0.15
18 0.15
19 0.15
2 -0.18
20 0.15
21 0.15
22 0.15
23 0.15
24 0.15
3 -0.1
4 -0.1
5 0.1
6 0.1
7 -0.15
8 -0.15
9 -0.15

>  <PUBCHEM_EFFECTIVE_ROTOR_COUNT>  (1) 
3

>  <PUBCHEM_PHARMACOPHORE_FEATURES>  (1) 
2
6 5 7 9 11 13 15 rings
6 6 8 10 12 14 16 rings

>  <PUBCHEM_HEAVY_ATOM_COUNT>  (1) 
16

>  <PUBCHEM_ATOM_DEF_STEREO_COUNT>  (1) 
0

>  <PUBCHEM_ATOM_UDEF_STEREO_COUNT>  (1) 
0

>  <PUBCHEM_BOND_DEF_STEREO_COUNT>  (1) 
0

>  <PUBCHEM_BOND_UDEF_STEREO_COUNT>  (1) 
0

>  <PUBCHEM_ISOTOPIC_ATOM_COUNT>  (1) 
0

>  <PUBCHEM_COMPONENT_COUNT>  (1) 
1

>  <PUBCHEM_CACTVS_TAUTO_COUNT>  (1) 
1

>  <PUBCHEM_CONFORMER_ID>  (1) 
0000381800000002

>  <PUBCHEM_MMFF94_ENERGY>  (1) 
26.059

>  <PUBCHEM_FEATURE_SELFOVERLAP>  (1) 
10.149

>  <PUBCHEM_SHAPE_FINGERPRINT>  (1) 
10382601 240 17822004281780623090
10447042 23 8069731958618407281
10498660 4 18335133185461472829
10681291 71 18409736161617903064
11615756 256 18341896251424361553
11715629 250 18342166808583708102
12173636 292 18271796952178417327
122479 349 18408887355821337026
12346177 29 10015594891221771315
12363563 72 9151170990977772263
12633257 1 18043521716797178307
128993 33 18410845543059283366
13764800 53 17895479236000310562
14123255 52 18410009931396742031
1420 369 8502366750354965225
14251764 75 18341623576984061377
14341114 328 16515978033094083885
14386348 128 18411409601124797011
14848160 33 8718527437935626801
15196674 1 18410293605396675757
15342168 16 18339359661335957661
15775835 57 18410009931412800146
17834072 14 8142087546035262675
17834072 32 18411139130007545933
1798214 55 18411132524184203881
18186145 218 17060336352938707075
20621476 66 18410013278126318616
20626108 58 10231747860266088815
20671657 53 10735872885139949187
21069387 34 11384110855915594575
21250096 35 8070022264163916183
21652331 79 18408040723520348261
21713013 43 16271078396570323454
21864079 5 18410288116433746189
22646028 28 9943808906272144972
23402655 69 18202567284930296896
23403322 49 9439407925702872085
23557571 272 17975140047824064314
24859131 72 8502111638024446760
25 1 18343864420409455434
2637199 183 18341338786028132578
3009799 131 18059585668364178678
38570 142 16372440149759915796
44154327 71 18336265635193435245
474 4 17749674116148936156
5104073 3 18187086113934942379
5161694 15 17560806545569377558
633830 44 18411134706075212855
6442390 28 18260558843535942059
76465 3 9007053552555474089
7808743 9 18337109085282100320
8988823 20 13623832539355735191

>  <PUBCHEM_SHAPE_MULTIPOLES>  (1) 
340.71
9.86
2.56
1.09
0.46
0.05
0.13
-7.75
-0.35
0.41
-0.01
-0.47
0.12
-0.25

>  <PUBCHEM_SHAPE_SELFOVERLAP>  (1) 
677.88

>  <PUBCHEM_SHAPE_VOLUME>  (1) 
200.3

>  <PUBCHEM_COORDINATE_TYPE>  (1) 
2
5
10

$$$$
