14364
     RDKit          3D

 17 18  0  0  0  0  0  0  0  0999 V2000
    3.7741    1.5860   -0.3142 O   0  0  0  0  0  0  0  0  0  0  0  0
    5.5095   -0.3449    0.3736 O   0  0  0  0  0  0  0  0  0  0  0  0
    3.8956   -1.7712   -0.5095 O   0  0  0  0  0  0  0  0  0  0  0  0
   -0.9919    0.1239    0.0046 C   0  0  0  0  0  0  0  0  0  0  0  0
   -2.4331   -0.0044    0.0102 C   0  0  0  0  0  0  0  0  0  0  0  0
    1.7867    0.3724   -0.0055 C   0  0  0  0  0  0  0  0  0  0  0  0
   -0.2204   -0.6383    0.8818 C   0  0  0  0  0  0  0  0  0  0  0  0
   -0.3740    1.0103   -0.8777 C   0  0  0  0  0  0  0  0  0  0  0  0
    1.1689   -0.5140    0.8769 C   0  0  0  0  0  0  0  0  0  0  0  0
    1.0152    1.1344   -0.8827 C   0  0  0  0  0  0  0  0  0  0  0  0
   -3.0530   -0.9431   -0.8146 C   0  0  0  0  0  0  0  0  0  0  0  0
   -3.2027    0.8105    0.8404 C   0  0  0  0  0  0  0  0  0  0  0  0
    3.2352    0.5021   -0.0103 C   0  0  0  0  0  0  0  0  0  0  0  0
    4.1362   -0.6915    0.3692 C   0  0  0  0  0  0  0  0  0  0  0  0
   -4.4424   -1.0669   -0.8092 C   0  0  0  0  0  0  0  0  0  0  0  0
   -4.5919    0.6867    0.8460 C   0  0  0  0  0  0  0  0  0  0  0  0
   -5.2118   -0.2520    0.0211 C   0  0  0  0  0  0  0  0  0  0  0  0
  1 13  2  0
  2 14  1  0
  3 14  1  0
  4  5  1  0
  4  7  2  0
  4  8  1  0
  5 11  2  0
  5 12  1  0
  6  9  2  0
  6 10  1  0
  6 13  1  0
  7  9  1  0
  8 10  2  0
 11 15  1  0
 12 16  2  0
 13 14  1  0
 15 17  2  0
 16 17  1  0
M  END
>  <PUBCHEM_COMPOUND_CID>  (1) 
14364

>  <PUBCHEM_CONFORMER_RMSD>  (1) 
0.6

>  <PUBCHEM_CONFORMER_DIVERSEORDER>  (1) 
1
3
2
7
4
6
5

>  <PUBCHEM_MMFF94_PARTIAL_CHARGES>  (1) 
26
1 -0.57
10 -0.15
11 -0.15
12 -0.15
13 0.42
14 0.62
15 -0.15
16 -0.15
17 -0.15
18 0.15
19 0.15
2 -0.68
20 0.15
21 0.15
22 0.15
23 0.15
25 0.15
26 0.15
27 0.15
28 0.4
29 0.4
3 -0.68
6 0.09
7 -0.15
8 -0.15
9 -0.15

>  <PUBCHEM_EFFECTIVE_ROTOR_COUNT>  (1) 
3

>  <PUBCHEM_PHARMACOPHORE_FEATURES>  (1) 
7
1 1 acceptor
1 2 acceptor
1 2 donor
1 3 acceptor
1 3 donor
6 4 6 7 8 9 10 rings
6 5 11 12 15 16 17 rings

>  <PUBCHEM_HEAVY_ATOM_COUNT>  (1) 
17

>  <PUBCHEM_ATOM_DEF_STEREO_COUNT>  (1) 
0

>  <PUBCHEM_ATOM_UDEF_STEREO_COUNT>  (1) 
0

>  <PUBCHEM_BOND_DEF_STEREO_COUNT>  (1) 
0

>  <PUBCHEM_BOND_UDEF_STEREO_COUNT>  (1) 
0

>  <PUBCHEM_ISOTOPIC_ATOM_COUNT>  (1) 
0

>  <PUBCHEM_COMPONENT_COUNT>  (1) 
1

>  <PUBCHEM_CACTVS_TAUTO_COUNT>  (1) 
2

>  <PUBCHEM_CONFORMER_ID>  (1) 
0000381C00000001

>  <PUBCHEM_MMFF94_ENERGY>  (1) 
43.8825

>  <PUBCHEM_FEATURE_SELFOVERLAP>  (1) 
35.617

>  <PUBCHEM_SHAPE_FINGERPRINT>  (1) 
10465860 250 16917348130269385731
10680689 15 16732982037951740195
10912923 1 18201723980707132465
11471102 20 17894348903892589100
11796584 16 17632861923219948079
12107183 9 17553213103203139514
12236239 1 18410856581963945585
12670546 56 18131346406023979913
13167823 11 18273214200949125799
13288520 33 18272932717519331703
13583140 156 16916771951458048336
13675066 3 18187368744178928409
13760787 19 17775005712716550326
13760787 5 17894634772399284724
13862211 1 17821722832299481258
14911166 2 17312820485237645098
15788980 27 18343303665057423099
15848700 24 18113897156891997476
15848702 151 18411702045490413734
17834072 33 18343020025121861060
17862501 102 18342175570327385665
1813 80 18113910316318287060
18186145 218 17603302678219322592
19026448 5 18202567297377459301
19141452 34 18410855477419262191
19422 9 18343302573893013343
19489759 90 17060621088243572481
200 152 18333445461299183157
20279233 1 15791729707330997537
20645477 70 18333731312705422982
21267235 1 18260554411049973347
22224240 67 18341884217928298866
22646028 1 18343300383660145927
23175994 123 17022625286550685709
23402539 116 17632291268590841965
23536379 177 18131071519447863138
23557571 272 16127835001262463401
23559900 14 18059567044362577240
265663 24 18273215309118902541
29717793 49 18341609313544428997
300161 21 18273208707659340008
34797466 226 17059785540615819460
42 15 18202565068378973599
4214541 1 18202283585123662241
474 4 18048595112150300484
4990 188 18186520990506652290
5104073 3 18341613758476975571
542803 24 18411703192563030361
573450 72 17988641883119426323
633830 44 17894351077056246653
67856867 119 18129375063480625544
69090 78 18408320012332552330
7495541 125 17131547353282807867
77779 3 18273215304866139793
9971528 1 18259983799254977116
9981440 41 17330266685328691009

>  <PUBCHEM_SHAPE_MULTIPOLES>  (1) 
332.24
11.11
1.29
0.99
1.55
0.03
-0.01
1.89
-0.46
0.61
0.22
-0.46
-0.01
-0.76

>  <PUBCHEM_SHAPE_SELFOVERLAP>  (1) 
717.362

>  <PUBCHEM_SHAPE_VOLUME>  (1) 
181.5

>  <PUBCHEM_COORDINATE_TYPE>  (1) 
2
5
10

$$$$
