1436
     RDKit          3D

 23 22  0  0  1  0  0  0  0  0999 V2000
   -5.2879   -2.5592    0.2597 O   0  0  0  0  0  0  0  0  0  0  0  0
    0.5351    1.1742    1.1852 O   0  0  0  0  0  0  0  0  0  0  0  0
    1.4820    3.2219    1.4612 O   0  0  0  0  0  0  0  0  0  0  0  0
   -3.6466    0.8194   -0.3485 C   0  0  0  0  0  0  0  0  0  0  0  0
   -4.5747   -0.2707    0.1989 C   0  0  0  0  0  0  0  0  0  0  0  0
   -4.0438    2.2596   -0.0114 C   0  0  0  0  0  0  0  0  0  0  0  0
   -4.2368   -1.7128   -0.2089 C   0  0  0  0  0  0  0  0  0  0  0  0
   -3.0592    3.3013   -0.5434 C   0  0  0  0  0  0  0  0  0  0  0  0
   -3.5007    4.7132   -0.1892 C   0  0  0  0  0  0  0  0  0  0  0  0
   -2.9022   -2.1733    0.3227 C   0  0  0  0  0  0  0  0  0  0  0  0
   -1.8693   -2.6245   -0.4066 C   0  0  0  0  0  0  0  0  0  0  0  0
    2.8321    2.9742   -1.0498 C   0  0  0  0  0  0  0  0  0  0  0  0
    4.0624    2.4840   -0.2799 C   0  0  0  0  0  0  0  0  0  0  0  0
    1.5772    2.1736   -0.7132 C   0  0  0  0  0  0  0  0  0  0  0  0
    4.3552    1.0437   -0.5867 C   0  0  0  0  0  0  0  0  0  0  0  0
   -0.6200   -3.0548    0.1806 C   0  0  0  0  0  0  0  0  0  0  0  0
    4.7111   -1.3581    0.0327 C   0  0  0  0  0  0  0  0  0  0  0  0
    4.4192    0.0801    0.3444 C   0  0  0  0  0  0  0  0  0  0  0  0
    1.7171   -3.9473    0.0588 C   0  0  0  0  0  0  0  0  0  0  0  0
    0.4150   -3.5066   -0.5439 C   0  0  0  0  0  0  0  0  0  0  0  0
    3.5794   -2.2542    0.4434 C   0  0  0  0  0  0  0  0  0  0  0  0
    2.8487   -3.0512   -0.3520 C   0  0  0  0  0  0  0  0  0  0  0  0
    1.2066    2.2675    0.7458 C   0  0  0  0  0  0  0  0  0  0  0  0
  1  7  1  0
  2 23  1  0
  3 23  2  0
  4  5  1  0
  4  6  1  0
  5  7  1  0
  6  8  1  0
  7 10  1  0
  8  9  1  0
 10 11  2  0
 11 16  1  0
 12 13  1  0
 12 14  1  0
 13 15  1  0
 14 23  1  0
 15 18  2  0
 16 20  2  0
 17 18  1  0
 17 21  1  0
 19 20  1  0
 19 22  1  0
 21 22  2  0
M  END
>  <PUBCHEM_COMPOUND_CID>  (1) 
1436

>  <PUBCHEM_CONFORMER_RMSD>  (1) 
1.4

>  <PUBCHEM_CONFORMER_DIVERSEORDER>  (1) 
1
10
100
106
13
43
96
101
52
47
4
34
23
64
82
33
35
109
66
73
38
108
45
63
59
79
21
32
97
36
113
17
81
80
114
19
78
107
15
29
42
24
11
37
76
46
91
110
72
18
102
65
89
103
70
95
83
28
48
58
74
94
77
92
16
14
75
98
27
111
62
44
53
84
57
25
12
50
56
49
68
9
86
40
93
3
55
61
54
87
69
26
90
99
104
105
85
88
31
30
60
2
20
39
5
41
71
7
8
6
67
22
51
112

>  <PUBCHEM_MMFF94_PARTIAL_CHARGES>  (1) 
27
1 -0.68
10 -0.29
11 -0.15
13 0.14
14 0.06
15 -0.29
16 -0.15
17 0.28
18 -0.29
19 0.28
2 -0.65
20 -0.29
21 -0.29
22 -0.29
23 0.66
3 -0.57
36 0.15
37 0.4
38 0.15
45 0.15
46 0.15
49 0.15
52 0.15
53 0.15
54 0.15
55 0.5
7 0.42

>  <PUBCHEM_EFFECTIVE_ROTOR_COUNT>  (1) 
14

>  <PUBCHEM_PHARMACOPHORE_FEATURES>  (1) 
8
1 1 acceptor
1 1 donor
1 2 acceptor
1 3 acceptor
1 9 hydrophobe
3 2 3 23 anion
4 12 13 14 15 hydrophobe
4 4 5 6 8 hydrophobe

>  <PUBCHEM_HEAVY_ATOM_COUNT>  (1) 
23

>  <PUBCHEM_ATOM_DEF_STEREO_COUNT>  (1) 
0

>  <PUBCHEM_ATOM_UDEF_STEREO_COUNT>  (1) 
1

>  <PUBCHEM_BOND_DEF_STEREO_COUNT>  (1) 
0

>  <PUBCHEM_BOND_UDEF_STEREO_COUNT>  (1) 
4

>  <PUBCHEM_ISOTOPIC_ATOM_COUNT>  (1) 
0

>  <PUBCHEM_COMPONENT_COUNT>  (1) 
1

>  <PUBCHEM_CACTVS_TAUTO_COUNT>  (1) 
1

>  <PUBCHEM_CONFORMER_ID>  (1) 
0000059C00000001

>  <PUBCHEM_MMFF94_ENERGY>  (1) 
9.6648

>  <PUBCHEM_FEATURE_SELFOVERLAP>  (1) 
40.654

>  <PUBCHEM_SHAPE_FINGERPRINT>  (1) 
10074138 170 16098498635396655506
11273773 38 17905324031619881057
12925494 130 18193272993087649277
12978246 48 18337951298124772394
1361 2 17474109800137204840
14117953 113 17474102107950725078
14251764 38 18409168770821434495
144659 178 18266181617436199612
14932702 115 18057602058196390512
15322687 12 18124877012972100562
16760501 71 18267875986824745963
21734292 116 18338797943410493615
245318 6 17606694783487411766
325973 47 18194964037037891524
338550 245 18408604794655347780
6433294 58 18411419514247030332

>  <PUBCHEM_SHAPE_MULTIPOLES>  (1) 
455.72
11.34
7.18
0.91
3.79
1.09
-0.1
1.39
0.39
1.94
0.45
-0.34
0.49
0.06

>  <PUBCHEM_SHAPE_SELFOVERLAP>  (1) 
860.496

>  <PUBCHEM_SHAPE_VOLUME>  (1) 
279.8

>  <PUBCHEM_COORDINATE_TYPE>  (1) 
2
5
10

$$$$
