14362
     RDKit          3D

 17 17  0  0  1  0  0  0  0  0999 V2000
    2.4016    2.0035    1.8252 Br  0  0  0  0  0  0  0  0  0  0  0  0
    0.9396   -0.0185   -2.2794 O   0  0  0  0  0  0  0  0  0  0  0  0
   -0.1438    0.3226    2.2769 O   0  0  0  0  0  0  0  0  0  0  0  0
    0.5229   -3.7752    0.3223 O   0  0  0  0  0  0  0  0  0  0  0  0
    0.6342   -1.8981   -1.0003 N   0  0  0  0  0  0  0  0  0  0  0  0
    0.0924   -1.7278    1.2756 N   0  0  0  0  0  0  0  0  0  0  0  0
   -0.1821    0.2524   -0.1467 C   0  0  0  0  0  0  0  0  0  0  0  0
   -1.6795    0.2519   -0.5029 C   0  0  0  0  0  0  0  0  0  0  0  0
    0.3355    1.6981   -0.1318 C   0  0  0  0  0  0  0  0  0  0  0  0
   -2.4699    0.9969    0.5846 C   0  0  0  0  0  0  0  0  0  0  0  0
    0.5367   -0.5351   -1.2376 C   0  0  0  0  0  0  0  0  0  0  0  0
   -0.0549   -0.3490    1.2494 C   0  0  0  0  0  0  0  0  0  0  0  0
   -1.8754    0.8594   -1.8907 C   0  0  0  0  0  0  0  0  0  0  0  0
   -3.9734    0.9941    0.3479 C   0  0  0  0  0  0  0  0  0  0  0  0
    1.8200    1.7641    0.0613 C   0  0  0  0  0  0  0  0  0  0  0  0
    0.4073   -2.5542    0.2036 C   0  0  0  0  0  0  0  0  0  0  0  0
    2.6887    1.7148   -0.9575 C   0  0  0  0  0  0  0  0  0  0  0  0
  1 15  1  0
  2 11  2  0
  3 12  2  0
  4 16  2  0
  5 11  1  0
  5 16  1  0
  6 12  1  0
  6 16  1  0
  7  8  1  0
  7  9  1  0
  7 11  1  0
  7 12  1  0
  8 10  1  0
  8 13  1  0
  9 15  1  0
 10 14  1  0
 15 17  2  0
M  END
>  <PUBCHEM_COMPOUND_CID>  (1) 
14362

>  <PUBCHEM_CONFORMER_RMSD>  (1) 
0.6

>  <PUBCHEM_CONFORMER_DIVERSEORDER>  (1) 
1
15
28
4
22
19
17
6
30
31
26
27
32
23
16
12
8
24
14
5
9
20
21
11
18
10
2
3
29
25
7
33
13

>  <PUBCHEM_MMFF94_PARTIAL_CHARGES>  (1) 
17
1 -0.11
11 0.57
12 0.57
15 -0.03
16 0.69
17 -0.3
2 -0.57
29 0.37
3 -0.57
30 0.37
31 0.15
32 0.15
4 -0.57
5 -0.49
6 -0.49
7 0.12
9 0.14

>  <PUBCHEM_EFFECTIVE_ROTOR_COUNT>  (1) 
4.6

>  <PUBCHEM_PHARMACOPHORE_FEATURES>  (1) 
9
1 1 hydrophobe
1 13 hydrophobe
1 14 hydrophobe
1 2 acceptor
1 3 acceptor
1 4 acceptor
1 5 donor
1 6 donor
6 5 6 7 11 12 16 rings

>  <PUBCHEM_HEAVY_ATOM_COUNT>  (1) 
17

>  <PUBCHEM_ATOM_DEF_STEREO_COUNT>  (1) 
0

>  <PUBCHEM_ATOM_UDEF_STEREO_COUNT>  (1) 
1

>  <PUBCHEM_BOND_DEF_STEREO_COUNT>  (1) 
0

>  <PUBCHEM_BOND_UDEF_STEREO_COUNT>  (1) 
0

>  <PUBCHEM_ISOTOPIC_ATOM_COUNT>  (1) 
0

>  <PUBCHEM_COMPONENT_COUNT>  (1) 
1

>  <PUBCHEM_CACTVS_TAUTO_COUNT>  (1) 
5

>  <PUBCHEM_CONFORMER_ID>  (1) 
0000381A00000001

>  <PUBCHEM_MMFF94_ENERGY>  (1) 
57.3999

>  <PUBCHEM_FEATURE_SELFOVERLAP>  (1) 
45.713

>  <PUBCHEM_SHAPE_FINGERPRINT>  (1) 
10702982 57 17756947398124359372
12326174 3 18270683047909289645
12423570 1 10751871475087322517
12716301 132 18047492276290852568
13024252 1 15794520417675856076
141345 1 12862121050760148873
14617773 55 16957009915454212712
14817 1 14608491548309129769
15852999 172 18127992972995365836
15881359 60 16911169089495601820
15906896 17 17910382123950442508
16945 1 17982983710014215162
19765921 60 17917708041346704185
20711985 344 17614568467926416858
21524375 3 18059000800190845201
22112679 90 17121167679901073947
22344851 341 18272375286625460871
23419403 2 17393095764857321226
2748010 2 17247858052608452567
430814 3 18127383817752106185
5845 1 10499275394650320065
7364860 26 18265336105936655673
81228 2 17615678970074887953

>  <PUBCHEM_SHAPE_MULTIPOLES>  (1) 
328.22
3.65
3
1.97
0.12
3.51
-0.16
-3.87
0.49
0.72
0.61
-0.5
-0.2
0.24

>  <PUBCHEM_SHAPE_SELFOVERLAP>  (1) 
663.713

>  <PUBCHEM_SHAPE_VOLUME>  (1) 
194.2

>  <PUBCHEM_COORDINATE_TYPE>  (1) 
2
5
10

$$$$
