14384
     RDKit          3D

 20 21  0  0  0  0  0  0  0  0999 V2000
    0.0838    0.7480   -1.1720 O   0  0  0  0  0  0  0  0  0  0  0  0
    3.5520   -2.0161    0.3712 O   0  0  0  0  0  0  0  0  0  0  0  0
    4.2296    2.4808   -0.2412 O   0  0  0  0  0  0  0  0  0  0  0  0
   -3.5372    0.4491    0.4403 N   0  0  0  0  0  0  0  0  0  0  0  0
    2.1269    1.6280   -0.6119 N   0  0  0  0  0  0  0  0  0  0  0  0
    3.8596    0.2472    0.1583 N   0  0  0  0  0  0  0  0  0  0  0  0
   -5.3568    0.6163   -1.0125 C   0  0  0  0  0  0  0  0  0  0  0  0
   -4.2557   -0.1974   -1.6855 C   0  0  0  0  0  0  0  0  0  0  0  0
   -4.9868    0.6420    0.4631 C   0  0  0  0  0  0  0  0  0  0  0  0
   -3.3084   -0.5914   -0.5618 C   0  0  0  0  0  0  0  0  0  0  0  0
    1.5703   -0.6357    0.1532 C   0  0  0  0  0  0  0  0  0  0  0  0
    0.8642   -1.8585   -0.4503 C   0  0  0  0  0  0  0  0  0  0  0  0
    1.0882   -0.4329    1.6006 C   0  0  0  0  0  0  0  0  0  0  0  0
   -3.0038    0.0900    1.7459 C   0  0  0  0  0  0  0  0  0  0  0  0
    1.1795    0.6154   -0.6273 C   0  0  0  0  0  0  0  0  0  0  0  0
    3.0726   -0.8935    0.2148 C   0  0  0  0  0  0  0  0  0  0  0  0
    1.2785   -2.0710   -1.8902 C   0  0  0  0  0  0  0  0  0  0  0  0
   -0.3605   -0.2482    1.6375 C   0  0  0  0  0  0  0  0  0  0  0  0
   -1.5509   -0.0949    1.6844 C   0  0  0  0  0  0  0  0  0  0  0  0
    3.4550    1.5227   -0.2166 C   0  0  0  0  0  0  0  0  0  0  0  0
  1 15  2  0
  2 16  2  0
  3 20  2  0
  4  9  1  0
  4 10  1  0
  4 14  1  0
  5 15  1  0
  5 20  1  0
  6 16  1  0
  6 20  1  0
  7  8  1  0
  7  9  1  0
  8 10  1  0
 11 12  1  0
 11 13  1  0
 11 15  1  0
 11 16  1  0
 12 17  1  0
 13 18  1  0
 14 19  1  0
 18 19  3  0
M  END
>  <PUBCHEM_COMPOUND_CID>  (1) 
14384

>  <PUBCHEM_CONFORMER_RMSD>  (1) 
0.6

>  <PUBCHEM_CONFORMER_DIVERSEORDER>  (1) 
1
12
18
14
2
8
21
27
17
10
22
23
7
5
26
19
6
11
20
25
16
13
9
15
24
3
4

>  <PUBCHEM_MMFF94_PARTIAL_CHARGES>  (1) 
18
1 -0.57
10 0.27
11 0.12
13 0.2
14 0.47
15 0.57
16 0.57
18 -0.2
19 -0.2
2 -0.57
20 0.69
3 -0.57
38 0.37
39 0.37
4 -0.81
5 -0.49
6 -0.49
9 0.27

>  <PUBCHEM_EFFECTIVE_ROTOR_COUNT>  (1) 
4.6

>  <PUBCHEM_PHARMACOPHORE_FEATURES>  (1) 
9
1 1 acceptor
1 17 hydrophobe
1 2 acceptor
1 3 acceptor
1 4 cation
1 5 donor
1 6 donor
5 4 7 8 9 10 rings
6 5 6 11 15 16 20 rings

>  <PUBCHEM_HEAVY_ATOM_COUNT>  (1) 
20

>  <PUBCHEM_ATOM_DEF_STEREO_COUNT>  (1) 
0

>  <PUBCHEM_ATOM_UDEF_STEREO_COUNT>  (1) 
0

>  <PUBCHEM_BOND_DEF_STEREO_COUNT>  (1) 
0

>  <PUBCHEM_BOND_UDEF_STEREO_COUNT>  (1) 
0

>  <PUBCHEM_ISOTOPIC_ATOM_COUNT>  (1) 
0

>  <PUBCHEM_COMPONENT_COUNT>  (1) 
1

>  <PUBCHEM_CACTVS_TAUTO_COUNT>  (1) 
5

>  <PUBCHEM_CONFORMER_ID>  (1) 
0000383000000001

>  <PUBCHEM_MMFF94_ENERGY>  (1) 
42.2852

>  <PUBCHEM_FEATURE_SELFOVERLAP>  (1) 
45.71

>  <PUBCHEM_SHAPE_FINGERPRINT>  (1) 
10646746 165 16950285121759976849
10759866 29 17561086886616615575
11069576 57 17416391066534587775
11961588 58 16844444015811388544
12011746 2 18114192912909247822
12119455 92 18336547217834368120
12236239 1 17775283854893506628
12403259 415 17386017169158831417
12553582 1 16415766336400616203
13134695 92 18333734589707272128
13675066 3 16588031212137565123
14178342 30 15358267120324309328
14863182 85 16988281976053083742
15375358 24 17821445768407092573
15537594 2 16702306767607382695
16945 1 18262249893088659746
1813 80 17842290168324059654
18186145 218 17531250534985490977
20645477 70 18335988588148769211
21033648 29 17022623087026315425
22892500 29 17894910724364537650
23419403 2 15577484308712992754
23557571 272 17240779405734092707
23559900 14 16950287274177116386
2838139 119 18262233430073520812
5895379 119 17904744601750383721

>  <PUBCHEM_SHAPE_MULTIPOLES>  (1) 
379.04
9.74
1.85
1.73
9.02
0.81
0.28
-2.15
-2.99
-1.99
-0.55
0.41
-0.28
-1.63

>  <PUBCHEM_SHAPE_SELFOVERLAP>  (1) 
786.744

>  <PUBCHEM_SHAPE_VOLUME>  (1) 
213.2

>  <PUBCHEM_COORDINATE_TYPE>  (1) 
2
5
10

$$$$
