14388
     RDKit          3D

 20 24  0  0  1  0  0  0  0  0999 V2000
    1.7699   -2.8461   -0.2688 O   0  0  0  0  0  0  0  0  0  0  0  0
    1.0527   -1.9334    0.5099 C   0  0  0  0  0  0  0  0  0  0  0  0
    2.0394   -1.5964   -0.8347 C   0  0  0  0  0  0  0  0  0  0  0  0
   -0.0670   -0.9492    0.2618 C   0  0  0  0  0  0  0  0  0  0  0  0
    2.6861   -0.3148   -0.3628 C   0  0  0  0  0  0  0  0  0  0  0  0
    0.3208    0.4188    0.0836 C   0  0  0  0  0  0  0  0  0  0  0  0
    1.7912    0.7298    0.0540 C   0  0  0  0  0  0  0  0  0  0  0  0
   -1.4194   -1.2998    0.2570 C   0  0  0  0  0  0  0  0  0  0  0  0
   -0.6772    1.3853   -0.0934 C   0  0  0  0  0  0  0  0  0  0  0  0
   -2.4119   -0.3246    0.0777 C   0  0  0  0  0  0  0  0  0  0  0  0
    4.0653   -0.0937   -0.3684 C   0  0  0  0  0  0  0  0  0  0  0  0
   -2.0383    1.0300   -0.0977 C   0  0  0  0  0  0  0  0  0  0  0  0
    2.3294    1.9605    0.4483 C   0  0  0  0  0  0  0  0  0  0  0  0
   -1.7705   -2.7440    0.4586 C   0  0  0  0  0  0  0  0  0  0  0  0
    4.5742    1.1407    0.0315 C   0  0  0  0  0  0  0  0  0  0  0  0
    3.7120    2.1612    0.4352 C   0  0  0  0  0  0  0  0  0  0  0  0
   -3.7737   -0.6680    0.0718 C   0  0  0  0  0  0  0  0  0  0  0  0
   -3.0403    1.9977   -0.2772 C   0  0  0  0  0  0  0  0  0  0  0  0
   -4.7546    0.3078   -0.1057 C   0  0  0  0  0  0  0  0  0  0  0  0
   -4.3884    1.6383   -0.2806 C   0  0  0  0  0  0  0  0  0  0  0  0
  1  2  1  0
  1  3  1  0
  2  3  1  0
  2  4  1  0
  3  5  1  0
  4  6  2  0
  4  8  1  0
  5  7  2  0
  5 11  1  0
  6  7  1  0
  6  9  1  0
  7 13  1  0
  8 10  2  0
  8 14  1  0
  9 12  2  0
 10 12  1  0
 10 17  1  0
 11 15  2  0
 12 18  1  0
 13 16  2  0
 15 16  1  0
 17 19  2  0
 18 20  2  0
 19 20  1  0
M  END
>  <PUBCHEM_COMPOUND_CID>  (1) 
14388

>  <PUBCHEM_CONFORMER_RMSD>  (1) 
0.6

>  <PUBCHEM_CONFORMER_DIVERSEORDER>  (1) 
2
1

>  <PUBCHEM_MMFF94_PARTIAL_CHARGES>  (1) 
27
1 -0.3
11 -0.15
13 -0.15
14 0.14
15 -0.15
16 -0.15
17 -0.15
18 -0.15
19 -0.15
2 0.08
20 -0.15
21 0.1
22 0.1
23 0.15
24 0.15
25 0.15
29 0.15
3 0.08
30 0.15
31 0.15
32 0.15
33 0.15
34 0.15
4 -0.03
5 -0.03
8 -0.14
9 -0.15

>  <PUBCHEM_EFFECTIVE_ROTOR_COUNT>  (1) 
0.2

>  <PUBCHEM_PHARMACOPHORE_FEATURES>  (1) 
5
1 1 acceptor
6 10 12 17 18 19 20 rings
6 4 6 8 9 10 12 rings
6 5 7 11 13 15 16 rings
7 1 2 3 4 5 6 7 rings

>  <PUBCHEM_HEAVY_ATOM_COUNT>  (1) 
20

>  <PUBCHEM_ATOM_DEF_STEREO_COUNT>  (1) 
0

>  <PUBCHEM_ATOM_UDEF_STEREO_COUNT>  (1) 
2

>  <PUBCHEM_BOND_DEF_STEREO_COUNT>  (1) 
0

>  <PUBCHEM_BOND_UDEF_STEREO_COUNT>  (1) 
0

>  <PUBCHEM_ISOTOPIC_ATOM_COUNT>  (1) 
0

>  <PUBCHEM_COMPONENT_COUNT>  (1) 
1

>  <PUBCHEM_CACTVS_TAUTO_COUNT>  (1) 
1

>  <PUBCHEM_CONFORMER_ID>  (1) 
0000383400000002

>  <PUBCHEM_MMFF94_ENERGY>  (1) 
103.3796

>  <PUBCHEM_FEATURE_SELFOVERLAP>  (1) 
25.422

>  <PUBCHEM_SHAPE_FINGERPRINT>  (1) 
10411042 1 16969139238644168459
10498660 4 18261106327760230925
10608611 8 18410855464460247241
10616163 171 18338236088752886479
10646746 165 18408604785933648156
10871710 139 16320910703520814660
10948715 1 18412261757064744110
10967382 1 18410575063198811448
1100329 8 17331966019314484576
11132069 177 18335419131356700608
11370993 70 18410570703801744244
11471102 20 18341612594635802564
12403259 415 18128260180502292960
12403260 363 18266166426220509364
12730499 353 18410864248069255427
13140716 1 17903929095055958729
13380535 76 18409729573222480058
13464514 151 18412267194614530144
138480 1 17834113039601639626
14790565 3 18124602985922537089
15196674 1 18410293605391400975
15219456 202 18411984667159848332
15230672 131 17263266837049292768
15375358 24 18410293626871512197
15536298 74 18341050714044796455
16945 1 18411424998630194922
18186145 218 18269278963165915669
200 152 17632295683263269297
20510252 161 18125444356539402560
20645477 56 18335141998882018029
20645477 70 18059858324554393958
21267235 1 18411146817919825959
21279426 13 18267306422331369686
221490 88 18338525131462083107
22182313 1 18267042680795225487
23227448 37 18340767151703450231
2334 1 17905895029856055770
23366157 5 17968941877386997226
23402539 116 18338508733192174469
23402655 69 18272367538594123333
23557571 272 18266752456901268822
23558518 356 17827637272817409640
23559900 14 18342174402418404702
238 59 17685458019843961877
25 1 18410853248520756236
2748010 2 18194976355230832750
3004659 81 18261119526959440710
3323516 105 18411986818938502780
335352 9 18338517443924018462
34934 24 18411696595408945615
350125 39 18191024495534005036
3545911 37 18409451371343275269
4280585 95 17554904174142556622
474 4 17967820465420097300
495365 180 17774992527473062736
5104073 3 18262522481720091329
5262128 65 17629496189162060806
543358 83 18198347247259398017
58051976 378 18411696560954378749
6138700 20 18339365150736892854
69090 78 18341893017308563487
7364860 26 18340768122572020950
9709674 26 18412831291187485383
9981440 41 18336259145487490530

>  <PUBCHEM_SHAPE_MULTIPOLES>  (1) 
405.72
8.51
2.8
0.72
1.27
1.07
-0.01
-4.13
-0.51
-0.29
0.17
-0.14
0.07
0.82

>  <PUBCHEM_SHAPE_SELFOVERLAP>  (1) 
925.029

>  <PUBCHEM_SHAPE_VOLUME>  (1) 
212.4

>  <PUBCHEM_COORDINATE_TYPE>  (1) 
2
5
10

$$$$
