14397
     RDKit          3D

 22 24  0  0  0  0  0  0  0  0999 V2000
    4.8165    2.6976    1.0921 Cl  0  0  0  0  0  0  0  0  0  0  0  0
    0.3597    2.0225   -1.4425 O   0  0  0  0  0  0  0  0  0  0  0  0
   -0.7877    0.2063   -0.5665 N   0  0  0  0  0  0  0  0  0  0  0  0
    1.4433   -1.8405   -0.6858 N   0  0  0  0  0  0  0  0  0  0  0  0
   -3.8447    2.2743    0.0975 N   0  0  0  0  0  0  0  0  0  0  0  0
   -2.0579    0.8971   -0.8464 C   0  0  0  0  0  0  0  0  0  0  0  0
   -0.8850   -1.1574   -0.1061 C   0  0  0  0  0  0  0  0  0  0  0  0
   -2.6039    1.5736    0.4025 C   0  0  0  0  0  0  0  0  0  0  0  0
    0.1313   -2.1136   -0.2695 C   0  0  0  0  0  0  0  0  0  0  0  0
    0.3743    0.9513   -0.8244 C   0  0  0  0  0  0  0  0  0  0  0  0
    1.6984    0.5705   -0.2974 C   0  0  0  0  0  0  0  0  0  0  0  0
    2.2119   -0.7182   -0.3737 C   0  0  0  0  0  0  0  0  0  0  0  0
   -2.1174   -1.6073    0.4327 C   0  0  0  0  0  0  0  0  0  0  0  0
   -0.1288   -3.4653    0.0748 C   0  0  0  0  0  0  0  0  0  0  0  0
    2.5197    1.6263    0.1481 C   0  0  0  0  0  0  0  0  0  0  0  0
    3.5600   -0.9255   -0.0116 C   0  0  0  0  0  0  0  0  0  0  0  0
   -2.3480   -2.9401    0.7804 C   0  0  0  0  0  0  0  0  0  0  0  0
   -4.3562    2.9595    1.2862 C   0  0  0  0  0  0  0  0  0  0  0  0
   -4.8487    1.3441   -0.4226 C   0  0  0  0  0  0  0  0  0  0  0  0
   -1.3519   -3.8771    0.5908 C   0  0  0  0  0  0  0  0  0  0  0  0
    3.8447    1.4009    0.5151 C   0  0  0  0  0  0  0  0  0  0  0  0
    4.3703    0.1210    0.4264 C   0  0  0  0  0  0  0  0  0  0  0  0
  1 21  1  0
  2 10  2  0
  3  6  1  0
  3  7  1  0
  3 10  1  0
  4  9  1  0
  4 12  1  0
  5  8  1  0
  5 18  1  0
  5 19  1  0
  6  8  1  0
  7  9  2  0
  7 13  1  0
  9 14  1  0
 10 11  1  0
 11 12  2  0
 11 15  1  0
 12 16  1  0
 13 17  2  0
 14 20  2  0
 15 21  2  0
 16 22  2  0
 17 20  1  0
 21 22  1  0
M  END
>  <PUBCHEM_COMPOUND_CID>  (1) 
14397

>  <PUBCHEM_CONFORMER_RMSD>  (1) 
0.6

>  <PUBCHEM_CONFORMER_DIVERSEORDER>  (1) 
1
5
4
7
3
2
9
8
6
10

>  <PUBCHEM_MMFF94_PARTIAL_CHARGES>  (1) 
30
1 -0.18
10 0.54
11 0.09
12 0.1
13 -0.15
14 -0.15
15 -0.15
16 -0.15
17 -0.15
18 0.27
19 0.27
2 -0.57
20 -0.15
21 0.18
22 -0.15
27 0.4
28 0.15
29 0.15
3 -0.48
30 0.15
31 0.15
32 0.15
39 0.15
4 -0.6
40 0.15
5 -0.81
6 0.3
7 0.12
8 0.27
9 0.1

>  <PUBCHEM_EFFECTIVE_ROTOR_COUNT>  (1) 
3.4

>  <PUBCHEM_PHARMACOPHORE_FEATURES>  (1) 
7
1 2 acceptor
1 4 cation
1 4 donor
1 5 cation
6 11 12 15 16 21 22 rings
6 7 9 13 14 17 20 rings
7 3 4 7 9 10 11 12 rings

>  <PUBCHEM_HEAVY_ATOM_COUNT>  (1) 
22

>  <PUBCHEM_ATOM_DEF_STEREO_COUNT>  (1) 
0

>  <PUBCHEM_ATOM_UDEF_STEREO_COUNT>  (1) 
0

>  <PUBCHEM_BOND_DEF_STEREO_COUNT>  (1) 
0

>  <PUBCHEM_BOND_UDEF_STEREO_COUNT>  (1) 
0

>  <PUBCHEM_ISOTOPIC_ATOM_COUNT>  (1) 
0

>  <PUBCHEM_COMPONENT_COUNT>  (1) 
1

>  <PUBCHEM_CACTVS_TAUTO_COUNT>  (1) 
2

>  <PUBCHEM_CONFORMER_ID>  (1) 
0000383D00000001

>  <PUBCHEM_MMFF94_ENERGY>  (1) 
100.8902

>  <PUBCHEM_FEATURE_SELFOVERLAP>  (1) 
35.537

>  <PUBCHEM_SHAPE_FINGERPRINT>  (1) 
10319926 262 18268412703387007632
10493431 412 18410013208530869245
1100329 8 18193271888980809306
11370993 70 18411699855299672993
12035758 1 18121214282326862154
12107183 9 18264192661610779138
12390115 104 18269567185779354592
12553582 1 17687196686924656102
12633257 1 18263910086821694896
12788726 201 18124013870632482115
12930653 34 18268709583788760060
13140716 1 18408881807087470642
138480 1 17329146871527207931
14081887 123 18052529169438879450
14178342 30 18262796405933343624
14787075 74 18130498687381653833
14790565 3 18192166905701809564
19591789 44 17904202525269033302
20510252 161 18269838777471477266
20739085 24 17972330516088742724
21033648 29 18263064553184404196
21041028 32 17758397761372670486
21049683 118 18192965249732124777
21197605 99 18411989074777989035
21731228 192 18409450254345628323
22182937 141 18412545435306884721
23558518 356 18261677094269203170
23559900 14 18342737382879578910
23845131 108 18263086518532463659
25147074 1 17533501381469963212
2748010 2 18335994094413101766
3091708 16 9196345470156614083
3117164 225 18337939144110831682
335352 9 18338797802446777966
4340502 62 18339366267159266945
474 4 18270114600550956921
5104073 3 18263909086500802624
58807428 26 18262512581150690402
633830 44 18129941157291981485
79837 15 18408610249385087921
81228 2 17970065745463013879
84936 182 18055632820118270249
9709674 26 18341894138479930150

>  <PUBCHEM_SHAPE_MULTIPOLES>  (1) 
433.81
8.47
4.51
1.01
2.38
2.53
-0.02
-8.43
-2.61
-3.73
-1.31
-0.15
-0.42
0.65

>  <PUBCHEM_SHAPE_SELFOVERLAP>  (1) 
925.265

>  <PUBCHEM_SHAPE_VOLUME>  (1) 
241

>  <PUBCHEM_COORDINATE_TYPE>  (1) 
2
5
10

$$$$
