14391
     RDKit          3D

 22 24  0  0  0  0  0  0  0  0999 V2000
   -0.5798    3.0353    0.2372 Br  0  0  0  0  0  0  0  0  0  0  0  0
    4.3778    1.0095   -1.8984 F   0  0  0  0  0  0  0  0  0  0  0  0
   -0.8328    0.1727    0.0574 C   0  0  0  0  0  0  0  0  0  0  0  0
   -2.2722    0.3609   -0.0358 C   0  0  0  0  0  0  0  0  0  0  0  0
   -0.2372   -1.2030    0.0238 C   0  0  0  0  0  0  0  0  0  0  0  0
    0.0169    1.2438    0.1788 C   0  0  0  0  0  0  0  0  0  0  0  0
    1.4854    1.1157    0.2774 C   0  0  0  0  0  0  0  0  0  0  0  0
   -3.0488    0.3843    1.1227 C   0  0  0  0  0  0  0  0  0  0  0  0
    0.1085   -1.7349   -1.1938 C   0  0  0  0  0  0  0  0  0  0  0  0
   -2.8757    0.5186   -1.2832 C   0  0  0  0  0  0  0  0  0  0  0  0
   -0.0640   -1.8685    1.2122 C   0  0  0  0  0  0  0  0  0  0  0  0
    2.2423    1.1244   -0.8807 C   0  0  0  0  0  0  0  0  0  0  0  0
    2.0693    0.9896    1.5253 C   0  0  0  0  0  0  0  0  0  0  0  0
   -4.4291    0.5654    1.0335 C   0  0  0  0  0  0  0  0  0  0  0  0
    0.6631   -3.0144   -1.2252 C   0  0  0  0  0  0  0  0  0  0  0  0
   -4.2559    0.6998   -1.3725 C   0  0  0  0  0  0  0  0  0  0  0  0
    0.4906   -3.1480    1.1809 C   0  0  0  0  0  0  0  0  0  0  0  0
   -5.0325    0.7232   -0.2140 C   0  0  0  0  0  0  0  0  0  0  0  0
    0.8541   -3.7209   -0.0379 C   0  0  0  0  0  0  0  0  0  0  0  0
    3.6288    1.0031   -0.7878 C   0  0  0  0  0  0  0  0  0  0  0  0
    3.4557    0.8683    1.6183 C   0  0  0  0  0  0  0  0  0  0  0  0
    4.2355    0.8750    0.4617 C   0  0  0  0  0  0  0  0  0  0  0  0
  1  6  1  0
  2 20  1  0
  3  4  1  0
  3  5  1  0
  3  6  2  3
  4  8  2  0
  4 10  1  0
  5  9  2  0
  5 11  1  0
  6  7  1  0
  7 12  2  0
  7 13  1  0
  8 14  1  0
  9 15  1  0
 10 16  2  0
 11 17  2  0
 12 20  1  0
 13 21  2  0
 14 18  2  0
 15 19  2  0
 16 18  1  0
 17 19  1  0
 20 22  2  0
 21 22  1  0
M  END
>  <PUBCHEM_COMPOUND_CID>  (1) 
14391

>  <PUBCHEM_CONFORMER_RMSD>  (1) 
0.6

>  <PUBCHEM_CONFORMER_DIVERSEORDER>  (1) 
1
2

>  <PUBCHEM_MMFF94_PARTIAL_CHARGES>  (1) 
36
1 -0.11
10 -0.15
11 -0.15
12 -0.15
13 -0.15
14 -0.15
15 -0.15
16 -0.15
17 -0.15
18 -0.15
19 -0.15
2 -0.19
20 0.19
21 -0.15
22 -0.15
23 0.15
24 0.15
25 0.15
26 0.15
27 0.15
28 0.15
29 0.15
3 -0.06
30 0.15
31 0.15
32 0.15
33 0.15
34 0.15
35 0.15
36 0.15
4 0.03
5 0.03
6 0.08
7 0.03
8 -0.15
9 -0.15

>  <PUBCHEM_EFFECTIVE_ROTOR_COUNT>  (1) 
3

>  <PUBCHEM_PHARMACOPHORE_FEATURES>  (1) 
4
1 1 hydrophobe
6 4 8 10 14 16 18 rings
6 5 9 11 15 17 19 rings
6 7 12 13 20 21 22 rings

>  <PUBCHEM_HEAVY_ATOM_COUNT>  (1) 
22

>  <PUBCHEM_ATOM_DEF_STEREO_COUNT>  (1) 
0

>  <PUBCHEM_ATOM_UDEF_STEREO_COUNT>  (1) 
0

>  <PUBCHEM_BOND_DEF_STEREO_COUNT>  (1) 
0

>  <PUBCHEM_BOND_UDEF_STEREO_COUNT>  (1) 
0

>  <PUBCHEM_ISOTOPIC_ATOM_COUNT>  (1) 
0

>  <PUBCHEM_COMPONENT_COUNT>  (1) 
1

>  <PUBCHEM_CACTVS_TAUTO_COUNT>  (1) 
1

>  <PUBCHEM_CONFORMER_ID>  (1) 
0000383700000001

>  <PUBCHEM_MMFF94_ENERGY>  (1) 
77.0818

>  <PUBCHEM_FEATURE_SELFOVERLAP>  (1) 
20.297

>  <PUBCHEM_SHAPE_FINGERPRINT>  (1) 
10382601 240 18200042733213211305
10764073 3 15288975682688297115
107951 10 17823437027289733854
11578080 2 17027402466413819111
12592029 89 18333728005274332043
12788726 201 17620179271262762422
12895836 83 18043828673968044932
12969540 114 18335694000605469805
13083527 12 18050543185046005707
13132413 78 8141820433756419303
13140716 1 18340197587384322619
13149001 5 18054791946799238920
133893 2 18046076960054941378
13681431 1 17907011781546277191
13911987 19 18334581282253991301
14468879 13 15764952368261606106
14790565 3 18411428335847145185
15163728 17 17386865923173632525
15309172 13 18409726296262751041
15849732 13 17967802839712915600
16752209 62 18120646091985695250
16945 1 18272367585559318481
17980427 23 12180428905300319601
1813 80 17554894265367979079
18186145 218 18131630114383950657
20028762 73 17912650391350197359
20567600 347 18411697677582708559
20645476 183 17823137989742700916
20832881 197 17560534901894178624
20905425 154 17982734073777944740
21069387 34 15410353129642803388
21421861 104 18122631543945081793
21524375 3 18411694426297525715
21756936 100 16734685293396410252
22907989 373 17831590034235759063
229495 10 16154527887919915478
22956985 138 18043241341011134779
23366157 5 17899419679515335563
23419403 2 17688080453639369994
23558518 356 17760077424609585897
23559900 14 17533492331699446651
266924 87 18266459802135606596
3060560 45 18341597244296293913
3383291 50 18340769218438320538
3759504 43 18188495799315786334
4340502 62 18411987962423300443
43471831 8 18339078185810568824
465052 167 17604158133179437113
474 4 18412266138226810977
59755656 215 18339358539790259309
6138700 20 18268153063723660694
633830 44 17988924500404898649
70251023 43 17981605962469580607
7364860 26 18199743640059372387
81228 2 17618208950804930427
81539 233 18334009463092493023

>  <PUBCHEM_SHAPE_MULTIPOLES>  (1) 
451.42
7.7
3.48
1.56
3.91
3.59
-0.09
-4.8
-0.86
-1.73
0.11
-0.5
0.09
-0.01

>  <PUBCHEM_SHAPE_SELFOVERLAP>  (1) 
980.392

>  <PUBCHEM_SHAPE_VOLUME>  (1) 
250.7

>  <PUBCHEM_COORDINATE_TYPE>  (1) 
2
5
10

$$$$
