14398
     RDKit          3D

 22 23  0  0  0  0  0  0  0  0999 V2000
   -2.2585    2.9549   -0.2608 I   0  0  0  0  0  0  0  0  0  0  0  0
    0.9915   -1.0016    3.1824 I   0  0  0  0  0  0  0  0  0  0  0  0
    0.9740   -1.6014   -2.8913 I   0  0  0  0  0  0  0  0  0  0  0  0
    0.0777   -1.8767    0.2053 O   0  0  0  0  0  0  0  0  0  0  0  0
   -5.1586    1.6841    0.8000 O   0  0  0  0  0  0  0  0  0  0  0  0
    5.2440    1.2790   -1.3838 O   0  0  0  0  0  0  0  0  0  0  0  0
    5.4129    1.6071    0.8590 O   0  0  0  0  0  0  0  0  0  0  0  0
   -1.1043   -1.2047    0.1427 C   0  0  0  0  0  0  0  0  0  0  0  0
    1.2446   -1.1349    0.1284 C   0  0  0  0  0  0  0  0  0  0  0  0
   -3.5277    0.1713    0.0155 C   0  0  0  0  0  0  0  0  0  0  0  0
   -1.1116    0.1836    0.0063 C   0  0  0  0  0  0  0  0  0  0  0  0
   -2.3086   -1.9047    0.2155 C   0  0  0  0  0  0  0  0  0  0  0  0
   -2.3235    0.8716   -0.0573 C   0  0  0  0  0  0  0  0  0  0  0  0
   -3.5203   -1.2168    0.1520 C   0  0  0  0  0  0  0  0  0  0  0  0
    1.8200   -0.6529    1.2931 C   0  0  0  0  0  0  0  0  0  0  0  0
    1.8136   -0.8910   -1.1111 C   0  0  0  0  0  0  0  0  0  0  0  0
    3.5809    0.3472   -0.0245 C   0  0  0  0  0  0  0  0  0  0  0  0
    2.9961    0.0933    1.2160 C   0  0  0  0  0  0  0  0  0  0  0  0
    2.9896   -0.1448   -1.1881 C   0  0  0  0  0  0  0  0  0  0  0  0
   -4.8272    0.8306   -0.0439 C   0  0  0  0  0  0  0  0  0  0  0  0
   -5.8118    0.4814   -1.1517 C   0  0  0  0  0  0  0  0  0  0  0  0
    4.8072    1.1253   -0.1038 C   0  0  0  0  0  0  0  0  0  0  0  0
  1 13  1  0
  2 15  1  0
  3 16  1  0
  4  8  1  0
  4  9  1  0
  5 20  2  0
  6 22  1  0
  7 22  2  0
  8 11  2  0
  8 12  1  0
  9 15  2  0
  9 16  1  0
 10 13  2  0
 10 14  1  0
 10 20  1  0
 11 13  1  0
 12 14  2  0
 15 18  1  0
 16 19  2  0
 17 18  2  0
 17 19  1  0
 17 22  1  0
 20 21  1  0
M  END
>  <PUBCHEM_COMPOUND_CID>  (1) 
14398

>  <PUBCHEM_CONFORMER_RMSD>  (1) 
0.6

>  <PUBCHEM_CONFORMER_DIVERSEORDER>  (1) 
1
6
21
22
7
19
12
8
20
4
11
10
15
18
9
5
3
17
13
14
16
2

>  <PUBCHEM_MMFF94_PARTIAL_CHARGES>  (1) 
28
1 -0.08
10 0.09
11 -0.15
12 -0.15
13 0.08
14 -0.15
15 0.08
16 0.08
17 0.09
18 -0.15
19 -0.15
2 -0.08
20 0.42
21 0.06
22 0.63
23 0.15
24 0.15
25 0.15
26 0.15
27 0.15
3 -0.08
31 0.5
4 -0.17
5 -0.57
6 -0.65
7 -0.57
8 0.08
9 0.08

>  <PUBCHEM_EFFECTIVE_ROTOR_COUNT>  (1) 
4

>  <PUBCHEM_PHARMACOPHORE_FEATURES>  (1) 
10
1 1 hydrophobe
1 2 hydrophobe
1 3 hydrophobe
1 4 acceptor
1 5 acceptor
1 6 acceptor
1 7 acceptor
3 6 7 22 anion
6 8 10 11 12 13 14 rings
6 9 15 16 17 18 19 rings

>  <PUBCHEM_HEAVY_ATOM_COUNT>  (1) 
22

>  <PUBCHEM_ATOM_DEF_STEREO_COUNT>  (1) 
0

>  <PUBCHEM_ATOM_UDEF_STEREO_COUNT>  (1) 
0

>  <PUBCHEM_BOND_DEF_STEREO_COUNT>  (1) 
0

>  <PUBCHEM_BOND_UDEF_STEREO_COUNT>  (1) 
0

>  <PUBCHEM_ISOTOPIC_ATOM_COUNT>  (1) 
0

>  <PUBCHEM_COMPONENT_COUNT>  (1) 
1

>  <PUBCHEM_CACTVS_TAUTO_COUNT>  (1) 
2

>  <PUBCHEM_CONFORMER_ID>  (1) 
0000383E00000001

>  <PUBCHEM_MMFF94_ENERGY>  (1) 
80.53

>  <PUBCHEM_FEATURE_SELFOVERLAP>  (1) 
50.805

>  <PUBCHEM_SHAPE_FINGERPRINT>  (1) 
10165383 225 17489592289518253502
10366900 7 17275100631045985547
10498660 4 18410012130736534633
10670039 82 18261403196052802628
10693767 8 14764353695668398444
11640471 11 17603873273404584139
11961588 58 18059000787184162918
12236239 1 17603862329653957706
12596602 18 16878228653183224840
12633257 1 17095797841277017556
12730499 353 17561369491027709359
12788726 201 18339635638723439769
13149001 5 15553594279110359906
13583140 156 16877947135884361097
13911987 19 16701749366635474524
13965767 371 17173492368936719693
14178342 30 16298113102849150883
14341114 328 17967531293999181208
14739800 52 18264469806944262584
14787075 74 17677335059607534979
15188451 53 13190634871018375025
15209294 21 17676485090222854482
15210252 30 17918276432950110048
15961568 22 18411420600573790861
17980427 23 17603872268271753679
19862831 5 14405177370156899935
20511986 3 17822554076381105039
20645477 70 16988286365266709911
20715895 44 17098601381438166109
20739085 24 15792012225821607274
21637258 2 10879999021461735420
221357 26 15913327983495930513
22393880 68 16200138911674303767
23114952 82 17702113468935995567
23402539 116 18338792415935218502
23557571 272 18270411593302601879
23559900 14 18125997161859717719
238 59 16343697729512965095
2838139 119 18342451552189001124
3060560 45 16343694431099102054
3472631 163 18335139812653935557
34934 24 18186796976868411139
392239 28 17532388628114784793
4340502 62 16515692117769912841
44802255 64 17912107220200424012
474 4 17168147844787592920
5104073 3 18260270716028995003
59755656 520 17240202162187824970
7808743 9 18410572890040591305

>  <PUBCHEM_SHAPE_MULTIPOLES>  (1) 
465.08
10.74
2.38
2.36
2.82
1.29
1
-3.92
-5.74
-0.65
-0.69
-0.62
-1.15
1.44

>  <PUBCHEM_SHAPE_SELFOVERLAP>  (1) 
938.115

>  <PUBCHEM_SHAPE_VOLUME>  (1) 
282

>  <PUBCHEM_COORDINATE_TYPE>  (1) 
2
5
10

$$$$
