1440
     RDKit          3D

 24 23  0  0  1  0  0  0  0  0999 V2000
   -5.3949   -1.5233    0.3682 O   0  0  0  0  0  0  0  0  0  0  0  0
   -5.5516   -2.6909   -0.4793 O   0  0  0  0  0  0  0  0  0  0  0  0
    0.9791    1.1982    1.1856 O   0  0  0  0  0  0  0  0  0  0  0  0
    2.2568    3.0625    1.4260 O   0  0  0  0  0  0  0  0  0  0  0  0
   -3.2222    1.5283   -0.2993 C   0  0  0  0  0  0  0  0  0  0  0  0
   -4.3117    0.6138    0.2713 C   0  0  0  0  0  0  0  0  0  0  0  0
   -3.3700    3.0180    0.0239 C   0  0  0  0  0  0  0  0  0  0  0  0
   -4.2236   -0.8687   -0.1219 C   0  0  0  0  0  0  0  0  0  0  0  0
   -2.2326    3.8756   -0.5314 C   0  0  0  0  0  0  0  0  0  0  0  0
   -2.4287    5.3449   -0.1902 C   0  0  0  0  0  0  0  0  0  0  0  0
   -2.9776   -1.5393    0.4013 C   0  0  0  0  0  0  0  0  0  0  0  0
   -2.0434   -2.1639   -0.3333 C   0  0  0  0  0  0  0  0  0  0  0  0
    3.5155    2.5670   -1.0958 C   0  0  0  0  0  0  0  0  0  0  0  0
    4.6566    1.8869   -0.3329 C   0  0  0  0  0  0  0  0  0  0  0  0
    2.1491    1.9901   -0.7360 C   0  0  0  0  0  0  0  0  0  0  0  0
   -0.8758   -2.7899    0.2460 C   0  0  0  0  0  0  0  0  0  0  0  0
    4.7018    0.4148   -0.6247 C   0  0  0  0  0  0  0  0  0  0  0  0
    4.6609   -2.0060    0.0208 C   0  0  0  0  0  0  0  0  0  0  0  0
    4.6163   -0.5361    0.3176 C   0  0  0  0  0  0  0  0  0  0  0  0
    1.2786   -4.0602    0.1108 C   0  0  0  0  0  0  0  0  0  0  0  0
    0.0605   -3.4153   -0.4836 C   0  0  0  0  0  0  0  0  0  0  0  0
    3.4012   -2.6968    0.4545 C   0  0  0  0  0  0  0  0  0  0  0  0
    2.5383   -3.3694   -0.3232 C   0  0  0  0  0  0  0  0  0  0  0  0
    1.8175    2.1598    0.7255 C   0  0  0  0  0  0  0  0  0  0  0  0
  1  2  1  0
  1  8  1  0
  3 24  1  0
  4 24  2  0
  5  6  1  0
  5  7  1  0
  6  8  1  0
  7  9  1  0
  8 11  1  0
  9 10  1  0
 11 12  2  0
 12 16  1  0
 13 14  1  0
 13 15  1  0
 14 17  1  0
 15 24  1  0
 16 21  2  0
 17 19  2  0
 18 19  1  0
 18 22  1  0
 20 21  1  0
 20 23  1  0
 22 23  2  0
M  END
>  <PUBCHEM_COMPOUND_CID>  (1) 
1440

>  <PUBCHEM_CONFORMER_RMSD>  (1) 
1.4

>  <PUBCHEM_CONFORMER_DIVERSEORDER>  (1) 
1
30
21
102
19
12
42
75
86
61
111
71
41
31
15
126
110
29
123
78
118
70
47
37
94
60
91
45
98
122
4
106
68
112
9
80
8
44
67
121
49
35
18
105
57
93
72
100
69
66
107
32
22
11
53
124
27
63
89
65
34
38
108
13
104
17
52
95
83
59
40
96
103
58
84
33
20
10
120
46
76
26
82
16
113
115
90
39
14
125
87
28
3
24
43
92
5
116
56
54
117
77
50
23
74
99
36
109
7
51
2
73
101
64
25
62
81
6
48
97
85
79
119
88
55
114

>  <PUBCHEM_MMFF94_PARTIAL_CHARGES>  (1) 
28
1 -0.28
11 -0.29
12 -0.15
14 0.14
15 0.06
16 -0.15
17 -0.29
18 0.28
19 -0.29
2 -0.4
20 0.28
21 -0.29
22 -0.29
23 -0.29
24 0.66
3 -0.65
37 0.15
38 0.15
4 -0.57
45 0.15
46 0.15
49 0.15
52 0.15
53 0.15
54 0.4
55 0.15
56 0.5
8 0.42

>  <PUBCHEM_EFFECTIVE_ROTOR_COUNT>  (1) 
15

>  <PUBCHEM_PHARMACOPHORE_FEATURES>  (1) 
6
1 10 hydrophobe
1 3 acceptor
1 4 acceptor
3 3 4 24 anion
4 13 14 15 17 hydrophobe
4 5 6 7 9 hydrophobe

>  <PUBCHEM_HEAVY_ATOM_COUNT>  (1) 
24

>  <PUBCHEM_ATOM_DEF_STEREO_COUNT>  (1) 
0

>  <PUBCHEM_ATOM_UDEF_STEREO_COUNT>  (1) 
1

>  <PUBCHEM_BOND_DEF_STEREO_COUNT>  (1) 
0

>  <PUBCHEM_BOND_UDEF_STEREO_COUNT>  (1) 
4

>  <PUBCHEM_ISOTOPIC_ATOM_COUNT>  (1) 
0

>  <PUBCHEM_COMPONENT_COUNT>  (1) 
1

>  <PUBCHEM_CACTVS_TAUTO_COUNT>  (1) 
1

>  <PUBCHEM_CONFORMER_ID>  (1) 
000005A000000001

>  <PUBCHEM_MMFF94_ENERGY>  (1) 
9.0068

>  <PUBCHEM_FEATURE_SELFOVERLAP>  (1) 
30.504

>  <PUBCHEM_SHAPE_FINGERPRINT>  (1) 
11273773 38 17688870835154323569
12925494 130 18049157766188458053
12978246 48 18409727378668382114
13617811 41 18266166422020559065
14251764 38 18265054643465279223
144659 178 17904484352649736580
14932702 115 17913483537352526544
15320467 1 18121782986939964525
15322687 12 18268992171088693410
16760501 71 18123760755725188753
21315763 129 18337390439900123522
245318 6 17751094710778426750
325973 47 18264494068649826101
338550 245 18408605851328052868
6433294 58 18411137992173404940

>  <PUBCHEM_SHAPE_MULTIPOLES>  (1) 
470.43
11.86
7.37
0.9
2.58
2.88
-0.09
-0.73
0.66
2.7
0.51
-0.42
0.44
-0.24

>  <PUBCHEM_SHAPE_SELFOVERLAP>  (1) 
888.139

>  <PUBCHEM_SHAPE_VOLUME>  (1) 
289.3

>  <PUBCHEM_COORDINATE_TYPE>  (1) 
2
5
10

$$$$
