14424
     RDKit          3D

 24 25  0  0  0  0  0  0  0  0999 V2000
   -2.8003    0.2472   -1.0204 O   0  0  0  0  0  0  0  0  0  0  0  0
    1.1680    2.9340    0.7196 O   0  0  0  0  0  0  0  0  0  0  0  0
   -3.1616   -4.4696    0.0194 N   0  0  0  0  0  0  0  0  0  0  0  0
   -0.3940    1.4071   -0.1536 N   0  0  0  0  0  0  0  0  0  0  0  0
   -2.9822   -2.0892   -0.5253 C   0  0  0  0  0  0  0  0  0  0  0  0
   -3.7873   -3.1649    0.1966 C   0  0  0  0  0  0  0  0  0  0  0  0
   -3.6001   -0.7099   -0.3399 C   0  0  0  0  0  0  0  0  0  0  0  0
   -3.9102   -5.5024    0.7381 C   0  0  0  0  0  0  0  0  0  0  0  0
   -1.7708   -4.4410    0.4758 C   0  0  0  0  0  0  0  0  0  0  0  0
   -2.7906    1.5197   -0.5108 C   0  0  0  0  0  0  0  0  0  0  0  0
   -1.6034    2.1020   -0.0790 C   0  0  0  0  0  0  0  0  0  0  0  0
   -3.9906    2.2194   -0.4327 C   0  0  0  0  0  0  0  0  0  0  0  0
   -1.6162    3.3982    0.4364 C   0  0  0  0  0  0  0  0  0  0  0  0
   -4.0033    3.5155    0.0827 C   0  0  0  0  0  0  0  0  0  0  0  0
   -2.8162    4.1048    0.5172 C   0  0  0  0  0  0  0  0  0  0  0  0
    0.8782    1.8464    0.2351 C   0  0  0  0  0  0  0  0  0  0  0  0
    1.9194    0.8012   -0.0076 C   0  0  0  0  0  0  0  0  0  0  0  0
    4.3086    0.0967    0.0857 C   0  0  0  0  0  0  0  0  0  0  0  0
    3.2030    1.0489    0.2922 C   0  0  0  0  0  0  0  0  0  0  0  0
    4.0254   -1.2530   -0.0472 C   0  0  0  0  0  0  0  0  0  0  0  0
    5.6097    0.5695    0.0286 C   0  0  0  0  0  0  0  0  0  0  0  0
    5.0717   -2.1545   -0.2422 C   0  0  0  0  0  0  0  0  0  0  0  0
    6.6559   -0.3320   -0.1667 C   0  0  0  0  0  0  0  0  0  0  0  0
    6.3869   -1.6941   -0.3021 C   0  0  0  0  0  0  0  0  0  0  0  0
  1  7  1  0
  1 10  1  0
  2 16  2  0
  3  6  1  0
  3  8  1  0
  3  9  1  0
  4 11  1  0
  4 16  1  0
  5  6  1  0
  5  7  1  0
 10 11  2  0
 10 12  1  0
 11 13  1  0
 12 14  2  0
 13 15  2  0
 14 15  1  0
 16 17  1  0
 17 19  2  0
 18 19  1  0
 18 20  2  0
 18 21  1  0
 20 22  1  0
 21 23  2  0
 22 24  2  0
 23 24  1  0
M  END
>  <PUBCHEM_COMPOUND_CID>  (1) 
14424

>  <PUBCHEM_CONFORMER_RMSD>  (1) 
1

>  <PUBCHEM_CONFORMER_DIVERSEORDER>  (1) 
1
26
61
53
19
68
43
51
45
64
9
14
62
58
13
33
20
69
44
17
70
42
25
27
55
3
47
49
46
21
18
67
32
23
40
54
50
66
56
5
59
22
30
63
6
65
60
37
28
48
11
12
29
57
31
38
39
36
8
24
16
41
7
10
4
15
52
2
34
35

>  <PUBCHEM_MMFF94_PARTIAL_CHARGES>  (1) 
35
1 -0.36
10 0.08
11 0.12
12 -0.15
13 -0.15
14 -0.15
15 -0.15
16 0.62
17 -0.14
18 0.03
19 -0.18
2 -0.57
20 -0.15
21 -0.15
22 -0.15
23 -0.15
24 -0.15
3 -0.81
37 0.15
38 0.15
39 0.37
4 -0.55
40 0.15
41 0.15
42 0.15
43 0.15
44 0.15
45 0.15
46 0.15
47 0.15
48 0.15
6 0.27
7 0.28
8 0.27
9 0.27

>  <PUBCHEM_EFFECTIVE_ROTOR_COUNT>  (1) 
9

>  <PUBCHEM_PHARMACOPHORE_FEATURES>  (1) 
6
1 1 acceptor
1 2 acceptor
1 3 cation
1 4 donor
6 10 11 12 13 14 15 rings
6 18 20 21 22 23 24 rings

>  <PUBCHEM_HEAVY_ATOM_COUNT>  (1) 
24

>  <PUBCHEM_ATOM_DEF_STEREO_COUNT>  (1) 
0

>  <PUBCHEM_ATOM_UDEF_STEREO_COUNT>  (1) 
0

>  <PUBCHEM_BOND_DEF_STEREO_COUNT>  (1) 
0

>  <PUBCHEM_BOND_UDEF_STEREO_COUNT>  (1) 
1

>  <PUBCHEM_ISOTOPIC_ATOM_COUNT>  (1) 
0

>  <PUBCHEM_COMPONENT_COUNT>  (1) 
1

>  <PUBCHEM_CACTVS_TAUTO_COUNT>  (1) 
2

>  <PUBCHEM_CONFORMER_ID>  (1) 
0000385800000001

>  <PUBCHEM_MMFF94_ENERGY>  (1) 
76.5011

>  <PUBCHEM_FEATURE_SELFOVERLAP>  (1) 
30.446

>  <PUBCHEM_SHAPE_FINGERPRINT>  (1) 
10462674 296 17409076346546296214
107951 10 18198058080433844285
10940486 97 18261120651275950356
11014199 57 18264772232137945812
11227688 84 17838886389102661573
12107183 9 17980217584701476123
12990986 174 18338518654587954455
13785724 45 17979086195325320535
138480 1 16609414183725808659
13911852 28 17979353385251243951
13989917 61 17111568346386387459
14251757 5 18411134723228701611
14444916 359 18052555278582124585
14461889 52 18130208412570374464
14659021 117 18336256946484924482
14790565 3 17834959672160376913
14844126 61 18408326592496516499
14866123 147 18412267255514504571
15042514 8 18410857698602909405
15250474 111 18261944142857046194
15400415 2 18122061992817421180
15927050 60 18125716782821769765
16719943 64 18267581304127351967
167882 2 17184742499483651189
16993438 75 18335428958432291690
17492 89 18338514278317070572
17627616 140 17975969869870632071
17859628 70 17184470366017825107
17909252 39 18122909995423052032
19301676 85 18339350985587526999
20286276 3 18339924912981022896
20771845 38 18196096543474406641
20775530 9 18121491620843774043
23379529 103 18266741461869393546
23466295 7 18410578426680619249
23559900 14 18272075073028938608
3383291 50 18411133607296658603
3421961 26 17473824408788077723
395649 100 18409167702387427742
4073 2 18411979136212616592
484985 159 18408321090843967323
5104073 3 18130217156791954072
5309563 4 18123188180160044631
56633871 153 18195256739919321179
613672 6 17979328070323325227
6431902 208 18340198713125229246
6441014 3 18194118740520510346
7970288 3 18122344854810014627

>  <PUBCHEM_SHAPE_MULTIPOLES>  (1) 
472.21
14.27
7.34
0.76
25.97
8.71
0.01
6.08
1.09
-15.24
-1.94
-0.28
0.03
0.95

>  <PUBCHEM_SHAPE_SELFOVERLAP>  (1) 
980.831

>  <PUBCHEM_SHAPE_VOLUME>  (1) 
269.4

>  <PUBCHEM_COORDINATE_TYPE>  (1) 
2
5
10

$$$$
