14420
     RDKit          3D

 24 25  0  0  0  0  0  0  0  0999 V2000
   -2.9925    0.5724   -0.4185 O   0  0  0  0  0  0  0  0  0  0  0  0
    3.3186    0.0131   -0.9610 O   0  0  0  0  0  0  0  0  0  0  0  0
   -2.0383    1.7112   -2.1940 O   0  0  0  0  0  0  0  0  0  0  0  0
    2.8616   -1.4860    0.7429 O   0  0  0  0  0  0  0  0  0  0  0  0
    0.5659    2.3521    1.3901 N   0  0  0  0  0  0  0  0  0  0  0  0
    0.2030    0.1599   -0.3647 C   0  0  0  0  0  0  0  0  0  0  0  0
   -0.8237    1.2879   -0.2031 C   0  0  0  0  0  0  0  0  0  0  0  0
    1.5101    0.4284    0.3876 C   0  0  0  0  0  0  0  0  0  0  0  0
   -0.3917   -1.1424    0.0898 C   0  0  0  0  0  0  0  0  0  0  0  0
   -0.6128    2.3067    0.6613 C   0  0  0  0  0  0  0  0  0  0  0  0
    1.6264    1.4738    1.2370 C   0  0  0  0  0  0  0  0  0  0  0  0
   -2.0074    1.2305   -1.0761 C   0  0  0  0  0  0  0  0  0  0  0  0
    2.6341   -0.4775    0.1003 C   0  0  0  0  0  0  0  0  0  0  0  0
   -1.5671    3.4392    0.9283 C   0  0  0  0  0  0  0  0  0  0  0  0
    2.8423    1.7962    2.0627 C   0  0  0  0  0  0  0  0  0  0  0  0
   -0.2606   -1.5310    1.4176 C   0  0  0  0  0  0  0  0  0  0  0  0
   -1.0669   -1.9448   -0.8220 C   0  0  0  0  0  0  0  0  0  0  0  0
   -0.8130   -2.7401    1.8400 C   0  0  0  0  0  0  0  0  0  0  0  0
   -1.6194   -3.1540   -0.3995 C   0  0  0  0  0  0  0  0  0  0  0  0
   -1.4924   -3.5516    0.9315 C   0  0  0  0  0  0  0  0  0  0  0  0
   -4.2186    0.4334   -1.1439 C   0  0  0  0  0  0  0  0  0  0  0  0
    4.4500   -0.7646   -1.3656 C   0  0  0  0  0  0  0  0  0  0  0  0
   -5.2160   -0.3170   -0.2871 C   0  0  0  0  0  0  0  0  0  0  0  0
    5.1085   -0.0960   -2.5535 C   0  0  0  0  0  0  0  0  0  0  0  0
  1 12  1  0
  1 21  1  0
  2 13  1  0
  2 22  1  0
  3 12  2  0
  4 13  2  0
  5 10  1  0
  5 11  1  0
  6  7  1  0
  6  8  1  0
  6  9  1  0
  7 10  2  0
  7 12  1  0
  8 11  2  0
  8 13  1  0
  9 16  2  0
  9 17  1  0
 10 14  1  0
 11 15  1  0
 16 18  1  0
 17 19  2  0
 18 20  2  0
 19 20  1  0
 21 23  1  0
 22 24  1  0
M  END
>  <PUBCHEM_COMPOUND_CID>  (1) 
14420

>  <PUBCHEM_CONFORMER_RMSD>  (1) 
0.8

>  <PUBCHEM_CONFORMER_DIVERSEORDER>  (1) 
1
31
15
30
10
23
21
25
7
20
29
26
28
3
9
12
11
8
6
24
17
27
16
14
4
22
19
5
13
2
18

>  <PUBCHEM_MMFF94_PARTIAL_CHARGES>  (1) 
28
1 -0.43
10 -0.04
11 -0.04
12 0.71
13 0.71
14 0.14
15 0.14
16 -0.15
17 -0.15
18 -0.15
19 -0.15
2 -0.43
20 -0.15
21 0.28
22 0.28
26 0.4
3 -0.57
33 0.15
34 0.15
35 0.15
36 0.15
37 0.15
4 -0.57
5 -0.6
6 0.42
7 -0.12
8 -0.12
9 -0.14

>  <PUBCHEM_EFFECTIVE_ROTOR_COUNT>  (1) 
7.4

>  <PUBCHEM_PHARMACOPHORE_FEATURES>  (1) 
6
1 3 acceptor
1 4 acceptor
1 5 cation
1 5 donor
6 5 6 7 8 10 11 rings
6 9 16 17 18 19 20 rings

>  <PUBCHEM_HEAVY_ATOM_COUNT>  (1) 
24

>  <PUBCHEM_ATOM_DEF_STEREO_COUNT>  (1) 
0

>  <PUBCHEM_ATOM_UDEF_STEREO_COUNT>  (1) 
0

>  <PUBCHEM_BOND_DEF_STEREO_COUNT>  (1) 
0

>  <PUBCHEM_BOND_UDEF_STEREO_COUNT>  (1) 
0

>  <PUBCHEM_ISOTOPIC_ATOM_COUNT>  (1) 
0

>  <PUBCHEM_COMPONENT_COUNT>  (1) 
1

>  <PUBCHEM_CACTVS_TAUTO_COUNT>  (1) 
2

>  <PUBCHEM_CONFORMER_ID>  (1) 
0000385400000001

>  <PUBCHEM_MMFF94_ENERGY>  (1) 
59.1319

>  <PUBCHEM_FEATURE_SELFOVERLAP>  (1) 
30.446

>  <PUBCHEM_SHAPE_FINGERPRINT>  (1) 
10076449 9 18268170792726023382
10906281 52 18126550443799753200
11578080 2 17984713469469921040
11680986 33 18128252487672345313
12035758 1 18341610468627167027
12714826 92 18266481934729518406
12788726 201 18342183206837370538
13140716 1 18268410490497726442
13149001 5 18340200886003907124
133893 2 17321263407325394795
13544592 271 17768781480471386984
14022347 108 18410567418204790040
14787075 74 18335702715579247647
15209289 33 18271529689248332977
16752209 62 18268148665164965874
16945 1 18058150765964313628
17492 54 18186241719090641071
18915476 22 17416120809980285072
19591789 44 18336529548402469235
20600515 1 18044636823140124972
20691752 17 18042943528431535799
21421861 104 17760931745470915737
22182313 1 18127973224883223986
22393880 68 18123718003852840095
22907989 373 17981646786017334348
23419403 2 17986407786997333504
23557571 272 18266739276231998408
23559900 14 18411979204858435028
2748010 2 18127685139972878810
394222 165 17242445023636198179
56616090 284 18272097050122618198
58260988 647 17417826032024338463
81228 2 17899959819303850427

>  <PUBCHEM_SHAPE_MULTIPOLES>  (1) 
465.45
7.17
3.81
1.99
2.73
0.81
0.32
0.44
5.04
-2.38
-1.84
1.52
-0.19
1.56

>  <PUBCHEM_SHAPE_SELFOVERLAP>  (1) 
977.188

>  <PUBCHEM_SHAPE_VOLUME>  (1) 
262.4

>  <PUBCHEM_COORDINATE_TYPE>  (1) 
2
5
10

$$$$
