14431
     RDKit          3D

 26 30  0  0  1  0  0  0  0  0999 V2000
    6.1978    1.1651   -0.5519 O   0  0  0  0  0  0  0  0  0  0  0  0
    5.6240   -2.0154    0.8300 O   0  0  0  0  0  0  0  0  0  0  0  0
   -4.4843   -0.4835    0.4130 O   0  0  0  0  0  0  0  0  0  0  0  0
    3.9188    0.2677   -0.8420 C   0  0  0  0  0  0  0  0  0  0  0  0
    3.4100    0.7015    0.5529 C   0  0  0  0  0  0  0  0  0  0  0  0
    1.8817    0.6692    0.7771 C   0  0  0  0  0  0  0  0  0  0  0  0
    1.2045   -0.6011    0.2061 C   0  0  0  0  0  0  0  0  0  0  0  0
    5.4188   -0.0316   -0.5598 C   0  0  0  0  0  0  0  0  0  0  0  0
    3.1943   -1.0102   -1.3229 C   0  0  0  0  0  0  0  0  0  0  0  0
    4.1374   -0.2566    1.5187 C   0  0  0  0  0  0  0  0  0  0  0  0
    5.4741   -0.6015    0.8611 C   0  0  0  0  0  0  0  0  0  0  0  0
    1.6720   -0.9135   -1.2271 C   0  0  0  0  0  0  0  0  0  0  0  0
    1.1870    1.9303    0.2408 C   0  0  0  0  0  0  0  0  0  0  0  0
    3.7732    1.3737   -1.9025 C   0  0  0  0  0  0  0  0  0  0  0  0
   -0.3144   -0.5359    0.2708 C   0  0  0  0  0  0  0  0  0  0  0  0
   -0.2679    1.9732    0.7003 C   0  0  0  0  0  0  0  0  0  0  0  0
   -0.9994    0.6769    0.4701 C   0  0  0  0  0  0  0  0  0  0  0  0
   -1.0576   -1.7204    0.1201 C   0  0  0  0  0  0  0  0  0  0  0  0
   -2.4030    0.6790    0.5216 C   0  0  0  0  0  0  0  0  0  0  0  0
   -2.4514   -1.7034    0.1629 C   0  0  0  0  0  0  0  0  0  0  0  0
   -3.1243   -0.5031    0.3628 C   0  0  0  0  0  0  0  0  0  0  0  0
   -5.1570    0.3114   -0.5555 C   0  0  0  0  0  0  0  0  0  0  0  0
   -6.0495    1.3206    0.1502 C   0  0  0  0  0  0  0  0  0  0  0  0
   -6.1491   -0.5348   -1.3391 C   0  0  0  0  0  0  0  0  0  0  0  0
   -7.2947    0.5249    0.5393 C   0  0  0  0  0  0  0  0  0  0  0  0
   -7.3412   -0.6827   -0.3970 C   0  0  0  0  0  0  0  0  0  0  0  0
  1  8  1  0
  2 11  1  0
  3 21  1  0
  3 22  1  0
  4  5  1  0
  4  8  1  0
  4  9  1  0
  4 14  1  0
  5  6  1  0
  5 10  1  0
  6  7  1  0
  6 13  1  0
  7 12  1  0
  7 15  1  0
  8 11  1  0
  9 12  1  0
 10 11  1  0
 13 16  1  0
 15 17  2  0
 15 18  1  0
 16 17  1  0
 17 19  1  0
 18 20  2  0
 19 21  2  0
 20 21  1  0
 22 23  1  0
 22 24  1  0
 23 25  1  0
 24 26  1  0
 25 26  1  0
M  END
>  <PUBCHEM_COMPOUND_CID>  (1) 
14431

>  <PUBCHEM_CONFORMER_RMSD>  (1) 
0.8

>  <PUBCHEM_CONFORMER_DIVERSEORDER>  (1) 
2
84
17
100
90
87
12
106
111
95
14
75
69
9
107
8
15
36
32
103
101
62
35
108
43
105
97
89
112
22
1
6
39
33
96
38
56
51
113
58
47
28
114
72
119
88
25
50
27
85
21
46
116
110
82
13
118
54
98
11
94
7
117
93
83
34
19
80
16
29
68
102
40
109
63
81
74
55
79
78
115
76
99
53
44
61
23
24
86
91
104
20
49
4
5
60
77
41
31
71
66
52
92
26
45
57
65
42
3
73
59
30
70
67
48
18
37
64
10

>  <PUBCHEM_MMFF94_PARTIAL_CHARGES>  (1) 
19
1 -0.68
11 0.28
15 -0.14
16 0.14
17 -0.14
18 -0.15
19 -0.15
2 -0.68
20 -0.15
21 0.08
22 0.28
3 -0.36
45 0.4
46 0.4
47 0.15
48 0.15
49 0.15
7 0.14
8 0.28

>  <PUBCHEM_EFFECTIVE_ROTOR_COUNT>  (1) 
4.4

>  <PUBCHEM_PHARMACOPHORE_FEATURES>  (1) 
10
1 1 acceptor
1 1 donor
1 2 acceptor
1 2 donor
1 3 acceptor
5 22 23 24 25 26 rings
5 4 5 8 10 11 rings
6 15 17 18 19 20 21 rings
6 4 5 6 7 9 12 rings
6 6 7 13 15 16 17 rings

>  <PUBCHEM_HEAVY_ATOM_COUNT>  (1) 
26

>  <PUBCHEM_ATOM_DEF_STEREO_COUNT>  (1) 
2

>  <PUBCHEM_ATOM_UDEF_STEREO_COUNT>  (1) 
4

>  <PUBCHEM_BOND_DEF_STEREO_COUNT>  (1) 
0

>  <PUBCHEM_BOND_UDEF_STEREO_COUNT>  (1) 
0

>  <PUBCHEM_ISOTOPIC_ATOM_COUNT>  (1) 
0

>  <PUBCHEM_COMPONENT_COUNT>  (1) 
1

>  <PUBCHEM_CACTVS_TAUTO_COUNT>  (1) 
1

>  <PUBCHEM_CONFORMER_ID>  (1) 
0000385F00000002

>  <PUBCHEM_MMFF94_ENERGY>  (1) 
93.0045

>  <PUBCHEM_FEATURE_SELFOVERLAP>  (1) 
50.97

>  <PUBCHEM_SHAPE_FINGERPRINT>  (1) 
10554248 39 18260826003365290238
10906281 52 18271262567878037897
11578080 2 15142394518239821180
11646440 116 18060425729069435401
11719270 70 18059855038984261318
11796584 16 17676490566295952466
11963148 33 18273206512879415918
11991303 11 17822288046345025059
12011746 2 18059861674734418484
12166972 35 18040716948107065924
12236239 1 17894631465527641842
12516196 113 16559030493664904361
12596602 18 14490192709440467709
12741549 16 16486970658097186520
12788726 201 18342463603529643648
12916748 109 8430321246718352570
13533116 47 18336541621592604818
13668630 136 15841558487538066677
13862211 1 18342735213298368507
14170010 4 17632857542511106689
14251752 14 18040429971656517581
14251764 18 18408322203071536025
14294032 229 18122634855508343881
14933364 13 15936410035661720261
15099037 51 18412826902279080115
15142383 8 16950274101047903670
15183329 4 18272651251591575981
15849732 13 16805323296919950783
17349148 13 18273214200948930912
18222031 100 17988928885671736640
18335252 114 17603856815548706213
18608769 82 18261682584144925027
18681886 176 17775276206036859051
19377110 9 10159709005571380679
200 152 16774080670085387491
20157964 124 17603588538969539732
20281389 69 17530963584020566341
20511986 3 18189331437191230388
21150785 3 18343303699375216797
21267235 1 18413110541296939442
21285901 2 18272097045537611093
21304304 249 18342456985871672694
22079108 93 14476952394360230798
22224240 67 16988552525228682546
22956985 138 17769662997272461158
23402539 116 18202275910053871591
23522609 53 18265923331257308881
23536379 177 16805321089559617441
23559900 14 18059288885021887729
23569943 247 17343524223059057615
23576562 1 18193278718110205173
249057 3 17167865270663407354
29717793 49 18260832579408164262
3004659 81 18334297561246111388
3009799 131 18272369776240370993
3178227 256 18336277799258008931
335352 9 18412544335789878221
3411729 13 17986379208786879704
4072396 5 18272365356877493194
4093350 32 15575007169546244454
4340502 62 14764624222673088140
5385378 56 18337958870817026667
59755656 215 17988927755889570623
59755656 520 18113612409488505891
8988823 20 16702299062029566488

>  <PUBCHEM_SHAPE_MULTIPOLES>  (1) 
517.46
17.84
1.7
1.26
19.98
0.11
0.34
-0.56
1.68
-0.39
-0.08
-1.27
0.01
-0.9

>  <PUBCHEM_SHAPE_SELFOVERLAP>  (1) 
1122.421

>  <PUBCHEM_SHAPE_VOLUME>  (1) 
282.6

>  <PUBCHEM_COORDINATE_TYPE>  (1) 
2
5
10

$$$$
