14435
     RDKit          3D

 27 28  0  0  1  0  0  0  0  0999 V2000
    0.9213   -0.7928   -0.1322 O   0  0  0  0  0  0  0  0  0  0  0  0
   -0.6540   -2.4290   -0.5682 O   0  0  0  0  0  0  0  0  0  0  0  0
   -7.3886    0.2033    0.4371 O   0  0  0  0  0  0  0  0  0  0  0  0
   -5.8969    0.9616    2.0156 O   0  0  0  0  0  0  0  0  0  0  0  0
    4.4909   -2.1216    2.0755 O   0  0  0  0  0  0  0  0  0  0  0  0
   -1.8363    0.6791   -1.0474 C   0  0  0  0  0  0  0  0  0  0  0  0
   -2.7416   -0.4139   -0.5605 C   0  0  0  0  0  0  0  0  0  0  0  0
   -1.3719   -0.2546    0.0316 C   0  0  0  0  0  0  0  0  0  0  0  0
   -1.2711    0.5388   -2.4209 C   0  0  0  0  0  0  0  0  0  0  0  0
   -2.1090    2.0940   -0.6578 C   0  0  0  0  0  0  0  0  0  0  0  0
   -3.8976   -0.0995    0.2656 C   0  0  0  0  0  0  0  0  0  0  0  0
   -0.3447   -1.2873   -0.2583 C   0  0  0  0  0  0  0  0  0  0  0  0
   -5.1298    0.2466   -0.1546 C   0  0  0  0  0  0  0  0  0  0  0  0
    1.9730   -1.7141   -0.3914 C   0  0  0  0  0  0  0  0  0  0  0  0
   -5.5229    0.3685   -1.5982 C   0  0  0  0  0  0  0  0  0  0  0  0
    2.4060   -2.4055    0.8957 C   0  0  0  0  0  0  0  0  0  0  0  0
    3.1986   -0.9858   -0.8730 C   0  0  0  0  0  0  0  0  0  0  0  0
   -6.1494    0.5200    0.9033 C   0  0  0  0  0  0  0  0  0  0  0  0
    4.2471   -1.0571   -0.0414 C   0  0  0  0  0  0  0  0  0  0  0  0
    3.7967   -1.8804    1.0986 C   0  0  0  0  0  0  0  0  0  0  0  0
    3.1369   -0.2717   -2.1825 C   0  0  0  0  0  0  0  0  0  0  0  0
    5.6126   -0.4866   -0.1097 C   0  0  0  0  0  0  0  0  0  0  0  0
    5.7160    0.8378    0.5938 C   0  0  0  0  0  0  0  0  0  0  0  0
   -8.4696    0.4164    1.3512 C   0  0  0  0  0  0  0  0  0  0  0  0
    6.1233    1.9706    0.0016 C   0  0  0  0  0  0  0  0  0  0  0  0
    6.2301    3.2893    0.7086 C   0  0  0  0  0  0  0  0  0  0  0  0
    4.9308    4.0741    0.6177 C   0  0  0  0  0  0  0  0  0  0  0  0
  1 12  1  0
  1 14  1  0
  2 12  2  0
  3 18  1  0
  3 24  1  0
  4 18  2  0
  5 20  2  0
  6  7  1  0
  6  8  1  0
  6  9  1  0
  6 10  1  0
  7  8  1  0
  7 11  1  0
  8 12  1  0
 11 13  2  0
 13 15  1  0
 13 18  1  0
 14 16  1  0
 14 17  1  0
 16 20  1  0
 17 19  2  0
 17 21  1  0
 19 20  1  0
 19 22  1  0
 22 23  1  0
 23 25  2  0
 25 26  1  0
 26 27  1  0
M  END
>  <PUBCHEM_COMPOUND_CID>  (1) 
14435

>  <PUBCHEM_CONFORMER_RMSD>  (1) 
1

>  <PUBCHEM_CONFORMER_DIVERSEORDER>  (1) 
1
47
39
46
42
45
36
40
41
13
52
6
23
33
51
20
34
26
44
53
28
38
9
15
49
30
16
22
50
14
21
7
29
35
12
25
11
31
24
32
37
27
5
8
2
3
48
17
18
10
19
43
4

>  <PUBCHEM_MMFF94_PARTIAL_CHARGES>  (1) 
31
1 -0.43
10 0.09
11 -0.19
12 0.72
13 -0.12
14 0.42
15 0.14
16 0.06
17 -0.28
18 0.71
19 -0.12
2 -0.57
20 0.49
21 0.14
22 0.28
23 -0.29
24 0.28
25 -0.29
26 0.14
28 0.1
29 0.1
3 -0.43
36 0.15
4 -0.57
48 0.15
5 -0.57
52 0.15
6 -0.19
7 -0.06
8 -0.1
9 0.09

>  <PUBCHEM_EFFECTIVE_ROTOR_COUNT>  (1) 
10

>  <PUBCHEM_PHARMACOPHORE_FEATURES>  (1) 
7
1 15 hydrophobe
1 2 acceptor
1 27 hydrophobe
1 4 acceptor
1 5 acceptor
3 6 9 10 hydrophobe
5 14 16 17 19 20 rings

>  <PUBCHEM_HEAVY_ATOM_COUNT>  (1) 
27

>  <PUBCHEM_ATOM_DEF_STEREO_COUNT>  (1) 
0

>  <PUBCHEM_ATOM_UDEF_STEREO_COUNT>  (1) 
0

>  <PUBCHEM_BOND_DEF_STEREO_COUNT>  (1) 
0

>  <PUBCHEM_BOND_UDEF_STEREO_COUNT>  (1) 
2

>  <PUBCHEM_ISOTOPIC_ATOM_COUNT>  (1) 
0

>  <PUBCHEM_COMPONENT_COUNT>  (1) 
1

>  <PUBCHEM_CACTVS_TAUTO_COUNT>  (1) 
5

>  <PUBCHEM_CONFORMER_ID>  (1) 
0000386300000001

>  <PUBCHEM_MMFF94_ENERGY>  (1) 
38.5131

>  <PUBCHEM_FEATURE_SELFOVERLAP>  (1) 
35.522

>  <PUBCHEM_SHAPE_FINGERPRINT>  (1) 
10 15 17603867823475986548
10693767 8 8718550480124524480
11273773 42 18059289989087107700
11796584 16 12535332503009132228
13533116 47 16805889480910133730
13955234 65 18261668161270497650
14251764 18 17989486334251924125
14251764 75 18196091264833881904
14347332 77 8213879079881869814
14461889 52 17095529503940432763
146900 427 18409448085719381986
14849402 71 18201722903293366561
14933364 13 15051727565558540715
15183329 4 12895353270551872695
15188451 53 14417853635387075943
16760501 71 18411138069282732896
21344244 78 16515405175041339468
21521721 280 18411420613917069859
21792934 111 17603865577482709589
2215653 11 11024106546957122348
22224240 67 18408326575649482531
23559900 14 17096087974375352234
3004659 81 14779559954028143102
3472631 163 18272651290183023974
34797466 226 18131638858947577439
394071 54 18413394245567866116
397830 11 18262809587135384019
4093350 32 17489593376947131876
4340502 62 17458065954134880986
5104073 3 18261110811205077722
54076057 255 17346597491191049992
5911458 16 17846508036155720505
59682541 35 18186527626763608627
59682541 52 10375870792526630232
6438161 24 10879999026004759428

>  <PUBCHEM_SHAPE_MULTIPOLES>  (1) 
526.3
20.41
3.06
1.71
22.41
2.4
0.39
11.55
-9.06
-7.86
-1.07
0.89
-0.07
-0.16

>  <PUBCHEM_SHAPE_SELFOVERLAP>  (1) 
1078.751

>  <PUBCHEM_SHAPE_VOLUME>  (1) 
308

>  <PUBCHEM_COORDINATE_TYPE>  (1) 
2
5
10

$$$$
