14449
     RDKit          2D

 39 44  0  0  1  0  0  0  0  0999 V2000
    0.0000    0.0000    0.0000 O   0  0  0  0  0  0  0  0  0  0  0  0
    0.0000    0.0000    0.0000 O   0  0  0  0  0  0  0  0  0  0  0  0
    0.0000    0.0000    0.0000 O   0  0  0  0  0  0  0  0  0  0  0  0
    0.0000    0.0000    0.0000 O   0  0  0  0  0  0  0  0  0  0  0  0
    0.0000    0.0000    0.0000 O   0  0  0  0  0  0  0  0  0  0  0  0
    0.0000    0.0000    0.0000 O   0  0  0  0  0  0  0  0  0  0  0  0
    0.0000    0.0000    0.0000 O   0  0  0  0  0  0  0  0  0  0  0  0
    0.0000    0.0000    0.0000 O   0  0  0  0  0  0  0  0  0  0  0  0
    0.0000    0.0000    0.0000 O   0  0  0  0  0  0  0  0  0  0  0  0
    0.0000    0.0000    0.0000 C   0  0  0  0  0  0  0  0  0  0  0  0
    0.0000    0.0000    0.0000 C   0  0  0  0  0  0  0  0  0  0  0  0
    0.0000    0.0000    0.0000 C   0  0  0  0  0  0  0  0  0  0  0  0
    0.0000    0.0000    0.0000 C   0  0  0  0  0  0  0  0  0  0  0  0
    0.0000    0.0000    0.0000 C   0  0  0  0  0  0  0  0  0  0  0  0
    0.0000    0.0000    0.0000 C   0  0  0  0  0  0  0  0  0  0  0  0
    0.0000    0.0000    0.0000 C   0  0  0  0  0  0  0  0  0  0  0  0
    0.0000    0.0000    0.0000 C   0  0  0  0  0  0  0  0  0  0  0  0
    0.0000    0.0000    0.0000 C   0  0  0  0  0  0  0  0  0  0  0  0
    0.0000    0.0000    0.0000 C   0  0  0  0  0  0  0  0  0  0  0  0
    0.0000    0.0000    0.0000 C   0  0  0  0  0  0  0  0  0  0  0  0
    0.0000    0.0000    0.0000 C   0  0  0  0  0  0  0  0  0  0  0  0
    0.0000    0.0000    0.0000 C   0  0  0  0  0  0  0  0  0  0  0  0
    0.0000    0.0000    0.0000 C   0  0  0  0  0  0  0  0  0  0  0  0
    0.0000    0.0000    0.0000 C   0  0  0  0  0  0  0  0  0  0  0  0
    0.0000    0.0000    0.0000 C   0  0  0  0  0  0  0  0  0  0  0  0
    0.0000    0.0000    0.0000 C   0  0  0  0  0  0  0  0  0  0  0  0
    0.0000    0.0000    0.0000 C   0  0  0  0  0  0  0  0  0  0  0  0
    0.0000    0.0000    0.0000 C   0  0  0  0  0  0  0  0  0  0  0  0
    0.0000    0.0000    0.0000 C   0  0  0  0  0  0  0  0  0  0  0  0
    0.0000    0.0000    0.0000 C   0  0  0  0  0  0  0  0  0  0  0  0
    0.0000    0.0000    0.0000 C   0  0  0  0  0  0  0  0  0  0  0  0
    0.0000    0.0000    0.0000 C   0  0  0  0  0  0  0  0  0  0  0  0
    0.0000    0.0000    0.0000 C   0  0  0  0  0  0  0  0  0  0  0  0
    0.0000    0.0000    0.0000 C   0  0  0  0  0  0  0  0  0  0  0  0
    0.0000    0.0000    0.0000 C   0  0  0  0  0  0  0  0  0  0  0  0
    0.0000    0.0000    0.0000 C   0  0  0  0  0  0  0  0  0  0  0  0
    0.0000    0.0000    0.0000 C   0  0  0  0  0  0  0  0  0  0  0  0
    0.0000    0.0000    0.0000 C   0  0  0  0  0  0  0  0  0  0  0  0
    0.0000    0.0000    0.0000 C   0  0  0  0  0  0  0  0  0  0  0  0
  1 10  1  0
  2 27  1  0
  2 32  1  0
  3 29  2  0
  4 30  1  0
  4 33  1  0
  5 32  1  0
  5 36  1  0
  6 33  2  0
  7 34  1  0
  8 35  1  0
  8 39  1  0
  9 37  1  0
 10 11  1  0
 10 12  1  0
 10 19  1  0
 11 13  1  0
 11 20  1  0
 12 15  1  0
 12 16  1  0
 12 24  1  0
 13 14  1  0
 13 18  1  0
 14 17  1  0
 14 23  1  0
 14 29  1  0
 15 21  1  0
 15 28  1  0
 16 18  1  0
 17 22  1  0
 17 25  1  0
 19 21  1  0
 20 22  1  0
 23 26  1  0
 25 27  1  0
 26 27  1  0
 28 30  1  0
 28 31  2  0
 31 33  1  0
 32 34  1  0
 34 35  1  0
 35 37  1  0
 36 37  1  0
 36 38  1  0
M  END
>  <PUBCHEM_COMPOUND_CID>  (1) 
14449

>  <PUBCHEM_CONFORMER_RMSD>  (1) 
1

>  <PUBCHEM_CONFORMER_DIVERSEORDER>  (1) 
18
342
175
349
168
310
20
256
296
146
297
123
49
155
130
274
221
248
237
124
200
185
217
225
126
117
394
199
328
40
48
254
333
228
183
373
243
157
188
167
286
101
379
89
14
115
226
51
362
62
127
106
103
125
401
302
61
273
227
177
277
322
189
293
164
134
395
90
120
301
233
367
298
288
247
331
347
307
132
282
283
358
300
178
166
190
209
334
31
380
397
259
37
329
391
181
361
79
211
359
27
402
91
383
109
262
216
350
369
75
270
172
180
47
170
315
142
86
81
206
231
66
100
141
78
289
390
327
69
135
194
39
324
240
232
337
252
365
63
356
11
203
82
8
388
370
220
77
122
351
360
158
165
321
284
353
119
281
2
398
139
133
266
260
346
3
320
241
389
138
336
28
94
41
93
174
198
372
87
201
246
332
253
212
278
354
195
182
393
10
381
236
295
16
88
271
151
267
261
57
102
303
162
96
54
80
140
291
230
213
161
159
116
208
400
148
294
21
15
339
76
305
179
68
368
396
35
55
173
234
107
386
318
210
36
272
169
319
382
341
44
285
56
292
374
343
65
244
187
104
74
192
335
50
309
70
137
264
196
113
312
317
314
207
371
378
171
64
22
121
163
24
186
143
238
251
276
144
46
108
235
257
111
45
7
30
377
313
13
316
129
160
384
6
279
214
23
1
375
114
193
363
223
131
26
5
154
385
72
330
73
348
255
280
42
263
326
184
258
149
84
355
52
239
306
218
53
268
340
366
118
85
229
357
92
58
19
387
269
97
249
325
222
43
204
323
344
364
176
98
60
345
153
29
304
290
299
71
338
110
59
245
287
9
197
376
242
12
224
202
215
105
38
311
150
34
191
128
250
219
33
83
95
152
399
17
67
352
308
147
25
112
145
392
156
136
99
275
205
32
4
265

>  <PUBCHEM_MMFF94_PARTIAL_CHARGES>  (1) 
29
1 -0.68
10 0.28
14 0.06
15 0.14
2 -0.56
27 0.28
28 -0.28
29 0.45
3 -0.57
30 0.42
31 -0.14
32 0.56
33 0.71
34 0.28
35 0.28
36 0.28
37 0.28
39 0.28
4 -0.43
5 -0.56
6 -0.57
66 0.4
67 0.06
7 -0.68
70 0.15
76 0.4
8 -0.56
80 0.4
9 -0.68

>  <PUBCHEM_EFFECTIVE_ROTOR_COUNT>  (1) 
8.8

>  <PUBCHEM_PHARMACOPHORE_FEATURES>  (1) 
17
1 1 acceptor
1 1 donor
1 2 acceptor
1 3 acceptor
1 5 acceptor
1 6 acceptor
1 7 acceptor
1 7 donor
1 8 acceptor
1 9 acceptor
1 9 donor
5 10 12 15 19 21 rings
5 4 28 30 31 33 rings
6 10 11 12 13 16 18 rings
6 11 13 14 17 20 22 rings
6 14 17 23 25 26 27 rings
6 5 32 34 35 36 37 rings

>  <PUBCHEM_HEAVY_ATOM_COUNT>  (1) 
39

>  <PUBCHEM_ATOM_DEF_STEREO_COUNT>  (1) 
8

>  <PUBCHEM_ATOM_UDEF_STEREO_COUNT>  (1) 
5

>  <PUBCHEM_BOND_DEF_STEREO_COUNT>  (1) 
0

>  <PUBCHEM_BOND_UDEF_STEREO_COUNT>  (1) 
0

>  <PUBCHEM_ISOTOPIC_ATOM_COUNT>  (1) 
0

>  <PUBCHEM_COMPONENT_COUNT>  (1) 
1

>  <PUBCHEM_CACTVS_TAUTO_COUNT>  (1) 
1

$$$$
