14456
     RDKit          3D

  8  7  0  0  0  0  0  0  0  0999 V2000
    0.1157   -0.0140    0.2992 Si  0  0  0  0  0  4  0  0  0  0  0  0
   -1.0812    1.1003    0.6755 O   0  0  0  0  0  0  0  0  0  0  0  0
   -0.4623   -1.0781   -0.8610 O   0  0  0  0  0  0  0  0  0  0  0  0
    1.4374    0.8083   -0.3265 O   0  0  0  0  0  0  0  0  0  0  0  0
    0.6134   -0.9405    1.8559 C   0  0  0  0  0  0  0  0  0  0  0  0
   -1.6163    1.9220   -0.3526 C   0  0  0  0  0  0  0  0  0  0  0  0
   -1.5996   -1.8787   -0.5736 C   0  0  0  0  0  0  0  0  0  0  0  0
    2.5930    0.0807   -0.7168 C   0  0  0  0  0  0  0  0  0  0  0  0
  1  2  1  0
  1  3  1  0
  1  4  1  0
  1  5  1  0
  2  6  1  0
  3  7  1  0
  4  8  1  0
M  END
>  <PUBCHEM_COMPOUND_CID>  (1) 
14456

>  <PUBCHEM_CONFORMER_RMSD>  (1) 
0.6

>  <PUBCHEM_CONFORMER_DIVERSEORDER>  (1) 
2
1
3

>  <PUBCHEM_MMFF94_PARTIAL_CHARGES>  (1) 
8
1 0.97
2 -0.58
3 -0.58
4 -0.58
5 -0.08
6 0.28
7 0.28
8 0.28

>  <PUBCHEM_EFFECTIVE_ROTOR_COUNT>  (1) 
3

>  <PUBCHEM_PHARMACOPHORE_FEATURES>  (1) 
0

>  <PUBCHEM_HEAVY_ATOM_COUNT>  (1) 
8

>  <PUBCHEM_ATOM_DEF_STEREO_COUNT>  (1) 
0

>  <PUBCHEM_ATOM_UDEF_STEREO_COUNT>  (1) 
0

>  <PUBCHEM_BOND_DEF_STEREO_COUNT>  (1) 
0

>  <PUBCHEM_BOND_UDEF_STEREO_COUNT>  (1) 
0

>  <PUBCHEM_ISOTOPIC_ATOM_COUNT>  (1) 
0

>  <PUBCHEM_COMPONENT_COUNT>  (1) 
1

>  <PUBCHEM_CACTVS_TAUTO_COUNT>  (1) 
1

>  <PUBCHEM_CONFORMER_ID>  (1) 
0000387800000002

>  <PUBCHEM_MMFF94_ENERGY>  (1) 
11.5089

>  <PUBCHEM_FEATURE_SELFOVERLAP>  (1) 
0

>  <PUBCHEM_SHAPE_FINGERPRINT>  (1) 
10702982 57 18188490155649592586
12423570 1 18125190257494280153
137420 1 16098859270592499944
21040471 1 18127116485949616369
29004967 10 17623011608984002706
5084963 1 18044121010463294384
5943 1 7980613573232859394
68250623 7 18116447941773773651

>  <PUBCHEM_SHAPE_MULTIPOLES>  (1) 
165.24
2.5
1.94
1.34
1.13
0.02
0.53
0.52
-0.84
-1.38
-0.2
0.28
-0.5
-0.55

>  <PUBCHEM_SHAPE_SELFOVERLAP>  (1) 
283.351

>  <PUBCHEM_SHAPE_VOLUME>  (1) 
111.8

>  <PUBCHEM_COORDINATE_TYPE>  (1) 
2
5
10

$$$$
