1446
     RDKit          3D

 19 18  0  0  1  0  0  0  0  0999 V2000
    1.7049    3.3107    1.0828 O   0  0  0  0  0  0  0  0  0  0  0  0
   -5.3902    0.2069    1.2209 O   0  0  0  0  0  0  0  0  0  0  0  0
    3.6050   -1.5825    0.4806 C   0  0  0  0  0  0  0  0  0  0  0  0
    4.8011   -0.6816    0.1465 C   0  0  0  0  0  0  0  0  0  0  0  0
    3.0114   -2.2824   -0.7466 C   0  0  0  0  0  0  0  0  0  0  0  0
    4.4906    0.5133   -0.7614 C   0  0  0  0  0  0  0  0  0  0  0  0
    1.8722   -3.2444   -0.3919 C   0  0  0  0  0  0  0  0  0  0  0  0
    3.5104    1.4730   -0.1503 C   0  0  0  0  0  0  0  0  0  0  0  0
    0.6889   -2.5529    0.2196 C   0  0  0  0  0  0  0  0  0  0  0  0
    2.3626    1.8394   -0.7424 C   0  0  0  0  0  0  0  0  0  0  0  0
    1.3328    2.7864   -0.1867 C   0  0  0  0  0  0  0  0  0  0  0  0
    0.1746   -2.8682    1.4135 C   0  0  0  0  0  0  0  0  0  0  0  0
    0.0488    2.0859   -0.0559 C   0  0  0  0  0  0  0  0  0  0  0  0
   -0.9983    1.5076    0.0495 C   0  0  0  0  0  0  0  0  0  0  0  0
   -4.4835   -0.5092    0.3884 C   0  0  0  0  0  0  0  0  0  0  0  0
   -2.1882    0.8355    0.1669 C   0  0  0  0  0  0  0  0  0  0  0  0
   -3.2246    0.2374    0.2683 C   0  0  0  0  0  0  0  0  0  0  0  0
   -5.0639   -0.7478   -0.9783 C   0  0  0  0  0  0  0  0  0  0  0  0
   -6.2547   -0.3272   -1.4233 C   0  0  0  0  0  0  0  0  0  0  0  0
  1 11  1  0
  2 15  1  0
  3  4  1  0
  3  5  1  0
  4  6  1  0
  5  7  1  0
  6  8  1  0
  7  9  1  0
  8 10  2  0
  9 12  2  0
 10 11  1  0
 11 13  1  0
 13 14  3  0
 14 16  1  0
 15 17  1  0
 15 18  1  0
 16 17  3  0
 18 19  2  0
M  END
>  <PUBCHEM_COMPOUND_CID>  (1) 
1446

>  <PUBCHEM_CONFORMER_RMSD>  (1) 
0.8

>  <PUBCHEM_CONFORMER_DIVERSEORDER>  (1) 
7
110
210
437
63
19
447
333
379
85
292
204
294
229
97
40
234
23
182
9
142
303
133
245
409
13
486
318
50
361
482
446
382
138
216
211
305
217
421
355
350
323
131
417
313
237
281
15
423
258
402
315
470
487
254
111
434
132
490
205
43
69
90
251
140
454
381
27
180
207
485
367
312
17
364
107
365
342
87
380
38
300
167
240
171
346
65
314
64
95
68
330
232
75
413
334
481
189
255
173
203
319
214
376
276
442
34
414
349
236
146
464
359
194
302
248
299
83
106
416
238
156
308
259
162
253
311
169
119
450
360
474
141
30
463
243
430
70
465
400
280
230
250
206
212
187
394
77
159
366
168
190
345
8
398
128
275
484
66
2
215
114
462
53
153
385
12
199
317
347
157
392
369
358
452
289
54
144
286
80
86
458
336
101
76
134
316
335
89
341
466
129
186
29
478
24
322
307
118
460
473
59
45
102
448
93
338
112
71
408
479
444
433
202
260
139
200
178
11
362
261
161
425
418
471
387
130
39
121
88
18
388
406
309
469
170
468
267
320
404
36
175
291
285
149
222
151
120
221
304
55
174
476
148
239
453
445
410
354
301
351
422
181
451
283
368
389
1
353
298
262
31
279
116
188
407
166
197
32
329
6
461
440
105
395
51
383
184
218
25
424
249
325
343
163
73
491
252
152
164
123
405
58
192
100
257
263
125
103
456
265
136
374
235
483
56
21
273
94
290
328
16
412
435
185
391
348
28
35
3
209
378
441
224
371
340
109
324
356
264
384
439
457
386
117
195
115
124
282
231
241
5
415
331
57
78
42
225
429
37
79
104
274
306
135
244
475
177
67
277
271
98
41
165
363
399
191
472
375
155
223
47
321
96
247
297
357
176
489
52
449
288
272
137
295
326
227
332
183
33
92
293
82
403
113
193
268
147
428
488
84
438
396
278
269
228
436
160
72
62
172
198
122
411
219
270
14
397
431
49
477
99
81
432
420
60
74
393
208
427
344
154
339
179
226
419
287
48
246
337
373
108
352
213
284
296
10
4
455
201
266
256
443
480
327
220
143
150
20
46
126
310
127
426
196
372
459
370
233
158
145
377
44
390
401
242
22
467
91
61
26

>  <PUBCHEM_MMFF94_PARTIAL_CHARGES>  (1) 
24
1 -0.68
10 -0.29
11 0.62
12 -0.3
13 -0.2
15 0.62
17 -0.2
18 -0.29
19 -0.3
2 -0.68
30 0.15
31 0.15
32 0.15
34 0.15
35 0.15
36 0.4
38 0.15
39 0.4
40 0.15
41 0.15
6 0.14
7 0.14
8 -0.29
9 -0.29

>  <PUBCHEM_EFFECTIVE_ROTOR_COUNT>  (1) 
8

>  <PUBCHEM_PHARMACOPHORE_FEATURES>  (1) 
6
1 1 acceptor
1 1 donor
1 12 hydrophobe
1 19 hydrophobe
1 2 acceptor
1 2 donor

>  <PUBCHEM_HEAVY_ATOM_COUNT>  (1) 
19

>  <PUBCHEM_ATOM_DEF_STEREO_COUNT>  (1) 
0

>  <PUBCHEM_ATOM_UDEF_STEREO_COUNT>  (1) 
2

>  <PUBCHEM_BOND_DEF_STEREO_COUNT>  (1) 
0

>  <PUBCHEM_BOND_UDEF_STEREO_COUNT>  (1) 
1

>  <PUBCHEM_ISOTOPIC_ATOM_COUNT>  (1) 
0

>  <PUBCHEM_COMPONENT_COUNT>  (1) 
1

>  <PUBCHEM_CACTVS_TAUTO_COUNT>  (1) 
1

>  <PUBCHEM_CONFORMER_ID>  (1) 
000005A600000007

>  <PUBCHEM_MMFF94_ENERGY>  (1) 
5.4063

>  <PUBCHEM_FEATURE_SELFOVERLAP>  (1) 
30.447

>  <PUBCHEM_SHAPE_FINGERPRINT>  (1) 
12596599 1 17556313765012189274
12596602 18 16917067771667719584
12838862 33 18337376241323266348
12838863 1 18335968797499106298
13402501 40 18261397771023414298
14251705 54 18193842540062994204
14251740 57 17704078348007659862
14787075 74 18335706022382221086
14931854 50 18335712615610480846
15110567 62 18409170999724669410
152267 14 17400634922552578834
17492 54 18187376441124008004
17857418 61 18343018900331234925
20028762 73 18201998833129642510
20645477 70 18260548973832691441
21197605 99 18122916579344822067
21315763 178 18202004330629401137
22224240 67 18057593464695552384
23559900 14 18263925612786208353
23596394 208 18114169814348244437
3680242 22 18188776032946962618
463206 1 18339924917343866983
5283384 97 18341603824476153919
59682541 52 18265590179676049149
6443956 14 18336831892097938860

>  <PUBCHEM_SHAPE_MULTIPOLES>  (1) 
379.27
12.16
4.03
1.11
16.96
0.55
0.03
2.2
-2.9
-4.38
0.6
0.82
0.24
-0.24

>  <PUBCHEM_SHAPE_SELFOVERLAP>  (1) 
723.075

>  <PUBCHEM_SHAPE_VOLUME>  (1) 
228.3

>  <PUBCHEM_COORDINATE_TYPE>  (1) 
2
5
10

$$$$
