1447
     RDKit          3D

 18 17  0  0  1  0  0  0  0  0999 V2000
   -4.7100   -0.6629    1.0436 O   0  0  0  0  0  0  0  0  0  0  0  0
    3.2355   -1.1785   -1.3055 C   0  0  0  0  0  0  0  0  0  0  0  0
    4.5838   -0.4660   -1.1445 C   0  0  0  0  0  0  0  0  0  0  0  0
    2.7920   -1.9327   -0.0496 C   0  0  0  0  0  0  0  0  0  0  0  0
    4.6357    0.6032   -0.0477 C   0  0  0  0  0  0  0  0  0  0  0  0
    1.4461   -2.6280   -0.2697 C   0  0  0  0  0  0  0  0  0  0  0  0
    3.6164    1.6886   -0.2380 C   0  0  0  0  0  0  0  0  0  0  0  0
    1.0232   -3.3937    0.9490 C   0  0  0  0  0  0  0  0  0  0  0  0
    2.6045    1.9192    0.6121 C   0  0  0  0  0  0  0  0  0  0  0  0
    1.5944    3.0107    0.4279 C   0  0  0  0  0  0  0  0  0  0  0  0
   -0.0853   -3.1303    1.6498 C   0  0  0  0  0  0  0  0  0  0  0  0
    0.2429    2.4416    0.3703 C   0  0  0  0  0  0  0  0  0  0  0  0
   -0.8654    1.9818    0.3214 C   0  0  0  0  0  0  0  0  0  0  0  0
   -4.5983    0.4421    0.1524 C   0  0  0  0  0  0  0  0  0  0  0  0
   -2.1314    1.4564    0.2652 C   0  0  0  0  0  0  0  0  0  0  0  0
   -4.9166    0.0407   -1.2618 C   0  0  0  0  0  0  0  0  0  0  0  0
   -3.2397    0.9966    0.2157 C   0  0  0  0  0  0  0  0  0  0  0  0
   -5.2276   -1.1889   -1.6907 C   0  0  0  0  0  0  0  0  0  0  0  0
  1 14  1  0
  2  3  1  0
  2  4  1  0
  3  5  1  0
  4  6  1  0
  5  7  1  0
  6  8  1  0
  7  9  2  0
  8 11  2  0
  9 10  1  0
 10 12  1  0
 12 13  3  0
 13 15  1  0
 14 16  1  0
 14 17  1  0
 15 17  3  0
 16 18  2  0
M  END
>  <PUBCHEM_COMPOUND_CID>  (1) 
1447

>  <PUBCHEM_CONFORMER_RMSD>  (1) 
0.8

>  <PUBCHEM_CONFORMER_DIVERSEORDER>  (1) 
10
109
211
292
75
158
209
217
14
210
232
192
171
54
255
47
291
41
252
257
283
238
50
106
256
275
117
187
204
281
143
208
265
269
285
49
113
214
99
226
271
28
289
20
39
206
268
181
169
272
273
118
77
15
91
167
147
242
195
56
228
7
247
212
259
34
64
88
8
129
290
258
90
288
55
53
172
150
295
122
250
266
87
104
170
148
155
80
5
189
276
112
110
19
136
89
231
215
119
241
93
153
30
223
216
194
105
179
4
175
165
145
157
37
23
199
229
262
221
166
140
253
6
284
36
128
22
235
126
251
274
236
134
197
224
29
146
72
213
141
60
205
178
11
233
138
124
201
70
176
267
114
131
261
84
21
98
191
137
263
173
76
246
59
24
184
65
185
18
115
203
240
279
94
227
9
79
222
293
254
160
144
44
66
161
180
61
35
51
63
207
168
151
220
193
139
38
244
25
27
182
270
107
78
42
287
12
260
3
230
2
121
237
183
249
82
177
239
95
40
74
248
190
57
46
116
127
234
13
48
102
164
108
62
219
31
264
17
243
85
286
96
162
123
282
69
83
1
149
100
154
163
133
196
294
188
174
58
33
278
198
45
152
68
52
97
200
245
135
280
73
156
277
202
218
67
86
103
186
130
71
132
26
142
111
125
43
81
32
159
101
16
225
120
92

>  <PUBCHEM_MMFF94_PARTIAL_CHARGES>  (1) 
22
1 -0.68
10 0.34
11 -0.3
12 -0.2
14 0.62
16 -0.29
17 -0.2
18 -0.3
29 0.15
30 0.15
31 0.15
34 0.15
35 0.15
37 0.15
38 0.4
39 0.15
40 0.15
5 0.14
6 0.14
7 -0.29
8 -0.29
9 -0.29

>  <PUBCHEM_EFFECTIVE_ROTOR_COUNT>  (1) 
8

>  <PUBCHEM_PHARMACOPHORE_FEATURES>  (1) 
4
1 1 acceptor
1 1 donor
1 11 hydrophobe
1 18 hydrophobe

>  <PUBCHEM_HEAVY_ATOM_COUNT>  (1) 
18

>  <PUBCHEM_ATOM_DEF_STEREO_COUNT>  (1) 
0

>  <PUBCHEM_ATOM_UDEF_STEREO_COUNT>  (1) 
1

>  <PUBCHEM_BOND_DEF_STEREO_COUNT>  (1) 
0

>  <PUBCHEM_BOND_UDEF_STEREO_COUNT>  (1) 
1

>  <PUBCHEM_ISOTOPIC_ATOM_COUNT>  (1) 
0

>  <PUBCHEM_COMPONENT_COUNT>  (1) 
1

>  <PUBCHEM_CACTVS_TAUTO_COUNT>  (1) 
1

>  <PUBCHEM_CONFORMER_ID>  (1) 
000005A70000000A

>  <PUBCHEM_MMFF94_ENERGY>  (1) 
2.8507

>  <PUBCHEM_FEATURE_SELFOVERLAP>  (1) 
20.297

>  <PUBCHEM_SHAPE_FINGERPRINT>  (1) 
10316853 100 18190193445496186067
108634 29 18339379504216987342
114674 6 18412259558326624280
12596599 1 17414452592937195744
12596602 18 16486975128288066528
13402501 40 18336557104553639210
14787075 74 18412268324338693876
14931854 50 18338243669681180182
15110567 62 18409454656734501763
152267 14 17473819528904194634
20645477 70 18335422434202934345
21197605 99 17984139533043001366
235170 7 17530963570903634125
23596394 208 18261099734874460469
2871803 45 18411421670305009580
4283 87 18271799121067979285
463206 1 18341896337466060741
5283384 97 18272640269128150597
556388 4 18340767027249755068

>  <PUBCHEM_SHAPE_MULTIPOLES>  (1) 
364.56
11.37
4.25
1.34
11.14
1.88
-0.18
0.5
-4.82
-2.79
1.76
0.68
0.94
-0.11

>  <PUBCHEM_SHAPE_SELFOVERLAP>  (1) 
690.083

>  <PUBCHEM_SHAPE_VOLUME>  (1) 
220.4

>  <PUBCHEM_COORDINATE_TYPE>  (1) 
2
5
10

$$$$
