14499
     RDKit          3D

  7  7  0  0  1  0  0  0  0  0999 V2000
    0.6656   -1.0555   -0.7248 O   0  0  0  0  0  0  0  0  0  0  0  0
    0.8755    0.1436    0.0319 C   0  0  0  0  0  0  0  0  0  0  0  0
   -0.2913   -0.7374    0.2732 C   0  0  0  0  0  0  0  0  0  0  0  0
   -1.6465   -0.3860   -0.3172 C   0  0  0  0  0  0  0  0  0  0  0  0
    0.7708    1.3778   -0.7831 C   0  0  0  0  0  0  0  0  0  0  0  0
    2.0254    0.0548    0.9634 C   0  0  0  0  0  0  0  0  0  0  0  0
   -2.3995    0.6028    0.5567 C   0  0  0  0  0  0  0  0  0  0  0  0
  1  2  1  0
  1  3  1  0
  2  3  1  0
  2  5  1  0
  2  6  1  0
  3  4  1  0
  4  7  1  0
M  END
>  <PUBCHEM_COMPOUND_CID>  (1) 
14499

>  <PUBCHEM_CONFORMER_RMSD>  (1) 
0.4

>  <PUBCHEM_CONFORMER_DIVERSEORDER>  (1) 
3
2
4
1

>  <PUBCHEM_MMFF94_PARTIAL_CHARGES>  (1) 
7
1 -0.3
2 -0.04
3 -0.05
4 0.09
5 0.09
6 0.09
8 0.1

>  <PUBCHEM_EFFECTIVE_ROTOR_COUNT>  (1) 
1.6

>  <PUBCHEM_PHARMACOPHORE_FEATURES>  (1) 
3
1 1 acceptor
1 7 hydrophobe
3 2 5 6 hydrophobe

>  <PUBCHEM_HEAVY_ATOM_COUNT>  (1) 
7

>  <PUBCHEM_ATOM_DEF_STEREO_COUNT>  (1) 
0

>  <PUBCHEM_ATOM_UDEF_STEREO_COUNT>  (1) 
1

>  <PUBCHEM_BOND_DEF_STEREO_COUNT>  (1) 
0

>  <PUBCHEM_BOND_UDEF_STEREO_COUNT>  (1) 
0

>  <PUBCHEM_ISOTOPIC_ATOM_COUNT>  (1) 
0

>  <PUBCHEM_COMPONENT_COUNT>  (1) 
1

>  <PUBCHEM_CACTVS_TAUTO_COUNT>  (1) 
1

>  <PUBCHEM_CONFORMER_ID>  (1) 
000038A300000003

>  <PUBCHEM_MMFF94_ENERGY>  (1) 
8.9587

>  <PUBCHEM_FEATURE_SELFOVERLAP>  (1) 
15.223

>  <PUBCHEM_SHAPE_FINGERPRINT>  (1) 
14390081 3 17203604882996544089
20096714 4 18190750914733389317
21040471 1 18201726183972542671
24536 1 18410863191380621903
29004967 10 14201392768431336960
5084963 1 18263067967840516619
5943 1 13287618156785670390

>  <PUBCHEM_SHAPE_MULTIPOLES>  (1) 
138.19
2.74
1.17
0.95
1.08
0.31
-0.05
0.28
-0.85
-0.17
0.23
-0.16
0
-0.23

>  <PUBCHEM_SHAPE_SELFOVERLAP>  (1) 
259.878

>  <PUBCHEM_SHAPE_VOLUME>  (1) 
88.9

>  <PUBCHEM_COORDINATE_TYPE>  (1) 
2
5
10

$$$$
