14496
     RDKit          3D

  5  5  0  0  0  0  0  0  0  0999 V2000
    1.8169    0.0000    0.0881 O   0  0  0  0  0  0  0  0  0  0  0  0
   -1.5064   -0.0001    0.1674 C   0  0  0  0  0  0  0  0  0  0  0  0
   -0.4603    1.1053   -0.1158 C   0  0  0  0  0  0  0  0  0  0  0  0
   -0.4603   -1.1052   -0.1158 C   0  0  0  0  0  0  0  0  0  0  0  0
    0.6101    0.0000   -0.0238 C   0  0  0  0  0  0  0  0  0  0  0  0
  1  5  2  0
  2  3  1  0
  2  4  1  0
  3  5  1  0
  4  5  1  0
M  END
>  <PUBCHEM_COMPOUND_CID>  (1) 
14496

>  <PUBCHEM_CONFORMER_RMSD>  (1) 
0.4

>  <PUBCHEM_CONFORMER_DIVERSEORDER>  (1) 
1

>  <PUBCHEM_MMFF94_PARTIAL_CHARGES>  (1) 
4
1 -0.57
3 0.05
4 0.05
5 0.46

>  <PUBCHEM_EFFECTIVE_ROTOR_COUNT>  (1) 
0.6

>  <PUBCHEM_PHARMACOPHORE_FEATURES>  (1) 
2
1 1 acceptor
4 2 3 4 5 rings

>  <PUBCHEM_HEAVY_ATOM_COUNT>  (1) 
5

>  <PUBCHEM_ATOM_DEF_STEREO_COUNT>  (1) 
0

>  <PUBCHEM_ATOM_UDEF_STEREO_COUNT>  (1) 
0

>  <PUBCHEM_BOND_DEF_STEREO_COUNT>  (1) 
0

>  <PUBCHEM_BOND_UDEF_STEREO_COUNT>  (1) 
0

>  <PUBCHEM_ISOTOPIC_ATOM_COUNT>  (1) 
0

>  <PUBCHEM_COMPONENT_COUNT>  (1) 
1

>  <PUBCHEM_CACTVS_TAUTO_COUNT>  (1) 
2

>  <PUBCHEM_CONFORMER_ID>  (1) 
000038A000000001

>  <PUBCHEM_MMFF94_ENERGY>  (1) 
6.0828

>  <PUBCHEM_FEATURE_SELFOVERLAP>  (1) 
10.148

>  <PUBCHEM_SHAPE_FINGERPRINT>  (1) 
139733 1 9655315729619399027
16714656 1 18410867554940683836
20096714 4 18267585714958401784
21015797 1 9222068565983564693
21040471 1 18266742372418083125
29004967 10 15719395048562125400
5943 1 16552553502224690103

>  <PUBCHEM_SHAPE_MULTIPOLES>  (1) 
97.03
1.74
1.12
0.61
0.46
0
-0.01
0
0.12
-0.22
-0.06
-0.04
0
0

>  <PUBCHEM_SHAPE_SELFOVERLAP>  (1) 
184.82

>  <PUBCHEM_SHAPE_VOLUME>  (1) 
58.8

>  <PUBCHEM_COORDINATE_TYPE>  (1) 
2
5
10

$$$$
