14498
     RDKit          3D

  7  7  0  0  1  0  0  0  0  0999 V2000
    0.7315   -0.4665   -0.4585 C   0  0  0  0  0  0  0  0  0  0  0  0
   -0.0168    0.8760   -0.4770 C   0  0  0  0  0  0  0  0  0  0  0  0
   -0.1146   -1.3527    0.4595 C   0  0  0  0  0  0  0  0  0  0  0  0
   -1.4752    0.4158   -0.5471 C   0  0  0  0  0  0  0  0  0  0  0  0
   -1.5479   -0.8358    0.3256 C   0  0  0  0  0  0  0  0  0  0  0  0
    2.1926   -0.4044   -0.0426 C   0  0  0  0  0  0  0  0  0  0  0  0
    0.2304    1.7675    0.7400 C   0  0  0  0  0  0  0  0  0  0  0  0
  1  2  1  0
  1  3  1  0
  1  6  1  0
  2  4  1  0
  2  7  1  0
  3  5  1  0
  4  5  1  0
M  END
>  <PUBCHEM_COMPOUND_CID>  (1) 
14498

>  <PUBCHEM_CONFORMER_RMSD>  (1) 
0.4

>  <PUBCHEM_CONFORMER_DIVERSEORDER>  (1) 
1
2

>  <PUBCHEM_MMFF94_PARTIAL_CHARGES>  (1) 
0

>  <PUBCHEM_EFFECTIVE_ROTOR_COUNT>  (1) 
1

>  <PUBCHEM_PHARMACOPHORE_FEATURES>  (1) 
1
5 1 2 3 4 5 rings

>  <PUBCHEM_HEAVY_ATOM_COUNT>  (1) 
7

>  <PUBCHEM_ATOM_DEF_STEREO_COUNT>  (1) 
2

>  <PUBCHEM_ATOM_UDEF_STEREO_COUNT>  (1) 
0

>  <PUBCHEM_BOND_DEF_STEREO_COUNT>  (1) 
0

>  <PUBCHEM_BOND_UDEF_STEREO_COUNT>  (1) 
0

>  <PUBCHEM_ISOTOPIC_ATOM_COUNT>  (1) 
0

>  <PUBCHEM_COMPONENT_COUNT>  (1) 
1

>  <PUBCHEM_CACTVS_TAUTO_COUNT>  (1) 
1

>  <PUBCHEM_CONFORMER_ID>  (1) 
000038A200000001

>  <PUBCHEM_MMFF94_ENERGY>  (1) 
11.6531

>  <PUBCHEM_FEATURE_SELFOVERLAP>  (1) 
5.074

>  <PUBCHEM_SHAPE_FINGERPRINT>  (1) 
12423570 1 10202057782135704141
137420 1 12367897154170501727
20096714 4 16972240964580961748
21040471 1 17973444295533994213
23552423 10 17896327926202225694
29004967 10 18131918156344291550
5943 1 15889926742282461197

>  <PUBCHEM_SHAPE_MULTIPOLES>  (1) 
144.06
2.04
1.61
0.85
0.57
0.43
0.02
-0.46
-0.12
-0.05
0.4
-0.05
0.12
0.19

>  <PUBCHEM_SHAPE_SELFOVERLAP>  (1) 
275.752

>  <PUBCHEM_SHAPE_VOLUME>  (1) 
87.7

>  <PUBCHEM_COORDINATE_TYPE>  (1) 
2
5
10

$$$$
