14502
     RDKit          3D

  7  7  0  0  0  0  0  0  0  0999 V2000
    1.8549    0.0004   -0.0386 C   0  0  0  0  0  0  0  0  0  0  0  0
    1.0579    1.2648    0.2860 C   0  0  0  0  0  0  0  0  0  0  0  0
    1.0586   -1.2646    0.2858 C   0  0  0  0  0  0  0  0  0  0  0  0
   -0.3058    1.2710   -0.4061 C   0  0  0  0  0  0  0  0  0  0  0  0
   -0.3054   -1.2713   -0.4059 C   0  0  0  0  0  0  0  0  0  0  0  0
   -1.0590   -0.0001   -0.1128 C   0  0  0  0  0  0  0  0  0  0  0  0
   -2.3012   -0.0002    0.3916 C   0  0  0  0  0  0  0  0  0  0  0  0
  1  2  1  0
  1  3  1  0
  2  4  1  0
  3  5  1  0
  4  6  1  0
  5  6  1  0
  6  7  2  0
M  END
>  <PUBCHEM_COMPOUND_CID>  (1) 
14502

>  <PUBCHEM_CONFORMER_RMSD>  (1) 
0.4

>  <PUBCHEM_CONFORMER_DIVERSEORDER>  (1) 
1
2
3

>  <PUBCHEM_MMFF94_PARTIAL_CHARGES>  (1) 
6
18 0.15
19 0.15
4 0.14
5 0.14
6 -0.28
7 -0.3

>  <PUBCHEM_EFFECTIVE_ROTOR_COUNT>  (1) 
1

>  <PUBCHEM_PHARMACOPHORE_FEATURES>  (1) 
1
6 1 2 3 4 5 6 rings

>  <PUBCHEM_HEAVY_ATOM_COUNT>  (1) 
7

>  <PUBCHEM_ATOM_DEF_STEREO_COUNT>  (1) 
0

>  <PUBCHEM_ATOM_UDEF_STEREO_COUNT>  (1) 
0

>  <PUBCHEM_BOND_DEF_STEREO_COUNT>  (1) 
0

>  <PUBCHEM_BOND_UDEF_STEREO_COUNT>  (1) 
0

>  <PUBCHEM_ISOTOPIC_ATOM_COUNT>  (1) 
0

>  <PUBCHEM_COMPONENT_COUNT>  (1) 
1

>  <PUBCHEM_CACTVS_TAUTO_COUNT>  (1) 
1

>  <PUBCHEM_CONFORMER_ID>  (1) 
000038A600000001

>  <PUBCHEM_MMFF94_ENERGY>  (1) 
0.7721

>  <PUBCHEM_FEATURE_SELFOVERLAP>  (1) 
5.074

>  <PUBCHEM_SHAPE_FINGERPRINT>  (1) 
16714656 1 18410863161321008830
18185500 45 18340197608827555654
20096714 4 18341613775535498594
21040471 1 18195247942997512796
23552423 10 17827650149219228558
29004967 10 18113905956863236081

>  <PUBCHEM_SHAPE_MULTIPOLES>  (1) 
144.06
2.37
1.54
0.71
0.67
0
0
0
0.34
-0.34
-0.06
0.04
0
0

>  <PUBCHEM_SHAPE_SELFOVERLAP>  (1) 
276.746

>  <PUBCHEM_SHAPE_VOLUME>  (1) 
86.8

>  <PUBCHEM_COORDINATE_TYPE>  (1) 
2
5
10

$$$$
