14504
     RDKit          3D

  8  8  0  0  0  0  0  0  0  0999 V2000
    2.7385    0.2750   -0.0006 O   0  0  0  0  0  0  0  0  0  0  0  0
   -0.7512   -0.6965   -0.0003 N   0  0  0  0  0  0  0  0  0  0  0  0
    0.3808    0.0758    0.0006 C   0  0  0  0  0  0  0  0  0  0  0  0
   -1.8583    0.1113   -0.0002 C   0  0  0  0  0  0  0  0  0  0  0  0
   -0.0097    1.3968    0.0005 C   0  0  0  0  0  0  0  0  0  0  0  0
   -0.7901   -2.1425    0.0001 C   0  0  0  0  0  0  0  0  0  0  0  0
   -1.4263    1.4191   -0.0003 C   0  0  0  0  0  0  0  0  0  0  0  0
    1.7162   -0.4390    0.0003 C   0  0  0  0  0  0  0  0  0  0  0  0
  1  8  2  0
  2  3  1  0
  2  4  1  0
  2  6  1  0
  3  5  2  0
  3  8  1  0
  4  7  2  0
  5  7  1  0
M  END
>  <PUBCHEM_COMPOUND_CID>  (1) 
14504

>  <PUBCHEM_CONFORMER_RMSD>  (1) 
0.4

>  <PUBCHEM_CONFORMER_DIVERSEORDER>  (1) 
1
2

>  <PUBCHEM_MMFF94_PARTIAL_CHARGES>  (1) 
12
1 -0.57
10 0.15
14 0.15
15 0.06
2 0.05
3 -0.24
4 -0.3
5 -0.15
6 0.26
7 -0.15
8 0.59
9 0.15

>  <PUBCHEM_EFFECTIVE_ROTOR_COUNT>  (1) 
1

>  <PUBCHEM_PHARMACOPHORE_FEATURES>  (1) 
3
1 1 acceptor
1 2 cation
5 2 3 4 5 7 rings

>  <PUBCHEM_HEAVY_ATOM_COUNT>  (1) 
8

>  <PUBCHEM_ATOM_DEF_STEREO_COUNT>  (1) 
0

>  <PUBCHEM_ATOM_UDEF_STEREO_COUNT>  (1) 
0

>  <PUBCHEM_BOND_DEF_STEREO_COUNT>  (1) 
0

>  <PUBCHEM_BOND_UDEF_STEREO_COUNT>  (1) 
0

>  <PUBCHEM_ISOTOPIC_ATOM_COUNT>  (1) 
0

>  <PUBCHEM_COMPONENT_COUNT>  (1) 
1

>  <PUBCHEM_CACTVS_TAUTO_COUNT>  (1) 
1

>  <PUBCHEM_CONFORMER_ID>  (1) 
000038A800000001

>  <PUBCHEM_MMFF94_ENERGY>  (1) 
6.2725

>  <PUBCHEM_FEATURE_SELFOVERLAP>  (1) 
15.223

>  <PUBCHEM_SHAPE_FINGERPRINT>  (1) 
16714656 1 18409732845876633852
18185500 45 18261955262068023478
20871998 184 18200599218966889734
21040471 1 18338798896987957888
23552423 10 18260553307665468790
29004967 10 15285364981208083120
369184 2 18409724041462741480

>  <PUBCHEM_SHAPE_MULTIPOLES>  (1) 
153.79
2.6
1.82
0.59
1.64
0.77
0
-0.4
0
-0.7
0
-0.03
0
0

>  <PUBCHEM_SHAPE_SELFOVERLAP>  (1) 
316.423

>  <PUBCHEM_SHAPE_VOLUME>  (1) 
90.5

>  <PUBCHEM_COORDINATE_TYPE>  (1) 
2
5
10

$$$$
