14530
     RDKit          3D

 11 11  0  0  0  0  0  0  0  0999 V2000
   -2.2341    1.8592    0.0008 O   0  0  0  0  0  0  0  0  0  0  0  0
   -3.2097   -0.7430    0.0002 O   0  0  0  0  0  0  0  0  0  0  0  0
    2.7861    1.3455   -0.0005 O   0  0  0  0  0  0  0  0  0  0  0  0
    0.8838   -0.0490   -0.0009 C   0  0  0  0  0  0  0  0  0  0  0  0
   -0.0023    1.0283   -0.0005 C   0  0  0  0  0  0  0  0  0  0  0  0
    0.3939   -1.3551   -0.0008 C   0  0  0  0  0  0  0  0  0  0  0  0
   -1.3784    0.7994    0.0001 C   0  0  0  0  0  0  0  0  0  0  0  0
   -1.8681   -0.5067    0.0002 C   0  0  0  0  0  0  0  0  0  0  0  0
   -0.9820   -1.5840   -0.0002 C   0  0  0  0  0  0  0  0  0  0  0  0
    2.3185    0.1893    0.0001 C   0  0  0  0  0  0  0  0  0  0  0  0
    3.2925   -0.9839    0.0015 C   0  0  0  0  0  0  0  0  0  0  0  0
  1  7  1  0
  2  8  1  0
  3 10  2  0
  4  5  2  0
  4  6  1  0
  4 10  1  0
  5  7  1  0
  6  9  2  0
  7  8  2  0
  8  9  1  0
 10 11  1  0
M  END
>  <PUBCHEM_COMPOUND_CID>  (1) 
14530

>  <PUBCHEM_CONFORMER_RMSD>  (1) 
0.4

>  <PUBCHEM_CONFORMER_DIVERSEORDER>  (1) 
1
3
2
4

>  <PUBCHEM_MMFF94_PARTIAL_CHARGES>  (1) 
16
1 -0.53
10 0.42
11 0.06
12 0.15
13 0.15
14 0.15
18 0.45
19 0.45
2 -0.53
3 -0.57
4 0.09
5 -0.15
6 -0.15
7 0.08
8 0.08
9 -0.15

>  <PUBCHEM_EFFECTIVE_ROTOR_COUNT>  (1) 
1

>  <PUBCHEM_PHARMACOPHORE_FEATURES>  (1) 
4
1 1 donor
1 2 donor
1 3 acceptor
6 4 5 6 7 8 9 rings

>  <PUBCHEM_HEAVY_ATOM_COUNT>  (1) 
11

>  <PUBCHEM_ATOM_DEF_STEREO_COUNT>  (1) 
0

>  <PUBCHEM_ATOM_UDEF_STEREO_COUNT>  (1) 
0

>  <PUBCHEM_BOND_DEF_STEREO_COUNT>  (1) 
0

>  <PUBCHEM_BOND_UDEF_STEREO_COUNT>  (1) 
0

>  <PUBCHEM_ISOTOPIC_ATOM_COUNT>  (1) 
0

>  <PUBCHEM_COMPONENT_COUNT>  (1) 
1

>  <PUBCHEM_CACTVS_TAUTO_COUNT>  (1) 
22

>  <PUBCHEM_CONFORMER_ID>  (1) 
000038C200000001

>  <PUBCHEM_MMFF94_ENERGY>  (1) 
27.446

>  <PUBCHEM_FEATURE_SELFOVERLAP>  (1) 
20.301

>  <PUBCHEM_SHAPE_FINGERPRINT>  (1) 
12032990 46 18336834198817058731
12897270 3 18410009939991970935
12932764 1 17560796675718550956
13380535 76 18194960747488263351
14325111 11 18410856546960797888
15775835 57 18188496752930297268
16945 1 18338516464180792710
193761 8 17834113048460008431
19973954 147 18410857680969353076
20653085 51 18337684026641547120
20871998 184 18129105695900554391
21040471 1 18338798918404733124
23402539 116 18342443864070707127
23402655 69 18196071285030701621
23463225 33 18335700490659405586
23552423 10 18260830423255583742
23559900 14 18199190595313418238
2748010 2 18410856516690149285
369184 2 18343020016637356522
5084963 1 18272652341938230378

>  <PUBCHEM_SHAPE_MULTIPOLES>  (1) 
208.77
4.53
1.71
0.59
1.43
0.15
0
0
0
-0.37
0
0.03
-0.02
0

>  <PUBCHEM_SHAPE_SELFOVERLAP>  (1) 
438.339

>  <PUBCHEM_SHAPE_VOLUME>  (1) 
118.5

>  <PUBCHEM_COORDINATE_TYPE>  (1) 
2
5
10

$$$$
