14538
     RDKit          3D

 12 13  0  0  1  0  0  0  0  0999 V2000
   -1.5033   -0.3515   -0.9529 O   0  0  0  0  0  0  0  0  0  0  0  0
   -3.4859   -1.1346   -0.1461 O   0  0  0  0  0  0  0  0  0  0  0  0
   -1.3574    1.2886    0.6977 N   0  0  0  0  0  0  0  0  0  0  0  0
   -2.4164    0.6459    0.8861 N   0  0  0  0  0  0  0  0  0  0  0  0
   -0.7218    0.7266   -0.4896 C   0  0  0  0  0  0  0  0  0  0  0  0
    0.6969    0.2766   -0.2286 C   0  0  0  0  0  0  0  0  0  0  0  0
    1.7555    1.1665   -0.4108 C   0  0  0  0  0  0  0  0  0  0  0  0
    0.9480   -1.0286    0.1950 C   0  0  0  0  0  0  0  0  0  0  0  0
    3.0652    0.7513   -0.1697 C   0  0  0  0  0  0  0  0  0  0  0  0
    2.2576   -1.4436    0.4363 C   0  0  0  0  0  0  0  0  0  0  0  0
    3.3162   -0.5536    0.2538 C   0  0  0  0  0  0  0  0  0  0  0  0
   -2.5545   -0.3435   -0.0713 C   0  0  0  0  0  0  0  0  0  0  0  0
  1  5  1  0
  1 12  1  0
  2 12  2  0
  3  4  2  0
  3  5  1  0
  4 12  1  0
  5  6  1  0
  6  7  2  0
  6  8  1  0
  7  9  1  0
  8 10  2  0
  9 11  2  0
 10 11  1  0
M  END
>  <PUBCHEM_COMPOUND_CID>  (1) 
14538

>  <PUBCHEM_CONFORMER_RMSD>  (1) 
0.4

>  <PUBCHEM_CONFORMER_DIVERSEORDER>  (1) 
1
2

>  <PUBCHEM_MMFF94_PARTIAL_CHARGES>  (1) 
17
1 -0.43
10 -0.15
11 -0.15
12 0.93
14 0.15
15 0.15
16 0.15
17 0.15
18 0.15
2 -0.57
3 -0.25
4 -0.21
5 0.67
6 -0.14
7 -0.15
8 -0.15
9 -0.15

>  <PUBCHEM_EFFECTIVE_ROTOR_COUNT>  (1) 
1.4

>  <PUBCHEM_PHARMACOPHORE_FEATURES>  (1) 
4
1 2 acceptor
1 4 donor
5 1 3 4 5 12 rings
6 6 7 8 9 10 11 rings

>  <PUBCHEM_HEAVY_ATOM_COUNT>  (1) 
12

>  <PUBCHEM_ATOM_DEF_STEREO_COUNT>  (1) 
0

>  <PUBCHEM_ATOM_UDEF_STEREO_COUNT>  (1) 
1

>  <PUBCHEM_BOND_DEF_STEREO_COUNT>  (1) 
0

>  <PUBCHEM_BOND_UDEF_STEREO_COUNT>  (1) 
0

>  <PUBCHEM_ISOTOPIC_ATOM_COUNT>  (1) 
0

>  <PUBCHEM_COMPONENT_COUNT>  (1) 
1

>  <PUBCHEM_CACTVS_TAUTO_COUNT>  (1) 
1

>  <PUBCHEM_CONFORMER_ID>  (1) 
000038CA00000001

>  <PUBCHEM_MMFF94_ENERGY>  (1) 
22.4409

>  <PUBCHEM_FEATURE_SELFOVERLAP>  (1) 
20.297

>  <PUBCHEM_SHAPE_FINGERPRINT>  (1) 
10219947 1 17821449084116512036
10857977 72 16845292761019339489
11769659 78 18408315579731065546
12932764 1 18188215290706665292
13764800 53 16127828357015998425
14144814 61 18413388722213010394
14325111 11 18409449189325659636
15775835 57 18272095989086425640
16945 1 18114185241738889468
19422 9 18343308045876650678
200 152 18340193155278844279
20201158 50 17894630357183512410
20279233 1 16515684454952118336
20645464 45 14764623105712481183
20645477 70 18261101951056752319
20711985 344 16154818029998530028
22445834 79 18339644442836125427
3248919 1 17917426471658809348
369184 2 18335138661544651493
5084963 1 18334008398014307244
57812782 119 16877938356316839960
581208 293 18187362164336185404

>  <PUBCHEM_SHAPE_MULTIPOLES>  (1) 
225.25
5.39
1.38
0.8
0.91
0.11
0.02
1.03
0.28
-0.37
0.08
0.24
-0.08
-0.48

>  <PUBCHEM_SHAPE_SELFOVERLAP>  (1) 
486.898

>  <PUBCHEM_SHAPE_VOLUME>  (1) 
123.4

>  <PUBCHEM_COORDINATE_TYPE>  (1) 
2
5
10

$$$$
