14543
     RDKit          3D

 12 12  0  0  0  0  0  0  0  0999 V2000
    4.1670    0.5048   -0.7318 O   0  0  0  0  0  0  0  0  0  0  0  0
   -1.0658   -0.6248    1.0494 C   0  0  0  0  0  0  0  0  0  0  0  0
    0.3330   -0.3228    0.5728 C   0  0  0  0  0  0  0  0  0  0  0  0
   -2.0498   -0.7105   -0.0831 C   0  0  0  0  0  0  0  0  0  0  0  0
   -3.1405    0.0516   -0.2912 C   0  0  0  0  0  0  0  0  0  0  0  0
    1.1850   -1.3697    0.2565 C   0  0  0  0  0  0  0  0  0  0  0  0
    0.7430    0.9968    0.4601 C   0  0  0  0  0  0  0  0  0  0  0  0
    2.4789   -1.0901   -0.1833 C   0  0  0  0  0  0  0  0  0  0  0  0
    2.0367    1.2763    0.0201 C   0  0  0  0  0  0  0  0  0  0  0  0
   -4.0876   -0.0865   -1.4493 C   0  0  0  0  0  0  0  0  0  0  0  0
   -3.5045    1.1419    0.6814 C   0  0  0  0  0  0  0  0  0  0  0  0
    2.9048    0.2330   -0.3016 C   0  0  0  0  0  0  0  0  0  0  0  0
  1 12  1  0
  2  3  1  0
  2  4  1  0
  3  6  2  0
  3  7  1  0
  4  5  2  3
  5 10  1  0
  5 11  1  0
  6  8  1  0
  7  9  2  0
  8 12  2  0
  9 12  1  0
M  END
>  <PUBCHEM_COMPOUND_CID>  (1) 
14543

>  <PUBCHEM_CONFORMER_RMSD>  (1) 
0.6

>  <PUBCHEM_CONFORMER_DIVERSEORDER>  (1) 
1
3
5
2
4

>  <PUBCHEM_MMFF94_PARTIAL_CHARGES>  (1) 
18
1 -0.53
10 0.14
11 0.14
12 0.08
15 0.15
16 0.15
17 0.15
18 0.15
19 0.15
2 0.28
26 0.45
3 -0.14
4 -0.29
5 -0.28
6 -0.15
7 -0.15
8 -0.15
9 -0.15

>  <PUBCHEM_EFFECTIVE_ROTOR_COUNT>  (1) 
2

>  <PUBCHEM_PHARMACOPHORE_FEATURES>  (1) 
3
1 1 donor
3 5 10 11 hydrophobe
6 3 6 7 8 9 12 rings

>  <PUBCHEM_HEAVY_ATOM_COUNT>  (1) 
12

>  <PUBCHEM_ATOM_DEF_STEREO_COUNT>  (1) 
0

>  <PUBCHEM_ATOM_UDEF_STEREO_COUNT>  (1) 
0

>  <PUBCHEM_BOND_DEF_STEREO_COUNT>  (1) 
0

>  <PUBCHEM_BOND_UDEF_STEREO_COUNT>  (1) 
0

>  <PUBCHEM_ISOTOPIC_ATOM_COUNT>  (1) 
0

>  <PUBCHEM_COMPONENT_COUNT>  (1) 
1

>  <PUBCHEM_CACTVS_TAUTO_COUNT>  (1) 
2

>  <PUBCHEM_CONFORMER_ID>  (1) 
000038CF00000001

>  <PUBCHEM_MMFF94_ENERGY>  (1) 
23.0854

>  <PUBCHEM_FEATURE_SELFOVERLAP>  (1) 
15.223

>  <PUBCHEM_SHAPE_FINGERPRINT>  (1) 
11031198 65 18187653495904410570
11401426 45 18341893013498801898
11471102 20 18334855000450601814
11543360 7 16917067806196392400
12251169 10 7997973492141736419
124424 183 17894345579682685426
12932764 1 17418371402792154715
13705890 14 15985105236344019820
13764800 53 15936689260207612141
14144814 61 18413387618564690611
14250199 8 18339639044531992589
14252887 29 9079127665217074500
14576447 43 17988351658999155863
14943859 89 16805324413695570960
14993402 34 17846500343958392022
15775835 57 18411142403036239565
18186145 218 18040440949292505731
200 152 17846783996689126360
20201158 50 18408323280675875634
20281407 28 13183027323504392467
20645477 70 18336831892208838530
20671657 53 16128661859559524680
20711983 171 18059856113210881365
20767249 442 16226317154139861087
21119208 17 17988924474639876013
21256008 61 17561079241485248432
22485316 2 15410896240783276446
231179 274 17313376829383678788
23402539 116 18131349683179050004
23402655 69 18341328895098401045
25 1 18261115153390217603
2748010 2 17980493578644996296
276578 36 15068616063348569705
3082319 5 18202839950997551357
3248919 1 18411129234650757539
4028521 119 18040988532295995517
8030462 33 18201993331318136203
93112 12 18271240616379393767

>  <PUBCHEM_SHAPE_MULTIPOLES>  (1) 
241.09
7.21
1.31
1.02
2.5
0.05
0.11
1.2
2.67
-0.39
-0.14
0.71
-0.02
-0.38

>  <PUBCHEM_SHAPE_SELFOVERLAP>  (1) 
489.69

>  <PUBCHEM_SHAPE_VOLUME>  (1) 
141.3

>  <PUBCHEM_COORDINATE_TYPE>  (1) 
2
5
10

$$$$
