14548
     RDKit          3D

 13 13  0  0  0  0  0  0  0  0999 V2000
    3.5033   -2.0473    0.1998 Cl  0  0  0  0  0  0  0  0  0  0  0  0
    4.3892    1.0614    0.0563 Cl  0  0  0  0  0  0  0  0  0  0  0  0
   -4.5696    0.9510    0.3730 O   0  0  0  0  0  0  0  0  0  0  0  0
   -4.1276   -1.1945   -0.2637 O   0  0  0  0  0  0  0  0  0  0  0  0
    0.0302   -0.1129   -0.1120 C   0  0  0  0  0  0  0  0  0  0  0  0
    0.9989   -1.1100    0.0039 C   0  0  0  0  0  0  0  0  0  0  0  0
    0.4127    1.2271   -0.1737 C   0  0  0  0  0  0  0  0  0  0  0  0
    2.3497   -0.7671    0.0580 C   0  0  0  0  0  0  0  0  0  0  0  0
    1.7636    1.5700   -0.1194 C   0  0  0  0  0  0  0  0  0  0  0  0
   -1.3788   -0.4692   -0.1676 C   0  0  0  0  0  0  0  0  0  0  0  0
    2.7321    0.5729   -0.0037 C   0  0  0  0  0  0  0  0  0  0  0  0
   -2.3521    0.3936    0.1090 C   0  0  0  0  0  0  0  0  0  0  0  0
   -3.7518   -0.0750    0.0401 C   0  0  0  0  0  0  0  0  0  0  0  0
  1  8  1  0
  2 11  1  0
  3 13  1  0
  4 13  2  0
  5  6  2  0
  5  7  1  0
  5 10  1  0
  6  8  1  0
  7  9  2  0
  8 11  2  0
  9 11  1  0
 10 12  2  0
 12 13  1  0
M  END
>  <PUBCHEM_COMPOUND_CID>  (1) 
14548

>  <PUBCHEM_CONFORMER_RMSD>  (1) 
0.6

>  <PUBCHEM_CONFORMER_DIVERSEORDER>  (1) 
1
2

>  <PUBCHEM_MMFF94_PARTIAL_CHARGES>  (1) 
19
1 -0.18
10 -0.18
11 0.18
12 -0.14
13 0.71
14 0.15
15 0.15
16 0.15
17 0.15
18 0.15
19 0.5
2 -0.18
3 -0.65
4 -0.57
5 0.03
6 -0.15
7 -0.15
8 0.18
9 -0.15

>  <PUBCHEM_EFFECTIVE_ROTOR_COUNT>  (1) 
2

>  <PUBCHEM_PHARMACOPHORE_FEATURES>  (1) 
4
1 3 acceptor
1 4 acceptor
3 3 4 13 anion
6 5 6 7 8 9 11 rings

>  <PUBCHEM_HEAVY_ATOM_COUNT>  (1) 
13

>  <PUBCHEM_ATOM_DEF_STEREO_COUNT>  (1) 
0

>  <PUBCHEM_ATOM_UDEF_STEREO_COUNT>  (1) 
0

>  <PUBCHEM_BOND_DEF_STEREO_COUNT>  (1) 
0

>  <PUBCHEM_BOND_UDEF_STEREO_COUNT>  (1) 
1

>  <PUBCHEM_ISOTOPIC_ATOM_COUNT>  (1) 
0

>  <PUBCHEM_COMPONENT_COUNT>  (1) 
1

>  <PUBCHEM_CACTVS_TAUTO_COUNT>  (1) 
1

>  <PUBCHEM_CONFORMER_ID>  (1) 
000038D400000001

>  <PUBCHEM_MMFF94_ENERGY>  (1) 
31.5775

>  <PUBCHEM_FEATURE_SELFOVERLAP>  (1) 
20.353

>  <PUBCHEM_SHAPE_FINGERPRINT>  (1) 
10219947 1 18412265021202933246
10980938 120 18410292519081199222
11471102 20 18408881828250823940
12032990 46 18337110051623316286
12346645 6 18341895190899657958
12932764 1 17418082239486367277
13380535 76 18335421326296108922
14144814 61 18413108359785797265
14251717 144 18408600370454255166
14252887 29 18259707796002888816
14325111 11 18411419531516407813
14576447 43 18199456847971236959
15196674 1 18410855442964123367
15219456 202 18187918439583615356
15442244 35 18267587913950067385
15501101 241 18260547818391192764
15536298 74 18342176652827949190
16945 1 18337662109887743660
17834072 33 18343018925668255686
18186145 218 17822007588689169459
19422 9 18413671301144210551
200 152 18272923947739399975
20279233 1 17312823796720688667
20645477 70 18410853226814285567
20871998 22 18126287433198372198
21501925 9 18337944606882028562
22485316 2 18409728456662715447
23402539 116 17418372510651338189
23402655 69 18412822478294200773
23557571 272 14405197153187781001
2748010 2 18192135015801166932
3071541 37 18334020510354721668
449060 62 18411982481680955584
4990 188 17988937686191432900
5104073 3 18411702075903228227
53812653 166 18341609382343273584
581208 293 18335137617920209676
7364860 26 18342457028693939230
77779 3 18410857659547082219

>  <PUBCHEM_SHAPE_MULTIPOLES>  (1) 
259.53
8.5
1.72
0.63
6.37
0.34
0
0.12
0.56
-1.57
0.02
-0.03
0
-0.29

>  <PUBCHEM_SHAPE_SELFOVERLAP>  (1) 
524.742

>  <PUBCHEM_SHAPE_VOLUME>  (1) 
153.2

>  <PUBCHEM_COORDINATE_TYPE>  (1) 
2
5
10

$$$$
