14559
     RDKit          3D

 14 14  0  0  0  0  0  0  0  0999 V2000
    1.9898    1.7680   -0.0341 S   0  0  0  0  0  0  0  0  0  0  0  0
    0.9026    0.5556   -1.2893 S   0  0  0  0  0  0  0  0  0  0  0  0
    0.4336   -1.9655   -0.7017 O   0  0  0  0  0  0  0  0  0  0  0  0
   -1.3774   -2.8864    0.2834 O   0  0  0  0  0  0  0  0  0  0  0  0
    4.6399    0.0929   -0.1032 N   0  0  0  0  0  0  0  0  0  0  0  0
    3.4541   -0.5041    0.5583 C   0  0  0  0  0  0  0  0  0  0  0  0
    2.5976    0.5817    1.1888 C   0  0  0  0  0  0  0  0  0  0  0  0
   -0.7196    0.6137   -0.5364 C   0  0  0  0  0  0  0  0  0  0  0  0
   -1.3569   -0.5359   -0.0693 C   0  0  0  0  0  0  0  0  0  0  0  0
   -1.3475    1.8541   -0.4228 C   0  0  0  0  0  0  0  0  0  0  0  0
   -2.6219   -0.4449    0.5113 C   0  0  0  0  0  0  0  0  0  0  0  0
   -2.6124    1.9451    0.1579 C   0  0  0  0  0  0  0  0  0  0  0  0
   -3.2496    0.7956    0.6249 C   0  0  0  0  0  0  0  0  0  0  0  0
   -0.7322   -1.8699   -0.1679 C   0  0  0  0  0  0  0  0  0  0  0  0
  1  2  1  0
  1  7  1  0
  2  8  1  0
  3 14  1  0
  4 14  2  0
  5  6  1  0
  6  7  1  0
  8  9  2  0
  8 10  1  0
  9 11  1  0
  9 14  1  0
 10 12  2  0
 11 13  2  0
 12 13  1  0
M  CHG  2   3  -1   5   1
M  END
>  <PUBCHEM_COMPOUND_CID>  (1) 
14559

>  <PUBCHEM_CONFORMER_RMSD>  (1) 
0.6

>  <PUBCHEM_CONFORMER_DIVERSEORDER>  (1) 
1
22
41
54
23
43
39
62
47
7
49
26
66
50
32
35
44
24
14
45
69
3
20
60
19
42
10
67
48
38
5
15
16
64
56
17
52
61
40
70
57
9
46
36
12
8
30
28
59
4
27
29
37
33
25
68
58
55
34
21
72
11
65
71
51
13
18
63
2
6
53
31

>  <PUBCHEM_MMFF94_PARTIAL_CHARGES>  (1) 
21
1 -0.23
10 -0.15
11 -0.15
12 -0.15
13 -0.15
14 0.98
19 0.45
2 -0.1
20 0.45
21 0.45
22 0.15
23 0.15
24 0.15
25 0.15
3 -0.9
4 -0.9
5 -0.85
6 0.5
7 0.23
8 0.1
9 -0.18

>  <PUBCHEM_EFFECTIVE_ROTOR_COUNT>  (1) 
5

>  <PUBCHEM_PHARMACOPHORE_FEATURES>  (1) 
6
1 3 acceptor
1 4 acceptor
1 5 cation
1 5 donor
3 3 4 14 anion
6 8 9 10 11 12 13 rings

>  <PUBCHEM_HEAVY_ATOM_COUNT>  (1) 
14

>  <PUBCHEM_ATOM_DEF_STEREO_COUNT>  (1) 
0

>  <PUBCHEM_ATOM_UDEF_STEREO_COUNT>  (1) 
0

>  <PUBCHEM_BOND_DEF_STEREO_COUNT>  (1) 
0

>  <PUBCHEM_BOND_UDEF_STEREO_COUNT>  (1) 
0

>  <PUBCHEM_ISOTOPIC_ATOM_COUNT>  (1) 
0

>  <PUBCHEM_COMPONENT_COUNT>  (1) 
1

>  <PUBCHEM_CACTVS_TAUTO_COUNT>  (1) 
1

>  <PUBCHEM_CONFORMER_ID>  (1) 
000038DF00000001

>  <PUBCHEM_MMFF94_ENERGY>  (1) 
30.226

>  <PUBCHEM_FEATURE_SELFOVERLAP>  (1) 
30.507

>  <PUBCHEM_SHAPE_FINGERPRINT>  (1) 
12011746 2 18337105679188100308
12251169 10 18408603686353565528
13380535 76 18341331115369470967
15076042 46 18338515364706205188
15375462 189 17894622635512809328
15775835 57 18408323259396179272
16945 1 18339094760463793525
17804303 29 18411425016158139276
17834069 15 18412260601998025284
19422 9 17822013082226654208
20645464 45 18131637772336818365
20871998 184 18198627828988334799
21524375 3 18272369750438873183
22445834 79 18113611309448616992
23388829 49 17404578269528293255
23402539 116 18271516594183055223
23526113 38 17485686768798641532
23532345 11 18194670695298384656
23598294 1 18122636208052568464
257057 1 17549532355091082959
2748010 2 18192171325422869879
305870 269 18194401095879814801
4663303 62 17842566136661683391
53812653 166 18270123387832219156
5706482 22 18413101749846952955
58807428 26 18336832970477167259
598444 67 18342452625698404744
7364860 26 17839465488380995967
81228 2 18051109669525058667

>  <PUBCHEM_SHAPE_MULTIPOLES>  (1) 
279.09
5.85
2.48
1
5.29
1.21
0.06
-1.16
-1.65
-1.25
0.11
0.31
-0.11
0

>  <PUBCHEM_SHAPE_SELFOVERLAP>  (1) 
544.557

>  <PUBCHEM_SHAPE_VOLUME>  (1) 
169.2

>  <PUBCHEM_COORDINATE_TYPE>  (1) 
2
5
10

$$$$
