1456
     RDKit          3D

 14 16  0  0  0  0  0  0  0  0999 V2000
   -3.0404   -0.4954   -0.0004 O   0  0  0  0  0  0  0  0  0  0  0  0
   -1.7343   -2.3701   -0.0005 O   0  0  0  0  0  0  0  0  0  0  0  0
   -0.8425   -0.2159    0.0005 N   0  0  0  0  0  0  0  0  0  0  0  0
    0.6264    2.1597   -0.0003 N   0  0  0  0  0  0  0  0  0  0  0  0
   -2.7570    0.9045   -0.0003 N   0  0  0  0  0  0  0  0  0  0  0  0
    0.5537   -0.3141    0.0006 C   0  0  0  0  0  0  0  0  0  0  0  0
    1.2713    0.9009    0.0004 C   0  0  0  0  0  0  0  0  0  0  0  0
   -1.4740    0.9604    0.0006 C   0  0  0  0  0  0  0  0  0  0  0  0
    1.2353   -1.5342    0.0005 C   0  0  0  0  0  0  0  0  0  0  0  0
   -1.8204   -1.1510    0.0000 C   0  0  0  0  0  0  0  0  0  0  0  0
   -0.6656    2.1943   -0.0002 C   0  0  0  0  0  0  0  0  0  0  0  0
    2.6702    0.8652   -0.0003 C   0  0  0  0  0  0  0  0  0  0  0  0
    2.6307   -1.5498    0.0000 C   0  0  0  0  0  0  0  0  0  0  0  0
    3.3466   -0.3545   -0.0006 C   0  0  0  0  0  0  0  0  0  0  0  0
  1  5  1  0
  1 10  1  0
  2 10  2  0
  3  6  1  0
  3  8  1  0
  3 10  1  0
  4  7  1  0
  4 11  2  0
  5  8  2  0
  6  7  2  0
  6  9  1  0
  7 12  1  0
  8 11  1  0
  9 13  2  0
 12 14  2  0
 13 14  1  0
M  END
>  <PUBCHEM_COMPOUND_CID>  (1) 
1456

>  <PUBCHEM_CONFORMER_RMSD>  (1) 
0.4

>  <PUBCHEM_CONFORMER_DIVERSEORDER>  (1) 
1

>  <PUBCHEM_MMFF94_PARTIAL_CHARGES>  (1) 
19
1 -0.09
10 0.78
11 0.39
12 -0.15
13 -0.15
14 -0.15
15 0.15
16 0.06
17 0.15
18 0.15
19 0.15
2 -0.57
3 -0.24
4 -0.63
5 -0.51
6 0.12
7 0.18
8 0.51
9 -0.15

>  <PUBCHEM_EFFECTIVE_ROTOR_COUNT>  (1) 
0

>  <PUBCHEM_PHARMACOPHORE_FEATURES>  (1) 
5
1 2 acceptor
1 4 acceptor
5 1 3 5 8 10 rings
6 3 4 6 7 8 11 rings
6 6 7 9 12 13 14 rings

>  <PUBCHEM_HEAVY_ATOM_COUNT>  (1) 
14

>  <PUBCHEM_ATOM_DEF_STEREO_COUNT>  (1) 
0

>  <PUBCHEM_ATOM_UDEF_STEREO_COUNT>  (1) 
0

>  <PUBCHEM_BOND_DEF_STEREO_COUNT>  (1) 
0

>  <PUBCHEM_BOND_UDEF_STEREO_COUNT>  (1) 
0

>  <PUBCHEM_ISOTOPIC_ATOM_COUNT>  (1) 
0

>  <PUBCHEM_COMPONENT_COUNT>  (1) 
1

>  <PUBCHEM_CACTVS_TAUTO_COUNT>  (1) 
1

>  <PUBCHEM_CONFORMER_ID>  (1) 
000005B000000001

>  <PUBCHEM_MMFF94_ENERGY>  (1) 
41.0236

>  <PUBCHEM_FEATURE_SELFOVERLAP>  (1) 
25.515

>  <PUBCHEM_SHAPE_FINGERPRINT>  (1) 
10967382 1 18410855511731150822
11132069 177 18411131450906480296
12382932 28 18412542106875976962
12524768 44 18342181007566195319
13140716 1 18339079405681507896
14144814 61 18411138008862598834
16945 1 18410856538312899492
17990270 104 18265050421570274146
193761 8 16465300760797069920
20201158 50 18409727356961300486
20510252 161 18056757628918900808
20588541 1 18341333301312502700
20645477 70 17615958242393609791
20871998 184 18201438043196136895
21267235 1 18410583880777628870
21501502 16 18410294747889631494
22721475 48 18411422791117049576
2334 1 18194682802763653856
23402539 116 18270667676295118903
23463225 33 18408885122743888956
23552423 10 18262238957374060180
23559900 14 18341894053302919662
2748010 2 18194960966283773044
3312278 4 18410296921412141128
528886 8 18411695487254492882
7364860 26 18198060489557484704
8809292 202 18334581230724737882

>  <PUBCHEM_SHAPE_MULTIPOLES>  (1) 
261.43
4.5
2.31
0.58
0.7
0.09
0
-0.95
0
-0.43
0
0.06
0.01
0

>  <PUBCHEM_SHAPE_SELFOVERLAP>  (1) 
591.124

>  <PUBCHEM_SHAPE_VOLUME>  (1) 
137.7

>  <PUBCHEM_COORDINATE_TYPE>  (1) 
2
5
10

$$$$
