14565
     RDKit          3D

 14 15  0  0  0  0  0  0  0  0999 V2000
   -4.8774    0.0002   -0.0011 O   0  0  0  0  0  0  0  0  0  0  0  0
    4.9200    0.0000   -0.0014 N   0  0  0  0  0  0  0  0  0  0  0  0
    0.7197   -0.0001    0.0011 C   0  0  0  0  0  0  0  0  0  0  0  0
   -0.7269    0.0000    0.0007 C   0  0  0  0  0  0  0  0  0  0  0  0
    1.4171    1.1667    0.3135 C   0  0  0  0  0  0  0  0  0  0  0  0
    1.4170   -1.1669   -0.3121 C   0  0  0  0  0  0  0  0  0  0  0  0
   -1.4239    1.1667   -0.3124 C   0  0  0  0  0  0  0  0  0  0  0  0
   -1.4243   -1.1668    0.3132 C   0  0  0  0  0  0  0  0  0  0  0  0
    3.5094    0.0001   -0.0005 C   0  0  0  0  0  0  0  0  0  0  0  0
    2.8119    1.1668    0.3127 C   0  0  0  0  0  0  0  0  0  0  0  0
    2.8120   -1.1669   -0.3129 C   0  0  0  0  0  0  0  0  0  0  0  0
   -2.8187    1.1668   -0.3130 C   0  0  0  0  0  0  0  0  0  0  0  0
   -2.8192   -1.1668    0.3127 C   0  0  0  0  0  0  0  0  0  0  0  0
   -3.5166    0.0001   -0.0005 C   0  0  0  0  0  0  0  0  0  0  0  0
  1 14  1  0
  2  9  1  0
  3  4  1  0
  3  5  2  0
  3  6  1  0
  4  7  2  0
  4  8  1  0
  5 10  1  0
  6 11  2  0
  7 12  1  0
  8 13  2  0
  9 10  2  0
  9 11  1  0
 12 14  2  0
 13 14  1  0
M  END
>  <PUBCHEM_COMPOUND_CID>  (1) 
14565

>  <PUBCHEM_CONFORMER_RMSD>  (1) 
0.4

>  <PUBCHEM_CONFORMER_DIVERSEORDER>  (1) 
1
2

>  <PUBCHEM_MMFF94_PARTIAL_CHARGES>  (1) 
23
1 -0.53
10 -0.15
11 -0.15
12 -0.15
13 -0.15
14 0.08
15 0.15
16 0.15
17 0.15
18 0.15
19 0.15
2 -0.9
20 0.15
21 0.15
22 0.15
23 0.4
24 0.4
25 0.45
5 -0.15
6 -0.15
7 -0.15
8 -0.15
9 0.1

>  <PUBCHEM_EFFECTIVE_ROTOR_COUNT>  (1) 
1

>  <PUBCHEM_PHARMACOPHORE_FEATURES>  (1) 
5
1 1 donor
1 2 cation
1 2 donor
6 3 5 6 9 10 11 rings
6 4 7 8 12 13 14 rings

>  <PUBCHEM_HEAVY_ATOM_COUNT>  (1) 
14

>  <PUBCHEM_ATOM_DEF_STEREO_COUNT>  (1) 
0

>  <PUBCHEM_ATOM_UDEF_STEREO_COUNT>  (1) 
0

>  <PUBCHEM_BOND_DEF_STEREO_COUNT>  (1) 
0

>  <PUBCHEM_BOND_UDEF_STEREO_COUNT>  (1) 
0

>  <PUBCHEM_ISOTOPIC_ATOM_COUNT>  (1) 
0

>  <PUBCHEM_COMPONENT_COUNT>  (1) 
1

>  <PUBCHEM_CACTVS_TAUTO_COUNT>  (1) 
2

>  <PUBCHEM_CONFORMER_ID>  (1) 
000038E500000001

>  <PUBCHEM_MMFF94_ENERGY>  (1) 
55.0274

>  <PUBCHEM_FEATURE_SELFOVERLAP>  (1) 
25.371

>  <PUBCHEM_SHAPE_FINGERPRINT>  (1) 
10608611 8 18410851062082111905
11132069 177 18336820991528587161
11471102 20 18343300370817480988
11615757 297 17632580469538218800
12032990 46 18410860961981267968
12251169 10 18410573998036353078
13380535 76 18410856563940505826
13581323 91 17967530168511767781
14144814 61 18410855425768423649
14325111 11 18410573976582764973
15219456 202 18412262830727303821
15309172 13 17632863035568751343
15442244 35 18124315999974537362
16945 1 18410856559639789571
17802600 8 18410852165893819332
18175812 5 18338797917629841574
18186145 218 18339082566756331893
18522853 276 18343864411508226240
200 152 17847056688415557695
20201158 50 18413109450396487922
20279233 1 18410860961986802566
20510252 161 18340487755844721913
20528008 55 18411134753620221191
20645477 70 18201440216602952894
21267235 1 18410583885051289282
23402539 116 18410283718877800391
23402655 69 18271518702743186437
23557571 272 17968095283287280740
23559900 14 18338514124062179734
474 4 15793155868338473492
5104073 3 18410575041713406928
53812653 166 18411416211401310058
57812782 119 18410854364911520801
6333449 129 18408882940911117111
69090 78 18342171181140081391
8809292 202 18261678163483854082
9709674 26 18411143540844383695

>  <PUBCHEM_SHAPE_MULTIPOLES>  (1) 
277.26
8.09
1.41
0.66
0.17
0
0
0
0
-0.01
0
0
0
0.46

>  <PUBCHEM_SHAPE_SELFOVERLAP>  (1) 
605.495

>  <PUBCHEM_SHAPE_VOLUME>  (1) 
152.2

>  <PUBCHEM_COORDINATE_TYPE>  (1) 
2
5
10

$$$$
