14578
     RDKit          3D

 15 15  0  0  1  0  0  0  0  0999 V2000
    3.1876    1.3274   -1.7358 Cl  0  0  0  0  0  0  0  0  0  0  0  0
    5.1077   -0.4456   -0.4519 Cl  0  0  0  0  0  0  0  0  0  0  0  0
   -5.0200    0.7316   -0.3930 F   0  0  0  0  0  0  0  0  0  0  0  0
    3.1698    1.1012    1.3732 O   0  0  0  0  0  0  0  0  0  0  0  0
    0.5692   -1.9832    0.4954 O   0  0  0  0  0  0  0  0  0  0  0  0
    1.2158    0.2428    0.4460 N   0  0  0  0  0  0  0  0  0  0  0  0
    2.6403    0.0161    0.6229 C   0  0  0  0  0  0  0  0  0  0  0  0
   -1.1195   -0.3857    0.1870 C   0  0  0  0  0  0  0  0  0  0  0  0
    0.2937   -0.7904    0.3972 C   0  0  0  0  0  0  0  0  0  0  0  0
    3.3721   -0.1257   -0.7147 C   0  0  0  0  0  0  0  0  0  0  0  0
   -1.9846   -1.2739   -0.4183 C   0  0  0  0  0  0  0  0  0  0  0  0
   -1.5236    0.8661    0.6039 C   0  0  0  0  0  0  0  0  0  0  0  0
   -3.3120   -0.8936   -0.6156 C   0  0  0  0  0  0  0  0  0  0  0  0
   -2.8511    1.2464    0.4067 C   0  0  0  0  0  0  0  0  0  0  0  0
   -3.7454    0.3665   -0.2031 C   0  0  0  0  0  0  0  0  0  0  0  0
  1 10  1  0
  2 10  1  0
  3 15  1  0
  4  7  1  0
  5  9  2  0
  6  7  1  0
  6  9  1  0
  7 10  1  0
  8  9  1  0
  8 11  2  0
  8 12  1  0
 11 13  1  0
 12 14  2  0
 13 15  2  0
 14 15  1  0
M  END
>  <PUBCHEM_COMPOUND_CID>  (1) 
14578

>  <PUBCHEM_CONFORMER_RMSD>  (1) 
0.6

>  <PUBCHEM_CONFORMER_DIVERSEORDER>  (1) 
1
15
22
17
12
5
9
21
16
18
7
4
6
10
20
19
11
8
2
14
3
13

>  <PUBCHEM_MMFF94_PARTIAL_CHARGES>  (1) 
21
1 -0.29
10 0.58
11 -0.15
12 -0.15
13 -0.15
14 -0.15
15 0.19
17 0.37
19 0.15
2 -0.29
20 0.15
21 0.15
22 0.15
23 0.4
3 -0.19
4 -0.68
5 -0.57
6 -0.73
7 0.58
8 0.09
9 0.54

>  <PUBCHEM_EFFECTIVE_ROTOR_COUNT>  (1) 
4

>  <PUBCHEM_PHARMACOPHORE_FEATURES>  (1) 
5
1 4 acceptor
1 4 donor
1 5 acceptor
1 6 donor
6 8 11 12 13 14 15 rings

>  <PUBCHEM_HEAVY_ATOM_COUNT>  (1) 
15

>  <PUBCHEM_ATOM_DEF_STEREO_COUNT>  (1) 
0

>  <PUBCHEM_ATOM_UDEF_STEREO_COUNT>  (1) 
1

>  <PUBCHEM_BOND_DEF_STEREO_COUNT>  (1) 
0

>  <PUBCHEM_BOND_UDEF_STEREO_COUNT>  (1) 
0

>  <PUBCHEM_ISOTOPIC_ATOM_COUNT>  (1) 
0

>  <PUBCHEM_COMPONENT_COUNT>  (1) 
1

>  <PUBCHEM_CACTVS_TAUTO_COUNT>  (1) 
2

>  <PUBCHEM_CONFORMER_ID>  (1) 
000038F200000001

>  <PUBCHEM_MMFF94_ENERGY>  (1) 
28.4683

>  <PUBCHEM_FEATURE_SELFOVERLAP>  (1) 
25.416

>  <PUBCHEM_SHAPE_FINGERPRINT>  (1) 
10366900 7 13767931259888824092
12251169 10 11097860700337545058
13705890 14 16056879143697533234
14252887 29 8574433153560487452
14289901 80 13767929039369515948
18186145 218 18341886407259014448
19862831 5 18272091595186915734
1986462 14 18131634495376796919
200 152 15339119026468514250
20279233 1 17060625503332880822
20361792 2 12391511975085240419
20432913 95 13614527350405337860
20645476 183 18113900497955034698
20645477 70 16056883533138402780
20671657 53 16271659905588788728
21119208 17 18413389825845538742
21524375 3 18335703823290380722
22485316 2 11743844642159049486
22854114 59 13840264792632459225
231179 274 17022901242335944262
23402539 116 18201994430465715286
23557571 272 17702097182430460762
23559900 14 18059851805485186840
4028521 119 18342170047120937597
449060 50 12973607742056510566
474 4 17967819331458956227
4990 188 17489870423121177677
57096353 35 18340475742842092719
633830 44 18340761619685281014
7364860 26 18127968611751381018
9882013 296 8142083139715126846
9971528 1 18260267443833367228

>  <PUBCHEM_SHAPE_MULTIPOLES>  (1) 
288.44
9.4
1.44
1.12
2.02
0.17
0.12
-1.71
2.18
-0.15
0.08
0.92
-0.35
-0.54

>  <PUBCHEM_SHAPE_SELFOVERLAP>  (1) 
576.448

>  <PUBCHEM_SHAPE_VOLUME>  (1) 
172

>  <PUBCHEM_COORDINATE_TYPE>  (1) 
2
5
10

$$$$
