14570
     RDKit          3D

 14 15  0  0  0  0  0  0  0  0999 V2000
    5.1030    0.9220    0.0765 Cl  0  0  0  0  0  0  0  0  0  0  0  0
   -0.4583   -1.1090    0.0089 N   0  0  0  0  0  0  0  0  0  0  0  0
    0.8645   -0.6258    0.0246 C   0  0  0  0  0  0  0  0  0  0  0  0
   -1.7112   -0.4621   -0.0235 C   0  0  0  0  0  0  0  0  0  0  0  0
    1.8905   -1.3774   -0.5505 C   0  0  0  0  0  0  0  0  0  0  0  0
    1.1522    0.6057    0.6155 C   0  0  0  0  0  0  0  0  0  0  0  0
   -2.8215   -1.0629    0.5697 C   0  0  0  0  0  0  0  0  0  0  0  0
   -1.8399    0.7785   -0.6477 C   0  0  0  0  0  0  0  0  0  0  0  0
    3.2006   -0.8987   -0.5347 C   0  0  0  0  0  0  0  0  0  0  0  0
    2.4623    1.0843    0.6311 C   0  0  0  0  0  0  0  0  0  0  0  0
   -4.0606   -0.4230    0.5387 C   0  0  0  0  0  0  0  0  0  0  0  0
   -3.0789    1.4185   -0.6788 C   0  0  0  0  0  0  0  0  0  0  0  0
    3.4865    0.3321    0.0561 C   0  0  0  0  0  0  0  0  0  0  0  0
   -4.1893    0.8177   -0.0857 C   0  0  0  0  0  0  0  0  0  0  0  0
  1 13  1  0
  2  3  1  0
  2  4  1  0
  3  5  2  0
  3  6  1  0
  4  7  2  0
  4  8  1  0
  5  9  1  0
  6 10  2  0
  7 11  1  0
  8 12  2  0
  9 13  2  0
 10 13  1  0
 11 14  2  0
 12 14  1  0
M  END
>  <PUBCHEM_COMPOUND_CID>  (1) 
14570

>  <PUBCHEM_CONFORMER_RMSD>  (1) 
0.6

>  <PUBCHEM_CONFORMER_DIVERSEORDER>  (1) 
1
3
2

>  <PUBCHEM_MMFF94_PARTIAL_CHARGES>  (1) 
24
1 -0.18
10 -0.15
11 -0.15
12 -0.15
13 0.18
14 -0.15
15 0.4
16 0.15
17 0.15
18 0.15
19 0.15
2 -0.6
20 0.15
21 0.15
22 0.15
23 0.15
24 0.15
3 0.1
4 0.1
5 -0.15
6 -0.15
7 -0.15
8 -0.15
9 -0.15

>  <PUBCHEM_EFFECTIVE_ROTOR_COUNT>  (1) 
2

>  <PUBCHEM_PHARMACOPHORE_FEATURES>  (1) 
4
1 2 cation
1 2 donor
6 3 5 6 9 10 13 rings
6 4 7 8 11 12 14 rings

>  <PUBCHEM_HEAVY_ATOM_COUNT>  (1) 
14

>  <PUBCHEM_ATOM_DEF_STEREO_COUNT>  (1) 
0

>  <PUBCHEM_ATOM_UDEF_STEREO_COUNT>  (1) 
0

>  <PUBCHEM_BOND_DEF_STEREO_COUNT>  (1) 
0

>  <PUBCHEM_BOND_UDEF_STEREO_COUNT>  (1) 
0

>  <PUBCHEM_ISOTOPIC_ATOM_COUNT>  (1) 
0

>  <PUBCHEM_COMPONENT_COUNT>  (1) 
1

>  <PUBCHEM_CACTVS_TAUTO_COUNT>  (1) 
1

>  <PUBCHEM_CONFORMER_ID>  (1) 
000038EA00000001

>  <PUBCHEM_MMFF94_ENERGY>  (1) 
51.0637

>  <PUBCHEM_FEATURE_SELFOVERLAP>  (1) 
20.297

>  <PUBCHEM_SHAPE_FINGERPRINT>  (1) 
10498660 4 18041273254030962509
10608611 8 18410289194655407181
11132069 177 17967535653622861421
11401426 45 17632572773732186776
11471102 20 18202845439839213502
11615757 297 17704355476493095651
13214271 11 18335700568089954543
14993402 34 15841550782155649612
15219456 202 18411982442372193767
15653759 3 18260550021772569475
17844478 74 18408327683212493921
18186145 218 18201728327108631722
200 152 17632572756315031639
20279233 1 18409732854619698659
20645477 56 18409729581701443405
20645477 70 17917435276674582630
21119208 17 15339120147444500472
22854114 59 18411983572170028259
231179 274 18412824690270702364
23402539 116 18040990782394634582
23402655 69 17988640770332636437
23557571 272 18340214080159076215
23559900 14 18337390427478977602
25 1 18273213088721212694
3545911 37 18413392042069768896
4028521 119 18261664875488010557
4072396 5 18201707433005301634
42 15 17458338616086288674
449060 50 18411140246551155012
474 4 15431747504247347628
5104073 3 18335703797483355667
69090 78 18343297081068114039
7364860 26 18118397345862330003
74978 22 15697422434147037367
77779 3 18409169895917970254

>  <PUBCHEM_SHAPE_MULTIPOLES>  (1) 
285
9.31
1.44
0.82
1.92
0.02
0.01
-2.42
-0.24
-0.02
0.11
-0.09
-0.04
0.89

>  <PUBCHEM_SHAPE_SELFOVERLAP>  (1) 
601.324

>  <PUBCHEM_SHAPE_VOLUME>  (1) 
159.7

>  <PUBCHEM_COORDINATE_TYPE>  (1) 
2
5
10

$$$$
