14576
     RDKit          3D

 15 15  0  0  0  0  0  0  0  0999 V2000
    0.0230    2.9515   -0.3415 I   0  0  0  0  0  0  0  0  0  0  0  0
   -0.4882   -3.1896   -0.3109 I   0  0  0  0  0  0  0  0  0  0  0  0
    4.8496   -0.6574    0.4456 I   0  0  0  0  0  0  0  0  0  0  0  0
    3.0164    1.9785    0.1247 O   0  0  0  0  0  0  0  0  0  0  0  0
   -4.4074    0.1509    1.3201 O   0  0  0  0  0  0  0  0  0  0  0  0
   -4.1823    0.2136   -0.9490 O   0  0  0  0  0  0  0  0  0  0  0  0
    0.0502   -0.1384   -0.2836 C   0  0  0  0  0  0  0  0  0  0  0  0
    0.8507    0.9995   -0.1833 C   0  0  0  0  0  0  0  0  0  0  0  0
    0.6227   -1.4057   -0.1755 C   0  0  0  0  0  0  0  0  0  0  0  0
    2.2237    0.8701    0.0250 C   0  0  0  0  0  0  0  0  0  0  0  0
    1.9958   -1.5352    0.0327 C   0  0  0  0  0  0  0  0  0  0  0  0
    2.7964   -0.3973    0.1330 C   0  0  0  0  0  0  0  0  0  0  0  0
   -1.3913   -0.0119   -0.5015 C   0  0  0  0  0  0  0  0  0  0  0  0
   -2.2615    0.0301    0.4967 C   0  0  0  0  0  0  0  0  0  0  0  0
   -3.6977    0.1414    0.1675 C   0  0  0  0  0  0  0  0  0  0  0  0
  1  8  1  0
  2  9  1  0
  3 12  1  0
  4 10  1  0
  5 15  1  0
  6 15  2  0
  7  8  2  0
  7  9  1  0
  7 13  1  0
  8 10  1  0
  9 11  2  0
 10 12  2  0
 11 12  1  0
 13 14  2  0
 14 15  1  0
M  END
>  <PUBCHEM_COMPOUND_CID>  (1) 
14576

>  <PUBCHEM_CONFORMER_RMSD>  (1) 
0.6

>  <PUBCHEM_CONFORMER_DIVERSEORDER>  (1) 
1
2

>  <PUBCHEM_MMFF94_PARTIAL_CHARGES>  (1) 
20
1 -0.08
10 0.08
11 -0.15
12 0.08
13 -0.18
14 -0.14
15 0.71
16 0.15
17 0.15
18 0.15
19 0.45
2 -0.08
20 0.5
3 -0.08
4 -0.53
5 -0.65
6 -0.57
7 0.03
8 0.08
9 0.08

>  <PUBCHEM_EFFECTIVE_ROTOR_COUNT>  (1) 
2

>  <PUBCHEM_PHARMACOPHORE_FEATURES>  (1) 
8
1 1 hydrophobe
1 2 hydrophobe
1 3 hydrophobe
1 4 donor
1 5 acceptor
1 6 acceptor
3 5 6 15 anion
6 7 8 9 10 11 12 rings

>  <PUBCHEM_HEAVY_ATOM_COUNT>  (1) 
15

>  <PUBCHEM_ATOM_DEF_STEREO_COUNT>  (1) 
0

>  <PUBCHEM_ATOM_UDEF_STEREO_COUNT>  (1) 
0

>  <PUBCHEM_BOND_DEF_STEREO_COUNT>  (1) 
0

>  <PUBCHEM_BOND_UDEF_STEREO_COUNT>  (1) 
1

>  <PUBCHEM_ISOTOPIC_ATOM_COUNT>  (1) 
0

>  <PUBCHEM_COMPONENT_COUNT>  (1) 
1

>  <PUBCHEM_CACTVS_TAUTO_COUNT>  (1) 
3

>  <PUBCHEM_CONFORMER_ID>  (1) 
000038F000000001

>  <PUBCHEM_MMFF94_ENERGY>  (1) 
43.6831

>  <PUBCHEM_FEATURE_SELFOVERLAP>  (1) 
40.65

>  <PUBCHEM_SHAPE_FINGERPRINT>  (1) 
10219947 1 18409730664233753077
10967382 1 18410572885961680790
10980938 120 18409729590333764501
11132069 177 18343012298702639762
11471102 20 18410006641757852460
12236239 1 17703783713488283583
12251169 10 18411134736466933786
13140716 1 18338227297603567906
13380535 76 18343300379249757886
13862211 1 18410285879310179614
14178342 30 17907562976611734792
14251717 144 18412257324969809031
14790565 3 18410867542483900788
15042514 8 18409444804444274930
15309172 13 18410857659462907043
15375462 189 17968084305794074698
15442244 35 18267018543321361734
16945 1 18338222796393419430
18186145 218 18343025492878895143
193761 8 17834112322489079822
19591789 44 18124033421608502126
200 152 18200863003416127469
20028762 73 18201437042891705295
20510252 161 18199180699159953696
20645477 70 18337101255904938191
20671657 1 18193282007649133700
20739085 24 18263947486838336561
21501502 16 18194116550328833990
21524375 3 18202278117271851655
22182313 1 18053938455873198742
23184049 59 18411139138433670792
2334 1 18049999189136559438
23402539 116 18271514338681685454
23558518 356 17614277093039520042
2748010 2 17907570338343948542
3060560 45 18341892965690192351
3250762 1 17545883724343162878
350125 39 17617101746817023445
5104073 3 18339079409786688523
589210 1 17834113426206023567
77492 1 17703784817284277191
7832392 63 18267584796262551470
81228 2 17684101188188502397
8272917 22 18270403763935664055

>  <PUBCHEM_SHAPE_MULTIPOLES>  (1) 
326.89
7.47
3.15
0.87
0.9
0.15
0.08
0.18
1.86
-0.24
-0.58
0.48
0.02
-0.1

>  <PUBCHEM_SHAPE_SELFOVERLAP>  (1) 
620.647

>  <PUBCHEM_SHAPE_VOLUME>  (1) 
209.8

>  <PUBCHEM_COORDINATE_TYPE>  (1) 
2
5
10

$$$$
