14583
     RDKit          3D

 16 17  0  0  1  0  0  0  0  0999 V2000
   -0.7410   -0.5807    1.7526 O   0  0  0  0  0  0  0  0  0  0  0  0
   -1.5284    1.7195   -0.7498 O   0  0  0  0  0  0  0  0  0  0  0  0
   -1.1504    2.0427    1.5005 O   0  0  0  0  0  0  0  0  0  0  0  0
   -1.1593   -0.9630   -0.5530 C   0  0  0  0  0  0  0  0  0  0  0  0
   -2.6310   -1.3018   -0.2378 C   0  0  0  0  0  0  0  0  0  0  0  0
   -0.8536   -2.4637   -0.3650 C   0  0  0  0  0  0  0  0  0  0  0  0
   -2.3280   -2.7314   -0.7327 C   0  0  0  0  0  0  0  0  0  0  0  0
   -0.4881   -0.0490    0.4501 C   0  0  0  0  0  0  0  0  0  0  0  0
    1.0068   -0.0272    0.1497 C   0  0  0  0  0  0  0  0  0  0  0  0
   -1.0818    1.3543    0.4895 C   0  0  0  0  0  0  0  0  0  0  0  0
    1.5132    0.9932   -0.6265 C   0  0  0  0  0  0  0  0  0  0  0  0
    1.8019   -1.0288    0.6639 C   0  0  0  0  0  0  0  0  0  0  0  0
    2.8806    1.0129   -0.9015 C   0  0  0  0  0  0  0  0  0  0  0  0
    3.1693   -1.0091    0.3889 C   0  0  0  0  0  0  0  0  0  0  0  0
    3.7086    0.0118   -0.3937 C   0  0  0  0  0  0  0  0  0  0  0  0
   -2.1188    3.0202   -0.8351 C   0  0  0  0  0  0  0  0  0  0  0  0
  1  8  1  0
  2 10  1  0
  2 16  1  0
  3 10  2  0
  4  5  1  0
  4  6  1  0
  4  8  1  0
  5  7  1  0
  6  7  1  0
  8  9  1  0
  8 10  1  0
  9 11  2  0
  9 12  1  0
 11 13  1  0
 12 14  2  0
 13 15  2  0
 14 15  1  0
M  END
>  <PUBCHEM_COMPOUND_CID>  (1) 
14583

>  <PUBCHEM_CONFORMER_RMSD>  (1) 
0.6

>  <PUBCHEM_CONFORMER_DIVERSEORDER>  (1) 
6
28
25
24
12
10
23
27
21
9
15
2
19
14
16
20
17
26
3
13
4
11
5
1
7
18
22
8

>  <PUBCHEM_MMFF94_PARTIAL_CHARGES>  (1) 
18
1 -0.68
10 0.66
11 -0.15
12 -0.15
13 -0.15
14 -0.15
15 -0.15
16 0.28
2 -0.43
24 0.4
25 0.15
26 0.15
27 0.15
28 0.15
29 0.15
3 -0.57
8 0.48
9 -0.14

>  <PUBCHEM_EFFECTIVE_ROTOR_COUNT>  (1) 
4.8

>  <PUBCHEM_PHARMACOPHORE_FEATURES>  (1) 
5
1 1 acceptor
1 1 donor
1 3 acceptor
4 4 5 6 7 rings
6 9 11 12 13 14 15 rings

>  <PUBCHEM_HEAVY_ATOM_COUNT>  (1) 
16

>  <PUBCHEM_ATOM_DEF_STEREO_COUNT>  (1) 
0

>  <PUBCHEM_ATOM_UDEF_STEREO_COUNT>  (1) 
1

>  <PUBCHEM_BOND_DEF_STEREO_COUNT>  (1) 
0

>  <PUBCHEM_BOND_UDEF_STEREO_COUNT>  (1) 
0

>  <PUBCHEM_ISOTOPIC_ATOM_COUNT>  (1) 
0

>  <PUBCHEM_COMPONENT_COUNT>  (1) 
1

>  <PUBCHEM_CACTVS_TAUTO_COUNT>  (1) 
1

>  <PUBCHEM_CONFORMER_ID>  (1) 
000038F700000006

>  <PUBCHEM_MMFF94_ENERGY>  (1) 
48.7605

>  <PUBCHEM_FEATURE_SELFOVERLAP>  (1) 
25.38

>  <PUBCHEM_SHAPE_FINGERPRINT>  (1) 
1 1 17689995635427517661
11578080 2 17845079848018698593
12138202 97 18269553840845857198
12202030 40 16844475802526352910
13024252 1 16878231938758930859
14614273 12 18271814513956669158
14713566 1 18267573620346353224
15001771 113 18269840980842408410
15490181 8 17767126406228202315
15775835 57 18115875096410900564
15852999 172 17843954841475362222
15906896 17 18188497882443386403
16752209 62 18339909442508296687
16945 1 18336249232528514031
17775402 16 17902514027458645276
192875 21 17751069422406606524
19868273 293 18262801748677474756
19868273 325 18269559514397538582
200 152 18263361563521216558
20361792 2 17843117266812605391
20511035 2 17606981498350557484
20645477 70 16975884209583175679
21069387 34 16914526646188751086
21296965 12 18190756227692505849
21296965 67 18196655322350308135
21524375 3 17971473992219867941
22112679 90 17698192829667470667
228727 97 18192444180094216748
23419403 2 16964009337841774748
23557571 272 18059575828008677088
23559900 14 17987226743621051178
2748010 2 17908436761505993135
298252 57 18046620110103853769
3060560 45 17544460969324186765
353137 74 18334571395117553126
427121 178 15979253554168341939
53812653 217 18336838527911523294
69090 78 18336543798692370757
6992083 37 18191024491692373992
7364860 26 17120854800371739511
74978 22 18340771429960446644
8030462 33 18041851709127006150
81228 2 18341058509283857883
90525 40 18338520729236571414

>  <PUBCHEM_SHAPE_MULTIPOLES>  (1) 
311.66
4.69
3
1.15
3.7
0.97
0.33
-0.97
-1.06
-3.09
-0.63
-0.18
0.25
-0.58

>  <PUBCHEM_SHAPE_SELFOVERLAP>  (1) 
661.077

>  <PUBCHEM_SHAPE_VOLUME>  (1) 
175

>  <PUBCHEM_COORDINATE_TYPE>  (1) 
2
5
10

$$$$
