14603
     RDKit          3D

 17 18  0  0  1  0  0  0  0  0999 V2000
    3.6398    0.3650    0.3635 O   0  0  0  0  0  0  0  0  0  0  0  0
    2.5145   -1.4563   -0.4960 O   0  0  0  0  0  0  0  0  0  0  0  0
    0.1629   -0.3175    0.5090 N   0  0  0  0  0  0  0  0  0  0  0  0
   -2.3564   -0.2139    0.7570 C   0  0  0  0  0  0  0  0  0  0  0  0
   -2.4882    0.7631   -0.4527 C   0  0  0  0  0  0  0  0  0  0  0  0
   -1.4350    0.0963   -1.3746 C   0  0  0  0  0  0  0  0  0  0  0  0
   -2.4262   -1.6091    0.0750 C   0  0  0  0  0  0  0  0  0  0  0  0
   -1.8180   -1.4005   -1.3237 C   0  0  0  0  0  0  0  0  0  0  0  0
   -0.9534   -0.0576    1.4285 C   0  0  0  0  0  0  0  0  0  0  0  0
   -0.0025    0.2803   -0.8207 C   0  0  0  0  0  0  0  0  0  0  0  0
   -3.4441   -0.0572    1.8216 C   0  0  0  0  0  0  0  0  0  0  0  0
   -3.8890    0.7477   -1.1162 C   0  0  0  0  0  0  0  0  0  0  0  0
   -2.1941    2.2411   -0.1330 C   0  0  0  0  0  0  0  0  0  0  0  0
    1.4485    0.0287    1.1036 C   0  0  0  0  0  0  0  0  0  0  0  0
    2.5657   -0.4682    0.2238 C   0  0  0  0  0  0  0  0  0  0  0  0
    4.7909    0.0228   -0.4153 C   0  0  0  0  0  0  0  0  0  0  0  0
    5.8846    1.0352   -0.1497 C   0  0  0  0  0  0  0  0  0  0  0  0
  1 15  1  0
  1 16  1  0
  2 15  2  0
  3  9  1  0
  3 10  1  0
  3 14  1  0
  4  5  1  0
  4  7  1  0
  4  9  1  0
  4 11  1  0
  5  6  1  0
  5 12  1  0
  5 13  1  0
  6  8  1  0
  6 10  1  0
  7  8  1  0
 14 15  1  0
 16 17  1  0
M  END
>  <PUBCHEM_COMPOUND_CID>  (1) 
14603

>  <PUBCHEM_CONFORMER_RMSD>  (1) 
0.6

>  <PUBCHEM_CONFORMER_DIVERSEORDER>  (1) 
10
11
57
28
25
9
50
46
45
19
51
2
23
29
48
53
16
54
59
40
5
60
8
12
58
13
39
30
20
52
33
41
24
49
22
36
55
1
21
38
37
35
44
26
43
31
42
15
4
6
56
27
14
3
7
34
32
17
18
47

>  <PUBCHEM_MMFF94_PARTIAL_CHARGES>  (1) 
8
1 -0.43
10 0.27
14 0.33
15 0.66
16 0.28
2 -0.57
3 -0.81
9 0.27

>  <PUBCHEM_EFFECTIVE_ROTOR_COUNT>  (1) 
5.2

>  <PUBCHEM_PHARMACOPHORE_FEATURES>  (1) 
4
1 2 acceptor
1 3 cation
3 5 12 13 hydrophobe
8 3 4 5 6 7 8 9 10 rings

>  <PUBCHEM_HEAVY_ATOM_COUNT>  (1) 
17

>  <PUBCHEM_ATOM_DEF_STEREO_COUNT>  (1) 
0

>  <PUBCHEM_ATOM_UDEF_STEREO_COUNT>  (1) 
2

>  <PUBCHEM_BOND_DEF_STEREO_COUNT>  (1) 
0

>  <PUBCHEM_BOND_UDEF_STEREO_COUNT>  (1) 
0

>  <PUBCHEM_ISOTOPIC_ATOM_COUNT>  (1) 
0

>  <PUBCHEM_COMPONENT_COUNT>  (1) 
1

>  <PUBCHEM_CACTVS_TAUTO_COUNT>  (1) 
1

>  <PUBCHEM_CONFORMER_ID>  (1) 
0000390B0000000A

>  <PUBCHEM_MMFF94_ENERGY>  (1) 
53.9355

>  <PUBCHEM_FEATURE_SELFOVERLAP>  (1) 
20.297

>  <PUBCHEM_SHAPE_FINGERPRINT>  (1) 
10014705 185 17603861191487553060
10680689 15 18409733980275468738
11132069 177 15936695873760870003
11315181 36 13407072630975610558
12173636 292 16950839190011251703
12423570 1 13011214592075639495
124424 183 9583525304465373442
12507557 5 17385723638546933748
12932764 1 18272642446433852874
13024252 1 17530679905820422139
13214271 11 17458063763648363903
13675066 3 12612748013362624528
14142880 1 16877937209829773037
16945 1 16661493892305733293
17834072 33 11095871697431475466
17870717 6 13686311192113561312
18186145 218 17775280595467003432
200 152 17530960332461440603
20325693 3 18130790074641347174
20645477 56 18409446968664160737
20645477 70 18268142068280406846
20871999 31 18131624599624375975
23402539 116 17894905252940004542
23557571 272 18040724700765355242
23559900 14 12679456466099189122
26918003 58 10665231440508600316
4175511 318 18060136526771429292
5104073 3 16732978700736310888
74978 22 16271913948198040290

>  <PUBCHEM_SHAPE_MULTIPOLES>  (1) 
333.13
8.99
1.46
1.44
16.11
0.35
-0.17
2.18
0.79
-1.15
0.19
-0.99
-0.22
0.31

>  <PUBCHEM_SHAPE_SELFOVERLAP>  (1) 
680.448

>  <PUBCHEM_SHAPE_VOLUME>  (1) 
194.9

>  <PUBCHEM_COORDINATE_TYPE>  (1) 
2
5
10

$$$$
