14619
     RDKit          3D

 17 19  0  0  0  0  0  0  0  0999 V2000
    0.7695    1.6118   -0.4891 O   0  0  0  0  0  0  0  0  0  0  0  0
   -3.2749    0.2473   -0.0371 N   0  0  0  0  0  0  0  0  0  0  0  0
   -0.5683    1.9275   -0.2851 N   0  0  0  0  0  0  0  0  0  0  0  0
   -4.6869    0.2348    0.3439 C   0  0  0  0  0  0  0  0  0  0  0  0
   -2.9004   -1.1619   -0.1527 C   0  0  0  0  0  0  0  0  0  0  0  0
   -5.2692   -0.8554   -0.5435 C   0  0  0  0  0  0  0  0  0  0  0  0
   -4.0958   -1.7752   -0.8670 C   0  0  0  0  0  0  0  0  0  0  0  0
   -2.4474    0.9654    0.9209 C   0  0  0  0  0  0  0  0  0  0  0  0
   -1.0075    0.9516    0.4883 C   0  0  0  0  0  0  0  0  0  0  0  0
   -0.0523    0.0022    0.8164 C   0  0  0  0  0  0  0  0  0  0  0  0
    1.0648    0.4634    0.1717 C   0  0  0  0  0  0  0  0  0  0  0  0
    2.4200    0.0090    0.0534 C   0  0  0  0  0  0  0  0  0  0  0  0
    2.8291   -1.1645    0.6961 C   0  0  0  0  0  0  0  0  0  0  0  0
    3.3451    0.7351   -0.7048 C   0  0  0  0  0  0  0  0  0  0  0  0
    4.1471   -1.6065    0.5824 C   0  0  0  0  0  0  0  0  0  0  0  0
    4.6630    0.2931   -0.8186 C   0  0  0  0  0  0  0  0  0  0  0  0
    5.0641   -0.8778   -0.1750 C   0  0  0  0  0  0  0  0  0  0  0  0
  1  3  1  0
  1 11  1  0
  2  4  1  0
  2  5  1  0
  2  8  1  0
  3  9  2  0
  4  6  1  0
  5  7  1  0
  6  7  1  0
  8  9  1  0
  9 10  1  0
 10 11  2  0
 11 12  1  0
 12 13  2  0
 12 14  1  0
 13 15  1  0
 14 16  2  0
 15 17  2  0
 16 17  1  0
M  END
>  <PUBCHEM_COMPOUND_CID>  (1) 
14619

>  <PUBCHEM_CONFORMER_RMSD>  (1) 
0.6

>  <PUBCHEM_CONFORMER_DIVERSEORDER>  (1) 
1
14
10
11
12
7
4
13
15
9
8
6
3
5
2

>  <PUBCHEM_MMFF94_PARTIAL_CHARGES>  (1) 
21
1 -0.02
10 -0.15
11 0.09
12 0.05
13 -0.15
14 -0.15
15 -0.15
16 -0.15
17 -0.15
2 -0.81
28 0.15
29 0.15
3 -0.41
30 0.15
31 0.15
32 0.15
33 0.15
4 0.27
5 0.27
8 0.45
9 0.11

>  <PUBCHEM_EFFECTIVE_ROTOR_COUNT>  (1) 
4

>  <PUBCHEM_PHARMACOPHORE_FEATURES>  (1) 
5
1 2 cation
1 3 acceptor
5 1 3 9 10 11 rings
5 2 4 5 6 7 rings
6 12 13 14 15 16 17 rings

>  <PUBCHEM_HEAVY_ATOM_COUNT>  (1) 
17

>  <PUBCHEM_ATOM_DEF_STEREO_COUNT>  (1) 
0

>  <PUBCHEM_ATOM_UDEF_STEREO_COUNT>  (1) 
0

>  <PUBCHEM_BOND_DEF_STEREO_COUNT>  (1) 
0

>  <PUBCHEM_BOND_UDEF_STEREO_COUNT>  (1) 
0

>  <PUBCHEM_ISOTOPIC_ATOM_COUNT>  (1) 
0

>  <PUBCHEM_COMPONENT_COUNT>  (1) 
1

>  <PUBCHEM_CACTVS_TAUTO_COUNT>  (1) 
1

>  <PUBCHEM_CONFORMER_ID>  (1) 
0000391B00000001

>  <PUBCHEM_MMFF94_ENERGY>  (1) 
30.4486

>  <PUBCHEM_FEATURE_SELFOVERLAP>  (1) 
25.373

>  <PUBCHEM_SHAPE_FINGERPRINT>  (1) 
10447042 23 18113613478750213414
11045515 52 18113616776826720093
11046707 91 18273214196870091985
11796584 16 18060421317848105447
11806522 49 18410293627198754800
12236239 1 18411141324572063489
12596602 18 12607400005500046055
12633257 1 15267062613990087595
12644460 14 15410323485825681458
12916748 109 10665231427829303225
13167823 11 18411420600562532794
13288520 33 18201722833861089533
13675066 3 14764630793741039736
13760787 5 18113628875553803017
14251752 14 18187075114903517933
14252887 29 15123516891295754276
14576447 43 18408602591184345350
15183329 4 18262507118912152037
15188451 53 15625926699810770967
15242433 33 18407761443155985175
15342816 4 18411987953247686558
15880784 105 16486687077906459167
17357779 13 16515683338350435724
17804303 29 17917710227700945619
17834072 33 18411703196858036532
1798214 20 18407757049293678095
18186145 218 16153710933347635113
18222031 100 18131067147187096788
18915474 69 18408886256520511014
193927 3 18130235938066643455
19489759 90 16343705400972837121
200 152 18259704480209079688
20281475 54 18341049618907231408
20374829 77 18272366486458913495
20645477 56 12973608837246739025
20645477 70 17168145594557306138
20871999 31 18187639185569194245
21054139 6 18409165537233566270
21250096 35 18413669119084371059
21267235 1 18410020926587191187
221357 26 17676478459078225789
221490 88 18045227286838466235
22485316 2 18411418410092334033
22646028 1 18412545405242035578
22646028 28 18411136926520420530
22854114 59 12319738063858596689
22950370 63 18410857667962989007
23402539 116 18261392213235467324
23402655 69 18113616737986852028
23557571 272 16629699339644724633
23559900 14 18059283357615197121
23622692 118 17897432905676680866
26918003 58 16845574205936463067
2871803 45 18113336384450162826
2916195 48 12396305897517169278
29717793 49 18412547578674816220
3004659 81 18260545610946943750
314194 84 18409171021257671331
351380 3 18341894112741898007
4214541 1 18341332206375793929
4325135 7 18201717397260856216
465052 167 18273219728492966719
4921388 177 16371015160767302643
5104073 3 17917433180930658283
559249 180 18341047424643296507
57096353 35 18041012721678199100
573450 72 18272653407179823241
59682541 52 15358516602311755771
602551 16 17131826603598743886
633830 44 17095529452443211089
7495541 125 17775281677809357080
76465 3 18337103480476184882
960060 61 18113621200716049774
9709674 26 18189345584687214586

>  <PUBCHEM_SHAPE_MULTIPOLES>  (1) 
334.02
11.78
1.67
0.92
1.84
0.09
0.02
5.1
-1.96
0.32
-0.12
-0.09
0.04
-1.26

>  <PUBCHEM_SHAPE_SELFOVERLAP>  (1) 
720.087

>  <PUBCHEM_SHAPE_VOLUME>  (1) 
186.4

>  <PUBCHEM_COORDINATE_TYPE>  (1) 
2
5
10

$$$$
