14610
     RDKit          3D

 17 19  0  0  0  0  0  0  0  0999 V2000
    4.9794    0.7987    0.0029 O   0  0  0  0  0  0  0  0  0  0  0  0
    4.6156   -1.3662    0.0010 O   0  0  0  0  0  0  0  0  0  0  0  0
    4.1986   -0.1831    0.0009 N   0  0  0  0  0  0  0  0  0  0  0  0
   -5.4504   -0.4585    0.0010 N   0  0  0  0  0  0  0  0  0  0  0  0
   -0.5888   -1.7494   -0.0006 C   0  0  0  0  0  0  0  0  0  0  0  0
    0.5582   -0.7605   -0.0013 C   0  0  0  0  0  0  0  0  0  0  0  0
   -1.7907   -0.8281   -0.0005 C   0  0  0  0  0  0  0  0  0  0  0  0
    0.0685    0.5650   -0.0013 C   0  0  0  0  0  0  0  0  0  0  0  0
   -1.3780    0.5233   -0.0008 C   0  0  0  0  0  0  0  0  0  0  0  0
    1.9156   -1.0298   -0.0013 C   0  0  0  0  0  0  0  0  0  0  0  0
   -3.1304   -1.1750    0.0007 C   0  0  0  0  0  0  0  0  0  0  0  0
    0.9436    1.6383   -0.0011 C   0  0  0  0  0  0  0  0  0  0  0  0
   -2.3135    1.5445   -0.0001 C   0  0  0  0  0  0  0  0  0  0  0  0
    2.7975    0.0524   -0.0010 C   0  0  0  0  0  0  0  0  0  0  0  0
   -4.0731   -0.1454    0.0014 C   0  0  0  0  0  0  0  0  0  0  0  0
    2.3165    1.3731   -0.0007 C   0  0  0  0  0  0  0  0  0  0  0  0
   -3.6688    1.2008    0.0009 C   0  0  0  0  0  0  0  0  0  0  0  0
  1  3  1  0
  2  3  2  0
  3 14  1  0
  4 15  1  0
  5  6  1  0
  5  7  1  0
  6  8  2  0
  6 10  1  0
  7  9  2  0
  7 11  1  0
  8  9  1  0
  8 12  1  0
  9 13  1  0
 10 14  2  0
 11 15  2  0
 12 16  2  0
 13 17  2  0
 14 16  1  0
 15 17  1  0
M  CHG  2   1  -1   3   1
M  END
>  <PUBCHEM_COMPOUND_CID>  (1) 
14610

>  <PUBCHEM_CONFORMER_RMSD>  (1) 
0.6

>  <PUBCHEM_CONFORMER_DIVERSEORDER>  (1) 
1

>  <PUBCHEM_MMFF94_PARTIAL_CHARGES>  (1) 
23
1 -0.52
10 -0.15
11 -0.15
12 -0.15
13 -0.15
14 0.13
15 0.1
16 -0.15
17 -0.15
2 -0.52
20 0.15
21 0.15
22 0.15
23 0.15
24 0.15
25 0.15
26 0.4
27 0.4
3 0.91
4 -0.9
5 0.29
6 -0.14
7 -0.14

>  <PUBCHEM_EFFECTIVE_ROTOR_COUNT>  (1) 
1.2

>  <PUBCHEM_PHARMACOPHORE_FEATURES>  (1) 
8
1 1 acceptor
1 1 anion
1 2 acceptor
1 4 cation
1 4 donor
5 5 6 7 8 9 rings
6 6 8 10 12 14 16 rings
6 7 9 11 13 15 17 rings

>  <PUBCHEM_HEAVY_ATOM_COUNT>  (1) 
17

>  <PUBCHEM_ATOM_DEF_STEREO_COUNT>  (1) 
0

>  <PUBCHEM_ATOM_UDEF_STEREO_COUNT>  (1) 
0

>  <PUBCHEM_BOND_DEF_STEREO_COUNT>  (1) 
0

>  <PUBCHEM_BOND_UDEF_STEREO_COUNT>  (1) 
0

>  <PUBCHEM_ISOTOPIC_ATOM_COUNT>  (1) 
0

>  <PUBCHEM_COMPONENT_COUNT>  (1) 
1

>  <PUBCHEM_CACTVS_TAUTO_COUNT>  (1) 
1

>  <PUBCHEM_CONFORMER_ID>  (1) 
0000391200000001

>  <PUBCHEM_MMFF94_ENERGY>  (1) 
69.591

>  <PUBCHEM_FEATURE_SELFOVERLAP>  (1) 
40.841

>  <PUBCHEM_SHAPE_FINGERPRINT>  (1) 
10062212 137 18341043060302577999
10608611 8 18411133654014076641
10967382 1 18410575084937554407
11132069 177 18411696586549849248
11401426 45 18413103978592159638
11471102 20 18410571803355544134
12032990 46 18410577279465246188
12236239 1 17822009808891667472
12251169 10 18408885152581826253
12403259 226 18411693314070184433
12403259 415 18412536622314146233
12715332 25 18060135466157438303
13140716 1 18267029547190994259
13221675 6 18409166618879080914
13288520 33 18412266116377330847
13380535 76 18410858763169431271
13675066 3 18343299292717399306
13690532 89 18410012126140835040
13862211 1 18410569578562919947
14115302 16 17822583788447985022
15042514 8 18266181811078992771
15196674 1 18410575054614177572
15536298 74 18342455975962877536
16945 1 18410575136445461479
17802600 8 18410853270016886549
17804303 29 18411984671470841285
18186145 218 17749661986907837463
18522853 276 18413671318018157209
200 152 18060134349739812389
20510252 161 18201158758716206697
20645477 70 18200879478958518134
21029758 11 18343017804719013529
21267235 1 18410301310895279731
221490 88 18191030199223960155
23402539 116 18272926129392953805
23402655 69 18341887451500654373
23463225 33 18408040701929486692
23559900 14 18343300358544456920
2748010 2 18338517430833212677
3004659 81 18261115128665029022
335352 9 18410856555772123103
350125 39 18410577284225047793
4214541 1 18410573959482192449
474 4 17024037149728031796
5104073 3 18411419496745304696
69090 78 18272649073505229767
7364860 26 18269273641723009160
77779 3 18410013242964311200
8809292 202 18260833747470723811
9709674 26 18412270544563037726
9981440 41 17254276142546020296

>  <PUBCHEM_SHAPE_MULTIPOLES>  (1) 
328.15
9.2
1.71
0.6
1.64
0.09
0
-0.54
0.01
0.02
0
-0.05
0.01
0

>  <PUBCHEM_SHAPE_SELFOVERLAP>  (1) 
737.396

>  <PUBCHEM_SHAPE_VOLUME>  (1) 
175.9

>  <PUBCHEM_COORDINATE_TYPE>  (1) 
2
5
10

$$$$
