14624
     RDKit          3D

 17 19  0  0  0  0  0  0  0  0999 V2000
    0.5991   -0.6340    0.0178 O   0  0  0  0  0  0  0  0  0  0  0  0
   -4.8700   -0.2532   -0.0190 N   0  0  0  0  0  0  0  0  0  0  0  0
   -2.8333    0.6569    0.0092 C   0  0  0  0  0  0  0  0  0  0  0  0
   -3.5268   -0.5550   -0.0126 C   0  0  0  0  0  0  0  0  0  0  0  0
   -0.7633   -0.6015    0.0081 C   0  0  0  0  0  0  0  0  0  0  0  0
   -1.4245    0.6320    0.0196 C   0  0  0  0  0  0  0  0  0  0  0  0
   -2.8793   -1.7956   -0.0244 C   0  0  0  0  0  0  0  0  0  0  0  0
   -3.8065    1.6949    0.0159 C   0  0  0  0  0  0  0  0  0  0  0  0
   -1.4814   -1.7955   -0.0137 C   0  0  0  0  0  0  0  0  0  0  0  0
    1.2767    0.6206    0.0400 C   0  0  0  0  0  0  0  0  0  0  0  0
   -5.0489    1.1041   -0.0022 C   0  0  0  0  0  0  0  0  0  0  0  0
    2.7573    0.3782    0.0159 C   0  0  0  0  0  0  0  0  0  0  0  0
    3.4516    0.2379    1.2123 C   0  0  0  0  0  0  0  0  0  0  0  0
    3.4217    0.2964   -1.2027 C   0  0  0  0  0  0  0  0  0  0  0  0
    4.8281    0.0130    1.1899 C   0  0  0  0  0  0  0  0  0  0  0  0
    4.7981    0.0713   -1.2252 C   0  0  0  0  0  0  0  0  0  0  0  0
    5.5012   -0.0703   -0.0289 C   0  0  0  0  0  0  0  0  0  0  0  0
  1  5  1  0
  1 10  1  0
  2  4  1  0
  2 11  1  0
  3  4  2  0
  3  6  1  0
  3  8  1  0
  4  7  1  0
  5  6  2  0
  5  9  1  0
  7  9  2  0
  8 11  2  0
 10 12  1  0
 12 13  2  0
 12 14  1  0
 13 15  1  0
 14 16  2  0
 15 17  2  0
 16 17  1  0
M  END
>  <PUBCHEM_COMPOUND_CID>  (1) 
14624

>  <PUBCHEM_CONFORMER_RMSD>  (1) 
0.6

>  <PUBCHEM_CONFORMER_DIVERSEORDER>  (1) 
1
25
10
24
23
6
15
18
2
29
14
7
21
8
11
20
3
22
13
19
12
16
17
26
9
27
28
4
5

>  <PUBCHEM_MMFF94_PARTIAL_CHARGES>  (1) 
27
1 -0.36
10 0.42
11 -0.3
12 -0.14
13 -0.15
14 -0.15
15 -0.15
16 -0.15
17 -0.15
18 0.15
19 0.15
2 0.03
20 0.15
21 0.27
22 0.15
25 0.15
26 0.15
27 0.15
28 0.15
29 0.15
30 0.15
4 -0.15
5 0.08
6 -0.15
7 -0.15
8 -0.15
9 -0.15

>  <PUBCHEM_EFFECTIVE_ROTOR_COUNT>  (1) 
3

>  <PUBCHEM_PHARMACOPHORE_FEATURES>  (1) 
6
1 1 acceptor
1 2 cation
1 2 donor
5 2 3 4 8 11 rings
6 12 13 14 15 16 17 rings
6 3 4 5 6 7 9 rings

>  <PUBCHEM_HEAVY_ATOM_COUNT>  (1) 
17

>  <PUBCHEM_ATOM_DEF_STEREO_COUNT>  (1) 
0

>  <PUBCHEM_ATOM_UDEF_STEREO_COUNT>  (1) 
0

>  <PUBCHEM_BOND_DEF_STEREO_COUNT>  (1) 
0

>  <PUBCHEM_BOND_UDEF_STEREO_COUNT>  (1) 
0

>  <PUBCHEM_ISOTOPIC_ATOM_COUNT>  (1) 
0

>  <PUBCHEM_COMPONENT_COUNT>  (1) 
1

>  <PUBCHEM_CACTVS_TAUTO_COUNT>  (1) 
1

>  <PUBCHEM_CONFORMER_ID>  (1) 
0000392000000001

>  <PUBCHEM_MMFF94_ENERGY>  (1) 
45.3115

>  <PUBCHEM_FEATURE_SELFOVERLAP>  (1) 
30.538

>  <PUBCHEM_SHAPE_FINGERPRINT>  (1) 
10354089 29 16877666760065765924
10912923 1 17531245093082559146
11287383 113 16630521860177686885
11796584 16 18343025476427682430
12107183 9 16956170592871609528
12236239 1 17748827423285907572
12390115 104 18057334894700056553
12596602 18 16660371384996189585
12616971 3 17095237034422424098
128620 24 8502658108161823640
12916748 109 18343587330288269209
13167823 11 17968095343590817874
13533116 47 17917430852979658094
13675066 3 17917427674539782946
13760787 5 16877939455997383310
14386348 63 17775289369789776780
14573314 32 18060143111256909572
15042514 8 18194686089047489067
15242439 84 17989490714612053436
15375358 24 17775567541815356574
17804303 29 18411699932545826049
17834072 33 16877665694539193786
17844677 252 18342462577290857376
1813 80 16515687689453233494
19489759 90 18272930518506632105
200 152 14692573203929357795
20279233 1 17561088024877959238
20645477 56 18413389830588866361
20645477 70 16343710894046176380
20681677 155 18187086187223724922
21033648 29 17131821054300329688
21065201 7 18342454863650873922
21267235 1 18336553806382817403
2215653 11 17846502504516729270
2297311 6 18343030994542311565
23175994 123 17275388728619654465
23402539 116 18272644649847092637
23557571 272 18201169831373945903
23559900 14 18202569467090064678
26918003 58 16988844995042076538
2838139 119 16878768428183896037
300161 21 17967246525098877100
3004659 81 18335988567676284886
351380 180 17632855330413207480
3545911 37 18342741801482905199
4214541 1 18410856576819678240
5104073 3 18335985384140012296
522135 26 16660642956236770608
5385378 56 18269564827805152323
542803 24 17676489449545938804
543368 44 17532386437808129188
573450 72 18261384572599495698
59755656 215 18341899528954199478
6430166 295 18409446977190590413
90127 26 18337398243997359056

>  <PUBCHEM_SHAPE_MULTIPOLES>  (1) 
339
12.82
1.4
0.96
5.43
0.34
0.01
-2.17
0.07
-2.02
0.01
1.46
-0.06
-0.05

>  <PUBCHEM_SHAPE_SELFOVERLAP>  (1) 
748.735

>  <PUBCHEM_SHAPE_VOLUME>  (1) 
182.9

>  <PUBCHEM_COORDINATE_TYPE>  (1) 
2
5
10

$$$$
