14633
     RDKit          3D

 18 20  0  0  0  0  0  0  0  0999 V2000
    3.0620   -1.6380   -0.1451 O   0  0  0  0  0  0  0  0  0  0  0  0
    1.2956   -3.0383    0.3471 O   0  0  0  0  0  0  0  0  0  0  0  0
   -2.6250   -0.3646   -0.0671 N   0  0  0  0  0  0  0  0  0  0  0  0
    1.0404   -0.7149    0.4192 N   0  0  0  0  0  0  0  0  0  0  0  0
   -2.8437    0.8844    0.6758 C   0  0  0  0  0  0  0  0  0  0  0  0
   -3.4813   -0.4302   -1.2597 C   0  0  0  0  0  0  0  0  0  0  0  0
   -4.3023    1.0161    1.1164 C   0  0  0  0  0  0  0  0  0  0  0  0
   -4.9609   -0.3416   -0.8822 C   0  0  0  0  0  0  0  0  0  0  0  0
   -5.2519    0.9164   -0.0720 C   0  0  0  0  0  0  0  0  0  0  0  0
   -1.2170   -0.4980   -0.4403 C   0  0  0  0  0  0  0  0  0  0  0  0
   -0.3416   -0.5559    0.8050 C   0  0  0  0  0  0  0  0  0  0  0  0
    1.9066    0.3276    0.1786 C   0  0  0  0  0  0  0  0  0  0  0  0
    1.7300   -1.8992    0.2261 C   0  0  0  0  0  0  0  0  0  0  0  0
    3.1128   -0.2521   -0.1580 C   0  0  0  0  0  0  0  0  0  0  0  0
    1.7342    1.6951    0.2277 C   0  0  0  0  0  0  0  0  0  0  0  0
    4.2210    0.5085   -0.4661 C   0  0  0  0  0  0  0  0  0  0  0  0
    2.8439    2.4864   -0.0807 C   0  0  0  0  0  0  0  0  0  0  0  0
    4.0771    1.8983   -0.4247 C   0  0  0  0  0  0  0  0  0  0  0  0
  1 13  1  0
  1 14  1  0
  2 13  2  0
  3  5  1  0
  3  6  1  0
  3 10  1  0
  4 11  1  0
  4 12  1  0
  4 13  1  0
  5  7  1  0
  6  8  1  0
  7  9  1  0
  8  9  1  0
 10 11  1  0
 12 14  2  0
 12 15  1  0
 14 16  1  0
 15 17  2  0
 16 18  2  0
 17 18  1  0
M  END
>  <PUBCHEM_COMPOUND_CID>  (1) 
14633

>  <PUBCHEM_CONFORMER_RMSD>  (1) 
0.6

>  <PUBCHEM_CONFORMER_DIVERSEORDER>  (1) 
1
11
12
15
31
32
28
23
14
13
24
30
3
22
7
19
29
20
16
27
5
2
10
21
6
26
4
18
17
25
8
9

>  <PUBCHEM_MMFF94_PARTIAL_CHARGES>  (1) 
19
1 -0.23
10 0.27
11 0.3
12 0.12
13 0.78
14 0.08
15 -0.15
16 -0.15
17 -0.15
18 -0.15
2 -0.57
3 -0.81
33 0.15
34 0.15
35 0.15
36 0.15
4 -0.48
5 0.27
6 0.27

>  <PUBCHEM_EFFECTIVE_ROTOR_COUNT>  (1) 
4.2

>  <PUBCHEM_PHARMACOPHORE_FEATURES>  (1) 
5
1 2 acceptor
1 3 cation
5 1 4 12 13 14 rings
6 12 14 15 16 17 18 rings
6 3 5 6 7 8 9 rings

>  <PUBCHEM_HEAVY_ATOM_COUNT>  (1) 
18

>  <PUBCHEM_ATOM_DEF_STEREO_COUNT>  (1) 
0

>  <PUBCHEM_ATOM_UDEF_STEREO_COUNT>  (1) 
0

>  <PUBCHEM_BOND_DEF_STEREO_COUNT>  (1) 
0

>  <PUBCHEM_BOND_UDEF_STEREO_COUNT>  (1) 
0

>  <PUBCHEM_ISOTOPIC_ATOM_COUNT>  (1) 
0

>  <PUBCHEM_COMPONENT_COUNT>  (1) 
1

>  <PUBCHEM_CACTVS_TAUTO_COUNT>  (1) 
1

>  <PUBCHEM_CONFORMER_ID>  (1) 
0000392900000001

>  <PUBCHEM_MMFF94_ENERGY>  (1) 
34.0129

>  <PUBCHEM_FEATURE_SELFOVERLAP>  (1) 
25.485

>  <PUBCHEM_SHAPE_FINGERPRINT>  (1) 
10411042 1 17760648071107738354
10693767 8 18129948858701548406
11471102 20 18408886222218612960
11796584 16 15123243087051656540
12107183 9 17693945090296088017
12236239 1 17989205936462600776
12730499 353 18261118486606742187
13009979 54 17629766660496077122
13167823 11 18272931609792432815
14251717 144 18410571786397337942
14528608 73 18411696617105256989
14848178 96 18266739262941557768
15342168 16 18115030834578704445
16752209 62 16702302317762586595
17834072 33 18341610443236969559
18186145 218 18334857225053705070
19862831 5 17704078416531788153
20612939 158 18409731742296801284
20645477 70 18341050735467249391
21033648 29 17313093147242327197
22289505 5 18263354815747884197
2255824 54 18339077094799678963
231179 274 17748818640009416876
23402655 69 18343021133497795156
23532345 1 18335423452294033203
23598291 2 18130511812384569715
25 1 18335986445392312698
3060560 45 18411700989440175014
3082319 5 18059853974121722753
335352 9 18409451410667608452
341906 21 15213290894790943469
3545911 37 18335987544930327153
4072396 5 18335690655827675008
4280585 95 17413047395750587182
474 4 18335138743022591997
5104073 3 18261110802693816507
543358 83 18341616962401173825
633830 44 18341335569171286484
77779 3 18412826880756861823
8272917 22 18340491075479771831
84936 182 18130222778413683432
9971528 1 18272083847630539730

>  <PUBCHEM_SHAPE_MULTIPOLES>  (1) 
348.73
10.53
2.31
0.93
9.58
0.59
-0.04
-4.01
-1.75
-2.63
0.22
0.82
-0.03
-0.9

>  <PUBCHEM_SHAPE_SELFOVERLAP>  (1) 
743.306

>  <PUBCHEM_SHAPE_VOLUME>  (1) 
194.9

>  <PUBCHEM_COORDINATE_TYPE>  (1) 
2
5
10

$$$$
