1464
     RDKit          3D

 34 39  0  0  0  0  0  0  0  0999 V2000
    9.4948    1.6389    0.5417 O   0  0  0  0  0  0  0  0  0  0  0  0
   -6.9219    0.6859    0.0244 N   0  0  0  0  0  0  0  0  0  0  0  0
   -9.1184    2.5104    0.1003 N   0  0  0  0  0  0  0  0  0  0  0  0
   -2.0633   -0.2586   -0.2550 N   0  0  0  0  0  0  0  0  0  0  0  0
   -2.2919   -2.4255    0.1830 N   0  0  0  0  0  0  0  0  0  0  0  0
    3.2641    0.1044    0.2639 N   0  0  0  0  0  0  0  0  0  0  0  0
    4.1324   -1.8181   -0.4361 N   0  0  0  0  0  0  0  0  0  0  0  0
   -6.9305    1.8614   -0.8516 C   0  0  0  0  0  0  0  0  0  0  0  0
   -7.7549    0.7854    1.2295 C   0  0  0  0  0  0  0  0  0  0  0  0
   -8.3668    2.3033   -1.1435 C   0  0  0  0  0  0  0  0  0  0  0  0
   -9.1645    1.2609    0.8698 C   0  0  0  0  0  0  0  0  0  0  0  0
   -5.7892   -0.1344    0.0741 C   0  0  0  0  0  0  0  0  0  0  0  0
  -10.4711    2.9839   -0.1904 C   0  0  0  0  0  0  0  0  0  0  0  0
   -4.5022    0.4075   -0.1521 C   0  0  0  0  0  0  0  0  0  0  0  0
   -3.4098   -0.4584   -0.0891 C   0  0  0  0  0  0  0  0  0  0  0  0
   -5.9128   -1.5142    0.3510 C   0  0  0  0  0  0  0  0  0  0  0  0
   -3.5268   -1.8185    0.1833 C   0  0  0  0  0  0  0  0  0  0  0  0
   -4.8016   -2.3647    0.4092 C   0  0  0  0  0  0  0  0  0  0  0  0
   -1.4384   -1.4622   -0.0829 C   0  0  0  0  0  0  0  0  0  0  0  0
   -0.0065   -1.6023   -0.1916 C   0  0  0  0  0  0  0  0  0  0  0  0
    2.1917   -0.7159    0.0244 C   0  0  0  0  0  0  0  0  0  0  0  0
    0.8155   -0.5220    0.1480 C   0  0  0  0  0  0  0  0  0  0  0  0
    2.7597   -1.9098   -0.4115 C   0  0  0  0  0  0  0  0  0  0  0  0
    0.5350   -2.8129   -0.6320 C   0  0  0  0  0  0  0  0  0  0  0  0
    1.9200   -2.9848   -0.7484 C   0  0  0  0  0  0  0  0  0  0  0  0
    4.4003   -0.5987   -0.0257 C   0  0  0  0  0  0  0  0  0  0  0  0
    5.7144   -0.0212    0.1211 C   0  0  0  0  0  0  0  0  0  0  0  0
    6.8020   -0.8353    0.4358 C   0  0  0  0  0  0  0  0  0  0  0  0
    5.8963    1.3506   -0.0521 C   0  0  0  0  0  0  0  0  0  0  0  0
    8.0725   -0.2773    0.5774 C   0  0  0  0  0  0  0  0  0  0  0  0
    7.1669    1.9088    0.0894 C   0  0  0  0  0  0  0  0  0  0  0  0
    8.2550    1.0948    0.4042 C   0  0  0  0  0  0  0  0  0  0  0  0
    9.7835    2.8015   -0.2335 C   0  0  0  0  0  0  0  0  0  0  0  0
   11.2664    2.8372   -0.5353 C   0  0  0  0  0  0  0  0  0  0  0  0
  1 32  1  0
  1 33  1  0
  2  8  1  0
  2  9  1  0
  2 12  1  0
  3 10  1  0
  3 11  1  0
  3 13  1  0
  4 15  1  0
  4 19  1  0
  5 17  1  0
  5 19  2  0
  6 21  1  0
  6 26  1  0
  7 23  1  0
  7 26  2  0
  8 10  1  0
  9 11  1  0
 12 14  1  0
 12 16  2  0
 14 15  2  0
 15 17  1  0
 16 18  1  0
 17 18  2  0
 19 20  1  0
 20 22  1  0
 20 24  2  0
 21 22  2  0
 21 23  1  0
 23 25  2  0
 24 25  1  0
 26 27  1  0
 27 28  2  0
 27 29  1  0
 28 30  1  0
 29 31  2  0
 30 32  2  0
 31 32  1  0
 33 34  1  0
M  END
>  <PUBCHEM_COMPOUND_CID>  (1) 
1464

>  <PUBCHEM_CONFORMER_RMSD>  (1) 
1

>  <PUBCHEM_CONFORMER_DIVERSEORDER>  (1) 
1
3
7
4
9
14
11
15
12
8
16
6
13
2
10
5

>  <PUBCHEM_MMFF94_PARTIAL_CHARGES>  (1) 
45
1 -0.36
10 0.27
11 0.27
12 0.1
13 0.27
14 -0.15
15 -0.15
16 -0.15
17 0.23
18 -0.15
19 0.13
2 -0.84
20 0.05
21 -0.15
22 -0.15
23 0.23
24 -0.15
25 -0.15
26 0.13
27 0.05
28 -0.15
29 -0.15
3 -0.81
30 -0.15
31 -0.15
32 0.08
33 0.28
4 0.03
46 0.15
47 0.15
48 0.15
49 0.27
5 -0.57
50 0.15
51 0.15
52 0.15
53 0.27
54 0.15
55 0.15
56 0.15
57 0.15
6 0.03
7 -0.57
8 0.37
9 0.37

>  <PUBCHEM_EFFECTIVE_ROTOR_COUNT>  (1) 
6.2

>  <PUBCHEM_PHARMACOPHORE_FEATURES>  (1) 
13
1 1 acceptor
1 2 cation
1 3 cation
1 4 donor
1 6 donor
3 4 5 19 cation
3 6 7 26 cation
5 4 5 15 17 19 rings
5 6 7 21 23 26 rings
6 12 14 15 16 17 18 rings
6 2 3 8 9 10 11 rings
6 20 21 22 23 24 25 rings
6 27 28 29 30 31 32 rings

>  <PUBCHEM_HEAVY_ATOM_COUNT>  (1) 
34

>  <PUBCHEM_ATOM_DEF_STEREO_COUNT>  (1) 
0

>  <PUBCHEM_ATOM_UDEF_STEREO_COUNT>  (1) 
0

>  <PUBCHEM_BOND_DEF_STEREO_COUNT>  (1) 
0

>  <PUBCHEM_BOND_UDEF_STEREO_COUNT>  (1) 
0

>  <PUBCHEM_ISOTOPIC_ATOM_COUNT>  (1) 
0

>  <PUBCHEM_COMPONENT_COUNT>  (1) 
1

>  <PUBCHEM_CACTVS_TAUTO_COUNT>  (1) 
7

>  <PUBCHEM_CONFORMER_ID>  (1) 
000005B800000001

>  <PUBCHEM_MMFF94_ENERGY>  (1) 
96.253

>  <PUBCHEM_FEATURE_SELFOVERLAP>  (1) 
66.189

>  <PUBCHEM_SHAPE_FINGERPRINT>  (1) 
10 15 18113620050260991187
10533779 47 16081082628930417040
10835480 77 18341613694437833939
10930396 42 17022903442013593981
11409948 8 18261685814355438177
11421887 21 18130796620647026560
11421887 45 18270385196677135880
11456790 92 14706927337015061773
11463208 3 8935003681101684528
11578821 258 18412826905952620648
11607047 141 18041835092527046202
11607047 74 10519110769696086250
11672396 167 9295290534477468481
12089408 11 18334852840594099290
12522641 33 17632581544182305430
12522641 68 18060421356577567918
12539745 222 11891330929698872263
13248334 5 18197220235574406278
13530399 1 18187932850323357964
13553643 46 18261670385578383461
13740195 50 18186526514942280579
14251920 17 18411979149577891125
14359421 15 11384117431775107741
14617042 71 18411421722029460684
15198563 99 15267076826078842386
15247644 1 9294748485075859808
15350500 55 18412543210582540071
15461852 350 17632010952648815775
1577012 14 18410004429961029827
15840311 113 18335423440100526774
15890870 6 18342176678903649680
16087824 20 18412263939779205064
1754911 235 17489868250036914164
1768 4 18341338821405781705
1818759 1 9151168766765137041
19302320 297 18186523219901089284
19315958 150 18340209600751227911
20105231 36 12035445005203722368
20156587 128 15482123682542150556
2026 5 8574720095661911601
20721686 146 18341896281362454820
21057603 323 9871484089421186315
212700 22 8430330017448357376
21362267 313 18409161127214322272
21585482 111 18410575106803118956
23523787 8 15985100816918385718
23524908 199 17560810897320691478
23576562 1 15984237747988323305
24771293 8 18334012817430264415
25025965 108 11170197618418412745
25242607 90 11891335378551331796
3711267 37 18339935860647003729
3918712 181 18342737433923425080
4073 2 18335424586071506379
4169191 19 18272371941373230833
437795 150 14117220824594604701
4403749 210 18341895229597587847
44280117 145 18268709579858556639
44389302 135 12179837295152166168
4516262 110 18272088266545524774
54039377 194 8574711308158155003
5470011 282 11815884670107921450
6201320 82 18058744519761585097
6204607 403 17751649973737979100
636775 72 18410573951704978993
636775 8 11959719500595005989
9953998 17 17894349986714997123
9980921 7 18334853931900609477

>  <PUBCHEM_SHAPE_MULTIPOLES>  (1) 
663.95
39.63
3.55
0.83
14.61
0.56
0
49.78
2.31
-0.61
-0.69
-0.71
0.11
0.73

>  <PUBCHEM_SHAPE_SELFOVERLAP>  (1) 
1477.893

>  <PUBCHEM_SHAPE_VOLUME>  (1) 
357.8

>  <PUBCHEM_COORDINATE_TYPE>  (1) 
2
5
10

$$$$
