14655
     RDKit          3D

 19 20  0  0  0  0  0  0  0  0999 V2000
   -0.0001    2.5536    0.0000 S   0  0  0  0  0  0  0  0  0  0  0  0
   -4.7347   -2.0554   -1.0505 O   0  0  0  0  0  0  0  0  0  0  0  0
    4.7343   -2.0554    1.0505 O   0  0  0  0  0  0  0  0  0  0  0  0
   -5.4703   -1.2073    0.8359 O   0  0  0  0  0  0  0  0  0  0  0  0
    5.4699   -1.2074   -0.8359 O   0  0  0  0  0  0  0  0  0  0  0  0
   -4.6325   -1.2457   -0.0974 N   0  0  0  0  0  0  0  0  0  0  0  0
    4.6321   -1.2457    0.0974 N   0  0  0  0  0  0  0  0  0  0  0  0
   -1.3777    1.4233   -0.0283 C   0  0  0  0  0  0  0  0  0  0  0  0
    1.3810    1.4202    0.0284 C   0  0  0  0  0  0  0  0  0  0  0  0
   -1.5121    0.5140   -1.0776 C   0  0  0  0  0  0  0  0  0  0  0  0
    1.5117    0.5140    1.0776 C   0  0  0  0  0  0  0  0  0  0  0  0
   -2.3219    1.4481    0.9982 C   0  0  0  0  0  0  0  0  0  0  0  0
    2.3214    1.4480   -0.9983 C   0  0  0  0  0  0  0  0  0  0  0  0
   -3.5346   -0.3455   -0.0741 C   0  0  0  0  0  0  0  0  0  0  0  0
    3.5342   -0.3455    0.0741 C   0  0  0  0  0  0  0  0  0  0  0  0
   -2.5906   -0.3703   -1.1005 C   0  0  0  0  0  0  0  0  0  0  0  0
    2.5903   -0.3702    1.1005 C   0  0  0  0  0  0  0  0  0  0  0  0
   -3.4003    0.5636    0.9753 C   0  0  0  0  0  0  0  0  0  0  0  0
    3.3999    0.5636   -0.9753 C   0  0  0  0  0  0  0  0  0  0  0  0
  1  8  1  0
  1  9  1  0
  2  6  1  0
  3  7  1  0
  4  6  2  0
  5  7  2  0
  6 14  1  0
  7 15  1  0
  8 10  2  0
  8 12  1  0
  9 11  2  0
  9 13  1  0
 10 16  1  0
 11 17  1  0
 12 18  2  0
 13 19  2  0
 14 16  2  0
 14 18  1  0
 15 17  2  0
 15 19  1  0
M  CHG  4   2  -1   3  -1   6   1   7   1
M  END
>  <PUBCHEM_COMPOUND_CID>  (1) 
14655

>  <PUBCHEM_CONFORMER_RMSD>  (1) 
0.6

>  <PUBCHEM_CONFORMER_DIVERSEORDER>  (1) 
1
2
3
4

>  <PUBCHEM_MMFF94_PARTIAL_CHARGES>  (1) 
27
1 -0.2
10 -0.15
11 -0.15
12 -0.15
13 -0.15
14 0.13
15 0.13
16 -0.15
17 -0.15
18 -0.15
19 -0.15
2 -0.52
20 0.15
21 0.15
22 0.15
23 0.15
24 0.15
25 0.15
26 0.15
27 0.15
3 -0.52
4 -0.52
5 -0.52
6 0.91
7 0.91
8 0.1
9 0.1

>  <PUBCHEM_EFFECTIVE_ROTOR_COUNT>  (1) 
4

>  <PUBCHEM_PHARMACOPHORE_FEATURES>  (1) 
8
1 2 acceptor
1 2 anion
1 3 acceptor
1 3 anion
1 4 acceptor
1 5 acceptor
6 8 10 12 14 16 18 rings
6 9 11 13 15 17 19 rings

>  <PUBCHEM_HEAVY_ATOM_COUNT>  (1) 
19

>  <PUBCHEM_ATOM_DEF_STEREO_COUNT>  (1) 
0

>  <PUBCHEM_ATOM_UDEF_STEREO_COUNT>  (1) 
0

>  <PUBCHEM_BOND_DEF_STEREO_COUNT>  (1) 
0

>  <PUBCHEM_BOND_UDEF_STEREO_COUNT>  (1) 
0

>  <PUBCHEM_ISOTOPIC_ATOM_COUNT>  (1) 
0

>  <PUBCHEM_COMPONENT_COUNT>  (1) 
1

>  <PUBCHEM_CACTVS_TAUTO_COUNT>  (1) 
1

>  <PUBCHEM_CONFORMER_ID>  (1) 
0000393F00000001

>  <PUBCHEM_MMFF94_ENERGY>  (1) 
57.8939

>  <PUBCHEM_FEATURE_SELFOVERLAP>  (1) 
40.761

>  <PUBCHEM_SHAPE_FINGERPRINT>  (1) 
10498660 4 12251904784778055678
11046707 91 18340765949112886352
11578080 2 18338497699417221684
11961588 58 12396587376646194582
12596602 18 17203609306649757522
12633257 1 15697991972374542916
12892183 10 15697728016569588544
13103583 49 17988935439612268265
13533116 47 18267024045585664833
13675066 3 15769781225514569996
13955234 65 18122909990669824352
14123255 352 9367344833985472963
14178342 30 17702679738973138745
1420 369 18413387644107822742
14576447 43 18187086127199567138
14767858 380 18042141954864883204
15188451 53 16773224211047510287
15239191 94 18411699889358724193
15342168 16 10087643701893225977
15342816 4 18340497741459082036
17780758 139 17846212194634035136
17834072 32 9007050284022168702
1813 80 18336840735419673661
18915474 69 18334297590957545500
193927 3 18410580586516328011
19422 9 18410581681733397733
19784866 240 18408045104418638725
200 152 18040435486115197713
20281475 54 18410576188470213152
20291156 8 18410570690917154149
20388580 30 18187367648983477788
20621476 21 17843129104618491590
20645477 70 17676768768169712892
20871999 31 15430033245271096917
21033648 29 15051465881384915945
21713013 43 17458620125227409413
22646028 28 18410855460128259237
22950370 63 18410580582221406180
23402539 116 18114747010866591184
23402655 69 11891329850659409460
23503953 91 15339115779589335025
23503958 8 18130788914900035017
235170 7 15864065459977236331
23559900 14 18339071709580492457
23596394 208 16515677840771060802
2838139 119 11746933209161112614
2871803 45 17530679926657111169
312423 11 18410020948035959212
328317 168 7853577902788769905
3286 77 18273210919472760008
351380 3 18410577287981620067
4028521 119 12468360141285329589
4259306 186 18040999539785406850
465052 167 18268439095560127207
5104073 3 18059860570965052689
559249 180 18339360769611528225
76465 3 18410854360616793857
7808743 9 8862649210027379918
7970288 3 18410571786129111522
960060 61 17822006562276323725

>  <PUBCHEM_SHAPE_MULTIPOLES>  (1) 
361.42
11.3
2.17
1.23
0.01
0.19
0
-9.43
0
0
0
0
-0.06
-1.07

>  <PUBCHEM_SHAPE_SELFOVERLAP>  (1) 
764.477

>  <PUBCHEM_SHAPE_VOLUME>  (1) 
204.1

>  <PUBCHEM_COORDINATE_TYPE>  (1) 
2
5
10

$$$$
