14650
     RDKit          3D

 19 21  0  0  0  0  0  0  0  0999 V2000
    0.0294    2.5334    0.1041 O   0  0  0  0  0  0  0  0  0  0  0  0
   -1.0814   -2.6899   -0.0686 O   0  0  0  0  0  0  0  0  0  0  0  0
    2.6069    2.1235    0.1451 N   0  0  0  0  0  0  0  0  0  0  0  0
    1.4386   -3.3667   -0.0333 N   0  0  0  0  0  0  0  0  0  0  0  0
    0.9029    0.3306    0.0602 C   0  0  0  0  0  0  0  0  0  0  0  0
    0.6126   -1.0345    0.0152 C   0  0  0  0  0  0  0  0  0  0  0  0
   -1.5869    0.8614    0.0235 C   0  0  0  0  0  0  0  0  0  0  0  0
   -1.8772   -0.5039   -0.0216 C   0  0  0  0  0  0  0  0  0  0  0  0
   -0.1862    1.3285    0.0660 C   0  0  0  0  0  0  0  0  0  0  0  0
    2.2348    0.7604    0.1001 C   0  0  0  0  0  0  0  0  0  0  0  0
   -0.7880   -1.5017   -0.0273 C   0  0  0  0  0  0  0  0  0  0  0  0
    1.6542   -1.9701    0.0101 C   0  0  0  0  0  0  0  0  0  0  0  0
    3.2698   -0.1753    0.0949 C   0  0  0  0  0  0  0  0  0  0  0  0
    2.9802   -1.5376    0.0499 C   0  0  0  0  0  0  0  0  0  0  0  0
   -2.6284    1.7970    0.0284 C   0  0  0  0  0  0  0  0  0  0  0  0
   -3.2092   -0.9335   -0.0617 C   0  0  0  0  0  0  0  0  0  0  0  0
   -3.9543    1.3645   -0.0117 C   0  0  0  0  0  0  0  0  0  0  0  0
   -4.2440    0.0022   -0.0567 C   0  0  0  0  0  0  0  0  0  0  0  0
    3.8262    2.6115   -0.4165 C   0  0  0  0  0  0  0  0  0  0  0  0
  1  9  2  0
  2 11  2  0
  3 10  1  0
  3 19  1  0
  4 12  1  0
  5  6  2  0
  5  9  1  0
  5 10  1  0
  6 11  1  0
  6 12  1  0
  7  8  2  0
  7  9  1  0
  7 15  1  0
  8 11  1  0
  8 16  1  0
 10 13  2  0
 12 14  2  0
 13 14  1  0
 15 17  2  0
 16 18  2  0
 17 18  1  0
M  END
>  <PUBCHEM_COMPOUND_CID>  (1) 
14650

>  <PUBCHEM_CONFORMER_RMSD>  (1) 
0.6

>  <PUBCHEM_CONFORMER_DIVERSEORDER>  (1) 
1

>  <PUBCHEM_MMFF94_PARTIAL_CHARGES>  (1) 
28
1 -0.57
10 0.1
11 0.4
12 0.1
13 -0.15
14 -0.15
15 -0.15
16 -0.15
17 -0.15
18 -0.15
19 0.37
2 -0.57
20 0.15
21 0.15
22 0.15
23 0.15
24 0.4
25 0.15
26 0.15
27 0.4
28 0.4
3 -0.87
4 -0.9
5 0.09
6 0.09
7 0.09
8 0.09
9 0.4

>  <PUBCHEM_EFFECTIVE_ROTOR_COUNT>  (1) 
1

>  <PUBCHEM_PHARMACOPHORE_FEATURES>  (1) 
9
1 1 acceptor
1 2 acceptor
1 3 cation
1 3 donor
1 4 cation
1 4 donor
6 5 6 10 12 13 14 rings
6 5 6 7 8 9 11 rings
6 7 8 15 16 17 18 rings

>  <PUBCHEM_HEAVY_ATOM_COUNT>  (1) 
19

>  <PUBCHEM_ATOM_DEF_STEREO_COUNT>  (1) 
0

>  <PUBCHEM_ATOM_UDEF_STEREO_COUNT>  (1) 
0

>  <PUBCHEM_BOND_DEF_STEREO_COUNT>  (1) 
0

>  <PUBCHEM_BOND_UDEF_STEREO_COUNT>  (1) 
0

>  <PUBCHEM_ISOTOPIC_ATOM_COUNT>  (1) 
0

>  <PUBCHEM_COMPONENT_COUNT>  (1) 
1

>  <PUBCHEM_CACTVS_TAUTO_COUNT>  (1) 
9

>  <PUBCHEM_CONFORMER_ID>  (1) 
0000393A00000001

>  <PUBCHEM_MMFF94_ENERGY>  (1) 
85.3616

>  <PUBCHEM_FEATURE_SELFOVERLAP>  (1) 
45.711

>  <PUBCHEM_SHAPE_FINGERPRINT>  (1) 
10319926 262 17695607938931764584
10411042 1 17618222806480839971
10608611 8 18336543828904802405
10616163 171 18265899248746932342
10967382 1 18411135835593244689
10980938 120 18410854369238130241
11132069 177 18340759356379934361
11471102 20 18338793420820266087
12553582 1 17762623888906489451
13140716 1 18410004472920778482
13583140 156 16950823869615045505
138480 1 18122344575747500942
13897977 150 18410290268460404789
14223421 5 18407762521377230403
14790565 3 18194135224783989497
15196674 1 18410855473472103521
15442244 35 18052257289144898635
15536298 74 18342737394788287780
16945 1 18338798892867122402
18186145 218 18270121206104935757
19591789 44 18339082691152030382
20510252 161 17981895451206120504
20645477 70 18336540547702548261
20739085 24 18119838866126192097
21267235 1 18339651053081074063
21501502 16 18411695517092403999
221490 88 18409175389181434323
2255824 54 18409730625800697362
2334 1 18411135882858990472
23366157 5 18113620054181489922
23402539 116 18271231729807501182
23463225 33 18338516326905291603
23559900 14 18340762625087507818
238 59 17685169986504859869
2748010 2 18410858767289929031
3091708 16 9259963212781484546
335352 9 18194964041327220614
350125 39 18337957774803741780
394222 165 18041836333149719120
5104073 3 18409450280495377529
7364860 26 18412544276029575030
84936 182 18201716266872412544
9709674 26 18411141299092936207
9981440 41 18264483069533844450

>  <PUBCHEM_SHAPE_MULTIPOLES>  (1) 
369.31
6.63
3.25
0.61
2.36
0.64
-0.01
-2.46
-0.26
-2.14
-0.13
-0.02
-0.03
-0.22

>  <PUBCHEM_SHAPE_SELFOVERLAP>  (1) 
830.603

>  <PUBCHEM_SHAPE_VOLUME>  (1) 
193.7

>  <PUBCHEM_COORDINATE_TYPE>  (1) 
2
5
10

$$$$
