14660
     RDKit          3D

 20 21  0  0  1  0  0  0  0  0999 V2000
    5.1137   -0.6968    0.3995 O   0  0  0  0  0  0  0  0  0  0  0  0
    2.5697    0.3868   -0.2750 N   0  0  0  0  0  0  0  0  0  0  0  0
   -1.6245    2.1248   -2.2773 N   0  0  0  0  0  0  0  0  0  0  0  0
   -1.2760    0.8803    0.0392 C   0  0  0  0  0  0  0  0  0  0  0  0
    0.2613    0.9449    0.3570 C   0  0  0  0  0  0  0  0  0  0  0  0
   -2.0939    1.6630    1.1526 C   0  0  0  0  0  0  0  0  0  0  0  0
    1.1703    0.2558   -0.6756 C   0  0  0  0  0  0  0  0  0  0  0  0
   -1.7391   -0.5957    0.0185 C   0  0  0  0  0  0  0  0  0  0  0  0
    2.8065   -0.2720    1.0169 C   0  0  0  0  0  0  0  0  0  0  0  0
    3.4604   -0.1774   -1.2986 C   0  0  0  0  0  0  0  0  0  0  0  0
   -3.6130    1.6722    0.8961 C   0  0  0  0  0  0  0  0  0  0  0  0
   -1.6308    3.1132    1.3756 C   0  0  0  0  0  0  0  0  0  0  0  0
    4.2748   -0.1320    1.4079 C   0  0  0  0  0  0  0  0  0  0  0  0
    4.9136   -0.0408   -0.8531 C   0  0  0  0  0  0  0  0  0  0  0  0
   -1.4770    1.5727   -1.2666 C   0  0  0  0  0  0  0  0  0  0  0  0
   -2.2617   -1.0882   -1.1458 C   0  0  0  0  0  0  0  0  0  0  0  0
   -1.6005   -1.3283    1.1656 C   0  0  0  0  0  0  0  0  0  0  0  0
   -2.6790   -2.4190   -1.1647 C   0  0  0  0  0  0  0  0  0  0  0  0
   -2.0178   -2.6592    1.1466 C   0  0  0  0  0  0  0  0  0  0  0  0
   -2.5571   -3.2045   -0.0186 C   0  0  0  0  0  0  0  0  0  0  0  0
  1 13  1  0
  1 14  1  0
  2  7  1  0
  2  9  1  0
  2 10  1  0
  3 15  3  0
  4  5  1  0
  4  6  1  0
  4  8  1  0
  4 15  1  0
  5  7  1  0
  6 11  1  0
  6 12  1  0
  8 16  2  0
  8 17  1  0
  9 13  1  0
 10 14  1  0
 16 18  1  0
 17 19  2  0
 18 20  2  0
 19 20  1  0
M  END
>  <PUBCHEM_COMPOUND_CID>  (1) 
14660

>  <PUBCHEM_CONFORMER_RMSD>  (1) 
0.8

>  <PUBCHEM_CONFORMER_DIVERSEORDER>  (1) 
1
18
11
16
15
14
5
10
12
6
13
17
2
9
3
8
7
4

>  <PUBCHEM_MMFF94_PARTIAL_CHARGES>  (1) 
21
1 -0.56
10 0.27
13 0.28
14 0.28
15 0.36
16 -0.15
17 -0.15
18 -0.15
19 -0.15
2 -0.81
20 -0.15
3 -0.56
4 0.34
40 0.15
41 0.15
42 0.15
43 0.15
44 0.15
7 0.27
8 -0.14
9 0.27

>  <PUBCHEM_EFFECTIVE_ROTOR_COUNT>  (1) 
6.2

>  <PUBCHEM_PHARMACOPHORE_FEATURES>  (1) 
6
1 1 acceptor
1 2 cation
1 3 acceptor
3 6 11 12 hydrophobe
6 1 2 9 10 13 14 rings
6 8 16 17 18 19 20 rings

>  <PUBCHEM_HEAVY_ATOM_COUNT>  (1) 
20

>  <PUBCHEM_ATOM_DEF_STEREO_COUNT>  (1) 
0

>  <PUBCHEM_ATOM_UDEF_STEREO_COUNT>  (1) 
1

>  <PUBCHEM_BOND_DEF_STEREO_COUNT>  (1) 
0

>  <PUBCHEM_BOND_UDEF_STEREO_COUNT>  (1) 
0

>  <PUBCHEM_ISOTOPIC_ATOM_COUNT>  (1) 
0

>  <PUBCHEM_COMPONENT_COUNT>  (1) 
1

>  <PUBCHEM_CACTVS_TAUTO_COUNT>  (1) 
1

>  <PUBCHEM_CONFORMER_ID>  (1) 
0000394400000001

>  <PUBCHEM_MMFF94_ENERGY>  (1) 
55.2741

>  <PUBCHEM_FEATURE_SELFOVERLAP>  (1) 
30.446

>  <PUBCHEM_SHAPE_FINGERPRINT>  (1) 
11405975 8 18271246024365718266
11552529 35 18341610443194959734
12173636 292 18055918697178021993
12346177 29 18409721846839915782
12363563 72 18198060489525933670
12403814 3 17822297842537101493
12553582 1 18054804037105770990
12616971 3 17603592907325813004
12788726 201 18338813315446410947
13004483 165 17986670579056489927
14178342 30 18341895156529480322
16752209 62 18188751933853880618
16945 1 18270415944336210897
20600515 1 17682931625533021385
20602899 9 18263906770938267389
20681651 13 18260536810880734056
20832881 197 18120652698373754259
22224240 67 17986970574528469169
23419403 2 17765397184018650405
23557571 272 18200866370470047088
23559900 14 18263628723466842752
23598288 3 18269851954710553877
23728640 28 18411990139249182579
3027735 51 18412819183912515975
312423 11 18262529211844133804
4921388 177 18413112745000277446
59755656 520 18197496221017396573
6049 1 17489875955540299464
7615 1 17967817167449612396
81228 2 18409731781035935403

>  <PUBCHEM_SHAPE_MULTIPOLES>  (1) 
395.76
7.97
3.2
1.7
14.03
0.46
0.41
1.86
-0.5
-5.08
-0.52
-0.22
-0.44
-0.39

>  <PUBCHEM_SHAPE_SELFOVERLAP>  (1) 
812.939

>  <PUBCHEM_SHAPE_VOLUME>  (1) 
226

>  <PUBCHEM_COORDINATE_TYPE>  (1) 
2
5
10

$$$$
