14666
     RDKit          3D

 20 23  0  0  1  0  0  0  0  0999 V2000
    2.2201    0.7000    2.0056 O   0  0  0  0  0  0  0  0  0  0  0  0
   -0.2791    0.5681   -0.7209 C   0  0  0  0  0  0  0  0  0  0  0  0
    0.4107   -0.7182   -0.2036 C   0  0  0  0  0  0  0  0  0  0  0  0
    1.9069   -0.7945   -0.6211 C   0  0  0  0  0  0  0  0  0  0  0  0
   -1.8280    0.6345   -0.3988 C   0  0  0  0  0  0  0  0  0  0  0  0
    2.7341    0.4952   -0.3990 C   0  0  0  0  0  0  0  0  0  0  0  0
   -2.5257   -0.6939   -0.8416 C   0  0  0  0  0  0  0  0  0  0  0  0
    0.4993    1.7986   -0.2232 C   0  0  0  0  0  0  0  0  0  0  0  0
    1.9495    1.7845   -0.6901 C   0  0  0  0  0  0  0  0  0  0  0  0
   -0.3359   -1.9559   -0.7291 C   0  0  0  0  0  0  0  0  0  0  0  0
    2.6675   -1.8671    0.1925 C   0  0  0  0  0  0  0  0  0  0  0  0
    3.2218    0.3511    1.0610 C   0  0  0  0  0  0  0  0  0  0  0  0
   -1.7980   -1.9426   -0.3197 C   0  0  0  0  0  0  0  0  0  0  0  0
   -2.0983    0.8872    1.1111 C   0  0  0  0  0  0  0  0  0  0  0  0
    3.5450   -1.1337    1.2129 C   0  0  0  0  0  0  0  0  0  0  0  0
   -4.0111   -0.7579   -0.4307 C   0  0  0  0  0  0  0  0  0  0  0  0
   -2.4367    1.8083   -1.2173 C   0  0  0  0  0  0  0  0  0  0  0  0
    3.9722    0.4922   -1.3347 C   0  0  0  0  0  0  0  0  0  0  0  0
   -3.5781    0.8217    1.4949 C   0  0  0  0  0  0  0  0  0  0  0  0
   -4.2362   -0.4773    1.0518 C   0  0  0  0  0  0  0  0  0  0  0  0
  1 12  1  0
  2  3  1  0
  2  5  1  0
  2  8  1  0
  3  4  1  0
  3 10  1  0
  4  6  1  0
  4 11  1  0
  5  7  1  0
  5 14  1  0
  5 17  1  0
  6  9  1  0
  6 12  1  0
  6 18  1  0
  7 13  1  0
  7 16  1  0
  8  9  1  0
 10 13  1  0
 11 15  1  0
 12 15  1  0
 14 19  1  0
 16 20  1  0
 19 20  1  0
M  END
>  <PUBCHEM_COMPOUND_CID>  (1) 
14666

>  <PUBCHEM_CONFORMER_RMSD>  (1) 
0.6

>  <PUBCHEM_CONFORMER_DIVERSEORDER>  (1) 
2
34
48
10
24
7
18
8
23
22
39
35
37
11
4
46
6
47
5
21
12
43
42
9
17
15
29
45
1
27
25
36
14
20
31
26
3
30
38
32
13
16
40
19
44
28
41
33

>  <PUBCHEM_MMFF94_PARTIAL_CHARGES>  (1) 
3
1 -0.68
12 0.28
52 0.4

>  <PUBCHEM_EFFECTIVE_ROTOR_COUNT>  (1) 
2.2

>  <PUBCHEM_PHARMACOPHORE_FEATURES>  (1) 
6
1 1 acceptor
1 1 donor
5 4 6 11 12 15 rings
6 2 3 4 6 8 9 rings
6 2 3 5 7 10 13 rings
6 5 7 14 16 19 20 rings

>  <PUBCHEM_HEAVY_ATOM_COUNT>  (1) 
20

>  <PUBCHEM_ATOM_DEF_STEREO_COUNT>  (1) 
2

>  <PUBCHEM_ATOM_UDEF_STEREO_COUNT>  (1) 
5

>  <PUBCHEM_BOND_DEF_STEREO_COUNT>  (1) 
0

>  <PUBCHEM_BOND_UDEF_STEREO_COUNT>  (1) 
0

>  <PUBCHEM_ISOTOPIC_ATOM_COUNT>  (1) 
0

>  <PUBCHEM_COMPONENT_COUNT>  (1) 
1

>  <PUBCHEM_CACTVS_TAUTO_COUNT>  (1) 
1

>  <PUBCHEM_CONFORMER_ID>  (1) 
0000394A00000002

>  <PUBCHEM_MMFF94_ENERGY>  (1) 
69.3579

>  <PUBCHEM_FEATURE_SELFOVERLAP>  (1) 
30.635

>  <PUBCHEM_SHAPE_FINGERPRINT>  (1) 
10366900 7 17822583801290506969
10646746 165 17060346210009626451
10863032 1 12463276008213916516
10980938 120 18335423469563618638
11086676 242 18260545623916059768
11132069 177 18272087206120807439
11552529 35 18119268378615949715
11578080 2 18126536064444561001
12077114 3 18116138996481422581
12173636 292 17275104999164797687
12202030 40 15213009449504483074
12251169 10 18411419526778374319
12382932 28 18341884178339721220
12403814 3 18260828202931454805
12553582 1 18408323314956648908
12644460 14 18114192963868729972
13140716 1 18121779705563610947
13172582 1 18410854339146978839
13221675 6 18334863860931229918
13224815 77 18343861121536656717
13296908 3 17676767582753243580
13581323 91 18410853261110193999
13693222 15 18333733502927390095
14144814 61 18409164424187592646
14178342 30 18270668896082168210
14289901 80 17894349968864974539
14787075 74 16590299616010031565
15209294 21 17846218830485211811
15238133 3 17560250128324588880
15309172 13 18410859858391106783
15375462 189 18261116283261937352
16752209 62 18262784212383962581
16945 1 18336258037190313615
17349148 13 18271236222955157695
1813 80 17459461145019219410
18186145 218 17703789197713146956
18219364 16 18268143167575126445
19422 9 17676487207483462940
200 152 13912323486182079898
20261772 1 18411425033090250979
20559304 39 18334290985524580846
20645477 70 17603577543289103751
21267235 1 18335145276105822702
21503847 285 16917355835377619240
21756936 100 16412073214456242936
2255824 54 18116440434535054156
2334 1 18338794520310873086
23463225 33 18408603656024829742
23493267 7 17532940385183010820
23557571 272 17415830551247386622
23559900 14 17970900064509217166
2748010 2 18122060905852423167
296302 2 16226050023968764733
312423 11 17531537490039894812
3286 77 17917981767991286010
465052 167 18114195171946196155
474 4 17680154263709960404
5104073 3 18333730191402493761
5262128 65 11747498250948230122
633830 44 16988562389961426793
81228 2 17983001538455681143

>  <PUBCHEM_SHAPE_MULTIPOLES>  (1) 
405.72
7.46
2.01
1.45
1.23
0.17
0.5
0.5
1.5
-0.1
-0.39
-0.12
-0.24
-0.51

>  <PUBCHEM_SHAPE_SELFOVERLAP>  (1) 
858.196

>  <PUBCHEM_SHAPE_VOLUME>  (1) 
224.5

>  <PUBCHEM_COORDINATE_TYPE>  (1) 
2
5
10

$$$$
