14674
     RDKit          3D

 21 23  0  0  0  0  0  0  0  0999 V2000
   -7.3444   -1.3078    0.5518 F   0  0  0  0  0  0  0  0  0  0  0  0
   -2.5187    0.9492   -0.7747 O   0  0  0  0  0  0  0  0  0  0  0  0
    0.9523    0.7540    0.4501 N   0  0  0  0  0  0  0  0  0  0  0  0
    3.8498    0.0691    0.4704 C   0  0  0  0  0  0  0  0  0  0  0  0
    4.9561   -0.6472    1.2864 C   0  0  0  0  0  0  0  0  0  0  0  0
    4.4988    0.7139   -0.7836 C   0  0  0  0  0  0  0  0  0  0  0  0
    2.7295   -0.9329    0.0927 C   0  0  0  0  0  0  0  0  0  0  0  0
    3.2133    1.1655    1.3606 C   0  0  0  0  0  0  0  0  0  0  0  0
    5.7796   -1.6338    0.4598 C   0  0  0  0  0  0  0  0  0  0  0  0
    5.3333   -0.2636   -1.6124 C   0  0  0  0  0  0  0  0  0  0  0  0
    1.4792   -0.2539   -0.4768 C   0  0  0  0  0  0  0  0  0  0  0  0
    1.9539    1.7838    0.7471 C   0  0  0  0  0  0  0  0  0  0  0  0
    6.3888   -0.9654   -0.7665 C   0  0  0  0  0  0  0  0  0  0  0  0
   -0.2646    1.3608   -0.0883 C   0  0  0  0  0  0  0  0  0  0  0  0
   -1.3526    0.3140   -0.2672 C   0  0  0  0  0  0  0  0  0  0  0  0
   -3.7232    0.3857   -0.4432 C   0  0  0  0  0  0  0  0  0  0  0  0
   -3.8048   -0.9845   -0.2245 C   0  0  0  0  0  0  0  0  0  0  0  0
   -4.8510    1.1906   -0.3296 C   0  0  0  0  0  0  0  0  0  0  0  0
   -5.0309   -1.5580    0.1123 C   0  0  0  0  0  0  0  0  0  0  0  0
   -6.0771    0.6173    0.0073 C   0  0  0  0  0  0  0  0  0  0  0  0
   -6.1671   -0.7571    0.2283 C   0  0  0  0  0  0  0  0  0  0  0  0
  1 21  1  0
  2 15  1  0
  2 16  1  0
  3 11  1  0
  3 12  1  0
  3 14  1  0
  4  5  1  0
  4  6  1  0
  4  7  1  0
  4  8  1  0
  5  9  1  0
  6 10  1  0
  7 11  1  0
  8 12  1  0
  9 13  1  0
 10 13  1  0
 14 15  1  0
 16 17  2  0
 16 18  1  0
 17 19  1  0
 18 20  2  0
 19 21  2  0
 20 21  1  0
M  END
>  <PUBCHEM_COMPOUND_CID>  (1) 
14674

>  <PUBCHEM_CONFORMER_RMSD>  (1) 
0.8

>  <PUBCHEM_CONFORMER_DIVERSEORDER>  (1) 
1
22
31
8
34
28
32
48
30
10
35
50
7
12
20
27
25
39
47
49
33
2
38
13
43
36
16
17
3
18
45
41
9
14
21
5
29
19
52
26
4
11
24
40
37
42
51
23
6
46
44
15

>  <PUBCHEM_MMFF94_PARTIAL_CHARGES>  (1) 
17
1 -0.19
11 0.27
12 0.27
14 0.27
15 0.28
16 0.08
17 -0.15
18 -0.15
19 -0.15
2 -0.36
20 -0.15
21 0.19
3 -0.81
44 0.15
45 0.15
46 0.15
47 0.15

>  <PUBCHEM_EFFECTIVE_ROTOR_COUNT>  (1) 
6

>  <PUBCHEM_PHARMACOPHORE_FEATURES>  (1) 
5
1 2 acceptor
1 3 cation
6 16 17 18 19 20 21 rings
6 3 4 7 8 11 12 rings
6 4 5 6 9 10 13 rings

>  <PUBCHEM_HEAVY_ATOM_COUNT>  (1) 
21

>  <PUBCHEM_ATOM_DEF_STEREO_COUNT>  (1) 
0

>  <PUBCHEM_ATOM_UDEF_STEREO_COUNT>  (1) 
0

>  <PUBCHEM_BOND_DEF_STEREO_COUNT>  (1) 
0

>  <PUBCHEM_BOND_UDEF_STEREO_COUNT>  (1) 
0

>  <PUBCHEM_ISOTOPIC_ATOM_COUNT>  (1) 
0

>  <PUBCHEM_COMPONENT_COUNT>  (1) 
1

>  <PUBCHEM_CACTVS_TAUTO_COUNT>  (1) 
1

>  <PUBCHEM_CONFORMER_ID>  (1) 
0000395200000001

>  <PUBCHEM_MMFF94_ENERGY>  (1) 
47.18

>  <PUBCHEM_FEATURE_SELFOVERLAP>  (1) 
25.373

>  <PUBCHEM_SHAPE_FINGERPRINT>  (1) 
10299344 5 18186524293526225075
10595046 47 17676206840756079452
10693767 8 17169824472205642386
11089746 13 12751232597643991531
11128504 68 16588024610620005940
11315181 36 18408888439033953249
11524674 6 17561081419561682775
11646440 116 17275387607406284763
117890 112 10952047862029104076
11963148 33 18410567379788448534
12166972 35 18260553337356174453
12236239 1 16877942720156717117
12516196 113 18412825793560696649
12596602 18 15195278763908590591
12616971 3 17274812584321205005
12778500 126 13686304547962600486
13167372 99 12175628368903844962
13288520 33 18260829302785928389
13402501 40 18411139125739283703
13533116 47 14476969956676501694
13668630 136 18410015399502325606
13673619 4 18410856564130474877
13685833 64 18343584048806446490
14123256 34 18413675703174426626
1420 363 18273215291775574543
14251752 14 18113896018530595685
14251758 9 17203609285137718245
14251764 30 18335137591892144741
14341114 176 18201156637192350801
14528608 73 14490189405977419212
14617045 38 18407762534273234043
15142383 8 14692575377699780930
15183329 4 18113900450820813667
15348495 7 17131541851451131795
15352257 5 18408325484100093707
15475509 35 18189598494200333258
15788980 27 17131829880553204261
15799311 1 18114475482406702747
17844677 252 18410857668032236433
18222031 100 17531240669071500812
19489759 90 11384113042702827373
20157964 124 8646496223323275072
21150785 3 16515408481965832662
21267235 1 18343305855269282304
220451 1 17749389239505100049
22950370 63 18260266339056444965
22956985 138 17906735804856511654
2297311 6 18334577936880428293
23016692 55 18409169900540024332
2303208 19 18411417323766301601
23035841 295 18260548909481593259
23081809 10 15285628868420557605
23522609 53 18044403593426179365
23559900 14 18338229487995054497
239999 70 18272652359645483788
2767999 5 8358258137588988710
300161 21 11169913896271147625
3004659 81 18187083940918775622
34797466 226 15574438712822003822
351380 3 18040992947353440467
4072396 5 8718831960139461972
4214541 1 18410852149500096113
4325135 7 17530967985802875630
465052 167 18343865507231003126
5104073 3 16773219829516242379
542803 24 16732700541115253157
59682541 52 14851877011920407082
59755656 215 18412263909012508871
7495541 125 18409163325056078128
8863177 126 18339643468174175843
999808 66 17458921409363676459

>  <PUBCHEM_SHAPE_MULTIPOLES>  (1) 
414.05
19.48
1.6
1.09
15.17
0.03
0.03
-7.9
0.22
0.18
-0.25
-1.6
0.05
0.7

>  <PUBCHEM_SHAPE_SELFOVERLAP>  (1) 
861.461

>  <PUBCHEM_SHAPE_VOLUME>  (1) 
235.8

>  <PUBCHEM_COORDINATE_TYPE>  (1) 
2
5
10

$$$$
