14673
     RDKit          3D

 21 23  0  0  0  0  0  0  0  0999 V2000
    5.7081   -0.5865   -1.0781 S   0  0  0  0  0  0  0  0  0  0  0  0
    3.6378    1.3524   -1.6257 O   0  0  0  0  0  0  0  0  0  0  0  0
   -0.7946    1.2137    0.6659 N   0  0  0  0  0  0  0  0  0  0  0  0
   -3.3241   -0.3393    0.4322 C   0  0  0  0  0  0  0  0  0  0  0  0
   -4.4230    0.6195   -0.0989 C   0  0  0  0  0  0  0  0  0  0  0  0
   -3.9616   -1.7290    0.6868 C   0  0  0  0  0  0  0  0  0  0  0  0
   -2.1388   -0.4673   -0.5579 C   0  0  0  0  0  0  0  0  0  0  0  0
   -2.7569    0.1946    1.7713 C   0  0  0  0  0  0  0  0  0  0  0  0
   -5.1869    0.0679   -1.3036 C   0  0  0  0  0  0  0  0  0  0  0  0
   -4.7118   -2.2850   -0.5227 C   0  0  0  0  0  0  0  0  0  0  0  0
   -1.2914    0.8060   -0.6529 C   0  0  0  0  0  0  0  0  0  0  0  0
   -1.8978    1.4509    1.6035 C   0  0  0  0  0  0  0  0  0  0  0  0
   -5.7721   -1.3102   -1.0203 C   0  0  0  0  0  0  0  0  0  0  0  0
    0.0481    2.4038    0.5523 C   0  0  0  0  0  0  0  0  0  0  0  0
    1.2589    2.1117   -0.3363 C   0  0  0  0  0  0  0  0  0  0  0  0
    2.1258    0.9776    0.2176 C   0  0  0  0  0  0  0  0  0  0  0  0
    3.3795    0.7180   -0.6057 C   0  0  0  0  0  0  0  0  0  0  0  0
    4.3342   -0.3289   -0.1419 C   0  0  0  0  0  0  0  0  0  0  0  0
    4.2151   -1.0936    0.9503 C   0  0  0  0  0  0  0  0  0  0  0  0
    5.3312   -1.9733    1.0513 C   0  0  0  0  0  0  0  0  0  0  0  0
    6.2200   -1.8029    0.0127 C   0  0  0  0  0  0  0  0  0  0  0  0
  1 18  1  0
  1 21  1  0
  2 17  2  0
  3 11  1  0
  3 12  1  0
  3 14  1  0
  4  5  1  0
  4  6  1  0
  4  7  1  0
  4  8  1  0
  5  9  1  0
  6 10  1  0
  7 11  1  0
  8 12  1  0
  9 13  1  0
 10 13  1  0
 14 15  1  0
 15 16  1  0
 16 17  1  0
 17 18  1  0
 18 19  2  0
 19 20  1  0
 20 21  2  0
M  END
>  <PUBCHEM_COMPOUND_CID>  (1) 
14673

>  <PUBCHEM_CONFORMER_RMSD>  (1) 
0.8

>  <PUBCHEM_CONFORMER_DIVERSEORDER>  (1) 
1
299
156
75
270
291
245
100
183
10
318
181
9
314
162
65
210
15
154
61
96
83
267
32
317
4
23
301
164
323
219
39
256
20
135
99
214
239
43
324
265
71
66
259
293
186
197
223
177
158
87
22
48
292
29
300
205
316
146
148
161
157
211
152
290
243
235
173
119
167
312
45
46
187
179
215
194
165
129
288
28
262
295
319
216
107
59
97
302
208
2
79
113
191
286
118
313
122
116
250
132
168
124
159
63
19
80
320
199
193
25
203
58
67
271
206
35
60
40
282
228
212
62
117
322
304
127
307
189
217
171
68
106
30
24
310
120
121
130
169
184
76
233
258
70
44
47
218
170
309
272
112
298
94
264
274
303
136
109
321
131
36
137
221
31
73
153
142
163
140
166
285
149
213
176
175
280
126
257
115
56
294
190
85
78
8
230
192
21
72
248
289
77
305
252
268
255
57
234
134
251
55
110
89
101
182
236
141
42
150
139
253
207
14
33
279
111
69
98
246
102
93
13
95
123
138
311
269
51
49
296
242
64
244
232
195
278
240
227
155
241
7
128
26
41
52
204
308
54
224
315
12
254
202
201
74
105
297
81
273
180
133
108
275
249
238
261
287
38
86
84
178
174
209
50
237
3
160
91
53
198
103
283
229
231
11
16
151
225
104
82
306
5
260
37
172
144
185
284
196
281
18
17
143
220
90
114
92
34
276
188
247
125
226
27
222
277
147
6
263
145
200
266
88

>  <PUBCHEM_MMFF94_PARTIAL_CHARGES>  (1) 
15
1 -0.08
11 0.27
12 0.27
14 0.27
16 0.06
17 0.59
18 -0.05
19 -0.15
2 -0.57
20 -0.15
21 -0.11
3 -0.81
46 0.15
47 0.15
48 0.15

>  <PUBCHEM_EFFECTIVE_ROTOR_COUNT>  (1) 
7

>  <PUBCHEM_PHARMACOPHORE_FEATURES>  (1) 
5
1 2 acceptor
1 3 cation
5 1 18 19 20 21 rings
6 3 4 7 8 11 12 rings
6 4 5 6 9 10 13 rings

>  <PUBCHEM_HEAVY_ATOM_COUNT>  (1) 
21

>  <PUBCHEM_ATOM_DEF_STEREO_COUNT>  (1) 
0

>  <PUBCHEM_ATOM_UDEF_STEREO_COUNT>  (1) 
0

>  <PUBCHEM_BOND_DEF_STEREO_COUNT>  (1) 
0

>  <PUBCHEM_BOND_UDEF_STEREO_COUNT>  (1) 
0

>  <PUBCHEM_ISOTOPIC_ATOM_COUNT>  (1) 
0

>  <PUBCHEM_COMPONENT_COUNT>  (1) 
1

>  <PUBCHEM_CACTVS_TAUTO_COUNT>  (1) 
2

>  <PUBCHEM_CONFORMER_ID>  (1) 
0000395100000001

>  <PUBCHEM_MMFF94_ENERGY>  (1) 
32.5347

>  <PUBCHEM_FEATURE_SELFOVERLAP>  (1) 
25.373

>  <PUBCHEM_SHAPE_FINGERPRINT>  (1) 
10447042 23 18410853278928457900
10498660 4 12757154584625174780
105312 117 13695872531921456345
10670039 82 11819542685412234318
10753850 27 18341890809858897163
11069576 57 17386840617954772906
11088757 655 13900753403460847085
11135609 201 9511162046078632756
12166972 35 18261394485304653527
12555020 224 18334289886219057995
12596602 18 17846778512142626954
12760667 363 18412262818085072993
12892183 10 14836135312108444488
12895836 83 12973608841272603065
13533116 47 18129658732900508681
13885169 86 10447345658461513690
14123256 34 18343027700466127342
1420 369 18413390917384481754
14251752 14 18261950748395311085
14251764 38 10666958834128610974
14251764 75 10807062995122721442
14848178 5 18343580741845288754
14910302 57 18114730633776542197
15163728 17 12107779679538519065
15183329 4 17313097527744731405
15188451 53 17489300884735358071
15342168 16 9295294940760804881
15475509 8 17022613162010840901
15728490 51 18130219467668552686
15880784 105 18131073714893498624
17349148 13 17846225500653863989
17857418 61 18410012117972952130
18222031 100 18273216404567990012
19377110 9 10952044559516199901
193927 3 18272941513781119996
19784866 240 18411419509619773157
200 152 18261115157864571912
20028762 73 18342454821081619854
20621476 91 15410603822651869565
21304303 282 17272296730868137377
21315764 119 17458338628902865791
22061861 79 17676485051293939966
2215653 11 17167860859267705742
23198884 109 15864070944818797853
23272321 79 9583516525467700933
23559900 14 18339915039230621561
23622692 118 18409448055818628228
270888 7 9007055768969842162
2838139 119 8070022243090149166
3004659 81 18186798084964653294
312425 54 16844741815383790978
314194 84 18335433365484805928
339767 52 18343015580052457094
3472631 163 11458427937911973538
351380 3 18412545401458985630
38570 142 16299219113353334765
4259306 186 18041001739198857706
439807 62 18262240044787464611
44062 13 18407755954630808287
46194498 28 15359416105960071636
5104073 3 17631741577058942041
543368 44 12107787415323303479
559249 180 18342737391258211513
5718773 13 17916294112950024287
59682541 52 15864337018264617338
76465 3 18412826889051650776
7970288 3 18412261701758333022
960060 61 17749391490041680348

>  <PUBCHEM_SHAPE_MULTIPOLES>  (1) 
425.17
15.91
2.37
1.41
9.03
0.04
0.16
-11.58
-3.14
0.16
0.24
-0.26
0.11
-1.55

>  <PUBCHEM_SHAPE_SELFOVERLAP>  (1) 
867.175

>  <PUBCHEM_SHAPE_VOLUME>  (1) 
247.2

>  <PUBCHEM_COORDINATE_TYPE>  (1) 
2
5
10

$$$$
