14680
     RDKit          3D

 21 23  0  0  0  0  0  0  0  0999 V2000
    1.6552    1.5032    2.0683 F   0  0  0  0  0  0  0  0  0  0  0  0
   -0.7668    0.2672   -0.1107 C   0  0  0  0  0  0  0  0  0  0  0  0
   -2.2115    0.4356   -0.0898 C   0  0  0  0  0  0  0  0  0  0  0  0
   -0.1000   -1.0743    0.0088 C   0  0  0  0  0  0  0  0  0  0  0  0
    0.0859    1.3263   -0.2612 C   0  0  0  0  0  0  0  0  0  0  0  0
    1.5540    1.2457   -0.2933 C   0  0  0  0  0  0  0  0  0  0  0  0
   -2.8724    0.6392    1.1216 C   0  0  0  0  0  0  0  0  0  0  0  0
    0.1563   -1.7766   -1.1408 C   0  0  0  0  0  0  0  0  0  0  0  0
   -2.9359    0.3941   -1.2810 C   0  0  0  0  0  0  0  0  0  0  0  0
    0.2204   -1.5308    1.2617 C   0  0  0  0  0  0  0  0  0  0  0  0
    2.2726    1.3395    0.8889 C   0  0  0  0  0  0  0  0  0  0  0  0
    2.1952    1.0765   -1.5114 C   0  0  0  0  0  0  0  0  0  0  0  0
   -4.2578    0.8012    1.1418 C   0  0  0  0  0  0  0  0  0  0  0  0
    0.7759   -3.0215   -1.0301 C   0  0  0  0  0  0  0  0  0  0  0  0
   -4.3212    0.5563   -1.2609 C   0  0  0  0  0  0  0  0  0  0  0  0
    0.8399   -2.7756    1.3726 C   0  0  0  0  0  0  0  0  0  0  0  0
   -4.9821    0.7599   -0.0496 C   0  0  0  0  0  0  0  0  0  0  0  0
    1.1176   -3.5209    0.2266 C   0  0  0  0  0  0  0  0  0  0  0  0
    3.6648    1.2626    0.8525 C   0  0  0  0  0  0  0  0  0  0  0  0
    3.5875    0.9996   -1.5478 C   0  0  0  0  0  0  0  0  0  0  0  0
    4.3223    1.0926   -0.3660 C   0  0  0  0  0  0  0  0  0  0  0  0
  1 11  1  0
  2  3  1  0
  2  4  1  0
  2  5  2  3
  3  7  2  0
  3  9  1  0
  4  8  2  0
  4 10  1  0
  5  6  1  0
  6 11  2  0
  6 12  1  0
  7 13  1  0
  8 14  1  0
  9 15  2  0
 10 16  2  0
 11 19  1  0
 12 20  2  0
 13 17  2  0
 14 18  2  0
 15 17  1  0
 16 18  1  0
 19 21  2  0
 20 21  1  0
M  END
>  <PUBCHEM_COMPOUND_CID>  (1) 
14680

>  <PUBCHEM_CONFORMER_RMSD>  (1) 
0.6

>  <PUBCHEM_CONFORMER_DIVERSEORDER>  (1) 
1
4
2
3

>  <PUBCHEM_MMFF94_PARTIAL_CHARGES>  (1) 
36
1 -0.19
10 -0.15
11 0.19
12 -0.15
13 -0.15
14 -0.15
15 -0.15
16 -0.15
17 -0.15
18 -0.15
19 -0.15
2 -0.06
20 -0.15
21 -0.15
22 0.15
23 0.15
24 0.15
25 0.15
26 0.15
27 0.15
28 0.15
29 0.15
3 0.03
30 0.15
31 0.15
32 0.15
33 0.15
34 0.15
35 0.15
36 0.15
4 0.03
5 -0.18
6 0.03
7 -0.15
8 -0.15
9 -0.15

>  <PUBCHEM_EFFECTIVE_ROTOR_COUNT>  (1) 
3

>  <PUBCHEM_PHARMACOPHORE_FEATURES>  (1) 
3
6 3 7 9 13 15 17 rings
6 4 8 10 14 16 18 rings
6 6 11 12 19 20 21 rings

>  <PUBCHEM_HEAVY_ATOM_COUNT>  (1) 
21

>  <PUBCHEM_ATOM_DEF_STEREO_COUNT>  (1) 
0

>  <PUBCHEM_ATOM_UDEF_STEREO_COUNT>  (1) 
0

>  <PUBCHEM_BOND_DEF_STEREO_COUNT>  (1) 
0

>  <PUBCHEM_BOND_UDEF_STEREO_COUNT>  (1) 
0

>  <PUBCHEM_ISOTOPIC_ATOM_COUNT>  (1) 
0

>  <PUBCHEM_COMPONENT_COUNT>  (1) 
1

>  <PUBCHEM_CACTVS_TAUTO_COUNT>  (1) 
1

>  <PUBCHEM_CONFORMER_ID>  (1) 
0000395800000001

>  <PUBCHEM_MMFF94_ENERGY>  (1) 
74.0065

>  <PUBCHEM_FEATURE_SELFOVERLAP>  (1) 
15.223

>  <PUBCHEM_SHAPE_FINGERPRINT>  (1) 
10764073 3 14999336857921588678
107951 10 17677351518729808486
12422481 6 17829011409355059882
12507560 18 17917715703884715464
12592029 89 18186240619183374288
12633257 1 15069438489625581309
12644460 14 18199759059434816979
12788726 201 17546155763414140446
12895836 83 17898031237444132044
133893 2 18044954371567896904
13583140 156 15430588575899573317
13681431 1 17977665312057068607
14251757 17 17131281275595418927
14468879 13 16195898258582299768
15309172 13 18334295409082790013
15502722 9 18262802861142524199
15906896 17 17900544780759214842
16752209 62 18046619285438692058
1813 80 17696476178558454503
18186145 218 18202282536898830605
200 152 13758087293868361036
20567600 347 18410294717914960103
20600515 1 17042593224705727282
20645476 183 17750519657743898796
20691752 17 17242469208792505997
20832881 197 17845669049091540764
20905425 154 18052259496863766020
21120745 212 16973097493125313654
21421861 104 18053394201316447969
21524375 3 18410574028175081255
21756936 100 16083925068594858788
22956985 138 17968652696896690619
23419403 2 17615180633789446122
23559900 14 16299236683584494207
298252 57 18114746035603151120
3060560 45 18335975445659671660
404807 78 17830428916568592271
4340502 62 18336275587397362819
465052 167 17168435959989666689
474 4 18410017645495882245
5845 1 11401103615055352014
5895379 119 16625472679814393065
6138700 20 18265621992314765310
633830 44 18131355236635411613
7364860 26 18270397166301576679
7495541 125 12679170657331678309
81228 2 17617652602105414675
81539 233 18260266330540142519
8272917 22 18115021905578825493
9999458 23 16588022394675272826

>  <PUBCHEM_SHAPE_MULTIPOLES>  (1) 
424.9
7.67
3.02
1.62
6.06
4.02
0.12
-5.65
-0.61
-2.41
0.18
-0.25
-0.1
-0.09

>  <PUBCHEM_SHAPE_SELFOVERLAP>  (1) 
937.784

>  <PUBCHEM_SHAPE_VOLUME>  (1) 
228.3

>  <PUBCHEM_COORDINATE_TYPE>  (1) 
2
5
10

$$$$
