14685
     RDKit          3D

 21 23  0  0  0  0  0  0  0  0999 V2000
   -0.9819    2.3138    0.0010 O   0  0  0  0  0  0  0  0  0  0  0  0
   -1.0173   -2.3123    0.0011 O   0  0  0  0  0  0  0  0  0  0  0  0
   -0.9498    0.0003   -0.0009 N   0  0  0  0  0  0  0  0  0  0  0  0
   -3.0371   -1.1836   -0.0001 N   0  0  0  0  0  0  0  0  0  0  0  0
   -3.0187    1.2159   -0.0003 N   0  0  0  0  0  0  0  0  0  0  0  0
   -5.0428    0.0314    0.0005 N   0  0  0  0  0  0  0  0  0  0  0  0
    0.3773    2.2488    0.0006 C   0  0  0  0  0  0  0  0  0  0  0  0
    0.3598   -2.2548    0.0006 C   0  0  0  0  0  0  0  0  0  0  0  0
    1.0739    2.2176   -1.2077 C   0  0  0  0  0  0  0  0  0  0  0  0
    1.0743    2.2128    1.2084 C   0  0  0  0  0  0  0  0  0  0  0  0
    1.0399   -2.2243    1.2082 C   0  0  0  0  0  0  0  0  0  0  0  0
    1.0387   -2.2280   -1.2078 C   0  0  0  0  0  0  0  0  0  0  0  0
   -1.6836    1.1198   -0.0009 C   0  0  0  0  0  0  0  0  0  0  0  0
   -1.6959   -1.1162   -0.0007 C   0  0  0  0  0  0  0  0  0  0  0  0
    2.4672    2.1503   -1.2080 C   0  0  0  0  0  0  0  0  0  0  0  0
    2.4676    2.1455    1.2080 C   0  0  0  0  0  0  0  0  0  0  0  0
    2.4334   -2.1653    1.2076 C   0  0  0  0  0  0  0  0  0  0  0  0
    2.4323   -2.1691   -1.2084 C   0  0  0  0  0  0  0  0  0  0  0  0
    3.1639    2.1143   -0.0004 C   0  0  0  0  0  0  0  0  0  0  0  0
    3.1296   -2.1377   -0.0007 C   0  0  0  0  0  0  0  0  0  0  0  0
   -3.6309    0.0208   -0.0001 C   0  0  0  0  0  0  0  0  0  0  0  0
  1  7  1  0
  1 13  1  0
  2  8  1  0
  2 14  1  0
  3 13  2  0
  3 14  1  0
  4 14  2  0
  4 21  1  0
  5 13  1  0
  5 21  2  0
  6 21  1  0
  7  9  2  0
  7 10  1  0
  8 11  2  0
  8 12  1  0
  9 15  1  0
 10 16  2  0
 11 17  1  0
 12 18  2  0
 15 19  2  0
 16 19  1  0
 17 20  2  0
 18 20  1  0
M  END
>  <PUBCHEM_COMPOUND_CID>  (1) 
14685

>  <PUBCHEM_CONFORMER_RMSD>  (1) 
0.6

>  <PUBCHEM_CONFORMER_DIVERSEORDER>  (1) 
1
32
5
67
21
47
11
3
58
64
69
20
2
56
57
25
23
70
33
45
31
71
12
43
42
73
10
34
55
39
60
66
16
68
4
72
61
48
40
52
54
51
49
35
18
53
38
24
9
13
17
59
37
41
62
50
30
63
26
44
29
27
36
14
65
8
46
28
6
19
22
7
15

>  <PUBCHEM_MMFF94_PARTIAL_CHARGES>  (1) 
33
1 -0.17
10 -0.15
11 -0.15
12 -0.15
13 0.7
14 0.7
15 -0.15
16 -0.15
17 -0.15
18 -0.15
19 -0.15
2 -0.17
20 -0.15
21 0.72
22 0.15
23 0.15
24 0.15
25 0.15
26 0.15
27 0.15
28 0.15
29 0.15
3 -0.62
30 0.15
31 0.15
32 0.4
33 0.4
4 -0.62
5 -0.62
6 -0.9
7 0.08
8 0.08
9 -0.15

>  <PUBCHEM_EFFECTIVE_ROTOR_COUNT>  (1) 
4

>  <PUBCHEM_PHARMACOPHORE_FEATURES>  (1) 
5
1 6 donor
4 4 5 6 21 cation
6 3 4 5 13 14 21 rings
6 7 9 10 15 16 19 rings
6 8 11 12 17 18 20 rings

>  <PUBCHEM_HEAVY_ATOM_COUNT>  (1) 
21

>  <PUBCHEM_ATOM_DEF_STEREO_COUNT>  (1) 
0

>  <PUBCHEM_ATOM_UDEF_STEREO_COUNT>  (1) 
0

>  <PUBCHEM_BOND_DEF_STEREO_COUNT>  (1) 
0

>  <PUBCHEM_BOND_UDEF_STEREO_COUNT>  (1) 
0

>  <PUBCHEM_ISOTOPIC_ATOM_COUNT>  (1) 
0

>  <PUBCHEM_COMPONENT_COUNT>  (1) 
1

>  <PUBCHEM_CACTVS_TAUTO_COUNT>  (1) 
3

>  <PUBCHEM_CONFORMER_ID>  (1) 
0000395D00000001

>  <PUBCHEM_MMFF94_ENERGY>  (1) 
72.4972

>  <PUBCHEM_FEATURE_SELFOVERLAP>  (1) 
25.373

>  <PUBCHEM_SHAPE_FINGERPRINT>  (1) 
10498660 4 17761778364443533486
10989021 7 18339923710547636507
1100329 8 17909840829528739137
11578080 2 17386549272472594991
11680986 33 18336271227588988331
12422481 6 18194088929594361136
12592029 89 18191311683244286339
13140716 1 18410579444651003187
133893 2 18263100863058723625
14022349 108 18410862061983487065
14790565 3 16971964991706297168
14955137 171 17622760555598052361
15006816 218 18339361975732460268
16752209 62 17689432006826948527
17357779 13 17981586192001439597
17492 54 18189076243193075214
19591789 44 17041479986664011067
20645476 183 17318453472222291620
20691752 17 17603868888522400425
20715895 44 15661399843235264236
20905425 154 18413113878665798638
21421861 104 18197517154878129081
23419403 2 17825642526606239598
23557571 272 17622437238855193478
23728640 28 17618775203930795184
2748010 2 18335970974756842029
465052 167 17101724355021966315
5939293 188 18340200774545467922
59755656 215 18121216743527667335
6443956 14 18340484448319139537
7364860 26 18343021090289444741
81228 2 17619920452327942795
90525 40 17901667399110310304
9925002 15 17771309184515204654

>  <PUBCHEM_SHAPE_MULTIPOLES>  (1) 
400.51
5.84
4.18
1.19
6.38
0.06
0
-0.12
0
-3.54
0
-1.01
0.01
0

>  <PUBCHEM_SHAPE_SELFOVERLAP>  (1) 
878.074

>  <PUBCHEM_SHAPE_VOLUME>  (1) 
210.2

>  <PUBCHEM_COORDINATE_TYPE>  (1) 
2
5
10

$$$$
