14709
     RDKit          3D

 24 27  0  0  1  0  0  0  0  0999 V2000
    5.8100    1.3488   -0.7668 O   0  0  0  0  0  0  0  0  0  0  0  0
   -4.9793   -0.5288    0.1279 O   0  0  0  0  0  0  0  0  0  0  0  0
   -5.7570    0.7434   -1.6368 O   0  0  0  0  0  0  0  0  0  0  0  0
    0.6961    0.3857   -0.1526 C   0  0  0  0  0  0  0  0  0  0  0  0
    1.5922   -0.8296    0.2333 C   0  0  0  0  0  0  0  0  0  0  0  0
    2.9863   -0.6336   -0.3671 C   0  0  0  0  0  0  0  0  0  0  0  0
    3.6570    0.6595    0.1328 C   0  0  0  0  0  0  0  0  0  0  0  0
   -0.7491    0.2599    0.4755 C   0  0  0  0  0  0  0  0  0  0  0  0
    1.3864    1.7553    0.1068 C   0  0  0  0  0  0  0  0  0  0  0  0
    2.8393    1.8337   -0.3949 C   0  0  0  0  0  0  0  0  0  0  0  0
    4.0495   -1.7089   -0.1715 C   0  0  0  0  0  0  0  0  0  0  0  0
    0.9567   -2.1344   -0.2678 C   0  0  0  0  0  0  0  0  0  0  0  0
   -1.2945   -1.1652    0.3050 C   0  0  0  0  0  0  0  0  0  0  0  0
   -1.6902    1.2590   -0.2614 C   0  0  0  0  0  0  0  0  0  0  0  0
    5.0260    0.4509   -0.4894 C   0  0  0  0  0  0  0  0  0  0  0  0
    5.3208   -1.0255   -0.6966 C   0  0  0  0  0  0  0  0  0  0  0  0
   -0.5190   -2.2082   -0.0392 C   0  0  0  0  0  0  0  0  0  0  0  0
    3.8742    0.7584    1.6536 C   0  0  0  0  0  0  0  0  0  0  0  0
   -0.7368    0.5884    1.9878 C   0  0  0  0  0  0  0  0  0  0  0  0
   -2.7740   -1.3696    0.5355 C   0  0  0  0  0  0  0  0  0  0  0  0
   -3.1754    1.0656    0.0410 C   0  0  0  0  0  0  0  0  0  0  0  0
   -3.6153   -0.3662   -0.2470 C   0  0  0  0  0  0  0  0  0  0  0  0
   -5.8701    0.2917   -0.5052 C   0  0  0  0  0  0  0  0  0  0  0  0
   -7.0340    0.5698    0.3969 C   0  0  0  0  0  0  0  0  0  0  0  0
  1 15  2  0
  2 22  1  0
  2 23  1  0
  3 23  2  0
  4  5  1  0
  4  8  1  0
  4  9  1  0
  5  6  1  0
  5 12  1  0
  6  7  1  0
  6 11  1  0
  7 10  1  0
  7 15  1  0
  7 18  1  0
  8 13  1  0
  8 14  1  0
  8 19  1  0
  9 10  1  0
 11 16  1  0
 12 17  1  0
 13 17  2  0
 13 20  1  0
 14 21  1  0
 15 16  1  0
 20 22  1  0
 21 22  1  0
 23 24  1  0
M  END
>  <PUBCHEM_COMPOUND_CID>  (1) 
14709

>  <PUBCHEM_CONFORMER_RMSD>  (1) 
0.6

>  <PUBCHEM_CONFORMER_DIVERSEORDER>  (1) 
1
4
8
5
6
2
7
9
3

>  <PUBCHEM_MMFF94_PARTIAL_CHARGES>  (1) 
15
1 -0.57
12 0.14
13 -0.28
15 0.45
16 0.06
17 -0.29
2 -0.43
20 0.14
22 0.28
23 0.66
24 0.06
3 -0.57
40 0.15
7 0.06
8 0.14

>  <PUBCHEM_EFFECTIVE_ROTOR_COUNT>  (1) 
3.8

>  <PUBCHEM_PHARMACOPHORE_FEATURES>  (1) 
6
1 1 acceptor
1 3 acceptor
5 6 7 11 15 16 rings
6 4 5 6 7 9 10 rings
6 4 5 8 12 13 17 rings
6 8 13 14 20 21 22 rings

>  <PUBCHEM_HEAVY_ATOM_COUNT>  (1) 
24

>  <PUBCHEM_ATOM_DEF_STEREO_COUNT>  (1) 
6

>  <PUBCHEM_ATOM_UDEF_STEREO_COUNT>  (1) 
0

>  <PUBCHEM_BOND_DEF_STEREO_COUNT>  (1) 
0

>  <PUBCHEM_BOND_UDEF_STEREO_COUNT>  (1) 
0

>  <PUBCHEM_ISOTOPIC_ATOM_COUNT>  (1) 
0

>  <PUBCHEM_COMPONENT_COUNT>  (1) 
1

>  <PUBCHEM_CACTVS_TAUTO_COUNT>  (1) 
2

>  <PUBCHEM_CONFORMER_ID>  (1) 
0000397500000001

>  <PUBCHEM_MMFF94_ENERGY>  (1) 
67.5164

>  <PUBCHEM_FEATURE_SELFOVERLAP>  (1) 
30.545

>  <PUBCHEM_SHAPE_FINGERPRINT>  (1) 
10366900 7 17274833471342952626
10411042 1 17905890271787757134
106641 1 12829498068592010437
10693767 8 17988078872915995478
10906281 52 18338816545340841147
11796584 16 14117514351138381285
12011746 2 18413114965772617830
12166972 35 18131634482255070784
12236239 1 17704072889235893229
12403259 415 18410847759278752013
12592029 89 18259981552654603355
12788726 201 18341611473602249433
12838862 33 18340190969683906708
12916748 109 14923941232433534718
13402501 40 18334857208069235901
13533116 47 17846218817742994326
13583140 156 17167869694157995249
14528608 73 18272929427569225191
15099037 51 18410011056841788383
15183329 4 18411417298355180813
15196674 1 18410578400752611678
17349148 13 17918279740005686104
200 152 17846500322467620675
20645477 70 18342461396591562918
21033648 29 18336261357310874784
21267235 1 18340215110824704486
21279426 13 18265050228507755773
21285901 2 18261392196282484660
21521239 73 18131340908782527959
21521721 280 18272092720985351427
21859007 373 17969477378036099356
221357 26 18343019965076948852
2215653 11 18342458140388790774
23402539 116 18412258471794545047
23559900 14 18271241737345045032
25147074 1 17773042955828560747
29717793 49 17632582630012348220
3004659 81 18260832566913736926
335352 9 18410858759064303502
34934 24 18338232773686882986
350125 39 18410577271197526185
3545911 37 18335140895275766079
4072396 5 18336251384581663650
4073 2 18040723609696287603
495365 180 17417521510685250498
5104073 3 18336265755251878339
59755656 215 18408886200601546871
59755656 520 16660360407355135115
633830 44 17459185338349157034
7495541 125 13470396803500167827

>  <PUBCHEM_SHAPE_MULTIPOLES>  (1) 
476.3
13.88
1.95
1.1
12.52
0.52
0.33
-2.61
-3.3
-1.2
-0.09
0.06
-0.27
0.38

>  <PUBCHEM_SHAPE_SELFOVERLAP>  (1) 
1017.074

>  <PUBCHEM_SHAPE_VOLUME>  (1) 
262.4

>  <PUBCHEM_COORDINATE_TYPE>  (1) 
2
5
10

$$$$
