1470
     RDKit          3D

 25 27  0  0  1  0  0  0  0  0999 V2000
   -3.0582   -0.9746    1.5753 O   0  0  0  0  0  0  0  0  0  0  0  0
    1.4842    0.6457    1.7164 O   0  0  0  0  0  0  0  0  0  0  0  0
   -1.1779    1.0969   -1.4330 O   0  0  0  0  0  0  0  0  0  0  0  0
    4.1251   -2.0404   -1.2392 O   0  0  0  0  0  0  0  0  0  0  0  0
   -7.2995    0.6184    0.1773 O   0  0  0  0  0  0  0  0  0  0  0  0
   -0.9535   -0.2755    0.5511 C   0  0  0  0  0  0  0  0  0  0  0  0
    0.4128   -0.7346    0.0873 C   0  0  0  0  0  0  0  0  0  0  0  0
   -1.8167   -1.4407    1.0358 C   0  0  0  0  0  0  0  0  0  0  0  0
   -1.7177    0.4746   -0.5253 C   0  0  0  0  0  0  0  0  0  0  0  0
   -3.1898    0.4810   -0.3777 C   0  0  0  0  0  0  0  0  0  0  0  0
    1.5732   -0.2519    0.6931 C   0  0  0  0  0  0  0  0  0  0  0  0
    2.8232   -0.6867    0.2520 C   0  0  0  0  0  0  0  0  0  0  0  0
   -3.7748   -0.2276    0.6764 C   0  0  0  0  0  0  0  0  0  0  0  0
    0.5030   -1.6523   -0.9595 C   0  0  0  0  0  0  0  0  0  0  0  0
    4.0676   -0.1697    0.9002 C   0  0  0  0  0  0  0  0  0  0  0  0
    2.9128   -1.6044   -0.7947 C   0  0  0  0  0  0  0  0  0  0  0  0
    1.7527   -2.0871   -1.4004 C   0  0  0  0  0  0  0  0  0  0  0  0
   -3.9861    1.2200   -1.2569 C   0  0  0  0  0  0  0  0  0  0  0  0
   -5.1555   -0.1681    0.8711 C   0  0  0  0  0  0  0  0  0  0  0  0
   -5.3682    1.2592   -1.0689 C   0  0  0  0  0  0  0  0  0  0  0  0
   -5.9512    0.5709   -0.0047 C   0  0  0  0  0  0  0  0  0  0  0  0
    4.5955    1.0786    0.2398 C   0  0  0  0  0  0  0  0  0  0  0  0
    5.8763    1.4792    0.1259 C   0  0  0  0  0  0  0  0  0  0  0  0
    6.3339    2.7414   -0.5484 C   0  0  0  0  0  0  0  0  0  0  0  0
    6.9889    0.6477    0.7069 C   0  0  0  0  0  0  0  0  0  0  0  0
  1  8  1  0
  1 13  1  0
  2 11  1  0
  3  9  2  0
  4 16  1  0
  5 21  1  0
  6  7  1  0
  6  8  1  0
  6  9  1  0
  7 11  2  0
  7 14  1  0
  9 10  1  0
 10 13  2  0
 10 18  1  0
 11 12  1  0
 12 15  1  0
 12 16  2  0
 13 19  1  0
 14 17  2  0
 15 22  1  0
 16 17  1  0
 18 20  2  0
 19 21  2  0
 20 21  1  0
 22 23  2  3
 23 24  1  0
 23 25  1  0
M  END
>  <PUBCHEM_COMPOUND_CID>  (1) 
1470

>  <PUBCHEM_CONFORMER_RMSD>  (1) 
0.8

>  <PUBCHEM_CONFORMER_DIVERSEORDER>  (1) 
1
49
22
14
58
28
60
55
12
48
41
43
50
19
47
31
25
37
63
34
10
56
40
38
52
44
2
20
61
59
36
64
32
29
33
23
57
46
54
39
15
18
42
21
45
35
27
26
24
5
9
16
30
62
3
17
53
7
4
11
51
13
6
8

>  <PUBCHEM_MMFF94_PARTIAL_CHARGES>  (1) 
34
1 -0.36
10 0.09
11 0.08
12 -0.14
13 0.08
14 -0.15
15 0.28
16 0.08
17 -0.15
18 -0.15
19 -0.15
2 -0.53
20 -0.15
21 0.08
22 -0.29
23 -0.28
24 0.14
25 0.14
29 0.15
3 -0.57
32 0.15
33 0.15
34 0.15
35 0.15
36 0.15
37 0.45
38 0.45
4 -0.53
45 0.45
5 -0.53
6 0.2
7 -0.14
8 0.28
9 0.42

>  <PUBCHEM_EFFECTIVE_ROTOR_COUNT>  (1) 
3.6

>  <PUBCHEM_PHARMACOPHORE_FEATURES>  (1) 
9
1 1 acceptor
1 2 donor
1 3 acceptor
1 4 donor
1 5 donor
3 23 24 25 hydrophobe
6 1 6 8 9 10 13 rings
6 10 13 18 19 20 21 rings
6 7 11 12 14 16 17 rings

>  <PUBCHEM_HEAVY_ATOM_COUNT>  (1) 
25

>  <PUBCHEM_ATOM_DEF_STEREO_COUNT>  (1) 
0

>  <PUBCHEM_ATOM_UDEF_STEREO_COUNT>  (1) 
1

>  <PUBCHEM_BOND_DEF_STEREO_COUNT>  (1) 
0

>  <PUBCHEM_BOND_UDEF_STEREO_COUNT>  (1) 
0

>  <PUBCHEM_ISOTOPIC_ATOM_COUNT>  (1) 
0

>  <PUBCHEM_COMPONENT_COUNT>  (1) 
1

>  <PUBCHEM_CACTVS_TAUTO_COUNT>  (1) 
106

>  <PUBCHEM_CONFORMER_ID>  (1) 
000005BE00000001

>  <PUBCHEM_MMFF94_ENERGY>  (1) 
71.5671

>  <PUBCHEM_FEATURE_SELFOVERLAP>  (1) 
45.701

>  <PUBCHEM_SHAPE_FINGERPRINT>  (1) 
10 15 17749391494262995928
10670039 82 13901918782158285323
12236239 1 15430325711132499251
12403259 415 18262522489798452295
12730499 353 18343303652114882198
13402501 40 18333445452229811460
13540713 5 16986895440730437994
13631057 29 17630872993143998631
13911987 19 18060143180108352416
15183329 4 14189304763782323764
15961568 22 18260830397444238700
17980427 23 17895193371566828926
18335252 114 18343862230493307228
18335252 98 18273217534603616999
200 152 16988557953930259675
20028762 73 13695592161036671496
20612939 158 17917998239681528670
20645477 70 17988645125503737118
21033648 29 18187090507960700967
21150785 3 15482670199665997408
21344244 78 14634867561497711942
21792964 463 17559421122285345945
23198884 109 15626227935277998804
23559900 14 17751092327003342886
2838139 119 18335409201988651900
2916195 48 18186516584139199565
3004659 81 13038907737930762120
34797466 226 18410296895415555741
4073 2 18341899585121265251
4325135 7 18411695526236356855
4340502 62 17821444651874053066
5104073 3 17386285368539609377
57527585 21 18197191703647268885
59755656 215 12607408780118432845
6608658 132 16271660996178316737

>  <PUBCHEM_SHAPE_MULTIPOLES>  (1) 
485.14
16.77
2.01
1.36
1.46
0.04
-0.04
10.5
0.85
2.8
-0.81
-0.22
-0.25
1.47

>  <PUBCHEM_SHAPE_SELFOVERLAP>  (1) 
1054.536

>  <PUBCHEM_SHAPE_VOLUME>  (1) 
263.2

>  <PUBCHEM_COORDINATE_TYPE>  (1) 
2
5
10

$$$$
