14705
     RDKit          3D

 24 26  0  0  1  0  0  0  0  0999 V2000
    8.7045   -0.8148   -0.3523 F   0  0  0  0  0  0  0  0  0  0  0  0
   -6.6708    0.2560   -0.2637 O   0  0  0  0  0  0  0  0  0  0  0  0
    3.1129    1.7469    0.8833 O   0  0  0  0  0  0  0  0  0  0  0  0
   -1.5335   -0.1219   -0.2373 N   0  0  0  0  0  0  0  0  0  0  0  0
   -3.8440   -0.4009   -0.0292 C   0  0  0  0  0  0  0  0  0  0  0  0
   -3.2908    0.0428    1.3446 C   0  0  0  0  0  0  0  0  0  0  0  0
   -2.6012   -1.0090   -0.6990 C   0  0  0  0  0  0  0  0  0  0  0  0
   -4.3710    0.8142   -0.8334 C   0  0  0  0  0  0  0  0  0  0  0  0
   -4.9727   -1.4385    0.0922 C   0  0  0  0  0  0  0  0  0  0  0  0
   -1.7677    0.0420    1.1974 C   0  0  0  0  0  0  0  0  0  0  0  0
   -5.7172    1.3205   -0.3002 C   0  0  0  0  0  0  0  0  0  0  0  0
   -6.2696   -0.8070    0.6045 C   0  0  0  0  0  0  0  0  0  0  0  0
   -0.2072   -0.6436   -0.5304 C   0  0  0  0  0  0  0  0  0  0  0  0
   -6.2809    2.4148   -1.1978 C   0  0  0  0  0  0  0  0  0  0  0  0
   -7.3986   -1.8288    0.6352 C   0  0  0  0  0  0  0  0  0  0  0  0
    0.8654    0.3166   -0.0121 C   0  0  0  0  0  0  0  0  0  0  0  0
    2.2830   -0.1865   -0.2989 C   0  0  0  0  0  0  0  0  0  0  0  0
    3.3704    0.7111    0.2744 C   0  0  0  0  0  0  0  0  0  0  0  0
    4.7946    0.3037    0.1070 C   0  0  0  0  0  0  0  0  0  0  0  0
    5.0727   -0.8686   -0.5595 C   0  0  0  0  0  0  0  0  0  0  0  0
    5.7793    1.1150    0.6251 C   0  0  0  0  0  0  0  0  0  0  0  0
    6.4054   -1.2497   -0.7160 C   0  0  0  0  0  0  0  0  0  0  0  0
    7.1120    0.7340    0.4684 C   0  0  0  0  0  0  0  0  0  0  0  0
    7.4250   -0.4485   -0.2023 C   0  0  0  0  0  0  0  0  0  0  0  0
  1 24  1  0
  2 11  1  0
  2 12  1  0
  3 18  2  0
  4  7  1  0
  4 10  1  0
  4 13  1  0
  5  6  1  0
  5  7  1  0
  5  8  1  0
  5  9  1  0
  6 10  1  0
  8 11  1  0
  9 12  1  0
 11 14  1  0
 12 15  1  0
 13 16  1  0
 16 17  1  0
 17 18  1  0
 18 19  1  0
 19 20  2  0
 19 21  1  0
 20 22  1  0
 21 23  2  0
 22 24  2  0
 23 24  1  0
M  END
>  <PUBCHEM_COMPOUND_CID>  (1) 
14705

>  <PUBCHEM_CONFORMER_RMSD>  (1) 
0.8

>  <PUBCHEM_CONFORMER_DIVERSEORDER>  (1) 
1
200
67
8
381
261
430
132
349
101
422
318
6
201
350
420
244
11
419
404
47
357
302
21
297
93
90
382
353
412
119
189
380
424
94
56
411
44
284
65
163
376
31
191
14
104
195
249
38
418
395
58
283
301
86
401
26
183
396
290
394
385
72
212
49
128
304
303
193
365
164
95
186
63
319
55
340
450
46
262
260
334
423
135
82
222
331
299
102
359
157
339
229
204
314
333
109
161
278
400
142
393
36
149
7
207
441
368
443
138
237
274
307
391
256
292
370
3
252
91
293
221
154
113
19
305
134
397
409
377
309
18
286
330
53
218
402
2
17
159
85
387
223
269
324
446
20
358
12
188
257
206
123
210
107
315
281
438
266
452
178
300
141
87
202
78
71
133
225
45
137
146
111
326
336
320
174
246
364
346
390
217
316
403
190
129
344
175
118
92
127
115
228
267
158
453
399
22
122
428
171
454
436
405
351
421
367
239
294
328
250
363
238
247
389
32
306
165
209
68
88
354
375
235
448
342
379
408
425
110
213
311
192
211
184
447
264
282
196
355
73
34
108
437
255
162
156
322
214
167
173
219
168
439
117
126
426
233
312
435
179
51
62
227
332
145
245
187
139
270
180
356
327
272
4
341
275
236
323
433
295
386
348
160
410
40
273
373
231
414
84
230
197
76
285
10
64
289
148
445
392
106
241
296
15
170
240
279
383
317
398
13
29
144
37
444
60
216
338
155
112
251
280
259
449
362
215
254
105
226
451
116
407
253
16
352
263
378
114
313
143
103
50
413
172
276
406
153
243
335
321
343
23
208
199
288
69
310
96
203
440
166
442
43
374
268
124
431
140
66
298
415
83
205
429
369
384
277
25
265
372
388
9
30
234
177
120
224
77
42
41
308
287
61
28
248
366
198
125
97
291
345
176
27
131
194
48
70
360
150
417
434
35
416
329
147
232
185
427
361
99
371
79
59
325
258
24
54
5
98
242
432
89
347
57
271
220
52
121
75
337
130
169
39
100
136
81
80
33
74
152
181
151
182

>  <PUBCHEM_MMFF94_PARTIAL_CHARGES>  (1) 
21
1 -0.19
10 0.27
11 0.28
12 0.28
13 0.27
17 0.06
18 0.42
19 0.09
2 -0.56
20 -0.15
21 -0.15
22 -0.15
23 -0.15
24 0.19
3 -0.57
4 -0.81
49 0.15
50 0.15
51 0.15
52 0.15
7 0.27

>  <PUBCHEM_EFFECTIVE_ROTOR_COUNT>  (1) 
6.8

>  <PUBCHEM_PHARMACOPHORE_FEATURES>  (1) 
6
1 2 acceptor
1 3 acceptor
1 4 cation
5 4 5 6 7 10 rings
6 19 20 21 22 23 24 rings
6 2 5 8 9 11 12 rings

>  <PUBCHEM_HEAVY_ATOM_COUNT>  (1) 
24

>  <PUBCHEM_ATOM_DEF_STEREO_COUNT>  (1) 
0

>  <PUBCHEM_ATOM_UDEF_STEREO_COUNT>  (1) 
2

>  <PUBCHEM_BOND_DEF_STEREO_COUNT>  (1) 
0

>  <PUBCHEM_BOND_UDEF_STEREO_COUNT>  (1) 
0

>  <PUBCHEM_ISOTOPIC_ATOM_COUNT>  (1) 
0

>  <PUBCHEM_COMPONENT_COUNT>  (1) 
1

>  <PUBCHEM_CACTVS_TAUTO_COUNT>  (1) 
2

>  <PUBCHEM_CONFORMER_ID>  (1) 
0000397100000001

>  <PUBCHEM_MMFF94_ENERGY>  (1) 
58.2853

>  <PUBCHEM_FEATURE_SELFOVERLAP>  (1) 
30.452

>  <PUBCHEM_SHAPE_FINGERPRINT>  (1) 
100830 39 18338234869278054309
10299344 5 16732701645127414234
10638233 991 15502383335018700494
11135926 11 16845574197525948687
11315181 36 17917714616783014907
11719270 70 17917710185073669526
12082328 90 18187081750200891143
12091667 2 18113620093073475083
12166972 35 18409732906159819425
12236239 1 17846780723586579634
12516196 113 17748825228568305564
13533116 47 15626232273754332558
13668630 136 18341899588793480382
13685833 64 18412266151211861818
13885169 127 18333449824416276245
13914758 101 18408321055793288728
14251764 18 16989128656278233000
14251764 46 17022621983472752387
14856354 85 16443069413257311771
14933364 13 18409448093866367084
15183329 4 17988921150440644848
15419008 47 18411131437568917512
15419008 91 18339906187092502016
15510794 2 18260831497741323410
15537594 2 13695584468607565536
1577012 14 17095515167703744633
15778101 99 18334575695266247749
15849732 13 18411138047733556734
17093844 174 18333730221852061345
19489759 90 18113337522932877465
20281389 69 18342455967135657144
21267235 1 18060426803243658438
21315763 28 18261111902242366741
21792961 116 18201719531922626769
220451 1 15502372336008407584
22224240 67 16443343204579422834
23035841 295 15574712500007545696
23522609 53 16081668668047909669
23559900 14 17489013972161337185
28498 318 18272369738208040798
3004659 81 18408321095181308320
328311 84 18413673521489399750
34797466 226 15719397218539059430
3545911 37 18202283619108951543
4073 2 18262801895213193866
4325135 7 14405186166139282160
4339292 15 18272081760873150343
444735 82 18187929547319362372
59755656 215 18410012100714267070
59755656 520 18335696178402068407

>  <PUBCHEM_SHAPE_MULTIPOLES>  (1) 
469.92
26.05
1.63
1.01
20.53
0.46
0.1
-2.15
-1.18
-2.43
-0.22
-0.52
0.12
2.35

>  <PUBCHEM_SHAPE_SELFOVERLAP>  (1) 
981.719

>  <PUBCHEM_SHAPE_VOLUME>  (1) 
269.9

>  <PUBCHEM_COORDINATE_TYPE>  (1) 
2
5
10

$$$$
