14717
     RDKit          3D

 25 28  0  0  1  0  0  0  0  0999 V2000
   -4.4544   -0.7549    0.1760 O   0  0  0  0  0  0  0  0  0  0  0  0
    5.9257    0.1106    1.1545 O   0  0  0  0  0  0  0  0  0  0  0  0
   -6.1333    0.7975   -0.1535 O   0  0  0  0  0  0  0  0  0  0  0  0
   -1.2671    0.9900   -0.1194 C   0  0  0  0  0  0  0  0  0  0  0  0
    0.2444    0.8059    0.0478 C   0  0  0  0  0  0  0  0  0  0  0  0
   -2.0391   -0.3411   -0.0925 C   0  0  0  0  0  0  0  0  0  0  0  0
    0.7832   -0.1096   -1.0926 C   0  0  0  0  0  0  0  0  0  0  0  0
    2.3397   -0.3475   -0.9772 C   0  0  0  0  0  0  0  0  0  0  0  0
   -1.5790   -1.1726   -1.2941 C   0  0  0  0  0  0  0  0  0  0  0  0
   -0.0590   -1.4080   -1.2680 C   0  0  0  0  0  0  0  0  0  0  0  0
   -3.4785    0.1977   -0.1999 C   0  0  0  0  0  0  0  0  0  0  0  0
   -2.0206    1.8593    0.8852 C   0  0  0  0  0  0  0  0  0  0  0  0
    3.0622    1.0368   -0.9110 C   0  0  0  0  0  0  0  0  0  0  0  0
    0.9634    2.1579    0.0126 C   0  0  0  0  0  0  0  0  0  0  0  0
   -3.4888    1.4244    0.7318 C   0  0  0  0  0  0  0  0  0  0  0  0
    2.4674    1.9880    0.1502 C   0  0  0  0  0  0  0  0  0  0  0  0
   -1.8641   -1.1630    1.2094 C   0  0  0  0  0  0  0  0  0  0  0  0
    2.8233   -1.1296   -2.2240 C   0  0  0  0  0  0  0  0  0  0  0  0
    2.7299   -1.1713    0.2400 C   0  0  0  0  0  0  0  0  0  0  0  0
    4.5667    0.8821   -0.6511 C   0  0  0  0  0  0  0  0  0  0  0  0
    3.8582   -1.0255    0.9543 C   0  0  0  0  0  0  0  0  0  0  0  0
    4.8597    0.0054    0.5481 C   0  0  0  0  0  0  0  0  0  0  0  0
    4.1880   -1.8752    2.1418 C   0  0  0  0  0  0  0  0  0  0  0  0
   -5.7553   -0.3241    0.1568 C   0  0  0  0  0  0  0  0  0  0  0  0
   -6.6727   -1.4331    0.5747 C   0  0  0  0  0  0  0  0  0  0  0  0
  1 11  1  0
  1 24  1  0
  2 22  2  0
  3 24  2  0
  4  5  1  0
  4  6  1  0
  4 12  1  0
  5  7  1  0
  5 14  1  0
  6  9  1  0
  6 11  1  0
  6 17  1  0
  7  8  1  0
  7 10  1  0
  8 13  1  0
  8 18  1  0
  8 19  1  0
  9 10  1  0
 11 15  1  0
 12 15  1  0
 13 16  1  0
 13 20  1  0
 14 16  1  0
 19 21  2  0
 20 22  1  0
 21 22  1  0
 21 23  1  0
 24 25  1  0
M  END
>  <PUBCHEM_COMPOUND_CID>  (1) 
14717

>  <PUBCHEM_CONFORMER_RMSD>  (1) 
0.8

>  <PUBCHEM_CONFORMER_DIVERSEORDER>  (1) 
1
7
5
12
8
22
23
2
4
24
25
10
18
20
21
11
19
15
17
3
16
13
9
14
6

>  <PUBCHEM_MMFF94_PARTIAL_CHARGES>  (1) 
13
1 -0.43
11 0.28
19 -0.29
2 -0.57
20 0.06
21 -0.12
22 0.49
23 0.14
24 0.66
25 0.06
3 -0.57
49 0.15
8 0.14

>  <PUBCHEM_EFFECTIVE_ROTOR_COUNT>  (1) 
3.6

>  <PUBCHEM_PHARMACOPHORE_FEATURES>  (1) 
6
1 2 acceptor
1 3 acceptor
5 4 6 11 12 15 rings
6 4 5 6 7 9 10 rings
6 5 7 8 13 14 16 rings
6 8 13 19 20 21 22 rings

>  <PUBCHEM_HEAVY_ATOM_COUNT>  (1) 
25

>  <PUBCHEM_ATOM_DEF_STEREO_COUNT>  (1) 
4

>  <PUBCHEM_ATOM_UDEF_STEREO_COUNT>  (1) 
3

>  <PUBCHEM_BOND_DEF_STEREO_COUNT>  (1) 
0

>  <PUBCHEM_BOND_UDEF_STEREO_COUNT>  (1) 
0

>  <PUBCHEM_ISOTOPIC_ATOM_COUNT>  (1) 
0

>  <PUBCHEM_COMPONENT_COUNT>  (1) 
1

>  <PUBCHEM_CACTVS_TAUTO_COUNT>  (1) 
2

>  <PUBCHEM_CONFORMER_ID>  (1) 
0000397D00000001

>  <PUBCHEM_MMFF94_ENERGY>  (1) 
75.0117

>  <PUBCHEM_FEATURE_SELFOVERLAP>  (1) 
30.602

>  <PUBCHEM_SHAPE_FINGERPRINT>  (1) 
10 15 18131062775669960728
106641 1 18201432623548614232
10906281 52 18270141062039509945
11578080 2 15553310608941351819
11646440 116 17418382414813995337
11796584 16 17458063768223127483
12107183 9 17684080279960534993
12236239 1 18334013891029506965
12403259 415 17060064696346697877
12592029 89 18272657839739332527
12596602 18 18334573529568450890
12633257 1 18272928357948126404
12788726 201 18343029873582494369
12839892 36 18272929402000258367
13140716 1 17915170441254832238
13224815 77 17417817205649753420
13533116 47 17968094213745406874
13583140 156 17968950797965233041
13862211 1 18272931665848475799
14178342 30 17913777123836480465
15142383 8 17821999874885779749
15183329 4 18335706014478036597
15196674 1 18058742307715692621
15238133 3 18261963963888270724
16728300 4 18044357353871327283
17349148 13 18202277013591616893
17492 89 18117833301161577794
17857418 61 18260828194204266339
1813 80 17677335988212170422
18681886 176 18060425750608029556
19141452 34 16226052218808115227
19784866 240 17530965731240606466
20028762 73 17988362676139455407
20511986 3 18187351160308265250
21033648 29 16845283895890226136
21267235 1 18412832374109632886
22149856 69 17559979713606460075
2215653 11 13406791134028243283
22182313 1 17844813590015983605
22224240 67 17417801868901781630
23402539 116 18413103979330651245
23536379 177 17458062656105970725
23557571 272 17131839741602826777
23559900 14 17843977935472224102
23569914 2 13323736027369751859
25147074 1 18057033825227486237
2838139 119 13614224976714150098
29717793 49 15574432133180052279
3004659 81 18335428962542018748
3411729 13 17986663982261576176
345986 75 17970608720045658392
350125 39 18272653467336310513
3545911 37 17418099818961525094
3633792 109 17168413901470059787
3680242 22 18339085899883192411
3886686 26 17114937795505556978
4072396 5 18343016666784522319
4340502 62 17822293517314870682
439807 62 17969224602953903267
465052 167 18410014350944554326
5104073 3 17702394957140506027
5374978 207 18343585148423673177
7495541 125 18260834847166772765
8509985 295 18408038502958933176
8988823 20 17749389286654840236

>  <PUBCHEM_SHAPE_MULTIPOLES>  (1) 
496.88
12.98
1.96
1.5
11.99
0.46
0.08
-2.68
-3.81
-0.29
-0.34
-1.68
-0.78
-0.73

>  <PUBCHEM_SHAPE_SELFOVERLAP>  (1) 
1059.104

>  <PUBCHEM_SHAPE_VOLUME>  (1) 
274.2

>  <PUBCHEM_COORDINATE_TYPE>  (1) 
2
5
10

$$$$
