14723
     RDKit          3D

 27 31  0  0  1  0  0  0  0  0999 V2000
    0.6894    2.9942    0.3763 O   0  0  0  0  0  0  0  0  0  0  0  0
    5.8099   -0.7241   -0.6087 O   0  0  0  0  0  0  0  0  0  0  0  0
   -5.6516   -2.2129    1.4611 O   0  0  0  0  0  0  0  0  0  0  0  0
    5.7414   -2.8078    0.3657 O   0  0  0  0  0  0  0  0  0  0  0  0
    0.3762    1.5914    0.3882 C   0  0  0  0  0  0  0  0  0  0  0  0
    1.4709    0.8391   -0.4216 C   0  0  0  0  0  0  0  0  0  0  0  0
   -1.0575    1.4073   -0.1796 C   0  0  0  0  0  0  0  0  0  0  0  0
   -1.4245   -0.0909   -0.4458 C   0  0  0  0  0  0  0  0  0  0  0  0
    2.6822    0.9309    0.5518 C   0  0  0  0  0  0  0  0  0  0  0  0
    1.0475   -0.6258   -0.6890 C   0  0  0  0  0  0  0  0  0  0  0  0
   -2.8841   -0.2559   -1.0135 C   0  0  0  0  0  0  0  0  0  0  0  0
    0.5843    1.0830    1.8291 C   0  0  0  0  0  0  0  0  0  0  0  0
   -0.3394   -0.7460   -1.3193 C   0  0  0  0  0  0  0  0  0  0  0  0
    2.0746    0.7331    1.9486 C   0  0  0  0  0  0  0  0  0  0  0  0
   -2.1251    2.1091    0.6952 C   0  0  0  0  0  0  0  0  0  0  0  0
    1.8135    1.5280   -1.7583 C   0  0  0  0  0  0  0  0  0  0  0  0
   -3.8074    0.4481   -0.0141 C   0  0  0  0  0  0  0  0  0  0  0  0
   -3.5489    1.9199    0.1704 C   0  0  0  0  0  0  0  0  0  0  0  0
   -3.3185   -1.7416   -1.1795 C   0  0  0  0  0  0  0  0  0  0  0  0
    3.8273    0.0134    0.2667 C   0  0  0  0  0  0  0  0  0  0  0  0
   -3.0290    0.3722   -2.4235 C   0  0  0  0  0  0  0  0  0  0  0  0
   -3.6681   -2.4245    0.1302 C   0  0  0  0  0  0  0  0  0  0  0  0
   -4.7014   -0.1752    0.7713 C   0  0  0  0  0  0  0  0  0  0  0  0
    4.9515    0.4214   -0.6000 C   0  0  0  0  0  0  0  0  0  0  0  0
   -4.7687   -1.6547    0.8138 C   0  0  0  0  0  0  0  0  0  0  0  0
    3.9946   -1.2260    0.7200 C   0  0  0  0  0  0  0  0  0  0  0  0
    5.2608   -1.7058    0.1642 C   0  0  0  0  0  0  0  0  0  0  0  0
  1  5  1  0
  2 24  1  0
  2 27  1  0
  3 25  2  0
  4 27  2  0
  5  6  1  0
  5  7  1  0
  5 12  1  0
  6  9  1  0
  6 10  1  0
  6 16  1  0
  7  8  1  0
  7 15  1  0
  8 11  1  0
  8 13  1  0
  9 14  1  0
  9 20  1  0
 10 13  1  0
 11 17  1  0
 11 19  1  0
 11 21  1  0
 12 14  1  0
 15 18  1  0
 17 18  1  0
 17 23  2  0
 19 22  1  0
 20 24  1  0
 20 26  2  0
 22 25  1  0
 23 25  1  0
 26 27  1  0
M  END
>  <PUBCHEM_COMPOUND_CID>  (1) 
14723

>  <PUBCHEM_CONFORMER_RMSD>  (1) 
0.8

>  <PUBCHEM_CONFORMER_DIVERSEORDER>  (1) 
1
7
3
10
31
22
21
30
5
25
9
24
26
16
29
11
28
18
34
15
13
27
4
19
20
6
17
12
23
32
14
33
2
8

>  <PUBCHEM_MMFF94_PARTIAL_CHARGES>  (1) 
19
1 -0.68
11 0.14
17 -0.28
18 0.14
2 -0.43
20 -0.28
22 0.06
23 -0.14
24 0.42
25 0.49
26 -0.14
27 0.71
3 -0.57
4 -0.57
48 0.4
5 0.28
54 0.15
57 0.15
9 0.14

>  <PUBCHEM_EFFECTIVE_ROTOR_COUNT>  (1) 
3.2

>  <PUBCHEM_PHARMACOPHORE_FEATURES>  (1) 
9
1 1 acceptor
1 1 donor
1 3 acceptor
1 4 acceptor
5 2 20 24 26 27 rings
5 5 6 9 12 14 rings
6 11 17 19 22 23 25 rings
6 5 6 7 8 10 13 rings
6 7 8 11 15 17 18 rings

>  <PUBCHEM_HEAVY_ATOM_COUNT>  (1) 
27

>  <PUBCHEM_ATOM_DEF_STEREO_COUNT>  (1) 
3

>  <PUBCHEM_ATOM_UDEF_STEREO_COUNT>  (1) 
3

>  <PUBCHEM_BOND_DEF_STEREO_COUNT>  (1) 
0

>  <PUBCHEM_BOND_UDEF_STEREO_COUNT>  (1) 
0

>  <PUBCHEM_ISOTOPIC_ATOM_COUNT>  (1) 
0

>  <PUBCHEM_COMPONENT_COUNT>  (1) 
1

>  <PUBCHEM_CACTVS_TAUTO_COUNT>  (1) 
5

>  <PUBCHEM_CONFORMER_ID>  (1) 
0000398300000001

>  <PUBCHEM_MMFF94_ENERGY>  (1) 
81.61

>  <PUBCHEM_FEATURE_SELFOVERLAP>  (1) 
45.891

>  <PUBCHEM_SHAPE_FINGERPRINT>  (1) 
10498660 4 8142091974183247203
10675989 125 16116008353388723784
10928967 22 18336249223928933282
11089746 13 10880004535993950248
11135609 12 18408328787029586627
117089 54 17826250750322846083
11763715 3 18265074469899948836
11796584 16 18339079268453576578
11961588 58 8935003633750581339
12236239 1 18261398819370104308
12403259 118 12895061955287791163
12422481 6 17560813086530392735
12633257 1 16415479389028837281
12760667 363 18058721400094665414
12969540 114 15068631478613857816
13009979 54 18410302401638008364
13103583 49 17774731951675579259
13140716 1 17774158049782009981
13224815 77 17702943781173350261
13383661 66 17169856554688073955
13911987 19 11602825683122315939
13965767 371 11886859253650315259
14251764 30 18408324405920793450
14341114 176 18409732901964429379
14420673 8 18268151959141689818
14739800 52 9295002402481129086
14950920 106 17773329031047918787
15209289 33 18408039636925556899
15238133 3 14476695138419097507
15788980 27 18202560674543033892
17349148 13 18202002127194867748
17492 54 11891335348365429942
17804303 29 17917705807810709520
17980427 23 13326847855259314275
1813 80 18114468855883711764
18927931 339 18202283584844022927
200 152 15213294257940304669
21033648 29 17275092904088460777
22393880 68 17167849864124989348
22950370 63 18409732863346581968
23559900 14 18261669372287055645
23569943 247 14906790947575237996
3737641 26 18339645525516706170
392239 28 16486679308537299162
4058900 60 17613988604914991741
46194498 28 17241329208502490158
465052 167 18343589534123456606
474113 269 18270116959496266159
5104073 3 18201996604278362720
57724786 102 14907889535927398114
7970288 3 18192996139427684251

>  <PUBCHEM_SHAPE_MULTIPOLES>  (1) 
532.17
11.96
2.61
1.62
6.46
0.33
0.26
8.96
-1.78
-0.47
-0.53
-0.71
-0.15
0.26

>  <PUBCHEM_SHAPE_SELFOVERLAP>  (1) 
1163.415

>  <PUBCHEM_SHAPE_VOLUME>  (1) 
288.1

>  <PUBCHEM_COORDINATE_TYPE>  (1) 
2
5
10

$$$$
