14731
     RDKit          3D

 28 30  0  0  0  0  0  0  0  0999 V2000
   -5.9284   -1.7831   -1.2436 O   0  0  0  0  0  0  0  0  0  0  0  0
   -7.6119   -0.4028    0.4847 O   0  0  0  0  0  0  0  0  0  0  0  0
    6.1490   -3.0273    0.2154 O   0  0  0  0  0  0  0  0  0  0  0  0
    0.0256    1.1549    0.5291 N   0  0  0  0  0  0  0  0  0  0  0  0
    2.8266    0.9069    0.0276 N   0  0  0  0  0  0  0  0  0  0  0  0
    4.3664   -1.4852    0.2154 N   0  0  0  0  0  0  0  0  0  0  0  0
    0.5123    0.7986   -0.8091 C   0  0  0  0  0  0  0  0  0  0  0  0
    0.9154    0.5897    1.5510 C   0  0  0  0  0  0  0  0  0  0  0  0
    1.9244    1.3408   -1.0435 C   0  0  0  0  0  0  0  0  0  0  0  0
    2.3403    1.1260    1.3956 C   0  0  0  0  0  0  0  0  0  0  0  0
   -1.3436    0.6782    0.7210 C   0  0  0  0  0  0  0  0  0  0  0  0
    4.2095    0.9080   -0.1868 C   0  0  0  0  0  0  0  0  0  0  0  0
   -2.2968    1.3328   -0.2796 C   0  0  0  0  0  0  0  0  0  0  0  0
   -3.7166    0.8664   -0.0780 C   0  0  0  0  0  0  0  0  0  0  0  0
    4.9816   -0.2696   -0.0973 C   0  0  0  0  0  0  0  0  0  0  0  0
    4.8756    2.1094   -0.5052 C   0  0  0  0  0  0  0  0  0  0  0  0
    6.3589   -0.2458   -0.3166 C   0  0  0  0  0  0  0  0  0  0  0  0
   -4.1694   -0.2524   -0.7606 C   0  0  0  0  0  0  0  0  0  0  0  0
   -4.5458    1.5643    0.7870 C   0  0  0  0  0  0  0  0  0  0  0  0
    6.2529    2.1332   -0.7245 C   0  0  0  0  0  0  0  0  0  0  0  0
    6.9945    0.9556   -0.6301 C   0  0  0  0  0  0  0  0  0  0  0  0
   -5.4826   -0.6839   -0.5736 C   0  0  0  0  0  0  0  0  0  0  0  0
   -5.8591    1.1328    0.9737 C   0  0  0  0  0  0  0  0  0  0  0  0
   -6.3275    0.0087    0.2935 C   0  0  0  0  0  0  0  0  0  0  0  0
    4.9626   -2.7448    0.3469 C   0  0  0  0  0  0  0  0  0  0  0  0
    3.9498   -3.8068    0.6944 C   0  0  0  0  0  0  0  0  0  0  0  0
   -5.7608   -3.0457   -0.6017 C   0  0  0  0  0  0  0  0  0  0  0  0
   -8.6030    0.1409   -0.3851 C   0  0  0  0  0  0  0  0  0  0  0  0
  1 22  1  0
  1 27  1  0
  2 24  1  0
  2 28  1  0
  3 25  2  0
  4  7  1  0
  4  8  1  0
  4 11  1  0
  5  9  1  0
  5 10  1  0
  5 12  1  0
  6 15  1  0
  6 25  1  0
  7  9  1  0
  8 10  1  0
 11 13  1  0
 12 15  2  0
 12 16  1  0
 13 14  1  0
 14 18  2  0
 14 19  1  0
 15 17  1  0
 16 20  2  0
 17 21  2  0
 18 22  1  0
 19 23  2  0
 20 21  1  0
 22 24  2  0
 23 24  1  0
 25 26  1  0
M  END
>  <PUBCHEM_COMPOUND_CID>  (1) 
14731

>  <PUBCHEM_CONFORMER_RMSD>  (1) 
1

>  <PUBCHEM_CONFORMER_DIVERSEORDER>  (1) 
1
49
123
79
32
80
98
128
27
41
84
5
54
104
136
124
116
33
15
135
90
72
59
51
122
42
137
29
39
11
119
67
95
105
106
118
71
117
28
76
47
132
127
63
46
143
16
101
68
148
87
115
103
139
34
8
121
97
140
149
108
56
99
88
114
83
3
57
58
12
69
126
151
26
18
109
4
111
74
77
120
65
22
70
20
96
94
125
19
43
131
89
7
48
147
81
64
44
38
53
62
133
31
66
60
134
142
24
138
141
130
92
9
30
21
73
100
55
112
110
129
93
40
85
37
2
146
13
150
86
10
102
78
91
35
45
50
145
23
17
36
6
75
82
52
25
113
107
14
61
144

>  <PUBCHEM_MMFF94_PARTIAL_CHARGES>  (1) 
36
1 -0.36
10 0.37
11 0.27
12 0.1
13 0.14
14 -0.14
15 0.12
16 -0.15
17 -0.15
18 -0.15
19 -0.15
2 -0.36
20 -0.15
21 -0.15
22 0.08
23 -0.15
24 0.08
25 0.57
26 0.06
27 0.28
28 0.28
3 -0.57
4 -0.81
41 0.15
42 0.15
43 0.15
44 0.15
45 0.15
46 0.37
47 0.15
48 0.15
5 -0.84
6 -0.55
7 0.27
8 0.27
9 0.37

>  <PUBCHEM_EFFECTIVE_ROTOR_COUNT>  (1) 
9.2

>  <PUBCHEM_PHARMACOPHORE_FEATURES>  (1) 
9
1 1 acceptor
1 2 acceptor
1 3 acceptor
1 4 cation
1 5 cation
1 6 donor
6 12 15 16 17 20 21 rings
6 14 18 19 22 23 24 rings
6 4 5 7 8 9 10 rings

>  <PUBCHEM_HEAVY_ATOM_COUNT>  (1) 
28

>  <PUBCHEM_ATOM_DEF_STEREO_COUNT>  (1) 
0

>  <PUBCHEM_ATOM_UDEF_STEREO_COUNT>  (1) 
0

>  <PUBCHEM_BOND_DEF_STEREO_COUNT>  (1) 
0

>  <PUBCHEM_BOND_UDEF_STEREO_COUNT>  (1) 
0

>  <PUBCHEM_ISOTOPIC_ATOM_COUNT>  (1) 
0

>  <PUBCHEM_COMPONENT_COUNT>  (1) 
1

>  <PUBCHEM_CACTVS_TAUTO_COUNT>  (1) 
2

>  <PUBCHEM_CONFORMER_ID>  (1) 
0000398B00000001

>  <PUBCHEM_MMFF94_ENERGY>  (1) 
112.3245

>  <PUBCHEM_FEATURE_SELFOVERLAP>  (1) 
45.678

>  <PUBCHEM_SHAPE_FINGERPRINT>  (1) 
10 15 16200145521418202873
10299344 5 18343586248193906661
10595046 47 18411985749956506256
11089746 13 10303816483774972509
11315181 36 18272093833878168729
11524674 6 15985105241309121997
11646440 116 14620800409225705384
11719270 70 17346320371047504703
11796584 16 18060706082637584254
11991303 11 14490486304350411713
12107183 9 17691411806942696440
13533116 47 18411419488799051560
1361 2 18333171657271369314
1361 4 18412545422517558470
13668630 136 17530969103343536121
13782708 43 17275097379840164613
14251764 18 18131917057265336269
14347332 77 18262797341819801120
15119646 104 18410857633877654802
15183329 4 18410292518938891547
15328684 2 17631743642732567923
15348495 7 11743828192645562708
15352257 5 18413107264611731043
15467298 65 18412535509965765007
15475509 35 18130213870957291226
15799311 1 18340498819442962963
17134984 74 18409167736325211826
20567600 247 18411979152617318146
21033648 29 14548737253753891953
21150785 3 18113619018667324512
21641784 216 14851884695004937886
21792934 111 12967132701396535091
220451 1 18343588438353031593
23516275 137 18057349239200326083
23522609 53 18128564650233493905
23569914 152 16888033853187960799
23569943 247 17898007923902895546
255183 451 18195818367370728198
2838139 119 11746936516486189223
3004659 81 17275387628987077416
34797466 226 17385445435844679164
3663271 9 18272654532276846265
397830 11 12462987979249040021
4073 2 18263929993351520554
4098825 35 18262518091968524077
439807 62 18341892978791033827
465052 167 17561085821818537092
5104073 3 17418092148440150177

>  <PUBCHEM_SHAPE_MULTIPOLES>  (1) 
543.68
24.44
3.08
1.1
21.25
3.99
0.16
5.52
-3.36
-4.39
0.11
0.26
-0.15
-2.6

>  <PUBCHEM_SHAPE_SELFOVERLAP>  (1) 
1139.25

>  <PUBCHEM_SHAPE_VOLUME>  (1) 
307.6

>  <PUBCHEM_COORDINATE_TYPE>  (1) 
2
5
10

$$$$
