14746
     RDKit          3D

 32 36  0  0  1  0  0  0  0  0999 V2000
    1.0262   -2.7694   -1.5994 O   0  0  0  0  0  0  0  0  0  0  0  0
    1.6459   -2.4086    1.3649 O   0  0  0  0  0  0  0  0  0  0  0  0
   -6.1434    1.2397    0.2028 O   0  0  0  0  0  0  0  0  0  0  0  0
    5.6825    2.0454   -0.2893 O   0  0  0  0  0  0  0  0  0  0  0  0
    1.4285   -1.9607    3.6258 O   0  0  0  0  0  0  0  0  0  0  0  0
    5.4442    3.2358    1.6657 O   0  0  0  0  0  0  0  0  0  0  0  0
   -5.7852    3.4501   -0.3852 O   0  0  0  0  0  0  0  0  0  0  0  0
    1.0260   -1.3490   -1.4806 C   0  0  0  0  0  0  0  0  0  0  0  0
   -0.4259   -0.8570   -1.1514 C   0  0  0  0  0  0  0  0  0  0  0  0
    2.1129   -0.8719   -0.4656 C   0  0  0  0  0  0  0  0  0  0  0  0
   -0.8228   -1.0889    0.3329 C   0  0  0  0  0  0  0  0  0  0  0  0
   -2.2974   -0.6183    0.6768 C   0  0  0  0  0  0  0  0  0  0  0  0
    1.6442   -1.0245    1.0000 C   0  0  0  0  0  0  0  0  0  0  0  0
   -3.3062   -1.2157   -0.3598 C   0  0  0  0  0  0  0  0  0  0  0  0
    0.2444   -0.4677    1.2606 C   0  0  0  0  0  0  0  0  0  0  0  0
    2.2995    0.6123   -0.9057 C   0  0  0  0  0  0  0  0  0  0  0  0
    1.5267   -0.7417   -2.8082 C   0  0  0  0  0  0  0  0  0  0  0  0
   -1.4665   -1.5301   -2.0658 C   0  0  0  0  0  0  0  0  0  0  0  0
   -2.8623   -0.9865   -1.8126 C   0  0  0  0  0  0  0  0  0  0  0  0
    2.2478    0.5604   -2.4424 C   0  0  0  0  0  0  0  0  0  0  0  0
   -2.4256    0.9313    0.6996 C   0  0  0  0  0  0  0  0  0  0  0  0
    3.4428   -1.6653   -0.6385 C   0  0  0  0  0  0  0  0  0  0  0  0
   -4.7414   -0.6858   -0.1731 C   0  0  0  0  0  0  0  0  0  0  0  0
   -2.6597   -1.1666    2.0864 C   0  0  0  0  0  0  0  0  0  0  0  0
   -3.8590    1.4286    0.8895 C   0  0  0  0  0  0  0  0  0  0  0  0
   -4.8184    0.8392   -0.1361 C   0  0  0  0  0  0  0  0  0  0  0  0
    3.5143    1.3172   -0.3904 C   0  0  0  0  0  0  0  0  0  0  0  0
    4.8080    1.2535   -1.1003 C   0  0  0  0  0  0  0  0  0  0  0  0
    3.6060    2.0572    0.7113 C   0  0  0  0  0  0  0  0  0  0  0  0
    1.2777   -2.6727    2.6453 C   0  0  0  0  0  0  0  0  0  0  0  0
    4.9903    2.5269    0.7840 C   0  0  0  0  0  0  0  0  0  0  0  0
   -6.3540    2.5827    0.2589 C   0  0  0  0  0  0  0  0  0  0  0  0
  1  8  1  0
  2 13  1  0
  2 30  1  0
  3 26  1  0
  3 32  1  0
  4 28  1  0
  4 31  1  0
  5 30  2  0
  6 31  2  0
  7 32  2  0
  8  9  1  0
  8 10  1  0
  8 17  1  0
  9 11  1  0
  9 18  1  0
 10 13  1  0
 10 16  1  0
 10 22  1  0
 11 12  1  0
 11 15  1  0
 12 14  1  0
 12 21  1  0
 12 24  1  0
 13 15  1  0
 14 19  1  0
 14 23  1  0
 16 20  1  0
 16 27  1  0
 17 20  1  0
 18 19  1  0
 21 25  1  0
 23 26  1  0
 25 26  1  0
 27 28  1  0
 27 29  2  0
 29 31  1  0
M  END
>  <PUBCHEM_COMPOUND_CID>  (1) 
14746

>  <PUBCHEM_CONFORMER_RMSD>  (1) 
1

>  <PUBCHEM_CONFORMER_DIVERSEORDER>  (1) 
1
22
15
18
19
20
7
3
21
13
2
11
12
23
17
8
14
6
16
5
10
4
9

>  <PUBCHEM_MMFF94_PARTIAL_CHARGES>  (1) 
21
1 -0.68
13 0.28
16 0.14
2 -0.43
26 0.28
27 -0.28
28 0.42
29 -0.14
3 -0.43
30 0.66
31 0.71
32 0.66
4 -0.43
5 -0.57
6 -0.57
61 0.4
64 0.15
65 0.06
66 0.06
7 -0.57
8 0.28

>  <PUBCHEM_EFFECTIVE_ROTOR_COUNT>  (1) 
7.6

>  <PUBCHEM_PHARMACOPHORE_FEATURES>  (1) 
10
1 1 acceptor
1 1 donor
1 5 acceptor
1 6 acceptor
1 7 acceptor
5 4 27 28 29 31 rings
5 8 10 16 17 20 rings
6 12 14 21 23 25 26 rings
6 8 9 10 11 13 15 rings
6 9 11 12 14 18 19 rings

>  <PUBCHEM_HEAVY_ATOM_COUNT>  (1) 
32

>  <PUBCHEM_ATOM_DEF_STEREO_COUNT>  (1) 
7

>  <PUBCHEM_ATOM_UDEF_STEREO_COUNT>  (1) 
2

>  <PUBCHEM_BOND_DEF_STEREO_COUNT>  (1) 
0

>  <PUBCHEM_BOND_UDEF_STEREO_COUNT>  (1) 
0

>  <PUBCHEM_ISOTOPIC_ATOM_COUNT>  (1) 
0

>  <PUBCHEM_COMPONENT_COUNT>  (1) 
1

>  <PUBCHEM_CACTVS_TAUTO_COUNT>  (1) 
1

>  <PUBCHEM_CONFORMER_ID>  (1) 
0000399A00000001

>  <PUBCHEM_MMFF94_ENERGY>  (1) 
115.6872

>  <PUBCHEM_FEATURE_SELFOVERLAP>  (1) 
50.97

>  <PUBCHEM_SHAPE_FINGERPRINT>  (1) 
10006869 2 18191294980222701229
10498660 4 17917439726207641581
10556698 54 15840982266025509937
11961588 58 17632574980654540461
12166972 35 17058097588329874478
12633257 1 16660647405121497029
13726171 33 18059583511768577745
13965767 371 18334853879416737071
14178342 30 17168721828776157883
14251764 30 8502114949523963768
14739800 52 18335696109893270185
15082195 135 17703214132395793573
15238133 3 17968109628309439404
15420108 30 17822283626269452386
17492 54 16343710953732690708
17852330 28 12350394041359159681
19438510 23 18410857659526367097
1979834 28 16515407335278104123
20511986 3 18410003330586214677
20775438 99 12605958524197214845
20775530 9 8214148404132778497
21033648 29 18041848423508855288
21475661 188 18337113461759160796
22149856 69 17387723573537294249
22393880 68 17418089970311520805
22907989 373 16630256818494956817
23559900 14 17984708822874794311
23569914 2 17905283487118726845
2838139 119 18129657646822609948
376196 1 18411985801453357186
4112364 45 18336255744131724617
474 4 18114468958345709036
474113 269 12613041634945400665
484985 159 11205932222191212961
5104073 3 17603869983844621827
5385378 56 17748824090523155346
563151 74 17605246567949465119
58260988 393 18265900344560094599
5895379 119 17629490683203865520
7808743 9 17917706958983037247
9981440 41 18339929323796131771

>  <PUBCHEM_SHAPE_MULTIPOLES>  (1) 
617.46
12.21
3.28
2.58
8.02
1.69
-0.8
14.65
-0.49
-0.86
-1.06
-1.6
-1.89
0.31

>  <PUBCHEM_SHAPE_SELFOVERLAP>  (1) 
1332.472

>  <PUBCHEM_SHAPE_VOLUME>  (1) 
335.2

>  <PUBCHEM_COORDINATE_TYPE>  (1) 
2
5
10

$$$$
