14763
     RDKit          3D

 22 22  0  0  1  0  0  0  0  0999 V2000
    6.1892    3.5886   -0.4128 O   0  0  0  0  0  0  0  0  0  0  0  0
    4.6891   -1.0099    0.1018 N   0  0  0  0  0  0  0  0  0  0  0  0
    6.8544   -0.5534   -0.8023 N   0  0  0  0  0  0  0  0  0  0  0  0
    5.8630   -0.0925    0.2227 C   0  0  0  0  0  0  0  0  0  0  0  0
    3.4685   -0.9392    0.9098 C   0  0  0  0  0  0  0  0  0  0  0  0
    2.2535   -0.7251    0.0137 C   0  0  0  0  0  0  0  0  0  0  0  0
    0.9454   -0.5882    0.8031 C   0  0  0  0  0  0  0  0  0  0  0  0
    5.4503    1.3392   -0.1027 C   0  0  0  0  0  0  0  0  0  0  0  0
   -0.2805   -0.3605   -0.0886 C   0  0  0  0  0  0  0  0  0  0  0  0
   -1.5951   -0.2916    0.6930 C   0  0  0  0  0  0  0  0  0  0  0  0
   -2.8250   -0.1251   -0.2053 C   0  0  0  0  0  0  0  0  0  0  0  0
    6.4926   -0.2200    1.6061 C   0  0  0  0  0  0  0  0  0  0  0  0
   -4.1383   -0.0302    0.5744 C   0  0  0  0  0  0  0  0  0  0  0  0
    4.9488   -1.8479   -0.8201 C   0  0  0  0  0  0  0  0  0  0  0  0
   -5.3381    0.0626   -0.3712 C   0  0  0  0  0  0  0  0  0  0  0  0
   -6.6559    0.1196    0.4051 C   0  0  0  0  0  0  0  0  0  0  0  0
    6.2841   -1.5613   -1.3732 C   0  0  0  0  0  0  0  0  0  0  0  0
    6.6458    2.2752   -0.1206 C   0  0  0  0  0  0  0  0  0  0  0  0
   -7.8548    0.1793   -0.5434 C   0  0  0  0  0  0  0  0  0  0  0  0
   -9.2042    0.2153    0.1809 C   0  0  0  0  0  0  0  0  0  0  0  0
  -10.4400    0.2982   -0.7182 C   0  0  0  0  0  0  0  0  0  0  0  0
  -11.7529    0.2669    0.0478 C   0  0  0  0  0  0  0  0  0  0  0  0
  1 18  1  0
  2  4  1  0
  2  5  1  0
  2 14  2  0
  3  4  1  0
  3 17  2  0
  4  8  1  0
  4 12  1  0
  5  6  1  0
  6  7  1  0
  7  9  1  0
  8 18  1  0
  9 10  1  0
 10 11  1  0
 11 13  1  0
 13 15  1  0
 14 17  1  0
 15 16  1  0
 16 19  1  0
 19 20  1  0
 20 21  1  0
 21 22  1  0
M  CHG  1   2   1
M  END
>  <PUBCHEM_COMPOUND_CID>  (1) 
14763

>  <PUBCHEM_CONFORMER_RMSD>  (1) 
1.4

>  <PUBCHEM_CONFORMER_DIVERSEORDER>  (1) 
1
72
28
43
61
103
97
31
22
26
77
12
71
6
5
46
101
80
54
58
19
81
18
83
64
42
68
40
33
88
8
51
29
16
13
50
67
105
20
52
57
91
49
27
92
96
35
47
32
41
44
82
73
100
75
17
62
15
93
65
78
10
69
84
85
11
86
90
60
23
89
55
95
39
14
34
59
104
99
4
66
2
36
30
9
25
70
24
94
48
38
102
74
79
7
21
37
98
87
45
53
3
56
76
63

>  <PUBCHEM_MMFF94_PARTIAL_CHARGES>  (1) 
11
1 -0.68
14 0.34
17 0.39
18 0.28
2 -0.09
3 -0.7
4 0.59
42 0.06
47 0.06
5 0.35
56 0.4

>  <PUBCHEM_EFFECTIVE_ROTOR_COUNT>  (1) 
14.2

>  <PUBCHEM_PHARMACOPHORE_FEATURES>  (1) 
5
1 1 acceptor
1 1 donor
1 22 hydrophobe
1 3 acceptor
5 2 3 4 14 17 rings

>  <PUBCHEM_HEAVY_ATOM_COUNT>  (1) 
22

>  <PUBCHEM_ATOM_DEF_STEREO_COUNT>  (1) 
0

>  <PUBCHEM_ATOM_UDEF_STEREO_COUNT>  (1) 
1

>  <PUBCHEM_BOND_DEF_STEREO_COUNT>  (1) 
0

>  <PUBCHEM_BOND_UDEF_STEREO_COUNT>  (1) 
0

>  <PUBCHEM_ISOTOPIC_ATOM_COUNT>  (1) 
0

>  <PUBCHEM_COMPONENT_COUNT>  (1) 
1

>  <PUBCHEM_CACTVS_TAUTO_COUNT>  (1) 
1

>  <PUBCHEM_CONFORMER_ID>  (1) 
000039AB00000001

>  <PUBCHEM_MMFF94_ENERGY>  (1) 
23.3186

>  <PUBCHEM_FEATURE_SELFOVERLAP>  (1) 
25.371

>  <PUBCHEM_SHAPE_FINGERPRINT>  (1) 
10299344 5 17203608173310933007
11135609 127 18130219476243189576
11211813 74 18408039636899442765
11315181 36 18412266139292226979
11638347 137 9223234053100028617
12089408 11 17704353256891691939
13617811 41 15769783459129809304
14251764 18 17203612580079078891
14251764 46 17988922258289330971
14344974 52 18186800314986356483
14428016 248 18272937116594848585
155225 1 15719402737102543414
15840311 113 18408606976272134668
16120349 18 18411698811707275629
20157964 124 18411984668051320394
20554085 129 16298099904077124737
20771845 171 17346329189195547340
21150785 3 18272930514644292011
21360442 33 18267023843681244590
21360442 67 18342459235543349670
21360443 126 18201718479034082871
21362267 2 18188194495225131485
21362267 313 18191299383001295667
22224240 67 17821446859624510091
232437 2 16343697735068318783
246663 6 14836121062187535187
33684 2 17203325594654253707
34797466 226 18412546500907128086
5283156 175 17418375783769449163
59521099 67 17846498137332419192
59521506 201 17485635281407418488
59682541 35 17385726898874964961
67123 10 18410292515625047379
8209 1 16487252167544527467

>  <PUBCHEM_SHAPE_MULTIPOLES>  (1) 
436.92
38.53
1.8
1.04
104.29
1.8
-0.09
8.31
5.4
-6.91
0.53
-1.34
-0.23
0.33

>  <PUBCHEM_SHAPE_SELFOVERLAP>  (1) 
829.507

>  <PUBCHEM_SHAPE_VOLUME>  (1) 
269.9

>  <PUBCHEM_COORDINATE_TYPE>  (1) 
2
5
10

$$$$
