14761
     RDKit          3D

 22 23  0  0  0  0  0  0  0  0999 V2000
    1.2207   -1.8353    0.0605 S   0  0  0  0  0  0  0  0  0  0  0  0
    0.6421   -2.3536   -1.3731 O   0  0  0  0  0  0  0  0  0  0  0  0
    2.6484   -2.0906    0.0711 O   0  0  0  0  0  0  0  0  0  0  0  0
    0.3574   -2.3325    1.1138 O   0  0  0  0  0  0  0  0  0  0  0  0
    3.5178    0.1197    0.0279 C   0  0  0  0  0  0  0  0  0  0  0  0
    2.1447    0.7109    0.0118 C   0  0  0  0  0  0  0  0  0  0  0  0
   -3.9292   -0.5464    0.0170 C   0  0  0  0  0  0  0  0  0  0  0  0
    0.9998   -0.0862    0.0241 C   0  0  0  0  0  0  0  0  0  0  0  0
   -0.2784    0.4955    0.0076 C   0  0  0  0  0  0  0  0  0  0  0  0
   -2.7035    0.3036    0.0031 C   0  0  0  0  0  0  0  0  0  0  0  0
   -0.3968    1.9055   -0.0220 C   0  0  0  0  0  0  0  0  0  0  0  0
   -1.4417   -0.2912    0.0199 C   0  0  0  0  0  0  0  0  0  0  0  0
    4.6092    1.2326    0.0079 C   0  0  0  0  0  0  0  0  0  0  0  0
    3.7511   -0.7944   -1.2132 C   0  0  0  0  0  0  0  0  0  0  0  0
    3.8478   -0.7690    1.2711 C   0  0  0  0  0  0  0  0  0  0  0  0
    2.0284    2.0974   -0.0174 C   0  0  0  0  0  0  0  0  0  0  0  0
    0.7665    2.6922   -0.0341 C   0  0  0  0  0  0  0  0  0  0  0  0
   -2.8199    1.6902   -0.0261 C   0  0  0  0  0  0  0  0  0  0  0  0
   -5.1093    0.1506   -0.7282 C   0  0  0  0  0  0  0  0  0  0  0  0
   -4.3998   -0.8366    1.4759 C   0  0  0  0  0  0  0  0  0  0  0  0
   -3.7804   -1.9496   -0.6592 C   0  0  0  0  0  0  0  0  0  0  0  0
   -1.6749    2.4872   -0.0385 C   0  0  0  0  0  0  0  0  0  0  0  0
  1  2  1  0
  1  3  2  0
  1  4  2  0
  1  8  1  0
  5  6  1  0
  5 13  1  0
  5 14  1  0
  5 15  1  0
  6  8  2  0
  6 16  1  0
  7 10  1  0
  7 19  1  0
  7 20  1  0
  7 21  1  0
  8  9  1  0
  9 11  2  0
  9 12  1  0
 10 12  2  0
 10 18  1  0
 11 17  1  0
 11 22  1  0
 16 17  2  0
 18 22  2  0
M  END
>  <PUBCHEM_COMPOUND_CID>  (1) 
14761

>  <PUBCHEM_CONFORMER_RMSD>  (1) 
0.6

>  <PUBCHEM_CONFORMER_DIVERSEORDER>  (1) 
2
1

>  <PUBCHEM_MMFF94_PARTIAL_CHARGES>  (1) 
20
1 1.49
10 -0.14
12 -0.15
16 -0.15
17 -0.15
18 -0.15
2 -0.68
22 -0.15
23 0.15
3 -0.65
33 0.15
4 -0.65
43 0.15
44 0.15
45 0.15
46 0.5
5 0.14
6 -0.14
7 0.14
8 -0.01

>  <PUBCHEM_EFFECTIVE_ROTOR_COUNT>  (1) 
3

>  <PUBCHEM_PHARMACOPHORE_FEATURES>  (1) 
8
1 2 acceptor
1 3 acceptor
1 4 acceptor
4 1 2 3 4 anion
4 5 13 14 15 hydrophobe
4 7 19 20 21 hydrophobe
6 6 8 9 11 16 17 rings
6 9 10 11 12 18 22 rings

>  <PUBCHEM_HEAVY_ATOM_COUNT>  (1) 
22

>  <PUBCHEM_ATOM_DEF_STEREO_COUNT>  (1) 
0

>  <PUBCHEM_ATOM_UDEF_STEREO_COUNT>  (1) 
0

>  <PUBCHEM_BOND_DEF_STEREO_COUNT>  (1) 
0

>  <PUBCHEM_BOND_UDEF_STEREO_COUNT>  (1) 
0

>  <PUBCHEM_ISOTOPIC_ATOM_COUNT>  (1) 
0

>  <PUBCHEM_COMPONENT_COUNT>  (1) 
1

>  <PUBCHEM_CACTVS_TAUTO_COUNT>  (1) 
1

>  <PUBCHEM_CONFORMER_ID>  (1) 
000039A900000002

>  <PUBCHEM_MMFF94_ENERGY>  (1) 
148.7681

>  <PUBCHEM_FEATURE_SELFOVERLAP>  (1) 
40.678

>  <PUBCHEM_SHAPE_FINGERPRINT>  (1) 
10062212 137 18334570209748751689
10616163 171 18412827971504403845
10906281 52 18335719233823059737
10967382 1 18410293657189757192
1100329 8 18122058969244451184
11132069 177 18343578560017759099
11543360 7 15647061498733455881
11578080 2 17024860451433606118
11796584 16 16805594859111954627
11806522 49 18410009961556621109
11961588 58 17824001094034243108
12011746 2 18409171030300961596
12236239 1 17703794738959443595
12553582 1 18411423903766871279
12596599 1 17916320367193060267
12839892 36 18267565945614725098
13140716 1 18122347044984132611
13224815 77 18412542080947962856
13544653 18 18335141994597502781
13862211 1 18410006650532533202
14178342 30 18196082240780149456
14223421 5 18267020557328506340
14787075 74 18270118045162272520
14790565 3 18267031724497443524
15183329 4 18199730511483747877
15196674 1 18410292471826275760
16945 1 18410293609865878752
17349148 13 17967533467205062810
17492 54 18187376462388088564
17492 89 18264205820483913778
1813 80 17749402455162005949
19591789 44 18412263926334432454
200 152 18272927241895199125
20028762 73 18057885938455884143
20261772 1 18272931656414762655
20645477 70 18411412951821786925
20691752 17 17750527173673032992
20739085 24 18190202228810164857
20905425 154 18196089933023995054
21197605 99 17834688462757494811
21267235 1 18411426085230514518
21421861 104 17824820031979626617
21673915 165 18341894112335287341
221490 88 18335989726309476955
23184049 29 18049441444039799151
2334 1 17761776560435767704
23402539 116 18337664303988174030
23557571 272 18129105532591213004
23559900 14 18051969226063045062
2748010 2 18196369217446117420
2871803 45 18409165489445094013
335352 9 18410572869087974949
34934 24 18411694366684682039
4280585 95 17549266926381852582
4340502 62 16588301730922021496
474229 33 18410854395403585792
5104073 3 18338515240263177632
5283173 99 17970614213446408533
59755656 215 18411983524751490494
7097593 13 17322381602130110714
9709674 26 18195809570359437503

>  <PUBCHEM_SHAPE_MULTIPOLES>  (1) 
438.99
8.84
2.84
1.01
3.69
0.34
-0.08
-1.57
-0.09
-0.36
0.13
0.05
-0.49
0.07

>  <PUBCHEM_SHAPE_SELFOVERLAP>  (1) 
936.933

>  <PUBCHEM_SHAPE_VOLUME>  (1) 
249.3

>  <PUBCHEM_COORDINATE_TYPE>  (1) 
2
5
10

$$$$
