1482
     RDKit          3D

 15 15  0  0  0  0  0  0  0  0999 V2000
    0.1135   -2.8139   -0.0134 Cl  0  0  0  0  0  0  0  0  0  0  0  0
    3.3469    2.5229    0.1833 Cl  0  0  0  0  0  0  0  0  0  0  0  0
    4.7564   -0.2394   -0.7446 Cl  0  0  0  0  0  0  0  0  0  0  0  0
   -0.9165   -0.1104    0.8019 O   0  0  0  0  0  0  0  0  0  0  0  0
   -3.9901    0.9865   -0.6586 O   0  0  0  0  0  0  0  0  0  0  0  0
   -3.4875   -0.8782    0.6059 O   0  0  0  0  0  0  0  0  0  0  0  0
    0.3980   -0.1476    0.4419 C   0  0  0  0  0  0  0  0  0  0  0  0
    1.0051   -1.3380    0.0417 C   0  0  0  0  0  0  0  0  0  0  0  0
    1.1377    1.0343    0.4793 C   0  0  0  0  0  0  0  0  0  0  0  0
   -1.7720    0.7388    0.0405 C   0  0  0  0  0  0  0  0  0  0  0  0
    2.4845    1.0260    0.1165 C   0  0  0  0  0  0  0  0  0  0  0  0
    2.3520   -1.3463   -0.3211 C   0  0  0  0  0  0  0  0  0  0  0  0
    3.0916   -0.1644   -0.2837 C   0  0  0  0  0  0  0  0  0  0  0  0
   -3.1632    0.1621    0.0495 C   0  0  0  0  0  0  0  0  0  0  0  0
   -5.3561    0.5674   -0.7390 C   0  0  0  0  0  0  0  0  0  0  0  0
  1  8  1  0
  2 11  1  0
  3 13  1  0
  4  7  1  0
  4 10  1  0
  5 14  1  0
  5 15  1  0
  6 14  2  0
  7  8  2  0
  7  9  1  0
  8 12  1  0
  9 11  2  0
 10 14  1  0
 11 13  1  0
 12 13  2  0
M  END
>  <PUBCHEM_COMPOUND_CID>  (1) 
1482

>  <PUBCHEM_CONFORMER_RMSD>  (1) 
0.6

>  <PUBCHEM_CONFORMER_DIVERSEORDER>  (1) 
1
50
37
41
44
32
35
54
28
42
36
43
33
45
49
52
29
14
53
51
25
10
21
2
23
46
15
38
18
40
13
8
16
24
17
34
4
27
19
7
30
39
26
6
9
3
47
11
22
48
12
5
31
20

>  <PUBCHEM_MMFF94_PARTIAL_CHARGES>  (1) 
17
1 -0.18
10 0.34
11 0.18
12 -0.15
13 0.18
14 0.66
15 0.28
16 0.15
19 0.15
2 -0.18
3 -0.18
4 -0.36
5 -0.43
6 -0.57
7 0.08
8 0.18
9 -0.15

>  <PUBCHEM_EFFECTIVE_ROTOR_COUNT>  (1) 
4

>  <PUBCHEM_PHARMACOPHORE_FEATURES>  (1) 
3
1 4 acceptor
1 6 acceptor
6 7 8 9 11 12 13 rings

>  <PUBCHEM_HEAVY_ATOM_COUNT>  (1) 
15

>  <PUBCHEM_ATOM_DEF_STEREO_COUNT>  (1) 
0

>  <PUBCHEM_ATOM_UDEF_STEREO_COUNT>  (1) 
0

>  <PUBCHEM_BOND_DEF_STEREO_COUNT>  (1) 
0

>  <PUBCHEM_BOND_UDEF_STEREO_COUNT>  (1) 
0

>  <PUBCHEM_ISOTOPIC_ATOM_COUNT>  (1) 
0

>  <PUBCHEM_COMPONENT_COUNT>  (1) 
1

>  <PUBCHEM_CACTVS_TAUTO_COUNT>  (1) 
1

>  <PUBCHEM_CONFORMER_ID>  (1) 
000005CA00000001

>  <PUBCHEM_MMFF94_ENERGY>  (1) 
36.523

>  <PUBCHEM_FEATURE_SELFOVERLAP>  (1) 
15.23

>  <PUBCHEM_SHAPE_FINGERPRINT>  (1) 
10608611 8 18335420179492309609
10693767 8 17987515901514098486
11471102 20 18412262809489870148
12403259 415 18335429014013106345
12730499 353 18334862701791239363
13836976 161 18272368667822258974
14251717 144 18341611486291601583
14415576 193 18408041801462460445
14911166 2 18341341028665537166
14993402 34 18341620291575964558
15048467 5 15430327940584243854
16945 1 18270701808959376194
17834072 33 18272082816985906525
18186145 218 18342747320500004512
200 152 17917710175982152337
20279233 1 18260270728992731611
20645477 70 18272087163097359623
221490 88 18339932622373069986
22713019 99 18130514054737494942
23402539 116 18412257350697239478
23402655 69 18341612590298682797
23557571 272 17530978985815370643
23558518 356 17613427170762557736
23559900 14 18202006564687212536
25 1 18409167675472814155
2748010 2 18054806232614254698
2871803 45 18340768143793526549
29717793 49 17346881122320886101
3060560 45 18412261710052277694
4072396 5 18335689504539244746
4990 188 18060706078173837958
543358 83 18125724487455177753
58051976 378 18343022164036699574
633830 44 18343017800481893261
81539 233 18186802439655829210
8272917 22 18200033915893337295

>  <PUBCHEM_SHAPE_MULTIPOLES>  (1) 
296.69
9.1
2.24
0.8
8.6
0.63
-0.04
-3.23
-2.79
-1.56
0.09
0.12
-0.02
0.68

>  <PUBCHEM_SHAPE_SELFOVERLAP>  (1) 
584.66

>  <PUBCHEM_SHAPE_VOLUME>  (1) 
180.2

>  <PUBCHEM_COORDINATE_TYPE>  (1) 
2
5
10

$$$$
