14836
     RDKit          3D

 14 15  0  0  1  0  0  0  0  0999 V2000
    4.8271   -0.0031   -0.1345 Cl  0  0  0  0  0  0  0  0  0  0  0  0
   -2.2145    1.7231    0.1204 O   0  0  0  0  0  0  0  0  0  0  0  0
   -1.0420   -0.2555    0.1240 N   0  0  0  0  0  0  0  0  0  0  0  0
   -3.4012   -0.2701   -0.0198 N   0  0  0  0  0  0  0  0  0  0  0  0
    1.2755   -0.5744    0.9209 C   0  0  0  0  0  0  0  0  0  0  0  0
    2.2378   -0.1530   -1.0448 C   0  0  0  0  0  0  0  0  0  0  0  0
    1.8208   -1.3932   -0.2521 C   0  0  0  0  0  0  0  0  0  0  0  0
    0.2565    0.3584    0.2314 C   0  0  0  0  0  0  0  0  0  0  0  0
    0.8996    0.6073   -1.1455 C   0  0  0  0  0  0  0  0  0  0  0  0
    2.5122    0.2580    1.3157 C   0  0  0  0  0  0  0  0  0  0  0  0
    3.1490    0.5920   -0.0469 C   0  0  0  0  0  0  0  0  0  0  0  0
   -2.2205    0.4892    0.0745 C   0  0  0  0  0  0  0  0  0  0  0  0
   -4.7181    0.3512   -0.0708 C   0  0  0  0  0  0  0  0  0  0  0  0
   -3.3822   -1.7298   -0.0727 C   0  0  0  0  0  0  0  0  0  0  0  0
  1 11  1  0
  2 12  2  0
  3  8  1  0
  3 12  1  0
  4 12  1  0
  4 13  1  0
  4 14  1  0
  5  7  1  0
  5  8  1  0
  5 10  1  0
  6  7  1  0
  6  9  1  0
  6 11  1  0
  8  9  1  0
 10 11  1  0
M  END
>  <PUBCHEM_COMPOUND_CID>  (1) 
14836

>  <PUBCHEM_CONFORMER_RMSD>  (1) 
0.6

>  <PUBCHEM_CONFORMER_DIVERSEORDER>  (1) 
2
17
8
11
12
16
13
14
18
10
4
9
15
7
6
5
3
1

>  <PUBCHEM_MMFF94_PARTIAL_CHARGES>  (1) 
10
1 -0.29
11 0.29
12 0.69
13 0.3
14 0.3
2 -0.57
25 0.37
3 -0.73
4 -0.66
8 0.3

>  <PUBCHEM_EFFECTIVE_ROTOR_COUNT>  (1) 
4

>  <PUBCHEM_PHARMACOPHORE_FEATURES>  (1) 
3
1 2 acceptor
1 3 donor
7 5 6 7 8 9 10 11 rings

>  <PUBCHEM_HEAVY_ATOM_COUNT>  (1) 
14

>  <PUBCHEM_ATOM_DEF_STEREO_COUNT>  (1) 
0

>  <PUBCHEM_ATOM_UDEF_STEREO_COUNT>  (1) 
4

>  <PUBCHEM_BOND_DEF_STEREO_COUNT>  (1) 
0

>  <PUBCHEM_BOND_UDEF_STEREO_COUNT>  (1) 
0

>  <PUBCHEM_ISOTOPIC_ATOM_COUNT>  (1) 
0

>  <PUBCHEM_COMPONENT_COUNT>  (1) 
1

>  <PUBCHEM_CACTVS_TAUTO_COUNT>  (1) 
2

>  <PUBCHEM_CONFORMER_ID>  (1) 
000039F400000002

>  <PUBCHEM_MMFF94_ENERGY>  (1) 
42.2189

>  <PUBCHEM_FEATURE_SELFOVERLAP>  (1) 
15.223

>  <PUBCHEM_SHAPE_FINGERPRINT>  (1) 
10219947 1 16153427242726715400
11062470 55 16805039622888037104
11401426 45 17603301570265492292
11471102 20 15626222424882307528
12236239 1 17822009809013038769
12500047 106 18343860013804554431
12932764 1 17274810338137334797
14144814 61 17530965761262939089
14993402 34 17458347459487163358
15309172 13 15698002959291224703
16945 1 15502377824960631186
18175812 5 17632010939874351805
200 152 17530682126023089065
20279233 1 17917996087813099567
20645477 56 18335980875131401405
20645477 70 16630250190880306517
21730867 7 17989489619115941582
22485316 2 18202282507129107951
23402539 116 18333726944391120390
23402655 69 17530958060502570253
23557571 272 18130510742827527825
23559900 14 18343019978320377918
265663 24 18260829311069972746
3248919 1 17458637691548691385
58051976 378 18343303660456552895

>  <PUBCHEM_SHAPE_MULTIPOLES>  (1) 
274.15
8.4
1.26
0.99
3.85
0.23
0.03
0.13
-0.17
0.83
-0.04
-0.69
-0.03
-0.04

>  <PUBCHEM_SHAPE_SELFOVERLAP>  (1) 
555.665

>  <PUBCHEM_SHAPE_VOLUME>  (1) 
165.5

>  <PUBCHEM_COORDINATE_TYPE>  (1) 
2
5
10

$$$$
