14858
     RDKit          3D

 11 11  0  0  1  0  0  0  0  0999 V2000
    2.0126    0.6451   -0.7030 P   0  0  0  0  0  0  0  0  0  0  0  0
    1.4663   -1.0154    1.4880 O   0  0  0  0  0  0  0  0  0  0  0  0
    2.1246   -0.8225   -1.3773 O   0  0  0  0  0  0  0  0  0  0  0  0
    3.3619    0.7167   -0.1483 O   0  0  0  0  0  0  0  0  0  0  0  0
   -0.3440    0.1218    0.3971 C   0  0  0  0  0  0  0  0  0  0  0  0
    1.0781    0.2033    0.8398 C   0  0  0  0  0  0  0  0  0  0  0  0
   -1.1215    1.2779    0.3319 C   0  0  0  0  0  0  0  0  0  0  0  0
   -0.8963   -1.1107    0.0486 C   0  0  0  0  0  0  0  0  0  0  0  0
   -2.4516    1.2017   -0.0816 C   0  0  0  0  0  0  0  0  0  0  0  0
   -2.2263   -1.1870   -0.3651 C   0  0  0  0  0  0  0  0  0  0  0  0
   -3.0038   -0.0308   -0.4302 C   0  0  0  0  0  0  0  0  0  0  0  0
  1  3  1  0
  1  4  2  0
  1  6  1  0
  2  6  1  0
  5  6  1  0
  5  7  2  0
  5  8  1  0
  7  9  1  0
  8 10  2  0
  9 11  2  0
 10 11  1  0
M  CHG  1   1   1
M  END
>  <PUBCHEM_COMPOUND_CID>  (1) 
14858

>  <PUBCHEM_CONFORMER_RMSD>  (1) 
0.4

>  <PUBCHEM_CONFORMER_DIVERSEORDER>  (1) 
3
12
5
6
11
15
7
2
13
8
10
14
9
1
4

>  <PUBCHEM_EFFECTIVE_ROTOR_COUNT>  (1) 
2

>  <PUBCHEM_PHARMACOPHORE_FEATURES>  (1) 
3
1 2 acceptor
1 2 donor
6 5 7 8 9 10 11 rings

>  <PUBCHEM_HEAVY_ATOM_COUNT>  (1) 
11

>  <PUBCHEM_ATOM_DEF_STEREO_COUNT>  (1) 
0

>  <PUBCHEM_ATOM_UDEF_STEREO_COUNT>  (1) 
1

>  <PUBCHEM_BOND_DEF_STEREO_COUNT>  (1) 
0

>  <PUBCHEM_BOND_UDEF_STEREO_COUNT>  (1) 
0

>  <PUBCHEM_ISOTOPIC_ATOM_COUNT>  (1) 
0

>  <PUBCHEM_COMPONENT_COUNT>  (1) 
1

>  <PUBCHEM_CACTVS_TAUTO_COUNT>  (1) 
1

>  <PUBCHEM_CONFORMER_ID>  (1) 
00003A0A00000003

>  <PUBCHEM_MMFF94_ENERGY>  (1) 
22.1735

>  <PUBCHEM_FEATURE_SELFOVERLAP>  (1) 
15.223

>  <PUBCHEM_SHAPE_FINGERPRINT>  (1) 
11031198 65 16805330971925963572
12326174 3 15864614077861778624
12423570 1 16761682864242913939
12696612 119 11963686533335169694
12716758 59 18342464715920443111
12897270 3 18201727287884678420
12932764 1 18114181904354342541
15310529 11 17561085791131078980
15775835 57 17967531255133491981
16945 1 18411423955005785473
20201158 50 17775570844471108014
20645464 45 17488721467845799211
20645476 183 18113613500035249967
20653085 51 18188791481880937757
20671657 53 17487361269442051774
21028194 46 16298390209643348932
21040471 1 18198050383831421881
21293036 1 18411415142091577429
22802520 49 18129679507683439639
23402539 116 18340195375692540324
23552423 10 18189606151546791947
2748010 2 17836065038419037643
29004967 10 16128649769200141011
369184 2 11241970416746294221
5084963 1 17988645134203869517
8030462 33 18261098691081096379

>  <PUBCHEM_SHAPE_MULTIPOLES>  (1) 
212.62
4.54
1.36
1.07
0.97
0
-0.07
-0.46
1.08
-0.46
-0.01
0.63
0.22
-0.18

>  <PUBCHEM_SHAPE_SELFOVERLAP>  (1) 
424.981

>  <PUBCHEM_SHAPE_VOLUME>  (1) 
125.5

>  <PUBCHEM_COORDINATE_TYPE>  (1) 
2
5
10

$$$$
