14851
     RDKit          3D

  9  9  0  0  0  0  0  0  0  0999 V2000
    2.0011   -1.9346    0.0004 Cl  0  0  0  0  0  0  0  0  0  0  0  0
    2.4052    1.0443    0.0003 O   0  0  0  0  0  0  0  0  0  0  0  0
   -1.5726   -0.1483    0.0001 C   0  0  0  0  0  0  0  0  0  0  0  0
   -0.5646   -1.1125   -0.0003 C   0  0  0  0  0  0  0  0  0  0  0  0
   -1.2417    1.2068    0.0002 C   0  0  0  0  0  0  0  0  0  0  0  0
    0.7745   -0.7215   -0.0005 C   0  0  0  0  0  0  0  0  0  0  0  0
    1.1052    0.6337   -0.0004 C   0  0  0  0  0  0  0  0  0  0  0  0
    0.0972    1.5978    0.0000 C   0  0  0  0  0  0  0  0  0  0  0  0
   -3.0043   -0.5657    0.0002 C   0  0  0  0  0  0  0  0  0  0  0  0
  1  6  1  0
  2  7  1  0
  3  4  2  0
  3  5  1  0
  3  9  1  0
  4  6  1  0
  5  8  2  0
  6  7  2  0
  7  8  1  0
M  END
>  <PUBCHEM_COMPOUND_CID>  (1) 
14851

>  <PUBCHEM_CONFORMER_RMSD>  (1) 
0.4

>  <PUBCHEM_CONFORMER_DIVERSEORDER>  (1) 
1

>  <PUBCHEM_MMFF94_PARTIAL_CHARGES>  (1) 
13
1 -0.18
10 0.15
11 0.15
12 0.15
16 0.45
2 -0.53
3 -0.14
4 -0.15
5 -0.15
6 0.18
7 0.08
8 -0.15
9 0.14

>  <PUBCHEM_EFFECTIVE_ROTOR_COUNT>  (1) 
0

>  <PUBCHEM_PHARMACOPHORE_FEATURES>  (1) 
2
1 2 donor
6 3 4 5 6 7 8 rings

>  <PUBCHEM_HEAVY_ATOM_COUNT>  (1) 
9

>  <PUBCHEM_ATOM_DEF_STEREO_COUNT>  (1) 
0

>  <PUBCHEM_ATOM_UDEF_STEREO_COUNT>  (1) 
0

>  <PUBCHEM_BOND_DEF_STEREO_COUNT>  (1) 
0

>  <PUBCHEM_BOND_UDEF_STEREO_COUNT>  (1) 
0

>  <PUBCHEM_ISOTOPIC_ATOM_COUNT>  (1) 
0

>  <PUBCHEM_COMPONENT_COUNT>  (1) 
1

>  <PUBCHEM_CACTVS_TAUTO_COUNT>  (1) 
3

>  <PUBCHEM_CONFORMER_ID>  (1) 
00003A0300000001

>  <PUBCHEM_MMFF94_ENERGY>  (1) 
19.4765

>  <PUBCHEM_FEATURE_SELFOVERLAP>  (1) 
10.148

>  <PUBCHEM_SHAPE_FINGERPRINT>  (1) 
12423570 1 11516029024324066867
14128692 85 18267592307923202742
161256 15 18411422778253246838
16945 1 18338517559487208421
18185500 45 18341327915502706311
193761 8 18266741268511423652
21040471 1 17618222149102293733
23235685 24 18264765635105316781
23402655 69 18340470198614404773
23552423 10 18261398788872569542
241688 4 18192432969860497600
2748010 2 18337950078311654493
29004967 10 18262242221797060137
5084963 1 18200870660836504939

>  <PUBCHEM_SHAPE_MULTIPOLES>  (1) 
181.22
3.31
1.89
0.61
0.78
0.04
0
-1
0
-0.76
0
0.01
-0.02
0

>  <PUBCHEM_SHAPE_SELFOVERLAP>  (1) 
367.041

>  <PUBCHEM_SHAPE_VOLUME>  (1) 
107.3

>  <PUBCHEM_COORDINATE_TYPE>  (1) 
2
5
10

$$$$
