14862
     RDKit          3D

 11 10  0  0  0  0  0  0  0  0999 V2000
    5.1312   -0.9935    0.4224 O   0  0  0  0  0  0  0  0  0  0  0  0
   -1.4118    0.3173   -0.2944 C   0  0  0  0  0  0  0  0  0  0  0  0
   -2.5861   -0.6314   -0.0362 C   0  0  0  0  0  0  0  0  0  0  0  0
   -0.0719   -0.3791   -0.0437 C   0  0  0  0  0  0  0  0  0  0  0  0
   -3.9630    0.0248   -0.2481 C   0  0  0  0  0  0  0  0  0  0  0  0
    1.1025    0.5755   -0.2701 C   0  0  0  0  0  0  0  0  0  0  0  0
    2.4406   -0.1140    0.0135 C   0  0  0  0  0  0  0  0  0  0  0  0
   -4.1774    1.2388    0.6570 C   0  0  0  0  0  0  0  0  0  0  0  0
   -5.0706   -1.0030   -0.0034 C   0  0  0  0  0  0  0  0  0  0  0  0
    3.6336    0.8063   -0.2305 C   0  0  0  0  0  0  0  0  0  0  0  0
    4.9729    0.1583    0.0335 C   0  0  0  0  0  0  0  0  0  0  0  0
  1 11  2  0
  2  3  1  0
  2  4  1  0
  3  5  1  0
  4  6  1  0
  5  8  1  0
  5  9  1  0
  6  7  1  0
  7 10  1  0
 10 11  1  0
M  END
>  <PUBCHEM_COMPOUND_CID>  (1) 
14862

>  <PUBCHEM_CONFORMER_RMSD>  (1) 
0.6

>  <PUBCHEM_CONFORMER_DIVERSEORDER>  (1) 
1
39
80
13
34
62
2
28
5
51
84
6
26
49
33
83
73
10
35
36
78
3
25
82
44
31
57
38
54
58
77
76
16
53
74
42
24
69
9
18
48
60
12
37
79
81
27
8
43
86
63
7
45
23
71
20
66
11
29
50
17
72
15
64
85
21
4
32
52
75
19
47
41
68
40
30
65
67
59
14
56
55
61
46
70
22

>  <PUBCHEM_MMFF94_PARTIAL_CHARGES>  (1) 
4
1 -0.57
10 0.06
11 0.45
31 0.06

>  <PUBCHEM_EFFECTIVE_ROTOR_COUNT>  (1) 
7

>  <PUBCHEM_PHARMACOPHORE_FEATURES>  (1) 
2
1 1 acceptor
3 5 8 9 hydrophobe

>  <PUBCHEM_HEAVY_ATOM_COUNT>  (1) 
11

>  <PUBCHEM_ATOM_DEF_STEREO_COUNT>  (1) 
0

>  <PUBCHEM_ATOM_UDEF_STEREO_COUNT>  (1) 
0

>  <PUBCHEM_BOND_DEF_STEREO_COUNT>  (1) 
0

>  <PUBCHEM_BOND_UDEF_STEREO_COUNT>  (1) 
0

>  <PUBCHEM_ISOTOPIC_ATOM_COUNT>  (1) 
0

>  <PUBCHEM_COMPONENT_COUNT>  (1) 
1

>  <PUBCHEM_CACTVS_TAUTO_COUNT>  (1) 
2

>  <PUBCHEM_CONFORMER_ID>  (1) 
00003A0E00000001

>  <PUBCHEM_MMFF94_ENERGY>  (1) 
3.0348

>  <PUBCHEM_FEATURE_SELFOVERLAP>  (1) 
10.148

>  <PUBCHEM_SHAPE_FINGERPRINT>  (1) 
10680689 15 16370442263510945343
11062470 55 11671783775545881148
11401426 45 11167944662503208307
114248 4 10015860981403730676
14123238 8 18409167726996318230
15242439 84 13623526874753902797
17834072 33 18410574028132818254
17834076 25 10952053355234214487
20645477 70 18334575712113839926
20719005 15 18409448098213925990
20767249 13 18412824694090968046
20828058 44 18411419526878737575
23402539 116 18272927228867716757
42 15 18407760322369760214
42788 4 18342175574743626692
522135 26 17894631461818028996
57483677 66 18334853935082837346

>  <PUBCHEM_SHAPE_MULTIPOLES>  (1) 
220.51
12.86
1.06
0.69
4.62
0.08
0.01
-1.37
1.31
-0.57
0.11
-0.1
0.05
-0.53

>  <PUBCHEM_SHAPE_SELFOVERLAP>  (1) 
394.874

>  <PUBCHEM_SHAPE_VOLUME>  (1) 
142.9

>  <PUBCHEM_COORDINATE_TYPE>  (1) 
2
5
10

$$$$
