14866
     RDKit          3D

 16 16  0  0  0  0  0  0  0  0999 V2000
   -2.2989   -0.8958    0.0231 O   0  0  0  0  0  0  0  0  0  0  0  0
    0.4736   -1.1648   -0.2425 O   0  0  0  0  0  0  0  0  0  0  0  0
    2.1976   -2.3365    0.7343 O   0  0  0  0  0  0  0  0  0  0  0  0
    2.5802    2.2111   -0.6433 N   0  0  0  0  0  0  0  0  0  0  0  0
   -4.1177    0.6246    0.3601 C   0  0  0  0  0  0  0  0  0  0  0  0
   -5.4921    1.0767   -0.1253 C   0  0  0  0  0  0  0  0  0  0  0  0
   -3.5682   -0.5133   -0.4883 C   0  0  0  0  0  0  0  0  0  0  0  0
   -1.7314   -1.9592   -0.7300 C   0  0  0  0  0  0  0  0  0  0  0  0
   -6.0560    2.1838    0.7507 C   0  0  0  0  0  0  0  0  0  0  0  0
   -0.3724   -2.3046   -0.1521 C   0  0  0  0  0  0  0  0  0  0  0  0
    1.7373   -1.3192    0.2395 C   0  0  0  0  0  0  0  0  0  0  0  0
    2.5146   -0.0632    0.0887 C   0  0  0  0  0  0  0  0  0  0  0  0
    3.8192   -0.0097    0.5171 C   0  0  0  0  0  0  0  0  0  0  0  0
    1.9294    1.0379   -0.4767 C   0  0  0  0  0  0  0  0  0  0  0  0
    4.5219    1.1802    0.3628 C   0  0  0  0  0  0  0  0  0  0  0  0
    3.8629    2.2518   -0.2182 C   0  0  0  0  0  0  0  0  0  0  0  0
  1  7  1  0
  1  8  1  0
  2 10  1  0
  2 11  1  0
  3 11  2  0
  4 14  2  0
  4 16  1  0
  5  6  1  0
  5  7  1  0
  6  9  1  0
  8 10  1  0
 11 12  1  0
 12 13  2  0
 12 14  1  0
 13 15  1  0
 15 16  2  0
M  END
>  <PUBCHEM_COMPOUND_CID>  (1) 
14866

>  <PUBCHEM_CONFORMER_RMSD>  (1) 
0.8

>  <PUBCHEM_CONFORMER_DIVERSEORDER>  (1) 
1
313
23
18
92
118
291
77
461
329
201
55
353
91
226
262
335
244
6
95
64
4
453
269
223
428
27
79
8
377
7
362
401
399
382
455
186
462
52
137
400
339
320
228
378
33
198
48
282
343
120
326
309
59
136
150
247
153
422
298
65
80
454
98
266
74
200
411
321
444
458
410
307
376
238
338
72
127
257
163
285
336
207
341
90
182
274
367
413
57
143
104
318
250
402
448
126
349
15
151
365
217
337
147
133
407
86
105
2
181
261
219
25
436
398
342
58
211
236
99
183
276
415
50
388
124
457
115
195
9
302
37
334
344
364
232
314
263
437
366
66
387
450
117
101
237
46
456
284
71
303
281
421
246
425
372
162
110
280
206
441
51
167
347
193
128
356
29
197
209
81
249
123
205
34
122
31
13
145
409
168
171
45
245
85
78
449
114
283
89
371
416
396
294
135
56
327
386
199
67
360
404
132
348
43
204
256
189
322
426
299
230
73
242
188
112
47
253
414
308
106
423
254
373
279
420
155
439
139
234
134
210
22
20
41
173
21
248
350
333
169
53
191
212
227
160
170
54
434
113
419
24
311
265
316
159
465
221
241
119
271
225
141
142
87
144
140
176
273
380
84
97
216
374
192
389
69
460
296
11
172
190
233
125
255
430
17
290
203
30
177
154
446
340
258
239
96
214
328
331
94
165
184
267
459
370
391
44
393
148
442
368
103
116
39
464
332
295
152
317
385
49
19
82
196
38
109
433
445
146
102
138
355
240
438
164
300
405
424
40
121
352
185
220
358
76
392
218
231
270
319
131
406
202
383
451
293
68
60
431
381
12
75
108
224
36
306
149
158
440
194
447
222
70
35
208
297
278
16
179
315
235
10
427
435
359
304
345
213
292
61
264
100
178
443
229
5
323
330
288
375
32
156
305
28
354
394
361
157
403
93
463
286
129
111
289
175
88
252
259
3
63
187
166
277
452
351
417
390
107
408
83
130
180
251
384
379
42
412
174
272
268
397
62
325
215
357
395
369
260
26
429
418
14
243
363
310
312
324
432
275
301
161
346
287

>  <PUBCHEM_MMFF94_PARTIAL_CHARGES>  (1) 
17
1 -0.56
10 0.28
11 0.63
12 0.09
13 -0.15
14 0.16
15 -0.15
16 0.16
2 -0.43
3 -0.57
30 0.15
31 0.15
32 0.15
33 0.15
4 -0.62
7 0.28
8 0.28

>  <PUBCHEM_EFFECTIVE_ROTOR_COUNT>  (1) 
8

>  <PUBCHEM_PHARMACOPHORE_FEATURES>  (1) 
5
1 1 acceptor
1 3 acceptor
1 4 acceptor
1 9 hydrophobe
6 4 12 13 14 15 16 rings

>  <PUBCHEM_HEAVY_ATOM_COUNT>  (1) 
16

>  <PUBCHEM_ATOM_DEF_STEREO_COUNT>  (1) 
0

>  <PUBCHEM_ATOM_UDEF_STEREO_COUNT>  (1) 
0

>  <PUBCHEM_BOND_DEF_STEREO_COUNT>  (1) 
0

>  <PUBCHEM_BOND_UDEF_STEREO_COUNT>  (1) 
0

>  <PUBCHEM_ISOTOPIC_ATOM_COUNT>  (1) 
0

>  <PUBCHEM_COMPONENT_COUNT>  (1) 
1

>  <PUBCHEM_CACTVS_TAUTO_COUNT>  (1) 
1

>  <PUBCHEM_CONFORMER_ID>  (1) 
00003A1200000001

>  <PUBCHEM_MMFF94_ENERGY>  (1) 
31.1375

>  <PUBCHEM_FEATURE_SELFOVERLAP>  (1) 
25.373

>  <PUBCHEM_SHAPE_FINGERPRINT>  (1) 
10382601 240 17894619371068515322
10465860 228 18408320012596361342
122479 349 18408887373291415067
12633257 1 16153713175663324881
14123255 52 18411419544164192735
1420 369 8070028869939726809
14251764 75 18340501053111365289
14774955 27 18411697652514115589
15188451 53 15502670342788981537
15342168 16 18341050736152590495
17810953 82 18339084783265729989
17834072 32 18412265043099691423
20621476 21 12252997656941021192
20621476 66 18337394945747734300
23402655 69 18341330106331672796
235170 7 14117514303772713785
245318 6 18042986417938693525
270888 7 18341894095546217625
3472631 163 18202283598351585757
4259306 186 10087635997090947545
474 4 18409446964828122955
5104073 3 18187635959864132738
59124914 9 18410292545014812904
633830 44 18337107981760433358
6786 2 12617031826138434806
76465 3 9007063461029162703
7970288 3 8718555999321199257
8199 26 18339924912948588375

>  <PUBCHEM_SHAPE_MULTIPOLES>  (1) 
306.68
12.34
2.88
0.79
15.98
0.2
0.01
-10.67
1.89
-0.2
-0.05
0.06
-0.03
-1.37

>  <PUBCHEM_SHAPE_SELFOVERLAP>  (1) 
611.587

>  <PUBCHEM_SHAPE_VOLUME>  (1) 
181.1

>  <PUBCHEM_COORDINATE_TYPE>  (1) 
2
5
10

$$$$
