14869
     RDKit          3D

 17 18  0  0  0  0  0  0  0  0999 V2000
    3.7191    2.9702    0.3727 Cl  0  0  0  0  0  0  0  0  0  0  0  0
    2.0600   -2.6077   -0.4221 O   0  0  0  0  0  0  0  0  0  0  0  0
   -0.2401   -1.8000    0.6075 O   0  0  0  0  0  0  0  0  0  0  0  0
   -0.8331    0.3418   -0.1451 N   0  0  0  0  0  0  0  0  0  0  0  0
    1.4821   -0.3318    0.0692 C   0  0  0  0  0  0  0  0  0  0  0  0
   -2.2486    0.3104   -0.0993 C   0  0  0  0  0  0  0  0  0  0  0  0
    0.0717   -0.6720    0.1959 C   0  0  0  0  0  0  0  0  0  0  0  0
    2.4295   -1.3092   -0.2353 C   0  0  0  0  0  0  0  0  0  0  0  0
    1.8810    0.9915    0.2568 C   0  0  0  0  0  0  0  0  0  0  0  0
    3.7757   -0.9634   -0.3520 C   0  0  0  0  0  0  0  0  0  0  0  0
   -2.8861   -0.8414    0.3288 C   0  0  0  0  0  0  0  0  0  0  0  0
   -2.9622    1.4328   -0.4828 C   0  0  0  0  0  0  0  0  0  0  0  0
    3.2271    1.3375    0.1402 C   0  0  0  0  0  0  0  0  0  0  0  0
    4.1745    0.3600   -0.1643 C   0  0  0  0  0  0  0  0  0  0  0  0
   -4.2799   -0.8717    0.3747 C   0  0  0  0  0  0  0  0  0  0  0  0
   -4.3560    1.4026   -0.4368 C   0  0  0  0  0  0  0  0  0  0  0  0
   -5.0148    0.2503   -0.0080 C   0  0  0  0  0  0  0  0  0  0  0  0
  1 13  1  0
  2  8  1  0
  3  7  2  0
  4  6  1  0
  4  7  1  0
  5  7  1  0
  5  8  2  0
  5  9  1  0
  6 11  2  0
  6 12  1  0
  8 10  1  0
  9 13  2  0
 10 14  2  0
 11 15  1  0
 12 16  2  0
 13 14  1  0
 15 17  2  0
 16 17  1  0
M  END
>  <PUBCHEM_COMPOUND_CID>  (1) 
14869

>  <PUBCHEM_CONFORMER_RMSD>  (1) 
0.6

>  <PUBCHEM_CONFORMER_DIVERSEORDER>  (1) 
3
2
4
5
1

>  <PUBCHEM_MMFF94_PARTIAL_CHARGES>  (1) 
27
1 -0.18
10 -0.15
11 -0.15
12 -0.15
13 0.18
14 -0.15
15 -0.15
16 -0.15
17 -0.15
18 0.37
19 0.15
2 -0.53
20 0.15
21 0.15
22 0.15
23 0.15
24 0.15
25 0.15
26 0.15
27 0.45
3 -0.57
4 -0.55
5 0.09
6 0.12
7 0.54
8 0.08
9 -0.15

>  <PUBCHEM_EFFECTIVE_ROTOR_COUNT>  (1) 
3

>  <PUBCHEM_PHARMACOPHORE_FEATURES>  (1) 
5
1 2 donor
1 3 acceptor
1 4 donor
6 5 8 9 10 13 14 rings
6 6 11 12 15 16 17 rings

>  <PUBCHEM_HEAVY_ATOM_COUNT>  (1) 
17

>  <PUBCHEM_ATOM_DEF_STEREO_COUNT>  (1) 
0

>  <PUBCHEM_ATOM_UDEF_STEREO_COUNT>  (1) 
0

>  <PUBCHEM_BOND_DEF_STEREO_COUNT>  (1) 
0

>  <PUBCHEM_BOND_UDEF_STEREO_COUNT>  (1) 
0

>  <PUBCHEM_ISOTOPIC_ATOM_COUNT>  (1) 
0

>  <PUBCHEM_COMPONENT_COUNT>  (1) 
1

>  <PUBCHEM_CACTVS_TAUTO_COUNT>  (1) 
7

>  <PUBCHEM_CONFORMER_ID>  (1) 
00003A1500000003

>  <PUBCHEM_MMFF94_ENERGY>  (1) 
54.3062

>  <PUBCHEM_FEATURE_SELFOVERLAP>  (1) 
25.371

>  <PUBCHEM_SHAPE_FINGERPRINT>  (1) 
10498660 4 18113891624963941149
10608611 8 18408884044390774920
10646746 165 18187082832300326621
11132069 177 17894630361953187845
11405975 8 18336827494362040849
11471102 20 18341613694368878934
11615757 297 17917715699294101993
12403259 415 18260828202404336949
12730499 353 18410302431607483106
12769317 202 17986946539285189184
13081056 2 18409167722875742445
14415576 193 18410013251712598980
15196674 1 18409166632022543041
15219456 202 18409730668333450535
15375358 24 18334295379144437683
15536298 74 18411419509693606685
15961568 22 17604151544521108500
17834072 33 18272646866340237759
17844677 252 18342184336630255145
18186145 218 18343028756795551194
200 152 17989204828656496099
20645477 56 18187365390247261837
20645477 70 18201440224976486174
21065198 57 18409730625721368223
21452121 103 18340477954950820672
21709351 56 18413382146755289286
221357 26 18341894039553380805
221490 88 18410301293430879338
22289505 5 18338793395277601716
22854114 59 18410293631245737313
23227448 37 18268989967395320045
23402539 116 18408315601242715046
23402655 69 18343865506719384508
23557571 272 17530682070273183773
23558518 356 17900537093163277026
23559900 14 18339075969539106050
3060560 45 18202287979213024566
351380 180 18408319982061786648
3545911 37 18408325475694314277
4028521 119 18114456769835216869
4214541 1 18410012096556274285
474 4 18411980303768851616
495365 180 18130216142846927192
4990 188 18343026557951825814
5104073 3 18334296444581157961
5281201 14 18341618074855855956
633830 44 18411412904176187535
69090 78 18412824711487530775
77779 3 18411420596626144677
7808743 9 17761490692462757856
8272917 22 18130231436935694671
9709674 26 18409736153302742723

>  <PUBCHEM_SHAPE_MULTIPOLES>  (1) 
335
10.25
2.35
0.7
6.13
0.48
0
3.24
0.34
-2.37
-0.04
0.05
0.01
0.98

>  <PUBCHEM_SHAPE_SELFOVERLAP>  (1) 
716.125

>  <PUBCHEM_SHAPE_VOLUME>  (1) 
185.7

>  <PUBCHEM_COORDINATE_TYPE>  (1) 
2
5
10

$$$$
