14872
     RDKit          3D

 17 18  0  0  0  0  0  0  0  0999 V2000
    4.1625   -2.2530    0.3443 O   0  0  0  0  0  0  0  0  0  0  0  0
    0.9158    0.3632   -0.1496 C   0  0  0  0  0  0  0  0  0  0  0  0
    3.2654   -0.0941    0.0200 C   0  0  0  0  0  0  0  0  0  0  0  0
    1.9463   -0.5477    0.0171 C   0  0  0  0  0  0  0  0  0  0  0  0
   -0.4778   -0.1154   -0.1526 C   0  0  0  0  0  0  0  0  0  0  0  0
    1.1685    1.7156   -0.3132 C   0  0  0  0  0  0  0  0  0  0  0  0
   -2.9447    0.1863    0.0567 C   0  0  0  0  0  0  0  0  0  0  0  0
    3.5361    1.2645   -0.1436 C   0  0  0  0  0  0  0  0  0  0  0  0
   -1.5677    0.6542    0.0786 C   0  0  0  0  0  0  0  0  0  0  0  0
    2.4876    2.1693   -0.3101 C   0  0  0  0  0  0  0  0  0  0  0  0
    4.3589   -1.0368    0.1949 C   0  0  0  0  0  0  0  0  0  0  0  0
   -3.2686   -0.9975   -0.6061 C   0  0  0  0  0  0  0  0  0  0  0  0
   -3.9414    0.9216    0.6982 C   0  0  0  0  0  0  0  0  0  0  0  0
   -4.5892   -1.4461   -0.6270 C   0  0  0  0  0  0  0  0  0  0  0  0
   -5.2620    0.4728    0.6775 C   0  0  0  0  0  0  0  0  0  0  0  0
    5.7963   -0.5458    0.2000 C   0  0  0  0  0  0  0  0  0  0  0  0
   -5.5860   -0.7110    0.0149 C   0  0  0  0  0  0  0  0  0  0  0  0
  1 11  2  0
  2  4  1  0
  2  5  1  0
  2  6  2  0
  3  4  2  0
  3  8  1  0
  3 11  1  0
  5  9  2  0
  6 10  1  0
  7  9  1  0
  7 12  2  0
  7 13  1  0
  8 10  2  0
 11 16  1  0
 12 14  1  0
 13 15  2  0
 14 17  2  0
 15 17  1  0
M  END
>  <PUBCHEM_COMPOUND_CID>  (1) 
14872

>  <PUBCHEM_CONFORMER_RMSD>  (1) 
0.6

>  <PUBCHEM_CONFORMER_DIVERSEORDER>  (1) 
6
1
3
4
7
2
5

>  <PUBCHEM_MMFF94_PARTIAL_CHARGES>  (1) 
28
1 -0.57
10 -0.15
11 0.42
12 -0.15
13 -0.15
14 -0.15
15 -0.15
16 0.06
17 -0.15
18 0.15
19 0.15
2 0.03
20 0.15
21 0.15
22 0.15
23 0.15
24 0.15
25 0.15
26 0.15
27 0.15
3 0.09
31 0.15
4 -0.15
5 -0.18
6 -0.15
7 0.03
8 -0.15
9 -0.18

>  <PUBCHEM_EFFECTIVE_ROTOR_COUNT>  (1) 
3

>  <PUBCHEM_PHARMACOPHORE_FEATURES>  (1) 
3
1 1 acceptor
6 2 3 4 6 8 10 rings
6 7 12 13 14 15 17 rings

>  <PUBCHEM_HEAVY_ATOM_COUNT>  (1) 
17

>  <PUBCHEM_ATOM_DEF_STEREO_COUNT>  (1) 
0

>  <PUBCHEM_ATOM_UDEF_STEREO_COUNT>  (1) 
0

>  <PUBCHEM_BOND_DEF_STEREO_COUNT>  (1) 
0

>  <PUBCHEM_BOND_UDEF_STEREO_COUNT>  (1) 
1

>  <PUBCHEM_ISOTOPIC_ATOM_COUNT>  (1) 
0

>  <PUBCHEM_COMPONENT_COUNT>  (1) 
1

>  <PUBCHEM_CACTVS_TAUTO_COUNT>  (1) 
2

>  <PUBCHEM_CONFORMER_ID>  (1) 
00003A1800000006

>  <PUBCHEM_MMFF94_ENERGY>  (1) 
53.3356

>  <PUBCHEM_FEATURE_SELFOVERLAP>  (1) 
15.223

>  <PUBCHEM_SHAPE_FINGERPRINT>  (1) 
10595046 47 18269274724101889709
10912923 1 18131077069052128609
11405975 8 18341898515135760449
12107183 9 17836934399512676409
12236239 1 18201721768704022840
12596602 18 17561079220263808482
12616971 3 18341899614810885709
12916754 54 18336262440228228037
13167823 11 18412544331853840727
13533116 47 18411418457743026379
13675066 3 17131833144501301149
13862211 1 18261107436167670386
13911852 28 18191863414680521682
13955234 65 18336828718591867640
14251718 22 12179850502312861067
14341114 176 18413394236824463465
14350574 20 18040436602885640487
15196674 1 18411982489965006565
15250474 111 18200584925426875615
15788980 27 18260266347930975693
17834072 33 18411983589175921564
17844677 252 18334862714407505613
17857418 61 18411695491528562471
17862501 102 18342739611244613721
1813 80 18041853813381354988
18186145 218 17531241794605782545
19050596 39 18201722868621748009
19489759 90 16774079553662896539
200 152 18341894104119905713
20028762 73 18272364291335902870
20281475 54 18341889744812444383
20612939 158 18187368765606357444
20645477 70 18260547831524020642
21065198 48 18342742948671897745
21267235 1 18411144631696952838
221490 88 18189341336515931962
22224240 67 18339350960291190616
22646028 1 18341612637717324773
23402539 116 18343579638450221869
23522609 53 18118998869217957508
23557571 272 15769510732706068816
23559900 14 18335418031808019840
23590187 198 18341895182146277295
26918003 58 18273496771458631235
29717793 49 18272086102377464261
3004659 81 18341618117958399124
351380 3 18409164390012879730
4073 2 18042128807004781747
42 15 18342177765082047621
4214541 1 18412263922245388229
465052 167 18412831270213808910
5104073 3 18272656791893504379
5281201 14 17603583036531170525
559249 180 18341047433259617879
573450 72 18060137644074641587
633830 44 17313101973342156069
67856867 119 18271804691377383064
7495541 125 17560798891884850321
77779 3 18411702118974232549
90127 26 17167859777384645557
9971528 1 18186518838707263148
9981440 41 17401762424471583112

>  <PUBCHEM_SHAPE_MULTIPOLES>  (1) 
343.98
13.64
1.79
0.74
4.01
0.11
0
-4.53
-1.4
-1.47
0.1
0.35
0
-1.08

>  <PUBCHEM_SHAPE_SELFOVERLAP>  (1) 
737.496

>  <PUBCHEM_SHAPE_VOLUME>  (1) 
191

>  <PUBCHEM_COORDINATE_TYPE>  (1) 
2
5
10

$$$$
