1487
     RDKit          3D

 21 21  0  0  1  0  0  0  0  0999 V2000
    4.0871   -2.0834    0.9453 Cl  0  0  0  0  0  0  0  0  0  0  0  0
    6.9566    2.0266   -1.0264 Cl  0  0  0  0  0  0  0  0  0  0  0  0
   -1.2670   -1.1604   -0.5309 O   0  0  0  0  0  0  0  0  0  0  0  0
    1.8225   -0.1007    0.9081 O   0  0  0  0  0  0  0  0  0  0  0  0
   -0.0370   -2.0110    1.2275 O   0  0  0  0  0  0  0  0  0  0  0  0
   -4.0201   -0.3865    0.0514 C   0  0  0  0  0  0  0  0  0  0  0  0
   -3.6205   -1.6260   -0.7585 C   0  0  0  0  0  0  0  0  0  0  0  0
   -5.3765    0.1575   -0.4042 C   0  0  0  0  0  0  0  0  0  0  0  0
   -2.2520   -2.1720   -0.3402 C   0  0  0  0  0  0  0  0  0  0  0  0
   -5.8123    1.4161    0.3515 C   0  0  0  0  0  0  0  0  0  0  0  0
   -7.1314    2.0022   -0.1533 C   0  0  0  0  0  0  0  0  0  0  0  0
   -1.8696   -3.3926   -1.1664 C   0  0  0  0  0  0  0  0  0  0  0  0
   -7.4828    3.2883    0.5791 C   0  0  0  0  0  0  0  0  0  0  0  0
   -0.2036   -1.1971    0.3293 C   0  0  0  0  0  0  0  0  0  0  0  0
    0.7401   -0.0708   -0.0009 C   0  0  0  0  0  0  0  0  0  0  0  0
    3.0306    0.3749    0.4585 C   0  0  0  0  0  0  0  0  0  0  0  0
    4.1616   -0.4406    0.4242 C   0  0  0  0  0  0  0  0  0  0  0  0
    3.1133    1.7006    0.0324 C   0  0  0  0  0  0  0  0  0  0  0  0
    5.3755    0.0694   -0.0362 C   0  0  0  0  0  0  0  0  0  0  0  0
    4.3272    2.2106   -0.4279 C   0  0  0  0  0  0  0  0  0  0  0  0
    5.4583    1.3951   -0.4623 C   0  0  0  0  0  0  0  0  0  0  0  0
  1 17  1  0
  2 21  1  0
  3  9  1  0
  3 14  1  0
  4 15  1  0
  4 16  1  0
  5 14  2  0
  6  7  1  0
  6  8  1  0
  7  9  1  0
  8 10  1  0
  9 12  1  0
 10 11  1  0
 11 13  1  0
 14 15  1  0
 16 17  2  0
 16 18  1  0
 17 19  1  0
 18 20  2  0
 19 21  2  0
 20 21  1  0
M  END
>  <PUBCHEM_COMPOUND_CID>  (1) 
1487

>  <PUBCHEM_CONFORMER_RMSD>  (1) 
1

>  <PUBCHEM_CONFORMER_DIVERSEORDER>  (1) 
1
326
248
247
101
276
178
309
264
131
245
116
352
176
168
118
347
122
23
180
341
79
243
13
94
125
165
50
346
60
228
368
256
229
275
200
266
47
290
115
329
226
129
330
250
367
230
255
298
120
304
183
140
317
143
27
323
40
84
234
46
302
48
208
219
77
218
22
222
148
3
132
236
173
9
4
221
72
95
210
284
362
339
37
97
321
126
113
225
278
53
187
249
65
244
213
141
194
332
294
85
42
359
270
314
196
318
199
241
364
197
117
98
12
239
312
137
356
311
10
292
102
114
345
363
366
320
64
163
160
306
156
62
8
348
43
128
15
83
224
254
358
17
24
280
316
336
214
354
211
273
209
147
111
204
89
205
32
353
327
90
263
350
34
33
274
202
49
188
325
105
149
268
296
369
257
63
195
150
198
251
54
35
169
92
227
52
110
162
246
144
30
78
297
269
124
216
242
355
88
185
259
58
322
171
45
167
154
55
71
281
157
108
303
130
107
223
11
262
177
365
235
68
191
288
86
181
186
29
291
324
337
283
334
59
271
127
286
164
100
142
41
328
146
91
215
267
31
155
265
201
75
193
99
343
76
119
69
104
340
66
233
252
253
151
184
44
240
338
80
331
179
192
305
56
231
133
212
134
18
123
315
14
319
57
166
310
145
299
258
287
361
279
161
175
335
136
109
351
237
106
206
360
7
174
39
26
28
38
112
182
74
261
61
203
308
5
138
82
342
301
207
220
349
232
307
344
293
21
51
152
313
135
103
2
121
87
36
158
20
67
73
81
19
295
25
190
6
333
260
159
96
189
170
93
238
282
285
272
300
357
217
289
153
172
70
16
277
139

>  <PUBCHEM_MMFF94_PARTIAL_CHARGES>  (1) 
17
1 -0.18
14 0.66
15 0.34
16 0.08
17 0.18
18 -0.15
19 -0.15
2 -0.18
20 -0.15
21 0.18
3 -0.43
4 -0.36
41 0.15
42 0.15
43 0.15
5 -0.57
9 0.28

>  <PUBCHEM_EFFECTIVE_ROTOR_COUNT>  (1) 
10

>  <PUBCHEM_PHARMACOPHORE_FEATURES>  (1) 
5
1 13 hydrophobe
1 4 acceptor
1 5 acceptor
5 6 7 8 10 11 hydrophobe
6 16 17 18 19 20 21 rings

>  <PUBCHEM_HEAVY_ATOM_COUNT>  (1) 
21

>  <PUBCHEM_ATOM_DEF_STEREO_COUNT>  (1) 
0

>  <PUBCHEM_ATOM_UDEF_STEREO_COUNT>  (1) 
1

>  <PUBCHEM_BOND_DEF_STEREO_COUNT>  (1) 
0

>  <PUBCHEM_BOND_UDEF_STEREO_COUNT>  (1) 
0

>  <PUBCHEM_ISOTOPIC_ATOM_COUNT>  (1) 
0

>  <PUBCHEM_COMPONENT_COUNT>  (1) 
1

>  <PUBCHEM_CACTVS_TAUTO_COUNT>  (1) 
1

>  <PUBCHEM_CONFORMER_ID>  (1) 
000005CF00000001

>  <PUBCHEM_MMFF94_ENERGY>  (1) 
34.2212

>  <PUBCHEM_FEATURE_SELFOVERLAP>  (1) 
25.379

>  <PUBCHEM_SHAPE_FINGERPRINT>  (1) 
10906281 52 17749677410836991436
12107183 9 18266449919421107466
12788726 201 17846504707629315008
13073987 5 18263077863303359179
13167372 99 18410291380915093281
13785724 45 17833827175411452706
14117953 113 18058169432568273558
14211702 104 9222959200441240137
14257110 125 18412543190041334517
15183329 4 18202003243664766349
15188451 53 9871476395762264294
1577012 14 18411978057822416733
20526848 3 18409168792749996941
20621476 66 18410013234559135869
23402655 69 18337105787100618910
23559900 14 16772954860547204682
270888 7 18411699843100702937
2838139 119 18272081704658149765
5104073 3 17749659805238733146
543358 83 18408600388314729954
59682541 35 12252188506334100108
59682541 52 16558192592642525789
60123966 16 16128361727498361264
6327066 14 18411697657004469709
6328613 192 18410012164848795013
633830 44 18114733932264472306
7495541 125 11458421349601005102
8272917 22 18409165520175042358

>  <PUBCHEM_SHAPE_MULTIPOLES>  (1) 
418.3
20.09
3.58
0.98
16.63
0.28
-0.01
-21.4
-1.48
3.71
-0.44
-0.36
0.31
-2.92

>  <PUBCHEM_SHAPE_SELFOVERLAP>  (1) 
813.984

>  <PUBCHEM_SHAPE_VOLUME>  (1) 
253.6

>  <PUBCHEM_COORDINATE_TYPE>  (1) 
2
5
10

$$$$
