14885
     RDKit          3D

 23 25  0  0  0  0  0  0  0  0999 V2000
    0.5157    5.7187    0.0015 N   0  0  0  0  0  0  0  0  0  0  0  0
    4.8619   -3.2438    0.0019 N   0  0  0  0  0  0  0  0  0  0  0  0
   -4.6652   -2.3030    0.0017 N   0  0  0  0  0  0  0  0  0  0  0  0
    0.2792    0.0689   -0.0013 C   0  0  0  0  0  0  0  0  0  0  0  0
    0.3416    1.5543   -0.0007 C   0  0  0  0  0  0  0  0  0  0  0  0
    1.4842   -0.8017   -0.0003 C   0  0  0  0  0  0  0  0  0  0  0  0
   -0.9291   -0.5177   -0.0020 C   0  0  0  0  0  0  0  0  0  0  0  0
    0.3709    2.2193   -1.2083 C   0  0  0  0  0  0  0  0  0  0  0  0
    2.0222   -1.1917    1.2080 C   0  0  0  0  0  0  0  0  0  0  0  0
    0.3682    2.2184    1.2077 C   0  0  0  0  0  0  0  0  0  0  0  0
    2.0244   -1.1910   -1.2079 C   0  0  0  0  0  0  0  0  0  0  0  0
   -2.1366    0.2922   -0.0014 C   0  0  0  0  0  0  0  0  0  0  0  0
   -1.0393   -1.9675   -0.0026 C   0  0  0  0  0  0  0  0  0  0  0  0
    0.4293    3.6130   -1.2075 C   0  0  0  0  0  0  0  0  0  0  0  0
    3.1528   -2.0088    1.2088 C   0  0  0  0  0  0  0  0  0  0  0  0
    0.4265    3.6120    1.2083 C   0  0  0  0  0  0  0  0  0  0  0  0
    3.1549   -2.0081   -1.2072 C   0  0  0  0  0  0  0  0  0  0  0  0
   -3.3494   -0.2761   -0.0008 C   0  0  0  0  0  0  0  0  0  0  0  0
   -2.2358   -2.5697   -0.0019 C   0  0  0  0  0  0  0  0  0  0  0  0
    0.4572    4.3094    0.0007 C   0  0  0  0  0  0  0  0  0  0  0  0
    3.7191   -2.4170    0.0011 C   0  0  0  0  0  0  0  0  0  0  0  0
   -3.4893   -1.7599   -0.0006 C   0  0  0  0  0  0  0  0  0  0  0  0
   -5.7636   -1.3502    0.0027 C   0  0  0  0  0  0  0  0  0  0  0  0
  1 20  1  0
  2 21  1  0
  3 22  2  3
  3 23  1  0
  4  5  1  0
  4  6  1  0
  4  7  2  3
  5  8  2  0
  5 10  1  0
  6  9  2  0
  6 11  1  0
  7 12  1  0
  7 13  1  0
  8 14  1  0
  9 15  1  0
 10 16  2  0
 11 17  2  0
 12 18  2  0
 13 19  2  0
 14 20  2  0
 15 21  2  0
 16 20  1  0
 17 21  1  0
 18 22  1  0
 19 22  1  0
M  END
>  <PUBCHEM_COMPOUND_CID>  (1) 
14885

>  <PUBCHEM_CONFORMER_RMSD>  (1) 
0.6

>  <PUBCHEM_CONFORMER_DIVERSEORDER>  (1) 
1

>  <PUBCHEM_MMFF94_PARTIAL_CHARGES>  (1) 
38
1 -0.9
10 -0.15
11 -0.15
12 -0.15
13 -0.15
14 -0.15
15 -0.15
16 -0.15
17 -0.15
18 -0.14
19 -0.14
2 -0.9
20 0.1
21 0.1
22 0.42
23 0.25
24 0.15
25 0.15
26 0.15
27 0.15
28 0.15
29 0.15
3 -0.7
30 0.15
31 0.15
32 0.15
33 0.15
34 0.15
35 0.15
36 0.4
37 0.4
38 0.4
39 0.4
4 -0.06
5 0.03
6 0.03
8 -0.15
9 -0.15

>  <PUBCHEM_EFFECTIVE_ROTOR_COUNT>  (1) 
2

>  <PUBCHEM_PHARMACOPHORE_FEATURES>  (1) 
8
1 1 cation
1 1 donor
1 2 cation
1 2 donor
1 3 acceptor
6 5 8 10 14 16 20 rings
6 6 9 11 15 17 21 rings
6 7 12 13 18 19 22 rings

>  <PUBCHEM_HEAVY_ATOM_COUNT>  (1) 
23

>  <PUBCHEM_ATOM_DEF_STEREO_COUNT>  (1) 
0

>  <PUBCHEM_ATOM_UDEF_STEREO_COUNT>  (1) 
0

>  <PUBCHEM_BOND_DEF_STEREO_COUNT>  (1) 
0

>  <PUBCHEM_BOND_UDEF_STEREO_COUNT>  (1) 
0

>  <PUBCHEM_ISOTOPIC_ATOM_COUNT>  (1) 
0

>  <PUBCHEM_COMPONENT_COUNT>  (1) 
1

>  <PUBCHEM_CACTVS_TAUTO_COUNT>  (1) 
2

>  <PUBCHEM_CONFORMER_ID>  (1) 
00003A2500000001

>  <PUBCHEM_MMFF94_ENERGY>  (1) 
114.015

>  <PUBCHEM_FEATURE_SELFOVERLAP>  (1) 
40.596

>  <PUBCHEM_SHAPE_FINGERPRINT>  (1) 
10411042 1 18410856534187107523
1100329 8 18267307526128070977
11056379 131 18123198896604413446
11578080 2 17315042594005659022
12293681 160 18043273382104796774
12549972 3 17678186086651715019
12788726 201 18044936766471135706
13004483 165 18339073800897385926
13134695 92 18411415141864912831
13140716 1 18338795594131759697
13590594 115 18337684022921852969
13681431 1 18339652242612604146
138480 1 14519746035136693283
13955234 65 18121789593127108731
14347424 109 18122083137637973547
14955137 171 18196653119385389944
15042514 8 18194686956129248763
15230672 131 17399239042093884020
15664445 248 18198925736842320766
15927050 60 17186723261164299788
16752209 62 17902781964725078818
17138139 8 12419785874092714608
17980427 26 17837204144786314180
1813 80 18342465824175499623
19591789 44 16899347737637901015
20510252 161 18052532171600043546
20567600 347 17400639814662188539
20600515 1 18271814475412629203
21049683 271 18189345726088345484
21120745 212 18267044777271567940
21304303 172 18200036123358795385
21524375 3 17403737143101616689
22849341 161 18268170724365165235
22907989 373 18120373155767492302
23366157 5 18118961631871911151
23419403 2 17700944744010542953
23558518 356 17613446545017768634
23559900 14 18337666546631580667
283562 15 18117841001932541922
3091708 16 9426844905627560754
3380486 145 17911480381774958902
345986 75 17824247220586764507
4409770 3 17902224516877932565
458136 41 17761507176298319771
5104073 3 18266749172470275603
59755656 520 17259056295369910820
6086070 43 18262783096510331463
6138700 20 18194128632531040156
6442390 28 17188702943885972256
6443956 14 18267306615373211176
7164475 11 18192159192098632438
7364860 26 18197219371735969519
7399639 24 18201140072057560082
77188 2 18410855455938832548
81228 2 18195257606826968258
9841814 1 18261384598480232003
9925002 15 18121808065481262100
9981440 41 17400919095242511843

>  <PUBCHEM_SHAPE_MULTIPOLES>  (1) 
458.39
7.25
6.3
1.13
7.4
10.53
0
-11.33
-0.01
-3.99
0
-0.79
0.33
0

>  <PUBCHEM_SHAPE_SELFOVERLAP>  (1) 
1006.502

>  <PUBCHEM_SHAPE_VOLUME>  (1) 
247.1

>  <PUBCHEM_COORDINATE_TYPE>  (1) 
2
5
10

$$$$
