14895
     RDKit          3D

 28 29  0  0  0  0  0  0  0  0999 V2000
    2.7152    2.6634    0.0756 S   0  0  0  0  0  0  0  0  0  0  0  0
   -3.6326    1.5477    0.5744 S   0  0  0  0  0  0  0  0  0  0  0  0
    3.0993    2.8057    1.4743 O   0  0  0  0  0  0  0  0  0  0  0  0
    3.4837    3.3577   -0.9490 O   0  0  0  0  0  0  0  0  0  0  0  0
   -4.3076    2.4306   -0.3577 O   0  0  0  0  0  0  0  0  0  0  0  0
   -4.3870    0.8591    1.6040 O   0  0  0  0  0  0  0  0  0  0  0  0
    2.2808   -3.5328    1.0407 O   0  0  0  0  0  0  0  0  0  0  0  0
   -0.9602   -4.0174   -0.6096 O   0  0  0  0  0  0  0  0  0  0  0  0
    2.1294   -1.9371    2.5407 O   0  0  0  0  0  0  0  0  0  0  0  0
   -1.9155   -3.3684    1.2574 O   0  0  0  0  0  0  0  0  0  0  0  0
    1.0708    3.0999   -0.0862 N   0  0  0  0  0  0  0  0  0  0  0  0
   -2.3401    2.3769    1.3021 N   0  0  0  0  0  0  0  0  0  0  0  0
    2.2892   -2.3183    1.3559 N   0  0  0  0  0  0  0  0  0  0  0  0
   -1.5617   -3.1532    0.0728 N   0  0  0  0  0  0  0  0  0  0  0  0
    0.0522    2.4355    0.7394 C   0  0  0  0  0  0  0  0  0  0  0  0
   -1.3156    3.0330    0.4586 C   0  0  0  0  0  0  0  0  0  0  0  0
    2.6959    0.9657   -0.3318 C   0  0  0  0  0  0  0  0  0  0  0  0
   -2.7888    0.3085   -0.3621 C   0  0  0  0  0  0  0  0  0  0  0  0
    2.5009    0.0109    0.6662 C   0  0  0  0  0  0  0  0  0  0  0  0
   -2.5171   -0.9149    0.2257 C   0  0  0  0  0  0  0  0  0  0  0  0
    2.8759    0.5642   -1.6555 C   0  0  0  0  0  0  0  0  0  0  0  0
   -2.4148    0.5846   -1.6658 C   0  0  0  0  0  0  0  0  0  0  0  0
    2.4860   -1.3453    0.3405 C   0  0  0  0  0  0  0  0  0  0  0  0
   -1.8507   -1.8924   -0.5132 C   0  0  0  0  0  0  0  0  0  0  0  0
    2.8610   -0.7921   -1.9810 C   0  0  0  0  0  0  0  0  0  0  0  0
   -1.7483   -0.3930   -2.4046 C   0  0  0  0  0  0  0  0  0  0  0  0
    2.6661   -1.7469   -0.9831 C   0  0  0  0  0  0  0  0  0  0  0  0
   -1.4663   -1.6315   -1.8284 C   0  0  0  0  0  0  0  0  0  0  0  0
  1  3  2  0
  1  4  2  0
  1 11  1  0
  1 17  1  0
  2  5  2  0
  2  6  2  0
  2 12  1  0
  2 18  1  0
  7 13  1  0
  8 14  1  0
  9 13  2  0
 10 14  2  0
 11 15  1  0
 12 16  1  0
 13 23  1  0
 14 24  1  0
 15 16  1  0
 17 19  2  0
 17 21  1  0
 18 20  2  0
 18 22  1  0
 19 23  1  0
 20 24  1  0
 21 25  2  0
 22 26  2  0
 23 27  2  0
 24 28  2  0
 25 27  1  0
 26 28  1  0
M  CHG  4   7  -1   8  -1  13   1  14   1
M  END
>  <PUBCHEM_COMPOUND_CID>  (1) 
14895

>  <PUBCHEM_CONFORMER_RMSD>  (1) 
1

>  <PUBCHEM_CONFORMER_DIVERSEORDER>  (1) 
4
103
155
40
78
107
7
75
76
153
201
53
1
86
148
25
119
195
130
141
90
154
99
54
114
79
174
2
167
115
198
36
68
47
147
101
160
61
151
161
137
203
140
204
117
188
5
165
67
121
59
34
102
23
173
126
12
72
189
71
179
146
159
142
197
138
77
191
190
93
3
28
200
162
182
105
143
150
145
88
178
123
169
56
170
66
14
164
135
176
18
124
96
100
60
20
62
109
45
97
186
112
185
122
84
42
108
46
33
177
41
94
196
82
35
110
152
21
27
168
83
73
131
58
6
202
134
171
81
129
38
89
63
29
144
74
158
192
175
13
70
132
180
98
19
43
166
136
31
199
104
48
172
50
16
26
37
127
181
125
95
55
69
113
183
39
118
85
15
17
57
156
205
194
10
163
65
116
30
22
64
139
111
91
133
106
187
157
149
193
80
52
87
51
92
11
44
32
184
24
120
49
128
8
9

>  <PUBCHEM_MMFF94_PARTIAL_CHARGES>  (1) 
38
1 1.45
10 -0.52
11 -0.91
12 -0.91
13 0.91
14 0.91
15 0.36
16 0.36
17 -0.01
18 -0.01
19 -0.15
2 1.45
20 -0.15
21 -0.15
22 -0.15
23 0.13
24 0.13
25 -0.15
26 -0.15
27 -0.15
28 -0.15
3 -0.65
33 0.42
34 0.42
35 0.15
36 0.15
37 0.15
38 0.15
39 0.15
4 -0.65
40 0.15
41 0.15
42 0.15
5 -0.65
6 -0.65
7 -0.52
8 -0.52
9 -0.52

>  <PUBCHEM_EFFECTIVE_ROTOR_COUNT>  (1) 
9

>  <PUBCHEM_PHARMACOPHORE_FEATURES>  (1) 
14
1 10 acceptor
1 11 donor
1 12 donor
1 3 acceptor
1 4 acceptor
1 5 acceptor
1 6 acceptor
1 7 acceptor
1 7 anion
1 8 acceptor
1 8 anion
1 9 acceptor
6 17 19 21 23 25 27 rings
6 18 20 22 24 26 28 rings

>  <PUBCHEM_HEAVY_ATOM_COUNT>  (1) 
28

>  <PUBCHEM_ATOM_DEF_STEREO_COUNT>  (1) 
0

>  <PUBCHEM_ATOM_UDEF_STEREO_COUNT>  (1) 
0

>  <PUBCHEM_BOND_DEF_STEREO_COUNT>  (1) 
0

>  <PUBCHEM_BOND_UDEF_STEREO_COUNT>  (1) 
0

>  <PUBCHEM_ISOTOPIC_ATOM_COUNT>  (1) 
0

>  <PUBCHEM_COMPONENT_COUNT>  (1) 
1

>  <PUBCHEM_CACTVS_TAUTO_COUNT>  (1) 
1

>  <PUBCHEM_CONFORMER_ID>  (1) 
00003A2F00000004

>  <PUBCHEM_MMFF94_ENERGY>  (1) 
46.0777

>  <PUBCHEM_FEATURE_SELFOVERLAP>  (1) 
71.252

>  <PUBCHEM_SHAPE_FINGERPRINT>  (1) 
12156800 1 15664010689387365901
12553582 1 18194958552796852958
12788726 201 17916593011860130656
128993 33 18261681449250029494
13122387 1 18125441912550198749
13140716 1 18339919441450754576
14178342 30 18265890457044238704
19319366 153 18041863730640558986
19930381 70 18339085887188129443
20600515 1 17985529084144267522
21315764 21 17679277716407867333
3298306 158 17763180242233944605
35225 105 17610389043709037563
469060 322 17097499953706115155
6287921 2 16546668967659534870
6443956 14 17185876637052890751

>  <PUBCHEM_SHAPE_MULTIPOLES>  (1) 
517.05
7.02
5.11
1.98
1.91
0.95
-0.23
-2.98
0.36
-0.91
1.49
-0.36
0.81
-1.04

>  <PUBCHEM_SHAPE_SELFOVERLAP>  (1) 
1064.982

>  <PUBCHEM_SHAPE_VOLUME>  (1) 
296.6

>  <PUBCHEM_COORDINATE_TYPE>  (1) 
2
5
10

$$$$
