14909
     RDKit          3D

 12 12  0  0  1  0  0  0  0  0999 V2000
   -3.7215    1.8132   -0.4738 O   0  0  0  0  0  0  0  0  0  0  0  0
   -1.5586   -1.0649    0.3243 N   0  0  0  0  0  0  0  0  0  0  0  0
   -0.2721   -1.5162   -0.2376 C   0  0  0  0  0  0  0  0  0  0  0  0
    0.7977   -0.4856   -0.1041 C   0  0  0  0  0  0  0  0  0  0  0  0
    0.1120   -2.8554    0.4175 C   0  0  0  0  0  0  0  0  0  0  0  0
   -2.0094    0.1363   -0.3518 C   0  0  0  0  0  0  0  0  0  0  0  0
    0.8117    0.3662    1.0006 C   0  0  0  0  0  0  0  0  0  0  0  0
    1.7846   -0.3736   -1.0836 C   0  0  0  0  0  0  0  0  0  0  0  0
   -3.3408    0.6178    0.1949 C   0  0  0  0  0  0  0  0  0  0  0  0
    1.8122    1.3300    1.1256 C   0  0  0  0  0  0  0  0  0  0  0  0
    2.7853    0.5902   -0.9584 C   0  0  0  0  0  0  0  0  0  0  0  0
    2.7990    1.4419    0.1463 C   0  0  0  0  0  0  0  0  0  0  0  0
  1  9  1  0
  2  3  1  0
  2  6  1  0
  3  4  1  0
  3  5  1  0
  4  7  2  0
  4  8  1  0
  6  9  1  0
  7 10  1  0
  8 11  2  0
 10 12  2  0
 11 12  1  0
M  END
>  <PUBCHEM_COMPOUND_CID>  (1) 
14909

>  <PUBCHEM_CONFORMER_RMSD>  (1) 
0.6

>  <PUBCHEM_CONFORMER_DIVERSEORDER>  (1) 
1
6
10
14
9
15
7
13
4
3
2
11
12
5
8

>  <PUBCHEM_MMFF94_PARTIAL_CHARGES>  (1) 
18
1 -0.68
10 -0.15
11 -0.15
12 -0.15
14 0.36
2 -0.9
20 0.15
21 0.15
24 0.15
25 0.15
26 0.15
27 0.4
3 0.41
4 -0.14
6 0.27
7 -0.15
8 -0.15
9 0.28

>  <PUBCHEM_EFFECTIVE_ROTOR_COUNT>  (1) 
4

>  <PUBCHEM_PHARMACOPHORE_FEATURES>  (1) 
5
1 1 acceptor
1 1 donor
1 2 cation
1 2 donor
6 4 7 8 10 11 12 rings

>  <PUBCHEM_HEAVY_ATOM_COUNT>  (1) 
12

>  <PUBCHEM_ATOM_DEF_STEREO_COUNT>  (1) 
0

>  <PUBCHEM_ATOM_UDEF_STEREO_COUNT>  (1) 
1

>  <PUBCHEM_BOND_DEF_STEREO_COUNT>  (1) 
0

>  <PUBCHEM_BOND_UDEF_STEREO_COUNT>  (1) 
0

>  <PUBCHEM_ISOTOPIC_ATOM_COUNT>  (1) 
0

>  <PUBCHEM_COMPONENT_COUNT>  (1) 
1

>  <PUBCHEM_CACTVS_TAUTO_COUNT>  (1) 
1

>  <PUBCHEM_CONFORMER_ID>  (1) 
00003A3D00000001

>  <PUBCHEM_MMFF94_ENERGY>  (1) 
22.6438

>  <PUBCHEM_FEATURE_SELFOVERLAP>  (1) 
25.371

>  <PUBCHEM_SHAPE_FINGERPRINT>  (1) 
1 1 18337106757130420143
10610426 29 14332287325726453734
12138202 97 18200036294962327854
12423570 1 12586227092257028430
12716758 59 18267027335182694226
13294875 104 18199732700814417746
13380537 58 18192149510888548686
13764800 53 18261120703031172641
13839132 238 18339922748258626076
15775835 57 18333447651189334681
16945 1 17560533849400272658
17357990 137 17676768772717849028
18186145 218 18202015321081160661
20361792 2 10375873004418950135
20653085 51 17970085511213532284
20671657 1 18268142059605634147
20711985 344 17904758130696795426
21524375 3 18411415120411272391
21930827 45 18266460004177949706
21947302 44 18059857298315795952
22926399 65 18340210790420154508
230 275 18200581515237964873
23402539 116 17980745349222206271
23402655 69 17632579336089306733
23559900 14 18201450199082433492
25 1 18201732729444614505
2748010 2 17486223510977698736
276578 36 18186238424492041754
305870 269 18335130981958601042
549884 4 17846214432317569601
7364860 26 18195523688656967495
81228 2 17834114525918657259

>  <PUBCHEM_SHAPE_MULTIPOLES>  (1) 
236.1
4.98
2.23
1.04
3.46
1.37
0.02
-3.86
-0.87
0.63
0.34
-0.54
-0.13
0.54

>  <PUBCHEM_SHAPE_SELFOVERLAP>  (1) 
472.608

>  <PUBCHEM_SHAPE_VOLUME>  (1) 
139.4

>  <PUBCHEM_COORDINATE_TYPE>  (1) 
2
5
10

$$$$
