14908
     RDKit          3D

 12 11  0  0  0  0  0  0  0  0999 V2000
   -2.3818    0.6514    0.0833 S   0  0  0  0  0  0  0  0  0  0  0  0
   -2.8116    2.1282   -0.4617 O   0  0  0  0  0  0  0  0  0  0  0  0
   -2.3487    0.7059    1.5351 O   0  0  0  0  0  0  0  0  0  0  0  0
   -3.2046   -0.3328   -0.5991 O   0  0  0  0  0  0  0  0  0  0  0  0
    1.4640   -0.4225   -0.7544 C   0  0  0  0  0  0  0  0  0  0  0  0
    2.4615    0.2501    0.1945 C   0  0  0  0  0  0  0  0  0  0  0  0
    0.0503   -0.4263   -0.2004 C   0  0  0  0  0  0  0  0  0  0  0  0
    3.8689    0.2648   -0.4036 C   0  0  0  0  0  0  0  0  0  0  0  0
   -0.3008   -1.5941    0.6984 C   0  0  0  0  0  0  0  0  0  0  0  0
   -0.7773    0.5825   -0.5280 C   0  0  0  0  0  0  0  0  0  0  0  0
    4.8593    0.9603    0.5169 C   0  0  0  0  0  0  0  0  0  0  0  0
   -0.8793   -2.7676   -0.0809 C   0  0  0  0  0  0  0  0  0  0  0  0
  1  2  1  0
  1  3  2  0
  1  4  2  0
  1 10  1  0
  5  6  1  0
  5  7  1  0
  6  8  1  0
  7  9  1  0
  7 10  2  0
  8 11  1  0
  9 12  1  0
M  END
>  <PUBCHEM_COMPOUND_CID>  (1) 
14908

>  <PUBCHEM_CONFORMER_RMSD>  (1) 
0.6

>  <PUBCHEM_CONFORMER_DIVERSEORDER>  (1) 
1
37
23
11
35
41
18
28
40
17
7
45
43
38
9
42
6
24
44
26
34
25
31
39
36
10
13
19
22
8
32
20
12
2
16
27
29
5
21
3
30
33
15
4
14

>  <PUBCHEM_MMFF94_PARTIAL_CHARGES>  (1) 
10
1 1.5
10 -0.17
2 -0.68
21 0.15
28 0.5
3 -0.65
4 -0.65
5 0.14
7 -0.28
9 0.14

>  <PUBCHEM_EFFECTIVE_ROTOR_COUNT>  (1) 
5

>  <PUBCHEM_PHARMACOPHORE_FEATURES>  (1) 
7
1 11 hydrophobe
1 12 hydrophobe
1 2 acceptor
1 3 acceptor
1 4 acceptor
4 1 2 3 4 anion
5 5 6 7 8 9 hydrophobe

>  <PUBCHEM_HEAVY_ATOM_COUNT>  (1) 
12

>  <PUBCHEM_ATOM_DEF_STEREO_COUNT>  (1) 
0

>  <PUBCHEM_ATOM_UDEF_STEREO_COUNT>  (1) 
0

>  <PUBCHEM_BOND_DEF_STEREO_COUNT>  (1) 
0

>  <PUBCHEM_BOND_UDEF_STEREO_COUNT>  (1) 
1

>  <PUBCHEM_ISOTOPIC_ATOM_COUNT>  (1) 
0

>  <PUBCHEM_COMPONENT_COUNT>  (1) 
1

>  <PUBCHEM_CACTVS_TAUTO_COUNT>  (1) 
1

>  <PUBCHEM_CONFORMER_ID>  (1) 
00003A3C00000001

>  <PUBCHEM_MMFF94_ENERGY>  (1) 
6.7072

>  <PUBCHEM_FEATURE_SELFOVERLAP>  (1) 
35.579

>  <PUBCHEM_SHAPE_FINGERPRINT>  (1) 
11127187 94 11599720649527110337
12138202 97 18343865536879445606
122479 349 18413670231918958452
12346645 44 18336543807276874661
13380535 76 18412544319032515446
14325111 11 18336827494177424246
14897335 6 18408880742072783142
15775835 57 18336826398871183825
18186145 218 18129111034718476300
20281407 28 8646771101593975748
20524608 308 18340207487600905430
20645464 45 18341622524652944958
20645477 56 18340492252738374784
20645477 70 16916799461725691942
20653085 51 16844747338600502458
20871998 184 18266752444011319606
21339142 149 18131635624858464551
23402539 116 18270392923137834175
23500284 214 18272097101757093088
305870 269 18263362482185119514
3086196 2 18121778593689781938
366044 4 18408601465702551175
6333449 129 18340490070441632606
7364860 26 17834392324318661079
81228 2 18122076552249996659

>  <PUBCHEM_SHAPE_MULTIPOLES>  (1) 
233.2
6.92
2.02
0.95
8.26
1.17
-0.2
-3.64
-0.53
-1.68
-0.02
-0.25
-0.08
0.2

>  <PUBCHEM_SHAPE_SELFOVERLAP>  (1) 
424.114

>  <PUBCHEM_SHAPE_VOLUME>  (1) 
149.8

>  <PUBCHEM_COORDINATE_TYPE>  (1) 
2
5
10

$$$$
