14919
     RDKit          3D

  9  8  0  0  0  0  0  0  0  0999 V2000
   -3.3913   -1.1390   -0.1210 O   0  0  0  0  0  0  0  0  0  0  0  0
    2.5244   -0.0778   -0.3318 C   0  0  0  0  0  0  0  0  0  0  0  0
    1.2462   -0.7826    0.1604 C   0  0  0  0  0  0  0  0  0  0  0  0
    2.5549    1.4015    0.0613 C   0  0  0  0  0  0  0  0  0  0  0  0
    3.7593   -0.7874    0.2284 C   0  0  0  0  0  0  0  0  0  0  0  0
   -0.0095   -0.1788   -0.4018 C   0  0  0  0  0  0  0  0  0  0  0  0
   -0.9765    0.3668    0.3505 C   0  0  0  0  0  0  0  0  0  0  0  0
   -2.2326    0.9705   -0.2110 C   0  0  0  0  0  0  0  0  0  0  0  0
   -3.4749    0.2269    0.2649 C   0  0  0  0  0  0  0  0  0  0  0  0
  1  9  1  0
  2  3  1  0
  2  4  1  0
  2  5  1  0
  3  6  1  0
  6  7  2  0
  7  8  1  0
  8  9  1  0
M  END
>  <PUBCHEM_COMPOUND_CID>  (1) 
14919

>  <PUBCHEM_CONFORMER_RMSD>  (1) 
0.6

>  <PUBCHEM_CONFORMER_DIVERSEORDER>  (1) 
2
12
7
9
5
4
1
10
11
6
8
3

>  <PUBCHEM_MMFF94_PARTIAL_CHARGES>  (1) 
9
1 -0.68
19 0.15
20 0.15
25 0.4
3 0.14
6 -0.29
7 -0.29
8 0.14
9 0.28

>  <PUBCHEM_EFFECTIVE_ROTOR_COUNT>  (1) 
4

>  <PUBCHEM_PHARMACOPHORE_FEATURES>  (1) 
3
1 1 acceptor
1 1 donor
3 2 4 5 hydrophobe

>  <PUBCHEM_HEAVY_ATOM_COUNT>  (1) 
9

>  <PUBCHEM_ATOM_DEF_STEREO_COUNT>  (1) 
0

>  <PUBCHEM_ATOM_UDEF_STEREO_COUNT>  (1) 
0

>  <PUBCHEM_BOND_DEF_STEREO_COUNT>  (1) 
0

>  <PUBCHEM_BOND_UDEF_STEREO_COUNT>  (1) 
1

>  <PUBCHEM_ISOTOPIC_ATOM_COUNT>  (1) 
0

>  <PUBCHEM_COMPONENT_COUNT>  (1) 
1

>  <PUBCHEM_CACTVS_TAUTO_COUNT>  (1) 
1

>  <PUBCHEM_CONFORMER_ID>  (1) 
00003A4700000002

>  <PUBCHEM_MMFF94_ENERGY>  (1) 
3.5065

>  <PUBCHEM_FEATURE_SELFOVERLAP>  (1) 
15.223

>  <PUBCHEM_SHAPE_FINGERPRINT>  (1) 
11062470 55 8574708001101908566
12932764 1 17895191065290423569
14325111 11 18410856568240397117
14390081 3 18408322172532310081
177051 138 18410293614002648982
190213 19 17203612570834977217
20211469 26 18113615685972857631
22959321 4 18409730698551299875
3248919 1 17632581513399926797
57812782 119 18334292058944664240

>  <PUBCHEM_SHAPE_MULTIPOLES>  (1) 
179.35
6.89
1.21
0.68
1.25
0.18
0
-0.83
-0.35
-0.23
-0.01
-0.03
0.01
-0.08

>  <PUBCHEM_SHAPE_SELFOVERLAP>  (1) 
321.535

>  <PUBCHEM_SHAPE_VOLUME>  (1) 
116.5

>  <PUBCHEM_COORDINATE_TYPE>  (1) 
2
5
10

$$$$
