14926
     RDKit          3D

 24 24  0  0  1  0  0  0  0  0999 V2000
    2.4775    2.4806    1.4592 O   0  0  0  0  0  0  0  0  0  0  0  0
   -0.1966    1.0949    0.3596 O   0  0  0  0  0  0  0  0  0  0  0  0
    1.5938    3.8694   -1.0586 O   0  0  0  0  0  0  0  0  0  0  0  0
    4.5091    0.7589    0.6773 O   0  0  0  0  0  0  0  0  0  0  0  0
    2.8806   -1.3161   -0.2530 O   0  0  0  0  0  0  0  0  0  0  0  0
    2.7103   -2.6551   -2.1233 O   0  0  0  0  0  0  0  0  0  0  0  0
    2.1825    1.3409    0.6296 C   0  0  0  0  0  0  0  0  0  0  0  0
    0.9601    1.6999   -0.2155 C   0  0  0  0  0  0  0  0  0  0  0  0
    0.8315    3.2000   -0.0618 C   0  0  0  0  0  0  0  0  0  0  0  0
    3.4178    1.0278   -0.2015 C   0  0  0  0  0  0  0  0  0  0  0  0
    1.4310    3.4489    1.3065 C   0  0  0  0  0  0  0  0  0  0  0  0
    3.2009   -0.1952   -1.0834 C   0  0  0  0  0  0  0  0  0  0  0  0
   -2.5992   -2.2664    0.2179 C   0  0  0  0  0  0  0  0  0  0  0  0
   -3.7634   -1.8402    1.1140 C   0  0  0  0  0  0  0  0  0  0  0  0
   -1.3405   -2.5481    1.0416 C   0  0  0  0  0  0  0  0  0  0  0  0
   -0.1653   -2.9429    0.1448 C   0  0  0  0  0  0  0  0  0  0  0  0
   -5.0766   -1.6334    0.3530 C   0  0  0  0  0  0  0  0  0  0  0  0
    1.1020   -3.1911    0.9689 C   0  0  0  0  0  0  0  0  0  0  0  0
   -5.0814   -0.5073   -0.6869 C   0  0  0  0  0  0  0  0  0  0  0  0
    2.3024   -3.5607    0.0975 C   0  0  0  0  0  0  0  0  0  0  0  0
   -4.7246    0.8619   -0.1029 C   0  0  0  0  0  0  0  0  0  0  0  0
    2.6581   -2.4919   -0.9121 C   0  0  0  0  0  0  0  0  0  0  0  0
   -4.8175    1.9984   -1.1246 C   0  0  0  0  0  0  0  0  0  0  0  0
   -4.4923    3.3669   -0.5460 C   0  0  0  0  0  0  0  0  0  0  0  0
  1  7  1  0
  1 11  1  0
  2  8  1  0
  3  9  1  0
  4 10  1  0
  5 12  1  0
  5 22  1  0
  6 22  2  0
  7  8  1  0
  7 10  1  0
  8  9  1  0
  9 11  1  0
 10 12  1  0
 13 14  1  0
 13 15  1  0
 14 17  1  0
 15 16  1  0
 16 18  1  0
 17 19  1  0
 18 20  1  0
 19 21  1  0
 20 22  1  0
 21 23  1  0
 23 24  1  0
M  END
>  <PUBCHEM_COMPOUND_CID>  (1) 
14926

>  <PUBCHEM_CONFORMER_RMSD>  (1) 
1.6

>  <PUBCHEM_CONFORMER_DIVERSEORDER>  (1) 
1
2
25
36
28
65
15
8
41
33
29
44
26
47
38
27
54
7
50
35
32
4
56
55
21
6
62
45
17
48
12
46
43
9
14
23
53
52
22
20
34
39
59
30
3
58
37
40
42
18
63
10
49
19
64
11
13
57
5
61
51
16
31
24
60

>  <PUBCHEM_MMFF94_PARTIAL_CHARGES>  (1) 
17
1 -0.56
10 0.28
11 0.28
12 0.28
2 -0.68
20 0.06
22 0.66
3 -0.68
39 0.4
4 -0.68
44 0.4
49 0.4
5 -0.43
6 -0.57
7 0.28
8 0.28
9 0.28

>  <PUBCHEM_EFFECTIVE_ROTOR_COUNT>  (1) 
15

>  <PUBCHEM_PHARMACOPHORE_FEATURES>  (1) 
10
1 1 acceptor
1 2 acceptor
1 2 donor
1 24 hydrophobe
1 3 acceptor
1 3 donor
1 4 acceptor
1 4 donor
1 6 acceptor
5 1 7 8 9 11 rings

>  <PUBCHEM_HEAVY_ATOM_COUNT>  (1) 
24

>  <PUBCHEM_ATOM_DEF_STEREO_COUNT>  (1) 
3

>  <PUBCHEM_ATOM_UDEF_STEREO_COUNT>  (1) 
1

>  <PUBCHEM_BOND_DEF_STEREO_COUNT>  (1) 
0

>  <PUBCHEM_BOND_UDEF_STEREO_COUNT>  (1) 
0

>  <PUBCHEM_ISOTOPIC_ATOM_COUNT>  (1) 
0

>  <PUBCHEM_COMPONENT_COUNT>  (1) 
1

>  <PUBCHEM_CACTVS_TAUTO_COUNT>  (1) 
1

>  <PUBCHEM_CONFORMER_ID>  (1) 
00003A4E00000001

>  <PUBCHEM_MMFF94_ENERGY>  (1) 
30.078

>  <PUBCHEM_FEATURE_SELFOVERLAP>  (1) 
50.753

>  <PUBCHEM_SHAPE_FINGERPRINT>  (1) 
10439779 11 18337657676896016667
1100329 8 17832984949661746811
12100795 323 17831860522870632021
12769317 202 18340486767490722747
12788726 201 17690284806965010807
13402501 40 18335984250242284606
14251757 17 18411420601079465259
14251764 38 18336547222319044719
144659 178 18262525792528687173
14466204 15 18336539499445665762
15081414 286 18269574834688665634
15210252 30 18041576749394157502
17093844 170 18410288082427611336
20567600 299 18341044130113477023
20621476 13 18411140242235354971
21475661 188 18263925616949241891
21860390 5 18272098205274142310
238918 7 18268417104599435168
3014063 31 18266179418217225759
463206 1 17979359659818440937
5047190 48 17760927746329381149
508706 21 18187083945314099807
54672768 99 18192153921603540980
6433294 58 18121214286304785309
6443956 14 18411707594804184458

>  <PUBCHEM_SHAPE_MULTIPOLES>  (1) 
458.69
10.25
6.08
1.3
13.6
1.35
0.17
1.44
1.92
-1.53
-0.4
-0.57
-0.07
2.56

>  <PUBCHEM_SHAPE_SELFOVERLAP>  (1) 
885.06

>  <PUBCHEM_SHAPE_VOLUME>  (1) 
278.6

>  <PUBCHEM_COORDINATE_TYPE>  (1) 
2
5
10

$$$$
