14937
     RDKit          3D

 11 12  0  0  0  0  0  0  0  0999 V2000
    0.0000    0.0051    0.0007 Si  0  0  0  0  0  4  0  0  0  0  0  0
    2.3217   -0.0010    0.0000 Si  0  0  0  0  0  4  0  0  0  0  0  0
   -2.3216   -0.0010   -0.0004 Si  0  0  0  0  0  4  0  0  0  0  0  0
    1.1458    0.7152    0.9400 O   0  0  0  0  0  0  0  0  0  0  0  0
   -1.1457    0.9468   -0.7065 O   0  0  0  0  0  0  0  0  0  0  0  0
    1.1415   -0.7044   -0.9445 O   0  0  0  0  0  0  0  0  0  0  0  0
   -1.1413   -0.9377    0.7131 O   0  0  0  0  0  0  0  0  0  0  0  0
    3.2305   -1.1094    0.8326 O   0  0  0  0  0  0  0  0  0  0  0  0
    3.2465    1.0968   -0.8287 O   0  0  0  0  0  0  0  0  0  0  0  0
   -3.2456    0.8256    1.0997 O   0  0  0  0  0  0  0  0  0  0  0  0
   -3.2318   -0.8360   -1.1061 O   0  0  0  0  0  0  0  0  0  0  0  0
  1  4  1  0
  1  5  1  0
  1  6  1  0
  1  7  1  0
  2  4  1  0
  2  6  1  0
  2  8  1  0
  2  9  1  0
  3  5  1  0
  3  7  1  0
  3 10  1  0
  3 11  1  0
M  END
>  <PUBCHEM_COMPOUND_CID>  (1) 
14937

>  <PUBCHEM_CONFORMER_RMSD>  (1) 
0.4

>  <PUBCHEM_CONFORMER_DIVERSEORDER>  (1) 
1

>  <PUBCHEM_MMFF94_PARTIAL_CHARGES>  (1) 
15
1 1.19
10 -0.7
11 -0.7
12 0.4
13 0.4
14 0.4
15 0.4
2 1.19
3 1.19
4 -0.59
5 -0.59
6 -0.59
7 -0.59
8 -0.7
9 -0.7

>  <PUBCHEM_EFFECTIVE_ROTOR_COUNT>  (1) 
1.2

>  <PUBCHEM_PHARMACOPHORE_FEATURES>  (1) 
2
4 1 2 4 6 rings
4 1 3 5 7 rings

>  <PUBCHEM_HEAVY_ATOM_COUNT>  (1) 
11

>  <PUBCHEM_ATOM_DEF_STEREO_COUNT>  (1) 
0

>  <PUBCHEM_ATOM_UDEF_STEREO_COUNT>  (1) 
0

>  <PUBCHEM_BOND_DEF_STEREO_COUNT>  (1) 
0

>  <PUBCHEM_BOND_UDEF_STEREO_COUNT>  (1) 
0

>  <PUBCHEM_ISOTOPIC_ATOM_COUNT>  (1) 
0

>  <PUBCHEM_COMPONENT_COUNT>  (1) 
1

>  <PUBCHEM_CACTVS_TAUTO_COUNT>  (1) 
1

>  <PUBCHEM_CONFORMER_ID>  (1) 
00003A5900000001

>  <PUBCHEM_MMFF94_ENERGY>  (1) 
11.9372

>  <PUBCHEM_FEATURE_SELFOVERLAP>  (1) 
10.199

>  <PUBCHEM_SHAPE_FINGERPRINT>  (1) 
10219947 1 18040152915831921974
12932764 1 18412261735531872232
13296908 3 16153427246430884490
14325111 11 17894911823538444829
15775835 57 18412549811841544922
16945 1 17894911836549882242
18186145 218 18040722454486779830
20279233 1 16081364172019981282
20645477 70 17676757695712687258
20715346 28 16226047794711991223
21501502 16 18413107264242089092
23402539 116 18335127674807299069
29004967 10 17489587844295738818
3248919 1 18412263938834257842
3286 77 17988062474445086362
369184 2 17967814950702960617
5084963 1 18337658763459217577
528886 8 17346317063985898563
8030462 33 18412824715555209464

>  <PUBCHEM_SHAPE_MULTIPOLES>  (1) 
234.06
5.47
1.13
1.13
0
0
0
0
0
-0.14
0
0.14
0
-0.56

>  <PUBCHEM_SHAPE_SELFOVERLAP>  (1) 
468.283

>  <PUBCHEM_SHAPE_VOLUME>  (1) 
138.7

>  <PUBCHEM_COORDINATE_TYPE>  (1) 
2
5
10

$$$$
