14948
     RDKit          3D

 12 13  0  0  0  0  0  0  0  0999 V2000
    0.7185    0.0255    0.0257 C   0  0  0  0  0  0  0  0  0  0  0  0
    1.4376   -1.2692   -0.2887 C   0  0  0  0  0  0  0  0  0  0  0  0
    2.8911    1.2536    0.3322 C   0  0  0  0  0  0  0  0  0  0  0  0
    1.3920    1.1554    0.3176 C   0  0  0  0  0  0  0  0  0  0  0  0
   -0.7642    0.0125    0.0109 C   0  0  0  0  0  0  0  0  0  0  0  0
    2.9347   -1.1510   -0.3259 C   0  0  0  0  0  0  0  0  0  0  0  0
    3.5891   -0.0171   -0.0432 C   0  0  0  0  0  0  0  0  0  0  0  0
   -1.4703    1.1689   -0.3244 C   0  0  0  0  0  0  0  0  0  0  0  0
   -1.4567   -1.1561    0.3323 C   0  0  0  0  0  0  0  0  0  0  0  0
   -2.8650    1.1569   -0.3382 C   0  0  0  0  0  0  0  0  0  0  0  0
   -2.8515   -1.1681    0.3184 C   0  0  0  0  0  0  0  0  0  0  0  0
   -3.5555   -0.0115   -0.0168 C   0  0  0  0  0  0  0  0  0  0  0  0
  1  2  1  0
  1  4  2  0
  1  5  1  0
  2  6  1  0
  3  4  1  0
  3  7  1  0
  5  8  2  0
  5  9  1  0
  6  7  2  0
  8 10  1  0
  9 11  2  0
 10 12  2  0
 11 12  1  0
M  END
>  <PUBCHEM_COMPOUND_CID>  (1) 
14948

>  <PUBCHEM_CONFORMER_RMSD>  (1) 
0.4

>  <PUBCHEM_CONFORMER_DIVERSEORDER>  (1) 
2
1
3

>  <PUBCHEM_MMFF94_PARTIAL_CHARGES>  (1) 
20
1 -0.17
10 -0.15
11 -0.15
12 -0.15
17 0.15
18 0.15
19 0.15
2 0.28
20 0.15
21 0.15
22 0.15
23 0.15
24 0.15
3 0.28
4 -0.29
5 0.03
6 -0.29
7 -0.29
8 -0.15
9 -0.15

>  <PUBCHEM_EFFECTIVE_ROTOR_COUNT>  (1) 
1.4

>  <PUBCHEM_PHARMACOPHORE_FEATURES>  (1) 
2
6 1 2 3 4 6 7 rings
6 5 8 9 10 11 12 rings

>  <PUBCHEM_HEAVY_ATOM_COUNT>  (1) 
12

>  <PUBCHEM_ATOM_DEF_STEREO_COUNT>  (1) 
0

>  <PUBCHEM_ATOM_UDEF_STEREO_COUNT>  (1) 
0

>  <PUBCHEM_BOND_DEF_STEREO_COUNT>  (1) 
0

>  <PUBCHEM_BOND_UDEF_STEREO_COUNT>  (1) 
0

>  <PUBCHEM_ISOTOPIC_ATOM_COUNT>  (1) 
0

>  <PUBCHEM_COMPONENT_COUNT>  (1) 
1

>  <PUBCHEM_CACTVS_TAUTO_COUNT>  (1) 
1

>  <PUBCHEM_CONFORMER_ID>  (1) 
00003A6400000002

>  <PUBCHEM_MMFF94_ENERGY>  (1) 
22.2927

>  <PUBCHEM_FEATURE_SELFOVERLAP>  (1) 
10.149

>  <PUBCHEM_SHAPE_FINGERPRINT>  (1) 
10219947 1 17418094295644112198
10608611 8 18410569587115944268
11471102 20 18343017783317711636
12032990 46 18410580586526832051
12932764 1 17531240626031793033
13296908 3 18411421708664140582
13380535 76 18410290315462679251
14144814 61 18410573963692445608
14325111 11 18410573993773190152
15219456 202 18412262843601695176
15442244 35 18124597474961726066
15775835 57 17916866940589026444
16945 1 18337946788276872427
17844478 74 18334584555039617129
18175812 5 18410574006636843910
18186145 218 18339364054449106869
19973954 147 18410576188480587273
200 152 17774994696468216911
20201158 50 18413108333720847670
20279233 1 18410573989478190386
20528008 55 18410288125350741463
20645477 70 18201717306180463166
20871998 184 18269561692426415007
21501502 16 18410575084668360161
23402539 116 18334282184756809239
23402655 69 18271236136813192613
23463225 33 18408039606855179516
23552423 10 18186803603612604207
23559900 14 18338794499590507642
2748010 2 18410573998041634429
5104073 3 18410575084663079913
53812653 166 18410290294214345490
57812782 119 18410852165909364268
6333449 129 18408319986710168799
69090 78 18341888602420033735
7364860 26 18192999433303427988
8809292 202 18334300872223200938
93112 12 18410292505895617060
9709674 26 18410859875360479535

>  <PUBCHEM_SHAPE_MULTIPOLES>  (1) 
246.95
6.3
1.55
0.69
0.28
0
0
0.01
0.08
0.08
0
0
0
0.55

>  <PUBCHEM_SHAPE_SELFOVERLAP>  (1) 
524.292

>  <PUBCHEM_SHAPE_VOLUME>  (1) 
128.9

>  <PUBCHEM_COORDINATE_TYPE>  (1) 
2
5
10

$$$$
