1495
     RDKit          3D

 19 19  0  0  1  0  0  0  0  0999 V2000
   -3.9435   -1.5998   -0.0283 P   0  0  0  0  0  0  0  0  0  0  0  0
    3.9436   -1.5998    0.0283 P   0  0  0  0  0  0  0  0  0  0  0  0
    0.0000    0.1915    0.0004 O   0  0  0  0  0  0  0  0  0  0  0  0
   -1.3295    3.4104    0.8132 O   0  0  0  0  0  0  0  0  0  0  0  0
    1.3296    3.4102   -0.8134 O   0  0  0  0  0  0  0  0  0  0  0  0
   -2.5986   -0.8105    0.4050 O   0  0  0  0  0  0  0  0  0  0  0  0
    2.5985   -0.8106   -0.4048 O   0  0  0  0  0  0  0  0  0  0  0  0
   -3.9345   -1.5161   -1.6433 O   0  0  0  0  0  0  0  0  0  0  0  0
   -5.1169   -0.5690    0.3910 O   0  0  0  0  0  0  0  0  0  0  0  0
    3.9351   -1.5157    1.6432 O   0  0  0  0  0  0  0  0  0  0  0  0
    5.1168   -0.5692   -0.3917 O   0  0  0  0  0  0  0  0  0  0  0  0
   -4.0798   -2.9813    0.5420 O   0  0  0  0  0  0  0  0  0  0  0  0
    4.0796   -2.9814   -0.5417 O   0  0  0  0  0  0  0  0  0  0  0  0
   -0.7553    2.4369   -0.0375 C   0  0  0  0  0  0  0  0  0  0  0  0
    0.7552    2.4368    0.0375 C   0  0  0  0  0  0  0  0  0  0  0  0
   -1.0785    1.0319    0.4461 C   0  0  0  0  0  0  0  0  0  0  0  0
    1.0784    1.0318   -0.4459 C   0  0  0  0  0  0  0  0  0  0  0  0
   -2.3954    0.5019   -0.0926 C   0  0  0  0  0  0  0  0  0  0  0  0
    2.3954    0.5019    0.0925 C   0  0  0  0  0  0  0  0  0  0  0  0
  1  6  1  0
  1  8  1  0
  1  9  1  0
  1 12  2  0
  2  7  1  0
  2 10  1  0
  2 11  1  0
  2 13  2  0
  3 16  1  0
  3 17  1  0
  4 14  1  0
  5 15  1  0
  6 18  1  0
  7 19  1  0
 14 15  1  0
 14 16  1  0
 15 17  1  0
 16 18  1  0
 17 19  1  0
M  END
>  <PUBCHEM_COMPOUND_CID>  (1) 
1495

>  <PUBCHEM_CONFORMER_RMSD>  (1) 
0.8

>  <PUBCHEM_CONFORMER_DIVERSEORDER>  (1) 
1
135
3
24
69
184
11
140
115
64
144
190
112
18
42
84
100
54
95
152
165
15
129
162
72
44
93
139
167
147
106
68
41
78
76
89
196
189
10
66
183
61
199
191
116
132
30
117
40
2
104
174
172
26
12
81
177
157
186
5
136
160
201
14
53
156
23
124
179
134
161
169
119
175
16
127
56
159
87
45
142
121
82
97
158
39
200
123
102
37
99
122
107
198
180
181
57
137
36
163
170
173
105
13
146
86
130
4
83
195
29
58
17
85
91
25
103
46
141
194
63
128
90
153
101
20
166
154
22
71
164
149
79
59
21
148
77
6
8
27
34
193
197
92
28
62
125
50
138
43
67
47
178
118
145
94
49
74
96
111
35
75
150
192
88
151
65
176
168
113
52
131
7
31
51
9
48
114
120
80
32
187
108
185
98
126
73
171
60
155
70
19
109
143
182
188
38
133
33
55
110

>  <PUBCHEM_MMFF94_PARTIAL_CHARGES>  (1) 
25
1 1.51
10 -0.77
11 -0.77
12 -0.7
13 -0.7
14 0.28
15 0.28
16 0.28
17 0.28
18 0.28
19 0.28
2 1.51
28 0.4
29 0.4
3 -0.56
30 0.5
31 0.5
32 0.5
33 0.5
4 -0.68
5 -0.68
6 -0.55
7 -0.55
8 -0.77
9 -0.77

>  <PUBCHEM_EFFECTIVE_ROTOR_COUNT>  (1) 
7

>  <PUBCHEM_PHARMACOPHORE_FEATURES>  (1) 
14
1 10 acceptor
1 11 acceptor
1 12 acceptor
1 13 acceptor
1 3 acceptor
1 4 acceptor
1 4 donor
1 5 acceptor
1 5 donor
1 8 acceptor
1 9 acceptor
4 1 8 9 12 anion
4 2 10 11 13 anion
5 3 14 15 16 17 rings

>  <PUBCHEM_HEAVY_ATOM_COUNT>  (1) 
19

>  <PUBCHEM_ATOM_DEF_STEREO_COUNT>  (1) 
0

>  <PUBCHEM_ATOM_UDEF_STEREO_COUNT>  (1) 
4

>  <PUBCHEM_BOND_DEF_STEREO_COUNT>  (1) 
0

>  <PUBCHEM_BOND_UDEF_STEREO_COUNT>  (1) 
0

>  <PUBCHEM_ISOTOPIC_ATOM_COUNT>  (1) 
0

>  <PUBCHEM_COMPONENT_COUNT>  (1) 
1

>  <PUBCHEM_CACTVS_TAUTO_COUNT>  (1) 
1

>  <PUBCHEM_CONFORMER_ID>  (1) 
000005D700000001

>  <PUBCHEM_MMFF94_ENERGY>  (1) 
-24.5985

>  <PUBCHEM_FEATURE_SELFOVERLAP>  (1) 
71.127

>  <PUBCHEM_SHAPE_FINGERPRINT>  (1) 
11265709 11 18410859853916895289
12107183 9 18341349829380698291
12363563 72 18409735062085384110
12553582 1 18410862057198389679
12633257 1 15769770281874570278
13533116 47 18051413165754605475
13955234 65 17765719405571235305
14866123 147 18124038923445251731
15042514 8 18195252104921328793
15099037 8 18411425002914898601
15342816 4 18260551083146787518
15352361 1 18410576184191063622
17134986 127 9007070062351913144
17539 30 18264758862032029949
18186145 218 17531799294593708843
19141452 34 18197786505088075993
20291156 8 18410573985151691498
20567600 70 18189611812371717122
20621476 51 17975118852176367594
20626108 58 17916295220671420623
20645477 70 18117555352236407131
20671657 53 18334858346272407933
20871998 22 18411417340661574496
21250096 35 18411416228428432107
21452121 199 18339070592329813360
221490 88 18190467253855851291
23526113 38 17824263928404625977
23557571 272 18057610863106070292
23559900 14 18410004476878336777
314173 41 18334860527878774746
3421961 26 18340207513111804681
6433294 58 17832148590475293491

>  <PUBCHEM_SHAPE_MULTIPOLES>  (1) 
334.15
9.65
3.93
0.94
0
1.69
0
-11.07
0
0
0
0
-0.24
-0.5

>  <PUBCHEM_SHAPE_SELFOVERLAP>  (1) 
639.561

>  <PUBCHEM_SHAPE_VOLUME>  (1) 
206.3

>  <PUBCHEM_COORDINATE_TYPE>  (1) 
2
5
10

$$$$
