14967
     RDKit          3D

 23 23  0  0  1  0  0  0  0  0999 V2000
    3.9233   -0.7671    0.4614 S   0  0  0  0  0  0  0  0  0  0  0  0
    5.7743   -3.0774    0.0064 S   0  0  0  0  0  0  0  0  0  0  0  0
    2.9273    3.2797   -1.5493 O   0  0  0  0  0  0  0  0  0  0  0  0
    2.7828   -1.4076   -0.2652 O   0  0  0  0  0  0  0  0  0  0  0  0
    0.4271    2.0013    1.8602 O   0  0  0  0  0  0  0  0  0  0  0  0
   -2.5426   -1.9233    1.5054 O   0  0  0  0  0  0  0  0  0  0  0  0
   -6.3696   -1.8958   -1.0336 O   0  0  0  0  0  0  0  0  0  0  0  0
    1.6090    1.2316    0.0154 N   0  0  0  0  0  0  0  0  0  0  0  0
   -5.0674   -0.0075   -0.9465 N   0  0  0  0  0  0  0  0  0  0  0  0
   -4.4554   -1.9144    0.2420 N   0  0  0  0  0  0  0  0  0  0  0  0
    2.8828    1.8066    0.3808 C   0  0  0  0  0  0  0  0  0  0  0  0
    4.0365    0.9503   -0.1441 C   0  0  0  0  0  0  0  0  0  0  0  0
    2.9699    3.2476   -0.1283 C   0  0  0  0  0  0  0  0  0  0  0  0
    0.4794    1.3840    0.8012 C   0  0  0  0  0  0  0  0  0  0  0  0
    5.4695   -1.3201   -0.3221 C   0  0  0  0  0  0  0  0  0  0  0  0
   -3.0649    0.0968    0.3323 C   0  0  0  0  0  0  0  0  0  0  0  0
   -0.7033    0.6962    0.2132 C   0  0  0  0  0  0  0  0  0  0  0  0
   -3.9588    0.6796   -0.4953 C   0  0  0  0  0  0  0  0  0  0  0  0
   -1.8771    0.7420    0.8450 C   0  0  0  0  0  0  0  0  0  0  0  0
   -3.3116   -1.3260    0.7545 C   0  0  0  0  0  0  0  0  0  0  0  0
   -3.8898    2.0897   -1.0224 C   0  0  0  0  0  0  0  0  0  0  0  0
   -5.3705   -1.3125   -0.6115 C   0  0  0  0  0  0  0  0  0  0  0  0
    7.3292   -3.2538   -0.8995 C   0  0  0  0  0  0  0  0  0  0  0  0
  1  4  2  0
  1 12  1  0
  1 15  1  0
  2 15  1  0
  2 23  1  0
  3 13  1  0
  5 14  2  0
  6 20  2  0
  7 22  2  0
  8 11  1  0
  8 14  1  0
  9 18  1  0
  9 22  1  0
 10 20  1  0
 10 22  1  0
 11 12  1  0
 11 13  1  0
 14 17  1  0
 16 18  2  0
 16 19  1  0
 16 20  1  0
 17 19  2  0
 18 21  1  0
M  END
>  <PUBCHEM_COMPOUND_CID>  (1) 
14967

>  <PUBCHEM_CONFORMER_RMSD>  (1) 
1

>  <PUBCHEM_CONFORMER_DIVERSEORDER>  (1) 
1
44
209
108
227
222
82
40
173
194
55
36
92
215
232
132
73
63
234
103
151
236
83
20
102
13
117
62
81
185
41
129
141
47
166
25
105
176
14
46
154
86
214
12
133
226
187
238
15
107
51
60
135
172
76
104
139
225
130
90
7
216
64
2
208
48
237
32
160
207
9
93
228
23
167
94
52
131
57
53
56
122
80
74
138
178
8
179
156
16
96
118
162
5
195
163
159
3
144
68
24
235
136
84
199
212
71
6
98
137
210
203
181
165
34
239
70
134
67
27
158
49
54
217
169
22
229
188
50
65
29
17
126
168
123
4
33
72
78
89
45
230
79
37
59
213
174
143
128
177
202
18
219
155
11
116
97
35
100
189
106
42
38
110
21
140
186
183
191
31
112
91
190
61
221
115
145
28
233
125
114
224
148
19
192
30
121
87
196
149
58
175
77
193
152
95
182
10
161
206
26
39
127
99
43
164
101
124
204
180
198
120
205
111
66
113
170
157
69
153
146
241
231
85
200
150
147
218
88
75
109
211
223
197
201
240
142
171
184
119
220

>  <PUBCHEM_MMFF94_PARTIAL_CHARGES>  (1) 
29
1 0.11
10 -0.49
11 0.3
12 0.19
13 0.28
14 0.62
15 0.42
16 0.01
17 -0.14
18 -0.03
19 -0.15
2 -0.46
20 0.62
21 0.14
22 0.69
23 0.23
29 0.37
3 -0.68
32 0.15
33 0.15
34 0.4
35 0.37
39 0.37
4 -0.5
5 -0.57
6 -0.57
7 -0.57
8 -0.73
9 -0.54

>  <PUBCHEM_EFFECTIVE_ROTOR_COUNT>  (1) 
9

>  <PUBCHEM_PHARMACOPHORE_FEATURES>  (1) 
11
1 10 donor
1 23 hydrophobe
1 3 acceptor
1 3 donor
1 4 acceptor
1 5 acceptor
1 6 acceptor
1 7 acceptor
1 8 donor
1 9 donor
6 9 10 16 18 20 22 rings

>  <PUBCHEM_HEAVY_ATOM_COUNT>  (1) 
23

>  <PUBCHEM_ATOM_DEF_STEREO_COUNT>  (1) 
0

>  <PUBCHEM_ATOM_UDEF_STEREO_COUNT>  (1) 
2

>  <PUBCHEM_BOND_DEF_STEREO_COUNT>  (1) 
0

>  <PUBCHEM_BOND_UDEF_STEREO_COUNT>  (1) 
1

>  <PUBCHEM_ISOTOPIC_ATOM_COUNT>  (1) 
0

>  <PUBCHEM_COMPONENT_COUNT>  (1) 
1

>  <PUBCHEM_CACTVS_TAUTO_COUNT>  (1) 
21

>  <PUBCHEM_CONFORMER_ID>  (1) 
00003A7700000001

>  <PUBCHEM_MMFF94_ENERGY>  (1) 
44.1614

>  <PUBCHEM_FEATURE_SELFOVERLAP>  (1) 
55.87

>  <PUBCHEM_SHAPE_FINGERPRINT>  (1) 
11719270 70 18266173019613130632
12166972 35 18412263926339687694
13073987 5 18060418053620512129
13533116 47 18341330101678067817
14251740 57 18272364262014111658
14849402 71 10952054455732422212
14910302 57 18260818332817105237
15961568 22 16951966373950683068
17492 89 18409732906011509307
18222031 100 18336828577363829234
20645477 70 18409726304921244400
23559900 14 18409441505534481609
270888 7 10809352139560474138
3004659 81 18408035230019832544
34797466 226 17532086284234957989
4280585 95 18263642866925991378
46194498 28 17967810604402299204
5104073 3 17489872643640694425
5207 123 18410012096624638168
5281201 14 18260546757497899421
559249 180 18271243794734366033
59682541 52 18339912831653900037
7970288 3 18270117903750488518
9709674 26 18261677081220400969
9841814 1 16630245926046957576

>  <PUBCHEM_SHAPE_MULTIPOLES>  (1) 
436.74
16.65
3.93
1.18
6.64
0.72
0.11
-17.36
-5.83
5.16
-0.75
-0.48
0.27
0.59

>  <PUBCHEM_SHAPE_SELFOVERLAP>  (1) 
850.557

>  <PUBCHEM_SHAPE_VOLUME>  (1) 
264.2

>  <PUBCHEM_COORDINATE_TYPE>  (1) 
2
5
10

$$$$
