14984
     RDKit          3D

 27 29  0  0  1  0  0  0  0  0999 V2000
   -0.9305    2.4576    0.6387 S   0  0  0  0  0  0  0  0  0  0  0  0
   -6.0975   -0.9899   -0.4516 S   0  0  0  0  0  0  0  0  0  0  0  0
   -0.5525   -1.7899    1.7404 O   0  0  0  0  0  0  0  0  0  0  0  0
   -4.7820   -0.2597    0.1851 O   0  0  0  0  0  0  0  0  0  0  0  0
   -3.1585   -1.3531   -1.0219 O   0  0  0  0  0  0  0  0  0  0  0  0
    3.0535    1.5549   -0.3488 O   0  0  0  0  0  0  0  0  0  0  0  0
   -6.1914   -0.6075   -1.8485 O   0  0  0  0  0  0  0  0  0  0  0  0
   -6.0622   -2.3902   -0.0716 O   0  0  0  0  0  0  0  0  0  0  0  0
   -1.2115   -0.0900    0.2417 N   0  0  0  0  0  0  0  0  0  0  0  0
    1.8968   -0.4234    0.0179 N   0  0  0  0  0  0  0  0  0  0  0  0
   -7.3976   -0.2505    0.3845 N   0  0  0  0  0  0  0  0  0  0  0  0
   -0.2207    0.9373   -0.0921 C   0  0  0  0  0  0  0  0  0  0  0  0
   -2.6619    1.8368    0.3449 C   0  0  0  0  0  0  0  0  0  0  0  0
   -2.5537    0.3185    0.6032 C   0  0  0  0  0  0  0  0  0  0  0  0
    0.7819    0.1587    0.7709 C   0  0  0  0  0  0  0  0  0  0  0  0
   -0.3748   -0.8276    1.0284 C   0  0  0  0  0  0  0  0  0  0  0  0
   -3.0610    2.2121   -1.0888 C   0  0  0  0  0  0  0  0  0  0  0  0
   -3.6068    2.5064    1.3444 C   0  0  0  0  0  0  0  0  0  0  0  0
   -3.5002   -0.5328   -0.1818 C   0  0  0  0  0  0  0  0  0  0  0  0
    2.9536    0.3382   -0.4850 C   0  0  0  0  0  0  0  0  0  0  0  0
    3.9685   -0.5112   -1.2247 C   0  0  0  0  0  0  0  0  0  0  0  0
    5.3497   -0.4443   -0.6285 C   0  0  0  0  0  0  0  0  0  0  0  0
    6.2393    0.5237   -1.0730 C   0  0  0  0  0  0  0  0  0  0  0  0
    5.7132   -1.3512    0.3571 C   0  0  0  0  0  0  0  0  0  0  0  0
    7.5186    0.5860   -0.5207 C   0  0  0  0  0  0  0  0  0  0  0  0
    6.9925   -1.2887    0.9095 C   0  0  0  0  0  0  0  0  0  0  0  0
    7.8953   -0.3201    0.4705 C   0  0  0  0  0  0  0  0  0  0  0  0
  1 12  1  0
  1 13  1  0
  2  4  1  0
  2  7  2  0
  2  8  2  0
  2 11  1  0
  3 16  2  0
  4 19  1  0
  5 19  2  0
  6 20  2  0
  9 12  1  0
  9 14  1  0
  9 16  1  0
 10 15  1  0
 10 20  1  0
 12 15  1  0
 13 14  1  0
 13 17  1  0
 13 18  1  0
 14 19  1  0
 15 16  1  0
 20 21  1  0
 21 22  1  0
 22 23  2  0
 22 24  1  0
 23 25  1  0
 24 26  2  0
 25 27  2  0
 26 27  1  0
M  END
>  <PUBCHEM_COMPOUND_CID>  (1) 
14984

>  <PUBCHEM_CONFORMER_RMSD>  (1) 
1.2

>  <PUBCHEM_CONFORMER_DIVERSEORDER>  (1) 
5
523
35
517
431
60
7
452
89
85
16
299
143
140
11
307
362
113
56
539
90
559
14
301
444
289
349
46
268
254
175
103
318
235
439
265
77
28
352
574
436
18
47
92
394
45
51
263
6
213
139
501
107
390
20
532
277
50
229
61
245
21
59
120
108
366
176
345
178
191
83
498
198
335
144
365
79
215
309
312
41
371
15
106
10
185
30
459
69
180
55
158
308
455
38
314
169
2
383
197
101
428
500
127
276
13
23
381
126
447
142
138
552
256
74
122
475
249
240
575
148
246
482
31
1
104
29
273
44
49
19
3
408
376
12
218

>  <PUBCHEM_MMFF94_PARTIAL_CHARGES>  (1) 
33
1 -0.45
10 -0.65
11 -0.98
12 0.44
13 0.23
14 0.36
15 0.28
16 0.58
19 0.66
2 1.62
20 0.57
21 0.2
22 -0.14
23 -0.15
24 -0.15
25 -0.15
26 -0.15
27 -0.15
3 -0.57
37 0.37
4 -0.33
40 0.42
41 0.42
42 0.15
43 0.15
44 0.15
45 0.15
46 0.15
5 -0.57
6 -0.57
7 -0.65
8 -0.65
9 -0.59

>  <PUBCHEM_EFFECTIVE_ROTOR_COUNT>  (1) 
7.8

>  <PUBCHEM_PHARMACOPHORE_FEATURES>  (1) 
11
1 10 donor
1 11 donor
1 3 acceptor
1 5 acceptor
1 6 acceptor
1 7 acceptor
1 8 acceptor
3 13 17 18 hydrophobe
4 9 12 15 16 rings
6 22 23 24 25 26 27 rings
7 1 9 12 13 14 15 16 rings

>  <PUBCHEM_HEAVY_ATOM_COUNT>  (1) 
27

>  <PUBCHEM_ATOM_DEF_STEREO_COUNT>  (1) 
0

>  <PUBCHEM_ATOM_UDEF_STEREO_COUNT>  (1) 
3

>  <PUBCHEM_BOND_DEF_STEREO_COUNT>  (1) 
0

>  <PUBCHEM_BOND_UDEF_STEREO_COUNT>  (1) 
0

>  <PUBCHEM_ISOTOPIC_ATOM_COUNT>  (1) 
0

>  <PUBCHEM_COMPONENT_COUNT>  (1) 
1

>  <PUBCHEM_CACTVS_TAUTO_COUNT>  (1) 
2

>  <PUBCHEM_CONFORMER_ID>  (1) 
00003A8800000005

>  <PUBCHEM_MMFF94_ENERGY>  (1) 
61.3235

>  <PUBCHEM_FEATURE_SELFOVERLAP>  (1) 
59.573

>  <PUBCHEM_SHAPE_FINGERPRINT>  (1) 
10 15 11383833783607403639
10554248 39 17095250198792988846
10595046 47 18410295775204499280
106641 1 11887669602658216711
11135609 187 17749101175811479514
11315181 36 17822301205881271840
11524674 6 15985104132680090959
12107698 1 18342175579007380836
12166972 35 17894915156618222628
12236239 1 18259987046249817312
12516196 113 16558752312891199290
13540713 5 17972305223637636537
13673619 4 17561081440766817873
13914758 101 16371000780852551516
14251764 18 18334299760496343716
14347332 77 18411698777036229580
15183329 4 17821732715620485746
15419008 47 17346594162839809320
15461852 350 18409453575141280126
1577012 14 18261118431241645980
15849732 13 12031788067725411107
16087824 20 18269276769514612529
19427546 20 18410012092541362669
19489759 90 18409732837998881848
20511986 3 18260256431616204994
21033648 29 13479424937005752364
21130935 74 18200314313118515394
21150785 3 17748825228826631746
21236236 1 18410578357460086464
21267235 1 18339927112847530803
21792961 116 18040712564042377339
22224240 67 14908180858820857206
23081809 10 18260276218267072892
23198884 109 16515683338608781133
23402539 116 18334576807193123164
23522609 53 18121250682185719004
23559900 14 18262236754256609352
23622692 88 9871746897277128619
249057 25 18260561025558520756
25147074 1 18115300051982139275
2838139 119 15068620496182295351
335352 9 18342735218469087621
34797466 226 17203614809483850164
3545911 37 11097853003782375086
3633792 109 17385997339247502034
4325135 7 18202004335229947116
4938544 92 16630259004696653505
5283156 175 18335421257296829886
59755656 520 17168140182751307155

>  <PUBCHEM_SHAPE_MULTIPOLES>  (1) 
513.19
21.24
2.17
1.24
19.17
0.89
-0.05
-7.64
-2.91
-2.98
0.35
-0.29
-0.07
-1.4

>  <PUBCHEM_SHAPE_SELFOVERLAP>  (1) 
1060.474

>  <PUBCHEM_SHAPE_VOLUME>  (1) 
296

>  <PUBCHEM_COORDINATE_TYPE>  (1) 
2
5
10

$$$$
