14985
     RDKit          3D

 31 32  0  0  1  0  0  0  0  0999 V2000
    0.7439   -1.3977   -0.1232 O   0  0  0  0  0  0  0  0  0  0  0  0
    5.3183    1.4276   -1.3890 O   0  0  0  0  0  0  0  0  0  0  0  0
    0.7693   -2.3982    0.9123 C   0  0  0  0  0  0  0  0  0  0  0  0
   -0.6874   -2.5672    1.3684 C   0  0  0  0  0  0  0  0  0  0  0  0
    1.6165   -1.9523    2.1151 C   0  0  0  0  0  0  0  0  0  0  0  0
   -1.6525   -2.5615    0.1814 C   0  0  0  0  0  0  0  0  0  0  0  0
   -4.1405   -2.6928   -0.4929 C   0  0  0  0  0  0  0  0  0  0  0  0
   -3.0989   -2.7639    0.6462 C   0  0  0  0  0  0  0  0  0  0  0  0
    3.0429   -1.6226    1.6984 C   0  0  0  0  0  0  0  0  0  0  0  0
   -4.1332   -1.3155   -1.1902 C   0  0  0  0  0  0  0  0  0  0  0  0
    1.2487   -3.7271    0.3089 C   0  0  0  0  0  0  0  0  0  0  0  0
    3.0372   -0.7796    0.4579 C   0  0  0  0  0  0  0  0  0  0  0  0
   -4.4179   -0.1428   -0.2451 C   0  0  0  0  0  0  0  0  0  0  0  0
    1.9105   -0.7238   -0.3710 C   0  0  0  0  0  0  0  0  0  0  0  0
   -4.4293    1.2220   -0.9482 C   0  0  0  0  0  0  0  0  0  0  0  0
   -4.6441    2.4603   -0.0469 C   0  0  0  0  0  0  0  0  0  0  0  0
   -3.8732   -3.8345   -1.4808 C   0  0  0  0  0  0  0  0  0  0  0  0
   -3.6255    2.5062    1.1114 C   0  0  0  0  0  0  0  0  0  0  0  0
    4.1850   -0.0589    0.1006 C   0  0  0  0  0  0  0  0  0  0  0  0
    1.9230    0.0704   -1.5212 C   0  0  0  0  0  0  0  0  0  0  0  0
   -2.1483    2.5701    0.7012 C   0  0  0  0  0  0  0  0  0  0  0  0
    3.0658    0.7930   -1.8615 C   0  0  0  0  0  0  0  0  0  0  0  0
   -4.5670    3.7209   -0.9179 C   0  0  0  0  0  0  0  0  0  0  0  0
    4.1977    0.7256   -1.0529 C   0  0  0  0  0  0  0  0  0  0  0  0
   -1.1393    2.5588    1.8561 C   0  0  0  0  0  0  0  0  0  0  0  0
    0.3455    2.5408    1.4458 C   0  0  0  0  0  0  0  0  0  0  0  0
    5.4159   -0.1114    0.9522 C   0  0  0  0  0  0  0  0  0  0  0  0
    0.7053    0.1538   -2.3883 C   0  0  0  0  0  0  0  0  0  0  0  0
    3.0817    1.6448   -3.0909 C   0  0  0  0  0  0  0  0  0  0  0  0
    1.2834    2.4710    2.6512 C   0  0  0  0  0  0  0  0  0  0  0  0
    0.6667    3.7844    0.6131 C   0  0  0  0  0  0  0  0  0  0  0  0
  1  3  1  0
  1 14  1  0
  2 24  1  0
  3  4  1  0
  3  5  1  0
  3 11  1  0
  4  6  1  0
  5  9  1  0
  6  8  1  0
  7  8  1  0
  7 10  1  0
  7 17  1  0
  9 12  1  0
 10 13  1  0
 12 14  2  0
 12 19  1  0
 13 15  1  0
 14 20  1  0
 15 16  1  0
 16 18  1  0
 16 23  1  0
 18 21  1  0
 19 24  2  0
 19 27  1  0
 20 22  2  0
 20 28  1  0
 21 25  1  0
 22 24  1  0
 22 29  1  0
 25 26  1  0
 26 30  1  0
 26 31  1  0
M  END
>  <PUBCHEM_COMPOUND_CID>  (1) 
14985

>  <PUBCHEM_CONFORMER_RMSD>  (1) 
1.6

>  <PUBCHEM_CONFORMER_DIVERSEORDER>  (1) 
6
68
33
52
75
7
1
60
26
5
4
72
78
25
36
18
49
8
63
47
20
2
43
76
24
35
67
32
14
9
61
56
37
73
57
53
15
31
71
27
59
55
13
28
3
41
77
22
23
11
66
69
34
50
12
39
46
54
19
64
38
30
10
65
62
40
45
70
44
74
21
42
17
16
58
29
51
48

>  <PUBCHEM_MMFF94_PARTIAL_CHARGES>  (1) 
14
1 -0.36
12 -0.14
14 0.08
19 -0.14
2 -0.53
20 -0.14
22 -0.14
24 0.08
27 0.14
28 0.14
29 0.14
3 0.28
81 0.45
9 0.14

>  <PUBCHEM_EFFECTIVE_ROTOR_COUNT>  (1) 
12.8

>  <PUBCHEM_PHARMACOPHORE_FEATURES>  (1) 
7
1 1 acceptor
1 17 hydrophobe
1 2 donor
1 23 hydrophobe
3 26 30 31 hydrophobe
6 1 3 5 9 12 14 rings
6 12 14 19 20 22 24 rings

>  <PUBCHEM_HEAVY_ATOM_COUNT>  (1) 
31

>  <PUBCHEM_ATOM_DEF_STEREO_COUNT>  (1) 
3

>  <PUBCHEM_ATOM_UDEF_STEREO_COUNT>  (1) 
0

>  <PUBCHEM_BOND_DEF_STEREO_COUNT>  (1) 
0

>  <PUBCHEM_BOND_UDEF_STEREO_COUNT>  (1) 
0

>  <PUBCHEM_ISOTOPIC_ATOM_COUNT>  (1) 
0

>  <PUBCHEM_COMPONENT_COUNT>  (1) 
1

>  <PUBCHEM_CACTVS_TAUTO_COUNT>  (1) 
9

>  <PUBCHEM_CONFORMER_ID>  (1) 
00003A8900000006

>  <PUBCHEM_MMFF94_ENERGY>  (1) 
75.1299

>  <PUBCHEM_FEATURE_SELFOVERLAP>  (1) 
35.549

>  <PUBCHEM_SHAPE_FINGERPRINT>  (1) 
10673678 19 17758674448447900813
10815517 723 17975687286866316242
12156800 1 18337654417311407328
12788726 201 18337678624047910191
131258 38 18120627216427356642
13617811 41 18187918475062387509
14931854 50 18340198610282962461
14932702 115 18272643511644135289
15297060 5 18129381505672795299
15420108 30 17327454727822297138
161222 10 17984728652285261813
17138139 8 18337954605233460812
17818456 19 18268421330874349266
19319366 153 18188211988510142747
20511986 3 18114455674249732893
20715895 44 17468186744490211621
20764821 26 18338234989605269065
21033650 10 18265639699863579286
21860390 5 17553195910712719282
24941158 1 15213842849100826553
3052486 1 18410847772369006144
3493558 16 18125157135203041458
4066623 53 18053087700240172981
463206 1 18337954476474652217
469060 322 17898886618998833489
5171179 24 17985822863859714769

>  <PUBCHEM_SHAPE_MULTIPOLES>  (1) 
626.23
10.47
5.41
2.44
2.17
0.27
-0.6
-2.3
-3.57
6.14
1.31
-2.05
-1.05
-2.09

>  <PUBCHEM_SHAPE_SELFOVERLAP>  (1) 
1256.404

>  <PUBCHEM_SHAPE_VOLUME>  (1) 
371.9

>  <PUBCHEM_COORDINATE_TYPE>  (1) 
2
5
10

$$$$
