15004
     RDKit          3D

 24 24  0  0  0  0  0  0  0  0999 V2000
    2.1320    1.0317    0.8853 O   0  0  0  0  0  0  0  0  0  0  0  0
   -5.4565   -0.1653    0.1288 O   0  0  0  0  0  0  0  0  0  0  0  0
    0.6601    2.5398   -0.9275 O   0  0  0  0  0  0  0  0  0  0  0  0
    4.4630    1.2600   -0.2302 O   0  0  0  0  0  0  0  0  0  0  0  0
   -3.4357   -1.0303   -0.5703 O   0  0  0  0  0  0  0  0  0  0  0  0
    4.9837   -1.0027   -0.2313 N   0  0  0  0  0  0  0  0  0  0  0  0
    4.6621   -2.3960    0.0676 C   0  0  0  0  0  0  0  0  0  0  0  0
    6.2946   -0.7850   -0.8308 C   0  0  0  0  0  0  0  0  0  0  0  0
    4.1559    0.0910    0.0231 C   0  0  0  0  0  0  0  0  0  0  0  0
   -2.0175    0.9009    0.9452 C   0  0  0  0  0  0  0  0  0  0  0  0
    2.8081   -0.1858    0.6551 C   0  0  0  0  0  0  0  0  0  0  0  0
    0.7576    0.9941    0.8982 C   0  0  0  0  0  0  0  0  0  0  0  0
   -3.5077    0.8510    0.9707 C   0  0  0  0  0  0  0  0  0  0  0  0
    0.0317    1.7512   -0.0115 C   0  0  0  0  0  0  0  0  0  0  0  0
   -1.3623    1.7043    0.0120 C   0  0  0  0  0  0  0  0  0  0  0  0
    5.1182   -2.7846    1.4587 C   0  0  0  0  0  0  0  0  0  0  0  0
    6.2277   -0.8317   -2.3432 C   0  0  0  0  0  0  0  0  0  0  0  0
   -1.2788    0.1441    1.8548 C   0  0  0  0  0  0  0  0  0  0  0  0
    0.1151    0.1908    1.8310 C   0  0  0  0  0  0  0  0  0  0  0  0
   -4.0921   -0.2298    0.0820 C   0  0  0  0  0  0  0  0  0  0  0  0
   -6.1468   -1.1340   -0.6672 C   0  0  0  0  0  0  0  0  0  0  0  0
   -7.6448   -0.9267   -0.5043 C   0  0  0  0  0  0  0  0  0  0  0  0
   -8.4453   -1.9327   -1.3118 C   0  0  0  0  0  0  0  0  0  0  0  0
    0.9777    1.9460   -2.1847 C   0  0  0  0  0  0  0  0  0  0  0  0
  1 11  1  0
  1 12  1  0
  2 20  1  0
  2 21  1  0
  3 14  1  0
  3 24  1  0
  4  9  2  0
  5 20  2  0
  6  7  1  0
  6  8  1  0
  6  9  1  0
  7 16  1  0
  8 17  1  0
  9 11  1  0
 10 13  1  0
 10 15  2  0
 10 18  1  0
 12 14  2  0
 12 19  1  0
 13 20  1  0
 14 15  1  0
 18 19  2  0
 21 22  1  0
 22 23  1  0
M  END
>  <PUBCHEM_COMPOUND_CID>  (1) 
15004

>  <PUBCHEM_CONFORMER_RMSD>  (1) 
1

>  <PUBCHEM_CONFORMER_DIVERSEORDER>  (1) 
1
159
203
193
111
268
172
291
113
302
272
100
182
7
149
63
308
257
220
314
197
21
177
185
255
109
261
298
91
171
317
146
226
143
198
254
60
211
87
303
276
244
86
247
306
229
95
269
192
183
23
320
286
154
225
150
304
228
16
191
294
130
221
33
287
313
289
283
270
135
173
267
222
189
58
248
300
163
309
152
231
121
70
102
280
315
78
246
195
200
131
115
128
250
209
305
212
271
139
199
168
27
69
104
208
175
55
288
158
132
40
71
202
227
188
242
292
251
28
25
134
93
141
140
310
234
301
118
237
210
201
151
204
187
44
80
155
206
147
218
66
316
120
249
94
133
81
265
318
106
273
46
72
83
216
241
277
282
256
215
124
299
224
179
295
18
116
236
10
223
186
176
53
37
57
258
307
119
259
219
166
205
108
162
29
103
92
243
13
312
61
184
252
263
240
142
235
245
190
114
165
167
274
110
43
145
34
12
297
123
169
293
311
148
75
238
88
144
35
50
82
8
278
262
217
54
157
181
26
279
30
32
253
64
260
275
15
136
74
89
138
164
122
17
285
31
45
170
284
281
5
79
156
153
101
39
99
97
207
59
233
90
214
112
76
56
196
11
77
125
266
290
319
6
24
49
129
194
213
160
105
239
4
137
296
47
36
126
73
85
22
161
96
51
230
14
117
48
107
174
41
84
42
180
264
232
38
127
9
67
98
178
19
68
65
52
20
2
3
62

>  <PUBCHEM_MMFF94_PARTIAL_CHARGES>  (1) 
23
1 -0.36
10 -0.14
11 0.34
12 0.08
13 0.2
14 0.08
15 -0.15
18 -0.15
19 -0.15
2 -0.43
20 0.66
21 0.28
24 0.28
3 -0.36
33 0.15
4 -0.57
40 0.15
41 0.15
5 -0.57
6 -0.66
7 0.3
8 0.3
9 0.57

>  <PUBCHEM_EFFECTIVE_ROTOR_COUNT>  (1) 
12

>  <PUBCHEM_PHARMACOPHORE_FEATURES>  (1) 
6
1 1 acceptor
1 23 hydrophobe
1 3 acceptor
1 4 acceptor
1 5 acceptor
6 10 12 14 15 18 19 rings

>  <PUBCHEM_HEAVY_ATOM_COUNT>  (1) 
24

>  <PUBCHEM_ATOM_DEF_STEREO_COUNT>  (1) 
0

>  <PUBCHEM_ATOM_UDEF_STEREO_COUNT>  (1) 
0

>  <PUBCHEM_BOND_DEF_STEREO_COUNT>  (1) 
0

>  <PUBCHEM_BOND_UDEF_STEREO_COUNT>  (1) 
0

>  <PUBCHEM_ISOTOPIC_ATOM_COUNT>  (1) 
0

>  <PUBCHEM_COMPONENT_COUNT>  (1) 
1

>  <PUBCHEM_CACTVS_TAUTO_COUNT>  (1) 
1

>  <PUBCHEM_CONFORMER_ID>  (1) 
00003A9C00000001

>  <PUBCHEM_MMFF94_ENERGY>  (1) 
58.4417

>  <PUBCHEM_FEATURE_SELFOVERLAP>  (1) 
30.464

>  <PUBCHEM_SHAPE_FINGERPRINT>  (1) 
10 15 12679458703349739451
10693767 8 18188197737197036803
10753850 27 18342168964831409891
12895836 83 13912325707202385785
13383668 1 17895735350160334106
13533116 47 18059292170619095545
13540713 5 13181300059668306041
13668630 136 17846504699250421934
13685833 64 17989485247408953059
14216079 64 18201996634507040231
14251757 52 12179838416544123847
14347332 77 18337950082548762145
15183329 4 18335421253418698171
15475509 35 17560791130689568626
15510800 12 17775020010969322943
17134984 74 18409165541080316330
18222031 100 18333447646936721640
18335252 98 17060340721896139782
19784866 240 18342742935966214145
21304304 249 17346602988828439951
21521239 73 18334855047980124435
21637258 2 18131623478986097449
21641784 216 15719662165895787141
221357 26 17458616831362397213
22224240 67 12391510893412955565
22956985 138 16054378746945378996
23522609 53 18054823678281821232
23559900 14 17749970950403697472
23576562 1 16371862914413172215
2838139 119 12324240598287111627
3004659 81 18201441367901626970
392239 28 11887668442637179970
46194498 28 17531241811854269581
465052 167 16845576434703028536
5104073 3 13181923371455575275
5718773 13 17274815909569995175
58807428 26 13183018493316077996
59682541 52 17749110014875007559

>  <PUBCHEM_SHAPE_MULTIPOLES>  (1) 
459.58
19.56
2.43
1.8
23.04
0.43
-0.41
18.36
-9.47
-1.3
-0.34
-1.39
-0.02
-2.08

>  <PUBCHEM_SHAPE_SELFOVERLAP>  (1) 
919.102

>  <PUBCHEM_SHAPE_VOLUME>  (1) 
271.6

>  <PUBCHEM_COORDINATE_TYPE>  (1) 
2
5
10

$$$$
