15001
     RDKit          3D

 26 27  0  0  1  0  0  0  0  0999 V2000
   -0.9229   -1.1514   -0.6969 O   0  0  0  0  0  0  0  0  0  0  0  0
    1.3980   -0.6281   -1.8992 O   0  0  0  0  0  0  0  0  0  0  0  0
    0.5202   -2.1040    0.8192 O   0  0  0  0  0  0  0  0  0  0  0  0
   -3.4251   -0.1933    0.3128 N   0  0  0  0  0  0  0  0  0  0  0  0
   -3.3033   -1.4092   -0.4798 C   0  0  0  0  0  0  0  0  0  0  0  0
   -1.9369   -2.0764   -0.3052 C   0  0  0  0  0  0  0  0  0  0  0  0
    1.2606   -0.2001   -0.5288 C   0  0  0  0  0  0  0  0  0  0  0  0
   -4.4277    0.7033   -0.2665 C   0  0  0  0  0  0  0  0  0  0  0  0
   -3.7723   -0.5125    1.6993 C   0  0  0  0  0  0  0  0  0  0  0  0
    0.2797   -1.2726   -0.0481 C   0  0  0  0  0  0  0  0  0  0  0  0
    0.6629    1.2080   -0.4872 C   0  0  0  0  0  0  0  0  0  0  0  0
    2.6186   -0.2377    0.1763 C   0  0  0  0  0  0  0  0  0  0  0  0
   -1.7704   -3.3298   -1.1551 C   0  0  0  0  0  0  0  0  0  0  0  0
   -5.8062    0.0648   -0.2571 C   0  0  0  0  0  0  0  0  0  0  0  0
   -3.8359    0.7430    2.5523 C   0  0  0  0  0  0  0  0  0  0  0  0
    0.9394    2.1137   -1.5115 C   0  0  0  0  0  0  0  0  0  0  0  0
    2.6883   -0.5187    1.5408 C   0  0  0  0  0  0  0  0  0  0  0  0
   -0.1590    1.5860    0.5748 C   0  0  0  0  0  0  0  0  0  0  0  0
    3.7865    0.0085   -0.5456 C   0  0  0  0  0  0  0  0  0  0  0  0
    1.8987   -1.9485   -1.9637 C   0  0  0  0  0  0  0  0  0  0  0  0
    0.3945    3.3972   -1.4737 C   0  0  0  0  0  0  0  0  0  0  0  0
    3.9258   -0.5533    2.1836 C   0  0  0  0  0  0  0  0  0  0  0  0
   -0.7039    2.8695    0.6123 C   0  0  0  0  0  0  0  0  0  0  0  0
    5.0240   -0.0261    0.0972 C   0  0  0  0  0  0  0  0  0  0  0  0
   -0.4271    3.7750   -0.4120 C   0  0  0  0  0  0  0  0  0  0  0  0
    5.0936   -0.3070    1.4617 C   0  0  0  0  0  0  0  0  0  0  0  0
  1  6  1  0
  1 10  1  0
  2  7  1  0
  2 20  1  0
  3 10  2  0
  4  5  1  0
  4  8  1  0
  4  9  1  0
  5  6  1  0
  6 13  1  0
  7 10  1  0
  7 11  1  0
  7 12  1  0
  8 14  1  0
  9 15  1  0
 11 16  2  0
 11 18  1  0
 12 17  2  0
 12 19  1  0
 16 21  1  0
 17 22  1  0
 18 23  2  0
 19 24  2  0
 21 25  2  0
 22 26  2  0
 23 25  1  0
 24 26  1  0
M  END
>  <PUBCHEM_COMPOUND_CID>  (1) 
15001

>  <PUBCHEM_CONFORMER_RMSD>  (1) 
1

>  <PUBCHEM_CONFORMER_DIVERSEORDER>  (1) 
1
73
87
100
43
46
8
48
35
84
12
75
71
85
67
54
29
18
102
106
108
76
38
90
14
92
55
17
56
32
79
51
105
97
30
77
34
107
22
45
61
83
42
94
23
53
60
37
49
3
50
88
15
57
5
62
26
7
52
103
36
33
31
89
86
80
93
101
19
4
66
25
41
16
99
64
13
10
58
11
24
65
21
6
74
28
70
68
2
69
9
72
27
40
39
82
91
44
104
20
78
81
63
47
95
59
98
96

>  <PUBCHEM_MMFF94_PARTIAL_CHARGES>  (1) 
33
1 -0.43
10 0.66
11 -0.14
12 -0.14
16 -0.15
17 -0.15
18 -0.15
19 -0.15
2 -0.56
20 0.28
21 -0.15
22 -0.15
23 -0.15
24 -0.15
25 -0.15
26 -0.15
3 -0.57
4 -0.81
43 0.15
44 0.15
45 0.15
46 0.15
47 0.15
48 0.15
49 0.15
5 0.27
50 0.15
54 0.15
55 0.15
6 0.28
7 0.63
8 0.27
9 0.27

>  <PUBCHEM_EFFECTIVE_ROTOR_COUNT>  (1) 
10

>  <PUBCHEM_PHARMACOPHORE_FEATURES>  (1) 
5
1 2 acceptor
1 3 acceptor
1 4 cation
6 11 16 18 21 23 25 rings
6 12 17 19 22 24 26 rings

>  <PUBCHEM_HEAVY_ATOM_COUNT>  (1) 
26

>  <PUBCHEM_ATOM_DEF_STEREO_COUNT>  (1) 
0

>  <PUBCHEM_ATOM_UDEF_STEREO_COUNT>  (1) 
1

>  <PUBCHEM_BOND_DEF_STEREO_COUNT>  (1) 
0

>  <PUBCHEM_BOND_UDEF_STEREO_COUNT>  (1) 
0

>  <PUBCHEM_ISOTOPIC_ATOM_COUNT>  (1) 
0

>  <PUBCHEM_COMPONENT_COUNT>  (1) 
1

>  <PUBCHEM_CACTVS_TAUTO_COUNT>  (1) 
1

>  <PUBCHEM_CONFORMER_ID>  (1) 
00003A9900000001

>  <PUBCHEM_MMFF94_ENERGY>  (1) 
80.1247

>  <PUBCHEM_FEATURE_SELFOVERLAP>  (1) 
25.372

>  <PUBCHEM_SHAPE_FINGERPRINT>  (1) 
10162869 55 18413103967273963141
10165383 225 17632576072478170632
1100329 8 18335700606280449289
11578080 2 15407565901778197064
11595378 159 18261395477843051354
11646440 116 18202005443400100961
12166972 35 18269828869667409099
12422481 6 18271527473113793074
12553582 1 18118146726368140393
12633257 1 18409448132974708383
12788726 201 18334021566727285420
13004483 165 18115852054011396008
13009979 54 18056200404225235739
13132413 78 18334569183140603292
13140716 1 18267858557034951824
133893 2 17755571990555764165
13583140 156 17749961071741254491
13965767 371 17983591705990910291
14022347 108 18262821591336990838
14081887 123 18129660781636981521
14178342 30 18059019496120408751
14251751 93 11170177744686167019
14466204 15 18260822662481749541
14840074 17 18408892840600088896
14955137 171 18335715977974053554
15238133 3 17822296726140614133
1601671 61 18342742944308027662
16945 1 18271231760383565790
17349148 13 18130503149762737335
17980427 23 17987223620346032957
19078846 21 18261391199528318063
20600515 1 18343025531502069316
20691752 17 18266761094170158947
20739085 24 18337953514602275164
21033648 29 17988639675500942691
21298829 104 18200314291791716553
2132832 1 17912063256250764039
21330990 113 17918274247085457786
22182313 1 18195813959573336797
23402539 116 18342729732698858142
23419403 2 17481662697547763192
23559900 14 17917723404966954934
3052486 1 18189629236890383092
3286 77 17386294319320051667
345986 75 17532906373468674928
3493558 16 17559953401845365584
4409770 3 18045194103747148789
513202 73 18045501911448231306
5171179 24 17622723120294666527
58260988 647 14274293619026309872
5895379 119 17916328162801412529
6009941 240 16732976492843116553
653340 110 18053664681573091097
7064713 232 18059307469461422089
7471813 234 17697295671208441871
81228 2 18267320754252224540
8509985 295 18113332020752678019
90316 7 18337657672817125344

>  <PUBCHEM_SHAPE_MULTIPOLES>  (1) 
512.48
9.18
3.48
1.97
2.49
2.31
-0.66
-2.1
-4.15
1.3
1.72
-0.39
-0.13
-0.85

>  <PUBCHEM_SHAPE_SELFOVERLAP>  (1) 
1069.308

>  <PUBCHEM_SHAPE_VOLUME>  (1) 
291.8

>  <PUBCHEM_COORDINATE_TYPE>  (1) 
2
5
10

$$$$
