15018
     RDKit          3D

  5  4  0  0  0  0  0  0  0  0999 V2000
    1.0840   -1.2032   -0.0003 O   0  0  0  0  0  0  0  0  0  0  0  0
    1.3211    1.1921   -0.0002 C   0  0  0  0  0  0  0  0  0  0  0  0
    0.5571   -0.0986    0.0006 C   0  0  0  0  0  0  0  0  0  0  0  0
   -0.8825    0.0103    0.0001 C   0  0  0  0  0  0  0  0  0  0  0  0
   -2.0797    0.0994   -0.0002 C   0  0  0  0  0  0  0  0  0  0  0  0
  1  3  2  0
  2  3  1  0
  3  4  1  0
  4  5  3  0
M  END
>  <PUBCHEM_COMPOUND_CID>  (1) 
15018

>  <PUBCHEM_CONFORMER_RMSD>  (1) 
0.4

>  <PUBCHEM_CONFORMER_DIVERSEORDER>  (1) 
1

>  <PUBCHEM_MMFF94_PARTIAL_CHARGES>  (1) 
6
1 -0.57
2 0.06
3 0.61
4 -0.1
5 -0.18
9 0.18

>  <PUBCHEM_EFFECTIVE_ROTOR_COUNT>  (1) 
0

>  <PUBCHEM_PHARMACOPHORE_FEATURES>  (1) 
2
1 1 acceptor
1 5 hydrophobe

>  <PUBCHEM_HEAVY_ATOM_COUNT>  (1) 
5

>  <PUBCHEM_ATOM_DEF_STEREO_COUNT>  (1) 
0

>  <PUBCHEM_ATOM_UDEF_STEREO_COUNT>  (1) 
0

>  <PUBCHEM_BOND_DEF_STEREO_COUNT>  (1) 
0

>  <PUBCHEM_BOND_UDEF_STEREO_COUNT>  (1) 
0

>  <PUBCHEM_ISOTOPIC_ATOM_COUNT>  (1) 
0

>  <PUBCHEM_COMPONENT_COUNT>  (1) 
1

>  <PUBCHEM_CACTVS_TAUTO_COUNT>  (1) 
2

>  <PUBCHEM_CONFORMER_ID>  (1) 
00003AAA00000001

>  <PUBCHEM_MMFF94_ENERGY>  (1) 
1.856

>  <PUBCHEM_FEATURE_SELFOVERLAP>  (1) 
10.148

>  <PUBCHEM_SHAPE_FINGERPRINT>  (1) 
139733 1 9222356637871968322
20096714 4 18341333412918576200
21015797 1 8574717892332437488
21040471 1 18194401319160234752
24536 1 18409438181366606593
29004967 10 18336267821162892938
5460574 1 9295293841581239269
5943 1 11577187893956105154

>  <PUBCHEM_SHAPE_MULTIPOLES>  (1) 
97.03
2.3
1.11
0.6
1
0.08
0
-0.39
0
-0.59
0
0.02
-0.03
0

>  <PUBCHEM_SHAPE_SELFOVERLAP>  (1) 
175.099

>  <PUBCHEM_SHAPE_VOLUME>  (1) 
62.2

>  <PUBCHEM_COORDINATE_TYPE>  (1) 
2
5
10

$$$$
