15011
     RDKit          3D

 24 28  0  0  1  0  0  0  0  0999 V2000
   -1.9385    2.2297    1.4501 O   0  0  0  0  0  0  0  0  0  0  0  0
   -3.8531    2.7215   -0.5087 O   0  0  0  0  0  0  0  0  0  0  0  0
   -1.6353    1.9818    0.0768 C   0  0  0  0  0  0  0  0  0  0  0  0
   -0.6602    0.8319    0.0215 C   0  0  0  0  0  0  0  0  0  0  0  0
   -2.9168    1.6663   -0.7101 C   0  0  0  0  0  0  0  0  0  0  0  0
   -1.1415   -0.4887    0.0018 C   0  0  0  0  0  0  0  0  0  0  0  0
   -3.4941    0.3175   -0.3194 C   0  0  0  0  0  0  0  0  0  0  0  0
   -2.6057   -0.7353    0.0178 C   0  0  0  0  0  0  0  0  0  0  0  0
    1.6908    0.0633   -0.0114 C   0  0  0  0  0  0  0  0  0  0  0  0
    0.7223    1.0925    0.0279 C   0  0  0  0  0  0  0  0  0  0  0  0
    1.1988   -1.2622   -0.0549 C   0  0  0  0  0  0  0  0  0  0  0  0
   -0.1875   -1.5169   -0.0492 C   0  0  0  0  0  0  0  0  0  0  0  0
    3.1137    0.2897   -0.0126 C   0  0  0  0  0  0  0  0  0  0  0  0
   -4.8803    0.0907   -0.3506 C   0  0  0  0  0  0  0  0  0  0  0  0
   -3.1642   -1.9784    0.3688 C   0  0  0  0  0  0  0  0  0  0  0  0
    3.9912   -0.8244   -0.0606 C   0  0  0  0  0  0  0  0  0  0  0  0
    2.0953   -2.3338   -0.1028 C   0  0  0  0  0  0  0  0  0  0  0  0
    3.4697   -2.1190   -0.1056 C   0  0  0  0  0  0  0  0  0  0  0  0
   -5.4022   -1.1538   -0.0097 C   0  0  0  0  0  0  0  0  0  0  0  0
   -4.5459   -2.1846    0.3562 C   0  0  0  0  0  0  0  0  0  0  0  0
    3.7170    1.5720    0.0309 C   0  0  0  0  0  0  0  0  0  0  0  0
    5.3843   -0.6392   -0.0637 C   0  0  0  0  0  0  0  0  0  0  0  0
    5.1041    1.7427    0.0274 C   0  0  0  0  0  0  0  0  0  0  0  0
    5.9380    0.6364   -0.0200 C   0  0  0  0  0  0  0  0  0  0  0  0
  1  3  1  0
  2  5  1  0
  3  4  1  0
  3  5  1  0
  4  6  2  0
  4 10  1  0
  5  7  1  0
  6  8  1  0
  6 12  1  0
  7  8  2  0
  7 14  1  0
  8 15  1  0
  9 10  2  0
  9 11  1  0
  9 13  1  0
 11 12  2  0
 11 17  1  0
 13 16  2  0
 13 21  1  0
 14 19  2  0
 15 20  2  0
 16 18  1  0
 16 22  1  0
 17 18  2  0
 19 20  1  0
 21 23  2  0
 22 24  2  0
 23 24  1  0
M  END
>  <PUBCHEM_COMPOUND_CID>  (1) 
15011

>  <PUBCHEM_CONFORMER_RMSD>  (1) 
0.6

>  <PUBCHEM_CONFORMER_DIVERSEORDER>  (1) 
2
1

>  <PUBCHEM_MMFF94_PARTIAL_CHARGES>  (1) 
32
1 -0.68
10 -0.15
12 -0.15
14 -0.15
15 -0.15
17 -0.15
18 -0.15
19 -0.15
2 -0.68
20 -0.15
21 -0.15
22 -0.15
23 -0.15
24 -0.15
27 0.15
28 0.15
29 0.15
3 0.42
30 0.15
31 0.15
32 0.4
33 0.4
34 0.15
35 0.15
36 0.15
37 0.15
38 0.15
39 0.15
4 -0.14
40 0.15
5 0.42
7 -0.14

>  <PUBCHEM_EFFECTIVE_ROTOR_COUNT>  (1) 
0.4

>  <PUBCHEM_PHARMACOPHORE_FEATURES>  (1) 
9
1 1 acceptor
1 1 donor
1 2 acceptor
1 2 donor
6 13 16 21 22 23 24 rings
6 3 4 5 6 7 8 rings
6 4 6 9 10 11 12 rings
6 7 8 14 15 19 20 rings
6 9 11 13 16 17 18 rings

>  <PUBCHEM_HEAVY_ATOM_COUNT>  (1) 
24

>  <PUBCHEM_ATOM_DEF_STEREO_COUNT>  (1) 
0

>  <PUBCHEM_ATOM_UDEF_STEREO_COUNT>  (1) 
2

>  <PUBCHEM_BOND_DEF_STEREO_COUNT>  (1) 
0

>  <PUBCHEM_BOND_UDEF_STEREO_COUNT>  (1) 
0

>  <PUBCHEM_ISOTOPIC_ATOM_COUNT>  (1) 
0

>  <PUBCHEM_COMPONENT_COUNT>  (1) 
1

>  <PUBCHEM_CACTVS_TAUTO_COUNT>  (1) 
1

>  <PUBCHEM_CONFORMER_ID>  (1) 
00003AA300000002

>  <PUBCHEM_MMFF94_ENERGY>  (1) 
83.4248

>  <PUBCHEM_FEATURE_SELFOVERLAP>  (1) 
45.771

>  <PUBCHEM_SHAPE_FINGERPRINT>  (1) 
10 15 18267010826077566744
10616163 171 18412263913112193327
10670039 82 18262816116071373108
10835480 77 18408594868896892765
11135609 12 17751094689778122747
11488393 25 17416705552556355214
11578080 2 17024570218981830975
11963148 33 18264481956859051506
12107183 9 17758671149004889810
12166972 35 18113902688931603548
12236239 1 17748541554657814930
12403259 415 18273207634392562336
12788726 201 17345191087223988697
13140716 1 17907299106400047618
13224815 77 18412266112272287034
13402501 40 18410293656999937755
13533116 47 17241033337265096906
13631057 29 18411698828813103459
14341114 176 18409453582887364374
14787075 74 18338233881060614122
14790565 3 18339647840361036700
15196674 1 18410292476084118478
15961568 22 17749674094874930716
16087824 20 18408882916412749797
17349148 13 17894915148133191390
17492 89 18339361855648235318
17844677 252 18410863148473069100
18608769 82 18268710696380429722
18681886 176 18410571825774866632
19489759 90 17530961401686452315
200 152 18273213105821824155
21033648 144 18264763268831824276
21033648 29 17988627606321184824
21033650 10 15575553514644169366
21236236 1 18412263926540264609
21267235 1 18411426107106466054
21279426 13 18339361847432054998
21315763 129 18407757028377978396
21623110 236 18411708694369001737
221490 88 18411423865128373190
22393880 68 18337113346090124926
23402539 116 18336823190520330719
23557571 272 18341900679356139863
23559900 14 18338508733377284321
23569914 152 17051048499241104557
239999 70 18343871013616895358
3004659 81 18260264153281841178
329604 57 18411983585044497608
3380486 145 17901969739465881419
34797466 226 17989213667936587932
350125 39 18411139173046954544
3545911 37 18409167710106586364
4073 2 18113343019889974258
4214541 1 18409448050906125148
474 4 17894636976382054788
474229 33 18411418448974035958
5104073 3 18338795620144228698
5283173 99 18260541187199311309
5486654 2 18339083812360398174
59755656 215 18410578396732159182
7495541 125 17917706946251005632
9709674 26 18269276763837082023

>  <PUBCHEM_SHAPE_MULTIPOLES>  (1) 
482.17
12.55
2.7
0.72
4.55
0.27
0.07
-0.29
-0.41
-1.13
0.12
-0.27
0.17
0.47

>  <PUBCHEM_SHAPE_SELFOVERLAP>  (1) 
1106.037

>  <PUBCHEM_SHAPE_VOLUME>  (1) 
247.9

>  <PUBCHEM_COORDINATE_TYPE>  (1) 
2
5
10

$$$$
