15013
     RDKit          3D

  9  8  0  0  0  0  0  0  0  0999 V2000
    1.1965    0.5694   -0.0997 O   0  0  0  0  0  0  0  0  0  0  0  0
    2.5444   -1.2507    0.3563 O   0  0  0  0  0  0  0  0  0  0  0  0
   -2.4106   -0.0802    0.2909 N   0  0  0  0  0  0  0  0  0  0  0  0
   -1.1904    0.6764    0.0125 C   0  0  0  0  0  0  0  0  0  0  0  0
    0.0383   -0.1997    0.1971 C   0  0  0  0  0  0  0  0  0  0  0  0
   -2.4993   -1.2475   -0.5856 C   0  0  0  0  0  0  0  0  0  0  0  0
   -3.5883    0.7714    0.1288 C   0  0  0  0  0  0  0  0  0  0  0  0
    2.3920   -0.0839    0.0211 C   0  0  0  0  0  0  0  0  0  0  0  0
    3.5173    0.8447   -0.3214 C   0  0  0  0  0  0  0  0  0  0  0  0
  1  5  1  0
  1  8  1  0
  2  8  2  0
  3  4  1  0
  3  6  1  0
  3  7  1  0
  4  5  1  0
  8  9  1  0
M  END
>  <PUBCHEM_COMPOUND_CID>  (1) 
15013

>  <PUBCHEM_CONFORMER_RMSD>  (1) 
0.6

>  <PUBCHEM_CONFORMER_DIVERSEORDER>  (1) 
1
22
17
23
14
13
28
27
15
18
6
21
25
20
24
5
12
26
29
9
8
4
2
19
10
30
16
3
7
11

>  <PUBCHEM_MMFF94_PARTIAL_CHARGES>  (1) 
9
1 -0.43
2 -0.57
3 -0.81
4 0.27
5 0.28
6 0.27
7 0.27
8 0.66
9 0.06

>  <PUBCHEM_EFFECTIVE_ROTOR_COUNT>  (1) 
4

>  <PUBCHEM_PHARMACOPHORE_FEATURES>  (1) 
2
1 2 acceptor
1 3 cation

>  <PUBCHEM_HEAVY_ATOM_COUNT>  (1) 
9

>  <PUBCHEM_ATOM_DEF_STEREO_COUNT>  (1) 
0

>  <PUBCHEM_ATOM_UDEF_STEREO_COUNT>  (1) 
0

>  <PUBCHEM_BOND_DEF_STEREO_COUNT>  (1) 
0

>  <PUBCHEM_BOND_UDEF_STEREO_COUNT>  (1) 
0

>  <PUBCHEM_ISOTOPIC_ATOM_COUNT>  (1) 
0

>  <PUBCHEM_COMPONENT_COUNT>  (1) 
1

>  <PUBCHEM_CACTVS_TAUTO_COUNT>  (1) 
1

>  <PUBCHEM_CONFORMER_ID>  (1) 
00003AA500000001

>  <PUBCHEM_MMFF94_ENERGY>  (1) 
13.3467

>  <PUBCHEM_FEATURE_SELFOVERLAP>  (1) 
10.148

>  <PUBCHEM_SHAPE_FINGERPRINT>  (1) 
11062470 55 18408887338678183209
12932764 1 18272367589764348753
14325111 11 18410293613986629811
15775835 57 18411421712916740999
20645477 70 18335134233270267823
3248919 1 17603586360893612880
5460574 1 10015866474651123400

>  <PUBCHEM_SHAPE_MULTIPOLES>  (1) 
168.5
6.53
1.16
0.67
0.55
0.25
0.03
-0.76
0.31
-0.17
0.06
-0.04
0.04
-0.47

>  <PUBCHEM_SHAPE_SELFOVERLAP>  (1) 
306.131

>  <PUBCHEM_SHAPE_VOLUME>  (1) 
109.4

>  <PUBCHEM_COORDINATE_TYPE>  (1) 
2
5
10

$$$$
