15024
     RDKit          3D

 25 27  0  0  0  0  0  0  0  0999 V2000
    3.0454   -0.5000   -2.4527 F   0  0  0  0  0  0  0  0  0  0  0  0
    1.1031    0.3403   -1.9779 F   0  0  0  0  0  0  0  0  0  0  0  0
    2.8565    0.9559   -0.8485 F   0  0  0  0  0  0  0  0  0  0  0  0
    1.4412    4.1928    0.4835 O   0  0  0  0  0  0  0  0  0  0  0  0
   -4.9660   -1.3310   -0.7494 O   0  0  0  0  0  0  0  0  0  0  0  0
   -3.5820   -2.4924    0.4976 O   0  0  0  0  0  0  0  0  0  0  0  0
   -0.2891    2.8887   -0.2568 N   0  0  0  0  0  0  0  0  0  0  0  0
    1.2851    1.1453    1.6413 N   0  0  0  0  0  0  0  0  0  0  0  0
   -3.8756   -1.4526   -0.1405 N   0  0  0  0  0  0  0  0  0  0  0  0
   -0.7797    0.5447    0.4268 C   0  0  0  0  0  0  0  0  0  0  0  0
    0.5881    0.2903    0.9735 C   0  0  0  0  0  0  0  0  0  0  0  0
    1.2294   -1.0301    0.7100 C   0  0  0  0  0  0  0  0  0  0  0  0
   -1.1145    1.7456   -0.2202 C   0  0  0  0  0  0  0  0  0  0  0  0
    2.0167   -1.2267   -0.4188 C   0  0  0  0  0  0  0  0  0  0  0  0
   -1.7142   -0.5033    0.4686 C   0  0  0  0  0  0  0  0  0  0  0  0
    0.7134    2.4417    1.9334 C   0  0  0  0  0  0  0  0  0  0  0  0
   -2.3360    1.8355   -0.9047 C   0  0  0  0  0  0  0  0  0  0  0  0
   -2.9451   -0.3805   -0.1749 C   0  0  0  0  0  0  0  0  0  0  0  0
    1.0224   -2.0620    1.6186 C   0  0  0  0  0  0  0  0  0  0  0  0
    0.6826    3.2377    0.6558 C   0  0  0  0  0  0  0  0  0  0  0  0
   -3.2487    0.7813   -0.8760 C   0  0  0  0  0  0  0  0  0  0  0  0
    2.6048   -2.4717   -0.6420 C   0  0  0  0  0  0  0  0  0  0  0  0
    2.2498   -0.1305   -1.4069 C   0  0  0  0  0  0  0  0  0  0  0  0
    1.6106   -3.3070    1.3952 C   0  0  0  0  0  0  0  0  0  0  0  0
    2.4017   -3.5118    0.2650 C   0  0  0  0  0  0  0  0  0  0  0  0
  1 23  1  0
  2 23  1  0
  3 23  1  0
  4 20  2  0
  5  9  1  0
  6  9  2  0
  7 13  1  0
  7 20  1  0
  8 11  2  0
  8 16  1  0
  9 18  1  0
 10 11  1  0
 10 13  2  0
 10 15  1  0
 11 12  1  0
 12 14  2  0
 12 19  1  0
 13 17  1  0
 14 22  1  0
 14 23  1  0
 15 18  2  0
 16 20  1  0
 17 21  2  0
 18 21  1  0
 19 24  2  0
 22 25  2  0
 24 25  1  0
M  CHG  2   5  -1   9   1
M  END
>  <PUBCHEM_COMPOUND_CID>  (1) 
15024

>  <PUBCHEM_CONFORMER_RMSD>  (1) 
0.6

>  <PUBCHEM_CONFORMER_DIVERSEORDER>  (1) 
1
5
2
6
4
3

>  <PUBCHEM_MMFF94_PARTIAL_CHARGES>  (1) 
33
1 -0.34
10 0.09
11 0.28
12 0.09
13 0.12
14 -0.14
15 -0.15
16 0.31
17 -0.15
18 0.13
19 -0.15
2 -0.34
20 0.57
21 -0.15
22 -0.15
23 1.16
24 -0.15
25 -0.15
26 0.15
27 0.37
3 -0.34
30 0.15
31 0.15
32 0.15
33 0.15
34 0.15
35 0.15
4 -0.57
5 -0.52
6 -0.52
7 -0.55
8 -0.7
9 0.91

>  <PUBCHEM_EFFECTIVE_ROTOR_COUNT>  (1) 
3.4

>  <PUBCHEM_PHARMACOPHORE_FEATURES>  (1) 
9
1 4 acceptor
1 5 acceptor
1 5 anion
1 6 acceptor
1 7 donor
1 8 acceptor
6 10 13 15 17 18 21 rings
6 12 14 19 22 24 25 rings
7 7 8 10 11 13 16 20 rings

>  <PUBCHEM_HEAVY_ATOM_COUNT>  (1) 
25

>  <PUBCHEM_ATOM_DEF_STEREO_COUNT>  (1) 
0

>  <PUBCHEM_ATOM_UDEF_STEREO_COUNT>  (1) 
0

>  <PUBCHEM_BOND_DEF_STEREO_COUNT>  (1) 
0

>  <PUBCHEM_BOND_UDEF_STEREO_COUNT>  (1) 
0

>  <PUBCHEM_ISOTOPIC_ATOM_COUNT>  (1) 
0

>  <PUBCHEM_COMPONENT_COUNT>  (1) 
1

>  <PUBCHEM_CACTVS_TAUTO_COUNT>  (1) 
3

>  <PUBCHEM_CONFORMER_ID>  (1) 
00003AB000000001

>  <PUBCHEM_MMFF94_ENERGY>  (1) 
92.3903

>  <PUBCHEM_FEATURE_SELFOVERLAP>  (1) 
45.764

>  <PUBCHEM_SHAPE_FINGERPRINT>  (1) 
11578080 2 16959542769939083304
12035758 1 17907025328315987888
12156800 1 16385658718080672669
12363563 72 17628891479457631815
12553582 1 18268145349619362787
12788726 201 17836652928788818805
13009979 54 17901103014748965562
13140716 1 17977376463048616683
13149001 5 17835831924526270774
13965767 371 10807930483763319603
14115302 16 17903912262704630989
14787075 74 18341057431811575532
14863182 85 17758114079294193487
16752209 62 17258481259167541401
16945 1 17969243216312761892
20600515 1 17771335383852484049
20691752 17 17832135400730304783
20775438 99 17759471813167410191
20905425 154 18270389500017049016
21452121 199 18264756688793999498
23184049 29 18123173628662464331
23419403 2 16974257967296459398
23557571 272 17842548553344933850
23559900 14 17765694842601080498
238 59 18190467245187107331
5845 1 14497866208794440865
5895379 119 15939179662460250479
6669772 16 18053934337068497200
6992083 37 16891180578146232698
81228 2 17269473136887193929
90525 40 17039239718446411128

>  <PUBCHEM_SHAPE_MULTIPOLES>  (1) 
460.12
5.66
4.41
1.67
2.08
1.86
0.29
-5.79
2.02
1.11
-1.47
-1.25
0.47
-0.72

>  <PUBCHEM_SHAPE_SELFOVERLAP>  (1) 
1019.487

>  <PUBCHEM_SHAPE_VOLUME>  (1) 
245.1

>  <PUBCHEM_COORDINATE_TYPE>  (1) 
2
5
10

$$$$
