15023
     RDKit          3D

 21 22  0  0  1  0  0  0  0  0999 V2000
    2.8087    2.3358   -0.0067 N   0  0  0  0  0  0  0  0  0  0  0  0
    2.4315   -2.4018   -1.4073 N   0  0  0  0  0  0  0  0  0  0  0  0
    0.8036   -0.9931    0.1424 C   0  0  0  0  0  0  0  0  0  0  0  0
    0.4357   -1.8785    1.4081 C   0  0  0  0  0  0  0  0  0  0  0  0
    1.6011    0.2829    0.5949 C   0  0  0  0  0  0  0  0  0  0  0  0
   -0.5016   -0.5640   -0.5686 C   0  0  0  0  0  0  0  0  0  0  0  0
    2.0894    1.1869   -0.5503 C   0  0  0  0  0  0  0  0  0  0  0  0
    1.6596   -2.2450    2.2691 C   0  0  0  0  0  0  0  0  0  0  0  0
   -0.3281   -3.1720    1.0750 C   0  0  0  0  0  0  0  0  0  0  0  0
   -1.4512    0.1732    0.1066 C   0  0  0  0  0  0  0  0  0  0  0  0
    1.7135   -1.7833   -0.7365 C   0  0  0  0  0  0  0  0  0  0  0  0
   -0.6220   -0.9679   -1.8755 C   0  0  0  0  0  0  0  0  0  0  0  0
   -2.6236    0.5335   -0.5996 C   0  0  0  0  0  0  0  0  0  0  0  0
   -1.3047    0.5746    1.4443 C   0  0  0  0  0  0  0  0  0  0  0  0
   -1.7749   -0.6137   -2.5698 C   0  0  0  0  0  0  0  0  0  0  0  0
   -2.7701    0.1320   -1.9374 C   0  0  0  0  0  0  0  0  0  0  0  0
    3.2420    3.2262   -1.0839 C   0  0  0  0  0  0  0  0  0  0  0  0
    3.9586    1.8945    0.7830 C   0  0  0  0  0  0  0  0  0  0  0  0
   -3.6151    1.2844    0.0528 C   0  0  0  0  0  0  0  0  0  0  0  0
   -2.2998    1.3205    2.0768 C   0  0  0  0  0  0  0  0  0  0  0  0
   -3.4527    1.6748    1.3824 C   0  0  0  0  0  0  0  0  0  0  0  0
  1  7  1  0
  1 17  1  0
  1 18  1  0
  2 11  3  0
  3  4  1  0
  3  5  1  0
  3  6  1  0
  3 11  1  0
  4  8  1  0
  4  9  1  0
  5  7  1  0
  6 10  2  0
  6 12  1  0
 10 13  1  0
 10 14  1  0
 12 15  2  0
 13 16  2  0
 13 19  1  0
 14 20  2  0
 15 16  1  0
 19 21  2  0
 20 21  1  0
M  END
>  <PUBCHEM_COMPOUND_CID>  (1) 
15023

>  <PUBCHEM_CONFORMER_RMSD>  (1) 
0.8

>  <PUBCHEM_CONFORMER_DIVERSEORDER>  (1) 
2
11
6
8
7
15
1
3
14
9
4
12
10
13
5
16
17

>  <PUBCHEM_MMFF94_PARTIAL_CHARGES>  (1) 
22
1 -0.81
11 0.36
12 -0.15
14 -0.15
15 -0.15
16 -0.15
17 0.27
18 0.27
19 -0.15
2 -0.56
20 -0.15
21 -0.15
3 0.34
33 0.15
34 0.15
35 0.15
36 0.15
43 0.15
44 0.15
45 0.15
6 -0.14
7 0.27

>  <PUBCHEM_EFFECTIVE_ROTOR_COUNT>  (1) 
5

>  <PUBCHEM_PHARMACOPHORE_FEATURES>  (1) 
5
1 1 cation
1 2 acceptor
3 4 8 9 hydrophobe
6 10 13 14 19 20 21 rings
6 6 10 12 13 15 16 rings

>  <PUBCHEM_HEAVY_ATOM_COUNT>  (1) 
21

>  <PUBCHEM_ATOM_DEF_STEREO_COUNT>  (1) 
0

>  <PUBCHEM_ATOM_UDEF_STEREO_COUNT>  (1) 
1

>  <PUBCHEM_BOND_DEF_STEREO_COUNT>  (1) 
0

>  <PUBCHEM_BOND_UDEF_STEREO_COUNT>  (1) 
0

>  <PUBCHEM_ISOTOPIC_ATOM_COUNT>  (1) 
0

>  <PUBCHEM_COMPONENT_COUNT>  (1) 
1

>  <PUBCHEM_CACTVS_TAUTO_COUNT>  (1) 
1

>  <PUBCHEM_CONFORMER_ID>  (1) 
00003AAF00000002

>  <PUBCHEM_MMFF94_ENERGY>  (1) 
87.2155

>  <PUBCHEM_FEATURE_SELFOVERLAP>  (1) 
25.398

>  <PUBCHEM_SHAPE_FINGERPRINT>  (1) 
10165383 225 17533815695412599854
10291535 26 17553758856646214208
11578080 2 17314514729693183229
11640471 11 18271796930360851609
11725454 13 15650380889999111991
12173636 292 17909003332459911820
12592029 89 17751609217605402208
12633257 1 15936405645857835453
12716301 132 14419532460978086069
12788726 201 17469038221608288178
13149001 5 18048633419438068606
133893 2 18262779801468276090
13583140 156 17974304118829659577
13965767 371 16907761247736925699
14115302 16 16557905577015512783
14142880 1 17829328330106448876
14713325 29 18050581934546541314
14787075 74 18122904498054985655
14817 1 14418400071238515543
15238133 3 17177151500610269413
15534591 1 18200600318362277788
16945 1 17626979407241201519
1813 80 17909261387148885706
18219364 16 17894901979584633540
18981168 100 18265354947863231356
19765921 60 18340756130875527305
20510252 161 17467344960600170794
21330990 113 17694243452483313186
21524375 3 18265323083516868332
21756936 100 18197232540470339272
22149856 69 16412106969143033209
22892500 29 17970639484743359489
22907989 373 17616538792832373020
23419403 2 16402892175497699653
23559900 14 15122087410538159134
298252 57 17632029592790841305
3286 77 17533495638945168235
3797600 57 18271523208369588627
4340502 62 18334582373707875451
469060 322 16016908859328566980
474 4 18411417319555762688
495365 180 17677606463381756461
81228 2 17318468852711188186
9981440 41 17699272572157083928
9999458 23 18119835541863001315

>  <PUBCHEM_SHAPE_MULTIPOLES>  (1) 
422.21
5.61
3.3
2.35
0.61
0.39
0.32
-5.17
-0.17
3.4
-0.66
-1.16
0.64
-1.11

>  <PUBCHEM_SHAPE_SELFOVERLAP>  (1) 
889.656

>  <PUBCHEM_SHAPE_VOLUME>  (1) 
237

>  <PUBCHEM_COORDINATE_TYPE>  (1) 
2
5
10

$$$$
