1502
     RDKit          3D

 21 23  0  0  0  0  0  0  0  0999 V2000
    2.1284    2.6797    0.5594 O   0  0  0  0  0  0  0  0  0  0  0  0
    4.6364   -2.1461   -0.3525 O   0  0  0  0  0  0  0  0  0  0  0  0
   -0.2506   -0.6734    0.2645 N   0  0  0  0  0  0  0  0  0  0  0  0
   -0.1751    1.4455   -0.4023 N   0  0  0  0  0  0  0  0  0  0  0  0
   -5.2770   -2.2040    0.5561 N   0  0  0  0  0  0  0  0  0  0  0  0
   -6.3550   -0.2604   -0.0967 N   0  0  0  0  0  0  0  0  0  0  0  0
   -1.5580   -0.2960    0.0955 C   0  0  0  0  0  0  0  0  0  0  0  0
    0.5371    0.4004   -0.0449 C   0  0  0  0  0  0  0  0  0  0  0  0
   -1.4844    1.0302   -0.3209 C   0  0  0  0  0  0  0  0  0  0  0  0
    1.9766    0.3392    0.0307 C   0  0  0  0  0  0  0  0  0  0  0  0
   -2.7621   -0.9801    0.2659 C   0  0  0  0  0  0  0  0  0  0  0  0
   -3.9348   -0.2671   -0.0039 C   0  0  0  0  0  0  0  0  0  0  0  0
   -2.6725    1.7312   -0.5877 C   0  0  0  0  0  0  0  0  0  0  0  0
   -3.8931    1.0645   -0.4234 C   0  0  0  0  0  0  0  0  0  0  0  0
    2.7285    1.4766    0.3300 C   0  0  0  0  0  0  0  0  0  0  0  0
    2.6196   -0.8781   -0.1995 C   0  0  0  0  0  0  0  0  0  0  0  0
    4.0106   -0.9579   -0.1304 C   0  0  0  0  0  0  0  0  0  0  0  0
    4.1194    1.3966    0.3991 C   0  0  0  0  0  0  0  0  0  0  0  0
   -5.2148   -0.9236    0.1556 C   0  0  0  0  0  0  0  0  0  0  0  0
    4.7604    0.1794    0.1687 C   0  0  0  0  0  0  0  0  0  0  0  0
    6.0603   -2.1565   -0.2632 C   0  0  0  0  0  0  0  0  0  0  0  0
  1 15  1  0
  2 17  1  0
  2 21  1  0
  3  7  1  0
  3  8  1  0
  4  8  2  0
  4  9  1  0
  5 19  2  0
  6 19  1  0
  7  9  2  0
  7 11  1  0
  8 10  1  0
  9 13  1  0
 10 15  2  0
 10 16  1  0
 11 12  2  0
 12 14  1  0
 12 19  1  0
 13 14  2  0
 15 18  1  0
 16 17  2  0
 17 20  1  0
 18 20  2  0
M  CHG  1   5   1
M  END
>  <PUBCHEM_COMPOUND_CID>  (1) 
1502

>  <PUBCHEM_CONFORMER_RMSD>  (1) 
0.6

>  <PUBCHEM_CONFORMER_DIVERSEORDER>  (1) 
1
4
7
3
6
5
8
2

>  <PUBCHEM_MMFF94_PARTIAL_CHARGES>  (1) 
33
1 -0.53
10 0.05
11 -0.15
12 -0.02
13 -0.15
14 -0.15
15 0.08
16 -0.15
17 0.08
18 -0.15
19 0.73
2 -0.36
20 -0.15
21 0.28
22 0.27
23 0.15
24 0.15
25 0.15
26 0.15
27 0.15
28 0.15
29 0.45
3 0.03
30 0.45
31 0.45
32 0.45
33 0.45
4 -0.57
5 -0.75
6 -0.75
7 -0.15
8 0.13
9 0.23

>  <PUBCHEM_EFFECTIVE_ROTOR_COUNT>  (1) 
3

>  <PUBCHEM_PHARMACOPHORE_FEATURES>  (1) 
10
1 1 donor
1 2 acceptor
1 3 donor
1 5 donor
1 6 donor
3 3 4 8 cation
3 5 6 19 cation
5 3 4 7 8 9 rings
6 10 15 16 17 18 20 rings
6 7 9 11 12 13 14 rings

>  <PUBCHEM_HEAVY_ATOM_COUNT>  (1) 
21

>  <PUBCHEM_ATOM_DEF_STEREO_COUNT>  (1) 
0

>  <PUBCHEM_ATOM_UDEF_STEREO_COUNT>  (1) 
0

>  <PUBCHEM_BOND_DEF_STEREO_COUNT>  (1) 
0

>  <PUBCHEM_BOND_UDEF_STEREO_COUNT>  (1) 
0

>  <PUBCHEM_ISOTOPIC_ATOM_COUNT>  (1) 
0

>  <PUBCHEM_COMPONENT_COUNT>  (1) 
1

>  <PUBCHEM_CACTVS_TAUTO_COUNT>  (1) 
26

>  <PUBCHEM_CONFORMER_ID>  (1) 
000005DE00000001

>  <PUBCHEM_MMFF94_ENERGY>  (1) 
65.1701

>  <PUBCHEM_FEATURE_SELFOVERLAP>  (1) 
50.901

>  <PUBCHEM_SHAPE_FINGERPRINT>  (1) 
10 15 18266165301509381896
10366900 7 17385726876424507488
11578080 2 16771810307592471762
12107183 9 17984151361509334217
12236239 1 17775567550653210867
12403259 226 18409725153596144156
12403259 415 18334004000015756349
12507560 40 18412539916348048100
12616971 3 17489581277211622421
12730499 353 18269278027227178600
12916754 54 18411421717560147401
13073987 5 18273496758437034384
13167823 11 18411697690425217415
13288520 33 18408605834084945151
13533116 47 18273495697479554056
13685833 64 18412826855145560426
13955234 65 18200589323937181608
14123256 34 18201164248333439390
14341114 176 18411985771082728377
14350574 20 18408324367513572246
14528608 73 10665233656869753360
14866123 147 17478897082675898184
15196674 1 18410011022387227852
15880784 105 18343024432365150539
15961568 22 17386287726593316988
17844677 252 18413113839874384353
1813 80 17240197754992125652
18222031 100 17167861971606128884
18335252 98 18261962967160328899
19141452 34 18342458196809298239
19784866 240 18271252633766524578
200 152 18060135431581110065
20028762 73 18131346423099257575
20645477 70 18341613694511615694
21065198 57 18411980273435009593
21065201 7 18113610166686895640
21150785 3 16298396768232743310
21267235 1 18409736140148367294
21279426 13 18337104549590907757
21682296 61 18271813367269330311
221357 26 18410009918649178580
221490 88 18410014351424465858
2215653 11 18408598158925652839
22393880 68 18114453457808795951
23402539 116 18336540616817728999
23522609 53 18122660259807071044
23559900 14 18335415807336915065
239999 70 18410012131190520602
2871803 45 18186516600897062674
3004659 81 18187367585149642766
335352 9 18337953386006392781
3421961 26 18342736308937022112
3545911 37 18341330080562070240
4073 2 18115029717897724491
4214541 1 18410292476142335581
465052 167 18272938219647069670
5104073 3 18343297029401711696
5281201 14 18335139791258428108
542803 24 14620797123528192448
59755656 215 18041275487667105067
7495541 125 18411702093030290532
77779 3 18410573985204516988
8863177 126 18410015472142567450
9709674 26 18335422425622990506

>  <PUBCHEM_SHAPE_MULTIPOLES>  (1) 
400.51
13.88
2.24
0.69
3.08
0.03
0.01
-7.71
-0.05
-1.48
-0.08
0.02
0.05
1.28

>  <PUBCHEM_SHAPE_SELFOVERLAP>  (1) 
891.296

>  <PUBCHEM_SHAPE_VOLUME>  (1) 
215.1

>  <PUBCHEM_COORDINATE_TYPE>  (1) 
2
5
10

$$$$
