15025
     RDKit          3D

 24 23  0  0  0  0  0  0  0  0999 V2000
    2.4572   -1.8807   -1.3227 P   0  0  0  0  0  0  0  0  0  0  0  0
    3.7226    1.5727    0.9240 P   0  0  0  0  0  0  0  0  0  0  0  0
   -3.7208    1.5731   -0.9247 P   0  0  0  0  0  0  0  0  0  0  0  0
   -2.4575   -1.8797    1.3225 P   0  0  0  0  0  0  0  0  0  0  0  0
    3.7715   -2.4098   -2.1055 O   0  0  0  0  0  0  0  0  0  0  0  0
    2.8438   -2.1301    0.2277 O   0  0  0  0  0  0  0  0  0  0  0  0
    4.0709    3.0900    1.3678 O   0  0  0  0  0  0  0  0  0  0  0  0
    3.1827    0.9157    2.3001 O   0  0  0  0  0  0  0  0  0  0  0  0
   -4.0664    3.0899   -1.3720 O   0  0  0  0  0  0  0  0  0  0  0  0
   -3.1801    0.9125   -2.2987 O   0  0  0  0  0  0  0  0  0  0  0  0
   -3.7666   -2.4095    2.1130 O   0  0  0  0  0  0  0  0  0  0  0  0
   -2.8538   -2.1280   -0.2256 O   0  0  0  0  0  0  0  0  0  0  0  0
    1.1789   -2.5255   -1.7684 O   0  0  0  0  0  0  0  0  0  0  0  0
    4.8655    0.8487    0.2776 O   0  0  0  0  0  0  0  0  0  0  0  0
   -4.8656    0.8519   -0.2783 O   0  0  0  0  0  0  0  0  0  0  0  0
   -1.1763   -2.5245    1.7595 O   0  0  0  0  0  0  0  0  0  0  0  0
    1.8245    0.4227   -0.3863 N   0  0  0  0  0  0  0  0  0  0  0  0
   -1.8327    0.4231    0.3860 N   0  0  0  0  0  0  0  0  0  0  0  0
    0.3907    0.4137   -0.6549 C   0  0  0  0  0  0  0  0  0  0  0  0
   -0.3900    0.4140    0.6561 C   0  0  0  0  0  0  0  0  0  0  0  0
    2.5716   -0.1106   -1.5317 C   0  0  0  0  0  0  0  0  0  0  0  0
    2.2516    1.7899   -0.0651 C   0  0  0  0  0  0  0  0  0  0  0  0
   -2.2508    1.7901    0.0660 C   0  0  0  0  0  0  0  0  0  0  0  0
   -2.5708   -0.1097    1.5334 C   0  0  0  0  0  0  0  0  0  0  0  0
  1  5  1  0
  1  6  1  0
  1 13  2  0
  1 21  1  0
  2  7  1  0
  2  8  1  0
  2 14  2  0
  2 22  1  0
  3  9  1  0
  3 10  1  0
  3 15  2  0
  3 23  1  0
  4 11  1  0
  4 12  1  0
  4 16  2  0
  4 24  1  0
 17 19  1  0
 17 21  1  0
 17 22  1  0
 18 20  1  0
 18 23  1  0
 18 24  1  0
 19 20  1  0
M  END
>  <PUBCHEM_COMPOUND_CID>  (1) 
15025

>  <PUBCHEM_CONFORMER_RMSD>  (1) 
1

>  <PUBCHEM_CONFORMER_DIVERSEORDER>  (1) 
1
3
9
4
5
2
11
7
10
8
12
6

>  <PUBCHEM_MMFF94_PARTIAL_CHARGES>  (1) 
32
1 1.24
10 -0.77
11 -0.77
12 -0.77
13 -0.7
14 -0.7
15 -0.7
16 -0.7
17 -0.81
18 -0.81
19 0.27
2 1.24
20 0.27
21 0.27
22 0.27
23 0.27
24 0.27
3 1.24
37 0.5
38 0.5
39 0.5
4 1.24
40 0.5
41 0.5
42 0.5
43 0.5
44 0.5
5 -0.77
6 -0.77
7 -0.77
8 -0.77
9 -0.77

>  <PUBCHEM_EFFECTIVE_ROTOR_COUNT>  (1) 
11

>  <PUBCHEM_PHARMACOPHORE_FEATURES>  (1) 
18
1 10 acceptor
1 11 acceptor
1 12 acceptor
1 13 acceptor
1 14 acceptor
1 15 acceptor
1 16 acceptor
1 17 cation
1 18 cation
1 5 acceptor
1 6 acceptor
1 7 acceptor
1 8 acceptor
1 9 acceptor
4 1 5 6 13 anion
4 2 7 8 14 anion
4 3 9 10 15 anion
4 4 11 12 16 anion

>  <PUBCHEM_HEAVY_ATOM_COUNT>  (1) 
24

>  <PUBCHEM_ATOM_DEF_STEREO_COUNT>  (1) 
0

>  <PUBCHEM_ATOM_UDEF_STEREO_COUNT>  (1) 
0

>  <PUBCHEM_BOND_DEF_STEREO_COUNT>  (1) 
0

>  <PUBCHEM_BOND_UDEF_STEREO_COUNT>  (1) 
0

>  <PUBCHEM_ISOTOPIC_ATOM_COUNT>  (1) 
0

>  <PUBCHEM_COMPONENT_COUNT>  (1) 
1

>  <PUBCHEM_CACTVS_TAUTO_COUNT>  (1) 
1

>  <PUBCHEM_CONFORMER_ID>  (1) 
00003AB100000001

>  <PUBCHEM_MMFF94_ENERGY>  (1) 
-74.9799

>  <PUBCHEM_FEATURE_SELFOVERLAP>  (1) 
91.516

>  <PUBCHEM_SHAPE_FINGERPRINT>  (1) 
10366900 7 18202283593771983088
12788726 201 17387713814553510139
13583140 156 18342173401532541832
14178342 30 17894630378626466514
14251757 17 18337393734286843019
15099037 37 18189333652909084185
17980427 23 17823692164988883500
18186145 218 18191870029035418701
18915476 22 18059583498461519510
20600515 1 17968089802983448660
20645477 56 18334016090543775793
20645477 70 18131352964544360724
20681651 13 17060335262459995847
20693207 138 18267048126818609703
22182313 1 18410584997511168015
22943178 12 18338529585253095488
23526113 38 18124604072084493486
23557571 272 18261116300325989381
23558518 356 18127139575842259681
23559900 14 18335713723332286572
238 59 17988924444559423710
3380486 145 18199478842983848427
469060 322 17840297049915900751
495365 180 18130214969983329344
6049 1 18267043737261630565
633830 44 18195231231902711309
7615 1 16009032829641205452
81228 2 17824002201898467257
9709674 26 18411421700269196623
9981440 41 18057299842701580304

>  <PUBCHEM_SHAPE_MULTIPOLES>  (1) 
428.91
9.3
3.5
2.17
0.01
0.71
0
-3.32
0
0
0
0
0.68
4.67

>  <PUBCHEM_SHAPE_SELFOVERLAP>  (1) 
776.211

>  <PUBCHEM_SHAPE_VOLUME>  (1) 
276.9

>  <PUBCHEM_COORDINATE_TYPE>  (1) 
2
5
10

$$$$
