15035
     RDKit          3D

 18 19  0  0  0  0  0  0  0  0999 V2000
   -6.5097    0.0012   -0.2224 O   0  0  0  0  0  0  0  0  0  0  0  0
    5.7319   -1.0973    0.2445 O   0  0  0  0  0  0  0  0  0  0  0  0
    5.7318    1.0979    0.2450 O   0  0  0  0  0  0  0  0  0  0  0  0
   -0.4288   -0.0005   -0.5846 N   0  0  0  0  0  0  0  0  0  0  0  0
   -1.0110   -0.0009    0.5255 N   0  0  0  0  0  0  0  0  0  0  0  0
    5.1291    0.0003    0.1639 N   0  0  0  0  0  0  0  0  0  0  0  0
    0.9571   -0.0003   -0.3980 C   0  0  0  0  0  0  0  0  0  0  0  0
    3.7219    0.0002   -0.0254 C   0  0  0  0  0  0  0  0  0  0  0  0
    1.6485   -1.2081   -0.3053 C   0  0  0  0  0  0  0  0  0  0  0  0
    1.6481    1.2078   -0.3044 C   0  0  0  0  0  0  0  0  0  0  0  0
   -2.4038   -0.0008    0.3374 C   0  0  0  0  0  0  0  0  0  0  0  0
    3.0308   -1.2079   -0.1188 C   0  0  0  0  0  0  0  0  0  0  0  0
    3.0304    1.2081   -0.1180 C   0  0  0  0  0  0  0  0  0  0  0  0
   -3.0884   -1.2083    0.2446 C   0  0  0  0  0  0  0  0  0  0  0  0
   -3.0873    1.2076    0.2436 C   0  0  0  0  0  0  0  0  0  0  0  0
   -5.1610    0.0005   -0.0387 C   0  0  0  0  0  0  0  0  0  0  0  0
   -4.4704   -1.2078    0.0560 C   0  0  0  0  0  0  0  0  0  0  0  0
   -4.4694    1.2082    0.0552 C   0  0  0  0  0  0  0  0  0  0  0  0
  1 16  1  0
  2  6  1  0
  3  6  2  0
  4  5  2  0
  4  7  1  0
  5 11  1  0
  6  8  1  0
  7  9  2  0
  7 10  1  0
  8 12  2  0
  8 13  1  0
  9 12  1  0
 10 13  2  0
 11 14  2  0
 11 15  1  0
 14 17  1  0
 15 18  2  0
 16 17  2  0
 16 18  1  0
M  CHG  2   2  -1   6   1
M  END
>  <PUBCHEM_COMPOUND_CID>  (1) 
15035

>  <PUBCHEM_CONFORMER_RMSD>  (1) 
0.6

>  <PUBCHEM_CONFORMER_DIVERSEORDER>  (1) 
1
2

>  <PUBCHEM_MMFF94_PARTIAL_CHARGES>  (1) 
27
1 -0.53
10 -0.15
11 0.18
12 -0.15
13 -0.15
14 -0.15
15 -0.15
16 0.08
17 -0.15
18 -0.15
19 0.15
2 -0.52
20 0.15
21 0.15
22 0.15
23 0.15
24 0.15
25 0.15
26 0.15
27 0.45
3 -0.52
4 -0.18
5 -0.18
6 0.91
7 0.18
8 0.13
9 -0.15

>  <PUBCHEM_EFFECTIVE_ROTOR_COUNT>  (1) 
3

>  <PUBCHEM_PHARMACOPHORE_FEATURES>  (1) 
6
1 1 donor
1 2 acceptor
1 2 anion
1 3 acceptor
6 11 14 15 16 17 18 rings
6 7 8 9 10 12 13 rings

>  <PUBCHEM_HEAVY_ATOM_COUNT>  (1) 
18

>  <PUBCHEM_ATOM_DEF_STEREO_COUNT>  (1) 
0

>  <PUBCHEM_ATOM_UDEF_STEREO_COUNT>  (1) 
0

>  <PUBCHEM_BOND_DEF_STEREO_COUNT>  (1) 
0

>  <PUBCHEM_BOND_UDEF_STEREO_COUNT>  (1) 
0

>  <PUBCHEM_ISOTOPIC_ATOM_COUNT>  (1) 
0

>  <PUBCHEM_COMPONENT_COUNT>  (1) 
1

>  <PUBCHEM_CACTVS_TAUTO_COUNT>  (1) 
3

>  <PUBCHEM_CONFORMER_ID>  (1) 
00003ABB00000001

>  <PUBCHEM_MMFF94_ENERGY>  (1) 
52.1111

>  <PUBCHEM_FEATURE_SELFOVERLAP>  (1) 
30.528

>  <PUBCHEM_SHAPE_FINGERPRINT>  (1) 
10 15 18270671070026320712
10366900 7 15482671273466233199
10968037 39 18413670227882246199
11315181 36 18411422825682704905
11401426 45 18260267451647841459
12107183 9 17689717454600981345
12236239 1 18060137639162580262
12507557 5 18343303686421834273
12815109 37 18260547827002161047
13167823 11 18409729573359779451
13533116 47 17060060294068978086
14341114 176 18410580582395304186
15788980 27 18260834808063648211
17834072 33 18412263956219796980
17834076 25 18202282498444078267
19489759 90 18411699881280362785
200 152 18202845452808478961
20279233 1 18261403242838142531
20645477 70 18200316511271424150
21267235 1 18410583880845914847
21709351 56 18408317808792602077
22224240 67 18342730845854913018
23402539 116 18411132554829003069
23536379 177 18409166597435841201
23559900 14 18339073904145107577
26918003 58 18409450301822383723
300161 21 18334852810117559523
34797466 226 17417820568889000580
351380 180 18408886252061896505
3545911 37 18411420609511033549
4073 2 17968383441428341258
42 15 18407762538251151053
4214541 1 18409731742576609845
42630746 31 18060142016446743062
42788 4 18410856555350103520
5104073 3 18410578408967838400
542803 24 16917353627695629641
59755656 215 18335985281076822254
67856867 119 18264209282359182749
7495541 125 17274818116375920587
77779 3 18410578387899098469
9709674 26 18411429410021050543
9971528 1 17749390394798893252

>  <PUBCHEM_SHAPE_MULTIPOLES>  (1) 
337.88
14.46
1.4
0.66
0.3
0
0.01
0
-0.77
-0.16
-0.01
0.04
0
0

>  <PUBCHEM_SHAPE_SELFOVERLAP>  (1) 
730.794

>  <PUBCHEM_SHAPE_VOLUME>  (1) 
185.6

>  <PUBCHEM_COORDINATE_TYPE>  (1) 
2
5
10

$$$$
