15031
     RDKit          3D

 16 16  0  0  1  0  0  0  0  0999 V2000
   -0.1038    0.3935   -2.5372 Cl  0  0  0  0  0  0  0  0  0  0  0  0
    1.3461   -1.6378    1.0102 S   0  0  0  0  0  0  0  0  0  0  0  0
   -2.8466   -2.3251   -0.9316 O   0  0  0  0  0  0  0  0  0  0  0  0
   -3.2674   -0.5565    0.3133 O   0  0  0  0  0  0  0  0  0  0  0  0
   -2.5855   -1.5445   -0.0024 N   0  0  0  0  0  0  0  0  0  0  0  0
    4.8923   -0.4066   -0.5069 N   0  0  0  0  0  0  0  0  0  0  0  0
   -0.1951   -1.0718    0.1735 C   0  0  0  0  0  0  0  0  0  0  0  0
   -0.2936    0.4195    0.1813 C   0  0  0  0  0  0  0  0  0  0  0  0
   -1.3807   -1.8234    0.8060 C   0  0  0  0  0  0  0  0  0  0  0  0
    2.5221   -0.8029   -0.0728 C   0  0  0  0  0  0  0  0  0  0  0  0
   -0.2607    1.1615   -0.9995 C   0  0  0  0  0  0  0  0  0  0  0  0
   -0.4214    1.0686    1.4094 C   0  0  0  0  0  0  0  0  0  0  0  0
    3.9499   -1.0874    0.3762 C   0  0  0  0  0  0  0  0  0  0  0  0
   -0.3558    2.5524   -0.9520 C   0  0  0  0  0  0  0  0  0  0  0  0
   -0.5163    2.4594    1.4566 C   0  0  0  0  0  0  0  0  0  0  0  0
   -0.4835    3.2013    0.2761 C   0  0  0  0  0  0  0  0  0  0  0  0
  1 11  1  0
  2  7  1  0
  2 10  1  0
  3  5  1  0
  4  5  2  0
  5  9  1  0
  6 13  1  0
  7  8  1  0
  7  9  1  0
  8 11  2  0
  8 12  1  0
 10 13  1  0
 11 14  1  0
 12 15  2  0
 14 16  2  0
 15 16  1  0
M  CHG  2   3  -1   5   1
M  END
>  <PUBCHEM_COMPOUND_CID>  (1) 
15031

>  <PUBCHEM_CONFORMER_RMSD>  (1) 
0.8

>  <PUBCHEM_CONFORMER_DIVERSEORDER>  (1) 
1
22
31
16
23
3
30
21
4
29
7
6
25
18
26
14
20
2
27
24
28
17
5
10
8
12
9
13
15
11
19

>  <PUBCHEM_MMFF94_PARTIAL_CHARGES>  (1) 
22
1 -0.18
10 0.23
11 0.18
12 -0.15
13 0.27
14 -0.15
15 -0.15
16 -0.15
2 -0.46
22 0.15
25 0.15
26 0.15
27 0.15
28 0.36
29 0.36
3 -0.52
4 -0.52
5 0.8
6 -0.99
7 0.37
8 -0.14
9 0.24

>  <PUBCHEM_EFFECTIVE_ROTOR_COUNT>  (1) 
6

>  <PUBCHEM_PHARMACOPHORE_FEATURES>  (1) 
6
1 3 acceptor
1 3 anion
1 4 acceptor
1 6 cation
1 6 donor
6 8 11 12 14 15 16 rings

>  <PUBCHEM_HEAVY_ATOM_COUNT>  (1) 
16

>  <PUBCHEM_ATOM_DEF_STEREO_COUNT>  (1) 
0

>  <PUBCHEM_ATOM_UDEF_STEREO_COUNT>  (1) 
1

>  <PUBCHEM_BOND_DEF_STEREO_COUNT>  (1) 
0

>  <PUBCHEM_BOND_UDEF_STEREO_COUNT>  (1) 
0

>  <PUBCHEM_ISOTOPIC_ATOM_COUNT>  (1) 
0

>  <PUBCHEM_COMPONENT_COUNT>  (1) 
1

>  <PUBCHEM_CACTVS_TAUTO_COUNT>  (1) 
2

>  <PUBCHEM_CONFORMER_ID>  (1) 
00003AB700000001

>  <PUBCHEM_MMFF94_ENERGY>  (1) 
32.9911

>  <PUBCHEM_FEATURE_SELFOVERLAP>  (1) 
30.525

>  <PUBCHEM_SHAPE_FINGERPRINT>  (1) 
12173636 292 17979909420000869752
13027679 85 18409726279219914793
13132413 78 18411144657862454065
14142880 1 18042124246113535844
14614273 12 17969218928462990306
14817 1 13741655981343270580
16945 1 18191287304672258225
20645476 183 17620742895799849088
21041028 32 18264789799108191947
21339142 36 18339346522619535934
21524375 3 17613722518383102536
22112679 90 18124065461394091089
23402539 116 18411133650062163134
23419403 2 18123159519726798876
23557571 272 18341337712792879910
576247 118 18268406066549275971
7364860 26 17908139129094319651
81228 2 18264785284744278618

>  <PUBCHEM_SHAPE_MULTIPOLES>  (1) 
313.29
4.81
3.27
1.66
7.74
1.15
-0.79
-2.45
-0.28
-2.79
0.4
-0.39
0.57
-0.6

>  <PUBCHEM_SHAPE_SELFOVERLAP>  (1) 
611.706

>  <PUBCHEM_SHAPE_VOLUME>  (1) 
190.6

>  <PUBCHEM_COORDINATE_TYPE>  (1) 
2
5
10

$$$$
