15033
     RDKit          3D

  9  9  0  0  0  0  0  0  0  0999 V2000
    1.9885   -2.1598    0.0009 Br  0  0  0  0  0  0  0  0  0  0  0  0
    2.7612    1.1001   -0.0006 Cl  0  0  0  0  0  0  0  0  0  0  0  0
   -3.2679   -0.5028    0.0000 Cl  0  0  0  0  0  0  0  0  0  0  0  0
    0.7255   -0.7397   -0.0006 C   0  0  0  0  0  0  0  0  0  0  0  0
    1.1052    0.6026    0.0000 C   0  0  0  0  0  0  0  0  0  0  0  0
   -0.6269   -1.0818   -0.0007 C   0  0  0  0  0  0  0  0  0  0  0  0
   -1.5992   -0.0817   -0.0002 C   0  0  0  0  0  0  0  0  0  0  0  0
    0.1329    1.6027    0.0006 C   0  0  0  0  0  0  0  0  0  0  0  0
   -1.2193    1.2605    0.0004 C   0  0  0  0  0  0  0  0  0  0  0  0
  1  4  1  0
  2  5  1  0
  3  7  1  0
  4  5  2  0
  4  6  1  0
  5  8  1  0
  6  7  2  0
  7  9  1  0
  8  9  2  0
M  END
>  <PUBCHEM_COMPOUND_CID>  (1) 
15033

>  <PUBCHEM_CONFORMER_RMSD>  (1) 
0.4

>  <PUBCHEM_CONFORMER_DIVERSEORDER>  (1) 
1

>  <PUBCHEM_MMFF94_PARTIAL_CHARGES>  (1) 
12
1 -0.11
10 0.15
11 0.15
12 0.15
2 -0.18
3 -0.18
4 0.11
5 0.18
6 -0.15
7 0.18
8 -0.15
9 -0.15

>  <PUBCHEM_EFFECTIVE_ROTOR_COUNT>  (1) 
0

>  <PUBCHEM_PHARMACOPHORE_FEATURES>  (1) 
2
1 1 hydrophobe
6 4 5 6 7 8 9 rings

>  <PUBCHEM_HEAVY_ATOM_COUNT>  (1) 
9

>  <PUBCHEM_ATOM_DEF_STEREO_COUNT>  (1) 
0

>  <PUBCHEM_ATOM_UDEF_STEREO_COUNT>  (1) 
0

>  <PUBCHEM_BOND_DEF_STEREO_COUNT>  (1) 
0

>  <PUBCHEM_BOND_UDEF_STEREO_COUNT>  (1) 
0

>  <PUBCHEM_ISOTOPIC_ATOM_COUNT>  (1) 
0

>  <PUBCHEM_COMPONENT_COUNT>  (1) 
1

>  <PUBCHEM_CACTVS_TAUTO_COUNT>  (1) 
1

>  <PUBCHEM_CONFORMER_ID>  (1) 
00003AB900000001

>  <PUBCHEM_MMFF94_ENERGY>  (1) 
17.694

>  <PUBCHEM_FEATURE_SELFOVERLAP>  (1) 
10.148

>  <PUBCHEM_SHAPE_FINGERPRINT>  (1) 
12423570 1 8895444519326825337
14128692 85 18267309716249739846
161256 15 18410859815457147638
16945 1 18338799021510451909
19021347 11 18409729594834440558
193761 8 18194683665915196644
20645476 183 17462578517754169436
20645477 70 18411130317352112623
20871998 22 18198629821705856758
21040471 1 17690279734581942085
21501502 16 18339646611773458808
23235685 24 18336822121020583329
23402655 69 18340470202909372069
23552423 10 18262242101448389334
241688 4 18120093887997867384
2748010 2 18337668590397274949
29004967 10 18334299802950112161
5084963 1 18128531574573412403
528862 383 18335413578111718922
68250623 7 18268437836432861977

>  <PUBCHEM_SHAPE_MULTIPOLES>  (1) 
194.9
3.94
2.1
0.64
1.39
0.39
0
0.65
0
-1.3
0
-0.03
0.03
0

>  <PUBCHEM_SHAPE_SELFOVERLAP>  (1) 
371.781

>  <PUBCHEM_SHAPE_VOLUME>  (1) 
122.7

>  <PUBCHEM_COORDINATE_TYPE>  (1) 
2
5
10

$$$$
