15038
     RDKit          3D

 23 25  0  0  0  0  0  0  0  0999 V2000
   -0.1780   -0.0369    0.2542 P   0  0  0  0  0  0  0  0  0  0  0  0
    2.4671   -0.0603    1.9189 O   0  0  0  0  0  0  0  0  0  0  0  0
   -1.9221   -0.2988    0.1560 C   0  0  0  0  0  0  0  0  0  0  0  0
    0.8060   -1.3752   -0.3281 C   0  0  0  0  0  0  0  0  0  0  0  0
    0.3636    1.4813   -0.4664 C   0  0  0  0  0  0  0  0  0  0  0  0
    0.1396    0.1353    1.9808 C   0  0  0  0  0  0  0  0  0  0  0  0
   -2.4501   -1.1128   -0.8462 C   0  0  0  0  0  0  0  0  0  0  0  0
    1.1904   -1.4340   -1.6709 C   0  0  0  0  0  0  0  0  0  0  0  0
   -0.5627    2.3494   -1.0450 C   0  0  0  0  0  0  0  0  0  0  0  0
   -2.7713    0.3079    1.0814 C   0  0  0  0  0  0  0  0  0  0  0  0
    1.2087   -2.3859    0.5498 C   0  0  0  0  0  0  0  0  0  0  0  0
    1.7186    1.8138   -0.4568 C   0  0  0  0  0  0  0  0  0  0  0  0
    1.5060    0.3752    2.5317 C   0  0  0  0  0  0  0  0  0  0  0  0
   -3.8275   -1.3198   -0.9231 C   0  0  0  0  0  0  0  0  0  0  0  0
    1.9705   -2.4944   -2.1319 C   0  0  0  0  0  0  0  0  0  0  0  0
   -0.1344    3.5488   -1.6139 C   0  0  0  0  0  0  0  0  0  0  0  0
   -4.1487    0.1007    1.0044 C   0  0  0  0  0  0  0  0  0  0  0  0
    1.9890   -3.4463    0.0886 C   0  0  0  0  0  0  0  0  0  0  0  0
    2.1468    3.0134   -1.0255 C   0  0  0  0  0  0  0  0  0  0  0  0
   -4.6766   -0.7131    0.0021 C   0  0  0  0  0  0  0  0  0  0  0  0
    2.3699   -3.5004   -1.2522 C   0  0  0  0  0  0  0  0  0  0  0  0
    1.2202    3.8809   -1.6040 C   0  0  0  0  0  0  0  0  0  0  0  0
    1.5750    1.1716    3.7959 C   0  0  0  0  0  0  0  0  0  0  0  0
  1  3  1  0
  1  4  1  0
  1  5  1  0
  1  6  2  3
  2 13  2  0
  3  7  2  0
  3 10  1  0
  4  8  2  0
  4 11  1  0
  5  9  2  0
  5 12  1  0
  6 13  1  0
  7 14  1  0
  8 15  1  0
  9 16  1  0
 10 17  2  0
 11 18  2  0
 12 19  2  0
 13 23  1  0
 14 20  2  0
 15 21  2  0
 16 22  2  0
 17 20  1  0
 18 21  1  0
 19 22  1  0
M  END
>  <PUBCHEM_COMPOUND_CID>  (1) 
15038

>  <PUBCHEM_CONFORMER_RMSD>  (1) 
0.6

>  <PUBCHEM_CONFORMER_DIVERSEORDER>  (1) 
2
15
17
8
18
12
11
9
7
1
10
14
4
3
13
16
6
5

>  <PUBCHEM_MMFF94_PARTIAL_CHARGES>  (1) 
39
1 0.52
10 -0.15
11 -0.15
12 -0.15
13 0.51
14 -0.15
15 -0.15
16 -0.15
17 -0.15
18 -0.15
19 -0.15
2 -0.57
20 -0.15
21 -0.15
22 -0.15
23 0.06
24 0.06
25 0.15
26 0.15
27 0.15
28 0.15
29 0.15
3 -0.14
30 0.15
31 0.15
32 0.15
33 0.15
34 0.15
35 0.15
36 0.15
37 0.15
38 0.15
39 0.15
4 -0.14
5 -0.14
6 -0.17
7 -0.15
8 -0.15
9 -0.15

>  <PUBCHEM_EFFECTIVE_ROTOR_COUNT>  (1) 
4

>  <PUBCHEM_PHARMACOPHORE_FEATURES>  (1) 
4
1 2 acceptor
6 3 7 10 14 17 20 rings
6 4 8 11 15 18 21 rings
6 5 9 12 16 19 22 rings

>  <PUBCHEM_HEAVY_ATOM_COUNT>  (1) 
23

>  <PUBCHEM_ATOM_DEF_STEREO_COUNT>  (1) 
0

>  <PUBCHEM_ATOM_UDEF_STEREO_COUNT>  (1) 
0

>  <PUBCHEM_BOND_DEF_STEREO_COUNT>  (1) 
0

>  <PUBCHEM_BOND_UDEF_STEREO_COUNT>  (1) 
0

>  <PUBCHEM_ISOTOPIC_ATOM_COUNT>  (1) 
0

>  <PUBCHEM_COMPONENT_COUNT>  (1) 
1

>  <PUBCHEM_CACTVS_TAUTO_COUNT>  (1) 
2

>  <PUBCHEM_CONFORMER_ID>  (1) 
00003ABE00000002

>  <PUBCHEM_MMFF94_ENERGY>  (1) 
54.884

>  <PUBCHEM_FEATURE_SELFOVERLAP>  (1) 
20.297

>  <PUBCHEM_SHAPE_FINGERPRINT>  (1) 
107951 10 16519646163199347420
11421498 54 17841185386834085081
11578080 2 18055630616689375032
11833330 49 17828776031703128532
12553582 1 18120389669927957031
12714826 92 17765158267456241567
12788726 201 17321850563852088027
133893 2 18341625831946814767
13583140 156 17262973889897876442
13681431 1 18336554853995933621
13911987 19 17177494806332079574
14022347 108 17754163190276130117
14817 1 17104205565691019048
14863182 85 17986379212791435919
15238133 3 17025147420465057677
1813 80 18265624186351885395
20600515 1 17386278783927463266
20602899 9 17264172756533774836
20691752 17 18261680259749758387
20905425 154 17749935735159839909
21524375 3 17320988967864311373
22149856 69 14996267117539613983
22907989 373 17187029500194498294
23352939 185 17982761617577144534
23419403 2 17770477760524391152
23559900 14 18341896299355167719
25222932 49 16091224872131421011
298252 57 17760379076957264876
3060560 45 18192993939839263989
3380486 145 17197097835766108654
4409770 3 17328589414821043479
484985 159 14573992902098703481
497634 4 16982120176016582870
5845 1 15165792370106687357
5895379 119 18337377246324936741
68419 9 16895645149231698328
81228 2 17829021253241162609

>  <PUBCHEM_SHAPE_MULTIPOLES>  (1) 
471.31
5.28
4.68
2.72
8.58
1.33
-2.79
-2.51
-0.04
-4.82
3.63
-2.11
0.98
0.26

>  <PUBCHEM_SHAPE_SELFOVERLAP>  (1) 
995.398

>  <PUBCHEM_SHAPE_VOLUME>  (1) 
261

>  <PUBCHEM_COORDINATE_TYPE>  (1) 
2
5
10

$$$$
