15043
     RDKit          3D

 22 23  0  0  0  0  0  0  0  0999 V2000
    5.0306    0.1606   -2.2018 Cl  0  0  0  0  0  0  0  0  0  0  0  0
    0.9541   -1.3754    2.3514 S   0  0  0  0  0  0  0  0  0  0  0  0
   -4.2895   -1.1710   -0.5826 N   0  0  0  0  0  0  0  0  0  0  0  0
   -1.9983   -0.7575   -1.3478 C   0  0  0  0  0  0  0  0  0  0  0  0
   -2.8817   -1.2881   -0.2196 C   0  0  0  0  0  0  0  0  0  0  0  0
    0.2341    0.0547   -0.3641 C   0  0  0  0  0  0  0  0  0  0  0  0
   -0.5386   -0.8631   -0.9866 C   0  0  0  0  0  0  0  0  0  0  0  0
    1.6609   -0.2904   -0.1299 C   0  0  0  0  0  0  0  0  0  0  0  0
   -0.3385    1.3548    0.0518 C   0  0  0  0  0  0  0  0  0  0  0  0
    2.0724   -0.9181    1.0285 C   0  0  0  0  0  0  0  0  0  0  0  0
    2.5490    0.0497   -1.1333 C   0  0  0  0  0  0  0  0  0  0  0  0
   -5.1435   -1.6508    0.5053 C   0  0  0  0  0  0  0  0  0  0  0  0
   -4.5678   -1.9145   -1.8124 C   0  0  0  0  0  0  0  0  0  0  0  0
   -0.3080    2.4160   -0.8333 C   0  0  0  0  0  0  0  0  0  0  0  0
   -0.8886    1.4737    1.3143 C   0  0  0  0  0  0  0  0  0  0  0  0
    3.4245   -1.2184    1.1922 C   0  0  0  0  0  0  0  0  0  0  0  0
    3.9013   -0.2507   -0.9696 C   0  0  0  0  0  0  0  0  0  0  0  0
    4.3391   -0.8846    0.1934 C   0  0  0  0  0  0  0  0  0  0  0  0
   -0.8473    3.6413   -0.4415 C   0  0  0  0  0  0  0  0  0  0  0  0
   -1.4278    2.6990    1.7061 C   0  0  0  0  0  0  0  0  0  0  0  0
   -1.4072    3.7828    0.8281 C   0  0  0  0  0  0  0  0  0  0  0  0
    0.4708   -3.0499    1.8512 C   0  0  0  0  0  0  0  0  0  0  0  0
  1 17  1  0
  2 10  1  0
  2 22  1  0
  3  5  1  0
  3 12  1  0
  3 13  1  0
  4  5  1  0
  4  7  1  0
  6  7  2  0
  6  8  1  0
  6  9  1  0
  8 10  2  0
  8 11  1  0
  9 14  2  0
  9 15  1  0
 10 16  1  0
 11 17  2  0
 14 19  1  0
 15 20  2  0
 16 18  2  0
 17 18  1  0
 19 21  2  0
 20 21  1  0
M  END
>  <PUBCHEM_COMPOUND_CID>  (1) 
15043

>  <PUBCHEM_CONFORMER_RMSD>  (1) 
0.8

>  <PUBCHEM_CONFORMER_DIVERSEORDER>  (1) 
5
19
12
6
17
13
16
10
11
14
15
9
18
8
7
3
4
1
2

>  <PUBCHEM_MMFF94_PARTIAL_CHARGES>  (1) 
31
1 -0.18
10 0.1
11 -0.15
12 0.27
13 0.27
14 -0.15
15 -0.15
16 -0.15
17 0.18
18 -0.15
19 -0.15
2 -0.33
20 -0.15
21 -0.15
22 0.23
27 0.15
28 0.15
3 -0.81
35 0.15
36 0.15
37 0.15
38 0.15
39 0.15
4 0.14
40 0.15
41 0.15
5 0.27
6 -0.06
7 -0.29
8 0.03
9 0.03

>  <PUBCHEM_EFFECTIVE_ROTOR_COUNT>  (1) 
6

>  <PUBCHEM_PHARMACOPHORE_FEATURES>  (1) 
4
1 22 hydrophobe
1 3 cation
6 8 10 11 16 17 18 rings
6 9 14 15 19 20 21 rings

>  <PUBCHEM_HEAVY_ATOM_COUNT>  (1) 
22

>  <PUBCHEM_ATOM_DEF_STEREO_COUNT>  (1) 
0

>  <PUBCHEM_ATOM_UDEF_STEREO_COUNT>  (1) 
0

>  <PUBCHEM_BOND_DEF_STEREO_COUNT>  (1) 
0

>  <PUBCHEM_BOND_UDEF_STEREO_COUNT>  (1) 
1

>  <PUBCHEM_ISOTOPIC_ATOM_COUNT>  (1) 
0

>  <PUBCHEM_COMPONENT_COUNT>  (1) 
1

>  <PUBCHEM_CACTVS_TAUTO_COUNT>  (1) 
1

>  <PUBCHEM_CONFORMER_ID>  (1) 
00003AC300000005

>  <PUBCHEM_MMFF94_ENERGY>  (1) 
70.4602

>  <PUBCHEM_FEATURE_SELFOVERLAP>  (1) 
20.297

>  <PUBCHEM_SHAPE_FINGERPRINT>  (1) 
10165383 225 17270629879065075736
11421498 54 18334572421789051043
12160290 23 17841409467820414541
12293681 160 18042131010744744016
12553582 1 18341044207412456135
12714826 92 17561083566723050558
12788726 201 18410017619636310154
13149001 5 17974007550493832275
133893 2 17475472503239544197
14178342 30 17974267851835603402
14955137 171 18129111189548860719
15842332 3 18043531603954155610
16752209 62 18197476464188680879
17357779 13 17774420734161016413
1813 80 18201996681086633207
18222031 100 18059004098947054327
20567600 347 11242236425862335161
20600515 1 17915726759932125451
21033648 29 16702291361538911203
21285901 2 17703241645312629735
21330990 113 17346329162930110703
21756936 100 17898323574788486972
23419403 2 13864637580965172154
23557571 272 18131625695479541200
23558518 356 18118687604178886698
23566358 27 17827086099691051658
266924 1 18116147779679012490
312423 11 18261679156349247542
314173 85 18131630110268071887
394222 165 16588010312974486890
6049 1 17131827630417388104
621550 5 17060062570464376530
70251023 43 18272101525684145310
7164475 11 18338795611696789854
81228 2 18341902861162661233
9981440 41 16193055724545349266

>  <PUBCHEM_SHAPE_MULTIPOLES>  (1) 
453.49
8.23
3.79
2.12
0.33
3.87
-0.29
-5.85
4.41
3.55
-1.52
-0.66
-0.67
-2.17

>  <PUBCHEM_SHAPE_SELFOVERLAP>  (1) 
925.84

>  <PUBCHEM_SHAPE_VOLUME>  (1) 
267.3

>  <PUBCHEM_COORDINATE_TYPE>  (1) 
2
5
10

$$$$
