15046
     RDKit          3D

 13 14  0  0  1  0  0  0  0  0999 V2000
    0.9136   -2.1129    0.8270 O   0  0  0  0  0  0  0  0  0  0  0  0
    0.6504    0.2520    0.3882 C   0  0  0  0  0  0  0  0  0  0  0  0
    1.3846   -1.0484    0.0009 C   0  0  0  0  0  0  0  0  0  0  0  0
    1.2482    1.4690   -0.3410 C   0  0  0  0  0  0  0  0  0  0  0  0
    2.8974   -0.9179    0.1974 C   0  0  0  0  0  0  0  0  0  0  0  0
    2.7559    1.5740   -0.1260 C   0  0  0  0  0  0  0  0  0  0  0  0
    3.4682    0.2894   -0.5348 C   0  0  0  0  0  0  0  0  0  0  0  0
   -0.8501    0.1635    0.1492 C   0  0  0  0  0  0  0  0  0  0  0  0
   -1.7269    0.8050    1.0187 C   0  0  0  0  0  0  0  0  0  0  0  0
   -1.3350   -0.5586   -0.9368 C   0  0  0  0  0  0  0  0  0  0  0  0
   -3.1022    0.7237    0.8000 C   0  0  0  0  0  0  0  0  0  0  0  0
   -2.7103   -0.6400   -1.1556 C   0  0  0  0  0  0  0  0  0  0  0  0
   -3.5938    0.0011   -0.2871 C   0  0  0  0  0  0  0  0  0  0  0  0
  1  3  1  0
  2  3  1  0
  2  4  1  0
  2  8  1  0
  3  5  1  0
  4  6  1  0
  5  7  1  0
  6  7  1  0
  8  9  2  0
  8 10  1  0
  9 11  1  0
 10 12  2  0
 11 13  2  0
 12 13  1  0
M  END
>  <PUBCHEM_COMPOUND_CID>  (1) 
15046

>  <PUBCHEM_CONFORMER_RMSD>  (1) 
0.6

>  <PUBCHEM_CONFORMER_DIVERSEORDER>  (1) 
1
9
11
6
10
2
4
7
3
5
8

>  <PUBCHEM_MMFF94_PARTIAL_CHARGES>  (1) 
15
1 -0.68
10 -0.15
11 -0.15
12 -0.15
13 -0.15
2 0.14
24 0.4
25 0.15
26 0.15
27 0.15
28 0.15
29 0.15
3 0.28
8 -0.14
9 -0.15

>  <PUBCHEM_EFFECTIVE_ROTOR_COUNT>  (1) 
2.2

>  <PUBCHEM_PHARMACOPHORE_FEATURES>  (1) 
4
1 1 acceptor
1 1 donor
6 2 3 4 5 6 7 rings
6 8 9 10 11 12 13 rings

>  <PUBCHEM_HEAVY_ATOM_COUNT>  (1) 
13

>  <PUBCHEM_ATOM_DEF_STEREO_COUNT>  (1) 
0

>  <PUBCHEM_ATOM_UDEF_STEREO_COUNT>  (1) 
2

>  <PUBCHEM_BOND_DEF_STEREO_COUNT>  (1) 
0

>  <PUBCHEM_BOND_UDEF_STEREO_COUNT>  (1) 
0

>  <PUBCHEM_ISOTOPIC_ATOM_COUNT>  (1) 
0

>  <PUBCHEM_COMPONENT_COUNT>  (1) 
1

>  <PUBCHEM_CACTVS_TAUTO_COUNT>  (1) 
1

>  <PUBCHEM_CONFORMER_ID>  (1) 
00003AC600000001

>  <PUBCHEM_MMFF94_ENERGY>  (1) 
28.5241

>  <PUBCHEM_FEATURE_SELFOVERLAP>  (1) 
20.297

>  <PUBCHEM_SHAPE_FINGERPRINT>  (1) 
10219947 1 18040436598664591300
10980938 120 18408888403977674752
11031198 65 18040722462950016604
11471102 20 18333729100390830436
11578080 2 17840829002700534777
12326174 3 17749940086029691362
12932764 1 18273211989062047897
13538477 17 18059849588960172135
13581323 91 17132112433481998381
14144814 61 18272933812551427761
14251717 144 18407755932697081198
14325111 11 18412547647188791592
14993402 34 18273215283190960389
15219456 202 17095240298048858435
15279307 12 18272087201615226919
15669948 3 17489582402777858021
15775835 57 18343308079972865788
16752209 62 17489290976805027735
16945 1 18334573525315596610
17844478 74 17530971258763231237
18175812 5 16950287329315144494
18186145 218 18408887356084769540
19422 9 18202003226522002439
20201158 50 17822011977813313370
20279233 1 16877941641972102737
20645464 45 16515683355788799433
20645476 183 18272083907775874007
20645477 70 18335694993154215847
21499 59 18262238944842592748
21639500 275 18262230127084992444
21730867 7 17967532376272722446
23236772 104 18272371983747929755
23402539 116 16558466401124055593
23402655 69 18411981338687203981
23463225 33 18130508526534297278
23552423 10 18341324535558688087
23559900 14 16486978363089179148
25 1 18260268546848632202
2748010 2 18046359779688737650
474 4 18195805395741591632
528886 8 18335420192440268288
53748568 43 18343865511109342847
57096353 35 18200871902118990085
63268167 104 18410572890045768352
77492 1 18201719548226919345
8030462 33 18130498704281545293
81228 2 12318646223143255506
9981440 41 17337293634530431360

>  <PUBCHEM_SHAPE_MULTIPOLES>  (1) 
261.66
5.95
1.54
1.01
0.61
0.16
-0.03
-0.59
-0.64
-0.86
0.19
0.44
0.1
-0.82

>  <PUBCHEM_SHAPE_SELFOVERLAP>  (1) 
544.932

>  <PUBCHEM_SHAPE_VOLUME>  (1) 
147.4

>  <PUBCHEM_COORDINATE_TYPE>  (1) 
2
5
10

$$$$
