15055
     RDKit          3D

 26 25  0  0  1  0  0  0  0  0999 V2000
    8.1913   -1.9767   -0.1532 S   0  0  0  0  0  0  0  0  0  0  0  0
   -8.7880   -1.3676    0.0961 S   0  0  0  0  0  0  0  0  0  0  0  0
    0.9121    1.2805    1.7213 O   0  0  0  0  0  0  0  0  0  0  0  0
   -0.8490    2.9268    0.1915 O   0  0  0  0  0  0  0  0  0  0  0  0
    2.0972    2.4970   -1.5482 O   0  0  0  0  0  0  0  0  0  0  0  0
   -1.0991   -0.6910   -0.3157 O   0  0  0  0  0  0  0  0  0  0  0  0
    7.3155   -0.6736    0.2944 O   0  0  0  0  0  0  0  0  0  0  0  0
   -7.5128   -0.4341   -0.3138 O   0  0  0  0  0  0  0  0  0  0  0  0
    7.6403   -3.1640    0.4678 O   0  0  0  0  0  0  0  0  0  0  0  0
    8.4630   -1.9091   -1.5747 O   0  0  0  0  0  0  0  0  0  0  0  0
   -8.6720   -2.6556   -0.5571 O   0  0  0  0  0  0  0  0  0  0  0  0
   -9.0355   -1.2471    1.5185 O   0  0  0  0  0  0  0  0  0  0  0  0
    4.0111    0.8976   -0.0932 N   0  0  0  0  0  0  0  0  0  0  0  0
   -3.8730   -0.1059    0.1227 N   0  0  0  0  0  0  0  0  0  0  0  0
    0.9834    1.3342    0.2986 C   0  0  0  0  0  0  0  0  0  0  0  0
   -0.4347    1.6329   -0.2428 C   0  0  0  0  0  0  0  0  0  0  0  0
    2.0232    2.3967   -0.1272 C   0  0  0  0  0  0  0  0  0  0  0  0
   -1.4908    0.5893    0.1853 C   0  0  0  0  0  0  0  0  0  0  0  0
    3.4466    2.1515    0.3972 C   0  0  0  0  0  0  0  0  0  0  0  0
   -2.9065    0.8855   -0.3291 C   0  0  0  0  0  0  0  0  0  0  0  0
    5.3787    0.7278    0.3750 C   0  0  0  0  0  0  0  0  0  0  0  0
   -5.2116    0.2173   -0.3525 C   0  0  0  0  0  0  0  0  0  0  0  0
    5.9780   -0.5575   -0.1730 C   0  0  0  0  0  0  0  0  0  0  0  0
   -6.2221   -0.7971    0.1587 C   0  0  0  0  0  0  0  0  0  0  0  0
    9.6751   -1.5363    0.7149 C   0  0  0  0  0  0  0  0  0  0  0  0
  -10.0204   -0.4215   -0.7616 C   0  0  0  0  0  0  0  0  0  0  0  0
  1  7  1  0
  1  9  2  0
  1 10  2  0
  1 25  1  0
  2  8  1  0
  2 11  2  0
  2 12  2  0
  2 26  1  0
  3 15  1  0
  4 16  1  0
  5 17  1  0
  6 18  1  0
  7 23  1  0
  8 24  1  0
 13 19  1  0
 13 21  1  0
 14 20  1  0
 14 22  1  0
 15 16  1  0
 15 17  1  0
 16 18  1  0
 17 19  1  0
 18 20  1  0
 21 23  1  0
 22 24  1  0
M  END
>  <PUBCHEM_COMPOUND_CID>  (1) 
15055

>  <PUBCHEM_CONFORMER_RMSD>  (1) 
1.6

>  <PUBCHEM_CONFORMER_DIVERSEORDER>  (1) 
1
55
48
54
46
4
11
16
36
12
10
31
13
24
40
8
44
67
21
26
38
17
3
60
18
62
25
39
45
43
59
56
57
7
61
19
20
15
34
47
58
5
65
32
28
42
37
63
6
29
22
52
64
53
33
50
66
2
9
51
30
14
23
49
41
27
35

>  <PUBCHEM_MMFF94_PARTIAL_CHARGES>  (1) 
32
1 1.38
10 -0.65
11 -0.65
12 -0.65
13 -0.9
14 -0.9
15 0.28
16 0.28
17 0.28
18 0.28
19 0.27
2 1.38
20 0.27
21 0.27
22 0.27
23 0.28
24 0.28
25 0.11
26 0.11
3 -0.68
35 0.36
36 0.36
37 0.4
38 0.4
39 0.4
4 -0.68
40 0.4
5 -0.68
6 -0.68
7 -0.46
8 -0.46
9 -0.65

>  <PUBCHEM_EFFECTIVE_ROTOR_COUNT>  (1) 
15

>  <PUBCHEM_PHARMACOPHORE_FEATURES>  (1) 
16
1 10 acceptor
1 11 acceptor
1 12 acceptor
1 13 cation
1 13 donor
1 14 cation
1 14 donor
1 3 acceptor
1 3 donor
1 4 acceptor
1 4 donor
1 5 acceptor
1 5 donor
1 6 acceptor
1 6 donor
1 9 acceptor

>  <PUBCHEM_HEAVY_ATOM_COUNT>  (1) 
26

>  <PUBCHEM_ATOM_DEF_STEREO_COUNT>  (1) 
0

>  <PUBCHEM_ATOM_UDEF_STEREO_COUNT>  (1) 
4

>  <PUBCHEM_BOND_DEF_STEREO_COUNT>  (1) 
0

>  <PUBCHEM_BOND_UDEF_STEREO_COUNT>  (1) 
0

>  <PUBCHEM_ISOTOPIC_ATOM_COUNT>  (1) 
0

>  <PUBCHEM_COMPONENT_COUNT>  (1) 
1

>  <PUBCHEM_CACTVS_TAUTO_COUNT>  (1) 
1

>  <PUBCHEM_CONFORMER_ID>  (1) 
00003ACF00000001

>  <PUBCHEM_MMFF94_ENERGY>  (1) 
27.8709

>  <PUBCHEM_FEATURE_SELFOVERLAP>  (1) 
81.249

>  <PUBCHEM_SHAPE_FINGERPRINT>  (1) 
10066227 49 18408885148709189859
10411042 1 18410573977005713040
10666366 153 18259979367080596133
11463208 3 18261114132460197731
12539745 222 17846502491569232329
12592606 108 18410292510253998307
14026016 60 15936958632378135354
14202775 3 18335986484855120971
14216079 64 18411418402135343718
14428016 248 12324233946305547023
15690457 1 18343017796355626758
15706992 2 10159694733220852624
1754911 235 12179846104081987283
1818759 1 18411703187935922567
20165401 70 18342172305946954374
2026 5 18337388245308861926
20771845 65 18413670223751907200
21130990 3 18058737901897314686
21130991 4 18114455653608587154
21150785 3 13551463779432756129
21267235 1 18409166610299962176
21304304 249 18411703188378930726
21792961 116 18411975846537160989
22224240 67 11815906669505807293
23569917 315 18335989778836548203
246663 6 18334295379392214537
2835820 83 18339643327121314974
28498 318 18408038533551419909
33532 11 18412543236652868087
3711267 37 8069749641358188535
445580 126 10735875071779209370
54039377 194 18409167705489865877
636775 72 9943535115936964951
6438161 24 18410854373759905404

>  <PUBCHEM_SHAPE_MULTIPOLES>  (1) 
474.11
36.87
3.01
1
21.83
0.05
-0.02
-40.35
0.65
-4.11
0.18
-0.2
0
0.36

>  <PUBCHEM_SHAPE_SELFOVERLAP>  (1) 
879.377

>  <PUBCHEM_SHAPE_VOLUME>  (1) 
298.3

>  <PUBCHEM_COORDINATE_TYPE>  (1) 
2
5
10

$$$$
