15062
     RDKit          3D

 14 13  0  0  0  0  0  0  0  0999 V2000
    3.1401   -0.6374    1.2148 O   0  0  0  0  0  0  0  0  0  0  0  0
   -2.1690    0.9384    0.9871 O   0  0  0  0  0  0  0  0  0  0  0  0
    3.7730    1.6842   -0.2526 N   0  0  0  0  0  0  0  0  0  0  0  0
   -4.6479    0.7406   -0.3370 N   0  0  0  0  0  0  0  0  0  0  0  0
    4.2541    2.5419    0.2019 N   0  0  0  0  0  0  0  0  0  0  0  0
   -5.3468    1.5673   -0.3794 N   0  0  0  0  0  0  0  0  0  0  0  0
    0.8234   -2.1087   -0.0658 C   0  0  0  0  0  0  0  0  0  0  0  0
   -0.2007   -0.9785   -0.2125 C   0  0  0  0  0  0  0  0  0  0  0  0
    2.1798   -1.7790   -0.7006 C   0  0  0  0  0  0  0  0  0  0  0  0
   -1.5263   -1.3429    0.4636 C   0  0  0  0  0  0  0  0  0  0  0  0
    2.8356   -0.5524   -0.1297 C   0  0  0  0  0  0  0  0  0  0  0  0
   -2.5346   -0.2339    0.3543 C   0  0  0  0  0  0  0  0  0  0  0  0
    3.1268    0.5308   -0.8639 C   0  0  0  0  0  0  0  0  0  0  0  0
   -3.7076   -0.3703   -0.2802 C   0  0  0  0  0  0  0  0  0  0  0  0
  1 11  1  0
  2 12  1  0
  3  5  3  0
  3 13  1  0
  4  6  3  0
  4 14  1  0
  7  8  1  0
  7  9  1  0
  8 10  1  0
  9 11  1  0
 10 12  1  0
 11 13  2  0
 12 14  2  0
M  CHG  2   3   1   4   1
M  END
>  <PUBCHEM_COMPOUND_CID>  (1) 
15062

>  <PUBCHEM_CONFORMER_RMSD>  (1) 
0.6

>  <PUBCHEM_CONFORMER_DIVERSEORDER>  (1) 
3
8
100
61
102
59
105
73
81
7
14
77
106
31
80
60
1
72
46
107
44
84
55
91
42
33
85
79
15
86
16
104
62
19
93
88
41
67
4
30
53
29
11
89
27
101
66
50
92
18
74
40
69
58
64
13
99
70
96
23
71
57
47
21
39
65
38
87
45
108
98
75
68
56
103
6
82
95
94
52
34
20
17
97
51
54
90
32
25
37
12
83
63
76
43
10
5
49
2
24
9
48
36
35
78
28
26
22

>  <PUBCHEM_MMFF94_PARTIAL_CHARGES>  (1) 
16
1 -0.53
10 0.14
11 -0.06
12 -0.06
13 -0.02
14 -0.02
2 -0.53
23 0.15
24 0.15
25 0.45
26 0.45
3 1.36
4 1.36
5 -0.49
6 -0.49
9 0.14

>  <PUBCHEM_EFFECTIVE_ROTOR_COUNT>  (1) 
5

>  <PUBCHEM_PHARMACOPHORE_FEATURES>  (1) 
3
1 1 donor
1 2 donor
4 7 8 9 10 hydrophobe

>  <PUBCHEM_HEAVY_ATOM_COUNT>  (1) 
14

>  <PUBCHEM_ATOM_DEF_STEREO_COUNT>  (1) 
0

>  <PUBCHEM_ATOM_UDEF_STEREO_COUNT>  (1) 
0

>  <PUBCHEM_BOND_DEF_STEREO_COUNT>  (1) 
0

>  <PUBCHEM_BOND_UDEF_STEREO_COUNT>  (1) 
2

>  <PUBCHEM_ISOTOPIC_ATOM_COUNT>  (1) 
0

>  <PUBCHEM_COMPONENT_COUNT>  (1) 
1

>  <PUBCHEM_CACTVS_TAUTO_COUNT>  (1) 
6

>  <PUBCHEM_CONFORMER_ID>  (1) 
00003AD600000003

>  <PUBCHEM_MMFF94_ENERGY>  (1) 
5.5701

>  <PUBCHEM_FEATURE_SELFOVERLAP>  (1) 
15.223

>  <PUBCHEM_SHAPE_FINGERPRINT>  (1) 
10498660 4 18271814569965284784
122479 349 18261678176548227178
14123255 52 18267868457382916540
1420 369 9079121054824556092
14251710 61 9655308024616862140
14251732 14 16414906582689877309
14251732 16 18409173229962592027
14252887 29 11891337534662110542
14774955 27 18408600391997605301
15477762 27 10519981565424000502
17834072 32 18410294747868642948
17959699 21 18340486639358894577
19782 4 18335418010406893372
20291156 8 9295024439799841244
20621476 13 18411421751825388372
20621476 91 17024618753103656705
20645477 56 18041285366329028871
20671657 1 18411708656009954974
20767249 462 18337675316616571822
212916 134 16443067175673951841
21354914 76 9295285040998116527
21713013 43 12391527364042537888
22926399 37 18272373074928111673
22959321 54 18412830178732660449
22959321 60 18041568026120542827
23402655 69 18130507453093160063
23559900 14 18339924788226576187
23590187 173 18342734100548417314
270888 7 18337953505970369996
43658 37 18342737455049711734
474 4 18410576162789820499
59345606 38 18339363084044999884
88748 71 10159437408687602548
94968 8 10447926170345680502

>  <PUBCHEM_SHAPE_MULTIPOLES>  (1) 
256.45
10.11
2.28
0.88
7.22
0.65
-0.09
7.53
1.01
-2.03
0.06
-0.26
-0.04
0.3

>  <PUBCHEM_SHAPE_SELFOVERLAP>  (1) 
488.591

>  <PUBCHEM_SHAPE_VOLUME>  (1) 
155

>  <PUBCHEM_COORDINATE_TYPE>  (1) 
2
5
10

$$$$
