15067
     RDKit          3D

  9 10  0  0  0  0  0  0  0  0999 V2000
    1.7759   -0.0001    0.0000 P   0  0  0  0  0  0  0  0  0  0  0  0
    1.0066   -1.0185    1.0051 O   0  0  0  0  0  0  0  0  0  0  0  0
    1.0066    1.3796    0.3796 O   0  0  0  0  0  0  0  0  0  0  0  0
    1.0067   -0.3611   -1.3846 O   0  0  0  0  0  0  0  0  0  0  0  0
   -0.9986    0.0000    0.0000 C   0  0  0  0  0  0  0  0  0  0  0  0
   -0.4249   -1.0164    1.0025 C   0  0  0  0  0  0  0  0  0  0  0  0
   -0.4249    1.3765    0.3788 C   0  0  0  0  0  0  0  0  0  0  0  0
   -0.4249   -0.3602   -1.3814 C   0  0  0  0  0  0  0  0  0  0  0  0
   -2.5224    0.0000    0.0000 C   0  0  0  0  0  0  0  0  0  0  0  0
  1  2  1  0
  1  3  1  0
  1  4  1  0
  2  6  1  0
  3  7  1  0
  4  8  1  0
  5  6  1  0
  5  7  1  0
  5  8  1  0
  5  9  1  0
M  END
>  <PUBCHEM_COMPOUND_CID>  (1) 
15067

>  <PUBCHEM_CONFORMER_RMSD>  (1) 
0.4

>  <PUBCHEM_CONFORMER_DIVERSEORDER>  (1) 
1

>  <PUBCHEM_MMFF94_PARTIAL_CHARGES>  (1) 
7
1 0.3
2 -0.38
3 -0.38
4 -0.38
6 0.28
7 0.28
8 0.28

>  <PUBCHEM_EFFECTIVE_ROTOR_COUNT>  (1) 
1.2

>  <PUBCHEM_PHARMACOPHORE_FEATURES>  (1) 
1
8 1 2 3 4 5 6 7 8 rings

>  <PUBCHEM_HEAVY_ATOM_COUNT>  (1) 
9

>  <PUBCHEM_ATOM_DEF_STEREO_COUNT>  (1) 
0

>  <PUBCHEM_ATOM_UDEF_STEREO_COUNT>  (1) 
0

>  <PUBCHEM_BOND_DEF_STEREO_COUNT>  (1) 
0

>  <PUBCHEM_BOND_UDEF_STEREO_COUNT>  (1) 
0

>  <PUBCHEM_ISOTOPIC_ATOM_COUNT>  (1) 
0

>  <PUBCHEM_COMPONENT_COUNT>  (1) 
1

>  <PUBCHEM_CACTVS_TAUTO_COUNT>  (1) 
1

>  <PUBCHEM_CONFORMER_ID>  (1) 
00003ADB00000001

>  <PUBCHEM_MMFF94_ENERGY>  (1) 
32.8327

>  <PUBCHEM_FEATURE_SELFOVERLAP>  (1) 
5.074

>  <PUBCHEM_SHAPE_FINGERPRINT>  (1) 
12423570 1 10687592165517066554
13024252 1 17967813847244492674
137420 1 8982053363689539688
16945 1 18343301478634278233
21040471 1 17676492795183096123
29004967 10 17989219143539880943
5084963 1 18272088313884831209
5943 1 15074237045957236195
68250623 7 17982726681928218607

>  <PUBCHEM_SHAPE_MULTIPOLES>  (1) 
171.46
2.25
1.23
1.23
0.74
0.38
0.24
0
0
-0.13
-0.24
-0.13
-0.38
0

>  <PUBCHEM_SHAPE_SELFOVERLAP>  (1) 
343.462

>  <PUBCHEM_SHAPE_VOLUME>  (1) 
104

>  <PUBCHEM_COORDINATE_TYPE>  (1) 
2
5
10

$$$$
