15064
     RDKit          3D

 15 15  0  0  0  0  0  0  0  0999 V2000
   -2.7776    3.9001    0.0345 Cl  0  0  0  0  0  0  0  0  0  0  0  0
   -3.5425   -3.3906   -0.1349 Cl  0  0  0  0  0  0  0  0  0  0  0  0
    4.0522   -0.5078    0.1217 O   0  0  0  0  0  0  0  0  0  0  0  0
   -1.4768    0.0769    0.0058 N   0  0  0  0  0  0  0  0  0  0  0  0
   -2.0751    1.3084   -0.4696 C   0  0  0  0  0  0  0  0  0  0  0  0
   -2.3381   -1.0060    0.4375 C   0  0  0  0  0  0  0  0  0  0  0  0
   -0.0745   -0.0710    0.0354 C   0  0  0  0  0  0  0  0  0  0  0  0
   -2.0539    2.3779    0.6111 C   0  0  0  0  0  0  0  0  0  0  0  0
   -2.4939   -2.0490   -0.6580 C   0  0  0  0  0  0  0  0  0  0  0  0
    0.7462    0.9716   -0.3947 C   0  0  0  0  0  0  0  0  0  0  0  0
    0.4915   -1.2606    0.4939 C   0  0  0  0  0  0  0  0  0  0  0  0
    2.1329    0.8246   -0.3663 C   0  0  0  0  0  0  0  0  0  0  0  0
    1.8784   -1.4076    0.5224 C   0  0  0  0  0  0  0  0  0  0  0  0
    2.6992   -0.3649    0.0923 C   0  0  0  0  0  0  0  0  0  0  0  0
    4.8321    0.5980   -0.3309 C   0  0  0  0  0  0  0  0  0  0  0  0
  1  8  1  0
  2  9  1  0
  3 14  1  0
  3 15  1  0
  4  5  1  0
  4  6  1  0
  4  7  1  0
  5  8  1  0
  6  9  1  0
  7 10  2  0
  7 11  1  0
 10 12  1  0
 11 13  2  0
 12 14  2  0
 13 14  1  0
M  END
>  <PUBCHEM_COMPOUND_CID>  (1) 
15064

>  <PUBCHEM_CONFORMER_RMSD>  (1) 
0.8

>  <PUBCHEM_CONFORMER_DIVERSEORDER>  (1) 
2
4
17
18
21
20
10
5
9
7
19
6
12
11
16
1
14
3
15
13
8

>  <PUBCHEM_MMFF94_PARTIAL_CHARGES>  (1) 
19
1 -0.29
10 -0.15
11 -0.15
12 -0.15
13 -0.15
14 0.08
15 0.28
2 -0.29
24 0.15
25 0.15
26 0.15
27 0.15
3 -0.36
4 -0.84
5 0.37
6 0.37
7 0.1
8 0.29
9 0.29

>  <PUBCHEM_EFFECTIVE_ROTOR_COUNT>  (1) 
6

>  <PUBCHEM_PHARMACOPHORE_FEATURES>  (1) 
3
1 3 acceptor
1 4 cation
6 7 10 11 12 13 14 rings

>  <PUBCHEM_HEAVY_ATOM_COUNT>  (1) 
15

>  <PUBCHEM_ATOM_DEF_STEREO_COUNT>  (1) 
0

>  <PUBCHEM_ATOM_UDEF_STEREO_COUNT>  (1) 
0

>  <PUBCHEM_BOND_DEF_STEREO_COUNT>  (1) 
0

>  <PUBCHEM_BOND_UDEF_STEREO_COUNT>  (1) 
0

>  <PUBCHEM_ISOTOPIC_ATOM_COUNT>  (1) 
0

>  <PUBCHEM_COMPONENT_COUNT>  (1) 
1

>  <PUBCHEM_CACTVS_TAUTO_COUNT>  (1) 
1

>  <PUBCHEM_CONFORMER_ID>  (1) 
00003AD800000002

>  <PUBCHEM_MMFF94_ENERGY>  (1) 
54.7228

>  <PUBCHEM_FEATURE_SELFOVERLAP>  (1) 
15.223

>  <PUBCHEM_SHAPE_FINGERPRINT>  (1) 
108231 29 17974850884750178027
11806522 49 18262797518287798782
12500047 106 18268986484367078136
12788726 201 18337096913671935395
14123255 52 18121782720636622528
14178342 30 18336812114094911298
16945 1 18411979143837180459
1741750 31 18197496225206875424
200 152 18189892187588964175
20510252 161 18341613754292745112
20645477 56 18270970037497654528
20671657 53 17981889949949463815
21339142 126 18410862079195140995
21339142 36 18338508772390179583
21426921 1 18411702092835072764
21501502 16 18261386694534989914
21524375 3 18045503006754477625
221490 88 17469042619259946083
23402539 116 18336260257852370998
23557571 272 18202850949992221044
23558518 356 18261399914170299666
2748010 2 17905624206841318389
3091708 16 9131033414557241585
474229 33 18266462006408475049
68521 5 18411981403385708015
7832392 63 18264770961239251732
81228 2 18408322198802962217

>  <PUBCHEM_SHAPE_MULTIPOLES>  (1) 
301.58
7.1
3.86
0.76
6.91
1.94
0
-1.19
-0.56
-7.11
0.04
-0.1
-0.02
-0.67

>  <PUBCHEM_SHAPE_SELFOVERLAP>  (1) 
586.146

>  <PUBCHEM_SHAPE_VOLUME>  (1) 
186.4

>  <PUBCHEM_COORDINATE_TYPE>  (1) 
2
5
10

$$$$
