15072
     RDKit          3D

  9 10  0  0  0  0  0  0  0  0999 V2000
    1.4162   -1.9770    0.2415 O   0  0  0  0  0  0  0  0  0  0  0  0
    0.1540   -1.6076   -0.2297 N   0  0  0  0  0  0  0  0  0  0  0  0
   -1.3459    0.2234   -0.5345 C   0  0  0  0  0  0  0  0  0  0  0  0
    0.9399    0.6026    0.5128 C   0  0  0  0  0  0  0  0  0  0  0  0
   -2.6076   -0.3689    0.0031 C   0  0  0  0  0  0  0  0  0  0  0  0
   -2.1705    0.9982    0.4411 C   0  0  0  0  0  0  0  0  0  0  0  0
    1.3503    1.8009   -0.2770 C   0  0  0  0  0  0  0  0  0  0  0  0
    2.3108    0.6658   -0.0746 C   0  0  0  0  0  0  0  0  0  0  0  0
   -0.0472   -0.3375   -0.0827 C   0  0  0  0  0  0  0  0  0  0  0  0
  1  2  1  0
  2  9  2  3
  3  5  1  0
  3  6  1  0
  3  9  1  0
  4  7  1  0
  4  8  1  0
  4  9  1  0
  5  6  1  0
  7  8  1  0
M  END
>  <PUBCHEM_COMPOUND_CID>  (1) 
15072

>  <PUBCHEM_CONFORMER_RMSD>  (1) 
0.6

>  <PUBCHEM_CONFORMER_DIVERSEORDER>  (1) 
1
8
5
9
6
10
3
7
4
2

>  <PUBCHEM_MMFF94_PARTIAL_CHARGES>  (1) 
20
1 -0.34
10 0.1
11 0.1
12 0.1
13 0.1
14 0.1
15 0.1
16 0.1
17 0.1
18 0.1
19 0.1
2 -0.51
20 0.4
3 -0.1
4 -0.1
5 -0.2
6 -0.2
7 -0.2
8 -0.2
9 0.45

>  <PUBCHEM_EFFECTIVE_ROTOR_COUNT>  (1) 
3.2

>  <PUBCHEM_PHARMACOPHORE_FEATURES>  (1) 
2
1 1 anion
1 2 acceptor

>  <PUBCHEM_HEAVY_ATOM_COUNT>  (1) 
9

>  <PUBCHEM_ATOM_DEF_STEREO_COUNT>  (1) 
0

>  <PUBCHEM_ATOM_UDEF_STEREO_COUNT>  (1) 
0

>  <PUBCHEM_BOND_DEF_STEREO_COUNT>  (1) 
0

>  <PUBCHEM_BOND_UDEF_STEREO_COUNT>  (1) 
0

>  <PUBCHEM_ISOTOPIC_ATOM_COUNT>  (1) 
0

>  <PUBCHEM_COMPONENT_COUNT>  (1) 
1

>  <PUBCHEM_CACTVS_TAUTO_COUNT>  (1) 
2

>  <PUBCHEM_CONFORMER_ID>  (1) 
00003AE000000001

>  <PUBCHEM_MMFF94_ENERGY>  (1) 
19.4297

>  <PUBCHEM_FEATURE_SELFOVERLAP>  (1) 
10.148

>  <PUBCHEM_SHAPE_FINGERPRINT>  (1) 
12897270 3 18338794619511878005
14325111 11 18339361980011739733
18185500 45 18272928285018266617
20653091 64 18338519616755444555
21028194 46 18261954166724944333
21040471 1 18268145546892225176
23235685 24 18338231677789811941
23552423 10 18410857646503898895
29004967 10 18262238798481232920
5084963 1 18201722911218168529
528862 383 18335412448461454122

>  <PUBCHEM_SHAPE_MULTIPOLES>  (1) 
174.37
3.3
1.77
0.7
0.99
0.63
0
-0.78
0.09
-0.76
0.02
0.05
-0.08
-0.21

>  <PUBCHEM_SHAPE_SELFOVERLAP>  (1) 
348.848

>  <PUBCHEM_SHAPE_VOLUME>  (1) 
105.2

>  <PUBCHEM_COORDINATE_TYPE>  (1) 
2
5
10

$$$$
