15084
     RDKit          3D

 17 18  0  0  1  0  0  0  0  0999 V2000
    0.4499    0.2786   -0.8597 O   0  0  0  0  0  0  0  0  0  0  0  0
    1.8632   -1.9770    0.2448 O   0  0  0  0  0  0  0  0  0  0  0  0
   -2.8116    0.2253    0.1438 N   0  0  0  0  0  0  0  0  0  0  0  0
   -0.2026   -0.9437   -0.4892 C   0  0  0  0  0  0  0  0  0  0  0  0
   -1.4271   -1.1031   -1.3784 C   0  0  0  0  0  0  0  0  0  0  0  0
   -2.3726    0.0870   -1.2397 C   0  0  0  0  0  0  0  0  0  0  0  0
    0.7603   -2.1116   -0.6572 C   0  0  0  0  0  0  0  0  0  0  0  0
   -3.5156   -0.9803    0.5842 C   0  0  0  0  0  0  0  0  0  0  0  0
   -3.6720    1.3999    0.2968 C   0  0  0  0  0  0  0  0  0  0  0  0
    1.7008    0.3824   -0.3105 C   0  0  0  0  0  0  0  0  0  0  0  0
    2.3811   -0.7087    0.2345 C   0  0  0  0  0  0  0  0  0  0  0  0
   -3.9210   -0.8767    2.0447 C   0  0  0  0  0  0  0  0  0  0  0  0
   -2.9608    2.6641   -0.1549 C   0  0  0  0  0  0  0  0  0  0  0  0
    2.2970    1.6436   -0.3210 C   0  0  0  0  0  0  0  0  0  0  0  0
    3.6398   -0.5310    0.8093 C   0  0  0  0  0  0  0  0  0  0  0  0
    3.5617    1.8179    0.2417 C   0  0  0  0  0  0  0  0  0  0  0  0
    4.2297    0.7333    0.8109 C   0  0  0  0  0  0  0  0  0  0  0  0
  1  4  1  0
  1 10  1  0
  2  7  1  0
  2 11  1  0
  3  6  1  0
  3  8  1  0
  3  9  1  0
  4  5  1  0
  4  7  1  0
  5  6  1  0
  8 12  1  0
  9 13  1  0
 10 11  2  0
 10 14  1  0
 11 15  1  0
 14 16  2  0
 15 17  2  0
 16 17  1  0
M  END
>  <PUBCHEM_COMPOUND_CID>  (1) 
15084

>  <PUBCHEM_CONFORMER_RMSD>  (1) 
0.8

>  <PUBCHEM_CONFORMER_DIVERSEORDER>  (1) 
2
18
38
33
6
30
35
19
34
25
15
31
37
29
21
32
36
1
14
17
22
27
9
23
26
7
28
3
13
16
4
5
20
10
8
24
11
12

>  <PUBCHEM_MMFF94_PARTIAL_CHARGES>  (1) 
18
1 -0.36
10 0.08
11 0.08
14 -0.15
15 -0.15
16 -0.15
17 -0.15
2 -0.36
3 -0.81
35 0.15
36 0.15
37 0.15
38 0.15
4 0.28
6 0.27
7 0.28
8 0.27
9 0.27

>  <PUBCHEM_EFFECTIVE_ROTOR_COUNT>  (1) 
5.8

>  <PUBCHEM_PHARMACOPHORE_FEATURES>  (1) 
5
1 1 acceptor
1 2 acceptor
1 3 cation
6 1 2 4 7 10 11 rings
6 10 11 14 15 16 17 rings

>  <PUBCHEM_HEAVY_ATOM_COUNT>  (1) 
17

>  <PUBCHEM_ATOM_DEF_STEREO_COUNT>  (1) 
0

>  <PUBCHEM_ATOM_UDEF_STEREO_COUNT>  (1) 
1

>  <PUBCHEM_BOND_DEF_STEREO_COUNT>  (1) 
0

>  <PUBCHEM_BOND_UDEF_STEREO_COUNT>  (1) 
0

>  <PUBCHEM_ISOTOPIC_ATOM_COUNT>  (1) 
0

>  <PUBCHEM_COMPONENT_COUNT>  (1) 
1

>  <PUBCHEM_CACTVS_TAUTO_COUNT>  (1) 
1

>  <PUBCHEM_CONFORMER_ID>  (1) 
00003AEC00000002

>  <PUBCHEM_MMFF94_ENERGY>  (1) 
42.2715

>  <PUBCHEM_FEATURE_SELFOVERLAP>  (1) 
25.413

>  <PUBCHEM_SHAPE_FINGERPRINT>  (1) 
10366900 7 18261683674237884315
10465860 228 18271524191668913198
10498660 4 14907909215346203003
11137873 295 9439405752644475839
11552529 35 17895475958929682083
12251169 10 18261109715982797655
12346177 29 13623789645201241743
12363563 72 14273738486229474983
12507560 40 18338803321062748655
12633257 1 17822848667607760705
12670546 177 10951754318252314378
12892183 10 18187081775785805864
13583140 156 17531791537281580458
13675066 3 18343862212759043274
13897977 13 18411984684840981453
14026960 21 18337396036178401197
14123260 362 16845575314043274209
14178342 30 17604158030095011867
14289901 80 18409726279135668507
15309172 13 18336536205269319454
15775835 57 17988640809103263137
18186145 218 17704080598633553054
200 152 18265599039819514663
201361 129 18412821365844793382
20157964 124 18196362629652432221
20261772 1 18342741861549059376
20871999 31 10447927261467918073
21065199 12 18334017168358540507
21069387 34 12396578593907728827
21524375 3 18059854025318855014
21713013 43 10015569611107479649
21864079 5 18341889727422078764
22646028 28 11602823475598549661
23503958 25 18339940233033870205
27216 239 18411697669498968137
2748010 2 17906145388559806230
4028521 119 13757809087535641475
49207404 50 18334584563318445410
9882013 296 17822577225669183387

>  <PUBCHEM_SHAPE_MULTIPOLES>  (1) 
333.13
8.3
2.31
1.28
0.39
0.72
-0.28
2.62
-3.59
0.38
0.17
1.12
-0.39
0.42

>  <PUBCHEM_SHAPE_SELFOVERLAP>  (1) 
685.535

>  <PUBCHEM_SHAPE_VOLUME>  (1) 
192.3

>  <PUBCHEM_COORDINATE_TYPE>  (1) 
2
5
10

$$$$
