15081
     RDKit          3D

 10 10  0  0  1  0  0  0  0  0999 V2000
    1.6872   -0.2448   -0.0621 O   0  0  0  0  0  0  0  0  0  0  0  0
   -3.1406   -0.0338    0.4134 O   0  0  0  0  0  0  0  0  0  0  0  0
   -1.1075    0.2761    0.0685 N   0  0  0  0  0  0  0  0  0  0  0  0
   -2.3298    0.4946   -0.3537 N   0  0  0  0  0  0  0  0  0  0  0  0
    1.2162    1.0370    0.3662 C   0  0  0  0  0  0  0  0  0  0  0  0
    0.7813   -1.2822    0.3269 C   0  0  0  0  0  0  0  0  0  0  0  0
   -0.1452    1.3342   -0.2743 C   0  0  0  0  0  0  0  0  0  0  0  0
   -0.5906   -1.0446   -0.3159 C   0  0  0  0  0  0  0  0  0  0  0  0
    2.2534    2.0733   -0.0451 C   0  0  0  0  0  0  0  0  0  0  0  0
    1.3755   -2.6097   -0.1240 C   0  0  0  0  0  0  0  0  0  0  0  0
  1  5  1  0
  1  6  1  0
  2  4  2  0
  3  4  1  0
  3  7  1  0
  3  8  1  0
  5  7  1  0
  5  9  1  0
  6  8  1  0
  6 10  1  0
M  END
>  <PUBCHEM_COMPOUND_CID>  (1) 
15081

>  <PUBCHEM_CONFORMER_RMSD>  (1) 
0.4

>  <PUBCHEM_CONFORMER_DIVERSEORDER>  (1) 
3
9
8
4
5
1
2
10
6
7

>  <PUBCHEM_MMFF94_PARTIAL_CHARGES>  (1) 
8
1 -0.56
2 -0.16
3 -0.36
4 -0.01
5 0.28
6 0.28
7 0.27
8 0.27

>  <PUBCHEM_EFFECTIVE_ROTOR_COUNT>  (1) 
2.2

>  <PUBCHEM_PHARMACOPHORE_FEATURES>  (1) 
2
1 1 acceptor
6 1 3 5 6 7 8 rings

>  <PUBCHEM_HEAVY_ATOM_COUNT>  (1) 
10

>  <PUBCHEM_ATOM_DEF_STEREO_COUNT>  (1) 
0

>  <PUBCHEM_ATOM_UDEF_STEREO_COUNT>  (1) 
2

>  <PUBCHEM_BOND_DEF_STEREO_COUNT>  (1) 
0

>  <PUBCHEM_BOND_UDEF_STEREO_COUNT>  (1) 
0

>  <PUBCHEM_ISOTOPIC_ATOM_COUNT>  (1) 
0

>  <PUBCHEM_COMPONENT_COUNT>  (1) 
1

>  <PUBCHEM_CACTVS_TAUTO_COUNT>  (1) 
1

>  <PUBCHEM_CONFORMER_ID>  (1) 
00003AE900000003

>  <PUBCHEM_MMFF94_ENERGY>  (1) 
17.8524

>  <PUBCHEM_FEATURE_SELFOVERLAP>  (1) 
10.148

>  <PUBCHEM_SHAPE_FINGERPRINT>  (1) 
1 1 18410574019738030028
161256 15 18336547101369143284
16945 1 18411415081508322006
193761 8 18050566244683362568
20645477 70 18410284788731235199
20711978 78 18340191991063047845
20871998 22 17982172214530282870
21040471 1 18122621923149805408
23235685 24 18265611163826420944
23552423 10 18411418380243658981
23552449 1 16826145049484050752
241688 4 17690279309517089898
2748010 2 18265336298999206974
29004967 10 18336544893908830003
528862 383 18335692849595925610

>  <PUBCHEM_SHAPE_MULTIPOLES>  (1) 
184.09
3.2
2.47
0.65
2.19
1.31
0
-1.3
0.2
-1.83
-0.13
0.01
0
0.03

>  <PUBCHEM_SHAPE_SELFOVERLAP>  (1) 
358.082

>  <PUBCHEM_SHAPE_VOLUME>  (1) 
112.5

>  <PUBCHEM_COORDINATE_TYPE>  (1) 
2
5
10

$$$$
