15091
     RDKit          3D

 10 10  0  0  0  0  0  0  0  0999 V2000
    2.9492    0.7623   -0.1513 O   0  0  0  0  0  0  0  0  0  0  0  0
    2.0471   -1.0586    0.8813 O   0  0  0  0  0  0  0  0  0  0  0  0
    0.6853    0.2940   -0.5975 C   0  0  0  0  0  0  0  0  0  0  0  0
   -0.0973   -0.9589   -1.0053 C   0  0  0  0  0  0  0  0  0  0  0  0
   -0.0679    1.3328    0.2388 C   0  0  0  0  0  0  0  0  0  0  0  0
   -1.0368   -1.5163    0.0636 C   0  0  0  0  0  0  0  0  0  0  0  0
   -1.5292    1.5435   -0.1485 C   0  0  0  0  0  0  0  0  0  0  0  0
   -2.4190   -0.8670    0.0363 C   0  0  0  0  0  0  0  0  0  0  0  0
   -2.4730    0.5671    0.5502 C   0  0  0  0  0  0  0  0  0  0  0  0
    1.9416   -0.0988    0.1324 C   0  0  0  0  0  0  0  0  0  0  0  0
  1 10  1  0
  2 10  2  0
  3  4  1  0
  3  5  1  0
  3 10  1  0
  4  6  1  0
  5  7  1  0
  6  8  1  0
  7  9  1  0
  8  9  1  0
M  END
>  <PUBCHEM_COMPOUND_CID>  (1) 
15091

>  <PUBCHEM_CONFORMER_RMSD>  (1) 
0.6

>  <PUBCHEM_CONFORMER_DIVERSEORDER>  (1) 
1
5
3
6
7
4
2

>  <PUBCHEM_MMFF94_PARTIAL_CHARGES>  (1) 
5
1 -0.65
10 0.66
2 -0.57
24 0.5
3 0.06

>  <PUBCHEM_EFFECTIVE_ROTOR_COUNT>  (1) 
2.4

>  <PUBCHEM_PHARMACOPHORE_FEATURES>  (1) 
4
1 1 acceptor
1 2 acceptor
3 1 2 10 anion
7 3 4 5 6 7 8 9 rings

>  <PUBCHEM_HEAVY_ATOM_COUNT>  (1) 
10

>  <PUBCHEM_ATOM_DEF_STEREO_COUNT>  (1) 
0

>  <PUBCHEM_ATOM_UDEF_STEREO_COUNT>  (1) 
0

>  <PUBCHEM_BOND_DEF_STEREO_COUNT>  (1) 
0

>  <PUBCHEM_BOND_UDEF_STEREO_COUNT>  (1) 
0

>  <PUBCHEM_ISOTOPIC_ATOM_COUNT>  (1) 
0

>  <PUBCHEM_COMPONENT_COUNT>  (1) 
1

>  <PUBCHEM_CACTVS_TAUTO_COUNT>  (1) 
1

>  <PUBCHEM_CONFORMER_ID>  (1) 
00003AF300000001

>  <PUBCHEM_MMFF94_ENERGY>  (1) 
14.0975

>  <PUBCHEM_FEATURE_SELFOVERLAP>  (1) 
20.353

>  <PUBCHEM_SHAPE_FINGERPRINT>  (1) 
10857977 72 18272646878713482065
12423570 1 17557163987784161150
15076042 46 18268144258401835186
15775835 57 18411144618938690721
16945 1 18335703879071909133
18185500 45 18192993948524137079
20645464 45 17346585400968880786
20653085 51 13614520774657439786
20871998 184 18129950095155659215
21040471 1 18197226845047701445
23235685 24 18059861623279388753
23552423 10 18045502173213973373
241688 4 16034931418248758051
2748010 2 18052270496501604357
29004967 10 16008748017622351982
369184 2 18261388927680301489
5084963 1 18059294232139716834
54338 74 18339068415034289823
75552 356 18410578426184564995

>  <PUBCHEM_SHAPE_MULTIPOLES>  (1) 
194.06
3.63
1.63
0.84
1
0.06
-0.05
0.19
0.61
-0.54
0
0.08
-0.13
-0.19

>  <PUBCHEM_SHAPE_SELFOVERLAP>  (1) 
378.288

>  <PUBCHEM_SHAPE_VOLUME>  (1) 
115.1

>  <PUBCHEM_COORDINATE_TYPE>  (1) 
2
5
10

$$$$
