15092
     RDKit          3D

 12 12  0  0  0  0  0  0  0  0999 V2000
   -0.5974    3.0990    0.2471 I   0  0  0  0  0  0  0  0  0  0  0  0
   -2.0242   -2.8445    0.2203 I   0  0  0  0  0  0  0  0  0  0  0  0
    3.6920   -1.2393   -0.2534 I   0  0  0  0  0  0  0  0  0  0  0  0
   -3.0171    0.5642   -0.9477 O   0  0  0  0  0  0  0  0  0  0  0  0
    2.3137    1.7190   -0.0513 N   0  0  0  0  0  0  0  0  0  0  0  0
   -0.9985    0.0587    0.2036 C   0  0  0  0  0  0  0  0  0  0  0  0
   -0.0256    1.0563    0.1421 C   0  0  0  0  0  0  0  0  0  0  0  0
    1.3196    0.7116    0.0119 C   0  0  0  0  0  0  0  0  0  0  0  0
   -0.6261   -1.2839    0.1350 C   0  0  0  0  0  0  0  0  0  0  0  0
   -2.4477    0.4183    0.3444 C   0  0  0  0  0  0  0  0  0  0  0  0
    1.6921   -0.6309   -0.0568 C   0  0  0  0  0  0  0  0  0  0  0  0
    0.7191   -1.6286    0.0047 C   0  0  0  0  0  0  0  0  0  0  0  0
  1  7  1  0
  2  9  1  0
  3 11  1  0
  4 10  1  0
  5  8  1  0
  6  7  2  0
  6  9  1  0
  6 10  1  0
  7  8  1  0
  8 11  2  0
  9 12  2  0
 11 12  1  0
M  END
>  <PUBCHEM_COMPOUND_CID>  (1) 
15092

>  <PUBCHEM_CONFORMER_RMSD>  (1) 
0.4

>  <PUBCHEM_CONFORMER_DIVERSEORDER>  (1) 
2
1

>  <PUBCHEM_MMFF94_PARTIAL_CHARGES>  (1) 
16
1 -0.08
10 0.42
11 0.08
12 -0.15
15 0.15
16 0.4
17 0.4
18 0.4
2 -0.08
3 -0.08
4 -0.68
5 -0.9
6 -0.14
7 0.08
8 0.1
9 0.08

>  <PUBCHEM_EFFECTIVE_ROTOR_COUNT>  (1) 
1

>  <PUBCHEM_PHARMACOPHORE_FEATURES>  (1) 
8
1 1 hydrophobe
1 2 hydrophobe
1 3 hydrophobe
1 4 acceptor
1 4 donor
1 5 cation
1 5 donor
6 6 7 8 9 11 12 rings

>  <PUBCHEM_HEAVY_ATOM_COUNT>  (1) 
12

>  <PUBCHEM_ATOM_DEF_STEREO_COUNT>  (1) 
0

>  <PUBCHEM_ATOM_UDEF_STEREO_COUNT>  (1) 
0

>  <PUBCHEM_BOND_DEF_STEREO_COUNT>  (1) 
0

>  <PUBCHEM_BOND_UDEF_STEREO_COUNT>  (1) 
0

>  <PUBCHEM_ISOTOPIC_ATOM_COUNT>  (1) 
0

>  <PUBCHEM_COMPONENT_COUNT>  (1) 
1

>  <PUBCHEM_CACTVS_TAUTO_COUNT>  (1) 
1

>  <PUBCHEM_CONFORMER_ID>  (1) 
00003AF400000002

>  <PUBCHEM_MMFF94_ENERGY>  (1) 
51.444

>  <PUBCHEM_FEATURE_SELFOVERLAP>  (1) 
40.596

>  <PUBCHEM_SHAPE_FINGERPRINT>  (1) 
10967382 1 18411139155624076562
11206711 2 18194124010338861308
11680986 33 18269268139536905163
12423570 1 15591571659498760133
13140716 1 18410858788981310082
14911166 2 18337953385452407254
16945 1 18338803303714204370
193761 8 18194684997307397322
20510252 161 18127690418572244424
20645477 70 17401479846089248759
21501502 16 18266466579620002962
2334 1 18266743678183190618
23402539 116 18270389478183347719
23526114 1 18267306606772512806
23552423 10 18189621707997296678
23559900 14 18341052931203112630
2748010 2 18340770467476354566
5084963 1 17987512619899724184
54173680 148 18410016537241559874
7364860 26 17836371823231913240

>  <PUBCHEM_SHAPE_MULTIPOLES>  (1) 
271.91
4.59
3.65
0.76
3.3
0.82
-0.03
-1.7
-0.6
-2
0.34
-0.18
0
0.17

>  <PUBCHEM_SHAPE_SELFOVERLAP>  (1) 
499.695

>  <PUBCHEM_SHAPE_VOLUME>  (1) 
180.6

>  <PUBCHEM_COORDINATE_TYPE>  (1) 
2
5
10

$$$$
