1509
     RDKit          3D

 19 21  0  0  0  0  0  0  0  0999 V2000
    2.3939    2.0524   -0.6925 O   0  0  0  0  0  0  0  0  0  0  0  0
    0.3082    0.6136    0.1984 N   0  0  0  0  0  0  0  0  0  0  0  0
    0.4597   -1.5546   -0.2660 N   0  0  0  0  0  0  0  0  0  0  0  0
    4.4908    1.2446   -0.1963 N   0  0  0  0  0  0  0  0  0  0  0  0
   -4.7718    1.9679    0.4358 N   0  0  0  0  0  0  0  0  0  0  0  0
   -5.7791   -0.0689   -0.0148 N   0  0  0  0  0  0  0  0  0  0  0  0
   -0.9852    0.1714    0.0892 C   0  0  0  0  0  0  0  0  0  0  0  0
   -0.8641   -1.1847   -0.2010 C   0  0  0  0  0  0  0  0  0  0  0  0
    1.1340   -0.4534   -0.0218 C   0  0  0  0  0  0  0  0  0  0  0  0
   -2.2133    0.8215    0.2154 C   0  0  0  0  0  0  0  0  0  0  0  0
    2.5415   -0.2173    0.0450 C   0  0  0  0  0  0  0  0  0  0  0  0
   -3.3601    0.0410    0.0352 C   0  0  0  0  0  0  0  0  0  0  0  0
   -2.0266   -1.9536   -0.3790 C   0  0  0  0  0  0  0  0  0  0  0  0
   -3.2707   -1.3220   -0.2568 C   0  0  0  0  0  0  0  0  0  0  0  0
    3.1133    1.1299   -0.3147 C   0  0  0  0  0  0  0  0  0  0  0  0
    3.3803   -1.1932    0.4378 C   0  0  0  0  0  0  0  0  0  0  0  0
   -4.6632    0.6593    0.1538 C   0  0  0  0  0  0  0  0  0  0  0  0
    4.8037   -0.9754    0.5228 C   0  0  0  0  0  0  0  0  0  0  0  0
    5.3087    0.2215    0.2094 C   0  0  0  0  0  0  0  0  0  0  0  0
  1 15  2  0
  2  7  1  0
  2  9  1  0
  3  8  1  0
  3  9  2  0
  4 15  1  0
  4 19  1  0
  5 17  2  0
  6 17  1  0
  7  8  2  0
  7 10  1  0
  8 13  1  0
  9 11  1  0
 10 12  2  0
 11 15  1  0
 11 16  2  0
 12 14  1  0
 12 17  1  0
 13 14  2  0
 16 18  1  0
 18 19  2  0
M  CHG  1   5   1
M  END
>  <PUBCHEM_COMPOUND_CID>  (1) 
1509

>  <PUBCHEM_CONFORMER_RMSD>  (1) 
0.6

>  <PUBCHEM_CONFORMER_DIVERSEORDER>  (1) 
1
5
4
3
6
2

>  <PUBCHEM_MMFF94_PARTIAL_CHARGES>  (1) 
31
1 -0.57
10 -0.15
11 0.06
12 -0.02
13 -0.15
14 -0.15
15 0.62
16 -0.15
17 0.73
18 -0.15
19 -0.04
2 0.03
20 0.27
21 0.15
22 0.15
23 0.15
24 0.15
25 0.37
26 0.15
27 0.15
28 0.45
29 0.45
3 -0.57
30 0.45
31 0.45
4 -0.54
5 -0.75
6 -0.75
7 -0.15
8 0.23
9 0.14

>  <PUBCHEM_EFFECTIVE_ROTOR_COUNT>  (1) 
2

>  <PUBCHEM_PHARMACOPHORE_FEATURES>  (1) 
10
1 1 acceptor
1 2 donor
1 4 donor
1 5 donor
1 6 donor
3 2 3 9 cation
3 5 6 17 cation
5 2 3 7 8 9 rings
6 4 11 15 16 18 19 rings
6 7 8 10 12 13 14 rings

>  <PUBCHEM_HEAVY_ATOM_COUNT>  (1) 
19

>  <PUBCHEM_ATOM_DEF_STEREO_COUNT>  (1) 
0

>  <PUBCHEM_ATOM_UDEF_STEREO_COUNT>  (1) 
0

>  <PUBCHEM_BOND_DEF_STEREO_COUNT>  (1) 
0

>  <PUBCHEM_BOND_UDEF_STEREO_COUNT>  (1) 
0

>  <PUBCHEM_ISOTOPIC_ATOM_COUNT>  (1) 
0

>  <PUBCHEM_COMPONENT_COUNT>  (1) 
1

>  <PUBCHEM_CACTVS_TAUTO_COUNT>  (1) 
26

>  <PUBCHEM_CONFORMER_ID>  (1) 
000005E500000001

>  <PUBCHEM_MMFF94_ENERGY>  (1) 
50.352

>  <PUBCHEM_FEATURE_SELFOVERLAP>  (1) 
50.901

>  <PUBCHEM_SHAPE_FINGERPRINT>  (1) 
10062212 137 18341888636289259143
10354089 29 18259987076314543056
10688039 33 17386003936217575348
11405975 8 18334012830241228482
12107183 9 17760363292872909322
12236239 1 18409446981506708826
12251169 10 18408039606828896758
12403814 3 18113614578166746597
13167823 11 18408601491514669946
13533116 47 17203329949524563630
13583140 156 17748832916818092081
13675066 3 17821732727782662095
13760787 19 18410574015564791094
13785724 45 17689996730877280826
14251764 18 18334008415589730906
15196674 1 18411136973923218862
1813 80 16877946005928044294
18186145 218 17531237396411708194
19050596 39 18335136518456230130
19784866 9 18411135805613201298
200 152 18273210919583393127
20279233 1 15985108526278516718
20645477 70 18411419467087234390
21033648 29 17023167354061923165
21267235 1 18410018731811410594
212847 35 18342455941634768392
23402539 116 18130780153404166861
23402655 69 18411136965744591678
23559900 14 18131632314071545744
300161 21 18341324561381083514
3004659 81 18410577258818766670
335352 9 18410292484879924702
34797466 226 16988566856827829796
3545911 37 18412827988647395102
4214541 1 18410292523249617903
4340502 62 17386013841013065835
474 4 17967818292245773060
5104073 3 18335980960566121682
542803 24 18411418405797178338
59755656 215 18200883872731050662
633830 44 17822008743945675426
77779 3 18409449219427412418
8272917 22 18409168771201508822
9709674 26 18411143571299661798
9981440 41 17326332628572017736

>  <PUBCHEM_SHAPE_MULTIPOLES>  (1) 
360.24
11.83
1.8
0.68
1
0.1
0
2.66
-1.14
0.31
0.16
-0.12
0.01
-0.86

>  <PUBCHEM_SHAPE_SELFOVERLAP>  (1) 
805.896

>  <PUBCHEM_SHAPE_VOLUME>  (1) 
191.3

>  <PUBCHEM_COORDINATE_TYPE>  (1) 
2
5
10

$$$$
