15093
     RDKit          3D

 14 15  0  0  1  0  0  0  0  0999 V2000
    1.1872    0.4055   -1.5210 O   0  0  0  0  0  0  0  0  0  0  0  0
    1.6504   -1.9210    1.0837 O   0  0  0  0  0  0  0  0  0  0  0  0
    1.5532   -2.1373   -1.1595 O   0  0  0  0  0  0  0  0  0  0  0  0
    1.4646    0.9308    0.7888 C   0  0  0  0  0  0  0  0  0  0  0  0
    2.8142    1.4398    0.4507 C   0  0  0  0  0  0  0  0  0  0  0  0
    1.6208    2.3469    0.3819 C   0  0  0  0  0  0  0  0  0  0  0  0
    0.7961   -0.0232   -0.1923 C   0  0  0  0  0  0  0  0  0  0  0  0
   -0.6891    0.0236   -0.0650 C   0  0  0  0  0  0  0  0  0  0  0  0
    1.3829   -1.4475   -0.1589 C   0  0  0  0  0  0  0  0  0  0  0  0
   -1.3083   -0.4952    1.0723 C   0  0  0  0  0  0  0  0  0  0  0  0
   -1.4593    0.5866   -1.0828 C   0  0  0  0  0  0  0  0  0  0  0  0
   -2.6973   -0.4513    1.1916 C   0  0  0  0  0  0  0  0  0  0  0  0
   -2.8482    0.6305   -0.9633 C   0  0  0  0  0  0  0  0  0  0  0  0
   -3.4673    0.1116    0.1740 C   0  0  0  0  0  0  0  0  0  0  0  0
  1  7  1  0
  2  9  1  0
  3  9  2  0
  4  5  1  0
  4  6  1  0
  4  7  1  0
  5  6  1  0
  7  8  1  0
  7  9  1  0
  8 10  2  0
  8 11  1  0
 10 12  1  0
 11 13  2  0
 12 14  2  0
 13 14  1  0
M  END
>  <PUBCHEM_COMPOUND_CID>  (1) 
15093

>  <PUBCHEM_CONFORMER_RMSD>  (1) 
0.6

>  <PUBCHEM_CONFORMER_DIVERSEORDER>  (1) 
1
13
14
7
3
12
9
8
5
2
4
11
6
10

>  <PUBCHEM_MMFF94_PARTIAL_CHARGES>  (1) 
26
1 -0.68
10 -0.15
11 -0.15
12 -0.15
13 -0.15
14 -0.15
15 0.1
16 0.1
17 0.1
18 0.1
19 0.1
2 -0.65
20 0.4
21 0.15
22 0.15
23 0.15
24 0.15
25 0.5
26 0.15
3 -0.57
4 -0.19
5 -0.2
6 -0.2
7 0.58
8 -0.14
9 0.66

>  <PUBCHEM_EFFECTIVE_ROTOR_COUNT>  (1) 
3.6

>  <PUBCHEM_PHARMACOPHORE_FEATURES>  (1) 
6
1 1 acceptor
1 1 donor
1 2 acceptor
1 3 acceptor
3 2 3 9 anion
6 8 10 11 12 13 14 rings

>  <PUBCHEM_HEAVY_ATOM_COUNT>  (1) 
14

>  <PUBCHEM_ATOM_DEF_STEREO_COUNT>  (1) 
0

>  <PUBCHEM_ATOM_UDEF_STEREO_COUNT>  (1) 
1

>  <PUBCHEM_BOND_DEF_STEREO_COUNT>  (1) 
0

>  <PUBCHEM_BOND_UDEF_STEREO_COUNT>  (1) 
0

>  <PUBCHEM_ISOTOPIC_ATOM_COUNT>  (1) 
0

>  <PUBCHEM_COMPONENT_COUNT>  (1) 
1

>  <PUBCHEM_CACTVS_TAUTO_COUNT>  (1) 
1

>  <PUBCHEM_CONFORMER_ID>  (1) 
00003AF500000001

>  <PUBCHEM_MMFF94_ENERGY>  (1) 
41.5034

>  <PUBCHEM_FEATURE_SELFOVERLAP>  (1) 
30.52

>  <PUBCHEM_SHAPE_FINGERPRINT>  (1) 
1 1 18340481274601590604
107287 299 18336554896782154253
10922049 32 18267308823139187240
11031198 65 18412829117944498565
12326174 3 18201725033047856022
12932764 1 18411429405767599175
13538477 17 16702014305703090311
13839132 238 17895460454282235813
13898156 1 16558743503617869365
14817 1 11826100387291825182
15219456 202 18259979370837395361
15775835 57 18198337544944132968
15852999 172 17823115956597506163
16945 1 18272375277845498720
18380122 1 18115593789111578465
19049666 15 18042678408458348329
20361792 2 17843407275794244791
20539784 86 18341345460486360721
20645464 45 18040427807061721737
20645476 183 17060335249754383629
20645477 70 18342167844219492071
20711985 344 17260472466125154154
20715346 28 18113903758309348859
21524375 3 18053094309694045008
21730867 7 18411138056212688547
21947302 44 18335410249580551905
23419403 2 17102515655285218742
2748010 2 17894351051687376047
430814 3 17916585495671922392
5084963 1 17677055625135798469
528862 383 18343578546995655234
528886 8 16056608706438918948
7364860 26 18343867692820873302
77492 1 17060619997026577497
81228 2 17313106346046124949
88987 49 16660360368557581839

>  <PUBCHEM_SHAPE_MULTIPOLES>  (1) 
270.51
4.52
1.93
1.29
2.62
0.42
-0.13
-1.13
0.51
-1.94
0.02
0.23
0.17
0.66

>  <PUBCHEM_SHAPE_SELFOVERLAP>  (1) 
575.299

>  <PUBCHEM_SHAPE_VOLUME>  (1) 
150.6

>  <PUBCHEM_COORDINATE_TYPE>  (1) 
2
5
10

$$$$
