15120
     RDKit          3D

 19 18  0  0  0  0  0  0  0  0999 V2000
    8.7019    0.5377   -0.2535 O   0  0  0  0  0  0  0  0  0  0  0  0
   -8.7024    0.5391   -0.1921 O   0  0  0  0  0  0  0  0  0  0  0  0
    7.5909   -1.4704   -0.0028 O   0  0  0  0  0  0  0  0  0  0  0  0
   -7.6198   -1.4943   -0.0742 O   0  0  0  0  0  0  0  0  0  0  0  0
    0.0047   -0.1959    0.3012 C   0  0  0  0  0  0  0  0  0  0  0  0
    1.2938    0.6245    0.1886 C   0  0  0  0  0  0  0  0  0  0  0  0
   -1.2639    0.6465    0.1447 C   0  0  0  0  0  0  0  0  0  0  0  0
    2.5634   -0.2258    0.2699 C   0  0  0  0  0  0  0  0  0  0  0  0
   -2.5515   -0.1825    0.1980 C   0  0  0  0  0  0  0  0  0  0  0  0
    3.8174    0.6318    0.0803 C   0  0  0  0  0  0  0  0  0  0  0  0
   -3.8223    0.6610    0.0680 C   0  0  0  0  0  0  0  0  0  0  0  0
    5.0867   -0.2240    0.1240 C   0  0  0  0  0  0  0  0  0  0  0  0
   -5.0737   -0.2240    0.0555 C   0  0  0  0  0  0  0  0  0  0  0  0
    6.3530    0.5997   -0.0913 C   0  0  0  0  0  0  0  0  0  0  0  0
   -6.3599    0.5862   -0.1060 C   0  0  0  0  0  0  0  0  0  0  0  0
    7.5990   -0.2507   -0.1081 C   0  0  0  0  0  0  0  0  0  0  0  0
   -7.6052   -0.2723   -0.1298 C   0  0  0  0  0  0  0  0  0  0  0  0
    9.9542   -0.1544   -0.2823 C   0  0  0  0  0  0  0  0  0  0  0  0
   -9.9662   -0.1323   -0.1901 C   0  0  0  0  0  0  0  0  0  0  0  0
  1 16  1  0
  1 18  1  0
  2 17  1  0
  2 19  1  0
  3 16  2  0
  4 17  2  0
  5  6  1  0
  5  7  1  0
  6  8  1  0
  7  9  1  0
  8 10  1  0
  9 11  1  0
 10 12  1  0
 11 13  1  0
 12 14  1  0
 13 15  1  0
 14 16  1  0
 15 17  1  0
M  END
>  <PUBCHEM_COMPOUND_CID>  (1) 
15120

>  <PUBCHEM_CONFORMER_RMSD>  (1) 
1.4

>  <PUBCHEM_CONFORMER_DIVERSEORDER>  (1) 
1
5
17
47
2
51
10
50
12
52
25
30
23
3
32
46
11
28
24
35
49
9
38
20
4
45
36
41
27
26
42
19
13
18
39
48
31
44
8
33
37
40
29
21
14
43
16
22
15
6
7
34

>  <PUBCHEM_MMFF94_PARTIAL_CHARGES>  (1) 
10
1 -0.43
14 0.06
15 0.06
16 0.66
17 0.66
18 0.28
19 0.28
2 -0.43
3 -0.57
4 -0.57

>  <PUBCHEM_EFFECTIVE_ROTOR_COUNT>  (1) 
14

>  <PUBCHEM_PHARMACOPHORE_FEATURES>  (1) 
2
1 3 acceptor
1 4 acceptor

>  <PUBCHEM_HEAVY_ATOM_COUNT>  (1) 
19

>  <PUBCHEM_ATOM_DEF_STEREO_COUNT>  (1) 
0

>  <PUBCHEM_ATOM_UDEF_STEREO_COUNT>  (1) 
0

>  <PUBCHEM_BOND_DEF_STEREO_COUNT>  (1) 
0

>  <PUBCHEM_BOND_UDEF_STEREO_COUNT>  (1) 
0

>  <PUBCHEM_ISOTOPIC_ATOM_COUNT>  (1) 
0

>  <PUBCHEM_COMPONENT_COUNT>  (1) 
1

>  <PUBCHEM_CACTVS_TAUTO_COUNT>  (1) 
1

>  <PUBCHEM_CONFORMER_ID>  (1) 
00003B1000000001

>  <PUBCHEM_MMFF94_ENERGY>  (1) 
9.8855

>  <PUBCHEM_FEATURE_SELFOVERLAP>  (1) 
10.149

>  <PUBCHEM_SHAPE_FINGERPRINT>  (1) 
11315181 36 18413110568185133753
11638347 137 13901914389113636124
13885169 127 18413108334295925689
14123256 10 18410573985151451141
14251764 18 16845576396158930138
14251764 46 18410575084663078935
14344974 52 15936699258247924756
15510794 2 18113341916157336227
155225 1 12612752414907765055
16120349 18 18113902697980526020
21095086 128 18413387635412412630
21150785 3 17821728333893935756
21315763 28 18412545409526979560
232437 2 18343582949964926567
23521765 1 18342175565826715969
23581129 1 18409449184756340233
246663 6 17346600776772517160
249057 3 16298392382944195510
28498 318 18410855447528116086
33684 2 18410855460128168297
4325135 7 18334857216474339647
5283156 175 18343585135818307180
67123 10 18410573993746666988
8209 1 18333449845859464176

>  <PUBCHEM_SHAPE_MULTIPOLES>  (1) 
367.53
38.83
0.95
0.63
0.5
0.17
0.01
5
-5.08
0.03
0
-0.04
-0.01
-0.04

>  <PUBCHEM_SHAPE_SELFOVERLAP>  (1) 
680.887

>  <PUBCHEM_SHAPE_VOLUME>  (1) 
231.3

>  <PUBCHEM_COORDINATE_TYPE>  (1) 
2
5
10

$$$$
