15122
     RDKit          3D

  6  5  0  0  0  0  0  0  0  0999 V2000
   -2.8454   -0.9537   -0.1529 Cl  0  0  0  0  0  0  0  0  0  0  0  0
    2.8408   -0.9575    0.1541 Cl  0  0  0  0  0  0  0  0  0  0  0  0
   -0.5799    0.4695   -0.3352 C   0  0  0  0  0  0  0  0  0  0  0  0
    0.5821    0.4767    0.3345 C   0  0  0  0  0  0  0  0  0  0  0  0
   -1.9173    0.4825    0.3286 C   0  0  0  0  0  0  0  0  0  0  0  0
    1.9197    0.4825   -0.3292 C   0  0  0  0  0  0  0  0  0  0  0  0
  1  5  1  0
  2  6  1  0
  3  4  2  0
  3  5  1  0
  4  6  1  0
M  END
>  <PUBCHEM_COMPOUND_CID>  (1) 
15122

>  <PUBCHEM_CONFORMER_RMSD>  (1) 
0.4

>  <PUBCHEM_CONFORMER_DIVERSEORDER>  (1) 
1
6
4
2
5
3

>  <PUBCHEM_MMFF94_PARTIAL_CHARGES>  (1) 
8
1 -0.29
2 -0.29
3 -0.29
4 -0.29
5 0.43
6 0.43
7 0.15
8 0.15

>  <PUBCHEM_EFFECTIVE_ROTOR_COUNT>  (1) 
2

>  <PUBCHEM_PHARMACOPHORE_FEATURES>  (1) 
0

>  <PUBCHEM_HEAVY_ATOM_COUNT>  (1) 
6

>  <PUBCHEM_ATOM_DEF_STEREO_COUNT>  (1) 
0

>  <PUBCHEM_ATOM_UDEF_STEREO_COUNT>  (1) 
0

>  <PUBCHEM_BOND_DEF_STEREO_COUNT>  (1) 
0

>  <PUBCHEM_BOND_UDEF_STEREO_COUNT>  (1) 
1

>  <PUBCHEM_ISOTOPIC_ATOM_COUNT>  (1) 
0

>  <PUBCHEM_COMPONENT_COUNT>  (1) 
1

>  <PUBCHEM_CACTVS_TAUTO_COUNT>  (1) 
1

>  <PUBCHEM_CONFORMER_ID>  (1) 
00003B1200000001

>  <PUBCHEM_MMFF94_ENERGY>  (1) 
-0.4406

>  <PUBCHEM_FEATURE_SELFOVERLAP>  (1) 
0

>  <PUBCHEM_SHAPE_FINGERPRINT>  (1) 
10857977 72 16415479371949110315
14390081 3 8574706897174137150
20096714 4 9583225141959181836
21293036 1 15213027067302198855
29004967 10 17060342907211463080
5460574 1 8286204941655626444

>  <PUBCHEM_SHAPE_MULTIPOLES>  (1) 
127.22
4.78
1.1
0.71
0.01
0.23
0
2
0
0
0
0
-0.02
-0.21

>  <PUBCHEM_SHAPE_SELFOVERLAP>  (1) 
207.363

>  <PUBCHEM_SHAPE_VOLUME>  (1) 
87.8

>  <PUBCHEM_COORDINATE_TYPE>  (1) 
2
5
10

$$$$
