1512
     RDKit          3D

 19 21  0  0  0  0  0  0  0  0999 V2000
    3.1173   -2.1314   -0.0001 O   0  0  0  0  0  0  0  0  0  0  0  0
    0.2109    0.9594   -0.0018 N   0  0  0  0  0  0  0  0  0  0  0  0
    0.5561   -1.2362   -0.0009 N   0  0  0  0  0  0  0  0  0  0  0  0
    2.8663    1.5160   -0.0009 N   0  0  0  0  0  0  0  0  0  0  0  0
   -4.9702    1.8832    0.0012 N   0  0  0  0  0  0  0  0  0  0  0  0
   -5.7910   -0.2830   -0.0008 N   0  0  0  0  0  0  0  0  0  0  0  0
   -1.0378    0.3926   -0.0007 C   0  0  0  0  0  0  0  0  0  0  0  0
   -0.7956   -0.9782   -0.0002 C   0  0  0  0  0  0  0  0  0  0  0  0
    1.1291   -0.0535   -0.0018 C   0  0  0  0  0  0  0  0  0  0  0  0
   -2.3193    0.9446    0.0000 C   0  0  0  0  0  0  0  0  0  0  0  0
   -3.3915    0.0463    0.0011 C   0  0  0  0  0  0  0  0  0  0  0  0
   -1.8845   -1.8662    0.0011 C   0  0  0  0  0  0  0  0  0  0  0  0
    2.5490    0.2026   -0.0018 C   0  0  0  0  0  0  0  0  0  0  0  0
   -3.1802   -1.3345    0.0017 C   0  0  0  0  0  0  0  0  0  0  0  0
   -4.7449    0.5591   -0.0002 C   0  0  0  0  0  0  0  0  0  0  0  0
    3.4799   -0.8224   -0.0007 C   0  0  0  0  0  0  0  0  0  0  0  0
    4.8267   -0.4766    0.0013 C   0  0  0  0  0  0  0  0  0  0  0  0
    4.1851    1.8137    0.0011 C   0  0  0  0  0  0  0  0  0  0  0  0
    5.1944    0.8644    0.0024 C   0  0  0  0  0  0  0  0  0  0  0  0
  1 16  1  0
  2  7  1  0
  2  9  1  0
  3  8  1  0
  3  9  2  0
  4 13  2  0
  4 18  1  0
  5 15  2  0
  6 15  1  0
  7  8  2  0
  7 10  1  0
  8 12  1  0
  9 13  1  0
 10 11  2  0
 11 14  1  0
 11 15  1  0
 12 14  2  0
 13 16  1  0
 16 17  2  0
 17 19  1  0
 18 19  2  0
M  CHG  1   5   1
M  END
>  <PUBCHEM_COMPOUND_CID>  (1) 
1512

>  <PUBCHEM_CONFORMER_RMSD>  (1) 
0.6

>  <PUBCHEM_CONFORMER_DIVERSEORDER>  (1) 
1
4
3
2
5

>  <PUBCHEM_MMFF94_PARTIAL_CHARGES>  (1) 
31
1 -0.53
10 -0.15
11 -0.02
12 -0.15
13 0.36
14 -0.15
15 0.73
16 0.08
17 -0.15
18 0.16
19 -0.15
2 0.03
20 0.27
21 0.15
22 0.15
23 0.15
24 0.15
25 0.15
26 0.15
27 0.45
28 0.45
29 0.45
3 -0.57
30 0.45
31 0.45
4 -0.62
5 -0.75
6 -0.75
7 -0.15
8 0.23
9 0.13

>  <PUBCHEM_EFFECTIVE_ROTOR_COUNT>  (1) 
2

>  <PUBCHEM_PHARMACOPHORE_FEATURES>  (1) 
10
1 1 donor
1 2 donor
1 4 acceptor
1 5 donor
1 6 donor
3 2 3 9 cation
3 5 6 15 cation
5 2 3 7 8 9 rings
6 4 13 16 17 18 19 rings
6 7 8 10 11 12 14 rings

>  <PUBCHEM_HEAVY_ATOM_COUNT>  (1) 
19

>  <PUBCHEM_ATOM_DEF_STEREO_COUNT>  (1) 
0

>  <PUBCHEM_ATOM_UDEF_STEREO_COUNT>  (1) 
0

>  <PUBCHEM_BOND_DEF_STEREO_COUNT>  (1) 
0

>  <PUBCHEM_BOND_UDEF_STEREO_COUNT>  (1) 
0

>  <PUBCHEM_ISOTOPIC_ATOM_COUNT>  (1) 
0

>  <PUBCHEM_COMPONENT_COUNT>  (1) 
1

>  <PUBCHEM_CACTVS_TAUTO_COUNT>  (1) 
30

>  <PUBCHEM_CONFORMER_ID>  (1) 
000005E800000001

>  <PUBCHEM_MMFF94_ENERGY>  (1) 
48.541

>  <PUBCHEM_FEATURE_SELFOVERLAP>  (1) 
50.901

>  <PUBCHEM_SHAPE_FINGERPRINT>  (1) 
10014705 185 18408602582657551909
10616163 171 18340769363765283366
11089746 13 17704065218487794656
11471102 20 18412262844245175932
12107183 9 17764029060339633457
12236239 1 18410573980867039891
12788726 201 17560527200585424352
13533116 47 17845936234274506482
13675066 3 18040723571204624579
13760787 19 18342175604782258014
13785724 45 17619348701924105394
14528608 73 18341894129800032364
15196674 1 18410856585430913218
15375358 24 18413111666636698406
15536298 74 18413108368650168334
17834072 33 18343862242670898567
1813 80 16732704943372134844
18186145 218 17821720654735205038
200 152 17918273164347530163
20645477 56 18333448750922391653
20645477 70 18271810081941043902
21033648 29 18188474831491779733
21267235 1 18411145722703236898
21421861 104 17823405016782010794
23402539 116 18273208695085752701
23402655 69 18413388756868148020
23559900 14 18342455946267105232
300161 21 18412819205291575232
3004659 81 18335986385669108262
335352 9 18410575072606670814
34797466 226 17417820594358143508
34934 24 18411976988154163342
3545911 37 18410576201671171468
4073 2 18040721424153870554
4214541 1 18410575093385044709
42788 4 18410856559787586565
4340502 62 16950287286982728667
474 4 17822296833293451604
495365 180 17417799682573413914
5104073 3 18408322206833825754
542803 24 17561086903680459345
543358 83 18411703154061338002
59755656 215 18410862027835070086
633830 44 18040995176373038130
69090 78 18412542115344832439
77779 3 18410293640020255626
8272917 22 18342460305474801286
9709674 26 18410862092027860366

>  <PUBCHEM_SHAPE_MULTIPOLES>  (1) 
360.24
12.02
1.85
0.59
2.19
0.16
0
-3.26
0.01
-0.24
0
-0.02
0
0

>  <PUBCHEM_SHAPE_SELFOVERLAP>  (1) 
808.284

>  <PUBCHEM_SHAPE_VOLUME>  (1) 
190.8

>  <PUBCHEM_COORDINATE_TYPE>  (1) 
2
5
10

$$$$
