15121
     RDKit          3D

 22 25  0  0  1  0  0  0  0  0999 V2000
   -4.8448    1.3261    0.9515 O   0  0  0  0  0  0  0  0  0  0  0  0
   -5.2137   -0.0724   -1.8435 O   0  0  0  0  0  0  0  0  0  0  0  0
    5.7616   -0.0285   -0.0270 O   0  0  0  0  0  0  0  0  0  0  0  0
   -2.7276    0.0428    0.7961 C   0  0  0  0  0  0  0  0  0  0  0  0
   -2.1706   -0.8520   -0.3366 C   0  0  0  0  0  0  0  0  0  0  0  0
   -0.6342   -0.9600   -0.4493 C   0  0  0  0  0  0  0  0  0  0  0  0
    0.0896    0.3953   -0.2628 C   0  0  0  0  0  0  0  0  0  0  0  0
   -4.1824    0.2484    0.3102 C   0  0  0  0  0  0  0  0  0  0  0  0
   -1.9417    1.3669    0.9110 C   0  0  0  0  0  0  0  0  0  0  0  0
   -2.7981   -0.2645   -1.6248 C   0  0  0  0  0  0  0  0  0  0  0  0
   -4.0709    0.4684   -1.1961 C   0  0  0  0  0  0  0  0  0  0  0  0
   -0.4288    1.1630    0.9668 C   0  0  0  0  0  0  0  0  0  0  0  0
   -0.0542   -2.0085    0.5129 C   0  0  0  0  0  0  0  0  0  0  0  0
   -2.7635   -0.6594    2.1639 C   0  0  0  0  0  0  0  0  0  0  0  0
    1.6025    0.2471   -0.1992 C   0  0  0  0  0  0  0  0  0  0  0  0
    1.4188   -2.2603    0.2020 C   0  0  0  0  0  0  0  0  0  0  0  0
    2.2185   -0.9928    0.0523 C   0  0  0  0  0  0  0  0  0  0  0  0
    2.4101    1.3826   -0.3884 C   0  0  0  0  0  0  0  0  0  0  0  0
    3.6197   -1.0721    0.1015 C   0  0  0  0  0  0  0  0  0  0  0  0
    3.8003    1.2924   -0.3275 C   0  0  0  0  0  0  0  0  0  0  0  0
    4.4052    0.0647   -0.0814 C   0  0  0  0  0  0  0  0  0  0  0  0
    6.5042    1.1727   -0.2314 C   0  0  0  0  0  0  0  0  0  0  0  0
  1  8  1  0
  2 11  1  0
  3 21  1  0
  3 22  1  0
  4  5  1  0
  4  8  1  0
  4  9  1  0
  4 14  1  0
  5  6  1  0
  5 10  1  0
  6  7  1  0
  6 13  1  0
  7 12  1  0
  7 15  1  0
  8 11  1  0
  9 12  1  0
 10 11  1  0
 13 16  1  0
 15 17  2  0
 15 18  1  0
 16 17  1  0
 17 19  1  0
 18 20  2  0
 19 21  2  0
 20 21  1  0
M  END
>  <PUBCHEM_COMPOUND_CID>  (1) 
15121

>  <PUBCHEM_CONFORMER_RMSD>  (1) 
0.6

>  <PUBCHEM_CONFORMER_DIVERSEORDER>  (1) 
2
34
32
4
5
28
21
25
24
20
6
27
13
36
39
22
17
26
29
8
38
23
30
31
37
12
1
7
18
10
16
3
35
14
11
19
15
9
33

>  <PUBCHEM_MMFF94_PARTIAL_CHARGES>  (1) 
19
1 -0.68
11 0.28
15 -0.14
16 0.14
17 -0.14
18 -0.15
19 -0.15
2 -0.68
20 -0.15
21 0.08
22 0.28
3 -0.36
41 0.4
42 0.4
43 0.15
44 0.15
45 0.15
7 0.14
8 0.28

>  <PUBCHEM_EFFECTIVE_ROTOR_COUNT>  (1) 
2.4

>  <PUBCHEM_PHARMACOPHORE_FEATURES>  (1) 
9
1 1 acceptor
1 1 donor
1 2 acceptor
1 2 donor
1 3 acceptor
5 4 5 8 10 11 rings
6 15 17 18 19 20 21 rings
6 4 5 6 7 9 12 rings
6 6 7 13 15 16 17 rings

>  <PUBCHEM_HEAVY_ATOM_COUNT>  (1) 
22

>  <PUBCHEM_ATOM_DEF_STEREO_COUNT>  (1) 
2

>  <PUBCHEM_ATOM_UDEF_STEREO_COUNT>  (1) 
4

>  <PUBCHEM_BOND_DEF_STEREO_COUNT>  (1) 
0

>  <PUBCHEM_BOND_UDEF_STEREO_COUNT>  (1) 
0

>  <PUBCHEM_ISOTOPIC_ATOM_COUNT>  (1) 
0

>  <PUBCHEM_COMPONENT_COUNT>  (1) 
1

>  <PUBCHEM_CACTVS_TAUTO_COUNT>  (1) 
1

>  <PUBCHEM_CONFORMER_ID>  (1) 
00003B1100000002

>  <PUBCHEM_MMFF94_ENERGY>  (1) 
83.9599

>  <PUBCHEM_FEATURE_SELFOVERLAP>  (1) 
45.897

>  <PUBCHEM_SHAPE_FINGERPRINT>  (1) 
10 15 17895191177893789192
10366900 7 17918272069621552018
10906281 52 18270134495298226132
11089746 13 18131348627060252440
11315181 36 18201158858291562944
11471102 20 18408037395073817646
12236239 1 18060137626546625790
12507557 5 18113623417019647808
12788726 201 17345761759364753249
13140716 1 18192157203491220872
13224815 77 18341899575544321882
13288520 33 15626503917260485509
13533116 47 18201154361524309010
13583140 156 17240762916980070858
13631057 29 18269547420429795967
14294032 229 16701465538629187969
14787075 74 18060136548763282768
15183329 4 17988372494892947558
15196674 1 18410296925902566626
15375358 24 17821445738110219347
16752209 62 17131818855862590831
16945 1 18340495486326788611
16988056 13 14388076330734664929
17349148 13 18343861108825919058
18186145 218 18408044013439007814
19489759 90 15554452890037538414
19862831 5 18202561791234504885
200 152 18272647943833729341
20300324 65 17275386512263340489
20645477 56 16732980921101948893
20645477 70 18335977563263359806
21033648 29 17895741980840992620
21033650 10 16700366107935480760
21267235 1 18201445804122834798
22094290 60 14979960263495249051
2297311 6 15123509233237099035
231179 274 17894908516725025710
23198884 109 16271937012668142570
23402539 116 17989488519852402540
23402655 69 18343581845931361406
23493267 7 17458056084099256297
23557571 272 15554447409427277242
23559900 14 18201153382134648224
26918003 58 18113343019958325064
296302 2 18186238415923322859
335352 9 18408322203667641942
34797466 226 15626219182398400392
34934 24 18059298656372899753
350125 39 18118693354971096027
4340502 62 18041295279176637803
474 4 18408887351826705806
5104073 3 18189051057642008280
542803 24 18131350808571082524
633830 44 18269571484434397998

>  <PUBCHEM_SHAPE_MULTIPOLES>  (1) 
435.14
11.51
1.71
1.33
9.05
0.55
-0.05
-4.03
1.76
0.79
-0.25
-2.22
-0.01
-0.28

>  <PUBCHEM_SHAPE_SELFOVERLAP>  (1) 
942.436

>  <PUBCHEM_SHAPE_VOLUME>  (1) 
237.7

>  <PUBCHEM_COORDINATE_TYPE>  (1) 
2
5
10

$$$$
