15134
     RDKit          3D

 20 19  0  0  0  0  0  0  0  0999 V2000
   -4.4363   -2.9705   -0.5153 Cl  0  0  0  0  0  0  0  0  0  0  0  0
   -7.1501   -1.9600   -0.8969 Cl  0  0  0  0  0  0  0  0  0  0  0  0
    4.3764   -2.9834    0.4511 Cl  0  0  0  0  0  0  0  0  0  0  0  0
    7.0894   -2.0149    0.9338 Cl  0  0  0  0  0  0  0  0  0  0  0  0
   -5.4499   -0.7485    1.3905 O   0  0  0  0  0  0  0  0  0  0  0  0
    5.4745   -0.7392   -1.3804 O   0  0  0  0  0  0  0  0  0  0  0  0
   -4.6874    0.6731   -0.2767 N   0  0  0  0  0  0  0  0  0  0  0  0
    4.6791    0.6600    0.2903 N   0  0  0  0  0  0  0  0  0  0  0  0
   -0.4992    1.7671    0.5547 C   0  0  0  0  0  0  0  0  0  0  0  0
    0.5450    1.7943   -0.5628 C   0  0  0  0  0  0  0  0  0  0  0  0
   -1.9203    1.8150   -0.0104 C   0  0  0  0  0  0  0  0  0  0  0  0
    1.9660    1.7798    0.0030 C   0  0  0  0  0  0  0  0  0  0  0  0
   -2.9648    1.7576    1.1082 C   0  0  0  0  0  0  0  0  0  0  0  0
    3.0096    1.7734   -1.1141 C   0  0  0  0  0  0  0  0  0  0  0  0
   -4.3942    1.7907    0.5772 C   0  0  0  0  0  0  0  0  0  0  0  0
    4.4254    1.7976   -0.5509 C   0  0  0  0  0  0  0  0  0  0  0  0
   -5.2000   -0.5257    0.2068 C   0  0  0  0  0  0  0  0  0  0  0  0
    5.1913   -0.5354   -0.2007 C   0  0  0  0  0  0  0  0  0  0  0  0
   -5.4275   -1.5491   -0.8809 C   0  0  0  0  0  0  0  0  0  0  0  0
    5.3731   -1.5819    0.8736 C   0  0  0  0  0  0  0  0  0  0  0  0
  1 19  1  0
  2 19  1  0
  3 20  1  0
  4 20  1  0
  5 17  2  0
  6 18  2  0
  7 15  1  0
  7 17  1  0
  8 16  1  0
  8 18  1  0
  9 10  1  0
  9 11  1  0
 10 12  1  0
 11 13  1  0
 12 14  1  0
 13 15  1  0
 14 16  1  0
 17 19  1  0
 18 20  1  0
M  END
>  <PUBCHEM_COMPOUND_CID>  (1) 
15134

>  <PUBCHEM_CONFORMER_RMSD>  (1) 
1.2

>  <PUBCHEM_CONFORMER_DIVERSEORDER>  (1) 
1
9
3
49
64
31
35
51
30
27
44
11
22
28
53
48
55
58
37
10
23
45
15
52
19
4
62
43
12
8
42
29
67
63
66
2
56
41
17
26
33
38
20
24
60
6
47
39
61
32
36
57
59
65
14
68
46
34
18
50
54
16
21
5
40
7
25
13

>  <PUBCHEM_MMFF94_PARTIAL_CHARGES>  (1) 
16
1 -0.29
15 0.3
16 0.3
17 0.57
18 0.57
19 0.64
2 -0.29
20 0.64
3 -0.29
37 0.37
38 0.37
4 -0.29
5 -0.57
6 -0.57
7 -0.73
8 -0.73

>  <PUBCHEM_EFFECTIVE_ROTOR_COUNT>  (1) 
13

>  <PUBCHEM_PHARMACOPHORE_FEATURES>  (1) 
6
1 5 acceptor
1 6 acceptor
1 7 donor
1 8 donor
3 10 12 14 hydrophobe
3 9 11 13 hydrophobe

>  <PUBCHEM_HEAVY_ATOM_COUNT>  (1) 
20

>  <PUBCHEM_ATOM_DEF_STEREO_COUNT>  (1) 
0

>  <PUBCHEM_ATOM_UDEF_STEREO_COUNT>  (1) 
0

>  <PUBCHEM_BOND_DEF_STEREO_COUNT>  (1) 
0

>  <PUBCHEM_BOND_UDEF_STEREO_COUNT>  (1) 
0

>  <PUBCHEM_ISOTOPIC_ATOM_COUNT>  (1) 
0

>  <PUBCHEM_COMPONENT_COUNT>  (1) 
1

>  <PUBCHEM_CACTVS_TAUTO_COUNT>  (1) 
3

>  <PUBCHEM_CONFORMER_ID>  (1) 
00003B1E00000001

>  <PUBCHEM_MMFF94_ENERGY>  (1) 
9.0412

>  <PUBCHEM_FEATURE_SELFOVERLAP>  (1) 
30.446

>  <PUBCHEM_SHAPE_FINGERPRINT>  (1) 
10378564 45 12107785182351896192
10571361 74 18412259571032691071
10939801 23 18057600070074853524
11809386 21 18341897403208995313
12596602 18 17846217727011225384
13533116 47 18410294748317412664
14211702 104 18342183271056249367
14251740 57 18130233645071014022
14251751 18 18202843266300880009
14347332 77 18410011022756707381
15183329 4 18409450318680863183
15188451 53 18272083894284524552
15519825 34 14188999173012464661
15728490 51 18412258433873068610
15728490 83 18120098531644355547
17857418 61 18410576184174901592
20028762 73 18412544276278267974
20398071 356 18335430058017148611
20567600 247 18408602544013447984
20621476 30 18335422404485660195
20843269 155 18200307865844914735
21585483 132 18187632592473369698
220451 1 18339095833758036392
23559900 14 18199741617900409809
25122255 55 18341902900054737397
373842 8 18412265064285358743
439807 62 18410012169903014719
5085150 59 18060134324386818583
5104073 3 17632582686243212129
531348 171 18188206495146997285
5326457 24 18411139138502372627
559249 180 18409730634828722281
59682541 52 17458347472050462012
60123966 16 15936699271639437692
96874 4 18410567392387785935

>  <PUBCHEM_SHAPE_MULTIPOLES>  (1) 
397.37
21.64
3.73
1.15
0.71
1.6
0
17.86
-0.02
-0.11
-0.01
0
0.06
-3.28

>  <PUBCHEM_SHAPE_SELFOVERLAP>  (1) 
717.636

>  <PUBCHEM_SHAPE_VOLUME>  (1) 
254.6

>  <PUBCHEM_COORDINATE_TYPE>  (1) 
2
5
10

$$$$
