15131
     RDKit          3D

 17 17  0  0  1  0  0  0  0  0999 V2000
    0.8288   -1.3747   -1.7723 Cl  0  0  0  0  0  0  0  0  0  0  0  0
    2.3421   -2.5466    0.4086 Cl  0  0  0  0  0  0  0  0  0  0  0  0
   -4.7398    2.1895   -0.5279 Cl  0  0  0  0  0  0  0  0  0  0  0  0
   -0.6712   -2.9147    0.4588 O   0  0  0  0  0  0  0  0  0  0  0  0
    2.9206    0.3394   -0.2975 O   0  0  0  0  0  0  0  0  0  0  0  0
    3.0259    2.4263    0.6687 O   0  0  0  0  0  0  0  0  0  0  0  0
    4.6864    1.6715   -0.7314 N   0  0  0  0  0  0  0  0  0  0  0  0
   -0.2396   -1.5771    0.7313 C   0  0  0  0  0  0  0  0  0  0  0  0
    1.1105   -1.2915    0.0160 C   0  0  0  0  0  0  0  0  0  0  0  0
   -1.3769   -0.6246    0.4130 C   0  0  0  0  0  0  0  0  0  0  0  0
    1.6763    0.0977    0.3527 C   0  0  0  0  0  0  0  0  0  0  0  0
   -1.5438    0.5061    1.1901 C   0  0  0  0  0  0  0  0  0  0  0  0
   -2.2167   -0.9120   -0.6464 C   0  0  0  0  0  0  0  0  0  0  0  0
   -2.5894    1.3817    0.8972 C   0  0  0  0  0  0  0  0  0  0  0  0
   -3.2623   -0.0364   -0.9394 C   0  0  0  0  0  0  0  0  0  0  0  0
   -3.4487    1.1103   -0.1675 C   0  0  0  0  0  0  0  0  0  0  0  0
    3.4979    1.5549   -0.0539 C   0  0  0  0  0  0  0  0  0  0  0  0
  1  9  1  0
  2  9  1  0
  3 16  1  0
  4  8  1  0
  5 11  1  0
  5 17  1  0
  6 17  2  0
  7 17  1  0
  8  9  1  0
  8 10  1  0
  9 11  1  0
 10 12  2  0
 10 13  1  0
 12 14  1  0
 13 15  2  0
 14 16  2  0
 15 16  1  0
M  END
>  <PUBCHEM_COMPOUND_CID>  (1) 
15131

>  <PUBCHEM_CONFORMER_RMSD>  (1) 
0.6

>  <PUBCHEM_CONFORMER_DIVERSEORDER>  (1) 
1
11
38
4
24
32
42
47
7
30
46
35
36
26
17
43
6
23
25
45
29
33
34
20
31
10
37
16
22
27
3
28
18
39
21
12
8
9
2
40
5
44
13
19
41
14
15

>  <PUBCHEM_MMFF94_PARTIAL_CHARGES>  (1) 
24
1 -0.29
10 -0.14
11 0.28
12 -0.15
13 -0.15
14 -0.15
15 -0.15
16 0.18
17 0.78
2 -0.29
21 0.15
22 0.15
23 0.4
24 0.15
25 0.15
26 0.37
27 0.37
3 -0.18
4 -0.68
5 -0.43
6 -0.57
7 -0.8
8 0.42
9 0.58

>  <PUBCHEM_EFFECTIVE_ROTOR_COUNT>  (1) 
5

>  <PUBCHEM_PHARMACOPHORE_FEATURES>  (1) 
5
1 4 acceptor
1 4 donor
1 6 acceptor
1 7 donor
6 10 12 13 14 15 16 rings

>  <PUBCHEM_HEAVY_ATOM_COUNT>  (1) 
17

>  <PUBCHEM_ATOM_DEF_STEREO_COUNT>  (1) 
0

>  <PUBCHEM_ATOM_UDEF_STEREO_COUNT>  (1) 
1

>  <PUBCHEM_BOND_DEF_STEREO_COUNT>  (1) 
0

>  <PUBCHEM_BOND_UDEF_STEREO_COUNT>  (1) 
0

>  <PUBCHEM_ISOTOPIC_ATOM_COUNT>  (1) 
0

>  <PUBCHEM_COMPONENT_COUNT>  (1) 
1

>  <PUBCHEM_CACTVS_TAUTO_COUNT>  (1) 
2

>  <PUBCHEM_CONFORMER_ID>  (1) 
00003B1B00000001

>  <PUBCHEM_MMFF94_ENERGY>  (1) 
38.7833

>  <PUBCHEM_FEATURE_SELFOVERLAP>  (1) 
25.371

>  <PUBCHEM_SHAPE_FINGERPRINT>  (1) 
10498660 4 18342737433506927169
12173636 292 18048595121245747598
12892183 10 12251904797678782045
13134695 92 17683518442377580818
13464514 151 18340778061215748382
14115302 16 17344892041393326151
14123255 52 18408603673205023521
14250199 8 18198627627256617039
14252887 29 11455299827610395527
15295992 7 17824555067062877897
15342168 16 18187368727009641669
15775835 57 18411138013337044061
16945 1 18198326550038994939
17834072 32 18334581290791301308
17980427 23 17841113763548331114
18186145 218 18340775823311148135
192875 21 18057032515293966264
19765921 60 18412256238353587299
20449540 30 18343866632523120545
20510252 161 17906739459503330442
21524375 3 18341611542484865990
2255824 54 18266737969961086523
22892500 29 18189896405178017366
23557571 272 18195258938214433279
23558518 356 17968383445502249571
23559900 14 18128808655946746450
25 1 18411135835693640496
27216 239 17896326985319304641
4028521 119 18271809059385373228
43658 37 18411131433547542329
474 4 18337387132716406691
5262128 65 17487072067117620167
526903 126 18270960253815290545
84936 182 18340761555271568144
9981440 41 18266447879664706426

>  <PUBCHEM_SHAPE_MULTIPOLES>  (1) 
332.87
7.76
2.92
1.17
1.28
0.18
-0.25
-7.03
-1.59
-2.18
0.23
0.14
0.2
-0.19

>  <PUBCHEM_SHAPE_SELFOVERLAP>  (1) 
657.773

>  <PUBCHEM_SHAPE_VOLUME>  (1) 
199

>  <PUBCHEM_COORDINATE_TYPE>  (1) 
2
5
10

$$$$
