15148
     RDKit          3D

 24 26  0  0  0  0  0  0  0  0999 V2000
   -2.5329   -0.6746    0.5070 P   0  0  0  0  0  0  0  0  0  0  0  0
   -1.6656   -0.8676   -0.8513 O   0  0  0  0  0  0  0  0  0  0  0  0
   -4.0540   -0.9350    0.0129 O   0  0  0  0  0  0  0  0  0  0  0  0
   -2.4715    0.9179    0.8038 O   0  0  0  0  0  0  0  0  0  0  0  0
    0.0968   -2.8088   -0.2023 O   0  0  0  0  0  0  0  0  0  0  0  0
   -0.7136    1.6110   -1.3480 O   0  0  0  0  0  0  0  0  0  0  0  0
   -2.0930   -1.5393    1.6545 O   0  0  0  0  0  0  0  0  0  0  0  0
   -0.3055   -0.5723   -0.6746 N   0  0  0  0  0  0  0  0  0  0  0  0
    2.3156    0.0436   -0.1524 C   0  0  0  0  0  0  0  0  0  0  0  0
    1.8878   -1.2895    0.0110 C   0  0  0  0  0  0  0  0  0  0  0  0
    1.4557    1.0672   -0.5994 C   0  0  0  0  0  0  0  0  0  0  0  0
    3.6626    0.3666    0.1405 C   0  0  0  0  0  0  0  0  0  0  0  0
    0.4812   -1.6474   -0.2904 C   0  0  0  0  0  0  0  0  0  0  0  0
    0.0417    0.7490   -0.9113 C   0  0  0  0  0  0  0  0  0  0  0  0
    2.7694   -2.2815    0.4528 C   0  0  0  0  0  0  0  0  0  0  0  0
    1.9146    2.3793   -0.7542 C   0  0  0  0  0  0  0  0  0  0  0  0
    4.5350   -0.6399    0.5844 C   0  0  0  0  0  0  0  0  0  0  0  0
    4.1078    1.6885   -0.0184 C   0  0  0  0  0  0  0  0  0  0  0  0
    4.0909   -1.9528    0.7386 C   0  0  0  0  0  0  0  0  0  0  0  0
    3.2401    2.6856   -0.4623 C   0  0  0  0  0  0  0  0  0  0  0  0
   -4.5547   -0.1637   -1.0656 C   0  0  0  0  0  0  0  0  0  0  0  0
   -3.2349    1.4746    1.8605 C   0  0  0  0  0  0  0  0  0  0  0  0
   -5.9831   -0.5788   -1.3473 C   0  0  0  0  0  0  0  0  0  0  0  0
   -2.9904    2.9677    1.9118 C   0  0  0  0  0  0  0  0  0  0  0  0
  1  2  1  0
  1  3  1  0
  1  4  1  0
  1  7  2  0
  2  8  1  0
  3 21  1  0
  4 22  1  0
  5 13  2  0
  6 14  2  0
  8 13  1  0
  8 14  1  0
  9 10  1  0
  9 11  2  0
  9 12  1  0
 10 13  1  0
 10 15  2  0
 11 14  1  0
 11 16  1  0
 12 17  1  0
 12 18  2  0
 15 19  1  0
 16 20  2  0
 17 19  2  0
 18 20  1  0
 21 23  1  0
 22 24  1  0
M  END
>  <PUBCHEM_COMPOUND_CID>  (1) 
15148

>  <PUBCHEM_CONFORMER_RMSD>  (1) 
0.8

>  <PUBCHEM_CONFORMER_DIVERSEORDER>  (1) 
2
1
5
6
3
4

>  <PUBCHEM_MMFF94_PARTIAL_CHARGES>  (1) 
26
1 1.51
10 0.09
11 0.09
13 0.54
14 0.54
15 -0.15
16 -0.15
17 -0.15
18 -0.15
19 -0.15
2 -0.31
20 -0.15
21 0.28
22 0.28
25 0.15
26 0.15
27 0.15
28 0.15
29 0.15
3 -0.55
30 0.15
4 -0.55
5 -0.57
6 -0.57
7 -0.7
8 -0.08

>  <PUBCHEM_EFFECTIVE_ROTOR_COUNT>  (1) 
6.2

>  <PUBCHEM_PHARMACOPHORE_FEATURES>  (1) 
6
1 5 acceptor
1 6 acceptor
1 7 acceptor
6 8 9 10 11 13 14 rings
6 9 10 12 15 17 19 rings
6 9 11 12 16 18 20 rings

>  <PUBCHEM_HEAVY_ATOM_COUNT>  (1) 
24

>  <PUBCHEM_ATOM_DEF_STEREO_COUNT>  (1) 
0

>  <PUBCHEM_ATOM_UDEF_STEREO_COUNT>  (1) 
0

>  <PUBCHEM_BOND_DEF_STEREO_COUNT>  (1) 
0

>  <PUBCHEM_BOND_UDEF_STEREO_COUNT>  (1) 
0

>  <PUBCHEM_ISOTOPIC_ATOM_COUNT>  (1) 
0

>  <PUBCHEM_COMPONENT_COUNT>  (1) 
1

>  <PUBCHEM_CACTVS_TAUTO_COUNT>  (1) 
1

>  <PUBCHEM_CONFORMER_ID>  (1) 
00003B2C00000002

>  <PUBCHEM_MMFF94_ENERGY>  (1) 
52.4317

>  <PUBCHEM_FEATURE_SELFOVERLAP>  (1) 
30.523

>  <PUBCHEM_SHAPE_FINGERPRINT>  (1) 
10366900 7 17967820405670551610
10411042 1 18047460141989979482
10967382 1 18262510511751569420
11640471 11 17773894003455481001
12011746 2 18260829293642411374
12107183 9 17837778819942080291
12236239 1 18131062766884977271
12403260 363 18341609291774316459
12553582 1 18115605733268000446
12633257 1 18115031792614478154
12670546 56 18131069350658391520
12788726 201 17918277567348359217
13140716 1 17975398132745847906
13533116 47 18411696612567585889
14739800 52 17774145942459607832
14790565 3 17320714081510234988
15420108 30 17767683854513387347
15475509 8 18056504776458312430
16945 1 18262506109426038718
17349148 13 18411418406293024559
192875 21 18342173384394870817
200 152 18343292678932058767
20028762 73 18271796904686507134
20157964 124 18335131025509647999
20645477 70 18114169852702243678
20739085 24 18261125028100403260
21033648 29 17022617577057801021
23184049 59 18408602574141743246
2334 1 18263068947683956046
23557571 272 15123514722289790523
23559900 14 18187078494293589386
2748010 2 18119228603181640726
335352 9 18335132129516729238
350125 39 18335132086308612764
3633792 109 18336253588174050109
474 4 18408602595263054346
5104073 3 18260268577303911027
7471813 234 18130773573646255013

>  <PUBCHEM_SHAPE_MULTIPOLES>  (1) 
457.56
9.84
3.04
1.41
7.42
0.93
-0.44
-0.32
0.21
-1.38
-0.64
1.76
0.6
-2.14

>  <PUBCHEM_SHAPE_SELFOVERLAP>  (1) 
973.909

>  <PUBCHEM_SHAPE_VOLUME>  (1) 
255.5

>  <PUBCHEM_COORDINATE_TYPE>  (1) 
2
5
10

$$$$
