15149
     RDKit          3D

 32 38  0  0  1  0  0  0  0  0999 V2000
    2.0495   -0.3039   -0.2675 O   0  0  0  0  0  0  0  0  0  0  0  0
    3.2021   -1.8767   -1.5065 O   0  0  0  0  0  0  0  0  0  0  0  0
   -8.7032    1.0769   -0.7155 O   0  0  0  0  0  0  0  0  0  0  0  0
   -0.3956   -0.2275    0.0428 C   0  0  0  0  0  0  0  0  0  0  0  0
   -1.4469   -1.3331   -0.1765 C   0  0  0  0  0  0  0  0  0  0  0  0
   -2.7990   -0.9864    0.4491 C   0  0  0  0  0  0  0  0  0  0  0  0
    4.3983   -0.1577   -0.3187 C   0  0  0  0  0  0  0  0  0  0  0  0
   -3.3325    0.3226   -0.2048 C   0  0  0  0  0  0  0  0  0  0  0  0
    0.8183   -0.9013   -0.6255 C   0  0  0  0  0  0  0  0  0  0  0  0
   -0.8898    1.0452   -0.6558 C   0  0  0  0  0  0  0  0  0  0  0  0
    6.9206   -0.0564   -0.4307 C   0  0  0  0  0  0  0  0  0  0  0  0
    5.7277    0.5962    1.6935 C   0  0  0  0  0  0  0  0  0  0  0  0
    5.5768    2.0766   -0.3434 C   0  0  0  0  0  0  0  0  0  0  0  0
   -0.7252   -2.6035    0.2647 C   0  0  0  0  0  0  0  0  0  0  0  0
   -2.2839    1.4640   -0.1552 C   0  0  0  0  0  0  0  0  0  0  0  0
    5.6677   -0.8198   -0.8939 C   0  0  0  0  0  0  0  0  0  0  0  0
    4.4793   -0.1697    1.2219 C   0  0  0  0  0  0  0  0  0  0  0  0
    4.3292    1.3039   -0.8066 C   0  0  0  0  0  0  0  0  0  0  0  0
    0.7367   -2.3672   -0.1567 C   0  0  0  0  0  0  0  0  0  0  0  0
    6.9829   -0.0723    1.1064 C   0  0  0  0  0  0  0  0  0  0  0  0
    6.8334    1.4003   -0.9187 C   0  0  0  0  0  0  0  0  0  0  0  0
    5.6471    2.0491    1.1934 C   0  0  0  0  0  0  0  0  0  0  0  0
   -4.7010    0.7419    0.4141 C   0  0  0  0  0  0  0  0  0  0  0  0
   -3.8217   -2.1144    0.2678 C   0  0  0  0  0  0  0  0  0  0  0  0
   -0.0866    0.0880    1.5285 C   0  0  0  0  0  0  0  0  0  0  0  0
    3.1764   -0.8934   -0.7787 C   0  0  0  0  0  0  0  0  0  0  0  0
   -5.1525   -1.7439    0.9130 C   0  0  0  0  0  0  0  0  0  0  0  0
   -5.6834   -0.4224    0.4152 C   0  0  0  0  0  0  0  0  0  0  0  0
   -5.2714    1.9715   -0.3227 C   0  0  0  0  0  0  0  0  0  0  0  0
   -6.7303    2.2282    0.0109 C   0  0  0  0  0  0  0  0  0  0  0  0
   -6.9694   -0.3171    0.0440 C   0  0  0  0  0  0  0  0  0  0  0  0
   -7.5536    1.0026   -0.2880 C   0  0  0  0  0  0  0  0  0  0  0  0
  1  9  1  0
  1 26  1  0
  2 26  2  0
  3 32  2  0
  4  5  1  0
  4  9  1  0
  4 10  1  0
  4 25  1  0
  5  6  1  0
  5 14  1  0
  6  8  1  0
  6 24  1  0
  7 16  1  0
  7 17  1  0
  7 18  1  0
  7 26  1  0
  8 15  1  0
  8 23  1  0
  9 19  1  0
 10 15  1  0
 11 16  1  0
 11 20  1  0
 11 21  1  0
 12 17  1  0
 12 20  1  0
 12 22  1  0
 13 18  1  0
 13 21  1  0
 13 22  1  0
 14 19  1  0
 23 28  1  0
 23 29  1  0
 24 27  1  0
 27 28  1  0
 28 31  2  0
 29 30  1  0
 30 32  1  0
 31 32  1  0
M  END
>  <PUBCHEM_COMPOUND_CID>  (1) 
15149

>  <PUBCHEM_CONFORMER_RMSD>  (1) 
0.8

>  <PUBCHEM_CONFORMER_DIVERSEORDER>  (1) 
1
9
16
75
36
63
62
59
73
39
35
21
40
47
6
45
49
61
4
14
69
76
27
5
10
53
70
58
11
54
26
23
46
24
64
68
74
20
37
71
19
30
48
60
29
25
50
41
72
22
66
57
38
15
13
51
32
2
7
55
31
12
56
34
8
65
43
67
52
28
42
3
17
44
18
33

>  <PUBCHEM_MMFF94_PARTIAL_CHARGES>  (1) 
13
1 -0.43
2 -0.57
23 0.14
26 0.66
27 0.14
28 -0.28
3 -0.57
30 0.06
31 -0.14
32 0.49
7 0.06
72 0.15
9 0.28

>  <PUBCHEM_EFFECTIVE_ROTOR_COUNT>  (1) 
6

>  <PUBCHEM_PHARMACOPHORE_FEATURES>  (1) 
10
1 2 acceptor
1 3 acceptor
5 4 5 9 14 19 rings
6 11 12 13 20 21 22 rings
6 23 28 29 30 31 32 rings
6 4 5 6 8 10 15 rings
6 6 8 23 24 27 28 rings
6 7 11 12 16 17 20 rings
6 7 11 13 16 18 21 rings
6 7 12 13 17 18 22 rings

>  <PUBCHEM_HEAVY_ATOM_COUNT>  (1) 
32

>  <PUBCHEM_ATOM_DEF_STEREO_COUNT>  (1) 
3

>  <PUBCHEM_ATOM_UDEF_STEREO_COUNT>  (1) 
3

>  <PUBCHEM_BOND_DEF_STEREO_COUNT>  (1) 
0

>  <PUBCHEM_BOND_UDEF_STEREO_COUNT>  (1) 
0

>  <PUBCHEM_ISOTOPIC_ATOM_COUNT>  (1) 
0

>  <PUBCHEM_COMPONENT_COUNT>  (1) 
1

>  <PUBCHEM_CACTVS_TAUTO_COUNT>  (1) 
8

>  <PUBCHEM_CONFORMER_ID>  (1) 
00003B2D00000001

>  <PUBCHEM_MMFF94_ENERGY>  (1) 
89.2119

>  <PUBCHEM_FEATURE_SELFOVERLAP>  (1) 
63.392

>  <PUBCHEM_SHAPE_FINGERPRINT>  (1) 
10 15 18113623391397381313
10076449 9 8430313562969391774
10411042 1 17832149699526688067
10835480 77 18341614781053627189
11007060 377 18338525149628078201
11315181 36 18131355207435297305
11719270 70 18343865498551969390
11991303 11 16773789337989902759
12236239 1 17676205792894809258
125118 31 18408606954623445172
12838862 33 18261380136789647125
13402501 40 18342739637204522992
13533116 47 17846224315649526926
13811026 1 18413389825850826422
13911987 19 17275108319269703415
14028597 1 16370999668540898521
14117953 113 18342182159414022676
14216079 64 8502653710189444713
14294032 229 17822857450895477013
14856354 85 14836121074930252885
14933364 13 18410015450746254468
15183329 4 18413111658099628505
15392192 104 15430334528230847227
15419008 145 18115014196582586464
15461852 350 18201998868021721463
1577012 14 18113900498481944876
16989713 51 17630322167957392959
17980427 23 17967536808721398151
19301679 30 14418400045822113604
19611394 137 17823715238370160833
20157964 124 18202567246402419486
20554085 129 18272077293062462986
20715895 44 18411703188341883508
21033648 29 18129648816670016976
21150785 3 14836401437051120873
21424621 283 18259705592785211123
21521721 280 18131073723325443555
21792934 111 18341040835957626040
22224240 67 18334574633955346055
23559900 14 18130222765185565208
23569943 247 10302723560759430988
23576562 1 17417235667811578981
24771293 8 18409732833741422773
34797466 226 17846786170021849303
4073 2 18041006180000460970
4093350 32 17489312932060822471
4169191 19 18409729526758717385
4325135 7 18343584040311548629
44249763 50 17845922035101927103
465052 167 11314025773364698034
4760202 170 18060409197952303225
504579 68 14764627504228438627
5104073 3 18262244313615315691
5758199 1 18412829054295111385
9831232 110 18272664424441689118
99344 41 18407759231311352154

>  <PUBCHEM_SHAPE_MULTIPOLES>  (1) 
640.94
23.31
2.37
1.16
8.76
0.26
0.26
-11.25
0.22
1.27
-0.13
-1.66
-0.02
1.17

>  <PUBCHEM_SHAPE_SELFOVERLAP>  (1) 
1412.367

>  <PUBCHEM_SHAPE_VOLUME>  (1) 
334.6

>  <PUBCHEM_COORDINATE_TYPE>  (1) 
2
5
10

$$$$
