15153
     RDKit          3D

  3  2  0  0  0  0  0  0  0  0999 V2000
    1.1219   -0.2041    0.0000 F   0  0  0  0  0  0  0  0  0  0  0  0
   -1.0695   -0.2356    0.0000 O   0  0  0  0  0  0  0  0  0  0  0  0
   -0.0524    0.4397    0.0000 C   0  0  0  0  0  0  0  0  0  0  0  0
  1  3  1  0
  2  3  2  0
M  END
>  <PUBCHEM_COMPOUND_CID>  (1) 
15153

>  <PUBCHEM_CONFORMER_RMSD>  (1) 
0.4

>  <PUBCHEM_CONFORMER_DIVERSEORDER>  (1) 
1

>  <PUBCHEM_MMFF94_PARTIAL_CHARGES>  (1) 
4
1 -0.22
2 -0.57
3 0.73
4 0.06

>  <PUBCHEM_EFFECTIVE_ROTOR_COUNT>  (1) 
0

>  <PUBCHEM_PHARMACOPHORE_FEATURES>  (1) 
0

>  <PUBCHEM_HEAVY_ATOM_COUNT>  (1) 
3

>  <PUBCHEM_ATOM_DEF_STEREO_COUNT>  (1) 
0

>  <PUBCHEM_ATOM_UDEF_STEREO_COUNT>  (1) 
0

>  <PUBCHEM_BOND_DEF_STEREO_COUNT>  (1) 
0

>  <PUBCHEM_BOND_UDEF_STEREO_COUNT>  (1) 
0

>  <PUBCHEM_ISOTOPIC_ATOM_COUNT>  (1) 
0

>  <PUBCHEM_COMPONENT_COUNT>  (1) 
1

>  <PUBCHEM_CACTVS_TAUTO_COUNT>  (1) 
1

>  <PUBCHEM_CONFORMER_ID>  (1) 
00003B3100000001

>  <PUBCHEM_MMFF94_ENERGY>  (1) 
0.0214

>  <PUBCHEM_FEATURE_SELFOVERLAP>  (1) 
0

>  <PUBCHEM_SHAPE_FINGERPRINT>  (1) 
21015797 1 18125157396741696421

>  <PUBCHEM_SHAPE_MULTIPOLES>  (1) 
48.6
1.23
0.64
0.54
0.06
0.08
0
-0.17
0
-0.01
0
-0.01
0.02
0

>  <PUBCHEM_SHAPE_SELFOVERLAP>  (1) 
78.879

>  <PUBCHEM_SHAPE_VOLUME>  (1) 
33.7

>  <PUBCHEM_COORDINATE_TYPE>  (1) 
2
5
10

$$$$
