15155
     RDKit          3D

 10 11  0  0  0  0  0  0  0  0999 V2000
    0.1798   -2.3690    0.0003 O   0  0  0  0  0  0  0  0  0  0  0  0
   -2.8642    1.0848    0.0002 O   0  0  0  0  0  0  0  0  0  0  0  0
   -1.5485   -0.8379   -0.0007 N   0  0  0  0  0  0  0  0  0  0  0  0
    0.6118    0.1148    0.0003 C   0  0  0  0  0  0  0  0  0  0  0  0
    1.7385    0.2498   -1.0674 C   0  0  0  0  0  0  0  0  0  0  0  0
    1.7395    0.2496    1.0671 C   0  0  0  0  0  0  0  0  0  0  0  0
    2.5876    0.9651   -0.0006 C   0  0  0  0  0  0  0  0  0  0  0  0
   -0.4409    1.2313    0.0009 C   0  0  0  0  0  0  0  0  0  0  0  0
   -0.2250   -1.2117    0.0002 C   0  0  0  0  0  0  0  0  0  0  0  0
   -1.7785    0.5231   -0.0003 C   0  0  0  0  0  0  0  0  0  0  0  0
  1  9  2  0
  2 10  2  0
  3  9  1  0
  3 10  1  0
  4  5  1  0
  4  6  1  0
  4  8  1  0
  4  9  1  0
  5  7  1  0
  6  7  1  0
  8 10  1  0
M  END
>  <PUBCHEM_COMPOUND_CID>  (1) 
15155

>  <PUBCHEM_CONFORMER_RMSD>  (1) 
0.4

>  <PUBCHEM_CONFORMER_DIVERSEORDER>  (1) 
1

>  <PUBCHEM_MMFF94_PARTIAL_CHARGES>  (1) 
8
1 -0.57
10 0.57
19 0.37
2 -0.57
3 -0.49
4 0.05
8 0.06
9 0.58

>  <PUBCHEM_EFFECTIVE_ROTOR_COUNT>  (1) 
1

>  <PUBCHEM_PHARMACOPHORE_FEATURES>  (1) 
5
1 1 acceptor
1 2 acceptor
1 3 donor
4 4 5 6 7 rings
5 3 4 8 9 10 rings

>  <PUBCHEM_HEAVY_ATOM_COUNT>  (1) 
10

>  <PUBCHEM_ATOM_DEF_STEREO_COUNT>  (1) 
0

>  <PUBCHEM_ATOM_UDEF_STEREO_COUNT>  (1) 
0

>  <PUBCHEM_BOND_DEF_STEREO_COUNT>  (1) 
0

>  <PUBCHEM_BOND_UDEF_STEREO_COUNT>  (1) 
0

>  <PUBCHEM_ISOTOPIC_ATOM_COUNT>  (1) 
0

>  <PUBCHEM_COMPONENT_COUNT>  (1) 
1

>  <PUBCHEM_CACTVS_TAUTO_COUNT>  (1) 
3

>  <PUBCHEM_CONFORMER_ID>  (1) 
00003B3300000001

>  <PUBCHEM_MMFF94_ENERGY>  (1) 
21.2971

>  <PUBCHEM_FEATURE_SELFOVERLAP>  (1) 
25.406

>  <PUBCHEM_SHAPE_FINGERPRINT>  (1) 
12716758 59 18340214106266327524
16945 1 18194682553476274086
18185500 45 17825377746399490386
20645464 45 18059286681998764832
20871998 184 17983302817594950966
21040471 1 18410574006689617126
23235685 24 18409729547378907725
23552423 10 18335422309616740335
241688 4 16968014437456961578
2748010 2 18410863161073355327
29004967 10 16200160910444026356
369184 2 18340481278759414424
5084963 1 18130794472614115368

>  <PUBCHEM_SHAPE_MULTIPOLES>  (1) 
189.08
3.21
1.64
0.84
0.37
0.95
0
-1.43
0
0.41
0
-0.45
-0.05
0

>  <PUBCHEM_SHAPE_SELFOVERLAP>  (1) 
397.372

>  <PUBCHEM_SHAPE_VOLUME>  (1) 
108.6

>  <PUBCHEM_COORDINATE_TYPE>  (1) 
2
5
10

$$$$
