15167
     RDKit          3D

  9  9  0  0  0  0  0  0  0  0999 V2000
    1.4981    0.4801    0.3193 C   0  0  0  0  0  0  0  0  0  0  0  0
    0.4958    1.4045   -0.3932 C   0  0  0  0  0  0  0  0  0  0  0  0
    0.9163   -0.7747    0.9884 C   0  0  0  0  0  0  0  0  0  0  0  0
   -0.8009    1.6788    0.3710 C   0  0  0  0  0  0  0  0  0  0  0  0
    0.2577   -1.8185    0.0889 C   0  0  0  0  0  0  0  0  0  0  0  0
   -2.0151    0.9008   -0.1412 C   0  0  0  0  0  0  0  0  0  0  0  0
   -0.9772   -1.3882   -0.7015 C   0  0  0  0  0  0  0  0  0  0  0  0
   -2.0189   -0.6097    0.1027 C   0  0  0  0  0  0  0  0  0  0  0  0
    2.6443    0.1268   -0.6344 C   0  0  0  0  0  0  0  0  0  0  0  0
  1  2  1  0
  1  3  1  0
  1  9  1  0
  2  4  1  0
  3  5  1  0
  4  6  1  0
  5  7  1  0
  6  8  1  0
  7  8  1  0
M  END
>  <PUBCHEM_COMPOUND_CID>  (1) 
15167

>  <PUBCHEM_CONFORMER_RMSD>  (1) 
0.4

>  <PUBCHEM_CONFORMER_DIVERSEORDER>  (1) 
1
2
10
15
4
13
16
11
7
3
14
9
5
6
12
8

>  <PUBCHEM_MMFF94_PARTIAL_CHARGES>  (1) 
0

>  <PUBCHEM_EFFECTIVE_ROTOR_COUNT>  (1) 
1.6

>  <PUBCHEM_PHARMACOPHORE_FEATURES>  (1) 
0

>  <PUBCHEM_HEAVY_ATOM_COUNT>  (1) 
9

>  <PUBCHEM_ATOM_DEF_STEREO_COUNT>  (1) 
0

>  <PUBCHEM_ATOM_UDEF_STEREO_COUNT>  (1) 
0

>  <PUBCHEM_BOND_DEF_STEREO_COUNT>  (1) 
0

>  <PUBCHEM_BOND_UDEF_STEREO_COUNT>  (1) 
0

>  <PUBCHEM_ISOTOPIC_ATOM_COUNT>  (1) 
0

>  <PUBCHEM_COMPONENT_COUNT>  (1) 
1

>  <PUBCHEM_CACTVS_TAUTO_COUNT>  (1) 
1

>  <PUBCHEM_CONFORMER_ID>  (1) 
00003B3F00000001

>  <PUBCHEM_MMFF94_ENERGY>  (1) 
17.0841

>  <PUBCHEM_FEATURE_SELFOVERLAP>  (1) 
0

>  <PUBCHEM_SHAPE_FINGERPRINT>  (1) 
10353120 184 18263371437160237855
16714656 1 18412831295471474236
16945 1 18411697681755914737
18185500 45 18337096964683606211
21040471 1 18268420257110691985
23235685 24 18339922610904360781
23552423 10 18190459552794639348
241688 4 15889965195261649993
2748010 2 18122337149622211805
5084963 1 18130511941186317195
66348 1 18339075982523948769

>  <PUBCHEM_SHAPE_MULTIPOLES>  (1) 
185.22
2.85
1.96
0.87
0.54
0.11
-0.04
-0.27
0.4
-0.42
0.02
0.17
0.1
-0.23

>  <PUBCHEM_SHAPE_SELFOVERLAP>  (1) 
346.128

>  <PUBCHEM_SHAPE_VOLUME>  (1) 
114.1

>  <PUBCHEM_COORDINATE_TYPE>  (1) 
2
5
10

$$$$
