15173
     RDKit          3D

 12 12  0  0  0  0  0  0  0  0999 V2000
   -1.0839    1.9742   -0.4554 O   0  0  0  0  0  0  0  0  0  0  0  0
    4.5552   -0.3763    0.3017 O   0  0  0  0  0  0  0  0  0  0  0  0
   -0.2676   -0.2731   -0.2144 C   0  0  0  0  0  0  0  0  0  0  0  0
   -1.3148    0.6480   -0.2374 C   0  0  0  0  0  0  0  0  0  0  0  0
   -0.5317   -1.6240    0.0111 C   0  0  0  0  0  0  0  0  0  0  0  0
   -2.6263    0.2182   -0.0347 C   0  0  0  0  0  0  0  0  0  0  0  0
   -1.8432   -2.0539    0.2138 C   0  0  0  0  0  0  0  0  0  0  0  0
   -2.8904   -1.1326    0.1910 C   0  0  0  0  0  0  0  0  0  0  0  0
    1.1104    0.1506   -0.4227 C   0  0  0  0  0  0  0  0  0  0  0  0
    2.1970   -0.4319    0.1250 C   0  0  0  0  0  0  0  0  0  0  0  0
   -0.8415    2.7854    0.6915 C   0  0  0  0  0  0  0  0  0  0  0  0
    3.5368    0.1155   -0.1696 C   0  0  0  0  0  0  0  0  0  0  0  0
  1  4  1  0
  1 11  1  0
  2 12  2  0
  3  4  2  0
  3  5  1  0
  3  9  1  0
  4  6  1  0
  5  7  2  0
  6  8  2  0
  7  8  1  0
  9 10  2  0
 10 12  1  0
M  END
>  <PUBCHEM_COMPOUND_CID>  (1) 
15173

>  <PUBCHEM_CONFORMER_RMSD>  (1) 
0.6

>  <PUBCHEM_CONFORMER_DIVERSEORDER>  (1) 
1
4
5
2
6
3

>  <PUBCHEM_MMFF94_PARTIAL_CHARGES>  (1) 
19
1 -0.36
10 -0.14
11 0.28
12 0.5
13 0.15
14 0.15
15 0.15
16 0.15
17 0.15
18 0.15
2 -0.57
22 0.06
3 0.03
4 0.08
5 -0.15
6 -0.15
7 -0.15
8 -0.15
9 -0.18

>  <PUBCHEM_EFFECTIVE_ROTOR_COUNT>  (1) 
3

>  <PUBCHEM_PHARMACOPHORE_FEATURES>  (1) 
3
1 1 acceptor
1 2 acceptor
6 3 4 5 6 7 8 rings

>  <PUBCHEM_HEAVY_ATOM_COUNT>  (1) 
12

>  <PUBCHEM_ATOM_DEF_STEREO_COUNT>  (1) 
0

>  <PUBCHEM_ATOM_UDEF_STEREO_COUNT>  (1) 
0

>  <PUBCHEM_BOND_DEF_STEREO_COUNT>  (1) 
0

>  <PUBCHEM_BOND_UDEF_STEREO_COUNT>  (1) 
1

>  <PUBCHEM_ISOTOPIC_ATOM_COUNT>  (1) 
0

>  <PUBCHEM_COMPONENT_COUNT>  (1) 
1

>  <PUBCHEM_CACTVS_TAUTO_COUNT>  (1) 
1

>  <PUBCHEM_CONFORMER_ID>  (1) 
00003B4500000001

>  <PUBCHEM_MMFF94_ENERGY>  (1) 
40.3235

>  <PUBCHEM_FEATURE_SELFOVERLAP>  (1) 
15.223

>  <PUBCHEM_SHAPE_FINGERPRINT>  (1) 
11680986 33 17905885134805423739
13024252 1 15646772288726334495
14614273 12 18116711816238113109
16945 1 18337119994403885399
17846911 113 18412261705630579505
193761 8 17833834867944857367
20510252 161 18341895143169747104
20871998 184 18343304785769925351
21029758 11 18341606079507966181
21524375 3 17552630353414040377
21650355 55 18338510953817042306
2297311 6 18341628031238810126
2306618 200 17968082084879075796
23402539 116 18272925034086784959
23552423 10 17470456600023856823
23559900 14 18412256234522629056
2748010 2 18195239142831017501
3312278 4 18259984894139237138
43471831 8 18188487978154616402
5493415 88 18119250811972452219
7364860 26 17693098873932043849
75552 356 18408041822826241246
81228 2 18338533957551051361

>  <PUBCHEM_SHAPE_MULTIPOLES>  (1) 
235.22
5.47
2.31
0.7
7.28
1.47
0.01
-1.57
0.44
-1.69
0.41
-0.03
0.11
0.02

>  <PUBCHEM_SHAPE_SELFOVERLAP>  (1) 
483.659

>  <PUBCHEM_SHAPE_VOLUME>  (1) 
135.7

>  <PUBCHEM_COORDINATE_TYPE>  (1) 
2
5
10

$$$$
