15175
     RDKit          3D

 23 25  0  0  1  0  0  0  0  0999 V2000
    5.6395    0.7470   -0.0222 O   0  0  0  0  0  0  0  0  0  0  0  0
   -0.6652   -2.4501    2.0745 O   0  0  0  0  0  0  0  0  0  0  0  0
    2.8156    0.4052   -0.1233 N   0  0  0  0  0  0  0  0  0  0  0  0
   -2.3559   -3.0003    0.6377 N   0  0  0  0  0  0  0  0  0  0  0  0
   -0.4957   -1.6251   -0.2296 C   0  0  0  0  0  0  0  0  0  0  0  0
    0.8344   -0.9820    0.2902 C   0  0  0  0  0  0  0  0  0  0  0  0
    1.5952   -0.1237   -0.7288 C   0  0  0  0  0  0  0  0  0  0  0  0
   -1.4502   -0.5240   -0.7234 C   0  0  0  0  0  0  0  0  0  0  0  0
   -0.1429   -2.6944   -1.2923 C   0  0  0  0  0  0  0  0  0  0  0  0
    3.7077   -0.6863    0.2917 C   0  0  0  0  0  0  0  0  0  0  0  0
    3.5151    1.3002   -1.0556 C   0  0  0  0  0  0  0  0  0  0  0  0
   -1.1603   -2.3865    0.9496 C   0  0  0  0  0  0  0  0  0  0  0  0
   -1.8640    0.4831    0.1295 C   0  0  0  0  0  0  0  0  0  0  0  0
    4.9783   -0.1098    0.9095 C   0  0  0  0  0  0  0  0  0  0  0  0
    4.7910    1.8295   -0.4069 C   0  0  0  0  0  0  0  0  0  0  0  0
   -1.8459   -0.6199   -2.0389 C   0  0  0  0  0  0  0  0  0  0  0  0
   -2.7423    1.4661   -0.3857 C   0  0  0  0  0  0  0  0  0  0  0  0
   -1.4507    0.5659    1.4692 C   0  0  0  0  0  0  0  0  0  0  0  0
   -2.7092    0.3468   -2.5455 C   0  0  0  0  0  0  0  0  0  0  0  0
   -3.1554    1.3837   -1.7254 C   0  0  0  0  0  0  0  0  0  0  0  0
   -3.1814    2.5027    0.4539 C   0  0  0  0  0  0  0  0  0  0  0  0
   -1.8971    1.6026    2.2892 C   0  0  0  0  0  0  0  0  0  0  0  0
   -2.7609    2.5692    1.7825 C   0  0  0  0  0  0  0  0  0  0  0  0
  1 14  1  0
  1 15  1  0
  2 12  2  0
  3  7  1  0
  3 10  1  0
  3 11  1  0
  4 12  1  0
  5  6  1  0
  5  8  1  0
  5  9  1  0
  5 12  1  0
  6  7  1  0
  8 13  1  0
  8 16  2  0
 10 14  1  0
 11 15  1  0
 13 17  2  0
 13 18  1  0
 16 19  1  0
 17 20  1  0
 17 21  1  0
 18 22  2  0
 19 20  2  0
 21 23  2  0
 22 23  1  0
M  END
>  <PUBCHEM_COMPOUND_CID>  (1) 
15175

>  <PUBCHEM_CONFORMER_RMSD>  (1) 
0.8

>  <PUBCHEM_CONFORMER_DIVERSEORDER>  (1) 
1
23
16
9
18
34
2
21
6
22
25
35
33
27
20
32
7
29
36
17
3
4
28
26
8
14
19
13
24
5
30
10
15
12
31
11

>  <PUBCHEM_MMFF94_PARTIAL_CHARGES>  (1) 
28
1 -0.56
10 0.27
11 0.27
12 0.57
14 0.28
15 0.28
16 -0.15
18 -0.15
19 -0.15
2 -0.57
20 -0.15
21 -0.15
22 -0.15
23 -0.15
3 -0.81
39 0.15
4 -0.8
40 0.15
41 0.15
42 0.15
43 0.37
44 0.37
45 0.15
46 0.15
47 0.15
5 0.2
7 0.27
8 -0.14

>  <PUBCHEM_EFFECTIVE_ROTOR_COUNT>  (1) 
6.2

>  <PUBCHEM_PHARMACOPHORE_FEATURES>  (1) 
8
1 1 acceptor
1 2 acceptor
1 3 cation
1 4 donor
1 9 hydrophobe
6 1 3 10 11 14 15 rings
6 13 17 18 21 22 23 rings
6 8 13 16 17 19 20 rings

>  <PUBCHEM_HEAVY_ATOM_COUNT>  (1) 
23

>  <PUBCHEM_ATOM_DEF_STEREO_COUNT>  (1) 
0

>  <PUBCHEM_ATOM_UDEF_STEREO_COUNT>  (1) 
1

>  <PUBCHEM_BOND_DEF_STEREO_COUNT>  (1) 
0

>  <PUBCHEM_BOND_UDEF_STEREO_COUNT>  (1) 
0

>  <PUBCHEM_ISOTOPIC_ATOM_COUNT>  (1) 
0

>  <PUBCHEM_COMPONENT_COUNT>  (1) 
1

>  <PUBCHEM_CACTVS_TAUTO_COUNT>  (1) 
2

>  <PUBCHEM_CONFORMER_ID>  (1) 
00003B4700000001

>  <PUBCHEM_MMFF94_ENERGY>  (1) 
85.2399

>  <PUBCHEM_FEATURE_SELFOVERLAP>  (1) 
40.621

>  <PUBCHEM_SHAPE_FINGERPRINT>  (1) 
10291535 26 18060131085491042152
11315181 36 18342728655584868904
11370993 144 15430309188546409260
11640471 11 18057038008647087597
11725454 13 16155090722141400479
12173636 292 18271821128353874646
12633257 1 15430898513466981333
12788726 201 18267849756705978506
13004483 165 17025453354615803587
13583140 156 16805323284388515760
13994607 96 18272944833458920193
14142880 1 18409171025832115885
14251757 17 15984523530263285592
14468879 13 17560814185957540149
14674994 50 13913177910112517835
14713325 29 18059857285457671063
14787075 74 18341891892723431599
15534591 1 18130508531029620487
16945 1 17630296711600858183
19765921 60 18198336248243584249
20600515 1 17610085698970495443
21033648 29 17749936796428335748
21095088 737 17987226923340076336
21524375 3 18338794516116080295
21756936 100 18200886097165192792
22182937 141 18410018757797414264
22907989 373 18199188562743847684
2306618 200 18188771772249402239
23419403 2 17836919371955032347
283562 15 18189052173543117154
394222 165 17975112268175553507
4340502 62 18192165806685566681
469060 322 17532097278870895577
474 4 18197216949363923574
5104073 3 18115016516170459640
531348 171 16917077633788422244
59755656 520 18337678520335406378
7288768 16 18337124362259116193
81228 2 17825132495209206963
9981440 41 18059848450831300978

>  <PUBCHEM_SHAPE_MULTIPOLES>  (1) 
451.63
8.31
3.09
2.14
15.36
1.07
0.12
-5.85
0.9
-2.25
-1.15
-2.13
-0.04
-0.9

>  <PUBCHEM_SHAPE_SELFOVERLAP>  (1) 
968.925

>  <PUBCHEM_SHAPE_VOLUME>  (1) 
248.8

>  <PUBCHEM_COORDINATE_TYPE>  (1) 
2
5
10

$$$$
