15184
     RDKit          3D

 34 37  0  0  1  0  0  0  0  0999 V2000
   -2.3296    1.6598    2.2532 O   0  0  0  0  0  0  0  0  0  0  0  0
   -2.4327    4.8262    0.8692 O   0  0  0  0  0  0  0  0  0  0  0  0
   -3.8279   -2.9312   -1.6357 O   0  0  0  0  0  0  0  0  0  0  0  0
   -5.5726   -1.7981   -0.4212 O   0  0  0  0  0  0  0  0  0  0  0  0
    0.6974    3.4242   -1.3902 O   0  0  0  0  0  0  0  0  0  0  0  0
    3.4500   -2.3074   -1.6210 O   0  0  0  0  0  0  0  0  0  0  0  0
    1.7269   -2.2672    2.8477 O   0  0  0  0  0  0  0  0  0  0  0  0
    3.5648   -3.2014    0.9984 O   0  0  0  0  0  0  0  0  0  0  0  0
    2.1507    2.3054    0.0437 N   0  0  0  0  0  0  0  0  0  0  0  0
    3.2767    2.9365   -0.4587 N   0  0  0  0  0  0  0  0  0  0  0  0
   -0.2038    1.8701    0.1891 C   0  0  0  0  0  0  0  0  0  0  0  0
   -1.4786    2.7349    0.2193 C   0  0  0  0  0  0  0  0  0  0  0  0
   -0.4211    0.5312   -0.5726 C   0  0  0  0  0  0  0  0  0  0  0  0
   -2.6212    1.9480    0.8880 C   0  0  0  0  0  0  0  0  0  0  0  0
   -1.8320   -0.0466   -0.4846 C   0  0  0  0  0  0  0  0  0  0  0  0
   -2.8717    0.6317    0.1994 C   0  0  0  0  0  0  0  0  0  0  0  0
   -1.2429    4.0682    0.9430 C   0  0  0  0  0  0  0  0  0  0  0  0
    0.6512   -0.4733   -0.1501 C   0  0  0  0  0  0  0  0  0  0  0  0
    0.9135    2.6182   -0.4880 C   0  0  0  0  0  0  0  0  0  0  0  0
   -2.1180   -1.2602   -1.1446 C   0  0  0  0  0  0  0  0  0  0  0  0
   -4.1613    0.0710    0.2641 C   0  0  0  0  0  0  0  0  0  0  0  0
   -3.3961   -1.7730   -1.0667 C   0  0  0  0  0  0  0  0  0  0  0  0
   -4.3897   -1.1272   -0.3770 C   0  0  0  0  0  0  0  0  0  0  0  0
    0.7059   -0.9214    1.1699 C   0  0  0  0  0  0  0  0  0  0  0  0
    1.5751   -0.9417   -1.0842 C   0  0  0  0  0  0  0  0  0  0  0  0
    2.5536   -1.8580   -0.6987 C   0  0  0  0  0  0  0  0  0  0  0  0
    1.6843   -1.8377    1.5554 C   0  0  0  0  0  0  0  0  0  0  0  0
   -5.2092   -2.9417   -1.2211 C   0  0  0  0  0  0  0  0  0  0  0  0
    2.6081   -2.3060    0.6211 C   0  0  0  0  0  0  0  0  0  0  0  0
    4.2174    1.9518   -0.9757 C   0  0  0  0  0  0  0  0  0  0  0  0
    5.4622    2.6215   -1.5328 C   0  0  0  0  0  0  0  0  0  0  0  0
    3.3244   -1.7993   -2.9477 C   0  0  0  0  0  0  0  0  0  0  0  0
    0.7463   -1.7393    3.7386 C   0  0  0  0  0  0  0  0  0  0  0  0
    4.7998   -2.6681    1.4704 C   0  0  0  0  0  0  0  0  0  0  0  0
  1 14  1  0
  2 17  1  0
  3 22  1  0
  3 28  1  0
  4 23  1  0
  4 28  1  0
  5 19  2  0
  6 26  1  0
  6 32  1  0
  7 27  1  0
  7 33  1  0
  8 29  1  0
  8 34  1  0
  9 10  1  0
  9 19  1  0
 10 30  1  0
 11 12  1  0
 11 13  1  0
 11 19  1  0
 12 14  1  0
 12 17  1  0
 13 15  1  0
 13 18  1  0
 14 16  1  0
 15 16  2  0
 15 20  1  0
 16 21  1  0
 18 24  2  0
 18 25  1  0
 20 22  2  0
 21 23  2  0
 22 23  1  0
 24 27  1  0
 25 26  2  0
 26 29  1  0
 27 29  2  0
 30 31  1  0
M  END
>  <PUBCHEM_COMPOUND_CID>  (1) 
15184

>  <PUBCHEM_CONFORMER_RMSD>  (1) 
1

>  <PUBCHEM_CONFORMER_DIVERSEORDER>  (1) 
2
63
73
45
61
23
59
68
98
82
80
42
56
79
3
90
85
43
46
4
11
83
47
74
86
70
95
60
53
24
75
71
30
84
93
72
66
97
18
58
88
54
48
36
78
94
12
25
81
14
17
76
22
67
40
9
69
29
19
27
37
21
1
15
62
77
33
34
57
44
32
28
92
5
20
38
8
39
10
64
13
52
91
49
6
31
65
87
50
41
7
55
26
96
35
51
16
89

>  <PUBCHEM_MMFF94_PARTIAL_CHARGES>  (1) 
40
1 -0.68
10 -0.64
11 0.06
13 0.29
14 0.42
15 -0.14
16 -0.14
17 0.28
18 -0.14
19 0.57
2 -0.68
20 -0.15
21 -0.15
22 0.08
23 0.08
24 -0.15
25 -0.15
26 0.08
27 0.08
28 0.56
29 0.08
3 -0.36
30 0.27
32 0.28
33 0.28
34 0.28
4 -0.36
41 0.15
42 0.15
43 0.4
44 0.15
45 0.15
46 0.37
47 0.4
5 -0.57
50 0.36
6 -0.36
7 -0.36
8 -0.36
9 -0.42

>  <PUBCHEM_EFFECTIVE_ROTOR_COUNT>  (1) 
10.4

>  <PUBCHEM_PHARMACOPHORE_FEATURES>  (1) 
16
1 1 acceptor
1 1 donor
1 10 donor
1 2 acceptor
1 2 donor
1 3 acceptor
1 4 acceptor
1 5 acceptor
1 6 acceptor
1 7 acceptor
1 8 acceptor
1 9 donor
5 3 4 22 23 28 rings
6 11 12 13 14 15 16 rings
6 15 16 20 21 22 23 rings
6 18 24 25 26 27 29 rings

>  <PUBCHEM_HEAVY_ATOM_COUNT>  (1) 
34

>  <PUBCHEM_ATOM_DEF_STEREO_COUNT>  (1) 
0

>  <PUBCHEM_ATOM_UDEF_STEREO_COUNT>  (1) 
4

>  <PUBCHEM_BOND_DEF_STEREO_COUNT>  (1) 
0

>  <PUBCHEM_BOND_UDEF_STEREO_COUNT>  (1) 
0

>  <PUBCHEM_ISOTOPIC_ATOM_COUNT>  (1) 
0

>  <PUBCHEM_COMPONENT_COUNT>  (1) 
1

>  <PUBCHEM_CACTVS_TAUTO_COUNT>  (1) 
2

>  <PUBCHEM_CONFORMER_ID>  (1) 
00003B5000000002

>  <PUBCHEM_MMFF94_ENERGY>  (1) 
117.5022

>  <PUBCHEM_FEATURE_SELFOVERLAP>  (1) 
82.878

>  <PUBCHEM_SHAPE_FINGERPRINT>  (1) 
10369192 42 16987694923560498074
11135609 187 18044372962114855332
11578080 2 17749655303780801765
11607047 403 13607740348779619167
12553582 1 18339927017899860231
12788726 201 18337681797981132579
13140716 1 18342166740349287737
14787075 74 18262519320128256116
17909252 39 17987532535948016598
1813 80 18341892978881218007
18681886 176 17700410570738671543
19026451 147 18336815485317671363
20511986 3 17534624806816006465
20587220 17 17332278754039674883
20600515 1 17615918371858078145
20691752 17 17895491249561777620
21033648 29 17339261334767698985
21133410 230 11943291705073962334
21421861 104 18410298012344572361
229495 10 16303470799398651684
23559900 14 17988644043303496647
283562 15 18339084916194055492
3380486 77 17325167799075796773
3383291 50 18193837266386408888
463206 1 18124318473912577855
5265222 85 16611665987682318558
57527585 103 17608687077076381760
59755656 215 18267305515576442157
70251023 43 18340498811148615747

>  <PUBCHEM_SHAPE_MULTIPOLES>  (1) 
642.79
9.47
5.47
2.41
1.79
4.44
-1.44
-5.01
3.82
-1.07
-0.51
-1.82
-1.94
-3.96

>  <PUBCHEM_SHAPE_SELFOVERLAP>  (1) 
1385.424

>  <PUBCHEM_SHAPE_VOLUME>  (1) 
352.7

>  <PUBCHEM_COORDINATE_TYPE>  (1) 
2
5
10

$$$$
