15189
     RDKit          3D

 29 32  0  0  0  0  0  0  0  0999 V2000
    3.8198   -1.5299   -0.0175 O   0  0  0  0  0  0  0  0  0  0  0  0
    2.4124   -3.3130   -0.1115 O   0  0  0  0  0  0  0  0  0  0  0  0
   -3.0562    3.3811    0.0084 O   0  0  0  0  0  0  0  0  0  0  0  0
   -3.7226   -3.4647   -0.2437 O   0  0  0  0  0  0  0  0  0  0  0  0
   -4.3584    1.4380   -0.0829 O   0  0  0  0  0  0  0  0  0  0  0  0
    1.5436    0.1777   -0.0033 C   0  0  0  0  0  0  0  0  0  0  0  0
    1.3871   -1.1683   -0.0540 C   0  0  0  0  0  0  0  0  0  0  0  0
    2.9164    0.7254    0.0432 C   0  0  0  0  0  0  0  0  0  0  0  0
    0.3392    1.0165   -0.0005 C   0  0  0  0  0  0  0  0  0  0  0  0
    4.0035   -0.1409    0.0347 C   0  0  0  0  0  0  0  0  0  0  0  0
    0.0520   -1.7684   -0.1038 C   0  0  0  0  0  0  0  0  0  0  0  0
    2.5568   -2.0948   -0.0636 C   0  0  0  0  0  0  0  0  0  0  0  0
    3.1836    2.1019    0.0970 C   0  0  0  0  0  0  0  0  0  0  0  0
   -0.1976    1.4477   -1.2060 C   0  0  0  0  0  0  0  0  0  0  0  0
   -0.2468    1.3677    1.2081 C   0  0  0  0  0  0  0  0  0  0  0  0
    5.3225    0.3157    0.0774 C   0  0  0  0  0  0  0  0  0  0  0  0
   -0.5490   -2.0075   -1.3339 C   0  0  0  0  0  0  0  0  0  0  0  0
   -0.6003   -2.0919    1.0800 C   0  0  0  0  0  0  0  0  0  0  0  0
    4.4992    2.5764    0.1403 C   0  0  0  0  0  0  0  0  0  0  0  0
    5.5682    1.6834    0.1305 C   0  0  0  0  0  0  0  0  0  0  0  0
   -1.3419    2.2451   -1.2029 C   0  0  0  0  0  0  0  0  0  0  0  0
   -1.3912    2.1652    1.2112 C   0  0  0  0  0  0  0  0  0  0  0  0
   -1.9387    2.6040    0.0057 C   0  0  0  0  0  0  0  0  0  0  0  0
   -1.8206   -2.5786   -1.3808 C   0  0  0  0  0  0  0  0  0  0  0  0
   -1.8720   -2.6629    1.0330 C   0  0  0  0  0  0  0  0  0  0  0  0
   -2.4822   -2.9061   -0.1974 C   0  0  0  0  0  0  0  0  0  0  0  0
   -4.2588    2.6571   -0.0393 C   0  0  0  0  0  0  0  0  0  0  0  0
   -4.3419   -3.7748    1.0038 C   0  0  0  0  0  0  0  0  0  0  0  0
   -5.4261    3.5989   -0.0323 C   0  0  0  0  0  0  0  0  0  0  0  0
  1 10  1  0
  1 12  1  0
  2 12  2  0
  3 23  1  0
  3 27  1  0
  4 26  1  0
  4 28  1  0
  5 27  2  0
  6  7  2  0
  6  8  1  0
  6  9  1  0
  7 11  1  0
  7 12  1  0
  8 10  2  0
  8 13  1  0
  9 14  2  0
  9 15  1  0
 10 16  1  0
 11 17  2  0
 11 18  1  0
 13 19  2  0
 14 21  1  0
 15 22  2  0
 16 20  2  0
 17 24  1  0
 18 25  2  0
 19 20  1  0
 21 23  2  0
 22 23  1  0
 24 26  2  0
 25 26  1  0
 27 29  1  0
M  END
>  <PUBCHEM_COMPOUND_CID>  (1) 
15189

>  <PUBCHEM_CONFORMER_RMSD>  (1) 
0.8

>  <PUBCHEM_CONFORMER_DIVERSEORDER>  (1) 
1
4
2
3

>  <PUBCHEM_MMFF94_PARTIAL_CHARGES>  (1) 
41
1 -0.23
10 0.08
11 0.03
12 0.71
13 -0.15
14 -0.15
15 -0.15
16 -0.15
17 -0.15
18 -0.15
19 -0.15
2 -0.57
20 -0.15
21 -0.15
22 -0.15
23 0.08
24 -0.15
25 -0.15
26 0.08
27 0.66
28 0.28
29 0.06
3 -0.23
30 0.15
31 0.15
32 0.15
33 0.15
34 0.15
35 0.15
36 0.15
37 0.15
38 0.15
39 0.15
4 -0.36
40 0.15
41 0.15
5 -0.57
6 -0.06
7 -0.01
8 0.03
9 0.03

>  <PUBCHEM_EFFECTIVE_ROTOR_COUNT>  (1) 
5

>  <PUBCHEM_PHARMACOPHORE_FEATURES>  (1) 
7
1 2 acceptor
1 4 acceptor
1 5 acceptor
6 1 6 7 8 10 12 rings
6 11 17 18 24 25 26 rings
6 8 10 13 16 19 20 rings
6 9 14 15 21 22 23 rings

>  <PUBCHEM_HEAVY_ATOM_COUNT>  (1) 
29

>  <PUBCHEM_ATOM_DEF_STEREO_COUNT>  (1) 
0

>  <PUBCHEM_ATOM_UDEF_STEREO_COUNT>  (1) 
0

>  <PUBCHEM_BOND_DEF_STEREO_COUNT>  (1) 
0

>  <PUBCHEM_BOND_UDEF_STEREO_COUNT>  (1) 
0

>  <PUBCHEM_ISOTOPIC_ATOM_COUNT>  (1) 
0

>  <PUBCHEM_COMPONENT_COUNT>  (1) 
1

>  <PUBCHEM_CACTVS_TAUTO_COUNT>  (1) 
1

>  <PUBCHEM_CONFORMER_ID>  (1) 
00003B5500000001

>  <PUBCHEM_MMFF94_ENERGY>  (1) 
116.1009

>  <PUBCHEM_FEATURE_SELFOVERLAP>  (1) 
35.55

>  <PUBCHEM_SHAPE_FINGERPRINT>  (1) 
10050765 1 18410293627958176106
104564 63 18339076124305355358
10688039 33 18118686753943783827
1100329 8 18121775037499091482
11370993 70 18266178327480473809
11513181 2 18202562848198056383
11578080 2 17345448531536600018
11582403 64 15723853413668009252
12156800 1 18193305024694930277
12422481 6 18196963104360390715
12741549 16 17391049792819313255
12788726 201 18191576652456008698
13004483 165 18123464140498188050
13140716 1 18338789036692450040
13149001 5 17911540709176009078
13540713 4 18272657848951376158
13590594 115 18051972816803598975
1361 2 18264769865944126061
13692114 37 18199446832286545015
138480 1 16825306607707320595
13965767 371 17697363669204616307
14028597 1 17604971775593701427
140371 6 17971480851556692810
14787075 74 18130214961647076653
14790565 3 18194124234035895580
14955137 171 17688315998415067498
15484559 13 17693094067826691149
15968369 153 17986651861657436209
17138139 8 17842521181951315501
18681886 176 17763172545287988378
19427546 62 18194684770096727853
19591789 44 17833267515148940798
20028762 73 17695898939559984863
20642791 105 18339635754745449104
20642791 13 18335700597859527742
21041028 32 18048316931797913463
21133410 38 17915755168179976883
21133410 62 18115287992880036831
21133410 90 17273985817214599971
21197605 99 18411427181370237243
21236236 1 18339359781521169164
21641784 216 18044104664092079756
23227448 37 18410855447586333348
23419403 2 17058924674476811905
23558518 356 18260268577229927586
23559900 14 18270678667654551338
23576562 1 18261973924571980820
283562 15 18265327494696175274
3178227 256 17905054650832654833
3380486 145 18265073455749415385
350125 39 18339645672120106992
38695281 34 18192711151183400073
4058900 60 18051983523693344577
4340502 62 18339928095657128349
469060 322 18189343544065714768
5104073 3 18336811088336453008
5171179 24 17557127712438112624
59755656 520 18335698300321140908
9777508 108 18411131446137019200

>  <PUBCHEM_SHAPE_MULTIPOLES>  (1) 
567.46
9.95
5.58
1.07
4.09
0.76
0.06
-4.84
-0.81
-8.11
-0.17
-0.6
0.24
0.6

>  <PUBCHEM_SHAPE_SELFOVERLAP>  (1) 
1261.021

>  <PUBCHEM_SHAPE_VOLUME>  (1) 
301.5

>  <PUBCHEM_COORDINATE_TYPE>  (1) 
2
5
10

$$$$
