1518
     RDKit          3D

 18 19  0  0  0  0  0  0  0  0999 V2000
   -0.6975   -1.0692    2.1077 O   0  0  0  0  0  0  0  0  0  0  0  0
   -3.9432    0.3819   -0.3637 N   0  0  0  0  0  0  0  0  0  0  0  0
   -2.8619    0.1337    0.6225 C   0  0  0  0  0  0  0  0  0  0  0  0
   -1.7368   -0.6579   -0.0309 C   0  0  0  0  0  0  0  0  0  0  0  0
   -4.5114   -0.9417   -0.8938 C   0  0  0  0  0  0  0  0  0  0  0  0
   -5.0926    1.1728    0.2759 C   0  0  0  0  0  0  0  0  0  0  0  0
   -3.4162    1.1877   -1.5589 C   0  0  0  0  0  0  0  0  0  0  0  0
   -0.5278   -0.9224    0.8834 C   0  0  0  0  0  0  0  0  0  0  0  0
    0.8131   -0.9896    0.3093 C   0  0  0  0  0  0  0  0  0  0  0  0
    1.6341    0.1424    0.1791 C   0  0  0  0  0  0  0  0  0  0  0  0
    2.9232    0.0007   -0.3876 C   0  0  0  0  0  0  0  0  0  0  0  0
    1.2565   -2.2432   -0.1133 C   0  0  0  0  0  0  0  0  0  0  0  0
    1.2041    1.4118    0.5988 C   0  0  0  0  0  0  0  0  0  0  0  0
    3.3534   -1.2687   -0.8070 C   0  0  0  0  0  0  0  0  0  0  0  0
    2.5243   -2.3826   -0.6701 C   0  0  0  0  0  0  0  0  0  0  0  0
    3.7444    1.1326   -0.5176 C   0  0  0  0  0  0  0  0  0  0  0  0
    2.0332    2.5255    0.4616 C   0  0  0  0  0  0  0  0  0  0  0  0
    3.3009    2.3862   -0.0956 C   0  0  0  0  0  0  0  0  0  0  0  0
  1  8  2  0
  2  3  1  0
  2  5  1  0
  2  6  1  0
  2  7  1  0
  3  4  1  0
  4  8  1  0
  8  9  1  0
  9 10  2  0
  9 12  1  0
 10 11  1  0
 10 13  1  0
 11 14  2  0
 11 16  1  0
 12 15  2  0
 13 17  2  0
 14 15  1  0
 16 18  2  0
 17 18  1  0
M  CHG  1   2   1
M  END
>  <PUBCHEM_COMPOUND_CID>  (1) 
1518

>  <PUBCHEM_CONFORMER_RMSD>  (1) 
0.6

>  <PUBCHEM_CONFORMER_DIVERSEORDER>  (1) 
1
15
9
13
12
8
14
16
6
11
17
5
10
2
3
7
4

>  <PUBCHEM_MMFF94_PARTIAL_CHARGES>  (1) 
23
1 -0.57
12 -0.15
13 -0.15
14 -0.15
15 -0.15
16 -0.15
17 -0.15
18 -0.15
2 -1.01
3 0.5
32 0.15
33 0.15
34 0.15
35 0.15
36 0.15
37 0.15
38 0.15
4 0.06
5 0.5
6 0.5
7 0.5
8 0.42
9 0.09

>  <PUBCHEM_EFFECTIVE_ROTOR_COUNT>  (1) 
4

>  <PUBCHEM_PHARMACOPHORE_FEATURES>  (1) 
4
1 1 acceptor
1 2 cation
6 10 11 13 16 17 18 rings
6 9 10 11 12 14 15 rings

>  <PUBCHEM_HEAVY_ATOM_COUNT>  (1) 
18

>  <PUBCHEM_ATOM_DEF_STEREO_COUNT>  (1) 
0

>  <PUBCHEM_ATOM_UDEF_STEREO_COUNT>  (1) 
0

>  <PUBCHEM_BOND_DEF_STEREO_COUNT>  (1) 
0

>  <PUBCHEM_BOND_UDEF_STEREO_COUNT>  (1) 
0

>  <PUBCHEM_ISOTOPIC_ATOM_COUNT>  (1) 
0

>  <PUBCHEM_COMPONENT_COUNT>  (1) 
1

>  <PUBCHEM_CACTVS_TAUTO_COUNT>  (1) 
2

>  <PUBCHEM_CONFORMER_ID>  (1) 
000005EE00000001

>  <PUBCHEM_MMFF94_ENERGY>  (1) 
67.3625

>  <PUBCHEM_FEATURE_SELFOVERLAP>  (1) 
20.324

>  <PUBCHEM_SHAPE_FINGERPRINT>  (1) 
10498660 4 17531235107610994997
10608611 8 18334861657528656331
10693767 8 17917439670779782286
10764073 3 17042266777337802256
11265709 11 17977101263209633370
11471102 20 18412267224874454062
11543360 7 18272085032978287823
116883 192 17840877278322059532
12654215 9 18409174320398864896
12670546 177 18340763827736587639
12730499 353 18335993038188497123
13009979 54 17273429265670990874
13134695 92 18339923693394271262
13294875 104 17894899703510274202
13464514 151 18407764733227391728
14250199 8 18412548682602892681
15210252 30 18040729055942036308
15502722 9 18343021107522334399
16752209 62 15482398551917312363
16945 1 18127155124256055138
18186145 218 18113900433841261379
18219364 16 18194702559729241064
19862831 5 17203335532559457411
20600515 1 15294603954194316699
20645477 70 18272657826527337862
21120745 212 16093446387465609178
21503847 285 18337112242331093377
21524375 3 18189888893253583026
21639500 275 18342740740741865312
221357 26 18338515219104864709
221490 88 18412269466594876519
22289505 5 18338793390998471637
22892500 29 18409451375532572406
231179 274 18040430005805434776
23402655 69 18343867710137950989
23503958 25 17531244994631075861
23526113 38 18189344476237564138
23557571 272 17750525151202606699
23559900 14 18343017757706702674
23598291 2 17559130786563671067
238 59 18272092746433297402
25 1 18409731785241270880
2748010 2 17838359710802038882
3009799 131 18337397037702554902
3060560 45 18272369750428635926
3082319 5 17847062168836012545
3323516 105 18409448068286396109
341906 21 15864343624071784373
3524813 1 18113897117773217845
4072396 5 18410566285293175386
427121 178 16950565467297419521
474 4 18260829353703336085
495365 180 18272644701518711984
5281201 14 18411702050117469703
543358 83 18271251512558455849
633830 44 18333730196129593803
6442390 28 17749119906538494995
7471813 234 17845931819337848056
84936 182 17917148415698061208

>  <PUBCHEM_SHAPE_MULTIPOLES>  (1) 
359.58
8.8
2.59
1.18
10.42
0.3
-0.17
2.67
2.65
-2.65
0.12
0.65
-0.13
0.51

>  <PUBCHEM_SHAPE_SELFOVERLAP>  (1) 
756.609

>  <PUBCHEM_SHAPE_VOLUME>  (1) 
205.5

>  <PUBCHEM_COORDINATE_TYPE>  (1) 
2
5
10

$$$$
