15194
     RDKit          3D

  5  4  0  0  0  0  0  0  0  0999 V2000
    1.8738    0.1221   -0.0029 F   0  0  0  0  0  0  0  0  0  0  0  0
   -1.6138   -0.6831   -0.0023 F   0  0  0  0  0  0  0  0  0  0  0  0
   -0.5871    1.2493    0.0008 O   0  0  0  0  0  0  0  0  0  0  0  0
    0.8079   -0.7206    0.0033 C   0  0  0  0  0  0  0  0  0  0  0  0
   -0.4808    0.0323    0.0011 C   0  0  0  0  0  0  0  0  0  0  0  0
  1  4  1  0
  2  5  1  0
  3  5  2  0
  4  5  1  0
M  END
>  <PUBCHEM_COMPOUND_CID>  (1) 
15194

>  <PUBCHEM_CONFORMER_RMSD>  (1) 
0.4

>  <PUBCHEM_CONFORMER_DIVERSEORDER>  (1) 
1
3
2
4

>  <PUBCHEM_MMFF94_PARTIAL_CHARGES>  (1) 
5
1 -0.34
2 -0.22
3 -0.57
4 0.4
5 0.73

>  <PUBCHEM_EFFECTIVE_ROTOR_COUNT>  (1) 
1

>  <PUBCHEM_PHARMACOPHORE_FEATURES>  (1) 
0

>  <PUBCHEM_HEAVY_ATOM_COUNT>  (1) 
5

>  <PUBCHEM_ATOM_DEF_STEREO_COUNT>  (1) 
0

>  <PUBCHEM_ATOM_UDEF_STEREO_COUNT>  (1) 
0

>  <PUBCHEM_BOND_DEF_STEREO_COUNT>  (1) 
0

>  <PUBCHEM_BOND_UDEF_STEREO_COUNT>  (1) 
0

>  <PUBCHEM_ISOTOPIC_ATOM_COUNT>  (1) 
0

>  <PUBCHEM_COMPONENT_COUNT>  (1) 
1

>  <PUBCHEM_CACTVS_TAUTO_COUNT>  (1) 
1

>  <PUBCHEM_CONFORMER_ID>  (1) 
00003B5A00000001

>  <PUBCHEM_MMFF94_ENERGY>  (1) 
0.0221

>  <PUBCHEM_FEATURE_SELFOVERLAP>  (1) 
0

>  <PUBCHEM_SHAPE_FINGERPRINT>  (1) 
139733 1 9223241744869445571
20096714 4 17977668610760510080
21015797 1 9655278346245127667
5943 1 13857972844189013237

>  <PUBCHEM_SHAPE_MULTIPOLES>  (1) 
82.48
1.82
1.02
0.54
0.45
0.16
0
-0.15
0
-0.23
0
0.01
-0.02
0

>  <PUBCHEM_SHAPE_SELFOVERLAP>  (1) 
147.728

>  <PUBCHEM_SHAPE_VOLUME>  (1) 
53.4

>  <PUBCHEM_COORDINATE_TYPE>  (1) 
2
5
10

$$$$
