15208
     RDKit          3D

  9  8  0  0  0  0  0  0  0  0999 V2000
   -1.7748    1.2752    0.5970 F   0  0  0  0  0  0  0  0  0  0  0  0
   -2.9379   -0.5668    0.4835 F   0  0  0  0  0  0  0  0  0  0  0  0
   -1.9715    0.2301   -1.3071 F   0  0  0  0  0  0  0  0  0  0  0  0
    0.5470   -0.0380   -0.1476 O   0  0  0  0  0  0  0  0  0  0  0  0
   -0.5890   -0.7389    0.3411 C   0  0  0  0  0  0  0  0  0  0  0  0
   -1.8306    0.0531    0.0235 C   0  0  0  0  0  0  0  0  0  0  0  0
    1.7498   -0.7480    0.1113 C   0  0  0  0  0  0  0  0  0  0  0  0
    2.8976    0.0409   -0.4255 C   0  0  0  0  0  0  0  0  0  0  0  0
    3.9094    0.4924    0.3238 C   0  0  0  0  0  0  0  0  0  0  0  0
  1  6  1  0
  2  6  1  0
  3  6  1  0
  4  5  1  0
  4  7  1  0
  5  6  1  0
  7  8  1  0
  8  9  2  0
M  END
>  <PUBCHEM_COMPOUND_CID>  (1) 
15208

>  <PUBCHEM_CONFORMER_RMSD>  (1) 
0.6

>  <PUBCHEM_CONFORMER_DIVERSEORDER>  (1) 
1
6
4
5
7
3
2

>  <PUBCHEM_MMFF94_PARTIAL_CHARGES>  (1) 
12
1 -0.34
14 0.15
15 0.15
16 0.15
2 -0.34
3 -0.34
4 -0.56
5 0.28
6 1.02
7 0.42
8 -0.29
9 -0.3

>  <PUBCHEM_EFFECTIVE_ROTOR_COUNT>  (1) 
4

>  <PUBCHEM_PHARMACOPHORE_FEATURES>  (1) 
2
1 4 acceptor
1 9 hydrophobe

>  <PUBCHEM_HEAVY_ATOM_COUNT>  (1) 
9

>  <PUBCHEM_ATOM_DEF_STEREO_COUNT>  (1) 
0

>  <PUBCHEM_ATOM_UDEF_STEREO_COUNT>  (1) 
0

>  <PUBCHEM_BOND_DEF_STEREO_COUNT>  (1) 
0

>  <PUBCHEM_BOND_UDEF_STEREO_COUNT>  (1) 
0

>  <PUBCHEM_ISOTOPIC_ATOM_COUNT>  (1) 
0

>  <PUBCHEM_COMPONENT_COUNT>  (1) 
1

>  <PUBCHEM_CACTVS_TAUTO_COUNT>  (1) 
1

>  <PUBCHEM_CONFORMER_ID>  (1) 
00003B6800000001

>  <PUBCHEM_MMFF94_ENERGY>  (1) 
8.4343

>  <PUBCHEM_FEATURE_SELFOVERLAP>  (1) 
10.148

>  <PUBCHEM_SHAPE_FINGERPRINT>  (1) 
12897270 3 14908179746572039370
12932741 1 14045442441452332570
12932764 1 16988837259542199866
14325111 11 18410858741894795042
14390081 3 18343302557040256792
15310529 11 17846782862390713310
3248919 1 18410852136240394490
5460574 1 10303814272056524122

>  <PUBCHEM_SHAPE_MULTIPOLES>  (1) 
157.53
5.81
0.91
0.81
3.37
0.04
-0.14
0.82
0.33
-0.16
0.12
-0.24
0.09
0.09

>  <PUBCHEM_SHAPE_SELFOVERLAP>  (1) 
294.237

>  <PUBCHEM_SHAPE_VOLUME>  (1) 
99.4

>  <PUBCHEM_COORDINATE_TYPE>  (1) 
2
5
10

$$$$
