15206
     RDKit          3D

  9  8  0  0  0  0  0  0  0  0999 V2000
    2.4680    0.1984   -1.6269 Br  0  0  0  0  0  0  0  0  0  0  0  0
   -2.0133    2.1424   -0.1061 Br  0  0  0  0  0  0  0  0  0  0  0  0
   -1.9713   -2.1122   -0.5053 Br  0  0  0  0  0  0  0  0  0  0  0  0
    1.3644   -0.2739    2.0615 O   0  0  0  0  0  0  0  0  0  0  0  0
    0.0199    0.0009    0.0197 C   0  0  0  0  0  0  0  0  0  0  0  0
    0.7522   -0.9774    0.9858 C   0  0  0  0  0  0  0  0  0  0  0  0
    1.0249    1.0148   -0.5967 C   0  0  0  0  0  0  0  0  0  0  0  0
   -0.9867    0.8122    0.8839 C   0  0  0  0  0  0  0  0  0  0  0  0
   -0.6581   -0.8052   -1.1159 C   0  0  0  0  0  0  0  0  0  0  0  0
  1  7  1  0
  2  8  1  0
  3  9  1  0
  4  6  1  0
  5  6  1  0
  5  7  1  0
  5  8  1  0
  5  9  1  0
M  END
>  <PUBCHEM_COMPOUND_CID>  (1) 
15206

>  <PUBCHEM_CONFORMER_RMSD>  (1) 
0.6

>  <PUBCHEM_CONFORMER_DIVERSEORDER>  (1) 
1
5
22
11
20
2
12
21
19
6
18
13
15
10
3
4
7
16
17
14
9
8

>  <PUBCHEM_MMFF94_PARTIAL_CHARGES>  (1) 
9
1 -0.23
18 0.4
2 -0.23
3 -0.23
4 -0.68
6 0.28
7 0.23
8 0.23
9 0.23

>  <PUBCHEM_EFFECTIVE_ROTOR_COUNT>  (1) 
4

>  <PUBCHEM_PHARMACOPHORE_FEATURES>  (1) 
5
1 1 hydrophobe
1 2 hydrophobe
1 3 hydrophobe
1 4 acceptor
1 4 donor

>  <PUBCHEM_HEAVY_ATOM_COUNT>  (1) 
9

>  <PUBCHEM_ATOM_DEF_STEREO_COUNT>  (1) 
0

>  <PUBCHEM_ATOM_UDEF_STEREO_COUNT>  (1) 
0

>  <PUBCHEM_BOND_DEF_STEREO_COUNT>  (1) 
0

>  <PUBCHEM_BOND_UDEF_STEREO_COUNT>  (1) 
0

>  <PUBCHEM_ISOTOPIC_ATOM_COUNT>  (1) 
0

>  <PUBCHEM_COMPONENT_COUNT>  (1) 
1

>  <PUBCHEM_CACTVS_TAUTO_COUNT>  (1) 
1

>  <PUBCHEM_CONFORMER_ID>  (1) 
00003B6600000001

>  <PUBCHEM_MMFF94_ENERGY>  (1) 
26.8514

>  <PUBCHEM_FEATURE_SELFOVERLAP>  (1) 
25.373

>  <PUBCHEM_SHAPE_FINGERPRINT>  (1) 
10702982 57 18189915144077930390
12423570 1 14224114983562461909
13024252 1 16953976281300240780
137420 1 12771119533080159328
13898156 1 18188196641752814215
14128692 85 17462246378868909914
14817 1 14503686645484233875
20711978 78 16226894311291131562
20711985 344 18342457084122352007
21040471 1 18127680535636211505
23211744 25 16887788026233811511
23211744 41 17393092444663237933
23552333 60 17677871595733780903
29004967 10 17338733977033938598
4369600 1 17833823155099529767
5084963 1 17901146058831928596
5943 1 10626239390906721504
68250623 7 17971221168932792778
68419 9 18260539017881714710

>  <PUBCHEM_SHAPE_MULTIPOLES>  (1) 
197.17
3.01
2.23
1.67
1.13
0.06
0.79
0.22
-1.31
-2.26
-0.52
0.86
-0.25
-0.35

>  <PUBCHEM_SHAPE_SELFOVERLAP>  (1) 
323.584

>  <PUBCHEM_SHAPE_VOLUME>  (1) 
141.7

>  <PUBCHEM_COORDINATE_TYPE>  (1) 
2
5
10

$$$$
