15210
     RDKit          3D

 16 17  0  0  0  0  0  0  0  0999 V2000
    0.2495   -0.7056   -1.4688 S   0  0  0  0  0  0  0  0  0  0  0  0
   -1.8339   -2.1877    1.0986 O   0  0  0  0  0  0  0  0  0  0  0  0
   -3.0608   -2.1117   -0.8133 O   0  0  0  0  0  0  0  0  0  0  0  0
   -0.8941    0.3728   -0.6138 C   0  0  0  0  0  0  0  0  0  0  0  0
   -2.0346   -0.1184    0.0217 C   0  0  0  0  0  0  0  0  0  0  0  0
    1.7548   -0.3981   -0.5592 C   0  0  0  0  0  0  0  0  0  0  0  0
   -0.6188    1.7401   -0.5938 C   0  0  0  0  0  0  0  0  0  0  0  0
   -2.8997    0.7580    0.6772 C   0  0  0  0  0  0  0  0  0  0  0  0
   -1.4838    2.6164    0.0617 C   0  0  0  0  0  0  0  0  0  0  0  0
   -2.6242    2.1253    0.6971 C   0  0  0  0  0  0  0  0  0  0  0  0
    1.8067   -0.6638    0.8076 C   0  0  0  0  0  0  0  0  0  0  0  0
    2.8738    0.1063   -1.2185 C   0  0  0  0  0  0  0  0  0  0  0  0
    2.9827   -0.4237    1.5183 C   0  0  0  0  0  0  0  0  0  0  0  0
    4.0498    0.3464   -0.5078 C   0  0  0  0  0  0  0  0  0  0  0  0
   -2.3715   -1.5375    0.0324 C   0  0  0  0  0  0  0  0  0  0  0  0
    4.1042    0.0813    0.8607 C   0  0  0  0  0  0  0  0  0  0  0  0
  1  4  1  0
  1  6  1  0
  2 15  1  0
  3 15  2  0
  4  5  2  0
  4  7  1  0
  5  8  1  0
  5 15  1  0
  6 11  2  0
  6 12  1  0
  7  9  2  0
  8 10  2  0
  9 10  1  0
 11 13  1  0
 12 14  2  0
 13 16  2  0
 14 16  1  0
M  END
>  <PUBCHEM_COMPOUND_CID>  (1) 
15210

>  <PUBCHEM_CONFORMER_RMSD>  (1) 
0.6

>  <PUBCHEM_CONFORMER_DIVERSEORDER>  (1) 
2
5
6
13
7
3
8
9
4
10
1
14
11
12

>  <PUBCHEM_MMFF94_PARTIAL_CHARGES>  (1) 
26
1 -0.2
10 -0.15
11 -0.15
12 -0.15
13 -0.15
14 -0.15
15 0.63
16 -0.15
17 0.15
18 0.15
19 0.15
2 -0.65
20 0.15
21 0.15
22 0.15
23 0.15
24 0.15
25 0.15
26 0.5
3 -0.57
4 0.1
5 0.09
6 0.1
7 -0.15
8 -0.15
9 -0.15

>  <PUBCHEM_EFFECTIVE_ROTOR_COUNT>  (1) 
3

>  <PUBCHEM_PHARMACOPHORE_FEATURES>  (1) 
5
1 2 acceptor
1 3 acceptor
3 2 3 15 anion
6 4 5 7 8 9 10 rings
6 6 11 12 13 14 16 rings

>  <PUBCHEM_HEAVY_ATOM_COUNT>  (1) 
16

>  <PUBCHEM_ATOM_DEF_STEREO_COUNT>  (1) 
0

>  <PUBCHEM_ATOM_UDEF_STEREO_COUNT>  (1) 
0

>  <PUBCHEM_BOND_DEF_STEREO_COUNT>  (1) 
0

>  <PUBCHEM_BOND_UDEF_STEREO_COUNT>  (1) 
0

>  <PUBCHEM_ISOTOPIC_ATOM_COUNT>  (1) 
0

>  <PUBCHEM_COMPONENT_COUNT>  (1) 
1

>  <PUBCHEM_CACTVS_TAUTO_COUNT>  (1) 
1

>  <PUBCHEM_CONFORMER_ID>  (1) 
00003B6A00000002

>  <PUBCHEM_MMFF94_ENERGY>  (1) 
49.0297

>  <PUBCHEM_FEATURE_SELFOVERLAP>  (1) 
25.429

>  <PUBCHEM_SHAPE_FINGERPRINT>  (1) 
10366900 7 18272362096807158218
11132069 177 18342179946735672893
11265709 11 18197214961369377431
12251169 10 18335143055248917516
12633257 1 18343019960760909200
12670545 47 17988923370564541369
12824470 246 17169280432175118467
13032168 30 17532378762654059322
13538477 17 18260831471042929324
13764800 53 18060139795326041552
14289901 80 18413110580489844954
14787075 74 17105955309766254934
15375462 189 17822303430115012753
15653759 3 18131915949089622106
15669948 3 18408327665753036933
16945 1 18341050722740460005
17844478 74 17846780740993198206
18186145 218 15554448513861476996
18219364 16 16702013193169481938
200 152 17458330970896879966
20525323 117 18408604751241503142
20645477 70 15502364613551811730
21650355 55 18409728491043643785
23402539 116 18343575244904218295
23419403 2 17835481128904347909
23493267 7 18200036123300695088
23557571 272 18201730560575749118
23559900 14 18270971120124520358
25 1 16128373732089954980
27216 239 17845918697986139480
4072396 5 17970641692873885009
6049 1 17561089111583799732
7097593 13 18043802088078037458
77492 1 17822016406256839966
81228 2 18410865339006616821
90316 7 18187646847337708956

>  <PUBCHEM_SHAPE_MULTIPOLES>  (1) 
321.38
6.65
2.24
1.33
5.07
0.26
0.02
0.17
1.32
-3.03
0.14
0.73
-0.25
-0.37

>  <PUBCHEM_SHAPE_SELFOVERLAP>  (1) 
677.62

>  <PUBCHEM_SHAPE_VOLUME>  (1) 
180.3

>  <PUBCHEM_COORDINATE_TYPE>  (1) 
2
5
10

$$$$
