15211
     RDKit          3D

 17 18  0  0  0  0  0  0  0  0999 V2000
    0.3247   -0.9726    1.0180 S   0  0  0  0  0  0  0  0  0  0  0  0
   -3.7287   -2.6672   -0.4390 O   0  0  0  0  0  0  0  0  0  0  0  0
   -3.6080   -0.9928    1.0894 O   0  0  0  0  0  0  0  0  0  0  0  0
   -1.6381    0.3965   -0.4104 C   0  0  0  0  0  0  0  0  0  0  0  0
   -0.5313    0.4852    0.4340 C   0  0  0  0  0  0  0  0  0  0  0  0
   -2.1752   -0.9184   -0.8784 C   0  0  0  0  0  0  0  0  0  0  0  0
   -2.2789    1.5571   -0.8445 C   0  0  0  0  0  0  0  0  0  0  0  0
   -0.0653    1.7344    0.8441 C   0  0  0  0  0  0  0  0  0  0  0  0
   -1.8128    2.8062   -0.4342 C   0  0  0  0  0  0  0  0  0  0  0  0
    1.9639   -0.6910    0.3684 C   0  0  0  0  0  0  0  0  0  0  0  0
   -0.7061    2.8949    0.4101 C   0  0  0  0  0  0  0  0  0  0  0  0
   -3.2315   -1.4965    0.0400 C   0  0  0  0  0  0  0  0  0  0  0  0
    2.1539   -0.5662   -1.0062 C   0  0  0  0  0  0  0  0  0  0  0  0
    3.0485   -0.5963    1.2379 C   0  0  0  0  0  0  0  0  0  0  0  0
    3.4344   -0.3461   -1.5138 C   0  0  0  0  0  0  0  0  0  0  0  0
    4.3289   -0.3760    0.7303 C   0  0  0  0  0  0  0  0  0  0  0  0
    4.5218   -0.2510   -0.6456 C   0  0  0  0  0  0  0  0  0  0  0  0
  1  5  1  0
  1 10  1  0
  2 12  1  0
  3 12  2  0
  4  5  2  0
  4  6  1  0
  4  7  1  0
  5  8  1  0
  6 12  1  0
  7  9  2  0
  8 11  2  0
  9 11  1  0
 10 13  2  0
 10 14  1  0
 13 15  1  0
 14 16  2  0
 15 17  2  0
 16 17  1  0
M  END
>  <PUBCHEM_COMPOUND_CID>  (1) 
15211

>  <PUBCHEM_CONFORMER_RMSD>  (1) 
0.6

>  <PUBCHEM_CONFORMER_DIVERSEORDER>  (1) 
2
33
20
52
37
29
14
50
25
30
43
19
46
44
45
42
32
53
23
26
48
34
12
31
41
10
38
13
40
9
27
16
51
3
24
15
18
36
28
5
17
6
35
4
54
21
39
8
47
1
7
22
11
49
55

>  <PUBCHEM_MMFF94_PARTIAL_CHARGES>  (1) 
27
1 -0.2
10 0.1
11 -0.15
12 0.66
13 -0.15
14 -0.15
15 -0.15
16 -0.15
17 -0.15
2 -0.65
20 0.15
21 0.15
22 0.15
23 0.15
24 0.15
25 0.15
26 0.15
27 0.15
28 0.15
29 0.5
3 -0.57
4 -0.14
5 0.1
6 0.2
7 -0.15
8 -0.15
9 -0.15

>  <PUBCHEM_EFFECTIVE_ROTOR_COUNT>  (1) 
4

>  <PUBCHEM_PHARMACOPHORE_FEATURES>  (1) 
5
1 2 acceptor
1 3 acceptor
3 2 3 12 anion
6 10 13 14 15 16 17 rings
6 4 5 7 8 9 11 rings

>  <PUBCHEM_HEAVY_ATOM_COUNT>  (1) 
17

>  <PUBCHEM_ATOM_DEF_STEREO_COUNT>  (1) 
0

>  <PUBCHEM_ATOM_UDEF_STEREO_COUNT>  (1) 
0

>  <PUBCHEM_BOND_DEF_STEREO_COUNT>  (1) 
0

>  <PUBCHEM_BOND_UDEF_STEREO_COUNT>  (1) 
0

>  <PUBCHEM_ISOTOPIC_ATOM_COUNT>  (1) 
0

>  <PUBCHEM_COMPONENT_COUNT>  (1) 
1

>  <PUBCHEM_CACTVS_TAUTO_COUNT>  (1) 
1

>  <PUBCHEM_CONFORMER_ID>  (1) 
00003B6B00000002

>  <PUBCHEM_MMFF94_ENERGY>  (1) 
41.9399

>  <PUBCHEM_FEATURE_SELFOVERLAP>  (1) 
25.43

>  <PUBCHEM_SHAPE_FINGERPRINT>  (1) 
10764073 3 15333262903370069267
11640471 11 17751363872215657164
12173636 292 17906446632728148541
12553582 1 18337388344161506251
12596599 1 18130235968289884603
12714826 92 18409449176556737293
12788726 201 18261673679980823033
12841375 25 18339359785810855279
13583140 156 17701227293515256010
13764800 53 18198624332774237817
14251764 30 18265353839694032803
14787075 74 18118118302327017512
14790565 3 17979914913454887289
16945 1 18267581308353877449
17349148 13 17603584110905971042
17357779 13 18058709395497114349
1741750 31 18051971424574838153
17492 89 18335981957194595986
1813 80 18270126836965368375
18186145 218 13118278153112522806
18222031 100 18129376167461248503
192875 21 17458344160946940596
200 152 17603867822996257026
20510252 161 18410294687960634122
20645476 183 17901661571108832117
20871999 31 18410567371344959773
21061003 4 17346593092812313281
21339142 36 18410005546551734885
21728266 224 18189596311940175906
22802520 49 17701262421482635134
23402539 116 18408318887309564198
23419403 2 17974536351135994316
23557571 272 18272930488489444240
23559900 14 18199180682175217518
23598288 3 18264192630923878803
238078 22 18188784970810834779
2748010 2 18197471082705811817
4340502 62 16300089883475963665
4921388 177 18200319792821227092
495365 180 13046208512150356544
6049 1 17917988352545266648
633830 44 14261057844881370354
7615 1 17749388114376668576
81228 2 18339095795239688729
84936 182 10883327268755017103
9709674 26 18056755425753502790

>  <PUBCHEM_SHAPE_MULTIPOLES>  (1) 
341.96
7.54
2.62
1.28
5.36
1.32
-0.07
-3.46
-0.89
-3.81
0.04
0.69
-0.12
0.07

>  <PUBCHEM_SHAPE_SELFOVERLAP>  (1) 
715.204

>  <PUBCHEM_SHAPE_VOLUME>  (1) 
193

>  <PUBCHEM_COORDINATE_TYPE>  (1) 
2
5
10

$$$$
