15225
     RDKit          3D

 19 20  0  0  0  0  0  0  0  0999 V2000
   -2.4608   -0.9958    0.2728 O   0  0  0  0  0  0  0  0  0  0  0  0
   -3.1062    0.7503    1.6345 O   0  0  0  0  0  0  0  0  0  0  0  0
    3.0877   -0.0029    0.1412 N   0  0  0  0  0  0  0  0  0  0  0  0
    1.6731   -0.1964   -0.1766 C   0  0  0  0  0  0  0  0  0  0  0  0
    1.2453   -1.6177    0.2080 C   0  0  0  0  0  0  0  0  0  0  0  0
    0.8124    0.8536    0.5372 C   0  0  0  0  0  0  0  0  0  0  0  0
   -0.2416   -1.8395   -0.0570 C   0  0  0  0  0  0  0  0  0  0  0  0
   -0.6737    0.6257    0.2727 C   0  0  0  0  0  0  0  0  0  0  0  0
   -1.1024   -0.7925    0.6463 C   0  0  0  0  0  0  0  0  0  0  0  0
    3.9170   -0.9644   -0.5990 C   0  0  0  0  0  0  0  0  0  0  0  0
    3.4943    1.3801   -0.1449 C   0  0  0  0  0  0  0  0  0  0  0  0
    5.3956   -0.8081   -0.2408 C   0  0  0  0  0  0  0  0  0  0  0  0
    4.9593    1.6131    0.2283 C   0  0  0  0  0  0  0  0  0  0  0  0
    5.8757    0.6196   -0.4767 C   0  0  0  0  0  0  0  0  0  0  0  0
   -3.3699   -0.1469    0.8457 C   0  0  0  0  0  0  0  0  0  0  0  0
   -4.7620   -0.5165    0.3798 C   0  0  0  0  0  0  0  0  0  0  0  0
   -5.2200    0.2837   -0.8495 C   0  0  0  0  0  0  0  0  0  0  0  0
   -5.2015    1.7897   -0.5756 C   0  0  0  0  0  0  0  0  0  0  0  0
   -4.3222   -0.0351   -2.0465 C   0  0  0  0  0  0  0  0  0  0  0  0
  1  9  1  0
  1 15  1  0
  2 15  2  0
  3  4  1  0
  3 10  1  0
  3 11  1  0
  4  5  1  0
  4  6  1  0
  5  7  1  0
  6  8  1  0
  7  9  1  0
  8  9  1  0
 10 12  1  0
 11 13  1  0
 12 14  1  0
 13 14  1  0
 15 16  1  0
 16 17  1  0
 17 18  1  0
 17 19  1  0
M  END
>  <PUBCHEM_COMPOUND_CID>  (1) 
15225

>  <PUBCHEM_CONFORMER_RMSD>  (1) 
0.8

>  <PUBCHEM_CONFORMER_DIVERSEORDER>  (1) 
1
15
126
104
124
112
118
83
11
33
28
45
75
103
110
122
66
84
111
3
80
93
25
102
71
10
2
26
114
74
41
21
90
96
49
64
29
19
101
70
4
17
116
115
8
63
92
98
77
16
65
127
73
88
54
58
67
12
56
113
18
100
119
36
35
7
105
31
14
68
57
62
117
37
20
109
42
81
24
47
44
32
27
89
87
6
9
91
69
55
22
76
51
79
94
72
23
53
78
95
128
86
13
48
107
120
39
59
123
85
5
30
106
121
82
43
60
38
97
99
40
108
125
46
34
61
50
52

>  <PUBCHEM_MMFF94_PARTIAL_CHARGES>  (1) 
9
1 -0.43
10 0.27
11 0.27
15 0.66
16 0.06
2 -0.57
3 -0.81
4 0.27
9 0.28

>  <PUBCHEM_EFFECTIVE_ROTOR_COUNT>  (1) 
7.4

>  <PUBCHEM_PHARMACOPHORE_FEATURES>  (1) 
5
1 2 acceptor
1 3 cation
3 17 18 19 hydrophobe
6 3 10 11 12 13 14 rings
6 4 5 6 7 8 9 rings

>  <PUBCHEM_HEAVY_ATOM_COUNT>  (1) 
19

>  <PUBCHEM_ATOM_DEF_STEREO_COUNT>  (1) 
0

>  <PUBCHEM_ATOM_UDEF_STEREO_COUNT>  (1) 
0

>  <PUBCHEM_BOND_DEF_STEREO_COUNT>  (1) 
0

>  <PUBCHEM_BOND_UDEF_STEREO_COUNT>  (1) 
0

>  <PUBCHEM_ISOTOPIC_ATOM_COUNT>  (1) 
0

>  <PUBCHEM_COMPONENT_COUNT>  (1) 
1

>  <PUBCHEM_CACTVS_TAUTO_COUNT>  (1) 
1

>  <PUBCHEM_CONFORMER_ID>  (1) 
00003B7900000001

>  <PUBCHEM_MMFF94_ENERGY>  (1) 
23.3874

>  <PUBCHEM_FEATURE_SELFOVERLAP>  (1) 
25.371

>  <PUBCHEM_SHAPE_FINGERPRINT>  (1) 
10014705 185 18261956348515427354
10763959 59 18113622283370075132
11089746 13 18408879642455283562
11128504 68 17346877879256249240
11401426 45 18412265051352191362
11471102 20 18413673517589850530
11543360 7 16128657478571511241
12236239 1 17775005682804714251
12403259 415 18336547204638301553
12596602 18 11963396232416924397
12670543 26 18340770355865123446
12969540 114 18334846234280114591
13288520 33 14620793812968074727
13533116 47 17703514307855367430
13583140 156 17313390062304531777
13675066 3 17895202137816482554
13740256 8 10807928280291394677
14251718 22 14836124377269194008
14251757 5 17059479889600380255
14251764 18 12757155688384284081
14341114 176 9295290560067969631
14528608 73 18272650155863115150
14573314 32 18187082836521402164
15099037 51 18409167727159854918
15183329 4 18261107443992421432
15196674 1 18340210790514976706
15209294 21 14129052604426819807
15716309 27 10807932674053663525
15788980 27 17821732753457533418
16079462 125 18187638146171485572
17834072 33 17489868254162758064
17834072 8 18410298012592394774
19489759 90 16732701666660208011
19784866 170 16805321076405910923
200 152 17989487416040240465
20281389 69 16805035207846481453
20300324 65 17203334403151890041
20645477 70 18343027666449358238
20871999 31 16056881325583195571
21033648 29 18114736126728788936
21054139 6 16988553619791313494
21150785 3 17346312747575590148
21709351 56 18260546770503568631
220451 1 15913337887447979982
23035841 295 15626507203016007471
231179 274 17967530172843846819
23402539 116 17632298960307381641
23402655 69 18201998790290140993
23557571 272 16733266742153261223
23559900 14 18200595912485312280
2838139 119 18409443678619115268
29717793 49 17560806498335234860
300161 21 18340766035623765778
3014965 18 18260545572761996442
34797466 226 15051735334726923144
3545911 37 18408327704798347211
3759504 43 18113901606030366459
4072396 5 18335127675530193610
465052 167 8718833093926503544
5104073 3 17676770864735928097
5283173 99 18334853870758834093
59755656 215 18261678078360091510
7495541 125 13829841444081935210
90127 26 17240491341897936184

>  <PUBCHEM_SHAPE_MULTIPOLES>  (1) 
374.29
14.24
1.64
1.13
1.95
0.03
-0.24
4.42
-3.51
0.47
0
-1.55
0.09
0.5

>  <PUBCHEM_SHAPE_SELFOVERLAP>  (1) 
746.547

>  <PUBCHEM_SHAPE_VOLUME>  (1) 
219.8

>  <PUBCHEM_COORDINATE_TYPE>  (1) 
2
5
10

$$$$
