15231
     RDKit          3D

  8  7  0  0  0  0  0  0  0  0999 V2000
   -3.0863    1.1036   -0.5562 Cl  0  0  0  0  0  0  0  0  0  0  0  0
    3.1875    0.5564   -0.0409 F   0  0  0  0  0  0  0  0  0  0  0  0
   -0.3072    0.1453    0.2829 O   0  0  0  0  0  0  0  0  0  0  0  0
    1.3185   -1.3269   -0.4420 O   0  0  0  0  0  0  0  0  0  0  0  0
   -1.3106   -0.8556    0.0832 C   0  0  0  0  0  0  0  0  0  0  0  0
   -2.6710   -0.2995    0.4610 C   0  0  0  0  0  0  0  0  0  0  0  0
    0.9667   -0.2327   -0.0223 C   0  0  0  0  0  0  0  0  0  0  0  0
    1.9024    0.9095    0.2342 C   0  0  0  0  0  0  0  0  0  0  0  0
  1  6  1  0
  2  8  1  0
  3  5  1  0
  3  7  1  0
  4  7  2  0
  5  6  1  0
  7  8  1  0
M  END
>  <PUBCHEM_COMPOUND_CID>  (1) 
15231

>  <PUBCHEM_CONFORMER_RMSD>  (1) 
0.6

>  <PUBCHEM_CONFORMER_DIVERSEORDER>  (1) 
1
8
22
31
9
3
26
24
28
15
25
11
19
17
29
32
20
21
14
30
2
6
16
23
13
4
18
12
5
27
7
10

>  <PUBCHEM_MMFF94_PARTIAL_CHARGES>  (1) 
8
1 -0.29
2 -0.34
3 -0.43
4 -0.57
5 0.28
6 0.29
7 0.66
8 0.4

>  <PUBCHEM_EFFECTIVE_ROTOR_COUNT>  (1) 
4

>  <PUBCHEM_PHARMACOPHORE_FEATURES>  (1) 
1
1 4 acceptor

>  <PUBCHEM_HEAVY_ATOM_COUNT>  (1) 
8

>  <PUBCHEM_ATOM_DEF_STEREO_COUNT>  (1) 
0

>  <PUBCHEM_ATOM_UDEF_STEREO_COUNT>  (1) 
0

>  <PUBCHEM_BOND_DEF_STEREO_COUNT>  (1) 
0

>  <PUBCHEM_BOND_UDEF_STEREO_COUNT>  (1) 
0

>  <PUBCHEM_ISOTOPIC_ATOM_COUNT>  (1) 
0

>  <PUBCHEM_COMPONENT_COUNT>  (1) 
1

>  <PUBCHEM_CACTVS_TAUTO_COUNT>  (1) 
1

>  <PUBCHEM_CONFORMER_ID>  (1) 
00003B7F00000001

>  <PUBCHEM_MMFF94_ENERGY>  (1) 
3.2021

>  <PUBCHEM_FEATURE_SELFOVERLAP>  (1) 
5.074

>  <PUBCHEM_SHAPE_FINGERPRINT>  (1) 
12897270 3 18130788975145686321
12932764 1 18272088331159606835
14325111 11 18339924917327880232
14390081 3 18409164407334920313
20651381 32 18271525299469827623
21040471 1 18270682111748889130
29004967 10 18410020952330387483
5460574 1 8574439707416791699

>  <PUBCHEM_SHAPE_MULTIPOLES>  (1) 
147.49
4.95
1.21
0.69
0.43
0
-0.01
-1.67
-0.22
0.13
-0.13
0.18
0
0.45

>  <PUBCHEM_SHAPE_SELFOVERLAP>  (1) 
261.932

>  <PUBCHEM_SHAPE_VOLUME>  (1) 
96.3

>  <PUBCHEM_COORDINATE_TYPE>  (1) 
2
5
10

$$$$
