15244
     RDKit          3D

 14 13  0  0  0  0  0  0  0  0999 V2000
   -1.8078    0.5776   -1.4971 F   0  0  0  0  0  0  0  0  0  0  0  0
   -2.6408    0.0069    0.4349 F   0  0  0  0  0  0  0  0  0  0  0  0
   -1.8247    2.0078    0.1453 F   0  0  0  0  0  0  0  0  0  0  0  0
    1.0597   -1.7618    0.4325 F   0  0  0  0  0  0  0  0  0  0  0  0
   -1.0965   -1.9961    0.6472 F   0  0  0  0  0  0  0  0  0  0  0  0
   -0.2300   -1.5799   -1.3070 F   0  0  0  0  0  0  0  0  0  0  0  0
   -0.1763    0.4285    1.6913 O   0  0  0  0  0  0  0  0  0  0  0  0
    2.9470    0.2858   -1.1914 O   0  0  0  0  0  0  0  0  0  0  0  0
    2.7544    0.7200    1.0254 O   0  0  0  0  0  0  0  0  0  0  0  0
   -0.2696    0.2057    0.2837 C   0  0  0  0  0  0  0  0  0  0  0  0
    0.8188    1.0353   -0.4261 C   0  0  0  0  0  0  0  0  0  0  0  0
   -1.6472    0.7032   -0.1604 C   0  0  0  0  0  0  0  0  0  0  0  0
   -0.1357   -1.2918    0.0084 C   0  0  0  0  0  0  0  0  0  0  0  0
    2.2487    0.6589   -0.0866 C   0  0  0  0  0  0  0  0  0  0  0  0
  1 12  1  0
  2 12  1  0
  3 12  1  0
  4 13  1  0
  5 13  1  0
  6 13  1  0
  7 10  1  0
  8 14  1  0
  9 14  2  0
 10 11  1  0
 10 12  1  0
 10 13  1  0
 11 14  1  0
M  END
>  <PUBCHEM_COMPOUND_CID>  (1) 
15244

>  <PUBCHEM_CONFORMER_RMSD>  (1) 
0.6

>  <PUBCHEM_CONFORMER_DIVERSEORDER>  (1) 
1
3
2

>  <PUBCHEM_MMFF94_PARTIAL_CHARGES>  (1) 
16
1 -0.34
10 0.28
11 0.06
12 1.02
13 1.02
14 0.66
17 0.4
18 0.5
2 -0.34
3 -0.34
4 -0.34
5 -0.34
6 -0.34
7 -0.68
8 -0.65
9 -0.57

>  <PUBCHEM_EFFECTIVE_ROTOR_COUNT>  (1) 
4

>  <PUBCHEM_PHARMACOPHORE_FEATURES>  (1) 
5
1 7 acceptor
1 7 donor
1 8 acceptor
1 9 acceptor
3 8 9 14 anion

>  <PUBCHEM_HEAVY_ATOM_COUNT>  (1) 
14

>  <PUBCHEM_ATOM_DEF_STEREO_COUNT>  (1) 
0

>  <PUBCHEM_ATOM_UDEF_STEREO_COUNT>  (1) 
0

>  <PUBCHEM_BOND_DEF_STEREO_COUNT>  (1) 
0

>  <PUBCHEM_BOND_UDEF_STEREO_COUNT>  (1) 
0

>  <PUBCHEM_ISOTOPIC_ATOM_COUNT>  (1) 
0

>  <PUBCHEM_COMPONENT_COUNT>  (1) 
1

>  <PUBCHEM_CACTVS_TAUTO_COUNT>  (1) 
1

>  <PUBCHEM_CONFORMER_ID>  (1) 
00003B8C00000001

>  <PUBCHEM_MMFF94_ENERGY>  (1) 
20.5314

>  <PUBCHEM_FEATURE_SELFOVERLAP>  (1) 
25.432

>  <PUBCHEM_SHAPE_FINGERPRINT>  (1) 
10702982 57 17678149716071832811
12423570 1 13002009707754588453
12716758 59 17989203759146322796
13024252 1 15068896533339875388
13839132 238 16734108920926176085
15775835 57 18341054029870526556
16945 1 18334860553743075793
20653085 51 18341907280937508700
21040471 1 18408886213576015296
23235685 24 18409736153001705172
2748010 2 18190746327803184813
369184 2 16415489280396587500
5084963 1 18269293355448272276
528886 8 18337108943258055265

>  <PUBCHEM_SHAPE_MULTIPOLES>  (1) 
226.86
3.3
1.74
1.19
1.53
0.62
0.03
-1.08
0.23
-0.56
-0.02
0.11
-0.01
0.11

>  <PUBCHEM_SHAPE_SELFOVERLAP>  (1) 
464.528

>  <PUBCHEM_SHAPE_VOLUME>  (1) 
130.9

>  <PUBCHEM_COORDINATE_TYPE>  (1) 
2
5
10

$$$$
