15247
     RDKit          3D

  7  7  0  0  1  0  0  0  0  0999 V2000
    0.0001    1.3181    0.0001 S   0  0  0  0  0  0  0  0  0  0  0  0
    0.7492   -1.2255    0.1333 C   0  0  0  0  0  0  0  0  0  0  0  0
   -0.7493   -1.2255   -0.1333 C   0  0  0  0  0  0  0  0  0  0  0  0
    1.2826    0.0926   -0.4200 C   0  0  0  0  0  0  0  0  0  0  0  0
   -1.2826    0.0927    0.4200 C   0  0  0  0  0  0  0  0  0  0  0  0
    2.6307    0.4737    0.1667 C   0  0  0  0  0  0  0  0  0  0  0  0
   -2.6307    0.4738   -0.1669 C   0  0  0  0  0  0  0  0  0  0  0  0
  1  4  1  0
  1  5  1  0
  2  3  1  0
  2  4  1  0
  3  5  1  0
  4  6  1  0
  5  7  1  0
M  END
>  <PUBCHEM_COMPOUND_CID>  (1) 
15247

>  <PUBCHEM_CONFORMER_RMSD>  (1) 
0.4

>  <PUBCHEM_CONFORMER_DIVERSEORDER>  (1) 
3
2
1
4

>  <PUBCHEM_MMFF94_PARTIAL_CHARGES>  (1) 
3
1 -0.46
4 0.23
5 0.23

>  <PUBCHEM_EFFECTIVE_ROTOR_COUNT>  (1) 
1

>  <PUBCHEM_PHARMACOPHORE_FEATURES>  (1) 
1
5 1 2 3 4 5 rings

>  <PUBCHEM_HEAVY_ATOM_COUNT>  (1) 
7

>  <PUBCHEM_ATOM_DEF_STEREO_COUNT>  (1) 
0

>  <PUBCHEM_ATOM_UDEF_STEREO_COUNT>  (1) 
2

>  <PUBCHEM_BOND_DEF_STEREO_COUNT>  (1) 
0

>  <PUBCHEM_BOND_UDEF_STEREO_COUNT>  (1) 
0

>  <PUBCHEM_ISOTOPIC_ATOM_COUNT>  (1) 
0

>  <PUBCHEM_COMPONENT_COUNT>  (1) 
1

>  <PUBCHEM_CACTVS_TAUTO_COUNT>  (1) 
1

>  <PUBCHEM_CONFORMER_ID>  (1) 
00003B8F00000003

>  <PUBCHEM_MMFF94_ENERGY>  (1) 
6.9848

>  <PUBCHEM_FEATURE_SELFOVERLAP>  (1) 
5.074

>  <PUBCHEM_SHAPE_FINGERPRINT>  (1) 
14390081 3 18344144782651915993
16714656 1 18410578396257054420
18185500 45 18410575106148497399
20096714 4 18410579499910668643
21040471 1 18410016541367254318
23235685 24 18410854360616735397
23552423 10 18261116309232350726
29004967 10 18113628862774298801
5084963 1 18270407229272528427

>  <PUBCHEM_SHAPE_MULTIPOLES>  (1) 
147.91
3.17
1.4
0.69
0
0.14
0
-0.69
0
0
0
0
-0.02
0.01

>  <PUBCHEM_SHAPE_SELFOVERLAP>  (1) 
267.493

>  <PUBCHEM_SHAPE_VOLUME>  (1) 
94.1

>  <PUBCHEM_COORDINATE_TYPE>  (1) 
2
5
10

$$$$
