15263
     RDKit          3D

 10 10  0  0  0  0  0  0  0  0999 V2000
    0.9082    0.6535    1.0093 C   0  0  0  0  0  0  0  0  0  0  0  0
   -0.4314    0.2803    0.4695 C   0  0  0  0  0  0  0  0  0  0  0  0
   -1.2388    1.2502   -0.1245 C   0  0  0  0  0  0  0  0  0  0  0  0
   -0.8767   -1.0384    0.5593 C   0  0  0  0  0  0  0  0  0  0  0  0
    2.0110    0.5230   -0.0104 C   0  0  0  0  0  0  0  0  0  0  0  0
   -2.4917    0.9014   -0.6288 C   0  0  0  0  0  0  0  0  0  0  0  0
   -2.1295   -1.3874    0.0549 C   0  0  0  0  0  0  0  0  0  0  0  0
   -2.9370   -0.4174   -0.5391 C   0  0  0  0  0  0  0  0  0  0  0  0
    3.0492   -0.3171    0.1119 C   0  0  0  0  0  0  0  0  0  0  0  0
    4.1368   -0.4480   -0.9020 C   0  0  0  0  0  0  0  0  0  0  0  0
  1  2  1  0
  1  5  1  0
  2  3  2  0
  2  4  1  0
  3  6  1  0
  4  7  2  0
  5  9  2  0
  6  8  2  0
  7  8  1  0
  9 10  1  0
M  END
>  <PUBCHEM_COMPOUND_CID>  (1) 
15263

>  <PUBCHEM_CONFORMER_RMSD>  (1) 
0.4

>  <PUBCHEM_CONFORMER_DIVERSEORDER>  (1) 
1
2
3

>  <PUBCHEM_MMFF94_PARTIAL_CHARGES>  (1) 
17
1 0.28
10 0.14
13 0.15
14 0.15
15 0.15
16 0.15
17 0.15
18 0.15
19 0.15
2 -0.14
3 -0.15
4 -0.15
5 -0.29
6 -0.15
7 -0.15
8 -0.15
9 -0.29

>  <PUBCHEM_EFFECTIVE_ROTOR_COUNT>  (1) 
2

>  <PUBCHEM_PHARMACOPHORE_FEATURES>  (1) 
2
1 10 hydrophobe
6 2 3 4 6 7 8 rings

>  <PUBCHEM_HEAVY_ATOM_COUNT>  (1) 
10

>  <PUBCHEM_ATOM_DEF_STEREO_COUNT>  (1) 
0

>  <PUBCHEM_ATOM_UDEF_STEREO_COUNT>  (1) 
0

>  <PUBCHEM_BOND_DEF_STEREO_COUNT>  (1) 
0

>  <PUBCHEM_BOND_UDEF_STEREO_COUNT>  (1) 
1

>  <PUBCHEM_ISOTOPIC_ATOM_COUNT>  (1) 
0

>  <PUBCHEM_COMPONENT_COUNT>  (1) 
1

>  <PUBCHEM_CACTVS_TAUTO_COUNT>  (1) 
1

>  <PUBCHEM_CONFORMER_ID>  (1) 
00003B9F00000001

>  <PUBCHEM_MMFF94_ENERGY>  (1) 
15.9395

>  <PUBCHEM_FEATURE_SELFOVERLAP>  (1) 
10.148

>  <PUBCHEM_SHAPE_FINGERPRINT>  (1) 
11127187 94 18412547617160905151
12032990 46 18265051504424525499
12251169 10 10735873971987876666
12716758 59 18409158931040485177
12897270 3 18334009518895159538
12932764 1 18113613482617867624
13024252 1 16732988634879004233
14390081 3 11530753804091356466
14993402 34 17458338650271804319
15775835 57 16877939408488927644
20201158 50 18202566159511903902
20279233 1 18202558488953332322
20528008 55 9295289426159673715
20645476 183 17385719214250590251
20653085 51 17675928702657825117
20671657 53 18131359592222444352
21061003 4 17131838680882846872
23403322 49 18059582326283854574
23552423 10 18114737256331028969
23559900 14 18341887464701749024
2748010 2 17901089039325602649
369184 2 10303821981528030265
528716 315 18040441013737958166
93112 12 18334296483088085436

>  <PUBCHEM_SHAPE_MULTIPOLES>  (1) 
205.8
5.93
1.28
0.92
5.49
0.09
-0.02
1.11
2.16
-0.75
-0.02
0.21
-0.03
0.37

>  <PUBCHEM_SHAPE_SELFOVERLAP>  (1) 
413.948

>  <PUBCHEM_SHAPE_VOLUME>  (1) 
116.9

>  <PUBCHEM_COORDINATE_TYPE>  (1) 
2
5
10

$$$$
