15260
     RDKit          3D

 12 11  0  0  1  0  0  0  0  0999 V2000
   -2.0493   -0.4413   -0.1971 O   0  0  0  0  0  0  0  0  0  0  0  0
   -4.5877    0.7175   -0.4061 O   0  0  0  0  0  0  0  0  0  0  0  0
    0.3531   -0.0963   -0.2784 C   0  0  0  0  0  0  0  0  0  0  0  0
    1.6628   -0.5253    0.4160 C   0  0  0  0  0  0  0  0  0  0  0  0
    0.2182    1.4275   -0.4969 C   0  0  0  0  0  0  0  0  0  0  0  0
    2.9244   -0.1476   -0.3672 C   0  0  0  0  0  0  0  0  0  0  0  0
   -0.8348   -0.6871    0.4986 C   0  0  0  0  0  0  0  0  0  0  0  0
    4.2172   -0.5926    0.3220 C   0  0  0  0  0  0  0  0  0  0  0  0
    0.2169    2.2658    0.7741 C   0  0  0  0  0  0  0  0  0  0  0  0
    5.4724   -0.2435   -0.4630 C   0  0  0  0  0  0  0  0  0  0  0  0
   -3.1659   -0.9855    0.4936 C   0  0  0  0  0  0  0  0  0  0  0  0
   -4.4272   -0.6915   -0.2957 C   0  0  0  0  0  0  0  0  0  0  0  0
  1  7  1  0
  1 11  1  0
  2 12  1  0
  3  4  1  0
  3  5  1  0
  3  7  1  0
  4  6  1  0
  5  9  1  0
  6  8  1  0
  8 10  1  0
 11 12  1  0
M  END
>  <PUBCHEM_COMPOUND_CID>  (1) 
15260

>  <PUBCHEM_CONFORMER_RMSD>  (1) 
0.8

>  <PUBCHEM_CONFORMER_DIVERSEORDER>  (1) 
2
126
148
8
56
51
137
119
114
32
7
136
102
131
138
143
44
151
1
98
144
45
47
87
63
147
33
38
150
108
116
109
145
140
133
120
141
95
99
64
107
142
139
39
125
27
101
48
81
43
50
34
57
132
100
129
17
14
41
88
92
128
40
83
135
123
4
77
134
78
112
115
52
122
94
30
73
104
72
93
12
103
67
26
124
71
22
3
68
117
19
61
62
42
146
97
149
85
69
46
15
74
28
82
58
111
23
113
5
6
24
118
121
65
130
59
25
90
89
110
29
20
54
76
55
80
36
37
16
53
13
49
70
66
10
31
127
11
35
96
75
84
9
79
21
60
86
91
18
105
106

>  <PUBCHEM_MMFF94_PARTIAL_CHARGES>  (1) 
6
1 -0.56
11 0.28
12 0.28
2 -0.68
34 0.4
7 0.28

>  <PUBCHEM_EFFECTIVE_ROTOR_COUNT>  (1) 
8

>  <PUBCHEM_PHARMACOPHORE_FEATURES>  (1) 
6
1 1 acceptor
1 10 hydrophobe
1 2 acceptor
1 2 donor
1 9 hydrophobe
5 3 4 5 6 8 hydrophobe

>  <PUBCHEM_HEAVY_ATOM_COUNT>  (1) 
12

>  <PUBCHEM_ATOM_DEF_STEREO_COUNT>  (1) 
0

>  <PUBCHEM_ATOM_UDEF_STEREO_COUNT>  (1) 
1

>  <PUBCHEM_BOND_DEF_STEREO_COUNT>  (1) 
0

>  <PUBCHEM_BOND_UDEF_STEREO_COUNT>  (1) 
0

>  <PUBCHEM_ISOTOPIC_ATOM_COUNT>  (1) 
0

>  <PUBCHEM_COMPONENT_COUNT>  (1) 
1

>  <PUBCHEM_CACTVS_TAUTO_COUNT>  (1) 
1

>  <PUBCHEM_CONFORMER_ID>  (1) 
00003B9C00000002

>  <PUBCHEM_MMFF94_ENERGY>  (1) 
11.0948

>  <PUBCHEM_FEATURE_SELFOVERLAP>  (1) 
30.452

>  <PUBCHEM_SHAPE_FINGERPRINT>  (1) 
10219947 1 18131636707052975663
10922049 32 8718828695368224408
11062470 55 17603304855989540978
11401426 45 18409727369798762094
124424 183 18335702762834099307
12815109 37 18409448089982797942
12932764 1 13912871108083101967
14123238 8 15140961763924763550
14252887 29 18059585684684561598
14943859 89 11963391855723585560
14993402 34 18272090517129291854
15048467 5 17313103042377277238
15342168 16 16270778213570373672
17834072 33 17417807404697764876
17834072 8 18335697235221732709
17834076 25 17385724699197893254
18186145 218 12396582991643133422
18342897 14 18334293162962294883
187816 3 18040437694018427930
200 152 18334575733345635026
20645477 56 8502362318418149230
20671657 1 18118971531861342525
20711985 327 17989213671688313936
21119208 17 16370725941626855518
22485316 2 18409445899380996706
23402539 116 18343860013435360910
23557571 272 18130233653576467828
265663 24 12823294593823061438
2916195 48 12107791843250092982
366044 4 8646769989055066504
42788 4 18113056043207726646
68521 5 18410294666428223372
69090 78 8574709083771348856

>  <PUBCHEM_SHAPE_MULTIPOLES>  (1) 
235.22
9.99
1.5
0.8
1.96
1.14
0.04
-3.04
-1.6
-0.36
0.29
0.05
0.09
0.13

>  <PUBCHEM_SHAPE_SELFOVERLAP>  (1) 
420.554

>  <PUBCHEM_SHAPE_VOLUME>  (1) 
152.8

>  <PUBCHEM_COORDINATE_TYPE>  (1) 
2
5
10

$$$$
