15268
     RDKit          3D

 15 14  0  0  0  0  0  0  0  0999 V2000
    1.5642   -0.9363    0.1680 C   0  0  0  0  0  0  0  0  0  0  0  0
    0.3451   -0.1203   -0.2757 C   0  0  0  0  0  0  0  0  0  0  0  0
    2.8888   -0.3874   -0.3669 C   0  0  0  0  0  0  0  0  0  0  0  0
   -1.0015   -0.5700    0.3018 C   0  0  0  0  0  0  0  0  0  0  0  0
    4.1123   -1.1575    0.1411 C   0  0  0  0  0  0  0  0  0  0  0  0
   -2.1865    0.2466   -0.2185 C   0  0  0  0  0  0  0  0  0  0  0  0
    5.4647   -0.7074   -0.4256 C   0  0  0  0  0  0  0  0  0  0  0  0
   -3.5410   -0.2494    0.2972 C   0  0  0  0  0  0  0  0  0  0  0  0
    5.8893    0.7324   -0.0811 C   0  0  0  0  0  0  0  0  0  0  0  0
   -4.7723    0.4737   -0.2573 C   0  0  0  0  0  0  0  0  0  0  0  0
   -6.0988   -0.1030    0.2422 C   0  0  0  0  0  0  0  0  0  0  0  0
    6.0105    0.9582    1.4259 C   0  0  0  0  0  0  0  0  0  0  0  0
    7.2225    1.0551   -0.7612 C   0  0  0  0  0  0  0  0  0  0  0  0
   -7.2871    0.6533   -0.3535 C   0  0  0  0  0  0  0  0  0  0  0  0
   -8.6100    0.1120    0.1635 C   0  0  0  0  0  0  0  0  0  0  0  0
  1  2  1  0
  1  3  1  0
  2  4  1  0
  3  5  1  0
  4  6  1  0
  5  7  1  0
  6  8  1  0
  7  9  1  0
  8 10  1  0
  9 12  1  0
  9 13  1  0
 10 11  1  0
 11 14  1  0
 14 15  1  0
M  END
>  <PUBCHEM_COMPOUND_CID>  (1) 
15268

>  <PUBCHEM_CONFORMER_RMSD>  (1) 
1

>  <PUBCHEM_CONFORMER_DIVERSEORDER>  (1) 
1
34
3
208
114
209
215
164
156
7
62
18
68
116
216
16
66
44
170
185
76
60
203
15
217
107
195
94
29
79
218
13
46
2
132
152
187
122
205
100
81
177
214
5
219
78
190
138
47
182
129
63
194
70
75
108
67
136
45
19
169
153
163
103
127
189
43
38
61
141
154
112
84
72
175
6
37
26
176
135
184
71
158
130
24
87
104
50
12
64
65
106
202
166
111
54
52
167
131
51
113
77
181
110
56
36
14
10
69
89
109
213
120
25
80
128
31
98
172
97
35
4
206
198
125
197
168
173
140
82
193
42
8
134
91
74
151
147
115
73
210
188
123
22
95
40
99
57
199
179
49
39
137
27
9
162
32
149
201
117
204
96
28
41
17
148
118
30
101
212
102
126
58
59
211
86
105
161
200
171
85
121
83
93
92
53
11
55
90
48
88
133
119
33
20
160
155
139
207
23
146
180
142
174
124
191
159
21
144
143
157
150
192
145
178
196
183
186
165

>  <PUBCHEM_MMFF94_PARTIAL_CHARGES>  (1) 
0

>  <PUBCHEM_EFFECTIVE_ROTOR_COUNT>  (1) 
11

>  <PUBCHEM_PHARMACOPHORE_FEATURES>  (1) 
2
1 15 hydrophobe
3 9 12 13 hydrophobe

>  <PUBCHEM_HEAVY_ATOM_COUNT>  (1) 
15

>  <PUBCHEM_ATOM_DEF_STEREO_COUNT>  (1) 
0

>  <PUBCHEM_ATOM_UDEF_STEREO_COUNT>  (1) 
0

>  <PUBCHEM_BOND_DEF_STEREO_COUNT>  (1) 
0

>  <PUBCHEM_BOND_UDEF_STEREO_COUNT>  (1) 
0

>  <PUBCHEM_ISOTOPIC_ATOM_COUNT>  (1) 
0

>  <PUBCHEM_COMPONENT_COUNT>  (1) 
1

>  <PUBCHEM_CACTVS_TAUTO_COUNT>  (1) 
1

>  <PUBCHEM_CONFORMER_ID>  (1) 
00003BA400000001

>  <PUBCHEM_MMFF94_ENERGY>  (1) 
0.8878

>  <PUBCHEM_FEATURE_SELFOVERLAP>  (1) 
10.149

>  <PUBCHEM_SHAPE_FINGERPRINT>  (1) 
10968037 39 18273214197455634943
11315181 36 18342742915124179217
11638347 137 16588019092098526170
12091667 2 18408042897770702119
125118 31 18187085027029206357
13533116 47 18337388232782526674
13885169 127 9295297136222465231
14123256 10 17704071793671151176
14170010 4 18341611538100637328
14251764 18 15357697483523460413
14251764 46 15985105206685411270
14729087 3 17313099727601586597
155225 1 18409168853423131140
17834076 25 15339117931536729415
20281389 69 18412823564562197929
20735858 18 14417851444826868859
20767249 213 18334577949374615054
21130983 4 18408325483899113956
21150785 3 16630526241260658481
220451 1 16773791477015808975
22224240 67 17458063772486536923
22896161 15 18409167723339881655
23035841 295 9655574111068668605
23521765 1 18341895182409943503
246663 6 11672065250506819541
33684 2 17917712387768983958
34797466 226 16988847185459722692
4325135 7 17917713500191978444
59682541 35 17603589659845559057
6025842 7 17846502492102027638
6438161 24 13470414332190196332
67123 10 18410012144370542319
8209 1 18410293601687283951

>  <PUBCHEM_SHAPE_MULTIPOLES>  (1) 
308.69
26.36
1.05
0.85
23.85
0.01
0.15
-7.75
-0.3
-1.45
0.03
-1.04
-0.16
0.4

>  <PUBCHEM_SHAPE_SELFOVERLAP>  (1) 
548.312

>  <PUBCHEM_SHAPE_VOLUME>  (1) 
202.4

>  <PUBCHEM_COORDINATE_TYPE>  (1) 
2
5
10

$$$$
