15264
     RDKit          3D

 19 18  0  0  0  0  0  0  0  0999 V2000
   -1.4184    0.3761    0.0544 C   0  0  0  0  0  0  0  0  0  0  0  0
   -0.1519   -0.4491   -0.1850 C   0  0  0  0  0  0  0  0  0  0  0  0
   -2.7101   -0.4051   -0.2103 C   0  0  0  0  0  0  0  0  0  0  0  0
    1.1389    0.3549    0.0032 C   0  0  0  0  0  0  0  0  0  0  0  0
   -4.0139    0.3484    0.0711 C   0  0  0  0  0  0  0  0  0  0  0  0
    2.4412   -0.4251   -0.2047 C   0  0  0  0  0  0  0  0  0  0  0  0
   -5.2670   -0.5067   -0.1280 C   0  0  0  0  0  0  0  0  0  0  0  0
    3.7325    0.3593    0.0494 C   0  0  0  0  0  0  0  0  0  0  0  0
   -6.5372    0.2884    0.1864 C   0  0  0  0  0  0  0  0  0  0  0  0
    5.0350   -0.4011   -0.2180 C   0  0  0  0  0  0  0  0  0  0  0  0
   -7.7881   -0.5802    0.0212 C   0  0  0  0  0  0  0  0  0  0  0  0
    6.2907    0.4151    0.0991 C   0  0  0  0  0  0  0  0  0  0  0  0
   -9.0936    0.1468    0.3934 C   0  0  0  0  0  0  0  0  0  0  0  0
    7.5569   -0.4218   -0.0990 C   0  0  0  0  0  0  0  0  0  0  0  0
    8.8488    0.3510    0.1842 C   0  0  0  0  0  0  0  0  0  0  0  0
   -9.3355    1.3897   -0.4640 C   0  0  0  0  0  0  0  0  0  0  0  0
  -10.2784   -0.8130    0.2568 C   0  0  0  0  0  0  0  0  0  0  0  0
   10.1501   -0.4104   -0.0789 C   0  0  0  0  0  0  0  0  0  0  0  0
   11.3999    0.3827    0.2687 C   0  0  0  0  0  0  0  0  0  0  0  0
  1  2  1  0
  1  3  1  0
  2  4  1  0
  3  5  1  0
  4  6  1  0
  5  7  1  0
  6  8  1  0
  7  9  1  0
  8 10  1  0
  9 11  1  0
 10 12  1  0
 11 13  1  0
 12 14  1  0
 13 16  1  0
 13 17  1  0
 14 15  1  0
 15 18  1  0
 18 19  1  0
M  END
>  <PUBCHEM_COMPOUND_CID>  (1) 
15264

>  <PUBCHEM_CONFORMER_RMSD>  (1) 
1.4

>  <PUBCHEM_CONFORMER_DIVERSEORDER>  (1) 
1
83
42
39
23
64
4
54
41
79
43
71
58
90
91
12
31
95
89
9
76
67
59
77
46
78
34
63
33
44
86
69
87
11
75
93
30
56
48
2
17
8
80
73
84
22
53
82
26
20
40
60
70
3
55
36
94
72
25
45
27
49
32
62
6
24
16
19
57
88
85
28
50
52
81
96
5
18
13
29
61
37
66
21
51
14
92
65
7
38
47
74
10
15
35
68

>  <PUBCHEM_MMFF94_PARTIAL_CHARGES>  (1) 
0

>  <PUBCHEM_EFFECTIVE_ROTOR_COUNT>  (1) 
15

>  <PUBCHEM_PHARMACOPHORE_FEATURES>  (1) 
2
1 19 hydrophobe
3 13 16 17 hydrophobe

>  <PUBCHEM_HEAVY_ATOM_COUNT>  (1) 
19

>  <PUBCHEM_ATOM_DEF_STEREO_COUNT>  (1) 
0

>  <PUBCHEM_ATOM_UDEF_STEREO_COUNT>  (1) 
0

>  <PUBCHEM_BOND_DEF_STEREO_COUNT>  (1) 
0

>  <PUBCHEM_BOND_UDEF_STEREO_COUNT>  (1) 
0

>  <PUBCHEM_ISOTOPIC_ATOM_COUNT>  (1) 
0

>  <PUBCHEM_COMPONENT_COUNT>  (1) 
1

>  <PUBCHEM_CACTVS_TAUTO_COUNT>  (1) 
1

>  <PUBCHEM_CONFORMER_ID>  (1) 
00003BA000000001

>  <PUBCHEM_MMFF94_ENERGY>  (1) 
0.8857

>  <PUBCHEM_FEATURE_SELFOVERLAP>  (1) 
10.149

>  <PUBCHEM_SHAPE_FINGERPRINT>  (1) 
14251764 46 18409449189077629322
14251920 1 18410575084663085419
14344974 52 10879981468109712422
15061470 23 18186800270576032293
15510794 2 18409172107895310146
21362267 2 17917413359652410528
21362267 313 18042398037203661912
232437 2 18335138691878525930
23521765 1 18341895194645933911
23528940 14 18339364185008373627
23581129 1 18409449189051203586
33684 2 18410575088958052706
59521270 166 17967810527709754327
67123 10 18412263939108428010
8209 1 18411419513898740695

>  <PUBCHEM_SHAPE_MULTIPOLES>  (1) 
391.01
47.28
0.9
0.66
24.18
0.09
0
1.78
3.06
-1.15
-0.04
-0.15
0.01
0.53

>  <PUBCHEM_SHAPE_SELFOVERLAP>  (1) 
698.426

>  <PUBCHEM_SHAPE_VOLUME>  (1) 
254.6

>  <PUBCHEM_COORDINATE_TYPE>  (1) 
2
5
10

$$$$
