15274
     RDKit          3D

  8  8  0  0  1  0  0  0  0  0999 V2000
   -2.2830   -1.2677   -0.2208 Cl  0  0  0  0  0  0  0  0  0  0  0  0
   -1.5111    1.7135    0.2131 O   0  0  0  0  0  0  0  0  0  0  0  0
   -0.5193    0.8156   -0.2808 C   0  0  0  0  0  0  0  0  0  0  0  0
   -0.7195   -0.5797    0.3223 C   0  0  0  0  0  0  0  0  0  0  0  0
    0.8607    1.3807    0.0644 C   0  0  0  0  0  0  0  0  0  0  0  0
    0.4118   -1.5328   -0.0654 C   0  0  0  0  0  0  0  0  0  0  0  0
    1.9819    0.4250   -0.3260 C   0  0  0  0  0  0  0  0  0  0  0  0
    1.7785   -0.9545    0.2933 C   0  0  0  0  0  0  0  0  0  0  0  0
  1  4  1  0
  2  3  1  0
  3  4  1  0
  3  5  1  0
  4  6  1  0
  5  7  1  0
  6  8  1  0
  7  8  1  0
M  END
>  <PUBCHEM_COMPOUND_CID>  (1) 
15274

>  <PUBCHEM_CONFORMER_RMSD>  (1) 
0.4

>  <PUBCHEM_CONFORMER_DIVERSEORDER>  (1) 
2
6
7
3
4
5
8
1

>  <PUBCHEM_MMFF94_PARTIAL_CHARGES>  (1) 
5
1 -0.29
19 0.4
2 -0.68
3 0.28
4 0.29

>  <PUBCHEM_EFFECTIVE_ROTOR_COUNT>  (1) 
1.2

>  <PUBCHEM_PHARMACOPHORE_FEATURES>  (1) 
3
1 2 acceptor
1 2 donor
6 3 4 5 6 7 8 rings

>  <PUBCHEM_HEAVY_ATOM_COUNT>  (1) 
8

>  <PUBCHEM_ATOM_DEF_STEREO_COUNT>  (1) 
0

>  <PUBCHEM_ATOM_UDEF_STEREO_COUNT>  (1) 
2

>  <PUBCHEM_BOND_DEF_STEREO_COUNT>  (1) 
0

>  <PUBCHEM_BOND_UDEF_STEREO_COUNT>  (1) 
0

>  <PUBCHEM_ISOTOPIC_ATOM_COUNT>  (1) 
0

>  <PUBCHEM_COMPONENT_COUNT>  (1) 
1

>  <PUBCHEM_CACTVS_TAUTO_COUNT>  (1) 
1

>  <PUBCHEM_CONFORMER_ID>  (1) 
00003BAA00000002

>  <PUBCHEM_MMFF94_ENERGY>  (1) 
5.9929

>  <PUBCHEM_FEATURE_SELFOVERLAP>  (1) 
15.223

>  <PUBCHEM_SHAPE_FINGERPRINT>  (1) 
18185500 45 18192147101248248434
21040471 1 18051131389222251096
23552423 10 18260553286032402726
241688 4 18335416820722194376
29004967 10 18118404183544638963
5084963 1 18130795589485012474

>  <PUBCHEM_SHAPE_MULTIPOLES>  (1) 
160.64
2.69
1.89
0.67
0.67
0.37
0.01
-0.54
0.19
0.19
-0.09
-0.01
-0.03
-0.15

>  <PUBCHEM_SHAPE_SELFOVERLAP>  (1) 
300.491

>  <PUBCHEM_SHAPE_VOLUME>  (1) 
101.4

>  <PUBCHEM_COORDINATE_TYPE>  (1) 
2
5
10

$$$$
