15276
     RDKit          3D

 17 18  0  0  0  0  0  0  0  0999 V2000
   -5.2946   -1.2144    0.2537 O   0  0  0  0  0  0  0  0  0  0  0  0
   -5.4754    1.0511    0.2885 O   0  0  0  0  0  0  0  0  0  0  0  0
    0.8149    0.0115   -0.6048 N   0  0  0  0  0  0  0  0  0  0  0  0
    1.4045    0.0057    0.5014 N   0  0  0  0  0  0  0  0  0  0  0  0
   -0.5697    0.0184   -0.4082 C   0  0  0  0  0  0  0  0  0  0  0  0
   -3.3320    0.0330   -0.0177 C   0  0  0  0  0  0  0  0  0  0  0  0
   -1.2536    1.2300   -0.3072 C   0  0  0  0  0  0  0  0  0  0  0  0
   -1.2671   -1.1860   -0.3140 C   0  0  0  0  0  0  0  0  0  0  0  0
   -2.6347    1.2373   -0.1119 C   0  0  0  0  0  0  0  0  0  0  0  0
   -2.6483   -1.1786   -0.1187 C   0  0  0  0  0  0  0  0  0  0  0  0
    2.7961   -0.0015    0.3043 C   0  0  0  0  0  0  0  0  0  0  0  0
    3.4861    1.2032    0.2103 C   0  0  0  0  0  0  0  0  0  0  0  0
    3.4733   -1.2128    0.2041 C   0  0  0  0  0  0  0  0  0  0  0  0
    4.8670    1.1965    0.0139 C   0  0  0  0  0  0  0  0  0  0  0  0
    4.8544   -1.2194    0.0078 C   0  0  0  0  0  0  0  0  0  0  0  0
    5.5511   -0.0147   -0.0872 C   0  0  0  0  0  0  0  0  0  0  0  0
   -4.7719    0.0407    0.1857 C   0  0  0  0  0  0  0  0  0  0  0  0
  1 17  1  0
  2 17  2  0
  3  4  2  0
  3  5  1  0
  4 11  1  0
  5  7  2  0
  5  8  1  0
  6  9  2  0
  6 10  1  0
  6 17  1  0
  7  9  1  0
  8 10  2  0
 11 12  2  0
 11 13  1  0
 12 14  1  0
 13 15  2  0
 14 16  2  0
 15 16  1  0
M  END
>  <PUBCHEM_COMPOUND_CID>  (1) 
15276

>  <PUBCHEM_CONFORMER_RMSD>  (1) 
0.6

>  <PUBCHEM_CONFORMER_DIVERSEORDER>  (1) 
1
2
3

>  <PUBCHEM_MMFF94_PARTIAL_CHARGES>  (1) 
27
1 -0.65
10 -0.15
11 0.18
12 -0.15
13 -0.15
14 -0.15
15 -0.15
16 -0.15
17 0.63
18 0.15
19 0.15
2 -0.57
20 0.15
21 0.15
22 0.15
23 0.15
24 0.15
25 0.15
26 0.15
27 0.5
3 -0.18
4 -0.18
5 0.18
6 0.09
7 -0.15
8 -0.15
9 -0.15

>  <PUBCHEM_EFFECTIVE_ROTOR_COUNT>  (1) 
3

>  <PUBCHEM_PHARMACOPHORE_FEATURES>  (1) 
5
1 1 acceptor
1 2 acceptor
3 1 2 17 anion
6 11 12 13 14 15 16 rings
6 5 6 7 8 9 10 rings

>  <PUBCHEM_HEAVY_ATOM_COUNT>  (1) 
17

>  <PUBCHEM_ATOM_DEF_STEREO_COUNT>  (1) 
0

>  <PUBCHEM_ATOM_UDEF_STEREO_COUNT>  (1) 
0

>  <PUBCHEM_BOND_DEF_STEREO_COUNT>  (1) 
0

>  <PUBCHEM_BOND_UDEF_STEREO_COUNT>  (1) 
0

>  <PUBCHEM_ISOTOPIC_ATOM_COUNT>  (1) 
0

>  <PUBCHEM_COMPONENT_COUNT>  (1) 
1

>  <PUBCHEM_CACTVS_TAUTO_COUNT>  (1) 
1

>  <PUBCHEM_CONFORMER_ID>  (1) 
00003BAC00000001

>  <PUBCHEM_MMFF94_ENERGY>  (1) 
49.0435

>  <PUBCHEM_FEATURE_SELFOVERLAP>  (1) 
25.429

>  <PUBCHEM_SHAPE_FINGERPRINT>  (1) 
10968037 39 18187086169373819175
11287383 113 18334859432935894698
12107183 9 17690279309495965258
12236239 1 18113338613116040364
12815109 37 11241970382323226260
13167823 11 18410290298509546474
13533116 47 12966861096022646500
13897977 58 18411420622301191317
1420 363 17822015310771186667
14341114 176 18411705391549447016
15196674 1 18411136939468431043
15242433 33 18411981377621198462
17834072 33 18412543236441930038
17844677 252 18409736148759712700
1813 80 16950283996810777236
200 152 18202562882193114795
20645477 70 18341895143892842798
21267235 1 18410862040688102238
21652331 79 18409445890864869724
2297311 6 18342466919623950516
23402539 116 18202557380888686973
23559900 14 18411695517282516160
300161 21 18201711873457906546
3004659 81 18410295775299685110
3545911 37 18411418419357417388
42 15 18408041797061751182
4214541 1 18410291380730496284
42788 4 18411138038916742281
4463277 17 18335421261992801749
5104073 3 18410853274084819554
522135 26 18342457033004659298
5374978 207 18410288116940291536
542803 24 17203611488461027200
77779 3 18410573985678945860
8272917 22 18202005387444713366

>  <PUBCHEM_SHAPE_MULTIPOLES>  (1) 
328.15
13.42
1.44
0.67
0.28
0.01
0.01
0.09
-1.23
0.11
0
0.03
0
0

>  <PUBCHEM_SHAPE_SELFOVERLAP>  (1) 
709.71

>  <PUBCHEM_SHAPE_VOLUME>  (1) 
179.5

>  <PUBCHEM_COORDINATE_TYPE>  (1) 
2
5
10

$$$$
