15297
     RDKit          3D

 10  9  0  0  1  0  0  0  0  0999 V2000
   -1.3240    1.1995   -1.3473 O   0  0  0  0  0  0  0  0  0  0  0  0
   -1.4660    0.4382   -0.1394 C   0  0  0  0  0  0  0  0  0  0  0  0
   -0.0748    0.3702    0.5299 C   0  0  0  0  0  0  0  0  0  0  0  0
    1.0059   -0.3102   -0.3251 C   0  0  0  0  0  0  0  0  0  0  0  0
    2.4019   -0.2900    0.3279 C   0  0  0  0  0  0  0  0  0  0  0  0
   -2.0479   -0.9376   -0.5274 C   0  0  0  0  0  0  0  0  0  0  0  0
   -2.4288    1.2150    0.7686 C   0  0  0  0  0  0  0  0  0  0  0  0
    2.8176    1.1544    0.6183 C   0  0  0  0  0  0  0  0  0  0  0  0
    3.4630   -0.9671   -0.5409 C   0  0  0  0  0  0  0  0  0  0  0  0
   -2.3469   -1.8723    0.6355 C   0  0  0  0  0  0  0  0  0  0  0  0
  1  2  1  0
  2  3  1  0
  2  6  1  0
  2  7  1  0
  3  4  1  0
  4  5  1  0
  5  8  1  0
  5  9  1  0
  6 10  1  0
M  END
>  <PUBCHEM_COMPOUND_CID>  (1) 
15297

>  <PUBCHEM_CONFORMER_RMSD>  (1) 
0.6

>  <PUBCHEM_CONFORMER_DIVERSEORDER>  (1) 
2
15
3
4
13
12
6
9
14
11
10
7
8
1
5

>  <PUBCHEM_MMFF94_PARTIAL_CHARGES>  (1) 
3
1 -0.68
2 0.28
30 0.4

>  <PUBCHEM_EFFECTIVE_ROTOR_COUNT>  (1) 
4

>  <PUBCHEM_PHARMACOPHORE_FEATURES>  (1) 
4
1 1 acceptor
1 1 donor
1 10 hydrophobe
3 5 8 9 hydrophobe

>  <PUBCHEM_HEAVY_ATOM_COUNT>  (1) 
10

>  <PUBCHEM_ATOM_DEF_STEREO_COUNT>  (1) 
0

>  <PUBCHEM_ATOM_UDEF_STEREO_COUNT>  (1) 
1

>  <PUBCHEM_BOND_DEF_STEREO_COUNT>  (1) 
0

>  <PUBCHEM_BOND_UDEF_STEREO_COUNT>  (1) 
0

>  <PUBCHEM_ISOTOPIC_ATOM_COUNT>  (1) 
0

>  <PUBCHEM_COMPONENT_COUNT>  (1) 
1

>  <PUBCHEM_CACTVS_TAUTO_COUNT>  (1) 
1

>  <PUBCHEM_CONFORMER_ID>  (1) 
00003BC100000002

>  <PUBCHEM_MMFF94_ENERGY>  (1) 
16.2246

>  <PUBCHEM_FEATURE_SELFOVERLAP>  (1) 
20.297

>  <PUBCHEM_SHAPE_FINGERPRINT>  (1) 
10857977 72 18266448978833110898
12716758 59 18262227824797580538
12897270 3 18187075178679278030
12932741 1 18412254026387251452
12932764 1 17968093084458911232
13024252 1 14851892435016064969
14325111 11 18272651255591020784
15310529 11 17704069633423907504
15775835 57 18187368666758604546
19973954 147 18343581858689961536
20201158 50 18201719509688583222
20645464 45 18130514024282216663
20871998 184 18272376412054761063
23552423 10 18408322198502359602
3248919 1 18201144499614388904
369184 2 18409443670113284273
5084963 1 18334294279664256908

>  <PUBCHEM_SHAPE_MULTIPOLES>  (1) 
199.93
5.31
1.6
0.99
3.37
0.23
0.15
0.83
-0.35
-0.75
-0.19
-0.3
-0.13
0.52

>  <PUBCHEM_SHAPE_SELFOVERLAP>  (1) 
361.582

>  <PUBCHEM_SHAPE_VOLUME>  (1) 
130.4

>  <PUBCHEM_COORDINATE_TYPE>  (1) 
2
5
10

$$$$
