15293
     RDKit          3D

 11 11  0  0  0  0  0  0  0  0999 V2000
   -1.9846    1.6762   -1.0112 O   0  0  0  0  0  0  0  0  0  0  0  0
   -3.2718   -1.2549    0.3285 O   0  0  0  0  0  0  0  0  0  0  0  0
    0.2396    0.0208   -0.1198 C   0  0  0  0  0  0  0  0  0  0  0  0
    1.0555    1.1129    0.5853 C   0  0  0  0  0  0  0  0  0  0  0  0
    0.9469   -1.3376   -0.0234 C   0  0  0  0  0  0  0  0  0  0  0  0
   -1.1693   -0.0619    0.4647 C   0  0  0  0  0  0  0  0  0  0  0  0
    2.4857    1.1792    0.0545 C   0  0  0  0  0  0  0  0  0  0  0  0
    2.3774   -1.2672   -0.5531 C   0  0  0  0  0  0  0  0  0  0  0  0
    3.1825   -0.1749    0.1438 C   0  0  0  0  0  0  0  0  0  0  0  0
   -1.8984    1.2849    0.3532 C   0  0  0  0  0  0  0  0  0  0  0  0
   -1.9636   -1.1777   -0.2224 C   0  0  0  0  0  0  0  0  0  0  0  0
  1 10  1  0
  2 11  1  0
  3  4  1  0
  3  5  1  0
  3  6  1  0
  4  7  1  0
  5  8  1  0
  6 10  1  0
  6 11  1  0
  7  9  1  0
  8  9  1  0
M  END
>  <PUBCHEM_COMPOUND_CID>  (1) 
15293

>  <PUBCHEM_CONFORMER_RMSD>  (1) 
0.6

>  <PUBCHEM_CONFORMER_DIVERSEORDER>  (1) 
1
3
24
25
8
11
15
23
19
6
4
17
7
18
10
21
5
14
22
2
20
12
16
13
9

>  <PUBCHEM_MMFF94_PARTIAL_CHARGES>  (1) 
6
1 -0.68
10 0.28
11 0.28
2 -0.68
28 0.4
29 0.4

>  <PUBCHEM_EFFECTIVE_ROTOR_COUNT>  (1) 
4.2

>  <PUBCHEM_PHARMACOPHORE_FEATURES>  (1) 
5
1 1 acceptor
1 1 donor
1 2 acceptor
1 2 donor
6 3 4 5 7 8 9 rings

>  <PUBCHEM_HEAVY_ATOM_COUNT>  (1) 
11

>  <PUBCHEM_ATOM_DEF_STEREO_COUNT>  (1) 
0

>  <PUBCHEM_ATOM_UDEF_STEREO_COUNT>  (1) 
0

>  <PUBCHEM_BOND_DEF_STEREO_COUNT>  (1) 
0

>  <PUBCHEM_BOND_UDEF_STEREO_COUNT>  (1) 
0

>  <PUBCHEM_ISOTOPIC_ATOM_COUNT>  (1) 
0

>  <PUBCHEM_COMPONENT_COUNT>  (1) 
1

>  <PUBCHEM_CACTVS_TAUTO_COUNT>  (1) 
1

>  <PUBCHEM_CONFORMER_ID>  (1) 
00003BBD00000001

>  <PUBCHEM_MMFF94_ENERGY>  (1) 
16.6188

>  <PUBCHEM_FEATURE_SELFOVERLAP>  (1) 
25.371

>  <PUBCHEM_SHAPE_FINGERPRINT>  (1) 
11206711 2 18410013242832397327
12138202 97 18188478065416855437
12897270 3 18410853304117960727
12932764 1 18114752516476464626
13380535 21 18340218383689841921
14325111 11 18412265047278731160
15219456 202 18413105060950389441
15279308 100 18120372055886813308
15775835 57 18058455476777353676
16945 1 18199183065175120078
17844478 74 18335429001407662355
17990270 104 18413111632667168162
19973954 147 18411983542021081936
20201158 50 18413108376670631122
21501502 16 18410578374634492432
23402655 69 18127396874764247461
23552423 10 18335706026713864674
2748010 2 18342175540331127894
3248919 1 17916862409488193346
5084963 1 18412265072884933256
6333449 129 18409163273368543805
8030462 33 17240482489885676994

>  <PUBCHEM_SHAPE_MULTIPOLES>  (1) 
214.64
4.73
1.78
0.78
0.06
0.09
0.07
-0.58
0.03
0.38
0.15
0.14
0.13
0.43

>  <PUBCHEM_SHAPE_SELFOVERLAP>  (1) 
413.988

>  <PUBCHEM_SHAPE_VOLUME>  (1) 
129.4

>  <PUBCHEM_COORDINATE_TYPE>  (1) 
2
5
10

$$$$
