15296
     RDKit          3D

 20 23  0  0  0  0  0  0  0  0999 V2000
   -0.0032    0.5272   -1.6861 C   0  0  0  0  0  0  0  0  0  0  0  0
   -1.1847    0.9209   -0.8111 C   0  0  0  0  0  0  0  0  0  0  0  0
    1.1738    0.9347   -0.8112 C   0  0  0  0  0  0  0  0  0  0  0  0
    0.0054   -0.9574   -2.0282 C   0  0  0  0  0  0  0  0  0  0  0  0
   -0.7320    1.4668    0.4113 C   0  0  0  0  0  0  0  0  0  0  0  0
    0.7149    1.4754    0.4112 C   0  0  0  0  0  0  0  0  0  0  0  0
   -2.5368    0.7846   -1.0806 C   0  0  0  0  0  0  0  0  0  0  0  0
    2.5273    0.8138   -1.0808 C   0  0  0  0  0  0  0  0  0  0  0  0
    0.0104   -1.8254   -0.8074 C   0  0  0  0  0  0  0  0  0  0  0  0
   -1.6359    1.8903    1.3721 C   0  0  0  0  0  0  0  0  0  0  0  0
    1.6139    1.9089    1.3721 C   0  0  0  0  0  0  0  0  0  0  0  0
   -3.4472    1.2113   -0.1121 C   0  0  0  0  0  0  0  0  0  0  0  0
    3.4328    1.2511   -0.1124 C   0  0  0  0  0  0  0  0  0  0  0  0
   -3.0013    1.7597    1.1019 C   0  0  0  0  0  0  0  0  0  0  0  0
    2.9806    1.7940    1.1018 C   0  0  0  0  0  0  0  0  0  0  0  0
    1.2209   -2.2183   -0.2440 C   0  0  0  0  0  0  0  0  0  0  0  0
   -1.1951   -2.2328   -0.2440 C   0  0  0  0  0  0  0  0  0  0  0  0
    1.2258   -3.0264    0.8929 C   0  0  0  0  0  0  0  0  0  0  0  0
   -1.1901   -3.0408    0.8931 C   0  0  0  0  0  0  0  0  0  0  0  0
    0.0204   -3.4375    1.4615 C   0  0  0  0  0  0  0  0  0  0  0  0
  1  2  1  0
  1  3  1  0
  1  4  1  0
  2  5  1  0
  2  7  2  0
  3  6  2  0
  3  8  1  0
  4  9  1  0
  5  6  1  0
  5 10  2  0
  6 11  1  0
  7 12  1  0
  8 13  2  0
  9 16  2  0
  9 17  1  0
 10 14  1  0
 11 15  2  0
 12 14  2  0
 13 15  1  0
 16 18  1  0
 17 19  2  0
 18 20  2  0
 19 20  1  0
M  END
>  <PUBCHEM_COMPOUND_CID>  (1) 
15296

>  <PUBCHEM_CONFORMER_RMSD>  (1) 
0.6

>  <PUBCHEM_CONFORMER_DIVERSEORDER>  (1) 
1
4
2
3

>  <PUBCHEM_MMFF94_PARTIAL_CHARGES>  (1) 
31
1 0.29
10 -0.15
11 -0.15
12 -0.15
13 -0.15
14 -0.15
15 -0.15
16 -0.15
17 -0.15
18 -0.15
19 -0.15
2 -0.14
20 -0.15
24 0.15
25 0.15
26 0.15
27 0.15
28 0.15
29 0.15
3 -0.14
30 0.15
31 0.15
32 0.15
33 0.15
34 0.15
35 0.15
36 0.15
4 0.14
7 -0.15
8 -0.15
9 -0.14

>  <PUBCHEM_EFFECTIVE_ROTOR_COUNT>  (1) 
2.2

>  <PUBCHEM_PHARMACOPHORE_FEATURES>  (1) 
4
5 1 2 3 5 6 rings
6 2 5 7 10 12 14 rings
6 3 6 8 11 13 15 rings
6 9 16 17 18 19 20 rings

>  <PUBCHEM_HEAVY_ATOM_COUNT>  (1) 
20

>  <PUBCHEM_ATOM_DEF_STEREO_COUNT>  (1) 
0

>  <PUBCHEM_ATOM_UDEF_STEREO_COUNT>  (1) 
0

>  <PUBCHEM_BOND_DEF_STEREO_COUNT>  (1) 
0

>  <PUBCHEM_BOND_UDEF_STEREO_COUNT>  (1) 
0

>  <PUBCHEM_ISOTOPIC_ATOM_COUNT>  (1) 
0

>  <PUBCHEM_COMPONENT_COUNT>  (1) 
1

>  <PUBCHEM_CACTVS_TAUTO_COUNT>  (1) 
1

>  <PUBCHEM_CONFORMER_ID>  (1) 
00003BC000000001

>  <PUBCHEM_MMFF94_ENERGY>  (1) 
69.3045

>  <PUBCHEM_FEATURE_SELFOVERLAP>  (1) 
20.461

>  <PUBCHEM_SHAPE_FINGERPRINT>  (1) 
10064457 181 18193024588862979521
104564 63 18048043149002206130
1100329 8 18266456512253837890
12644460 14 17700714869309236921
12716301 132 18124053457176874084
12788726 201 17978788244146602609
13083527 12 17908120115495737149
14787075 74 18050023090392536006
14817 1 15676894130943903975
16945 1 17704071797913734989
17921350 177 15299504958244305379
20510252 161 17978786036702094036
20905425 154 18341617048775799759
21421861 104 17620780296370425209
23419403 2 17267561296762131966
2748010 2 17772197663135829548
3052486 1 17756460362145442395
35225 105 18267862972229775099
3759504 43 18337679714821949292
404807 78 17392161378476891311
427121 178 18269018469193922185
4340502 62 18411708664905454729
576247 118 17257937524971661620
81228 2 17978787136103049541
8509985 295 16537391795530389617
9981440 41 17128146637323710064

>  <PUBCHEM_SHAPE_MULTIPOLES>  (1) 
411.59
4.08
4.04
1.7
0.06
4.38
-0.24
-3.5
0.53
-0.06
2.09
0
0.05
-0.01

>  <PUBCHEM_SHAPE_SELFOVERLAP>  (1) 
929.545

>  <PUBCHEM_SHAPE_VOLUME>  (1) 
202

>  <PUBCHEM_COORDINATE_TYPE>  (1) 
2
5
10

$$$$
