15307
     RDKit          3D

 10  9  0  0  0  0  0  0  0  0999 V2000
    4.4078   -0.6168    0.1134 O   0  0  0  0  0  0  0  0  0  0  0  0
    3.1972    1.2859   -0.1450 O   0  0  0  0  0  0  0  0  0  0  0  0
   -2.7226   -0.2968    0.1641 C   0  0  0  0  0  0  0  0  0  0  0  0
   -1.5182    0.6419    0.2590 C   0  0  0  0  0  0  0  0  0  0  0  0
   -4.0116    0.4802   -0.1049 C   0  0  0  0  0  0  0  0  0  0  0  0
   -0.2481   -0.1239    0.4902 C   0  0  0  0  0  0  0  0  0  0  0  0
   -5.2062   -0.4508   -0.2384 C   0  0  0  0  0  0  0  0  0  0  0  0
    0.7946   -0.1110   -0.3534 C   0  0  0  0  0  0  0  0  0  0  0  0
    2.0618   -0.8751   -0.1227 C   0  0  0  0  0  0  0  0  0  0  0  0
    3.2453    0.0664   -0.0624 C   0  0  0  0  0  0  0  0  0  0  0  0
  1 10  1  0
  2 10  2  0
  3  4  1  0
  3  5  1  0
  4  6  1  0
  5  7  1  0
  6  8  2  0
  8  9  1  0
  9 10  1  0
M  END
>  <PUBCHEM_COMPOUND_CID>  (1) 
15307

>  <PUBCHEM_CONFORMER_RMSD>  (1) 
0.6

>  <PUBCHEM_CONFORMER_DIVERSEORDER>  (1) 
1
63
58
53
62
78
21
14
6
2
75
10
73
70
20
17
25
12
31
61
57
34
51
3
80
49
18
36
39
4
30
41
27
35
28
11
9
45
7
74
72
33
19
69
52
64
50
48
71
81
23
77
29
24
8
76
79
37
47
5
46
68
26
43
56
60
38
55
42
22
54
40
67
44
15
13
65
59
16
32
66

>  <PUBCHEM_MMFF94_PARTIAL_CHARGES>  (1) 
10
1 -0.65
10 0.66
17 0.15
2 -0.57
21 0.15
24 0.5
4 0.14
6 -0.29
8 -0.29
9 0.2

>  <PUBCHEM_EFFECTIVE_ROTOR_COUNT>  (1) 
5

>  <PUBCHEM_PHARMACOPHORE_FEATURES>  (1) 
5
1 1 acceptor
1 2 acceptor
1 7 hydrophobe
3 1 2 10 anion
4 3 4 5 6 hydrophobe

>  <PUBCHEM_HEAVY_ATOM_COUNT>  (1) 
10

>  <PUBCHEM_ATOM_DEF_STEREO_COUNT>  (1) 
0

>  <PUBCHEM_ATOM_UDEF_STEREO_COUNT>  (1) 
0

>  <PUBCHEM_BOND_DEF_STEREO_COUNT>  (1) 
0

>  <PUBCHEM_BOND_UDEF_STEREO_COUNT>  (1) 
1

>  <PUBCHEM_ISOTOPIC_ATOM_COUNT>  (1) 
0

>  <PUBCHEM_COMPONENT_COUNT>  (1) 
1

>  <PUBCHEM_CACTVS_TAUTO_COUNT>  (1) 
1

>  <PUBCHEM_CONFORMER_ID>  (1) 
00003BCB00000001

>  <PUBCHEM_MMFF94_ENERGY>  (1) 
-0.4761

>  <PUBCHEM_FEATURE_SELFOVERLAP>  (1) 
25.43

>  <PUBCHEM_SHAPE_FINGERPRINT>  (1) 
11062470 55 18187085052909097419
114248 4 18333731338685930979
14123238 8 18113620097162700999
17834072 33 18130784611986259021
17834076 25 16226048890144929534
18342897 14 11530482224919879439
190213 19 13470689243586258057
20279233 1 18113627772005768387
20606313 2 18335422399995890836
20645477 70 18337110060018500758
20719005 15 18412262835349390159
20828058 21 15195571195335959825
20828058 44 13973958814090659933
21119208 17 18410293605486424535
21293036 1 18410855464950643339
22485316 2 18343017779471228223
23402539 116 18334006177816817893
42 15 9799695900224376241
42788 4 18410573980861758597
522135 26 9079119959924211680

>  <PUBCHEM_SHAPE_MULTIPOLES>  (1) 
194.06
10.05
0.94
0.66
4.43
0.1
-0.01
-0.68
0.75
-0.38
0.02
0.09
-0.01
-0.11

>  <PUBCHEM_SHAPE_SELFOVERLAP>  (1) 
355.345

>  <PUBCHEM_SHAPE_VOLUME>  (1) 
123.1

>  <PUBCHEM_COORDINATE_TYPE>  (1) 
2
5
10

$$$$
