15303
     RDKit          3D

 12 12  0  0  0  0  0  0  0  0999 V2000
    1.7902   -0.0141    0.4265 S   0  0  0  0  0  0  0  0  0  0  0  0
    2.1767   -1.2831    1.0315 O   0  0  0  0  0  0  0  0  0  0  0  0
    2.1581    1.2370    1.0788 O   0  0  0  0  0  0  0  0  0  0  0  0
    2.3190    0.0035   -1.2136 N   0  0  0  0  0  0  0  0  0  0  0  0
    3.6992    0.0514   -1.1841 N   0  0  0  0  0  0  0  0  0  0  0  0
    0.0582   -0.0073    0.2070 C   0  0  0  0  0  0  0  0  0  0  0  0
   -2.7095    0.0053   -0.1431 C   0  0  0  0  0  0  0  0  0  0  0  0
   -0.6302    1.2037    0.1334 C   0  0  0  0  0  0  0  0  0  0  0  0
   -0.6374   -1.2122    0.1055 C   0  0  0  0  0  0  0  0  0  0  0  0
   -2.0140    1.2100   -0.0416 C   0  0  0  0  0  0  0  0  0  0  0  0
   -2.0213   -1.2058   -0.0696 C   0  0  0  0  0  0  0  0  0  0  0  0
   -4.1891    0.0117   -0.3306 C   0  0  0  0  0  0  0  0  0  0  0  0
  1  2  2  0
  1  3  2  0
  1  4  1  0
  1  6  1  0
  4  5  1  0
  6  8  2  0
  6  9  1  0
  7 10  2  0
  7 11  1  0
  7 12  1  0
  8 10  1  0
  9 11  2  0
M  END
>  <PUBCHEM_COMPOUND_CID>  (1) 
15303

>  <PUBCHEM_CONFORMER_RMSD>  (1) 
0.6

>  <PUBCHEM_CONFORMER_DIVERSEORDER>  (1) 
1
2

>  <PUBCHEM_MMFF94_PARTIAL_CHARGES>  (1) 
19
1 1.45
10 -0.15
11 -0.15
12 0.14
13 0.15
14 0.15
15 0.15
16 0.15
17 0.42
2 -0.65
21 0.36
22 0.36
3 -0.65
4 -0.63
5 -0.65
6 -0.01
7 -0.14
8 -0.15
9 -0.15

>  <PUBCHEM_EFFECTIVE_ROTOR_COUNT>  (1) 
2

>  <PUBCHEM_PHARMACOPHORE_FEATURES>  (1) 
4
1 2 acceptor
1 3 acceptor
1 4 donor
6 6 7 8 9 10 11 rings

>  <PUBCHEM_HEAVY_ATOM_COUNT>  (1) 
12

>  <PUBCHEM_ATOM_DEF_STEREO_COUNT>  (1) 
0

>  <PUBCHEM_ATOM_UDEF_STEREO_COUNT>  (1) 
0

>  <PUBCHEM_BOND_DEF_STEREO_COUNT>  (1) 
0

>  <PUBCHEM_BOND_UDEF_STEREO_COUNT>  (1) 
0

>  <PUBCHEM_ISOTOPIC_ATOM_COUNT>  (1) 
0

>  <PUBCHEM_COMPONENT_COUNT>  (1) 
1

>  <PUBCHEM_CACTVS_TAUTO_COUNT>  (1) 
1

>  <PUBCHEM_CONFORMER_ID>  (1) 
00003BC700000001

>  <PUBCHEM_MMFF94_ENERGY>  (1) 
14.5299

>  <PUBCHEM_FEATURE_SELFOVERLAP>  (1) 
20.315

>  <PUBCHEM_SHAPE_FINGERPRINT>  (1) 
12032990 46 18270966846948688319
12524768 44 18130220566267687281
12897270 3 18411419526773080086
12932764 1 18410851066603438923
14325111 11 18411128126633487113
14993402 34 18113903766683090389
15219456 202 17845936350359579088
15310529 11 16732977622461537925
15775835 57 18260552194857307068
16945 1 18335977636329953561
18186145 218 18273208686601416873
19026448 4 15913320291552277155
19026448 5 15936401252532727585
20201158 50 17775293750408668030
20523700 14 18186803599222801887
20645464 45 18059280054442039107
20645476 183 17895198839287159767
20711985 344 17987248728514225536
21293036 1 18409173220391449653
23552423 10 18189614032716451053
23559900 14 18341900714707499204
2748010 2 18122899000317141483
3248919 1 17240193344213426723
369184 2 18339910576511200323
5084963 1 17823127934944640753
7364860 26 18341041944133294722
8030462 33 18334011683421578675

>  <PUBCHEM_SHAPE_MULTIPOLES>  (1) 
229.1
5.83
1.32
0.97
0.61
0.01
-0.1
-0.04
-1.39
0.16
0.23
-0.92
-0.01
-0.02

>  <PUBCHEM_SHAPE_SELFOVERLAP>  (1) 
457.896

>  <PUBCHEM_SHAPE_VOLUME>  (1) 
135.7

>  <PUBCHEM_COORDINATE_TYPE>  (1) 
2
5
10

$$$$
