15316
     RDKit          3D

 16 18  0  0  1  0  0  0  0  0999 V2000
    1.3846    2.9314   -0.3977 N   0  0  0  0  0  0  0  0  0  0  0  0
    0.6001    1.7890    0.1070 C   0  0  0  0  0  0  0  0  0  0  0  0
   -0.7449    1.8048   -0.6459 C   0  0  0  0  0  0  0  0  0  0  0  0
    1.4574    0.5211    0.1049 C   0  0  0  0  0  0  0  0  0  0  0  0
   -1.6763    0.7010   -0.2194 C   0  0  0  0  0  0  0  0  0  0  0  0
   -0.1179   -0.9238   -1.3431 C   0  0  0  0  0  0  0  0  0  0  0  0
    1.1429   -0.6959   -0.5411 C   0  0  0  0  0  0  0  0  0  0  0  0
   -1.3742   -0.6266   -0.5652 C   0  0  0  0  0  0  0  0  0  0  0  0
    2.6542    0.5779    0.8597 C   0  0  0  0  0  0  0  0  0  0  0  0
   -2.8313    0.9784    0.5227 C   0  0  0  0  0  0  0  0  0  0  0  0
    2.0436   -1.7789   -0.4485 C   0  0  0  0  0  0  0  0  0  0  0  0
   -2.2303   -1.6587   -0.1592 C   0  0  0  0  0  0  0  0  0  0  0  0
    3.5272   -0.5060    0.9459 C   0  0  0  0  0  0  0  0  0  0  0  0
    3.2237   -1.6853    0.2850 C   0  0  0  0  0  0  0  0  0  0  0  0
   -3.6796   -0.0556    0.9177 C   0  0  0  0  0  0  0  0  0  0  0  0
   -3.3794   -1.3725    0.5773 C   0  0  0  0  0  0  0  0  0  0  0  0
  1  2  1  0
  2  3  1  0
  2  4  1  0
  3  5  1  0
  4  7  2  0
  4  9  1  0
  5  8  2  0
  5 10  1  0
  6  7  1  0
  6  8  1  0
  7 11  1  0
  8 12  1  0
  9 13  2  0
 10 15  2  0
 11 14  2  0
 12 16  2  0
 13 14  1  0
 15 16  1  0
M  END
>  <PUBCHEM_COMPOUND_CID>  (1) 
15316

>  <PUBCHEM_CONFORMER_RMSD>  (1) 
0.4

>  <PUBCHEM_CONFORMER_DIVERSEORDER>  (1) 
1
3
5
6
4
2

>  <PUBCHEM_MMFF94_PARTIAL_CHARGES>  (1) 
26
1 -0.99
10 -0.15
11 -0.15
12 -0.15
13 -0.15
14 -0.15
15 -0.15
16 -0.15
2 0.41
22 0.15
23 0.15
24 0.15
25 0.15
26 0.36
27 0.36
28 0.15
29 0.15
3 0.14
30 0.15
31 0.15
4 -0.14
5 -0.14
6 0.29
7 -0.14
8 -0.14
9 -0.15

>  <PUBCHEM_EFFECTIVE_ROTOR_COUNT>  (1) 
0.6

>  <PUBCHEM_PHARMACOPHORE_FEATURES>  (1) 
5
1 1 cation
1 1 donor
6 4 7 9 11 13 14 rings
6 5 8 10 12 15 16 rings
7 2 3 4 5 6 7 8 rings

>  <PUBCHEM_HEAVY_ATOM_COUNT>  (1) 
16

>  <PUBCHEM_ATOM_DEF_STEREO_COUNT>  (1) 
0

>  <PUBCHEM_ATOM_UDEF_STEREO_COUNT>  (1) 
1

>  <PUBCHEM_BOND_DEF_STEREO_COUNT>  (1) 
0

>  <PUBCHEM_BOND_UDEF_STEREO_COUNT>  (1) 
0

>  <PUBCHEM_ISOTOPIC_ATOM_COUNT>  (1) 
0

>  <PUBCHEM_COMPONENT_COUNT>  (1) 
1

>  <PUBCHEM_CACTVS_TAUTO_COUNT>  (1) 
1

>  <PUBCHEM_CONFORMER_ID>  (1) 
00003BD400000001

>  <PUBCHEM_MMFF94_ENERGY>  (1) 
48.9971

>  <PUBCHEM_FEATURE_SELFOVERLAP>  (1) 
25.39

>  <PUBCHEM_SHAPE_FINGERPRINT>  (1) 
1100329 8 15961737663463885651
11086676 242 18410580586584854488
11132069 177 18341325626200877930
11471102 22 18411702110025693010
11578080 2 17168411727509987220
12011746 2 18270399373946220813
12202030 40 16589163795161213475
12251169 10 18342178886131860899
12382932 28 18271805692088354089
12400797 245 18411418457410898919
12553582 1 18408888438210812734
12644460 14 18191047748613630745
12696612 119 18341333370010880558
12730499 353 10087644814801205061
12824470 246 16951396633779826210
13140716 1 18413107272948159433
13172582 1 18343300349063069775
13299463 15 10809351022436155303
14790565 3 18121505919191277180
15309172 13 17560794399111954550
15375462 189 18040715831615808178
15375462 478 18202562908369210783
15653759 3 18335421222958242579
15775835 57 17489023872055783186
16945 1 18412262856634381301
17780758 139 17320670818536660826
17804303 29 18198632042340845550
17844478 74 18339077082209532948
18186145 218 8358254882193708206
19049666 15 17765152774208738478
19862831 5 11458418029306246923
200 152 17917412255976579343
20361792 2 16443067200995707023
20559304 39 18339648952520027181
20645477 70 18116985783923167863
21501502 16 18339929341334099133
21501925 9 18411981399138291387
22112679 90 16984613146379893319
22445834 79 18267869561004875729
22721475 48 18410858745788699235
23184049 59 18130787815446552567
2334 1 18412820283312685414
23388829 49 17912626192844328247
23419403 2 13669865830776657534
23463225 33 18411419552659116797
23559900 14 18120935002178549294
2748010 2 18198338446923948516
43471831 8 17833271204646985381
5902787 121 18260267447215828306
598444 67 17979075981328016743
7097593 13 18411698798463723251
7364860 26 18339647870404832228
81228 2 17978798908619191172
84936 31 15768941129869171430
8809292 202 18193839241301679810
90316 7 18190178988214202609

>  <PUBCHEM_SHAPE_MULTIPOLES>  (1) 
324.29
5.85
2.36
1.02
0.73
1.05
0.03
-2.14
-2.43
-0.58
0.34
-0.01
-0.1
0.07

>  <PUBCHEM_SHAPE_SELFOVERLAP>  (1) 
710.134

>  <PUBCHEM_SHAPE_VOLUME>  (1) 
172.9

>  <PUBCHEM_COORDINATE_TYPE>  (1) 
2
5
10

$$$$
