15310
     RDKit          3D

  8  7  0  0  1  0  0  0  0  0999 V2000
   -0.2639    1.6438    0.0606 F   0  0  0  0  0  0  0  0  0  0  0  0
    1.6736   -1.2589    0.6766 O   0  0  0  0  0  0  0  0  0  0  0  0
    2.0854    0.5464   -0.6481 O   0  0  0  0  0  0  0  0  0  0  0  0
   -1.1443   -0.5438    0.0899 C   0  0  0  0  0  0  0  0  0  0  0  0
   -0.0157    0.3926    0.5452 C   0  0  0  0  0  0  0  0  0  0  0  0
   -2.4915   -0.0319    0.6045 C   0  0  0  0  0  0  0  0  0  0  0  0
   -1.1921   -0.6749   -1.4346 C   0  0  0  0  0  0  0  0  0  0  0  0
    1.3485   -0.0733    0.1058 C   0  0  0  0  0  0  0  0  0  0  0  0
  1  5  1  0
  2  8  1  0
  3  8  2  0
  4  5  1  0
  4  6  1  0
  4  7  1  0
  5  8  1  0
M  END
>  <PUBCHEM_COMPOUND_CID>  (1) 
15310

>  <PUBCHEM_CONFORMER_RMSD>  (1) 
0.4

>  <PUBCHEM_CONFORMER_DIVERSEORDER>  (1) 
1
8
3
4
7
2
6
5

>  <PUBCHEM_MMFF94_PARTIAL_CHARGES>  (1) 
6
1 -0.34
17 0.5
2 -0.65
3 -0.57
5 0.4
8 0.66

>  <PUBCHEM_EFFECTIVE_ROTOR_COUNT>  (1) 
2

>  <PUBCHEM_PHARMACOPHORE_FEATURES>  (1) 
4
1 2 acceptor
1 3 acceptor
3 2 3 8 anion
3 4 6 7 hydrophobe

>  <PUBCHEM_HEAVY_ATOM_COUNT>  (1) 
8

>  <PUBCHEM_ATOM_DEF_STEREO_COUNT>  (1) 
0

>  <PUBCHEM_ATOM_UDEF_STEREO_COUNT>  (1) 
1

>  <PUBCHEM_BOND_DEF_STEREO_COUNT>  (1) 
0

>  <PUBCHEM_BOND_UDEF_STEREO_COUNT>  (1) 
0

>  <PUBCHEM_ISOTOPIC_ATOM_COUNT>  (1) 
0

>  <PUBCHEM_COMPONENT_COUNT>  (1) 
1

>  <PUBCHEM_CACTVS_TAUTO_COUNT>  (1) 
1

>  <PUBCHEM_CONFORMER_ID>  (1) 
00003BCE00000001

>  <PUBCHEM_MMFF94_ENERGY>  (1) 
6.229

>  <PUBCHEM_FEATURE_SELFOVERLAP>  (1) 
20.354

>  <PUBCHEM_SHAPE_FINGERPRINT>  (1) 
137420 1 12871933019512062345
16714656 1 17917725590355942613
18185500 45 18271234027641228702
21040471 1 17060347283878141679
24536 1 17895177879656357432
29004967 10 18114185262828669321

>  <PUBCHEM_SHAPE_MULTIPOLES>  (1) 
145.62
2.81
1.16
1.04
0.14
0.1
0.07
-0.17
-0.26
0.14
0.2
-0.03
-0.22
-0.44

>  <PUBCHEM_SHAPE_SELFOVERLAP>  (1) 
272.003

>  <PUBCHEM_SHAPE_VOLUME>  (1) 
92.1

>  <PUBCHEM_COORDINATE_TYPE>  (1) 
2
5
10

$$$$
