15319
     RDKit          3D

 13 14  0  0  0  0  0  0  0  0999 V2000
   -0.9397    1.7464    0.0596 O   0  0  0  0  0  0  0  0  0  0  0  0
   -0.6588    0.3380    0.0267 C   0  0  0  0  0  0  0  0  0  0  0  0
   -1.3343   -0.2915    1.2671 C   0  0  0  0  0  0  0  0  0  0  0  0
   -1.2994   -0.2047   -1.2687 C   0  0  0  0  0  0  0  0  0  0  0  0
   -2.8560   -0.1265    1.2461 C   0  0  0  0  0  0  0  0  0  0  0  0
   -2.8226   -0.0502   -1.2773 C   0  0  0  0  0  0  0  0  0  0  0  0
   -3.4604   -0.6769   -0.0417 C   0  0  0  0  0  0  0  0  0  0  0  0
    0.8521    0.0971    0.0119 C   0  0  0  0  0  0  0  0  0  0  0  0
    1.3493   -1.2054   -0.0058 C   0  0  0  0  0  0  0  0  0  0  0  0
    1.7300    1.1804    0.0157 C   0  0  0  0  0  0  0  0  0  0  0  0
    2.7267   -1.4251   -0.0196 C   0  0  0  0  0  0  0  0  0  0  0  0
    3.1074    0.9606    0.0018 C   0  0  0  0  0  0  0  0  0  0  0  0
    3.6057   -0.3423   -0.0158 C   0  0  0  0  0  0  0  0  0  0  0  0
  1  2  1  0
  2  3  1  0
  2  4  1  0
  2  8  1  0
  3  5  1  0
  4  6  1  0
  5  7  1  0
  6  7  1  0
  8  9  2  0
  8 10  1  0
  9 11  1  0
 10 12  2  0
 11 13  2  0
 12 13  1  0
M  END
>  <PUBCHEM_COMPOUND_CID>  (1) 
15319

>  <PUBCHEM_CONFORMER_RMSD>  (1) 
0.6

>  <PUBCHEM_CONFORMER_DIVERSEORDER>  (1) 
1
4
3
5
2

>  <PUBCHEM_MMFF94_PARTIAL_CHARGES>  (1) 
14
1 -0.68
10 -0.15
11 -0.15
12 -0.15
13 -0.15
2 0.42
24 0.4
25 0.15
26 0.15
27 0.15
28 0.15
29 0.15
8 -0.14
9 -0.15

>  <PUBCHEM_EFFECTIVE_ROTOR_COUNT>  (1) 
2.2

>  <PUBCHEM_PHARMACOPHORE_FEATURES>  (1) 
4
1 1 acceptor
1 1 donor
6 2 3 4 5 6 7 rings
6 8 9 10 11 12 13 rings

>  <PUBCHEM_HEAVY_ATOM_COUNT>  (1) 
13

>  <PUBCHEM_ATOM_DEF_STEREO_COUNT>  (1) 
0

>  <PUBCHEM_ATOM_UDEF_STEREO_COUNT>  (1) 
0

>  <PUBCHEM_BOND_DEF_STEREO_COUNT>  (1) 
0

>  <PUBCHEM_BOND_UDEF_STEREO_COUNT>  (1) 
0

>  <PUBCHEM_ISOTOPIC_ATOM_COUNT>  (1) 
0

>  <PUBCHEM_COMPONENT_COUNT>  (1) 
1

>  <PUBCHEM_CACTVS_TAUTO_COUNT>  (1) 
1

>  <PUBCHEM_CONFORMER_ID>  (1) 
00003BD700000001

>  <PUBCHEM_MMFF94_ENERGY>  (1) 
32.0273

>  <PUBCHEM_FEATURE_SELFOVERLAP>  (1) 
20.297

>  <PUBCHEM_SHAPE_FINGERPRINT>  (1) 
10219947 1 18408887364643009956
11578080 2 17344311572089275425
12932764 1 17846776299939128384
13024252 1 17676207949052599429
13296908 3 18040998440300152835
13538477 17 17060336348796395607
13581323 91 16128656348968803518
14144814 61 17918275350491158590
14993402 34 17703790349012386765
15219456 202 17967813868318487028
15309172 13 18343867718559327446
15775835 57 17918278670664447768
16945 1 18410855482009199648
17844478 74 18040438793255658045
18175812 5 17676770958592361022
18186145 218 17676758786881793653
19422 9 17775570852945186318
200 152 18341886385757778135
20201158 50 18113336414056011042
20279233 1 17821445772338082578
204376 136 18194398034138260784
20645477 70 18337944602123227574
21501502 16 18264491689443678904
22445834 79 17917714573717602407
23402539 116 16370990932339703871
23557571 272 16805323313999359629
23559900 14 16805594851165513130
25610 137 18336267919899706805
2748010 2 18195804077328381068
276578 36 15697178260950957383
3248919 1 17968098603449805364
369184 2 18412265025682412921
474 4 17629185294160805600
57812782 119 17386000684937198862
581208 293 18411417345388623210
77492 1 17704074009816149542
8030462 33 18335707104993275220

>  <PUBCHEM_SHAPE_MULTIPOLES>  (1) 
261.66
5.98
1.3
1.11
0.66
0.13
-0.01
-0.86
-0.05
0.74
0.02
-1.05
-0.07
0.05

>  <PUBCHEM_SHAPE_SELFOVERLAP>  (1) 
547.615

>  <PUBCHEM_SHAPE_VOLUME>  (1) 
146.7

>  <PUBCHEM_COORDINATE_TYPE>  (1) 
2
5
10

$$$$
