15325
     RDKit          3D

 15 15  0  0  0  0  0  0  0  0999 V2000
   -2.6210    0.8256   -1.0091 S   0  0  0  0  0  0  0  0  0  0  0  0
   -0.7149   -2.9045    0.2379 O   0  0  0  0  0  0  0  0  0  0  0  0
   -2.4466   -1.7029   -0.3760 O   0  0  0  0  0  0  0  0  0  0  0  0
    3.9540    1.1368    0.1681 O   0  0  0  0  0  0  0  0  0  0  0  0
    3.6329   -0.9890    0.6115 O   0  0  0  0  0  0  0  0  0  0  0  0
   -1.2263   -1.8174   -0.1171 N   0  0  0  0  0  0  0  0  0  0  0  0
    3.2023    0.1365    0.2623 N   0  0  0  0  0  0  0  0  0  0  0  0
   -3.4587    1.5151    1.6285 N   0  0  0  0  0  0  0  0  0  0  0  0
   -0.3901   -0.6700   -0.2299 C   0  0  0  0  0  0  0  0  0  0  0  0
    1.8215    0.2831   -0.0349 C   0  0  0  0  0  0  0  0  0  0  0  0
    0.9661   -0.8145    0.0625 C   0  0  0  0  0  0  0  0  0  0  0  0
   -0.8910    0.5723   -0.6196 C   0  0  0  0  0  0  0  0  0  0  0  0
    1.3207    1.5252   -0.4246 C   0  0  0  0  0  0  0  0  0  0  0  0
   -0.0355    1.6698   -0.7169 C   0  0  0  0  0  0  0  0  0  0  0  0
   -3.1135    1.2339    0.5572 C   0  0  0  0  0  0  0  0  0  0  0  0
  1 12  1  0
  1 15  1  0
  2  6  1  0
  3  6  2  0
  4  7  1  0
  5  7  2  0
  6  9  1  0
  7 10  1  0
  8 15  3  0
  9 11  2  0
  9 12  1  0
 10 11  1  0
 10 13  2  0
 12 14  2  0
 13 14  1  0
M  CHG  4   2  -1   4  -1   6   1   7   1
M  END
>  <PUBCHEM_COMPOUND_CID>  (1) 
15325

>  <PUBCHEM_CONFORMER_RMSD>  (1) 
0.6

>  <PUBCHEM_CONFORMER_DIVERSEORDER>  (1) 
2
3
1

>  <PUBCHEM_MMFF94_PARTIAL_CHARGES>  (1) 
18
1 -0.14
10 0.13
11 -0.15
12 0.1
13 -0.15
14 -0.15
15 0.59
16 0.15
17 0.15
18 0.15
2 -0.52
3 -0.52
4 -0.52
5 -0.52
6 0.91
7 0.91
8 -0.56
9 0.13

>  <PUBCHEM_EFFECTIVE_ROTOR_COUNT>  (1) 
3

>  <PUBCHEM_PHARMACOPHORE_FEATURES>  (1) 
8
1 2 acceptor
1 2 anion
1 3 acceptor
1 4 acceptor
1 4 anion
1 5 acceptor
1 8 acceptor
6 9 10 11 12 13 14 rings

>  <PUBCHEM_HEAVY_ATOM_COUNT>  (1) 
15

>  <PUBCHEM_ATOM_DEF_STEREO_COUNT>  (1) 
0

>  <PUBCHEM_ATOM_UDEF_STEREO_COUNT>  (1) 
0

>  <PUBCHEM_BOND_DEF_STEREO_COUNT>  (1) 
0

>  <PUBCHEM_BOND_UDEF_STEREO_COUNT>  (1) 
0

>  <PUBCHEM_ISOTOPIC_ATOM_COUNT>  (1) 
0

>  <PUBCHEM_COMPONENT_COUNT>  (1) 
1

>  <PUBCHEM_CACTVS_TAUTO_COUNT>  (1) 
1

>  <PUBCHEM_CONFORMER_ID>  (1) 
00003BDD00000002

>  <PUBCHEM_MMFF94_ENERGY>  (1) 
53.1755

>  <PUBCHEM_FEATURE_SELFOVERLAP>  (1) 
40.762

>  <PUBCHEM_SHAPE_FINGERPRINT>  (1) 
11132069 177 18335408063568824620
11471102 22 18043264461077875777
12251169 10 18409171042774692449
12382932 28 18410854347768730808
12491281 212 17418372463374893329
13380535 21 18409735062538714134
13380535 76 18341043051680988695
14445660 50 18411138060840348488
14617773 55 18124039180895369397
15309172 13 18335983065036922225
16945 1 18336262349459090396
17844478 74 17385726850554684604
18186145 218 18342175518888180420
193761 8 17974566106674474532
20510252 161 18270395130565992003
21339142 149 17846768620674649237
21501502 16 18264209290991023004
21524375 3 18130223762087456365
2334 1 18191301787360132700
23402539 116 18129933594318472191
23559900 14 18412541016961832748
2748010 2 17758106004228279988
305870 269 18125446306734369809
5104073 3 18337662114499203432
6333449 129 18410566318677038996
6992083 37 18261113001806872085
81228 2 18118395374556282171

>  <PUBCHEM_SHAPE_MULTIPOLES>  (1) 
274.12
5.68
2.29
0.96
2.58
1.49
-0.18
-1.78
-1.76
-0.8
-0.02
-0.85
-0.36
-0.61

>  <PUBCHEM_SHAPE_SELFOVERLAP>  (1) 
566.56

>  <PUBCHEM_SHAPE_VOLUME>  (1) 
156.5

>  <PUBCHEM_COORDINATE_TYPE>  (1) 
2
5
10

$$$$
