15322
     RDKit          3D

 13 14  0  0  0  0  0  0  0  0999 V2000
    5.1607   -0.0005   -0.0014 I   0  0  0  0  0  0  0  0  0  0  0  0
    0.2934    0.0011    0.0001 C   0  0  0  0  0  0  0  0  0  0  0  0
   -1.1535    0.0004    0.0000 C   0  0  0  0  0  0  0  0  0  0  0  0
    0.9911    0.8610    0.8480 C   0  0  0  0  0  0  0  0  0  0  0  0
    0.9904   -0.8598   -0.8477 C   0  0  0  0  0  0  0  0  0  0  0  0
   -1.8507   -0.8481    0.8600 C   0  0  0  0  0  0  0  0  0  0  0  0
   -1.8511    0.8483   -0.8601 C   0  0  0  0  0  0  0  0  0  0  0  0
    2.3861    0.8602    0.8482 C   0  0  0  0  0  0  0  0  0  0  0  0
    2.3853   -0.8607   -0.8475 C   0  0  0  0  0  0  0  0  0  0  0  0
   -3.2456   -0.8487    0.8599 C   0  0  0  0  0  0  0  0  0  0  0  0
   -3.2460    0.8479   -0.8602 C   0  0  0  0  0  0  0  0  0  0  0  0
    3.0832   -0.0006    0.0005 C   0  0  0  0  0  0  0  0  0  0  0  0
   -3.9432   -0.0006   -0.0001 C   0  0  0  0  0  0  0  0  0  0  0  0
  1 12  1  0
  2  3  1  0
  2  4  2  0
  2  5  1  0
  3  6  2  0
  3  7  1  0
  4  8  1  0
  5  9  2  0
  6 10  1  0
  7 11  2  0
  8 12  2  0
  9 12  1  0
 10 13  2  0
 11 13  1  0
M  END
>  <PUBCHEM_COMPOUND_CID>  (1) 
15322

>  <PUBCHEM_CONFORMER_RMSD>  (1) 
0.4

>  <PUBCHEM_CONFORMER_DIVERSEORDER>  (1) 
1
2

>  <PUBCHEM_MMFF94_PARTIAL_CHARGES>  (1) 
20
1 -0.08
10 -0.15
11 -0.15
12 0.08
13 -0.15
14 0.15
15 0.15
16 0.15
17 0.15
18 0.15
19 0.15
20 0.15
21 0.15
22 0.15
4 -0.15
5 -0.15
6 -0.15
7 -0.15
8 -0.15
9 -0.15

>  <PUBCHEM_EFFECTIVE_ROTOR_COUNT>  (1) 
1

>  <PUBCHEM_PHARMACOPHORE_FEATURES>  (1) 
3
1 1 hydrophobe
6 2 4 5 8 9 12 rings
6 3 6 7 10 11 13 rings

>  <PUBCHEM_HEAVY_ATOM_COUNT>  (1) 
13

>  <PUBCHEM_ATOM_DEF_STEREO_COUNT>  (1) 
0

>  <PUBCHEM_ATOM_UDEF_STEREO_COUNT>  (1) 
0

>  <PUBCHEM_BOND_DEF_STEREO_COUNT>  (1) 
0

>  <PUBCHEM_BOND_UDEF_STEREO_COUNT>  (1) 
0

>  <PUBCHEM_ISOTOPIC_ATOM_COUNT>  (1) 
0

>  <PUBCHEM_COMPONENT_COUNT>  (1) 
1

>  <PUBCHEM_CACTVS_TAUTO_COUNT>  (1) 
1

>  <PUBCHEM_CONFORMER_ID>  (1) 
00003BDA00000001

>  <PUBCHEM_MMFF94_ENERGY>  (1) 
39.7504

>  <PUBCHEM_FEATURE_SELFOVERLAP>  (1) 
15.223

>  <PUBCHEM_SHAPE_FINGERPRINT>  (1) 
10219947 1 17775287162102746500
10465860 250 18334007281549676776
11401426 45 17203322308729712352
11471102 20 17846497037128953448
12236239 1 15647052663990859841
124424 183 18409725153853924986
12500047 106 18040991843204200915
12932764 1 18411130350983545075
13581323 91 17458340844736361195
13760787 19 17894347774685507578
13760787 5 17703793622231101348
14144814 61 16056882420504365959
14993402 34 16343698829040033724
15219456 202 18411981360035004439
15309172 13 17704355480535017863
15653759 3 18261109686049694096
16945 1 17703791422822645892
17834072 33 14405179595498546600
17844478 74 18413112753484840361
18175812 5 18410009974351741868
19026448 4 18114181939135794688
19026448 5 17022620875645282144
19422 9 15864074273302485755
200 152 17203603783537578989
20201158 50 18342741801446020907
20279233 1 18410858758784611335
204376 136 17917427670514016558
20645464 45 18409730664523838459
20645477 56 17895192156602767093
20645477 70 17916865699380752486
22485316 2 18259702298576832962
23175994 123 18272939318884403584
23402539 116 17822004319981661207
23402655 69 17560798780184369925
23557571 272 18113901528926300340
23559900 14 18115023005544296322
474 4 16055447648356754842
77492 1 15841833347943192577

>  <PUBCHEM_SHAPE_MULTIPOLES>  (1) 
279.47
8.68
1.07
1.07
4.75
0
0
0
0
-0.18
0
-0.13
0
0.91

>  <PUBCHEM_SHAPE_SELFOVERLAP>  (1) 
582.995

>  <PUBCHEM_SHAPE_VOLUME>  (1) 
163.9

>  <PUBCHEM_COORDINATE_TYPE>  (1) 
2
5
10

$$$$
