15333
     RDKit          3D

 31 34  0  0  1  0  0  0  0  0999 V2000
    3.9362   -1.2126    2.7845 F   0  0  0  0  0  0  0  0  0  0  0  0
   -2.9908   -1.7139    0.8157 O   0  0  0  0  0  0  0  0  0  0  0  0
    1.4796    2.0327   -1.2452 O   0  0  0  0  0  0  0  0  0  0  0  0
   -3.1098    1.1329   -1.2304 O   0  0  0  0  0  0  0  0  0  0  0  0
   -5.4936    1.2705    0.0014 O   0  0  0  0  0  0  0  0  0  0  0  0
    5.9626    2.7385    0.6833 O   0  0  0  0  0  0  0  0  0  0  0  0
   -7.1090    0.5440    1.4847 O   0  0  0  0  0  0  0  0  0  0  0  0
   -0.9600   -0.3841    0.3546 C   0  0  0  0  0  0  0  0  0  0  0  0
   -0.1325   -1.6778    0.1337 C   0  0  0  0  0  0  0  0  0  0  0  0
    1.4057   -1.5373    0.0795 C   0  0  0  0  0  0  0  0  0  0  0  0
    1.8897   -0.3475   -0.8059 C   0  0  0  0  0  0  0  0  0  0  0  0
   -2.3685   -0.8546   -0.1359 C   0  0  0  0  0  0  0  0  0  0  0  0
   -0.6940   -2.2902   -1.1731 C   0  0  0  0  0  0  0  0  0  0  0  0
   -0.3796    0.7757   -0.4848 C   0  0  0  0  0  0  0  0  0  0  0  0
   -2.0713   -1.6533   -1.4175 C   0  0  0  0  0  0  0  0  0  0  0  0
    1.1432    0.9475   -0.3808 C   0  0  0  0  0  0  0  0  0  0  0  0
    3.4709   -0.2587   -0.8241 C   0  0  0  0  0  0  0  0  0  0  0  0
    2.0125   -1.4781    1.4958 C   0  0  0  0  0  0  0  0  0  0  0  0
   -1.0121    0.0449    1.8342 C   0  0  0  0  0  0  0  0  0  0  0  0
    3.5324   -1.3726    1.4895 C   0  0  0  0  0  0  0  0  0  0  0  0
    3.9935   -0.2363    0.6104 C   0  0  0  0  0  0  0  0  0  0  0  0
   -3.3554    0.2458   -0.4146 C   0  0  0  0  0  0  0  0  0  0  0  0
   -3.1228   -2.6931   -1.7959 C   0  0  0  0  0  0  0  0  0  0  0  0
    4.0669   -1.4872   -1.5624 C   0  0  0  0  0  0  0  0  0  0  0  0
    3.9649    0.9310   -1.6281 C   0  0  0  0  0  0  0  0  0  0  0  0
    4.7900    0.7328    1.0882 C   0  0  0  0  0  0  0  0  0  0  0  0
   -4.6537    0.1947    0.3626 C   0  0  0  0  0  0  0  0  0  0  0  0
    4.7645    1.8944   -1.1597 C   0  0  0  0  0  0  0  0  0  0  0  0
    5.2316    1.8597    0.2388 C   0  0  0  0  0  0  0  0  0  0  0  0
   -6.7056    1.3330    0.6410 C   0  0  0  0  0  0  0  0  0  0  0  0
   -7.4854    2.5193    0.1605 C   0  0  0  0  0  0  0  0  0  0  0  0
  1 20  1  0
  2 12  1  0
  3 16  1  0
  4 22  2  0
  5 27  1  0
  5 30  1  0
  6 29  2  0
  7 30  2  0
  8  9  1  0
  8 12  1  0
  8 14  1  0
  8 19  1  0
  9 10  1  0
  9 13  1  0
 10 11  1  0
 10 18  1  0
 11 16  1  0
 11 17  1  0
 12 15  1  0
 12 22  1  0
 13 15  1  0
 14 16  1  0
 15 23  1  0
 17 21  1  0
 17 24  1  0
 17 25  1  0
 18 20  1  0
 20 21  1  0
 21 26  2  0
 22 27  1  0
 25 28  2  0
 26 29  1  0
 28 29  1  0
 30 31  1  0
M  END
>  <PUBCHEM_COMPOUND_CID>  (1) 
15333

>  <PUBCHEM_CONFORMER_RMSD>  (1) 
0.8

>  <PUBCHEM_CONFORMER_DIVERSEORDER>  (1) 
1
111
146
106
103
225
89
97
159
61
249
101
166
219
17
203
226
78
196
192
88
209
83
34
121
256
164
198
12
247
104
243
64
59
147
240
114
244
84
37
79
232
237
216
239
140
119
149
188
204
245
224
52
31
185
246
228
182
54
110
139
235
220
201
49
155
42
236
242
75
32
254
181
66
180
90
253
221
128
199
63
191
102
184
171
238
234
71
148
250
127
153
29
190
142
208
81
18
48
57
152
211
4
122
69
82
172
145
169
217
187
129
113
80
87
74
70
213
53
177
151
38
125
109
124
229
16
174
223
3
60
207
108
248
23
136
138
112
186
137
168
218
241
105
35
134
194
14
40
251
65
252
157
77
47
222
161
67
160
56
231
156
167
73
7
200
197
255
2
143
117
10
51
94
135
33
193
178
206
116
170
230
120
26
214
210
176
15
72
28
8
205
189
179
130
19
202
195
98
36
27
5
93
100
91
123
85
99
76
133
41
173
39
92
24
96
86
175
6
50
95
144
158
68
215
11
165
25
13
126
20
150
44
233
22
9
162
115
118
62
131
21
227
43
30
154
107
183
132
58
141
212
55
46
45
163

>  <PUBCHEM_MMFF94_PARTIAL_CHARGES>  (1) 
25
1 -0.34
12 0.34
16 0.28
17 0.28
2 -0.68
20 0.48
21 -0.28
22 0.45
25 -0.29
26 -0.14
27 0.34
28 -0.14
29 0.54
3 -0.68
30 0.66
31 0.06
4 -0.57
5 -0.43
53 0.4
54 0.15
55 0.4
56 0.15
59 0.15
6 -0.57
7 -0.57

>  <PUBCHEM_EFFECTIVE_ROTOR_COUNT>  (1) 
5.4

>  <PUBCHEM_PHARMACOPHORE_FEATURES>  (1) 
11
1 2 acceptor
1 2 donor
1 3 acceptor
1 3 donor
1 4 acceptor
1 6 acceptor
1 7 acceptor
5 8 9 12 13 15 rings
6 10 11 17 18 20 21 rings
6 17 21 25 26 28 29 rings
6 8 9 10 11 14 16 rings

>  <PUBCHEM_HEAVY_ATOM_COUNT>  (1) 
31

>  <PUBCHEM_ATOM_DEF_STEREO_COUNT>  (1) 
5

>  <PUBCHEM_ATOM_UDEF_STEREO_COUNT>  (1) 
4

>  <PUBCHEM_BOND_DEF_STEREO_COUNT>  (1) 
0

>  <PUBCHEM_BOND_UDEF_STEREO_COUNT>  (1) 
0

>  <PUBCHEM_ISOTOPIC_ATOM_COUNT>  (1) 
0

>  <PUBCHEM_COMPONENT_COUNT>  (1) 
1

>  <PUBCHEM_CACTVS_TAUTO_COUNT>  (1) 
2

>  <PUBCHEM_CONFORMER_ID>  (1) 
00003BE500000001

>  <PUBCHEM_MMFF94_ENERGY>  (1) 
97.88

>  <PUBCHEM_FEATURE_SELFOVERLAP>  (1) 
56.06

>  <PUBCHEM_SHAPE_FINGERPRINT>  (1) 
10 15 18041002860138342889
10498660 4 17703512198620002930
10554248 39 18198608961703523199
10906281 52 18042975461830133268
11578080 2 17987789855875998633
12236239 1 18411133662424559298
12422481 6 17823405024707254820
12616971 3 18334282163514464474
12788726 201 18202285766640488897
12895836 83 18273215318162511389
13224815 77 18261388983916010926
13533116 47 16916511332848055631
13726171 33 18129101297922264568
13782708 43 14707204397050351785
14294032 229 17917150606933384543
14790565 3 18129952157004010681
15238133 3 17822019713191903332
15324884 4 15480966059912531362
15392192 104 16009617727584268161
15475509 35 15358249378204916552
15788980 27 14562794600103779830
15840311 113 18335706005698243805
17349148 13 16805311232936753204
17980427 23 18190456254766568292
19377110 9 17895472634941414643
20511986 3 18338505426210027888
21033648 29 18129935792982862728
21130935 74 18041282080716075475
21421861 104 17968364681474974002
21424621 283 17417544523225556761
21792934 111 17240756230317747885
23557571 272 17273977024324988710
23559900 14 17561366175882604126
25147074 1 18336254739214989183
3472631 163 18201438103241308884
34934 24 18411699928445862364
3680242 22 18114181908485896624
4093350 32 18342182128552458038
4340502 62 16877665655895083417
5104073 3 17968094243984232123
59682541 52 14836126511878749709
633830 44 18187650236509835318

>  <PUBCHEM_SHAPE_MULTIPOLES>  (1) 
595.48
15.13
2.66
1.79
19.35
0.02
-0.52
12.6
-2.53
0.41
0.7
-1.39
-0.53
-1.35

>  <PUBCHEM_SHAPE_SELFOVERLAP>  (1) 
1280.83

>  <PUBCHEM_SHAPE_VOLUME>  (1) 
327.9

>  <PUBCHEM_COORDINATE_TYPE>  (1) 
2
5
10

$$$$
