15334
     RDKit          3D

 17 17  0  0  0  0  0  0  0  0999 V2000
    0.0178   -3.4684    0.0010 F   0  0  0  0  0  0  0  0  0  0  0  0
   -2.3373    0.5159    0.1440 N   0  0  0  0  0  0  0  0  0  0  0  0
    2.3431    0.5335   -0.1449 N   0  0  0  0  0  0  0  0  0  0  0  0
    0.0028    0.5564   -0.0001 N   0  0  0  0  0  0  0  0  0  0  0  0
    1.2082   -1.5172   -0.0737 N   0  0  0  0  0  0  0  0  0  0  0  0
   -1.1869   -1.5263    0.0739 N   0  0  0  0  0  0  0  0  0  0  0  0
   -2.3669    1.9729    0.1453 C   0  0  0  0  0  0  0  0  0  0  0  0
   -3.6071   -0.1966    0.2084 C   0  0  0  0  0  0  0  0  0  0  0  0
    2.3472    1.9822   -0.1459 C   0  0  0  0  0  0  0  0  0  0  0  0
    3.6037   -0.1779   -0.2085 C   0  0  0  0  0  0  0  0  0  0  0  0
   -1.1290   -0.1770    0.0699 C   0  0  0  0  0  0  0  0  0  0  0  0
    1.1256   -0.1770   -0.0693 C   0  0  0  0  0  0  0  0  0  0  0  0
   -2.0808    2.5266    1.5308 C   0  0  0  0  0  0  0  0  0  0  0  0
   -4.0605   -0.6363   -1.1734 C   0  0  0  0  0  0  0  0  0  0  0  0
    2.0510    2.5311   -1.5312 C   0  0  0  0  0  0  0  0  0  0  0  0
    4.0563   -0.6173    1.1736 C   0  0  0  0  0  0  0  0  0  0  0  0
    0.0129   -2.1248    0.0001 C   0  0  0  0  0  0  0  0  0  0  0  0
  1 17  1  0
  2  7  1  0
  2  8  1  0
  2 11  1  0
  3  9  1  0
  3 10  1  0
  3 12  1  0
  4 11  2  0
  4 12  1  0
  5 12  2  0
  5 17  1  0
  6 11  1  0
  6 17  2  0
  7 13  1  0
  8 14  1  0
  9 15  1  0
 10 16  1  0
M  END
>  <PUBCHEM_COMPOUND_CID>  (1) 
15334

>  <PUBCHEM_CONFORMER_RMSD>  (1) 
0.8

>  <PUBCHEM_CONFORMER_DIVERSEORDER>  (1) 
1
12
3
14
13
11
6
15
10
5
16
8
9
4
2
17
7

>  <PUBCHEM_MMFF94_PARTIAL_CHARGES>  (1) 
13
1 -0.19
10 0.37
11 0.72
12 0.72
17 0.81
2 -0.84
3 -0.84
4 -0.62
5 -0.62
6 -0.62
7 0.37
8 0.37
9 0.37

>  <PUBCHEM_EFFECTIVE_ROTOR_COUNT>  (1) 
6

>  <PUBCHEM_PHARMACOPHORE_FEATURES>  (1) 
3
4 2 4 6 11 cation
4 3 4 5 12 cation
6 4 5 6 11 12 17 rings

>  <PUBCHEM_HEAVY_ATOM_COUNT>  (1) 
17

>  <PUBCHEM_ATOM_DEF_STEREO_COUNT>  (1) 
0

>  <PUBCHEM_ATOM_UDEF_STEREO_COUNT>  (1) 
0

>  <PUBCHEM_BOND_DEF_STEREO_COUNT>  (1) 
0

>  <PUBCHEM_BOND_UDEF_STEREO_COUNT>  (1) 
0

>  <PUBCHEM_ISOTOPIC_ATOM_COUNT>  (1) 
0

>  <PUBCHEM_COMPONENT_COUNT>  (1) 
1

>  <PUBCHEM_CACTVS_TAUTO_COUNT>  (1) 
1

>  <PUBCHEM_CONFORMER_ID>  (1) 
00003BE600000001

>  <PUBCHEM_MMFF94_ENERGY>  (1) 
41.9163

>  <PUBCHEM_FEATURE_SELFOVERLAP>  (1) 
15.266

>  <PUBCHEM_SHAPE_FINGERPRINT>  (1) 
12251169 10 18334570278800336344
12403260 363 18410565193353513152
13140716 1 18266742569928797251
13380535 76 18410572889945989787
13538477 17 18191303982267723310
13583140 156 17168141286377787459
14178342 30 18196372515796547017
15442244 35 18408603665237282280
15490181 8 18338535078521736710
16945 1 18410586084074622790
17862501 102 18339069424098429434
18186145 218 18409732893232037757
19107657 47 17675920993122807501
192875 21 18410003351544138077
200 152 18342444946776856133
20510252 161 18273496788264214328
20671657 1 18188501297285804396
21501502 16 18196088833570519379
21524375 3 18408604759836991642
22094290 62 18334295409356817252
2334 1 17978513366234468163
23402539 116 18272639156441333805
23419403 2 16249618236256999190
23557571 272 17275108305867875633
23559900 14 18200037390907345764
2748010 2 17334777972983794345
352729 6 18338804531880126854
537710 114 18267027339683428837
58051976 378 18342453721179010871
6992083 37 18333449829117652760
7364860 26 17983298118800541095
74978 22 18263084473732183646
7832392 63 17980770333157548145

>  <PUBCHEM_SHAPE_MULTIPOLES>  (1) 
317.67
6.52
3.03
1.08
0.04
0.28
0
-0.63
0.01
0
0
0
-0.65
-1.5

>  <PUBCHEM_SHAPE_SELFOVERLAP>  (1) 
627.951

>  <PUBCHEM_SHAPE_VOLUME>  (1) 
190.7

>  <PUBCHEM_COORDINATE_TYPE>  (1) 
2
5
10

$$$$
