15347
     RDKit          3D

  8  8  0  0  0  0  0  0  0  0999 V2000
   -0.6826   -1.3729   -0.0002 N   0  0  0  0  0  0  0  0  0  0  0  0
    1.6858   -1.5036    0.0002 N   0  0  0  0  0  0  0  0  0  0  0  0
    0.6311    0.6566   -0.0001 C   0  0  0  0  0  0  0  0  0  0  0  0
    0.5028   -0.7230    0.0000 C   0  0  0  0  0  0  0  0  0  0  0  0
   -0.5321    1.4182    0.0001 C   0  0  0  0  0  0  0  0  0  0  0  0
    1.9570    1.3383   -0.0001 C   0  0  0  0  0  0  0  0  0  0  0  0
   -1.7706    0.7859    0.0001 C   0  0  0  0  0  0  0  0  0  0  0  0
   -1.7914   -0.5995   -0.0001 C   0  0  0  0  0  0  0  0  0  0  0  0
  1  4  2  0
  1  8  1  0
  2  4  1  0
  3  4  1  0
  3  5  2  0
  3  6  1  0
  5  7  1  0
  7  8  2  0
M  END
>  <PUBCHEM_COMPOUND_CID>  (1) 
15347

>  <PUBCHEM_CONFORMER_RMSD>  (1) 
0.4

>  <PUBCHEM_CONFORMER_DIVERSEORDER>  (1) 
1

>  <PUBCHEM_MMFF94_PARTIAL_CHARGES>  (1) 
13
1 -0.62
13 0.15
14 0.15
15 0.4
16 0.4
2 -0.9
3 -0.14
4 0.41
5 -0.15
6 0.14
7 -0.15
8 0.16
9 0.15

>  <PUBCHEM_EFFECTIVE_ROTOR_COUNT>  (1) 
0

>  <PUBCHEM_PHARMACOPHORE_FEATURES>  (1) 
4
1 1 acceptor
1 2 cation
1 2 donor
6 1 3 4 5 7 8 rings

>  <PUBCHEM_HEAVY_ATOM_COUNT>  (1) 
8

>  <PUBCHEM_ATOM_DEF_STEREO_COUNT>  (1) 
0

>  <PUBCHEM_ATOM_UDEF_STEREO_COUNT>  (1) 
0

>  <PUBCHEM_BOND_DEF_STEREO_COUNT>  (1) 
0

>  <PUBCHEM_BOND_UDEF_STEREO_COUNT>  (1) 
0

>  <PUBCHEM_ISOTOPIC_ATOM_COUNT>  (1) 
0

>  <PUBCHEM_COMPONENT_COUNT>  (1) 
1

>  <PUBCHEM_CACTVS_TAUTO_COUNT>  (1) 
2

>  <PUBCHEM_CONFORMER_ID>  (1) 
00003BF300000001

>  <PUBCHEM_MMFF94_ENERGY>  (1) 
26.7511

>  <PUBCHEM_FEATURE_SELFOVERLAP>  (1) 
20.297

>  <PUBCHEM_SHAPE_FINGERPRINT>  (1) 
16714656 1 17977670032373716004
18185500 45 18195806486398800047
21040471 1 18410574023859164165
23552423 10 18333735727688904910
2748010 2 18410012117756667885
29004967 10 18188499106461618945

>  <PUBCHEM_SHAPE_MULTIPOLES>  (1) 
154.67
2.41
1.76
0.6
0.17
0.22
0
-0.25
0
0.38
0
-0.01
-0.03
0

>  <PUBCHEM_SHAPE_SELFOVERLAP>  (1) 
318.128

>  <PUBCHEM_SHAPE_VOLUME>  (1) 
88.4

>  <PUBCHEM_COORDINATE_TYPE>  (1) 
2
5
10

$$$$
