1535
     RDKit          3D

 18 19  0  0  0  0  0  0  0  0999 V2000
    1.1497    1.6544   -0.3638 S   0  0  0  0  0  0  0  0  0  0  0  0
    2.5186   -0.8685   -0.9787 S   0  0  0  0  0  0  0  0  0  0  0  0
    1.3710    1.9252   -1.7738 O   0  0  0  0  0  0  0  0  0  0  0  0
    1.3091    2.6945    0.6396 O   0  0  0  0  0  0  0  0  0  0  0  0
   -4.8314   -0.7561    1.2817 O   0  0  0  0  0  0  0  0  0  0  0  0
   -4.7200   -1.4514   -0.7976 O   0  0  0  0  0  0  0  0  0  0  0  0
    3.9759   -0.8395    1.1562 N   0  0  0  0  0  0  0  0  0  0  0  0
   -4.2264   -0.8485    0.1861 N   0  0  0  0  0  0  0  0  0  0  0  0
    4.3120   -2.6988   -0.2655 N   0  0  0  0  0  0  0  0  0  0  0  0
   -0.4262    0.9201   -0.2023 C   0  0  0  0  0  0  0  0  0  0  0  0
    2.3599    0.4189    0.1149 C   0  0  0  0  0  0  0  0  0  0  0  0
   -1.1172    1.0097    1.0062 C   0  0  0  0  0  0  0  0  0  0  0  0
   -0.9946    0.2442   -1.2821 C   0  0  0  0  0  0  0  0  0  0  0  0
   -2.3763    0.4235    1.1350 C   0  0  0  0  0  0  0  0  0  0  0  0
   -2.2538   -0.3419   -1.1533 C   0  0  0  0  0  0  0  0  0  0  0  0
   -2.9446   -0.2523    0.0553 C   0  0  0  0  0  0  0  0  0  0  0  0
    3.1848    0.2925    1.1748 C   0  0  0  0  0  0  0  0  0  0  0  0
    3.7094   -1.5260    0.0674 C   0  0  0  0  0  0  0  0  0  0  0  0
  1  3  2  0
  1  4  2  0
  1 10  1  0
  1 11  1  0
  2 11  1  0
  2 18  1  0
  5  8  1  0
  6  8  2  0
  7 17  1  0
  7 18  2  0
  8 16  1  0
  9 18  1  0
 10 12  2  0
 10 13  1  0
 11 17  2  0
 12 14  1  0
 13 15  2  0
 14 16  2  0
 15 16  1  0
M  CHG  2   5  -1   8   1
M  END
>  <PUBCHEM_COMPOUND_CID>  (1) 
1535

>  <PUBCHEM_CONFORMER_RMSD>  (1) 
0.6

>  <PUBCHEM_CONFORMER_DIVERSEORDER>  (1) 
1
2

>  <PUBCHEM_MMFF94_PARTIAL_CHARGES>  (1) 
25
1 1.37
10 -0.01
11 -0.02
12 -0.15
13 -0.15
14 -0.15
15 -0.15
16 0.13
17 0.08
18 0.46
19 0.15
2 -0.08
20 0.15
21 0.15
22 0.15
23 0.15
24 0.4
25 0.4
3 -0.65
4 -0.65
5 -0.52
6 -0.52
7 -0.57
8 0.91
9 -0.88

>  <PUBCHEM_EFFECTIVE_ROTOR_COUNT>  (1) 
3

>  <PUBCHEM_PHARMACOPHORE_FEATURES>  (1) 
9
1 3 acceptor
1 4 acceptor
1 5 acceptor
1 5 anion
1 6 acceptor
1 9 donor
3 7 9 18 cation
5 2 7 11 17 18 rings
6 10 12 13 14 15 16 rings

>  <PUBCHEM_HEAVY_ATOM_COUNT>  (1) 
18

>  <PUBCHEM_ATOM_DEF_STEREO_COUNT>  (1) 
0

>  <PUBCHEM_ATOM_UDEF_STEREO_COUNT>  (1) 
0

>  <PUBCHEM_BOND_DEF_STEREO_COUNT>  (1) 
0

>  <PUBCHEM_BOND_UDEF_STEREO_COUNT>  (1) 
0

>  <PUBCHEM_ISOTOPIC_ATOM_COUNT>  (1) 
0

>  <PUBCHEM_COMPONENT_COUNT>  (1) 
1

>  <PUBCHEM_CACTVS_TAUTO_COUNT>  (1) 
2

>  <PUBCHEM_CONFORMER_ID>  (1) 
000005FF00000001

>  <PUBCHEM_MMFF94_ENERGY>  (1) 
32.9686

>  <PUBCHEM_FEATURE_SELFOVERLAP>  (1) 
45.769

>  <PUBCHEM_SHAPE_FINGERPRINT>  (1) 
10465860 71 15357699703784247319
10618630 7 18337110043312690158
11132069 177 14476957891744250865
11543360 7 12685099184935714041
12251169 10 16845567625914820088
12363563 72 18113620045433215282
12553582 1 18343862221364763516
12633257 1 15913035513339858906
12892183 10 17346591933651119962
13296908 3 18336257943144306908
13533116 47 18339645654707966979
13675066 3 18202281403322421873
14123255 52 9007052470060094194
14178342 30 17559130791001160617
1420 369 18412826871639841859
14251764 38 10662730004738778571
14252887 29 18410567397193845856
14341114 328 16773220903532204578
15342168 16 11023815197745259306
15342816 4 17749385924027782874
15422964 175 18340770321547726038
16752209 62 15357959167259404773
17834072 32 9870877196691806634
1798214 55 10663811979845629842
1813 80 18335147449316745404
18186145 218 15719663360160458333
193927 3 18333737892168007258
19862831 5 12901545732406937606
20291156 8 18340204090276181162
20361792 2 18186803539478381804
20388580 30 18186809071390815476
20559304 39 18059866102824991252
20645477 70 17895479240474118915
20671657 53 17530962467017949708
20871998 22 18411134715013293652
20871999 31 16443345330108199268
2255824 54 18196093476282967012
22620623 9 17315067766740571420
22646028 28 18408886217749747810
23402655 69 12107792882716470202
23557571 272 16805594889456657668
23559900 14 16081086021405967247
3286 77 18261108599481068373
394222 165 17342943964038773248
4072396 5 17346608465391581477
4463277 69 18334852827007272159
4990 188 16298661785084413201
633830 44 16588575531023964175
7097593 13 17846490469786373704
7808743 9 12750367359577040178
7970288 3 18410575041915015850
90316 7 17560808723313307169
94968 8 18113338609237862978

>  <PUBCHEM_SHAPE_MULTIPOLES>  (1) 
339.71
8.77
2.13
1.39
4.18
0.21
0.15
-6.89
-2.08
-1.9
0.2
0.12
0.23
-0.22

>  <PUBCHEM_SHAPE_SELFOVERLAP>  (1) 
706.171

>  <PUBCHEM_SHAPE_VOLUME>  (1) 
194.9

>  <PUBCHEM_COORDINATE_TYPE>  (1) 
2
5
10

$$$$
