15354
     RDKit          3D

 21 23  0  0  0  0  0  0  0  0999 V2000
   -0.5238    3.0648    0.0013 Br  0  0  0  0  0  0  0  0  0  0  0  0
   -0.6359    0.1876   -0.0004 C   0  0  0  0  0  0  0  0  0  0  0  0
   -2.0862    0.2989   -0.0003 C   0  0  0  0  0  0  0  0  0  0  0  0
    0.0284   -1.1567    0.0000 C   0  0  0  0  0  0  0  0  0  0  0  0
    0.1620    1.3046    0.0001 C   0  0  0  0  0  0  0  0  0  0  0  0
    1.6385    1.2549    0.0000 C   0  0  0  0  0  0  0  0  0  0  0  0
   -2.7815    0.3527    1.2078 C   0  0  0  0  0  0  0  0  0  0  0  0
    0.3174   -1.7420   -1.2078 C   0  0  0  0  0  0  0  0  0  0  0  0
   -2.7818    0.3520   -1.2084 C   0  0  0  0  0  0  0  0  0  0  0  0
    0.3175   -1.7414    1.2082 C   0  0  0  0  0  0  0  0  0  0  0  0
    2.3127    1.2327   -1.2081 C   0  0  0  0  0  0  0  0  0  0  0  0
    2.3130    1.2318    1.2080 C   0  0  0  0  0  0  0  0  0  0  0  0
   -4.1723    0.4593    1.2079 C   0  0  0  0  0  0  0  0  0  0  0  0
    0.9351   -2.9926   -1.2077 C   0  0  0  0  0  0  0  0  0  0  0  0
   -4.1726    0.4587   -1.2080 C   0  0  0  0  0  0  0  0  0  0  0  0
    0.9354   -2.9920    1.2083 C   0  0  0  0  0  0  0  0  0  0  0  0
   -4.8678    0.5123    0.0001 C   0  0  0  0  0  0  0  0  0  0  0  0
    1.2442   -3.6175    0.0003 C   0  0  0  0  0  0  0  0  0  0  0  0
    3.7068    1.1855   -1.2083 C   0  0  0  0  0  0  0  0  0  0  0  0
    3.7071    1.1847    1.2076 C   0  0  0  0  0  0  0  0  0  0  0  0
    4.4039    1.1615   -0.0005 C   0  0  0  0  0  0  0  0  0  0  0  0
  1  5  1  0
  2  3  1  0
  2  4  1  0
  2  5  2  3
  3  7  2  0
  3  9  1  0
  4  8  2  0
  4 10  1  0
  5  6  1  0
  6 11  2  0
  6 12  1  0
  7 13  1  0
  8 14  1  0
  9 15  2  0
 10 16  2  0
 11 19  1  0
 12 20  2  0
 13 17  2  0
 14 18  2  0
 15 17  1  0
 16 18  1  0
 19 21  2  0
 20 21  1  0
M  END
>  <PUBCHEM_COMPOUND_CID>  (1) 
15354

>  <PUBCHEM_CONFORMER_RMSD>  (1) 
0.6

>  <PUBCHEM_CONFORMER_DIVERSEORDER>  (1) 
1

>  <PUBCHEM_MMFF94_PARTIAL_CHARGES>  (1) 
36
1 -0.11
10 -0.15
11 -0.15
12 -0.15
13 -0.15
14 -0.15
15 -0.15
16 -0.15
17 -0.15
18 -0.15
19 -0.15
2 -0.06
20 -0.15
21 -0.15
22 0.15
23 0.15
24 0.15
25 0.15
26 0.15
27 0.15
28 0.15
29 0.15
3 0.03
30 0.15
31 0.15
32 0.15
33 0.15
34 0.15
35 0.15
36 0.15
4 0.03
5 0.08
6 0.03
7 -0.15
8 -0.15
9 -0.15

>  <PUBCHEM_EFFECTIVE_ROTOR_COUNT>  (1) 
3

>  <PUBCHEM_PHARMACOPHORE_FEATURES>  (1) 
4
1 1 hydrophobe
6 3 7 9 13 15 17 rings
6 4 8 10 14 16 18 rings
6 6 11 12 19 20 21 rings

>  <PUBCHEM_HEAVY_ATOM_COUNT>  (1) 
21

>  <PUBCHEM_ATOM_DEF_STEREO_COUNT>  (1) 
0

>  <PUBCHEM_ATOM_UDEF_STEREO_COUNT>  (1) 
0

>  <PUBCHEM_BOND_DEF_STEREO_COUNT>  (1) 
0

>  <PUBCHEM_BOND_UDEF_STEREO_COUNT>  (1) 
0

>  <PUBCHEM_ISOTOPIC_ATOM_COUNT>  (1) 
0

>  <PUBCHEM_COMPONENT_COUNT>  (1) 
1

>  <PUBCHEM_CACTVS_TAUTO_COUNT>  (1) 
1

>  <PUBCHEM_CONFORMER_ID>  (1) 
00003BFA00000001

>  <PUBCHEM_MMFF94_ENERGY>  (1) 
77.0355

>  <PUBCHEM_FEATURE_SELFOVERLAP>  (1) 
20.297

>  <PUBCHEM_SHAPE_FINGERPRINT>  (1) 
10382601 240 18270977738632245433
10764073 3 15361031094961875546
107951 10 17750815396777075854
11370993 70 15769779073746784317
11578080 2 17171519874987786588
12592029 89 18333447642593898211
12644460 14 18200040542964642891
12788726 201 17547843518121073446
12969540 114 18263071270586569220
13083527 12 18121759669705004331
13140716 1 18339076102761843488
13149001 5 17982456193589068992
133893 2 18045518425443892856
13681431 1 18050567339694210382
13911987 19 18262522605789417781
14178342 30 18341062903641972201
14790565 3 18338245954240907784
15163728 17 17241346675865665940
15309172 13 18337109063548807593
15502722 9 18336266739094897863
16752209 62 18048589614739452026
16945 1 18410575097711881385
1813 80 17626392216413773335
18186145 218 18131069376249080921
20028762 73 17912091852206876191
20567600 347 18410856572572619143
20600515 1 18199751504392976480
20645476 183 17750801137020942420
20691752 17 17460331944483465145
20905425 154 18053386500672097196
21054139 6 18127956702534667327
21421861 104 18122070805741614289
21524375 3 18338796822455573935
22956985 138 18041837290453335194
23419403 2 17690333378839975138
23558518 356 17832133927678386789
23559900 14 17532653429975911931
23598288 3 17755028828202457850
266924 87 18265614286431500572
3060560 45 18340757230202661965
3383291 50 18339361856529268514
4340502 62 18411429427627720163
43471831 8 18410292467462639376
465052 167 17459200731965607601
474 4 18412269453836139933
5845 1 9112082747130917866
59755656 215 18337673001286529093
6138700 20 18339085870340888054
633830 44 18059862800106033797
70251023 43 18052258393474096863
7364860 26 18270679744958307827
81228 2 17545592821892203395
81539 233 18334011679158422287
8272917 22 18261670372745260809

>  <PUBCHEM_SHAPE_MULTIPOLES>  (1) 
438.11
7.34
3.54
1.45
4.31
3.2
0
-4.22
0
-2.48
0
-0.05
0.22
0

>  <PUBCHEM_SHAPE_SELFOVERLAP>  (1) 
949.394

>  <PUBCHEM_SHAPE_VOLUME>  (1) 
239.4

>  <PUBCHEM_COORDINATE_TYPE>  (1) 
2
5
10

$$$$
