15358
     RDKit          3D

 17 18  0  0  1  0  0  0  0  0999 V2000
    0.7041   -2.7319   -1.1878 O   0  0  0  0  0  0  0  0  0  0  0  0
    0.1067   -0.5645    0.4427 N   0  0  0  0  0  0  0  0  0  0  0  0
   -3.7601    0.9565   -0.2679 N   0  0  0  0  0  0  0  0  0  0  0  0
   -1.2933   -0.5684    0.0812 C   0  0  0  0  0  0  0  0  0  0  0  0
   -1.5253    0.3406   -1.1269 C   0  0  0  0  0  0  0  0  0  0  0  0
   -2.1348   -0.0984    1.2682 C   0  0  0  0  0  0  0  0  0  0  0  0
   -3.0158    0.4777   -1.4335 C   0  0  0  0  0  0  0  0  0  0  0  0
   -3.6032    0.0563    0.8751 C   0  0  0  0  0  0  0  0  0  0  0  0
    0.6754   -1.7757    1.0296 C   0  0  0  0  0  0  0  0  0  0  0  0
    0.9082    0.5616    0.2274 C   0  0  0  0  0  0  0  0  0  0  0  0
    1.1948   -2.6874   -0.0605 C   0  0  0  0  0  0  0  0  0  0  0  0
    1.0294    1.5450    1.2174 C   0  0  0  0  0  0  0  0  0  0  0  0
    1.6003    0.7195   -0.9801 C   0  0  0  0  0  0  0  0  0  0  0  0
    1.8294    2.6675    1.0036 C   0  0  0  0  0  0  0  0  0  0  0  0
    2.4002    1.8421   -1.1940 C   0  0  0  0  0  0  0  0  0  0  0  0
    2.3692   -3.5567    0.3077 C   0  0  0  0  0  0  0  0  0  0  0  0
    2.5148    2.8161   -0.2022 C   0  0  0  0  0  0  0  0  0  0  0  0
  1 11  2  0
  2  4  1  0
  2  9  1  0
  2 10  1  0
  3  7  1  0
  3  8  1  0
  4  5  1  0
  4  6  1  0
  5  7  1  0
  6  8  1  0
  9 11  1  0
 10 12  2  0
 10 13  1  0
 11 16  1  0
 12 14  1  0
 13 15  2  0
 14 17  2  0
 15 17  1  0
M  END
>  <PUBCHEM_COMPOUND_CID>  (1) 
15358

>  <PUBCHEM_CONFORMER_RMSD>  (1) 
0.6

>  <PUBCHEM_CONFORMER_DIVERSEORDER>  (1) 
1
93
98
82
85
60
94
83
68
101
103
59
55
96
36
87
72
70
81
91
40
64
106
63
38
99
76
100
41
75
48
49
46
69
80
13
22
104
24
84
89
32
28
44
14
16
86
105
42
33
11
74
31
43
65
97
26
77
66
58
3
50
92
12
20
37
19
67
102
8
34
27
62
17
90
23
9
54
53
35
18
57
4
10
5
39
29
47
52
79
78
25
71
2
88
73
7
6
45
15
56
61
30
51
95
21

>  <PUBCHEM_MMFF94_PARTIAL_CHARGES>  (1) 
21
1 -0.57
10 0.1
11 0.45
12 -0.15
13 -0.15
14 -0.15
15 -0.15
16 0.06
17 -0.15
2 -0.84
27 0.36
3 -0.9
30 0.15
31 0.15
32 0.15
33 0.15
37 0.15
4 0.37
7 0.27
8 0.27
9 0.43

>  <PUBCHEM_EFFECTIVE_ROTOR_COUNT>  (1) 
5.2

>  <PUBCHEM_PHARMACOPHORE_FEATURES>  (1) 
6
1 1 acceptor
1 2 cation
1 3 cation
1 3 donor
6 10 12 13 14 15 17 rings
6 3 4 5 6 7 8 rings

>  <PUBCHEM_HEAVY_ATOM_COUNT>  (1) 
17

>  <PUBCHEM_ATOM_DEF_STEREO_COUNT>  (1) 
0

>  <PUBCHEM_ATOM_UDEF_STEREO_COUNT>  (1) 
0

>  <PUBCHEM_BOND_DEF_STEREO_COUNT>  (1) 
0

>  <PUBCHEM_BOND_UDEF_STEREO_COUNT>  (1) 
0

>  <PUBCHEM_ISOTOPIC_ATOM_COUNT>  (1) 
0

>  <PUBCHEM_COMPONENT_COUNT>  (1) 
1

>  <PUBCHEM_CACTVS_TAUTO_COUNT>  (1) 
3

>  <PUBCHEM_CONFORMER_ID>  (1) 
00003BFE00000001

>  <PUBCHEM_MMFF94_ENERGY>  (1) 
51.5768

>  <PUBCHEM_FEATURE_SELFOVERLAP>  (1) 
30.446

>  <PUBCHEM_SHAPE_FINGERPRINT>  (1) 
1 1 18409166640538540270
10165383 225 17975166371398812629
11101153 10 17905057954776588902
11322862 65 17764609984905482094
12138202 97 17909554200638453476
12500047 106 18050286174609461028
12532896 13 18053104218025061842
12730499 353 18338528529524512859
12788726 201 10300774130858410644
13132413 78 18053664677045527872
13134695 92 18195794181222499637
13294875 104 18201710786731240096
13380537 58 17905319985649489636
13681431 1 18195246615921307142
14181834 199 18266154193721374019
14817 1 11157869034209459118
15309172 13 18191307293587541549
15490181 7 18196376046280860450
16945 1 18410296878240896058
1813 80 17769664104724689303
18186145 218 18199200653008584244
18410436 195 18050844425214110602
18785283 64 18260279559049924744
19765921 60 17916299622759652705
20600515 1 17827341194825299218
20711985 344 17330550363876084474
21041028 32 17979081483281492601
21524375 3 18190738841490539194
22112679 90 17626125056578111240
23175994 123 17902798461905556783
23419403 2 17031126675838416274
23526113 38 17897995842196378727
23557571 272 16755499236945633468
25 1 18057625323897387488
2748010 2 18191598651083182986
305870 269 18339918320015728424
350125 39 18192997238580135090
458136 41 18264226844632826243
5845 1 9005968368685331594
6049 1 17749960938628734461
6442390 28 18050303753540988011
7364860 26 18411133598015523267
81228 2 17186160310488120706
84936 31 18341317920997932894

>  <PUBCHEM_SHAPE_MULTIPOLES>  (1) 
334.02
4.86
3.77
1.4
4.42
3.52
-0.1
-2.86
-0.34
-4.52
0.1
0.26
-0.3
0.19

>  <PUBCHEM_SHAPE_SELFOVERLAP>  (1) 
687.343

>  <PUBCHEM_SHAPE_VOLUME>  (1) 
190

>  <PUBCHEM_COORDINATE_TYPE>  (1) 
2
5
10

$$$$
