15367
     RDKit          3D

  6  6  0  0  0  0  0  0  0  0999 V2000
    1.6967    0.0026   -0.2745 S   0  0  0  0  0  0  0  0  0  0  0  0
   -1.4805   -0.0021    0.1984 C   0  0  0  0  0  0  0  0  0  0  0  0
   -0.7629   -1.2729   -0.2494 C   0  0  0  0  0  0  0  0  0  0  0  0
   -0.7665    1.2706   -0.2498 C   0  0  0  0  0  0  0  0  0  0  0  0
    0.6587   -1.3770    0.2874 C   0  0  0  0  0  0  0  0  0  0  0  0
    0.6545    1.3788    0.2878 C   0  0  0  0  0  0  0  0  0  0  0  0
  1  5  1  0
  1  6  1  0
  2  3  1  0
  2  4  1  0
  3  5  1  0
  4  6  1  0
M  END
>  <PUBCHEM_COMPOUND_CID>  (1) 
15367

>  <PUBCHEM_CONFORMER_RMSD>  (1) 
0.4

>  <PUBCHEM_CONFORMER_DIVERSEORDER>  (1) 
1
2
3

>  <PUBCHEM_MMFF94_PARTIAL_CHARGES>  (1) 
3
1 -0.46
5 0.23
6 0.23

>  <PUBCHEM_EFFECTIVE_ROTOR_COUNT>  (1) 
1.2

>  <PUBCHEM_PHARMACOPHORE_FEATURES>  (1) 
1
6 1 2 3 4 5 6 rings

>  <PUBCHEM_HEAVY_ATOM_COUNT>  (1) 
6

>  <PUBCHEM_ATOM_DEF_STEREO_COUNT>  (1) 
0

>  <PUBCHEM_ATOM_UDEF_STEREO_COUNT>  (1) 
0

>  <PUBCHEM_BOND_DEF_STEREO_COUNT>  (1) 
0

>  <PUBCHEM_BOND_UDEF_STEREO_COUNT>  (1) 
0

>  <PUBCHEM_ISOTOPIC_ATOM_COUNT>  (1) 
0

>  <PUBCHEM_COMPONENT_COUNT>  (1) 
1

>  <PUBCHEM_CACTVS_TAUTO_COUNT>  (1) 
1

>  <PUBCHEM_CONFORMER_ID>  (1) 
00003C0700000001

>  <PUBCHEM_MMFF94_ENERGY>  (1) 
-0.0112

>  <PUBCHEM_FEATURE_SELFOVERLAP>  (1) 
5.074

>  <PUBCHEM_SHAPE_FINGERPRINT>  (1) 
16714656 1 18338812164305374774
18185500 45 18409726236022296014
20096714 4 17832990446818971838
21040471 1 18266457598848447372

>  <PUBCHEM_SHAPE_MULTIPOLES>  (1) 
127.33
1.86
1.77
0.7
0.24
0
0.01
0
0.08
-0.03
-0.05
0.04
0
0

>  <PUBCHEM_SHAPE_SELFOVERLAP>  (1) 
224.465

>  <PUBCHEM_SHAPE_VOLUME>  (1) 
80.8

>  <PUBCHEM_COORDINATE_TYPE>  (1) 
2
5
10

$$$$
