15376
     RDKit          3D

 26 30  0  0  1  0  0  0  0  0999 V2000
    0.2073   -1.7040   -1.8489 O   0  0  0  0  0  0  0  0  0  0  0  0
    1.5288   -2.2163    1.3589 O   0  0  0  0  0  0  0  0  0  0  0  0
    1.3046   -3.6888   -0.4070 O   0  0  0  0  0  0  0  0  0  0  0  0
   -2.3718    1.8219    0.6622 N   0  0  0  0  0  0  0  0  0  0  0  0
    0.6380   -0.2184   -0.0905 N   0  0  0  0  0  0  0  0  0  0  0  0
   -2.2538   -0.6423    0.0061 C   0  0  0  0  0  0  0  0  0  0  0  0
   -1.6223    0.5429    0.7787 C   0  0  0  0  0  0  0  0  0  0  0  0
   -1.2696   -1.8513    0.0512 C   0  0  0  0  0  0  0  0  0  0  0  0
   -0.1901    0.7445    0.4085 C   0  0  0  0  0  0  0  0  0  0  0  0
   -2.5860   -0.2241   -1.4446 C   0  0  0  0  0  0  0  0  0  0  0  0
    0.1719   -1.5610   -0.4339 C   0  0  0  0  0  0  0  0  0  0  0  0
   -3.5580   -1.0859    0.7154 C   0  0  0  0  0  0  0  0  0  0  0  0
   -3.3841    1.0784   -1.4913 C   0  0  0  0  0  0  0  0  0  0  0  0
   -2.6726    2.1951   -0.7280 C   0  0  0  0  0  0  0  0  0  0  0  0
    0.4873    1.9365    0.4878 C   0  0  0  0  0  0  0  0  0  0  0  0
   -1.6543    2.9117    1.3749 C   0  0  0  0  0  0  0  0  0  0  0  0
   -0.2060    3.1934    0.8895 C   0  0  0  0  0  0  0  0  0  0  0  0
    1.8956    0.3295   -0.2910 C   0  0  0  0  0  0  0  0  0  0  0  0
    1.8197    1.6874    0.0681 C   0  0  0  0  0  0  0  0  0  0  0  0
   -4.1655   -2.2751    0.0139 C   0  0  0  0  0  0  0  0  0  0  0  0
    1.0589   -2.6254    0.1461 C   0  0  0  0  0  0  0  0  0  0  0  0
    3.0907   -0.2315   -0.7726 C   0  0  0  0  0  0  0  0  0  0  0  0
    2.9672    2.4968   -0.0624 C   0  0  0  0  0  0  0  0  0  0  0  0
    4.2153    0.5913   -0.8840 C   0  0  0  0  0  0  0  0  0  0  0  0
    4.1567    1.9360   -0.5347 C   0  0  0  0  0  0  0  0  0  0  0  0
    2.3920   -3.1413    2.0277 C   0  0  0  0  0  0  0  0  0  0  0  0
  1 11  1  0
  2 21  1  0
  2 26  1  0
  3 21  2  0
  4  7  1  0
  4 14  1  0
  4 16  1  0
  5  9  1  0
  5 11  1  0
  5 18  1  0
  6  7  1  0
  6  8  1  0
  6 10  1  0
  6 12  1  0
  7  9  1  0
  8 11  1  0
  9 15  2  0
 10 13  1  0
 11 21  1  0
 12 20  1  0
 13 14  1  0
 15 17  1  0
 15 19  1  0
 16 17  1  0
 18 19  2  0
 18 22  1  0
 19 23  1  0
 22 24  2  0
 23 25  2  0
 24 25  1  0
M  END
>  <PUBCHEM_COMPOUND_CID>  (1) 
15376

>  <PUBCHEM_CONFORMER_RMSD>  (1) 
0.8

>  <PUBCHEM_CONFORMER_DIVERSEORDER>  (1) 
1
3
4
6
5
2

>  <PUBCHEM_MMFF94_PARTIAL_CHARGES>  (1) 
24
1 -0.68
11 0.6
14 0.27
15 -0.18
16 0.27
17 0.18
18 -0.15
2 -0.43
21 0.66
22 -0.15
23 -0.15
24 -0.15
25 -0.15
26 0.28
3 -0.57
4 -0.81
45 0.4
46 0.15
47 0.15
48 0.15
49 0.15
5 0.05
7 0.45
9 -0.33

>  <PUBCHEM_EFFECTIVE_ROTOR_COUNT>  (1) 
4.4

>  <PUBCHEM_PHARMACOPHORE_FEATURES>  (1) 
11
1 1 acceptor
1 1 donor
1 20 hydrophobe
1 3 acceptor
1 4 cation
1 5 cation
5 5 9 15 18 19 rings
6 18 19 22 23 24 25 rings
6 4 6 7 10 13 14 rings
6 4 7 9 15 16 17 rings
6 5 6 7 8 9 11 rings

>  <PUBCHEM_HEAVY_ATOM_COUNT>  (1) 
26

>  <PUBCHEM_ATOM_DEF_STEREO_COUNT>  (1) 
3

>  <PUBCHEM_ATOM_UDEF_STEREO_COUNT>  (1) 
0

>  <PUBCHEM_BOND_DEF_STEREO_COUNT>  (1) 
0

>  <PUBCHEM_BOND_UDEF_STEREO_COUNT>  (1) 
0

>  <PUBCHEM_ISOTOPIC_ATOM_COUNT>  (1) 
0

>  <PUBCHEM_COMPONENT_COUNT>  (1) 
1

>  <PUBCHEM_CACTVS_TAUTO_COUNT>  (1) 
1

>  <PUBCHEM_CONFORMER_ID>  (1) 
00003C1000000001

>  <PUBCHEM_MMFF94_ENERGY>  (1) 
68.1279

>  <PUBCHEM_FEATURE_SELFOVERLAP>  (1) 
56.267

>  <PUBCHEM_SHAPE_FINGERPRINT>  (1) 
10693767 8 17845083150975481239
10863032 1 18113890533899342309
10930396 42 10589812476816938366
10967382 1 17982175818139492144
1100329 8 17976542710743066859
11578080 2 17314231046865665535
12035758 1 17836090348086365787
12035759 4 18270956834873558380
12156800 1 15078703850969469344
12553582 1 17544764425975387186
12592029 89 18260827141626295970
12788726 201 18197511808055237064
13140716 1 18343305846869784960
13583140 156 17315935264319393809
140371 6 17979060601166641807
14181834 199 17971469607274114566
14223421 5 18336272262470436571
14787075 74 18121222240299523870
14790565 3 18196670681491417241
15209289 33 18127420166139343001
16945 1 18267589004898270712
17349148 13 18052233125637883187
17980427 23 17767377129365648280
192875 21 17907557165352132533
19591789 44 18051414260263961947
20028762 73 17411350114759030143
20510252 161 18269844262176596488
20691752 17 17689418808645707363
20905425 154 18341337703643555134
21421861 104 18264503810010200467
22182313 1 18052519248207629657
22393880 68 18408603634850686916
2334 1 18270403905163539776
23419403 2 17113757053277004928
23558518 356 18268170711411866392
23559900 14 18198622130004517846
23566358 2 18340214002739083735
238 59 17981289543464500317
2748010 2 18270678782885854473
283562 15 18339932622409928545
3178227 256 17976552920545098043
3380486 145 17402346256766474368
3380486 77 15816153429285552915
3383291 50 18410863187925210786
394222 165 18040422296676541216
469060 322 17895771710862844233
59755656 215 18341347655046038974
7226269 152 18269264846120493728
81228 2 16895666065585689043

>  <PUBCHEM_SHAPE_MULTIPOLES>  (1) 
507.5
6.38
4.23
1.38
0.83
1.36
-0.06
-0.75
1.5
0.77
-1.49
-0.11
0.31
-0.65

>  <PUBCHEM_SHAPE_SELFOVERLAP>  (1) 
1125.36

>  <PUBCHEM_SHAPE_VOLUME>  (1) 
267.6

>  <PUBCHEM_COORDINATE_TYPE>  (1) 
2
5
10

$$$$
