15397
     RDKit          3D

 18 19  0  0  0  0  0  0  0  0999 V2000
   -0.6666    1.5138    0.6221 O   0  0  0  0  0  0  0  0  0  0  0  0
    4.6316   -1.1109   -1.4826 O   0  0  0  0  0  0  0  0  0  0  0  0
    5.3259   -0.3404    0.4521 O   0  0  0  0  0  0  0  0  0  0  0  0
    4.4231   -0.5053   -0.4036 N   0  0  0  0  0  0  0  0  0  0  0  0
   -3.9366    0.3960   -0.5794 C   0  0  0  0  0  0  0  0  0  0  0  0
   -2.8012   -1.4543    0.4810 C   0  0  0  0  0  0  0  0  0  0  0  0
   -1.7316    0.7086    0.3575 C   0  0  0  0  0  0  0  0  0  0  0  0
   -3.9147   -0.9416   -0.1848 C   0  0  0  0  0  0  0  0  0  0  0  0
   -2.8451    1.2210   -0.3083 C   0  0  0  0  0  0  0  0  0  0  0  0
   -1.7097   -0.6292    0.7522 C   0  0  0  0  0  0  0  0  0  0  0  0
    0.5987    1.0120    0.3673 C   0  0  0  0  0  0  0  0  0  0  0  0
   -5.1271    0.9442   -1.2910 C   0  0  0  0  0  0  0  0  0  0  0  0
   -2.7780   -2.8843    0.9034 C   0  0  0  0  0  0  0  0  0  0  0  0
    0.8315    0.3449   -0.8219 C   0  0  0  0  0  0  0  0  0  0  0  0
    1.5970    1.1909    1.3078 C   0  0  0  0  0  0  0  0  0  0  0  0
    3.1257    0.0097   -0.1431 C   0  0  0  0  0  0  0  0  0  0  0  0
    2.1058   -0.1606   -1.0792 C   0  0  0  0  0  0  0  0  0  0  0  0
    2.8713    0.6854    1.0504 C   0  0  0  0  0  0  0  0  0  0  0  0
  1  7  1  0
  1 11  1  0
  2  4  1  0
  3  4  2  0
  4 16  1  0
  5  8  2  0
  5  9  1  0
  5 12  1  0
  6  8  1  0
  6 10  2  0
  6 13  1  0
  7  9  2  0
  7 10  1  0
 11 14  2  0
 11 15  1  0
 14 17  1  0
 15 18  2  0
 16 17  2  0
 16 18  1  0
M  CHG  2   2  -1   4   1
M  END
>  <PUBCHEM_COMPOUND_CID>  (1) 
15397

>  <PUBCHEM_CONFORMER_RMSD>  (1) 
0.6

>  <PUBCHEM_CONFORMER_DIVERSEORDER>  (1) 
1
2
3
5
4

>  <PUBCHEM_MMFF94_PARTIAL_CHARGES>  (1) 
25
1 -0.17
10 -0.15
11 0.08
12 0.14
13 0.14
14 -0.15
15 -0.15
16 0.13
17 -0.15
18 -0.15
19 0.15
2 -0.52
20 0.15
21 0.15
28 0.15
29 0.15
3 -0.52
30 0.15
31 0.15
4 0.91
5 -0.14
6 -0.14
7 0.08
8 -0.15
9 -0.15

>  <PUBCHEM_EFFECTIVE_ROTOR_COUNT>  (1) 
3

>  <PUBCHEM_PHARMACOPHORE_FEATURES>  (1) 
6
1 1 acceptor
1 2 acceptor
1 2 anion
1 3 acceptor
6 11 14 15 16 17 18 rings
6 5 6 7 8 9 10 rings

>  <PUBCHEM_HEAVY_ATOM_COUNT>  (1) 
18

>  <PUBCHEM_ATOM_DEF_STEREO_COUNT>  (1) 
0

>  <PUBCHEM_ATOM_UDEF_STEREO_COUNT>  (1) 
0

>  <PUBCHEM_BOND_DEF_STEREO_COUNT>  (1) 
0

>  <PUBCHEM_BOND_UDEF_STEREO_COUNT>  (1) 
0

>  <PUBCHEM_ISOTOPIC_ATOM_COUNT>  (1) 
0

>  <PUBCHEM_COMPONENT_COUNT>  (1) 
1

>  <PUBCHEM_CACTVS_TAUTO_COUNT>  (1) 
1

>  <PUBCHEM_CONFORMER_ID>  (1) 
00003C2500000001

>  <PUBCHEM_MMFF94_ENERGY>  (1) 
62.4662

>  <PUBCHEM_FEATURE_SELFOVERLAP>  (1) 
30.528

>  <PUBCHEM_SHAPE_FINGERPRINT>  (1) 
10366900 7 18131631166676889688
107951 10 17312827052696893819
10803635 8 18113330890891592055
11315181 36 18202846552299176848
11543360 7 17968671509380090148
11796584 16 18334011675343840906
12236239 1 16732980912053305548
12346177 29 18336258046350239471
12363563 72 17846226556778085564
124424 183 18272368676533486333
12500047 106 18261386746021661359
12507557 5 12967126103598982259
12555020 224 18337384959753397495
13296908 3 18270964660409271785
13544592 145 18411975875847356569
13544653 18 17632865209054207512
14115302 16 18261115183702966941
14251764 30 16953683837473611435
14252887 29 16559039259956938428
14341114 328 13039191437152172239
14386348 63 18273216408509321438
15163728 17 17098598100045825989
15375358 24 18272643576089405177
15880784 105 16128655223977717478
17862501 102 14692566619739309341
17870717 6 18337401464959132383
18186145 218 13551194420083936396
18222031 100 16917069945543812620
19784866 34 14201404906262369956
19862831 5 17095244734834620620
200 152 16630239251762321557
20279233 1 18202284714478398013
20325693 3 17967254196042265119
20374829 77 18411695482759045977
20432913 95 16845293830445019326
20645476 183 17240199946031938907
20645477 70 17847056696768232652
20681677 155 17749106694828416113
20871999 31 17895197743880205339
21065201 7 18188480380451596915
21682296 61 16915675683411822574
221490 88 18267027343645853024
22849339 104 18260843613053307263
231179 274 11241967101295298716
23402539 116 18336819823767130797
23402655 69 15285350704610151957
23403322 49 18343305855290485335
23557571 272 18117552040759041633
23559900 14 18410569617613251720
26918003 58 18202560683217422976
27216 239 9223234027166733535
4921388 177 17822017544518450363
559249 180 17895186680002578003
58051976 100 17749106716709362719
59755656 215 18334570253437396447
59755656 520 18340489972659451449
81228 2 18130239142355372537
8809292 202 18411421738971491979
9709674 26 18268421524590190049

>  <PUBCHEM_SHAPE_MULTIPOLES>  (1) 
347.84
10.23
1.82
1.23
4.77
1.23
0.11
1.61
3.05
-2.06
-0.41
0.57
-0.06
1.49

>  <PUBCHEM_SHAPE_SELFOVERLAP>  (1) 
749.602

>  <PUBCHEM_SHAPE_VOLUME>  (1) 
194

>  <PUBCHEM_COORDINATE_TYPE>  (1) 
2
5
10

$$$$
