15398
     RDKit          3D

 16 16  0  0  1  0  0  0  0  0999 V2000
    0.5207   -2.4592    1.2525 Cl  0  0  0  0  0  0  0  0  0  0  0  0
    5.0411    0.3219    0.3576 Cl  0  0  0  0  0  0  0  0  0  0  0  0
   -1.7759    3.7938    0.6971 O   0  0  0  0  0  0  0  0  0  0  0  0
   -1.6361    0.1790   -0.0093 N   0  0  0  0  0  0  0  0  0  0  0  0
   -0.7617   -0.6228   -0.8644 C   0  0  0  0  0  0  0  0  0  0  0  0
   -1.3063    1.5988   -0.1291 C   0  0  0  0  0  0  0  0  0  0  0  0
    0.6923   -0.4104   -0.5360 C   0  0  0  0  0  0  0  0  0  0  0  0
   -3.0386   -0.0506   -0.3542 C   0  0  0  0  0  0  0  0  0  0  0  0
   -2.1406    2.4269    0.8351 C   0  0  0  0  0  0  0  0  0  0  0  0
    1.3411   -1.1980    0.4065 C   0  0  0  0  0  0  0  0  0  0  0  0
    1.3702    0.6009   -1.2059 C   0  0  0  0  0  0  0  0  0  0  0  0
    2.6891   -0.9713    0.6837 C   0  0  0  0  0  0  0  0  0  0  0  0
    2.7182    0.8278   -0.9287 C   0  0  0  0  0  0  0  0  0  0  0  0
    3.3777    0.0416    0.0162 C   0  0  0  0  0  0  0  0  0  0  0  0
   -3.3963   -1.4619   -0.1808 C   0  0  0  0  0  0  0  0  0  0  0  0
   -3.6947   -2.6164   -0.0401 C   0  0  0  0  0  0  0  0  0  0  0  0
  1 10  1  0
  2 14  1  0
  3  9  1  0
  4  5  1  0
  4  6  1  0
  4  8  1  0
  5  7  1  0
  6  9  1  0
  7 10  2  0
  7 11  1  0
  8 15  1  0
 10 12  1  0
 11 13  2  0
 12 14  2  0
 13 14  1  0
 15 16  3  0
M  END
>  <PUBCHEM_COMPOUND_CID>  (1) 
15398

>  <PUBCHEM_CONFORMER_RMSD>  (1) 
0.6

>  <PUBCHEM_CONFORMER_DIVERSEORDER>  (1) 
2
16
45
39
23
50
42
18
34
51
48
31
54
44
46
21
43
52
20
13
36
35
24
53
33
28
49
22
11
15
12
26
38
40
5
30
8
25
32
47
37
6
17
4
27
29
19
41
1
9
14
7
3
10

>  <PUBCHEM_MMFF94_PARTIAL_CHARGES>  (1) 
21
1 -0.18
10 0.18
11 -0.15
12 -0.15
13 -0.15
14 0.18
15 -0.2
16 -0.18
2 -0.18
25 0.15
26 0.15
27 0.15
28 0.4
29 0.18
3 -0.68
4 -0.81
5 0.41
6 0.27
7 -0.14
8 0.47
9 0.28

>  <PUBCHEM_EFFECTIVE_ROTOR_COUNT>  (1) 
5

>  <PUBCHEM_PHARMACOPHORE_FEATURES>  (1) 
5
1 16 hydrophobe
1 3 acceptor
1 3 donor
1 4 cation
6 7 10 11 12 13 14 rings

>  <PUBCHEM_HEAVY_ATOM_COUNT>  (1) 
16

>  <PUBCHEM_ATOM_DEF_STEREO_COUNT>  (1) 
0

>  <PUBCHEM_ATOM_UDEF_STEREO_COUNT>  (1) 
0

>  <PUBCHEM_BOND_DEF_STEREO_COUNT>  (1) 
0

>  <PUBCHEM_BOND_UDEF_STEREO_COUNT>  (1) 
0

>  <PUBCHEM_ISOTOPIC_ATOM_COUNT>  (1) 
0

>  <PUBCHEM_COMPONENT_COUNT>  (1) 
1

>  <PUBCHEM_CACTVS_TAUTO_COUNT>  (1) 
1

>  <PUBCHEM_CONFORMER_ID>  (1) 
00003C2600000002

>  <PUBCHEM_MMFF94_ENERGY>  (1) 
39.3908

>  <PUBCHEM_FEATURE_SELFOVERLAP>  (1) 
25.371

>  <PUBCHEM_SHAPE_FINGERPRINT>  (1) 
108231 29 18120658186919328515
11806522 49 18187359973892711326
12596602 18 17896859106767804144
13032168 30 18260547844124086307
13583140 156 17273672322718996858
13764800 53 17417536783167039921
14178342 30 18263919943428728082
14787075 74 18047749587776229166
15279307 12 18191031092809266219
15375462 189 18261962963440569395
15375462 478 18410569612964532022
15420108 30 15535001065033055397
15775835 57 18268996384351234424
16945 1 18272655670464031942
17862501 102 18187919603962870450
200 152 18188201108746071327
20510252 161 18341895203299165698
23402539 116 18339073895217569406
23419403 2 16028676945470984270
23557571 272 18131352994540767517
23558518 356 18335994055642234218
2748010 2 16529464316513795190
3312278 4 18407754842155254703
352729 6 17897179115758746002
7097593 13 17974563594187217186
7832392 63 18122910824177640476
81228 2 18129675106059528673

>  <PUBCHEM_SHAPE_MULTIPOLES>  (1) 
322.16
7.24
3.06
1.06
3.68
1.91
0
-1.42
0.24
-3.54
1.37
0.2
0.05
-1.08

>  <PUBCHEM_SHAPE_SELFOVERLAP>  (1) 
636.797

>  <PUBCHEM_SHAPE_VOLUME>  (1) 
193.6

>  <PUBCHEM_COORDINATE_TYPE>  (1) 
2
5
10

$$$$
