15392
     RDKit          3D

 12 13  0  0  1  0  0  0  0  0999 V2000
    1.9968    1.7746    0.6729 O   0  0  0  0  0  0  0  0  0  0  0  0
    2.5372   -0.4946    0.9495 N   0  0  0  0  0  0  0  0  0  0  0  0
    1.0915   -0.3045   -0.5014 C   0  0  0  0  0  0  0  0  0  0  0  0
    1.8408   -1.4764    0.1345 C   0  0  0  0  0  0  0  0  0  0  0  0
    1.8983    0.5916    0.4405 C   0  0  0  0  0  0  0  0  0  0  0  0
   -0.4241   -0.1442   -0.2138 C   0  0  0  0  0  0  0  0  0  0  0  0
    1.3586   -0.0911   -1.9659 C   0  0  0  0  0  0  0  0  0  0  0  0
   -1.0307    1.1048   -0.3457 C   0  0  0  0  0  0  0  0  0  0  0  0
   -1.1806   -1.2490    0.1770 C   0  0  0  0  0  0  0  0  0  0  0  0
   -2.3938    1.2492   -0.0870 C   0  0  0  0  0  0  0  0  0  0  0  0
   -2.5437   -1.1048    0.4356 C   0  0  0  0  0  0  0  0  0  0  0  0
   -3.1502    0.1444    0.3037 C   0  0  0  0  0  0  0  0  0  0  0  0
  1  5  2  0
  2  4  1  0
  2  5  1  0
  3  4  1  0
  3  5  1  0
  3  6  1  0
  3  7  1  0
  6  8  2  0
  6  9  1  0
  8 10  1  0
  9 11  2  0
 10 12  2  0
 11 12  1  0
M  END
>  <PUBCHEM_COMPOUND_CID>  (1) 
15392

>  <PUBCHEM_CONFORMER_RMSD>  (1) 
0.4

>  <PUBCHEM_CONFORMER_DIVERSEORDER>  (1) 
2
4
1
3

>  <PUBCHEM_MMFF94_PARTIAL_CHARGES>  (1) 
17
1 -0.57
10 -0.15
11 -0.15
12 -0.15
15 0.37
19 0.15
2 -0.65
20 0.15
21 0.15
22 0.15
23 0.15
3 0.16
4 0.22
5 0.58
6 -0.11
8 -0.15
9 -0.15

>  <PUBCHEM_EFFECTIVE_ROTOR_COUNT>  (1) 
1.6

>  <PUBCHEM_PHARMACOPHORE_FEATURES>  (1) 
4
1 1 acceptor
1 2 donor
4 2 3 4 5 rings
6 6 8 9 10 11 12 rings

>  <PUBCHEM_HEAVY_ATOM_COUNT>  (1) 
12

>  <PUBCHEM_ATOM_DEF_STEREO_COUNT>  (1) 
0

>  <PUBCHEM_ATOM_UDEF_STEREO_COUNT>  (1) 
1

>  <PUBCHEM_BOND_DEF_STEREO_COUNT>  (1) 
0

>  <PUBCHEM_BOND_UDEF_STEREO_COUNT>  (1) 
0

>  <PUBCHEM_ISOTOPIC_ATOM_COUNT>  (1) 
0

>  <PUBCHEM_COMPONENT_COUNT>  (1) 
1

>  <PUBCHEM_CACTVS_TAUTO_COUNT>  (1) 
2

>  <PUBCHEM_CONFORMER_ID>  (1) 
00003C2000000002

>  <PUBCHEM_MMFF94_ENERGY>  (1) 
32.1198

>  <PUBCHEM_FEATURE_SELFOVERLAP>  (1) 
20.297

>  <PUBCHEM_SHAPE_FINGERPRINT>  (1) 
10857977 72 18335423516908381697
11031198 65 16128664067130444931
12251169 10 18411410722132380066
12326174 3 17131559319156997382
12423570 1 16329098723504440294
12524768 44 18272097114515296893
12696612 119 18340485655167825064
12932764 1 18411711984376954927
15775835 57 18334864883107066017
16945 1 18340763758552685495
17804303 29 18190180079246730626
18186145 218 17916594111909243609
19973954 147 18342458118966968017
20201158 50 18343298137302676851
20361792 2 15647044945903201330
20645464 45 18201721743150399411
21501502 16 18341044207190429057
21524375 3 17556570281976361968
23552423 10 17748835106966835747
2748010 2 18409169913488106311
3248919 1 17132116818933777303
369184 2 18410851062498401667
5084963 1 17749676177511360495
7364860 26 18412268324407369310
8030462 33 18260275165462021711

>  <PUBCHEM_SHAPE_MULTIPOLES>  (1) 
236.1
4.3
1.53
1.1
1.59
0.1
0.5
0.01
-0.85
0
-0.24
-0.74
0.07
0.26

>  <PUBCHEM_SHAPE_SELFOVERLAP>  (1) 
506.015

>  <PUBCHEM_SHAPE_VOLUME>  (1) 
130.7

>  <PUBCHEM_COORDINATE_TYPE>  (1) 
2
5
10

$$$$
