15405
     RDKit          3D

  9 10  0  0  0  0  0  0  0  0999 V2000
    2.4725   -0.1714    0.0001 O   0  0  0  0  0  0  0  0  0  0  0  0
   -0.9718   -1.0559   -0.0007 N   0  0  0  0  0  0  0  0  0  0  0  0
    0.4216   -1.2807    0.0000 N   0  0  0  0  0  0  0  0  0  0  0  0
    0.4087    1.1126    0.0007 C   0  0  0  0  0  0  0  0  0  0  0  0
   -0.4829    1.0402   -1.2478 C   0  0  0  0  0  0  0  0  0  0  0  0
   -0.4845    1.0394    1.2481 C   0  0  0  0  0  0  0  0  0  0  0  0
   -1.3052   -0.2625   -1.2050 C   0  0  0  0  0  0  0  0  0  0  0  0
   -1.3064   -0.2633    1.2038 C   0  0  0  0  0  0  0  0  0  0  0  0
    1.2480   -0.1585    0.0007 C   0  0  0  0  0  0  0  0  0  0  0  0
  1  9  2  0
  2  3  1  0
  2  7  1  0
  2  8  1  0
  3  9  1  0
  4  5  1  0
  4  6  1  0
  4  9  1  0
  5  7  1  0
  6  8  1  0
M  END
>  <PUBCHEM_COMPOUND_CID>  (1) 
15405

>  <PUBCHEM_CONFORMER_RMSD>  (1) 
0.4

>  <PUBCHEM_CONFORMER_DIVERSEORDER>  (1) 
1

>  <PUBCHEM_MMFF94_PARTIAL_CHARGES>  (1) 
8
1 -0.57
19 0.37
2 -0.55
3 -0.42
4 0.06
7 0.27
8 0.27
9 0.57

>  <PUBCHEM_EFFECTIVE_ROTOR_COUNT>  (1) 
1

>  <PUBCHEM_PHARMACOPHORE_FEATURES>  (1) 
3
1 1 acceptor
1 3 donor
8 2 3 4 5 6 7 8 9 rings

>  <PUBCHEM_HEAVY_ATOM_COUNT>  (1) 
9

>  <PUBCHEM_ATOM_DEF_STEREO_COUNT>  (1) 
0

>  <PUBCHEM_ATOM_UDEF_STEREO_COUNT>  (1) 
0

>  <PUBCHEM_BOND_DEF_STEREO_COUNT>  (1) 
0

>  <PUBCHEM_BOND_UDEF_STEREO_COUNT>  (1) 
0

>  <PUBCHEM_ISOTOPIC_ATOM_COUNT>  (1) 
0

>  <PUBCHEM_COMPONENT_COUNT>  (1) 
1

>  <PUBCHEM_CACTVS_TAUTO_COUNT>  (1) 
2

>  <PUBCHEM_CONFORMER_ID>  (1) 
00003C2D00000001

>  <PUBCHEM_MMFF94_ENERGY>  (1) 
20.2444

>  <PUBCHEM_FEATURE_SELFOVERLAP>  (1) 
15.223

>  <PUBCHEM_SHAPE_FINGERPRINT>  (1) 
12423570 1 13933996406648691053
13024252 1 14490480768000415736
137420 1 14858428979750235989
16945 1 18410856542697342697
29004967 10 17314243339125337048
369184 2 17846486007573803218
5943 1 12111786248439007393

>  <PUBCHEM_SHAPE_MULTIPOLES>  (1) 
169.38
1.9
1.32
1.27
1.11
0
0.06
0
-0.34
-0.61
0.28
-0.08
0
0

>  <PUBCHEM_SHAPE_SELFOVERLAP>  (1) 
355.469

>  <PUBCHEM_SHAPE_VOLUME>  (1) 
95.6

>  <PUBCHEM_COORDINATE_TYPE>  (1) 
2
5
10

$$$$
