1543
     RDKit          3D

 27 30  0  0  0  0  0  0  0  0999 V2000
    6.8475   -1.5912    0.0064 F   0  0  0  0  0  0  0  0  0  0  0  0
    3.8815    2.8005   -1.2142 O   0  0  0  0  0  0  0  0  0  0  0  0
    3.9925    2.9617    1.0411 O   0  0  0  0  0  0  0  0  0  0  0  0
    1.3521   -1.2303   -0.0020 N   0  0  0  0  0  0  0  0  0  0  0  0
    1.4727    1.1807    0.0270 C   0  0  0  0  0  0  0  0  0  0  0  0
    0.7722   -0.0083    0.0113 C   0  0  0  0  0  0  0  0  0  0  0  0
    2.8582    1.1089    0.0292 C   0  0  0  0  0  0  0  0  0  0  0  0
    3.4995   -0.1371    0.0156 C   0  0  0  0  0  0  0  0  0  0  0  0
   -0.6737   -0.0486    0.0079 C   0  0  0  0  0  0  0  0  0  0  0  0
    2.6968   -1.2970    0.0002 C   0  0  0  0  0  0  0  0  0  0  0  0
    0.7662    2.4970    0.0409 C   0  0  0  0  0  0  0  0  0  0  0  0
   -3.4628   -0.1251    0.0022 C   0  0  0  0  0  0  0  0  0  0  0  0
   -1.3695   -0.0534   -1.2014 C   0  0  0  0  0  0  0  0  0  0  0  0
   -1.3733   -0.0821    1.2144 C   0  0  0  0  0  0  0  0  0  0  0  0
    4.9007   -0.2438    0.0174 C   0  0  0  0  0  0  0  0  0  0  0  0
    3.3344   -2.5345   -0.0131 C   0  0  0  0  0  0  0  0  0  0  0  0
   -2.7638   -0.0915   -1.2042 C   0  0  0  0  0  0  0  0  0  0  0  0
   -2.7678   -0.1205    1.2116 C   0  0  0  0  0  0  0  0  0  0  0  0
   -4.9092   -0.1642   -0.0010 C   0  0  0  0  0  0  0  0  0  0  0  0
    3.6193    2.3583    0.0443 C   0  0  0  0  0  0  0  0  0  0  0  0
    5.5119   -1.4942    0.0041 C   0  0  0  0  0  0  0  0  0  0  0  0
    4.7274   -2.6408   -0.0112 C   0  0  0  0  0  0  0  0  0  0  0  0
   -5.6389    1.0247    0.0116 C   0  0  0  0  0  0  0  0  0  0  0  0
   -5.5741   -1.3904   -0.0173 C   0  0  0  0  0  0  0  0  0  0  0  0
   -7.0333    0.9873    0.0082 C   0  0  0  0  0  0  0  0  0  0  0  0
   -6.9685   -1.4276   -0.0208 C   0  0  0  0  0  0  0  0  0  0  0  0
   -7.6980   -0.2387   -0.0081 C   0  0  0  0  0  0  0  0  0  0  0  0
  1 21  1  0
  2 20  1  0
  3 20  2  0
  4  6  2  0
  4 10  1  0
  5  6  1  0
  5  7  2  0
  5 11  1  0
  6  9  1  0
  7  8  1  0
  7 20  1  0
  8 10  2  0
  8 15  1  0
  9 13  2  0
  9 14  1  0
 10 16  1  0
 12 17  2  0
 12 18  1  0
 12 19  1  0
 13 17  1  0
 14 18  2  0
 15 21  2  0
 16 22  2  0
 19 23  2  0
 19 24  1  0
 21 22  1  0
 23 25  1  0
 24 26  2  0
 25 27  2  0
 26 27  1  0
M  END
>  <PUBCHEM_COMPOUND_CID>  (1) 
1543

>  <PUBCHEM_CONFORMER_RMSD>  (1) 
0.6

>  <PUBCHEM_CONFORMER_DIVERSEORDER>  (1) 
1
2

>  <PUBCHEM_MMFF94_PARTIAL_CHARGES>  (1) 
36
1 -0.19
10 0.31
11 0.14
13 -0.15
14 -0.15
15 -0.15
16 -0.15
17 -0.15
18 -0.15
2 -0.65
20 0.63
21 0.19
22 -0.15
23 -0.15
24 -0.15
25 -0.15
26 -0.15
27 -0.15
3 -0.57
31 0.15
32 0.15
33 0.15
34 0.15
35 0.15
36 0.15
37 0.15
38 0.15
39 0.15
4 -0.62
40 0.15
41 0.15
42 0.15
43 0.5
5 -0.14
6 0.31
7 0.09

>  <PUBCHEM_EFFECTIVE_ROTOR_COUNT>  (1) 
3

>  <PUBCHEM_PHARMACOPHORE_FEATURES>  (1) 
8
1 2 acceptor
1 3 acceptor
1 4 acceptor
3 2 3 20 anion
6 19 23 24 25 26 27 rings
6 4 5 6 7 8 10 rings
6 8 10 15 16 21 22 rings
6 9 12 13 14 17 18 rings

>  <PUBCHEM_HEAVY_ATOM_COUNT>  (1) 
27

>  <PUBCHEM_ATOM_DEF_STEREO_COUNT>  (1) 
0

>  <PUBCHEM_ATOM_UDEF_STEREO_COUNT>  (1) 
0

>  <PUBCHEM_BOND_DEF_STEREO_COUNT>  (1) 
0

>  <PUBCHEM_BOND_UDEF_STEREO_COUNT>  (1) 
0

>  <PUBCHEM_ISOTOPIC_ATOM_COUNT>  (1) 
0

>  <PUBCHEM_COMPONENT_COUNT>  (1) 
1

>  <PUBCHEM_CACTVS_TAUTO_COUNT>  (1) 
1

>  <PUBCHEM_CONFORMER_ID>  (1) 
0000060700000001

>  <PUBCHEM_MMFF94_ENERGY>  (1) 
99.8744

>  <PUBCHEM_FEATURE_SELFOVERLAP>  (1) 
40.689

>  <PUBCHEM_SHAPE_FINGERPRINT>  (1) 
10050765 1 18267021854577967370
10411042 1 18194965137599493666
10595046 47 18341613759194405937
10670039 82 15357973413397095535
11719270 70 17846779585826941871
12107183 9 17981613659055944969
12107698 1 18336264552819465485
12166972 35 18342177773857138121
12236239 1 17917991676543991891
12403259 415 17676196966715780973
12516196 113 18411980230537960890
12616971 3 18060410331142115711
12730499 353 18337678636304551352
12741549 16 17749663009859654156
12788726 201 17275117132394772345
13140716 1 18266737060445618362
13533116 47 18413390951174560097
13617811 41 15574713582503198719
13685833 64 18409166584582873402
13782708 43 17894346666425943107
13785724 45 17841160956422587671
14170010 4 18411134741167881632
14294032 229 16413541942984523785
14341114 176 18408888456182076461
14461889 52 18191302882787933235
14933364 13 18408324393826798765
15183329 4 18408602535824271075
15250474 111 18058998610132344255
15361156 5 17822302326588427767
15475509 35 17096066014834751146
15849732 13 17989203724544180094
17844677 252 18410297991228490317
1813 80 18128830646827642142
19427546 62 18191025805841603314
20028762 73 18201720626380723502
20157964 124 18411702118478360569
20554085 129 17844238743874025864
20612939 158 18409453591408785665
20645477 70 18334855030736879986
21130935 74 18412265069281432891
21267235 1 18341616984277151374
21315763 28 18412261736365289559
21344244 78 17988350499858984016
21792934 111 18202272590234543585
221357 26 18260828168039076837
23081809 10 17988641918027621981
23522609 53 18046094629419353405
23536379 177 18412263926782708475
23559900 14 16950856876380634446
23569914 2 17617041059732049797
23569943 247 17460306656286103579
249057 25 18060147513788558881
25147074 1 18200328636185711840
255183 451 18126292931194829150
29717793 49 17989211434173753149
3004659 81 18408039606565100979
335352 9 18409733959096362942
34797466 226 16660649586917222495
350125 39 18411419475429125668
4073 2 18114185302069314467
4098825 35 18334575724655844021
4144715 1 18334301989827100153
46194498 28 17967250910170861724
465052 167 18272090470269962190
5104073 3 18413112771128648137
59755656 215 17603866668003684035
67856867 119 18272368689307644681
70251023 43 18337110047507612938

>  <PUBCHEM_SHAPE_MULTIPOLES>  (1) 
531.65
18.43
2.64
0.9
22.28
0.94
0.02
-5.28
0.05
-5.03
0
0.19
0.18
-0.02

>  <PUBCHEM_SHAPE_SELFOVERLAP>  (1) 
1200.15

>  <PUBCHEM_SHAPE_VOLUME>  (1) 
281

>  <PUBCHEM_COORDINATE_TYPE>  (1) 
2
5
10

$$$$
