15463
     RDKit          3D

 14 15  0  0  0  0  0  0  0  0999 V2000
    4.9764    1.1699    0.0015 Cl  0  0  0  0  0  0  0  0  0  0  0  0
   -0.0452   -0.1154   -0.0003 C   0  0  0  0  0  0  0  0  0  0  0  0
   -1.4880   -0.0059    0.0002 C   0  0  0  0  0  0  0  0  0  0  0  0
    2.7365   -0.3277   -0.0005 C   0  0  0  0  0  0  0  0  0  0  0  0
    0.6501   -0.1672   -1.2083 C   0  0  0  0  0  0  0  0  0  0  0  0
    0.6502   -0.1696    1.2077 C   0  0  0  0  0  0  0  0  0  0  0  0
    2.0409   -0.2735   -1.2085 C   0  0  0  0  0  0  0  0  0  0  0  0
    2.0410   -0.2759    1.2076 C   0  0  0  0  0  0  0  0  0  0  0  0
   -2.0919    1.2517    0.0007 C   0  0  0  0  0  0  0  0  0  0  0  0
   -2.2751   -1.1575   -0.0005 C   0  0  0  0  0  0  0  0  0  0  0  0
    4.2236   -0.4408   -0.0002 C   0  0  0  0  0  0  0  0  0  0  0  0
   -3.4828    1.3574    0.0009 C   0  0  0  0  0  0  0  0  0  0  0  0
   -3.6660   -1.0515   -0.0005 C   0  0  0  0  0  0  0  0  0  0  0  0
   -4.2698    0.2059    0.0003 C   0  0  0  0  0  0  0  0  0  0  0  0
  1 11  1  0
  2  3  1  0
  2  5  2  0
  2  6  1  0
  3  9  2  0
  3 10  1  0
  4  7  2  0
  4  8  1  0
  4 11  1  0
  5  7  1  0
  6  8  2  0
  9 12  1  0
 10 13  2  0
 12 14  2  0
 13 14  1  0
M  END
>  <PUBCHEM_COMPOUND_CID>  (1) 
15463

>  <PUBCHEM_CONFORMER_RMSD>  (1) 
0.6

>  <PUBCHEM_CONFORMER_DIVERSEORDER>  (1) 
1
2

>  <PUBCHEM_MMFF94_PARTIAL_CHARGES>  (1) 
21
1 -0.29
10 -0.15
11 0.43
12 -0.15
13 -0.15
14 -0.15
15 0.15
16 0.15
17 0.15
18 0.15
19 0.15
20 0.15
23 0.15
24 0.15
25 0.15
4 -0.14
5 -0.15
6 -0.15
7 -0.15
8 -0.15
9 -0.15

>  <PUBCHEM_EFFECTIVE_ROTOR_COUNT>  (1) 
2

>  <PUBCHEM_PHARMACOPHORE_FEATURES>  (1) 
2
6 2 4 5 6 7 8 rings
6 3 9 10 12 13 14 rings

>  <PUBCHEM_HEAVY_ATOM_COUNT>  (1) 
14

>  <PUBCHEM_ATOM_DEF_STEREO_COUNT>  (1) 
0

>  <PUBCHEM_ATOM_UDEF_STEREO_COUNT>  (1) 
0

>  <PUBCHEM_BOND_DEF_STEREO_COUNT>  (1) 
0

>  <PUBCHEM_BOND_UDEF_STEREO_COUNT>  (1) 
0

>  <PUBCHEM_ISOTOPIC_ATOM_COUNT>  (1) 
0

>  <PUBCHEM_COMPONENT_COUNT>  (1) 
1

>  <PUBCHEM_CACTVS_TAUTO_COUNT>  (1) 
1

>  <PUBCHEM_CONFORMER_ID>  (1) 
00003C6700000001

>  <PUBCHEM_MMFF94_ENERGY>  (1) 
41.4929

>  <PUBCHEM_FEATURE_SELFOVERLAP>  (1) 
10.149

>  <PUBCHEM_SHAPE_FINGERPRINT>  (1) 
10014705 185 18260263032290323277
11132069 177 16370724846515488834
11401426 45 16587737659491336622
11471102 20 15985101907918458234
12236239 1 17749106682249397603
124424 183 17774999055343330347
12500047 106 18343577430483785767
13581323 91 18409444774109835311
13675066 3 17313389989232045340
13760787 19 18343863320955889054
13760787 5 15985109600421104764
14144814 61 17458625588468033691
14252887 29 16009027242442336240
14911166 2 15698281127417469060
14943859 89 18409730646895589443
15219456 202 17703513198956986439
15309172 13 15791736291072815731
15653759 3 18131346410361073731
17834072 33 18335983146846808470
18175812 5 17775278383031415885
18186145 218 17749107777508275686
19026448 4 18342179951457810686
19026448 5 18335135380458649850
200 152 16443062816208384043
20201158 50 17203611462802214127
20279233 1 17703793604676789919
20645477 56 18340492162623520625
20645477 70 16916511337401408070
22854114 59 17022900155688177668
23402539 116 18410005546314299879
23402655 69 15936679403057376695
23557571 272 18272376355792918108
23559900 14 18129383692349322678
2748010 2 15624790955533001330
296302 2 18343867714274493838
474 4 17387138761440758316
77492 1 17676207953173525859
77779 3 18411419497035434610

>  <PUBCHEM_SHAPE_MULTIPOLES>  (1) 
289.98
8.93
1.18
1.03
3.12
0.24
0
1.65
0
-0.59
0
0.56
-0.09
0

>  <PUBCHEM_SHAPE_SELFOVERLAP>  (1) 
615

>  <PUBCHEM_SHAPE_VOLUME>  (1) 
156.2

>  <PUBCHEM_COORDINATE_TYPE>  (1) 
2
5
10

$$$$
