15469
     RDKit          3D

 22 24  0  0  0  0  0  0  0  0999 V2000
    6.1044    0.2580   -0.1335 Cl  0  0  0  0  0  0  0  0  0  0  0  0
    0.0414    2.5570   -0.0232 O   0  0  0  0  0  0  0  0  0  0  0  0
   -0.8281    0.4430    0.3732 N   0  0  0  0  0  0  0  0  0  0  0  0
    1.3003   -1.1952   -1.0292 N   0  0  0  0  0  0  0  0  0  0  0  0
   -4.2658    1.7322   -0.2461 N   0  0  0  0  0  0  0  0  0  0  0  0
   -2.1303    1.0571    0.6840 C   0  0  0  0  0  0  0  0  0  0  0  0
   -0.7958   -0.9979    0.3087 C   0  0  0  0  0  0  0  0  0  0  0  0
   -2.9917    1.1359   -0.5698 C   0  0  0  0  0  0  0  0  0  0  0  0
    0.1450   -1.7276   -0.4370 C   0  0  0  0  0  0  0  0  0  0  0  0
    0.2223    1.3436    0.1330 C   0  0  0  0  0  0  0  0  0  0  0  0
    1.6398    0.9356    0.1429 C   0  0  0  0  0  0  0  0  0  0  0  0
    2.1199   -0.1850   -0.5236 C   0  0  0  0  0  0  0  0  0  0  0  0
   -1.8411   -1.7301    0.9273 C   0  0  0  0  0  0  0  0  0  0  0  0
   -0.0111   -3.1322   -0.5628 C   0  0  0  0  0  0  0  0  0  0  0  0
    2.5459    1.8426    0.7297 C   0  0  0  0  0  0  0  0  0  0  0  0
    3.5165   -0.3715   -0.6027 C   0  0  0  0  0  0  0  0  0  0  0  0
   -1.9676   -3.1155    0.8047 C   0  0  0  0  0  0  0  0  0  0  0  0
   -5.1150    1.8487   -1.4394 C   0  0  0  0  0  0  0  0  0  0  0  0
   -4.9665    0.9573    0.7869 C   0  0  0  0  0  0  0  0  0  0  0  0
   -1.0541   -3.8201    0.0461 C   0  0  0  0  0  0  0  0  0  0  0  0
    3.9218    1.6355    0.6536 C   0  0  0  0  0  0  0  0  0  0  0  0
    4.4099    0.5284   -0.0231 C   0  0  0  0  0  0  0  0  0  0  0  0
  1 22  1  0
  2 10  2  0
  3  6  1  0
  3  7  1  0
  3 10  1  0
  4  9  1  0
  4 12  1  0
  5  8  1  0
  5 18  1  0
  5 19  1  0
  6  8  1  0
  7  9  2  0
  7 13  1  0
  9 14  1  0
 10 11  1  0
 11 12  2  0
 11 15  1  0
 12 16  1  0
 13 17  2  0
 14 20  2  0
 15 21  2  0
 16 22  2  0
 17 20  1  0
 21 22  1  0
M  END
>  <PUBCHEM_COMPOUND_CID>  (1) 
15469

>  <PUBCHEM_CONFORMER_RMSD>  (1) 
0.6

>  <PUBCHEM_CONFORMER_DIVERSEORDER>  (1) 
2
8
1
4
7
5
3
6

>  <PUBCHEM_MMFF94_PARTIAL_CHARGES>  (1) 
30
1 -0.18
10 0.54
11 0.09
12 0.1
13 -0.15
14 -0.15
15 -0.15
16 -0.15
17 -0.15
18 0.27
19 0.27
2 -0.57
20 -0.15
21 -0.15
22 0.18
27 0.4
28 0.15
29 0.15
3 -0.48
30 0.15
31 0.15
32 0.15
39 0.15
4 -0.6
40 0.15
5 -0.81
6 0.3
7 0.12
8 0.27
9 0.1

>  <PUBCHEM_EFFECTIVE_ROTOR_COUNT>  (1) 
3.4

>  <PUBCHEM_PHARMACOPHORE_FEATURES>  (1) 
7
1 2 acceptor
1 4 cation
1 4 donor
1 5 cation
6 11 12 15 16 21 22 rings
6 7 9 13 14 17 20 rings
7 3 4 7 9 10 11 12 rings

>  <PUBCHEM_HEAVY_ATOM_COUNT>  (1) 
22

>  <PUBCHEM_ATOM_DEF_STEREO_COUNT>  (1) 
0

>  <PUBCHEM_ATOM_UDEF_STEREO_COUNT>  (1) 
0

>  <PUBCHEM_BOND_DEF_STEREO_COUNT>  (1) 
0

>  <PUBCHEM_BOND_UDEF_STEREO_COUNT>  (1) 
0

>  <PUBCHEM_ISOTOPIC_ATOM_COUNT>  (1) 
0

>  <PUBCHEM_COMPONENT_COUNT>  (1) 
1

>  <PUBCHEM_CACTVS_TAUTO_COUNT>  (1) 
2

>  <PUBCHEM_CONFORMER_ID>  (1) 
00003C6D00000002

>  <PUBCHEM_MMFF94_ENERGY>  (1) 
101.1328

>  <PUBCHEM_FEATURE_SELFOVERLAP>  (1) 
35.536

>  <PUBCHEM_SHAPE_FINGERPRINT>  (1) 
105312 117 18187078434343480357
10688039 33 17829613108451203643
10693767 8 17843954841444097671
107951 10 17749113278908091674
10906281 52 18130523963116647028
11370993 70 18410572864544970485
12011746 2 18342460309948960740
12035758 1 18338528511822599513
12077114 3 18411421756183035506
12422481 6 18049475753014488475
12500047 106 18409447011845669400
12643181 29 18411140217673527950
12730499 353 18264211318943508721
12788726 201 18130223736270615736
12969540 114 18263066773913845165
13052359 8 18335983155278883651
13140716 1 18341334512994771696
13257819 101 17096352961378283077
13540713 4 18057325200911032640
13583140 156 17458634427200012768
138480 1 17474391270861041891
14790565 3 18339653230434970576
16728300 4 17245523609419050474
16752209 62 18266168607637095699
21033648 29 18337658754886159848
21236236 1 18340486767986269927
21279426 13 18340211791311162622
21521239 73 17917136230917559791
22182313 1 18270422545089470014
23402539 116 18343014497583509764
23558518 356 17900820758066737560
23559900 14 18342462543642950492
266924 87 18050281475393285845
2748010 2 18269296653883182302
283562 15 18198905807720021481
335352 9 18412827971921245924
340366 18 18187088394394342876
34934 24 18333446547952250608
350125 39 18195257834402147681
352729 6 18342469161338305520
3759504 43 18335138700019976847
4340502 62 18411142403336835517
4371632 12 15335716227196831048
5104073 3 18268988851627236568
53917941 68 18339625820205959935
559249 180 18334289873413206234
59554788 248 17273430580336594062
59755656 520 18333723611417566087
81228 2 17901096744486453811
84936 182 18053662473716781705
9709674 26 18198902702695256852

>  <PUBCHEM_SHAPE_MULTIPOLES>  (1) 
433.81
9.64
3.7
0.99
3.46
3.71
0.08
-6.93
0.9
-3.08
-0.06
-0.59
-0.07
1.42

>  <PUBCHEM_SHAPE_SELFOVERLAP>  (1) 
925.479

>  <PUBCHEM_SHAPE_VOLUME>  (1) 
241.1

>  <PUBCHEM_COORDINATE_TYPE>  (1) 
2
5
10

$$$$
