1547
     RDKit          3D

 25 28  0  0  1  0  0  0  0  0999 V2000
   -1.4235   -3.9035   -0.3890 Cl  0  0  0  0  0  0  0  0  0  0  0  0
    3.2990    1.2338   -0.7707 O   0  0  0  0  0  0  0  0  0  0  0  0
    2.9293   -2.2177    0.1038 O   0  0  0  0  0  0  0  0  0  0  0  0
    5.2486   -0.7258    1.5171 O   0  0  0  0  0  0  0  0  0  0  0  0
    6.8203    1.4259    0.1642 O   0  0  0  0  0  0  0  0  0  0  0  0
    1.1071    0.4333   -0.3754 N   0  0  0  0  0  0  0  0  0  0  0  0
   -3.4251    0.5856    0.4827 N   0  0  0  0  0  0  0  0  0  0  0  0
   -0.6380    1.7396    0.0961 N   0  0  0  0  0  0  0  0  0  0  0  0
    0.0068   -1.7322   -0.4136 N   0  0  0  0  0  0  0  0  0  0  0  0
   -2.3796   -1.5232    0.0532 N   0  0  0  0  0  0  0  0  0  0  0  0
    2.4854    0.0486   -0.6730 C   0  0  0  0  0  0  0  0  0  0  0  0
    3.1157   -0.8427    0.3910 C   0  0  0  0  0  0  0  0  0  0  0  0
    4.5729   -0.4415    0.3069 C   0  0  0  0  0  0  0  0  0  0  0  0
    4.4629    1.0538    0.0546 C   0  0  0  0  0  0  0  0  0  0  0  0
   -4.7389    0.0051    0.6614 C   0  0  0  0  0  0  0  0  0  0  0  0
   -5.6716    0.9865    1.3604 C   0  0  0  0  0  0  0  0  0  0  0  0
   -5.4223   -0.2068   -0.6840 C   0  0  0  0  0  0  0  0  0  0  0  0
   -6.1460    1.9293    0.2569 C   0  0  0  0  0  0  0  0  0  0  0  0
   -5.9920    1.1606   -1.0553 C   0  0  0  0  0  0  0  0  0  0  0  0
    5.6762    1.6373   -0.6470 C   0  0  0  0  0  0  0  0  0  0  0  0
    0.0284   -0.3988   -0.2682 C   0  0  0  0  0  0  0  0  0  0  0  0
   -1.0428    0.4303    0.0237 C   0  0  0  0  0  0  0  0  0  0  0  0
   -2.2833   -0.1783    0.1858 C   0  0  0  0  0  0  0  0  0  0  0  0
    0.6555    1.7069   -0.1475 C   0  0  0  0  0  0  0  0  0  0  0  0
   -1.2452   -2.2065   -0.2341 C   0  0  0  0  0  0  0  0  0  0  0  0
  1 25  1  0
  2 11  1  0
  2 14  1  0
  3 12  1  0
  4 13  1  0
  5 20  1  0
  6 11  1  0
  6 21  1  0
  6 24  1  0
  7 15  1  0
  7 23  1  0
  8 22  1  0
  8 24  2  0
  9 21  1  0
  9 25  2  0
 10 23  2  0
 10 25  1  0
 11 12  1  0
 12 13  1  0
 13 14  1  0
 14 20  1  0
 15 16  1  0
 15 17  1  0
 16 18  1  0
 17 19  1  0
 18 19  1  0
 21 22  2  0
 22 23  1  0
M  END
>  <PUBCHEM_COMPOUND_CID>  (1) 
1547

>  <PUBCHEM_CONFORMER_RMSD>  (1) 
0.8

>  <PUBCHEM_CONFORMER_DIVERSEORDER>  (1) 
3
373
166
263
119
202
201
331
242
167
38
278
307
330
300
35
308
106
118
116
347
221
194
198
317
10
169
55
340
17
171
376
377
123
135
241
230
351
275
41
133
313
25
372
323
265
185
318
327
303
12
257
332
374
305
232
6
208
127
371
312
341
143
362
343
129
246
350
148
87
333
217
71
352
161
283
138
180
125
316
324
79
364
240
267
184
279
31
363
192
367
249
105
239
311
26
357
89
85
375
342
315
45
173
243
44
101
329
61
284
260
231
294
97
309
302
348
266
229
112
20
219
295
235
204
320
205
186
59
158
113
344
140
157
321
23
368
209
168
77
178
360
338
339
46
124
322
65
78
244
304
298
73
58
121
136
132
134
354
52
233
197
24
326
99
54
213
299
86
297
70
276
111
74
289
150
359
141
224
56
253
18
72
145
172
60
291
248
103
163
361
102
162
67
19
292
84
88
175
271
264
36
336
378
165
250
365
286
177
252
261
255
160
50
358
274
37
94
93
319
15
293
355
334
98
181
236
353
16
137
188
95
369
216
155
174
281
335
152
211
92
76
66
203
82
131
49
189
90
68
325
190
142
314
200
191
126
183
212
147
226
366
5
277
128
122
109
296
30
310
346
83
47
273
104
42
7
245
91
218
258
48
4
328
110
254
196
81
117
287
33
193
259
206
146
153
227
53
29
34
285
151
280
69
120
80
159
13
21
220
40
43
27
108
28
238
100
199
256
1
182
179
64
170
349
251
8
51
222
215
301
356
149
290
9
2
164
237
130
32
345
144
370
306
63
195
337
269
207
62
107
210
272
228
57
268
225
75
176
14
139
154
115
223
187
214
156
262
22
234
114
288
11
39
270
96
247
282

>  <PUBCHEM_MMFF94_PARTIAL_CHARGES>  (1) 
26
1 -0.18
10 -0.62
11 0.54
12 0.28
13 0.28
14 0.28
15 0.37
2 -0.56
20 0.28
21 0.11
22 0.23
23 0.41
24 0.04
25 0.8
3 -0.68
4 -0.68
41 0.4
42 0.15
43 0.4
44 0.4
45 0.4
5 -0.68
6 0.05
7 -0.87
8 -0.57
9 -0.57

>  <PUBCHEM_EFFECTIVE_ROTOR_COUNT>  (1) 
6

>  <PUBCHEM_PHARMACOPHORE_FEATURES>  (1) 
16
1 2 acceptor
1 3 acceptor
1 3 donor
1 4 acceptor
1 4 donor
1 5 acceptor
1 5 donor
1 7 cation
1 7 donor
3 6 8 24 cation
3 6 9 21 cation
3 9 10 25 cation
5 15 16 17 18 19 rings
5 2 11 12 13 14 rings
5 6 8 21 22 24 rings
6 9 10 21 22 23 25 rings

>  <PUBCHEM_HEAVY_ATOM_COUNT>  (1) 
25

>  <PUBCHEM_ATOM_DEF_STEREO_COUNT>  (1) 
0

>  <PUBCHEM_ATOM_UDEF_STEREO_COUNT>  (1) 
4

>  <PUBCHEM_BOND_DEF_STEREO_COUNT>  (1) 
0

>  <PUBCHEM_BOND_UDEF_STEREO_COUNT>  (1) 
0

>  <PUBCHEM_ISOTOPIC_ATOM_COUNT>  (1) 
0

>  <PUBCHEM_COMPONENT_COUNT>  (1) 
1

>  <PUBCHEM_CACTVS_TAUTO_COUNT>  (1) 
3

>  <PUBCHEM_CONFORMER_ID>  (1) 
0000060B00000003

>  <PUBCHEM_MMFF94_ENERGY>  (1) 
54.1021

>  <PUBCHEM_FEATURE_SELFOVERLAP>  (1) 
81.806

>  <PUBCHEM_SHAPE_FINGERPRINT>  (1) 
10 15 18259994773307556889
10366900 7 16988569013143837090
10411042 1 17474110895565595679
10906281 52 18271821128200900421
11089746 13 17846215583326749872
12166972 35 12319735881968023978
12236239 1 18259702306802523848
12596602 18 17749111097270375121
12788726 201 17775012245288377304
12838862 33 18338782490798917328
13140716 1 18268988872516405904
13533116 47 17632017434234447902
14251764 18 18334297591437515505
14466204 15 18339925901229579297
14790565 3 18411703153966619705
15021287 119 17168423865403745101
15142383 8 16950274092379140284
15183329 4 18410290303052505205
15196674 1 18410577305203823727
20511986 3 18339628014549093426
20642791 178 17972045992202236188
20681677 155 18410576231804637922
21150785 3 18130783491047527573
21236236 1 18340768247543037975
21267235 1 18262523590006347138
21421861 104 18040987402888596802
21859007 373 17678161716279394124
23402539 116 18272928319858098541
23559900 14 18131070493420489624
23569917 315 18342177748293770799
293599 30 18411422817024107421
300161 21 18411134766600185604
335352 9 18411139121934524470
34797466 226 15195277655870039361
34934 24 18409447011766769006
3633792 109 18271528567940017793
38695281 34 18341048515728916479
4072396 5 18337668624878267595
5104073 3 18262232339341167186
5385378 56 18268438932509619243
59755656 215 18342469114858517902
6328613 192 18340208587017730536
7226269 152 18131918156724275473

>  <PUBCHEM_SHAPE_MULTIPOLES>  (1) 
467.98
15.44
2.73
0.93
0.36
2.76
-0.12
-9.52
-1.4
-0.61
0.34
-0.34
-0.1
-0.88

>  <PUBCHEM_SHAPE_SELFOVERLAP>  (1) 
1002.029

>  <PUBCHEM_SHAPE_VOLUME>  (1) 
261.4

>  <PUBCHEM_COORDINATE_TYPE>  (1) 
2
5
10

$$$$
