15480
     RDKit          3D

  8  8  0  0  0  0  0  0  0  0999 V2000
   -1.8835    0.6742   -0.3504 C   0  0  0  0  0  0  0  0  0  0  0  0
   -1.8838   -0.6739    0.3499 C   0  0  0  0  0  0  0  0  0  0  0  0
   -0.6415    1.4762    0.0318 C   0  0  0  0  0  0  0  0  0  0  0  0
   -0.6418   -1.4762   -0.0311 C   0  0  0  0  0  0  0  0  0  0  0  0
    0.6451    0.6755    0.0291 C   0  0  0  0  0  0  0  0  0  0  0  0
    0.6450   -0.6756   -0.0290 C   0  0  0  0  0  0  0  0  0  0  0  0
    1.8804    1.5328    0.1108 C   0  0  0  0  0  0  0  0  0  0  0  0
    1.8802   -1.5330   -0.1111 C   0  0  0  0  0  0  0  0  0  0  0  0
  1  2  1  0
  1  3  1  0
  2  4  1  0
  3  5  1  0
  4  6  1  0
  5  6  2  0
  5  7  1  0
  6  8  1  0
M  END
>  <PUBCHEM_COMPOUND_CID>  (1) 
15480

>  <PUBCHEM_CONFORMER_RMSD>  (1) 
0.4

>  <PUBCHEM_CONFORMER_DIVERSEORDER>  (1) 
1

>  <PUBCHEM_MMFF94_PARTIAL_CHARGES>  (1) 
6
3 0.14
4 0.14
5 -0.28
6 -0.28
7 0.14
8 0.14

>  <PUBCHEM_EFFECTIVE_ROTOR_COUNT>  (1) 
0.8

>  <PUBCHEM_PHARMACOPHORE_FEATURES>  (1) 
1
6 1 2 3 4 5 6 rings

>  <PUBCHEM_HEAVY_ATOM_COUNT>  (1) 
8

>  <PUBCHEM_ATOM_DEF_STEREO_COUNT>  (1) 
0

>  <PUBCHEM_ATOM_UDEF_STEREO_COUNT>  (1) 
0

>  <PUBCHEM_BOND_DEF_STEREO_COUNT>  (1) 
0

>  <PUBCHEM_BOND_UDEF_STEREO_COUNT>  (1) 
0

>  <PUBCHEM_ISOTOPIC_ATOM_COUNT>  (1) 
0

>  <PUBCHEM_COMPONENT_COUNT>  (1) 
1

>  <PUBCHEM_CACTVS_TAUTO_COUNT>  (1) 
1

>  <PUBCHEM_CONFORMER_ID>  (1) 
00003C7800000001

>  <PUBCHEM_MMFF94_ENERGY>  (1) 
2.0545

>  <PUBCHEM_FEATURE_SELFOVERLAP>  (1) 
5.074

>  <PUBCHEM_SHAPE_FINGERPRINT>  (1) 
16714656 1 17833273395085671988
18185500 45 18052255395059150175
21040471 1 18338515364642914605
23552423 10 18261115187939801406
241688 4 17187564940866290963
2748010 2 18409448089771671549
29004967 10 18189625019226924745
5084963 1 18130497518738767859

>  <PUBCHEM_SHAPE_MULTIPOLES>  (1) 
164.64
2.59
1.98
0.65
0.01
0
0
0
0
-0.61
0
0.05
0
0.19

>  <PUBCHEM_SHAPE_SELFOVERLAP>  (1) 
318.696

>  <PUBCHEM_SHAPE_VOLUME>  (1) 
99.5

>  <PUBCHEM_COORDINATE_TYPE>  (1) 
2
5
10

$$$$
