15481
     RDKit          3D

  7  6  0  0  1  0  0  0  0  0999 V2000
    1.8237    1.6557   -0.3836 Cl  0  0  0  0  0  0  0  0  0  0  0  0
    1.7077   -1.6924   -0.6746 Cl  0  0  0  0  0  0  0  0  0  0  0  0
   -0.6560    0.5502   -0.3015 C   0  0  0  0  0  0  0  0  0  0  0  0
    0.6609    0.5988    0.4880 C   0  0  0  0  0  0  0  0  0  0  0  0
   -1.7678   -0.2075    0.4281 C   0  0  0  0  0  0  0  0  0  0  0  0
    1.3090   -0.7560    0.7873 C   0  0  0  0  0  0  0  0  0  0  0  0
   -3.0775   -0.1490   -0.3436 C   0  0  0  0  0  0  0  0  0  0  0  0
  1  4  1  0
  2  6  1  0
  3  4  1  0
  3  5  1  0
  4  6  1  0
  5  7  1  0
M  END
>  <PUBCHEM_COMPOUND_CID>  (1) 
15481

>  <PUBCHEM_CONFORMER_RMSD>  (1) 
0.4

>  <PUBCHEM_CONFORMER_DIVERSEORDER>  (1) 
1
32
34
17
4
20
7
27
29
9
31
33
16
30
19
14
21
25
23
28
22
3
24
10
18
5
11
26
8
15
6
12
13
2

>  <PUBCHEM_MMFF94_PARTIAL_CHARGES>  (1) 
4
1 -0.29
2 -0.29
4 0.29
6 0.29

>  <PUBCHEM_EFFECTIVE_ROTOR_COUNT>  (1) 
3

>  <PUBCHEM_PHARMACOPHORE_FEATURES>  (1) 
1
1 7 hydrophobe

>  <PUBCHEM_HEAVY_ATOM_COUNT>  (1) 
7

>  <PUBCHEM_ATOM_DEF_STEREO_COUNT>  (1) 
0

>  <PUBCHEM_ATOM_UDEF_STEREO_COUNT>  (1) 
1

>  <PUBCHEM_BOND_DEF_STEREO_COUNT>  (1) 
0

>  <PUBCHEM_BOND_UDEF_STEREO_COUNT>  (1) 
0

>  <PUBCHEM_ISOTOPIC_ATOM_COUNT>  (1) 
0

>  <PUBCHEM_COMPONENT_COUNT>  (1) 
1

>  <PUBCHEM_CACTVS_TAUTO_COUNT>  (1) 
1

>  <PUBCHEM_CONFORMER_ID>  (1) 
00003C7900000001

>  <PUBCHEM_MMFF94_ENERGY>  (1) 
2.7138

>  <PUBCHEM_FEATURE_SELFOVERLAP>  (1) 
5.074

>  <PUBCHEM_SHAPE_FINGERPRINT>  (1) 
12932741 1 17821736043776950667
14128692 85 18058742299051813998
14390081 3 18188205532731217077
20711978 78 18341879788614288645
20711985 344 17545601154313308898
21040471 1 17977100481187442632
23552423 10 18411139091516162627
23552449 11 18261383434290529515
24536 1 18339350894848705545
29004967 10 18342171112077531498

>  <PUBCHEM_SHAPE_MULTIPOLES>  (1) 
147.8
3.69
1.66
0.89
3.18
0.07
0.03
0.31
-0.55
-1.57
-0.36
-0.19
0.12
0.04

>  <PUBCHEM_SHAPE_SELFOVERLAP>  (1) 
241.914

>  <PUBCHEM_SHAPE_VOLUME>  (1) 
102.4

>  <PUBCHEM_COORDINATE_TYPE>  (1) 
2
5
10

$$$$
