15515
     RDKit          3D

 13 12  0  0  0  0  0  0  0  0999 V2000
    0.0958    2.5386    0.4047 O   0  0  0  0  0  0  0  0  0  0  0  0
   -4.6620   -1.4625   -0.4665 N   0  0  0  0  0  0  0  0  0  0  0  0
    4.6145   -1.4893   -0.5105 N   0  0  0  0  0  0  0  0  0  0  0  0
   -0.0150    0.1058    0.3876 C   0  0  0  0  0  0  0  0  0  0  0  0
   -1.2930   -0.6470   -0.0885 C   0  0  0  0  0  0  0  0  0  0  0  0
    1.2571   -0.7001   -0.0075 C   0  0  0  0  0  0  0  0  0  0  0  0
   -0.0300    0.2441    1.9230 C   0  0  0  0  0  0  0  0  0  0  0  0
    0.0580    1.5051   -0.2677 C   0  0  0  0  0  0  0  0  0  0  0  0
   -2.6237    0.0165    0.2950 C   0  0  0  0  0  0  0  0  0  0  0  0
    2.5946   -0.0468    0.3630 C   0  0  0  0  0  0  0  0  0  0  0  0
    0.0431    1.6002   -1.7757 C   0  0  0  0  0  0  0  0  0  0  0  0
   -3.7625   -0.8108   -0.1311 C   0  0  0  0  0  0  0  0  0  0  0  0
    3.7231   -0.8538   -0.1259 C   0  0  0  0  0  0  0  0  0  0  0  0
  1  8  2  0
  2 12  3  0
  3 13  3  0
  4  5  1  0
  4  6  1  0
  4  7  1  0
  4  8  1  0
  5  9  1  0
  6 10  1  0
  8 11  1  0
  9 12  1  0
 10 13  1  0
M  END
>  <PUBCHEM_COMPOUND_CID>  (1) 
15515

>  <PUBCHEM_CONFORMER_RMSD>  (1) 
0.6

>  <PUBCHEM_CONFORMER_DIVERSEORDER>  (1) 
1
54
61
46
28
42
41
53
49
5
52
65
62
24
2
64
63
25
38
32
69
56
44
34
45
55
29
59
48
4
35
37
57
60
50
9
51
22
68
13
58
26
43
23
10
30
47
18
40
3
66
67
14
33
19
39
16
27
6
17
8
36
31
12
11
20
15
7
21

>  <PUBCHEM_MMFF94_PARTIAL_CHARGES>  (1) 
10
1 -0.57
10 0.2
11 0.06
12 0.36
13 0.36
2 -0.56
3 -0.56
4 0.06
8 0.45
9 0.2

>  <PUBCHEM_EFFECTIVE_ROTOR_COUNT>  (1) 
5

>  <PUBCHEM_PHARMACOPHORE_FEATURES>  (1) 
5
1 1 acceptor
1 2 acceptor
1 3 acceptor
1 7 hydrophobe
5 4 5 6 9 10 hydrophobe

>  <PUBCHEM_HEAVY_ATOM_COUNT>  (1) 
13

>  <PUBCHEM_ATOM_DEF_STEREO_COUNT>  (1) 
0

>  <PUBCHEM_ATOM_UDEF_STEREO_COUNT>  (1) 
0

>  <PUBCHEM_BOND_DEF_STEREO_COUNT>  (1) 
0

>  <PUBCHEM_BOND_UDEF_STEREO_COUNT>  (1) 
0

>  <PUBCHEM_ISOTOPIC_ATOM_COUNT>  (1) 
0

>  <PUBCHEM_COMPONENT_COUNT>  (1) 
1

>  <PUBCHEM_CACTVS_TAUTO_COUNT>  (1) 
2

>  <PUBCHEM_CONFORMER_ID>  (1) 
00003C9B00000001

>  <PUBCHEM_MMFF94_ENERGY>  (1) 
22.5343

>  <PUBCHEM_FEATURE_SELFOVERLAP>  (1) 
25.765

>  <PUBCHEM_SHAPE_FINGERPRINT>  (1) 
10922049 32 8718827608588420224
12032990 46 18413107259942106923
12119455 92 11959730421689024122
12916754 54 18270687446646968390
13024252 1 16009613260464923368
13380536 53 13973974206942283824
14178000 29 18341894120909579830
14943859 89 11386370348115998638
14993402 34 18186517722152708059
17041 50 17968081063151320663
18186145 218 16515691056190264652
187816 3 17167584877775777690
19010151 120 18342183254055461922
200 152 18113622248931013682
20388580 30 18334297608089864407
20671657 53 18412831312888908717
20708731 107 18116433837454250549
20711985 327 18342465849923717085
20871999 31 18113612348878182007
21296965 67 18412543210624705448
22620623 9 18263075514135142109
228727 97 17386285389898088976
23402539 116 18187363182222640950
23500284 214 9367051260450061830
31174 14 17988912397598099856
3286 77 18059855048090380866
366044 4 9079113358406496940
7364860 26 18125156284603935065

>  <PUBCHEM_SHAPE_MULTIPOLES>  (1) 
251.7
6.93
1.84
1.23
0.35
1.14
-0.23
-5.89
1.82
-0.09
0.4
-0.03
0.39
0.01

>  <PUBCHEM_SHAPE_SELFOVERLAP>  (1) 
478.861

>  <PUBCHEM_SHAPE_VOLUME>  (1) 
150.6

>  <PUBCHEM_COORDINATE_TYPE>  (1) 
2
5
10

$$$$
