15524
     RDKit          3D

 20 22  0  0  1  0  0  0  0  0999 V2000
    0.7224    2.1209   -1.3155 O   0  0  0  0  0  0  0  0  0  0  0  0
   -0.2491   -2.3568   -0.4342 O   0  0  0  0  0  0  0  0  0  0  0  0
    0.0971   -0.0661   -0.7924 N   0  0  0  0  0  0  0  0  0  0  0  0
   -2.2614   -0.1909   -0.5103 N   0  0  0  0  0  0  0  0  0  0  0  0
    2.7949   -0.5221   -0.0172 C   0  0  0  0  0  0  0  0  0  0  0  0
    2.1792    0.8873    0.1891 C   0  0  0  0  0  0  0  0  0  0  0  0
    1.6589   -1.3523    0.6101 C   0  0  0  0  0  0  0  0  0  0  0  0
    1.6543    0.8520    1.6461 C   0  0  0  0  0  0  0  0  0  0  0  0
    1.3195   -0.6210    1.9184 C   0  0  0  0  0  0  0  0  0  0  0  0
    0.9424    1.0638   -0.7215 C   0  0  0  0  0  0  0  0  0  0  0  0
    0.4100   -1.3318   -0.2596 C   0  0  0  0  0  0  0  0  0  0  0  0
    4.1124   -0.7400    0.7666 C   0  0  0  0  0  0  0  0  0  0  0  0
    3.0994   -0.8868   -1.4827 C   0  0  0  0  0  0  0  0  0  0  0  0
    3.1532    2.0491   -0.0186 C   0  0  0  0  0  0  0  0  0  0  0  0
   -1.1871    0.0887   -1.4628 C   0  0  0  0  0  0  0  0  0  0  0  0
   -2.2064    0.7501    0.6172 C   0  0  0  0  0  0  0  0  0  0  0  0
   -3.5683   -0.1413   -1.1805 C   0  0  0  0  0  0  0  0  0  0  0  0
   -3.2936    0.4406    1.6475 C   0  0  0  0  0  0  0  0  0  0  0  0
   -4.7000   -0.4801   -0.2088 C   0  0  0  0  0  0  0  0  0  0  0  0
   -4.6779    0.4364    1.0090 C   0  0  0  0  0  0  0  0  0  0  0  0
  1 10  2  0
  2 11  2  0
  3 10  1  0
  3 11  1  0
  3 15  1  0
  4 15  1  0
  4 16  1  0
  4 17  1  0
  5  6  1  0
  5  7  1  0
  5 12  1  0
  5 13  1  0
  6  8  1  0
  6 10  1  0
  6 14  1  0
  7  9  1  0
  7 11  1  0
  8  9  1  0
 16 18  1  0
 17 19  1  0
 18 20  1  0
 19 20  1  0
M  END
>  <PUBCHEM_COMPOUND_CID>  (1) 
15524

>  <PUBCHEM_CONFORMER_RMSD>  (1) 
0.6

>  <PUBCHEM_CONFORMER_DIVERSEORDER>  (1) 
1
33
19
25
32
35
15
8
24
36
30
31
27
16
11
13
18
29
34
28
22
14
20
21
17
2
3
10
26
6
12
4
23
5
7
9

>  <PUBCHEM_MMFF94_PARTIAL_CHARGES>  (1) 
11
1 -0.57
10 0.57
11 0.57
15 0.57
16 0.27
17 0.27
2 -0.57
3 -0.42
4 -0.81
6 0.06
7 0.06

>  <PUBCHEM_EFFECTIVE_ROTOR_COUNT>  (1) 
4

>  <PUBCHEM_PHARMACOPHORE_FEATURES>  (1) 
6
1 1 acceptor
1 2 acceptor
1 4 cation
3 5 12 13 hydrophobe
6 4 16 17 18 19 20 rings
8 3 5 6 7 8 9 10 11 rings

>  <PUBCHEM_HEAVY_ATOM_COUNT>  (1) 
20

>  <PUBCHEM_ATOM_DEF_STEREO_COUNT>  (1) 
0

>  <PUBCHEM_ATOM_UDEF_STEREO_COUNT>  (1) 
2

>  <PUBCHEM_BOND_DEF_STEREO_COUNT>  (1) 
0

>  <PUBCHEM_BOND_UDEF_STEREO_COUNT>  (1) 
0

>  <PUBCHEM_ISOTOPIC_ATOM_COUNT>  (1) 
0

>  <PUBCHEM_COMPONENT_COUNT>  (1) 
1

>  <PUBCHEM_CACTVS_TAUTO_COUNT>  (1) 
1

>  <PUBCHEM_CONFORMER_ID>  (1) 
00003CA400000001

>  <PUBCHEM_MMFF94_ENERGY>  (1) 
52.6562

>  <PUBCHEM_FEATURE_SELFOVERLAP>  (1) 
30.446

>  <PUBCHEM_SHAPE_FINGERPRINT>  (1) 
10064457 181 18273497896445209275
10366900 7 16805041835265621553
10646746 165 16271928190362283001
10863032 1 18270683211381686842
11067466 332 16877941637782740804
11471102 22 18187077326157449877
12011746 2 17095520682330976283
12236239 1 18059853969473373017
12491281 212 17775003552347954708
12596599 1 18410582803046714763
12633257 1 17749398052899493073
12670545 47 17531251698916398587
13140716 1 18335976588574471226
13224815 77 18342738533550694221
13464513 79 16733561501679810049
15163728 17 17340958268104794352
15209289 33 18202000993128692694
15309172 13 18334853909624127015
15375358 24 16225759740394015793
15635459 17 17313103038557089571
15775835 57 17704357671268895745
16945 1 18409726232296982590
1813 80 18127421059893591054
18186145 218 18343300362090442127
20233049 118 15697999604610653602
21503847 285 18341903956606311489
23184049 59 18335419079859135277
23402539 116 15338826548059975777
23419403 2 16093271904761255316
23493267 7 16734658676766385788
23557571 272 16153976950879394959
23559900 14 15697737951035062845
3286 77 18113335280485175792
474 4 18195525032987272168
633830 44 18202570570527433735
9981440 41 16768133587531264610

>  <PUBCHEM_SHAPE_MULTIPOLES>  (1) 
389.89
7.75
1.71
1.64
7.45
0.07
0.05
-0.48
1.02
-0.82
-0.1
-0.33
-0.31
-0.75

>  <PUBCHEM_SHAPE_SELFOVERLAP>  (1) 
823.889

>  <PUBCHEM_SHAPE_VOLUME>  (1) 
220.9

>  <PUBCHEM_COORDINATE_TYPE>  (1) 
2
5
10

$$$$
