1553
     RDKit          3D

 20 20  0  0  1  0  0  0  0  0999 V2000
   -1.0030    0.8470   -0.1487 O   0  0  0  0  0  0  0  0  0  0  0  0
   -0.5320   -1.4867   -1.6196 O   0  0  0  0  0  0  0  0  0  0  0  0
    2.9452    1.7578   -0.1577 O   0  0  0  0  0  0  0  0  0  0  0  0
   -2.4176   -1.6324    1.5143 O   0  0  0  0  0  0  0  0  0  0  0  0
   -4.2024   -3.0777   -0.0068 O   0  0  0  0  0  0  0  0  0  0  0  0
    3.7747   -1.0332   -1.1112 O   0  0  0  0  0  0  0  0  0  0  0  0
   -2.6670    2.7435   -0.4630 O   0  0  0  0  0  0  0  0  0  0  0  0
   -1.1676    4.3998    0.0258 O   0  0  0  0  0  0  0  0  0  0  0  0
    2.1344   -1.0735    0.5402 N   0  0  0  0  0  0  0  0  0  0  0  0
   -0.1834   -0.2168    0.3705 C   0  0  0  0  0  0  0  0  0  0  0  0
    1.3020   -0.0112    0.0185 C   0  0  0  0  0  0  0  0  0  0  0  0
   -0.7545   -1.5085   -0.2123 C   0  0  0  0  0  0  0  0  0  0  0  0
    1.7850    1.3445    0.5616 C   0  0  0  0  0  0  0  0  0  0  0  0
   -2.2463   -1.6901    0.0935 C   0  0  0  0  0  0  0  0  0  0  0  0
    0.7428    2.4069    0.4101 C   0  0  0  0  0  0  0  0  0  0  0  0
   -0.5176    2.1136    0.0628 C   0  0  0  0  0  0  0  0  0  0  0  0
   -2.8272   -3.0218   -0.3764 C   0  0  0  0  0  0  0  0  0  0  0  0
    3.3024   -1.4918   -0.0743 C   0  0  0  0  0  0  0  0  0  0  0  0
   -1.4538    3.2239   -0.1176 C   0  0  0  0  0  0  0  0  0  0  0  0
    3.9860   -2.5933    0.6905 C   0  0  0  0  0  0  0  0  0  0  0  0
  1 10  1  0
  1 16  1  0
  2 12  1  0
  3 13  1  0
  4 14  1  0
  5 17  1  0
  6 18  2  0
  7 19  1  0
  8 19  2  0
  9 11  1  0
  9 18  1  0
 10 11  1  0
 10 12  1  0
 11 13  1  0
 12 14  1  0
 13 15  1  0
 14 17  1  0
 15 16  2  0
 16 19  1  0
 18 20  1  0
M  END
>  <PUBCHEM_COMPOUND_CID>  (1) 
1553

>  <PUBCHEM_CONFORMER_RMSD>  (1) 
0.8

>  <PUBCHEM_CONFORMER_DIVERSEORDER>  (1) 
1
101
83
110
129
206
115
82
187
64
98
38
137
71
93
200
186
62
49
198
202
42
182
80
39
47
181
141
75
37
203
157
189
149
74
104
116
70
58
170
143
134
109
20
105
61
195
179
89
94
100
178
114
16
106
158
162
40
72
13
172
81
128
188
197
60
196
25
35
68
184
14
123
46
205
150
79
204
130
87
192
135
66
27
174
99
117
166
50
151
44
190
111
152
15
142
41
107
76
30
8
139
59
177
159
26
164
132
22
127
33
102
163
96
194
18
136
120
168
160
54
167
165
185
2
48
56
86
53
97
78
63
118
43
126
119
201
85
77
180
90
124
73
67
122
121
103
4
84
131
11
148
65
161
51
24
91
9
191
176
31
155
153
55
34
17
7
183
23
28
88
171
133
52
113
57
92
29
108
36
156
146
199
138
3
193
145
169
175
95
10
154
69
147
140
45
12
112
5
32
125
21
19
144
173
6

>  <PUBCHEM_MMFF94_PARTIAL_CHARGES>  (1) 
27
1 -0.36
10 0.28
11 0.3
12 0.28
13 0.42
14 0.28
15 -0.29
16 0.09
17 0.28
18 0.57
19 0.71
2 -0.68
20 0.06
26 0.37
27 0.15
3 -0.68
30 0.4
31 0.4
32 0.4
36 0.4
37 0.5
4 -0.68
5 -0.68
6 -0.57
7 -0.65
8 -0.57
9 -0.73

>  <PUBCHEM_EFFECTIVE_ROTOR_COUNT>  (1) 
6.8

>  <PUBCHEM_PHARMACOPHORE_FEATURES>  (1) 
15
1 1 acceptor
1 2 acceptor
1 2 donor
1 3 acceptor
1 3 donor
1 4 acceptor
1 4 donor
1 5 acceptor
1 5 donor
1 6 acceptor
1 7 acceptor
1 8 acceptor
1 9 donor
3 7 8 19 anion
6 1 10 11 13 15 16 rings

>  <PUBCHEM_HEAVY_ATOM_COUNT>  (1) 
20

>  <PUBCHEM_ATOM_DEF_STEREO_COUNT>  (1) 
0

>  <PUBCHEM_ATOM_UDEF_STEREO_COUNT>  (1) 
5

>  <PUBCHEM_BOND_DEF_STEREO_COUNT>  (1) 
0

>  <PUBCHEM_BOND_UDEF_STEREO_COUNT>  (1) 
0

>  <PUBCHEM_ISOTOPIC_ATOM_COUNT>  (1) 
0

>  <PUBCHEM_COMPONENT_COUNT>  (1) 
1

>  <PUBCHEM_CACTVS_TAUTO_COUNT>  (1) 
2

>  <PUBCHEM_CONFORMER_ID>  (1) 
0000061100000001

>  <PUBCHEM_MMFF94_ENERGY>  (1) 
41.6575

>  <PUBCHEM_FEATURE_SELFOVERLAP>  (1) 
76.214

>  <PUBCHEM_SHAPE_FINGERPRINT>  (1) 
10411042 1 18410853304261165066
10967382 1 17906450287686580272
11578080 2 17631712963570039352
11680986 33 18341037545981392504
116883 192 18412257337606648111
12553582 1 18124303076497285798
12788726 201 18334867069245932986
12839892 36 16895374106741138506
13052359 8 18121493553457335079
13140716 1 18413385423504086595
14178342 30 17264392723231299562
14790565 3 17544482306833404949
15042514 8 18194399979241455274
16945 1 18265331699120926984
193761 8 18410852166284365472
19591789 44 17762617283299301867
20028762 73 18057031425221664205
20645476 183 17901681362486527942
21041028 32 18337943593058912358
21478907 32 18410007728421748451
21524375 3 17684371659205500776
2255824 54 17474950303650905697
23526113 38 17903318771460567743
23557571 272 18129092334964015658
23558518 356 18333733485890049776
23559900 14 17911231725493202410
23598288 3 18118138973925992170
23598291 2 18056783115270678859
23728640 28 17977373933213094322
2748010 2 18341603845708487644
3084891 72 17547004135672106872
3091708 16 9206742477635672025
352729 6 18125164840152304380
474229 33 17976543815056167913
54173680 148 18338794511799942530
6443956 14 18048877691043492765
7364860 26 17763464310937579543
81228 2 18333723624281459761
8272917 22 17690283033560092983

>  <PUBCHEM_SHAPE_MULTIPOLES>  (1) 
359.66
5.83
5.12
0.92
3.73
2.35
-0.05
-5.08
-0.03
-5.03
0
0.06
-0.4
0.11

>  <PUBCHEM_SHAPE_SELFOVERLAP>  (1) 
731.046

>  <PUBCHEM_SHAPE_VOLUME>  (1) 
206.6

>  <PUBCHEM_COORDINATE_TYPE>  (1) 
2
5
10

$$$$
