15541
     RDKit          3D

 23 25  0  0  1  0  0  0  0  0999 V2000
   -0.8990   -1.0750    0.0951 O   0  0  0  0  0  0  0  0  0  0  0  0
   -0.5814    1.4127   -1.1636 O   0  0  0  0  0  0  0  0  0  0  0  0
   -2.3367    1.5502    0.4073 O   0  0  0  0  0  0  0  0  0  0  0  0
    1.6897    2.9160   -0.3616 O   0  0  0  0  0  0  0  0  0  0  0  0
    3.2008   -1.0676   -1.0704 O   0  0  0  0  0  0  0  0  0  0  0  0
   -1.8385   -1.1393   -2.0761 O   0  0  0  0  0  0  0  0  0  0  0  0
   -3.8315   -2.0518   -0.5908 O   0  0  0  0  0  0  0  0  0  0  0  0
    1.4745   -2.6573    0.5302 N   0  0  0  0  0  0  0  0  0  0  0  0
    4.1811    1.4123   -0.0754 N   0  0  0  0  0  0  0  0  0  0  0  0
    0.3966   -0.6128   -0.3092 C   0  0  0  0  0  0  0  0  0  0  0  0
    0.3976    0.9155   -0.2395 C   0  0  0  0  0  0  0  0  0  0  0  0
    1.4735   -1.1943    0.6181 C   0  0  0  0  0  0  0  0  0  0  0  0
    1.7681    1.5064   -0.5861 C   0  0  0  0  0  0  0  0  0  0  0  0
    2.8631    0.9000    0.3123 C   0  0  0  0  0  0  0  0  0  0  0  0
    2.8634   -0.6398    0.2528 C   0  0  0  0  0  0  0  0  0  0  0  0
   -1.9225   -0.5798   -0.7714 C   0  0  0  0  0  0  0  0  0  0  0  0
   -1.9041    0.9581   -0.8241 C   0  0  0  0  0  0  0  0  0  0  0  0
   -3.2281   -1.0681   -0.1645 C   0  0  0  0  0  0  0  0  0  0  0  0
   -3.6702    1.1719    0.7566 C   0  0  0  0  0  0  0  0  0  0  0  0
   -3.7132   -0.3209    1.0541 C   0  0  0  0  0  0  0  0  0  0  0  0
    2.4830   -3.2212    1.4112 C   0  0  0  0  0  0  0  0  0  0  0  0
    5.2098    0.9026    0.8154 C   0  0  0  0  0  0  0  0  0  0  0  0
   -4.0759    1.9821    1.9795 C   0  0  0  0  0  0  0  0  0  0  0  0
  1 10  1  0
  1 16  1  0
  2 11  1  0
  2 17  1  0
  3 17  1  0
  3 19  1  0
  4 13  1  0
  5 15  1  0
  6 16  1  0
  7 18  2  0
  8 12  1  0
  8 21  1  0
  9 14  1  0
  9 22  1  0
 10 11  1  0
 10 12  1  0
 11 13  1  0
 12 15  1  0
 13 14  1  0
 14 15  1  0
 16 17  1  0
 16 18  1  0
 18 20  1  0
 19 20  1  0
 19 23  1  0
M  END
>  <PUBCHEM_COMPOUND_CID>  (1) 
15541

>  <PUBCHEM_CONFORMER_RMSD>  (1) 
0.6

>  <PUBCHEM_CONFORMER_DIVERSEORDER>  (1) 
1
2
3
4

>  <PUBCHEM_MMFF94_PARTIAL_CHARGES>  (1) 
27
1 -0.56
10 0.28
11 0.28
12 0.27
13 0.28
14 0.27
15 0.28
16 0.62
17 0.56
18 0.45
19 0.28
2 -0.56
20 0.06
21 0.27
22 0.27
3 -0.56
31 0.36
32 0.36
36 0.4
37 0.4
38 0.4
4 -0.68
5 -0.68
6 -0.68
7 -0.57
8 -0.9
9 -0.9

>  <PUBCHEM_EFFECTIVE_ROTOR_COUNT>  (1) 
3.8

>  <PUBCHEM_PHARMACOPHORE_FEATURES>  (1) 
17
1 1 acceptor
1 2 acceptor
1 3 acceptor
1 4 acceptor
1 4 donor
1 5 acceptor
1 5 donor
1 6 acceptor
1 6 donor
1 7 acceptor
1 8 cation
1 8 donor
1 9 cation
1 9 donor
6 1 2 10 11 16 17 rings
6 10 11 12 13 14 15 rings
6 3 16 17 18 19 20 rings

>  <PUBCHEM_HEAVY_ATOM_COUNT>  (1) 
23

>  <PUBCHEM_ATOM_DEF_STEREO_COUNT>  (1) 
9

>  <PUBCHEM_ATOM_UDEF_STEREO_COUNT>  (1) 
0

>  <PUBCHEM_BOND_DEF_STEREO_COUNT>  (1) 
0

>  <PUBCHEM_BOND_UDEF_STEREO_COUNT>  (1) 
0

>  <PUBCHEM_ISOTOPIC_ATOM_COUNT>  (1) 
0

>  <PUBCHEM_COMPONENT_COUNT>  (1) 
1

>  <PUBCHEM_CACTVS_TAUTO_COUNT>  (1) 
2

>  <PUBCHEM_CONFORMER_ID>  (1) 
00003CB500000001

>  <PUBCHEM_MMFF94_ENERGY>  (1) 
53.4778

>  <PUBCHEM_FEATURE_SELFOVERLAP>  (1) 
86.508

>  <PUBCHEM_SHAPE_FINGERPRINT>  (1) 
10382601 240 18336268938323771498
11132069 177 18334858307406803125
11578080 2 17841390909377634721
11725454 13 14547307815412127979
12251169 10 18339089198634262289
12553582 1 17975688390425043258
12633257 1 18196373607082256491
12670546 56 18202002118763168961
12892183 10 18263943072186424073
13140716 1 17973164216522096010
13224815 77 18334286565676302350
13583140 156 18260559909415292449
13965767 371 17768561329254337945
14178342 30 18410849992771963842
14223421 5 18259982639392078963
14739800 52 17702929371362783992
14787075 74 18126564750171642376
14790565 3 18189629396242614108
15209289 33 18338233885687676336
15209294 21 18272370875567564576
15309172 13 18260826063657848612
15375462 189 18189623747816527602
15536298 74 18343306955049779700
16945 1 18260259754860692966
1813 80 17458636604748197973
19591789 44 18335133194594817090
200 152 18267854146668106551
20028762 73 18052255395255238622
20600515 1 14779261973560465575
20691752 17 17967819331722752334
20739085 24 18260554377344330152
21041028 32 17902230010061755498
21421861 104 18116431432515242920
21427221 339 18198637531488216353
22445834 79 18409451384217302769
2255824 54 18187372077110369700
2334 1 18262225617411555526
23557571 272 17203051892871886632
23566358 27 18263371308665030022
23598288 3 17989197140907870063
23598291 2 18200864098079263902
25147074 1 18271792498313083951
2748010 2 18045484332051519452
34934 24 18337386050490428669
458136 41 18187375320058435362
474 4 18335140942061632928
5104073 3 18413387622923130906
633830 44 18412268367578595172
7097593 13 18337957787978345897
7832392 63 18341334387923612169

>  <PUBCHEM_SHAPE_MULTIPOLES>  (1) 
422.28
8.32
2.86
1.36
1.2
0.95
-0.07
-1.72
-2.9
1.17
-0.66
-0.94
0.07
-1.61

>  <PUBCHEM_SHAPE_SELFOVERLAP>  (1) 
885.926

>  <PUBCHEM_SHAPE_VOLUME>  (1) 
233.4

>  <PUBCHEM_COORDINATE_TYPE>  (1) 
2
5
10

$$$$
