15554
     RDKit          3D

 20 21  0  0  1  0  0  0  0  0999 V2000
   -0.5141    1.9244    0.2254 O   0  0  0  0  0  0  0  0  0  0  0  0
    6.1950    0.4220    0.5740 O   0  0  0  0  0  0  0  0  0  0  0  0
    5.8247   -1.3338   -0.6906 O   0  0  0  0  0  0  0  0  0  0  0  0
   -5.0984    0.3339    0.1884 N   0  0  0  0  0  0  0  0  0  0  0  0
   -0.9712   -0.3290   -0.1229 N   0  0  0  0  0  0  0  0  0  0  0  0
    5.4133   -0.3371   -0.0486 N   0  0  0  0  0  0  0  0  0  0  0  0
   -4.4060    0.9747   -0.9314 C   0  0  0  0  0  0  0  0  0  0  0  0
   -2.9046    1.0477   -0.6340 C   0  0  0  0  0  0  0  0  0  0  0  0
   -4.6471   -1.0584    0.3450 C   0  0  0  0  0  0  0  0  0  0  0  0
   -2.3367   -0.2466   -0.1064 C   0  0  0  0  0  0  0  0  0  0  0  0
   -3.1385   -1.2387    0.3324 C   0  0  0  0  0  0  0  0  0  0  0  0
   -6.5482    0.3903    0.0111 C   0  0  0  0  0  0  0  0  0  0  0  0
   -2.6776   -2.5835    0.8276 C   0  0  0  0  0  0  0  0  0  0  0  0
   -0.1408    0.7678    0.0450 C   0  0  0  0  0  0  0  0  0  0  0  0
    1.3166    0.4781    0.0200 C   0  0  0  0  0  0  0  0  0  0  0  0
    2.1730    1.3141    0.7052 C   0  0  0  0  0  0  0  0  0  0  0  0
    1.7653   -0.6177   -0.6870 C   0  0  0  0  0  0  0  0  0  0  0  0
    3.5409    1.0420    0.6822 C   0  0  0  0  0  0  0  0  0  0  0  0
    3.1332   -0.8900   -0.7101 C   0  0  0  0  0  0  0  0  0  0  0  0
    4.0211   -0.0601   -0.0253 C   0  0  0  0  0  0  0  0  0  0  0  0
  1 14  2  0
  2  6  1  0
  3  6  2  0
  4  7  1  0
  4  9  1  0
  4 12  1  0
  5 10  1  0
  5 14  1  0
  6 20  1  0
  7  8  1  0
  8 10  1  0
  9 11  1  0
 10 11  2  0
 11 13  1  0
 14 15  1  0
 15 16  2  0
 15 17  1  0
 16 18  1  0
 17 19  2  0
 18 20  2  0
 19 20  1  0
M  CHG  2   2  -1   6   1
M  END
>  <PUBCHEM_COMPOUND_CID>  (1) 
15554

>  <PUBCHEM_CONFORMER_RMSD>  (1) 
0.6

>  <PUBCHEM_CONFORMER_DIVERSEORDER>  (1) 
1
12
2
11
9
13
7
3
8
4
5
6
10

>  <PUBCHEM_MMFF94_PARTIAL_CHARGES>  (1) 
25
1 -0.57
10 -0.03
11 -0.28
12 0.27
13 0.14
14 0.54
15 0.09
16 -0.15
17 -0.15
18 -0.15
19 -0.15
2 -0.52
20 0.13
3 -0.52
33 0.37
34 0.15
35 0.15
36 0.15
37 0.15
4 -0.81
5 -0.54
6 0.91
7 0.27
8 0.14
9 0.41

>  <PUBCHEM_EFFECTIVE_ROTOR_COUNT>  (1) 
4.8

>  <PUBCHEM_PHARMACOPHORE_FEATURES>  (1) 
8
1 1 acceptor
1 2 acceptor
1 2 anion
1 3 acceptor
1 4 cation
1 5 donor
6 15 16 17 18 19 20 rings
6 4 7 8 9 10 11 rings

>  <PUBCHEM_HEAVY_ATOM_COUNT>  (1) 
20

>  <PUBCHEM_ATOM_DEF_STEREO_COUNT>  (1) 
0

>  <PUBCHEM_ATOM_UDEF_STEREO_COUNT>  (1) 
0

>  <PUBCHEM_BOND_DEF_STEREO_COUNT>  (1) 
0

>  <PUBCHEM_BOND_UDEF_STEREO_COUNT>  (1) 
0

>  <PUBCHEM_ISOTOPIC_ATOM_COUNT>  (1) 
0

>  <PUBCHEM_COMPONENT_COUNT>  (1) 
1

>  <PUBCHEM_CACTVS_TAUTO_COUNT>  (1) 
2

>  <PUBCHEM_CONFORMER_ID>  (1) 
00003CC200000001

>  <PUBCHEM_MMFF94_ENERGY>  (1) 
60.0375

>  <PUBCHEM_FEATURE_SELFOVERLAP>  (1) 
40.676

>  <PUBCHEM_SHAPE_FINGERPRINT>  (1) 
10 15 18272356612999078656
11045977 3 18341894129863342298
11089746 13 16559029398168746953
11128504 68 16153431670700828356
11315181 36 18060422434175456201
11405975 8 18410011078200593601
11796584 16 18260267456275638282
12236239 1 16008747996010469517
12516196 113 17775564247338310648
12596602 18 14836111191376833998
12788726 201 18199744748224290945
13402501 40 18412265029956671087
13533116 47 13110691505648447388
1420 363 18342459227263481828
14251731 8 18333730208676911647
14251764 18 18130793369509043009
14341114 176 18410015459194069648
14386348 63 18413393137297160830
14617045 38 18260269624806750739
15042514 8 18042974358261116291
15196674 1 18339923834716579211
15242439 84 18411698785562503253
15375358 24 18343303677974142415
15537594 2 17167856474311883795
15788980 27 18273213122875086534
15880784 105 16988273283001859087
17804303 29 18261675973783521973
17834072 8 18335135389159269789
17844677 252 18260834812301152045
19141452 34 18342458183908455151
200 152 17346595261802491489
20279233 1 18342182171713290111
20374829 77 18408040723251335914
20645477 56 18259981570456626469
20645477 70 17846782875375842486
20681677 155 17967249806063540475
21236236 1 17987801809007580953
21267235 1 18342183249591799804
21279426 13 18195528082534651023
21682296 61 17345205402618816726
2215653 11 18341890779672839471
22224240 67 16773789304084103838
2297311 6 18114185220327629669
23035841 295 18186518791657294834
23175994 123 18131635599616324609
23402539 116 18113332028994518166
23536379 177 17023182704306433564
23557571 272 18335139756645618764
23559900 14 18410851100889707712
26918003 58 18272934937769471579
3004659 81 18187086144310884054
335352 9 18408040724074249517
3545911 37 18407759227153145143
3633792 109 15338568111741593341
4015057 19 18129367358652031825
4073 2 18188492496849958962
4214541 1 18408322207276845521
5104073 3 18339360884784348760
5283173 99 18336542712034425101
5385378 56 18189621541152962131
542803 24 16298105384544551308
59755656 215 18335422331065456446
59755656 520 18408599258965054519
9709674 26 18193275415269680819

>  <PUBCHEM_SHAPE_MULTIPOLES>  (1) 
379.04
14.54
1.71
0.85
3.33
0.61
0.03
1.12
0.13
-0.94
-0.27
0.11
0.02
1.4

>  <PUBCHEM_SHAPE_SELFOVERLAP>  (1) 
800.132

>  <PUBCHEM_SHAPE_VOLUME>  (1) 
212.9

>  <PUBCHEM_COORDINATE_TYPE>  (1) 
2
5
10

$$$$
