15569
     RDKit          3D

 21 24  0  0  0  0  0  0  0  0999 V2000
    3.8411   -2.5275   -0.0002 O   0  0  0  0  0  0  0  0  0  0  0  0
   -1.4029   -2.6114   -0.0003 O   0  0  0  0  0  0  0  0  0  0  0  0
   -0.5054    2.0579   -0.0007 O   0  0  0  0  0  0  0  0  0  0  0  0
    0.8556   -0.6245   -0.0006 C   0  0  0  0  0  0  0  0  0  0  0  0
    1.4623   -2.0076    0.0000 C   0  0  0  0  0  0  0  0  0  0  0  0
    1.9239    0.3736   -0.0008 C   0  0  0  0  0  0  0  0  0  0  0  0
   -0.4581   -0.3721   -0.0001 C   0  0  0  0  0  0  0  0  0  0  0  0
    3.1594   -0.2632   -0.0003 C   0  0  0  0  0  0  0  0  0  0  0  0
    2.9426   -1.7045   -0.0001 C   0  0  0  0  0  0  0  0  0  0  0  0
   -1.5241   -1.4061    0.0002 C   0  0  0  0  0  0  0  0  0  0  0  0
   -1.0647    0.9834    0.0003 C   0  0  0  0  0  0  0  0  0  0  0  0
   -2.7783   -0.6384    0.0007 C   0  0  0  0  0  0  0  0  0  0  0  0
   -2.5142    0.7353    0.0005 C   0  0  0  0  0  0  0  0  0  0  0  0
    1.8727    1.7604   -0.0005 C   0  0  0  0  0  0  0  0  0  0  0  0
    4.3633    0.4193    0.0005 C   0  0  0  0  0  0  0  0  0  0  0  0
   -4.0700   -1.1277    0.0007 C   0  0  0  0  0  0  0  0  0  0  0  0
   -3.5324    1.6688   -0.0001 C   0  0  0  0  0  0  0  0  0  0  0  0
    3.0744    2.4785    0.0003 C   0  0  0  0  0  0  0  0  0  0  0  0
    4.3106    1.8123    0.0010 C   0  0  0  0  0  0  0  0  0  0  0  0
   -5.1110   -0.1951    0.0000 C   0  0  0  0  0  0  0  0  0  0  0  0
   -4.8450    1.1886   -0.0006 C   0  0  0  0  0  0  0  0  0  0  0  0
  1  9  2  0
  2 10  2  0
  3 11  2  0
  4  5  1  0
  4  6  1  0
  4  7  2  3
  5  9  1  0
  6  8  2  0
  6 14  1  0
  7 10  1  0
  7 11  1  0
  8  9  1  0
  8 15  1  0
 10 12  1  0
 11 13  1  0
 12 13  2  0
 12 16  1  0
 13 17  1  0
 14 18  2  0
 15 19  2  0
 16 20  2  0
 17 21  2  0
 18 19  1  0
 20 21  1  0
M  END
>  <PUBCHEM_COMPOUND_CID>  (1) 
15569

>  <PUBCHEM_CONFORMER_RMSD>  (1) 
0.6

>  <PUBCHEM_CONFORMER_DIVERSEORDER>  (1) 
1

>  <PUBCHEM_MMFF94_PARTIAL_CHARGES>  (1) 
29
1 -0.57
10 0.47
11 0.47
12 0.09
13 0.09
14 -0.15
15 -0.15
16 -0.15
17 -0.15
18 -0.15
19 -0.15
2 -0.57
20 -0.15
21 -0.15
24 0.15
25 0.15
26 0.15
27 0.15
28 0.15
29 0.15
3 -0.57
30 0.15
31 0.15
4 -0.17
5 0.2
6 0.03
7 0.03
8 0.09
9 0.42

>  <PUBCHEM_EFFECTIVE_ROTOR_COUNT>  (1) 
0.2

>  <PUBCHEM_PHARMACOPHORE_FEATURES>  (1) 
8
1 1 acceptor
1 2 acceptor
1 3 acceptor
1 7 anion
5 4 5 6 8 9 rings
5 7 10 11 12 13 rings
6 12 13 16 17 20 21 rings
6 6 8 14 15 18 19 rings

>  <PUBCHEM_HEAVY_ATOM_COUNT>  (1) 
21

>  <PUBCHEM_ATOM_DEF_STEREO_COUNT>  (1) 
0

>  <PUBCHEM_ATOM_UDEF_STEREO_COUNT>  (1) 
0

>  <PUBCHEM_BOND_DEF_STEREO_COUNT>  (1) 
0

>  <PUBCHEM_BOND_UDEF_STEREO_COUNT>  (1) 
0

>  <PUBCHEM_ISOTOPIC_ATOM_COUNT>  (1) 
0

>  <PUBCHEM_COMPONENT_COUNT>  (1) 
1

>  <PUBCHEM_CACTVS_TAUTO_COUNT>  (1) 
4

>  <PUBCHEM_CONFORMER_ID>  (1) 
00003CD100000001

>  <PUBCHEM_MMFF94_ENERGY>  (1) 
95.4127

>  <PUBCHEM_FEATURE_SELFOVERLAP>  (1) 
40.763

>  <PUBCHEM_SHAPE_FINGERPRINT>  (1) 
10411042 1 17618222802075297767
10608611 8 18409446990043934724
10616163 171 18267868461203487478
10967382 1 18410575110775780548
1100329 8 16679217787326735531
11471102 20 18410853239714465894
11578080 2 13624686902218302604
12107183 9 17836934399618346825
12236239 1 17775286070864620157
12403259 226 18191019010924006772
12403259 415 18113898205006631125
12403260 363 18340761529844453987
12788726 201 17561093462080236017
13140716 1 18407757045088667730
13675066 3 18040722467608974073
138480 1 17978228249226243462
14790565 3 18268998583838947529
15196674 1 18410856542823904259
15442244 35 18267867190225126424
15536298 74 18412826871618262060
17492 89 18411419505473245847
1813 80 16950285104749088549
18186145 218 17749104465925031487
19591789 44 18409729534863108475
200 152 18131628985234390897
20645477 70 18342458110340149270
20715895 44 18121773925150333205
21033648 29 17458898258925597781
21065198 57 18409450258820047579
21267235 1 18411146826451796726
21421861 104 17968647217081844826
21452121 103 18411973672565855872
21859007 373 17534035516013003140
221490 88 18408892823441247058
23227448 37 18340768255584015263
23402539 116 18343294890513077637
23559900 14 18341610374312043658
245318 6 16954799888593436180
3004659 81 18334295319310261998
335352 9 18266741281411883902
33824 294 18409447003466848416
34934 24 18340482365417723790
350125 39 18337955571717426132
3545911 37 18410294735041841236
3680242 22 18262797363457765834
4214541 1 18410855443349401125
4409770 3 16817416546683972686
474 4 17822577221548484420
5104073 3 18409450267357105619
543358 83 18412549782098631248
59755656 215 18411986858484661212
633830 44 18270679758386366751
69090 78 18410571799387747799
7364860 26 18412545397190242550
77779 3 18410856551413819379
8272917 22 18341898467611688126
9709674 26 18410016554337052395
9981440 41 17976535341127826576

>  <PUBCHEM_SHAPE_MULTIPOLES>  (1) 
414.56
9.75
2.7
0.6
3.95
0.38
0
-1.86
0
-1.74
0
0.01
-0.01
0

>  <PUBCHEM_SHAPE_SELFOVERLAP>  (1) 
955.119

>  <PUBCHEM_SHAPE_VOLUME>  (1) 
214.8

>  <PUBCHEM_COORDINATE_TYPE>  (1) 
2
5
10

$$$$
