15565
     RDKit          3D

 17 20  0  0  0  0  0  0  0  0999 V2000
    0.6267   -0.1468    0.0005 C   0  0  0  0  0  0  0  0  0  0  0  0
   -0.0465    1.0669    0.0007 C   0  0  0  0  0  0  0  0  0  0  0  0
   -0.2775   -1.1999    0.0004 C   0  0  0  0  0  0  0  0  0  0  0  0
   -1.4751    0.7833    0.0006 C   0  0  0  0  0  0  0  0  0  0  0  0
   -1.6194   -0.6342    0.0002 C   0  0  0  0  0  0  0  0  0  0  0  0
    2.0127   -0.2879    0.0001 C   0  0  0  0  0  0  0  0  0  0  0  0
    2.7517    0.9113   -0.0001 C   0  0  0  0  0  0  0  0  0  0  0  0
    0.6827    2.2412    0.0003 C   0  0  0  0  0  0  0  0  0  0  0  0
    0.2001   -2.4970    0.0003 C   0  0  0  0  0  0  0  0  0  0  0  0
    2.4947   -1.6114   -0.0002 C   0  0  0  0  0  0  0  0  0  0  0  0
    2.0865    2.1566    0.0000 C   0  0  0  0  0  0  0  0  0  0  0  0
   -2.5791    1.6143    0.0003 C   0  0  0  0  0  0  0  0  0  0  0  0
   -2.8680   -1.2260   -0.0004 C   0  0  0  0  0  0  0  0  0  0  0  0
    1.5921   -2.6969    0.0000 C   0  0  0  0  0  0  0  0  0  0  0  0
    4.2459    0.8964   -0.0012 C   0  0  0  0  0  0  0  0  0  0  0  0
   -3.8424    1.0157   -0.0006 C   0  0  0  0  0  0  0  0  0  0  0  0
   -3.9849   -0.3856   -0.0009 C   0  0  0  0  0  0  0  0  0  0  0  0
  1  2  2  0
  1  3  1  0
  1  6  1  0
  2  4  1  0
  2  8  1  0
  3  5  1  0
  3  9  2  0
  4  5  2  0
  4 12  1  0
  5 13  1  0
  6  7  2  0
  6 10  1  0
  7 11  1  0
  7 15  1  0
  8 11  2  0
  9 14  1  0
 10 14  2  0
 12 16  2  0
 13 17  2  0
 16 17  1  0
M  END
>  <PUBCHEM_COMPOUND_CID>  (1) 
15565

>  <PUBCHEM_CONFORMER_RMSD>  (1) 
0.4

>  <PUBCHEM_CONFORMER_DIVERSEORDER>  (1) 
1

>  <PUBCHEM_MMFF94_PARTIAL_CHARGES>  (1) 
20
10 -0.15
11 -0.15
12 -0.15
13 -0.15
14 -0.15
15 0.14
16 -0.15
17 -0.15
18 0.15
19 0.15
20 0.15
21 0.15
22 0.15
23 0.15
24 0.15
28 0.15
29 0.15
7 -0.14
8 -0.15
9 -0.15

>  <PUBCHEM_EFFECTIVE_ROTOR_COUNT>  (1) 
0

>  <PUBCHEM_PHARMACOPHORE_FEATURES>  (1) 
4
5 1 2 3 4 5 rings
6 1 2 6 7 8 11 rings
6 1 3 6 9 10 14 rings
6 4 5 12 13 16 17 rings

>  <PUBCHEM_HEAVY_ATOM_COUNT>  (1) 
17

>  <PUBCHEM_ATOM_DEF_STEREO_COUNT>  (1) 
0

>  <PUBCHEM_ATOM_UDEF_STEREO_COUNT>  (1) 
0

>  <PUBCHEM_BOND_DEF_STEREO_COUNT>  (1) 
0

>  <PUBCHEM_BOND_UDEF_STEREO_COUNT>  (1) 
0

>  <PUBCHEM_ISOTOPIC_ATOM_COUNT>  (1) 
0

>  <PUBCHEM_COMPONENT_COUNT>  (1) 
1

>  <PUBCHEM_CACTVS_TAUTO_COUNT>  (1) 
1

>  <PUBCHEM_CONFORMER_ID>  (1) 
00003CCD00000001

>  <PUBCHEM_MMFF94_ENERGY>  (1) 
73.6023

>  <PUBCHEM_FEATURE_SELFOVERLAP>  (1) 
20.603

>  <PUBCHEM_SHAPE_FINGERPRINT>  (1) 
10411042 1 17546165199642419183
10608611 8 18336262341169777461
10616163 171 18339081600626365887
10967382 1 18410575080383935879
10980938 120 18410293588216813050
11132069 177 18409725166501592912
11471102 20 18410569561646405277
11578080 2 16880182313599624638
11680986 33 18409456868511128050
12553582 1 17762058739961727435
12592029 89 18409171034094892698
13140716 1 17905891731326596987
13380535 76 18336264630028630634
138480 1 18122344580084750690
13897977 150 18409727357198553973
14790565 3 18337401542670204220
15196674 1 18410855442948305607
15219456 202 18335702706920292719
15309172 13 18339089292722486425
15442244 35 18124034533593087977
15536298 74 18343584006157583750
16945 1 18266740362257207623
18186145 218 18271816708742914621
193761 8 17978510832499162628
19591789 44 18266744773299637262
200 152 18130217246843517165
20510252 161 17982737677144775425
20645476 183 17681006393710687932
20645477 70 18341326683321930831
20905425 154 18269276763989679580
21267235 1 18339652139454689807
21501502 16 18339078194716897379
21524375 3 18336263543539015706
221490 88 18336837406994215499
2334 1 18410855443027563298
23366157 5 17969226651046323114
23402539 116 18271799168576434972
23419403 2 17462541941712930670
23463225 33 18336825299385890826
23559900 14 18124025733511475730
238 59 17902187270805426445
25 1 18408602565097816173
2748010 2 18410575046145659862
335352 9 18050567335541362901
34934 24 18340761572646479429
350125 39 18121224447997038417
352729 6 18121786298423001130
43471831 8 18408600357811979082
5104073 3 18409731716880426201
528886 8 18411132558686302240
53812653 166 18341891913512706384
54173680 148 17832707146681951834
6138700 20 18338804408365039294
7364860 26 18341050714008068030
7832392 63 18268711597991401793
81228 2 17186990437387734763
8272917 22 18340774754154175583
9709674 26 18410015433688237235

>  <PUBCHEM_SHAPE_MULTIPOLES>  (1) 
349.85
6.15
2.76
0.62
1.97
0.8
0
-1.46
0
-1.22
0
0
0
0

>  <PUBCHEM_SHAPE_SELFOVERLAP>  (1) 
812.993

>  <PUBCHEM_SHAPE_VOLUME>  (1) 
168.9

>  <PUBCHEM_COORDINATE_TYPE>  (1) 
2
5
10

$$$$
