15564
     RDKit          3D

 19 22  0  0  0  0  0  0  0  0999 V2000
   -0.5193    0.4155    0.0002 C   0  0  0  0  0  0  0  0  0  0  0  0
    0.2829   -0.7631    0.0001 C   0  0  0  0  0  0  0  0  0  0  0  0
    1.7251   -0.6729    0.0001 C   0  0  0  0  0  0  0  0  0  0  0  0
    2.3388    0.6025   -0.0002 C   0  0  0  0  0  0  0  0  0  0  0  0
   -1.9615    0.3253    0.0002 C   0  0  0  0  0  0  0  0  0  0  0  0
    1.5471    1.7460   -0.0002 C   0  0  0  0  0  0  0  0  0  0  0  0
    0.1571    1.6522    0.0002 C   0  0  0  0  0  0  0  0  0  0  0  0
   -2.5754   -0.9501   -0.0003 C   0  0  0  0  0  0  0  0  0  0  0  0
   -0.3936   -1.9999    0.0000 C   0  0  0  0  0  0  0  0  0  0  0  0
   -1.7836   -2.0937   -0.0004 C   0  0  0  0  0  0  0  0  0  0  0  0
    2.6032   -1.7891    0.0004 C   0  0  0  0  0  0  0  0  0  0  0  0
    3.7389    0.7333   -0.0002 C   0  0  0  0  0  0  0  0  0  0  0  0
   -2.8397    1.4416    0.0007 C   0  0  0  0  0  0  0  0  0  0  0  0
    2.1283    3.1281   -0.0005 C   0  0  0  0  0  0  0  0  0  0  0  0
   -3.9754   -1.0807   -0.0005 C   0  0  0  0  0  0  0  0  0  0  0  0
    3.9945   -1.6498    0.0003 C   0  0  0  0  0  0  0  0  0  0  0  0
    4.5630   -0.3866    0.0000 C   0  0  0  0  0  0  0  0  0  0  0  0
   -4.2310    1.3023    0.0004 C   0  0  0  0  0  0  0  0  0  0  0  0
   -4.7995    0.0392   -0.0002 C   0  0  0  0  0  0  0  0  0  0  0  0
  1  2  1  0
  1  5  1  0
  1  7  2  0
  2  3  2  0
  2  9  1  0
  3  4  1  0
  3 11  1  0
  4  6  2  0
  4 12  1  0
  5  8  2  0
  5 13  1  0
  6  7  1  0
  6 14  1  0
  8 10  1  0
  8 15  1  0
  9 10  2  0
 11 16  2  0
 12 17  2  0
 13 18  2  0
 15 19  2  0
 16 17  1  0
 18 19  1  0
M  END
>  <PUBCHEM_COMPOUND_CID>  (1) 
15564

>  <PUBCHEM_CONFORMER_RMSD>  (1) 
0.4

>  <PUBCHEM_CONFORMER_DIVERSEORDER>  (1) 
1

>  <PUBCHEM_MMFF94_PARTIAL_CHARGES>  (1) 
24
10 -0.15
11 -0.15
12 -0.15
13 -0.15
14 0.14
15 -0.15
16 -0.15
17 -0.15
18 -0.15
19 -0.15
20 0.15
21 0.15
22 0.15
23 0.15
24 0.15
25 0.15
29 0.15
30 0.15
31 0.15
32 0.15
33 0.15
6 -0.14
7 -0.15
9 -0.15

>  <PUBCHEM_EFFECTIVE_ROTOR_COUNT>  (1) 
0

>  <PUBCHEM_PHARMACOPHORE_FEATURES>  (1) 
4
6 1 2 3 4 6 7 rings
6 1 2 5 8 9 10 rings
6 3 4 11 12 16 17 rings
6 5 8 13 15 18 19 rings

>  <PUBCHEM_HEAVY_ATOM_COUNT>  (1) 
19

>  <PUBCHEM_ATOM_DEF_STEREO_COUNT>  (1) 
0

>  <PUBCHEM_ATOM_UDEF_STEREO_COUNT>  (1) 
0

>  <PUBCHEM_BOND_DEF_STEREO_COUNT>  (1) 
0

>  <PUBCHEM_BOND_UDEF_STEREO_COUNT>  (1) 
0

>  <PUBCHEM_ISOTOPIC_ATOM_COUNT>  (1) 
0

>  <PUBCHEM_COMPONENT_COUNT>  (1) 
1

>  <PUBCHEM_CACTVS_TAUTO_COUNT>  (1) 
1

>  <PUBCHEM_CONFORMER_ID>  (1) 
00003CCC00000001

>  <PUBCHEM_MMFF94_ENERGY>  (1) 
73.4975

>  <PUBCHEM_FEATURE_SELFOVERLAP>  (1) 
20.367

>  <PUBCHEM_SHAPE_FINGERPRINT>  (1) 
10062212 137 18201714063917880831
10608611 8 18338233876955388385
10616163 171 18195811988157318094
10906281 52 18337690658640770682
10967382 1 18338798914115014598
11471102 20 18410571790592007030
11578080 2 16914803997585849411
11680986 33 18263648531407385219
116883 192 18126855897942165902
12011746 2 18410857629165865390
12236239 1 17846778499431739285
12251169 10 18411136952290022903
12403259 226 18408880737667169597
12403259 415 18259979371439113605
12403260 363 18412821396083572885
12553582 1 18337660928624070094
13140716 1 18337389464762277192
13221675 6 18408884040106396155
13862211 1 18338511945933654826
14115302 16 18113629992603937910
14178342 30 17907562980806332312
14790565 3 18122634855223169192
14866123 147 17262164623189305586
15042514 8 17832982750912960218
15099037 51 18410573963914102079
15196674 1 18410573980867078823
15256400 18 18412262800784183409
15442244 35 18411419501082508056
15536298 74 18342455967240892240
1601671 61 18411703166893427380
16945 1 18194682789736346662
17349148 13 18060700572115454407
17492 89 18339360897743953799
17804303 29 18409452487723334565
1813 80 17240202123232140100
18186145 218 17822003229276161055
19591789 44 18193556662259722758
200 152 18060696195939392703
20028762 73 18201434826846803631
20645477 70 18413108393845024415
21029758 11 18342172241596011881
21033648 29 17749376067094059333
21267235 1 18410865343143770210
21279426 13 18193838132888517711
21421861 104 17823689760144496162
21501502 16 18267583696307844575
221490 88 18263933291907587219
23366157 5 18041838553579219124
23402539 116 18272080565689956782
23463225 33 18410012134746587454
23558518 356 17826795038157107418
23559900 14 18342735247806066264
2748010 2 18409729603181548263
3004659 81 18187651246354644366
335352 9 18338516339605571101
34934 24 18411131446796278562
350125 39 18410296891748764361
3886686 26 16677501480516464114
4214541 1 18410856551477168357
474 4 17459194160613052908
495365 180 17489011747753314978
5104073 3 18410293626924280179
69090 78 18413666915940552807
7364860 26 18340768264443117776
7832392 63 18412259571158518398
8809292 202 18261678155020513467
9709674 26 18338802324425075383
9981440 41 17544471316022293912

>  <PUBCHEM_SHAPE_MULTIPOLES>  (1) 
391.01
8.61
2.62
0.62
2.24
0.84
0
-0.51
0
-1.05
0
0
0
0

>  <PUBCHEM_SHAPE_SELFOVERLAP>  (1) 
894.756

>  <PUBCHEM_SHAPE_VOLUME>  (1) 
186.6

>  <PUBCHEM_COORDINATE_TYPE>  (1) 
2
5
10

$$$$
