15560
     RDKit          3D

 16 15  0  0  1  0  0  0  0  0999 V2000
   -1.7165   -0.9347    1.8902 O   0  0  0  0  0  0  0  0  0  0  0  0
    1.5835   -1.1231   -1.9281 O   0  0  0  0  0  0  0  0  0  0  0  0
    0.0696   -2.3100    1.6399 O   0  0  0  0  0  0  0  0  0  0  0  0
   -0.2707   -2.3839   -1.5505 O   0  0  0  0  0  0  0  0  0  0  0  0
    3.6807    0.9709    0.1060 O   0  0  0  0  0  0  0  0  0  0  0  0
   -3.5289    1.1679    0.0203 O   0  0  0  0  0  0  0  0  0  0  0  0
    1.8406    2.2969    0.1977 O   0  0  0  0  0  0  0  0  0  0  0  0
   -1.6500    2.3886   -0.3902 O   0  0  0  0  0  0  0  0  0  0  0  0
    0.1893   -0.0370    0.7482 C   0  0  0  0  0  0  0  0  0  0  0  0
   -0.1897   -0.0730   -0.7549 C   0  0  0  0  0  0  0  0  0  0  0  0
    1.7090   -0.0029    1.0043 C   0  0  0  0  0  0  0  0  0  0  0  0
   -1.7076    0.0394   -0.9763 C   0  0  0  0  0  0  0  0  0  0  0  0
   -0.4595   -1.2212    1.4598 C   0  0  0  0  0  0  0  0  0  0  0  0
    0.3312   -1.3246   -1.4451 C   0  0  0  0  0  0  0  0  0  0  0  0
    2.3775    1.2177    0.4035 C   0  0  0  0  0  0  0  0  0  0  0  0
   -2.2585    1.3288   -0.4248 C   0  0  0  0  0  0  0  0  0  0  0  0
  1 13  1  0
  2 14  1  0
  3 13  2  0
  4 14  2  0
  5 15  1  0
  6 16  1  0
  7 15  2  0
  8 16  2  0
  9 10  1  0
  9 11  1  0
  9 13  1  0
 10 12  1  0
 10 14  1  0
 11 15  1  0
 12 16  1  0
M  END
>  <PUBCHEM_COMPOUND_CID>  (1) 
15560

>  <PUBCHEM_CONFORMER_RMSD>  (1) 
0.8

>  <PUBCHEM_CONFORMER_DIVERSEORDER>  (1) 
1
83
19
16
48
82
63
55
9
58
36
73
23
43
34
54
72
24
11
56
67
12
2
14
27
69
18
6
15
78
59
33
25
61
71
57
44
53
40
17
32
74
38
42
84
30
39
87
13
65
41
77
46
8
4
60
64
3
66
76
75
80
68
28
26
21
81
47
10
29
62
86
79
49
85
37
7
70
35
22
50
5
52
20
51
31
45

>  <PUBCHEM_MMFF94_PARTIAL_CHARGES>  (1) 
20
1 -0.65
10 0.06
11 0.06
12 0.06
13 0.66
14 0.66
15 0.66
16 0.66
2 -0.65
23 0.5
24 0.5
25 0.5
26 0.5
3 -0.57
4 -0.57
5 -0.65
6 -0.65
7 -0.57
8 -0.57
9 0.06

>  <PUBCHEM_EFFECTIVE_ROTOR_COUNT>  (1) 
7

>  <PUBCHEM_PHARMACOPHORE_FEATURES>  (1) 
13
1 1 acceptor
1 2 acceptor
1 3 acceptor
1 4 acceptor
1 5 acceptor
1 6 acceptor
1 7 acceptor
1 8 acceptor
3 1 3 13 anion
3 2 4 14 anion
3 5 7 15 anion
3 6 8 16 anion
4 9 10 11 12 hydrophobe

>  <PUBCHEM_HEAVY_ATOM_COUNT>  (1) 
16

>  <PUBCHEM_ATOM_DEF_STEREO_COUNT>  (1) 
0

>  <PUBCHEM_ATOM_UDEF_STEREO_COUNT>  (1) 
2

>  <PUBCHEM_BOND_DEF_STEREO_COUNT>  (1) 
0

>  <PUBCHEM_BOND_UDEF_STEREO_COUNT>  (1) 
0

>  <PUBCHEM_ISOTOPIC_ATOM_COUNT>  (1) 
0

>  <PUBCHEM_COMPONENT_COUNT>  (1) 
1

>  <PUBCHEM_CACTVS_TAUTO_COUNT>  (1) 
1

>  <PUBCHEM_CONFORMER_ID>  (1) 
00003CC800000001

>  <PUBCHEM_MMFF94_ENERGY>  (1) 
24.3886

>  <PUBCHEM_FEATURE_SELFOVERLAP>  (1) 
66.211

>  <PUBCHEM_SHAPE_FINGERPRINT>  (1) 
10922049 32 18410572877049908265
12326174 3 18123180204299462353
12423570 1 14139665124580307467
12592029 89 18130221562921970902
12808571 1 18338496595614615144
13024252 1 17388796850401986194
13898156 1 17403956809203944599
14120999 15 16982663312557308126
14648413 74 17696752160477429413
14817 1 10692963185324508811
15775835 57 18410844460733351632
15906896 17 18264761245643498099
16945 1 17983546853272897670
19837323 101 17700948171320357845
20473742 2 17556340298982715763
20653085 51 18200586024885248616
21524375 3 18338503192679587744
23419403 2 17837255594194192987
23526113 38 17905635218731732006
298252 57 18201421584981672080
430814 3 18121185806075906529
535629 181 17762868341249167660
68250623 7 18338496595636142899
68419 9 17546950503967238051
76951 1 17683821903317896086
81228 2 17410176901180146151

>  <PUBCHEM_SHAPE_MULTIPOLES>  (1) 
282.32
3.77
2.42
1.77
0.49
0.01
0.04
2.92
0.09
-0.13
-0.13
-0.07
-1.4
0.5

>  <PUBCHEM_SHAPE_SELFOVERLAP>  (1) 
563.851

>  <PUBCHEM_SHAPE_VOLUME>  (1) 
163.5

>  <PUBCHEM_COORDINATE_TYPE>  (1) 
2
5
10

$$$$
