15572
     RDKit          3D

 13 14  0  0  1  0  0  0  0  0999 V2000
   -1.3044   -0.1580    0.7192 O   0  0  0  0  0  0  0  0  0  0  0  0
   -0.6960    1.7437   -0.5231 O   0  0  0  0  0  0  0  0  0  0  0  0
   -3.8514   -1.4533    0.7379 O   0  0  0  0  0  0  0  0  0  0  0  0
   -2.4507    0.3480    0.0307 C   0  0  0  0  0  0  0  0  0  0  0  0
   -0.3120    0.8653    0.5465 C   0  0  0  0  0  0  0  0  0  0  0  0
   -1.8450    1.1296   -1.1102 C   0  0  0  0  0  0  0  0  0  0  0  0
    1.0440    0.2703    0.2637 C   0  0  0  0  0  0  0  0  0  0  0  0
   -3.3503   -0.7865   -0.4109 C   0  0  0  0  0  0  0  0  0  0  0  0
    1.1495   -0.9321   -0.4391 C   0  0  0  0  0  0  0  0  0  0  0  0
    2.2001    0.9192    0.7037 C   0  0  0  0  0  0  0  0  0  0  0  0
    2.4043   -1.4826   -0.7005 C   0  0  0  0  0  0  0  0  0  0  0  0
    3.4548    0.3687    0.4421 C   0  0  0  0  0  0  0  0  0  0  0  0
    3.5569   -0.8322   -0.2601 C   0  0  0  0  0  0  0  0  0  0  0  0
  1  4  1  0
  1  5  1  0
  2  5  1  0
  2  6  1  0
  3  8  1  0
  4  6  1  0
  4  8  1  0
  5  7  1  0
  7  9  2  0
  7 10  1  0
  9 11  1  0
 10 12  2  0
 11 13  2  0
 12 13  1  0
M  END
>  <PUBCHEM_COMPOUND_CID>  (1) 
15572

>  <PUBCHEM_CONFORMER_RMSD>  (1) 
0.6

>  <PUBCHEM_CONFORMER_DIVERSEORDER>  (1) 
2
5
13
10
14
8
4
11
1
6
12
9
3
7

>  <PUBCHEM_MMFF94_PARTIAL_CHARGES>  (1) 
19
1 -0.56
10 -0.15
11 -0.15
12 -0.15
13 -0.15
2 -0.56
20 0.15
21 0.15
22 0.15
23 0.15
24 0.4
25 0.15
3 -0.68
4 0.28
5 0.7
6 0.28
7 -0.14
8 0.28
9 -0.15

>  <PUBCHEM_EFFECTIVE_ROTOR_COUNT>  (1) 
3

>  <PUBCHEM_PHARMACOPHORE_FEATURES>  (1) 
6
1 1 acceptor
1 2 acceptor
1 3 acceptor
1 3 donor
5 1 2 4 5 6 rings
6 7 9 10 11 12 13 rings

>  <PUBCHEM_HEAVY_ATOM_COUNT>  (1) 
13

>  <PUBCHEM_ATOM_DEF_STEREO_COUNT>  (1) 
0

>  <PUBCHEM_ATOM_UDEF_STEREO_COUNT>  (1) 
2

>  <PUBCHEM_BOND_DEF_STEREO_COUNT>  (1) 
0

>  <PUBCHEM_BOND_UDEF_STEREO_COUNT>  (1) 
0

>  <PUBCHEM_ISOTOPIC_ATOM_COUNT>  (1) 
0

>  <PUBCHEM_COMPONENT_COUNT>  (1) 
1

>  <PUBCHEM_CACTVS_TAUTO_COUNT>  (1) 
1

>  <PUBCHEM_CONFORMER_ID>  (1) 
00003CD400000002

>  <PUBCHEM_MMFF94_ENERGY>  (1) 
30.6194

>  <PUBCHEM_FEATURE_SELFOVERLAP>  (1) 
30.489

>  <PUBCHEM_SHAPE_FINGERPRINT>  (1) 
12032990 46 18411140246530055922
12897270 3 18339073783611541100
12932764 1 17969223334967262080
13296908 3 18412542089574762271
13705890 14 18410853240168178946
14252887 29 18338242664643138259
14325111 11 18343861096009621464
14993402 34 14996284708496114610
15219456 202 18341887476690098672
15375462 189 17346594200966759307
15501101 241 18272369818852537849
15775835 57 13045953394934241082
16945 1 17846202372117863664
17844478 74 18413670201342380565
18175812 5 18412259523623760533
19422 9 15482382148872777980
200 152 17775271747370240781
20201158 50 18412823560219770702
20279233 1 18339071610168061829
20281407 28 18410296904163719659
20645477 70 17917140598772881047
20653085 51 11386369235909347053
20871998 22 18336270128019065211
20871999 31 17967810536009337285
21061003 4 18060697312246118857
22485316 2 18272646853186355775
23402539 116 17821720624675487988
23557571 272 18187356606327199621
23559900 14 18262228903483413146
25610 137 18202283619298927272
2748010 2 18271516490676688884
276578 36 13326585046162966340
2871803 45 18408035204508868239
474 4 15695716043972582122
57812782 119 18335976502347824034
581208 293 18201431523604371930
77492 1 15769766970565489944
8030462 33 16660362541478880176
83771 10 18342178877568241531

>  <PUBCHEM_SHAPE_MULTIPOLES>  (1) 
249.93
6.39
1.53
0.93
1.09
0.1
-0.07
2.31
0.39
0.13
-0.15
0.29
-0.06
0.89

>  <PUBCHEM_SHAPE_SELFOVERLAP>  (1) 
524.258

>  <PUBCHEM_SHAPE_VOLUME>  (1) 
141.7

>  <PUBCHEM_COORDINATE_TYPE>  (1) 
2
5
10

$$$$
