15581
     RDKit          3D

 21 22  0  0  0  0  0  0  0  0999 V2000
   -1.2266   -3.4313    0.1047 O   0  0  0  0  0  0  0  0  0  0  0  0
    4.9565    1.2736   -0.0305 N   0  0  0  0  0  0  0  0  0  0  0  0
   -4.8201    1.3126   -0.0558 N   0  0  0  0  0  0  0  0  0  0  0  0
    0.0527   -2.8694    0.0886 N   0  0  0  0  0  0  0  0  0  0  0  0
    1.3168   -0.8215    0.0313 C   0  0  0  0  0  0  0  0  0  0  0  0
   -1.2409   -0.7868    0.0233 C   0  0  0  0  0  0  0  0  0  0  0  0
    0.0567   -1.5470    0.0520 C   0  0  0  0  0  0  0  0  0  0  0  0
    3.7344    0.5701   -0.0097 C   0  0  0  0  0  0  0  0  0  0  0  0
   -3.6039    0.5992   -0.0288 C   0  0  0  0  0  0  0  0  0  0  0  0
    1.3183    0.5725   -0.0149 C   0  0  0  0  0  0  0  0  0  0  0  0
   -1.7962   -0.4996   -1.1963 C   0  0  0  0  0  0  0  0  0  0  0  0
    2.5241   -1.5199    0.0570 C   0  0  0  0  0  0  0  0  0  0  0  0
   -1.8024   -0.4189    1.2183 C   0  0  0  0  0  0  0  0  0  0  0  0
    2.5270    1.2683   -0.0355 C   0  0  0  0  0  0  0  0  0  0  0  0
   -2.9991    0.2061   -1.2229 C   0  0  0  0  0  0  0  0  0  0  0  0
    3.7329   -0.8241    0.0365 C   0  0  0  0  0  0  0  0  0  0  0  0
   -3.0054    0.2866    1.1918 C   0  0  0  0  0  0  0  0  0  0  0  0
    5.0510    2.5980    0.5510 C   0  0  0  0  0  0  0  0  0  0  0  0
    6.1376    0.6760   -0.6211 C   0  0  0  0  0  0  0  0  0  0  0  0
   -5.4635    1.7134    1.1797 C   0  0  0  0  0  0  0  0  0  0  0  0
   -5.4498    1.6423   -1.3189 C   0  0  0  0  0  0  0  0  0  0  0  0
  1  4  1  0
  2  8  1  0
  2 18  1  0
  2 19  1  0
  3  9  1  0
  3 20  1  0
  3 21  1  0
  4  7  2  3
  5  7  1  0
  5 10  2  0
  5 12  1  0
  6  7  1  0
  6 11  2  0
  6 13  1  0
  8 14  2  0
  8 16  1  0
  9 15  2  0
  9 17  1  0
 10 14  1  0
 11 15  1  0
 12 16  2  0
 13 17  2  0
M  END
>  <PUBCHEM_COMPOUND_CID>  (1) 
15581

>  <PUBCHEM_CONFORMER_RMSD>  (1) 
0.6

>  <PUBCHEM_CONFORMER_DIVERSEORDER>  (1) 
1
5
8
3
6
7
2
9
4

>  <PUBCHEM_MMFF94_PARTIAL_CHARGES>  (1) 
30
1 -0.34
10 -0.15
11 -0.15
12 -0.15
13 -0.15
14 -0.15
15 -0.15
16 -0.15
17 -0.15
18 0.37
19 0.37
2 -0.84
20 0.37
21 0.37
22 0.15
23 0.15
24 0.15
25 0.15
26 0.15
27 0.15
28 0.15
29 0.15
3 -0.84
4 -0.51
42 0.4
5 0.09
6 0.09
7 0.28
8 0.1
9 0.1

>  <PUBCHEM_EFFECTIVE_ROTOR_COUNT>  (1) 
4

>  <PUBCHEM_PHARMACOPHORE_FEATURES>  (1) 
6
1 1 anion
1 2 cation
1 3 cation
1 4 acceptor
6 5 8 10 12 14 16 rings
6 6 9 11 13 15 17 rings

>  <PUBCHEM_HEAVY_ATOM_COUNT>  (1) 
21

>  <PUBCHEM_ATOM_DEF_STEREO_COUNT>  (1) 
0

>  <PUBCHEM_ATOM_UDEF_STEREO_COUNT>  (1) 
0

>  <PUBCHEM_BOND_DEF_STEREO_COUNT>  (1) 
0

>  <PUBCHEM_BOND_UDEF_STEREO_COUNT>  (1) 
0

>  <PUBCHEM_ISOTOPIC_ATOM_COUNT>  (1) 
0

>  <PUBCHEM_COMPONENT_COUNT>  (1) 
1

>  <PUBCHEM_CACTVS_TAUTO_COUNT>  (1) 
2

>  <PUBCHEM_CONFORMER_ID>  (1) 
00003CDD00000001

>  <PUBCHEM_MMFF94_ENERGY>  (1) 
101.863

>  <PUBCHEM_FEATURE_SELFOVERLAP>  (1) 
30.446

>  <PUBCHEM_SHAPE_FINGERPRINT>  (1) 
10014705 185 18340767151888157152
10411042 1 17545883724618521618
11089746 13 18060415829164887008
11796584 16 12895061886995699461
12236239 1 17846495890140563871
12293681 160 17918275333332564761
12390115 104 18339092565398122303
12403259 118 17676491704071667869
12403259 415 17968662605712334495
12596602 18 14562533976782458396
12892183 10 16009303210775146457
13544653 18 10447927286699632251
13583140 156 16081632465873987868
13955234 65 18118123567794087707
1420 369 8286204954873013232
14790565 3 18340491062500366057
14848178 96 18128813221987664392
15081414 286 18336553724436041436
15188451 53 14562826486252592497
15342168 16 18408889537780430445
15475509 35 16226888827129962386
17834072 32 18410576223146189824
17870717 6 14045740422473853341
1813 80 17338722556790635390
19784866 34 18412825755401492969
200 152 10087641494037098165
204376 136 18410012117931130843
20645477 56 18260546736127869412
21033648 29 18336822086961831120
21637258 2 10737292380695440201
23402539 116 18201717370847474396
23402655 69 18131067130070375292
23559900 14 18200879578290995520
2838139 119 18272087167160724721
293599 30 18409169909140514820
314194 84 8646472038520608829
335352 9 18411138018454944430
3472631 163 18131915961748210197
34934 24 18335416894316809082
350125 39 18121787389292018410
474 4 18341611477923369019
5104073 3 18188201109252220794
53917941 68 18270105933048250375
59682541 52 17346052069389774628
59755656 520 18409166623184948727
633830 44 18272088245318510935
77188 2 17256525215176752483
7970288 3 8646763387585591321
8272917 22 18125725591414948415

>  <PUBCHEM_SHAPE_MULTIPOLES>  (1) 
411.36
12.77
2.59
1.08
2.65
1.38
0.04
-11.26
0.79
0.52
-0.26
-1.37
-0.26
0.23

>  <PUBCHEM_SHAPE_SELFOVERLAP>  (1) 
870.479

>  <PUBCHEM_SHAPE_VOLUME>  (1) 
232

>  <PUBCHEM_COORDINATE_TYPE>  (1) 
2
5
10

$$$$
