15605
     RDKit          3D

 15 14  0  0  0  0  0  0  0  0999 V2000
    5.1919    0.4982   -0.0342 O   0  0  0  0  0  0  0  0  0  0  0  0
    6.5962   -1.3363   -0.0337 O   0  0  0  0  0  0  0  0  0  0  0  0
   -2.3522    0.4653    0.0675 C   0  0  0  0  0  0  0  0  0  0  0  0
   -1.0583   -0.3555    0.0665 C   0  0  0  0  0  0  0  0  0  0  0  0
   -3.6157   -0.3976    0.0975 C   0  0  0  0  0  0  0  0  0  0  0  0
    0.2417    0.4540    0.1168 C   0  0  0  0  0  0  0  0  0  0  0  0
   -4.9097    0.4196    0.0192 C   0  0  0  0  0  0  0  0  0  0  0  0
    1.5366   -0.3617    0.0597 C   0  0  0  0  0  0  0  0  0  0  0  0
   -6.2074   -0.3918   -0.0445 C   0  0  0  0  0  0  0  0  0  0  0  0
    2.7974    0.4997    0.0266 C   0  0  0  0  0  0  0  0  0  0  0  0
   -7.4669    0.4746   -0.0641 C   0  0  0  0  0  0  0  0  0  0  0  0
    4.0572   -0.3558    0.0115 C   0  0  0  0  0  0  0  0  0  0  0  0
   -8.7250   -0.3774   -0.1349 C   0  0  0  0  0  0  0  0  0  0  0  0
    6.4083   -0.1274   -0.0527 C   0  0  0  0  0  0  0  0  0  0  0  0
    7.5059    0.8920   -0.1012 C   0  0  0  0  0  0  0  0  0  0  0  0
  1 12  1  0
  1 14  1  0
  2 14  2  0
  3  4  1  0
  3  5  1  0
  4  6  1  0
  5  7  1  0
  6  8  1  0
  7  9  1  0
  8 10  1  0
  9 11  1  0
 10 12  1  0
 11 13  1  0
 14 15  1  0
M  END
>  <PUBCHEM_COMPOUND_CID>  (1) 
15605

>  <PUBCHEM_CONFORMER_RMSD>  (1) 
1.2

>  <PUBCHEM_CONFORMER_DIVERSEORDER>  (1) 
1
49
51
25
21
33
55
28
68
74
16
35
12
37
29
15
13
38
44
30
73
14
6
58
23
9
5
52
43
46
42
4
34
54
11
19
62
17
39
22
64
48
69
50
60
24
65
59
2
40
41
47
61
7
32
8
53
72
31
57
71
67
3
26
20
45
75
70
56
10
18
36
66
63
27

>  <PUBCHEM_MMFF94_PARTIAL_CHARGES>  (1) 
5
1 -0.43
12 0.28
14 0.66
15 0.06
2 -0.57

>  <PUBCHEM_EFFECTIVE_ROTOR_COUNT>  (1) 
11

>  <PUBCHEM_PHARMACOPHORE_FEATURES>  (1) 
2
1 13 hydrophobe
1 2 acceptor

>  <PUBCHEM_HEAVY_ATOM_COUNT>  (1) 
15

>  <PUBCHEM_ATOM_DEF_STEREO_COUNT>  (1) 
0

>  <PUBCHEM_ATOM_UDEF_STEREO_COUNT>  (1) 
0

>  <PUBCHEM_BOND_DEF_STEREO_COUNT>  (1) 
0

>  <PUBCHEM_BOND_UDEF_STEREO_COUNT>  (1) 
0

>  <PUBCHEM_ISOTOPIC_ATOM_COUNT>  (1) 
0

>  <PUBCHEM_COMPONENT_COUNT>  (1) 
1

>  <PUBCHEM_CACTVS_TAUTO_COUNT>  (1) 
1

>  <PUBCHEM_CONFORMER_ID>  (1) 
00003CF500000001

>  <PUBCHEM_MMFF94_ENERGY>  (1) 
2.4215

>  <PUBCHEM_FEATURE_SELFOVERLAP>  (1) 
10.148

>  <PUBCHEM_SHAPE_FINGERPRINT>  (1) 
11315181 36 18343868831862763993
11638347 137 12823303386022257708
12091667 2 18410012140117623625
13533116 47 15647320923659630848
14123256 10 18410573985156732393
14251764 18 17988927760347840801
14251764 46 17385443228225804696
17834076 25 18410575084668353665
18006028 8 17847061082294072633
20281389 69 18333447638515630700
20621476 8 17603301536006084591
21150785 3 18342175574696121465
21315763 28 18413670214834158233
22224240 67 16298385777147364219
23521765 1 18342176670055200201
246663 6 14979959181332171973
28498 318 18411136913730386383
33684 2 18410573985151451146
42788 4 18410856555698341128
59755656 520 18260542351399614687
67123 10 18411136961191206877
8209 1 18410575088963327461

>  <PUBCHEM_SHAPE_MULTIPOLES>  (1) 
296.95
27.49
0.89
0.61
10.25
0.06
0
0.32
-1.58
-0.75
-0.01
0.08
-0.01
-0.04

>  <PUBCHEM_SHAPE_SELFOVERLAP>  (1) 
536.102

>  <PUBCHEM_SHAPE_VOLUME>  (1) 
190.8

>  <PUBCHEM_COORDINATE_TYPE>  (1) 
2
5
10

$$$$
