1561
     RDKit          3D

 19 20  0  0  0  0  0  0  0  0999 V2000
    0.5968   -1.9396    0.9228 O   0  0  0  0  0  0  0  0  0  0  0  0
    2.8789    2.8498   -0.3414 O   0  0  0  0  0  0  0  0  0  0  0  0
    1.2026   -0.7304    0.5926 N   0  0  0  0  0  0  0  0  0  0  0  0
   -3.4147    0.1669    0.6489 C   0  0  0  0  0  0  0  0  0  0  0  0
   -1.9596    0.2062    0.1663 C   0  0  0  0  0  0  0  0  0  0  0  0
   -4.4270   -0.0099   -0.4851 C   0  0  0  0  0  0  0  0  0  0  0  0
   -0.9060    0.3613    1.2664 C   0  0  0  0  0  0  0  0  0  0  0  0
   -5.8576   -0.0742    0.0549 C   0  0  0  0  0  0  0  0  0  0  0  0
    0.4896    0.4545    0.7479 C   0  0  0  0  0  0  0  0  0  0  0  0
   -6.8687   -0.2833   -1.0723 C   0  0  0  0  0  0  0  0  0  0  0  0
    2.5339   -0.7216    0.1016 C   0  0  0  0  0  0  0  0  0  0  0  0
    1.0044    1.6606    0.4513 C   0  0  0  0  0  0  0  0  0  0  0  0
    3.1492    0.4988   -0.2329 C   0  0  0  0  0  0  0  0  0  0  0  0
    2.3910    1.7611   -0.0658 C   0  0  0  0  0  0  0  0  0  0  0  0
   -8.2938   -0.3149   -0.5435 C   0  0  0  0  0  0  0  0  0  0  0  0
    3.2694   -1.9046   -0.0651 C   0  0  0  0  0  0  0  0  0  0  0  0
    4.4604    0.5370   -0.7193 C   0  0  0  0  0  0  0  0  0  0  0  0
    4.5789   -1.8678   -0.5506 C   0  0  0  0  0  0  0  0  0  0  0  0
    5.1723   -0.6501   -0.8766 C   0  0  0  0  0  0  0  0  0  0  0  0
  1  3  1  0
  2 14  2  0
  3  9  1  0
  3 11  1  0
  4  5  1  0
  4  6  1  0
  5  7  1  0
  6  8  1  0
  7  9  1  0
  8 10  1  0
  9 12  2  0
 10 15  1  0
 11 13  2  0
 11 16  1  0
 12 14  1  0
 13 14  1  0
 13 17  1  0
 16 18  2  0
 17 19  2  0
 18 19  1  0
M  END
>  <PUBCHEM_COMPOUND_CID>  (1) 
1561

>  <PUBCHEM_CONFORMER_RMSD>  (1) 
0.8

>  <PUBCHEM_CONFORMER_DIVERSEORDER>  (1) 
1
19
38
33
18
42
28
29
7
3
39
16
37
22
17
25
6
20
32
21
27
8
36
12
40
2
10
15
13
4
11
30
23
5
24
34
35
41
31
9
26
14

>  <PUBCHEM_MMFF94_PARTIAL_CHARGES>  (1) 
19
1 -0.38
11 0.1
12 -0.14
13 0.09
14 0.47
16 -0.15
17 -0.15
18 -0.15
19 -0.15
2 -0.57
3 -0.22
32 0.15
36 0.15
37 0.15
38 0.15
39 0.15
40 0.4
7 0.14
9 -0.04

>  <PUBCHEM_EFFECTIVE_ROTOR_COUNT>  (1) 
6

>  <PUBCHEM_PHARMACOPHORE_FEATURES>  (1) 
7
1 1 anion
1 15 hydrophobe
1 2 acceptor
3 4 5 7 hydrophobe
3 6 8 10 hydrophobe
6 11 13 16 17 18 19 rings
6 3 9 11 12 13 14 rings

>  <PUBCHEM_HEAVY_ATOM_COUNT>  (1) 
19

>  <PUBCHEM_ATOM_DEF_STEREO_COUNT>  (1) 
0

>  <PUBCHEM_ATOM_UDEF_STEREO_COUNT>  (1) 
0

>  <PUBCHEM_BOND_DEF_STEREO_COUNT>  (1) 
0

>  <PUBCHEM_BOND_UDEF_STEREO_COUNT>  (1) 
0

>  <PUBCHEM_ISOTOPIC_ATOM_COUNT>  (1) 
0

>  <PUBCHEM_COMPONENT_COUNT>  (1) 
1

>  <PUBCHEM_CACTVS_TAUTO_COUNT>  (1) 
3

>  <PUBCHEM_CONFORMER_ID>  (1) 
0000061900000001

>  <PUBCHEM_MMFF94_ENERGY>  (1) 
32.1208

>  <PUBCHEM_FEATURE_SELFOVERLAP>  (1) 
35.556

>  <PUBCHEM_SHAPE_FINGERPRINT>  (1) 
10299344 5 18202566181862271063
10670039 82 15864345784208212895
10693767 8 18269836424130858950
11471102 20 18408330986385209960
12236239 1 17846503616876536849
125118 31 10953725687632024943
12730499 353 17894352177053327579
13533116 47 18131068259837009609
13668630 136 17775288257593818071
13836976 161 18343867727175428222
13862211 1 18338802196172123130
14170010 4 18412260657943681920
14251752 14 17989204807899344233
14252887 29 11600013141216026972
14576447 43 18343304730320166690
14863182 85 16343712001820658948
14933364 13 18333167259731292853
15003188 100 18041279950143062741
15183329 4 18340767058053030305
15188451 53 13973665266773484701
15475509 35 14117252607104616620
16945 1 18265359295045485088
200 152 18201725024268121528
20612939 158 18410017658185683153
20645477 70 18411420604815159115
21521239 73 18412826876161610443
221357 26 18335136475696773245
221490 88 18264784327077477906
22224240 67 10303803264002564748
22289505 5 18187081732915559524
23424782 7 17967819405628948115
23522609 53 17630633274192832537
23559900 14 18335419119115240801
2748010 2 17905633317005198912
2871803 45 18260830375668058729
29717793 49 18131918156803240525
300161 21 11458423540630086921
3004659 81 18273493472886993427
3060560 45 18334013891404248242
312425 54 11743845794265320381
335352 9 18408611366535631022
3472631 163 14490486299770970399
351380 3 17632855313628951247
42630746 31 18341609347967795480
46194498 28 18260266360610370885
465052 167 17775286084308639711
59682541 52 18336259072915845879
6025842 7 18340770437612245180
6327066 14 17901672897397333444

>  <PUBCHEM_SHAPE_MULTIPOLES>  (1) 
374.29
16.82
1.92
0.99
40.07
0.48
-0.05
-4.66
7.14
-3.33
0.06
0.26
-0.05
-0.3

>  <PUBCHEM_SHAPE_SELFOVERLAP>  (1) 
770.87

>  <PUBCHEM_SHAPE_VOLUME>  (1) 
215.2

>  <PUBCHEM_COORDINATE_TYPE>  (1) 
2
5
10

$$$$
