1562
     RDKit          3D

 12 11  0  0  1  0  0  0  0  0999 V2000
   -0.6034   -2.8058   -0.6737 O   0  0  0  0  0  0  0  0  0  0  0  0
   -1.1755    0.9407    1.4222 O   0  0  0  0  0  0  0  0  0  0  0  0
   -2.2435   -1.6607    0.3982 O   0  0  0  0  0  0  0  0  0  0  0  0
   -1.7087    2.9418   -0.3113 O   0  0  0  0  0  0  0  0  0  0  0  0
   -1.1328    1.7397   -0.7435 N   0  0  0  0  0  0  0  0  0  0  0  0
    2.1670    0.3532    0.1856 C   0  0  0  0  0  0  0  0  0  0  0  0
    1.0961   -0.7408    0.3813 C   0  0  0  0  0  0  0  0  0  0  0  0
   -0.2466   -0.4648   -0.3215 C   0  0  0  0  0  0  0  0  0  0  0  0
    2.4227    0.5620   -1.3098 C   0  0  0  0  0  0  0  0  0  0  0  0
    3.4818    0.0152    0.8898 C   0  0  0  0  0  0  0  0  0  0  0  0
   -0.9090    0.7973    0.2307 C   0  0  0  0  0  0  0  0  0  0  0  0
   -1.1481   -1.6780   -0.1480 C   0  0  0  0  0  0  0  0  0  0  0  0
  1 12  1  0
  2 11  2  0
  3 12  2  0
  4  5  1  0
  5 11  1  0
  6  7  1  0
  6  9  1  0
  6 10  1  0
  7  8  1  0
  8 11  1  0
  8 12  1  0
M  END
>  <PUBCHEM_COMPOUND_CID>  (1) 
1562

>  <PUBCHEM_CONFORMER_RMSD>  (1) 
0.6

>  <PUBCHEM_CONFORMER_DIVERSEORDER>  (1) 
1
10
5
9
6
4
8
7
3
2

>  <PUBCHEM_MMFF94_PARTIAL_CHARGES>  (1) 
11
1 -0.65
11 0.57
12 0.66
2 -0.57
23 0.37
24 0.5
25 0.4
3 -0.57
4 -0.44
5 -0.39
8 0.12

>  <PUBCHEM_EFFECTIVE_ROTOR_COUNT>  (1) 
5

>  <PUBCHEM_PHARMACOPHORE_FEATURES>  (1) 
7
1 1 acceptor
1 2 acceptor
1 3 acceptor
1 5 donor
1 8 anion
3 1 3 12 anion
3 6 9 10 hydrophobe

>  <PUBCHEM_HEAVY_ATOM_COUNT>  (1) 
12

>  <PUBCHEM_ATOM_DEF_STEREO_COUNT>  (1) 
0

>  <PUBCHEM_ATOM_UDEF_STEREO_COUNT>  (1) 
1

>  <PUBCHEM_BOND_DEF_STEREO_COUNT>  (1) 
0

>  <PUBCHEM_BOND_UDEF_STEREO_COUNT>  (1) 
0

>  <PUBCHEM_ISOTOPIC_ATOM_COUNT>  (1) 
0

>  <PUBCHEM_COMPONENT_COUNT>  (1) 
1

>  <PUBCHEM_CACTVS_TAUTO_COUNT>  (1) 
3

>  <PUBCHEM_CONFORMER_ID>  (1) 
0000061A00000001

>  <PUBCHEM_MMFF94_ENERGY>  (1) 
18.8044

>  <PUBCHEM_FEATURE_SELFOVERLAP>  (1) 
35.827

>  <PUBCHEM_SHAPE_FINGERPRINT>  (1) 
1 1 17762611794193895684
100427 49 17905049505430282624
13296909 8 18264185042112071944
13380537 58 18340763754669155476
14128692 85 17620203464734198759
16945 1 17844545489425033298
20653091 64 17259062316545106211
20711985 344 18339657731623071494
21040471 1 18266178327395681444
220403 375 18121491358744741211
23552423 10 17042324411366854607
23595355 12 17761223119619217158
2748010 2 18196944279112510758
54338 74 18264496271930969691
81228 2 18270687587589657091

>  <PUBCHEM_SHAPE_MULTIPOLES>  (1) 
218.5
3.75
2.58
1.07
3.39
0.51
0
-0.02
0.5
-2.57
-0.54
0.38
0.16
-0.19

>  <PUBCHEM_SHAPE_SELFOVERLAP>  (1) 
416.624

>  <PUBCHEM_SHAPE_VOLUME>  (1) 
134.2

>  <PUBCHEM_COORDINATE_TYPE>  (1) 
2
5
10

$$$$
