15642
     RDKit          3D

 14 14  0  0  0  0  0  0  0  0999 V2000
   -0.8086   -0.0389   -0.6249 P   0  0  0  0  0  0  0  0  0  0  0  0
   -1.3021    1.2926    0.1679 O   0  0  0  0  0  0  0  0  0  0  0  0
   -1.6182   -1.1910    0.1887 O   0  0  0  0  0  0  0  0  0  0  0  0
   -1.1793   -0.0039   -2.0846 O   0  0  0  0  0  0  0  0  0  0  0  0
    0.8897   -0.2518   -0.2047 C   0  0  0  0  0  0  0  0  0  0  0  0
    1.8504   -0.3827   -1.2103 C   0  0  0  0  0  0  0  0  0  0  0  0
    1.2808   -0.2896    1.1358 C   0  0  0  0  0  0  0  0  0  0  0  0
   -0.6548    2.5244   -0.1020 C   0  0  0  0  0  0  0  0  0  0  0  0
   -3.0262   -1.2651    0.0430 C   0  0  0  0  0  0  0  0  0  0  0  0
    3.1944   -0.5507   -0.8773 C   0  0  0  0  0  0  0  0  0  0  0  0
    2.6249   -0.4575    1.4687 C   0  0  0  0  0  0  0  0  0  0  0  0
    3.5817   -0.5881    0.4620 C   0  0  0  0  0  0  0  0  0  0  0  0
   -1.2826    3.6080    0.7486 C   0  0  0  0  0  0  0  0  0  0  0  0
   -3.5502   -2.4058    0.8891 C   0  0  0  0  0  0  0  0  0  0  0  0
  1  2  1  0
  1  3  1  0
  1  4  2  0
  1  5  1  0
  2  8  1  0
  3  9  1  0
  5  6  2  0
  5  7  1  0
  6 10  1  0
  7 11  2  0
  8 13  1  0
  9 14  1  0
 10 12  2  0
 11 12  1  0
M  END
>  <PUBCHEM_COMPOUND_CID>  (1) 
15642

>  <PUBCHEM_CONFORMER_RMSD>  (1) 
0.6

>  <PUBCHEM_CONFORMER_DIVERSEORDER>  (1) 
1
19
27
13
23
22
3
4
21
5
26
18
20
17
6
16
29
8
28
2
12
11
10
9
7
15
14
24
25

>  <PUBCHEM_MMFF94_PARTIAL_CHARGES>  (1) 
17
1 1.38
10 -0.15
11 -0.15
12 -0.15
15 0.15
16 0.15
2 -0.55
21 0.15
22 0.15
23 0.15
3 -0.55
4 -0.7
5 -0.14
6 -0.15
7 -0.15
8 0.28
9 0.28

>  <PUBCHEM_EFFECTIVE_ROTOR_COUNT>  (1) 
5

>  <PUBCHEM_PHARMACOPHORE_FEATURES>  (1) 
2
1 4 acceptor
6 5 6 7 10 11 12 rings

>  <PUBCHEM_HEAVY_ATOM_COUNT>  (1) 
14

>  <PUBCHEM_ATOM_DEF_STEREO_COUNT>  (1) 
0

>  <PUBCHEM_ATOM_UDEF_STEREO_COUNT>  (1) 
0

>  <PUBCHEM_BOND_DEF_STEREO_COUNT>  (1) 
0

>  <PUBCHEM_BOND_UDEF_STEREO_COUNT>  (1) 
0

>  <PUBCHEM_ISOTOPIC_ATOM_COUNT>  (1) 
0

>  <PUBCHEM_COMPONENT_COUNT>  (1) 
1

>  <PUBCHEM_CACTVS_TAUTO_COUNT>  (1) 
1

>  <PUBCHEM_CONFORMER_ID>  (1) 
00003D1A00000001

>  <PUBCHEM_MMFF94_ENERGY>  (1) 
15.9994

>  <PUBCHEM_FEATURE_SELFOVERLAP>  (1) 
10.148

>  <PUBCHEM_SHAPE_FINGERPRINT>  (1) 
11578080 2 17678437865923958181
12532896 13 17837766733973063677
13275264 69 18408324376098251953
13380536 127 18409164377312158928
13538477 17 18188773833912961940
136203 1 18339084778891466345
13764800 53 18269552736976263625
14787075 74 17681829936646859504
15375462 189 17895203246055253691
15906896 17 18125432021556962509
16945 1 18267592311959726604
17844478 74 18060701688843965554
18186145 218 11747203667631150591
20097449 115 18339083812560604921
20645476 183 17905615401979338328
20671657 53 16877936174405388766
20711985 344 18341045207975857289
21524375 3 17336173871635936285
21930827 45 18126568907805525256
22802520 49 17915462697031998614
228727 97 17823153339903127958
23419403 2 17756110700025126637
23557571 272 18410855473524844600
25 1 16767606517724609832
25610 171 18198319841109888704
3071541 236 18120364372406695741
4175511 71 18197791083823497475
5902787 121 18190742123157179363
6049 1 17774724173726767160
6442390 28 17623312484697703377
7364860 26 17763754582265567451
81228 2 18340768126882871017
81539 233 10879177699229195571

>  <PUBCHEM_SHAPE_MULTIPOLES>  (1) 
274.35
5.43
2.86
1.42
0.79
3.51
-0.29
-4.02
1.03
-3.65
1.02
0.41
-0.17
0.25

>  <PUBCHEM_SHAPE_SELFOVERLAP>  (1) 
529.378

>  <PUBCHEM_SHAPE_VOLUME>  (1) 
166.8

>  <PUBCHEM_COORDINATE_TYPE>  (1) 
2
5
10

$$$$
