1564
     RDKit          3D

 16 16  0  0  1  0  0  0  0  0999 V2000
   -4.7852   -0.6569    0.1214 Cl  0  0  0  0  0  0  0  0  0  0  0  0
    1.8268   -1.6607    0.0573 S   0  0  0  0  0  0  0  0  0  0  0  0
    1.4301    0.9903   -1.5030 O   0  0  0  0  0  0  0  0  0  0  0  0
    3.0436   -2.2508    0.9681 O   0  0  0  0  0  0  0  0  0  0  0  0
    2.2265   -1.6896   -1.3358 O   0  0  0  0  0  0  0  0  0  0  0  0
    0.5789   -2.2465    0.5062 O   0  0  0  0  0  0  0  0  0  0  0  0
    2.4717    2.9447    0.3821 N   0  0  0  0  0  0  0  0  0  0  0  0
    0.9842    0.9782   -0.1384 C   0  0  0  0  0  0  0  0  0  0  0  0
    1.9048    0.0115    0.6358 C   0  0  0  0  0  0  0  0  0  0  0  0
    1.1008    2.4349    0.3861 C   0  0  0  0  0  0  0  0  0  0  0  0
   -0.4893    0.5617   -0.0722 C   0  0  0  0  0  0  0  0  0  0  0  0
   -1.1177    0.5644    1.1504 C   0  0  0  0  0  0  0  0  0  0  0  0
   -1.1224    0.2010   -1.2380 C   0  0  0  0  0  0  0  0  0  0  0  0
   -2.4584    0.1843    1.2109 C   0  0  0  0  0  0  0  0  0  0  0  0
   -2.4631   -0.1791   -1.1777 C   0  0  0  0  0  0  0  0  0  0  0  0
   -3.1313   -0.1874    0.0469 C   0  0  0  0  0  0  0  0  0  0  0  0
  1 16  1  0
  2  4  1  0
  2  5  2  0
  2  6  2  0
  2  9  1  0
  3  8  1  0
  7 10  1  0
  8  9  1  0
  8 10  1  0
  8 11  1  0
 11 12  2  0
 11 13  1  0
 12 14  1  0
 13 15  2  0
 14 16  2  0
 15 16  1  0
M  END
>  <PUBCHEM_COMPOUND_CID>  (1) 
1564

>  <PUBCHEM_CONFORMER_RMSD>  (1) 
0.6

>  <PUBCHEM_CONFORMER_DIVERSEORDER>  (1) 
1
2
12
9
11
3
4
5
10
7
8
6

>  <PUBCHEM_MMFF94_PARTIAL_CHARGES>  (1) 
24
1 -0.18
10 0.27
11 -0.14
12 -0.15
13 -0.15
14 -0.15
15 -0.15
16 0.18
2 1.38
21 0.15
22 0.15
23 0.4
24 0.36
25 0.36
26 0.15
27 0.15
28 0.5
3 -0.68
4 -0.68
5 -0.65
6 -0.65
7 -0.99
8 0.42
9 0.11

>  <PUBCHEM_EFFECTIVE_ROTOR_COUNT>  (1) 
4

>  <PUBCHEM_PHARMACOPHORE_FEATURES>  (1) 
9
1 3 acceptor
1 3 donor
1 4 acceptor
1 5 acceptor
1 6 acceptor
1 7 cation
1 7 donor
4 2 4 5 6 anion
6 11 12 13 14 15 16 rings

>  <PUBCHEM_HEAVY_ATOM_COUNT>  (1) 
16

>  <PUBCHEM_ATOM_DEF_STEREO_COUNT>  (1) 
0

>  <PUBCHEM_ATOM_UDEF_STEREO_COUNT>  (1) 
1

>  <PUBCHEM_BOND_DEF_STEREO_COUNT>  (1) 
0

>  <PUBCHEM_BOND_UDEF_STEREO_COUNT>  (1) 
0

>  <PUBCHEM_ISOTOPIC_ATOM_COUNT>  (1) 
0

>  <PUBCHEM_COMPONENT_COUNT>  (1) 
1

>  <PUBCHEM_CACTVS_TAUTO_COUNT>  (1) 
1

>  <PUBCHEM_CONFORMER_ID>  (1) 
0000061C00000001

>  <PUBCHEM_MMFF94_ENERGY>  (1) 
38.5443

>  <PUBCHEM_FEATURE_SELFOVERLAP>  (1) 
45.73

>  <PUBCHEM_SHAPE_FINGERPRINT>  (1) 
12202030 40 17604166886106482467
12326174 3 18341617052838508988
12423570 1 14383318812708838164
13538477 17 17417245571594239229
14115302 16 12901535884532627553
14251717 144 18408603669305675691
14817 1 11609356997292624318
15852999 172 17824537702272775217
16945 1 18339344349213012356
1813 80 18129391397399196126
19765921 60 17699565058923798897
20361792 2 18269271261988873726
204376 136 17975974581186011720
20559304 39 17917997178513188201
20645477 70 18342173397601565231
20671657 53 18337670802505911891
20708731 107 18259991486955870781
20711985 327 18340483344644075490
20871998 22 18127975208979007046
21061003 4 18263359192261282898
21296965 67 18267016159324082858
21524375 3 17913490422032659760
2255824 54 18341336668508840543
23419403 2 17753015407473724892
23598291 2 18058189270578633993
23728640 28 16318640619588206603
3286 77 18187079529718610155
4340502 62 18196092372866216483
528862 383 18341610455583775065
7364860 26 18271811254160919860
77492 1 17846777442569169089
81228 2 17548130035505336808
81539 233 18266458895934151021
8272917 22 18341336673368407657
9981440 41 15761595662584756008

>  <PUBCHEM_SHAPE_MULTIPOLES>  (1) 
306.53
5.66
2.47
1.28
5.84
0.36
0.24
-1.58
-0.49
-3.4
-0.39
0.06
-0.08
-0.16

>  <PUBCHEM_SHAPE_SELFOVERLAP>  (1) 
613.873

>  <PUBCHEM_SHAPE_VOLUME>  (1) 
182.4

>  <PUBCHEM_COORDINATE_TYPE>  (1) 
2
5
10

$$$$
