15668
     RDKit          3D

 31 32  0  0  0  0  0  0  0  0999 V2000
    1.6072   -0.1697   -2.0020 O   0  0  0  0  0  0  0  0  0  0  0  0
   -2.3919    3.3758   -0.2255 O   0  0  0  0  0  0  0  0  0  0  0  0
    0.1120    3.3218    0.8960 O   0  0  0  0  0  0  0  0  0  0  0  0
   -0.8805   -1.0422   -1.2759 O   0  0  0  0  0  0  0  0  0  0  0  0
    4.2701    1.1308    1.7525 O   0  0  0  0  0  0  0  0  0  0  0  0
   -5.0452   -0.3755    0.9971 O   0  0  0  0  0  0  0  0  0  0  0  0
    4.8883   -0.2472   -1.2547 O   0  0  0  0  0  0  0  0  0  0  0  0
   -3.7631   -2.7221   -1.0366 O   0  0  0  0  0  0  0  0  0  0  0  0
   -0.3844    1.7379   -1.3920 C   0  0  0  0  0  0  0  0  0  0  0  0
    0.8636    1.5748   -0.5506 C   0  0  0  0  0  0  0  0  0  0  0  0
   -1.6158    1.1710   -0.7610 C   0  0  0  0  0  0  0  0  0  0  0  0
    1.8020    0.6189   -0.9054 C   0  0  0  0  0  0  0  0  0  0  0  0
    2.9514    0.4685   -0.1297 C   0  0  0  0  0  0  0  0  0  0  0  0
    1.0443    2.3843    0.5594 C   0  0  0  0  0  0  0  0  0  0  0  0
    2.1936    2.2341    1.3352 C   0  0  0  0  0  0  0  0  0  0  0  0
   -1.8134   -0.2093   -0.7294 C   0  0  0  0  0  0  0  0  0  0  0  0
    3.1473    1.2762    0.9906 C   0  0  0  0  0  0  0  0  0  0  0  0
   -2.9582   -0.7022   -0.1414 C   0  0  0  0  0  0  0  0  0  0  0  0
   -2.5678    2.0248   -0.2038 C   0  0  0  0  0  0  0  0  0  0  0  0
    3.9484   -0.5342   -0.4894 C   0  0  0  0  0  0  0  0  0  0  0  0
    3.8401   -1.9584    0.0805 C   0  0  0  0  0  0  0  0  0  0  0  0
   -3.9150    0.1177    0.4166 C   0  0  0  0  0  0  0  0  0  0  0  0
   -3.7173    1.4982    0.3852 C   0  0  0  0  0  0  0  0  0  0  0  0
   -3.1711   -2.1793   -0.1066 C   0  0  0  0  0  0  0  0  0  0  0  0
   -2.6447   -2.9653    1.0847 C   0  0  0  0  0  0  0  0  0  0  0  0
    2.4036    3.1006    2.5357 C   0  0  0  0  0  0  0  0  0  0  0  0
    4.4327   -3.0250   -0.8404 C   0  0  0  0  0  0  0  0  0  0  0  0
   -2.2476   -4.3921    0.7055 C   0  0  0  0  0  0  0  0  0  0  0  0
    4.2750   -4.4182   -0.2535 C   0  0  0  0  0  0  0  0  0  0  0  0
   -1.7549   -5.1731    1.9128 C   0  0  0  0  0  0  0  0  0  0  0  0
   -2.9087    4.0783   -1.3539 C   0  0  0  0  0  0  0  0  0  0  0  0
  1 12  1  0
  2 19  1  0
  2 31  1  0
  3 14  1  0
  4 16  1  0
  5 17  1  0
  6 22  1  0
  7 20  2  0
  8 24  2  0
  9 10  1  0
  9 11  1  0
 10 12  2  0
 10 14  1  0
 11 16  2  0
 11 19  1  0
 12 13  1  0
 13 17  2  0
 13 20  1  0
 14 15  2  0
 15 17  1  0
 15 26  1  0
 16 18  1  0
 18 22  2  0
 18 24  1  0
 19 23  2  0
 20 21  1  0
 21 27  1  0
 22 23  1  0
 24 25  1  0
 25 28  1  0
 27 29  1  0
 28 30  1  0
M  END
>  <PUBCHEM_COMPOUND_CID>  (1) 
15668

>  <PUBCHEM_CONFORMER_RMSD>  (1) 
1

>  <PUBCHEM_CONFORMER_DIVERSEORDER>  (1) 
2
50
110
81
17
5
96
10
78
77
108
73
117
85
83
90
12
75
30
56
80
28
89
104
64
23
79
16
76
106
113
103
109
74
22
29
98
24
91
68
27
37
36
115
86
107
95
58
71
99
102
61
52
87
101
26
63
116
100
33
48
94
105
44
67
54
93
40
57
38
9
84
41
1
6
43
82
55
42
92
15
66
46
62
19
114
21
34
32
39
8
112
70
18
45
69
88
65
14
59
53
7
35
47
11
97
31
3
111
51
72
25
49
13
60
4
20

>  <PUBCHEM_MMFF94_PARTIAL_CHARGES>  (1) 
33
1 -0.53
10 -0.14
11 -0.14
12 0.08
13 0.09
14 0.08
15 -0.14
16 0.08
17 0.08
18 0.09
19 0.08
2 -0.36
20 0.42
21 0.06
22 0.08
23 -0.15
24 0.42
25 0.06
26 0.14
3 -0.53
31 0.28
36 0.15
4 -0.53
46 0.45
47 0.45
48 0.45
5 -0.53
52 0.45
56 0.45
6 -0.53
7 -0.57
8 -0.57
9 0.29

>  <PUBCHEM_EFFECTIVE_ROTOR_COUNT>  (1) 
9

>  <PUBCHEM_PHARMACOPHORE_FEATURES>  (1) 
12
1 1 donor
1 2 acceptor
1 29 hydrophobe
1 3 donor
1 30 hydrophobe
1 4 donor
1 5 donor
1 6 donor
1 7 acceptor
1 8 acceptor
6 10 12 13 14 15 17 rings
6 11 16 18 19 22 23 rings

>  <PUBCHEM_HEAVY_ATOM_COUNT>  (1) 
31

>  <PUBCHEM_ATOM_DEF_STEREO_COUNT>  (1) 
0

>  <PUBCHEM_ATOM_UDEF_STEREO_COUNT>  (1) 
0

>  <PUBCHEM_BOND_DEF_STEREO_COUNT>  (1) 
0

>  <PUBCHEM_BOND_UDEF_STEREO_COUNT>  (1) 
0

>  <PUBCHEM_ISOTOPIC_ATOM_COUNT>  (1) 
0

>  <PUBCHEM_COMPONENT_COUNT>  (1) 
1

>  <PUBCHEM_CACTVS_TAUTO_COUNT>  (1) 
924

>  <PUBCHEM_CONFORMER_ID>  (1) 
00003D3400000002

>  <PUBCHEM_MMFF94_ENERGY>  (1) 
103.2444

>  <PUBCHEM_FEATURE_SELFOVERLAP>  (1) 
60.903

>  <PUBCHEM_SHAPE_FINGERPRINT>  (1) 
1100329 8 16110654796780948077
11640471 11 13686306759586168229
11796584 16 17973159522629145932
12633257 1 17917167043166129409
12788726 201 17626951877112601438
13140716 1 18269285732319145917
13383661 66 15650482079307651169
13533116 47 18270398420875392295
13583140 156 18201988933076771276
14223421 5 18271235148612238908
14251757 5 18193573181179229846
14725015 67 18336831888430829435
15351339 4 17760365487754853610
15422964 175 17977380856800049741
15927050 60 17833265321280430861
17627616 140 16680638360597855662
17974551 9 18131636703016322369
1813 80 17676485094391624541
19315092 285 17201632496607643063
20775530 9 18408889525154686170
21033648 29 18266445525981299753
21421861 104 17109893786656322259
21796203 349 17034468361973337130
23559900 14 18264771141290346413
23572383 38 17833251392316789959
45266715 3 17978189865224306365
5265222 85 17900560994476464046
5309563 4 17832717033496798239
613672 6 17975964681523693227

>  <PUBCHEM_SHAPE_MULTIPOLES>  (1) 
591.01
9.36
6.46
1.69
4.25
6.53
-0.55
4.75
0.04
-1.95
-2.31
0.82
-0.52
3.24

>  <PUBCHEM_SHAPE_SELFOVERLAP>  (1) 
1256.872

>  <PUBCHEM_SHAPE_VOLUME>  (1) 
330.1

>  <PUBCHEM_COORDINATE_TYPE>  (1) 
2
5
10

$$$$
