15660
     RDKit          3D

 15 16  0  0  0  0  0  0  0  0999 V2000
   -5.1771   -1.1720   -0.0645 N   0  0  0  0  0  0  0  0  0  0  0  0
    5.1751   -1.1792    0.0803 N   0  0  0  0  0  0  0  0  0  0  0  0
   -1.2274    0.5031    0.2678 C   0  0  0  0  0  0  0  0  0  0  0  0
    1.2346    0.5105   -0.2862 C   0  0  0  0  0  0  0  0  0  0  0  0
    0.0011    1.3679   -0.0093 C   0  0  0  0  0  0  0  0  0  0  0  0
   -1.5590   -0.3721   -0.9481 C   0  0  0  0  0  0  0  0  0  0  0  0
   -2.4278    1.3760    0.6572 C   0  0  0  0  0  0  0  0  0  0  0  0
    1.5391   -0.4025    0.9089 C   0  0  0  0  0  0  0  0  0  0  0  0
    2.4438    1.3936   -0.6218 C   0  0  0  0  0  0  0  0  0  0  0  0
   -2.8153   -1.2107   -0.7142 C   0  0  0  0  0  0  0  0  0  0  0  0
   -3.6840    0.5372    0.8902 C   0  0  0  0  0  0  0  0  0  0  0  0
    2.7997   -1.2350    0.6767 C   0  0  0  0  0  0  0  0  0  0  0  0
    3.7044    0.5609   -0.8533 C   0  0  0  0  0  0  0  0  0  0  0  0
   -4.0099   -0.3317   -0.3296 C   0  0  0  0  0  0  0  0  0  0  0  0
    4.0028   -0.3460    0.3458 C   0  0  0  0  0  0  0  0  0  0  0  0
  1 14  1  0
  2 15  1  0
  3  5  1  0
  3  6  1  0
  3  7  1  0
  4  5  1  0
  4  8  1  0
  4  9  1  0
  6 10  1  0
  7 11  1  0
  8 12  1  0
  9 13  1  0
 10 14  1  0
 11 14  1  0
 12 15  1  0
 13 15  1  0
M  END
>  <PUBCHEM_COMPOUND_CID>  (1) 
15660

>  <PUBCHEM_CONFORMER_RMSD>  (1) 
0.6

>  <PUBCHEM_CONFORMER_DIVERSEORDER>  (1) 
1
12
11
8
5
7
4
10
2
6
3
9

>  <PUBCHEM_MMFF94_PARTIAL_CHARGES>  (1) 
8
1 -0.99
14 0.27
15 0.27
2 -0.99
38 0.36
39 0.36
40 0.36
41 0.36

>  <PUBCHEM_EFFECTIVE_ROTOR_COUNT>  (1) 
4.4

>  <PUBCHEM_PHARMACOPHORE_FEATURES>  (1) 
6
1 1 cation
1 1 donor
1 2 cation
1 2 donor
6 3 6 7 10 11 14 rings
6 4 8 9 12 13 15 rings

>  <PUBCHEM_HEAVY_ATOM_COUNT>  (1) 
15

>  <PUBCHEM_ATOM_DEF_STEREO_COUNT>  (1) 
0

>  <PUBCHEM_ATOM_UDEF_STEREO_COUNT>  (1) 
0

>  <PUBCHEM_BOND_DEF_STEREO_COUNT>  (1) 
0

>  <PUBCHEM_BOND_UDEF_STEREO_COUNT>  (1) 
0

>  <PUBCHEM_ISOTOPIC_ATOM_COUNT>  (1) 
0

>  <PUBCHEM_COMPONENT_COUNT>  (1) 
1

>  <PUBCHEM_CACTVS_TAUTO_COUNT>  (1) 
1

>  <PUBCHEM_CONFORMER_ID>  (1) 
00003D2C00000001

>  <PUBCHEM_MMFF94_ENERGY>  (1) 
7.8357

>  <PUBCHEM_FEATURE_SELFOVERLAP>  (1) 
30.446

>  <PUBCHEM_SHAPE_FINGERPRINT>  (1) 
10465860 250 17203888543958679536
11046707 91 18342737403547176921
11471102 20 17822013125081349092
11578080 2 18266713888074663625
11615757 297 18113899359703765953
11806522 49 18333449829228201728
12236239 1 18410857659156854505
12346177 29 17060044969994392085
13167823 11 18410857659151423841
13288520 33 18342176643963649606
13581323 91 17917991667864425441
13690532 89 18410574007069425317
13760787 5 18113626689404951797
14144814 61 18343584040464587545
14251717 144 18113336414388229402
14576447 43 18259983756531968930
15375462 189 18409167692779167296
15477762 27 18187082832869980270
15653759 3 16487255469303428081
17804303 29 17846497045639818937
17834072 33 18408605893771375621
1813 80 18187937127561073710
18186145 218 16298387959017461704
18915474 69 18409729599055574390
19422 9 18410859858174828800
200 152 18260263049227274265
20279233 1 15719110266555594489
20281475 54 18410854364916776078
20645477 70 17821723931832240194
21267235 1 18410863156715142790
22485316 2 18410571790439233989
2255824 54 18263649614124668476
22646028 1 18410856559639977952
22646028 28 18410853261105062151
2297311 6 17489319580865517828
23402539 116 18410008801941889876
23402655 69 18113335276026938124
23532345 12 18341897372268589296
23559900 14 18201993373788138200
23596394 208 15791721967399205154
23598291 2 18336559243437212324
2871803 45 17675920984791192922
29717793 49 18413107242857021349
3268164 11 13045940248450934883
42 15 18131070424220587922
465052 167 18269843171951235623
474 4 18046067331039814324
5104073 3 18131075982388350233
559249 180 18338513023949061327
573450 72 18272933799845919617
58051976 100 18334572396082492149
602551 16 17060051592517646262
83771 10 18335136488138296964

>  <PUBCHEM_SHAPE_MULTIPOLES>  (1) 
298.73
9.94
1.46
0.98
0.01
0.09
0
-3.57
0.04
0.04
0
-0.04
0
-1.08

>  <PUBCHEM_SHAPE_SELFOVERLAP>  (1) 
593.58

>  <PUBCHEM_SHAPE_VOLUME>  (1) 
170.8

>  <PUBCHEM_COORDINATE_TYPE>  (1) 
2
5
10

$$$$
