15664
     RDKit          3D

 14 15  0  0  0  0  0  0  0  0999 V2000
    1.3311    1.1405   -0.2974 N   0  0  0  0  0  0  0  0  0  0  0  0
   -1.3311   -1.1405   -0.2974 N   0  0  0  0  0  0  0  0  0  0  0  0
    0.7215   -0.0237    0.0198 C   0  0  0  0  0  0  0  0  0  0  0  0
   -0.7215    0.0237    0.0198 C   0  0  0  0  0  0  0  0  0  0  0  0
    3.4498    0.0114   -0.0125 C   0  0  0  0  0  0  0  0  0  0  0  0
   -3.4499   -0.0114   -0.0125 C   0  0  0  0  0  0  0  0  0  0  0  0
    1.3964   -1.1939    0.3276 C   0  0  0  0  0  0  0  0  0  0  0  0
   -1.3965    1.1939    0.3276 C   0  0  0  0  0  0  0  0  0  0  0  0
    2.7866   -1.1676    0.3089 C   0  0  0  0  0  0  0  0  0  0  0  0
   -2.7865    1.1676    0.3089 C   0  0  0  0  0  0  0  0  0  0  0  0
    2.6829    1.1276   -0.3055 C   0  0  0  0  0  0  0  0  0  0  0  0
   -2.6829   -1.1276   -0.3054 C   0  0  0  0  0  0  0  0  0  0  0  0
    4.9356    0.0719   -0.0409 C   0  0  0  0  0  0  0  0  0  0  0  0
   -4.9356   -0.0719   -0.0409 C   0  0  0  0  0  0  0  0  0  0  0  0
  1  3  2  0
  1 11  1  0
  2  4  2  0
  2 12  1  0
  3  4  1  0
  3  7  1  0
  4  8  1  0
  5  9  1  0
  5 11  2  0
  5 13  1  0
  6 10  1  0
  6 12  2  0
  6 14  1  0
  7  9  2  0
  8 10  2  0
M  END
>  <PUBCHEM_COMPOUND_CID>  (1) 
15664

>  <PUBCHEM_CONFORMER_RMSD>  (1) 
0.4

>  <PUBCHEM_CONFORMER_DIVERSEORDER>  (1) 
2
4
1
3

>  <PUBCHEM_MMFF94_PARTIAL_CHARGES>  (1) 
20
1 -0.62
10 -0.15
11 0.16
12 0.16
13 0.14
14 0.14
15 0.15
16 0.15
17 0.15
18 0.15
19 0.15
2 -0.62
20 0.15
3 0.31
4 0.31
5 -0.14
6 -0.14
7 -0.15
8 -0.15
9 -0.15

>  <PUBCHEM_EFFECTIVE_ROTOR_COUNT>  (1) 
1

>  <PUBCHEM_PHARMACOPHORE_FEATURES>  (1) 
4
1 1 acceptor
1 2 acceptor
6 1 3 5 7 9 11 rings
6 2 4 6 8 10 12 rings

>  <PUBCHEM_HEAVY_ATOM_COUNT>  (1) 
14

>  <PUBCHEM_ATOM_DEF_STEREO_COUNT>  (1) 
0

>  <PUBCHEM_ATOM_UDEF_STEREO_COUNT>  (1) 
0

>  <PUBCHEM_BOND_DEF_STEREO_COUNT>  (1) 
0

>  <PUBCHEM_BOND_UDEF_STEREO_COUNT>  (1) 
0

>  <PUBCHEM_ISOTOPIC_ATOM_COUNT>  (1) 
0

>  <PUBCHEM_COMPONENT_COUNT>  (1) 
1

>  <PUBCHEM_CACTVS_TAUTO_COUNT>  (1) 
1

>  <PUBCHEM_CONFORMER_ID>  (1) 
00003D3000000002

>  <PUBCHEM_MMFF94_ENERGY>  (1) 
39.908

>  <PUBCHEM_FEATURE_SELFOVERLAP>  (1) 
20.297

>  <PUBCHEM_SHAPE_FINGERPRINT>  (1) 
11401426 45 18409444804306358280
11471102 20 18334010592758341838
12236239 1 18410573980856483849
12251169 10 18410856563934756958
12932764 1 16271631304831923982
13221675 6 18410857659156841514
13380535 76 18410014333770343154
14144814 61 18410856529575018643
14325111 11 18410856538202025793
15196674 1 18338516330983981064
15442244 35 18122626054924071130
15536298 74 18342458097882534462
15775835 57 18410296903947435288
17802600 8 18410570690922526344
18186145 218 17894622690640385119
18522853 276 18413670209990473896
200 152 18341608222522541061
20279233 1 15719115738238252785
20510252 161 17988647333364541993
20645477 70 18262513689273728210
21119208 17 18410856568229724197
21267235 1 18410865360033281187
23402539 116 18060131038293887605
23402655 69 18409163277579245117
23463225 33 18410012108939886398
23557571 272 17561090172077043472
23559900 14 18202279247533780008
26918003 58 17968097538371626403
3312278 4 18410294743869269787
3545911 37 18410293614002571006
42 15 18334859411329234763
474 4 17822860917224033148
4990 188 18130235878464297478
5104073 3 18410856598294496209
57096353 35 18338516455538033214
69090 78 18343579651071386159
7364860 26 18271804695999378448
9709674 26 18412832386351664623
9981440 41 17399515019000278632

>  <PUBCHEM_SHAPE_MULTIPOLES>  (1) 
278.15
8.75
1.35
0.66
0
0
-0.01
0
0.18
0
-0.02
0
0
-0.42

>  <PUBCHEM_SHAPE_SELFOVERLAP>  (1) 
600

>  <PUBCHEM_SHAPE_VOLUME>  (1) 
151.6

>  <PUBCHEM_COORDINATE_TYPE>  (1) 
2
5
10

$$$$
