15670
     RDKit          3D

 23 27  0  0  0  0  0  0  0  0999 V2000
   -1.1679   -3.2996   -0.0001 F   0  0  0  0  0  0  0  0  0  0  0  0
   -1.3829    0.3556   -0.0004 C   0  0  0  0  0  0  0  0  0  0  0  0
    1.4892   -0.0557   -0.0002 C   0  0  0  0  0  0  0  0  0  0  0  0
   -0.8315   -0.9430   -0.0006 C   0  0  0  0  0  0  0  0  0  0  0  0
    0.9378    1.2430   -0.0003 C   0  0  0  0  0  0  0  0  0  0  0  0
   -2.8156    0.5158    0.0000 C   0  0  0  0  0  0  0  0  0  0  0  0
    2.9217   -0.2158   -0.0001 C   0  0  0  0  0  0  0  0  0  0  0  0
   -0.4594    1.4272   -0.0003 C   0  0  0  0  0  0  0  0  0  0  0  0
    0.5656   -1.1273   -0.0005 C   0  0  0  0  0  0  0  0  0  0  0  0
   -3.6408   -0.6387   -0.0001 C   0  0  0  0  0  0  0  0  0  0  0  0
    3.7468    0.9387   -0.0002 C   0  0  0  0  0  0  0  0  0  0  0  0
   -1.6765   -2.0573   -0.0007 C   0  0  0  0  0  0  0  0  0  0  0  0
    1.7828    2.3574   -0.0005 C   0  0  0  0  0  0  0  0  0  0  0  0
   -3.0595   -1.9082   -0.0005 C   0  0  0  0  0  0  0  0  0  0  0  0
    3.1656    2.2082   -0.0005 C   0  0  0  0  0  0  0  0  0  0  0  0
   -3.4779    1.7693    0.0003 C   0  0  0  0  0  0  0  0  0  0  0  0
    3.5840   -1.4693    0.0008 C   0  0  0  0  0  0  0  0  0  0  0  0
   -5.0410   -0.5187    0.0004 C   0  0  0  0  0  0  0  0  0  0  0  0
    5.1471    0.8186    0.0002 C   0  0  0  0  0  0  0  0  0  0  0  0
   -4.8716    1.8751    0.0008 C   0  0  0  0  0  0  0  0  0  0  0  0
    4.9777   -1.5752    0.0010 C   0  0  0  0  0  0  0  0  0  0  0  0
   -5.6534    0.7305    0.0009 C   0  0  0  0  0  0  0  0  0  0  0  0
    5.7595   -0.4305    0.0006 C   0  0  0  0  0  0  0  0  0  0  0  0
  1 12  1  0
  2  4  1  0
  2  6  1  0
  2  8  2  0
  3  5  2  0
  3  7  1  0
  3  9  1  0
  4  9  2  0
  4 12  1  0
  5  8  1  0
  5 13  1  0
  6 10  2  0
  6 16  1  0
  7 11  2  0
  7 17  1  0
 10 14  1  0
 10 18  1  0
 11 15  1  0
 11 19  1  0
 12 14  2  0
 13 15  2  0
 16 20  2  0
 17 21  2  0
 18 22  2  0
 19 23  2  0
 20 22  1  0
 21 23  1  0
M  END
>  <PUBCHEM_COMPOUND_CID>  (1) 
15670

>  <PUBCHEM_CONFORMER_RMSD>  (1) 
0.6

>  <PUBCHEM_CONFORMER_DIVERSEORDER>  (1) 
1

>  <PUBCHEM_MMFF94_PARTIAL_CHARGES>  (1) 
28
1 -0.19
12 0.19
13 -0.15
14 -0.15
15 -0.15
16 -0.15
17 -0.15
18 -0.15
19 -0.15
20 -0.15
21 -0.15
22 -0.15
23 -0.15
24 0.15
25 0.15
26 0.15
27 0.15
28 0.15
29 0.15
30 0.15
31 0.15
32 0.15
33 0.15
34 0.15
35 0.15
36 0.15
8 -0.15
9 -0.15

>  <PUBCHEM_EFFECTIVE_ROTOR_COUNT>  (1) 
0

>  <PUBCHEM_PHARMACOPHORE_FEATURES>  (1) 
5
6 2 3 4 5 8 9 rings
6 2 4 6 10 12 14 rings
6 3 5 7 11 13 15 rings
6 6 10 16 18 20 22 rings
6 7 11 17 19 21 23 rings

>  <PUBCHEM_HEAVY_ATOM_COUNT>  (1) 
23

>  <PUBCHEM_ATOM_DEF_STEREO_COUNT>  (1) 
0

>  <PUBCHEM_ATOM_UDEF_STEREO_COUNT>  (1) 
0

>  <PUBCHEM_BOND_DEF_STEREO_COUNT>  (1) 
0

>  <PUBCHEM_BOND_UDEF_STEREO_COUNT>  (1) 
0

>  <PUBCHEM_ISOTOPIC_ATOM_COUNT>  (1) 
0

>  <PUBCHEM_COMPONENT_COUNT>  (1) 
1

>  <PUBCHEM_CACTVS_TAUTO_COUNT>  (1) 
1

>  <PUBCHEM_CONFORMER_ID>  (1) 
00003D3600000001

>  <PUBCHEM_MMFF94_ENERGY>  (1) 
82.175

>  <PUBCHEM_FEATURE_SELFOVERLAP>  (1) 
25.469

>  <PUBCHEM_SHAPE_FINGERPRINT>  (1) 
10616163 171 18267869569568897934
10906281 52 18199487531196201324
11405975 8 18409729599002697160
11578080 2 17130127939637637770
12107183 9 17762055441304979800
12236239 1 17894914022719968890
12788726 201 17774734077621282616
13140716 1 18410574028127511096
13402501 40 18411138004578116140
13533116 47 17703791371515471730
13583140 156 17558544961709558736
138480 1 17762338011884160643
14341114 176 18410579491305091760
14790565 3 18337677420823986385
14866123 147 17407407936207448706
15042514 8 18192435388803298115
15099037 51 18410856542491627463
15183329 4 18410573967976869716
15196674 1 18410856585409625829
15256400 18 18411136922257231621
15420108 30 16402272819918271664
15442244 35 18410855477598259296
15788980 27 18261114079674741232
16087824 20 18265616481223397477
17349148 13 17989209239266285552
17492 89 18192433197557567851
1813 80 17022900164294093076
19141452 34 18410291432291014630
19591789 44 18336826373043468173
200 152 17988922275532354201
20775438 99 16548007009445341799
21033648 144 18338785827434625516
21033648 29 18114445808725860397
21033650 10 16557656073775756872
21065198 57 18339079422840284168
21133410 127 17826501456032905757
21133410 171 17117417611471866398
21236236 1 18412825811584597567
21267235 1 18410019848508071899
21279426 13 18267022756372731348
21421861 104 17895461528625304202
21859007 373 17897701232988852517
221490 88 18191874624618263786
23402539 116 18272364274381905813
23558518 356 17827077608561384114
23559900 14 18343016727093633488
3004659 81 18333734590224068046
335352 9 18410575063299051644
338550 245 18334017219882291332
34934 24 18410852179422111122
350125 39 18410013226211930809
3545911 37 18412827992984664352
3680242 22 18262234400925696490
4017518 198 17346884425715578102
404807 14 16836026910028796110
4073 2 18041565849078604306
4214541 1 18410856568351264325
460360 51 18266766634598511674
495365 180 17418082261335731040
5104073 3 18410575127623321800
532947 4 18198912413558914887
559249 180 18409444765509474746
59755656 215 18338237063636343679
6138700 20 18266180530856790302
6328613 192 18335427893665264020
633830 44 17313383491083884520
7226269 152 17989209213786873097
9709674 26 18265335195039838938
9981440 41 17253714292120057504
9996256 80 18412828019113385147

>  <PUBCHEM_SHAPE_MULTIPOLES>  (1) 
466.06
12.39
2.63
0.61
1.18
0.54
0
-1.04
0
-0.33
0
0.01
-0.01
0

>  <PUBCHEM_SHAPE_SELFOVERLAP>  (1) 
1083.894

>  <PUBCHEM_SHAPE_VOLUME>  (1) 
238.8

>  <PUBCHEM_COORDINATE_TYPE>  (1) 
2
5
10

$$$$
