15683
     RDKit          3D

  7  6  0  0  1  0  0  0  0  0999 V2000
   -2.9684   -0.1036    0.2035 O   0  0  0  0  0  0  0  0  0  0  0  0
    0.5337    0.2234   -0.2582 C   0  0  0  0  0  0  0  0  0  0  0  0
   -0.6040   -0.6757    0.2467 C   0  0  0  0  0  0  0  0  0  0  0  0
    0.2427    1.7028    0.0127 C   0  0  0  0  0  0  0  0  0  0  0  0
    1.8248   -0.1616    0.4227 C   0  0  0  0  0  0  0  0  0  0  0  0
   -1.9420   -0.3949   -0.4005 C   0  0  0  0  0  0  0  0  0  0  0  0
    2.9131   -0.5904   -0.2270 C   0  0  0  0  0  0  0  0  0  0  0  0
  1  6  2  0
  2  3  1  0
  2  4  1  0
  2  5  1  0
  3  6  1  0
  5  7  2  0
M  END
>  <PUBCHEM_COMPOUND_CID>  (1) 
15683

>  <PUBCHEM_CONFORMER_RMSD>  (1) 
0.4

>  <PUBCHEM_CONFORMER_DIVERSEORDER>  (1) 
1
29
20
28
27
24
26
25
21
8
22
15
18
30
32
11
17
16
6
10
12
3
5
13
19
7
2
23
9
14
4
31

>  <PUBCHEM_MMFF94_PARTIAL_CHARGES>  (1) 
10
1 -0.57
14 0.15
15 0.06
16 0.15
17 0.15
2 0.14
3 0.06
5 -0.29
6 0.45
7 -0.3

>  <PUBCHEM_EFFECTIVE_ROTOR_COUNT>  (1) 
3

>  <PUBCHEM_PHARMACOPHORE_FEATURES>  (1) 
3
1 1 acceptor
1 4 hydrophobe
1 7 hydrophobe

>  <PUBCHEM_HEAVY_ATOM_COUNT>  (1) 
7

>  <PUBCHEM_ATOM_DEF_STEREO_COUNT>  (1) 
0

>  <PUBCHEM_ATOM_UDEF_STEREO_COUNT>  (1) 
1

>  <PUBCHEM_BOND_DEF_STEREO_COUNT>  (1) 
0

>  <PUBCHEM_BOND_UDEF_STEREO_COUNT>  (1) 
0

>  <PUBCHEM_ISOTOPIC_ATOM_COUNT>  (1) 
0

>  <PUBCHEM_COMPONENT_COUNT>  (1) 
1

>  <PUBCHEM_CACTVS_TAUTO_COUNT>  (1) 
2

>  <PUBCHEM_CONFORMER_ID>  (1) 
00003D4300000001

>  <PUBCHEM_MMFF94_ENERGY>  (1) 
5.5993

>  <PUBCHEM_FEATURE_SELFOVERLAP>  (1) 
15.223

>  <PUBCHEM_SHAPE_FINGERPRINT>  (1) 
11062470 55 17418374692251774027
15310529 11 15864062161521214482
16714656 1 18410854330678454526
29004967 10 18410291432343768602
5460574 1 11959732676520571462

>  <PUBCHEM_SHAPE_MULTIPOLES>  (1) 
138.19
3.95
1.19
0.68
0.43
0.65
0.01
-1.17
0.08
-0.13
0
-0.04
-0.02
0.02

>  <PUBCHEM_SHAPE_SELFOVERLAP>  (1) 
248.085

>  <PUBCHEM_SHAPE_VOLUME>  (1) 
89.2

>  <PUBCHEM_COORDINATE_TYPE>  (1) 
2
5
10

$$$$
