15692
     RDKit          3D

 11 11  0  0  0  0  0  0  0  0999 V2000
    2.8815   -0.0338    0.1910 N   0  0  0  0  0  0  0  0  0  0  0  0
    0.6477   -0.1658   -0.7052 N   0  0  0  0  0  0  0  0  0  0  0  0
   -0.7088   -0.0782   -0.3489 C   0  0  0  0  0  0  0  0  0  0  0  0
    1.5001    0.0002    0.2571 C   0  0  0  0  0  0  0  0  0  0  0  0
    3.5674   -0.2774   -1.0700 C   0  0  0  0  0  0  0  0  0  0  0  0
    3.7016    0.4233    1.3041 C   0  0  0  0  0  0  0  0  0  0  0  0
   -1.3567    1.1524   -0.3952 C   0  0  0  0  0  0  0  0  0  0  0  0
   -1.3942   -1.2223    0.0480 C   0  0  0  0  0  0  0  0  0  0  0  0
   -2.7030    1.2399   -0.0409 C   0  0  0  0  0  0  0  0  0  0  0  0
   -2.7406   -1.1347    0.4022 C   0  0  0  0  0  0  0  0  0  0  0  0
   -3.3949    0.0964    0.3577 C   0  0  0  0  0  0  0  0  0  0  0  0
  1  4  1  0
  1  5  1  0
  1  6  1  0
  2  3  1  0
  2  4  2  0
  3  7  2  0
  3  8  1  0
  7  9  1  0
  8 10  2  0
  9 11  2  0
 10 11  1  0
M  END
>  <PUBCHEM_COMPOUND_CID>  (1) 
15692

>  <PUBCHEM_CONFORMER_RMSD>  (1) 
0.4

>  <PUBCHEM_CONFORMER_DIVERSEORDER>  (1) 
1
4
6
2
3
5

>  <PUBCHEM_MMFF94_PARTIAL_CHARGES>  (1) 
17
1 -0.79
10 -0.15
11 -0.15
12 0.06
19 0.15
2 -0.63
20 0.15
21 0.15
22 0.15
23 0.15
3 0.18
4 0.44
5 0.37
6 0.37
7 -0.15
8 -0.15
9 -0.15

>  <PUBCHEM_EFFECTIVE_ROTOR_COUNT>  (1) 
2

>  <PUBCHEM_PHARMACOPHORE_FEATURES>  (1) 
2
3 1 2 4 cation
6 3 7 8 9 10 11 rings

>  <PUBCHEM_HEAVY_ATOM_COUNT>  (1) 
11

>  <PUBCHEM_ATOM_DEF_STEREO_COUNT>  (1) 
0

>  <PUBCHEM_ATOM_UDEF_STEREO_COUNT>  (1) 
0

>  <PUBCHEM_BOND_DEF_STEREO_COUNT>  (1) 
0

>  <PUBCHEM_BOND_UDEF_STEREO_COUNT>  (1) 
0

>  <PUBCHEM_ISOTOPIC_ATOM_COUNT>  (1) 
0

>  <PUBCHEM_COMPONENT_COUNT>  (1) 
1

>  <PUBCHEM_CACTVS_TAUTO_COUNT>  (1) 
1

>  <PUBCHEM_CONFORMER_ID>  (1) 
00003D4C00000001

>  <PUBCHEM_MMFF94_ENERGY>  (1) 
28.0263

>  <PUBCHEM_FEATURE_SELFOVERLAP>  (1) 
10.148

>  <PUBCHEM_SHAPE_FINGERPRINT>  (1) 
10857977 72 18410574011169278721
11062470 55 14562531786348468071
11132069 177 18411135844383736777
12932764 1 18060416911132453966
13024252 1 14562529570646438197
14144814 61 17967814946492408840
14325111 11 18409731729269545974
15219456 202 18060143106766834918
18186145 218 16271930419687647308
190213 19 17603865598324270058
19422 9 17385444306389274690
20279233 1 18060135440519197798
20645464 45 18131069329146430263
20645477 70 16845294891528736910
20715346 28 18060700606633396420
20871998 184 18341901843746431975
22485316 2 14345796067060715321
23402539 116 18340758309109612271
3248919 1 18040994042501659086
369184 2 18202561770128946327
75552 356 18334017207044881355
77492 1 17240489112756876382

>  <PUBCHEM_SHAPE_MULTIPOLES>  (1) 
216.41
6.86
1.17
0.97
4.56
0.02
0.07
0.27
1.06
-1.01
0.01
0.93
0.03
0.46

>  <PUBCHEM_SHAPE_SELFOVERLAP>  (1) 
436.334

>  <PUBCHEM_SHAPE_VOLUME>  (1) 
127.5

>  <PUBCHEM_COORDINATE_TYPE>  (1) 
2
5
10

$$$$
