15703
     RDKit          3D

 16 16  0  0  0  0  0  0  0  0999 V2000
   -0.0004   -2.7060   -0.0007 Cl  0  0  0  0  0  0  0  0  0  0  0  0
    2.7290    1.9693    0.0440 Cl  0  0  0  0  0  0  0  0  0  0  0  0
   -2.7286    1.9694   -0.0452 Cl  0  0  0  0  0  0  0  0  0  0  0  0
    0.0002    3.5632    0.0000 Cl  0  0  0  0  0  0  0  0  0  0  0  0
   -2.9996   -1.3422   -1.1102 O   0  0  0  0  0  0  0  0  0  0  0  0
    2.9992   -1.3428    1.1104 O   0  0  0  0  0  0  0  0  0  0  0  0
   -3.0447   -1.3277    1.1825 N   0  0  0  0  0  0  0  0  0  0  0  0
    3.0446   -1.3279   -1.1822 N   0  0  0  0  0  0  0  0  0  0  0  0
   -1.2079   -0.2710   -0.0197 C   0  0  0  0  0  0  0  0  0  0  0  0
    1.2078   -0.2711    0.0199 C   0  0  0  0  0  0  0  0  0  0  0  0
   -0.0001   -0.9684   -0.0001 C   0  0  0  0  0  0  0  0  0  0  0  0
    1.2081    1.1238    0.0202 C   0  0  0  0  0  0  0  0  0  0  0  0
   -1.2077    1.1239   -0.0194 C   0  0  0  0  0  0  0  0  0  0  0  0
    0.0002    1.8214    0.0006 C   0  0  0  0  0  0  0  0  0  0  0  0
   -2.4731   -1.0068   -0.0404 C   0  0  0  0  0  0  0  0  0  0  0  0
    2.4730   -1.0072    0.0405 C   0  0  0  0  0  0  0  0  0  0  0  0
  1 11  1  0
  2 12  1  0
  3 13  1  0
  4 14  1  0
  5 15  2  0
  6 16  2  0
  7 15  1  0
  8 16  1  0
  9 11  2  0
  9 13  1  0
  9 15  1  0
 10 11  1  0
 10 12  2  0
 10 16  1  0
 12 14  1  0
 13 14  2  0
M  END
>  <PUBCHEM_COMPOUND_CID>  (1) 
15703

>  <PUBCHEM_CONFORMER_RMSD>  (1) 
0.6

>  <PUBCHEM_CONFORMER_DIVERSEORDER>  (1) 
2
3
1

>  <PUBCHEM_MMFF94_PARTIAL_CHARGES>  (1) 
20
1 -0.18
10 0.09
11 0.18
12 0.18
13 0.18
14 0.18
15 0.54
16 0.54
17 0.37
18 0.37
19 0.37
2 -0.18
20 0.37
3 -0.18
4 -0.18
5 -0.57
6 -0.57
7 -0.8
8 -0.8
9 0.09

>  <PUBCHEM_EFFECTIVE_ROTOR_COUNT>  (1) 
2

>  <PUBCHEM_PHARMACOPHORE_FEATURES>  (1) 
5
1 5 acceptor
1 6 acceptor
1 7 donor
1 8 donor
6 9 10 11 12 13 14 rings

>  <PUBCHEM_HEAVY_ATOM_COUNT>  (1) 
16

>  <PUBCHEM_ATOM_DEF_STEREO_COUNT>  (1) 
0

>  <PUBCHEM_ATOM_UDEF_STEREO_COUNT>  (1) 
0

>  <PUBCHEM_BOND_DEF_STEREO_COUNT>  (1) 
0

>  <PUBCHEM_BOND_UDEF_STEREO_COUNT>  (1) 
0

>  <PUBCHEM_ISOTOPIC_ATOM_COUNT>  (1) 
0

>  <PUBCHEM_COMPONENT_COUNT>  (1) 
1

>  <PUBCHEM_CACTVS_TAUTO_COUNT>  (1) 
3

>  <PUBCHEM_CONFORMER_ID>  (1) 
00003D5700000002

>  <PUBCHEM_MMFF94_ENERGY>  (1) 
55.3823

>  <PUBCHEM_FEATURE_SELFOVERLAP>  (1) 
25.371

>  <PUBCHEM_SHAPE_FINGERPRINT>  (1) 
10967382 1 18122343750770836773
11206711 2 18335984172969725463
12423570 1 11880994557501871402
12524768 44 18269276935735786046
12553582 1 18410579482710239622
13140716 1 18410573942202168377
13380535 76 18049716322263384167
13538477 17 18043255630608965906
14817 1 14533492928160226097
16945 1 18410573985151970823
193761 8 18410572885640349540
19868273 325 18410014295099319647
20588541 1 18122347049395299948
20645477 70 18339917242512051143
21501502 16 18410852165888629037
2334 1 18410574019511540304
23388829 49 18125712628670860173
23402539 116 18340762629778536486
23419403 2 17403113505286942960
23526114 1 18411136948021799732
23559900 14 18126850387984870158
241688 4 18410855430068964633
2748010 2 18410851062087269828
58807428 26 16750985123053102650
7364860 26 18126007302240274972
81228 2 18194399983288372800

>  <PUBCHEM_SHAPE_MULTIPOLES>  (1) 
315.05
4.6
3.5
0.86
0
1.91
0
-1.34
0
0
0
0
-0.33
0.08

>  <PUBCHEM_SHAPE_SELFOVERLAP>  (1) 
636.448

>  <PUBCHEM_SHAPE_VOLUME>  (1) 
188

>  <PUBCHEM_COORDINATE_TYPE>  (1) 
2
5
10

$$$$
