15715
     RDKit          3D

 20 20  0  0  0  0  0  0  0  0999 V2000
   -6.2887   -0.1930   -0.2042 C   0  0  0  0  0  0  0  0  0  0  0  0
   -7.4700   -1.1586   -0.0376 C   0  0  0  0  0  0  0  0  0  0  0  0
   -6.5636    1.1353    0.5137 C   0  0  0  0  0  0  0  0  0  0  0  0
   -4.9974   -0.8268    0.3097 C   0  0  0  0  0  0  0  0  0  0  0  0
   -8.7828   -0.5274   -0.4955 C   0  0  0  0  0  0  0  0  0  0  0  0
   -7.8781    1.7626    0.0551 C   0  0  0  0  0  0  0  0  0  0  0  0
   -9.0482    0.7967    0.2138 C   0  0  0  0  0  0  0  0  0  0  0  0
   -3.7657   -0.1040   -0.2373 C   0  0  0  0  0  0  0  0  0  0  0  0
   -2.4435   -0.7119    0.2414 C   0  0  0  0  0  0  0  0  0  0  0  0
   -1.2117   -0.0026   -0.3264 C   0  0  0  0  0  0  0  0  0  0  0  0
    0.1107   -0.5592    0.2121 C   0  0  0  0  0  0  0  0  0  0  0  0
    1.3825    0.0698   -0.3653 C   0  0  0  0  0  0  0  0  0  0  0  0
    2.6704   -0.5074    0.2256 C   0  0  0  0  0  0  0  0  0  0  0  0
    3.9062    0.1789   -0.3623 C   0  0  0  0  0  0  0  0  0  0  0  0
    5.1922   -0.3761    0.2534 C   0  0  0  0  0  0  0  0  0  0  0  0
    6.4633    0.2605   -0.3159 C   0  0  0  0  0  0  0  0  0  0  0  0
    7.7830   -0.2414    0.2792 C   0  0  0  0  0  0  0  0  0  0  0  0
    9.0503    0.4439   -0.2403 C   0  0  0  0  0  0  0  0  0  0  0  0
   10.3276   -0.0407    0.4462 C   0  0  0  0  0  0  0  0  0  0  0  0
   11.5635    0.6012   -0.1656 C   0  0  0  0  0  0  0  0  0  0  0  0
  1  2  1  0
  1  3  1  0
  1  4  1  0
  2  5  1  0
  3  6  1  0
  4  8  1  0
  5  7  1  0
  6  7  1  0
  8  9  1  0
  9 10  1  0
 10 11  1  0
 11 12  1  0
 12 13  1  0
 13 14  1  0
 14 15  1  0
 15 16  1  0
 16 17  1  0
 17 18  1  0
 18 19  1  0
 19 20  1  0
M  END
>  <PUBCHEM_COMPOUND_CID>  (1) 
15715

>  <PUBCHEM_CONFORMER_RMSD>  (1) 
1.4

>  <PUBCHEM_CONFORMER_DIVERSEORDER>  (1) 
1
25
41
30
7
34
56
33
10
31
2
45
52
8
23
64
66
36
58
37
22
5
16
6
28
54
43
39
14
21
32
38
68
12
35
59
24
15
19
27
13
44
55
18
57
11
40
53
26
63
9
46
62
3
50
29
20
47
4
42
17
67
60
48
49
61
51
65

>  <PUBCHEM_MMFF94_PARTIAL_CHARGES>  (1) 
0

>  <PUBCHEM_EFFECTIVE_ROTOR_COUNT>  (1) 
14.2

>  <PUBCHEM_PHARMACOPHORE_FEATURES>  (1) 
2
1 20 hydrophobe
6 1 2 3 5 6 7 rings

>  <PUBCHEM_HEAVY_ATOM_COUNT>  (1) 
20

>  <PUBCHEM_ATOM_DEF_STEREO_COUNT>  (1) 
0

>  <PUBCHEM_ATOM_UDEF_STEREO_COUNT>  (1) 
0

>  <PUBCHEM_BOND_DEF_STEREO_COUNT>  (1) 
0

>  <PUBCHEM_BOND_UDEF_STEREO_COUNT>  (1) 
0

>  <PUBCHEM_ISOTOPIC_ATOM_COUNT>  (1) 
0

>  <PUBCHEM_COMPONENT_COUNT>  (1) 
1

>  <PUBCHEM_CACTVS_TAUTO_COUNT>  (1) 
1

>  <PUBCHEM_CONFORMER_ID>  (1) 
00003D6300000001

>  <PUBCHEM_MMFF94_ENERGY>  (1) 
1.9107

>  <PUBCHEM_FEATURE_SELFOVERLAP>  (1) 
10.148

>  <PUBCHEM_SHAPE_FINGERPRINT>  (1) 
11315181 36 17917996071382083075
12091667 2 13039189209177033835
12498461 61 14057014836897662033
14251764 18 18187363221172583347
14251764 46 18410573993746673478
14251920 1 15430034362806495451
14344974 52 17131826608252017170
14428016 248 18041003955581727140
15061470 23 18410571786983270572
15510794 2 18202287992092865910
155225 1 18411982446693716721
21150785 3 12895352188013853043
21362267 313 18337950066297093618
232437 2 18407477765446659610
23521765 1 18341895198956913878
23528940 14 11819289862991095921
23581129 1 18409448093834556110
246663 6 11891334244305341297
249057 3 15697994162992473740
33684 2 18113335315441006450
59567204 34 18200877276141806097
67123 10 18413388744072942742
8209 1 18413108363933220870

>  <PUBCHEM_SHAPE_MULTIPOLES>  (1) 
411.59
44.72
1.08
0.71
65.08
0.24
0
9.1
0.59
-2.38
0.06
-0.01
0
-0.59

>  <PUBCHEM_SHAPE_SELFOVERLAP>  (1) 
762.142

>  <PUBCHEM_SHAPE_VOLUME>  (1) 
257.7

>  <PUBCHEM_COORDINATE_TYPE>  (1) 
2
5
10

$$$$
