15719
     RDKit          3D

 12 12  0  0  0  0  0  0  0  0999 V2000
   -2.6764    1.3563    0.1134 O   0  0  0  0  0  0  0  0  0  0  0  0
    4.0776    0.7002    0.1872 O   0  0  0  0  0  0  0  0  0  0  0  0
    2.4802    0.4405   -1.4049 O   0  0  0  0  0  0  0  0  0  0  0  0
    0.5351   -0.3520    0.5054 C   0  0  0  0  0  0  0  0  0  0  0  0
    1.9350   -0.0462    0.9180 C   0  0  0  0  0  0  0  0  0  0  0  0
   -0.4276    0.6575    0.5031 C   0  0  0  0  0  0  0  0  0  0  0  0
    0.1883   -1.6473    0.1211 C   0  0  0  0  0  0  0  0  0  0  0  0
   -1.7370    0.3716    0.1164 C   0  0  0  0  0  0  0  0  0  0  0  0
   -1.1209   -1.9333   -0.2655 C   0  0  0  0  0  0  0  0  0  0  0  0
   -2.0836   -0.9238   -0.2679 C   0  0  0  0  0  0  0  0  0  0  0  0
    2.8246    0.3818   -0.2326 C   0  0  0  0  0  0  0  0  0  0  0  0
   -3.9952    0.9946   -0.2938 C   0  0  0  0  0  0  0  0  0  0  0  0
  1  8  1  0
  1 12  1  0
  2 11  1  0
  3 11  2  0
  4  5  1  0
  4  6  2  0
  4  7  1  0
  5 11  1  0
  6  8  1  0
  7  9  2  0
  8 10  2  0
  9 10  1  0
M  END
>  <PUBCHEM_COMPOUND_CID>  (1) 
15719

>  <PUBCHEM_CONFORMER_RMSD>  (1) 
0.6

>  <PUBCHEM_CONFORMER_DIVERSEORDER>  (1) 
1
7
9
15
13
8
2
14
11
3
5
10
16
12
6
4

>  <PUBCHEM_MMFF94_PARTIAL_CHARGES>  (1) 
17
1 -0.36
10 -0.15
11 0.66
12 0.28
15 0.15
16 0.15
17 0.15
18 0.15
2 -0.65
22 0.5
3 -0.57
4 -0.14
5 0.2
6 -0.15
7 -0.15
8 0.08
9 -0.15

>  <PUBCHEM_EFFECTIVE_ROTOR_COUNT>  (1) 
3

>  <PUBCHEM_PHARMACOPHORE_FEATURES>  (1) 
5
1 1 acceptor
1 2 acceptor
1 3 acceptor
3 2 3 11 anion
6 4 6 7 8 9 10 rings

>  <PUBCHEM_HEAVY_ATOM_COUNT>  (1) 
12

>  <PUBCHEM_ATOM_DEF_STEREO_COUNT>  (1) 
0

>  <PUBCHEM_ATOM_UDEF_STEREO_COUNT>  (1) 
0

>  <PUBCHEM_BOND_DEF_STEREO_COUNT>  (1) 
0

>  <PUBCHEM_BOND_UDEF_STEREO_COUNT>  (1) 
0

>  <PUBCHEM_ISOTOPIC_ATOM_COUNT>  (1) 
0

>  <PUBCHEM_COMPONENT_COUNT>  (1) 
1

>  <PUBCHEM_CACTVS_TAUTO_COUNT>  (1) 
1

>  <PUBCHEM_CONFORMER_ID>  (1) 
00003D6700000001

>  <PUBCHEM_MMFF94_ENERGY>  (1) 
33.2844

>  <PUBCHEM_FEATURE_SELFOVERLAP>  (1) 
25.43

>  <PUBCHEM_SHAPE_FINGERPRINT>  (1) 
11031198 65 18342458089155228963
11206711 2 18269823359008324575
12138202 97 17988923400692473350
12716758 59 18272092716347706682
13380535 21 18341620278575291011
13380535 76 18411415077482795819
14325111 11 18411135822750605922
14897335 6 18410288086379745531
14943859 89 18411981360077215619
14993402 34 18335697248001282333
15775835 57 18260828198267339096
16945 1 18268140032207185651
18186145 218 18059586753877937840
20201158 50 17274829064526996286
20279233 1 17275105050561895822
20645476 183 18261112997337980686
20645477 56 18412262869698800040
20653085 51 18188224177078253732
21040471 1 18341603789947740059
21293036 1 18059853961168391985
21524375 3 18334854983260183155
22926399 65 18413387652856077928
23235685 24 18412256216752039553
23402539 116 18201428186620745236
23402655 69 18199732662956433445
23557571 272 18057611064980218824
23559900 14 18202845462063013008
2748010 2 17621020393726982131
4990 188 17418372463707131469
6333449 129 18201438120468494763
7364860 26 18197495121727542122

>  <PUBCHEM_SHAPE_MULTIPOLES>  (1) 
229.35
5.81
1.57
0.87
1.03
0.7
0.11
-3.05
0.83
-0.92
0.07
0.45
-0.05
-0.17

>  <PUBCHEM_SHAPE_SELFOVERLAP>  (1) 
472.851

>  <PUBCHEM_SHAPE_VOLUME>  (1) 
131.8

>  <PUBCHEM_COORDINATE_TYPE>  (1) 
2
5
10

$$$$
