15718
     RDKit          3D

 15 15  0  0  0  0  0  0  0  0999 V2000
    2.1050   -0.4911   -0.5617 O   0  0  0  0  0  0  0  0  0  0  0  0
    5.0989    1.1526    0.5359 O   0  0  0  0  0  0  0  0  0  0  0  0
    4.6275   -1.0626    0.2946 O   0  0  0  0  0  0  0  0  0  0  0  0
   -3.4516    0.1507    0.1759 C   0  0  0  0  0  0  0  0  0  0  0  0
   -1.9372   -0.0241   -0.0253 C   0  0  0  0  0  0  0  0  0  0  0  0
   -3.8441   -0.3148    1.5948 C   0  0  0  0  0  0  0  0  0  0  0  0
   -4.2154   -0.6954   -0.8656 C   0  0  0  0  0  0  0  0  0  0  0  0
   -3.9381    1.6098    0.0235 C   0  0  0  0  0  0  0  0  0  0  0  0
   -1.4067   -1.2844    0.0885 C   0  0  0  0  0  0  0  0  0  0  0  0
   -1.1856    1.0883   -0.3095 C   0  0  0  0  0  0  0  0  0  0  0  0
   -0.0330   -1.4429   -0.0938 C   0  0  0  0  0  0  0  0  0  0  0  0
    0.1882    0.9298   -0.4919 C   0  0  0  0  0  0  0  0  0  0  0  0
    0.7645   -0.3359   -0.3842 C   0  0  0  0  0  0  0  0  0  0  0  0
    2.9390    0.6109   -0.2070 C   0  0  0  0  0  0  0  0  0  0  0  0
    4.2886    0.1092    0.2258 C   0  0  0  0  0  0  0  0  0  0  0  0
  1 13  1  0
  1 14  1  0
  2 15  1  0
  3 15  2  0
  4  5  1  0
  4  6  1  0
  4  7  1  0
  4  8  1  0
  5  9  2  0
  5 10  1  0
  9 11  1  0
 10 12  2  0
 11 13  2  0
 12 13  1  0
 14 15  1  0
M  END
>  <PUBCHEM_COMPOUND_CID>  (1) 
15718

>  <PUBCHEM_CONFORMER_RMSD>  (1) 
0.6

>  <PUBCHEM_CONFORMER_DIVERSEORDER>  (1) 
1
10
7
3
9
2
8
13
6
11
4
12
5

>  <PUBCHEM_MMFF94_PARTIAL_CHARGES>  (1) 
17
1 -0.36
10 -0.15
11 -0.15
12 -0.15
13 0.08
14 0.34
15 0.66
2 -0.65
25 0.15
26 0.15
27 0.15
28 0.15
3 -0.57
31 0.5
4 0.14
5 -0.14
9 -0.15

>  <PUBCHEM_EFFECTIVE_ROTOR_COUNT>  (1) 
4

>  <PUBCHEM_PHARMACOPHORE_FEATURES>  (1) 
6
1 1 acceptor
1 2 acceptor
1 3 acceptor
3 2 3 15 anion
4 4 6 7 8 hydrophobe
6 5 9 10 11 12 13 rings

>  <PUBCHEM_HEAVY_ATOM_COUNT>  (1) 
15

>  <PUBCHEM_ATOM_DEF_STEREO_COUNT>  (1) 
0

>  <PUBCHEM_ATOM_UDEF_STEREO_COUNT>  (1) 
0

>  <PUBCHEM_BOND_DEF_STEREO_COUNT>  (1) 
0

>  <PUBCHEM_BOND_UDEF_STEREO_COUNT>  (1) 
0

>  <PUBCHEM_ISOTOPIC_ATOM_COUNT>  (1) 
0

>  <PUBCHEM_COMPONENT_COUNT>  (1) 
1

>  <PUBCHEM_CACTVS_TAUTO_COUNT>  (1) 
1

>  <PUBCHEM_CONFORMER_ID>  (1) 
00003D6600000001

>  <PUBCHEM_MMFF94_ENERGY>  (1) 
50.0054

>  <PUBCHEM_FEATURE_SELFOVERLAP>  (1) 
30.508

>  <PUBCHEM_SHAPE_FINGERPRINT>  (1) 
10014705 185 18272931605318188709
10465860 250 17095242535874733701
11132069 177 18413111658051694445
11401426 45 18409726257860973733
11543360 7 14764339453229685789
12119455 92 17632292354747796974
12251169 10 18334857251345865324
124424 183 17312821593687237269
13214271 11 18335422357430735629
13675066 3 18113621192115623794
14123238 8 17775565364161409852
14943859 89 18272931626450049370
15209294 21 18130517331586649361
16945 1 18335435581624633439
17846911 113 18413951680772275004
18186145 218 17631746988242805247
19026448 4 15769787839874716125
19026448 5 16128380320232241887
200 152 18272643567847442109
20645477 56 18411979191693847900
20645477 70 16630257926580734366
20871999 31 11743833634674912585
22854114 59 18343865519894443128
23402539 116 18342730806350784029
23559900 14 18272654507203290302
265663 24 18060414720509280974
26918003 58 17022899064592326848
2748010 2 18047199557437927447
42 15 17967533450378556346
5104073 3 18408603630587316488
69090 78 18343298180268460062

>  <PUBCHEM_SHAPE_MULTIPOLES>  (1) 
291.09
9.86
1.4
0.91
8.59
0.07
0.21
1.25
1.89
-0.33
-0.03
-0.75
-0.07
0.09

>  <PUBCHEM_SHAPE_SELFOVERLAP>  (1) 
598.077

>  <PUBCHEM_SHAPE_VOLUME>  (1) 
169

>  <PUBCHEM_COORDINATE_TYPE>  (1) 
2
5
10

$$$$
