15713
     RDKit          3D

 16 16  0  0  0  0  0  0  0  0999 V2000
    3.8301   -0.2258    0.1995 C   0  0  0  0  0  0  0  0  0  0  0  0
    4.9510   -1.2686    0.0932 C   0  0  0  0  0  0  0  0  0  0  0  0
    4.2305    1.0799   -0.5004 C   0  0  0  0  0  0  0  0  0  0  0  0
    2.5278   -0.7725   -0.3824 C   0  0  0  0  0  0  0  0  0  0  0  0
    6.2775   -0.7262    0.6203 C   0  0  0  0  0  0  0  0  0  0  0  0
    5.5583    1.6185    0.0276 C   0  0  0  0  0  0  0  0  0  0  0  0
    6.6678    0.5762   -0.0716 C   0  0  0  0  0  0  0  0  0  0  0  0
    1.3126   -0.0218    0.1621 C   0  0  0  0  0  0  0  0  0  0  0  0
    0.0082   -0.5944   -0.3975 C   0  0  0  0  0  0  0  0  0  0  0  0
   -1.2084    0.1337    0.1783 C   0  0  0  0  0  0  0  0  0  0  0  0
   -2.5450   -0.4465   -0.2932 C   0  0  0  0  0  0  0  0  0  0  0  0
   -3.7622    0.2979    0.2626 C   0  0  0  0  0  0  0  0  0  0  0  0
   -5.0668   -0.3176   -0.2511 C   0  0  0  0  0  0  0  0  0  0  0  0
   -6.3204    0.4061    0.2489 C   0  0  0  0  0  0  0  0  0  0  0  0
   -7.6245   -0.2513   -0.2039 C   0  0  0  0  0  0  0  0  0  0  0  0
   -8.8366    0.5125    0.3075 C   0  0  0  0  0  0  0  0  0  0  0  0
  1  2  1  0
  1  3  1  0
  1  4  1  0
  2  5  1  0
  3  6  1  0
  4  8  1  0
  5  7  1  0
  6  7  1  0
  8  9  1  0
  9 10  1  0
 10 11  1  0
 11 12  1  0
 12 13  1  0
 13 14  1  0
 14 15  1  0
 15 16  1  0
M  END
>  <PUBCHEM_COMPOUND_CID>  (1) 
15713

>  <PUBCHEM_CONFORMER_RMSD>  (1) 
1

>  <PUBCHEM_CONFORMER_DIVERSEORDER>  (1) 
1
45
34
20
32
85
112
73
135
156
3
141
61
57
75
2
148
79
95
43
35
102
4
80
166
110
160
10
163
5
24
38
65
93
165
151
41
7
44
50
119
48
68
91
33
9
47
55
60
40
78
63
127
116
97
84
27
8
30
59
12
37
98
6
123
138
117
124
118
162
69
150
13
109
66
74
130
15
62
49
94
16
128
87
108
14
139
46
121
101
144
58
71
122
99
26
82
164
92
11
134
64
77
21
142
107
106
23
86
143
39
29
140
158
52
113
125
53
28
154
103
136
83
126
152
25
137
111
54
17
120
18
88
115
89
36
133
81
31
42
22
159
149
157
147
76
145
104
155
72
114
51
132
70
129
100
19
146
161
96
90
131
67
56
153
105

>  <PUBCHEM_MMFF94_PARTIAL_CHARGES>  (1) 
0

>  <PUBCHEM_EFFECTIVE_ROTOR_COUNT>  (1) 
10.2

>  <PUBCHEM_PHARMACOPHORE_FEATURES>  (1) 
2
1 16 hydrophobe
6 1 2 3 5 6 7 rings

>  <PUBCHEM_HEAVY_ATOM_COUNT>  (1) 
16

>  <PUBCHEM_ATOM_DEF_STEREO_COUNT>  (1) 
0

>  <PUBCHEM_ATOM_UDEF_STEREO_COUNT>  (1) 
0

>  <PUBCHEM_BOND_DEF_STEREO_COUNT>  (1) 
0

>  <PUBCHEM_BOND_UDEF_STEREO_COUNT>  (1) 
0

>  <PUBCHEM_ISOTOPIC_ATOM_COUNT>  (1) 
0

>  <PUBCHEM_COMPONENT_COUNT>  (1) 
1

>  <PUBCHEM_CACTVS_TAUTO_COUNT>  (1) 
1

>  <PUBCHEM_CONFORMER_ID>  (1) 
00003D6100000001

>  <PUBCHEM_MMFF94_ENERGY>  (1) 
1.0797

>  <PUBCHEM_FEATURE_SELFOVERLAP>  (1) 
10.148

>  <PUBCHEM_SHAPE_FINGERPRINT>  (1) 
11315181 36 18202567290058610451
11524674 6 15140685791544887233
11638347 137 17313101929996708435
12091667 2 18410855457057040951
125118 31 18113339691612378669
13167372 99 18339925922303281000
13533116 47 17530955840226330058
14123256 10 17060621096770268449
1420 363 16877662357238886758
14251764 18 18202002127595820121
14251764 46 18410855464423148595
14933364 13 18407759235769589941
15419008 47 16732975436529440053
15690457 1 11602538745432449641
15716309 27 18411417311287607567
16120349 18 18410007767213662685
17834076 25 17918274251201076911
20157964 124 18410856551582994742
20281389 69 18335419062948577157
20735858 18 15213016059638532161
21130983 4 18342460348424058193
21150785 3 14549019888123585745
21315763 28 18409166593457404257
22224240 67 17748826328401927139
22956985 138 13336668590752006280
23521765 1 18341894087172151475
28498 318 8935008062125581609
33684 2 18273495663399403195
4073 2 17968663829493664794
42788 4 18408322181053400110
4325135 7 18202002126994556933
59755656 520 18114175363647165219
67123 10 18411418424211488919
8209 1 18131069333520447307

>  <PUBCHEM_SHAPE_MULTIPOLES>  (1) 
329.27
25.86
1.13
0.71
37.5
0.17
0
3.87
-2.12
-1.84
0.02
-0.11
-0.01
-0.54

>  <PUBCHEM_SHAPE_SELFOVERLAP>  (1) 
612.283

>  <PUBCHEM_SHAPE_VOLUME>  (1) 
205.5

>  <PUBCHEM_COORDINATE_TYPE>  (1) 
2
5
10

$$$$
