15725
     RDKit          3D

 15 16  0  0  0  0  0  0  0  0999 V2000
    3.7361   -1.2228   -0.0010 F   0  0  0  0  0  0  0  0  0  0  0  0
    3.6548    0.6594   -1.0862 F   0  0  0  0  0  0  0  0  0  0  0  0
    3.6292    0.6599    1.0940 F   0  0  0  0  0  0  0  0  0  0  0  0
    0.9082    1.0786   -0.0009 N   0  0  0  0  0  0  0  0  0  0  0  0
    0.9297   -1.1439   -0.0003 N   0  0  0  0  0  0  0  0  0  0  0  0
   -0.4098    0.6997   -0.0007 C   0  0  0  0  0  0  0  0  0  0  0  0
   -0.3699   -0.6917   -0.0003 C   0  0  0  0  0  0  0  0  0  0  0  0
   -2.7888    0.7000   -0.0006 C   0  0  0  0  0  0  0  0  0  0  0  0
   -2.7810   -0.6967   -0.0001 C   0  0  0  0  0  0  0  0  0  0  0  0
   -1.5972    1.4325   -0.0008 C   0  0  0  0  0  0  0  0  0  0  0  0
   -1.5766   -1.4114    0.0001 C   0  0  0  0  0  0  0  0  0  0  0  0
    1.6690   -0.0573   -0.0007 C   0  0  0  0  0  0  0  0  0  0  0  0
   -4.0821    1.4515   -0.0022 C   0  0  0  0  0  0  0  0  0  0  0  0
   -4.0638   -1.4650    0.0008 C   0  0  0  0  0  0  0  0  0  0  0  0
    3.1421    0.0073   -0.0011 C   0  0  0  0  0  0  0  0  0  0  0  0
  1 15  1  0
  2 15  1  0
  3 15  1  0
  4  6  1  0
  4 12  1  0
  5  7  1  0
  5 12  2  0
  6  7  2  0
  6 10  1  0
  7 11  1  0
  8  9  1  0
  8 10  2  0
  8 13  1  0
  9 11  2  0
  9 14  1  0
 12 15  1  0
M  END
>  <PUBCHEM_COMPOUND_CID>  (1) 
15725

>  <PUBCHEM_CONFORMER_RMSD>  (1) 
0.4

>  <PUBCHEM_CONFORMER_DIVERSEORDER>  (1) 
1

>  <PUBCHEM_MMFF94_PARTIAL_CHARGES>  (1) 
18
1 -0.34
10 -0.15
11 -0.15
12 0.01
13 0.14
14 0.14
15 1.2
16 0.15
17 0.15
18 0.27
2 -0.34
3 -0.34
4 0.03
5 -0.57
6 -0.15
7 0.23
8 -0.14
9 -0.14

>  <PUBCHEM_EFFECTIVE_ROTOR_COUNT>  (1) 
1

>  <PUBCHEM_PHARMACOPHORE_FEATURES>  (1) 
4
1 4 donor
3 4 5 12 cation
5 4 5 6 7 12 rings
6 6 7 8 9 10 11 rings

>  <PUBCHEM_HEAVY_ATOM_COUNT>  (1) 
15

>  <PUBCHEM_ATOM_DEF_STEREO_COUNT>  (1) 
0

>  <PUBCHEM_ATOM_UDEF_STEREO_COUNT>  (1) 
0

>  <PUBCHEM_BOND_DEF_STEREO_COUNT>  (1) 
0

>  <PUBCHEM_BOND_UDEF_STEREO_COUNT>  (1) 
0

>  <PUBCHEM_ISOTOPIC_ATOM_COUNT>  (1) 
0

>  <PUBCHEM_COMPONENT_COUNT>  (1) 
1

>  <PUBCHEM_CACTVS_TAUTO_COUNT>  (1) 
1

>  <PUBCHEM_CONFORMER_ID>  (1) 
00003D6D00000001

>  <PUBCHEM_MMFF94_ENERGY>  (1) 
21.5571

>  <PUBCHEM_FEATURE_SELFOVERLAP>  (1) 
20.404

>  <PUBCHEM_SHAPE_FINGERPRINT>  (1) 
10062212 137 18337100198942121427
10608611 8 18342452651362934328
11132069 177 18409443670097583425
12032990 46 18412548729631293999
12932764 1 17704066326278062038
13214271 11 18343295972876504125
13296908 3 18272088305268379734
13380535 76 18340205189872295927
14144814 61 18410009940002526994
14325111 11 18410855455880732224
15196674 1 18410575080368144103
15219456 202 18130795512181025559
15309172 13 17275386499542177119
15775835 57 18261958453455525809
16945 1 18410575136434924967
18175812 5 18201717344850765380
18186145 218 16588026818375490822
19026448 4 17418376899875455124
19026448 5 17313101960050792944
19422 9 18260269650502395890
1986462 14 18412266129552383135
200 152 17917419961269143007
20279233 1 17775847900068902270
20281475 54 18334012800092145443
20510252 161 18272933829968680793
20645477 70 16916506939280829540
20871998 184 18201721777779364887
21267235 1 18409176523132019035
21501925 9 18337665429285397329
23402539 116 18341041956485108879
23402655 69 18198047098767379997
23463225 33 18334856074282271914
23557571 272 18200889446996830733
23559900 14 18342736283051108682
2748010 2 18339932489550707423
3312278 4 18412265017372079289
43471831 8 18334008363628851547
474 4 16734684197931979740
5104073 3 18410572881413448322
53812653 166 18342732996873827697
57096353 35 18334579091519554582
6333449 129 18341610408745284229
633830 44 17168151104578015234
69090 78 18201431463554081175
7364860 26 18124598840730379092
8809292 202 18115874169056790851
9709674 26 18411987957216268590

>  <PUBCHEM_SHAPE_MULTIPOLES>  (1) 
276.91
7.48
1.6
0.7
2.42
0.07
0
-0.03
0.01
-1.22
0
0.35
-0.08
0

>  <PUBCHEM_SHAPE_SELFOVERLAP>  (1) 
605.002

>  <PUBCHEM_SHAPE_VOLUME>  (1) 
155.1

>  <PUBCHEM_COORDINATE_TYPE>  (1) 
2
5
10

$$$$
