15721
     RDKit          3D

 15 16  0  0  1  0  0  0  0  0999 V2000
   -2.3448   -1.2648    1.3504 O   0  0  0  0  0  0  0  0  0  0  0  0
   -1.1482    0.3688    0.2472 N   0  0  0  0  0  0  0  0  0  0  0  0
    1.5943    0.2297   -0.5174 N   0  0  0  0  0  0  0  0  0  0  0  0
   -0.1307    0.5980    1.2568 C   0  0  0  0  0  0  0  0  0  0  0  0
   -0.7109    1.1163   -0.9225 C   0  0  0  0  0  0  0  0  0  0  0  0
    0.0914    2.1131    1.1502 C   0  0  0  0  0  0  0  0  0  0  0  0
   -0.2932    2.4588   -0.3034 C   0  0  0  0  0  0  0  0  0  0  0  0
    1.1193   -0.1973    0.8154 C   0  0  0  0  0  0  0  0  0  0  0  0
    0.5021    0.3547   -1.5054 C   0  0  0  0  0  0  0  0  0  0  0  0
   -2.1756   -0.5414    0.3675 C   0  0  0  0  0  0  0  0  0  0  0  0
    2.6617   -0.6356   -1.0069 C   0  0  0  0  0  0  0  0  0  0  0  0
   -3.1266   -0.6075   -0.7990 C   0  0  0  0  0  0  0  0  0  0  0  0
    3.8445   -0.6265   -0.0882 C   0  0  0  0  0  0  0  0  0  0  0  0
   -4.1981   -1.6541   -0.5809 C   0  0  0  0  0  0  0  0  0  0  0  0
    4.3148   -1.7121    0.5363 C   0  0  0  0  0  0  0  0  0  0  0  0
  1 10  2  0
  2  4  1  0
  2  5  1  0
  2 10  1  0
  3  8  1  0
  3  9  1  0
  3 11  1  0
  4  6  1  0
  4  8  1  0
  5  7  1  0
  5  9  1  0
  6  7  1  0
 10 12  1  0
 11 13  1  0
 12 14  1  0
 13 15  2  0
M  END
>  <PUBCHEM_COMPOUND_CID>  (1) 
15721

>  <PUBCHEM_CONFORMER_RMSD>  (1) 
0.6

>  <PUBCHEM_CONFORMER_DIVERSEORDER>  (1) 
1
27
25
22
17
28
8
30
16
23
26
5
6
10
18
14
4
15
19
24
12
20
11
13
9
21
29
2
3
31
7

>  <PUBCHEM_MMFF94_PARTIAL_CHARGES>  (1) 
15
1 -0.57
10 0.57
11 0.41
12 0.06
13 -0.29
15 -0.3
2 -0.66
3 -0.81
30 0.15
34 0.15
35 0.15
4 0.3
5 0.3
8 0.27
9 0.27

>  <PUBCHEM_EFFECTIVE_ROTOR_COUNT>  (1) 
5.2

>  <PUBCHEM_PHARMACOPHORE_FEATURES>  (1) 
5
1 1 acceptor
1 14 hydrophobe
1 15 hydrophobe
1 3 cation
8 2 3 4 5 6 7 8 9 rings

>  <PUBCHEM_HEAVY_ATOM_COUNT>  (1) 
15

>  <PUBCHEM_ATOM_DEF_STEREO_COUNT>  (1) 
0

>  <PUBCHEM_ATOM_UDEF_STEREO_COUNT>  (1) 
2

>  <PUBCHEM_BOND_DEF_STEREO_COUNT>  (1) 
0

>  <PUBCHEM_BOND_UDEF_STEREO_COUNT>  (1) 
0

>  <PUBCHEM_ISOTOPIC_ATOM_COUNT>  (1) 
0

>  <PUBCHEM_COMPONENT_COUNT>  (1) 
1

>  <PUBCHEM_CACTVS_TAUTO_COUNT>  (1) 
1

>  <PUBCHEM_CONFORMER_ID>  (1) 
00003D6900000001

>  <PUBCHEM_MMFF94_ENERGY>  (1) 
38.567

>  <PUBCHEM_FEATURE_SELFOVERLAP>  (1) 
25.371

>  <PUBCHEM_SHAPE_FINGERPRINT>  (1) 
10610426 29 18409444799615778388
11769659 78 18408322168527304846
12251169 10 15554445218920239687
12423570 1 12311031795566633129
12491281 212 8214136326852754406
12892183 10 15123517994638560871
13024252 1 13769077951874998620
13549 16 16732698350565972223
14943859 89 10953459626242665982
15309172 13 15195277587150439358
15375462 478 14979956986540658067
16945 1 17022900155350678005
17834072 14 17749106716693493148
17844478 74 17131832019705120552
18186145 218 14634874162334963534
19010151 120 18272655653231440938
200 152 18114181913234408062
20361792 2 18342461469151988311
20653085 51 13335032624137819278
20671657 53 18040438797545260110
20711985 344 18263919951945134593
20820808 20 12396563136025037781
21061003 4 17203603753578348736
21296965 67 18411981368635527516
23402539 116 18260825952046831806
23419403 2 18127665262511545620
23526113 38 17896034511068310345
23559900 14 17822293522406344788
25 1 12540688202293448950
276578 36 9799421013648409092
3086196 2 18342174406538876536
31174 14 17703214209536211688
347723 3 16660637428007231733
633830 44 8213877980190627939
76465 3 18341041977960425902
81228 2 18125180254536949713
83771 10 18272649060435516510

>  <PUBCHEM_SHAPE_MULTIPOLES>  (1) 
292.86
6.33
2.05
1.35
2.04
0.96
0.01
-6.17
-0.3
-0.45
0.22
-0.07
0.11
-0.17

>  <PUBCHEM_SHAPE_SELFOVERLAP>  (1) 
595.58

>  <PUBCHEM_SHAPE_VOLUME>  (1) 
169.4

>  <PUBCHEM_COORDINATE_TYPE>  (1) 
2
5
10

$$$$
