15734
     RDKit          3D

 12 13  0  0  0  0  0  0  0  0999 V2000
   -1.0240    1.0220    0.0010 O   0  0  0  0  0  0  0  0  0  0  0  0
   -3.3140    0.9561   -0.0012 O   0  0  0  0  0  0  0  0  0  0  0  0
    0.1996    0.3216    0.0005 C   0  0  0  0  0  0  0  0  0  0  0  0
    0.2192   -1.0706   -0.0002 C   0  0  0  0  0  0  0  0  0  0  0  0
    1.3741    1.0713    0.0006 C   0  0  0  0  0  0  0  0  0  0  0  0
    1.4513   -1.7283   -0.0007 C   0  0  0  0  0  0  0  0  0  0  0  0
    2.5988    0.4072    0.0003 C   0  0  0  0  0  0  0  0  0  0  0  0
   -1.0436   -1.7892    0.0000 C   0  0  0  0  0  0  0  0  0  0  0  0
    2.6378   -0.9891   -0.0003 C   0  0  0  0  0  0  0  0  0  0  0  0
    1.3443    2.5622   -0.0008 C   0  0  0  0  0  0  0  0  0  0  0  0
   -2.1984   -1.1186    0.0004 C   0  0  0  0  0  0  0  0  0  0  0  0
   -2.2451    0.3554    0.0004 C   0  0  0  0  0  0  0  0  0  0  0  0
  1  3  1  0
  1 12  1  0
  2 12  2  0
  3  4  2  0
  3  5  1  0
  4  6  1  0
  4  8  1  0
  5  7  2  0
  5 10  1  0
  6  9  2  0
  7  9  1  0
  8 11  2  0
 11 12  1  0
M  END
>  <PUBCHEM_COMPOUND_CID>  (1) 
15734

>  <PUBCHEM_CONFORMER_RMSD>  (1) 
0.4

>  <PUBCHEM_CONFORMER_DIVERSEORDER>  (1) 
1

>  <PUBCHEM_MMFF94_PARTIAL_CHARGES>  (1) 
17
1 -0.23
10 0.14
11 -0.14
12 0.71
13 0.15
14 0.15
15 0.15
16 0.15
2 -0.57
20 0.15
3 0.08
4 0.03
5 -0.14
6 -0.15
7 -0.15
8 -0.18
9 -0.15

>  <PUBCHEM_EFFECTIVE_ROTOR_COUNT>  (1) 
0

>  <PUBCHEM_PHARMACOPHORE_FEATURES>  (1) 
3
1 2 acceptor
6 1 3 4 8 11 12 rings
6 3 4 5 6 7 9 rings

>  <PUBCHEM_HEAVY_ATOM_COUNT>  (1) 
12

>  <PUBCHEM_ATOM_DEF_STEREO_COUNT>  (1) 
0

>  <PUBCHEM_ATOM_UDEF_STEREO_COUNT>  (1) 
0

>  <PUBCHEM_BOND_DEF_STEREO_COUNT>  (1) 
0

>  <PUBCHEM_BOND_UDEF_STEREO_COUNT>  (1) 
0

>  <PUBCHEM_ISOTOPIC_ATOM_COUNT>  (1) 
0

>  <PUBCHEM_COMPONENT_COUNT>  (1) 
1

>  <PUBCHEM_CACTVS_TAUTO_COUNT>  (1) 
1

>  <PUBCHEM_CONFORMER_ID>  (1) 
00003D7600000001

>  <PUBCHEM_MMFF94_ENERGY>  (1) 
37.6135

>  <PUBCHEM_FEATURE_SELFOVERLAP>  (1) 
15.25

>  <PUBCHEM_SHAPE_FINGERPRINT>  (1) 
10967382 1 18338797810260940260
11471102 20 18338231570811028237
12423570 1 12329522720792188330
12524768 44 18270966713219354198
12696612 119 18409169943326082366
13380535 76 18410569612906736610
14325111 11 18410855477371405953
14648413 74 18336829791879633976
15775835 57 18335427875836119404
16945 1 18410856581178072486
17990270 104 18411419539895657626
193761 8 18194401319054739718
19973954 147 18338237196833102971
20511035 2 18272081755564650646
21040471 1 17978511167574936644
21501502 16 18337670939712678767
2334 1 18122625221415436005
23402655 69 18341600474744664781
23463225 33 18335698304668745042
23552423 10 18263925603931938478
23559900 14 18342468028553506326
241688 4 17907302048494733098
25 1 17901092032923407901
2748010 2 18193840563818875372
5084963 1 18058174006000840362
528886 8 18411413986376213578
53812653 166 18341889714689813544
63268167 104 18410578357444008944
7364860 26 18270964669162918344

>  <PUBCHEM_SHAPE_MULTIPOLES>  (1) 
235.22
4.02
2.26
0.6
1.45
0.53
0
0.44
0
-0.62
0
-0.03
-0.02
0

>  <PUBCHEM_SHAPE_SELFOVERLAP>  (1) 
511.694

>  <PUBCHEM_SHAPE_VOLUME>  (1) 
128.8

>  <PUBCHEM_COORDINATE_TYPE>  (1) 
2
5
10

$$$$
