15730
     RDKit          3D

 15 15  0  0  0  0  0  0  0  0999 V2000
   -6.0370   -1.1017   -0.3249 O   0  0  0  0  0  0  0  0  0  0  0  0
    2.7459   -0.2054   -0.0142 C   0  0  0  0  0  0  0  0  0  0  0  0
    1.5895    0.7607    0.2615 C   0  0  0  0  0  0  0  0  0  0  0  0
    4.1267    0.4257    0.1766 C   0  0  0  0  0  0  0  0  0  0  0  0
    0.1836    0.2092    0.0050 C   0  0  0  0  0  0  0  0  0  0  0  0
    5.2402   -0.5550   -0.1982 C   0  0  0  0  0  0  0  0  0  0  0  0
   -0.9305    1.1997    0.3523 C   0  0  0  0  0  0  0  0  0  0  0  0
    6.6216    0.0613    0.0225 C   0  0  0  0  0  0  0  0  0  0  0  0
   -2.2953    0.5842    0.1712 C   0  0  0  0  0  0  0  0  0  0  0  0
    7.7308   -0.9219   -0.3161 C   0  0  0  0  0  0  0  0  0  0  0  0
   -2.9309    0.6873   -1.0566 C   0  0  0  0  0  0  0  0  0  0  0  0
   -2.8915   -0.0738    1.2360 C   0  0  0  0  0  0  0  0  0  0  0  0
   -4.1937    0.1186   -1.2235 C   0  0  0  0  0  0  0  0  0  0  0  0
   -4.1542   -0.6425    1.0690 C   0  0  0  0  0  0  0  0  0  0  0  0
   -4.8053   -0.5463   -0.1607 C   0  0  0  0  0  0  0  0  0  0  0  0
  1 15  1  0
  2  3  1  0
  2  4  1  0
  3  5  1  0
  4  6  1  0
  5  7  1  0
  6  8  1  0
  7  9  1  0
  8 10  1  0
  9 11  2  0
  9 12  1  0
 11 13  1  0
 12 14  2  0
 13 15  2  0
 14 15  1  0
M  END
>  <PUBCHEM_COMPOUND_CID>  (1) 
15730

>  <PUBCHEM_CONFORMER_RMSD>  (1) 
0.8

>  <PUBCHEM_CONFORMER_DIVERSEORDER>  (1) 
1
33
45
14
12
55
54
41
31
47
18
10
36
7
42
43
46
50
44
52
39
3
19
13
38
37
11
8
16
57
9
23
27
34
6
32
5
4
26
28
48
56
17
2
24
21
25
40
15
61
35
60
59
58
49
51
20
29
30
53
22

>  <PUBCHEM_MMFF94_PARTIAL_CHARGES>  (1) 
13
1 -0.53
11 -0.15
12 -0.15
13 -0.15
14 -0.15
15 0.08
33 0.15
34 0.15
35 0.15
36 0.15
37 0.45
7 0.14
9 -0.14

>  <PUBCHEM_EFFECTIVE_ROTOR_COUNT>  (1) 
7

>  <PUBCHEM_PHARMACOPHORE_FEATURES>  (1) 
3
1 1 donor
1 10 hydrophobe
6 9 11 12 13 14 15 rings

>  <PUBCHEM_HEAVY_ATOM_COUNT>  (1) 
15

>  <PUBCHEM_ATOM_DEF_STEREO_COUNT>  (1) 
0

>  <PUBCHEM_ATOM_UDEF_STEREO_COUNT>  (1) 
0

>  <PUBCHEM_BOND_DEF_STEREO_COUNT>  (1) 
0

>  <PUBCHEM_BOND_UDEF_STEREO_COUNT>  (1) 
0

>  <PUBCHEM_ISOTOPIC_ATOM_COUNT>  (1) 
0

>  <PUBCHEM_COMPONENT_COUNT>  (1) 
1

>  <PUBCHEM_CACTVS_TAUTO_COUNT>  (1) 
2

>  <PUBCHEM_CONFORMER_ID>  (1) 
00003D7200000001

>  <PUBCHEM_MMFF94_ENERGY>  (1) 
17.2654

>  <PUBCHEM_FEATURE_SELFOVERLAP>  (1) 
15.223

>  <PUBCHEM_SHAPE_FINGERPRINT>  (1) 
10968037 39 16298386868454126819
11089746 13 13912327893604373038
11315181 36 17313109656664076388
12091667 2 18202565055837112520
12714333 28 13479133497546561312
13288520 33 18342175574981042485
13668630 136 18411420613785291742
13964095 4 17821442444297545557
1420 363 18343303665416047670
14251718 22 17676488345992486320
14251764 18 13614234902014064780
14350574 20 18411417332055555712
14729087 3 7925914768596306486
14849402 71 15840973599355694426
15048467 5 10809342243923824854
15183329 4 15285635482965280720
15348495 7 12678881460156613790
15501527 16 10664100047676066240
15716309 27 17418374692794988982
17093844 174 17274819125698581457
17834072 8 15719391741664024518
17834076 25 12396299262024623120
17844677 252 18343024389283985208
17870717 6 17530969077162373003
19489759 90 16877661253543120036
200 152 18412823586284967217
20281389 69 9943808876782646674
20645477 56 10519985950173900016
21130983 4 10519981574477853570
21150785 3 17603307068446052014
22224240 67 14261628430553615844
2297311 6 17675925400197187773
23035841 295 17846779619927762198
23198884 109 14779264211143149209
23402539 116 18202284684319012848
23466295 7 18046910665259412059
23559900 14 17313668273011593092
2767999 5 12540695929583114726
300161 21 13118000011595007752
351380 3 17989485217164716894
42788 4 16805042917776806132
57583515 80 15213020449380029512

>  <PUBCHEM_SHAPE_MULTIPOLES>  (1) 
302.82
18.63
1.01
1
28.98
0
0.01
-4.22
-6.01
-1.02
0.01
-0.48
0.01
0.61

>  <PUBCHEM_SHAPE_SELFOVERLAP>  (1) 
593.344

>  <PUBCHEM_SHAPE_VOLUME>  (1) 
182.8

>  <PUBCHEM_COORDINATE_TYPE>  (1) 
2
5
10

$$$$
