15731
     RDKit          3D

 14 15  0  0  0  0  0  0  0  0999 V2000
   -0.8728    1.6639   -1.4679 O   0  0  0  0  0  0  0  0  0  0  0  0
    0.8728   -1.6640   -1.4679 O   0  0  0  0  0  0  0  0  0  0  0  0
   -0.7240   -0.0307    0.2300 C   0  0  0  0  0  0  0  0  0  0  0  0
    0.7239    0.0307    0.2301 C   0  0  0  0  0  0  0  0  0  0  0  0
   -1.4745    0.7848   -0.6168 C   0  0  0  0  0  0  0  0  0  0  0  0
    1.4744   -0.7848   -0.6168 C   0  0  0  0  0  0  0  0  0  0  0  0
   -1.3662   -0.9202    1.0915 C   0  0  0  0  0  0  0  0  0  0  0  0
    1.3662    0.9202    1.0915 C   0  0  0  0  0  0  0  0  0  0  0  0
   -2.8673    0.7109   -0.6022 C   0  0  0  0  0  0  0  0  0  0  0  0
    2.8672   -0.7109   -0.6022 C   0  0  0  0  0  0  0  0  0  0  0  0
   -2.7591   -0.9940    1.1061 C   0  0  0  0  0  0  0  0  0  0  0  0
    2.7591    0.9939    1.1060 C   0  0  0  0  0  0  0  0  0  0  0  0
   -3.5096   -0.1784    0.2593 C   0  0  0  0  0  0  0  0  0  0  0  0
    3.5096    0.1785    0.2593 C   0  0  0  0  0  0  0  0  0  0  0  0
  1  5  1  0
  2  6  1  0
  3  4  1  0
  3  5  2  0
  3  7  1  0
  4  6  2  0
  4  8  1  0
  5  9  1  0
  6 10  1  0
  7 11  2  0
  8 12  2  0
  9 13  2  0
 10 14  2  0
 11 13  1  0
 12 14  1  0
M  END
>  <PUBCHEM_COMPOUND_CID>  (1) 
15731

>  <PUBCHEM_CONFORMER_RMSD>  (1) 
0.4

>  <PUBCHEM_CONFORMER_DIVERSEORDER>  (1) 
1
3
6
2
5
4

>  <PUBCHEM_MMFF94_PARTIAL_CHARGES>  (1) 
22
1 -0.53
10 -0.15
11 -0.15
12 -0.15
13 -0.15
14 -0.15
15 0.15
16 0.15
17 0.15
18 0.15
19 0.15
2 -0.53
20 0.15
21 0.15
22 0.15
23 0.45
24 0.45
5 0.08
6 0.08
7 -0.15
8 -0.15
9 -0.15

>  <PUBCHEM_EFFECTIVE_ROTOR_COUNT>  (1) 
1

>  <PUBCHEM_PHARMACOPHORE_FEATURES>  (1) 
4
1 1 donor
1 2 donor
6 3 5 7 9 11 13 rings
6 4 6 8 10 12 14 rings

>  <PUBCHEM_HEAVY_ATOM_COUNT>  (1) 
14

>  <PUBCHEM_ATOM_DEF_STEREO_COUNT>  (1) 
0

>  <PUBCHEM_ATOM_UDEF_STEREO_COUNT>  (1) 
0

>  <PUBCHEM_BOND_DEF_STEREO_COUNT>  (1) 
0

>  <PUBCHEM_BOND_UDEF_STEREO_COUNT>  (1) 
0

>  <PUBCHEM_ISOTOPIC_ATOM_COUNT>  (1) 
0

>  <PUBCHEM_COMPONENT_COUNT>  (1) 
1

>  <PUBCHEM_CACTVS_TAUTO_COUNT>  (1) 
5

>  <PUBCHEM_CONFORMER_ID>  (1) 
00003D7300000001

>  <PUBCHEM_MMFF94_ENERGY>  (1) 
43.9083

>  <PUBCHEM_FEATURE_SELFOVERLAP>  (1) 
20.297

>  <PUBCHEM_SHAPE_FINGERPRINT>  (1) 
10219947 1 17988926682231941152
107287 299 18272657856818630694
10857977 72 18186803608065775089
11031198 65 17989208165761870816
11471102 20 17846498114791256960
12035759 4 13654773401418466126
12932764 1 18411697690467434994
13538477 17 16298109804245266627
13581323 91 17385720296423651555
13839132 238 17970054544145971788
14115302 16 15792018938844785987
14993402 34 14836404731132944041
15219456 202 18412825772133001624
15279307 12 15769773550386614991
15309172 13 17989487454573763138
15775835 57 15698004049822527802
16945 1 18410856589704560770
17844478 74 18411985753813175441
18175812 5 18410856593999527983
19049666 15 18194682562050261073
200 152 17203321209149454287
20201158 50 18342460313579153163
20279233 1 18410572890040461267
204376 136 17774149249520582456
20645464 45 18408602565519822515
20645477 70 17774719749557141815
21639500 275 17489011760448540152
22802520 49 18191871110849705951
232386 152 17095809922566230163
23402539 116 18113606898485626927
23557571 272 18187654591194774869
23559900 14 18040432145226707810
474 4 16055166182012202872
528886 8 17489581281775634266
63268167 104 16988839484292885984
77492 1 15769775753652076688
81228 2 17968669194282285477
8272917 22 16987734406756837351

>  <PUBCHEM_SHAPE_MULTIPOLES>  (1) 
276.37
5.56
1.34
1.32
0
0
-0.08
0
0.74
0
-0.29
0
0
1.18

>  <PUBCHEM_SHAPE_SELFOVERLAP>  (1) 
605.813

>  <PUBCHEM_SHAPE_VOLUME>  (1) 
149.6

>  <PUBCHEM_COORDINATE_TYPE>  (1) 
2
5
10

$$$$
