15746
     RDKit          3D

  7  6  0  0  0  0  0  0  0  0999 V2000
    3.5359   -0.3273   -0.0126 F   0  0  0  0  0  0  0  0  0  0  0  0
   -3.5364   -0.3268    0.0126 F   0  0  0  0  0  0  0  0  0  0  0  0
    0.0010    0.4442    0.0000 N   0  0  0  0  0  0  0  0  0  0  0  0
    1.1998   -0.3798   -0.0042 C   0  0  0  0  0  0  0  0  0  0  0  0
   -1.2003   -0.3806    0.0043 C   0  0  0  0  0  0  0  0  0  0  0  0
    2.4449    0.4852    0.0203 C   0  0  0  0  0  0  0  0  0  0  0  0
   -2.4450    0.4851   -0.0203 C   0  0  0  0  0  0  0  0  0  0  0  0
  1  6  1  0
  2  7  1  0
  3  4  1  0
  3  5  1  0
  4  6  1  0
  5  7  1  0
M  END
>  <PUBCHEM_COMPOUND_CID>  (1) 
15746

>  <PUBCHEM_CONFORMER_RMSD>  (1) 
0.6

>  <PUBCHEM_CONFORMER_DIVERSEORDER>  (1) 
1
17
22
2
7
19
4
21
3
8
10
20
13
9
16
18
12
14
6
11
15
5

>  <PUBCHEM_MMFF94_PARTIAL_CHARGES>  (1) 
8
1 -0.34
12 0.36
2 -0.34
3 -0.9
4 0.27
5 0.27
6 0.34
7 0.34

>  <PUBCHEM_EFFECTIVE_ROTOR_COUNT>  (1) 
4

>  <PUBCHEM_PHARMACOPHORE_FEATURES>  (1) 
2
1 3 cation
1 3 donor

>  <PUBCHEM_HEAVY_ATOM_COUNT>  (1) 
7

>  <PUBCHEM_ATOM_DEF_STEREO_COUNT>  (1) 
0

>  <PUBCHEM_ATOM_UDEF_STEREO_COUNT>  (1) 
0

>  <PUBCHEM_BOND_DEF_STEREO_COUNT>  (1) 
0

>  <PUBCHEM_BOND_UDEF_STEREO_COUNT>  (1) 
0

>  <PUBCHEM_ISOTOPIC_ATOM_COUNT>  (1) 
0

>  <PUBCHEM_COMPONENT_COUNT>  (1) 
1

>  <PUBCHEM_CACTVS_TAUTO_COUNT>  (1) 
1

>  <PUBCHEM_CONFORMER_ID>  (1) 
00003D8200000001

>  <PUBCHEM_MMFF94_ENERGY>  (1) 
-3.7625

>  <PUBCHEM_FEATURE_SELFOVERLAP>  (1) 
10.148

>  <PUBCHEM_SHAPE_FINGERPRINT>  (1) 
11062470 55 18410575088973954913
14325111 11 18410573985151464131
14390081 3 18413386540264388945
5460574 1 9295289443318443841

>  <PUBCHEM_SHAPE_MULTIPOLES>  (1) 
124.53
5.69
0.74
0.57
0
0.03
0
-0.2
0
0
0
0
0.01
0.01

>  <PUBCHEM_SHAPE_SELFOVERLAP>  (1) 
216.592

>  <PUBCHEM_SHAPE_VOLUME>  (1) 
82.6

>  <PUBCHEM_COORDINATE_TYPE>  (1) 
2
5
10

$$$$
