1574
     RDKit          3D

 14 15  0  0  0  0  0  0  0  0999 V2000
    3.3036    2.1427    0.1426 O   0  0  0  0  0  0  0  0  0  0  0  0
   -0.0918   -2.1508   -0.1627 N   0  0  0  0  0  0  0  0  0  0  0  0
   -3.7039    2.4564   -0.3001 N   0  0  0  0  0  0  0  0  0  0  0  0
   -1.0798   -0.2210    0.3134 C   0  0  0  0  0  0  0  0  0  0  0  0
    0.3154    0.0176    0.1678 C   0  0  0  0  0  0  0  0  0  0  0  0
   -1.2991   -1.5631    0.1043 C   0  0  0  0  0  0  0  0  0  0  0  0
   -2.1103    0.7894    0.6320 C   0  0  0  0  0  0  0  0  0  0  0  0
    0.9121   -1.2093   -0.1307 C   0  0  0  0  0  0  0  0  0  0  0  0
   -2.7095    1.4406   -0.6288 C   0  0  0  0  0  0  0  0  0  0  0  0
    1.1306    1.1632    0.2615 C   0  0  0  0  0  0  0  0  0  0  0  0
    2.2887   -1.3485   -0.3408 C   0  0  0  0  0  0  0  0  0  0  0  0
   -2.5423   -2.3579    0.1304 C   0  0  0  0  0  0  0  0  0  0  0  0
    2.5091    1.0391    0.0537 C   0  0  0  0  0  0  0  0  0  0  0  0
    3.0771   -0.1984   -0.2426 C   0  0  0  0  0  0  0  0  0  0  0  0
  1 13  1  0
  2  6  1  0
  2  8  1  0
  3  9  1  0
  4  5  1  0
  4  6  2  0
  4  7  1  0
  5  8  2  0
  5 10  1  0
  6 12  1  0
  7  9  1  0
  8 11  1  0
 10 13  2  0
 11 14  2  0
 13 14  1  0
M  END
>  <PUBCHEM_COMPOUND_CID>  (1) 
1574

>  <PUBCHEM_CONFORMER_RMSD>  (1) 
0.6

>  <PUBCHEM_CONFORMER_DIVERSEORDER>  (1) 
1
2

>  <PUBCHEM_MMFF94_PARTIAL_CHARGES>  (1) 
20
1 -0.53
10 -0.15
11 -0.15
12 0.18
13 0.08
14 -0.15
17 0.27
2 0.03
20 0.15
21 0.15
25 0.15
26 0.36
27 0.36
28 0.45
3 -0.99
4 -0.18
6 -0.33
7 0.18
8 -0.15
9 0.27

>  <PUBCHEM_EFFECTIVE_ROTOR_COUNT>  (1) 
2

>  <PUBCHEM_PHARMACOPHORE_FEATURES>  (1) 
7
1 1 donor
1 2 cation
1 2 donor
1 3 cation
1 3 donor
5 2 4 5 6 8 rings
6 5 8 10 11 13 14 rings

>  <PUBCHEM_HEAVY_ATOM_COUNT>  (1) 
14

>  <PUBCHEM_ATOM_DEF_STEREO_COUNT>  (1) 
0

>  <PUBCHEM_ATOM_UDEF_STEREO_COUNT>  (1) 
0

>  <PUBCHEM_BOND_DEF_STEREO_COUNT>  (1) 
0

>  <PUBCHEM_BOND_UDEF_STEREO_COUNT>  (1) 
0

>  <PUBCHEM_ISOTOPIC_ATOM_COUNT>  (1) 
0

>  <PUBCHEM_COMPONENT_COUNT>  (1) 
1

>  <PUBCHEM_CACTVS_TAUTO_COUNT>  (1) 
13

>  <PUBCHEM_CONFORMER_ID>  (1) 
0000062600000001

>  <PUBCHEM_MMFF94_ENERGY>  (1) 
15.7249

>  <PUBCHEM_FEATURE_SELFOVERLAP>  (1) 
35.614

>  <PUBCHEM_SHAPE_FINGERPRINT>  (1) 
1 1 18120090576910339463
10608611 8 18411701019035395360
10967382 1 18122908624890465386
11206711 2 18269279126042337815
12730499 353 17973446491238832581
13140716 1 18411703162382254098
13294875 104 18118103789252762074
13380535 21 18340219551820654682
13380535 76 18340200787303964143
13380536 305 18122906430373173685
14614273 12 18268996564491486147
14648413 74 18411141312009096938
14911166 2 18196943162621389638
15279308 100 18337959995501871820
16945 1 18197789799322541714
17844478 74 18191598659715744595
18186145 218 18128261090644884785
193761 8 18411420613484643762
20510252 161 18198064874607902209
21501502 16 18409727387121069082
21524375 3 18116433635675131529
21639500 275 18121486965283568829
2334 1 18340771545534192954
23402655 69 18127120884476558957
23559900 14 18272377422099933078
25 1 18193838133125998157
2748010 2 18342185483138375982
3060560 45 17979346470099969021
74978 22 18411420570687672298
81228 2 18116715308288929331

>  <PUBCHEM_SHAPE_MULTIPOLES>  (1) 
272.28
5.32
2.7
0.7
0.14
0.03
0
-2.95
-0.47
1.59
-0.16
0.14
-0.06
0.55

>  <PUBCHEM_SHAPE_SELFOVERLAP>  (1) 
584.275

>  <PUBCHEM_SHAPE_VOLUME>  (1) 
153.3

>  <PUBCHEM_COORDINATE_TYPE>  (1) 
2
5
10

$$$$
