15751
     RDKit          3D

 24 26  0  0  1  0  0  0  0  0999 V2000
   -0.0103    2.0896    0.0930 O   0  0  0  0  0  0  0  0  0  0  0  0
    2.2493    0.8142   -1.0688 C   0  0  0  0  0  0  0  0  0  0  0  0
   -2.2538    0.7018    1.1535 C   0  0  0  0  0  0  0  0  0  0  0  0
    1.0539    0.0361   -0.5053 C   0  0  0  0  0  0  0  0  0  0  0  0
   -1.0806    0.0027    0.5490 C   0  0  0  0  0  0  0  0  0  0  0  0
   -0.0018    0.7268    0.0411 C   0  0  0  0  0  0  0  0  0  0  0  0
    1.0937   -1.3371   -0.5738 C   0  0  0  0  0  0  0  0  0  0  0  0
   -1.0721   -1.3912    0.4954 C   0  0  0  0  0  0  0  0  0  0  0  0
    0.0151   -2.0610   -0.0661 C   0  0  0  0  0  0  0  0  0  0  0  0
    3.5276    0.5096   -0.3631 C   0  0  0  0  0  0  0  0  0  0  0  0
   -3.5554    0.4608    0.3801 C   0  0  0  0  0  0  0  0  0  0  0  0
    2.3133    0.6964   -2.6128 C   0  0  0  0  0  0  0  0  0  0  0  0
   -2.4080    0.4435    2.6722 C   0  0  0  0  0  0  0  0  0  0  0  0
    0.0246   -3.5513   -0.1221 C   0  0  0  0  0  0  0  0  0  0  0  0
    3.8213    1.1349    0.8487 C   0  0  0  0  0  0  0  0  0  0  0  0
    4.4290   -0.4008   -0.9146 C   0  0  0  0  0  0  0  0  0  0  0  0
   -3.7854    1.1927   -0.7605 C   0  0  0  0  0  0  0  0  0  0  0  0
   -4.4387   -0.4774    0.8586 C   0  0  0  0  0  0  0  0  0  0  0  0
    5.0165    0.8500    1.5090 C   0  0  0  0  0  0  0  0  0  0  0  0
    5.6243   -0.6858   -0.2542 C   0  0  0  0  0  0  0  0  0  0  0  0
   -4.9696    0.9734   -1.4645 C   0  0  0  0  0  0  0  0  0  0  0  0
   -5.6227   -0.6966    0.1546 C   0  0  0  0  0  0  0  0  0  0  0  0
    5.9179   -0.0603    0.9575 C   0  0  0  0  0  0  0  0  0  0  0  0
   -5.8881    0.0289   -1.0069 C   0  0  0  0  0  0  0  0  0  0  0  0
  1  6  1  0
  2  4  1  0
  2 10  1  0
  2 12  1  0
  3  5  1  0
  3 11  1  0
  3 13  1  0
  4  6  2  0
  4  7  1  0
  5  6  1  0
  5  8  2  0
  7  9  2  0
  8  9  1  0
  9 14  1  0
 10 15  2  0
 10 16  1  0
 11 17  2  0
 11 18  1  0
 15 19  1  0
 16 20  2  0
 17 21  1  0
 18 22  2  0
 19 23  2  0
 20 23  1  0
 21 24  2  0
 22 24  1  0
M  END
>  <PUBCHEM_COMPOUND_CID>  (1) 
15751

>  <PUBCHEM_CONFORMER_RMSD>  (1) 
0.8

>  <PUBCHEM_CONFORMER_DIVERSEORDER>  (1) 
1
7
26
23
15
24
6
20
18
12
25
16
8
17
9
21
28
5
14
11
10
19
4
13
27
2
22
3

>  <PUBCHEM_MMFF94_PARTIAL_CHARGES>  (1) 
35
1 -0.53
10 -0.14
11 -0.14
14 0.14
15 -0.15
16 -0.15
17 -0.15
18 -0.15
19 -0.15
2 0.29
20 -0.15
21 -0.15
22 -0.15
23 -0.15
24 -0.15
27 0.15
28 0.15
3 0.29
38 0.15
39 0.15
4 -0.14
40 0.15
41 0.15
42 0.45
43 0.15
44 0.15
45 0.15
46 0.15
47 0.15
48 0.15
5 -0.14
6 0.08
7 -0.15
8 -0.15
9 -0.14

>  <PUBCHEM_EFFECTIVE_ROTOR_COUNT>  (1) 
4

>  <PUBCHEM_PHARMACOPHORE_FEATURES>  (1) 
6
1 1 donor
1 12 hydrophobe
1 13 hydrophobe
6 10 15 16 19 20 23 rings
6 11 17 18 21 22 24 rings
6 4 5 6 7 8 9 rings

>  <PUBCHEM_HEAVY_ATOM_COUNT>  (1) 
24

>  <PUBCHEM_ATOM_DEF_STEREO_COUNT>  (1) 
0

>  <PUBCHEM_ATOM_UDEF_STEREO_COUNT>  (1) 
2

>  <PUBCHEM_BOND_DEF_STEREO_COUNT>  (1) 
0

>  <PUBCHEM_BOND_UDEF_STEREO_COUNT>  (1) 
0

>  <PUBCHEM_ISOTOPIC_ATOM_COUNT>  (1) 
0

>  <PUBCHEM_COMPONENT_COUNT>  (1) 
1

>  <PUBCHEM_CACTVS_TAUTO_COUNT>  (1) 
2

>  <PUBCHEM_CONFORMER_ID>  (1) 
00003D8700000001

>  <PUBCHEM_MMFF94_ENERGY>  (1) 
81.2596

>  <PUBCHEM_FEATURE_SELFOVERLAP>  (1) 
30.446

>  <PUBCHEM_SHAPE_FINGERPRINT>  (1) 
10366900 7 17703804621716342320
10930396 42 18124283174220490280
11405975 8 15792023319173545657
11578080 2 17914893124250336513
11646440 116 18272097114568259113
11796584 16 16081377349491290448
121448 382 18201441397945623843
12160290 23 17908169872196521751
12166972 35 18335425689777413172
12403259 415 18411139138434119033
12403260 363 18411141337468086481
12592029 89 18113056025716712451
12633257 1 15864069866618625525
13052359 8 18337953514460227075
13533116 47 17988363676945559614
13583140 156 16879937354218767804
13911987 19 18264787586984094429
14251732 17 17168141209231880175
14787075 74 17275384330351577801
15183329 4 15791727490416001844
15527383 91 10737290142906657519
15537594 2 11887952146939736197
15788980 27 17603589642380599705
15849732 13 17967249810917631438
17349148 13 18411991259934719136
17980427 23 17676498206773805221
19377110 9 15626229000203145326
19489759 90 17676204663202430849
200 152 17847064376639256105
20197701 30 18411412916834820462
20567600 75 17095522851231535898
21033648 29 18338781365317240448
21054139 6 18272078440361978367
21859007 373 17968918839119534180
22182313 1 18268174039732316271
22393880 68 18198629826369582925
23352939 185 13758355604474845923
23402539 116 17489591147378933601
23559900 14 17095814213397054954
23569917 315 18412269436488583262
23622692 88 18114181956410713646
2838139 119 17458335339369114229
3004659 81 14707204401825451296
345986 75 14708024636983424460
351380 180 17632578245278084928
4017518 198 18411140217458120918
4072396 5 18040990722481227394
4325135 7 15554447405069175153
4340502 62 18343303669252482103
465052 167 17240210940921350202
5385378 56 18263366893491300163
59755656 215 18336828598290565774
6328613 192 13984670243394069686
9981440 41 17894352147136236811

>  <PUBCHEM_SHAPE_MULTIPOLES>  (1) 
488.04
13.35
1.97
1.76
0.21
1.87
-0.09
-2
-0.03
-0.04
0.15
0
-0.6
0.63

>  <PUBCHEM_SHAPE_SELFOVERLAP>  (1) 
1059.646

>  <PUBCHEM_SHAPE_VOLUME>  (1) 
267.4

>  <PUBCHEM_COORDINATE_TYPE>  (1) 
2
5
10

$$$$
