15765
     RDKit          3D

  8  8  0  0  0  0  0  0  0  0999 V2000
   -0.0263    1.0450   -0.0001 N   0  0  0  0  0  0  0  0  0  0  0  0
    2.3559    1.0999    0.0001 N   0  0  0  0  0  0  0  0  0  0  0  0
   -1.1534    0.2985    0.0000 C   0  0  0  0  0  0  0  0  0  0  0  0
   -1.1661   -1.0870   -0.0001 C   0  0  0  0  0  0  0  0  0  0  0  0
    1.1430    0.3667   -0.0002 C   0  0  0  0  0  0  0  0  0  0  0  0
    0.0568   -1.7490    0.0000 C   0  0  0  0  0  0  0  0  0  0  0  0
    1.2380   -1.0156    0.0001 C   0  0  0  0  0  0  0  0  0  0  0  0
   -2.4478    1.0415    0.0001 C   0  0  0  0  0  0  0  0  0  0  0  0
  1  3  2  0
  1  5  1  0
  2  5  1  0
  3  4  1  0
  3  8  1  0
  4  6  2  0
  5  7  2  0
  6  7  1  0
M  END
>  <PUBCHEM_COMPOUND_CID>  (1) 
15765

>  <PUBCHEM_CONFORMER_RMSD>  (1) 
0.4

>  <PUBCHEM_CONFORMER_DIVERSEORDER>  (1) 
1

>  <PUBCHEM_MMFF94_PARTIAL_CHARGES>  (1) 
13
1 -0.62
10 0.15
11 0.15
15 0.4
16 0.4
2 -0.9
3 0.17
4 -0.15
5 0.41
6 -0.15
7 -0.15
8 0.14
9 0.15

>  <PUBCHEM_EFFECTIVE_ROTOR_COUNT>  (1) 
0

>  <PUBCHEM_PHARMACOPHORE_FEATURES>  (1) 
4
1 1 acceptor
1 2 cation
1 2 donor
6 1 3 4 5 6 7 rings

>  <PUBCHEM_HEAVY_ATOM_COUNT>  (1) 
8

>  <PUBCHEM_ATOM_DEF_STEREO_COUNT>  (1) 
0

>  <PUBCHEM_ATOM_UDEF_STEREO_COUNT>  (1) 
0

>  <PUBCHEM_BOND_DEF_STEREO_COUNT>  (1) 
0

>  <PUBCHEM_BOND_UDEF_STEREO_COUNT>  (1) 
0

>  <PUBCHEM_ISOTOPIC_ATOM_COUNT>  (1) 
0

>  <PUBCHEM_COMPONENT_COUNT>  (1) 
1

>  <PUBCHEM_CACTVS_TAUTO_COUNT>  (1) 
2

>  <PUBCHEM_CONFORMER_ID>  (1) 
00003D9500000001

>  <PUBCHEM_MMFF94_ENERGY>  (1) 
24.525

>  <PUBCHEM_FEATURE_SELFOVERLAP>  (1) 
20.297

>  <PUBCHEM_SHAPE_FINGERPRINT>  (1) 
18185500 45 17402612948433875659
20096714 4 18411137991735548459
21040471 1 18410856576882994752
23552423 10 18261113032198645142
241688 4 16898775986958932395
29004967 10 17975421209098772715

>  <PUBCHEM_SHAPE_MULTIPOLES>  (1) 
154.67
2.69
1.69
0.6
0.53
0.42
0
-1.21
0
-0.25
0
0.02
0.03
0

>  <PUBCHEM_SHAPE_SELFOVERLAP>  (1) 
316.904

>  <PUBCHEM_SHAPE_VOLUME>  (1) 
88.7

>  <PUBCHEM_COORDINATE_TYPE>  (1) 
2
5
10

$$$$
