15764
     RDKit          3D

 19 21  0  0  1  0  0  0  0  0999 V2000
   -0.4963   -4.4120    0.7049 Cl  0  0  0  0  0  0  0  0  0  0  0  0
   -2.9083    3.2460   -0.5568 O   0  0  0  0  0  0  0  0  0  0  0  0
   -0.0652    2.1005    0.6130 N   0  0  0  0  0  0  0  0  0  0  0  0
   -2.4605    1.0188   -0.6709 N   0  0  0  0  0  0  0  0  0  0  0  0
    0.3115    0.7029    0.8554 C   0  0  0  0  0  0  0  0  0  0  0  0
   -0.6667   -0.3872    0.4047 C   0  0  0  0  0  0  0  0  0  0  0  0
    1.7062    0.4909    0.2599 C   0  0  0  0  0  0  0  0  0  0  0  0
   -1.8487   -0.2102   -0.3383 C   0  0  0  0  0  0  0  0  0  0  0  0
   -1.4017    2.4039    1.0728 C   0  0  0  0  0  0  0  0  0  0  0  0
   -0.2924   -1.7150    0.7357 C   0  0  0  0  0  0  0  0  0  0  0  0
   -2.2971    2.2656   -0.1217 C   0  0  0  0  0  0  0  0  0  0  0  0
   -2.5406   -1.3444   -0.8147 C   0  0  0  0  0  0  0  0  0  0  0  0
    1.8321    0.0786   -1.0602 C   0  0  0  0  0  0  0  0  0  0  0  0
    2.8283    0.7132    1.0473 C   0  0  0  0  0  0  0  0  0  0  0  0
   -1.0099   -2.8239    0.2902 C   0  0  0  0  0  0  0  0  0  0  0  0
   -2.1280   -2.6379   -0.5039 C   0  0  0  0  0  0  0  0  0  0  0  0
    3.1026   -0.1150   -1.6025 C   0  0  0  0  0  0  0  0  0  0  0  0
    4.0988    0.5198    0.5050 C   0  0  0  0  0  0  0  0  0  0  0  0
    4.2359    0.1056   -0.8200 C   0  0  0  0  0  0  0  0  0  0  0  0
  1 15  1  0
  2 11  2  0
  3  5  1  0
  3  9  1  0
  4  8  1  0
  4 11  1  0
  5  6  1  0
  5  7  1  0
  6  8  2  0
  6 10  1  0
  7 13  2  0
  7 14  1  0
  8 12  1  0
  9 11  1  0
 10 15  2  0
 12 16  2  0
 13 17  1  0
 14 18  2  0
 15 16  1  0
 17 19  2  0
 18 19  1  0
M  END
>  <PUBCHEM_COMPOUND_CID>  (1) 
15764

>  <PUBCHEM_CONFORMER_RMSD>  (1) 
0.6

>  <PUBCHEM_CONFORMER_DIVERSEORDER>  (1) 
1
2

>  <PUBCHEM_MMFF94_PARTIAL_CHARGES>  (1) 
29
1 -0.18
10 -0.15
11 0.57
12 -0.15
13 -0.15
14 -0.15
15 0.18
16 -0.15
17 -0.15
18 -0.15
19 -0.15
2 -0.57
21 0.36
24 0.15
25 0.37
26 0.15
27 0.15
28 0.15
29 0.15
3 -0.9
30 0.15
31 0.15
32 0.15
4 -0.55
5 0.56
6 -0.14
7 -0.14
8 0.12
9 0.33

>  <PUBCHEM_EFFECTIVE_ROTOR_COUNT>  (1) 
1.8

>  <PUBCHEM_PHARMACOPHORE_FEATURES>  (1) 
7
1 2 acceptor
1 3 cation
1 3 donor
1 4 donor
6 6 8 10 12 15 16 rings
6 7 13 14 17 18 19 rings
7 3 4 5 6 8 9 11 rings

>  <PUBCHEM_HEAVY_ATOM_COUNT>  (1) 
19

>  <PUBCHEM_ATOM_DEF_STEREO_COUNT>  (1) 
0

>  <PUBCHEM_ATOM_UDEF_STEREO_COUNT>  (1) 
1

>  <PUBCHEM_BOND_DEF_STEREO_COUNT>  (1) 
0

>  <PUBCHEM_BOND_UDEF_STEREO_COUNT>  (1) 
0

>  <PUBCHEM_ISOTOPIC_ATOM_COUNT>  (1) 
0

>  <PUBCHEM_COMPONENT_COUNT>  (1) 
1

>  <PUBCHEM_CACTVS_TAUTO_COUNT>  (1) 
2

>  <PUBCHEM_CONFORMER_ID>  (1) 
00003D9400000001

>  <PUBCHEM_MMFF94_ENERGY>  (1) 
66.7716

>  <PUBCHEM_FEATURE_SELFOVERLAP>  (1) 
35.53

>  <PUBCHEM_SHAPE_FINGERPRINT>  (1) 
10764073 3 17046893590797549651
11578080 2 12678028135421307475
11582403 64 16405837690071703048
11640471 11 17749111084612202500
116883 192 18198340852174322597
12054548 360 17763190541290155028
12173636 292 18336541638239373277
12363563 72 17980482583223451934
12500047 106 18410575046678351396
12532896 13 18341053999552535009
12553582 1 18049732007347195482
12730499 353 17978519633383635129
12788726 201 18337672026376542290
12841375 5 16754681187103535710
13140716 1 18051134992610252563
13681431 1 17475803520463482105
14022347 108 18191302895435646307
14115302 16 17970621011698895926
14181834 199 17544747933379747773
14790565 3 18410862075169887529
15415430 2 18340485676674180059
16752209 62 18336536175072510587
167882 2 17686898315504086621
16945 1 18336262452411490323
17134986 127 18048035177237099285
19049666 15 18202291273204877390
19591789 44 18268435646479907435
20510252 161 18413106190558313649
20600515 1 17612837767847077745
20645476 183 18187934936595171012
20645477 70 16248836620924426967
20871999 31 18341334460959317932
21285901 2 18058736926111199687
21452121 199 17615402997157057326
21524375 3 18115870689711047289
21665056 4 18337401439326673182
23184049 29 17976533137445502322
23402539 116 18341036519056538135
23419403 2 13179590310285630910
23557571 272 18198907092457950928
23559900 14 18201719493378664652
2748010 2 18122927346689825497
3084891 72 18338225068109820291
576247 118 17834982014564432783
7364860 26 17546722651815376153
81228 2 18269848655911900529
8809292 202 18343585170088361720
9709674 26 18272936037956410550

>  <PUBCHEM_SHAPE_MULTIPOLES>  (1) 
377.05
5.69
4.13
1.2
6.59
1.52
0.14
-0.14
1.49
-5.21
-0.84
0.56
0.02
0.5

>  <PUBCHEM_SHAPE_SELFOVERLAP>  (1) 
813.233

>  <PUBCHEM_SHAPE_VOLUME>  (1) 
205.7

>  <PUBCHEM_COORDINATE_TYPE>  (1) 
2
5
10

$$$$
