1577
     RDKit          3D

 16 18  0  0  0  0  0  0  0  0999 V2000
   -1.7765   -2.7497   -0.0008 Br  0  0  0  0  0  0  0  0  0  0  0  0
   -4.2641   -0.9797    0.0009 O   0  0  0  0  0  0  0  0  0  0  0  0
    0.4102    1.8928    0.0014 N   0  0  0  0  0  0  0  0  0  0  0  0
    3.4325   -0.1483   -0.0007 N   0  0  0  0  0  0  0  0  0  0  0  0
    0.7064   -0.3178    0.0009 C   0  0  0  0  0  0  0  0  0  0  0  0
   -0.6977   -0.0435    0.0009 C   0  0  0  0  0  0  0  0  0  0  0  0
    1.3685    0.9090    0.0008 C   0  0  0  0  0  0  0  0  0  0  0  0
   -0.8509    1.3436    0.0002 C   0  0  0  0  0  0  0  0  0  0  0  0
    2.7498    0.9990    0.0003 C   0  0  0  0  0  0  0  0  0  0  0  0
    1.4779   -1.4933    0.0007 C   0  0  0  0  0  0  0  0  0  0  0  0
   -1.8551   -0.8500    0.0006 C   0  0  0  0  0  0  0  0  0  0  0  0
   -2.1043    1.9666   -0.0013 C   0  0  0  0  0  0  0  0  0  0  0  0
    2.8613   -1.3567   -0.0005 C   0  0  0  0  0  0  0  0  0  0  0  0
   -3.1152   -0.2414   -0.0007 C   0  0  0  0  0  0  0  0  0  0  0  0
   -3.2357    1.1463   -0.0015 C   0  0  0  0  0  0  0  0  0  0  0  0
    4.8929   -0.0768   -0.0012 C   0  0  0  0  0  0  0  0  0  0  0  0
  1 11  1  0
  2 14  1  0
  3  7  1  0
  3  8  1  0
  4  9  2  0
  4 13  1  0
  4 16  1  0
  5  6  1  0
  5  7  2  0
  5 10  1  0
  6  8  2  0
  6 11  1  0
  7  9  1  0
  8 12  1  0
 10 13  2  0
 11 14  2  0
 12 15  2  0
 14 15  1  0
M  CHG  1   4   1
M  END
>  <PUBCHEM_COMPOUND_CID>  (1) 
1577

>  <PUBCHEM_CONFORMER_RMSD>  (1) 
0.4

>  <PUBCHEM_CONFORMER_DIVERSEORDER>  (1) 
1

>  <PUBCHEM_MMFF94_PARTIAL_CHARGES>  (1) 
21
1 -0.11
10 -0.15
11 0.11
12 -0.15
13 0.21
14 0.08
15 -0.15
16 0.49
17 0.27
18 0.15
19 0.15
2 -0.53
20 0.15
21 0.15
22 0.15
26 0.45
3 0.03
4 -0.21
7 -0.15
8 -0.15
9 0.21

>  <PUBCHEM_EFFECTIVE_ROTOR_COUNT>  (1) 
0

>  <PUBCHEM_PHARMACOPHORE_FEATURES>  (1) 
7
1 1 hydrophobe
1 2 donor
1 3 cation
1 3 donor
5 3 5 6 7 8 rings
6 4 5 7 9 10 13 rings
6 6 8 11 12 14 15 rings

>  <PUBCHEM_HEAVY_ATOM_COUNT>  (1) 
16

>  <PUBCHEM_ATOM_DEF_STEREO_COUNT>  (1) 
0

>  <PUBCHEM_ATOM_UDEF_STEREO_COUNT>  (1) 
0

>  <PUBCHEM_BOND_DEF_STEREO_COUNT>  (1) 
0

>  <PUBCHEM_BOND_UDEF_STEREO_COUNT>  (1) 
0

>  <PUBCHEM_ISOTOPIC_ATOM_COUNT>  (1) 
0

>  <PUBCHEM_COMPONENT_COUNT>  (1) 
1

>  <PUBCHEM_CACTVS_TAUTO_COUNT>  (1) 
10

>  <PUBCHEM_CONFORMER_ID>  (1) 
0000062900000001

>  <PUBCHEM_MMFF94_ENERGY>  (1) 
40.7156

>  <PUBCHEM_FEATURE_SELFOVERLAP>  (1) 
35.708

>  <PUBCHEM_SHAPE_FINGERPRINT>  (1) 
10608611 8 18411695469990649792
10616163 171 18411703213859038494
10967382 1 18410856594010129415
11132069 177 18411132546065079488
11806522 49 18409165540826335478
12032990 46 18411986849061295972
12251169 10 18412265051220160050
12500047 106 18410567349474730924
13140716 1 18195251250317542379
13221675 6 18410855460144174478
13288520 33 18341334409941579382
13380535 76 18412825750642665718
14115302 16 18114188582975714703
14144814 61 18410855425794797339
15196674 1 18338516343895302182
15309172 13 18339652131238827673
15442244 35 18194119608086917018
15536298 74 18270680857876940534
16945 1 18410856607111478021
17804303 29 18341897402375447928
19107657 46 18411136935273905014
193761 8 17978511158716041669
200 152 18059846264882429389
20510252 161 18200877270875641201
20871998 184 18273215283518066567
21029758 11 18343294877728753057
21267235 1 18410302422975454190
21501502 16 18337954484895294096
221490 88 18119535581030816890
2334 1 17690280834240996583
23402539 116 18342449357655521623
23463225 33 18408886204991303524
23557571 272 18201729435790280708
23559900 14 18341325695416519280
2748010 2 18265899051447364797
2871803 45 18335415772781958895
3312278 4 18411983537736521384
335352 9 17978510832229884382
34934 24 18409158896696700770
43471831 8 18262798441600623347
474 4 17024040439804823412
5104073 3 18339079289833293050
54173680 148 18265335195145574331
57005193 9 18336254687147763238
69090 78 18411978053300758519
7364860 26 18268992166593337200
8809292 202 18262238940231393747
9709674 26 18341618100742145910

>  <PUBCHEM_SHAPE_MULTIPOLES>  (1) 
319.38
7.03
2.34
0.61
3.77
0.77
0
0.67
0
-1.4
0
-0.01
0.03
0

>  <PUBCHEM_SHAPE_SELFOVERLAP>  (1) 
704.648

>  <PUBCHEM_SHAPE_VOLUME>  (1) 
178.5

>  <PUBCHEM_COORDINATE_TYPE>  (1) 
2
5
10

$$$$
