15777
     RDKit          3D

  7  6  0  0  1  0  0  0  0  0999 V2000
   -0.7426    0.6357   -0.3720 P   0  0  0  0  0  0  0  0  0  0  0  0
    0.5732   -0.1678    0.1468 O   0  0  0  0  0  0  0  0  0  0  0  0
   -1.9385   -0.3212    0.1770 O   0  0  0  0  0  0  0  0  0  0  0  0
   -0.8129    2.0167    0.2265 O   0  0  0  0  0  0  0  0  0  0  0  0
    1.8378    0.2130   -0.3674 C   0  0  0  0  0  0  0  0  0  0  0  0
    2.9057   -0.6636    0.2510 C   0  0  0  0  0  0  0  0  0  0  0  0
   -1.8227   -1.7128   -0.0619 C   0  0  0  0  0  0  0  0  0  0  0  0
  1  2  1  0
  1  3  1  0
  1  4  2  0
  2  5  1  0
  3  7  1  0
  5  6  1  0
M  END
>  <PUBCHEM_COMPOUND_CID>  (1) 
15777

>  <PUBCHEM_CONFORMER_RMSD>  (1) 
0.4

>  <PUBCHEM_CONFORMER_DIVERSEORDER>  (1) 
1
18
7
10
19
14
12
17
2
15
3
9
16
4
5
8
6
13
11

>  <PUBCHEM_MMFF94_PARTIAL_CHARGES>  (1) 
7
1 1.28
10 -0.04
2 -0.55
3 -0.55
4 -0.7
5 0.28
7 0.28

>  <PUBCHEM_EFFECTIVE_ROTOR_COUNT>  (1) 
3

>  <PUBCHEM_PHARMACOPHORE_FEATURES>  (1) 
1
1 4 acceptor

>  <PUBCHEM_HEAVY_ATOM_COUNT>  (1) 
7

>  <PUBCHEM_ATOM_DEF_STEREO_COUNT>  (1) 
0

>  <PUBCHEM_ATOM_UDEF_STEREO_COUNT>  (1) 
0

>  <PUBCHEM_BOND_DEF_STEREO_COUNT>  (1) 
0

>  <PUBCHEM_BOND_UDEF_STEREO_COUNT>  (1) 
0

>  <PUBCHEM_ISOTOPIC_ATOM_COUNT>  (1) 
0

>  <PUBCHEM_COMPONENT_COUNT>  (1) 
1

>  <PUBCHEM_CACTVS_TAUTO_COUNT>  (1) 
2

>  <PUBCHEM_CONFORMER_ID>  (1) 
00003DA100000001

>  <PUBCHEM_MMFF94_ENERGY>  (1) 
2.5266

>  <PUBCHEM_FEATURE_SELFOVERLAP>  (1) 
5.074

>  <PUBCHEM_SHAPE_FINGERPRINT>  (1) 
139733 1 9511197234566340415
16714656 1 18410858745941764527
21040471 1 17979078180372494588
23552423 10 18114184163559718926
23552449 1 18412823560446786432
23552449 11 17911239734730950999
29004967 10 18268712890444079642
5460574 1 10231754492122796694

>  <PUBCHEM_SHAPE_MULTIPOLES>  (1) 
130.3
3.61
1.68
0.66
2.25
0.31
-0.05
-1.56
0.19
-1.06
0.11
0.04
0.02
-0.14

>  <PUBCHEM_SHAPE_SELFOVERLAP>  (1) 
216.442

>  <PUBCHEM_SHAPE_VOLUME>  (1) 
89.9

>  <PUBCHEM_COORDINATE_TYPE>  (1) 
2
5
10

$$$$
