15788
     RDKit          3D

 19 20  0  0  0  0  0  0  0  0999 V2000
    1.5624    0.8471   -2.7191 Cl  0  0  0  0  0  0  0  0  0  0  0  0
    1.5620    0.8476    2.7190 Cl  0  0  0  0  0  0  0  0  0  0  0  0
    5.3130   -1.8965    0.0004 Cl  0  0  0  0  0  0  0  0  0  0  0  0
    0.5702    1.5729   -0.0002 O   0  0  0  0  0  0  0  0  0  0  0  0
   -5.4612   -0.1632    0.0011 O   0  0  0  0  0  0  0  0  0  0  0  0
   -4.4934   -2.1335   -0.0003 O   0  0  0  0  0  0  0  0  0  0  0  0
   -4.4315   -0.8803    0.0003 N   0  0  0  0  0  0  0  0  0  0  0  0
   -0.6518    0.9734   -0.0002 C   0  0  0  0  0  0  0  0  0  0  0  0
    1.6881    0.7557    0.0000 C   0  0  0  0  0  0  0  0  0  0  0  0
   -1.8099    1.7511   -0.0002 C   0  0  0  0  0  0  0  0  0  0  0  0
   -0.7464   -0.4184   -0.0003 C   0  0  0  0  0  0  0  0  0  0  0  0
    2.2355    0.3552   -1.2079 C   0  0  0  0  0  0  0  0  0  0  0  0
    2.2352    0.3553    1.2081 C   0  0  0  0  0  0  0  0  0  0  0  0
   -3.1570   -0.2543   -0.0005 C   0  0  0  0  0  0  0  0  0  0  0  0
   -3.0624    1.1373   -0.0003 C   0  0  0  0  0  0  0  0  0  0  0  0
   -1.9991   -1.0322   -0.0004 C   0  0  0  0  0  0  0  0  0  0  0  0
    3.3613   -0.4685   -1.2077 C   0  0  0  0  0  0  0  0  0  0  0  0
    3.3610   -0.4684    1.2081 C   0  0  0  0  0  0  0  0  0  0  0  0
    3.9240   -0.8802    0.0002 C   0  0  0  0  0  0  0  0  0  0  0  0
  1 12  1  0
  2 13  1  0
  3 19  1  0
  4  8  1  0
  4  9  1  0
  5  7  1  0
  6  7  2  0
  7 14  1  0
  8 10  2  0
  8 11  1  0
  9 12  2  0
  9 13  1  0
 10 15  1  0
 11 16  2  0
 12 17  1  0
 13 18  2  0
 14 15  2  0
 14 16  1  0
 17 19  2  0
 18 19  1  0
M  CHG  2   5  -1   7   1
M  END
>  <PUBCHEM_COMPOUND_CID>  (1) 
15788

>  <PUBCHEM_CONFORMER_RMSD>  (1) 
0.6

>  <PUBCHEM_CONFORMER_DIVERSEORDER>  (1) 
1
2

>  <PUBCHEM_MMFF94_PARTIAL_CHARGES>  (1) 
25
1 -0.18
10 -0.15
11 -0.15
12 0.18
13 0.18
14 0.13
15 -0.15
16 -0.15
17 -0.15
18 -0.15
19 0.18
2 -0.18
20 0.15
21 0.15
22 0.15
23 0.15
24 0.15
25 0.15
3 -0.18
4 -0.17
5 -0.52
6 -0.52
7 0.91
8 0.08
9 0.08

>  <PUBCHEM_EFFECTIVE_ROTOR_COUNT>  (1) 
3

>  <PUBCHEM_PHARMACOPHORE_FEATURES>  (1) 
6
1 4 acceptor
1 5 acceptor
1 5 anion
1 6 acceptor
6 8 10 11 14 15 16 rings
6 9 12 13 17 18 19 rings

>  <PUBCHEM_HEAVY_ATOM_COUNT>  (1) 
19

>  <PUBCHEM_ATOM_DEF_STEREO_COUNT>  (1) 
0

>  <PUBCHEM_ATOM_UDEF_STEREO_COUNT>  (1) 
0

>  <PUBCHEM_BOND_DEF_STEREO_COUNT>  (1) 
0

>  <PUBCHEM_BOND_UDEF_STEREO_COUNT>  (1) 
0

>  <PUBCHEM_ISOTOPIC_ATOM_COUNT>  (1) 
0

>  <PUBCHEM_COMPONENT_COUNT>  (1) 
1

>  <PUBCHEM_CACTVS_TAUTO_COUNT>  (1) 
1

>  <PUBCHEM_CONFORMER_ID>  (1) 
00003DAC00000001

>  <PUBCHEM_MMFF94_ENERGY>  (1) 
62.7185

>  <PUBCHEM_FEATURE_SELFOVERLAP>  (1) 
30.528

>  <PUBCHEM_SHAPE_FINGERPRINT>  (1) 
11471102 22 16271641196790511544
11543360 7 15430314802131669923
11578080 2 17460283682094813940
11796584 16 18196934366718531038
12236239 1 17821732702039303652
12251169 10 16272204202109002916
12403814 3 13398632728091582403
12616999 72 14562522981697212048
12633257 1 16845283969073786598
13140716 1 15697133271410897494
13288520 33 18411139091447564926
13583140 156 17774143609600866268
14115302 16 18040439931353497535
14252887 29 16128383636194784470
14289901 80 15338843109791453263
14294032 229 17899408689802971141
14341114 328 11959723846442494062
14576447 43 17530683187070136370
15210252 30 12324238352124984846
16752209 62 18187071846232887009
17804303 29 18272087175628749016
1813 80 17676771955647363606
18186145 218 16081368596237287621
18915474 69 18040721415120641935
19862831 5 17167581600483401283
200 152 16515681126289303165
20600515 1 18057613057919663808
20645477 70 14490463154112896616
21637258 2 18262509304802962130
2255824 54 16732984266728647372
22646028 28 18261110772602592859
23184049 59 15554159299253608316
23402655 69 13984661438631822106
23557571 272 18200878370503313205
23559900 14 18411694417681373353
23590187 302 15791728611597372254
23598291 2 17603595088283359932
238 59 15213018271246184872
26918003 58 16845572011129248275
3004659 81 17967812764849632063
3060560 45 15502375655859839034
31174 14 17346592023450015176
312423 11 18041295325915219573
3286 77 17704070711434325345
465052 167 18336557117892578635
474 4 16952267631989409124
5104073 3 18273498970139158601
7364860 26 18267867370603930832
7495541 125 18060418040830022712
76465 3 18343297102400408959
77492 1 17676211221491001608
7808743 9 9079105653129965374
81228 2 16412132304257539736
9981440 41 17031089537594402388

>  <PUBCHEM_SHAPE_MULTIPOLES>  (1) 
374.03
9.65
1.81
1.68
5.12
0
-0.34
0
-6.24
-2.05
0.78
0.56
0
0

>  <PUBCHEM_SHAPE_SELFOVERLAP>  (1) 
784.364

>  <PUBCHEM_SHAPE_VOLUME>  (1) 
214.8

>  <PUBCHEM_COORDINATE_TYPE>  (1) 
2
5
10

$$$$
