1578
     RDKit          3D

 16 18  0  0  0  0  0  0  0  0999 V2000
   -4.9213    1.0804   -0.0043 Br  0  0  0  0  0  0  0  0  0  0  0  0
   -3.8243   -1.8282   -0.0002 O   0  0  0  0  0  0  0  0  0  0  0  0
    0.4013    1.6646    0.0023 N   0  0  0  0  0  0  0  0  0  0  0  0
    3.6540    0.0152   -0.0013 N   0  0  0  0  0  0  0  0  0  0  0  0
    0.9701   -0.4920    0.0009 C   0  0  0  0  0  0  0  0  0  0  0  0
   -0.4572   -0.3945    0.0014 C   0  0  0  0  0  0  0  0  0  0  0  0
    1.4745    0.8076    0.0011 C   0  0  0  0  0  0  0  0  0  0  0  0
   -0.7817    0.9628    0.0012 C   0  0  0  0  0  0  0  0  0  0  0  0
    2.8339    1.0687    0.0003 C   0  0  0  0  0  0  0  0  0  0  0  0
    1.8818   -1.5624    0.0002 C   0  0  0  0  0  0  0  0  0  0  0  0
   -1.5053   -1.3386    0.0012 C   0  0  0  0  0  0  0  0  0  0  0  0
   -2.1028    1.4251    0.0003 C   0  0  0  0  0  0  0  0  0  0  0  0
    3.2375   -1.2548   -0.0013 C   0  0  0  0  0  0  0  0  0  0  0  0
   -2.8313   -0.8915    0.0004 C   0  0  0  0  0  0  0  0  0  0  0  0
   -3.1235    0.4704    0.0001 C   0  0  0  0  0  0  0  0  0  0  0  0
    5.0943    0.2672   -0.0023 C   0  0  0  0  0  0  0  0  0  0  0  0
  1 15  1  0
  2 14  1  0
  3  7  1  0
  3  8  1  0
  4  9  2  0
  4 13  1  0
  4 16  1  0
  5  6  1  0
  5  7  2  0
  5 10  1  0
  6  8  2  0
  6 11  1  0
  7  9  1  0
  8 12  1  0
 10 13  2  0
 11 14  2  0
 12 15  2  0
 14 15  1  0
M  CHG  1   4   1
M  END
>  <PUBCHEM_COMPOUND_CID>  (1) 
1578

>  <PUBCHEM_CONFORMER_RMSD>  (1) 
0.4

>  <PUBCHEM_CONFORMER_DIVERSEORDER>  (1) 
1

>  <PUBCHEM_MMFF94_PARTIAL_CHARGES>  (1) 
21
1 -0.11
10 -0.15
11 -0.15
12 -0.15
13 0.21
14 0.08
15 0.11
16 0.49
17 0.27
18 0.15
19 0.15
2 -0.53
20 0.15
21 0.15
22 0.15
26 0.45
3 0.03
4 -0.21
7 -0.15
8 -0.15
9 0.21

>  <PUBCHEM_EFFECTIVE_ROTOR_COUNT>  (1) 
0

>  <PUBCHEM_PHARMACOPHORE_FEATURES>  (1) 
7
1 1 hydrophobe
1 2 donor
1 3 cation
1 3 donor
5 3 5 6 7 8 rings
6 4 5 7 9 10 13 rings
6 6 8 11 12 14 15 rings

>  <PUBCHEM_HEAVY_ATOM_COUNT>  (1) 
16

>  <PUBCHEM_ATOM_DEF_STEREO_COUNT>  (1) 
0

>  <PUBCHEM_ATOM_UDEF_STEREO_COUNT>  (1) 
0

>  <PUBCHEM_BOND_DEF_STEREO_COUNT>  (1) 
0

>  <PUBCHEM_BOND_UDEF_STEREO_COUNT>  (1) 
0

>  <PUBCHEM_ISOTOPIC_ATOM_COUNT>  (1) 
0

>  <PUBCHEM_COMPONENT_COUNT>  (1) 
1

>  <PUBCHEM_CACTVS_TAUTO_COUNT>  (1) 
10

>  <PUBCHEM_CONFORMER_ID>  (1) 
0000062A00000001

>  <PUBCHEM_MMFF94_ENERGY>  (1) 
38.9636

>  <PUBCHEM_FEATURE_SELFOVERLAP>  (1) 
35.708

>  <PUBCHEM_SHAPE_FINGERPRINT>  (1) 
10062212 137 18410003355955097979
10608611 8 18411132545664542464
10616163 171 18412265068516697567
10967382 1 18338516326747185443
11132069 177 18410853252530873984
11401426 45 18411415111552117448
11471102 20 18411134701764154620
11806522 49 18337107972674483206
12032990 46 18412549820711132350
12251169 10 18411985741239464385
13214271 11 18342172280245261071
13221675 6 18411136930820493646
13288520 33 18413111641462649334
13380535 76 18411139116959146159
13675066 3 18113908147739701113
13760787 19 18333733511327615470
14144814 61 18411418397233695578
15196674 1 18410575089116509634
15242433 33 18409168783547801407
15375358 24 18413107238541045575
15442244 35 18194965128159836970
15536298 74 18342175552946971858
16945 1 18266741461826838181
17804303 29 18341897419444495361
18186145 218 17821723931547319103
18522853 276 18413670197026444225
200 152 17917705812464009285
20510252 161 18128537063784599801
20645477 56 18260544498809039581
20645477 70 18270961224245972863
21267235 1 18410583915142616015
21421861 104 17679012708383157794
21501502 16 18409731772145307365
221490 88 18263932209554625643
22485316 2 18409165497871420202
23402539 116 18411411825912607830
23402655 69 18341045229508904565
23463225 33 18409167697158380918
23559900 14 18341047420290456326
2748010 2 18411135814128990383
296302 2 18333452044988110844
3312278 4 18412546504774755937
335352 9 18338516339579236319
34934 24 18409724032725172187
3545911 37 18411420592014802693
4214541 1 18410575072047455713
5104073 3 18410572902856655762
69090 78 18341608188252506023
7364860 26 18196653114816538064
77779 3 18410857663446397647
8809292 202 18188494691145879771
9709674 26 18410580595217558622

>  <PUBCHEM_SHAPE_MULTIPOLES>  (1) 
319.38
8.88
1.76
0.61
0.39
0.3
0
-0.73
0.01
-0.65
0
-0.05
-0.01
0

>  <PUBCHEM_SHAPE_SELFOVERLAP>  (1) 
703.801

>  <PUBCHEM_SHAPE_VOLUME>  (1) 
179.3

>  <PUBCHEM_COORDINATE_TYPE>  (1) 
2
5
10

$$$$
