15791
     RDKit          3D

 18 17  0  0  0  0  0  0  0  0999 V2000
   10.7409    0.3824    0.0357 N   0  0  0  0  0  0  0  0  0  0  0  0
   -0.6183   -0.4445   -0.0246 C   0  0  0  0  0  0  0  0  0  0  0  0
    0.6530    0.4065   -0.0179 C   0  0  0  0  0  0  0  0  0  0  0  0
   -1.9069    0.3829    0.0051 C   0  0  0  0  0  0  0  0  0  0  0  0
    1.9077   -0.4713   -0.0264 C   0  0  0  0  0  0  0  0  0  0  0  0
   -3.2120   -0.4150    0.0858 C   0  0  0  0  0  0  0  0  0  0  0  0
    3.1787    0.3806   -0.0518 C   0  0  0  0  0  0  0  0  0  0  0  0
   -4.4654    0.4618    0.0551 C   0  0  0  0  0  0  0  0  0  0  0  0
    4.4667   -0.4454    0.0111 C   0  0  0  0  0  0  0  0  0  0  0  0
   -5.7369   -0.3899    0.0468 C   0  0  0  0  0  0  0  0  0  0  0  0
    5.7379    0.4050   -0.0390 C   0  0  0  0  0  0  0  0  0  0  0  0
   -6.9920    0.4844    0.0491 C   0  0  0  0  0  0  0  0  0  0  0  0
    6.9927   -0.4717   -0.0050 C   0  0  0  0  0  0  0  0  0  0  0  0
   -8.2625   -0.3663    0.0076 C   0  0  0  0  0  0  0  0  0  0  0  0
    8.2652    0.3809   -0.0128 C   0  0  0  0  0  0  0  0  0  0  0  0
   -9.5160    0.5076   -0.0243 C   0  0  0  0  0  0  0  0  0  0  0  0
    9.5471   -0.4536    0.0049 C   0  0  0  0  0  0  0  0  0  0  0  0
  -10.7799   -0.3341   -0.0993 C   0  0  0  0  0  0  0  0  0  0  0  0
  1 17  1  0
  2  3  1  0
  2  4  1  0
  3  5  1  0
  4  6  1  0
  5  7  1  0
  6  8  1  0
  7  9  1  0
  8 10  1  0
  9 11  1  0
 10 12  1  0
 11 13  1  0
 12 14  1  0
 13 15  1  0
 14 16  1  0
 15 17  1  0
 16 18  1  0
M  END
>  <PUBCHEM_COMPOUND_CID>  (1) 
15791

>  <PUBCHEM_CONFORMER_RMSD>  (1) 
1.4

>  <PUBCHEM_CONFORMER_DIVERSEORDER>  (1) 
1
42
68
6
41
38
9
20
52
21
73
57
22
70
49
23
2
12
37
64
58
50
19
59
29
53
13
48
5
56
46
60
40
43
69
71
35
47
66
36
4
15
45
10
25
26
62
11
61
63
27
14
72
51
3
39
54
30
32
24
34
67
31
16
28
74
18
55
65
8
17
44
33
7

>  <PUBCHEM_MMFF94_PARTIAL_CHARGES>  (1) 
4
1 -0.99
17 0.27
54 0.36
55 0.36

>  <PUBCHEM_EFFECTIVE_ROTOR_COUNT>  (1) 
15

>  <PUBCHEM_PHARMACOPHORE_FEATURES>  (1) 
3
1 1 cation
1 1 donor
1 18 hydrophobe

>  <PUBCHEM_HEAVY_ATOM_COUNT>  (1) 
18

>  <PUBCHEM_ATOM_DEF_STEREO_COUNT>  (1) 
0

>  <PUBCHEM_ATOM_UDEF_STEREO_COUNT>  (1) 
0

>  <PUBCHEM_BOND_DEF_STEREO_COUNT>  (1) 
0

>  <PUBCHEM_BOND_UDEF_STEREO_COUNT>  (1) 
0

>  <PUBCHEM_ISOTOPIC_ATOM_COUNT>  (1) 
0

>  <PUBCHEM_COMPONENT_COUNT>  (1) 
1

>  <PUBCHEM_CACTVS_TAUTO_COUNT>  (1) 
1

>  <PUBCHEM_CONFORMER_ID>  (1) 
00003DAF00000001

>  <PUBCHEM_MMFF94_ENERGY>  (1) 
-7.8385

>  <PUBCHEM_FEATURE_SELFOVERLAP>  (1) 
15.223

>  <PUBCHEM_SHAPE_FINGERPRINT>  (1) 
14123256 10 18410856555344822277
14251764 46 18410573985151451139
14251920 1 18410855455833226995
15061470 23 18407758127705386149
15510794 2 18411142428421493175
21362267 2 18041830831091755524
232437 2 18412262835080527238
23521765 1 18341895190345685355
23581129 1 18409448089539575815
33684 2 18410855460128161794
67123 10 18410856563934756871
8209 1 18410856559645064323

>  <PUBCHEM_SHAPE_MULTIPOLES>  (1) 
365.45
43.05
0.79
0.61
1.31
0
0
-0.26
0.35
-0.05
0
-0.06
0
-0.02

>  <PUBCHEM_SHAPE_SELFOVERLAP>  (1) 
651.759

>  <PUBCHEM_SHAPE_VOLUME>  (1) 
236.1

>  <PUBCHEM_COORDINATE_TYPE>  (1) 
2
5
10

$$$$
