15798
     RDKit          3D

 21 21  0  0  0  0  0  0  0  0999 V2000
    2.5998    0.6236   -0.7495 O   0  0  0  0  0  0  0  0  0  0  0  0
   -0.7694   -2.5691   -0.6534 O   0  0  0  0  0  0  0  0  0  0  0  0
   -1.8520    1.9442   -0.7423 O   0  0  0  0  0  0  0  0  0  0  0  0
    1.8861   -1.8715    1.6385 O   0  0  0  0  0  0  0  0  0  0  0  0
    0.7110    2.5236    1.6463 O   0  0  0  0  0  0  0  0  0  0  0  0
   -2.5886   -0.6322    1.6441 O   0  0  0  0  0  0  0  0  0  0  0  0
    0.9319   -0.9961   -0.7462 N   0  0  0  0  0  0  0  0  0  0  0  0
    0.3848    1.3096   -0.7586 N   0  0  0  0  0  0  0  0  0  0  0  0
   -1.3382   -0.3169   -0.7435 N   0  0  0  0  0  0  0  0  0  0  0  0
    3.2532   -3.4476    0.6725 N   0  0  0  0  0  0  0  0  0  0  0  0
    1.4158    4.5019    0.7106 N   0  0  0  0  0  0  0  0  0  0  0  0
   -4.6308   -1.0587    0.6779 N   0  0  0  0  0  0  0  0  0  0  0  0
    1.3998    0.3310   -0.7539 C   0  0  0  0  0  0  0  0  0  0  0  0
   -0.4227   -1.3852   -0.7126 C   0  0  0  0  0  0  0  0  0  0  0  0
   -0.9986    1.0516   -0.7501 C   0  0  0  0  0  0  0  0  0  0  0  0
    1.9331   -2.0589   -0.7753 C   0  0  0  0  0  0  0  0  0  0  0  0
    0.8280    2.7014   -0.7658 C   0  0  0  0  0  0  0  0  0  0  0  0
   -2.7591   -0.6539   -0.7714 C   0  0  0  0  0  0  0  0  0  0  0  0
    2.3192   -2.4346    0.6369 C   0  0  0  0  0  0  0  0  0  0  0  0
    0.9830    3.1944    0.6545 C   0  0  0  0  0  0  0  0  0  0  0  0
   -3.2863   -0.7569    0.6412 C   0  0  0  0  0  0  0  0  0  0  0  0
  1 13  2  0
  2 14  2  0
  3 15  2  0
  4 19  2  0
  5 20  2  0
  6 21  2  0
  7 13  1  0
  7 14  1  0
  7 16  1  0
  8 13  1  0
  8 15  1  0
  8 17  1  0
  9 14  1  0
  9 15  1  0
  9 18  1  0
 10 19  1  0
 11 20  1  0
 12 21  1  0
 16 19  1  0
 17 20  1  0
 18 21  1  0
M  END
>  <PUBCHEM_COMPOUND_CID>  (1) 
15798

>  <PUBCHEM_CONFORMER_RMSD>  (1) 
0.8

>  <PUBCHEM_CONFORMER_DIVERSEORDER>  (1) 
1
30
15
7
22
4
24
18
14
27
32
23
29
11
31
5
28
8
26
34
13
9
17
19
20
21
12
16
6
33
25
2
10
3

>  <PUBCHEM_MMFF94_PARTIAL_CHARGES>  (1) 
27
1 -0.57
10 -0.8
11 -0.8
12 -0.8
13 0.69
14 0.69
15 0.69
16 0.36
17 0.36
18 0.36
19 0.57
2 -0.57
20 0.57
21 0.57
28 0.37
29 0.37
3 -0.57
30 0.37
31 0.37
32 0.37
33 0.37
4 -0.57
5 -0.57
6 -0.57
7 -0.42
8 -0.42
9 -0.42

>  <PUBCHEM_EFFECTIVE_ROTOR_COUNT>  (1) 
6

>  <PUBCHEM_PHARMACOPHORE_FEATURES>  (1) 
10
1 1 acceptor
1 10 donor
1 11 donor
1 12 donor
1 2 acceptor
1 3 acceptor
1 4 acceptor
1 5 acceptor
1 6 acceptor
6 7 8 9 13 14 15 rings

>  <PUBCHEM_HEAVY_ATOM_COUNT>  (1) 
21

>  <PUBCHEM_ATOM_DEF_STEREO_COUNT>  (1) 
0

>  <PUBCHEM_ATOM_UDEF_STEREO_COUNT>  (1) 
0

>  <PUBCHEM_BOND_DEF_STEREO_COUNT>  (1) 
0

>  <PUBCHEM_BOND_UDEF_STEREO_COUNT>  (1) 
0

>  <PUBCHEM_ISOTOPIC_ATOM_COUNT>  (1) 
0

>  <PUBCHEM_COMPONENT_COUNT>  (1) 
1

>  <PUBCHEM_CACTVS_TAUTO_COUNT>  (1) 
4

>  <PUBCHEM_CONFORMER_ID>  (1) 
00003DB600000001

>  <PUBCHEM_MMFF94_ENERGY>  (1) 
40.6167

>  <PUBCHEM_FEATURE_SELFOVERLAP>  (1) 
50.751

>  <PUBCHEM_SHAPE_FINGERPRINT>  (1) 
12788726 201 17904495003672056457
13140716 1 18050568748363939902
13275264 69 18120100480878155315
14178342 30 17762059139778190727
14817 1 8135132082606255640
15475509 84 18195550116171184105
16945 1 18338236080088774574
20510252 161 17333913275871198820
20600515 1 17974573489796921309
21041028 32 18267029353474295471
21524375 3 17839184360948398949
21731228 192 17762616595941212160
2334 1 18338517443380517766
23419403 2 17177371617747051884
2748010 2 18266734697232235668
31174 14 18409452518136427583
35225 105 17042042940484229978
352729 6 17834114147676068887
5845 1 11389406129674303052
58807428 26 17979060918925357872
81228 2 17617940231696186910

>  <PUBCHEM_SHAPE_MULTIPOLES>  (1) 
367.07
4.8
4.72
1.34
4.67
3.52
-0.43
-3.61
-1.41
-4.63
-1.39
-0.01
0.03
0.02

>  <PUBCHEM_SHAPE_SELFOVERLAP>  (1) 
760.543

>  <PUBCHEM_SHAPE_VOLUME>  (1) 
206.2

>  <PUBCHEM_COORDINATE_TYPE>  (1) 
2
5
10

$$$$
