15799
     RDKit          3D

 19 21  0  0  0  0  0  0  0  0999 V2000
    1.8427   -1.3896   -0.9838 O   0  0  0  0  0  0  0  0  0  0  0  0
   -1.6034   -1.4310    1.9707 O   0  0  0  0  0  0  0  0  0  0  0  0
   -0.1603   -2.4878   -1.0362 O   0  0  0  0  0  0  0  0  0  0  0  0
    2.1319    0.5089    0.5069 C   0  0  0  0  0  0  0  0  0  0  0  0
    0.0071   -0.6537    0.4545 C   0  0  0  0  0  0  0  0  0  0  0  0
    2.6412   -0.3563   -0.4560 C   0  0  0  0  0  0  0  0  0  0  0  0
    0.7612    0.3296    0.9597 C   0  0  0  0  0  0  0  0  0  0  0  0
   -1.3622   -0.7532    0.9739 C   0  0  0  0  0  0  0  0  0  0  0  0
   -2.4495   -0.0047    0.2936 C   0  0  0  0  0  0  0  0  0  0  0  0
    2.9550    1.5212    1.0067 C   0  0  0  0  0  0  0  0  0  0  0  0
    0.5279   -1.5861   -0.5704 C   0  0  0  0  0  0  0  0  0  0  0  0
    3.9455   -0.2384   -0.9323 C   0  0  0  0  0  0  0  0  0  0  0  0
    4.2657    1.6518    0.5385 C   0  0  0  0  0  0  0  0  0  0  0  0
    4.7594    0.7739   -0.4289 C   0  0  0  0  0  0  0  0  0  0  0  0
   -2.1444    0.7459   -0.8231 C   0  0  0  0  0  0  0  0  0  0  0  0
   -3.7308   -0.0838    0.7993 C   0  0  0  0  0  0  0  0  0  0  0  0
   -3.1656    1.4488   -1.4623 C   0  0  0  0  0  0  0  0  0  0  0  0
   -4.7520    0.6191    0.1599 C   0  0  0  0  0  0  0  0  0  0  0  0
   -4.4693    1.3853   -0.9709 C   0  0  0  0  0  0  0  0  0  0  0  0
  1  6  1  0
  1 11  1  0
  2  8  2  0
  3 11  2  0
  4  6  2  0
  4  7  1  0
  4 10  1  0
  5  7  2  0
  5  8  1  0
  5 11  1  0
  6 12  1  0
  8  9  1  0
  9 15  2  0
  9 16  1  0
 10 13  2  0
 12 14  2  0
 13 14  1  0
 15 17  1  0
 16 18  2  0
 17 19  2  0
 18 19  1  0
M  END
>  <PUBCHEM_COMPOUND_CID>  (1) 
15799

>  <PUBCHEM_CONFORMER_RMSD>  (1) 
0.6

>  <PUBCHEM_CONFORMER_DIVERSEORDER>  (1) 
1
2

>  <PUBCHEM_MMFF94_PARTIAL_CHARGES>  (1) 
29
1 -0.23
10 -0.15
11 0.71
12 -0.15
13 -0.15
14 -0.15
15 -0.15
16 -0.15
17 -0.15
18 -0.15
19 -0.15
2 -0.57
20 0.15
21 0.15
22 0.15
23 0.15
24 0.15
25 0.15
26 0.15
27 0.15
28 0.15
29 0.15
3 -0.57
4 0.03
5 0.03
6 0.08
7 -0.18
8 0.47
9 0.09

>  <PUBCHEM_EFFECTIVE_ROTOR_COUNT>  (1) 
2

>  <PUBCHEM_PHARMACOPHORE_FEATURES>  (1) 
6
1 2 acceptor
1 3 acceptor
1 5 anion
6 1 4 5 6 7 11 rings
6 4 6 10 12 13 14 rings
6 9 15 16 17 18 19 rings

>  <PUBCHEM_HEAVY_ATOM_COUNT>  (1) 
19

>  <PUBCHEM_ATOM_DEF_STEREO_COUNT>  (1) 
0

>  <PUBCHEM_ATOM_UDEF_STEREO_COUNT>  (1) 
0

>  <PUBCHEM_BOND_DEF_STEREO_COUNT>  (1) 
0

>  <PUBCHEM_BOND_UDEF_STEREO_COUNT>  (1) 
0

>  <PUBCHEM_ISOTOPIC_ATOM_COUNT>  (1) 
0

>  <PUBCHEM_COMPONENT_COUNT>  (1) 
1

>  <PUBCHEM_CACTVS_TAUTO_COUNT>  (1) 
1

>  <PUBCHEM_CONFORMER_ID>  (1) 
00003DB700000001

>  <PUBCHEM_MMFF94_ENERGY>  (1) 
68.9747

>  <PUBCHEM_FEATURE_SELFOVERLAP>  (1) 
30.473

>  <PUBCHEM_SHAPE_FINGERPRINT>  (1) 
10498660 4 17895749587444390733
10646746 165 17822010882659982180
11471102 20 18060424607935225368
11725454 13 18335132098634312714
12119455 92 18411695487233419710
12251169 10 13406797726581567960
12403259 415 18410019839891555632
12596602 18 15068632607589363565
12633257 1 16732980955166574124
12670546 177 17632290194352990437
12670546 56 17385994092257286946
12730499 353 18412550877616115003
12788726 201 15361117084491690282
12892183 10 14345789414272717189
12969540 114 18342729732572114700
13583140 156 18261113027914156546
14341114 328 16153712020037904996
14739800 52 16951981754829599220
15209294 21 16370441172367848864
15375462 478 14057000503551940655
17349148 13 17275385370403783658
17980427 23 15719111345325732679
1813 80 11023826205746510338
18186145 218 18060415824331537600
18219364 16 18200886183053943698
192875 21 17275105003412233994
19862831 5 16630805508534482281
200 152 16630812101351505848
20374829 77 12103842354638832741
20645477 56 18113622304280110033
20645477 70 18059584559592904342
21033648 29 18411977001039357984
212916 134 17676480661826606216
231179 274 18409166614974367424
23227448 37 17823704250768092429
23402539 116 17822007644740093647
23402655 69 17704355459070756624
23557571 272 18042140850551969803
23559900 14 17822862974471137118
25 1 18130788949391680774
2748010 2 17558555965922062554
3060560 45 18059853944088639582
341906 21 17313103029682532741
4028521 119 18408601440128043113
5104073 3 17386849396962630937
633830 44 17632027376598116521
77492 1 16343708690385230555

>  <PUBCHEM_SHAPE_MULTIPOLES>  (1) 
373.4
9.46
1.8
1.37
0.26
0.45
0.1
-5.3
-1.15
-0.11
-0.3
0.36
0.15
1.56

>  <PUBCHEM_SHAPE_SELFOVERLAP>  (1) 
832.024

>  <PUBCHEM_SHAPE_VOLUME>  (1) 
196.9

>  <PUBCHEM_COORDINATE_TYPE>  (1) 
2
5
10

$$$$
