15819
     RDKit          3D

 15 16  0  0  0  0  0  0  0  0999 V2000
    1.3055   -1.1997   -0.4542 N   0  0  0  0  0  0  0  0  0  0  0  0
    1.3063    1.1999   -0.4545 N   0  0  0  0  0  0  0  0  0  0  0  0
    3.0972   -0.0004    0.5988 N   0  0  0  0  0  0  0  0  0  0  0  0
    3.0701   -2.3454    0.5814 N   0  0  0  0  0  0  0  0  0  0  0  0
    3.0716    2.3444    0.5811 N   0  0  0  0  0  0  0  0  0  0  0  0
   -0.4982    0.0007   -1.5172 C   0  0  0  0  0  0  0  0  0  0  0  0
   -1.7118    0.0003   -0.6502 C   0  0  0  0  0  0  0  0  0  0  0  0
    0.8072    0.0003   -0.7475 C   0  0  0  0  0  0  0  0  0  0  0  0
   -2.2792    1.2082   -0.2442 C   0  0  0  0  0  0  0  0  0  0  0  0
   -2.2798   -1.2078   -0.2458 C   0  0  0  0  0  0  0  0  0  0  0  0
   -3.4144    1.2080    0.5664 C   0  0  0  0  0  0  0  0  0  0  0  0
   -3.4151   -1.2079    0.5648 C   0  0  0  0  0  0  0  0  0  0  0  0
   -3.9823    0.0000    0.9709 C   0  0  0  0  0  0  0  0  0  0  0  0
    2.4610   -1.1224    0.2253 C   0  0  0  0  0  0  0  0  0  0  0  0
    2.4618    1.1219    0.2250 C   0  0  0  0  0  0  0  0  0  0  0  0
  1  8  2  0
  1 14  1  0
  2  8  1  0
  2 15  2  0
  3 14  2  0
  3 15  1  0
  4 14  1  0
  5 15  1  0
  6  7  1  0
  6  8  1  0
  7  9  2  0
  7 10  1  0
  9 11  1  0
 10 12  2  0
 11 13  2  0
 12 13  1  0
M  END
>  <PUBCHEM_COMPOUND_CID>  (1) 
15819

>  <PUBCHEM_CONFORMER_RMSD>  (1) 
0.6

>  <PUBCHEM_CONFORMER_DIVERSEORDER>  (1) 
1
2
3
4
5

>  <PUBCHEM_MMFF94_PARTIAL_CHARGES>  (1) 
24
1 -0.62
10 -0.15
11 -0.15
12 -0.15
13 -0.15
14 0.72
15 0.72
18 0.15
19 0.15
2 -0.62
20 0.15
21 0.15
22 0.15
23 0.4
24 0.4
25 0.4
26 0.4
3 -0.62
4 -0.9
5 -0.9
6 0.29
7 -0.14
8 0.48
9 -0.15

>  <PUBCHEM_EFFECTIVE_ROTOR_COUNT>  (1) 
2

>  <PUBCHEM_PHARMACOPHORE_FEATURES>  (1) 
6
1 4 donor
1 5 donor
4 1 3 4 14 cation
4 2 3 5 15 cation
6 1 2 3 8 14 15 rings
6 7 9 10 11 12 13 rings

>  <PUBCHEM_HEAVY_ATOM_COUNT>  (1) 
15

>  <PUBCHEM_ATOM_DEF_STEREO_COUNT>  (1) 
0

>  <PUBCHEM_ATOM_UDEF_STEREO_COUNT>  (1) 
0

>  <PUBCHEM_BOND_DEF_STEREO_COUNT>  (1) 
0

>  <PUBCHEM_BOND_UDEF_STEREO_COUNT>  (1) 
0

>  <PUBCHEM_ISOTOPIC_ATOM_COUNT>  (1) 
0

>  <PUBCHEM_COMPONENT_COUNT>  (1) 
1

>  <PUBCHEM_CACTVS_TAUTO_COUNT>  (1) 
5

>  <PUBCHEM_CONFORMER_ID>  (1) 
00003DCB00000001

>  <PUBCHEM_MMFF94_ENERGY>  (1) 
43.2842

>  <PUBCHEM_FEATURE_SELFOVERLAP>  (1) 
30.489

>  <PUBCHEM_SHAPE_FINGERPRINT>  (1) 
10366900 7 18337675346517923209
10498660 4 13038912067242096379
10799339 124 18409169883333670961
11471102 22 18407759244216995810
12251169 10 18411981351603435951
12382932 28 18341617031479515513
12507560 40 18334295344948320565
12633257 1 18269846319803093451
12696612 119 18410015463388725981
12932764 1 18410577283807654221
13296908 3 17240476992396129383
13533116 47 18407760322744826443
13693222 15 18335142024725440937
13705890 14 10737283558642476404
13764800 53 17203342125724660003
13897977 13 18200034070306606785
14144814 61 18410857663736509071
14289901 80 18340485663957849747
15375462 189 17896598388819460250
15501101 241 18187081745926717654
15527383 91 18335421218979617434
15653759 3 18260551082692898949
15775835 57 17917433193309202649
17804303 29 18191033308959935839
19107657 162 17386016099828097235
201361 129 18341894142822337464
20281407 28 17168144490365523703
20361792 2 15647057079454799303
20528008 55 18410008853977070845
21065199 12 18408044009291681705
22169311 14 18336267830048070521
22445834 79 18408603660541589759
22854114 111 18342174509423218144
23557571 272 12966261947726053965
25 1 12391252524790468477
458136 41 18261398905401065604
5374978 207 18411706500035878121
6049 1 17968369048834462412
7097593 13 18340202999011804427
7615 1 17630866335221327239
81228 2 16299490696360746389
9882013 296 17895472660431506892

>  <PUBCHEM_SHAPE_MULTIPOLES>  (1) 
283.79
7.05
1.96
1.04
1.47
0
-0.19
0
2.77
-1.51
0.42
0.24
0
0

>  <PUBCHEM_SHAPE_SELFOVERLAP>  (1) 
607.546

>  <PUBCHEM_SHAPE_VOLUME>  (1) 
148.2

>  <PUBCHEM_COORDINATE_TYPE>  (1) 
2
5
10

$$$$
