15828
     RDKit          3D

 21 22  0  0  0  0  0  0  0  0999 V2000
   -1.6222   -0.4330   -0.7445 O   0  0  0  0  0  0  0  0  0  0  0  0
   -0.0552    1.7764   -1.3677 O   0  0  0  0  0  0  0  0  0  0  0  0
    6.7072    0.9097    1.3056 O   0  0  0  0  0  0  0  0  0  0  0  0
    6.5815   -0.7303   -0.1590 O   0  0  0  0  0  0  0  0  0  0  0  0
    6.0866    0.1916    0.5070 N   0  0  0  0  0  0  0  0  0  0  0  0
   -0.2731   -0.4667   -0.5591 C   0  0  0  0  0  0  0  0  0  0  0  0
   -2.4171   -1.2289    0.1323 C   0  0  0  0  0  0  0  0  0  0  0  0
   -3.7659   -0.5898    0.2864 C   0  0  0  0  0  0  0  0  0  0  0  0
    0.5135    0.6420   -0.8722 C   0  0  0  0  0  0  0  0  0  0  0  0
    2.4882   -0.5618   -0.1730 C   0  0  0  0  0  0  0  0  0  0  0  0
    1.8942    0.5944   -0.6792 C   0  0  0  0  0  0  0  0  0  0  0  0
    0.3209   -1.6228   -0.0529 C   0  0  0  0  0  0  0  0  0  0  0  0
    1.7015   -1.6703    0.1401 C   0  0  0  0  0  0  0  0  0  0  0  0
   -3.9767    0.3370    1.3013 C   0  0  0  0  0  0  0  0  0  0  0  0
   -4.7928   -0.9297   -0.5873 C   0  0  0  0  0  0  0  0  0  0  0  0
    3.9275   -0.6115    0.0292 C   0  0  0  0  0  0  0  0  0  0  0  0
   -5.2303    0.9313    1.4446 C   0  0  0  0  0  0  0  0  0  0  0  0
   -6.0465   -0.3352   -0.4440 C   0  0  0  0  0  0  0  0  0  0  0  0
   -6.2652    0.5953    0.5719 C   0  0  0  0  0  0  0  0  0  0  0  0
   -0.4766    2.7569   -0.4215 C   0  0  0  0  0  0  0  0  0  0  0  0
    4.7007    0.4454    0.3419 C   0  0  0  0  0  0  0  0  0  0  0  0
  1  6  1  0
  1  7  1  0
  2  9  1  0
  2 20  1  0
  3  5  1  0
  4  5  2  0
  5 21  1  0
  6  9  2  0
  6 12  1  0
  7  8  1  0
  8 14  2  0
  8 15  1  0
  9 11  1  0
 10 11  2  0
 10 13  1  0
 10 16  1  0
 12 13  2  0
 14 17  1  0
 15 18  2  0
 16 21  2  0
 17 19  2  0
 18 19  1  0
M  CHG  2   3  -1   5   1
M  END
>  <PUBCHEM_COMPOUND_CID>  (1) 
15828

>  <PUBCHEM_CONFORMER_RMSD>  (1) 
0.8

>  <PUBCHEM_CONFORMER_DIVERSEORDER>  (1) 
1
33
16
22
7
35
24
28
30
42
26
44
11
34
4
23
37
3
36
12
2
19
27
18
38
32
41
25
5
15
8
43
9
6
31
40
20
14
17
13
29
21
39
10

>  <PUBCHEM_MMFF94_PARTIAL_CHARGES>  (1) 
31
1 -0.36
10 0.03
11 -0.15
12 -0.15
13 -0.15
14 -0.15
15 -0.15
16 -0.18
17 -0.15
18 -0.15
19 -0.15
2 -0.36
20 0.28
21 0.05
24 0.15
25 0.15
26 0.15
27 0.15
28 0.15
29 0.15
3 -0.52
30 0.15
31 0.15
32 0.15
36 0.15
4 -0.52
5 0.84
6 0.08
7 0.42
8 -0.14
9 0.08

>  <PUBCHEM_EFFECTIVE_ROTOR_COUNT>  (1) 
6

>  <PUBCHEM_PHARMACOPHORE_FEATURES>  (1) 
7
1 1 acceptor
1 2 acceptor
1 3 acceptor
1 3 anion
1 4 acceptor
6 6 9 10 11 12 13 rings
6 8 14 15 17 18 19 rings

>  <PUBCHEM_HEAVY_ATOM_COUNT>  (1) 
21

>  <PUBCHEM_ATOM_DEF_STEREO_COUNT>  (1) 
0

>  <PUBCHEM_ATOM_UDEF_STEREO_COUNT>  (1) 
0

>  <PUBCHEM_BOND_DEF_STEREO_COUNT>  (1) 
0

>  <PUBCHEM_BOND_UDEF_STEREO_COUNT>  (1) 
1

>  <PUBCHEM_ISOTOPIC_ATOM_COUNT>  (1) 
0

>  <PUBCHEM_COMPONENT_COUNT>  (1) 
1

>  <PUBCHEM_CACTVS_TAUTO_COUNT>  (1) 
2

>  <PUBCHEM_CONFORMER_ID>  (1) 
00003DD400000001

>  <PUBCHEM_MMFF94_ENERGY>  (1) 
78.7555

>  <PUBCHEM_FEATURE_SELFOVERLAP>  (1) 
35.606

>  <PUBCHEM_SHAPE_FINGERPRINT>  (1) 
10906281 52 18189072987196596246
11089746 13 17988922292680444953
11315181 36 18342738550915400571
11646440 116 18334869320130160001
11796584 16 15140678077044878609
11991303 11 13973672975169526140
12236239 1 18131069325168285983
12507557 5 18408610284103619395
12516196 113 18407759244206394357
12596602 18 17989207040369851787
13140716 1 18116717515955048578
13288520 33 12396300366100464427
13533116 47 17894905180116075970
13540713 4 17899967249803040390
14123256 10 11743840257287538619
14251764 18 18334297604143199303
14350574 20 8430313532646086323
14849402 71 18268995469191358817
15048467 5 17918274259806939890
15131766 46 16413205677278946016
15527383 91 18334858337424159860
17834072 8 11384111951591125962
17980427 23 17846505837738943749
19489759 90 17703792522629952251
20281389 69 18060419110202987616
20511986 3 18271235037654654747
21150785 3 15339114654450237271
21298829 104 18341335471273937289
21304253 13 18342455967500082696
21521239 73 8070025545461213528
21637258 2 14346073165434167986
21709351 56 10231757769378607435
22224240 67 18408880754530553762
23402539 116 18343015618606975335
23536379 177 17203611471566377958
23569914 2 16410646902582107088
23845131 108 17473259873544597996
26918003 58 17240486913939394595
2838139 119 16128655245257310673
300161 21 18343021065184604031
314173 85 18261398831706113781
33382 64 14346067608136916232
34797466 226 16271934855977543749
3759504 43 14189569767285148196
4325135 7 14692566633610706653
4340502 62 16056886840316040182
465052 167 14923942345653133730
5104073 3 17896610667866799793
5207 217 12319735873277615172
59755656 215 18261114028816161374
6328613 192 18339367482281811188
67856867 119 18199749305764768497
69474 34 18410854395166722124
7226269 152 17530966882170308185
7495541 125 15357989987596691327
9971528 1 18341624676526623135

>  <PUBCHEM_SHAPE_MULTIPOLES>  (1) 
403.71
16.13
1.74
1.09
7.29
0.78
0.14
1.03
5.59
-0.05
-0.25
-0.46
0.35
-0.34

>  <PUBCHEM_SHAPE_SELFOVERLAP>  (1) 
857.771

>  <PUBCHEM_SHAPE_VOLUME>  (1) 
225.8

>  <PUBCHEM_COORDINATE_TYPE>  (1) 
2
5
10

$$$$
