1583
     RDKit          3D

 28 30  0  0  0  0  0  0  0  0999 V2000
   -0.3332    0.6762   -0.1640 O   0  0  0  0  0  0  0  0  0  0  0  0
    0.0399   -1.0842    1.2857 O   0  0  0  0  0  0  0  0  0  0  0  0
   -6.3206    0.6639    1.6271 O   0  0  0  0  0  0  0  0  0  0  0  0
   -2.4130   -1.8124   -2.6379 O   0  0  0  0  0  0  0  0  0  0  0  0
   -0.5048   -0.8905   -2.0651 O   0  0  0  0  0  0  0  0  0  0  0  0
   -6.5716   -0.7859   -0.1054 O   0  0  0  0  0  0  0  0  0  0  0  0
    1.8868    0.0165    0.3490 N   0  0  0  0  0  0  0  0  0  0  0  0
   -1.7366   -1.0570   -1.9006 N   0  0  0  0  0  0  0  0  0  0  0  0
    2.3953    1.3162   -0.0006 C   0  0  0  0  0  0  0  0  0  0  0  0
    2.8303   -1.0695    0.4549 C   0  0  0  0  0  0  0  0  0  0  0  0
    0.5068   -0.2165    0.5475 C   0  0  0  0  0  0  0  0  0  0  0  0
   -1.6729    0.4846    0.0008 C   0  0  0  0  0  0  0  0  0  0  0  0
    3.5156    1.3889   -0.7921 C   0  0  0  0  0  0  0  0  0  0  0  0
    4.1145   -0.7800    0.8410 C   0  0  0  0  0  0  0  0  0  0  0  0
    1.7365    2.4247    0.4722 C   0  0  0  0  0  0  0  0  0  0  0  0
    2.3962   -2.3382    0.1653 C   0  0  0  0  0  0  0  0  0  0  0  0
   -2.3883   -0.3655   -0.8425 C   0  0  0  0  0  0  0  0  0  0  0  0
   -2.3280    1.1552    1.0337 C   0  0  0  0  0  0  0  0  0  0  0  0
   -4.4135    0.1257    0.3799 C   0  0  0  0  0  0  0  0  0  0  0  0
   -3.7585   -0.5449   -0.6531 C   0  0  0  0  0  0  0  0  0  0  0  0
   -3.6982    0.9758    1.2233 C   0  0  0  0  0  0  0  0  0  0  0  0
    4.0080    2.6490   -1.1318 C   0  0  0  0  0  0  0  0  0  0  0  0
    5.0265   -1.8304    0.9443 C   0  0  0  0  0  0  0  0  0  0  0  0
    2.2288    3.6849    0.1325 C   0  0  0  0  0  0  0  0  0  0  0  0
    3.3081   -3.3886    0.2687 C   0  0  0  0  0  0  0  0  0  0  0  0
    3.3646    3.7970   -0.6695 C   0  0  0  0  0  0  0  0  0  0  0  0
    4.6233   -3.1347    0.6582 C   0  0  0  0  0  0  0  0  0  0  0  0
   -5.8421   -0.0604    0.5785 C   0  0  0  0  0  0  0  0  0  0  0  0
  1 11  1  0
  1 12  1  0
  2 11  2  0
  3 28  1  0
  4  8  1  0
  5  8  2  0
  6 28  2  0
  7  9  1  0
  7 10  1  0
  7 11  1  0
  8 17  1  0
  9 13  2  0
  9 15  1  0
 10 14  2  0
 10 16  1  0
 12 17  2  0
 12 18  1  0
 13 22  1  0
 14 23  1  0
 15 24  2  0
 16 25  2  0
 17 20  1  0
 18 21  2  0
 19 20  2  0
 19 21  1  0
 19 28  1  0
 22 26  2  0
 23 27  2  0
 24 26  1  0
 25 27  1  0
M  CHG  2   4  -1   8   1
M  END
>  <PUBCHEM_COMPOUND_CID>  (1) 
1583

>  <PUBCHEM_CONFORMER_RMSD>  (1) 
0.8

>  <PUBCHEM_CONFORMER_DIVERSEORDER>  (1) 
1
46
43
29
16
26
39
34
9
48
18
49
17
6
47
57
56
27
36
13
33
21
8
50
23
20
37
54
44
40
55
7
53
45
32
30
42
41
35
3
52
38
51
28
15
10
14
2
24
25
22
11
31
4
12
5
19

>  <PUBCHEM_MMFF94_PARTIAL_CHARGES>  (1) 
42
1 -0.23
10 0.12
11 0.78
12 0.08
13 -0.15
14 -0.15
15 -0.15
16 -0.15
17 0.13
18 -0.15
19 0.09
2 -0.57
20 -0.15
21 -0.15
22 -0.15
23 -0.15
24 -0.15
25 -0.15
26 -0.15
27 -0.15
28 0.63
29 0.15
3 -0.65
30 0.15
31 0.15
32 0.15
33 0.15
34 0.15
35 0.15
36 0.15
37 0.15
38 0.15
39 0.15
4 -0.52
40 0.15
41 0.15
42 0.5
5 -0.52
6 -0.57
7 -0.29
8 0.91
9 0.12

>  <PUBCHEM_EFFECTIVE_ROTOR_COUNT>  (1) 
7

>  <PUBCHEM_PHARMACOPHORE_FEATURES>  (1) 
10
1 2 acceptor
1 3 acceptor
1 4 acceptor
1 4 anion
1 5 acceptor
1 6 acceptor
3 3 6 28 anion
6 10 14 16 23 25 27 rings
6 12 17 18 19 20 21 rings
6 9 13 15 22 24 26 rings

>  <PUBCHEM_HEAVY_ATOM_COUNT>  (1) 
28

>  <PUBCHEM_ATOM_DEF_STEREO_COUNT>  (1) 
0

>  <PUBCHEM_ATOM_UDEF_STEREO_COUNT>  (1) 
0

>  <PUBCHEM_BOND_DEF_STEREO_COUNT>  (1) 
0

>  <PUBCHEM_BOND_UDEF_STEREO_COUNT>  (1) 
0

>  <PUBCHEM_ISOTOPIC_ATOM_COUNT>  (1) 
0

>  <PUBCHEM_COMPONENT_COUNT>  (1) 
1

>  <PUBCHEM_CACTVS_TAUTO_COUNT>  (1) 
1

>  <PUBCHEM_CONFORMER_ID>  (1) 
0000062F00000001

>  <PUBCHEM_MMFF94_ENERGY>  (1) 
133.7978

>  <PUBCHEM_FEATURE_SELFOVERLAP>  (1) 
50.888

>  <PUBCHEM_SHAPE_FINGERPRINT>  (1) 
10165383 225 17895770624473645188
10190108 129 17688324790603545411
10369192 42 17242466151103073820
10411042 1 18119248368663685626
11049842 53 16842789061147150604
12107183 9 18051703148655309361
12236239 1 18273213075946970555
12403259 118 18271810060682446321
12553582 1 18337944572833760238
12616971 3 18413668007199466303
12730499 353 18189629399983069792
12741549 16 17386279888435724244
12788726 201 17632312171969955473
13009979 54 17986961747753269752
13533116 47 18408044026613904257
13540713 5 18058155293028928583
13583140 156 18265627652801690233
13726171 33 16986043563646892977
13782708 43 17313103016950826403
13785724 45 17982464693223781583
13911987 19 17824005367675148498
13955234 65 18335421300652847680
14739800 52 17560228253887865408
14955137 171 18342181012441593130
15238133 3 17418099793371069553
15250474 111 18200303446408333559
15842332 3 18130211778638097175
17818456 19 17773600416650292912
17844677 252 18334580101522768289
17980427 23 17417225724703403484
1813 80 18268434525614749470
18785283 64 18186802521734487296
19319366 153 18196941182473238952
20465049 17 18270138910287113084
20739085 24 18270398266298780454
21033648 29 17023171756429788085
21049683 271 18113629967361687460
21344244 78 18342165640532186440
21781055 127 16629425574439687211
22033318 11 17910986568206060273
23559900 14 18408881849752099667
23566358 27 18409445924908071070
24771293 8 18199450213264700960
25147074 1 18059283374821238679
27425 322 17977961403251067964
38570 142 18195548080061260500
4516262 110 18266170824072758045
46194498 28 17603305947211635878
474 4 18192152822029304853
474144 1 18343868826871775872
5912855 24 18125719239111338855
6823239 73 15864074260417499670
7970288 3 18118399540775644218
9981440 41 17834101327652903936

>  <PUBCHEM_SHAPE_MULTIPOLES>  (1) 
531.05
12.42
3.89
1.49
16.42
1.74
0.81
-3
-3
-8.38
0.25
1.22
-0.42
-2.45

>  <PUBCHEM_SHAPE_SELFOVERLAP>  (1) 
1171.915

>  <PUBCHEM_SHAPE_VOLUME>  (1) 
283.2

>  <PUBCHEM_COORDINATE_TYPE>  (1) 
2
5
10

$$$$
