15837
     RDKit          3D

 22 23  0  0  0  0  0  0  0  0999 V2000
   -1.5937   -0.5275    1.3055 O   0  0  0  0  0  0  0  0  0  0  0  0
   -3.6490    0.8011    0.0132 N   0  0  0  0  0  0  0  0  0  0  0  0
   -2.4596    1.5423    0.4092 C   0  0  0  0  0  0  0  0  0  0  0  0
   -3.3626   -0.0608   -1.1358 C   0  0  0  0  0  0  0  0  0  0  0  0
   -4.7478    1.7167   -0.3023 C   0  0  0  0  0  0  0  0  0  0  0  0
   -1.3675    0.5618    0.7861 C   0  0  0  0  0  0  0  0  0  0  0  0
    1.0874    0.2629    0.2025 C   0  0  0  0  0  0  0  0  0  0  0  0
    0.0295    1.0370    0.5245 C   0  0  0  0  0  0  0  0  0  0  0  0
   -4.5965   -0.8397   -1.5587 C   0  0  0  0  0  0  0  0  0  0  0  0
   -5.1085    2.5755    0.8980 C   0  0  0  0  0  0  0  0  0  0  0  0
    2.4314    0.8381   -0.0360 C   0  0  0  0  0  0  0  0  0  0  0  0
    0.8432   -1.2027    0.1318 C   0  0  0  0  0  0  0  0  0  0  0  0
    2.7886    1.1974   -1.3216 C   0  0  0  0  0  0  0  0  0  0  0  0
    0.9854   -1.9562    1.2776 C   0  0  0  0  0  0  0  0  0  0  0  0
    3.2912    1.0005    1.0332 C   0  0  0  0  0  0  0  0  0  0  0  0
    0.4821   -1.7587   -1.0771 C   0  0  0  0  0  0  0  0  0  0  0  0
    4.0541    1.7396   -1.5464 C   0  0  0  0  0  0  0  0  0  0  0  0
    0.7558   -3.3305    1.2114 C   0  0  0  0  0  0  0  0  0  0  0  0
    4.5566    1.5428    0.8084 C   0  0  0  0  0  0  0  0  0  0  0  0
    0.2524   -3.1330   -1.1432 C   0  0  0  0  0  0  0  0  0  0  0  0
    4.9380    1.9124   -0.4814 C   0  0  0  0  0  0  0  0  0  0  0  0
    0.3893   -3.9188    0.0011 C   0  0  0  0  0  0  0  0  0  0  0  0
  1  6  2  0
  2  3  1  0
  2  4  1  0
  2  5  1  0
  3  6  1  0
  4  9  1  0
  5 10  1  0
  6  8  1  0
  7  8  2  3
  7 11  1  0
  7 12  1  0
 11 13  2  0
 11 15  1  0
 12 14  2  0
 12 16  1  0
 13 17  1  0
 14 18  1  0
 15 19  2  0
 16 20  2  0
 17 21  2  0
 18 22  2  0
 19 21  1  0
 20 22  1  0
M  END
>  <PUBCHEM_COMPOUND_CID>  (1) 
15837

>  <PUBCHEM_CONFORMER_RMSD>  (1) 
0.8

>  <PUBCHEM_CONFORMER_DIVERSEORDER>  (1) 
1
38
24
33
14
4
25
21
20
6
43
19
40
32
11
27
31
28
15
41
23
30
42
34
39
17
9
29
37
35
13
8
22
26
44
36
3
2
18
16
7
12
10
5

>  <PUBCHEM_MMFF94_PARTIAL_CHARGES>  (1) 
31
1 -0.57
11 0.03
12 0.03
13 -0.15
14 -0.15
15 -0.15
16 -0.15
17 -0.15
18 -0.15
19 -0.15
2 -0.81
20 -0.15
21 -0.15
22 -0.15
29 0.15
3 0.33
36 0.15
37 0.15
38 0.15
39 0.15
4 0.27
40 0.15
41 0.15
42 0.15
43 0.15
44 0.15
45 0.15
5 0.27
6 0.49
7 -0.06
8 -0.14

>  <PUBCHEM_EFFECTIVE_ROTOR_COUNT>  (1) 
7

>  <PUBCHEM_PHARMACOPHORE_FEATURES>  (1) 
4
1 1 acceptor
1 2 cation
6 11 13 15 17 19 21 rings
6 12 14 16 18 20 22 rings

>  <PUBCHEM_HEAVY_ATOM_COUNT>  (1) 
22

>  <PUBCHEM_ATOM_DEF_STEREO_COUNT>  (1) 
0

>  <PUBCHEM_ATOM_UDEF_STEREO_COUNT>  (1) 
0

>  <PUBCHEM_BOND_DEF_STEREO_COUNT>  (1) 
0

>  <PUBCHEM_BOND_UDEF_STEREO_COUNT>  (1) 
0

>  <PUBCHEM_ISOTOPIC_ATOM_COUNT>  (1) 
0

>  <PUBCHEM_COMPONENT_COUNT>  (1) 
1

>  <PUBCHEM_CACTVS_TAUTO_COUNT>  (1) 
2

>  <PUBCHEM_CONFORMER_ID>  (1) 
00003DDD00000001

>  <PUBCHEM_MMFF94_ENERGY>  (1) 
68.7054

>  <PUBCHEM_FEATURE_SELFOVERLAP>  (1) 
20.297

>  <PUBCHEM_SHAPE_FINGERPRINT>  (1) 
10090160 65 18260543416097303841
10382601 240 18189053109992777309
105312 117 18264223550582970556
10554248 39 17769363926294675893
10764073 3 14709979482578090990
11045515 52 12607138321922519994
11069576 57 17982979346861011799
121448 382 18200312246363156359
12293681 160 17917999368983861888
12730499 353 18337689511758045457
12788726 201 17685219765218296762
12892183 10 13984655962422393356
13052359 8 18192708067080104178
13149001 5 17912921974510374840
133893 2 18048613529180153536
13583140 156 16878786157017848984
13681431 1 17762911969775029482
14251757 17 16845299383521255116
15163728 17 18042990759638374492
15885798 251 8862951575783287396
15906896 17 18118692255939542338
16752209 62 18048871085727157170
173720 79 18190723405768590850
17980427 23 17981014476131186675
1813 80 17619069430455021371
19784866 34 18411421700280161913
200 152 13686034132558234556
20197701 30 18410848880623516198
20567600 347 18411419513983513655
21054139 6 18270666675857772477
21330990 113 11964207659055123052
21344244 181 17631466698719968734
21421861 104 18051697646437822865
21524375 3 18408601483140642944
22182313 1 18194991683990529490
22393880 68 18201439134270811061
2255824 54 18122628258300647475
22907989 373 17833849530546293180
22950370 63 9583525338651363256
23557571 272 16154288104570698109
23559900 14 17343500003990870831
23598288 3 17608108760062284552
298252 57 18335138739017528808
3759504 43 18261394519886073946
394222 165 18336256860364461290
4409770 3 18120661493654178642
474 4 18261115145011441793
53917941 68 18120077636316392340
59755656 520 18410288147105224660
633830 44 18411142419936534348
7364860 26 18196652882734881786
81228 2 17836938067657567434
81539 233 18335701602697011717
9841814 1 17756148886505567499
9981440 41 18335420179518476203

>  <PUBCHEM_SHAPE_MULTIPOLES>  (1) 
441.9
9.49
3.95
1.48
5.02
4.48
-0.23
-10.82
-1.77
-0.36
0.29
-0.11
0.23
-1.51

>  <PUBCHEM_SHAPE_SELFOVERLAP>  (1) 
928.629

>  <PUBCHEM_SHAPE_VOLUME>  (1) 
250.5

>  <PUBCHEM_COORDINATE_TYPE>  (1) 
2
5
10

$$$$
