15833
     RDKit          3D

 13 13  0  0  0  0  0  0  0  0999 V2000
    2.8633    0.4399   -0.0889 N   0  0  0  0  0  0  0  0  0  0  0  0
    5.0058    1.1073   -0.6710 N   0  0  0  0  0  0  0  0  0  0  0  0
    4.7879   -0.9447    0.2968 N   0  0  0  0  0  0  0  0  0  0  0  0
   -1.8261   -0.3031   -0.0723 C   0  0  0  0  0  0  0  0  0  0  0  0
   -0.4359   -0.7305   -0.0899 C   0  0  0  0  0  0  0  0  0  0  0  0
   -2.1461    1.0165    0.2472 C   0  0  0  0  0  0  0  0  0  0  0  0
   -2.8394   -1.2128   -0.3749 C   0  0  0  0  0  0  0  0  0  0  0  0
    0.5928   -0.1063    0.5281 C   0  0  0  0  0  0  0  0  0  0  0  0
    2.0076   -0.5933    0.4947 C   0  0  0  0  0  0  0  0  0  0  0  0
   -3.4793    1.4262    0.2642 C   0  0  0  0  0  0  0  0  0  0  0  0
   -4.1726   -0.8029   -0.3581 C   0  0  0  0  0  0  0  0  0  0  0  0
   -4.4926    0.5166   -0.0386 C   0  0  0  0  0  0  0  0  0  0  0  0
    4.1346    0.1872   -0.1372 C   0  0  0  0  0  0  0  0  0  0  0  0
  1  9  1  0
  1 13  2  3
  2 13  1  0
  3 13  1  0
  4  5  1  0
  4  6  2  0
  4  7  1  0
  5  8  2  0
  6 10  1  0
  7 11  2  0
  8  9  1  0
 10 12  2  0
 11 12  1  0
M  END
>  <PUBCHEM_COMPOUND_CID>  (1) 
15833

>  <PUBCHEM_CONFORMER_RMSD>  (1) 
0.6

>  <PUBCHEM_CONFORMER_DIVERSEORDER>  (1) 
1
13
8
2
12
6
4
3
11
5
9
7
10

>  <PUBCHEM_MMFF94_PARTIAL_CHARGES>  (1) 
24
1 -0.7
10 -0.15
11 -0.15
12 -0.15
13 0.55
14 0.15
15 0.15
16 0.15
17 0.15
2 -0.85
20 0.15
21 0.15
22 0.15
23 0.4
24 0.4
25 0.4
26 0.4
3 -0.85
4 0.03
5 -0.18
6 -0.15
7 -0.15
8 -0.29
9 0.38

>  <PUBCHEM_EFFECTIVE_ROTOR_COUNT>  (1) 
3

>  <PUBCHEM_PHARMACOPHORE_FEATURES>  (1) 
4
1 2 donor
1 3 donor
4 1 2 3 13 cation
6 4 6 7 10 11 12 rings

>  <PUBCHEM_HEAVY_ATOM_COUNT>  (1) 
13

>  <PUBCHEM_ATOM_DEF_STEREO_COUNT>  (1) 
0

>  <PUBCHEM_ATOM_UDEF_STEREO_COUNT>  (1) 
0

>  <PUBCHEM_BOND_DEF_STEREO_COUNT>  (1) 
0

>  <PUBCHEM_BOND_UDEF_STEREO_COUNT>  (1) 
1

>  <PUBCHEM_ISOTOPIC_ATOM_COUNT>  (1) 
0

>  <PUBCHEM_COMPONENT_COUNT>  (1) 
1

>  <PUBCHEM_CACTVS_TAUTO_COUNT>  (1) 
2

>  <PUBCHEM_CONFORMER_ID>  (1) 
00003DD900000001

>  <PUBCHEM_MMFF94_ENERGY>  (1) 
36.0589

>  <PUBCHEM_FEATURE_SELFOVERLAP>  (1) 
20.353

>  <PUBCHEM_SHAPE_FINGERPRINT>  (1) 
10014705 185 18187642479840810781
10680689 15 18060421347812616947
10912923 1 18260827103108590802
114248 4 17704071815420216200
13167823 11 18409163290559417218
13897977 58 18410295817774500501
14123238 8 18202565090027837932
17834072 33 18409728486674791046
18186145 218 17458061565020799242
1986462 14 18131068238245732079
20279233 1 16630808811306362790
20300324 65 18342738537692661227
20325693 3 18060422421791525639
204376 136 16298109804219035986
20645477 56 18272654515745660945
20645477 70 15358240607712977290
2297311 6 17917721218369424541
23175994 123 15985105236533963483
23402539 116 18272363170453945965
23402655 69 18411982459984508132
23557571 272 17918003766861326885
23559900 14 17988920085657962418
4214541 1 18413107238472317824
42788 4 18408885139897436334
474 4 17603872268688335196
4990 188 18059860549774870230
573450 72 18339913840449293410
77779 3 18410856551266301714

>  <PUBCHEM_SHAPE_MULTIPOLES>  (1) 
252.59
11.12
1.27
0.71
10.1
0.13
0
1.37
-1.32
-0.66
-0.04
0.13
0.01
-0.71

>  <PUBCHEM_SHAPE_SELFOVERLAP>  (1) 
514.034

>  <PUBCHEM_SHAPE_VOLUME>  (1) 
145

>  <PUBCHEM_COORDINATE_TYPE>  (1) 
2
5
10

$$$$
