15831
     RDKit          3D

 23 25  0  0  0  0  0  0  0  0999 V2000
    1.1965   -0.5321   -1.5144 O   0  0  0  0  0  0  0  0  0  0  0  0
    3.3026    0.9622   -0.5092 N   0  0  0  0  0  0  0  0  0  0  0  0
    5.6094    0.3957    1.1937 C   0  0  0  0  0  0  0  0  0  0  0  0
    4.4255   -0.5587    1.0869 C   0  0  0  0  0  0  0  0  0  0  0  0
    5.7188    1.2516   -0.0632 C   0  0  0  0  0  0  0  0  0  0  0  0
    3.1395    0.1881    0.7294 C   0  0  0  0  0  0  0  0  0  0  0  0
    4.3919    1.9409   -0.3844 C   0  0  0  0  0  0  0  0  0  0  0  0
    2.0512    1.6319   -0.8626 C   0  0  0  0  0  0  0  0  0  0  0  0
    0.9712    0.5888   -1.0666 C   0  0  0  0  0  0  0  0  0  0  0  0
   -0.4174    1.0389   -0.7263 C   0  0  0  0  0  0  0  0  0  0  0  0
   -1.4148    0.2607   -0.2555 C   0  0  0  0  0  0  0  0  0  0  0  0
   -2.7556    0.8113    0.0493 C   0  0  0  0  0  0  0  0  0  0  0  0
   -1.1100   -1.1859   -0.0895 C   0  0  0  0  0  0  0  0  0  0  0  0
   -3.0196    1.2635    1.3280 C   0  0  0  0  0  0  0  0  0  0  0  0
   -1.3168   -2.0344   -1.1562 C   0  0  0  0  0  0  0  0  0  0  0  0
   -3.7063    0.8570   -0.9525 C   0  0  0  0  0  0  0  0  0  0  0  0
   -0.6321   -1.6296    1.1252 C   0  0  0  0  0  0  0  0  0  0  0  0
   -4.2824    1.7817    1.6160 C   0  0  0  0  0  0  0  0  0  0  0  0
   -1.0316   -3.3910   -1.0012 C   0  0  0  0  0  0  0  0  0  0  0  0
   -4.9690    1.3750   -0.6644 C   0  0  0  0  0  0  0  0  0  0  0  0
   -0.3471   -2.9863    1.2802 C   0  0  0  0  0  0  0  0  0  0  0  0
   -5.2571    1.8378    0.6197 C   0  0  0  0  0  0  0  0  0  0  0  0
   -0.5466   -3.8671    0.2170 C   0  0  0  0  0  0  0  0  0  0  0  0
  1  9  2  0
  2  6  1  0
  2  7  1  0
  2  8  1  0
  3  4  1  0
  3  5  1  0
  4  6  1  0
  5  7  1  0
  8  9  1  0
  9 10  1  0
 10 11  2  3
 11 12  1  0
 11 13  1  0
 12 14  2  0
 12 16  1  0
 13 15  2  0
 13 17  1  0
 14 18  1  0
 15 19  1  0
 16 20  2  0
 17 21  2  0
 18 22  2  0
 19 23  2  0
 20 22  1  0
 21 23  1  0
M  END
>  <PUBCHEM_COMPOUND_CID>  (1) 
15831

>  <PUBCHEM_CONFORMER_RMSD>  (1) 
0.8

>  <PUBCHEM_CONFORMER_DIVERSEORDER>  (1) 
1
22
27
7
10
40
35
36
17
30
13
32
25
14
20
33
11
16
34
15
5
24
39
4
38
12
37
19
23
26
2
8
6
29
21
9
18
28
3
31

>  <PUBCHEM_MMFF94_PARTIAL_CHARGES>  (1) 
31
1 -0.57
10 -0.14
11 -0.06
12 0.03
13 0.03
14 -0.15
15 -0.15
16 -0.15
17 -0.15
18 -0.15
19 -0.15
2 -0.81
20 -0.15
21 -0.15
22 -0.15
23 -0.15
36 0.15
37 0.15
38 0.15
39 0.15
40 0.15
41 0.15
42 0.15
43 0.15
44 0.15
45 0.15
46 0.15
6 0.27
7 0.27
8 0.33
9 0.49

>  <PUBCHEM_EFFECTIVE_ROTOR_COUNT>  (1) 
6.2

>  <PUBCHEM_PHARMACOPHORE_FEATURES>  (1) 
5
1 1 acceptor
1 2 cation
6 12 14 16 18 20 22 rings
6 13 15 17 19 21 23 rings
6 2 3 4 5 6 7 rings

>  <PUBCHEM_HEAVY_ATOM_COUNT>  (1) 
23

>  <PUBCHEM_ATOM_DEF_STEREO_COUNT>  (1) 
0

>  <PUBCHEM_ATOM_UDEF_STEREO_COUNT>  (1) 
0

>  <PUBCHEM_BOND_DEF_STEREO_COUNT>  (1) 
0

>  <PUBCHEM_BOND_UDEF_STEREO_COUNT>  (1) 
0

>  <PUBCHEM_ISOTOPIC_ATOM_COUNT>  (1) 
0

>  <PUBCHEM_COMPONENT_COUNT>  (1) 
1

>  <PUBCHEM_CACTVS_TAUTO_COUNT>  (1) 
2

>  <PUBCHEM_CONFORMER_ID>  (1) 
00003DD700000001

>  <PUBCHEM_MMFF94_ENERGY>  (1) 
64.3228

>  <PUBCHEM_FEATURE_SELFOVERLAP>  (1) 
25.373

>  <PUBCHEM_SHAPE_FINGERPRINT>  (1) 
10042902 136 12396883128216062761
10493431 412 18407757036624826810
10692045 39 18129665171610548378
10764073 3 15866861380902694103
10906281 52 18059310828226411464
12107183 9 18337103480892806162
121448 382 18202001053938359703
12592029 89 18187366467967269305
12616971 3 17168417264693495556
12633257 1 18262224582888595368
12643181 29 18411429393553065582
12788726 201 18051696838942149623
12839892 36 18260559935153519363
13004483 165 17693942199319464983
13140716 1 18337121055403641411
13583140 156 17749677397340653633
14251757 17 14476954550048698721
14466204 15 18264487291398051209
14468879 13 17489592289692392142
15238133 3 18202282498872009192
15537594 2 17603299346305883058
15842332 3 17607257742230993700
16994733 274 16415208828160080201
17913733 40 18269294395457924313
1813 80 7925622328451771793
18222031 100 8285908030999295493
20197701 30 18410009914602079243
204376 136 18409732837714038613
20554085 129 18129930201104553793
20681677 155 18336547209513556216
21033650 10 17345220863995114712
212916 134 18201149988382243760
21330990 113 13695864796870193049
21403212 168 18263353711835456009
21524375 3 18411420601026620157
21731228 192 18334585637350361099
22950370 63 8646764504371598389
23503953 91 18335691780961725136
23558518 356 17683250522723539532
23559900 14 18129958814419006668
23569917 315 18412545401349067183
23598288 3 18051142676512272262
23622692 88 18259704489120995244
23728640 28 18337110188883162170
3411729 13 18192432966209141017
38695281 34 18337381631237905263
4340502 62 18264223443794317841
474 4 18340771429754620817
5104073 3 18189322645778576968
58807428 26 18335987480110367251
59755656 520 18413668002308530356
81228 2 17904218262335050495
9981440 41 17704075113892069214

>  <PUBCHEM_SHAPE_MULTIPOLES>  (1) 
462.48
11.09
3.54
1.45
8.15
4.66
-0.19
-10.44
-2.98
-1.83
-0.08
-0.35
0.09
-1.23

>  <PUBCHEM_SHAPE_SELFOVERLAP>  (1) 
987.285

>  <PUBCHEM_SHAPE_VOLUME>  (1) 
255.6

>  <PUBCHEM_COORDINATE_TYPE>  (1) 
2
5
10

$$$$
