15841
     RDKit          3D

 20 20  0  0  0  0  0  0  0  0999 V2000
   -5.6063   -1.8956    0.5063 O   0  0  0  0  0  0  0  0  0  0  0  0
   -3.6145   -0.0799   -0.0269 N   0  0  0  0  0  0  0  0  0  0  0  0
    2.6519   -0.1281    1.0263 N   0  0  0  0  0  0  0  0  0  0  0  0
   -4.9108    0.1614   -0.3153 N   0  0  0  0  0  0  0  0  0  0  0  0
    3.3611   -0.1051   -0.0047 N   0  0  0  0  0  0  0  0  0  0  0  0
   -7.1312   -0.4176   -0.3679 N   0  0  0  0  0  0  0  0  0  0  0  0
    5.4597   -2.5380   -0.9830 N   0  0  0  0  0  0  0  0  0  0  0  0
    6.0993    1.7887   -0.4467 N   0  0  0  0  0  0  0  0  0  0  0  0
   -1.3183    0.5847    0.0377 C   0  0  0  0  0  0  0  0  0  0  0  0
   -2.7422    0.8402   -0.3163 C   0  0  0  0  0  0  0  0  0  0  0  0
   -0.5088    1.6571    0.3422 C   0  0  0  0  0  0  0  0  0  0  0  0
   -0.8612   -0.7148    0.0483 C   0  0  0  0  0  0  0  0  0  0  0  0
    1.3153    0.1122    0.6925 C   0  0  0  0  0  0  0  0  0  0  0  0
    0.8248    1.4178    0.6738 C   0  0  0  0  0  0  0  0  0  0  0  0
    0.4723   -0.9541    0.3798 C   0  0  0  0  0  0  0  0  0  0  0  0
   -3.0746    2.1577   -0.9890 C   0  0  0  0  0  0  0  0  0  0  0  0
    4.7709   -0.3508    0.2960 C   0  0  0  0  0  0  0  0  0  0  0  0
   -5.8530   -0.8083   -0.0135 C   0  0  0  0  0  0  0  0  0  0  0  0
    5.1544   -1.5704   -0.4195 C   0  0  0  0  0  0  0  0  0  0  0  0
    5.5112    0.8430   -0.1202 C   0  0  0  0  0  0  0  0  0  0  0  0
  1 18  2  0
  2  4  1  0
  2 10  2  0
  3  5  2  0
  3 13  1  0
  4 18  1  0
  5 17  1  0
  6 18  1  0
  7 19  3  0
  8 20  3  0
  9 10  1  0
  9 11  2  0
  9 12  1  0
 10 16  1  0
 11 14  1  0
 12 15  2  0
 13 14  2  0
 13 15  1  0
 17 19  1  0
 17 20  1  0
M  END
>  <PUBCHEM_COMPOUND_CID>  (1) 
15841

>  <PUBCHEM_CONFORMER_RMSD>  (1) 
0.8

>  <PUBCHEM_CONFORMER_DIVERSEORDER>  (1) 
1
2
6
3
4
8
5
7

>  <PUBCHEM_MMFF94_PARTIAL_CHARGES>  (1) 
27
1 -0.57
10 0.3
11 -0.15
12 -0.15
13 0.18
14 -0.15
15 -0.15
16 0.06
17 0.65
18 0.69
19 0.36
2 -0.51
20 0.36
21 0.15
22 0.15
23 0.15
24 0.15
28 0.37
3 -0.18
30 0.37
31 0.37
4 -0.37
5 -0.25
6 -0.8
7 -0.56
8 -0.56
9 0.09

>  <PUBCHEM_EFFECTIVE_ROTOR_COUNT>  (1) 
5

>  <PUBCHEM_PHARMACOPHORE_FEATURES>  (1) 
7
1 1 acceptor
1 2 acceptor
1 4 donor
1 6 donor
1 7 acceptor
1 8 acceptor
6 9 11 12 13 14 15 rings

>  <PUBCHEM_HEAVY_ATOM_COUNT>  (1) 
20

>  <PUBCHEM_ATOM_DEF_STEREO_COUNT>  (1) 
0

>  <PUBCHEM_ATOM_UDEF_STEREO_COUNT>  (1) 
0

>  <PUBCHEM_BOND_DEF_STEREO_COUNT>  (1) 
0

>  <PUBCHEM_BOND_UDEF_STEREO_COUNT>  (1) 
1

>  <PUBCHEM_ISOTOPIC_ATOM_COUNT>  (1) 
0

>  <PUBCHEM_COMPONENT_COUNT>  (1) 
1

>  <PUBCHEM_CACTVS_TAUTO_COUNT>  (1) 
3

>  <PUBCHEM_CONFORMER_ID>  (1) 
00003DE100000001

>  <PUBCHEM_MMFF94_ENERGY>  (1) 
46.8967

>  <PUBCHEM_FEATURE_SELFOVERLAP>  (1) 
35.58

>  <PUBCHEM_SHAPE_FINGERPRINT>  (1) 
10730089 47 18335135337593879714
11089746 13 11818990803177519169
11401426 45 10737286835887159193
117890 112 8934995975439088842
12236239 1 17822005402297517288
12916748 109 18260546719206547268
13073987 5 17989205911262724128
13288520 33 18411135836421504169
13533116 47 18131633370580772434
1420 363 18409167710185967483
14251718 22 18187080671847439137
14350574 20 18341891909207228521
14461889 52 18335979887293828506
15537594 2 17489582372818640694
17844677 252 18335707092161374052
18335252 98 18337678610814673194
20645477 70 18272655594041155566
21150785 3 17822018601354666406
21267235 1 18412830170264084115
21682296 61 18130232553637942407
220451 1 17417810668704274014
2297311 6 18335702720048008725
23035841 295 18335137579645559267
23402539 116 17458620108469572173
23522609 53 17915767386096805609
23559900 14 18115301306466374337
23622692 88 14979955882929469289
2838139 119 8142094134879137379
3004659 81 18409730617796305730
34797466 226 18260269659414162100
3545911 37 18411138057046346156
4325135 7 18335421296463310188
4463277 17 18410291419701739129
465052 167 17989489615142864358
5104073 3 17988357053868151922
59755656 215 18334011666659097075
59755656 520 11312055435996885745
90127 26 18041569040160248664

>  <PUBCHEM_SHAPE_MULTIPOLES>  (1) 
370.85
16.68
2.01
0.84
4.25
0.1
-0.01
5.67
-3.29
-1.09
-0.43
-0.27
-0.03
1.08

>  <PUBCHEM_SHAPE_SELFOVERLAP>  (1) 
766.839

>  <PUBCHEM_SHAPE_VOLUME>  (1) 
208.7

>  <PUBCHEM_COORDINATE_TYPE>  (1) 
2
5
10

$$$$
