1584
     RDKit          3D

 20 22  0  0  0  0  0  0  0  0999 V2000
    0.6214   -2.0104    0.4416 O   0  0  0  0  0  0  0  0  0  0  0  0
    2.7067    2.8863   -0.0076 O   0  0  0  0  0  0  0  0  0  0  0  0
    0.3359    0.2808    0.4495 N   0  0  0  0  0  0  0  0  0  0  0  0
    0.8876    1.5412    0.3312 N   0  0  0  0  0  0  0  0  0  0  0  0
   -1.0886    0.1667    0.6981 C   0  0  0  0  0  0  0  0  0  0  0  0
   -1.8716    0.0979   -0.6146 C   0  0  0  0  0  0  0  0  0  0  0  0
    2.5285   -0.7058    0.0873 C   0  0  0  0  0  0  0  0  0  0  0  0
    1.0833   -0.8760    0.3412 C   0  0  0  0  0  0  0  0  0  0  0  0
    3.0796    0.5689   -0.0311 C   0  0  0  0  0  0  0  0  0  0  0  0
   -3.3564    0.0022   -0.3648 C   0  0  0  0  0  0  0  0  0  0  0  0
    2.2245    1.7618    0.0961 C   0  0  0  0  0  0  0  0  0  0  0  0
    3.3506   -1.8333   -0.0353 C   0  0  0  0  0  0  0  0  0  0  0  0
    4.4506    0.7203   -0.2721 C   0  0  0  0  0  0  0  0  0  0  0  0
   -3.9455   -1.2463   -0.2365 C   0  0  0  0  0  0  0  0  0  0  0  0
   -4.1062    1.1642   -0.2674 C   0  0  0  0  0  0  0  0  0  0  0  0
    4.7164   -1.6799   -0.2755 C   0  0  0  0  0  0  0  0  0  0  0  0
    5.2655   -0.4052   -0.3938 C   0  0  0  0  0  0  0  0  0  0  0  0
   -5.3182   -1.3349   -0.0053 C   0  0  0  0  0  0  0  0  0  0  0  0
   -5.4790    1.0755   -0.0361 C   0  0  0  0  0  0  0  0  0  0  0  0
   -6.0849   -0.1741    0.0949 C   0  0  0  0  0  0  0  0  0  0  0  0
  1  8  2  0
  2 11  2  0
  3  4  1  0
  3  5  1  0
  3  8  1  0
  4 11  1  0
  5  6  1  0
  6 10  1  0
  7  8  1  0
  7  9  2  0
  7 12  1  0
  9 11  1  0
  9 13  1  0
 10 14  2  0
 10 15  1  0
 12 16  2  0
 13 17  2  0
 14 18  1  0
 15 19  2  0
 16 17  1  0
 18 20  2  0
 19 20  1  0
M  END
>  <PUBCHEM_COMPOUND_CID>  (1) 
1584

>  <PUBCHEM_CONFORMER_RMSD>  (1) 
0.6

>  <PUBCHEM_CONFORMER_DIVERSEORDER>  (1) 
2
11
13
5
9
6
14
12
4
10
8
1
3
7

>  <PUBCHEM_MMFF94_PARTIAL_CHARGES>  (1) 
30
1 -0.57
10 -0.14
11 0.54
12 -0.15
13 -0.15
14 -0.15
15 -0.15
16 -0.15
17 -0.15
18 -0.15
19 -0.15
2 -0.57
20 -0.15
25 0.37
26 0.15
27 0.15
28 0.15
29 0.15
3 -0.36
30 0.15
31 0.15
32 0.15
33 0.15
34 0.15
4 -0.43
5 0.3
6 0.14
7 0.09
8 0.54
9 0.09

>  <PUBCHEM_EFFECTIVE_ROTOR_COUNT>  (1) 
3

>  <PUBCHEM_PHARMACOPHORE_FEATURES>  (1) 
6
1 1 acceptor
1 2 acceptor
1 4 donor
6 10 14 15 18 19 20 rings
6 3 4 7 8 9 11 rings
6 7 9 12 13 16 17 rings

>  <PUBCHEM_HEAVY_ATOM_COUNT>  (1) 
20

>  <PUBCHEM_ATOM_DEF_STEREO_COUNT>  (1) 
0

>  <PUBCHEM_ATOM_UDEF_STEREO_COUNT>  (1) 
0

>  <PUBCHEM_BOND_DEF_STEREO_COUNT>  (1) 
0

>  <PUBCHEM_BOND_UDEF_STEREO_COUNT>  (1) 
0

>  <PUBCHEM_ISOTOPIC_ATOM_COUNT>  (1) 
0

>  <PUBCHEM_COMPONENT_COUNT>  (1) 
1

>  <PUBCHEM_CACTVS_TAUTO_COUNT>  (1) 
2

>  <PUBCHEM_CONFORMER_ID>  (1) 
0000063000000002

>  <PUBCHEM_MMFF94_ENERGY>  (1) 
54.496

>  <PUBCHEM_FEATURE_SELFOVERLAP>  (1) 
30.473

>  <PUBCHEM_SHAPE_FINGERPRINT>  (1) 
10366900 7 17458063755274726865
10411042 1 18122344580686397234
10595046 47 18341331197227063533
11471102 20 18409731759751002960
12107183 9 17764029060925156865
12236239 1 17918276450203272585
12403259 415 17967805059557120557
12616971 3 17988922301697582837
12730499 353 18260274074371510642
13167823 11 18412823612286879567
13862211 1 18337391535717703194
14341114 176 18410860958213860381
14863182 85 16343712010653225630
15183329 4 18411702050091154025
15196674 1 18410854369523070687
15475509 35 14404352655770654846
15788980 27 18409168809671072003
17834072 33 18413388752594357623
17844677 252 18411706482735066177
18186145 218 18040987449774137501
18681886 176 18272927245794482282
19489759 90 11167939156845875343
200 152 18201719548485323979
20612939 158 18409452500503059597
20645477 70 18412546487880054622
21267235 1 18411989061491705819
21709351 56 18410285913569275989
221357 26 18409163299286320013
221490 88 18337114582587057867
22224240 67 8646478588920384750
22289505 5 18337386054853948548
23402655 69 18412543214787661079
23536379 177 18411700959143015755
23557571 272 17167857539695628455
23559900 14 18409722989612628369
239999 70 18412546505128638470
29717793 49 18060700581000931349
3004659 81 18334859381744875422
4073 2 18041285460417461131
4214541 1 18411418389340190533
465052 167 18201723946532160158
5104073 3 18410572899089131137
5281201 14 18334574650776681845
542803 24 17313105241806642903
633830 44 18187356679610291827
7495541 125 18259987084625052082
77779 3 18410854382798284717
9709674 26 18262801903581328907

>  <PUBCHEM_SHAPE_MULTIPOLES>  (1) 
389.89
13.94
2.08
0.7
11.48
0.53
0
-1.91
1.52
-1.58
-0.05
0.04
-0.02
0.11

>  <PUBCHEM_SHAPE_SELFOVERLAP>  (1) 
852.088

>  <PUBCHEM_SHAPE_VOLUME>  (1) 
209.5

>  <PUBCHEM_COORDINATE_TYPE>  (1) 
2
5
10

$$$$
