15864
     RDKit          3D

 14 14  0  0  0  0  0  0  0  0999 V2000
   -1.1337    0.2275   -0.0100 O   0  0  0  0  0  0  0  0  0  0  0  0
    3.7843    1.2040    0.0171 O   0  0  0  0  0  0  0  0  0  0  0  0
   -4.5906    0.7401    0.0086 O   0  0  0  0  0  0  0  0  0  0  0  0
   -2.9017    2.1490   -0.0162 O   0  0  0  0  0  0  0  0  0  0  0  0
    3.8302   -1.1054   -0.0231 O   0  0  0  0  0  0  0  0  0  0  0  0
   -3.3447    0.9632   -0.0022 N   0  0  0  0  0  0  0  0  0  0  0  0
   -0.4943   -0.9368   -0.0027 C   0  0  0  0  0  0  0  0  0  0  0  0
   -1.2906   -2.0146    0.0131 C   0  0  0  0  0  0  0  0  0  0  0  0
   -2.4502   -0.1087    0.0020 C   0  0  0  0  0  0  0  0  0  0  0  0
   -2.5995   -1.4761    0.0165 C   0  0  0  0  0  0  0  0  0  0  0  0
    0.9789   -0.9667   -0.0125 C   0  0  0  0  0  0  0  0  0  0  0  0
    1.7625    0.1210   -0.0045 C   0  0  0  0  0  0  0  0  0  0  0  0
    3.2342   -0.0401   -0.0049 C   0  0  0  0  0  0  0  0  0  0  0  0
    5.2153    1.2438    0.0186 C   0  0  0  0  0  0  0  0  0  0  0  0
  1  7  1  0
  1  9  1  0
  2 13  1  0
  2 14  1  0
  3  6  1  0
  4  6  2  0
  5 13  2  0
  6  9  1  0
  7  8  2  0
  7 11  1  0
  8 10  1  0
  9 10  2  0
 11 12  2  0
 12 13  1  0
M  CHG  2   3  -1   6   1
M  END
>  <PUBCHEM_COMPOUND_CID>  (1) 
15864

>  <PUBCHEM_CONFORMER_RMSD>  (1) 
0.6

>  <PUBCHEM_CONFORMER_DIVERSEORDER>  (1) 
1
6
2
5
4
3

>  <PUBCHEM_MMFF94_PARTIAL_CHARGES>  (1) 
18
1 -0.28
10 -0.15
11 -0.11
12 -0.14
13 0.71
14 0.28
15 0.15
16 0.15
17 0.15
18 0.15
2 -0.43
3 -0.52
4 -0.52
5 -0.57
6 0.96
7 0.09
8 -0.15
9 0.22

>  <PUBCHEM_EFFECTIVE_ROTOR_COUNT>  (1) 
4

>  <PUBCHEM_PHARMACOPHORE_FEATURES>  (1) 
6
1 1 acceptor
1 3 acceptor
1 3 anion
1 4 acceptor
1 5 acceptor
5 1 7 8 9 10 rings

>  <PUBCHEM_HEAVY_ATOM_COUNT>  (1) 
14

>  <PUBCHEM_ATOM_DEF_STEREO_COUNT>  (1) 
0

>  <PUBCHEM_ATOM_UDEF_STEREO_COUNT>  (1) 
0

>  <PUBCHEM_BOND_DEF_STEREO_COUNT>  (1) 
0

>  <PUBCHEM_BOND_UDEF_STEREO_COUNT>  (1) 
1

>  <PUBCHEM_ISOTOPIC_ATOM_COUNT>  (1) 
0

>  <PUBCHEM_COMPONENT_COUNT>  (1) 
1

>  <PUBCHEM_CACTVS_TAUTO_COUNT>  (1) 
1

>  <PUBCHEM_CONFORMER_ID>  (1) 
00003DF800000001

>  <PUBCHEM_MMFF94_ENERGY>  (1) 
28.7255

>  <PUBCHEM_FEATURE_SELFOVERLAP>  (1) 
30.539

>  <PUBCHEM_SHAPE_FINGERPRINT>  (1) 
10014705 185 18335416889446939277
10608611 8 18341330076066331040
122479 349 18407763624899073395
12346645 44 18334292054570848643
12500047 106 18343015640445743346
12932764 1 17489020582559421970
13081056 2 18411421674309638093
13380535 76 18340487772877001775
14123255 52 18335417924475950811
14252887 29 14129048211086875720
14325111 11 18410856581500014246
14897335 6 18411134706180759455
15501527 16 18340491157474443072
17834072 32 18264768766437675773
18186145 218 18059590091478970434
20281407 28 8574419941882395511
20300324 65 18131345328514475439
20510252 161 18341336673073119355
20645477 56 18411139155624108992
20645477 70 17203339870998971878
21524375 3 18339641136101736431
21652331 79 18407760322127563261
23402539 116 18340479075847718127
23402655 69 18273215313814803060
23500284 214 18411425003093772609
23557571 272 18129671927134831438
23559900 14 18273215279814001054
3545911 37 18412267246481276204
4175511 318 17703790357301589239
4214541 1 18410575106596948738
5104073 3 18408885148550987210
573450 72 18262503893022674978
6430166 295 18337950095712978706
77779 3 18410013264924587286

>  <PUBCHEM_SHAPE_MULTIPOLES>  (1) 
253.79
9.3
1.85
0.57
7.28
0.14
0
4.58
0.04
-1.12
0
0.03
-0.03
0.03

>  <PUBCHEM_SHAPE_SELFOVERLAP>  (1) 
527.717

>  <PUBCHEM_SHAPE_VOLUME>  (1) 
145.8

>  <PUBCHEM_COORDINATE_TYPE>  (1) 
2
5
10

$$$$
