15874
     RDKit          3D

 21 21  0  0  0  0  0  0  0  0999 V2000
    0.0928    0.3148   -0.8715 O   0  0  0  0  0  0  0  0  0  0  0  0
   -0.7596    0.3479    1.3053 O   0  0  0  0  0  0  0  0  0  0  0  0
   -3.3117    0.3544    0.1652 N   0  0  0  0  0  0  0  0  0  0  0  0
    0.6805   -2.4483   -0.5501 C   0  0  0  0  0  0  0  0  0  0  0  0
    1.8720    2.4157   -0.1596 C   0  0  0  0  0  0  0  0  0  0  0  0
    1.6359   -1.3673   -0.1654 C   0  0  0  0  0  0  0  0  0  0  0  0
    2.2090    0.9724    0.0223 C   0  0  0  0  0  0  0  0  0  0  0  0
    1.3326   -0.0322   -0.3293 C   0  0  0  0  0  0  0  0  0  0  0  0
    2.8740   -1.7138    0.3755 C   0  0  0  0  0  0  0  0  0  0  0  0
    3.4472    0.6256    0.5630 C   0  0  0  0  0  0  0  0  0  0  0  0
    0.2432   -3.3015    0.6547 C   0  0  0  0  0  0  0  0  0  0  0  0
    1.2386   -3.3572   -1.6607 C   0  0  0  0  0  0  0  0  0  0  0  0
    1.8311    3.1818    1.1754 C   0  0  0  0  0  0  0  0  0  0  0  0
    2.8260    3.1222   -1.1402 C   0  0  0  0  0  0  0  0  0  0  0  0
    3.7797   -0.7173    0.7397 C   0  0  0  0  0  0  0  0  0  0  0  0
   -2.1774    0.8503   -0.6134 C   0  0  0  0  0  0  0  0  0  0  0  0
   -3.2399   -1.0997    0.3036 C   0  0  0  0  0  0  0  0  0  0  0  0
   -4.5730    0.7465   -0.4627 C   0  0  0  0  0  0  0  0  0  0  0  0
   -0.8978    0.4802    0.0966 C   0  0  0  0  0  0  0  0  0  0  0  0
   -4.4116   -1.6328    1.1105 C   0  0  0  0  0  0  0  0  0  0  0  0
   -4.6916    2.2581   -0.5590 C   0  0  0  0  0  0  0  0  0  0  0  0
  1  8  1  0
  1 19  1  0
  2 19  2  0
  3 16  1  0
  3 17  1  0
  3 18  1  0
  4  6  1  0
  4 11  1  0
  4 12  1  0
  5  7  1  0
  5 13  1  0
  5 14  1  0
  6  8  2  0
  6  9  1  0
  7  8  1  0
  7 10  2  0
  9 15  2  0
 10 15  1  0
 16 19  1  0
 17 20  1  0
 18 21  1  0
M  END
>  <PUBCHEM_COMPOUND_CID>  (1) 
15874

>  <PUBCHEM_CONFORMER_RMSD>  (1) 
0.8

>  <PUBCHEM_CONFORMER_DIVERSEORDER>  (1) 
1
64
75
84
63
69
60
81
50
73
25
18
70
37
66
72
82
59
24
26
83
91
47
76
88
17
68
16
78
92
85
14
77
48
87
58
32
49
56
15
57
86
80
71
22
13
55
31
74
79
19
5
7
21
8
23
6
45
40
38
46
29
20
39
90
30
3
4
89
9
10
11
12
65
34
53
2
27
54
67
33
28
52
61
36
51
62
43
35
41
44
42

>  <PUBCHEM_MMFF94_PARTIAL_CHARGES>  (1) 
18
1 -0.23
10 -0.15
15 -0.15
16 0.33
17 0.27
18 0.27
19 0.66
2 -0.57
24 0.15
25 0.15
3 -0.81
4 0.14
40 0.15
5 0.14
6 -0.14
7 -0.14
8 0.08
9 -0.15

>  <PUBCHEM_EFFECTIVE_ROTOR_COUNT>  (1) 
8

>  <PUBCHEM_PHARMACOPHORE_FEATURES>  (1) 
5
1 2 acceptor
1 3 cation
3 4 11 12 hydrophobe
3 5 13 14 hydrophobe
6 6 7 8 9 10 15 rings

>  <PUBCHEM_HEAVY_ATOM_COUNT>  (1) 
21

>  <PUBCHEM_ATOM_DEF_STEREO_COUNT>  (1) 
0

>  <PUBCHEM_ATOM_UDEF_STEREO_COUNT>  (1) 
0

>  <PUBCHEM_BOND_DEF_STEREO_COUNT>  (1) 
0

>  <PUBCHEM_BOND_UDEF_STEREO_COUNT>  (1) 
0

>  <PUBCHEM_ISOTOPIC_ATOM_COUNT>  (1) 
0

>  <PUBCHEM_COMPONENT_COUNT>  (1) 
1

>  <PUBCHEM_CACTVS_TAUTO_COUNT>  (1) 
1

>  <PUBCHEM_CONFORMER_ID>  (1) 
00003E0200000001

>  <PUBCHEM_MMFF94_ENERGY>  (1) 
53.1318

>  <PUBCHEM_FEATURE_SELFOVERLAP>  (1) 
25.371

>  <PUBCHEM_SHAPE_FINGERPRINT>  (1) 
10871710 139 16821662336040444244
10906281 52 18191039914825417288
1100329 8 18339072804933770360
11370993 70 18409722972211212971
11405975 8 18333731308542383313
116883 192 17692811493259451700
12553582 1 17691140235849294467
12633257 1 18114452349854810073
13140716 1 18410004455456163313
13836976 161 18341326755750708471
14178342 30 18269840809011958120
14790565 3 18337394937184530908
14955137 171 18341612599442453190
15375358 24 18336261224631326175
18186145 218 17845099647701907361
20645477 70 18199180703333621295
21065198 57 18334011675348686641
21197605 99 18050860111147800363
21524375 3 18194689391480979696
21709351 56 18409721855319022567
221490 88 18335146400954471251
2255824 54 18411702071370967860
23558518 356 17830441040869812730
23559900 14 18339356371048058977
3060560 45 18342737391020874142
350125 39 17976261554248011616
49207404 50 18263646332431576585
495365 180 18270101500927220873
5104073 3 18334012813478422457
6443956 14 18194121815605012292
7364860 26 18341894039357747255
7808743 9 17616818072965464980
81228 2 17474395677639769600
8272917 22 18341613659829981117
9709674 26 18338518530746137367

>  <PUBCHEM_SHAPE_MULTIPOLES>  (1) 
415.45
7.92
4.13
1.17
10.1
0.47
-0.08
-2.7
0.74
-2.3
-0.67
-0.17
0.19
0.9

>  <PUBCHEM_SHAPE_SELFOVERLAP>  (1) 
836.289

>  <PUBCHEM_SHAPE_VOLUME>  (1) 
245.3

>  <PUBCHEM_COORDINATE_TYPE>  (1) 
2
5
10

$$$$
