15872
     RDKit          3D

 19 19  0  0  1  0  0  0  0  0999 V2000
    0.4410   -0.2181    0.7639 O   0  0  0  0  0  0  0  0  0  0  0  0
   -0.0059   -0.4290   -1.5196 O   0  0  0  0  0  0  0  0  0  0  0  0
   -2.4541    0.6180    0.2795 N   0  0  0  0  0  0  0  0  0  0  0  0
   -1.7915   -0.6769    0.1306 C   0  0  0  0  0  0  0  0  0  0  0  0
   -2.5689   -1.5978   -0.8192 C   0  0  0  0  0  0  0  0  0  0  0  0
   -3.8299    0.4383    0.7423 C   0  0  0  0  0  0  0  0  0  0  0  0
   -2.4323    1.3521   -0.9852 C   0  0  0  0  0  0  0  0  0  0  0  0
   -0.3707   -0.4303   -0.3506 C   0  0  0  0  0  0  0  0  0  0  0  0
   -1.9829   -2.9980   -0.9673 C   0  0  0  0  0  0  0  0  0  0  0  0
   -3.8720   -0.3233    2.0563 C   0  0  0  0  0  0  0  0  0  0  0  0
   -3.0625    2.7262   -0.8333 C   0  0  0  0  0  0  0  0  0  0  0  0
    1.7761    0.0197    0.4295 C   0  0  0  0  0  0  0  0  0  0  0  0
    2.1842    1.3182    0.2097 C   0  0  0  0  0  0  0  0  0  0  0  0
    2.6386   -1.0515    0.3311 C   0  0  0  0  0  0  0  0  0  0  0  0
    3.5173    1.5568   -0.1241 C   0  0  0  0  0  0  0  0  0  0  0  0
    3.9718   -0.8129   -0.0025 C   0  0  0  0  0  0  0  0  0  0  0  0
    1.2424    2.4721    0.3175 C   0  0  0  0  0  0  0  0  0  0  0  0
    2.1883   -2.4549    0.5717 C   0  0  0  0  0  0  0  0  0  0  0  0
    4.4111    0.4913   -0.2303 C   0  0  0  0  0  0  0  0  0  0  0  0
  1  8  1  0
  1 12  1  0
  2  8  2  0
  3  4  1  0
  3  6  1  0
  3  7  1  0
  4  5  1  0
  4  8  1  0
  5  9  1  0
  6 10  1  0
  7 11  1  0
 12 13  2  0
 12 14  1  0
 13 15  1  0
 13 17  1  0
 14 16  2  0
 14 18  1  0
 15 19  2  0
 16 19  1  0
M  END
>  <PUBCHEM_COMPOUND_CID>  (1) 
15872

>  <PUBCHEM_CONFORMER_RMSD>  (1) 
0.8

>  <PUBCHEM_CONFORMER_DIVERSEORDER>  (1) 
3
45
26
52
20
60
48
57
47
43
54
38
40
46
56
36
39
50
61
55
21
35
5
32
51
31
49
58
10
53
29
22
44
9
11
7
30
41
14
16
23
18
34
24
6
13
28
27
19
33
12
4
8
59
15
42
17
2
25
1
37

>  <PUBCHEM_MMFF94_PARTIAL_CHARGES>  (1) 
18
1 -0.23
12 0.08
13 -0.14
14 -0.14
15 -0.15
16 -0.15
17 0.14
18 0.14
19 -0.15
2 -0.57
3 -0.81
36 0.15
37 0.15
4 0.33
44 0.15
6 0.27
7 0.27
8 0.66

>  <PUBCHEM_EFFECTIVE_ROTOR_COUNT>  (1) 
7

>  <PUBCHEM_PHARMACOPHORE_FEATURES>  (1) 
4
1 2 acceptor
1 3 cation
1 9 hydrophobe
6 12 13 14 15 16 19 rings

>  <PUBCHEM_HEAVY_ATOM_COUNT>  (1) 
19

>  <PUBCHEM_ATOM_DEF_STEREO_COUNT>  (1) 
0

>  <PUBCHEM_ATOM_UDEF_STEREO_COUNT>  (1) 
1

>  <PUBCHEM_BOND_DEF_STEREO_COUNT>  (1) 
0

>  <PUBCHEM_BOND_UDEF_STEREO_COUNT>  (1) 
0

>  <PUBCHEM_ISOTOPIC_ATOM_COUNT>  (1) 
0

>  <PUBCHEM_COMPONENT_COUNT>  (1) 
1

>  <PUBCHEM_CACTVS_TAUTO_COUNT>  (1) 
1

>  <PUBCHEM_CONFORMER_ID>  (1) 
00003E0000000003

>  <PUBCHEM_MMFF94_ENERGY>  (1) 
49.2489

>  <PUBCHEM_FEATURE_SELFOVERLAP>  (1) 
20.297

>  <PUBCHEM_SHAPE_FINGERPRINT>  (1) 
10366900 7 18041002872985821729
10980938 120 18409726257866267802
11552529 35 18198075861741543875
11715629 250 18335976541008057832
12251169 10 18342463659659162243
12403814 3 18409733980402160353
12500047 106 18339068311675324668
12507560 40 18114467751776461673
12553582 1 18267297643434709562
12633257 1 18343586235045254283
12932764 1 18410011048098788466
13583140 156 18259989249726347995
14178342 30 18196063703701215522
14289901 80 18334288786200703394
14965852 173 18342453793882114334
15375462 189 18334573521395494330
16752209 62 17489293248336935887
16945 1 18338222847294561040
18186145 218 18272934946897508656
18981168 100 18197187408473613616
19422 9 18200594825463129198
21501502 16 18341327902549485982
23493267 7 17560813155297530318
25 1 18334294271390892010
34934 24 18339630145438434816
5104073 3 18272086162654907738
58051976 100 18272090555831431511
6287921 2 18042693986400066932
74978 22 18342446054345557836
7832392 63 18411409605683774828

>  <PUBCHEM_SHAPE_MULTIPOLES>  (1) 
374.29
7.88
2.83
1.22
1.66
0.19
-0.22
-1.09
-1.18
-0.86
0.72
-1.37
0.18
-0.08

>  <PUBCHEM_SHAPE_SELFOVERLAP>  (1) 
757.239

>  <PUBCHEM_SHAPE_VOLUME>  (1) 
220.3

>  <PUBCHEM_COORDINATE_TYPE>  (1) 
2
5
10

$$$$
