15870
     RDKit          3D

 28 31  0  0  0  0  0  0  0  0999 V2000
    5.4518    0.6444   -2.4763 Cl  0  0  0  0  0  0  0  0  0  0  0  0
   -5.4515    0.6448    2.4763 Cl  0  0  0  0  0  0  0  0  0  0  0  0
    3.3573   -0.7694    0.1329 N   0  0  0  0  0  0  0  0  0  0  0  0
   -3.3573   -0.7693   -0.1328 N   0  0  0  0  0  0  0  0  0  0  0  0
    1.3128   -2.1277    0.0429 C   0  0  0  0  0  0  0  0  0  0  0  0
   -1.3127   -2.1276   -0.0428 C   0  0  0  0  0  0  0  0  0  0  0  0
    0.8078   -1.4064   -1.2258 C   0  0  0  0  0  0  0  0  0  0  0  0
    0.7671   -3.5722    0.0260 C   0  0  0  0  0  0  0  0  0  0  0  0
    0.7264   -1.4047    1.2749 C   0  0  0  0  0  0  0  0  0  0  0  0
   -0.7263   -1.4049   -1.2750 C   0  0  0  0  0  0  0  0  0  0  0  0
   -0.7670   -3.5721   -0.0255 C   0  0  0  0  0  0  0  0  0  0  0  0
   -0.8077   -1.4057    1.2255 C   0  0  0  0  0  0  0  0  0  0  0  0
    2.8414   -2.1281    0.0925 C   0  0  0  0  0  0  0  0  0  0  0  0
   -2.8413   -2.1281   -0.0924 C   0  0  0  0  0  0  0  0  0  0  0  0
    4.8137   -0.7638    0.1909 C   0  0  0  0  0  0  0  0  0  0  0  0
   -4.8137   -0.7638   -0.1907 C   0  0  0  0  0  0  0  0  0  0  0  0
    5.3675    0.6351    0.2480 C   0  0  0  0  0  0  0  0  0  0  0  0
   -5.3675    0.6351   -0.2479 C   0  0  0  0  0  0  0  0  0  0  0  0
    5.6794    1.3349   -0.9108 C   0  0  0  0  0  0  0  0  0  0  0  0
   -5.6794    1.3349    0.9108 C   0  0  0  0  0  0  0  0  0  0  0  0
    5.5583    1.2096    1.4989 C   0  0  0  0  0  0  0  0  0  0  0  0
   -5.5585    1.2093   -1.4989 C   0  0  0  0  0  0  0  0  0  0  0  0
    6.1902    2.6296   -0.8177 C   0  0  0  0  0  0  0  0  0  0  0  0
   -6.1903    2.6296    0.8175 C   0  0  0  0  0  0  0  0  0  0  0  0
    6.0693    2.5042    1.5919 C   0  0  0  0  0  0  0  0  0  0  0  0
   -6.0695    2.5039   -1.5920 C   0  0  0  0  0  0  0  0  0  0  0  0
    6.3853    3.2142    0.4337 C   0  0  0  0  0  0  0  0  0  0  0  0
   -6.3854    3.2140   -0.4339 C   0  0  0  0  0  0  0  0  0  0  0  0
  1 19  1  0
  2 20  1  0
  3 13  1  0
  3 15  1  0
  4 14  1  0
  4 16  1  0
  5  7  1  0
  5  8  1  0
  5  9  1  0
  5 13  1  0
  6 10  1  0
  6 11  1  0
  6 12  1  0
  6 14  1  0
  7 10  1  0
  8 11  1  0
  9 12  1  0
 15 17  1  0
 16 18  1  0
 17 19  2  0
 17 21  1  0
 18 20  2  0
 18 22  1  0
 19 23  1  0
 20 24  1  0
 21 25  2  0
 22 26  2  0
 23 27  2  0
 24 28  2  0
 25 27  1  0
 26 28  1  0
M  END
>  <PUBCHEM_COMPOUND_CID>  (1) 
15870

>  <PUBCHEM_CONFORMER_RMSD>  (1) 
1

>  <PUBCHEM_CONFORMER_DIVERSEORDER>  (1) 
5
28
29
8
32
13
30
11
6
27
1
18
2
10
17
16
19
4
22
26
3
24
21
7
25
20
23
15
12
31
14
9

>  <PUBCHEM_MMFF94_PARTIAL_CHARGES>  (1) 
30
1 -0.18
13 0.27
14 0.27
15 0.41
16 0.41
17 -0.14
18 -0.14
19 0.18
2 -0.18
20 0.18
21 -0.15
22 -0.15
23 -0.15
24 -0.15
25 -0.15
26 -0.15
27 -0.15
28 -0.15
3 -0.9
4 -0.9
45 0.36
46 0.36
51 0.15
52 0.15
53 0.15
54 0.15
55 0.15
56 0.15
57 0.15
58 0.15

>  <PUBCHEM_EFFECTIVE_ROTOR_COUNT>  (1) 
9.2

>  <PUBCHEM_PHARMACOPHORE_FEATURES>  (1) 
7
1 3 cation
1 3 donor
1 4 cation
1 4 donor
6 17 19 21 23 25 27 rings
6 18 20 22 24 26 28 rings
8 5 6 7 8 9 10 11 12 rings

>  <PUBCHEM_HEAVY_ATOM_COUNT>  (1) 
28

>  <PUBCHEM_ATOM_DEF_STEREO_COUNT>  (1) 
0

>  <PUBCHEM_ATOM_UDEF_STEREO_COUNT>  (1) 
0

>  <PUBCHEM_BOND_DEF_STEREO_COUNT>  (1) 
0

>  <PUBCHEM_BOND_UDEF_STEREO_COUNT>  (1) 
0

>  <PUBCHEM_ISOTOPIC_ATOM_COUNT>  (1) 
0

>  <PUBCHEM_COMPONENT_COUNT>  (1) 
1

>  <PUBCHEM_CACTVS_TAUTO_COUNT>  (1) 
1

>  <PUBCHEM_CONFORMER_ID>  (1) 
00003DFE00000005

>  <PUBCHEM_MMFF94_ENERGY>  (1) 
78.1199

>  <PUBCHEM_FEATURE_SELFOVERLAP>  (1) 
35.522

>  <PUBCHEM_SHAPE_FINGERPRINT>  (1) 
10055352 69 18272376365648969137
10554248 39 17845652543142228886
10556698 54 16844995815491854505
10622 236 11958916788044524292
11135609 201 18411141346970397787
11475781 23 17988923397125512576
11497681 19 9943530739370039562
12422481 6 17458061547297572814
12975358 362 18117292367501367637
13627167 48 17917438570993710969
13690498 29 17058636590194669103
13911852 28 8862938377364715027
14202776 33 17987788756775951471
14565420 104 18187079512306970747
14790565 3 18410855464423168067
14951699 99 18041006132560102471
15475509 35 11097869492420638470
15803439 3 16702019807366637894
16989378 47 12247674980662787860
20058555 10 18411416198553799033
20398071 356 9151169878924380845
20691028 202 18409445865089784813
20715895 44 18412258446325330634
20775438 99 13182435825515342874
21033648 29 17822860771664104227
21424621 283 18410292536082032138
21585482 111 18334574612191119804
21599406 157 14620793812161700261
229767 8 10882494900183811416
23191077 185 18340192081200416799
23569914 152 17486513503164760758
2748736 6 18410844465012163365
2838139 119 18342735187191012878
328310 630 18130790036456276433
3610482 184 16128103226850128555
3862424 121 12822434870515431173
3918712 181 18341322340556970616
392239 28 15213020474764750399
4258327 124 18342731881247882805
44249763 50 17702089473481148670
474113 269 11170205289382432289
50009960 94 10519436126479455100
5219985 13 18410290319836969550
59682541 52 16487264248891762788
6036956 94 18126570016646612369
6058803 2 18194655190225268614
636775 72 18124027086637404616
6712543 237 15140679164162578873
6898599 12 18130220562094566079

>  <PUBCHEM_SHAPE_MULTIPOLES>  (1) 
570
21.09
4.54
1.8
0
0.15
0
-28.14
0
0
0
0
-0.89
1.05

>  <PUBCHEM_SHAPE_SELFOVERLAP>  (1) 
1198.588

>  <PUBCHEM_SHAPE_VOLUME>  (1) 
319.7

>  <PUBCHEM_COORDINATE_TYPE>  (1) 
2
5
10

$$$$
