15875
     RDKit          3D

 11 11  0  0  0  0  0  0  0  0999 V2000
    3.3006   -0.1567    0.0014 O   0  0  0  0  0  0  0  0  0  0  0  0
    2.3495    1.9077   -0.0003 O   0  0  0  0  0  0  0  0  0  0  0  0
   -3.6913    1.2770    0.0002 N   0  0  0  0  0  0  0  0  0  0  0  0
    0.9621   -0.0416   -0.0007 C   0  0  0  0  0  0  0  0  0  0  0  0
   -0.2423    0.6619   -0.0003 C   0  0  0  0  0  0  0  0  0  0  0  0
    0.9550   -1.4364   -0.0006 C   0  0  0  0  0  0  0  0  0  0  0  0
   -1.4539   -0.0294    0.0003 C   0  0  0  0  0  0  0  0  0  0  0  0
   -0.2565   -2.1278   -0.0002 C   0  0  0  0  0  0  0  0  0  0  0  0
   -1.4609   -1.4243    0.0003 C   0  0  0  0  0  0  0  0  0  0  0  0
    2.2257    0.6784   -0.0003 C   0  0  0  0  0  0  0  0  0  0  0  0
   -2.6880    0.6912    0.0002 C   0  0  0  0  0  0  0  0  0  0  0  0
  1 10  1  0
  2 10  2  0
  3 11  3  0
  4  5  2  0
  4  6  1  0
  4 10  1  0
  5  7  1  0
  6  8  2  0
  7  9  2  0
  7 11  1  0
  8  9  1  0
M  END
>  <PUBCHEM_COMPOUND_CID>  (1) 
15875

>  <PUBCHEM_CONFORMER_RMSD>  (1) 
0.4

>  <PUBCHEM_CONFORMER_DIVERSEORDER>  (1) 
1
2

>  <PUBCHEM_MMFF94_PARTIAL_CHARGES>  (1) 
16
1 -0.65
10 0.63
11 0.48
12 0.15
13 0.15
14 0.15
15 0.15
16 0.5
2 -0.57
3 -0.56
4 0.09
5 -0.15
6 -0.15
7 0.07
8 -0.15
9 -0.15

>  <PUBCHEM_EFFECTIVE_ROTOR_COUNT>  (1) 
1

>  <PUBCHEM_PHARMACOPHORE_FEATURES>  (1) 
5
1 1 acceptor
1 2 acceptor
1 3 acceptor
3 1 2 10 anion
6 4 5 6 7 8 9 rings

>  <PUBCHEM_HEAVY_ATOM_COUNT>  (1) 
11

>  <PUBCHEM_ATOM_DEF_STEREO_COUNT>  (1) 
0

>  <PUBCHEM_ATOM_UDEF_STEREO_COUNT>  (1) 
0

>  <PUBCHEM_BOND_DEF_STEREO_COUNT>  (1) 
0

>  <PUBCHEM_BOND_UDEF_STEREO_COUNT>  (1) 
0

>  <PUBCHEM_ISOTOPIC_ATOM_COUNT>  (1) 
0

>  <PUBCHEM_COMPONENT_COUNT>  (1) 
1

>  <PUBCHEM_CACTVS_TAUTO_COUNT>  (1) 
1

>  <PUBCHEM_CONFORMER_ID>  (1) 
00003E0300000001

>  <PUBCHEM_MMFF94_ENERGY>  (1) 
25.7121

>  <PUBCHEM_FEATURE_SELFOVERLAP>  (1) 
25.429

>  <PUBCHEM_SHAPE_FINGERPRINT>  (1) 
1 1 18338515235867813951
13380535 76 18410853244178634415
14325111 11 18410855498793507905
14897335 6 18412537700308206759
15775835 57 18333172773487982540
16945 1 18338797805971442598
19973954 147 18122064466491132740
20653085 51 18337400434224782530
20871998 184 17983023537299211727
21028194 46 18408891749741309153
21040471 1 18410856594020821830
21524375 3 18410289207645680679
23235685 24 18410849936868881865
23402655 69 18197766723223097845
23552423 10 18116993497626441630
23559900 14 18272094916383779820
241688 4 16971115064679706035
2748010 2 18339085998340255878
369184 2 18198344159351868498
528862 383 18189890916283705075
528886 8 18411132519878511819

>  <PUBCHEM_SHAPE_MULTIPOLES>  (1) 
209.66
4.56
1.94
0.59
0.81
0.55
0
-2.57
0
0.01
0
0.02
0.03
0

>  <PUBCHEM_SHAPE_SELFOVERLAP>  (1) 
443.41

>  <PUBCHEM_SHAPE_VOLUME>  (1) 
115.8

>  <PUBCHEM_COORDINATE_TYPE>  (1) 
2
5
10

$$$$
