15877
     RDKit          3D

  6  5  0  0  1  0  0  0  0  0999 V2000
    1.8016    1.2924    0.5609 S   0  0  0  0  0  0  0  0  0  0  0  0
   -0.0566   -0.6355   -0.4083 C   0  0  0  0  0  0  0  0  0  0  0  0
   -1.2222   -0.2262    0.5143 C   0  0  0  0  0  0  0  0  0  0  0  0
    0.8813    0.5206   -0.8068 C   0  0  0  0  0  0  0  0  0  0  0  0
    0.7107   -1.8090    0.2130 C   0  0  0  0  0  0  0  0  0  0  0  0
   -2.1148    0.8578   -0.0731 C   0  0  0  0  0  0  0  0  0  0  0  0
  1  4  1  0
  2  3  1  0
  2  4  1  0
  2  5  1  0
  3  6  1  0
M  END
>  <PUBCHEM_COMPOUND_CID>  (1) 
15877

>  <PUBCHEM_CONFORMER_RMSD>  (1) 
0.4

>  <PUBCHEM_CONFORMER_DIVERSEORDER>  (1) 
2
12
16
13
15
17
14
6
1
7
11
9
4
3
10
5
8

>  <PUBCHEM_MMFF94_PARTIAL_CHARGES>  (1) 
3
1 -0.41
18 0.18
4 0.23

>  <PUBCHEM_EFFECTIVE_ROTOR_COUNT>  (1) 
2

>  <PUBCHEM_PHARMACOPHORE_FEATURES>  (1) 
2
1 5 hydrophobe
1 6 hydrophobe

>  <PUBCHEM_HEAVY_ATOM_COUNT>  (1) 
6

>  <PUBCHEM_ATOM_DEF_STEREO_COUNT>  (1) 
0

>  <PUBCHEM_ATOM_UDEF_STEREO_COUNT>  (1) 
1

>  <PUBCHEM_BOND_DEF_STEREO_COUNT>  (1) 
0

>  <PUBCHEM_BOND_UDEF_STEREO_COUNT>  (1) 
0

>  <PUBCHEM_ISOTOPIC_ATOM_COUNT>  (1) 
0

>  <PUBCHEM_COMPONENT_COUNT>  (1) 
1

>  <PUBCHEM_CACTVS_TAUTO_COUNT>  (1) 
1

>  <PUBCHEM_CONFORMER_ID>  (1) 
00003E0500000002

>  <PUBCHEM_MMFF94_ENERGY>  (1) 
5.0453

>  <PUBCHEM_FEATURE_SELFOVERLAP>  (1) 
10.149

>  <PUBCHEM_SHAPE_FINGERPRINT>  (1) 
137420 1 8952707363984563743
20096714 4 18343590650197645053
21040471 1 18337118984954637076
23552449 1 17405704160898091404
23552449 11 18119238476741852219
24536 1 17531544121638068261
29004967 10 17901674760763467987
5084963 1 18198080246274833188
5943 1 13959900844790944710

>  <PUBCHEM_SHAPE_MULTIPOLES>  (1) 
127.33
2.43
1.71
0.87
0.35
0.68
-0.04
-1.4
0.33
-0.39
0.19
-0.15
-0.07
0.14

>  <PUBCHEM_SHAPE_SELFOVERLAP>  (1) 
209.218

>  <PUBCHEM_SHAPE_VOLUME>  (1) 
88.7

>  <PUBCHEM_COORDINATE_TYPE>  (1) 
2
5
10

$$$$
