15898
     RDKit          3D

 14 15  0  0  1  0  0  0  0  0999 V2000
    1.6850    1.1822   -1.6695 O   0  0  0  0  0  0  0  0  0  0  0  0
    2.3724    0.5652    0.4936 N   0  0  0  0  0  0  0  0  0  0  0  0
    0.7384   -0.5557   -0.0589 C   0  0  0  0  0  0  0  0  0  0  0  0
    1.6228   -0.4701    1.1861 C   0  0  0  0  0  0  0  0  0  0  0  0
    1.6187    0.5543   -0.6372 C   0  0  0  0  0  0  0  0  0  0  0  0
    0.7963   -1.8633   -0.7996 C   0  0  0  0  0  0  0  0  0  0  0  0
   -0.7310   -0.0682    0.0351 C   0  0  0  0  0  0  0  0  0  0  0  0
    3.5230    1.3101    0.8931 C   0  0  0  0  0  0  0  0  0  0  0  0
   -0.0420   -2.9448   -0.1261 C   0  0  0  0  0  0  0  0  0  0  0  0
   -1.4102    0.3260   -1.1177 C   0  0  0  0  0  0  0  0  0  0  0  0
   -1.3733   -0.0238    1.2726 C   0  0  0  0  0  0  0  0  0  0  0  0
   -2.7316    0.7646   -1.0329 C   0  0  0  0  0  0  0  0  0  0  0  0
   -2.6947    0.4146    1.3572 C   0  0  0  0  0  0  0  0  0  0  0  0
   -3.3740    0.8089    0.2044 C   0  0  0  0  0  0  0  0  0  0  0  0
  1  5  2  0
  2  4  1  0
  2  5  1  0
  2  8  1  0
  3  4  1  0
  3  5  1  0
  3  6  1  0
  3  7  1  0
  6  9  1  0
  7 10  2  0
  7 11  1  0
 10 12  1  0
 11 13  2  0
 12 14  2  0
 13 14  1  0
M  END
>  <PUBCHEM_COMPOUND_CID>  (1) 
15898

>  <PUBCHEM_CONFORMER_RMSD>  (1) 
0.6

>  <PUBCHEM_CONFORMER_DIVERSEORDER>  (1) 
1
3
4
7
2
6
5

>  <PUBCHEM_MMFF94_PARTIAL_CHARGES>  (1) 
17
1 -0.57
10 -0.15
11 -0.15
12 -0.15
13 -0.15
14 -0.15
2 -0.59
25 0.15
26 0.15
27 0.15
28 0.15
29 0.15
3 0.16
4 0.22
5 0.58
7 -0.11
8 0.3

>  <PUBCHEM_EFFECTIVE_ROTOR_COUNT>  (1) 
2.6

>  <PUBCHEM_PHARMACOPHORE_FEATURES>  (1) 
4
1 1 acceptor
1 9 hydrophobe
4 2 3 4 5 rings
6 7 10 11 12 13 14 rings

>  <PUBCHEM_HEAVY_ATOM_COUNT>  (1) 
14

>  <PUBCHEM_ATOM_DEF_STEREO_COUNT>  (1) 
0

>  <PUBCHEM_ATOM_UDEF_STEREO_COUNT>  (1) 
1

>  <PUBCHEM_BOND_DEF_STEREO_COUNT>  (1) 
0

>  <PUBCHEM_BOND_UDEF_STEREO_COUNT>  (1) 
0

>  <PUBCHEM_ISOTOPIC_ATOM_COUNT>  (1) 
0

>  <PUBCHEM_COMPONENT_COUNT>  (1) 
1

>  <PUBCHEM_CACTVS_TAUTO_COUNT>  (1) 
1

>  <PUBCHEM_CONFORMER_ID>  (1) 
00003E1A00000001

>  <PUBCHEM_MMFF94_ENERGY>  (1) 
32.8177

>  <PUBCHEM_FEATURE_SELFOVERLAP>  (1) 
20.297

>  <PUBCHEM_SHAPE_FINGERPRINT>  (1) 
1 1 18339641135806493406
10219947 1 18335129852603514268
12119455 92 18262217972353723472
12138202 97 17488741336638674062
12251169 10 16732983145441678328
12326174 3 18118120277511177690
12423570 1 8037964344725020482
12491281 212 15410629093907149299
12696612 119 17168152246981618861
12897270 3 14692564450775666929
13299463 15 13686300218171121332
13571099 52 18334849472949173533
14617773 55 17612025280409712726
14817 1 17767987675851608855
15309172 13 18408600370395921088
15775835 57 17989202629475205841
15852999 172 18334847304011924699
16945 1 18125992767881093222
17804303 29 15430312482200594320
18186145 218 18060706091301592412
19765921 60 17846773009925432795
21061003 4 17833276319863812307
21524375 3 18060410339784784328
23236772 104 17346311622563092969
23402539 116 17489580182417240656
23419403 2 14496049631081492523
23559900 14 16517081801720460794
2748010 2 18338254720342342951
305870 269 18270679766475043656
369184 2 16443349788653679753
68419 9 17681843143592251598
7364860 26 17986957336378763990
81228 2 17835807769340560746

>  <PUBCHEM_SHAPE_MULTIPOLES>  (1) 
277.26
4.73
1.9
1.44
0.58
1.94
-0.08
-3
0.79
-0.83
-0.12
0.17
-0.33
0.12

>  <PUBCHEM_SHAPE_SELFOVERLAP>  (1) 
585.354

>  <PUBCHEM_SHAPE_VOLUME>  (1) 
156.6

>  <PUBCHEM_COORDINATE_TYPE>  (1) 
2
5
10

$$$$
