15903
     RDKit          3D

  8  9  0  0  1  0  0  0  0  0999 V2000
   -2.9386   -0.1665    0.5765 O   0  0  0  0  0  0  0  0  0  0  0  0
    2.9385   -0.1682   -0.5761 O   0  0  0  0  0  0  0  0  0  0  0  0
   -1.9272    0.4827   -0.1757 C   0  0  0  0  0  0  0  0  0  0  0  0
    1.9273    0.4832    0.1742 C   0  0  0  0  0  0  0  0  0  0  0  0
   -0.5695    0.4697    0.5082 C   0  0  0  0  0  0  0  0  0  0  0  0
    0.5695    0.4681   -0.5094 C   0  0  0  0  0  0  0  0  0  0  0  0
   -2.5289   -0.7855   -0.6497 C   0  0  0  0  0  0  0  0  0  0  0  0
    2.5290   -0.7835    0.6521 C   0  0  0  0  0  0  0  0  0  0  0  0
  1  3  1  0
  1  7  1  0
  2  4  1  0
  2  8  1  0
  3  5  1  0
  3  7  1  0
  4  6  1  0
  4  8  1  0
  5  6  1  0
M  END
>  <PUBCHEM_COMPOUND_CID>  (1) 
15903

>  <PUBCHEM_CONFORMER_RMSD>  (1) 
0.6

>  <PUBCHEM_CONFORMER_DIVERSEORDER>  (1) 
2
30
28
12
33
9
32
3
34
7
23
6
22
15
1
31
24
25
21
14
29
26
17
18
8
20
27
11
5
16
10
4
13
19

>  <PUBCHEM_MMFF94_PARTIAL_CHARGES>  (1) 
14
1 -0.3
10 0.1
15 0.1
16 0.1
17 0.1
18 0.1
2 -0.3
3 -0.05
4 -0.05
5 0.09
6 0.09
7 -0.05
8 -0.05
9 0.1

>  <PUBCHEM_EFFECTIVE_ROTOR_COUNT>  (1) 
4.2

>  <PUBCHEM_PHARMACOPHORE_FEATURES>  (1) 
2
1 1 acceptor
1 2 acceptor

>  <PUBCHEM_HEAVY_ATOM_COUNT>  (1) 
8

>  <PUBCHEM_ATOM_DEF_STEREO_COUNT>  (1) 
0

>  <PUBCHEM_ATOM_UDEF_STEREO_COUNT>  (1) 
2

>  <PUBCHEM_BOND_DEF_STEREO_COUNT>  (1) 
0

>  <PUBCHEM_BOND_UDEF_STEREO_COUNT>  (1) 
0

>  <PUBCHEM_ISOTOPIC_ATOM_COUNT>  (1) 
0

>  <PUBCHEM_COMPONENT_COUNT>  (1) 
1

>  <PUBCHEM_CACTVS_TAUTO_COUNT>  (1) 
1

>  <PUBCHEM_CONFORMER_ID>  (1) 
00003E1F00000002

>  <PUBCHEM_MMFF94_ENERGY>  (1) 
9.946

>  <PUBCHEM_FEATURE_SELFOVERLAP>  (1) 
10.149

>  <PUBCHEM_SHAPE_FINGERPRINT>  (1) 
10857977 72 16558742442739822307
11062470 55 18408884035837763613
12897270 3 15719388425711881983
12932764 1 18410570686616775684
14390081 3 11530481133797589759
21293036 1 15430040975890248653
29004967 10 17967813851249550048
5460574 1 15626225710268616160

>  <PUBCHEM_SHAPE_MULTIPOLES>  (1) 
152.9
5.07
0.89
0.84
0
0.07
0
1.17
0
0
0
0
0.05
-0.25

>  <PUBCHEM_SHAPE_SELFOVERLAP>  (1) 
293.39

>  <PUBCHEM_SHAPE_VOLUME>  (1) 
94.9

>  <PUBCHEM_COORDINATE_TYPE>  (1) 
2
5
10

$$$$
