15904
     RDKit          3D

 11 11  0  0  0  0  0  0  0  0999 V2000
    0.7058   -2.2391   -0.2379 O   0  0  0  0  0  0  0  0  0  0  0  0
    2.2175    1.6496    0.0489 O   0  0  0  0  0  0  0  0  0  0  0  0
    0.5093    0.0926   -0.3496 N   0  0  0  0  0  0  0  0  0  0  0  0
   -2.5292    0.8609    0.3432 C   0  0  0  0  0  0  0  0  0  0  0  0
   -1.2973    1.7323    0.1133 C   0  0  0  0  0  0  0  0  0  0  0  0
   -2.2151   -0.5730    0.7610 C   0  0  0  0  0  0  0  0  0  0  0  0
   -0.3344    1.1538   -0.9197 C   0  0  0  0  0  0  0  0  0  0  0  0
   -1.5037   -1.3747   -0.3249 C   0  0  0  0  0  0  0  0  0  0  0  0
    0.0083   -1.2228   -0.2798 C   0  0  0  0  0  0  0  0  0  0  0  0
    1.7859    0.4950    0.1137 C   0  0  0  0  0  0  0  0  0  0  0  0
    2.6528   -0.5746    0.7317 C   0  0  0  0  0  0  0  0  0  0  0  0
  1  9  2  0
  2 10  2  0
  3  7  1  0
  3  9  1  0
  3 10  1  0
  4  5  1  0
  4  6  1  0
  5  7  1  0
  6  8  1  0
  8  9  1  0
 10 11  1  0
M  END
>  <PUBCHEM_COMPOUND_CID>  (1) 
15904

>  <PUBCHEM_CONFORMER_RMSD>  (1) 
0.6

>  <PUBCHEM_CONFORMER_DIVERSEORDER>  (1) 
1
5
3
4
6
2

>  <PUBCHEM_MMFF94_PARTIAL_CHARGES>  (1) 
8
1 -0.57
10 0.57
11 0.06
2 -0.57
3 -0.42
7 0.3
8 0.06
9 0.57

>  <PUBCHEM_EFFECTIVE_ROTOR_COUNT>  (1) 
2.2

>  <PUBCHEM_PHARMACOPHORE_FEATURES>  (1) 
3
1 1 acceptor
1 2 acceptor
7 3 4 5 6 7 8 9 rings

>  <PUBCHEM_HEAVY_ATOM_COUNT>  (1) 
11

>  <PUBCHEM_ATOM_DEF_STEREO_COUNT>  (1) 
0

>  <PUBCHEM_ATOM_UDEF_STEREO_COUNT>  (1) 
0

>  <PUBCHEM_BOND_DEF_STEREO_COUNT>  (1) 
0

>  <PUBCHEM_BOND_UDEF_STEREO_COUNT>  (1) 
0

>  <PUBCHEM_ISOTOPIC_ATOM_COUNT>  (1) 
0

>  <PUBCHEM_COMPONENT_COUNT>  (1) 
1

>  <PUBCHEM_CACTVS_TAUTO_COUNT>  (1) 
1

>  <PUBCHEM_CONFORMER_ID>  (1) 
00003E2000000001

>  <PUBCHEM_MMFF94_ENERGY>  (1) 
22.6667

>  <PUBCHEM_FEATURE_SELFOVERLAP>  (1) 
15.223

>  <PUBCHEM_SHAPE_FINGERPRINT>  (1) 
12423570 1 9932088030662985615
12696612 119 18337110055854856626
15076042 46 18410855460270820648
15775835 57 18342183313958345696
16945 1 18339365154124173951
18185500 45 17616813674701643142
21040471 1 18339932523562052197
23552423 10 18187928451368458532
241688 4 17114666211858971577
2748010 2 18410014376719561597
29004967 10 16299218171969142612
5084963 1 17988925582546259450
54338 74 17980466086195486891
66348 1 17979073017705474409

>  <PUBCHEM_SHAPE_MULTIPOLES>  (1) 
209.66
3.5
2.05
0.83
0.66
0.25
-0.01
-0.48
-1.04
0
0.21
-0.07
-0.01
-0.05

>  <PUBCHEM_SHAPE_SELFOVERLAP>  (1) 
413.268

>  <PUBCHEM_SHAPE_VOLUME>  (1) 
123.8

>  <PUBCHEM_COORDINATE_TYPE>  (1) 
2
5
10

$$$$
