15906
     RDKit          3D

  8  7  0  0  0  0  0  0  0  0999 V2000
    0.4549   -0.4508   -0.9205 S   0  0  0  0  0  0  0  0  0  0  0  0
   -0.4583   -0.4330    0.9199 S   0  0  0  0  0  0  0  0  0  0  0  0
    3.3282   -0.8052    0.1449 O   0  0  0  0  0  0  0  0  0  0  0  0
   -3.3290   -0.8060   -0.1280 O   0  0  0  0  0  0  0  0  0  0  0  0
    1.7466    0.8100   -0.6954 C   0  0  0  0  0  0  0  0  0  0  0  0
   -1.7422    0.8192    0.6825 C   0  0  0  0  0  0  0  0  0  0  0  0
    2.6971    0.4359    0.4312 C   0  0  0  0  0  0  0  0  0  0  0  0
   -2.6974    0.4300   -0.4347 C   0  0  0  0  0  0  0  0  0  0  0  0
  1  2  1  0
  1  5  1  0
  2  6  1  0
  3  7  1  0
  4  8  1  0
  5  7  1  0
  6  8  1  0
M  END
>  <PUBCHEM_COMPOUND_CID>  (1) 
15906

>  <PUBCHEM_CONFORMER_RMSD>  (1) 
0.6

>  <PUBCHEM_CONFORMER_DIVERSEORDER>  (1) 
1
62
63
38
70
64
99
8
3
100
93
5
14
95
58
101
47
60
74
65
98
20
96
77
21
87
97
67
86
39
53
71
9
40
92
85
69
75
30
15
27
88
91
12
56
50
57
49
54
89
18
90
44
66
46
31
79
59
83
17
26
42
48
41
22
7
94
76
23
68
32
10
78
81
36
6
84
80
24
28
45
72
29
73
25
43
16
4
51
82
19
52
37
55
13
11
61
33
2
34
35

>  <PUBCHEM_MMFF94_PARTIAL_CHARGES>  (1) 
10
1 -0.23
17 0.4
18 0.4
2 -0.23
3 -0.68
4 -0.68
5 0.23
6 0.23
7 0.28
8 0.28

>  <PUBCHEM_EFFECTIVE_ROTOR_COUNT>  (1) 
5

>  <PUBCHEM_PHARMACOPHORE_FEATURES>  (1) 
5
1 3 acceptor
1 3 donor
1 4 acceptor
1 4 donor
4 1 2 5 6 hydrophobe

>  <PUBCHEM_HEAVY_ATOM_COUNT>  (1) 
8

>  <PUBCHEM_ATOM_DEF_STEREO_COUNT>  (1) 
0

>  <PUBCHEM_ATOM_UDEF_STEREO_COUNT>  (1) 
0

>  <PUBCHEM_BOND_DEF_STEREO_COUNT>  (1) 
0

>  <PUBCHEM_BOND_UDEF_STEREO_COUNT>  (1) 
0

>  <PUBCHEM_ISOTOPIC_ATOM_COUNT>  (1) 
0

>  <PUBCHEM_COMPONENT_COUNT>  (1) 
1

>  <PUBCHEM_CACTVS_TAUTO_COUNT>  (1) 
1

>  <PUBCHEM_CONFORMER_ID>  (1) 
00003E2200000001

>  <PUBCHEM_MMFF94_ENERGY>  (1) 
-0.9953

>  <PUBCHEM_FEATURE_SELFOVERLAP>  (1) 
25.371

>  <PUBCHEM_SHAPE_FINGERPRINT>  (1) 
12897270 3 17418380172872812173
12932741 1 15575007211646356997
14325111 11 18410855464454894528
14390081 3 16988849336805593961
177051 138 18341895198978103918
18342897 137 17095529516888663834
20651381 17 18411138034616500230
20651381 32 14562521873458421400
29004967 10 13110964223175979269
5084963 1 18334858315943970576
57812782 119 18410569587110260260

>  <PUBCHEM_SHAPE_MULTIPOLES>  (1) 
160.6
5.35
1.05
1.01
0
0
0.02
0
-0.39
0
-0.01
0.01
0
0.13

>  <PUBCHEM_SHAPE_SELFOVERLAP>  (1) 
259.92

>  <PUBCHEM_SHAPE_VOLUME>  (1) 
112.7

>  <PUBCHEM_COORDINATE_TYPE>  (1) 
2
5
10

$$$$
