15901
     RDKit          3D

  9  8  0  0  0  0  0  0  0  0999 V2000
    0.5038   -1.7242   -0.2828 O   0  0  0  0  0  0  0  0  0  0  0  0
   -1.9890    0.3187    0.3860 C   0  0  0  0  0  0  0  0  0  0  0  0
   -0.7621   -0.2330    1.1274 C   0  0  0  0  0  0  0  0  0  0  0  0
    1.4384    0.4908   -0.0426 C   0  0  0  0  0  0  0  0  0  0  0  0
    0.3938   -0.5983    0.2031 C   0  0  0  0  0  0  0  0  0  0  0  0
   -2.5145   -0.6824   -0.6458 C   0  0  0  0  0  0  0  0  0  0  0  0
   -1.6340    1.6364   -0.3054 C   0  0  0  0  0  0  0  0  0  0  0  0
    2.5388    0.4072    1.0086 C   0  0  0  0  0  0  0  0  0  0  0  0
    2.0248    0.3847   -1.4485 C   0  0  0  0  0  0  0  0  0  0  0  0
  1  5  2  0
  2  3  1  0
  2  6  1  0
  2  7  1  0
  3  5  1  0
  4  5  1  0
  4  8  1  0
  4  9  1  0
M  END
>  <PUBCHEM_COMPOUND_CID>  (1) 
15901

>  <PUBCHEM_CONFORMER_RMSD>  (1) 
0.6

>  <PUBCHEM_CONFORMER_DIVERSEORDER>  (1) 
1
3
6
5
2
7
4

>  <PUBCHEM_MMFF94_PARTIAL_CHARGES>  (1) 
4
1 -0.57
3 0.06
4 0.06
5 0.45

>  <PUBCHEM_EFFECTIVE_ROTOR_COUNT>  (1) 
3

>  <PUBCHEM_PHARMACOPHORE_FEATURES>  (1) 
3
1 1 acceptor
3 2 6 7 hydrophobe
3 4 8 9 hydrophobe

>  <PUBCHEM_HEAVY_ATOM_COUNT>  (1) 
9

>  <PUBCHEM_ATOM_DEF_STEREO_COUNT>  (1) 
0

>  <PUBCHEM_ATOM_UDEF_STEREO_COUNT>  (1) 
0

>  <PUBCHEM_BOND_DEF_STEREO_COUNT>  (1) 
0

>  <PUBCHEM_BOND_UDEF_STEREO_COUNT>  (1) 
0

>  <PUBCHEM_ISOTOPIC_ATOM_COUNT>  (1) 
0

>  <PUBCHEM_COMPONENT_COUNT>  (1) 
1

>  <PUBCHEM_CACTVS_TAUTO_COUNT>  (1) 
3

>  <PUBCHEM_CONFORMER_ID>  (1) 
00003E1D00000001

>  <PUBCHEM_MMFF94_ENERGY>  (1) 
10.2265

>  <PUBCHEM_FEATURE_SELFOVERLAP>  (1) 
15.223

>  <PUBCHEM_SHAPE_FINGERPRINT>  (1) 
12897270 3 18341890805548034205
12932764 1 18201446847789260243
14390081 3 18343016662352541409
15310529 11 14908189658987332473
15775835 57 18343022185527373208
20651381 17 17968362516067703507
21040471 1 18409454686809893578
21922407 69 12542423300540839305
23211744 41 17702647969247444720
23235685 24 18041295312840212197
23552423 10 18189336762623746403
24536 1 17822305539001996649
29004967 10 15195287563884817922
5084963 1 18201732763925659292

>  <PUBCHEM_SHAPE_MULTIPOLES>  (1) 
179.35
3.64
1.33
1.19
0.06
0.07
-0.09
0.55
-0.22
-0.39
-0.19
0.49
0.03
-0.15

>  <PUBCHEM_SHAPE_SELFOVERLAP>  (1) 
327.633

>  <PUBCHEM_SHAPE_VOLUME>  (1) 
115.9

>  <PUBCHEM_COORDINATE_TYPE>  (1) 
2
5
10

$$$$
