15900
     RDKit          3D

 22 22  0  0  0  0  0  0  0  0999 V2000
    4.6778    1.2255   -0.0025 S   0  0  0  0  0  0  0  0  0  0  0  0
    3.2604    0.4119   -0.0069 O   0  0  0  0  0  0  0  0  0  0  0  0
    4.8233    1.9165    1.2639 O   0  0  0  0  0  0  0  0  0  0  0  0
    4.7921    1.9284   -1.2665 O   0  0  0  0  0  0  0  0  0  0  0  0
   -4.1989   -0.3295    0.0243 C   0  0  0  0  0  0  0  0  0  0  0  0
   -5.5666    0.3617    0.0060 C   0  0  0  0  0  0  0  0  0  0  0  0
   -3.0242    0.6516    0.0274 C   0  0  0  0  0  0  0  0  0  0  0  0
   -6.7863   -0.5629    0.0915 C   0  0  0  0  0  0  0  0  0  0  0  0
   -1.6572   -0.0403    0.0331 C   0  0  0  0  0  0  0  0  0  0  0  0
   -8.1213    0.1816    0.0088 C   0  0  0  0  0  0  0  0  0  0  0  0
   -0.4814    0.9397    0.0117 C   0  0  0  0  0  0  0  0  0  0  0  0
   -9.3373   -0.7507    0.0057 C   0  0  0  0  0  0  0  0  0  0  0  0
    0.8583    0.1961   -0.0102 C   0  0  0  0  0  0  0  0  0  0  0  0
  -10.6719   -0.0122   -0.1038 C   0  0  0  0  0  0  0  0  0  0  0  0
    2.0468    1.1498   -0.0055 C   0  0  0  0  0  0  0  0  0  0  0  0
  -11.8462   -0.9764   -0.0261 C   0  0  0  0  0  0  0  0  0  0  0  0
    5.9036   -0.0445   -0.0058 C   0  0  0  0  0  0  0  0  0  0  0  0
    6.3893   -0.5420   -1.2152 C   0  0  0  0  0  0  0  0  0  0  0  0
    6.3866   -0.5510    1.2010 C   0  0  0  0  0  0  0  0  0  0  0  0
    7.3577   -1.5460   -1.2178 C   0  0  0  0  0  0  0  0  0  0  0  0
    7.3550   -1.5549    1.1981 C   0  0  0  0  0  0  0  0  0  0  0  0
    7.8406   -2.0523   -0.0113 C   0  0  0  0  0  0  0  0  0  0  0  0
  1  2  1  0
  1  3  2  0
  1  4  2  0
  1 17  1  0
  2 15  1  0
  5  6  1  0
  5  7  1  0
  6  8  1  0
  7  9  1  0
  8 10  1  0
  9 11  1  0
 10 12  1  0
 11 13  1  0
 12 14  1  0
 13 15  1  0
 14 16  1  0
 17 18  2  0
 17 19  1  0
 18 20  1  0
 19 21  2  0
 20 22  2  0
 21 22  1  0
M  END
>  <PUBCHEM_COMPOUND_CID>  (1) 
15900

>  <PUBCHEM_CONFORMER_RMSD>  (1) 
1.4

>  <PUBCHEM_CONFORMER_DIVERSEORDER>  (1) 
2
70
6
35
59
1
61
72
58
28
7
52
26
18
14
71
63
32
42
30
48
9
67
36
20
44
8
43
39
66
3
31
69
21
65
11
15
22
57
53
45
23
54
34
17
60
56
16
51
33
64
10
50
4
29
13
41
55
38
68
19
40
27
47
49
24
46
62
12
25
37
5

>  <PUBCHEM_MMFF94_PARTIAL_CHARGES>  (1) 
16
1 1.49
15 0.28
17 -0.01
18 -0.15
19 -0.15
2 -0.46
20 -0.15
21 -0.15
22 -0.15
3 -0.65
4 -0.65
48 0.15
49 0.15
50 0.15
51 0.15
52 0.15

>  <PUBCHEM_EFFECTIVE_ROTOR_COUNT>  (1) 
13

>  <PUBCHEM_PHARMACOPHORE_FEATURES>  (1) 
4
1 16 hydrophobe
1 3 acceptor
1 4 acceptor
6 17 18 19 20 21 22 rings

>  <PUBCHEM_HEAVY_ATOM_COUNT>  (1) 
22

>  <PUBCHEM_ATOM_DEF_STEREO_COUNT>  (1) 
0

>  <PUBCHEM_ATOM_UDEF_STEREO_COUNT>  (1) 
0

>  <PUBCHEM_BOND_DEF_STEREO_COUNT>  (1) 
0

>  <PUBCHEM_BOND_UDEF_STEREO_COUNT>  (1) 
0

>  <PUBCHEM_ISOTOPIC_ATOM_COUNT>  (1) 
0

>  <PUBCHEM_COMPONENT_COUNT>  (1) 
1

>  <PUBCHEM_CACTVS_TAUTO_COUNT>  (1) 
1

>  <PUBCHEM_CONFORMER_ID>  (1) 
00003E1C00000002

>  <PUBCHEM_MMFF94_ENERGY>  (1) 
11.0899

>  <PUBCHEM_FEATURE_SELFOVERLAP>  (1) 
20.314

>  <PUBCHEM_SHAPE_FINGERPRINT>  (1) 
10666366 153 18040429971741083101
11211813 74 12540703634570354126
11638347 137 18272652346597194371
12089408 11 18130790088544555217
12522641 33 14634866432248575161
14202775 3 18408889568975018251
14216079 64 18408886222313558550
14251764 46 17775567546305463501
14428016 248 11963388528026277975
15461852 350 16805321077371100229
1754911 235 13479135705476496515
1818759 1 17603590734019750619
20812841 46 15123503714252058426
21095086 128 18334575746589103175
21150785 3 14056722339957994338
21315763 28 18413389839363976033
21360442 33 11458961163099133008
21360442 67 13334735717623872144
21362267 313 12319195975173353055
21792934 111 17060615590506410969
22224240 67 13326854431202773997
232437 2 18334576850765171251
246663 6 18259705592832300267
28498 318 18335138687456802237
33684 2 18272370876595757577
5283156 175 18342458145063650377
5758199 1 9583519819797586717
57676310 78 8718559355151355496
57828716 72 16153721938784447918
59520757 100 16805898393294665675
59521099 67 17022907861556210716
59521120 56 17241323556457853005
59682541 35 11455888075422051431
6081469 158 18409728461453970901
6438161 24 18113612370991270178

>  <PUBCHEM_SHAPE_MULTIPOLES>  (1) 
438.99
41.46
1.62
0.99
100.88
0.03
0.01
-19.56
0.55
-3.95
0
-2.4
-0.06
0.01

>  <PUBCHEM_SHAPE_SELFOVERLAP>  (1) 
836.999

>  <PUBCHEM_SHAPE_VOLUME>  (1) 
268.5

>  <PUBCHEM_COORDINATE_TYPE>  (1) 
2
5
10

$$$$
