15920
     RDKit          3D

 19 20  0  0  1  0  0  0  0  0999 V2000
   -0.5376   -2.1636   -0.3415 O   0  0  0  0  0  0  0  0  0  0  0  0
    2.9805    0.3074    0.0358 N   0  0  0  0  0  0  0  0  0  0  0  0
   -0.6927   -0.0816    0.6979 N   0  0  0  0  0  0  0  0  0  0  0  0
    1.5592    0.3950   -0.2649 C   0  0  0  0  0  0  0  0  0  0  0  0
    3.8163    0.6959   -1.0999 C   0  0  0  0  0  0  0  0  0  0  0  0
    3.3985   -1.0547    0.3664 C   0  0  0  0  0  0  0  0  0  0  0  0
    5.1888    0.1691   -0.7083 C   0  0  0  0  0  0  0  0  0  0  0  0
    4.9141   -0.9837    0.2526 C   0  0  0  0  0  0  0  0  0  0  0  0
    0.7530   -0.0735    0.9532 C   0  0  0  0  0  0  0  0  0  0  0  0
    1.2115    1.8143   -0.7074 C   0  0  0  0  0  0  0  0  0  0  0  0
   -1.2305   -1.2654    0.1469 C   0  0  0  0  0  0  0  0  0  0  0  0
   -1.4197    1.0845    1.0067 C   0  0  0  0  0  0  0  0  0  0  0  0
   -2.7467   -1.4385    0.2497 C   0  0  0  0  0  0  0  0  0  0  0  0
   -2.5807    1.4588    0.4273 C   0  0  0  0  0  0  0  0  0  0  0  0
   -3.3757   -0.5261   -0.7559 C   0  0  0  0  0  0  0  0  0  0  0  0
   -3.2910    0.8091   -0.6586 C   0  0  0  0  0  0  0  0  0  0  0  0
   -0.8209    2.0209    2.0349 C   0  0  0  0  0  0  0  0  0  0  0  0
   -3.1669   -2.8896    0.0102 C   0  0  0  0  0  0  0  0  0  0  0  0
   -3.9597    1.7219   -1.6450 C   0  0  0  0  0  0  0  0  0  0  0  0
  1 11  2  0
  2  4  1  0
  2  5  1  0
  2  6  1  0
  3  9  1  0
  3 11  1  0
  3 12  1  0
  4  9  1  0
  4 10  1  0
  5  7  1  0
  6  8  1  0
  7  8  1  0
 11 13  1  0
 12 14  2  0
 12 17  1  0
 13 15  1  0
 13 18  1  0
 14 16  1  0
 15 16  2  0
 16 19  1  0
M  END
>  <PUBCHEM_COMPOUND_CID>  (1) 
15920

>  <PUBCHEM_CONFORMER_RMSD>  (1) 
0.6

>  <PUBCHEM_CONFORMER_DIVERSEORDER>  (1) 
3
43
38
18
23
52
35
36
56
54
22
12
9
57
40
45
33
10
55
51
59
32
21
11
44
31
49
47
29
37
34
26
24
58
50
27
30
16
17
42
8
60
28
15
41
7
19
4
25
5
20
39
14
6
53
46
13
48
1
2

>  <PUBCHEM_MMFF94_PARTIAL_CHARGES>  (1) 
17
1 -0.57
11 0.57
12 -0.03
13 0.2
14 -0.15
15 -0.29
16 -0.14
17 0.14
19 0.14
2 -0.81
3 -0.47
35 0.15
36 0.15
4 0.27
5 0.27
6 0.27
9 0.3

>  <PUBCHEM_EFFECTIVE_ROTOR_COUNT>  (1) 
4.4

>  <PUBCHEM_PHARMACOPHORE_FEATURES>  (1) 
4
1 1 acceptor
1 2 cation
5 2 5 6 7 8 rings
7 3 11 12 13 14 15 16 rings

>  <PUBCHEM_HEAVY_ATOM_COUNT>  (1) 
19

>  <PUBCHEM_ATOM_DEF_STEREO_COUNT>  (1) 
0

>  <PUBCHEM_ATOM_UDEF_STEREO_COUNT>  (1) 
2

>  <PUBCHEM_BOND_DEF_STEREO_COUNT>  (1) 
0

>  <PUBCHEM_BOND_UDEF_STEREO_COUNT>  (1) 
0

>  <PUBCHEM_ISOTOPIC_ATOM_COUNT>  (1) 
0

>  <PUBCHEM_COMPONENT_COUNT>  (1) 
1

>  <PUBCHEM_CACTVS_TAUTO_COUNT>  (1) 
1

>  <PUBCHEM_CONFORMER_ID>  (1) 
00003E3000000003

>  <PUBCHEM_MMFF94_ENERGY>  (1) 
51.6137

>  <PUBCHEM_FEATURE_SELFOVERLAP>  (1) 
20.297

>  <PUBCHEM_SHAPE_FINGERPRINT>  (1) 
10014705 185 18113901567723410972
10062212 137 18408882932010284083
10366900 7 17346596357678398666
10756046 5 18262238953211182732
11315181 36 18413111654711476680
11578080 2 18265881613902190320
12293681 160 17772176528055602865
12363563 72 17203608206995587520
12555020 224 18267583507561808070
12788726 201 17773596014356183441
14251751 93 18113896057195753167
14251764 30 17753905105897568603
16752209 62 18338785801622642731
16945 1 18337378380047850041
17349148 13 18201438039201648414
17834072 14 18060411443707696960
17870717 6 18201452349995879206
18186145 218 18413384349873441449
187816 3 18131063801755849689
18927931 339 17561092388580446028
19489759 90 17846213303147099344
19784866 170 8430323466931568873
19862831 5 18335419067153477466
200 152 18059852857214136452
20511986 3 18188754112166658122
20645476 183 18187917357816332891
20645477 70 16877945997739114258
20871999 31 18334574676314220871
21339142 149 17417541202472090297
21339142 36 18131351946911385467
21339142 51 18342737442428593011
22182313 1 18054485157891518697
2306618 200 18410581677891747553
23175994 123 17846219994342279529
23402539 116 17917429774452165416
23402655 69 18040155089644666532
23419403 2 17843950662546270025
23557571 272 17775299252124474427
23559900 14 18201431494009385544
2748010 2 17982706857166152545
2838139 119 16806709691320845733
4175511 318 18260830380100098269
4214541 1 18335139799842808470
559249 180 18260823753329992658
58051976 100 18335423503633297591
59027123 10 17894352202406367372

>  <PUBCHEM_SHAPE_MULTIPOLES>  (1) 
375.18
9.12
2.4
1.31
9.75
0.94
-0.22
0.97
3.19
-2.51
-0.11
-0.57
-0.85
-0.13

>  <PUBCHEM_SHAPE_SELFOVERLAP>  (1) 
766.261

>  <PUBCHEM_SHAPE_VOLUME>  (1) 
218.5

>  <PUBCHEM_COORDINATE_TYPE>  (1) 
2
5
10

$$$$
