15933
     RDKit          3D

 20 20  0  0  0  0  0  0  0  0999 V2000
    3.4110    1.9051    0.9845 O   0  0  0  0  0  0  0  0  0  0  0  0
    0.2436   -0.5290   -1.4839 O   0  0  0  0  0  0  0  0  0  0  0  0
    4.3748   -2.3039   -0.5682 O   0  0  0  0  0  0  0  0  0  0  0  0
    3.8541   -0.2368    0.2926 N   0  0  0  0  0  0  0  0  0  0  0  0
    2.2722   -1.4524   -0.9409 N   0  0  0  0  0  0  0  0  0  0  0  0
   -3.6371   -0.1828   -0.0434 N   0  0  0  0  0  0  0  0  0  0  0  0
    1.5318    0.5534    0.2623 C   0  0  0  0  0  0  0  0  0  0  0  0
    0.8191    1.8610   -0.1127 C   0  0  0  0  0  0  0  0  0  0  0  0
    0.9334    0.0053    1.5702 C   0  0  0  0  0  0  0  0  0  0  0  0
    3.0068    0.8352    0.5296 C   0  0  0  0  0  0  0  0  0  0  0  0
    1.2780   -0.4932   -0.8180 C   0  0  0  0  0  0  0  0  0  0  0  0
    1.4053    2.4583   -1.3737 C   0  0  0  0  0  0  0  0  0  0  0  0
    3.5523   -1.4018   -0.4022 C   0  0  0  0  0  0  0  0  0  0  0  0
   -0.4865   -0.2924    1.3994 C   0  0  0  0  0  0  0  0  0  0  0  0
   -3.0800   -0.8509    1.1257 C   0  0  0  0  0  0  0  0  0  0  0  0
   -3.4953    1.2697    0.0755 C   0  0  0  0  0  0  0  0  0  0  0  0
   -5.0457   -0.5417   -0.2207 C   0  0  0  0  0  0  0  0  0  0  0  0
   -1.6548   -0.5424    1.2747 C   0  0  0  0  0  0  0  0  0  0  0  0
   -4.0725    1.9788   -1.1377 C   0  0  0  0  0  0  0  0  0  0  0  0
   -5.2105   -2.0396   -0.4133 C   0  0  0  0  0  0  0  0  0  0  0  0
  1 10  2  0
  2 11  2  0
  3 13  2  0
  4 10  1  0
  4 13  1  0
  5 11  1  0
  5 13  1  0
  6 15  1  0
  6 16  1  0
  6 17  1  0
  7  8  1  0
  7  9  1  0
  7 10  1  0
  7 11  1  0
  8 12  1  0
  9 14  1  0
 14 18  3  0
 15 18  1  0
 16 19  1  0
 17 20  1  0
M  END
>  <PUBCHEM_COMPOUND_CID>  (1) 
15933

>  <PUBCHEM_CONFORMER_RMSD>  (1) 
0.8

>  <PUBCHEM_CONFORMER_DIVERSEORDER>  (1) 
1
4
5
24
13
10
18
15
7
23
22
20
11
19
6
3
9
21
14
17
8
2
12
16

>  <PUBCHEM_MMFF94_PARTIAL_CHARGES>  (1) 
18
1 -0.57
10 0.57
11 0.57
13 0.69
14 -0.2
15 0.47
16 0.27
17 0.27
18 -0.2
2 -0.57
28 0.37
29 0.37
3 -0.57
4 -0.49
5 -0.49
6 -0.81
7 0.12
9 0.2

>  <PUBCHEM_EFFECTIVE_ROTOR_COUNT>  (1) 
5.6

>  <PUBCHEM_PHARMACOPHORE_FEATURES>  (1) 
8
1 1 acceptor
1 12 hydrophobe
1 2 acceptor
1 3 acceptor
1 4 donor
1 5 donor
1 6 cation
6 4 5 7 10 11 13 rings

>  <PUBCHEM_HEAVY_ATOM_COUNT>  (1) 
20

>  <PUBCHEM_ATOM_DEF_STEREO_COUNT>  (1) 
0

>  <PUBCHEM_ATOM_UDEF_STEREO_COUNT>  (1) 
0

>  <PUBCHEM_BOND_DEF_STEREO_COUNT>  (1) 
0

>  <PUBCHEM_BOND_UDEF_STEREO_COUNT>  (1) 
0

>  <PUBCHEM_ISOTOPIC_ATOM_COUNT>  (1) 
0

>  <PUBCHEM_COMPONENT_COUNT>  (1) 
1

>  <PUBCHEM_CACTVS_TAUTO_COUNT>  (1) 
5

>  <PUBCHEM_CONFORMER_ID>  (1) 
00003E3D00000001

>  <PUBCHEM_MMFF94_ENERGY>  (1) 
42.975

>  <PUBCHEM_FEATURE_SELFOVERLAP>  (1) 
40.636

>  <PUBCHEM_SHAPE_FINGERPRINT>  (1) 
10646746 165 18113898256050385705
10759866 29 17916022562835216462
116883 192 18263932046752517948
13134695 92 18201440268174137384
14181834 199 18130803256228339812
14251739 40 18272934929264218798
14863182 85 16415213264244358614
15163728 17 14638004584241408004
15848700 24 18333452023819203464
16945 1 17988658354566919890
17349148 13 16702305637160591086
17834072 14 18410577266590991472
18186145 218 18260272927847195481
19784866 34 12541280921324900118
200 152 17489586714677057795
20233049 118 17022620875191952456
20645477 70 18202850941629354018
21069387 34 18342188751466278123
221357 26 18261110768914371485
23402539 116 18262513697926375196
23557571 272 18411692223612358033
23559900 14 18408323315041018939
3060560 45 17968087659593944147
351380 180 18260261997424451925
4340502 62 17345745421567316378
439807 62 17559379444740415327
5281201 14 18409733971516852497
9709674 26 18261677077415998385
9971528 1 18335140903443863396

>  <PUBCHEM_SHAPE_MULTIPOLES>  (1) 
379.04
9.81
2.33
1.4
8.36
0.77
-0.15
-3.29
1.74
-0.31
0.85
-0.19
-0.02
1.01

>  <PUBCHEM_SHAPE_SELFOVERLAP>  (1) 
765.404

>  <PUBCHEM_SHAPE_VOLUME>  (1) 
218.4

>  <PUBCHEM_COORDINATE_TYPE>  (1) 
2
5
10

$$$$
