15945
     RDKit          3D

 23 23  0  0  0  0  0  0  0  0999 V2000
    1.1474   -1.9773   -0.3719 O   0  0  0  0  0  0  0  0  0  0  0  0
   -1.8128    2.6011   -1.4017 O   0  0  0  0  0  0  0  0  0  0  0  0
   -0.7410   -3.1810    0.0921 O   0  0  0  0  0  0  0  0  0  0  0  0
    2.2379    1.5298    0.2211 N   0  0  0  0  0  0  0  0  0  0  0  0
   -0.5947    2.0840    0.5036 N   0  0  0  0  0  0  0  0  0  0  0  0
   -0.7949   -0.8545   -0.1956 N   0  0  0  0  0  0  0  0  0  0  0  0
    1.5826    2.6551   -0.4447 C   0  0  0  0  0  0  0  0  0  0  0  0
    3.0404    0.7673   -0.7346 C   0  0  0  0  0  0  0  0  0  0  0  0
    3.0718    2.0044    1.3248 C   0  0  0  0  0  0  0  0  0  0  0  0
    0.3858    3.1264    0.3683 C   0  0  0  0  0  0  0  0  0  0  0  0
    4.1552    1.6188   -1.3180 C   0  0  0  0  0  0  0  0  0  0  0  0
    3.7128    0.8439    2.0668 C   0  0  0  0  0  0  0  0  0  0  0  0
   -1.6295    1.9043   -0.4070 C   0  0  0  0  0  0  0  0  0  0  0  0
   -2.5758    0.7979   -0.1115 C   0  0  0  0  0  0  0  0  0  0  0  0
   -2.1414   -0.5243   -0.0163 C   0  0  0  0  0  0  0  0  0  0  0  0
   -3.9242    1.1038    0.0725 C   0  0  0  0  0  0  0  0  0  0  0  0
   -3.0555   -1.5403    0.2631 C   0  0  0  0  0  0  0  0  0  0  0  0
    1.9121   -3.1881   -0.3427 C   0  0  0  0  0  0  0  0  0  0  0  0
   -4.8382    0.0877    0.3518 C   0  0  0  0  0  0  0  0  0  0  0  0
   -4.4039   -1.2342    0.4470 C   0  0  0  0  0  0  0  0  0  0  0  0
   -0.1950   -2.1081   -0.1347 C   0  0  0  0  0  0  0  0  0  0  0  0
    3.0778   -3.0676   -1.3123 C   0  0  0  0  0  0  0  0  0  0  0  0
    2.3829   -3.4489    1.0800 C   0  0  0  0  0  0  0  0  0  0  0  0
  1 18  1  0
  1 21  1  0
  2 13  2  0
  3 21  2  0
  4  7  1  0
  4  8  1  0
  4  9  1  0
  5 10  1  0
  5 13  1  0
  6 15  1  0
  6 21  1  0
  7 10  1  0
  8 11  1  0
  9 12  1  0
 13 14  1  0
 14 15  2  0
 14 16  1  0
 15 17  1  0
 16 19  2  0
 17 20  2  0
 18 22  1  0
 18 23  1  0
 19 20  1  0
M  END
>  <PUBCHEM_COMPOUND_CID>  (1) 
15945

>  <PUBCHEM_CONFORMER_RMSD>  (1) 
1

>  <PUBCHEM_CONFORMER_DIVERSEORDER>  (1) 
1
4
22
24
5
45
47
29
19
33
44
39
36
21
38
31
40
20
42
30
46
17
32
34
25
9
12
28
3
18
10
27
6
23
8
13
7
37
43
26
2
15
35
11
41
14
16

>  <PUBCHEM_MMFF94_PARTIAL_CHARGES>  (1) 
25
1 -0.43
10 0.3
13 0.54
14 0.09
15 0.12
16 -0.15
17 -0.15
18 0.28
19 -0.15
2 -0.57
20 -0.15
21 0.78
3 -0.57
32 0.37
39 0.15
4 -0.81
40 0.15
42 0.37
43 0.15
44 0.15
5 -0.73
6 -0.55
7 0.27
8 0.27
9 0.27

>  <PUBCHEM_EFFECTIVE_ROTOR_COUNT>  (1) 
11

>  <PUBCHEM_PHARMACOPHORE_FEATURES>  (1) 
7
1 2 acceptor
1 3 acceptor
1 4 cation
1 5 donor
1 6 donor
3 18 22 23 hydrophobe
6 14 15 16 17 19 20 rings

>  <PUBCHEM_HEAVY_ATOM_COUNT>  (1) 
23

>  <PUBCHEM_ATOM_DEF_STEREO_COUNT>  (1) 
0

>  <PUBCHEM_ATOM_UDEF_STEREO_COUNT>  (1) 
0

>  <PUBCHEM_BOND_DEF_STEREO_COUNT>  (1) 
0

>  <PUBCHEM_BOND_UDEF_STEREO_COUNT>  (1) 
0

>  <PUBCHEM_ISOTOPIC_ATOM_COUNT>  (1) 
0

>  <PUBCHEM_COMPONENT_COUNT>  (1) 
1

>  <PUBCHEM_CACTVS_TAUTO_COUNT>  (1) 
5

>  <PUBCHEM_CONFORMER_ID>  (1) 
00003E4900000001

>  <PUBCHEM_MMFF94_ENERGY>  (1) 
49.1208

>  <PUBCHEM_FEATURE_SELFOVERLAP>  (1) 
35.521

>  <PUBCHEM_SHAPE_FINGERPRINT>  (1) 
11578080 2 17314218986982620407
12553582 1 18264764531272698893
12592029 89 18338803432932365443
13122387 1 17690561879821477274
13140716 1 18050562151484162041
13402501 40 18341904012815140708
138480 1 18339084761473973214
14251757 5 17760671539214654388
14790565 3 18193290795310931605
14931854 50 18194143849241143302
15006816 218 18411701019198730729
17093844 170 18341335569730715028
19591789 44 18122350352541759115
19930381 70 18410578361992456455
20028762 73 17696476556779424743
20775438 99 17760884560991513317
20905425 154 18269562645687115132
22182313 1 18116140092099269581
23559900 14 18264488382297827063
2818148 4 18054535528777212624
3298306 158 18410852192080257405
350125 39 18265621991486057342
465052 167 17750234880180223297
5265222 85 18266461100117868284
532947 4 18411694379601355847
539174 4 17913523222686824385
57091435 65 18337098013019831650
59755656 215 18412547596261120510

>  <PUBCHEM_SHAPE_MULTIPOLES>  (1) 
440.78
8.1
4.83
1.25
3.96
2.61
0.26
-0.54
0.73
-3.78
-0.3
-1.59
-0.25
0.83

>  <PUBCHEM_SHAPE_SELFOVERLAP>  (1) 
884.876

>  <PUBCHEM_SHAPE_VOLUME>  (1) 
259.4

>  <PUBCHEM_COORDINATE_TYPE>  (1) 
2
5
10

$$$$
