15951
     RDKit          3D

 15 15  0  0  0  0  0  0  0  0999 V2000
   -0.5206    3.8205   -0.3822 Cl  0  0  0  0  0  0  0  0  0  0  0  0
   -1.7790   -0.9492   -0.0055 N   0  0  0  0  0  0  0  0  0  0  0  0
    0.5057   -0.4230    0.0662 N   0  0  0  0  0  0  0  0  0  0  0  0
    2.7750    0.1661    0.1311 N   0  0  0  0  0  0  0  0  0  0  0  0
   -1.1448    1.3009   -0.1824 N   0  0  0  0  0  0  0  0  0  0  0  0
    1.1848    1.8714   -0.1126 N   0  0  0  0  0  0  0  0  0  0  0  0
   -1.4631   -2.3640    0.1438 C   0  0  0  0  0  0  0  0  0  0  0  0
   -3.1816   -0.5655   -0.1016 C   0  0  0  0  0  0  0  0  0  0  0  0
   -0.7684    0.0115   -0.0420 C   0  0  0  0  0  0  0  0  0  0  0  0
   -1.0641   -2.9808   -1.1860 C   0  0  0  0  0  0  0  0  0  0  0  0
   -3.7163   -0.0985    1.2417 C   0  0  0  0  0  0  0  0  0  0  0  0
    1.4227    0.5568    0.0229 C   0  0  0  0  0  0  0  0  0  0  0  0
    3.1787   -1.1970    0.2800 C   0  0  0  0  0  0  0  0  0  0  0  0
   -0.1210    2.1691   -0.2097 C   0  0  0  0  0  0  0  0  0  0  0  0
    4.6921   -1.3185    0.3363 C   0  0  0  0  0  0  0  0  0  0  0  0
  1 14  1  0
  2  7  1  0
  2  8  1  0
  2  9  1  0
  3  9  2  0
  3 12  1  0
  4 12  1  0
  4 13  1  0
  5  9  1  0
  5 14  2  0
  6 12  2  0
  6 14  1  0
  7 10  1  0
  8 11  1  0
 13 15  1  0
M  END
>  <PUBCHEM_COMPOUND_CID>  (1) 
15951

>  <PUBCHEM_CONFORMER_RMSD>  (1) 
0.6

>  <PUBCHEM_CONFORMER_DIVERSEORDER>  (1) 
1
37
47
25
42
53
65
61
26
17
60
31
29
44
59
30
11
67
70
27
63
51
21
66
6
34
57
58
38
64
10
40
54
55
62
56
15
32
49
35
9
14
12
36
8
4
52
41
33
13
46
45
19
28
2
16
24
5
68
20
7
22
69
3
23
18
50
48
39
43

>  <PUBCHEM_MMFF94_PARTIAL_CHARGES>  (1) 
13
1 -0.18
12 0.72
13 0.37
14 0.8
2 -0.84
28 0.4
3 -0.62
4 -0.87
5 -0.62
6 -0.62
7 0.37
8 0.37
9 0.72

>  <PUBCHEM_EFFECTIVE_ROTOR_COUNT>  (1) 
5

>  <PUBCHEM_PHARMACOPHORE_FEATURES>  (1) 
4
1 4 donor
4 2 3 5 9 cation
4 3 4 6 12 cation
6 3 5 6 9 12 14 rings

>  <PUBCHEM_HEAVY_ATOM_COUNT>  (1) 
15

>  <PUBCHEM_ATOM_DEF_STEREO_COUNT>  (1) 
0

>  <PUBCHEM_ATOM_UDEF_STEREO_COUNT>  (1) 
0

>  <PUBCHEM_BOND_DEF_STEREO_COUNT>  (1) 
0

>  <PUBCHEM_BOND_UDEF_STEREO_COUNT>  (1) 
0

>  <PUBCHEM_ISOTOPIC_ATOM_COUNT>  (1) 
0

>  <PUBCHEM_COMPONENT_COUNT>  (1) 
1

>  <PUBCHEM_CACTVS_TAUTO_COUNT>  (1) 
4

>  <PUBCHEM_CONFORMER_ID>  (1) 
00003E4F00000001

>  <PUBCHEM_MMFF94_ENERGY>  (1) 
34.5725

>  <PUBCHEM_FEATURE_SELFOVERLAP>  (1) 
20.34

>  <PUBCHEM_SHAPE_FINGERPRINT>  (1) 
11357001 24 18190738639859353752
12507560 14 18341897419950702661
12553582 1 18409728486928186958
13140716 1 18339644554679537010
13380535 76 17616522965534962940
14178342 30 17909538807127284528
15279308 51 18197776811304658415
15375462 189 18186236234370295170
15442244 35 18268151031739490075
16752209 62 18191851349821286394
16945 1 18121216738778856829
20510252 161 18199181785559865320
20671657 1 18122355837136011277
20711985 365 18336263449160576580
20871998 184 18268145358024265166
21029758 27 18261122867198908316
21501502 16 18051978322613835031
22959321 94 18335411349408905442
23402539 116 18271795796784508031
23552423 10 17762338419694310311
23557571 272 18272097042186739620
23598291 2 18198064883198148479
23598294 1 18191577545967377352
2748010 2 17979920410416017966
3091708 16 9497498406322209024
34934 24 18337385066990143792
352729 6 17977097960041977620
4175511 71 18336553810350789073
57426455 70 18335711532962191203
6992083 37 18342185496107674107
7364860 26 17906452478041052720
74978 22 18123755511216692159
81228 2 18334857165225207280

>  <PUBCHEM_SHAPE_MULTIPOLES>  (1) 
285.66
5.83
3.74
0.84
5.21
2.4
0.01
-3.53
1.88
-1.19
-1.2
-0.46
-0.29
-0.29

>  <PUBCHEM_SHAPE_SELFOVERLAP>  (1) 
555.924

>  <PUBCHEM_SHAPE_VOLUME>  (1) 
171

>  <PUBCHEM_COORDINATE_TYPE>  (1) 
2
5
10

$$$$
