15966
     RDKit          3D

 20 20  0  0  0  0  0  0  0  0999 V2000
    0.6460   -3.5538    0.0315 O   0  0  0  0  0  0  0  0  0  0  0  0
    1.2429    3.4254   -0.4466 O   0  0  0  0  0  0  0  0  0  0  0  0
   -1.1796   -2.3291    0.0999 O   0  0  0  0  0  0  0  0  0  0  0  0
   -0.7628    2.5475   -0.2358 O   0  0  0  0  0  0  0  0  0  0  0  0
   -1.1473    0.1245   -0.0553 N   0  0  0  0  0  0  0  0  0  0  0  0
    0.0640   -2.4451    0.0078 N   0  0  0  0  0  0  0  0  0  0  0  0
    0.4816    2.4381   -0.3268 N   0  0  0  0  0  0  0  0  0  0  0  0
   -1.7970    0.2683    1.2253 C   0  0  0  0  0  0  0  0  0  0  0  0
   -1.9735    0.1253   -1.2641 C   0  0  0  0  0  0  0  0  0  0  0  0
    0.2453   -0.0012   -0.1591 C   0  0  0  0  0  0  0  0  0  0  0  0
   -0.7681    0.3213    2.3498 C   0  0  0  0  0  0  0  0  0  0  0  0
   -3.4319   -0.1606   -0.9216 C   0  0  0  0  0  0  0  0  0  0  0  0
    0.8498   -1.2659   -0.1287 C   0  0  0  0  0  0  0  0  0  0  0  0
    1.0551    1.1356   -0.2934 C   0  0  0  0  0  0  0  0  0  0  0  0
    3.0307   -0.2534   -0.3640 C   0  0  0  0  0  0  0  0  0  0  0  0
    2.2353   -1.3914   -0.2307 C   0  0  0  0  0  0  0  0  0  0  0  0
    2.4406    1.0101   -0.3952 C   0  0  0  0  0  0  0  0  0  0  0  0
   -1.4012    0.5180    3.7204 C   0  0  0  0  0  0  0  0  0  0  0  0
   -4.3424   -0.1263   -2.1413 C   0  0  0  0  0  0  0  0  0  0  0  0
    4.5123   -0.3873   -0.4718 C   0  0  0  0  0  0  0  0  0  0  0  0
  1  6  1  0
  2  7  1  0
  3  6  2  0
  4  7  2  0
  5  8  1  0
  5  9  1  0
  5 10  1  0
  6 13  1  0
  7 14  1  0
  8 11  1  0
  9 12  1  0
 10 13  2  0
 10 14  1  0
 11 18  1  0
 12 19  1  0
 13 16  1  0
 14 17  2  0
 15 16  2  0
 15 17  1  0
 15 20  1  0
M  CHG  4   1  -1   2  -1   6   1   7   1
M  END
>  <PUBCHEM_COMPOUND_CID>  (1) 
15966

>  <PUBCHEM_CONFORMER_RMSD>  (1) 
0.8

>  <PUBCHEM_CONFORMER_DIVERSEORDER>  (1) 
1

>  <PUBCHEM_MMFF94_PARTIAL_CHARGES>  (1) 
18
1 -0.52
10 0.1
13 0.13
14 0.13
15 -0.14
16 -0.15
17 -0.15
2 -0.52
20 0.14
29 0.15
3 -0.52
30 0.15
4 -0.52
5 -0.84
6 0.91
7 0.91
8 0.37
9 0.37

>  <PUBCHEM_EFFECTIVE_ROTOR_COUNT>  (1) 
7

>  <PUBCHEM_PHARMACOPHORE_FEATURES>  (1) 
10
1 1 acceptor
1 1 anion
1 18 hydrophobe
1 19 hydrophobe
1 2 acceptor
1 2 anion
1 3 acceptor
1 4 acceptor
1 5 cation
6 10 13 14 15 16 17 rings

>  <PUBCHEM_HEAVY_ATOM_COUNT>  (1) 
20

>  <PUBCHEM_ATOM_DEF_STEREO_COUNT>  (1) 
0

>  <PUBCHEM_ATOM_UDEF_STEREO_COUNT>  (1) 
0

>  <PUBCHEM_BOND_DEF_STEREO_COUNT>  (1) 
0

>  <PUBCHEM_BOND_UDEF_STEREO_COUNT>  (1) 
0

>  <PUBCHEM_ISOTOPIC_ATOM_COUNT>  (1) 
0

>  <PUBCHEM_COMPONENT_COUNT>  (1) 
1

>  <PUBCHEM_CACTVS_TAUTO_COUNT>  (1) 
1

>  <PUBCHEM_CONFORMER_ID>  (1) 
00003E5E00000001

>  <PUBCHEM_MMFF94_ENERGY>  (1) 
91.8705

>  <PUBCHEM_FEATURE_SELFOVERLAP>  (1) 
50.906

>  <PUBCHEM_SHAPE_FINGERPRINT>  (1) 
10967382 1 18409445869368785062
11680986 33 18125154090075905428
12423570 1 13508114905761850395
13140716 1 18265905820769542946
13583140 156 16950854699618244428
14617773 55 17703526461615802728
14787075 74 17344603041353981176
14817 1 15721087317559183761
16945 1 18337403673025762654
18219364 16 18261969516879986075
19010151 120 18271802398049047596
193761 8 17833270101098762430
21452121 199 17614241556660032535
22344851 12 9187160690967489014
2334 1 18049730921147159502
23402539 116 18342448210767332966
23419403 2 16766471190300794515
23493267 7 16878232982731545140
23559900 14 18339930433021145156
23566358 2 17907869740202747892
25 1 18188197724475151823
2748010 2 18122350343993750004
298252 57 18114446938122449587
3060560 45 18191560091157061055
57100710 210 15410614744400496316
5845 1 13778576379513579723

>  <PUBCHEM_SHAPE_MULTIPOLES>  (1) 
373.17
5.37
2.88
2.17
0.3
0.13
-2.78
0.85
3.37
1
0.28
-2.69
-0.72
-0.65

>  <PUBCHEM_SHAPE_SELFOVERLAP>  (1) 
767.606

>  <PUBCHEM_SHAPE_VOLUME>  (1) 
215.9

>  <PUBCHEM_COORDINATE_TYPE>  (1) 
2
5
10

$$$$
