15963
     RDKit          3D

 18 18  0  0  0  0  0  0  0  0999 V2000
   -2.6384    2.4732   -0.8519 Cl  0  0  0  0  0  0  0  0  0  0  0  0
   -6.5327   -1.2434   -1.0354 Cl  0  0  0  0  0  0  0  0  0  0  0  0
    2.1363   -0.2684    0.3015 O   0  0  0  0  0  0  0  0  0  0  0  0
   -1.2902    0.4932    0.9641 O   0  0  0  0  0  0  0  0  0  0  0  0
    1.0834    1.7325    0.7667 O   0  0  0  0  0  0  0  0  0  0  0  0
    5.8435    0.0322   -0.2306 C   0  0  0  0  0  0  0  0  0  0  0  0
    4.4692   -0.6220   -0.1062 C   0  0  0  0  0  0  0  0  0  0  0  0
    6.9168   -0.9936   -0.5936 C   0  0  0  0  0  0  0  0  0  0  0  0
    3.3873    0.3996    0.2139 C   0  0  0  0  0  0  0  0  0  0  0  0
    8.2807   -0.3406   -0.7516 C   0  0  0  0  0  0  0  0  0  0  0  0
    1.0547    0.5228    0.5863 C   0  0  0  0  0  0  0  0  0  0  0  0
   -0.1856   -0.3294    0.6449 C   0  0  0  0  0  0  0  0  0  0  0  0
   -2.5180    0.1065    0.4836 C   0  0  0  0  0  0  0  0  0  0  0  0
   -3.2437    0.9328   -0.3652 C   0  0  0  0  0  0  0  0  0  0  0  0
   -3.0171   -1.1322    0.8686 C   0  0  0  0  0  0  0  0  0  0  0  0
   -4.4880    0.5145   -0.8367 C   0  0  0  0  0  0  0  0  0  0  0  0
   -4.2613   -1.5504    0.3971 C   0  0  0  0  0  0  0  0  0  0  0  0
   -4.9968   -0.7271   -0.4556 C   0  0  0  0  0  0  0  0  0  0  0  0
  1 14  1  0
  2 18  1  0
  3  9  1  0
  3 11  1  0
  4 12  1  0
  4 13  1  0
  5 11  2  0
  6  7  1  0
  6  8  1  0
  7  9  1  0
  8 10  1  0
 11 12  1  0
 13 14  2  0
 13 15  1  0
 14 16  1  0
 15 17  2  0
 16 18  2  0
 17 18  1  0
M  END
>  <PUBCHEM_COMPOUND_CID>  (1) 
15963

>  <PUBCHEM_CONFORMER_RMSD>  (1) 
1

>  <PUBCHEM_CONFORMER_DIVERSEORDER>  (1) 
1
52
51
18
12
7
43
94
56
110
77
105
44
114
117
3
116
61
83
79
120
54
64
133
58
107
41
22
45
34
95
145
138
78
37
32
65
20
60
47
29
38
27
76
99
142
6
97
129
115
63
141
93
82
87
100
140
67
106
130
9
139
124
89
13
121
109
119
62
2
81
49
15
84
25
17
113
30
136
143
96
74
57
71
35
46
40
80
91
42
73
21
68
125
86
10
55
108
31
4
69
104
33
98
101
134
90
8
132
88
149
50
16
26
14
144
147
24
70
103
102
28
111
112
53
126
66
75
118
19
148
48
122
39
72
137
135
85
36
59
23
11
146
92
127
5
123
128
131

>  <PUBCHEM_MMFF94_PARTIAL_CHARGES>  (1) 
17
1 -0.18
11 0.66
12 0.34
13 0.08
14 0.18
15 -0.15
16 -0.15
17 -0.15
18 0.18
2 -0.18
3 -0.43
32 0.15
33 0.15
34 0.15
4 -0.36
5 -0.57
9 0.28

>  <PUBCHEM_EFFECTIVE_ROTOR_COUNT>  (1) 
8

>  <PUBCHEM_PHARMACOPHORE_FEATURES>  (1) 
4
1 10 hydrophobe
1 4 acceptor
1 5 acceptor
6 13 14 15 16 17 18 rings

>  <PUBCHEM_HEAVY_ATOM_COUNT>  (1) 
18

>  <PUBCHEM_ATOM_DEF_STEREO_COUNT>  (1) 
0

>  <PUBCHEM_ATOM_UDEF_STEREO_COUNT>  (1) 
0

>  <PUBCHEM_BOND_DEF_STEREO_COUNT>  (1) 
0

>  <PUBCHEM_BOND_UDEF_STEREO_COUNT>  (1) 
0

>  <PUBCHEM_ISOTOPIC_ATOM_COUNT>  (1) 
0

>  <PUBCHEM_COMPONENT_COUNT>  (1) 
1

>  <PUBCHEM_CACTVS_TAUTO_COUNT>  (1) 
1

>  <PUBCHEM_CONFORMER_ID>  (1) 
00003E5B00000001

>  <PUBCHEM_MMFF94_ENERGY>  (1) 
31.3216

>  <PUBCHEM_FEATURE_SELFOVERLAP>  (1) 
20.305

>  <PUBCHEM_SHAPE_FINGERPRINT>  (1) 
11089746 13 15864074291136333302
11315181 36 18131072636144764873
12091667 2 17821737126277436480
12616971 3 14548728526280087064
12954195 1 18411131399736546897
13288520 33 18273215300798051793
13668630 136 17775569732539016518
13685833 64 17418093230629502618
13862211 1 17989490714939347934
14123256 10 18040716970014145790
1420 363 17275107228353096334
14251752 14 18187081737790755706
14350574 20 18202561799956399177
14729087 3 13334734644013435278
14849402 71 13110379322668907530
15048467 5 13045940209664223758
15183329 4 17748825198925358610
15348495 7 9655278334104109206
15690457 1 16486968522860467479
15716309 27 14764628608198667878
17093844 174 16056880200122422923
17780758 139 12751233709998316925
17834072 8 18113900468295925726
17870717 6 18408044004996792091
18643901 69 18342740737022281679
19489759 90 18113339695869798520
200 152 17775281682009294195
20281389 69 8070034359066440086
21150785 3 18334013904647638550
21267235 1 18334015030097894627
21307412 95 18266447884704063111
22224240 67 10015863175963480165
2297311 6 18334857225570793153
23035841 295 16774078483657117478
23198884 109 17095244705091518546
23402539 116 17967531272365868228
23559900 14 18189611812234586225
300161 21 15140679189942528904
3004659 81 18335136510108836848
328310 630 16154011096549685308
351380 3 16988842778643753582
59682541 35 15697995263084798678

>  <PUBCHEM_SHAPE_MULTIPOLES>  (1) 
356.56
19.75
1.65
1.01
35.59
0.81
-0.04
-7.77
-8.48
-2.15
-0.2
-0.49
-0.01
0.58

>  <PUBCHEM_SHAPE_SELFOVERLAP>  (1) 
697.543

>  <PUBCHEM_SHAPE_VOLUME>  (1) 
215.4

>  <PUBCHEM_COORDINATE_TYPE>  (1) 
2
5
10

$$$$
