15972
     RDKit          3D

 30 33  0  0  0  0  0  0  0  0999 V2000
   -3.3328   -1.8038    0.0249 O   0  0  0  0  0  0  0  0  0  0  0  0
   -0.2972    1.6550   -0.4497 O   0  0  0  0  0  0  0  0  0  0  0  0
    1.2078   -2.6900    0.0579 O   0  0  0  0  0  0  0  0  0  0  0  0
   -1.8527   -0.0418   -0.2154 N   0  0  0  0  0  0  0  0  0  0  0  0
   -1.0719   -2.2955    0.0478 N   0  0  0  0  0  0  0  0  0  0  0  0
    0.5024   -0.5014   -0.1982 N   0  0  0  0  0  0  0  0  0  0  0  0
   -5.8272    0.6974    0.9768 C   0  0  0  0  0  0  0  0  0  0  0  0
    3.0383    2.7522    0.5772 C   0  0  0  0  0  0  0  0  0  0  0  0
    4.4324   -1.2734    1.0475 C   0  0  0  0  0  0  0  0  0  0  0  0
   -4.3229   -0.8752   -0.0724 C   0  0  0  0  0  0  0  0  0  0  0  0
    1.0264    2.0331   -0.5181 C   0  0  0  0  0  0  0  0  0  0  0  0
    2.4871   -2.1842   -0.0254 C   0  0  0  0  0  0  0  0  0  0  0  0
   -4.8113   -0.2534    1.0766 C   0  0  0  0  0  0  0  0  0  0  0  0
    1.6991    2.3681    0.6468 C   0  0  0  0  0  0  0  0  0  0  0  0
    3.1381   -1.7867    1.1322 C   0  0  0  0  0  0  0  0  0  0  0  0
   -6.3551    1.0261   -0.2720 C   0  0  0  0  0  0  0  0  0  0  0  0
    3.6883    2.7969   -0.6563 C   0  0  0  0  0  0  0  0  0  0  0  0
    5.0598   -1.1637   -0.1936 C   0  0  0  0  0  0  0  0  0  0  0  0
   -4.8501   -0.5463   -1.3213 C   0  0  0  0  0  0  0  0  0  0  0  0
    1.6595    2.0725   -1.7508 C   0  0  0  0  0  0  0  0  0  0  0  0
    3.0984   -2.0814   -1.2654 C   0  0  0  0  0  0  0  0  0  0  0  0
   -5.8662    0.4043   -1.4211 C   0  0  0  0  0  0  0  0  0  0  0  0
    2.9988    2.4568   -1.8204 C   0  0  0  0  0  0  0  0  0  0  0  0
    4.3927   -1.5679   -1.3501 C   0  0  0  0  0  0  0  0  0  0  0  0
   -6.3508    1.3621    2.2047 C   0  0  0  0  0  0  0  0  0  0  0  0
    3.7759    3.1165    1.8209 C   0  0  0  0  0  0  0  0  0  0  0  0
    5.1460   -0.8405    2.2833 C   0  0  0  0  0  0  0  0  0  0  0  0
   -2.0233   -1.3592   -0.0512 C   0  0  0  0  0  0  0  0  0  0  0  0
   -0.5600    0.3157   -0.2808 C   0  0  0  0  0  0  0  0  0  0  0  0
    0.1701   -1.7921   -0.0346 C   0  0  0  0  0  0  0  0  0  0  0  0
  1 10  1  0
  1 28  1  0
  2 11  1  0
  2 29  1  0
  3 12  1  0
  3 30  1  0
  4 28  2  0
  4 29  1  0
  5 28  1  0
  5 30  2  0
  6 29  2  0
  6 30  1  0
  7 13  2  0
  7 16  1  0
  7 25  1  0
  8 14  2  0
  8 17  1  0
  8 26  1  0
  9 15  2  0
  9 18  1  0
  9 27  1  0
 10 13  1  0
 10 19  2  0
 11 14  1  0
 11 20  2  0
 12 15  1  0
 12 21  2  0
 16 22  2  0
 17 23  2  0
 18 24  2  0
 19 22  1  0
 20 23  1  0
 21 24  1  0
M  END
>  <PUBCHEM_COMPOUND_CID>  (1) 
15972

>  <PUBCHEM_CONFORMER_RMSD>  (1) 
1.2

>  <PUBCHEM_CONFORMER_DIVERSEORDER>  (1) 
1
92
98
45
102
70
32
37
7
23
94
91
86
4
47
104
96
75
5
35
101
34
42
63
58
38
74
83
16
95
52
13
100
44
103
43
36
40
97
57
53
87
29
99
12
59
77
9
68
22
51
81
30
55
67
73
33
88
49
71
107
90
18
79
10
62
66
28
24
11
6
78
108
54
19
61
76
72
89
15
60
14
106
46
50
48
64
82
85
25
8
39
80
2
41
65
56
27
69
20
31
17
26
84
3
105
93
21

>  <PUBCHEM_MMFF94_PARTIAL_CHARGES>  (1) 
42
1 -0.17
10 0.08
11 0.08
12 0.08
13 -0.15
14 -0.15
15 -0.15
16 -0.15
17 -0.15
18 -0.15
19 -0.15
2 -0.17
20 -0.15
21 -0.15
22 -0.15
23 -0.15
24 -0.15
25 0.14
26 0.14
27 0.14
28 0.7
29 0.7
3 -0.17
30 0.7
31 0.15
32 0.15
33 0.15
34 0.15
35 0.15
36 0.15
37 0.15
38 0.15
39 0.15
4 -0.62
40 0.15
41 0.15
42 0.15
5 -0.62
6 -0.62
7 -0.14
8 -0.14
9 -0.14

>  <PUBCHEM_EFFECTIVE_ROTOR_COUNT>  (1) 
6

>  <PUBCHEM_PHARMACOPHORE_FEATURES>  (1) 
7
3 4 5 28 cation
3 4 6 29 cation
3 5 6 30 cation
6 4 5 6 28 29 30 rings
6 7 10 13 16 19 22 rings
6 8 11 14 17 20 23 rings
6 9 12 15 18 21 24 rings

>  <PUBCHEM_HEAVY_ATOM_COUNT>  (1) 
30

>  <PUBCHEM_ATOM_DEF_STEREO_COUNT>  (1) 
0

>  <PUBCHEM_ATOM_UDEF_STEREO_COUNT>  (1) 
0

>  <PUBCHEM_BOND_DEF_STEREO_COUNT>  (1) 
0

>  <PUBCHEM_BOND_UDEF_STEREO_COUNT>  (1) 
0

>  <PUBCHEM_ISOTOPIC_ATOM_COUNT>  (1) 
0

>  <PUBCHEM_COMPONENT_COUNT>  (1) 
1

>  <PUBCHEM_CACTVS_TAUTO_COUNT>  (1) 
1

>  <PUBCHEM_CONFORMER_ID>  (1) 
00003E6400000001

>  <PUBCHEM_MMFF94_ENERGY>  (1) 
101.4128

>  <PUBCHEM_FEATURE_SELFOVERLAP>  (1) 
38.31

>  <PUBCHEM_SHAPE_FINGERPRINT>  (1) 
10319926 262 16732985324008059689
10838868 217 17619073828918972409
11578080 2 16589742125418979714
12422481 6 18042384954522618972
13140716 1 18336264647182515939
13782708 43 17313397738208006179
14020679 6 17894641348406100987
14739800 52 17774715476212778401
14931854 50 18192459483764313572
15081414 286 18267029349554381455
15183329 4 18411705391728886485
15420108 30 17984688181472400838
15475509 8 17985287199685805831
15799311 1 12901549027190874361
15840311 113 17775004532117443897
1601671 61 18338235968573241871
16090146 7 17632030688509363167
17492 54 18042426728434317516
20612939 158 18409730664750601173
20642791 35 18410578400900285470
20691752 17 17241596389949683294
20739085 24 18260834816659156469
21033648 29 17530960273075418109
21421861 104 18334296483178061360
21859007 373 17896581917920671253
22122407 14 18196673813155351897
22182313 1 17969199218641837405
22223350 30 17240768427249636811
23559900 14 18335988644062140702
24771293 8 18201146707406927408
3411729 13 18337104696179036336
34797466 226 15195560230479937387
350125 39 18335706005281635725
3633792 109 18340471298210201133
3680242 22 18260543399165569122
394071 54 18413388717839110602
460360 51 18189622811767137587
5104073 3 18336271236353009715
513532 50 17489311931977072388
57724786 102 18335151903456670553
5895379 119 17130170627370632137
6086070 43 17917428795700710529
6443956 14 18410855482109744892
7495541 125 17385727976052283415

>  <PUBCHEM_SHAPE_MULTIPOLES>  (1) 
584.83
14.71
3.66
1.77
22.1
1.6
-0.41
1.29
-3.61
-5.31
0
-0.57
0.71
-0.78

>  <PUBCHEM_SHAPE_SELFOVERLAP>  (1) 
1283.36

>  <PUBCHEM_SHAPE_VOLUME>  (1) 
310.7

>  <PUBCHEM_COORDINATE_TYPE>  (1) 
2
5
10

$$$$
