15977
     RDKit          3D

 10 10  0  0  1  0  0  0  0  0999 V2000
   -0.4286   -0.2083   -1.2234 O   0  0  0  0  0  0  0  0  0  0  0  0
   -1.2092   -1.9341    0.6162 O   0  0  0  0  0  0  0  0  0  0  0  0
   -1.1009    0.3667   -0.0979 C   0  0  0  0  0  0  0  0  0  0  0  0
   -0.2486    1.4048    0.6431 C   0  0  0  0  0  0  0  0  0  0  0  0
    1.1179    0.8399    1.0314 C   0  0  0  0  0  0  0  0  0  0  0  0
    1.6920    0.0072   -0.0766 C   0  0  0  0  0  0  0  0  0  0  0  0
   -2.3851    1.0117   -0.6200 C   0  0  0  0  0  0  0  0  0  0  0  0
    0.9181   -0.4153   -1.0872 C   0  0  0  0  0  0  0  0  0  0  0  0
   -1.5091   -0.7615    0.8149 C   0  0  0  0  0  0  0  0  0  0  0  0
    3.1534   -0.3111   -0.0005 C   0  0  0  0  0  0  0  0  0  0  0  0
  1  3  1  0
  1  8  1  0
  2  9  2  0
  3  4  1  0
  3  7  1  0
  3  9  1  0
  4  5  1  0
  5  6  1  0
  6  8  2  0
  6 10  1  0
M  END
>  <PUBCHEM_COMPOUND_CID>  (1) 
15977

>  <PUBCHEM_CONFORMER_RMSD>  (1) 
0.4

>  <PUBCHEM_CONFORMER_DIVERSEORDER>  (1) 
1
3
2
4
6
5

>  <PUBCHEM_MMFF94_PARTIAL_CHARGES>  (1) 
10
1 -0.36
10 0.14
18 0.15
19 0.06
2 -0.57
3 0.34
5 0.14
6 -0.28
8 -0.07
9 0.45

>  <PUBCHEM_EFFECTIVE_ROTOR_COUNT>  (1) 
1.8

>  <PUBCHEM_PHARMACOPHORE_FEATURES>  (1) 
3
1 1 acceptor
1 2 acceptor
6 1 3 4 5 6 8 rings

>  <PUBCHEM_HEAVY_ATOM_COUNT>  (1) 
10

>  <PUBCHEM_ATOM_DEF_STEREO_COUNT>  (1) 
0

>  <PUBCHEM_ATOM_UDEF_STEREO_COUNT>  (1) 
1

>  <PUBCHEM_BOND_DEF_STEREO_COUNT>  (1) 
0

>  <PUBCHEM_BOND_UDEF_STEREO_COUNT>  (1) 
0

>  <PUBCHEM_ISOTOPIC_ATOM_COUNT>  (1) 
0

>  <PUBCHEM_COMPONENT_COUNT>  (1) 
1

>  <PUBCHEM_CACTVS_TAUTO_COUNT>  (1) 
1

>  <PUBCHEM_CONFORMER_ID>  (1) 
00003E6900000001

>  <PUBCHEM_MMFF94_ENERGY>  (1) 
15.62

>  <PUBCHEM_FEATURE_SELFOVERLAP>  (1) 
15.232

>  <PUBCHEM_SHAPE_FINGERPRINT>  (1) 
12138202 97 18408317770264529207
12423570 1 10514390806267697377
12716758 59 18333727996652781256
13024252 1 13118290247845845372
137420 1 15002260524085964955
16945 1 18342746169580683280
21040471 1 18114737132009176713
29004967 10 17988936573541591298
369184 2 18408885118359263904
5084963 1 15841544167816362404
528886 8 14779267505478302960

>  <PUBCHEM_SHAPE_MULTIPOLES>  (1) 
194.06
3.28
1.38
1.13
1.64
0.17
0.07
0.03
0.2
-0.53
-0.39
-0.18
0.1
0.52

>  <PUBCHEM_SHAPE_SELFOVERLAP>  (1) 
389.858

>  <PUBCHEM_SHAPE_VOLUME>  (1) 
113.8

>  <PUBCHEM_COORDINATE_TYPE>  (1) 
2
5
10

$$$$
