15990
     RDKit          3D

 27 30  0  0  1  0  0  0  0  0999 V2000
   -0.3214    0.0896    0.1445 O   0  0  0  0  0  0  0  0  0  0  0  0
   -0.0474    1.0889   -1.9087 O   0  0  0  0  0  0  0  0  0  0  0  0
    2.2515   -0.1860   -2.2315 O   0  0  0  0  0  0  0  0  0  0  0  0
   -4.2930   -0.8293    0.2337 N   0  0  0  0  0  0  0  0  0  0  0  0
   -3.9123   -0.1487   -1.0135 C   0  0  0  0  0  0  0  0  0  0  0  0
   -3.8971   -0.0183    1.3951 C   0  0  0  0  0  0  0  0  0  0  0  0
   -2.3732   -0.1253   -1.0863 C   0  0  0  0  0  0  0  0  0  0  0  0
   -2.3572    0.0120    1.4453 C   0  0  0  0  0  0  0  0  0  0  0  0
   -1.6952    0.4748    0.1459 C   0  0  0  0  0  0  0  0  0  0  0  0
   -4.5554    1.2440   -1.1519 C   0  0  0  0  0  0  0  0  0  0  0  0
   -4.5393    1.3818    1.3905 C   0  0  0  0  0  0  0  0  0  0  0  0
   -4.3981    2.1412    0.0734 C   0  0  0  0  0  0  0  0  0  0  0  0
   -5.6940   -1.2364    0.2647 C   0  0  0  0  0  0  0  0  0  0  0  0
    0.4029    0.4625   -0.9553 C   0  0  0  0  0  0  0  0  0  0  0  0
    1.8487   -0.0269   -0.8606 C   0  0  0  0  0  0  0  0  0  0  0  0
    2.7479    1.0203   -0.1979 C   0  0  0  0  0  0  0  0  0  0  0  0
    1.9551   -1.4311   -0.2477 C   0  0  0  0  0  0  0  0  0  0  0  0
    4.0207    1.1991   -0.6879 C   0  0  0  0  0  0  0  0  0  0  0  0
    2.8168   -1.6207    0.8046 C   0  0  0  0  0  0  0  0  0  0  0  0
    2.2478    1.7415    0.8613 C   0  0  0  0  0  0  0  0  0  0  0  0
    1.1836   -2.4357   -0.7783 C   0  0  0  0  0  0  0  0  0  0  0  0
    4.8399    2.1532   -0.0844 C   0  0  0  0  0  0  0  0  0  0  0  0
    2.9134   -2.8960    1.3615 C   0  0  0  0  0  0  0  0  0  0  0  0
    3.0671    2.6958    1.4646 C   0  0  0  0  0  0  0  0  0  0  0  0
    1.2802   -3.7109   -0.2213 C   0  0  0  0  0  0  0  0  0  0  0  0
    4.3632    2.9015    0.9917 C   0  0  0  0  0  0  0  0  0  0  0  0
    2.1451   -3.9409    0.8487 C   0  0  0  0  0  0  0  0  0  0  0  0
  1  9  1  0
  1 14  1  0
  2 14  2  0
  3 15  1  0
  4  5  1  0
  4  6  1  0
  4 13  1  0
  5  7  1  0
  5 10  1  0
  6  8  1  0
  6 11  1  0
  7  9  1  0
  8  9  1  0
 10 12  1  0
 11 12  1  0
 14 15  1  0
 15 16  1  0
 15 17  1  0
 16 18  2  0
 16 20  1  0
 17 19  2  0
 17 21  1  0
 18 22  1  0
 19 23  1  0
 20 24  2  0
 21 25  2  0
 22 26  2  0
 23 27  2  0
 24 26  1  0
 25 27  1  0
M  END
>  <PUBCHEM_COMPOUND_CID>  (1) 
15990

>  <PUBCHEM_CONFORMER_RMSD>  (1) 
0.8

>  <PUBCHEM_CONFORMER_DIVERSEORDER>  (1) 
1
153
64
100
142
145
117
84
104
99
128
141
66
68
98
122
20
54
157
79
166
140
147
134
81
172
21
92
165
50
15
107
75
17
167
136
111
162
171
22
159
169
36
83
30
144
114
26
72
125
89
67
102
35
116
74
49
123
14
40
108
124
137
29
118
53
63
80
73
51
164
158
24
129
151
146
148
8
160
112
55
10
113
96
156
143
103
149
78
109
71
13
110
43
45
155
119
56
85
170
91
90
34
95
132
41
168
94
105
37
150
77
47
131
9
39
69
138
115
88
154
2
12
127
19
163
57
4
106
82
60
101
133
62
87
130
120
65
7
76
152
161
135
97
11
16
27
70
18
93
121
32
58
44
5
86
42
126
25
59
23
3
6
46
31
38
139
48
52
33
61
28

>  <PUBCHEM_MMFF94_PARTIAL_CHARGES>  (1) 
33
1 -0.43
13 0.27
14 0.66
15 0.63
16 -0.14
17 -0.14
18 -0.15
19 -0.15
2 -0.57
20 -0.15
21 -0.15
22 -0.15
23 -0.15
24 -0.15
25 -0.15
26 -0.15
27 -0.15
3 -0.68
4 -0.81
44 0.4
45 0.15
46 0.15
47 0.15
48 0.15
49 0.15
5 0.27
50 0.15
51 0.15
52 0.15
53 0.15
54 0.15
6 0.27
9 0.28

>  <PUBCHEM_EFFECTIVE_ROTOR_COUNT>  (1) 
6.4

>  <PUBCHEM_PHARMACOPHORE_FEATURES>  (1) 
8
1 2 acceptor
1 3 acceptor
1 3 donor
1 4 cation
6 16 18 20 22 24 26 rings
6 17 19 21 23 25 27 rings
6 4 5 6 10 11 12 rings
6 4 5 6 7 8 9 rings

>  <PUBCHEM_HEAVY_ATOM_COUNT>  (1) 
27

>  <PUBCHEM_ATOM_DEF_STEREO_COUNT>  (1) 
0

>  <PUBCHEM_ATOM_UDEF_STEREO_COUNT>  (1) 
2

>  <PUBCHEM_BOND_DEF_STEREO_COUNT>  (1) 
0

>  <PUBCHEM_BOND_UDEF_STEREO_COUNT>  (1) 
0

>  <PUBCHEM_ISOTOPIC_ATOM_COUNT>  (1) 
0

>  <PUBCHEM_COMPONENT_COUNT>  (1) 
1

>  <PUBCHEM_CACTVS_TAUTO_COUNT>  (1) 
1

>  <PUBCHEM_CONFORMER_ID>  (1) 
00003E7600000001

>  <PUBCHEM_MMFF94_ENERGY>  (1) 
79.7139

>  <PUBCHEM_FEATURE_SELFOVERLAP>  (1) 
42.081

>  <PUBCHEM_SHAPE_FINGERPRINT>  (1) 
10074138 170 17688565566443142680
10165383 225 18263367044290051932
10305334 12 16694081415429592818
10366900 7 18337116760267371817
1100329 8 18411972569150196418
11007060 377 18054225707665786216
11405975 8 18263926536572870553
11475781 23 16951104211722723719
11578080 2 18189329087443855581
12107183 9 17763468318579930321
12156800 1 17409333584383855938
12422481 6 17895734250331804898
12549972 3 17751374888812014409
12633257 1 18126568916706455849
12892183 10 18408890633529951253
13009979 54 15624283883082989254
13140716 1 18336260223830450594
13224815 77 18333454235790781421
13533116 47 18409730630554678763
13583140 156 18342173371763222037
13631057 29 17984696981639351303
13878862 14 18122043339837888757
14178342 30 18116441516687276043
146900 427 18272375303836823083
14787075 74 17555162911176409119
14790565 3 18190467241156267764
15142526 21 18056191612427447480
15338160 23 17329701537011455288
15475509 84 17907582428266014928
15775530 1 17680404690383639908
15927050 60 18339640174694148670
17138139 8 17554297578467566751
17349148 13 17531525502997298141
17868525 174 17977942389061342272
17913733 40 18337658781161612088
18681886 176 16487252205387220080
20567600 347 18261672683269264298
20681651 13 18343589538581947987
20739085 24 18260829280884077604
21033648 29 18268420411962500480
21049683 118 17839996848918391506
21120745 212 17332539973654788734
21421861 104 18196945378687351448
21796203 349 18049744926698922082
21859007 373 17098603580303295997
22393880 68 18341620312560314479
23419403 2 17607215720424021534
23558518 356 17476908525819004140
23559900 14 17895476920964925991
268830 7 18130796612104259465
3178227 256 18335707122616321290
392239 28 18055923344501292459
394222 165 18130783469103185842
4058900 60 18410301341203189904
427121 178 18338801238262034014
4340502 62 18341334512451251054
469060 322 17753312451675664407
474 4 18270682107232804552
495365 180 18408878508161956705
5104073 3 18335989675561167265
5895379 119 17201368355928593944
59755656 520 18268987773337061740
633830 44 18131071584220941556
6442390 28 18337673134952851908
6443956 14 17976819779194263762
6669772 16 18340774823459682982
7288768 16 17625517357704058832
81228 2 17470436800588677358
9841814 1 18193557762067035522

>  <PUBCHEM_SHAPE_MULTIPOLES>  (1) 
533.06
10.93
3.91
1.6
10.76
3.07
-0.18
-5.29
1.79
-5.55
1.35
0.08
-0.21
0.08

>  <PUBCHEM_SHAPE_SELFOVERLAP>  (1) 
1157.111

>  <PUBCHEM_SHAPE_VOLUME>  (1) 
288.5

>  <PUBCHEM_COORDINATE_TYPE>  (1) 
2
5
10

$$$$
