16008
     RDKit          3D

 15 15  0  0  0  0  0  0  0  0999 V2000
    2.7540   -0.0051   -0.0007 Cl  0  0  0  0  0  0  0  0  0  0  0  0
    0.3143    3.5134    0.0002 O   0  0  0  0  0  0  0  0  0  0  0  0
    0.3007   -3.5146    0.0004 O   0  0  0  0  0  0  0  0  0  0  0  0
    2.2481    2.4744    0.0003 O   0  0  0  0  0  0  0  0  0  0  0  0
    2.2385   -2.4831   -0.0002 O   0  0  0  0  0  0  0  0  0  0  0  0
    0.9955    2.4620    0.0000 N   0  0  0  0  0  0  0  0  0  0  0  0
    0.9860   -2.4659    0.0002 N   0  0  0  0  0  0  0  0  0  0  0  0
   -4.3642    0.0081   -0.0003 N   0  0  0  0  0  0  0  0  0  0  0  0
    0.3213    1.2074    0.0000 C   0  0  0  0  0  0  0  0  0  0  0  0
    0.3167   -1.2087    0.0000 C   0  0  0  0  0  0  0  0  0  0  0  0
    1.0165   -0.0020    0.0000 C   0  0  0  0  0  0  0  0  0  0  0  0
   -1.0736    1.2102    0.0001 C   0  0  0  0  0  0  0  0  0  0  0  0
   -1.0783   -1.2058    0.0000 C   0  0  0  0  0  0  0  0  0  0  0  0
   -1.7733    0.0036    0.0001 C   0  0  0  0  0  0  0  0  0  0  0  0
   -3.2022    0.0062   -0.0001 C   0  0  0  0  0  0  0  0  0  0  0  0
  1 11  1  0
  2  6  1  0
  3  7  1  0
  4  6  2  0
  5  7  2  0
  6  9  1  0
  7 10  1  0
  8 15  3  0
  9 11  2  0
  9 12  1  0
 10 11  1  0
 10 13  2  0
 12 14  2  0
 13 14  1  0
 14 15  1  0
M  CHG  4   2  -1   3  -1   6   1   7   1
M  END
>  <PUBCHEM_COMPOUND_CID>  (1) 
16008

>  <PUBCHEM_CONFORMER_RMSD>  (1) 
0.6

>  <PUBCHEM_CONFORMER_DIVERSEORDER>  (1) 
1

>  <PUBCHEM_MMFF94_PARTIAL_CHARGES>  (1) 
17
1 -0.18
10 0.13
11 0.18
12 -0.15
13 -0.15
14 0.07
15 0.48
16 0.15
17 0.15
2 -0.52
3 -0.52
4 -0.52
5 -0.52
6 0.91
7 0.91
8 -0.56
9 0.13

>  <PUBCHEM_EFFECTIVE_ROTOR_COUNT>  (1) 
2

>  <PUBCHEM_PHARMACOPHORE_FEATURES>  (1) 
8
1 2 acceptor
1 2 anion
1 3 acceptor
1 3 anion
1 4 acceptor
1 5 acceptor
1 8 acceptor
6 9 10 11 12 13 14 rings

>  <PUBCHEM_HEAVY_ATOM_COUNT>  (1) 
15

>  <PUBCHEM_ATOM_DEF_STEREO_COUNT>  (1) 
0

>  <PUBCHEM_ATOM_UDEF_STEREO_COUNT>  (1) 
0

>  <PUBCHEM_BOND_DEF_STEREO_COUNT>  (1) 
0

>  <PUBCHEM_BOND_UDEF_STEREO_COUNT>  (1) 
0

>  <PUBCHEM_ISOTOPIC_ATOM_COUNT>  (1) 
0

>  <PUBCHEM_COMPONENT_COUNT>  (1) 
1

>  <PUBCHEM_CACTVS_TAUTO_COUNT>  (1) 
1

>  <PUBCHEM_CONFORMER_ID>  (1) 
00003E8800000001

>  <PUBCHEM_MMFF94_ENERGY>  (1) 
60.8249

>  <PUBCHEM_FEATURE_SELFOVERLAP>  (1) 
40.762

>  <PUBCHEM_SHAPE_FINGERPRINT>  (1) 
1 1 18337952406368454349
10967382 1 18410856576830208262
11471102 20 18410006607656440551
13140716 1 18266455597382982449
13380535 76 18052534666601541501
13380536 305 18339084898796999029
14251717 144 18411131455180426479
14790565 3 18338532901232599068
15490181 7 17832436666610139106
15490181 8 17908412902899029038
16945 1 18410575084905717509
20511035 2 17752776993332591587
20588541 1 18333736809983753127
20645476 183 17681849723266079236
20645477 70 18335129917703451903
21501502 16 17905614293930400026
21524375 3 17972589163582858465
2334 1 17978511167406079625
23419403 2 17535151546200524102
23530152 11 18194403526910568607
23558518 356 17324919747613594048
23559900 14 16181568894901371342
241688 4 17906172854189641001
2748010 2 18120380023135283335
3060560 45 18411133679799224423
3071541 250 18267595606284006367
7364860 26 18411138034969915105
81228 2 17401472763544889057

>  <PUBCHEM_SHAPE_MULTIPOLES>  (1) 
272.14
4.24
3.71
0.57
4.23
0
0
0
0
-2.56
0
0.01
0
0

>  <PUBCHEM_SHAPE_SELFOVERLAP>  (1) 
574.418

>  <PUBCHEM_SHAPE_VOLUME>  (1) 
153

>  <PUBCHEM_COORDINATE_TYPE>  (1) 
2
5
10

$$$$
