16010
     RDKit          3D

 15 15  0  0  0  0  0  0  0  0999 V2000
    3.9579    1.6135   -0.1374 O   0  0  0  0  0  0  0  0  0  0  0  0
    3.1797   -0.6119   -0.1346 N   0  0  0  0  0  0  0  0  0  0  0  0
   -4.2671    0.1357   -0.3046 N   0  0  0  0  0  0  0  0  0  0  0  0
   -2.3175   -0.0934    0.6961 N   0  0  0  0  0  0  0  0  0  0  0  0
   -2.9070    0.0025   -0.4023 N   0  0  0  0  0  0  0  0  0  0  0  0
    1.8062   -0.4821    0.0738 C   0  0  0  0  0  0  0  0  0  0  0  0
   -0.9403   -0.2229    0.4890 C   0  0  0  0  0  0  0  0  0  0  0  0
    1.2390    0.7841    0.2190 C   0  0  0  0  0  0  0  0  0  0  0  0
    1.0000   -1.6188    0.1361 C   0  0  0  0  0  0  0  0  0  0  0  0
   -0.1342    0.9136    0.4267 C   0  0  0  0  0  0  0  0  0  0  0  0
   -0.3733   -1.4891    0.3437 C   0  0  0  0  0  0  0  0  0  0  0  0
    4.1406    0.4038   -0.2265 C   0  0  0  0  0  0  0  0  0  0  0  0
   -4.9083    0.7781    0.8297 C   0  0  0  0  0  0  0  0  0  0  0  0
   -4.9983    0.0402   -1.5516 C   0  0  0  0  0  0  0  0  0  0  0  0
    5.5229   -0.1534   -0.4571 C   0  0  0  0  0  0  0  0  0  0  0  0
  1 12  2  0
  2  6  1  0
  2 12  1  0
  3  5  1  0
  3 13  1  0
  3 14  1  0
  4  5  2  0
  4  7  1  0
  6  8  2  0
  6  9  1  0
  7 10  2  0
  7 11  1  0
  8 10  1  0
  9 11  2  0
 12 15  1  0
M  END
>  <PUBCHEM_COMPOUND_CID>  (1) 
16010

>  <PUBCHEM_CONFORMER_RMSD>  (1) 
0.6

>  <PUBCHEM_CONFORMER_DIVERSEORDER>  (1) 
1
7
6
3
4
8
5
2

>  <PUBCHEM_MMFF94_PARTIAL_CHARGES>  (1) 
20
1 -0.57
10 -0.15
11 -0.15
12 0.57
13 0.3
14 0.3
15 0.06
16 0.15
17 0.15
18 0.15
19 0.15
2 -0.55
20 0.37
3 -0.54
4 -0.18
5 -0.06
6 0.12
7 0.18
8 -0.15
9 -0.15

>  <PUBCHEM_EFFECTIVE_ROTOR_COUNT>  (1) 
4

>  <PUBCHEM_PHARMACOPHORE_FEATURES>  (1) 
3
1 1 acceptor
1 2 donor
6 6 7 8 9 10 11 rings

>  <PUBCHEM_HEAVY_ATOM_COUNT>  (1) 
15

>  <PUBCHEM_ATOM_DEF_STEREO_COUNT>  (1) 
0

>  <PUBCHEM_ATOM_UDEF_STEREO_COUNT>  (1) 
0

>  <PUBCHEM_BOND_DEF_STEREO_COUNT>  (1) 
0

>  <PUBCHEM_BOND_UDEF_STEREO_COUNT>  (1) 
0

>  <PUBCHEM_ISOTOPIC_ATOM_COUNT>  (1) 
0

>  <PUBCHEM_COMPONENT_COUNT>  (1) 
1

>  <PUBCHEM_CACTVS_TAUTO_COUNT>  (1) 
3

>  <PUBCHEM_CONFORMER_ID>  (1) 
00003E8A00000001

>  <PUBCHEM_MMFF94_ENERGY>  (1) 
44.5669

>  <PUBCHEM_FEATURE_SELFOVERLAP>  (1) 
15.223

>  <PUBCHEM_SHAPE_FINGERPRINT>  (1) 
11401426 45 18342173379957303242
11471102 20 18410011031282864178
11543360 7 16415197909725504272
11796584 16 14548741685843500453
12236239 1 17704072884566366508
12251169 10 10665232557305397362
12670543 26 18340209587886918462
13533116 47 18272084943322363282
13760787 5 18410009893016563923
14123238 8 12324243875299231048
14251718 22 16271923835223279020
14455015 7 12103850080931414701
14576447 43 17988628723455929631
14911166 2 18413671322581987346
14943859 89 17240201045010595681
14993402 34 17917991689333961318
15048467 5 14201399391524102318
15501527 24 18202562899325582684
17834072 33 17418091039869198961
17834072 8 18335708243444464910
17834076 25 18411422803864840513
187816 3 18202568379972812826
200 152 17704354368132992394
20645477 56 17313104159364289807
20645477 70 18337392634564887482
21637258 2 15267335198014841180
231179 274 17603579725206070301
23402539 116 17632859711163772145
23402655 69 18342170013130418957
23557571 272 16733273369762396311
23559900 14 18342741862493318088
2916195 48 16443346506929543749
366044 4 18409168818155791066
4047638 21 18259706705281564474
4072396 5 18188474810148195274
42 15 7925913681468134607
465052 167 11023822902948366476
4990 188 17632864126558769332
81539 233 17967531246644076498

>  <PUBCHEM_SHAPE_MULTIPOLES>  (1) 
282.9
11.26
1.28
0.92
1.99
0.17
-0.21
-2.68
-3.14
-0.67
0.13
1.13
-0.02
-0.26

>  <PUBCHEM_SHAPE_SELFOVERLAP>  (1) 
573.265

>  <PUBCHEM_SHAPE_VOLUME>  (1) 
165.9

>  <PUBCHEM_COORDINATE_TYPE>  (1) 
2
5
10

$$$$
