16012
     RDKit          3D

 23 25  0  0  0  0  0  0  0  0999 V2000
   -4.7580    1.4549    0.1373 S   0  0  0  0  0  0  0  0  0  0  0  0
    1.8243   -3.2799   -0.2103 O   0  0  0  0  0  0  0  0  0  0  0  0
   -5.3525    1.4692   -1.3857 O   0  0  0  0  0  0  0  0  0  0  0  0
   -5.6356    0.6039    0.9276 O   0  0  0  0  0  0  0  0  0  0  0  0
   -4.5029    2.8304    0.5354 O   0  0  0  0  0  0  0  0  0  0  0  0
    1.7106   -0.5356   -0.5168 N   0  0  0  0  0  0  0  0  0  0  0  0
    2.2234   -0.1825    0.5685 N   0  0  0  0  0  0  0  0  0  0  0  0
   -0.7093   -0.6081   -0.1768 C   0  0  0  0  0  0  0  0  0  0  0  0
   -1.8747   -1.3718    0.0713 C   0  0  0  0  0  0  0  0  0  0  0  0
   -3.2060    0.6639    0.0160 C   0  0  0  0  0  0  0  0  0  0  0  0
   -3.1154   -0.7204    0.1647 C   0  0  0  0  0  0  0  0  0  0  0  0
    0.5315   -1.2591   -0.2705 C   0  0  0  0  0  0  0  0  0  0  0  0
   -0.8190    0.7843   -0.3243 C   0  0  0  0  0  0  0  0  0  0  0  0
   -1.7648   -2.7641    0.2184 C   0  0  0  0  0  0  0  0  0  0  0  0
   -2.0599    1.4149   -0.2283 C   0  0  0  0  0  0  0  0  0  0  0  0
    0.6222   -2.6434   -0.1213 C   0  0  0  0  0  0  0  0  0  0  0  0
   -0.5239   -3.3944    0.1226 C   0  0  0  0  0  0  0  0  0  0  0  0
    3.4028    0.5409    0.3225 C   0  0  0  0  0  0  0  0  0  0  0  0
    3.3456    1.9226    0.1685 C   0  0  0  0  0  0  0  0  0  0  0  0
    4.6189   -0.1296    0.2343 C   0  0  0  0  0  0  0  0  0  0  0  0
    4.5159    2.6409   -0.0765 C   0  0  0  0  0  0  0  0  0  0  0  0
    5.7892    0.5888   -0.0105 C   0  0  0  0  0  0  0  0  0  0  0  0
    5.7377    1.9741   -0.1660 C   0  0  0  0  0  0  0  0  0  0  0  0
  1  3  1  0
  1  4  2  0
  1  5  2  0
  1 10  1  0
  2 16  1  0
  6  7  2  0
  6 12  1  0
  7 18  1  0
  8  9  2  0
  8 12  1  0
  8 13  1  0
  9 11  1  0
  9 14  1  0
 10 11  2  0
 10 15  1  0
 12 16  2  0
 13 15  2  0
 14 17  2  0
 16 17  1  0
 18 19  2  0
 18 20  1  0
 19 21  1  0
 20 22  2  0
 21 23  2  0
 22 23  1  0
M  END
>  <PUBCHEM_COMPOUND_CID>  (1) 
16012

>  <PUBCHEM_CONFORMER_RMSD>  (1) 
0.6

>  <PUBCHEM_CONFORMER_DIVERSEORDER>  (1) 
1
4
2
3
5

>  <PUBCHEM_MMFF94_PARTIAL_CHARGES>  (1) 
33
1 1.49
10 -0.01
11 -0.15
12 0.18
13 -0.15
14 -0.15
15 -0.15
16 0.08
17 -0.15
18 0.18
19 -0.15
2 -0.53
20 -0.15
21 -0.15
22 -0.15
23 -0.15
24 0.15
25 0.15
26 0.15
27 0.15
28 0.15
29 0.45
3 -0.68
30 0.5
31 0.15
32 0.15
33 0.15
34 0.15
35 0.15
4 -0.65
5 -0.65
6 -0.18
7 -0.18

>  <PUBCHEM_EFFECTIVE_ROTOR_COUNT>  (1) 
3

>  <PUBCHEM_PHARMACOPHORE_FEATURES>  (1) 
8
1 2 donor
1 3 acceptor
1 4 acceptor
1 5 acceptor
4 1 3 4 5 anion
6 18 19 20 21 22 23 rings
6 8 9 10 11 13 15 rings
6 8 9 12 14 16 17 rings

>  <PUBCHEM_HEAVY_ATOM_COUNT>  (1) 
23

>  <PUBCHEM_ATOM_DEF_STEREO_COUNT>  (1) 
0

>  <PUBCHEM_ATOM_UDEF_STEREO_COUNT>  (1) 
0

>  <PUBCHEM_BOND_DEF_STEREO_COUNT>  (1) 
0

>  <PUBCHEM_BOND_UDEF_STEREO_COUNT>  (1) 
0

>  <PUBCHEM_ISOTOPIC_ATOM_COUNT>  (1) 
0

>  <PUBCHEM_COMPONENT_COUNT>  (1) 
1

>  <PUBCHEM_CACTVS_TAUTO_COUNT>  (1) 
3

>  <PUBCHEM_CONFORMER_ID>  (1) 
00003E8C00000001

>  <PUBCHEM_MMFF94_ENERGY>  (1) 
58.8709

>  <PUBCHEM_FEATURE_SELFOVERLAP>  (1) 
40.678

>  <PUBCHEM_SHAPE_FINGERPRINT>  (1) 
10050765 1 18411420592279475719
10411042 1 17474108077787403055
10493431 412 18410296921496654033
12107183 9 18335691708036939298
12173636 292 18195803192618008550
12390115 104 18269853015335393201
12422481 6 17240482477080202477
12769317 202 18269826545494594145
13583140 156 16443610372566422141
13785724 45 17905885873836042610
138480 1 17690280413176485218
14767858 380 18271226310471104869
14787075 74 18201716267505089921
14790565 3 18411142432732421200
15196674 1 18338516451765551632
15475509 35 16516815723536992195
17834072 32 18410575106507310456
17980427 23 17822015358311382463
18785283 64 18265051328014628170
19784866 170 18335141985843914465
204376 136 18410292501948828771
21033648 29 18199742712742082464
21236236 1 18340485685675675311
21452121 103 18265052444589710227
21756936 100 18270954760847271060
23227448 37 18339642346865633452
23558518 356 18044376269445011362
23559900 14 18272375248556506334
283562 15 18192987351692559331
2838139 119 18131063827225187492
335352 9 18411136914627204878
350125 39 18192716644187608702
4214541 1 18338234998579987192
474 4 18339920424649663867
5104073 3 18117570535441664961
56616090 163 18412835681044904078
59755656 215 18340493262224631262
59755656 520 18410289220340919270
6327066 14 18335414686002473485
633830 44 18271523109052396438
7064713 232 18335701689013635092
7808743 9 18338515347658283008
9981440 41 18408885169683224395

>  <PUBCHEM_SHAPE_MULTIPOLES>  (1) 
443.74
12.51
3.68
0.75
5.16
2.26
0.05
-12.18
-0.45
-0.85
-0.01
-0.46
-0.15
0.09

>  <PUBCHEM_SHAPE_SELFOVERLAP>  (1) 
968.017

>  <PUBCHEM_SHAPE_VOLUME>  (1) 
241.4

>  <PUBCHEM_COORDINATE_TYPE>  (1) 
2
5
10

$$$$
