16021
     RDKit          3D

  9  9  0  0  0  0  0  0  0  0999 V2000
    0.6721   -0.3147   -1.4514 O   0  0  0  0  0  0  0  0  0  0  0  0
    0.5349   -0.2529   -0.0285 C   0  0  0  0  0  0  0  0  0  0  0  0
    0.0412    1.1548    0.3389 C   0  0  0  0  0  0  0  0  0  0  0  0
   -0.4726   -1.3222    0.4244 C   0  0  0  0  0  0  0  0  0  0  0  0
   -1.3738    1.4265   -0.1755 C   0  0  0  0  0  0  0  0  0  0  0  0
   -1.8847   -1.0432   -0.0925 C   0  0  0  0  0  0  0  0  0  0  0  0
   -2.3562    0.3562    0.2889 C   0  0  0  0  0  0  0  0  0  0  0  0
    1.9121   -0.5127    0.5846 C   0  0  0  0  0  0  0  0  0  0  0  0
    2.9270    0.5082    0.1110 C   0  0  0  0  0  0  0  0  0  0  0  0
  1  2  1  0
  2  3  1  0
  2  4  1  0
  2  8  1  0
  3  5  1  0
  4  6  1  0
  5  7  1  0
  6  7  1  0
  8  9  1  0
M  END
>  <PUBCHEM_COMPOUND_CID>  (1) 
16021

>  <PUBCHEM_CONFORMER_RMSD>  (1) 
0.4

>  <PUBCHEM_CONFORMER_DIVERSEORDER>  (1) 
1
10
3
8
2
11
9
5
4
6
7

>  <PUBCHEM_MMFF94_PARTIAL_CHARGES>  (1) 
3
1 -0.68
2 0.28
22 0.4

>  <PUBCHEM_EFFECTIVE_ROTOR_COUNT>  (1) 
2.2

>  <PUBCHEM_PHARMACOPHORE_FEATURES>  (1) 
4
1 1 acceptor
1 1 donor
1 9 hydrophobe
6 2 3 4 5 6 7 rings

>  <PUBCHEM_HEAVY_ATOM_COUNT>  (1) 
9

>  <PUBCHEM_ATOM_DEF_STEREO_COUNT>  (1) 
0

>  <PUBCHEM_ATOM_UDEF_STEREO_COUNT>  (1) 
0

>  <PUBCHEM_BOND_DEF_STEREO_COUNT>  (1) 
0

>  <PUBCHEM_BOND_UDEF_STEREO_COUNT>  (1) 
0

>  <PUBCHEM_ISOTOPIC_ATOM_COUNT>  (1) 
0

>  <PUBCHEM_COMPONENT_COUNT>  (1) 
1

>  <PUBCHEM_CACTVS_TAUTO_COUNT>  (1) 
1

>  <PUBCHEM_CONFORMER_ID>  (1) 
00003E9500000001

>  <PUBCHEM_MMFF94_ENERGY>  (1) 
11.1692

>  <PUBCHEM_FEATURE_SELFOVERLAP>  (1) 
20.297

>  <PUBCHEM_SHAPE_FINGERPRINT>  (1) 
10857977 72 18341601672370419328
12423570 1 10771390993335660671
12716758 59 18339934705431968166
13024252 1 17822284695420253114
13839132 238 18127981805901100116
16714656 1 18411699893679889985
16945 1 18410848884549094968
18185500 45 18187364341694836939
21040471 1 18193281784484485177
23235685 24 18059856129968738041
23552423 10 18188490177272401538
29004967 10 16917072143907490179
369184 2 18335414656005786680
5084963 1 18201996633810331288

>  <PUBCHEM_SHAPE_MULTIPOLES>  (1) 
179.35
3.37
1.41
0.86
1.32
0.1
-0.22
0.3
0.3
-0.51
0.09
0.14
-0.07
-0.02

>  <PUBCHEM_SHAPE_SELFOVERLAP>  (1) 
346.762

>  <PUBCHEM_SHAPE_VOLUME>  (1) 
108.7

>  <PUBCHEM_COORDINATE_TYPE>  (1) 
2
5
10

$$$$
