16028
     RDKit          3D

 17 16  0  0  0  0  0  0  0  0999 V2000
    0.0069    0.0400   -0.0318 N   0  0  0  0  0  0  0  0  0  0  0  0
    0.8588   -1.0887    0.5663 C   0  0  0  0  0  0  0  0  0  0  0  0
   -0.9190    0.5733    1.0709 C   0  0  0  0  0  0  0  0  0  0  0  0
   -0.8697   -0.5615   -1.1396 C   0  0  0  0  0  0  0  0  0  0  0  0
    0.8665    1.1224   -0.5683 C   0  0  0  0  0  0  0  0  0  0  0  0
    1.7085   -0.5267    1.6963 C   0  0  0  0  0  0  0  0  0  0  0  0
   -1.8045    1.6670    0.4926 C   0  0  0  0  0  0  0  0  0  0  0  0
   -1.7334   -1.6653   -0.5478 C   0  0  0  0  0  0  0  0  0  0  0  0
    1.7658    0.5526   -1.6552 C   0  0  0  0  0  0  0  0  0  0  0  0
    2.6098   -1.6064    2.2941 C   0  0  0  0  0  0  0  0  0  0  0  0
   -2.7140    2.2617    1.5670 C   0  0  0  0  0  0  0  0  0  0  0  0
   -2.5923   -2.3268   -1.6248 C   0  0  0  0  0  0  0  0  0  0  0  0
    2.7048    1.6240   -2.2079 C   0  0  0  0  0  0  0  0  0  0  0  0
    3.4903   -1.0480    3.4007 C   0  0  0  0  0  0  0  0  0  0  0  0
   -3.5785    3.3809    1.0088 C   0  0  0  0  0  0  0  0  0  0  0  0
   -3.4337   -3.4559   -1.0515 C   0  0  0  0  0  0  0  0  0  0  0  0
    3.6336    1.0575   -3.2699 C   0  0  0  0  0  0  0  0  0  0  0  0
  1  2  1  0
  1  3  1  0
  1  4  1  0
  1  5  1  0
  2  6  1  0
  3  7  1  0
  4  8  1  0
  5  9  1  0
  6 10  1  0
  7 11  1  0
  8 12  1  0
  9 13  1  0
 10 14  1  0
 11 15  1  0
 12 16  1  0
 13 17  1  0
M  CHG  1   1   1
M  END
>  <PUBCHEM_COMPOUND_CID>  (1) 
16028

>  <PUBCHEM_CONFORMER_RMSD>  (1) 
1

>  <PUBCHEM_CONFORMER_DIVERSEORDER>  (1) 
5
13
12
3
18
1
16
15
11
7
2
14
10
17
8
9
4
6

>  <PUBCHEM_MMFF94_PARTIAL_CHARGES>  (1) 
5
1 -1.01
2 0.5
3 0.5
4 0.5
5 0.5

>  <PUBCHEM_EFFECTIVE_ROTOR_COUNT>  (1) 
12

>  <PUBCHEM_PHARMACOPHORE_FEATURES>  (1) 
5
1 1 cation
1 14 hydrophobe
1 15 hydrophobe
1 16 hydrophobe
1 17 hydrophobe

>  <PUBCHEM_HEAVY_ATOM_COUNT>  (1) 
17

>  <PUBCHEM_ATOM_DEF_STEREO_COUNT>  (1) 
0

>  <PUBCHEM_ATOM_UDEF_STEREO_COUNT>  (1) 
0

>  <PUBCHEM_BOND_DEF_STEREO_COUNT>  (1) 
0

>  <PUBCHEM_BOND_UDEF_STEREO_COUNT>  (1) 
0

>  <PUBCHEM_ISOTOPIC_ATOM_COUNT>  (1) 
0

>  <PUBCHEM_COMPONENT_COUNT>  (1) 
1

>  <PUBCHEM_CACTVS_TAUTO_COUNT>  (1) 
1

>  <PUBCHEM_CONFORMER_ID>  (1) 
00003E9C00000005

>  <PUBCHEM_MMFF94_ENERGY>  (1) 
38.1968

>  <PUBCHEM_FEATURE_SELFOVERLAP>  (1) 
25.374

>  <PUBCHEM_SHAPE_FINGERPRINT>  (1) 
10756046 70 18115312141972172581
11578080 2 16629702758459291056
12173636 292 17103452705395868612
12716301 132 17988649562378559363
133893 2 17313096471536197898
14022347 108 17912367825166612559
14817 1 11081422872494863475
17980427 26 17242201022412571262
18915476 22 16443342130262877827
20600515 1 17485912336344873427
20671657 53 17099140278831196786
20711985 344 18200605812005108415
21524375 3 17901990466614197469
22112679 90 18407759222715850556
23419403 2 17040283490189053872
23526113 38 16823353384871008034
23557571 272 17560797757881848905
23558518 356 17539727945650851012
266924 1 18261393394282778687
266924 78 17312823792362709859
298252 57 17908464356771070844
59554788 281 17913747476236281909
633830 44 17606151509137537940
68419 9 18410012147605121985
76951 1 17615956047031454727
81228 2 17846779641893066107
88987 49 18202282472384267161
9841814 1 17623275483723278791
9999458 23 17053004560507330435

>  <PUBCHEM_SHAPE_MULTIPOLES>  (1) 
344.87
6.2
3.63
3.53
0.22
0.19
-0.3
-0.39
0.08
-5.69
0.11
5.51
0.15
-5.78

>  <PUBCHEM_SHAPE_SELFOVERLAP>  (1) 
626.106

>  <PUBCHEM_SHAPE_VOLUME>  (1) 
221

>  <PUBCHEM_COORDINATE_TYPE>  (1) 
2
5
10

$$$$
