16026
     RDKit          3D

 21 21  0  0  1  0  0  0  0  0999 V2000
    0.3034   -0.2237    0.5839 O   0  0  0  0  0  0  0  0  0  0  0  0
   -0.2414   -0.4272   -1.6789 O   0  0  0  0  0  0  0  0  0  0  0  0
    1.0784    2.3946    0.1166 O   0  0  0  0  0  0  0  0  0  0  0  0
    2.1384   -2.2735    0.2684 O   0  0  0  0  0  0  0  0  0  0  0  0
   -2.6367    0.5212    0.2420 N   0  0  0  0  0  0  0  0  0  0  0  0
   -1.9400   -0.7497    0.0485 C   0  0  0  0  0  0  0  0  0  0  0  0
   -2.7301   -1.6865   -0.8749 C   0  0  0  0  0  0  0  0  0  0  0  0
   -2.6972    1.2678   -1.0141 C   0  0  0  0  0  0  0  0  0  0  0  0
   -3.9830    0.2917    0.7653 C   0  0  0  0  0  0  0  0  0  0  0  0
   -0.5516   -0.4517   -0.4945 C   0  0  0  0  0  0  0  0  0  0  0  0
   -2.1063   -3.0651   -1.0654 C   0  0  0  0  0  0  0  0  0  0  0  0
   -3.3640    2.6189   -0.8181 C   0  0  0  0  0  0  0  0  0  0  0  0
   -3.9397   -0.4834    2.0713 C   0  0  0  0  0  0  0  0  0  0  0  0
    1.6131    0.0612    0.1914 C   0  0  0  0  0  0  0  0  0  0  0  0
    1.9687    1.3742   -0.0325 C   0  0  0  0  0  0  0  0  0  0  0  0
    2.5038   -0.9806    0.0430 C   0  0  0  0  0  0  0  0  0  0  0  0
    3.2770    1.6591   -0.4236 C   0  0  0  0  0  0  0  0  0  0  0  0
    3.8121   -0.6958   -0.3480 C   0  0  0  0  0  0  0  0  0  0  0  0
    4.1987    0.6241   -0.5813 C   0  0  0  0  0  0  0  0  0  0  0  0
    0.9926    2.9964    1.4067 C   0  0  0  0  0  0  0  0  0  0  0  0
    2.3040   -2.7720    1.5944 C   0  0  0  0  0  0  0  0  0  0  0  0
  1 10  1  0
  1 14  1  0
  2 10  2  0
  3 15  1  0
  3 20  1  0
  4 16  1  0
  4 21  1  0
  5  6  1  0
  5  8  1  0
  5  9  1  0
  6  7  1  0
  6 10  1  0
  7 11  1  0
  8 12  1  0
  9 13  1  0
 14 15  2  0
 14 16  1  0
 15 17  1  0
 16 18  2  0
 17 19  2  0
 18 19  1  0
M  END
>  <PUBCHEM_COMPOUND_CID>  (1) 
16026

>  <PUBCHEM_CONFORMER_RMSD>  (1) 
0.8

>  <PUBCHEM_CONFORMER_DIVERSEORDER>  (1) 
3
124
148
126
145
129
108
70
153
71
152
85
121
89
100
69
147
6
125
63
103
134
75
142
146
123
87
68
78
77
48
127
62
112
33
46
141
84
120
37
107
88
55
102
140
135
113
51
64
14
132
80
20
59
143
111
96
54
136
117
122
26
150
38
73
104
95
101
116
98
114
138
110
30
97
8
139
133
66
65
42
130
81
128
151
76
61
105
44
10
22
74
118
47
28
109
91
60
34
93
67
29
57
50
83
5
53
92
19
27
40
72
94
86
43
21
115
18
49
137
82
144
149
106
45
79
131
9
99
17
4
23
90
12
58
56
35
7
154
32
15
24
39
119
52
36
11
16
13
31
2
25
41
1

>  <PUBCHEM_MMFF94_PARTIAL_CHARGES>  (1) 
20
1 -0.23
10 0.66
14 0.08
15 0.08
16 0.08
17 -0.15
18 -0.15
19 -0.15
2 -0.57
20 0.28
21 0.28
3 -0.36
38 0.15
39 0.15
4 -0.36
40 0.15
5 -0.81
6 0.33
8 0.27
9 0.27

>  <PUBCHEM_EFFECTIVE_ROTOR_COUNT>  (1) 
9

>  <PUBCHEM_PHARMACOPHORE_FEATURES>  (1) 
6
1 11 hydrophobe
1 2 acceptor
1 3 acceptor
1 4 acceptor
1 5 cation
6 14 15 16 17 18 19 rings

>  <PUBCHEM_HEAVY_ATOM_COUNT>  (1) 
21

>  <PUBCHEM_ATOM_DEF_STEREO_COUNT>  (1) 
0

>  <PUBCHEM_ATOM_UDEF_STEREO_COUNT>  (1) 
1

>  <PUBCHEM_BOND_DEF_STEREO_COUNT>  (1) 
0

>  <PUBCHEM_BOND_UDEF_STEREO_COUNT>  (1) 
0

>  <PUBCHEM_ISOTOPIC_ATOM_COUNT>  (1) 
0

>  <PUBCHEM_COMPONENT_COUNT>  (1) 
1

>  <PUBCHEM_CACTVS_TAUTO_COUNT>  (1) 
1

>  <PUBCHEM_CONFORMER_ID>  (1) 
00003E9A00000003

>  <PUBCHEM_MMFF94_ENERGY>  (1) 
75.4624

>  <PUBCHEM_FEATURE_SELFOVERLAP>  (1) 
30.446

>  <PUBCHEM_SHAPE_FINGERPRINT>  (1) 
10064457 181 18042983149320452370
10366900 7 18114750433665278691
104564 63 17914904123450460976
10759866 29 18116160969660936716
10980938 120 18410009927439475766
116883 192 17768530487209385070
12507560 40 18041285361780652501
12553582 1 18341890741102815374
12633257 1 18059591212507522465
13140716 1 18196089073682720760
13583140 156 18334867147140523627
14178342 30 18195221490599976682
14223421 5 18125710438279399591
14289901 80 18333726931479838163
14713325 29 16963523504485452716
15375462 189 18335420145211751154
16945 1 18338506529889756133
17349148 13 17417802925321272975
18186145 218 18201162139150640052
18981168 100 18197471099822253905
19049666 15 18113900412197633057
19784866 9 18334289851933003936
20600515 1 16988552490452323946
23558518 356 17908423902368491123
25 1 18336551611675413698
34934 24 18341603785926877736
352729 6 17620754981695927960
58051976 100 18129383863836570391
6287921 2 17970638608354338684
6438718 38 16915951651665985521
70251023 43 17628622347964404871
7097593 13 18411413994982368619
74978 22 18272642480698521989
7832392 63 18272368702277000776
81228 2 17038663033435646642

>  <PUBCHEM_SHAPE_MULTIPOLES>  (1) 
403.71
7.6
3.3
1.42
0.69
0.06
0.44
-0.53
0.42
0
0.27
0.96
0.27
-0.38

>  <PUBCHEM_SHAPE_SELFOVERLAP>  (1) 
815.515

>  <PUBCHEM_SHAPE_VOLUME>  (1) 
237.3

>  <PUBCHEM_COORDINATE_TYPE>  (1) 
2
5
10

$$$$
