16033
     RDKit          3D

 18 19  0  0  1  0  0  0  0  0999 V2000
   -1.3181    0.3734   -1.0718 O   0  0  0  0  0  0  0  0  0  0  0  0
   -3.1843    2.2654   -0.0253 O   0  0  0  0  0  0  0  0  0  0  0  0
   -2.2752    0.0429   -0.0665 C   0  0  0  0  0  0  0  0  0  0  0  0
   -3.5225    0.9026   -0.2793 C   0  0  0  0  0  0  0  0  0  0  0  0
   -2.5955   -1.4488   -0.1569 C   0  0  0  0  0  0  0  0  0  0  0  0
   -4.6588    0.4904    0.6559 C   0  0  0  0  0  0  0  0  0  0  0  0
   -3.7257   -1.8467    0.7851 C   0  0  0  0  0  0  0  0  0  0  0  0
   -4.9715   -0.9975    0.5508 C   0  0  0  0  0  0  0  0  0  0  0  0
    4.1187   -0.1075    0.3561 C   0  0  0  0  0  0  0  0  0  0  0  0
    0.0003    0.2568   -0.7250 C   0  0  0  0  0  0  0  0  0  0  0  0
    2.6818    0.0195   -0.0211 C   0  0  0  0  0  0  0  0  0  0  0  0
    5.0523    0.2828   -0.8316 C   0  0  0  0  0  0  0  0  0  0  0  0
    4.4689   -1.5713    0.7677 C   0  0  0  0  0  0  0  0  0  0  0  0
    4.5792    0.7836    1.5574 C   0  0  0  0  0  0  0  0  0  0  0  0
    0.8250   -0.6133   -1.4311 C   0  0  0  0  0  0  0  0  0  0  0  0
    0.5060    1.0094    0.3303 C   0  0  0  0  0  0  0  0  0  0  0  0
    2.1691   -0.7323   -1.0780 C   0  0  0  0  0  0  0  0  0  0  0  0
    1.8502    0.8904    0.6832 C   0  0  0  0  0  0  0  0  0  0  0  0
  1  3  1  0
  1 10  1  0
  2  4  1  0
  3  4  1  0
  3  5  1  0
  4  6  1  0
  5  7  1  0
  6  8  1  0
  7  8  1  0
  9 11  1  0
  9 12  1  0
  9 13  1  0
  9 14  1  0
 10 15  2  0
 10 16  1  0
 11 17  2  0
 11 18  1  0
 15 17  1  0
 16 18  2  0
M  END
>  <PUBCHEM_COMPOUND_CID>  (1) 
16033

>  <PUBCHEM_CONFORMER_RMSD>  (1) 
0.6

>  <PUBCHEM_CONFORMER_DIVERSEORDER>  (1) 
9
117
113
40
128
41
132
130
15
90
14
125
57
129
85
116
103
97
126
64
122
54
89
107
131
29
81
94
133
73
121
92
105
56
98
84
135
124
101
115
30
99
72
1
127
60
134
111
83
80
106
108
65
44
110
120
91
112
33
123
28
71
49
93
19
109
119
31
5
17
78
82
114
12
13
18
66
27
96
86
118
51
20
74
52
2
16
6
63
11
67
104
68
102
4
70
62
53
7
50
55
26
77
32
23
100
87
48
35
3
10
46
8
75
61
47
25
24
88
42
34
76
38
36
95
79
45
43
39
37
22
69
21
59
58

>  <PUBCHEM_MMFF94_PARTIAL_CHARGES>  (1) 
16
1 -0.36
10 0.08
11 -0.14
15 -0.15
16 -0.15
17 -0.15
18 -0.15
2 -0.68
29 0.4
3 0.28
39 0.15
4 0.28
40 0.15
41 0.15
42 0.15
9 0.14

>  <PUBCHEM_EFFECTIVE_ROTOR_COUNT>  (1) 
4.2

>  <PUBCHEM_PHARMACOPHORE_FEATURES>  (1) 
6
1 1 acceptor
1 2 acceptor
1 2 donor
4 9 12 13 14 hydrophobe
6 10 11 15 16 17 18 rings
6 3 4 5 6 7 8 rings

>  <PUBCHEM_HEAVY_ATOM_COUNT>  (1) 
18

>  <PUBCHEM_ATOM_DEF_STEREO_COUNT>  (1) 
0

>  <PUBCHEM_ATOM_UDEF_STEREO_COUNT>  (1) 
2

>  <PUBCHEM_BOND_DEF_STEREO_COUNT>  (1) 
0

>  <PUBCHEM_BOND_UDEF_STEREO_COUNT>  (1) 
0

>  <PUBCHEM_ISOTOPIC_ATOM_COUNT>  (1) 
0

>  <PUBCHEM_COMPONENT_COUNT>  (1) 
1

>  <PUBCHEM_CACTVS_TAUTO_COUNT>  (1) 
1

>  <PUBCHEM_CONFORMER_ID>  (1) 
00003EA100000009

>  <PUBCHEM_MMFF94_ENERGY>  (1) 
56.3852

>  <PUBCHEM_FEATURE_SELFOVERLAP>  (1) 
30.448

>  <PUBCHEM_SHAPE_FINGERPRINT>  (1) 
10366900 7 18272929440638691315
10912923 1 17603588525826454156
11046707 91 17603301574866349615
11089746 13 13254795724942174842
12107183 9 17683798809415785744
12236239 1 16877944940765539789
12251169 10 18343021124844407639
12633257 1 17916320483779799851
12670546 177 8862939489560752290
128620 24 13912320187837048646
12892183 10 18410848863380298042
13167823 11 18040997328114762842
13583140 156 18191279681390352356
13675066 3 18059853974063810956
13760787 19 18334296457450221862
14252887 29 17918001559501208006
14289901 80 18040433266091839784
14341114 176 18411423924904247264
15209289 33 17967813877177681315
15375358 24 17989205915114378079
15653759 3 18411981381800075769
17804303 29 18410015468073784229
17834072 33 17822296820345161956
17844677 252 18410017636948411912
1813 80 16515406239961450998
18186145 218 15985104124290362260
18785283 64 18124309660793524752
19026448 5 17822013103559001100
19049666 15 18056774126299195559
19377110 9 17603579764520587688
19784866 170 18130792243694829140
200 152 14996281431435996293
20279233 1 18202007624948237335
20281475 54 18113333103037002854
204376 136 16630526258261251559
20645477 70 16988286352692758734
21033648 29 17274812528496978745
21065199 12 18413669097541073242
212847 35 14261354669892062946
21503847 285 14333127498918751986
22646028 1 16370720435351902192
22646028 28 17095242548801814035
22854114 59 17489588969487467126
23402539 116 15791726386751610988
23402655 69 11314021379254477283
23503958 8 18041000665394055371
23557571 272 18340216201757213988
23559900 14 18268443342918838662
23596394 208 11530471234061736776
26918003 58 18273497870933381363
29717793 49 16515402976007825879
4028521 119 10735887153416815435
42 15 18334014982040961883
4214541 1 18334857190857750333
4259306 186 14201388361842377370
474 4 14620502463213042306
4990 188 8286203851060779500
5104073 3 18342454799094139058
542803 24 13326856638578125609
573450 72 18040150699845094505
5924683 9 18059003016805517831
602551 16 18260548965179343154
633830 44 14764352660586469468
7495541 125 18261674865413233056
90127 26 17917992780635618624

>  <PUBCHEM_SHAPE_MULTIPOLES>  (1) 
358.69
11.66
1.6
1.2
0.26
0.04
0.03
1.3
-3.37
-1.19
-0.26
0.87
0.08
0.57

>  <PUBCHEM_SHAPE_SELFOVERLAP>  (1) 
740.108

>  <PUBCHEM_SHAPE_VOLUME>  (1) 
205.6

>  <PUBCHEM_COORDINATE_TYPE>  (1) 
2
5
10

$$$$
