16041
     RDKit          3D

  8  7  0  0  1  0  0  0  0  0999 V2000
   -1.3811    1.8732    0.6897 Br  0  0  0  0  0  0  0  0  0  0  0  0
    1.3811   -1.8728    0.6900 Br  0  0  0  0  0  0  0  0  0  0  0  0
   -2.8386   -0.6001   -0.5371 O   0  0  0  0  0  0  0  0  0  0  0  0
    2.8386    0.5997   -0.5372 O   0  0  0  0  0  0  0  0  0  0  0  0
   -0.7664   -0.0023    0.5403 C   0  0  0  0  0  0  0  0  0  0  0  0
    0.7664    0.0025    0.5403 C   0  0  0  0  0  0  0  0  0  0  0  0
   -1.4226   -0.6201   -0.6929 C   0  0  0  0  0  0  0  0  0  0  0  0
    1.4226    0.6199   -0.6931 C   0  0  0  0  0  0  0  0  0  0  0  0
  1  5  1  0
  2  6  1  0
  3  7  1  0
  4  8  1  0
  5  6  1  0
  5  7  1  0
  6  8  1  0
M  END
>  <PUBCHEM_COMPOUND_CID>  (1) 
16041

>  <PUBCHEM_CONFORMER_RMSD>  (1) 
0.6

>  <PUBCHEM_CONFORMER_DIVERSEORDER>  (1) 
1
15
42
49
48
18
2
20
41
4
27
47
37
46
21
30
22
23
16
35
17
31
9
33
29
14
40
25
24
44
32
34
7
36
5
45
10
43
6
26
39
28
3
8
12
13
38
11
19

>  <PUBCHEM_MMFF94_PARTIAL_CHARGES>  (1) 
10
1 -0.23
15 0.4
16 0.4
2 -0.23
3 -0.68
4 -0.68
5 0.23
6 0.23
7 0.28
8 0.28

>  <PUBCHEM_EFFECTIVE_ROTOR_COUNT>  (1) 
3

>  <PUBCHEM_PHARMACOPHORE_FEATURES>  (1) 
6
1 1 hydrophobe
1 2 hydrophobe
1 3 acceptor
1 3 donor
1 4 acceptor
1 4 donor

>  <PUBCHEM_HEAVY_ATOM_COUNT>  (1) 
8

>  <PUBCHEM_ATOM_DEF_STEREO_COUNT>  (1) 
0

>  <PUBCHEM_ATOM_UDEF_STEREO_COUNT>  (1) 
2

>  <PUBCHEM_BOND_DEF_STEREO_COUNT>  (1) 
0

>  <PUBCHEM_BOND_UDEF_STEREO_COUNT>  (1) 
0

>  <PUBCHEM_ISOTOPIC_ATOM_COUNT>  (1) 
0

>  <PUBCHEM_COMPONENT_COUNT>  (1) 
1

>  <PUBCHEM_CACTVS_TAUTO_COUNT>  (1) 
1

>  <PUBCHEM_CONFORMER_ID>  (1) 
00003EA900000001

>  <PUBCHEM_MMFF94_ENERGY>  (1) 
12.0557

>  <PUBCHEM_FEATURE_SELFOVERLAP>  (1) 
30.446

>  <PUBCHEM_SHAPE_FINGERPRINT>  (1) 
12897270 3 18410572937200549573
16714656 1 17917719027883297661
18185500 45 18411693288062490603
20711985 344 17775568611383597433
21040471 1 17556017983325368481
21930827 45 16772677594269074945
228727 97 18341059595873822624
23211744 25 17617087448902270879
23552333 60 18261661606469122539
23552423 10 18264202509169155667
24536 1 18040436555456293328
5084963 1 16806746159618882816

>  <PUBCHEM_SHAPE_MULTIPOLES>  (1) 
164.78
3.4
1.86
1.02
0
0
0.04
0
-0.42
0
0.2
0
0
-1.08

>  <PUBCHEM_SHAPE_SELFOVERLAP>  (1) 
272.309

>  <PUBCHEM_SHAPE_VOLUME>  (1) 
116.3

>  <PUBCHEM_COORDINATE_TYPE>  (1) 
2
5
10

$$$$
