16057
     RDKit          3D

 14 14  0  0  0  0  0  0  0  0999 V2000
    0.4441   -3.1385   -0.0001 Cl  0  0  0  0  0  0  0  0  0  0  0  0
    0.4434    3.1386   -0.0006 Cl  0  0  0  0  0  0  0  0  0  0  0  0
    3.1763   -1.5714   -0.0010 Cl  0  0  0  0  0  0  0  0  0  0  0  0
    3.1759    1.5720    0.0012 Cl  0  0  0  0  0  0  0  0  0  0  0  0
   -3.0000   -1.9787    0.0005 N   0  0  0  0  0  0  0  0  0  0  0  0
   -3.0004    1.9782   -0.0002 N   0  0  0  0  0  0  0  0  0  0  0  0
   -0.7481   -0.6975    0.0000 C   0  0  0  0  0  0  0  0  0  0  0  0
   -0.7483    0.6973   -0.0001 C   0  0  0  0  0  0  0  0  0  0  0  0
    0.4600   -1.3949    0.0001 C   0  0  0  0  0  0  0  0  0  0  0  0
    0.4596    1.3948   -0.0001 C   0  0  0  0  0  0  0  0  0  0  0  0
    1.6680   -0.6974    0.0002 C   0  0  0  0  0  0  0  0  0  0  0  0
    1.6678    0.6976    0.0001 C   0  0  0  0  0  0  0  0  0  0  0  0
   -1.9990   -1.4091    0.0002 C   0  0  0  0  0  0  0  0  0  0  0  0
   -1.9993    1.4089   -0.0002 C   0  0  0  0  0  0  0  0  0  0  0  0
  1  9  1  0
  2 10  1  0
  3 11  1  0
  4 12  1  0
  5 13  3  0
  6 14  3  0
  7  8  2  0
  7  9  1  0
  7 13  1  0
  8 10  1  0
  8 14  1  0
  9 11  2  0
 10 12  2  0
 11 12  1  0
M  END
>  <PUBCHEM_COMPOUND_CID>  (1) 
16057

>  <PUBCHEM_CONFORMER_RMSD>  (1) 
0.4

>  <PUBCHEM_CONFORMER_DIVERSEORDER>  (1) 
1

>  <PUBCHEM_MMFF94_PARTIAL_CHARGES>  (1) 
14
1 -0.18
10 0.18
11 0.18
12 0.18
13 0.48
14 0.48
2 -0.18
3 -0.18
4 -0.18
5 -0.56
6 -0.56
7 0.07
8 0.07
9 0.18

>  <PUBCHEM_EFFECTIVE_ROTOR_COUNT>  (1) 
0

>  <PUBCHEM_PHARMACOPHORE_FEATURES>  (1) 
3
1 5 acceptor
1 6 acceptor
6 7 8 9 10 11 12 rings

>  <PUBCHEM_HEAVY_ATOM_COUNT>  (1) 
14

>  <PUBCHEM_ATOM_DEF_STEREO_COUNT>  (1) 
0

>  <PUBCHEM_ATOM_UDEF_STEREO_COUNT>  (1) 
0

>  <PUBCHEM_BOND_DEF_STEREO_COUNT>  (1) 
0

>  <PUBCHEM_BOND_UDEF_STEREO_COUNT>  (1) 
0

>  <PUBCHEM_ISOTOPIC_ATOM_COUNT>  (1) 
0

>  <PUBCHEM_COMPONENT_COUNT>  (1) 
1

>  <PUBCHEM_CACTVS_TAUTO_COUNT>  (1) 
1

>  <PUBCHEM_CONFORMER_ID>  (1) 
00003EB900000001

>  <PUBCHEM_MMFF94_ENERGY>  (1) 
31.3405

>  <PUBCHEM_FEATURE_SELFOVERLAP>  (1) 
15.223

>  <PUBCHEM_SHAPE_FINGERPRINT>  (1) 
10967382 1 18122343467276394117
11206711 2 18265619955719285413
12423570 1 9686105156131996547
13140716 1 18410571743473909162
13380535 21 18411428297181032324
13380535 76 18195522584823992183
14790565 3 17904785597303069837
16945 1 18122343471787606752
193761 8 18410856563934756871
20510252 161 18199752616556956104
20588541 1 18124314896041439014
21501502 16 18410011039503546630
2334 1 18410856594247441286
23402539 116 18125993008599501326
23526114 1 18410857663725946564
23552423 10 18334576832588302430
23559900 14 18198908016451095174
241688 4 18410293579848418378
2748010 2 18411136935347517638
5255222 1 18120368761741602252
528886 8 18267297634453826314
54173680 148 18338237042151275666

>  <PUBCHEM_SHAPE_MULTIPOLES>  (1) 
285.63
4.28
3.69
0.62
0.06
0
0
0
0
-0.15
0
0.05
0
0

>  <PUBCHEM_SHAPE_SELFOVERLAP>  (1) 
571.973

>  <PUBCHEM_SHAPE_VOLUME>  (1) 
163.4

>  <PUBCHEM_COORDINATE_TYPE>  (1) 
2
5
10

$$$$
