16052
     RDKit          3D

 19 19  0  0  1  0  0  0  0  0999 V2000
    4.5250    3.3031   -0.0830 Cl  0  0  0  0  0  0  0  0  0  0  0  0
    4.4185   -3.3404    0.3475 Cl  0  0  0  0  0  0  0  0  0  0  0  0
   -4.4607   -1.3546   -1.0604 O   0  0  0  0  0  0  0  0  0  0  0  0
   -3.6565    0.4536   -2.1782 O   0  0  0  0  0  0  0  0  0  0  0  0
    2.3119   -0.0327   -0.6166 N   0  0  0  0  0  0  0  0  0  0  0  0
   -3.1951    0.6794    2.4965 N   0  0  0  0  0  0  0  0  0  0  0  0
   -3.0785   -0.0182    1.2105 C   0  0  0  0  0  0  0  0  0  0  0  0
    0.9762   -0.0291   -0.1633 C   0  0  0  0  0  0  0  0  0  0  0  0
   -1.6403   -0.0219    0.7231 C   0  0  0  0  0  0  0  0  0  0  0  0
    2.9834    1.2129   -0.9307 C   0  0  0  0  0  0  0  0  0  0  0  0
    3.0254   -1.2824   -0.7875 C   0  0  0  0  0  0  0  0  0  0  0  0
    0.2976    1.1789   -0.0028 C   0  0  0  0  0  0  0  0  0  0  0  0
    0.3337   -1.2334    0.1237 C   0  0  0  0  0  0  0  0  0  0  0  0
   -1.0236    1.1825    0.4449 C   0  0  0  0  0  0  0  0  0  0  0  0
   -0.9875   -1.2298    0.5712 C   0  0  0  0  0  0  0  0  0  0  0  0
   -4.0428    0.6273    0.2031 C   0  0  0  0  0  0  0  0  0  0  0  0
    3.6870    1.7770    0.2936 C   0  0  0  0  0  0  0  0  0  0  0  0
    3.5482   -1.7986    0.5438 C   0  0  0  0  0  0  0  0  0  0  0  0
   -4.0218   -0.0736   -1.1356 C   0  0  0  0  0  0  0  0  0  0  0  0
  1 17  1  0
  2 18  1  0
  3 19  1  0
  4 19  2  0
  5  8  1  0
  5 10  1  0
  5 11  1  0
  6  7  1  0
  7  9  1  0
  7 16  1  0
  8 12  2  0
  8 13  1  0
  9 14  2  0
  9 15  1  0
 10 17  1  0
 11 18  1  0
 12 14  1  0
 13 15  2  0
 16 19  1  0
M  END
>  <PUBCHEM_COMPOUND_CID>  (1) 
16052

>  <PUBCHEM_CONFORMER_RMSD>  (1) 
0.8

>  <PUBCHEM_CONFORMER_DIVERSEORDER>  (1) 
3
110
69
87
104
39
22
55
111
30
118
90
124
117
136
72
38
71
44
113
31
59
127
120
128
57
105
125
13
62
106
107
97
130
114
14
88
115
8
46
84
54
53
126
7
81
29
82
83
32
78
40
103
49
43
48
94
65
116
33
17
102
11
56
121
95
20
109
19
135
86
76
52
132
70
85
66
122
134
77
45
12
5
18
100
28
64
51
60
133
89
25
24
4
99
50
79
96
42
80
23
129
112
98
58
41
123
35
68
47
61
9
93
34
63
27
26
119
91
16
10
67
92
21
101
73
75
37
6
108
131
1
36
74
15
2

>  <PUBCHEM_MMFF94_PARTIAL_CHARGES>  (1) 
26
1 -0.29
10 0.37
11 0.37
12 -0.15
13 -0.15
14 -0.15
15 -0.15
16 0.06
17 0.29
18 0.29
19 0.66
2 -0.29
25 0.15
26 0.15
27 0.15
28 0.15
3 -0.65
35 0.36
36 0.36
37 0.5
4 -0.57
5 -0.84
6 -0.99
7 0.41
8 0.1
9 -0.14

>  <PUBCHEM_EFFECTIVE_ROTOR_COUNT>  (1) 
8

>  <PUBCHEM_PHARMACOPHORE_FEATURES>  (1) 
7
1 3 acceptor
1 4 acceptor
1 5 cation
1 6 cation
1 6 donor
3 3 4 19 anion
6 8 9 12 13 14 15 rings

>  <PUBCHEM_HEAVY_ATOM_COUNT>  (1) 
19

>  <PUBCHEM_ATOM_DEF_STEREO_COUNT>  (1) 
0

>  <PUBCHEM_ATOM_UDEF_STEREO_COUNT>  (1) 
1

>  <PUBCHEM_BOND_DEF_STEREO_COUNT>  (1) 
0

>  <PUBCHEM_BOND_UDEF_STEREO_COUNT>  (1) 
0

>  <PUBCHEM_ISOTOPIC_ATOM_COUNT>  (1) 
0

>  <PUBCHEM_COMPONENT_COUNT>  (1) 
1

>  <PUBCHEM_CACTVS_TAUTO_COUNT>  (1) 
1

>  <PUBCHEM_CONFORMER_ID>  (1) 
00003EB400000003

>  <PUBCHEM_MMFF94_ENERGY>  (1) 
50.3488

>  <PUBCHEM_FEATURE_SELFOVERLAP>  (1) 
35.578

>  <PUBCHEM_SHAPE_FINGERPRINT>  (1) 
10062212 137 18201440216840011067
11543360 7 16200164230285324392
12403259 415 17894352155304132141
12616971 3 18271529702196486467
13140716 1 18337125513368770162
13296908 3 17677065593417315065
13583140 156 16951119728474556681
13675066 3 17530970210775224424
14251764 38 18261660485583749244
14289901 80 16415485930185018179
17349148 13 18272929380124482038
18186145 218 17530972349637191787
18222031 100 18267582395766924702
19026448 4 16877957039324441827
19026448 5 17632587028090527153
19377110 9 17775007915971690827
200 152 18340763724309232039
20369508 70 18260829238124490306
20645477 70 18260551095630866754
21033648 29 17530685407199028229
21065201 7 16153719707934029722
22943178 12 17604162487711883059
23402539 116 18198338459698359502
23493267 7 16009037129293540721
23559900 14 18408322173181150370
268830 7 18340496594554984425
312423 11 17989213628991666570
3286 77 17489293162373838130
474 4 18196093459308839072
5104073 3 18337973224190918595
633830 44 18200894897357808215
67856867 119 18272082812469419024
7364860 26 18410864244270069202
7615 1 18060425681191811440
81539 233 18262804094236195788

>  <PUBCHEM_SHAPE_MULTIPOLES>  (1) 
373.05
10.02
2.9
1.43
1.42
0.13
0.1
-0.05
-1.23
-6.8
0.21
2.09
-0.14
-0.63

>  <PUBCHEM_SHAPE_SELFOVERLAP>  (1) 
734.932

>  <PUBCHEM_SHAPE_VOLUME>  (1) 
225.2

>  <PUBCHEM_COORDINATE_TYPE>  (1) 
2
5
10

$$$$
