16051
     RDKit          3D

 23 25  0  0  0  0  0  0  0  0999 V2000
   -1.1508    0.1032    0.8823 O   0  0  0  0  0  0  0  0  0  0  0  0
   -0.2123    1.8010   -0.3570 O   0  0  0  0  0  0  0  0  0  0  0  0
   -5.1223    0.2142   -0.4345 N   0  0  0  0  0  0  0  0  0  0  0  0
   -2.4440    0.6473    0.6510 C   0  0  0  0  0  0  0  0  0  0  0  0
   -3.4806   -0.2158    1.3631 C   0  0  0  0  0  0  0  0  0  0  0  0
   -2.7318    0.6901   -0.8471 C   0  0  0  0  0  0  0  0  0  0  0  0
   -4.9027    0.2255    1.0190 C   0  0  0  0  0  0  0  0  0  0  0  0
   -4.1766    1.1042   -1.1233 C   0  0  0  0  0  0  0  0  0  0  0  0
   -6.5005    0.5922   -0.7466 C   0  0  0  0  0  0  0  0  0  0  0  0
    1.2188    0.1225    0.6967 C   0  0  0  0  0  0  0  0  0  0  0  0
   -0.1021    0.7838    0.3157 C   0  0  0  0  0  0  0  0  0  0  0  0
    1.3171   -1.3401    0.2836 C   0  0  0  0  0  0  0  0  0  0  0  0
    2.4355    0.9237    0.2513 C   0  0  0  0  0  0  0  0  0  0  0  0
    2.0848   -2.1970    1.0447 C   0  0  0  0  0  0  0  0  0  0  0  0
    2.9733    0.6795   -0.9951 C   0  0  0  0  0  0  0  0  0  0  0  0
    0.6357   -1.7626   -0.8389 C   0  0  0  0  0  0  0  0  0  0  0  0
    2.9611    1.8677    1.1084 C   0  0  0  0  0  0  0  0  0  0  0  0
    2.1750   -3.5364    0.6664 C   0  0  0  0  0  0  0  0  0  0  0  0
    4.0873    1.4130   -1.4030 C   0  0  0  0  0  0  0  0  0  0  0  0
    0.7259   -3.1021   -1.2172 C   0  0  0  0  0  0  0  0  0  0  0  0
    4.0753    2.6012    0.7004 C   0  0  0  0  0  0  0  0  0  0  0  0
    1.4956   -3.9892   -0.4645 C   0  0  0  0  0  0  0  0  0  0  0  0
    4.6384    2.3739   -0.5553 C   0  0  0  0  0  0  0  0  0  0  0  0
  1  4  1  0
  1 11  1  0
  2 11  2  0
  3  7  1  0
  3  8  1  0
  3  9  1  0
  4  5  1  0
  4  6  1  0
  5  7  1  0
  6  8  1  0
 10 11  1  0
 10 12  1  0
 10 13  1  0
 12 14  2  0
 12 16  1  0
 13 15  2  0
 13 17  1  0
 14 18  1  0
 15 19  1  0
 16 20  2  0
 17 21  2  0
 18 22  2  0
 19 23  2  0
 20 22  1  0
 21 23  1  0
M  END
>  <PUBCHEM_COMPOUND_CID>  (1) 
16051

>  <PUBCHEM_CONFORMER_RMSD>  (1) 
0.8

>  <PUBCHEM_CONFORMER_DIVERSEORDER>  (1) 
1
39
8
36
30
60
22
51
54
14
15
2
9
56
31
28
19
13
59
43
65
47
11
29
62
52
50
45
6
40
25
34
18
5
55
63
58
49
4
44
61
7
10
27
21
17
12
37
33
23
24
16
26
35
57
53
41
20
32
42
38
3
48
64
46

>  <PUBCHEM_MMFF94_PARTIAL_CHARGES>  (1) 
31
1 -0.43
10 0.35
11 0.66
12 -0.14
13 -0.14
14 -0.15
15 -0.15
16 -0.15
17 -0.15
18 -0.15
19 -0.15
2 -0.57
20 -0.15
21 -0.15
22 -0.15
23 -0.15
3 -0.81
37 0.15
38 0.15
39 0.15
4 0.28
40 0.15
41 0.15
42 0.15
43 0.15
44 0.15
45 0.15
46 0.15
7 0.27
8 0.27
9 0.27

>  <PUBCHEM_EFFECTIVE_ROTOR_COUNT>  (1) 
6.2

>  <PUBCHEM_PHARMACOPHORE_FEATURES>  (1) 
5
1 2 acceptor
1 3 cation
6 12 14 16 18 20 22 rings
6 13 15 17 19 21 23 rings
6 3 4 5 6 7 8 rings

>  <PUBCHEM_HEAVY_ATOM_COUNT>  (1) 
23

>  <PUBCHEM_ATOM_DEF_STEREO_COUNT>  (1) 
0

>  <PUBCHEM_ATOM_UDEF_STEREO_COUNT>  (1) 
0

>  <PUBCHEM_BOND_DEF_STEREO_COUNT>  (1) 
0

>  <PUBCHEM_BOND_UDEF_STEREO_COUNT>  (1) 
0

>  <PUBCHEM_ISOTOPIC_ATOM_COUNT>  (1) 
0

>  <PUBCHEM_COMPONENT_COUNT>  (1) 
1

>  <PUBCHEM_CACTVS_TAUTO_COUNT>  (1) 
1

>  <PUBCHEM_CONFORMER_ID>  (1) 
00003EB300000001

>  <PUBCHEM_MMFF94_ENERGY>  (1) 
58.0778

>  <PUBCHEM_FEATURE_SELFOVERLAP>  (1) 
25.373

>  <PUBCHEM_SHAPE_FINGERPRINT>  (1) 
10815517 723 17622460753960070243
10906281 52 17894926139240124461
11488393 25 18265347126844408018
12532896 13 18197217160360581610
12730499 353 18410018745170748051
12788726 201 17131838625781560457
12969540 114 18339640160854283036
13083527 12 18266168431722589794
13140716 1 18410855495037046474
13257819 101 17313656139723181613
13257819 37 18044964460883925406
133893 2 18045526143690131800
13533116 47 18342456990250074593
13681431 1 18050853208923449266
13836976 161 18412258415828289494
13911987 19 18265343973932503757
13955234 65 18410855417279034491
14790565 3 18193277631193672541
15502722 9 18337112271825807770
15842332 3 17630621015732930369
15849732 13 18187640307177949368
15961568 22 17240486913713126933
17134984 74 18057302059880508511
17138139 8 17414122997411035383
1813 80 17699292057917738822
20197701 30 18338802333320516802
204376 136 18339361984401639696
20567600 347 18408609179680021226
20600515 1 17108152765332831824
20645477 70 18337384938346983195
21049683 118 17911490371990281016
21054139 6 18128243674747613823
21120745 212 17261611577984746702
21285901 2 17822566123775167149
21304303 94 17703795811899882926
21344244 181 17631750364346063814
21344244 246 18199759059672850566
21756936 100 16880766438454438884
22393880 68 18343302582672995359
23419403 2 17606096408949583734
23557571 272 17168144482123775149
23558518 356 17976539412435446145
23559900 14 17604438392311377683
27425 322 18057321897258762972
3060560 45 18410577314268460084
312423 11 18128261086618793761
3729539 64 18196398973749846902
404807 78 18047467022696438419
44802255 64 17609532593751146862
458136 41 18412550907221800730
469060 322 17898559033048011391
53917941 68 18125432270886656964
59682541 52 18196069085912429197
59755656 215 18187085018850052410
59755656 520 18340763866575857732
6025842 7 18411413986676958871
621550 34 18334574633802612349
633830 44 17845668030688776872
6442390 28 18266465484693362870
6669772 16 18343027714031342742
70251023 43 17986404286356517814
7364860 26 18339362946864613258
81228 2 17547289360287200778
81539 233 18334581252114872850
8863177 126 11887660832446339997
9841814 1 17971189227350885346

>  <PUBCHEM_SHAPE_MULTIPOLES>  (1) 
456.61
10.7
3.87
1.34
16.3
4.68
-0.04
-7.85
-1.58
-5.91
-0.32
0.07
0
0.12

>  <PUBCHEM_SHAPE_SELFOVERLAP>  (1) 
974.135

>  <PUBCHEM_SHAPE_VOLUME>  (1) 
251.8

>  <PUBCHEM_COORDINATE_TYPE>  (1) 
2
5
10

$$$$
