16069
     RDKit          3D

 15 16  0  0  0  0  0  0  0  0999 V2000
   -0.0013    1.5218    0.0001 O   0  0  0  0  0  0  0  0  0  0  0  0
   -4.7168   -1.3293    0.1239 O   0  0  0  0  0  0  0  0  0  0  0  0
    4.7141   -1.3295   -0.1239 O   0  0  0  0  0  0  0  0  0  0  0  0
   -1.1657    0.8178    0.0303 C   0  0  0  0  0  0  0  0  0  0  0  0
    1.1834    0.8054   -0.0307 C   0  0  0  0  0  0  0  0  0  0  0  0
   -1.2982   -0.2741    0.8883 C   0  0  0  0  0  0  0  0  0  0  0  0
    1.2954   -0.2740   -0.8883 C   0  0  0  0  0  0  0  0  0  0  0  0
   -2.2265    1.1878   -0.7966 C   0  0  0  0  0  0  0  0  0  0  0  0
    2.2238    1.1876    0.7968 C   0  0  0  0  0  0  0  0  0  0  0  0
   -2.4913   -0.9961    0.9193 C   0  0  0  0  0  0  0  0  0  0  0  0
    2.4885   -0.9960   -0.9193 C   0  0  0  0  0  0  0  0  0  0  0  0
   -3.4196    0.4657   -0.7655 C   0  0  0  0  0  0  0  0  0  0  0  0
    3.4169    0.4655    0.7655 C   0  0  0  0  0  0  0  0  0  0  0  0
   -3.5518   -0.6262    0.0926 C   0  0  0  0  0  0  0  0  0  0  0  0
    3.5491   -0.6263   -0.0925 C   0  0  0  0  0  0  0  0  0  0  0  0
  1  4  1  0
  1  5  1  0
  2 14  1  0
  3 15  1  0
  4  6  2  0
  4  8  1  0
  5  7  2  0
  5  9  1  0
  6 10  1  0
  7 11  1  0
  8 12  2  0
  9 13  2  0
 10 14  2  0
 11 15  2  0
 12 14  1  0
 13 15  1  0
M  END
>  <PUBCHEM_COMPOUND_CID>  (1) 
16069

>  <PUBCHEM_CONFORMER_RMSD>  (1) 
0.6

>  <PUBCHEM_CONFORMER_DIVERSEORDER>  (1) 
1
2
3

>  <PUBCHEM_MMFF94_PARTIAL_CHARGES>  (1) 
25
1 -0.17
10 -0.15
11 -0.15
12 -0.15
13 -0.15
14 0.08
15 0.08
16 0.15
17 0.15
18 0.15
19 0.15
2 -0.53
20 0.15
21 0.15
22 0.15
23 0.15
24 0.45
25 0.45
3 -0.53
4 0.08
5 0.08
6 -0.15
7 -0.15
8 -0.15
9 -0.15

>  <PUBCHEM_EFFECTIVE_ROTOR_COUNT>  (1) 
2

>  <PUBCHEM_PHARMACOPHORE_FEATURES>  (1) 
5
1 1 acceptor
1 2 donor
1 3 donor
6 4 6 8 10 12 14 rings
6 5 7 9 11 13 15 rings

>  <PUBCHEM_HEAVY_ATOM_COUNT>  (1) 
15

>  <PUBCHEM_ATOM_DEF_STEREO_COUNT>  (1) 
0

>  <PUBCHEM_ATOM_UDEF_STEREO_COUNT>  (1) 
0

>  <PUBCHEM_BOND_DEF_STEREO_COUNT>  (1) 
0

>  <PUBCHEM_BOND_UDEF_STEREO_COUNT>  (1) 
0

>  <PUBCHEM_ISOTOPIC_ATOM_COUNT>  (1) 
0

>  <PUBCHEM_COMPONENT_COUNT>  (1) 
1

>  <PUBCHEM_CACTVS_TAUTO_COUNT>  (1) 
3

>  <PUBCHEM_CONFORMER_ID>  (1) 
00003EC500000001

>  <PUBCHEM_MMFF94_ENERGY>  (1) 
49.3167

>  <PUBCHEM_FEATURE_SELFOVERLAP>  (1) 
25.371

>  <PUBCHEM_SHAPE_FINGERPRINT>  (1) 
10465860 71 17313391123145681212
10751810 167 16588026809648373817
11471102 22 17918276428870828292
11543360 7 17386019368466845548
12032990 46 18410855460128324197
12251169 10 16988844981724404748
13296908 3 18410854364911683213
13705890 14 18410009936071614880
14115302 16 17167867508051172643
14252887 29 17275106081654883414
14386348 63 18410576184174875591
14993402 34 15719111361724678058
15219456 202 18413101779632499960
15309172 13 17132113528635375230
15375358 24 18411129242829163721
15375462 189 16559028298477809707
16752209 62 17458614623659152841
17834072 14 18410849962570172320
17870717 6 18114753624488746166
18186145 218 17894622652297182285
19050596 39 15626220234222243523
19141452 34 18342178925419952535
19862831 5 15719396148073636169
1986462 14 18186800258054620365
200 152 17632569436078556021
20201158 50 18411420591930393635
20279233 1 18410855464423135587
20281475 54 18410583880766845516
20374829 77 18334290942163581011
204376 136 17630030801506975008
20645476 183 15430039885190284171
20645477 70 18060128813199979236
20871999 31 17676212355209133868
21119208 17 15719112461236422722
21501925 9 18413388760762376952
23402539 116 17822003181825838453
23403322 49 18335984164448492130
23557571 272 17749380503257413772
23559900 14 18260823774883540904
26918003 58 17846498123571102123
3082319 5 15719112465462636360
3286 77 18130788979335184720
4028521 119 8646500600269489495
4047638 21 9439407934524804784
474 4 15768058411522201424
5104073 3 18272647909764200672
57812782 119 18410852165888284740
69090 78 18271239521284422807
7364860 26 18117003392909825812
74978 22 15647345176854290085
76465 3 18410565189058916131
77492 1 15769770281895734245
81228 2 18264216811400176057
9709674 26 18261673795675985883

>  <PUBCHEM_SHAPE_MULTIPOLES>  (1) 
291.09
8.29
1.42
1
0.03
0.06
0
-3.45
0
0
0
0
-0.02
0.95

>  <PUBCHEM_SHAPE_SELFOVERLAP>  (1) 
633.236

>  <PUBCHEM_SHAPE_VOLUME>  (1) 
159.5

>  <PUBCHEM_COORDINATE_TYPE>  (1) 
2
5
10

$$$$
