16063
     RDKit          3D

 27 29  0  0  0  0  0  0  0  0999 V2000
   -1.0090    4.6428    0.0487 F   0  0  0  0  0  0  0  0  0  0  0  0
   -2.2614    3.5901   -1.3921 F   0  0  0  0  0  0  0  0  0  0  0  0
   -2.7258    3.4878    0.7352 F   0  0  0  0  0  0  0  0  0  0  0  0
    2.0546   -2.7326   -1.7341 O   0  0  0  0  0  0  0  0  0  0  0  0
    1.9857   -0.6858   -0.5065 N   0  0  0  0  0  0  0  0  0  0  0  0
   -0.4186   -2.6072    0.3067 N   0  0  0  0  0  0  0  0  0  0  0  0
    5.6072   -0.1920    0.2655 N   0  0  0  0  0  0  0  0  0  0  0  0
    1.0510    0.1301   -0.1175 C   0  0  0  0  0  0  0  0  0  0  0  0
    3.4053   -0.3379   -0.7751 C   0  0  0  0  0  0  0  0  0  0  0  0
   -0.4611   -0.1481   -0.0302 C   0  0  0  0  0  0  0  0  0  0  0  0
   -1.0220   -1.3786    0.1372 C   0  0  0  0  0  0  0  0  0  0  0  0
    4.2092   -0.5362    0.4995 C   0  0  0  0  0  0  0  0  0  0  0  0
    1.6751   -2.2188   -0.6938 C   0  0  0  0  0  0  0  0  0  0  0  0
    0.9742   -2.9016    0.4225 C   0  0  0  0  0  0  0  0  0  0  0  0
   -1.3104    1.0515   -0.1668 C   0  0  0  0  0  0  0  0  0  0  0  0
    1.4423    1.5388    0.2461 C   0  0  0  0  0  0  0  0  0  0  0  0
   -0.8469    2.3031   -0.0301 C   0  0  0  0  0  0  0  0  0  0  0  0
   -2.5044   -1.5173    0.1881 C   0  0  0  0  0  0  0  0  0  0  0  0
    0.5409    2.5241    0.2822 C   0  0  0  0  0  0  0  0  0  0  0  0
   -1.7181    3.5153   -0.1603 C   0  0  0  0  0  0  0  0  0  0  0  0
    6.3880   -0.3463    1.4940 C   0  0  0  0  0  0  0  0  0  0  0  0
    5.7227    1.1765   -0.2413 C   0  0  0  0  0  0  0  0  0  0  0  0
   -3.2110   -1.7315   -0.9870 C   0  0  0  0  0  0  0  0  0  0  0  0
   -3.1572   -1.4301    1.4096 C   0  0  0  0  0  0  0  0  0  0  0  0
   -4.5990   -1.8611   -0.9395 C   0  0  0  0  0  0  0  0  0  0  0  0
   -4.5453   -1.5597    1.4569 C   0  0  0  0  0  0  0  0  0  0  0  0
   -5.2661   -1.7752    0.2822 C   0  0  0  0  0  0  0  0  0  0  0  0
  1 20  1  0
  2 20  1  0
  3 20  1  0
  4 13  2  0
  5  8  2  0
  5  9  1  0
  5 13  1  0
  6 11  1  0
  6 14  1  0
  7 12  1  0
  7 21  1  0
  7 22  1  0
  8 10  1  0
  8 16  1  0
  9 12  1  0
 10 11  2  0
 10 15  1  0
 11 18  1  0
 13 14  1  0
 15 17  2  0
 16 19  2  0
 17 19  1  0
 17 20  1  0
 18 23  2  0
 18 24  1  0
 23 25  1  0
 24 26  2  0
 25 27  2  0
 26 27  1  0
M  CHG  1   5   1
M  END
>  <PUBCHEM_COMPOUND_CID>  (1) 
16063

>  <PUBCHEM_CONFORMER_RMSD>  (1) 
0.8

>  <PUBCHEM_CONFORMER_DIVERSEORDER>  (1) 
1
7
3
4
5
8
6
2

>  <PUBCHEM_MMFF94_PARTIAL_CHARGES>  (1) 
36
1 -0.34
10 0.01
11 0.07
12 0.27
13 0.84
14 0.43
15 -0.15
16 -0.14
17 -0.14
18 0.03
19 -0.15
2 -0.34
20 1.16
21 0.27
22 0.27
23 -0.15
24 -0.15
25 -0.15
26 -0.15
27 -0.15
3 -0.34
34 0.4
35 0.15
36 0.15
37 0.15
4 -0.57
44 0.15
45 0.15
46 0.15
47 0.15
48 0.15
5 -0.08
6 -0.87
7 -0.81
8 0.37
9 0.35

>  <PUBCHEM_EFFECTIVE_ROTOR_COUNT>  (1) 
5.4

>  <PUBCHEM_PHARMACOPHORE_FEATURES>  (1) 
7
1 4 acceptor
1 6 cation
1 6 donor
1 7 cation
6 18 23 24 25 26 27 rings
6 8 10 15 16 17 19 rings
7 5 6 8 10 11 13 14 rings

>  <PUBCHEM_HEAVY_ATOM_COUNT>  (1) 
27

>  <PUBCHEM_ATOM_DEF_STEREO_COUNT>  (1) 
0

>  <PUBCHEM_ATOM_UDEF_STEREO_COUNT>  (1) 
0

>  <PUBCHEM_BOND_DEF_STEREO_COUNT>  (1) 
0

>  <PUBCHEM_BOND_UDEF_STEREO_COUNT>  (1) 
0

>  <PUBCHEM_ISOTOPIC_ATOM_COUNT>  (1) 
0

>  <PUBCHEM_COMPONENT_COUNT>  (1) 
1

>  <PUBCHEM_CACTVS_TAUTO_COUNT>  (1) 
1

>  <PUBCHEM_CONFORMER_ID>  (1) 
00003EBF00000001

>  <PUBCHEM_MMFF94_ENERGY>  (1) 
94.5788

>  <PUBCHEM_FEATURE_SELFOVERLAP>  (1) 
35.528

>  <PUBCHEM_SHAPE_FINGERPRINT>  (1) 
10670039 82 18336565858498705804
10688039 33 18260268581145203653
10906281 52 18267324173157221798
10930396 42 17977348906992061880
1100329 8 18120937462830851954
11578080 2 17773870909469305699
11646440 116 18337398248234687443
12293681 4 18188784945241608547
12553582 1 18267603444609975047
12741549 16 17677044750674231709
12788726 201 18335147518183791424
12930653 34 18339079272827873158
13140716 1 18122348144765389698
13540713 4 18127979598857752398
13911987 19 18188783879826065982
14028597 1 17676486112567269523
14178342 30 18263366893633308980
14790565 3 18338813319472787864
14840074 17 18201158874912315318
14955137 171 18191875741136194355
15439362 3 17762051443334660973
16087824 20 18338796699178811485
1813 80 18198924637204066183
18785283 64 17831883591472691051
19427546 62 17688314482307754477
20600515 1 18127991886162879058
20642791 105 18261947467014085404
20642791 13 18412264999928595893
20642791 35 18051420866583501004
20739085 24 18193574469473850049
20775438 99 17766537085434235815
21236236 1 18411136918078198576
21641784 216 18115325443787108740
22182313 1 18129671781538629238
23402539 116 18341608260856045590
23558518 356 18117287960130704682
266924 87 18337665322017047959
283562 15 18409446977222336594
350125 39 18411984693378649328
3886686 26 17541639635942558218
469060 322 18338251413116980648
474 4 17908990151663904459
5104073 3 18339353051729455874
5171179 24 18057306474411030441
57527295 17 18044343155595572783
6004065 56 18125434456988321311
6443956 14 18337959008134030525
7226269 152 18260545666866142194
9709674 26 18054790577073540742

>  <PUBCHEM_SHAPE_MULTIPOLES>  (1) 
513.01
10.71
4.65
1.16
10.16
6.14
0.04
-5.29
2.67
-3.15
-0.58
-0.19
-0.46
0.39

>  <PUBCHEM_SHAPE_SELFOVERLAP>  (1) 
1096.54

>  <PUBCHEM_SHAPE_VOLUME>  (1) 
285.4

>  <PUBCHEM_COORDINATE_TYPE>  (1) 
2
5
10

$$$$
