1607
     RDKit          3D

 12 12  0  0  0  0  0  0  0  0999 V2000
   -2.5994    1.8084    0.2822 O   0  0  0  0  0  0  0  0  0  0  0  0
   -3.5393   -0.7908   -0.0104 O   0  0  0  0  0  0  0  0  0  0  0  0
    4.0163   -0.3889    0.3013 O   0  0  0  0  0  0  0  0  0  0  0  0
    1.9292    0.2242   -0.0784 N   0  0  0  0  0  0  0  0  0  0  0  0
    2.8271   -0.7174    0.3622 N   0  0  0  0  0  0  0  0  0  0  0  0
    0.5419   -0.0293   -0.0604 C   0  0  0  0  0  0  0  0  0  0  0  0
   -0.3583    1.0234    0.1050 C   0  0  0  0  0  0  0  0  0  0  0  0
    0.0700   -1.3335   -0.2088 C   0  0  0  0  0  0  0  0  0  0  0  0
   -1.7301    0.7719    0.1218 C   0  0  0  0  0  0  0  0  0  0  0  0
   -2.2019   -0.5322   -0.0266 C   0  0  0  0  0  0  0  0  0  0  0  0
   -1.3019   -1.5851   -0.1918 C   0  0  0  0  0  0  0  0  0  0  0  0
    2.3464    1.5493   -0.5962 C   0  0  0  0  0  0  0  0  0  0  0  0
  1  9  1  0
  2 10  1  0
  3  5  2  0
  4  5  1  0
  4  6  1  0
  4 12  1  0
  6  7  2  0
  6  8  1  0
  7  9  1  0
  8 11  2  0
  9 10  2  0
 10 11  1  0
M  END
>  <PUBCHEM_COMPOUND_CID>  (1) 
1607

>  <PUBCHEM_CONFORMER_RMSD>  (1) 
0.6

>  <PUBCHEM_CONFORMER_DIVERSEORDER>  (1) 
2
3
5
6
1
4

>  <PUBCHEM_MMFF94_PARTIAL_CHARGES>  (1) 
16
1 -0.53
10 0.08
11 -0.15
12 0.37
13 0.15
14 0.15
15 0.15
19 0.45
2 -0.53
20 0.45
3 -0.16
4 -0.3
6 0.1
7 -0.15
8 -0.15
9 0.08

>  <PUBCHEM_EFFECTIVE_ROTOR_COUNT>  (1) 
2

>  <PUBCHEM_PHARMACOPHORE_FEATURES>  (1) 
3
1 1 donor
1 2 donor
6 6 7 8 9 10 11 rings

>  <PUBCHEM_HEAVY_ATOM_COUNT>  (1) 
12

>  <PUBCHEM_ATOM_DEF_STEREO_COUNT>  (1) 
0

>  <PUBCHEM_ATOM_UDEF_STEREO_COUNT>  (1) 
0

>  <PUBCHEM_BOND_DEF_STEREO_COUNT>  (1) 
0

>  <PUBCHEM_BOND_UDEF_STEREO_COUNT>  (1) 
0

>  <PUBCHEM_ISOTOPIC_ATOM_COUNT>  (1) 
0

>  <PUBCHEM_COMPONENT_COUNT>  (1) 
1

>  <PUBCHEM_CACTVS_TAUTO_COUNT>  (1) 
8

>  <PUBCHEM_CONFORMER_ID>  (1) 
0000064700000002

>  <PUBCHEM_MMFF94_ENERGY>  (1) 
39.394

>  <PUBCHEM_FEATURE_SELFOVERLAP>  (1) 
15.227

>  <PUBCHEM_SHAPE_FINGERPRINT>  (1) 
12932764 1 17560798878952397262
13024252 1 13984659244119779231
13380535 76 18268147565880113335
14144814 61 18408602548308330626
14325111 11 18411419501177518500
16945 1 18341621446579327855
20510252 161 18202847638503890369
20871998 184 18130790117649503703
21028194 46 18273496766783875250
21040471 1 18341616971170495397
22445834 79 18187357706076106770
23402539 116 18272639161058165079
23402655 69 18126267672671061141
23463225 33 18408603639071891582
23552423 10 18188770677307080790
23559900 14 18131348563078588306
2748010 2 18125169238262177743
369184 2 18411698828543850695
5084963 1 17967247615503599157
7364860 26 18269557298901542428

>  <PUBCHEM_SHAPE_MULTIPOLES>  (1) 
219.38
5.24
1.69
0.64
2.48
0.28
-0.03
-0.16
0.39
-0.46
-0.07
0.1
0.03
-0.46

>  <PUBCHEM_SHAPE_SELFOVERLAP>  (1) 
455.104

>  <PUBCHEM_SHAPE_VOLUME>  (1) 
125.9

>  <PUBCHEM_COORDINATE_TYPE>  (1) 
2
5
10

$$$$
