16084
     RDKit          3D

 27 30  0  0  0  0  0  0  0  0999 V2000
   -1.3903   -2.4939    0.1347 N   0  0  0  0  0  0  0  0  0  0  0  0
    0.0453    1.9641   -0.1041 N   0  0  0  0  0  0  0  0  0  0  0  0
    3.1936   -1.5065    0.0776 N   0  0  0  0  0  0  0  0  0  0  0  0
   -0.7025   -0.2551    0.0157 N   0  0  0  0  0  0  0  0  0  0  0  0
    0.9086   -2.0309    0.1086 N   0  0  0  0  0  0  0  0  0  0  0  0
    1.6430    0.2502   -0.0130 N   0  0  0  0  0  0  0  0  0  0  0  0
   -0.3465   -1.5497    0.0842 C   0  0  0  0  0  0  0  0  0  0  0  0
    0.3430    0.5861   -0.0300 C   0  0  0  0  0  0  0  0  0  0  0  0
    1.8499   -1.0747    0.0569 C   0  0  0  0  0  0  0  0  0  0  0  0
   -2.7950   -2.3661    0.1277 C   0  0  0  0  0  0  0  0  0  0  0  0
   -1.1684    2.6758   -0.1411 C   0  0  0  0  0  0  0  0  0  0  0  0
    4.4179   -0.8128    0.0401 C   0  0  0  0  0  0  0  0  0  0  0  0
   -3.5840   -3.3753   -0.4241 C   0  0  0  0  0  0  0  0  0  0  0  0
   -1.2418    3.9629    0.3953 C   0  0  0  0  0  0  0  0  0  0  0  0
    5.5426   -1.4083   -0.5345 C   0  0  0  0  0  0  0  0  0  0  0  0
   -3.3952   -1.2313    0.6732 C   0  0  0  0  0  0  0  0  0  0  0  0
   -2.3026    2.0978   -0.7149 C   0  0  0  0  0  0  0  0  0  0  0  0
    4.5114    0.4730    0.5764 C   0  0  0  0  0  0  0  0  0  0  0  0
   -4.9731   -3.2499   -0.4302 C   0  0  0  0  0  0  0  0  0  0  0  0
   -2.4442    4.6691    0.3579 C   0  0  0  0  0  0  0  0  0  0  0  0
    6.7557   -0.7209   -0.5727 C   0  0  0  0  0  0  0  0  0  0  0  0
   -4.7844   -1.1059    0.6672 C   0  0  0  0  0  0  0  0  0  0  0  0
   -3.5050    2.8038   -0.7522 C   0  0  0  0  0  0  0  0  0  0  0  0
    5.7246    1.1605    0.5381 C   0  0  0  0  0  0  0  0  0  0  0  0
   -5.5734   -2.1151    0.1155 C   0  0  0  0  0  0  0  0  0  0  0  0
   -3.5759    4.0895   -0.2159 C   0  0  0  0  0  0  0  0  0  0  0  0
    6.8467    0.5635   -0.0365 C   0  0  0  0  0  0  0  0  0  0  0  0
  1  7  1  0
  1 10  1  0
  2  8  1  0
  2 11  1  0
  3  9  1  0
  3 12  1  0
  4  7  2  0
  4  8  1  0
  5  7  1  0
  5  9  2  0
  6  8  2  0
  6  9  1  0
 10 13  2  0
 10 16  1  0
 11 14  2  0
 11 17  1  0
 12 15  2  0
 12 18  1  0
 13 19  1  0
 14 20  1  0
 15 21  1  0
 16 22  2  0
 17 23  2  0
 18 24  2  0
 19 25  2  0
 20 26  2  0
 21 27  2  0
 22 25  1  0
 23 26  1  0
 24 27  1  0
M  END
>  <PUBCHEM_COMPOUND_CID>  (1) 
16084

>  <PUBCHEM_CONFORMER_RMSD>  (1) 
0.8

>  <PUBCHEM_CONFORMER_DIVERSEORDER>  (1) 
1
19
6
25
24
5
29
2
18
12
10
20
17
15
28
8
21
3
13
9
16
27
26
4
23
14
7
11
22

>  <PUBCHEM_MMFF94_PARTIAL_CHARGES>  (1) 
45
1 -0.6
10 0.1
11 0.1
12 0.1
13 -0.15
14 -0.15
15 -0.15
16 -0.15
17 -0.15
18 -0.15
19 -0.15
2 -0.6
20 -0.15
21 -0.15
22 -0.15
23 -0.15
24 -0.15
25 -0.15
26 -0.15
27 -0.15
28 0.4
29 0.4
3 -0.6
30 0.4
31 0.15
32 0.15
33 0.15
34 0.15
35 0.15
36 0.15
37 0.15
38 0.15
39 0.15
4 -0.62
40 0.15
41 0.15
42 0.15
43 0.15
44 0.15
45 0.15
5 -0.62
6 -0.62
7 0.72
8 0.72
9 0.72

>  <PUBCHEM_EFFECTIVE_ROTOR_COUNT>  (1) 
6

>  <PUBCHEM_PHARMACOPHORE_FEATURES>  (1) 
10
1 1 donor
1 2 donor
1 3 donor
4 1 4 5 7 cation
4 2 4 6 8 cation
4 3 5 6 9 cation
6 10 13 16 19 22 25 rings
6 11 14 17 20 23 26 rings
6 12 15 18 21 24 27 rings
6 4 5 6 7 8 9 rings

>  <PUBCHEM_HEAVY_ATOM_COUNT>  (1) 
27

>  <PUBCHEM_ATOM_DEF_STEREO_COUNT>  (1) 
0

>  <PUBCHEM_ATOM_UDEF_STEREO_COUNT>  (1) 
0

>  <PUBCHEM_BOND_DEF_STEREO_COUNT>  (1) 
0

>  <PUBCHEM_BOND_UDEF_STEREO_COUNT>  (1) 
0

>  <PUBCHEM_ISOTOPIC_ATOM_COUNT>  (1) 
0

>  <PUBCHEM_COMPONENT_COUNT>  (1) 
1

>  <PUBCHEM_CACTVS_TAUTO_COUNT>  (1) 
5

>  <PUBCHEM_CONFORMER_ID>  (1) 
00003ED400000001

>  <PUBCHEM_MMFF94_ENERGY>  (1) 
105.226

>  <PUBCHEM_FEATURE_SELFOVERLAP>  (1) 
50.878

>  <PUBCHEM_SHAPE_FINGERPRINT>  (1) 
10050765 1 18338234835493244314
100830 39 18338516344523166632
10411042 1 18266459995925930495
10940486 97 17769937097125517255
11056379 131 18410860932069679190
11135609 187 17974277722024624709
12293681 4 18114472261476779651
12516196 113 18338233898388527090
12788726 201 18260822709093654099
12977781 61 17772487706820138518
13383665 225 18264230113857657396
13540713 5 17969494915009814370
13590594 115 18337959008091904139
138480 1 15816499123071734569
14028597 1 17676474056061598962
14117953 113 18341894121975411375
14765038 42 18057053402543515905
15131766 46 15623949867708063752
15276724 80 18412826893346553182
15400415 2 17762054346210826661
15775530 1 17771083600158932982
16087824 20 18337953395313849205
16090146 7 17023198140910155946
18336668 15 18041279971622992399
18608769 82 18341328977029846968
18681886 176 18197208372747737843
19427546 62 17761493586869587193
20238998 120 18341611585698595097
21033650 10 18118148938292382142
21236236 1 18410856538170227858
2132832 1 18041568039153378804
21360443 126 18262230019690023013
21641784 216 18041010560935194524
21796203 349 17901426495144018241
23559900 14 17979066412822064867
23929065 36 18339065043495674800
244849 19 17702924990786045200
2747138 104 18189346808715795602
283562 15 18334292067471808850
350125 39 18410578413648238520
4409770 3 18336541630387728445
469060 322 16588025684240491662
5104073 3 18263351526704626066
5171179 24 18129086982712384089
552612 73 18202278139153007168
5969126 39 18341324573886437494
59755656 520 18117840993463289900
653340 110 18411415081503073480
6677587 24 15438144162419038461
7237137 82 18260550017477596150
9777508 108 18268140968367742081

>  <PUBCHEM_SHAPE_MULTIPOLES>  (1) 
525.76
14.76
5.68
0.75
23.56
5.91
-0.01
-6.52
-0.53
-11.21
-0.22
-0.1
0.07
0.65

>  <PUBCHEM_SHAPE_SELFOVERLAP>  (1) 
1149.308

>  <PUBCHEM_SHAPE_VOLUME>  (1) 
271.1

>  <PUBCHEM_COORDINATE_TYPE>  (1) 
2
5
10

$$$$
