16086
     RDKit          3D

 13 13  0  0  0  0  0  0  0  0999 V2000
   -2.3402    0.4198    0.0125 N   0  0  0  0  0  0  0  0  0  0  0  0
    2.3495    0.4405   -0.0121 N   0  0  0  0  0  0  0  0  0  0  0  0
    0.0047    0.4618   -0.0015 N   0  0  0  0  0  0  0  0  0  0  0  0
    1.2135   -1.6109   -0.0068 N   0  0  0  0  0  0  0  0  0  0  0  0
   -1.1860   -1.6215    0.0058 N   0  0  0  0  0  0  0  0  0  0  0  0
   -2.4465    1.8517    0.0124 C   0  0  0  0  0  0  0  0  0  0  0  0
    2.4142    1.8685   -0.0131 C   0  0  0  0  0  0  0  0  0  0  0  0
   -1.1331   -0.2698    0.0046 C   0  0  0  0  0  0  0  0  0  0  0  0
    1.1299   -0.2707   -0.0072 C   0  0  0  0  0  0  0  0  0  0  0  0
    0.0165   -2.2192   -0.0002 C   0  0  0  0  0  0  0  0  0  0  0  0
   -3.8928    2.3007   -0.0175 C   0  0  0  0  0  0  0  0  0  0  0  0
    3.8470    2.3590    0.0208 C   0  0  0  0  0  0  0  0  0  0  0  0
    0.0232   -3.7100    0.0025 C   0  0  0  0  0  0  0  0  0  0  0  0
  1  6  1  0
  1  8  1  0
  2  7  1  0
  2  9  1  0
  3  8  2  0
  3  9  1  0
  4  9  2  0
  4 10  1  0
  5  8  1  0
  5 10  2  0
  6 11  1  0
  7 12  1  0
 10 13  1  0
M  END
>  <PUBCHEM_COMPOUND_CID>  (1) 
16086

>  <PUBCHEM_CONFORMER_RMSD>  (1) 
0.6

>  <PUBCHEM_CONFORMER_DIVERSEORDER>  (1) 
1
10
13
11
14
12
8
5
3
4
6
7
9
2

>  <PUBCHEM_MMFF94_PARTIAL_CHARGES>  (1) 
13
1 -0.87
10 0.48
13 0.14
18 0.4
19 0.4
2 -0.87
3 -0.62
4 -0.62
5 -0.62
6 0.37
7 0.37
8 0.72
9 0.72

>  <PUBCHEM_EFFECTIVE_ROTOR_COUNT>  (1) 
4

>  <PUBCHEM_PHARMACOPHORE_FEATURES>  (1) 
5
1 1 donor
1 2 donor
4 1 3 5 8 cation
4 2 3 4 9 cation
6 3 4 5 8 9 10 rings

>  <PUBCHEM_HEAVY_ATOM_COUNT>  (1) 
13

>  <PUBCHEM_ATOM_DEF_STEREO_COUNT>  (1) 
0

>  <PUBCHEM_ATOM_UDEF_STEREO_COUNT>  (1) 
0

>  <PUBCHEM_BOND_DEF_STEREO_COUNT>  (1) 
0

>  <PUBCHEM_BOND_UDEF_STEREO_COUNT>  (1) 
0

>  <PUBCHEM_ISOTOPIC_ATOM_COUNT>  (1) 
0

>  <PUBCHEM_COMPONENT_COUNT>  (1) 
1

>  <PUBCHEM_CACTVS_TAUTO_COUNT>  (1) 
5

>  <PUBCHEM_CONFORMER_ID>  (1) 
00003ED600000001

>  <PUBCHEM_MMFF94_ENERGY>  (1) 
29.1886

>  <PUBCHEM_FEATURE_SELFOVERLAP>  (1) 
25.414

>  <PUBCHEM_SHAPE_FINGERPRINT>  (1) 
1 1 18338235934096835463
13380536 305 18195532497455212294
14123255 52 18410573989452394753
14648413 74 18120378661878596571
16945 1 18122626046292022795
17134986 127 18410014299537043180
1741750 31 18340486763527993336
19021347 4 18410013281487037682
20510252 161 18198067077910385185
20645477 56 18197507431246159440
20671657 1 18196095434761128125
20871998 184 17624145197140937262
21426921 1 17978230788131787420
21499 59 18409721846893092245
21524375 3 18333724736640903520
21639500 275 18120922915918818117
2306618 200 17912378824630085800
23402539 116 17839740705379808215
2748010 2 18336841839252362671
305870 269 18408319969356440656
3071541 12 18195812864324975326
3091708 16 9264747200584474146
7364860 26 18123188996108040775
81228 2 17835252511625801618
84936 182 18129093437974474393

>  <PUBCHEM_SHAPE_MULTIPOLES>  (1) 
242.63
5.23
4.06
0.58
0.2
2.92
0
-7.56
0
-0.12
0
0
-0.01
0.02

>  <PUBCHEM_SHAPE_SELFOVERLAP>  (1) 
478.37

>  <PUBCHEM_SHAPE_VOLUME>  (1) 
137.4

>  <PUBCHEM_COORDINATE_TYPE>  (1) 
2
5
10

$$$$
