16088
     RDKit          3D

 21 23  0  0  0  0  0  0  0  0999 V2000
    0.0083   -5.3264    0.0023 Cl  0  0  0  0  0  0  0  0  0  0  0  0
   -2.3416   -0.9733   -0.0893 N   0  0  0  0  0  0  0  0  0  0  0  0
    2.3456   -0.9669    0.0885 N   0  0  0  0  0  0  0  0  0  0  0  0
    0.0019   -0.9375   -0.0003 N   0  0  0  0  0  0  0  0  0  0  0  0
    1.2037   -3.0139    0.0450 N   0  0  0  0  0  0  0  0  0  0  0  0
   -1.1941   -3.0172   -0.0460 N   0  0  0  0  0  0  0  0  0  0  0  0
   -2.6526    0.4023   -0.1016 C   0  0  0  0  0  0  0  0  0  0  0  0
    2.6514    0.4069    0.1014 C   0  0  0  0  0  0  0  0  0  0  0  0
   -1.1213   -1.6749   -0.0431 C   0  0  0  0  0  0  0  0  0  0  0  0
    1.1242   -1.6735    0.0420 C   0  0  0  0  0  0  0  0  0  0  0  0
   -3.8492    0.8522    0.4567 C   0  0  0  0  0  0  0  0  0  0  0  0
   -1.7637    1.3131   -0.6728 C   0  0  0  0  0  0  0  0  0  0  0  0
    3.8469    0.8640   -0.4568 C   0  0  0  0  0  0  0  0  0  0  0  0
    1.7600    1.3173    0.6729 C   0  0  0  0  0  0  0  0  0  0  0  0
   -4.1570    2.2126    0.4438 C   0  0  0  0  0  0  0  0  0  0  0  0
   -2.0715    2.6735   -0.6856 C   0  0  0  0  0  0  0  0  0  0  0  0
    4.1501    2.2254   -0.4433 C   0  0  0  0  0  0  0  0  0  0  0  0
    2.0631    2.6788    0.6863 C   0  0  0  0  0  0  0  0  0  0  0  0
   -3.2682    3.1232   -0.1273 C   0  0  0  0  0  0  0  0  0  0  0  0
    3.2582    3.1328    0.1281 C   0  0  0  0  0  0  0  0  0  0  0  0
    0.0057   -3.6185   -0.0008 C   0  0  0  0  0  0  0  0  0  0  0  0
  1 21  1  0
  2  7  1  0
  2  9  1  0
  3  8  1  0
  3 10  1  0
  4  9  2  0
  4 10  1  0
  5 10  2  0
  5 21  1  0
  6  9  1  0
  6 21  2  0
  7 11  2  0
  7 12  1  0
  8 13  2  0
  8 14  1  0
 11 15  1  0
 12 16  2  0
 13 17  1  0
 14 18  2  0
 15 19  2  0
 16 19  1  0
 17 20  2  0
 18 20  1  0
M  END
>  <PUBCHEM_COMPOUND_CID>  (1) 
16088

>  <PUBCHEM_CONFORMER_RMSD>  (1) 
0.6

>  <PUBCHEM_CONFORMER_DIVERSEORDER>  (1) 
2
33
21
31
32
11
13
20
5
19
12
37
36
38
8
40
1
22
4
9
39
34
43
30
41
35
28
25
17
26
27
24
14
15
42
16
23
10
6
29
7
18
3

>  <PUBCHEM_MMFF94_PARTIAL_CHARGES>  (1) 
33
1 -0.18
10 0.72
11 -0.15
12 -0.15
13 -0.15
14 -0.15
15 -0.15
16 -0.15
17 -0.15
18 -0.15
19 -0.15
2 -0.6
20 -0.15
21 0.8
22 0.4
23 0.4
24 0.15
25 0.15
26 0.15
27 0.15
28 0.15
29 0.15
3 -0.6
30 0.15
31 0.15
32 0.15
33 0.15
4 -0.62
5 -0.62
6 -0.62
7 0.1
8 0.1
9 0.72

>  <PUBCHEM_EFFECTIVE_ROTOR_COUNT>  (1) 
4

>  <PUBCHEM_PHARMACOPHORE_FEATURES>  (1) 
7
1 2 donor
1 3 donor
4 2 4 6 9 cation
4 3 4 5 10 cation
6 4 5 6 9 10 21 rings
6 7 11 12 15 16 19 rings
6 8 13 14 17 18 20 rings

>  <PUBCHEM_HEAVY_ATOM_COUNT>  (1) 
21

>  <PUBCHEM_ATOM_DEF_STEREO_COUNT>  (1) 
0

>  <PUBCHEM_ATOM_UDEF_STEREO_COUNT>  (1) 
0

>  <PUBCHEM_BOND_DEF_STEREO_COUNT>  (1) 
0

>  <PUBCHEM_BOND_UDEF_STEREO_COUNT>  (1) 
0

>  <PUBCHEM_ISOTOPIC_ATOM_COUNT>  (1) 
0

>  <PUBCHEM_COMPONENT_COUNT>  (1) 
1

>  <PUBCHEM_CACTVS_TAUTO_COUNT>  (1) 
5

>  <PUBCHEM_CONFORMER_ID>  (1) 
00003ED800000002

>  <PUBCHEM_MMFF94_ENERGY>  (1) 
73.8326

>  <PUBCHEM_FEATURE_SELFOVERLAP>  (1) 
35.564

>  <PUBCHEM_SHAPE_FINGERPRINT>  (1) 
10006869 2 18262793107473151939
10064457 181 18410295852087344516
10165383 225 18410586075500954221
10411042 1 17185877186713752327
10498660 4 17976529834541792204
1100329 8 18339078169095183026
12107183 9 18335687348803064704
12173636 292 18339076119894454276
12403260 363 18338778079181676142
12788726 201 18052239984790630975
13140716 1 18339914931397282360
138480 1 17762336911923347461
14466204 15 18192987124280143962
151778 21 18337959982522583049
18785283 64 18192156988399964755
19591789 44 18410859862469692165
19930381 70 18266176132905237793
20621476 13 17831569886629062901
21041028 32 17041760885914098551
21524375 3 18333445447929166690
21860390 5 17767115402632728061
22182937 141 18269845378804601648
23559900 14 17832138326077728153
238 59 17685173276291851741
23845131 108 18408046208684488419
3091708 16 9264465729934541634
350125 39 18409731763544829795
474 4 18339920394875244529
5048184 11 18411700997576863817
5939293 188 17833544600769191123
6442390 28 18338807796334190657
7364860 26 18050286968745348575
7808743 9 18192716872095747052
81228 2 17762044845578390729
9981440 41 18409160017656694555

>  <PUBCHEM_SHAPE_MULTIPOLES>  (1) 
409.13
7
6.35
0.74
0.04
8.31
0
-8.87
0
-0.04
0
0
-0.27
0.09

>  <PUBCHEM_SHAPE_SELFOVERLAP>  (1) 
878.278

>  <PUBCHEM_SHAPE_VOLUME>  (1) 
220.4

>  <PUBCHEM_COORDINATE_TYPE>  (1) 
2
5
10

$$$$
