16087
     RDKit          3D

 27 30  0  0  0  0  0  0  0  0999 V2000
    0.0652   -1.9305    0.0598 O   0  0  0  0  0  0  0  0  0  0  0  0
    1.2143    2.5486   -0.0762 O   0  0  0  0  0  0  0  0  0  0  0  0
   -3.2767    1.3128   -0.0544 N   0  0  0  0  0  0  0  0  0  0  0  0
   -1.0269    1.9742   -0.0656 N   0  0  0  0  0  0  0  0  0  0  0  0
   -1.6230   -0.3490    0.0050 N   0  0  0  0  0  0  0  0  0  0  0  0
    0.6879    0.2969   -0.0057 N   0  0  0  0  0  0  0  0  0  0  0  0
   -4.4598    0.5451   -0.0345 C   0  0  0  0  0  0  0  0  0  0  0  0
   -1.9125    0.9631   -0.0375 C   0  0  0  0  0  0  0  0  0  0  0  0
   -5.6164    1.0618    0.5493 C   0  0  0  0  0  0  0  0  0  0  0  0
   -4.4738   -0.7302   -0.5994 C   0  0  0  0  0  0  0  0  0  0  0  0
   -0.3052   -0.6065    0.0188 C   0  0  0  0  0  0  0  0  0  0  0  0
    0.2523    1.5663   -0.0473 C   0  0  0  0  0  0  0  0  0  0  0  0
    1.4155   -2.2061    0.0743 C   0  0  0  0  0  0  0  0  0  0  0  0
    2.5309    2.1411   -0.0577 C   0  0  0  0  0  0  0  0  0  0  0  0
   -6.7869    0.3035    0.5681 C   0  0  0  0  0  0  0  0  0  0  0  0
   -5.6443   -1.4885   -0.5805 C   0  0  0  0  0  0  0  0  0  0  0  0
   -6.8010   -0.9718    0.0032 C   0  0  0  0  0  0  0  0  0  0  0  0
    2.0765   -2.3063    1.2888 C   0  0  0  0  0  0  0  0  0  0  0  0
    2.0877   -2.3779   -1.1260 C   0  0  0  0  0  0  0  0  0  0  0  0
    3.1852    1.9000   -1.2559 C   0  0  0  0  0  0  0  0  0  0  0  0
    3.1761    1.9798    1.1586 C   0  0  0  0  0  0  0  0  0  0  0  0
    3.4430   -2.5853    1.3035 C   0  0  0  0  0  0  0  0  0  0  0  0
    3.4543   -2.6569   -1.1114 C   0  0  0  0  0  0  0  0  0  0  0  0
    4.5176    1.4876   -1.2372 C   0  0  0  0  0  0  0  0  0  0  0  0
    4.5085    1.5674    1.1773 C   0  0  0  0  0  0  0  0  0  0  0  0
    4.1320   -2.7606    0.1034 C   0  0  0  0  0  0  0  0  0  0  0  0
    5.1793    1.3213   -0.0206 C   0  0  0  0  0  0  0  0  0  0  0  0
  1 11  1  0
  1 13  1  0
  2 12  1  0
  2 14  1  0
  3  7  1  0
  3  8  1  0
  4  8  2  0
  4 12  1  0
  5  8  1  0
  5 11  2  0
  6 11  1  0
  6 12  2  0
  7  9  2  0
  7 10  1  0
  9 15  1  0
 10 16  2  0
 13 18  2  0
 13 19  1  0
 14 20  2  0
 14 21  1  0
 15 17  2  0
 16 17  1  0
 18 22  1  0
 19 23  2  0
 20 24  1  0
 21 25  2  0
 22 26  2  0
 23 26  1  0
 24 27  2  0
 25 27  1  0
M  END
>  <PUBCHEM_COMPOUND_CID>  (1) 
16087

>  <PUBCHEM_CONFORMER_RMSD>  (1) 
0.8

>  <PUBCHEM_CONFORMER_DIVERSEORDER>  (1) 
1
30
37
162
52
71
107
98
122
76
105
147
129
150
151
21
130
11
117
83
62
57
50
58
119
113
124
157
41
149
5
35
68
155
116
4
140
97
156
16
148
67
153
23
45
84
27
134
51
111
101
80
6
137
133
158
9
78
24
65
43
79
121
95
123
108
110
49
2
28
72
161
152
128
22
89
19
87
64
10
3
86
141
53
29
132
38
92
54
125
159
114
112
138
85
91
34
131
59
115
88
145
109
135
106
118
55
33
82
44
136
42
74
25
17
146
48
93
120
77
154
32
61
46
99
47
160
139
39
15
90
127
142
66
102
7
31
94
70
63
18
69
104
26
56
81
96
12
126
73
143
60
144
75
8
13
14
20
40
100
103
36

>  <PUBCHEM_MMFF94_PARTIAL_CHARGES>  (1) 
43
1 -0.17
10 -0.15
11 0.7
12 0.7
13 0.08
14 0.08
15 -0.15
16 -0.15
17 -0.15
18 -0.15
19 -0.15
2 -0.17
20 -0.15
21 -0.15
22 -0.15
23 -0.15
24 -0.15
25 -0.15
26 -0.15
27 -0.15
28 0.4
29 0.15
3 -0.6
30 0.15
31 0.15
32 0.15
33 0.15
34 0.15
35 0.15
36 0.15
37 0.15
38 0.15
39 0.15
4 -0.62
40 0.15
41 0.15
42 0.15
43 0.15
5 -0.62
6 -0.62
7 0.1
8 0.72
9 -0.15

>  <PUBCHEM_EFFECTIVE_ROTOR_COUNT>  (1) 
6

>  <PUBCHEM_PHARMACOPHORE_FEATURES>  (1) 
6
1 3 donor
4 3 4 5 8 cation
6 13 18 19 22 23 26 rings
6 14 20 21 24 25 27 rings
6 4 5 6 8 11 12 rings
6 7 9 10 15 16 17 rings

>  <PUBCHEM_HEAVY_ATOM_COUNT>  (1) 
27

>  <PUBCHEM_ATOM_DEF_STEREO_COUNT>  (1) 
0

>  <PUBCHEM_ATOM_UDEF_STEREO_COUNT>  (1) 
0

>  <PUBCHEM_BOND_DEF_STEREO_COUNT>  (1) 
0

>  <PUBCHEM_BOND_UDEF_STEREO_COUNT>  (1) 
0

>  <PUBCHEM_ISOTOPIC_ATOM_COUNT>  (1) 
0

>  <PUBCHEM_COMPONENT_COUNT>  (1) 
1

>  <PUBCHEM_CACTVS_TAUTO_COUNT>  (1) 
3

>  <PUBCHEM_CONFORMER_ID>  (1) 
00003ED700000001

>  <PUBCHEM_MMFF94_ENERGY>  (1) 
97.5838

>  <PUBCHEM_FEATURE_SELFOVERLAP>  (1) 
30.448

>  <PUBCHEM_SHAPE_FINGERPRINT>  (1) 
11408170 132 18187642450367040053
11963148 33 18190172567634325443
12166972 35 17532943701462668814
12592029 89 18408322215508402640
12597179 24 17895479231810643827
13140716 1 18122903123090808489
13150687 139 17969806240441879396
13533116 47 18413109446191152721
13692114 37 18125711533639283739
14863182 85 18409728478459402932
15721738 202 18130791118234257938
16112460 7 18341626901799958019
17844677 252 18337674092867494593
20554085 129 18130218385226577096
20691752 17 17386578938112602320
20771845 171 17676498271524803324
20775438 99 18341887523877698278
20905425 154 18340772521182768484
21197605 99 18339078327571318058
22182313 1 17969205777325904181
22956985 138 17898275127119986674
23559900 14 18197770017046048323
25147074 1 18270131110637377657
27425 322 16227190291438212956
338550 245 18336545035663901950
3411729 13 18409728486864578250
4073 2 18188216515357861939
4093350 32 17703520921582725015
42630746 31 18409730664033188996
4340502 62 18413107290038409724
465052 167 17530962522662945440
484989 97 18189355561791092290
5104073 3 18340495491623732185
513532 50 17917717907345116238
59755656 215 18410296942623240172

>  <PUBCHEM_SHAPE_MULTIPOLES>  (1) 
523.98
14.64
3.6
1.11
25.88
1.46
0.03
-0.02
0.5
-5.47
0.03
-1.23
0.18
-0.61

>  <PUBCHEM_SHAPE_SELFOVERLAP>  (1) 
1154.615

>  <PUBCHEM_SHAPE_VOLUME>  (1) 
275.4

>  <PUBCHEM_COORDINATE_TYPE>  (1) 
2
5
10

$$$$
