16090
     RDKit          3D

  8  7  0  0  1  0  0  0  0  0999 V2000
    3.6937    1.0352   -0.1064 Br  0  0  0  0  0  0  0  0  0  0  0  0
   -0.3737   -0.2981    0.2764 C   0  0  0  0  0  0  0  0  0  0  0  0
    0.8619    0.5476   -0.0566 C   0  0  0  0  0  0  0  0  0  0  0  0
   -1.6605    0.4090   -0.1557 C   0  0  0  0  0  0  0  0  0  0  0  0
    2.1759   -0.1138    0.3662 C   0  0  0  0  0  0  0  0  0  0  0  0
   -2.8958   -0.4191    0.1980 C   0  0  0  0  0  0  0  0  0  0  0  0
    2.3761   -1.4562   -0.3231 C   0  0  0  0  0  0  0  0  0  0  0  0
   -4.1778    0.2954   -0.1989 C   0  0  0  0  0  0  0  0  0  0  0  0
  1  5  1  0
  2  3  1  0
  2  4  1  0
  3  5  1  0
  4  6  1  0
  5  7  1  0
  6  8  1  0
M  END
>  <PUBCHEM_COMPOUND_CID>  (1) 
16090

>  <PUBCHEM_CONFORMER_RMSD>  (1) 
0.6

>  <PUBCHEM_CONFORMER_DIVERSEORDER>  (1) 
2
19
34
36
26
21
40
20
38
22
5
29
39
10
48
16
25
23
6
37
9
47
7
32
1
43
45
3
52
4
27
49
50
17
13
51
33
46
11
41
35
30
31
42
24
44
12
14
8
15
28
18

>  <PUBCHEM_MMFF94_PARTIAL_CHARGES>  (1) 
2
1 -0.23
5 0.23

>  <PUBCHEM_EFFECTIVE_ROTOR_COUNT>  (1) 
4

>  <PUBCHEM_PHARMACOPHORE_FEATURES>  (1) 
4
1 1 hydrophobe
1 8 hydrophobe
3 1 5 7 hydrophobe
4 2 3 4 6 hydrophobe

>  <PUBCHEM_HEAVY_ATOM_COUNT>  (1) 
8

>  <PUBCHEM_ATOM_DEF_STEREO_COUNT>  (1) 
0

>  <PUBCHEM_ATOM_UDEF_STEREO_COUNT>  (1) 
1

>  <PUBCHEM_BOND_DEF_STEREO_COUNT>  (1) 
0

>  <PUBCHEM_BOND_UDEF_STEREO_COUNT>  (1) 
0

>  <PUBCHEM_ISOTOPIC_ATOM_COUNT>  (1) 
0

>  <PUBCHEM_COMPONENT_COUNT>  (1) 
1

>  <PUBCHEM_CACTVS_TAUTO_COUNT>  (1) 
1

>  <PUBCHEM_CONFORMER_ID>  (1) 
00003EDA00000002

>  <PUBCHEM_MMFF94_ENERGY>  (1) 
1.0792

>  <PUBCHEM_FEATURE_SELFOVERLAP>  (1) 
21.244

>  <PUBCHEM_SHAPE_FINGERPRINT>  (1) 
11062470 55 18260828215304705537
12932764 1 17060046043214047529
14325111 11 18410292501859157995
170605 34 18260829328112555568
20279233 1 17967537878152313115
20645477 70 18341611464949108391
21293036 1 18408886252009168372
22485316 2 18411133641297694023
23402655 69 18342172250418061669
3248919 1 18411978048726041171
449060 50 18336550507447000909
5460574 1 9799693700953142457

>  <PUBCHEM_SHAPE_MULTIPOLES>  (1) 
170.58
7.55
1.15
0.69
3.91
0.25
0
-1.38
-0.47
-1.04
-0.1
-0.09
0.01
0.15

>  <PUBCHEM_SHAPE_SELFOVERLAP>  (1) 
285.126

>  <PUBCHEM_SHAPE_VOLUME>  (1) 
117.6

>  <PUBCHEM_COORDINATE_TYPE>  (1) 
2
5
10

$$$$
