16091
     RDKit          3D

  8  7  0  0  1  0  0  0  0  0999 V2000
   -1.6344    2.2151   -0.3890 Br  0  0  0  0  0  0  0  0  0  0  0  0
   -0.0329    0.2330    0.9185 C   0  0  0  0  0  0  0  0  0  0  0  0
   -1.4659    0.4249    0.4019 C   0  0  0  0  0  0  0  0  0  0  0  0
    1.0554    0.1683   -0.1612 C   0  0  0  0  0  0  0  0  0  0  0  0
   -1.9141   -0.6394   -0.6021 C   0  0  0  0  0  0  0  0  0  0  0  0
    2.4254   -0.1208    0.4562 C   0  0  0  0  0  0  0  0  0  0  0  0
   -1.9377   -2.0463   -0.0152 C   0  0  0  0  0  0  0  0  0  0  0  0
    3.5042   -0.2348   -0.6092 C   0  0  0  0  0  0  0  0  0  0  0  0
  1  3  1  0
  2  3  1  0
  2  4  1  0
  3  5  1  0
  4  6  1  0
  5  7  1  0
  6  8  1  0
M  END
>  <PUBCHEM_COMPOUND_CID>  (1) 
16091

>  <PUBCHEM_CONFORMER_RMSD>  (1) 
0.6

>  <PUBCHEM_CONFORMER_DIVERSEORDER>  (1) 
3
9
50
39
38
8
11
23
49
41
19
13
21
32
29
31
34
42
2
45
30
48
15
25
46
24
28
5
43
33
20
16
47
7
44
14
35
36
1
40
17
27
4
37
22
12
18
6
26
10

>  <PUBCHEM_MMFF94_PARTIAL_CHARGES>  (1) 
2
1 -0.23
3 0.23

>  <PUBCHEM_EFFECTIVE_ROTOR_COUNT>  (1) 
4

>  <PUBCHEM_PHARMACOPHORE_FEATURES>  (1) 
3
1 1 hydrophobe
1 7 hydrophobe
1 8 hydrophobe

>  <PUBCHEM_HEAVY_ATOM_COUNT>  (1) 
8

>  <PUBCHEM_ATOM_DEF_STEREO_COUNT>  (1) 
0

>  <PUBCHEM_ATOM_UDEF_STEREO_COUNT>  (1) 
1

>  <PUBCHEM_BOND_DEF_STEREO_COUNT>  (1) 
0

>  <PUBCHEM_BOND_UDEF_STEREO_COUNT>  (1) 
0

>  <PUBCHEM_ISOTOPIC_ATOM_COUNT>  (1) 
0

>  <PUBCHEM_COMPONENT_COUNT>  (1) 
1

>  <PUBCHEM_CACTVS_TAUTO_COUNT>  (1) 
1

>  <PUBCHEM_CONFORMER_ID>  (1) 
00003EDB00000003

>  <PUBCHEM_MMFF94_ENERGY>  (1) 
1.7748

>  <PUBCHEM_FEATURE_SELFOVERLAP>  (1) 
15.223

>  <PUBCHEM_SHAPE_FINGERPRINT>  (1) 
12716758 59 18270110206588098392
12897270 3 18336823182056736614
12932741 1 17774711000898663608
12932764 1 18409733932999271208
20645477 56 18339080380845169312
20653085 51 18116726105525845136
20711985 344 18339908377572379707
21061003 4 16988288667653808922
23552423 10 18262233446978349248
23552449 1 18411695491359978272
29004967 10 16630248090588648146
3248919 1 17274540928214330040

>  <PUBCHEM_SHAPE_MULTIPOLES>  (1) 
170.58
4.53
1.98
0.89
4.93
0.13
0.04
-0.39
-0.93
-2.33
-0.28
0.07
0.05
0.04

>  <PUBCHEM_SHAPE_SELFOVERLAP>  (1) 
285.436

>  <PUBCHEM_SHAPE_VOLUME>  (1) 
117.3

>  <PUBCHEM_COORDINATE_TYPE>  (1) 
2
5
10

$$$$
