16104
     RDKit          3D

 23 26  0  0  0  0  0  0  0  0999 V2000
   -2.5854   -3.7717   -1.2337 Cl  0  0  0  0  0  0  0  0  0  0  0  0
   -1.3463    1.0827    0.3799 N   0  0  0  0  0  0  0  0  0  0  0  0
   -4.0935    1.8178    0.2578 N   0  0  0  0  0  0  0  0  0  0  0  0
    0.8740    1.4060    0.0938 N   0  0  0  0  0  0  0  0  0  0  0  0
    2.2718   -1.1182    0.9051 N   0  0  0  0  0  0  0  0  0  0  0  0
   -1.7198    2.4190   -0.0753 C   0  0  0  0  0  0  0  0  0  0  0  0
   -2.3115    0.4306    1.2606 C   0  0  0  0  0  0  0  0  0  0  0  0
   -3.1228    2.3935   -0.6844 C   0  0  0  0  0  0  0  0  0  0  0  0
   -3.7013    0.4486    0.6223 C   0  0  0  0  0  0  0  0  0  0  0  0
   -0.1184    0.5637    0.1513 C   0  0  0  0  0  0  0  0  0  0  0  0
   -0.0314   -0.9214    0.0082 C   0  0  0  0  0  0  0  0  0  0  0  0
   -5.4378    1.8311   -0.3175 C   0  0  0  0  0  0  0  0  0  0  0  0
    1.0475   -1.6668    0.4957 C   0  0  0  0  0  0  0  0  0  0  0  0
    2.2313    1.1394   -0.0941 C   0  0  0  0  0  0  0  0  0  0  0  0
   -1.1464   -1.5897   -0.5368 C   0  0  0  0  0  0  0  0  0  0  0  0
    2.9133    0.0229    0.4010 C   0  0  0  0  0  0  0  0  0  0  0  0
    0.9537   -3.0757    0.4712 C   0  0  0  0  0  0  0  0  0  0  0  0
   -1.2096   -2.9820   -0.5668 C   0  0  0  0  0  0  0  0  0  0  0  0
    2.9736    2.1785   -0.6890 C   0  0  0  0  0  0  0  0  0  0  0  0
   -0.1630   -3.7280   -0.0483 C   0  0  0  0  0  0  0  0  0  0  0  0
    4.3209   -0.0175    0.2954 C   0  0  0  0  0  0  0  0  0  0  0  0
    4.3618    2.1185   -0.7989 C   0  0  0  0  0  0  0  0  0  0  0  0
    5.0393    1.0189   -0.2972 C   0  0  0  0  0  0  0  0  0  0  0  0
  1 18  1  0
  2  6  1  0
  2  7  1  0
  2 10  1  0
  3  8  1  0
  3  9  1  0
  3 12  1  0
  4 10  2  0
  4 14  1  0
  5 13  1  0
  5 16  1  0
  6  8  1  0
  7  9  1  0
 10 11  1  0
 11 13  2  0
 11 15  1  0
 13 17  1  0
 14 16  2  0
 14 19  1  0
 15 18  2  0
 16 21  1  0
 17 20  2  0
 18 20  1  0
 19 22  2  0
 21 23  2  0
 22 23  1  0
M  END
>  <PUBCHEM_COMPOUND_CID>  (1) 
16104

>  <PUBCHEM_CONFORMER_RMSD>  (1) 
0.6

>  <PUBCHEM_CONFORMER_DIVERSEORDER>  (1) 
1
7
9
8
2
5
10
6
3
4

>  <PUBCHEM_MMFF94_PARTIAL_CHARGES>  (1) 
31
1 -0.18
10 0.41
11 0.09
12 0.27
13 0.1
14 0.18
15 -0.15
16 0.1
17 -0.15
18 0.18
19 -0.15
2 -0.79
20 -0.15
21 -0.15
22 -0.15
23 -0.15
3 -0.81
35 0.15
36 0.4
37 0.15
38 0.15
39 0.15
4 -0.63
40 0.15
41 0.15
42 0.15
5 -0.6
6 0.37
7 0.37
8 0.27
9 0.27

>  <PUBCHEM_EFFECTIVE_ROTOR_COUNT>  (1) 
2.4

>  <PUBCHEM_PHARMACOPHORE_FEATURES>  (1) 
8
1 3 cation
1 5 cation
1 5 donor
3 2 4 10 cation
6 11 13 15 17 18 20 rings
6 14 16 19 21 22 23 rings
6 2 3 6 7 8 9 rings
7 4 5 10 11 13 14 16 rings

>  <PUBCHEM_HEAVY_ATOM_COUNT>  (1) 
23

>  <PUBCHEM_ATOM_DEF_STEREO_COUNT>  (1) 
0

>  <PUBCHEM_ATOM_UDEF_STEREO_COUNT>  (1) 
0

>  <PUBCHEM_BOND_DEF_STEREO_COUNT>  (1) 
0

>  <PUBCHEM_BOND_UDEF_STEREO_COUNT>  (1) 
0

>  <PUBCHEM_ISOTOPIC_ATOM_COUNT>  (1) 
0

>  <PUBCHEM_COMPONENT_COUNT>  (1) 
1

>  <PUBCHEM_CACTVS_TAUTO_COUNT>  (1) 
3

>  <PUBCHEM_CONFORMER_ID>  (1) 
00003EE800000001

>  <PUBCHEM_MMFF94_ENERGY>  (1) 
100.5504

>  <PUBCHEM_FEATURE_SELFOVERLAP>  (1) 
40.615

>  <PUBCHEM_SHAPE_FINGERPRINT>  (1) 
10090160 65 18336821984045840569
10411042 1 17473828802144944050
104564 63 18196371648144769462
10871710 139 18192717962647519119
1100329 8 18411694370853139890
11578080 2 15114579081068371937
12035759 4 18265034994079713831
12553582 1 17689720079111225034
12592029 89 18337112250398509425
12788726 201 18122618620314998538
13052359 8 18339360867657336699
13140716 1 18409157831824295730
13149001 5 17560230452731460744
13583140 156 16951951873950446146
13590594 115 17761498384722772435
13836976 161 18335984168627376060
138480 1 17545602253640573642
14251751 93 18408889572076871682
14790565 3 18411424998789074057
14866123 147 18411135870338787122
16752209 62 18197770197007666538
17134986 127 18337394838125203350
17138139 8 17771592842173552311
18681886 176 18337103476276598696
19591789 44 18410577292286838147
20261772 1 18266755742540480346
204376 136 18411423886307518345
20645477 70 18118962486834101809
20739085 24 17692255131901757818
21285901 2 17628657519477952686
21307412 95 17914644699669090902
21344244 181 17703523103341833167
21524375 3 18334581222087174664
2255824 54 17981328885090819099
22620623 9 17844815973812548910
23227448 37 18339928215852513172
23419403 2 17244974935425172319
23558518 356 17900825165151719024
23559900 14 17832700180445126593
25147074 1 18115296900072268464
2748010 2 17400906511036124930
283562 15 18122619728395468314
3060560 45 18265055734824562518
335352 9 18409168775875738950
350125 39 18338802346131513945
3729539 64 17908172905160585654
38695281 34 18339080372186409597
394222 165 18189053097023538770
46194498 28 17684345288961353477
474 4 18337111155324358009
5048184 11 18410294722331051672
53917941 68 18339632464404510300
59755656 520 17916329210683560993
6138700 20 18048887295366443670
6438718 38 17915748767254886222
6669772 16 18272378516762952918
7164475 11 18196368341541944358
7364860 26 18122346765890418347
81228 2 17907291413928842025
8272917 22 18194685860933648273
9709674 26 18046349622360218593

>  <PUBCHEM_SHAPE_MULTIPOLES>  (1) 
455.27
8.63
4.53
0.95
1.87
4.21
0.02
-7.62
1.03
-3.4
1.18
-0.22
0.18
-1.32

>  <PUBCHEM_SHAPE_SELFOVERLAP>  (1) 
985.513

>  <PUBCHEM_SHAPE_VOLUME>  (1) 
247.7

>  <PUBCHEM_COORDINATE_TYPE>  (1) 
2
5
10

$$$$
