16101
     RDKit          3D

 22 24  0  0  0  0  0  0  0  0999 V2000
   -1.4838   -0.5352    1.4513 O   0  0  0  0  0  0  0  0  0  0  0  0
   -3.5480    1.0017    0.4335 N   0  0  0  0  0  0  0  0  0  0  0  0
   -5.6693    1.1378   -0.5335 C   0  0  0  0  0  0  0  0  0  0  0  0
   -4.8812    0.0226   -1.2138 C   0  0  0  0  0  0  0  0  0  0  0  0
   -4.6303    1.9608    0.2139 C   0  0  0  0  0  0  0  0  0  0  0  0
   -3.4305    0.2671   -0.8257 C   0  0  0  0  0  0  0  0  0  0  0  0
   -2.3021    1.6482    0.8180 C   0  0  0  0  0  0  0  0  0  0  0  0
   -1.2378    0.5898    1.0253 C   0  0  0  0  0  0  0  0  0  0  0  0
    0.1616    1.0291    0.7173 C   0  0  0  0  0  0  0  0  0  0  0  0
    1.1588    0.2468    0.2526 C   0  0  0  0  0  0  0  0  0  0  0  0
    2.5111    0.7865   -0.0192 C   0  0  0  0  0  0  0  0  0  0  0  0
    0.8409   -1.1935    0.0584 C   0  0  0  0  0  0  0  0  0  0  0  0
    2.8052    1.2558   -1.2850 C   0  0  0  0  0  0  0  0  0  0  0  0
    1.0179   -2.0619    1.1142 C   0  0  0  0  0  0  0  0  0  0  0  0
    3.4412    0.8076    1.0022 C   0  0  0  0  0  0  0  0  0  0  0  0
    0.3780   -1.6103   -1.1712 C   0  0  0  0  0  0  0  0  0  0  0  0
    4.0783    1.7657   -1.5391 C   0  0  0  0  0  0  0  0  0  0  0  0
    0.7175   -3.4117    0.9316 C   0  0  0  0  0  0  0  0  0  0  0  0
    4.7144    1.3175    0.7480 C   0  0  0  0  0  0  0  0  0  0  0  0
    0.0776   -2.9602   -1.3538 C   0  0  0  0  0  0  0  0  0  0  0  0
    5.0331    1.7967   -0.5227 C   0  0  0  0  0  0  0  0  0  0  0  0
    0.2473   -3.8610   -0.3023 C   0  0  0  0  0  0  0  0  0  0  0  0
  1  8  2  0
  2  5  1  0
  2  6  1  0
  2  7  1  0
  3  4  1  0
  3  5  1  0
  4  6  1  0
  7  8  1  0
  8  9  1  0
  9 10  2  3
 10 11  1  0
 10 12  1  0
 11 13  2  0
 11 15  1  0
 12 14  2  0
 12 16  1  0
 13 17  1  0
 14 18  1  0
 15 19  2  0
 16 20  2  0
 17 21  2  0
 18 22  2  0
 19 21  1  0
 20 22  1  0
M  END
>  <PUBCHEM_COMPOUND_CID>  (1) 
16101

>  <PUBCHEM_CONFORMER_RMSD>  (1) 
0.8

>  <PUBCHEM_CONFORMER_DIVERSEORDER>  (1) 
1
10
23
17
22
16
6
24
7
12
8
14
9
11
21
13
20
4
2
18
19
15
3
5

>  <PUBCHEM_MMFF94_PARTIAL_CHARGES>  (1) 
31
1 -0.57
10 -0.06
11 0.03
12 0.03
13 -0.15
14 -0.15
15 -0.15
16 -0.15
17 -0.15
18 -0.15
19 -0.15
2 -0.81
20 -0.15
21 -0.15
22 -0.15
33 0.15
34 0.15
35 0.15
36 0.15
37 0.15
38 0.15
39 0.15
40 0.15
41 0.15
42 0.15
43 0.15
5 0.27
6 0.27
7 0.33
8 0.49
9 -0.14

>  <PUBCHEM_EFFECTIVE_ROTOR_COUNT>  (1) 
6

>  <PUBCHEM_PHARMACOPHORE_FEATURES>  (1) 
5
1 1 acceptor
1 2 cation
5 2 3 4 5 6 rings
6 11 13 15 17 19 21 rings
6 12 14 16 18 20 22 rings

>  <PUBCHEM_HEAVY_ATOM_COUNT>  (1) 
22

>  <PUBCHEM_ATOM_DEF_STEREO_COUNT>  (1) 
0

>  <PUBCHEM_ATOM_UDEF_STEREO_COUNT>  (1) 
0

>  <PUBCHEM_BOND_DEF_STEREO_COUNT>  (1) 
0

>  <PUBCHEM_BOND_UDEF_STEREO_COUNT>  (1) 
0

>  <PUBCHEM_ISOTOPIC_ATOM_COUNT>  (1) 
0

>  <PUBCHEM_COMPONENT_COUNT>  (1) 
1

>  <PUBCHEM_CACTVS_TAUTO_COUNT>  (1) 
2

>  <PUBCHEM_CONFORMER_ID>  (1) 
00003EE500000001

>  <PUBCHEM_MMFF94_ENERGY>  (1) 
68.2693

>  <PUBCHEM_FEATURE_SELFOVERLAP>  (1) 
25.373

>  <PUBCHEM_SHAPE_FINGERPRINT>  (1) 
10090160 65 18335416846587093001
105312 117 18264221347143356916
10759866 29 18342731876393895599
10764073 3 14926720712150687414
10940486 97 16836862538806856599
11069576 57 17984678053744806639
121448 382 18201721807390312019
12730499 353 18337403655998939465
12788726 201 17758402159598776622
13004483 165 16608014509323348803
13052359 8 18267302217210623202
13083527 12 18048864213362505466
13103583 49 10015587267976594125
13149001 5 17843400932370382120
13257819 101 17313373526770145469
13257819 37 18265350558216913518
133893 2 18121234077382158482
13583140 156 17241051040534935968
13968360 50 18337099094998337311
14251757 17 16558758943867212621
15163728 17 17896346694834412661
15537594 2 17917704713516851783
15842332 3 17557435279884043425
15849732 13 18187639186038419864
16752209 62 18194959879926397530
17138139 8 17842813750585899991
173720 79 18336813286652482002
200 152 13182754653685723724
20197701 30 18411697703515730766
20567600 347 18341896272719908487
20645477 70 18267582404182097403
20721686 124 17677879163846471971
21054139 6 18272075141678875621
21344244 181 17417545690586542030
21344244 246 18057896749257612646
21524375 3 18410857663842101656
22182313 1 18195837195399661858
22393880 68 18129384808745323285
2255824 54 18195248802355365131
22907989 373 17837230516001321860
22950370 63 9871753502784154248
23557571 272 16589177973059344913
23559900 14 17342938136427139351
23569917 315 18411138043539887506
23598288 3 17680445625690219514
298252 57 18408605898330074512
3060560 45 18408608050167075468
3759504 43 18262519320096769858
394222 165 18335975385414202315
404807 78 17972866232704677159
4280585 95 17266673750239698414
4409770 3 18121786285644133635
474 4 18333453118772347201
53917941 68 18267294529445756740
59755656 520 18411974793510044406
81228 2 17839190954134914834
81539 233 18335702706572237075
8863177 126 11815028198190741373
9981440 41 18407762538520242083

>  <PUBCHEM_SHAPE_MULTIPOLES>  (1) 
441.9
9.97
3.63
1.43
6.45
4.91
-0.18
-10.51
-2.46
-1.1
-0.21
-0.35
0.13
-0.88

>  <PUBCHEM_SHAPE_SELFOVERLAP>  (1) 
949.865

>  <PUBCHEM_SHAPE_VOLUME>  (1) 
245.1

>  <PUBCHEM_COORDINATE_TYPE>  (1) 
2
5
10

$$$$
