16111
     RDKit          3D

 19 21  0  0  0  0  0  0  0  0999 V2000
   -2.8350   -0.1650    0.0939 P   0  0  0  0  0  0  0  0  0  0  0  0
   -3.2223   -0.1151    1.5525 O   0  0  0  0  0  0  0  0  0  0  0  0
    1.0528    0.1106    0.1403 O   0  0  0  0  0  0  0  0  0  0  0  0
   -0.4889    1.4933    1.1386 O   0  0  0  0  0  0  0  0  0  0  0  0
   -3.2329    1.1926   -0.7758 N   0  0  0  0  0  0  0  0  0  0  0  0
   -3.4988   -1.4341   -0.7463 N   0  0  0  0  0  0  0  0  0  0  0  0
   -1.1328   -0.3543   -0.0961 N   0  0  0  0  0  0  0  0  0  0  0  0
   -4.6550    1.4545   -0.9533 C   0  0  0  0  0  0  0  0  0  0  0  0
   -3.8240    2.2949   -0.0283 C   0  0  0  0  0  0  0  0  0  0  0  0
   -3.2907   -2.7624   -0.1847 C   0  0  0  0  0  0  0  0  0  0  0  0
   -4.6367   -2.1011   -0.1272 C   0  0  0  0  0  0  0  0  0  0  0  0
   -0.2132    0.5099    0.4593 C   0  0  0  0  0  0  0  0  0  0  0  0
    2.1112    0.9259    0.6554 C   0  0  0  0  0  0  0  0  0  0  0  0
    3.4275    0.3541    0.2171 C   0  0  0  0  0  0  0  0  0  0  0  0
    4.0684   -0.5878    1.0143 C   0  0  0  0  0  0  0  0  0  0  0  0
    3.9942    0.7708   -0.9822 C   0  0  0  0  0  0  0  0  0  0  0  0
    5.2919   -1.1195    0.6070 C   0  0  0  0  0  0  0  0  0  0  0  0
    5.2177    0.2389   -1.3895 C   0  0  0  0  0  0  0  0  0  0  0  0
    5.8665   -0.7063   -0.5948 C   0  0  0  0  0  0  0  0  0  0  0  0
  1  2  2  0
  1  5  1  0
  1  6  1  0
  1  7  1  0
  3 12  1  0
  3 13  1  0
  4 12  2  0
  5  8  1  0
  5  9  1  0
  6 10  1  0
  6 11  1  0
  7 12  1  0
  8  9  1  0
 10 11  1  0
 13 14  1  0
 14 15  2  0
 14 16  1  0
 15 17  1  0
 16 18  2  0
 17 19  2  0
 18 19  1  0
M  END
>  <PUBCHEM_COMPOUND_CID>  (1) 
16111

>  <PUBCHEM_CONFORMER_RMSD>  (1) 
0.8

>  <PUBCHEM_CONFORMER_DIVERSEORDER>  (1) 
1
35
38
86
41
84
13
21
2
5
20
50
114
37
74
25
57
102
4
115
106
15
23
109
55
11
27
43
113
22
110
96
63
64
60
10
79
32
14
75
61
111
80
101
46
83
42
30
3
47
72
93
26
36
19
51
40
56
78
62
33
87
94
52
54
82
71
89
116
97
112
92
17
103
18
45
49
39
48
70
76
16
95
31
91
67
105
24
88
58
53
65
99
66
28
29
98
104
73
81
59
12
69
34
68
44
107
7
85
100
77
9
6
8
108
90

>  <PUBCHEM_MMFF94_PARTIAL_CHARGES>  (1) 
33
1 1.49
10 -0.04
11 -0.04
12 0.78
13 0.42
14 -0.14
15 -0.15
16 -0.15
17 -0.15
18 -0.15
19 -0.15
2 -0.7
20 0.1
21 0.1
22 0.1
23 0.1
24 0.1
25 0.1
26 0.1
27 0.1
28 0.37
3 -0.43
31 0.15
32 0.15
33 0.15
34 0.15
35 0.15
4 -0.57
5 -0.58
6 -0.58
7 -0.69
8 -0.04
9 -0.04

>  <PUBCHEM_EFFECTIVE_ROTOR_COUNT>  (1) 
8.2

>  <PUBCHEM_PHARMACOPHORE_FEATURES>  (1) 
4
1 2 acceptor
1 4 acceptor
1 7 donor
6 14 15 16 17 18 19 rings

>  <PUBCHEM_HEAVY_ATOM_COUNT>  (1) 
19

>  <PUBCHEM_ATOM_DEF_STEREO_COUNT>  (1) 
0

>  <PUBCHEM_ATOM_UDEF_STEREO_COUNT>  (1) 
0

>  <PUBCHEM_BOND_DEF_STEREO_COUNT>  (1) 
0

>  <PUBCHEM_BOND_UDEF_STEREO_COUNT>  (1) 
0

>  <PUBCHEM_ISOTOPIC_ATOM_COUNT>  (1) 
0

>  <PUBCHEM_COMPONENT_COUNT>  (1) 
1

>  <PUBCHEM_CACTVS_TAUTO_COUNT>  (1) 
3

>  <PUBCHEM_CONFORMER_ID>  (1) 
00003EEF00000001

>  <PUBCHEM_MMFF94_ENERGY>  (1) 
36.4286

>  <PUBCHEM_FEATURE_SELFOVERLAP>  (1) 
20.297

>  <PUBCHEM_SHAPE_FINGERPRINT>  (1) 
10595046 47 18187648050349927860
10680689 15 18408046229647303401
10803635 8 18411134714728242807
10912923 1 17821723936285183760
11405975 8 18341610425445612609
11545043 162 18060415828774276322
11796584 16 18341894048586329502
11809386 21 18334005116723149179
12616971 3 17313378990242761272
12916754 54 18271245053302273633
13167823 11 18333448759549450734
13760787 19 18259982647929038802
14251731 8 18341613698563651940
14251751 93 18411693301111332103
15183329 4 18113334181158151518
15250474 111 18114167640858247594
15788980 27 18261114062795402890
17834072 33 18259706709650514748
17844677 252 18411140272632506848
17870717 6 18343868805454656629
18927931 339 16630253553570939532
20645477 70 16443347534212432138
20871999 31 18261110806888439194
21065201 7 18339348742964550080
21401589 2 10810160237979237023
21709351 56 18040716961466182174
220451 1 18409175394045788986
23402539 116 17530966869480617460
23402655 69 18040157301700445288
23557571 272 18343591741435895229
23559900 14 18272078418591755688
3004659 81 18261109635312193138
314173 85 16988846068710151824
32948 21 18335137562349775276
4214541 1 18409445886342776261
44062 13 18413385453906532615
497634 4 16370732551918978355
5104073 3 18131631214153593952
542803 24 17240487987855311268
559249 180 18337383859920133170
58051976 100 18409722972036977357
59755656 215 18342175562064986119
59755656 520 18341051814384950241
633830 44 16877943815283693944
90127 26 18261678155279093328

>  <PUBCHEM_SHAPE_MULTIPOLES>  (1) 
362.31
14.39
2.17
1.15
10.51
0.74
-0.03
2.76
3.25
-4.1
0.19
0.52
-0.15
-0.34

>  <PUBCHEM_SHAPE_SELFOVERLAP>  (1) 
732.504

>  <PUBCHEM_SHAPE_VOLUME>  (1) 
213.2

>  <PUBCHEM_COORDINATE_TYPE>  (1) 
2
5
10

$$$$
