1611
     RDKit          3D

 22 24  0  0  1  0  0  0  0  0999 V2000
   -0.3087   -1.7320   -0.0244 S   0  0  0  0  0  0  0  0  0  0  0  0
    2.5919   -1.1882   -0.4279 S   0  0  0  0  0  0  0  0  0  0  0  0
    5.0202    0.4401   -0.3481 S   0  0  0  0  0  0  0  0  0  0  0  0
   -3.9622    0.2611   -1.5650 S   0  0  0  0  0  0  0  0  0  0  0  0
   -0.7555    2.1710   -0.0707 O   0  0  0  0  0  0  0  0  0  0  0  0
   -0.1048   -2.6507    1.0774 O   0  0  0  0  0  0  0  0  0  0  0  0
   -0.4070   -2.1785   -1.3982 O   0  0  0  0  0  0  0  0  0  0  0  0
    5.3094   -0.5419   -1.3870 O   0  0  0  0  0  0  0  0  0  0  0  0
    5.2779    1.8566   -0.5745 O   0  0  0  0  0  0  0  0  0  0  0  0
   -1.6136   -0.6530    0.3383 N   0  0  0  0  0  0  0  0  0  0  0  0
    5.8542   -0.0415    1.0742 N   0  0  0  0  0  0  0  0  0  0  0  0
   -0.2119    1.3414    0.9589 C   0  0  0  0  0  0  0  0  0  0  0  0
   -1.3200    0.3634    1.4130 C   0  0  0  0  0  0  0  0  0  0  0  0
    1.0482    0.6615    0.4957 C   0  0  0  0  0  0  0  0  0  0  0  0
    1.0657   -0.6396    0.0456 C   0  0  0  0  0  0  0  0  0  0  0  0
   -2.9487   -1.2792    0.4879 C   0  0  0  0  0  0  0  0  0  0  0  0
    2.3584    1.2270    0.4346 C   0  0  0  0  0  0  0  0  0  0  0  0
    3.2914    0.3324   -0.0502 C   0  0  0  0  0  0  0  0  0  0  0  0
   -3.9976   -0.3054    0.0401 C   0  0  0  0  0  0  0  0  0  0  0  0
   -5.0242    0.2150    0.7739 C   0  0  0  0  0  0  0  0  0  0  0  0
   -5.8148    1.1115   -0.0015 C   0  0  0  0  0  0  0  0  0  0  0  0
   -5.3481    1.2290   -1.2922 C   0  0  0  0  0  0  0  0  0  0  0  0
  1  6  2  0
  1  7  2  0
  1 10  1  0
  1 15  1  0
  2 15  1  0
  2 18  1  0
  3  8  2  0
  3  9  2  0
  3 11  1  0
  3 18  1  0
  4 19  1  0
  4 22  1  0
  5 12  1  0
 10 13  1  0
 10 16  1  0
 12 13  1  0
 12 14  1  0
 14 15  2  0
 14 17  1  0
 16 19  1  0
 17 18  2  0
 19 20  2  0
 20 21  1  0
 21 22  2  0
M  END
>  <PUBCHEM_COMPOUND_CID>  (1) 
1611

>  <PUBCHEM_CONFORMER_RMSD>  (1) 
0.6

>  <PUBCHEM_CONFORMER_DIVERSEORDER>  (1) 
1
44
47
68
70
7
28
15
42
75
67
20
74
56
59
38
45
60
16
69
27
40
63
46
57
48
5
13
62
41
73
19
65
36
4
52
55
6
8
14
39
32
31
53
2
23
49
25
54
9
66
3
21
37
61
10
35
26
58
24
72
29
22
71
30
12
34
50
17
64
11
51
18
43
33

>  <PUBCHEM_MMFF94_PARTIAL_CHARGES>  (1) 
29
1 1.5
10 -0.85
11 -0.98
12 0.46
13 0.36
14 -0.18
15 -0.02
16 0.54
17 -0.15
18 -0.02
19 -0.14
2 -0.08
20 -0.15
21 -0.15
22 -0.11
28 0.15
29 0.4
3 1.5
30 0.15
31 0.42
32 0.42
33 0.15
34 0.15
4 -0.08
5 -0.68
6 -0.65
7 -0.65
8 -0.65
9 -0.65

>  <PUBCHEM_EFFECTIVE_ROTOR_COUNT>  (1) 
3.6

>  <PUBCHEM_PHARMACOPHORE_FEATURES>  (1) 
10
1 11 donor
1 5 acceptor
1 5 donor
1 6 acceptor
1 7 acceptor
1 8 acceptor
1 9 acceptor
5 2 14 15 17 18 rings
5 4 19 20 21 22 rings
6 1 10 12 13 14 15 rings

>  <PUBCHEM_HEAVY_ATOM_COUNT>  (1) 
22

>  <PUBCHEM_ATOM_DEF_STEREO_COUNT>  (1) 
0

>  <PUBCHEM_ATOM_UDEF_STEREO_COUNT>  (1) 
1

>  <PUBCHEM_BOND_DEF_STEREO_COUNT>  (1) 
0

>  <PUBCHEM_BOND_UDEF_STEREO_COUNT>  (1) 
0

>  <PUBCHEM_ISOTOPIC_ATOM_COUNT>  (1) 
0

>  <PUBCHEM_COMPONENT_COUNT>  (1) 
1

>  <PUBCHEM_CACTVS_TAUTO_COUNT>  (1) 
1

>  <PUBCHEM_CONFORMER_ID>  (1) 
0000064B00000001

>  <PUBCHEM_MMFF94_ENERGY>  (1) 
31.148

>  <PUBCHEM_FEATURE_SELFOVERLAP>  (1) 
50.822

>  <PUBCHEM_SHAPE_FINGERPRINT>  (1) 
10906281 52 18200331994891932280
11578080 2 14058442057943751476
12011746 2 18272940414327521092
12236239 1 14418135119301607977
12403259 415 18269553995681048817
12670543 26 18272374139594756476
12788726 201 18270677558915147281
12969540 114 18412252948208107135
13533116 47 17774721962146112070
14251752 14 18113614556375470200
14790565 3 18340776965662101577
15048467 5 17095243626643264237
15099037 51 18412825815045796728
15183329 4 18409449163360729012
1601671 61 18408038507222531261
18186145 218 18412258463204499859
18769570 83 17240480295200080709
19784866 34 18334856087489050787
200 152 17203894062959921729
20281389 69 17603864507445080397
21029758 11 17917714616894148728
21033648 29 18334852874289199585
21236236 1 18130231445552288929
21279426 13 18411144619218570782
21637258 2 14261348016301847836
22393880 68 18059277843251345383
231179 274 18333729092339004915
23402539 116 17632577162439767950
23402655 69 18202282494091075759
23536379 177 16949999218861933544
23559900 14 17988359394646816736
25 1 18410288104187414259
266924 87 18269559329851354745
2838139 119 18114451301904194405
2871803 45 18342743979416251204
293599 30 18334577957700824987
3009799 131 17917424324170127104
347723 3 18202563973441823235
34934 24 18412260670833845554
3759504 43 18041000682284079427
4072396 5 18340758278902604738
4340502 62 16950003616850474882
5283173 99 18187079507875008996
542803 24 16298387972039182252
59755656 215 18340491062916642926
7226269 152 18412822499542203608

>  <PUBCHEM_SHAPE_MULTIPOLES>  (1) 
428.84
12.96
2.01
1.27
2.24
0.59
0.21
-4.97
2.96
0.12
0.01
-0.49
0.06
0.45

>  <PUBCHEM_SHAPE_SELFOVERLAP>  (1) 
865.409

>  <PUBCHEM_SHAPE_VOLUME>  (1) 
251.2

>  <PUBCHEM_COORDINATE_TYPE>  (1) 
2
5
10

$$$$
