16116
     RDKit          3D

 17 18  0  0  1  0  0  0  0  0999 V2000
   -0.3355    1.0507   -1.3695 O   0  0  0  0  0  0  0  0  0  0  0  0
    1.1454   -0.1749   -0.0857 N   0  0  0  0  0  0  0  0  0  0  0  0
   -1.1013   -0.3831    0.3242 N   0  0  0  0  0  0  0  0  0  0  0  0
    3.4762   -0.7559   -0.7346 C   0  0  0  0  0  0  0  0  0  0  0  0
    2.3527    0.3026   -0.7229 C   0  0  0  0  0  0  0  0  0  0  0  0
    4.0614   -0.9872    0.6671 C   0  0  0  0  0  0  0  0  0  0  0  0
    2.8262    1.6010   -0.0591 C   0  0  0  0  0  0  0  0  0  0  0  0
    4.5230    0.3200    1.3073 C   0  0  0  0  0  0  0  0  0  0  0  0
    3.4130    1.3656    1.3325 C   0  0  0  0  0  0  0  0  0  0  0  0
    3.0252   -2.0782   -1.3583 C   0  0  0  0  0  0  0  0  0  0  0  0
   -0.1332    0.2439   -0.4652 C   0  0  0  0  0  0  0  0  0  0  0  0
   -2.5061   -0.2313    0.2589 C   0  0  0  0  0  0  0  0  0  0  0  0
   -3.3072   -0.9447    1.1355 C   0  0  0  0  0  0  0  0  0  0  0  0
   -3.0521    0.6268   -0.6815 C   0  0  0  0  0  0  0  0  0  0  0  0
   -4.6926   -0.7957    1.0699 C   0  0  0  0  0  0  0  0  0  0  0  0
   -4.4374    0.7758   -0.7471 C   0  0  0  0  0  0  0  0  0  0  0  0
   -5.2577    0.0646    0.1287 C   0  0  0  0  0  0  0  0  0  0  0  0
  1 11  2  0
  2  5  1  0
  2 11  1  0
  3 11  1  0
  3 12  1  0
  4  5  1  0
  4  6  1  0
  4 10  1  0
  5  7  1  0
  6  8  1  0
  7  9  1  0
  8  9  1  0
 12 13  2  0
 12 14  1  0
 13 15  1  0
 14 16  2  0
 15 17  2  0
 16 17  1  0
M  END
>  <PUBCHEM_COMPOUND_CID>  (1) 
16116

>  <PUBCHEM_CONFORMER_RMSD>  (1) 
0.6

>  <PUBCHEM_CONFORMER_DIVERSEORDER>  (1) 
1
33
44
18
23
39
29
28
12
17
32
38
8
30
41
15
4
37
45
34
26
27
2
11
42
3
20
35
25
5
16
14
10
31
13
21
6
40
36
7
22
9
24
19
43

>  <PUBCHEM_MMFF94_PARTIAL_CHARGES>  (1) 
18
1 -0.57
11 0.69
12 0.12
13 -0.15
14 -0.15
15 -0.15
16 -0.15
17 -0.15
2 -0.73
3 -0.55
31 0.37
32 0.37
33 0.15
34 0.15
35 0.15
36 0.15
37 0.15
5 0.3

>  <PUBCHEM_EFFECTIVE_ROTOR_COUNT>  (1) 
5.2

>  <PUBCHEM_PHARMACOPHORE_FEATURES>  (1) 
5
1 1 acceptor
1 2 donor
1 3 donor
6 12 13 14 15 16 17 rings
6 4 5 6 7 8 9 rings

>  <PUBCHEM_HEAVY_ATOM_COUNT>  (1) 
17

>  <PUBCHEM_ATOM_DEF_STEREO_COUNT>  (1) 
0

>  <PUBCHEM_ATOM_UDEF_STEREO_COUNT>  (1) 
2

>  <PUBCHEM_BOND_DEF_STEREO_COUNT>  (1) 
0

>  <PUBCHEM_BOND_UDEF_STEREO_COUNT>  (1) 
0

>  <PUBCHEM_ISOTOPIC_ATOM_COUNT>  (1) 
0

>  <PUBCHEM_COMPONENT_COUNT>  (1) 
1

>  <PUBCHEM_CACTVS_TAUTO_COUNT>  (1) 
3

>  <PUBCHEM_CONFORMER_ID>  (1) 
00003EF400000001

>  <PUBCHEM_MMFF94_ENERGY>  (1) 
33.1997

>  <PUBCHEM_FEATURE_SELFOVERLAP>  (1) 
25.425

>  <PUBCHEM_SHAPE_FINGERPRINT>  (1) 
10014705 185 14692578685146339443
10912923 1 16200431364677190855
114674 6 18268437845456443758
12236239 1 16056876931541436516
12596602 18 16702016500284140031
12670546 56 17346601833281620683
128620 24 12175621784834777817
13167823 11 15429755090166761169
13296908 3 18113903775098866975
13533116 47 17917436384559834255
13583140 156 17560229344893407823
13675066 3 18408886248020058861
13911852 28 17127627371430156118
14252887 29 18412829058226244022
14386348 63 18261395528966109110
15142526 21 16556472033328846418
15885798 251 17458341940011395005
1813 80 14851883634137842134
18186145 218 18336837419815313779
18915474 69 15140967278667884202
20279233 1 18410576188580625727
20281475 54 15068624928530177675
204376 136 17489869362369991319
20645477 70 18201440250856942830
21065201 7 17822011986740890379
22224240 67 18059562621353539602
22646028 1 15864067680596192993
22854114 59 18273495684441606089
23048698 100 17060621092222203974
23402539 116 18114454626904823775
23402655 69 9583523122368558632
23532345 1 17917989499190673848
23557571 272 18187082802283308221
23559900 14 18114189626721105556
268830 7 17060626581417125697
26918003 58 18410853265457935121
2838139 119 12605963004618024130
300161 21 15985100804053821449
3004659 81 15936128547610411450
42 15 17458058270221701073
474 4 17203033214475900320
5374978 207 18202566176412107416
573450 72 16805317795420006097
5924683 9 18267861869135855595
960060 61 14129062529658650662

>  <PUBCHEM_SHAPE_MULTIPOLES>  (1) 
334.02
11.77
1.47
1.34
7.06
0.32
0.1
0.2
2.82
-2.04
-0.18
0.02
-0.01
1.37

>  <PUBCHEM_SHAPE_SELFOVERLAP>  (1) 
687.72

>  <PUBCHEM_SHAPE_VOLUME>  (1) 
190.1

>  <PUBCHEM_COORDINATE_TYPE>  (1) 
2
5
10

$$$$
