1612
     RDKit          3D

 24 26  0  0  1  0  0  0  0  0999 V2000
    0.0803   -0.9903    0.0482 S   0  0  0  0  0  0  0  0  0  0  0  0
   -2.8733   -1.3427   -0.1172 S   0  0  0  0  0  0  0  0  0  0  0  0
   -5.6573   -0.4466   -0.0816 S   0  0  0  0  0  0  0  0  0  0  0  0
   -0.6022    2.7759   -0.8234 O   0  0  0  0  0  0  0  0  0  0  0  0
    0.2037   -1.6641    1.3253 O   0  0  0  0  0  0  0  0  0  0  0  0
    0.2185   -1.6897   -1.2125 O   0  0  0  0  0  0  0  0  0  0  0  0
   -5.7479   -1.8418    0.3336 O   0  0  0  0  0  0  0  0  0  0  0  0
   -6.3580    0.5945    0.6597 O   0  0  0  0  0  0  0  0  0  0  0  0
    6.5484   -0.4942    0.1591 O   0  0  0  0  0  0  0  0  0  0  0  0
    1.0411    0.4577    0.0392 N   0  0  0  0  0  0  0  0  0  0  0  0
   -6.1402   -0.3578   -1.7276 N   0  0  0  0  0  0  0  0  0  0  0  0
   -0.8371    2.0869    0.4065 C   0  0  0  0  0  0  0  0  0  0  0  0
    0.5230    1.5645    0.9256 C   0  0  0  0  0  0  0  0  0  0  0  0
   -1.8736    1.0097    0.2350 C   0  0  0  0  0  0  0  0  0  0  0  0
   -1.5434   -0.3154    0.0586 C   0  0  0  0  0  0  0  0  0  0  0  0
   -3.2919    1.1762    0.2146 C   0  0  0  0  0  0  0  0  0  0  0  0
    2.4659    0.2113    0.0699 C   0  0  0  0  0  0  0  0  0  0  0  0
   -3.9560   -0.0198    0.0293 C   0  0  0  0  0  0  0  0  0  0  0  0
    3.0786   -0.1485    1.2661 C   0  0  0  0  0  0  0  0  0  0  0  0
    3.2138    0.3358   -1.0969 C   0  0  0  0  0  0  0  0  0  0  0  0
    4.4527   -0.3862    1.2960 C   0  0  0  0  0  0  0  0  0  0  0  0
    4.5880    0.0981   -1.0672 C   0  0  0  0  0  0  0  0  0  0  0  0
    5.2075   -0.2630    0.1293 C   0  0  0  0  0  0  0  0  0  0  0  0
    7.2596   -0.3506   -1.0695 C   0  0  0  0  0  0  0  0  0  0  0  0
  1  5  2  0
  1  6  2  0
  1 10  1  0
  1 15  1  0
  2 15  1  0
  2 18  1  0
  3  7  2  0
  3  8  2  0
  3 11  1  0
  3 18  1  0
  4 12  1  0
  9 23  1  0
  9 24  1  0
 10 13  1  0
 10 17  1  0
 12 13  1  0
 12 14  1  0
 14 15  2  0
 14 16  1  0
 16 18  2  0
 17 19  2  0
 17 20  1  0
 19 21  1  0
 20 22  2  0
 21 23  2  0
 22 23  1  0
M  END
>  <PUBCHEM_COMPOUND_CID>  (1) 
1612

>  <PUBCHEM_CONFORMER_RMSD>  (1) 
0.6

>  <PUBCHEM_CONFORMER_DIVERSEORDER>  (1) 
5
9
6
11
16
14
12
10
13
1
15
2
8
4
7
17
3

>  <PUBCHEM_MMFF94_PARTIAL_CHARGES>  (1) 
32
1 1.5
10 -0.69
11 -0.98
12 0.46
13 0.36
14 -0.18
15 -0.02
16 -0.15
17 0.2
18 -0.02
19 -0.15
2 -0.08
20 -0.15
21 -0.15
22 -0.15
23 0.08
24 0.28
28 0.15
29 0.4
3 1.5
30 0.15
31 0.15
32 0.15
33 0.15
34 0.42
35 0.42
4 -0.68
5 -0.65
6 -0.65
7 -0.65
8 -0.65
9 -0.36

>  <PUBCHEM_EFFECTIVE_ROTOR_COUNT>  (1) 
3.6

>  <PUBCHEM_PHARMACOPHORE_FEATURES>  (1) 
11
1 11 donor
1 4 acceptor
1 4 donor
1 5 acceptor
1 6 acceptor
1 7 acceptor
1 8 acceptor
1 9 acceptor
5 2 14 15 16 18 rings
6 1 10 12 13 14 15 rings
6 17 19 20 21 22 23 rings

>  <PUBCHEM_HEAVY_ATOM_COUNT>  (1) 
24

>  <PUBCHEM_ATOM_DEF_STEREO_COUNT>  (1) 
0

>  <PUBCHEM_ATOM_UDEF_STEREO_COUNT>  (1) 
1

>  <PUBCHEM_BOND_DEF_STEREO_COUNT>  (1) 
0

>  <PUBCHEM_BOND_UDEF_STEREO_COUNT>  (1) 
0

>  <PUBCHEM_ISOTOPIC_ATOM_COUNT>  (1) 
0

>  <PUBCHEM_COMPONENT_COUNT>  (1) 
1

>  <PUBCHEM_CACTVS_TAUTO_COUNT>  (1) 
1

>  <PUBCHEM_CONFORMER_ID>  (1) 
0000064C00000005

>  <PUBCHEM_MMFF94_ENERGY>  (1) 
65.5597

>  <PUBCHEM_FEATURE_SELFOVERLAP>  (1) 
55.899

>  <PUBCHEM_SHAPE_FINGERPRINT>  (1) 
10 15 17917136279085359546
10076449 9 17632585955213716924
10906281 52 18337408071135531817
11524674 6 16272207491975045711
11578080 2 17243283934245125135
11646440 116 17988933292471537779
11963148 33 18411131463560579247
12011746 2 18411411817908203031
12166972 35 17748830738937682084
12236239 1 18040153990238436136
12403259 415 17845925261097113944
12516196 113 17489869349284668232
12788726 201 18187641358411397672
13288520 33 18342740715199064201
13533116 47 17968371261296683338
13782708 43 17346875645931622214
13862211 1 18342453764212943183
14251752 14 17822000996088437149
14294032 229 18118971286621666133
15048467 5 16443061699005216743
15183329 4 17458337529427881813
1601671 61 18342175557832737473
18222031 100 18412820309103750425
18681886 176 18335137626763546920
19141452 34 17275099574183363679
200 152 17313104138105854584
20028762 73 17631726188101871991
21150785 3 17968101932539908006
21267235 1 18411986888259385715
2297311 6 18272375252460920824
23035841 295 18411700976286117682
23402539 116 18410009940007775735
23536379 177 16298098774901093025
23557571 272 18202289069559567828
23559900 14 18337952423538248288
3004659 81 18187082879845757612
335352 9 18410008845756505453
34797466 226 18060427932963040996
4325135 7 18259985968577146495
465052 167 18409735092181602363
5104073 3 18270685406574186657
5486654 2 18260266347947125059
59755656 215 18272654524056501782

>  <PUBCHEM_SHAPE_MULTIPOLES>  (1) 
460.28
15.82
1.76
1.2
3.73
0.67
-0.09
-4.33
-2.9
-1.47
-0.03
0.59
-0.12
-0.15

>  <PUBCHEM_SHAPE_SELFOVERLAP>  (1) 
949.746

>  <PUBCHEM_SHAPE_VOLUME>  (1) 
264.9

>  <PUBCHEM_COORDINATE_TYPE>  (1) 
2
5
10

$$$$
