16133
     RDKit          3D

 10 10  0  0  0  0  0  0  0  0999 V2000
    3.9174    0.0022   -0.6434 Br  0  0  0  0  0  0  0  0  0  0  0  0
   -3.6906    0.0026   -1.2874 S   0  0  0  0  0  0  0  0  0  0  0  0
   -1.9654   -0.0012    0.8853 N   0  0  0  0  0  0  0  0  0  0  0  0
   -0.6119   -0.0014    0.5332 C   0  0  0  0  0  0  0  0  0  0  0  0
    0.0628    1.2070    0.3592 C   0  0  0  0  0  0  0  0  0  0  0  0
    0.0634   -1.2090    0.3561 C   0  0  0  0  0  0  0  0  0  0  0  0
    1.4127    1.2077    0.0079 C   0  0  0  0  0  0  0  0  0  0  0  0
    1.4134   -1.2082    0.0049 C   0  0  0  0  0  0  0  0  0  0  0  0
    2.0880    0.0002   -0.1691 C   0  0  0  0  0  0  0  0  0  0  0  0
   -2.6898    0.0000   -0.0466 C   0  0  0  0  0  0  0  0  0  0  0  0
  1  9  1  0
  2 10  2  0
  3  4  1  0
  3 10  2  0
  4  5  2  0
  4  6  1  0
  5  7  1  0
  6  8  2  0
  7  9  2  0
  8  9  1  0
M  END
>  <PUBCHEM_COMPOUND_CID>  (1) 
16133

>  <PUBCHEM_CONFORMER_RMSD>  (1) 
0.4

>  <PUBCHEM_CONFORMER_DIVERSEORDER>  (1) 
1
2
3

>  <PUBCHEM_MMFF94_PARTIAL_CHARGES>  (1) 
14
1 -0.11
10 0.57
11 0.15
12 0.15
13 0.15
14 0.15
2 -0.27
3 -0.48
4 0.18
5 -0.15
6 -0.15
7 -0.15
8 -0.15
9 0.11

>  <PUBCHEM_EFFECTIVE_ROTOR_COUNT>  (1) 
1

>  <PUBCHEM_PHARMACOPHORE_FEATURES>  (1) 
4
1 1 hydrophobe
1 2 acceptor
1 3 acceptor
6 4 5 6 7 8 9 rings

>  <PUBCHEM_HEAVY_ATOM_COUNT>  (1) 
10

>  <PUBCHEM_ATOM_DEF_STEREO_COUNT>  (1) 
0

>  <PUBCHEM_ATOM_UDEF_STEREO_COUNT>  (1) 
0

>  <PUBCHEM_BOND_DEF_STEREO_COUNT>  (1) 
0

>  <PUBCHEM_BOND_UDEF_STEREO_COUNT>  (1) 
0

>  <PUBCHEM_ISOTOPIC_ATOM_COUNT>  (1) 
0

>  <PUBCHEM_COMPONENT_COUNT>  (1) 
1

>  <PUBCHEM_CACTVS_TAUTO_COUNT>  (1) 
1

>  <PUBCHEM_CONFORMER_ID>  (1) 
00003F0500000001

>  <PUBCHEM_MMFF94_ENERGY>  (1) 
22.2213

>  <PUBCHEM_FEATURE_SELFOVERLAP>  (1) 
20.302

>  <PUBCHEM_SHAPE_FINGERPRINT>  (1) 
11062470 55 16950567683611261556
11206711 2 18337399235950434844
11401426 45 18412257337849241076
11769659 78 16271933662187600070
12138202 97 17603871134495280707
12897270 3 18409725171176205869
14128692 85 17632572777531340243
14911166 2 18410296921454313334
14993402 34 18130786763242758462
16945 1 18410862057377270306
19026448 4 16153719725562161570
19026448 5 16200163083839792672
20201158 50 18334576823781992555
21040471 1 18193564582321646752
21119208 17 18060133241569698109
21293036 1 18410294722225361878
23402539 116 18059576850131629372
23402655 69 18337099056971392485
2748010 2 18050859006907460608

>  <PUBCHEM_SHAPE_MULTIPOLES>  (1) 
210.61
5.98
1.2
0.99
0.74
0
-0.2
-0.01
-2.81
-0.41
0.11
0.55
0
0

>  <PUBCHEM_SHAPE_SELFOVERLAP>  (1) 
415.167

>  <PUBCHEM_SHAPE_VOLUME>  (1) 
130

>  <PUBCHEM_COORDINATE_TYPE>  (1) 
2
5
10

$$$$
