16139
     RDKit          3D

 15 17  0  0  0  0  0  0  0  0999 V2000
   -1.4585    2.6705    0.0005 O   0  0  0  0  0  0  0  0  0  0  0  0
    0.3921   -2.9336    0.0007 O   0  0  0  0  0  0  0  0  0  0  0  0
   -0.6849    0.3956   -0.0005 C   0  0  0  0  0  0  0  0  0  0  0  0
    0.7542    0.5468   -0.0004 C   0  0  0  0  0  0  0  0  0  0  0  0
   -1.0046   -0.9733   -0.0003 C   0  0  0  0  0  0  0  0  0  0  0  0
    1.3514   -0.7256   -0.0005 C   0  0  0  0  0  0  0  0  0  0  0  0
    0.2658   -1.7289   -0.0004 C   0  0  0  0  0  0  0  0  0  0  0  0
   -1.7010    1.3348   -0.0005 C   0  0  0  0  0  0  0  0  0  0  0  0
    1.5528    1.6767    0.0001 C   0  0  0  0  0  0  0  0  0  0  0  0
   -2.3002   -1.4488    0.0003 C   0  0  0  0  0  0  0  0  0  0  0  0
    2.7177   -0.9213   -0.0001 C   0  0  0  0  0  0  0  0  0  0  0  0
   -3.0252    0.8787    0.0000 C   0  0  0  0  0  0  0  0  0  0  0  0
   -3.3209   -0.4981    0.0005 C   0  0  0  0  0  0  0  0  0  0  0  0
    2.9429    1.5059    0.0004 C   0  0  0  0  0  0  0  0  0  0  0  0
    3.5185    0.2207    0.0003 C   0  0  0  0  0  0  0  0  0  0  0  0
  1  8  1  0
  2  7  2  0
  3  4  1  0
  3  5  2  0
  3  8  1  0
  4  6  2  0
  4  9  1  0
  5  7  1  0
  5 10  1  0
  6  7  1  0
  6 11  1  0
  8 12  2  0
  9 14  2  0
 10 13  2  0
 11 15  2  0
 12 13  1  0
 14 15  1  0
M  END
>  <PUBCHEM_COMPOUND_CID>  (1) 
16139

>  <PUBCHEM_CONFORMER_RMSD>  (1) 
0.4

>  <PUBCHEM_CONFORMER_DIVERSEORDER>  (1) 
1

>  <PUBCHEM_MMFF94_PARTIAL_CHARGES>  (1) 
21
1 -0.53
10 -0.15
11 -0.15
12 -0.15
13 -0.15
14 -0.15
15 -0.15
16 0.15
17 0.15
18 0.15
19 0.15
2 -0.57
20 0.15
21 0.15
22 0.15
23 0.45
5 0.09
6 0.09
7 0.4
8 0.08
9 -0.15

>  <PUBCHEM_EFFECTIVE_ROTOR_COUNT>  (1) 
0

>  <PUBCHEM_PHARMACOPHORE_FEATURES>  (1) 
5
1 1 donor
1 2 acceptor
5 3 4 5 6 7 rings
6 3 5 8 10 12 13 rings
6 4 6 9 11 14 15 rings

>  <PUBCHEM_HEAVY_ATOM_COUNT>  (1) 
15

>  <PUBCHEM_ATOM_DEF_STEREO_COUNT>  (1) 
0

>  <PUBCHEM_ATOM_UDEF_STEREO_COUNT>  (1) 
0

>  <PUBCHEM_BOND_DEF_STEREO_COUNT>  (1) 
0

>  <PUBCHEM_BOND_UDEF_STEREO_COUNT>  (1) 
0

>  <PUBCHEM_ISOTOPIC_ATOM_COUNT>  (1) 
0

>  <PUBCHEM_COMPONENT_COUNT>  (1) 
1

>  <PUBCHEM_CACTVS_TAUTO_COUNT>  (1) 
6

>  <PUBCHEM_CONFORMER_ID>  (1) 
00003F0B00000001

>  <PUBCHEM_MMFF94_ENERGY>  (1) 
52.9361

>  <PUBCHEM_FEATURE_SELFOVERLAP>  (1) 
25.54

>  <PUBCHEM_SHAPE_FINGERPRINT>  (1) 
10608611 8 18411415120232041152
10967382 1 18410575127623333863
11132069 177 18341889722862945200
11471102 20 18410569561773005813
13140716 1 18410576214450468307
13380535 76 18409164385707232987
13897977 150 18410571777839025853
14144814 61 18410011044020177096
14325111 11 18410574011011114080
14614273 12 18260822662196971717
15196674 1 18410856585420194821
15309172 13 18411146856537426739
15442244 35 18265893554021237602
15536298 74 18343302570120265910
15775835 57 18341337755146265329
16945 1 18338798892798511623
18186145 218 18271814514151756900
193761 8 18050568443516252839
20510252 161 18271810158944415736
21267235 1 18410302435865591847
21501502 16 18265893558131497563
2334 1 18266741470548661061
23402539 116 18270952574165598670
23463225 33 18335135346009260154
23559900 14 18199474256460170238
238 59 15804363885765866525
2748010 2 18338236093153069519
335352 9 18122624959432954908
43471831 8 18335416850771582938
5104073 3 18410856572530006193
528886 8 18411132562844041523
53812653 166 18341890788294390032
54173680 148 18048599514713006786
7364860 26 18197498419982707766
81228 2 17764014066625036146
8809292 202 18261117386831402763

>  <PUBCHEM_SHAPE_MULTIPOLES>  (1) 
296.95
5.1
2.47
0.6
0.59
0.24
0
-0.88
0
-0.24
0
0.01
0
0

>  <PUBCHEM_SHAPE_SELFOVERLAP>  (1) 
678.785

>  <PUBCHEM_SHAPE_VOLUME>  (1) 
155.5

>  <PUBCHEM_COORDINATE_TYPE>  (1) 
2
5
10

$$$$
