16146
     RDKit          3D

 12 13  0  0  0  0  0  0  0  0999 V2000
    4.7417    0.0696   -0.1056 Cl  0  0  0  0  0  0  0  0  0  0  0  0
    0.7157   -0.3299    0.1089 N   0  0  0  0  0  0  0  0  0  0  0  0
   -1.1289    1.4120   -0.1135 C   0  0  0  0  0  0  0  0  0  0  0  0
   -1.6520   -1.2690    0.1274 C   0  0  0  0  0  0  0  0  0  0  0  0
   -1.5599    1.0067    1.3046 C   0  0  0  0  0  0  0  0  0  0  0  0
   -2.1378    0.8933   -1.1421 C   0  0  0  0  0  0  0  0  0  0  0  0
   -1.8550   -0.4945    1.4388 C   0  0  0  0  0  0  0  0  0  0  0  0
   -2.4259   -0.5968   -1.0103 C   0  0  0  0  0  0  0  0  0  0  0  0
    0.3110    0.9621   -0.4461 C   0  0  0  0  0  0  0  0  0  0  0  0
   -0.1596   -1.4538   -0.2259 C   0  0  0  0  0  0  0  0  0  0  0  0
    2.1046   -0.6321   -0.2385 C   0  0  0  0  0  0  0  0  0  0  0  0
    3.0461    0.4325    0.3024 C   0  0  0  0  0  0  0  0  0  0  0  0
  1 12  1  0
  2  9  1  0
  2 10  1  0
  2 11  1  0
  3  5  1  0
  3  6  1  0
  3  9  1  0
  4  7  1  0
  4  8  1  0
  4 10  1  0
  5  7  1  0
  6  8  1  0
 11 12  1  0
M  END
>  <PUBCHEM_COMPOUND_CID>  (1) 
16146

>  <PUBCHEM_CONFORMER_RMSD>  (1) 
0.6

>  <PUBCHEM_CONFORMER_DIVERSEORDER>  (1) 
1
2
4
3

>  <PUBCHEM_MMFF94_PARTIAL_CHARGES>  (1) 
6
1 -0.29
10 0.27
11 0.27
12 0.29
2 -0.81
9 0.27

>  <PUBCHEM_EFFECTIVE_ROTOR_COUNT>  (1) 
3.4

>  <PUBCHEM_PHARMACOPHORE_FEATURES>  (1) 
2
1 2 cation
9 2 3 4 5 6 7 8 9 10 rings

>  <PUBCHEM_HEAVY_ATOM_COUNT>  (1) 
12

>  <PUBCHEM_ATOM_DEF_STEREO_COUNT>  (1) 
0

>  <PUBCHEM_ATOM_UDEF_STEREO_COUNT>  (1) 
0

>  <PUBCHEM_BOND_DEF_STEREO_COUNT>  (1) 
0

>  <PUBCHEM_BOND_UDEF_STEREO_COUNT>  (1) 
0

>  <PUBCHEM_ISOTOPIC_ATOM_COUNT>  (1) 
0

>  <PUBCHEM_COMPONENT_COUNT>  (1) 
1

>  <PUBCHEM_CACTVS_TAUTO_COUNT>  (1) 
1

>  <PUBCHEM_CONFORMER_ID>  (1) 
00003F1200000001

>  <PUBCHEM_MMFF94_ENERGY>  (1) 
27.9796

>  <PUBCHEM_FEATURE_SELFOVERLAP>  (1) 
10.148

>  <PUBCHEM_SHAPE_FINGERPRINT>  (1) 
12423570 1 12554286726562991605
12932764 1 18408888430164171090
13024252 1 15574714703236039251
14817 1 16446481086126699729
15775835 57 18336826394744963096
16945 1 18189593052059653591
200 152 17632284700978892902
20645464 45 18130517357308739646
20653085 51 18122058698349904933
2306618 200 18411979139774588320
23236772 104 17989205915240939603
23402539 116 17917985105244107415
2748010 2 18192161403394580695
3248919 1 17917710180530171246
369184 2 16877943827920597745
5084963 1 18343016726613299466
6333449 129 18413387635744553126

>  <PUBCHEM_SHAPE_MULTIPOLES>  (1) 
243.84
5.6
1.43
1.17
9.33
0.03
-0.22
-0.16
0.28
-0.69
0.04
-0.95
-0.12
0.08

>  <PUBCHEM_SHAPE_SELFOVERLAP>  (1) 
479.886

>  <PUBCHEM_SHAPE_VOLUME>  (1) 
140.9

>  <PUBCHEM_COORDINATE_TYPE>  (1) 
2
5
10

$$$$
