16159
     RDKit          3D

 28 31  0  0  0  0  0  0  0  0999 V2000
    0.0683   -0.3387    0.6268 O   0  0  0  0  0  0  0  0  0  0  0  0
   -2.2025   -0.3565    2.0322 O   0  0  0  0  0  0  0  0  0  0  0  0
   -1.0552   -2.0193   -0.4693 O   0  0  0  0  0  0  0  0  0  0  0  0
    3.7333   -0.6794    0.5089 N   0  0  0  0  0  0  0  0  0  0  0  0
    3.9876   -0.7607   -0.9371 C   0  0  0  0  0  0  0  0  0  0  0  0
    4.8593   -0.0178    1.1845 C   0  0  0  0  0  0  0  0  0  0  0  0
    4.2011    0.6211   -1.5839 C   0  0  0  0  0  0  0  0  0  0  0  0
    5.1680   -1.7273   -1.1573 C   0  0  0  0  0  0  0  0  0  0  0  0
    5.1206    1.4047    0.6541 C   0  0  0  0  0  0  0  0  0  0  0  0
    6.0863   -0.9448    1.0783 C   0  0  0  0  0  0  0  0  0  0  0  0
    5.2181    1.5048   -0.8661 C   0  0  0  0  0  0  0  0  0  0  0  0
    6.4179   -1.3941   -0.3440 C   0  0  0  0  0  0  0  0  0  0  0  0
    2.4383   -0.0916    0.8352 C   0  0  0  0  0  0  0  0  0  0  0  0
    1.3077   -0.9374    0.2714 C   0  0  0  0  0  0  0  0  0  0  0  0
   -1.0622   -0.9862    0.1895 C   0  0  0  0  0  0  0  0  0  0  0  0
   -2.3213   -0.2191    0.6015 C   0  0  0  0  0  0  0  0  0  0  0  0
   -3.6252   -0.8561    0.1149 C   0  0  0  0  0  0  0  0  0  0  0  0
   -2.2618    1.2617    0.2202 C   0  0  0  0  0  0  0  0  0  0  0  0
   -3.8967   -0.8518   -1.2339 C   0  0  0  0  0  0  0  0  0  0  0  0
   -2.7681    2.1894    1.1012 C   0  0  0  0  0  0  0  0  0  0  0  0
   -4.4753   -1.4087    1.0448 C   0  0  0  0  0  0  0  0  0  0  0  0
   -1.7040    1.6088   -0.9887 C   0  0  0  0  0  0  0  0  0  0  0  0
   -5.0849   -1.4324   -1.6775 C   0  0  0  0  0  0  0  0  0  0  0  0
   -2.7137    3.5393    0.7539 C   0  0  0  0  0  0  0  0  0  0  0  0
   -5.6635   -1.9894    0.6010 C   0  0  0  0  0  0  0  0  0  0  0  0
   -1.6496    2.9587   -1.3359 C   0  0  0  0  0  0  0  0  0  0  0  0
   -5.9682   -2.0012   -0.7602 C   0  0  0  0  0  0  0  0  0  0  0  0
   -2.1544    3.9239   -0.4644 C   0  0  0  0  0  0  0  0  0  0  0  0
  1 14  1  0
  1 15  1  0
  2 16  1  0
  3 15  2  0
  4  5  1  0
  4  6  1  0
  4 13  1  0
  5  7  1  0
  5  8  1  0
  6  9  1  0
  6 10  1  0
  7 11  1  0
  8 12  1  0
  9 11  1  0
 10 12  1  0
 13 14  1  0
 15 16  1  0
 16 17  1  0
 16 18  1  0
 17 19  2  0
 17 21  1  0
 18 20  2  0
 18 22  1  0
 19 23  1  0
 20 24  1  0
 21 25  2  0
 22 26  2  0
 23 27  2  0
 24 28  2  0
 25 27  1  0
 26 28  1  0
M  END
>  <PUBCHEM_COMPOUND_CID>  (1) 
16159

>  <PUBCHEM_CONFORMER_RMSD>  (1) 
1

>  <PUBCHEM_CONFORMER_DIVERSEORDER>  (1) 
1
9
58
69
68
22
66
41
28
59
13
37
18
61
44
23
16
56
8
75
57
67
64
47
77
72
19
65
46
45
51
21
24
11
5
34
42
74
30
35
43
6
7
2
17
50
15
26
10
25
3
70
39
63
20
55
33
54
49
40
38
12
60
27
53
32
36
14
31
52
4
73
76
71
62
29
48

>  <PUBCHEM_MMFF94_PARTIAL_CHARGES>  (1) 
33
1 -0.43
13 0.27
14 0.28
15 0.66
16 0.63
17 -0.14
18 -0.14
19 -0.15
2 -0.68
20 -0.15
21 -0.15
22 -0.15
23 -0.15
24 -0.15
25 -0.15
26 -0.15
27 -0.15
28 -0.15
3 -0.57
4 -0.81
47 0.4
48 0.15
49 0.15
5 0.27
50 0.15
51 0.15
52 0.15
53 0.15
54 0.15
55 0.15
56 0.15
57 0.15
6 0.27

>  <PUBCHEM_EFFECTIVE_ROTOR_COUNT>  (1) 
8.4

>  <PUBCHEM_PHARMACOPHORE_FEATURES>  (1) 
8
1 2 acceptor
1 2 donor
1 3 acceptor
1 4 cation
6 17 19 21 23 25 27 rings
6 18 20 22 24 26 28 rings
6 4 5 6 7 9 11 rings
6 4 5 6 8 10 12 rings

>  <PUBCHEM_HEAVY_ATOM_COUNT>  (1) 
28

>  <PUBCHEM_ATOM_DEF_STEREO_COUNT>  (1) 
0

>  <PUBCHEM_ATOM_UDEF_STEREO_COUNT>  (1) 
0

>  <PUBCHEM_BOND_DEF_STEREO_COUNT>  (1) 
0

>  <PUBCHEM_BOND_UDEF_STEREO_COUNT>  (1) 
0

>  <PUBCHEM_ISOTOPIC_ATOM_COUNT>  (1) 
0

>  <PUBCHEM_COMPONENT_COUNT>  (1) 
1

>  <PUBCHEM_CACTVS_TAUTO_COUNT>  (1) 
1

>  <PUBCHEM_CONFORMER_ID>  (1) 
00003F1F00000001

>  <PUBCHEM_MMFF94_ENERGY>  (1) 
69.068

>  <PUBCHEM_FEATURE_SELFOVERLAP>  (1) 
42.073

>  <PUBCHEM_SHAPE_FINGERPRINT>  (1) 
10670039 82 18334868203749886332
11101153 10 18336270136520004804
11578080 2 17201385991660331701
12107183 9 17612019383694013434
12166972 35 17240485844170798054
12788726 201 18261379032476864635
13617811 41 18410847798265591791
13782708 43 18130793339207505902
13911987 19 18115031925901518943
14118638 360 18408041815159407648
14294032 229 18192715536434900933
14347332 77 18413386518852764966
14556957 393 18260271854274514853
14840074 17 18130792312641412991
14910302 57 18060697299519504886
14955137 171 18196377138051912251
15131766 46 15480391014972178449
15537594 2 12535630483708769148
15849732 13 18060421353051901551
16992727 255 17896022262660853469
16994733 274 15069165803021637445
17349148 13 17603875498055257990
17844677 252 18409735045638309432
1813 80 18201448029675374343
19958102 18 17917989473294965278
21236236 1 18411981330381891505
21315764 268 18343576365869758864
21424621 283 11242514598125727359
221357 26 18413107281997088264
23522609 53 17415871177332185497
23559900 14 17531526619619982713
24771750 20 17250626837783569325
283562 15 18408879608349038963
376196 1 16453192320615223445
3918712 181 17756431818279136404
4015057 19 12973894748851326999
469060 322 18336838528222968097
497634 4 17632303375623361561
508706 21 18336840684259893430
5281201 14 18271530815004277820
5969126 39 18342166774761838845
6677587 24 14860555285542534469

>  <PUBCHEM_SHAPE_MULTIPOLES>  (1) 
553.64
16.1
3.41
1.51
14.72
3.96
-0.11
-8.74
-1.31
-4.36
-0.48
-0.14
0.01
-0.35

>  <PUBCHEM_SHAPE_SELFOVERLAP>  (1) 
1190.198

>  <PUBCHEM_SHAPE_VOLUME>  (1) 
302.4

>  <PUBCHEM_COORDINATE_TYPE>  (1) 
2
5
10

$$$$
