16154
     RDKit          3D

 24 26  0  0  1  0  0  0  0  0999 V2000
    0.5401   -0.0945   -0.4268 O   0  0  0  0  0  0  0  0  0  0  0  0
   -2.7937   -0.2527   -1.7766 O   0  0  0  0  0  0  0  0  0  0  0  0
   -0.2565   -0.4559   -2.5590 O   0  0  0  0  0  0  0  0  0  0  0  0
    4.2367   -0.1397   -0.0893 N   0  0  0  0  0  0  0  0  0  0  0  0
   -2.0374   -1.3705    0.1695 C   0  0  0  0  0  0  0  0  0  0  0  0
   -3.4571   -1.4804    0.7168 C   0  0  0  0  0  0  0  0  0  0  0  0
   -1.8700   -2.6949   -0.5685 C   0  0  0  0  0  0  0  0  0  0  0  0
   -1.8313   -0.1582   -0.7216 C   0  0  0  0  0  0  0  0  0  0  0  0
   -3.5701   -2.9338    1.1666 C   0  0  0  0  0  0  0  0  0  0  0  0
   -2.5401   -3.7136    0.3476 C   0  0  0  0  0  0  0  0  0  0  0  0
    2.8220    0.0327    0.2690 C   0  0  0  0  0  0  0  0  0  0  0  0
    2.6184   -1.0281    1.3527 C   0  0  0  0  0  0  0  0  0  0  0  0
    4.0005   -1.2601    1.9535 C   0  0  0  0  0  0  0  0  0  0  0  0
    4.9287   -0.3319    1.1876 C   0  0  0  0  0  0  0  0  0  0  0  0
    1.8716   -0.1686   -0.9046 C   0  0  0  0  0  0  0  0  0  0  0  0
   -0.4486   -0.2566   -1.3656 C   0  0  0  0  0  0  0  0  0  0  0  0
   -2.0313    1.1998   -0.0620 C   0  0  0  0  0  0  0  0  0  0  0  0
    4.7865    0.9889   -0.8304 C   0  0  0  0  0  0  0  0  0  0  0  0
   -2.5688    2.2293   -0.8066 C   0  0  0  0  0  0  0  0  0  0  0  0
   -1.6691    1.3583    1.2596 C   0  0  0  0  0  0  0  0  0  0  0  0
    6.2682    0.7959   -1.1052 C   0  0  0  0  0  0  0  0  0  0  0  0
   -2.7521    3.4730   -0.2026 C   0  0  0  0  0  0  0  0  0  0  0  0
   -1.8526    2.6021    1.8636 C   0  0  0  0  0  0  0  0  0  0  0  0
   -2.3941    3.6595    1.1325 C   0  0  0  0  0  0  0  0  0  0  0  0
  1 15  1  0
  1 16  1  0
  2  8  1  0
  3 16  2  0
  4 11  1  0
  4 14  1  0
  4 18  1  0
  5  6  1  0
  5  7  1  0
  5  8  1  0
  6  9  1  0
  7 10  1  0
  8 16  1  0
  8 17  1  0
  9 10  1  0
 11 12  1  0
 11 15  1  0
 12 13  1  0
 13 14  1  0
 17 19  2  0
 17 20  1  0
 18 21  1  0
 19 22  1  0
 20 23  2  0
 22 24  2  0
 23 24  1  0
M  END
>  <PUBCHEM_COMPOUND_CID>  (1) 
16154

>  <PUBCHEM_CONFORMER_RMSD>  (1) 
1

>  <PUBCHEM_CONFORMER_DIVERSEORDER>  (1) 
3
146
114
120
105
224
154
212
82
234
127
106
143
31
42
182
209
59
165
184
38
49
168
96
242
115
48
190
206
133
204
50
53
30
101
191
187
132
236
218
223
27
80
39
196
117
65
145
155
64
208
61
35
123
52
99
131
71
21
171
141
62
103
11
134
20
228
172
163
69
194
28
2
70
167
149
142
185
180
220
148
119
86
231
135
213
68
247
9
174
29
81
23
93
89
95
200
250
47
13
248
6
43
57
22
158
107
189
109
108
4
160
124
104
186
170
178
202
153
37
5
116
150
46
90
7
232
24
91
238
138
205
10
210
221
249
211
229
198
87
240
166
58
45
162
183
215
137
140
33
122
15
77
237
197
144
41
201
67
176
177
246
8
128
169
54
152
40
1
113
19
97
227
79
244
245
18
181
207
60
130
73
98
151
193
12
72
92
217
164
17
175
34
66
225
216
226
88
195
102
51
112
203
173
118
159
188
110
111
233
125
100
25
94
192
222
129
56
16
214
78
241
157
32
156
161
243
235
199
75
26
63
139
230
239
121
76
83
44
85
136
219
14
147
36
126
74
179
55
84

>  <PUBCHEM_MMFF94_PARTIAL_CHARGES>  (1) 
22
1 -0.43
11 0.27
14 0.27
15 0.28
16 0.66
17 -0.14
18 0.27
19 -0.15
2 -0.68
20 -0.15
22 -0.15
23 -0.15
24 -0.15
3 -0.57
4 -0.81
45 0.4
46 0.15
47 0.15
51 0.15
52 0.15
53 0.15
8 0.48

>  <PUBCHEM_EFFECTIVE_ROTOR_COUNT>  (1) 
9

>  <PUBCHEM_PHARMACOPHORE_FEATURES>  (1) 
7
1 2 acceptor
1 2 donor
1 3 acceptor
1 4 cation
5 4 11 12 13 14 rings
5 5 6 7 9 10 rings
6 17 19 20 22 23 24 rings

>  <PUBCHEM_HEAVY_ATOM_COUNT>  (1) 
24

>  <PUBCHEM_ATOM_DEF_STEREO_COUNT>  (1) 
0

>  <PUBCHEM_ATOM_UDEF_STEREO_COUNT>  (1) 
2

>  <PUBCHEM_BOND_DEF_STEREO_COUNT>  (1) 
0

>  <PUBCHEM_BOND_UDEF_STEREO_COUNT>  (1) 
0

>  <PUBCHEM_ISOTOPIC_ATOM_COUNT>  (1) 
0

>  <PUBCHEM_COMPONENT_COUNT>  (1) 
1

>  <PUBCHEM_CACTVS_TAUTO_COUNT>  (1) 
1

>  <PUBCHEM_CONFORMER_ID>  (1) 
00003F1A00000003

>  <PUBCHEM_MMFF94_ENERGY>  (1) 
50.803

>  <PUBCHEM_FEATURE_SELFOVERLAP>  (1) 
35.53

>  <PUBCHEM_SHAPE_FINGERPRINT>  (1) 
10366900 7 18201991157716810454
11036077 51 18266451006221555779
11056379 131 18410865381893324214
11552529 35 18335413604045319290
12107183 9 17901095323042319714
12549972 3 17773329928337218062
12596599 1 18114461172066230554
12714826 92 18060420239663289914
12788726 201 18409727387279532755
13004483 165 18263078967563277611
13032168 30 17822854307079330826
13583140 156 18059840763103364930
13631057 29 18115869779520982330
14178342 30 18335702698293987030
14468879 13 17631724955081662749
14565420 104 17623304775469018033
14787075 74 17614284789684393476
15475509 35 16886974362514400723
15806764 133 17418095442822743976
17780758 139 18264184977661332202
17844677 252 18340778117577980604
18186145 218 15913324698299629230
20600515 1 17984731023565677287
20681651 13 17822559556484879674
21033648 29 16988556880114349064
21120745 212 18264786521663379949
21524375 3 17626658306964939045
22956985 138 17112688748728770378
23503958 25 17917708020235650128
23598288 3 18413384337114893382
238078 22 18190745430049960186
4058900 60 17694801622249346009
474 4 17766274272011388481
497634 4 18113900476938679942
7226269 152 18410291407301802703
7288768 16 17557445201111135537
81228 2 18054542208126578031
90316 7 18269844262630075811
9981440 41 17630307663124215919

>  <PUBCHEM_SHAPE_MULTIPOLES>  (1) 
471.32
9.9
4.05
1.85
19.27
0.72
-0.1
-0.08
0.72
-7.33
1.45
0.4
0.11
-1.14

>  <PUBCHEM_SHAPE_SELFOVERLAP>  (1) 
990.33

>  <PUBCHEM_SHAPE_VOLUME>  (1) 
267.3

>  <PUBCHEM_COORDINATE_TYPE>  (1) 
2
5
10

$$$$
