16160
     RDKit          3D

 29 32  0  0  0  0  0  0  0  0999 V2000
   -0.1853   -1.1664    1.2100 O   0  0  0  0  0  0  0  0  0  0  0  0
   -2.6099   -0.4804    2.0965 O   0  0  0  0  0  0  0  0  0  0  0  0
   -1.4903   -2.3634   -0.2571 O   0  0  0  0  0  0  0  0  0  0  0  0
    3.0137   -0.3789    0.1295 N   0  0  0  0  0  0  0  0  0  0  0  0
    4.0960   -1.3424   -0.1205 C   0  0  0  0  0  0  0  0  0  0  0  0
    3.3828    0.9443   -0.3952 C   0  0  0  0  0  0  0  0  0  0  0  0
    5.4315   -0.9185    0.5197 C   0  0  0  0  0  0  0  0  0  0  0  0
    4.1911   -1.5636   -1.6431 C   0  0  0  0  0  0  0  0  0  0  0  0
    4.6792    1.4936    0.2300 C   0  0  0  0  0  0  0  0  0  0  0  0
    3.4399    0.8458   -1.9324 C   0  0  0  0  0  0  0  0  0  0  0  0
    5.8522    0.5167    0.2137 C   0  0  0  0  0  0  0  0  0  0  0  0
    4.3270   -0.2803   -2.4611 C   0  0  0  0  0  0  0  0  0  0  0  0
    2.5792   -0.3471    1.5220 C   0  0  0  0  0  0  0  0  0  0  0  0
    2.0315   -1.7089    1.9369 C   0  0  0  0  0  0  0  0  0  0  0  0
    0.8531   -2.1257    1.0672 C   0  0  0  0  0  0  0  0  0  0  0  0
   -1.3281   -1.4006    0.4832 C   0  0  0  0  0  0  0  0  0  0  0  0
   -2.3462   -0.2768    0.6933 C   0  0  0  0  0  0  0  0  0  0  0  0
   -3.6338   -0.4437   -0.1172 C   0  0  0  0  0  0  0  0  0  0  0  0
   -1.7433    1.1136    0.4797 C   0  0  0  0  0  0  0  0  0  0  0  0
   -3.5711   -0.3183   -1.4858 C   0  0  0  0  0  0  0  0  0  0  0  0
   -2.1257    2.1334    1.3206 C   0  0  0  0  0  0  0  0  0  0  0  0
   -4.8041   -0.7132    0.5541 C   0  0  0  0  0  0  0  0  0  0  0  0
   -0.8419    1.2904   -0.5445 C   0  0  0  0  0  0  0  0  0  0  0  0
   -4.7445   -0.4707   -2.2246 C   0  0  0  0  0  0  0  0  0  0  0  0
   -1.5762    3.4006    1.1261 C   0  0  0  0  0  0  0  0  0  0  0  0
   -5.9774   -0.8657   -0.1848 C   0  0  0  0  0  0  0  0  0  0  0  0
   -0.2923    2.5578   -0.7388 C   0  0  0  0  0  0  0  0  0  0  0  0
   -5.9475   -0.7444   -1.5740 C   0  0  0  0  0  0  0  0  0  0  0  0
   -0.6595    3.6128    0.0966 C   0  0  0  0  0  0  0  0  0  0  0  0
  1 15  1  0
  1 16  1  0
  2 17  1  0
  3 16  2  0
  4  5  1  0
  4  6  1  0
  4 13  1  0
  5  7  1  0
  5  8  1  0
  6  9  1  0
  6 10  1  0
  7 11  1  0
  8 12  1  0
  9 11  1  0
 10 12  1  0
 13 14  1  0
 14 15  1  0
 16 17  1  0
 17 18  1  0
 17 19  1  0
 18 20  2  0
 18 22  1  0
 19 21  2  0
 19 23  1  0
 20 24  1  0
 21 25  1  0
 22 26  2  0
 23 27  2  0
 24 28  2  0
 25 29  2  0
 26 28  1  0
 27 29  1  0
M  END
>  <PUBCHEM_COMPOUND_CID>  (1) 
16160

>  <PUBCHEM_CONFORMER_RMSD>  (1) 
1

>  <PUBCHEM_CONFORMER_DIVERSEORDER>  (1) 
2
4
62
59
46
52
99
75
90
5
56
80
57
82
97
83
102
50
7
16
76
95
11
30
24
13
38
43
1
63
81
87
94
48
25
40
20
54
96
61
71
34
92
18
26
93
74
58
12
51
89
84
69
45
8
85
100
101
19
23
79
49
28
98
86
35
65
37
55
36
39
32
66
78
17
91
68
53
41
72
21
60
14
9
47
3
103
6
64
70
88
42
77
44
31
15
73
67
29
33
27
22
10

>  <PUBCHEM_MMFF94_PARTIAL_CHARGES>  (1) 
33
1 -0.43
13 0.27
15 0.28
16 0.66
17 0.63
18 -0.14
19 -0.14
2 -0.68
20 -0.15
21 -0.15
22 -0.15
23 -0.15
24 -0.15
25 -0.15
26 -0.15
27 -0.15
28 -0.15
29 -0.15
3 -0.57
4 -0.81
5 0.27
50 0.4
51 0.15
52 0.15
53 0.15
54 0.15
55 0.15
56 0.15
57 0.15
58 0.15
59 0.15
6 0.27
60 0.15

>  <PUBCHEM_EFFECTIVE_ROTOR_COUNT>  (1) 
9.4

>  <PUBCHEM_PHARMACOPHORE_FEATURES>  (1) 
8
1 2 acceptor
1 2 donor
1 3 acceptor
1 4 cation
6 18 20 22 24 26 28 rings
6 19 21 23 25 27 29 rings
6 4 5 6 7 9 11 rings
6 4 5 6 8 10 12 rings

>  <PUBCHEM_HEAVY_ATOM_COUNT>  (1) 
29

>  <PUBCHEM_ATOM_DEF_STEREO_COUNT>  (1) 
0

>  <PUBCHEM_ATOM_UDEF_STEREO_COUNT>  (1) 
0

>  <PUBCHEM_BOND_DEF_STEREO_COUNT>  (1) 
0

>  <PUBCHEM_BOND_UDEF_STEREO_COUNT>  (1) 
0

>  <PUBCHEM_ISOTOPIC_ATOM_COUNT>  (1) 
0

>  <PUBCHEM_COMPONENT_COUNT>  (1) 
1

>  <PUBCHEM_CACTVS_TAUTO_COUNT>  (1) 
1

>  <PUBCHEM_CONFORMER_ID>  (1) 
00003F2000000002

>  <PUBCHEM_MMFF94_ENERGY>  (1) 
68.0497

>  <PUBCHEM_FEATURE_SELFOVERLAP>  (1) 
42.073

>  <PUBCHEM_SHAPE_FINGERPRINT>  (1) 
10366900 7 18272378619989801852
10498660 4 18261675964766586042
10670039 82 18262250919659696622
10871710 139 18339643335251631817
11112241 14 17483667184607956201
11828532 37 18263923417867899466
12107698 1 18342739598855681716
12166972 35 17676202481411551804
12788726 201 18340476786350379449
13224815 77 17603880996146088096
13782708 43 17346326960028737094
13911987 19 18333724724373550367
14251757 17 16661188266469389951
14347332 77 18199182884845016150
14464042 87 18408040701808264872
14840074 17 17846782927295082911
14910302 57 17346597439588502062
14931854 50 18260558822635495180
14955137 171 18201163256327641827
15419009 47 17406566810018324878
15849732 13 17846498141568499407
16752209 62 18335700503185559400
17349148 13 18335149678130361621
17809404 112 18041844051068572256
1813 80 17988351650947057181
19319366 153 17967801769443971202
20715895 44 16733807702248465415
21033648 29 12685391685726710116
2132832 1 17753587088868936074
22122407 14 14851903455881236894
23559900 14 18124310760041362888
3027735 51 18339081467555804261
3493558 16 16806156658478163253
46194498 28 17417806271201153384
508706 21 18197238965688563166
5265222 85 16892026669240080053

>  <PUBCHEM_SHAPE_MULTIPOLES>  (1) 
574.22
13.08
2.93
2.01
0.33
2.81
-0.62
-4.41
-4.98
-0.59
0.72
0.19
-0.47
-0.89

>  <PUBCHEM_SHAPE_SELFOVERLAP>  (1) 
1230.066

>  <PUBCHEM_SHAPE_VOLUME>  (1) 
314.5

>  <PUBCHEM_COORDINATE_TYPE>  (1) 
2
5
10

$$$$
