16187
     RDKit          3D

 25 28  0  0  1  0  0  0  0  0999 V2000
    4.2848   -1.5009    1.1736 O   0  0  0  0  0  0  0  0  0  0  0  0
   -6.4913    1.2916   -0.2209 O   0  0  0  0  0  0  0  0  0  0  0  0
    1.2101   -0.8051   -0.7064 C   0  0  0  0  0  0  0  0  0  0  0  0
    1.9051   -1.0257    0.6533 C   0  0  0  0  0  0  0  0  0  0  0  0
   -0.3143   -0.9612   -0.6446 C   0  0  0  0  0  0  0  0  0  0  0  0
   -0.9027    0.0314    0.4000 C   0  0  0  0  0  0  0  0  0  0  0  0
   -2.4722   -0.1210    0.5236 C   0  0  0  0  0  0  0  0  0  0  0  0
    1.3785    0.0445    1.6274 C   0  0  0  0  0  0  0  0  0  0  0  0
   -0.1539   -0.0121    1.7603 C   0  0  0  0  0  0  0  0  0  0  0  0
    3.4025   -0.9167    0.2264 C   0  0  0  0  0  0  0  0  0  0  0  0
    1.9931   -1.7026   -1.6623 C   0  0  0  0  0  0  0  0  0  0  0  0
    3.4388   -1.6857   -1.1225 C   0  0  0  0  0  0  0  0  0  0  0  0
   -0.9405   -0.7090   -2.0249 C   0  0  0  0  0  0  0  0  0  0  0  0
   -3.1212   -0.2326   -0.8633 C   0  0  0  0  0  0  0  0  0  0  0  0
    1.6320   -2.4308    1.2640 C   0  0  0  0  0  0  0  0  0  0  0  0
   -3.0294    1.1412    1.2482 C   0  0  0  0  0  0  0  0  0  0  0  0
   -2.4172   -0.4805   -1.9814 C   0  0  0  0  0  0  0  0  0  0  0  0
   -2.8530   -1.3850    1.3317 C   0  0  0  0  0  0  0  0  0  0  0  0
   -4.6187   -0.0445   -0.9424 C   0  0  0  0  0  0  0  0  0  0  0  0
   -4.5514    1.2715    1.2065 C   0  0  0  0  0  0  0  0  0  0  0  0
   -5.0685    1.2267   -0.2277 C   0  0  0  0  0  0  0  0  0  0  0  0
    3.8501    0.4744    0.0152 C   0  0  0  0  0  0  0  0  0  0  0  0
    4.2142    1.6054   -0.1567 C   0  0  0  0  0  0  0  0  0  0  0  0
    4.6305    2.8982   -0.3529 C   0  0  0  0  0  0  0  0  0  0  0  0
    4.9947    4.0287   -0.5243 C   0  0  0  0  0  0  0  0  0  0  0  0
  1 10  1  0
  2 21  1  0
  3  4  1  0
  3  5  1  0
  3 11  1  0
  4  8  1  0
  4 10  1  0
  4 15  1  0
  5  6  1  0
  5 13  1  0
  6  7  1  0
  6  9  1  0
  7 14  1  0
  7 16  1  0
  7 18  1  0
  8  9  1  0
 10 12  1  0
 10 22  1  0
 11 12  1  0
 13 17  1  0
 14 17  2  0
 14 19  1  0
 16 20  1  0
 19 21  1  0
 20 21  1  0
 22 23  3  0
 23 24  1  0
 24 25  3  0
M  END
>  <PUBCHEM_COMPOUND_CID>  (1) 
16187

>  <PUBCHEM_CONFORMER_RMSD>  (1) 
0.6

>  <PUBCHEM_CONFORMER_DIVERSEORDER>  (1) 
1

>  <PUBCHEM_MMFF94_PARTIAL_CHARGES>  (1) 
15
1 -0.68
10 0.48
13 0.14
14 -0.28
17 -0.29
19 0.14
2 -0.68
21 0.28
22 -0.2
25 -0.18
44 0.15
53 0.4
54 0.4
55 0.18
7 0.14

>  <PUBCHEM_EFFECTIVE_ROTOR_COUNT>  (1) 
2

>  <PUBCHEM_PHARMACOPHORE_FEATURES>  (1) 
9
1 1 acceptor
1 1 donor
1 2 acceptor
1 2 donor
1 25 hydrophobe
5 3 4 10 11 12 rings
6 3 4 5 6 8 9 rings
6 5 6 7 13 14 17 rings
6 7 14 16 19 20 21 rings

>  <PUBCHEM_HEAVY_ATOM_COUNT>  (1) 
25

>  <PUBCHEM_ATOM_DEF_STEREO_COUNT>  (1) 
7

>  <PUBCHEM_ATOM_UDEF_STEREO_COUNT>  (1) 
0

>  <PUBCHEM_BOND_DEF_STEREO_COUNT>  (1) 
0

>  <PUBCHEM_BOND_UDEF_STEREO_COUNT>  (1) 
0

>  <PUBCHEM_ISOTOPIC_ATOM_COUNT>  (1) 
0

>  <PUBCHEM_COMPONENT_COUNT>  (1) 
1

>  <PUBCHEM_CACTVS_TAUTO_COUNT>  (1) 
1

>  <PUBCHEM_CONFORMER_ID>  (1) 
00003F3B00000001

>  <PUBCHEM_MMFF94_ENERGY>  (1) 
73.4618

>  <PUBCHEM_FEATURE_SELFOVERLAP>  (1) 
45.763

>  <PUBCHEM_SHAPE_FINGERPRINT>  (1) 
10319926 262 14924483279277323256
10369192 42 17900835043571491692
10759866 29 17846221042119179614
10906281 52 17631750292038124009
11112241 14 18041557061206615013
11578080 2 17968391151084125730
12011746 2 16056593231866722543
12236239 1 18130779045471643154
12596602 18 18335422370463441067
12839892 36 13623519160687126033
13224815 77 17203326689095616575
13533116 47 17823415990117704443
13583140 156 18113896070176042498
13675066 3 16443350844946622347
13955234 65 17968369040297639314
14251764 38 18266458694324519341
15142526 21 18262517138527722832
15163728 17 18119546568248315540
15342168 16 18410856607206456508
1601671 61 17346593041415020003
17349148 13 14836115529900334323
17980427 23 17986928866063653202
21033648 29 16732971025175760228
21267235 1 16558469682236451111
21344244 181 12535342420400700013
21503847 285 18339930329266280670
21756936 100 18124035891435976964
21792934 111 14779811713101786773
22122407 14 18336555902322259225
22849339 104 16271642412055423261
23366157 5 17415297035100438919
23522609 53 17416990403714678177
23557571 272 15936972912284485335
23559900 14 18339934705675132886
23569914 152 11596387888661818201
23569914 2 17318681982016704837
2838139 119 18337670931809144140
296302 2 18409730660086524235
3004659 81 17488464083520370062
34797466 226 18412832365572432821
38570 142 18339376265880237756
3886686 26 12761871394645279772
4340502 62 18261396607472730363
474 4 18410292545088483768
484985 159 9291412544461942748
495365 180 17822015294003001450
5104073 3 17821727260146779458
57724786 102 18271819968866049209
6034566 193 17974860776250115892
633830 44 18411704279174146318

>  <PUBCHEM_SHAPE_MULTIPOLES>  (1) 
502.75
11.58
2.76
1.8
4.99
2.44
0.13
9.21
1.04
-5.16
0.28
0.58
-0.64
-1.03

>  <PUBCHEM_SHAPE_SELFOVERLAP>  (1) 
1071.983

>  <PUBCHEM_SHAPE_VOLUME>  (1) 
276.1

>  <PUBCHEM_COORDINATE_TYPE>  (1) 
2
5
10

$$$$
