1618
     RDKit          3D

 25 26  0  0  1  0  0  0  0  0999 V2000
    2.2772    2.5705    0.5545 P   0  0  0  0  0  0  0  0  0  0  0  0
    4.3900   -1.4168   -0.2451 P   0  0  0  0  0  0  0  0  0  0  0  0
   -0.4042   -1.4040   -0.4481 O   0  0  0  0  0  0  0  0  0  0  0  0
    1.9435    1.0070    0.7853 O   0  0  0  0  0  0  0  0  0  0  0  0
    3.0636   -1.7042    0.6381 O   0  0  0  0  0  0  0  0  0  0  0  0
    3.2388    2.5721   -0.7457 O   0  0  0  0  0  0  0  0  0  0  0  0
    3.2932    2.8992    1.7689 O   0  0  0  0  0  0  0  0  0  0  0  0
   -3.0841    1.0023   -2.4668 O   0  0  0  0  0  0  0  0  0  0  0  0
    1.0800    3.4713    0.4683 O   0  0  0  0  0  0  0  0  0  0  0  0
    4.7717   -2.8682   -0.8475 O   0  0  0  0  0  0  0  0  0  0  0  0
    5.5263   -1.1700    0.8786 O   0  0  0  0  0  0  0  0  0  0  0  0
   -6.2702   -0.1674    0.6363 O   0  0  0  0  0  0  0  0  0  0  0  0
    4.2509   -0.3181   -1.2580 O   0  0  0  0  0  0  0  0  0  0  0  0
   -2.3864   -0.1587   -0.5651 N   0  0  0  0  0  0  0  0  0  0  0  0
   -4.6627    0.4133   -0.9107 N   0  0  0  0  0  0  0  0  0  0  0  0
    1.1616    0.3406   -0.1832 C   0  0  0  0  0  0  0  0  0  0  0  0
    0.7969   -1.0650    0.2645 C   0  0  0  0  0  0  0  0  0  0  0  0
   -0.2051    0.9624   -0.3460 C   0  0  0  0  0  0  0  0  0  0  0  0
   -1.0009   -0.1897   -0.9326 C   0  0  0  0  0  0  0  0  0  0  0  0
    1.8763   -2.0905   -0.0312 C   0  0  0  0  0  0  0  0  0  0  0  0
   -2.7689   -0.7515    0.6322 C   0  0  0  0  0  0  0  0  0  0  0  0
   -3.3499    0.4578   -1.3932 C   0  0  0  0  0  0  0  0  0  0  0  0
   -4.0259   -0.7924    1.0909 C   0  0  0  0  0  0  0  0  0  0  0  0
   -5.0971   -0.1639    0.2729 C   0  0  0  0  0  0  0  0  0  0  0  0
   -4.4145   -1.4361    2.3830 C   0  0  0  0  0  0  0  0  0  0  0  0
  1  4  1  0
  1  6  1  0
  1  7  1  0
  1  9  2  0
  2  5  1  0
  2 10  1  0
  2 11  1  0
  2 13  2  0
  3 17  1  0
  3 19  1  0
  4 16  1  0
  5 20  1  0
  8 22  2  0
 12 24  2  0
 14 19  1  0
 14 21  1  0
 14 22  1  0
 15 22  1  0
 15 24  1  0
 16 17  1  0
 16 18  1  0
 17 20  1  0
 18 19  1  0
 21 23  2  0
 23 24  1  0
 23 25  1  0
M  END
>  <PUBCHEM_COMPOUND_CID>  (1) 
1618

>  <PUBCHEM_CONFORMER_RMSD>  (1) 
0.8

>  <PUBCHEM_CONFORMER_DIVERSEORDER>  (1) 
1
196
44
314
62
266
23
121
219
330
248
104
161
187
237
191
111
264
70
174
321
143
244
97
90
247
299
260
263
304
239
218
277
238
52
142
181
349
107
326
258
335
270
92
40
194
98
160
138
64
163
252
67
231
141
256
119
159
124
193
338
217
91
262
276
345
154
285
69
173
282
199
139
50
312
72
327
271
202
279
342
122
301
32
284
306
101
341
47
309
224
296
37
130
136
16
290
251
216
177
61
213
75
176
267
93
325
3
89
157
151
350
171
33
109
42
96
17
80
185
127
228
59
292
192
86
315
214
206
6
21
308
123
2
201
118
291
145
311
100
49
295
166
255
24
346
317
300
172
175
135
186
268
12
125
79
232
259
53
88
322
82
158
227
162
114
339
108
310
156
73
103
19
183
242
253
249
275
230
233
269
215
22
137
46
146
110
209
81
178
182
331
212
286
220
328
129
38
223
302
8
131
205
241
87
66
7
57
245
120
99
140
323
105
278
281
117
208
132
31
236
340
226
45
116
320
294
318
336
222
102
5
155
153
265
305
133
13
63
184
71
189
197
14
280
76
348
307
29
190
54
167
347
149
180
83
188
41
272
94
240
128
257
179
20
289
210
221
273
169
274
207
11
204
4
147
324
337
329
211
27
65
106
170
195
30
243
112
55
313
293
60
51
74
344
343
115
261
168
48
28
225
15
148
333
84
250
332
319
18
316
165
150
25
77
303
43
35
234
334
10
200
68
246
283
9
288
113
144
203
198
229
126
287
134
85
39
254
298
152
58
235
36
297
26
164
78
34
95
56

>  <PUBCHEM_MMFF94_PARTIAL_CHARGES>  (1) 
30
1 1.51
10 -0.77
11 -0.77
12 -0.57
13 -0.7
14 -0.47
15 -0.49
16 0.28
17 0.28
19 0.58
2 1.51
20 0.28
21 -0.04
22 0.69
23 -0.12
24 0.62
25 0.14
3 -0.56
33 0.15
34 0.37
38 0.5
39 0.5
4 -0.55
40 0.5
41 0.5
5 -0.55
6 -0.77
7 -0.77
8 -0.57
9 -0.7

>  <PUBCHEM_EFFECTIVE_ROTOR_COUNT>  (1) 
7

>  <PUBCHEM_PHARMACOPHORE_FEATURES>  (1) 
14
1 10 acceptor
1 11 acceptor
1 12 acceptor
1 13 acceptor
1 15 donor
1 3 acceptor
1 6 acceptor
1 7 acceptor
1 8 acceptor
1 9 acceptor
4 1 6 7 9 anion
4 2 10 11 13 anion
5 3 16 17 18 19 rings
6 14 15 21 22 23 24 rings

>  <PUBCHEM_HEAVY_ATOM_COUNT>  (1) 
25

>  <PUBCHEM_ATOM_DEF_STEREO_COUNT>  (1) 
0

>  <PUBCHEM_ATOM_UDEF_STEREO_COUNT>  (1) 
3

>  <PUBCHEM_BOND_DEF_STEREO_COUNT>  (1) 
0

>  <PUBCHEM_BOND_UDEF_STEREO_COUNT>  (1) 
0

>  <PUBCHEM_ISOTOPIC_ATOM_COUNT>  (1) 
0

>  <PUBCHEM_COMPONENT_COUNT>  (1) 
1

>  <PUBCHEM_CACTVS_TAUTO_COUNT>  (1) 
3

>  <PUBCHEM_CONFORMER_ID>  (1) 
0000065200000001

>  <PUBCHEM_MMFF94_ENERGY>  (1) 
-10.884

>  <PUBCHEM_FEATURE_SELFOVERLAP>  (1) 
71.127

>  <PUBCHEM_SHAPE_FINGERPRINT>  (1) 
10366900 7 18040429971925906819
10369192 42 17680996498396851340
11045977 3 18187370938939014899
11370993 144 18336272310126364929
11646440 116 18341609296755092698
12035758 1 18337939169754099714
12236239 1 17060333003381219727
12403259 415 18040709256616775485
12553582 1 18270389487063854774
12616971 3 17847058896350475429
13140716 1 18269549597608559802
13782708 43 18187088368988581267
14739800 52 15984244366126511474
14955137 171 18342747282236117662
15527383 91 18410859841369428131
15880784 105 18341333392414625643
17138139 8 12975317598707653201
1813 80 17845385353447972478
18785283 64 18263365957330685128
21033648 29 18114449120335120869
21041028 32 18271529701822375312
21065201 7 17167577198505965307
22122407 14 18059309694919087585
22182313 1 18261095388056534980
22849341 161 17846225418912179194
23175994 123 18339645538137207887
23557571 272 17530964670689406061
23559900 14 17603870013835539303
25147074 1 17631439228393434015
5104073 3 18340214093687771371
5895379 119 14907639898841528864
6049 1 18114176445566921645
633830 44 17772755111104470469
6823239 73 17675924313195928360
7495541 125 18187369835090078610

>  <PUBCHEM_SHAPE_MULTIPOLES>  (1) 
447.66
11.99
2.95
1.59
5.12
1.93
-0.05
-4.27
-1.62
-5.02
-0.74
1.38
0.23
2.29

>  <PUBCHEM_SHAPE_SELFOVERLAP>  (1) 
902.045

>  <PUBCHEM_SHAPE_VOLUME>  (1) 
263.5

>  <PUBCHEM_COORDINATE_TYPE>  (1) 
2
5
10

$$$$
