16207
     RDKit          3D

 18 18  0  0  1  0  0  0  0  0999 V2000
    0.4763   -0.4618    0.7877 O   0  0  0  0  0  0  0  0  0  0  0  0
   -0.1938   -0.0803   -1.4179 O   0  0  0  0  0  0  0  0  0  0  0  0
   -2.8201   -0.0875   -0.4746 N   0  0  0  0  0  0  0  0  0  0  0  0
   -1.7991   -0.8253    0.2662 C   0  0  0  0  0  0  0  0  0  0  0  0
   -2.6418    1.3533   -0.2956 C   0  0  0  0  0  0  0  0  0  0  0  0
   -4.1583   -0.4934   -0.0448 C   0  0  0  0  0  0  0  0  0  0  0  0
   -2.0105   -2.3220    0.0846 C   0  0  0  0  0  0  0  0  0  0  0  0
   -0.4387   -0.4092   -0.2642 C   0  0  0  0  0  0  0  0  0  0  0  0
   -3.6573    2.1373   -1.1094 C   0  0  0  0  0  0  0  0  0  0  0  0
   -4.3864   -0.1677    1.4215 C   0  0  0  0  0  0  0  0  0  0  0  0
    1.7693   -0.0954    0.4069 C   0  0  0  0  0  0  0  0  0  0  0  0
    2.1386    1.2301    0.4972 C   0  0  0  0  0  0  0  0  0  0  0  0
    2.6304   -1.0721   -0.0466 C   0  0  0  0  0  0  0  0  0  0  0  0
    3.4295    1.5959    0.1161 C   0  0  0  0  0  0  0  0  0  0  0  0
    3.9214   -0.7061   -0.4277 C   0  0  0  0  0  0  0  0  0  0  0  0
    1.1987    2.2810    0.9889 C   0  0  0  0  0  0  0  0  0  0  0  0
    2.2211   -2.5050   -0.1420 C   0  0  0  0  0  0  0  0  0  0  0  0
    4.3208    0.6280   -0.3463 C   0  0  0  0  0  0  0  0  0  0  0  0
  1  8  1  0
  1 11  1  0
  2  8  2  0
  3  4  1  0
  3  5  1  0
  3  6  1  0
  4  7  1  0
  4  8  1  0
  5  9  1  0
  6 10  1  0
 11 12  2  0
 11 13  1  0
 12 14  1  0
 12 16  1  0
 13 15  2  0
 13 17  1  0
 14 18  2  0
 15 18  1  0
M  END
>  <PUBCHEM_COMPOUND_CID>  (1) 
16207

>  <PUBCHEM_CONFORMER_RMSD>  (1) 
0.8

>  <PUBCHEM_CONFORMER_DIVERSEORDER>  (1) 
1
50
12
54
46
48
56
44
15
43
20
41
35
57
58
25
52
30
34
17
29
53
42
38
8
39
24
9
31
47
33
22
27
49
14
26
18
10
36
40
4
2
3
16
32
51
23
5
37
28
6
45
55
19
7
13
21
11

>  <PUBCHEM_MMFF94_PARTIAL_CHARGES>  (1) 
18
1 -0.23
11 0.08
12 -0.14
13 -0.14
14 -0.15
15 -0.15
16 0.14
17 0.14
18 -0.15
2 -0.57
3 -0.81
33 0.15
34 0.15
4 0.33
41 0.15
5 0.27
6 0.27
8 0.66

>  <PUBCHEM_EFFECTIVE_ROTOR_COUNT>  (1) 
6

>  <PUBCHEM_PHARMACOPHORE_FEATURES>  (1) 
3
1 2 acceptor
1 3 cation
6 11 12 13 14 15 18 rings

>  <PUBCHEM_HEAVY_ATOM_COUNT>  (1) 
18

>  <PUBCHEM_ATOM_DEF_STEREO_COUNT>  (1) 
0

>  <PUBCHEM_ATOM_UDEF_STEREO_COUNT>  (1) 
1

>  <PUBCHEM_BOND_DEF_STEREO_COUNT>  (1) 
0

>  <PUBCHEM_BOND_UDEF_STEREO_COUNT>  (1) 
0

>  <PUBCHEM_ISOTOPIC_ATOM_COUNT>  (1) 
0

>  <PUBCHEM_COMPONENT_COUNT>  (1) 
1

>  <PUBCHEM_CACTVS_TAUTO_COUNT>  (1) 
1

>  <PUBCHEM_CONFORMER_ID>  (1) 
00003F4F00000001

>  <PUBCHEM_MMFF94_ENERGY>  (1) 
48.9107

>  <PUBCHEM_FEATURE_SELFOVERLAP>  (1) 
15.223

>  <PUBCHEM_SHAPE_FINGERPRINT>  (1) 
10366900 7 18262237832446102243
10498660 4 17749940073314088429
10608611 8 18409725179370592485
10646746 165 18187362091005496781
10980938 120 18413103970345155442
11471102 20 18341894112820571018
11552529 35 17986400099455033355
11615757 297 18060139851403021185
116883 192 17697883575206175934
11715629 250 18336538395554797692
12173636 292 18335976545239825967
12236239 1 17203615891177129954
12500047 106 18335696135319864111
12507560 40 18260551087204059677
12633257 1 18412261735569153203
12654215 9 18342170064633038248
15219456 202 18409445864767648127
15375462 6 18411978091818203879
15442244 35 18197499511157166914
16945 1 18341039796079680994
17834074 16 18408886243450921310
18186145 218 18202282502396245235
19049666 15 18335700494806485059
20510252 161 18408885114449606961
20645477 56 18408603690569229673
20645477 70 17917718980844684958
21033648 29 18335409176213677065
221357 26 18341327825567167845
22289505 5 18339916013634238316
23402539 116 11815891232617294096
23402655 69 18342735191565315932
23559900 14 18410287042697242406
25 1 18411136952770246290
5104073 3 18261391096464875881
5281201 14 18409453561597014620
58051976 100 18059010713075429111
6287921 2 18044943608443890860
69090 78 18412260662233510703
74978 22 16199579320111007314
77779 3 18409168809322912407
8272917 22 18059586749467263942
9709674 26 18411140242346501631

>  <PUBCHEM_SHAPE_MULTIPOLES>  (1) 
353.71
8.59
2.39
1.02
2.38
0.07
0.03
-1.19
-0.12
-0.19
-0.02
0.65
-0.26
0.99

>  <PUBCHEM_SHAPE_SELFOVERLAP>  (1) 
719.395

>  <PUBCHEM_SHAPE_VOLUME>  (1) 
208

>  <PUBCHEM_COORDINATE_TYPE>  (1) 
2
5
10

$$$$
