16212
     RDKit          3D

 23 24  0  0  1  0  0  0  0  0999 V2000
   -2.5432   -1.9619    0.3064 O   0  0  0  0  0  0  0  0  0  0  0  0
    2.5673    1.2375   -1.4476 O   0  0  0  0  0  0  0  0  0  0  0  0
   -0.0525   -0.2332    1.8141 O   0  0  0  0  0  0  0  0  0  0  0  0
    0.3669   -0.3483   -0.4484 N   0  0  0  0  0  0  0  0  0  0  0  0
   -5.2229   -1.2270   -0.2773 C   0  0  0  0  0  0  0  0  0  0  0  0
   -4.1303   -0.2250   -0.0981 C   0  0  0  0  0  0  0  0  0  0  0  0
   -1.8201    0.3187    0.3545 C   0  0  0  0  0  0  0  0  0  0  0  0
   -2.8274   -0.6320    0.1894 C   0  0  0  0  0  0  0  0  0  0  0  0
   -2.1158    1.6764    0.2321 C   0  0  0  0  0  0  0  0  0  0  0  0
   -4.4259    1.1327   -0.2206 C   0  0  0  0  0  0  0  0  0  0  0  0
    2.7002    0.4637   -0.2560 C   0  0  0  0  0  0  0  0  0  0  0  0
    1.7777   -0.7600   -0.3112 C   0  0  0  0  0  0  0  0  0  0  0  0
   -5.8295   -1.1874   -1.6919 C   0  0  0  0  0  0  0  0  0  0  0  0
   -6.3369   -1.0755    0.7749 C   0  0  0  0  0  0  0  0  0  0  0  0
   -3.4187    2.0833   -0.0555 C   0  0  0  0  0  0  0  0  0  0  0  0
   -0.4582   -0.1112    0.6531 C   0  0  0  0  0  0  0  0  0  0  0  0
    4.1510    0.0580   -0.1152 C   0  0  0  0  0  0  0  0  0  0  0  0
   -1.0584    2.7183    0.4030 C   0  0  0  0  0  0  0  0  0  0  0  0
    4.6900   -0.0957    1.1506 C   0  0  0  0  0  0  0  0  0  0  0  0
    4.9083   -0.1512   -1.2550 C   0  0  0  0  0  0  0  0  0  0  0  0
    6.0274   -0.4699    1.2806 C   0  0  0  0  0  0  0  0  0  0  0  0
    6.2457   -0.5255   -1.1248 C   0  0  0  0  0  0  0  0  0  0  0  0
    6.8052   -0.6849    0.1430 C   0  0  0  0  0  0  0  0  0  0  0  0
  1  8  1  0
  2 11  1  0
  3 16  2  0
  4 12  1  0
  4 16  1  0
  5  6  1  0
  5 13  1  0
  5 14  1  0
  6  8  2  0
  6 10  1  0
  7  8  1  0
  7  9  2  0
  7 16  1  0
  9 15  1  0
  9 18  1  0
 10 15  2  0
 11 12  1  0
 11 17  1  0
 17 19  2  0
 17 20  1  0
 19 21  1  0
 20 22  2  0
 21 23  2  0
 22 23  1  0
M  END
>  <PUBCHEM_COMPOUND_CID>  (1) 
16212

>  <PUBCHEM_CONFORMER_RMSD>  (1) 
0.8

>  <PUBCHEM_CONFORMER_DIVERSEORDER>  (1) 
1
17
6
25
34
35
33
13
23
8
19
29
12
30
4
31
22
37
3
14
5
20
21
28
9
39
15
26
27
2
36
38
24
11
32
18
7
16
10

>  <PUBCHEM_MMFF94_PARTIAL_CHARGES>  (1) 
31
1 -0.53
10 -0.15
11 0.42
12 0.3
15 -0.15
16 0.54
17 -0.14
18 0.14
19 -0.15
2 -0.68
20 -0.15
21 -0.15
22 -0.15
23 -0.15
25 0.15
3 -0.57
35 0.15
36 0.37
4 -0.73
40 0.15
41 0.15
42 0.45
43 0.4
44 0.15
45 0.15
46 0.15
5 0.14
6 -0.14
7 0.09
8 0.08
9 -0.14

>  <PUBCHEM_EFFECTIVE_ROTOR_COUNT>  (1) 
6

>  <PUBCHEM_PHARMACOPHORE_FEATURES>  (1) 
8
1 1 donor
1 2 acceptor
1 2 donor
1 3 acceptor
1 4 donor
3 5 13 14 hydrophobe
6 17 19 20 21 22 23 rings
6 6 7 8 9 10 15 rings

>  <PUBCHEM_HEAVY_ATOM_COUNT>  (1) 
23

>  <PUBCHEM_ATOM_DEF_STEREO_COUNT>  (1) 
0

>  <PUBCHEM_ATOM_UDEF_STEREO_COUNT>  (1) 
1

>  <PUBCHEM_BOND_DEF_STEREO_COUNT>  (1) 
0

>  <PUBCHEM_BOND_UDEF_STEREO_COUNT>  (1) 
0

>  <PUBCHEM_ISOTOPIC_ATOM_COUNT>  (1) 
0

>  <PUBCHEM_COMPONENT_COUNT>  (1) 
1

>  <PUBCHEM_CACTVS_TAUTO_COUNT>  (1) 
22

>  <PUBCHEM_CONFORMER_ID>  (1) 
00003F5400000001

>  <PUBCHEM_MMFF94_ENERGY>  (1) 
68.4981

>  <PUBCHEM_FEATURE_SELFOVERLAP>  (1) 
40.598

>  <PUBCHEM_SHAPE_FINGERPRINT>  (1) 
10 15 17988349452435368730
11315181 36 17822015323877627868
11524674 6 16200432485674400463
12107183 9 17395566200408509960
12166972 35 17749394796813447589
12236239 1 17748826306420265960
13288520 33 18413672418194280261
13533116 47 17749102263034122714
13782708 43 17775280586186446390
13862211 1 18412542150100151191
13914758 101 16950553338510332893
1420 363 17561366179823863934
14251764 18 18040716966251688076
14848160 23 17560801013883504790
15183329 4 17167861950685199414
15419008 47 17775000172699940688
1577012 14 17894916187705473396
17349148 13 18187653496078458044
17844677 252 18343868818640687144
1813 80 14548748325699572136
18222031 100 18186803582770881244
18681886 176 18410291432860772248
18927931 339 18409453596331500423
19489759 90 18411981342992304880
200 152 18333732420500731477
21033648 29 17202749420385648520
21150785 3 16588030138453977318
21267235 1 18336554888666908371
21623969 137 15626226831550402270
21792934 111 18342737434371902521
2215653 11 13262394453901257264
2297311 6 18343026579268399977
23081809 10 17967536740397436020
23198884 109 14634865349573742391
23402539 116 18409445873610978733
23557571 272 18202010897286185196
23559900 14 18189616218638903761
2838139 119 16298659495988249245
3004659 81 18260551143028364484
3014965 18 14707478167087673130
34797466 226 18131078160290352372
3545911 37 18411985728296397294
4340502 62 15841557379357259750
5104073 3 18058455291867316450
5283156 175 18261109660781128123
542803 24 17603872187120541744
559249 180 18260545598109274269
59755656 215 18411702063082135894
59755656 520 16660647375494836059
67856867 119 18261395606618736852

>  <PUBCHEM_SHAPE_MULTIPOLES>  (1) 
450.74
17.57
1.8
1.26
12.39
1.06
-0.05
-6.85
-1.45
-2.67
-0.07
0.7
-0.2
-0.27

>  <PUBCHEM_SHAPE_SELFOVERLAP>  (1) 
951.426

>  <PUBCHEM_SHAPE_VOLUME>  (1) 
254.1

>  <PUBCHEM_COORDINATE_TYPE>  (1) 
2
5
10

$$$$
