16211
     RDKit          3D

 18 18  0  0  0  0  0  0  0  0999 V2000
    0.0435    0.5327   -0.9287 O   0  0  0  0  0  0  0  0  0  0  0  0
   -0.6630    0.0976    1.2572 O   0  0  0  0  0  0  0  0  0  0  0  0
   -3.2682   -0.0217    0.2512 N   0  0  0  0  0  0  0  0  0  0  0  0
   -2.2512    0.7331   -0.4800 C   0  0  0  0  0  0  0  0  0  0  0  0
   -3.0221   -1.4584    0.1326 C   0  0  0  0  0  0  0  0  0  0  0  0
   -4.6044    0.3105   -0.2419 C   0  0  0  0  0  0  0  0  0  0  0  0
    1.3476    0.2562   -0.5109 C   0  0  0  0  0  0  0  0  0  0  0  0
    1.8112   -1.0396   -0.5937 C   0  0  0  0  0  0  0  0  0  0  0  0
    2.1243    1.2886   -0.0297 C   0  0  0  0  0  0  0  0  0  0  0  0
   -0.8941    0.4110    0.0970 C   0  0  0  0  0  0  0  0  0  0  0  0
   -4.0701   -2.2590    0.8869 C   0  0  0  0  0  0  0  0  0  0  0  0
   -4.9007    1.7907   -0.0698 C   0  0  0  0  0  0  0  0  0  0  0  0
    3.9205   -0.2901    0.3152 C   0  0  0  0  0  0  0  0  0  0  0  0
    3.1130   -1.3159   -0.1758 C   0  0  0  0  0  0  0  0  0  0  0  0
    3.4261    1.0122    0.3882 C   0  0  0  0  0  0  0  0  0  0  0  0
    0.9620   -2.1514   -1.1159 C   0  0  0  0  0  0  0  0  0  0  0  0
    1.6132    2.6890    0.0562 C   0  0  0  0  0  0  0  0  0  0  0  0
    5.3124   -0.5854    0.7619 C   0  0  0  0  0  0  0  0  0  0  0  0
  1  7  1  0
  1 10  1  0
  2 10  2  0
  3  4  1  0
  3  5  1  0
  3  6  1  0
  4 10  1  0
  5 11  1  0
  6 12  1  0
  7  8  2  0
  7  9  1  0
  8 14  1  0
  8 16  1  0
  9 15  2  0
  9 17  1  0
 13 14  2  0
 13 15  1  0
 13 18  1  0
M  END
>  <PUBCHEM_COMPOUND_CID>  (1) 
16211

>  <PUBCHEM_CONFORMER_RMSD>  (1) 
0.8

>  <PUBCHEM_CONFORMER_DIVERSEORDER>  (1) 
1
18
12
17
21
22
9
14
19
23
26
15
24
10
16
13
8
20
25
7
11
4
5
3
2
6

>  <PUBCHEM_MMFF94_PARTIAL_CHARGES>  (1) 
18
1 -0.23
10 0.66
13 -0.14
14 -0.15
15 -0.15
16 0.14
17 0.14
18 0.14
2 -0.57
3 -0.81
31 0.15
32 0.15
4 0.33
5 0.27
6 0.27
7 0.08
8 -0.14
9 -0.14

>  <PUBCHEM_EFFECTIVE_ROTOR_COUNT>  (1) 
6

>  <PUBCHEM_PHARMACOPHORE_FEATURES>  (1) 
3
1 2 acceptor
1 3 cation
6 7 8 9 13 14 15 rings

>  <PUBCHEM_HEAVY_ATOM_COUNT>  (1) 
18

>  <PUBCHEM_ATOM_DEF_STEREO_COUNT>  (1) 
0

>  <PUBCHEM_ATOM_UDEF_STEREO_COUNT>  (1) 
0

>  <PUBCHEM_BOND_DEF_STEREO_COUNT>  (1) 
0

>  <PUBCHEM_BOND_UDEF_STEREO_COUNT>  (1) 
0

>  <PUBCHEM_ISOTOPIC_ATOM_COUNT>  (1) 
0

>  <PUBCHEM_COMPONENT_COUNT>  (1) 
1

>  <PUBCHEM_CACTVS_TAUTO_COUNT>  (1) 
1

>  <PUBCHEM_CONFORMER_ID>  (1) 
00003F5300000001

>  <PUBCHEM_MMFF94_ENERGY>  (1) 
45.022

>  <PUBCHEM_FEATURE_SELFOVERLAP>  (1) 
15.223

>  <PUBCHEM_SHAPE_FINGERPRINT>  (1) 
11370993 70 18341611503930705583
11405975 8 18408044026566645873
12011746 2 18341899563376883862
12236239 1 17132105827896306252
12251169 10 18413103970302938070
12500047 106 18409727353209483343
12507557 5 18341611533546895521
12633257 1 18334294245162262801
13167823 11 18260546770413988643
13675066 3 18131348630711375052
14178342 30 18199764564970856986
14252887 29 17917716769110392750
14790565 3 17760087711409765820
15196674 1 18409449223574621690
15375358 24 18341613681489511807
17834072 14 18411702084181971083
18186145 218 18129679563834434405
19050596 39 18413111679785084445
19141452 34 18333450933134919703
19784866 140 12468630587192115096
200 152 17917705790862676133
20261772 1 18201158879044109470
20279233 1 18411987944726414455
20645477 56 18334016069469716517
20645477 70 17917713448789430487
21065198 57 18409167731644888657
21421861 104 17606958391378656016
21637258 2 16371270170498108290
21709351 56 18413100680226218365
221490 88 18336272352358645394
23402539 116 18113893857898087191
23559900 14 18340768156794453378
26918003 58 18413105048091751049
2748010 2 17767391398022394300
3286 77 18261391208239396564
4214541 1 18408603660974041425
465052 167 18335422361768284146
5104073 3 18409730698493434361
633830 44 16515406291627444173
69090 78 18409726249323883983
76465 3 17894619362494606650
9709674 26 18341619192080434183

>  <PUBCHEM_SHAPE_MULTIPOLES>  (1) 
353.71
10.1
2.31
0.93
4.18
0.09
-0.02
-0.55
-2.1
0.77
0.04
-0.06
-0.26
0.77

>  <PUBCHEM_SHAPE_SELFOVERLAP>  (1) 
717.215

>  <PUBCHEM_SHAPE_VOLUME>  (1) 
208.6

>  <PUBCHEM_COORDINATE_TYPE>  (1) 
2
5
10

$$$$
