16217
     RDKit          3D

 15 14  0  0  0  0  0  0  0  0999 V2000
    8.7999    0.3527   -0.1400 N   0  0  0  0  0  0  0  0  0  0  0  0
    0.0052   -0.4367    0.0966 C   0  0  0  0  0  0  0  0  0  0  0  0
   -1.2583    0.4252    0.0702 C   0  0  0  0  0  0  0  0  0  0  0  0
    1.2677    0.4266    0.0970 C   0  0  0  0  0  0  0  0  0  0  0  0
   -2.5204   -0.4382    0.0361 C   0  0  0  0  0  0  0  0  0  0  0  0
    2.5313   -0.4353    0.0900 C   0  0  0  0  0  0  0  0  0  0  0  0
   -3.7850    0.4239    0.0434 C   0  0  0  0  0  0  0  0  0  0  0  0
    3.7943    0.4285    0.0567 C   0  0  0  0  0  0  0  0  0  0  0  0
   -5.0454   -0.4412   -0.0243 C   0  0  0  0  0  0  0  0  0  0  0  0
    5.0559   -0.4368    0.0174 C   0  0  0  0  0  0  0  0  0  0  0  0
   -6.3424    0.3727   -0.0430 C   0  0  0  0  0  0  0  0  0  0  0  0
    6.3523    0.3781   -0.0291 C   0  0  0  0  0  0  0  0  0  0  0  0
   -7.6027   -0.4923   -0.0853 C   0  0  0  0  0  0  0  0  0  0  0  0
    7.6089   -0.4891   -0.0960 C   0  0  0  0  0  0  0  0  0  0  0  0
   -8.8613    0.3620   -0.0895 C   0  0  0  0  0  0  0  0  0  0  0  0
  1 14  1  0
  2  3  1  0
  2  4  1  0
  3  5  1  0
  4  6  1  0
  5  7  1  0
  6  8  1  0
  7  9  1  0
  8 10  1  0
  9 11  1  0
 10 12  1  0
 11 13  1  0
 12 14  1  0
 13 15  1  0
M  END
>  <PUBCHEM_COMPOUND_CID>  (1) 
16217

>  <PUBCHEM_CONFORMER_RMSD>  (1) 
1.2

>  <PUBCHEM_CONFORMER_DIVERSEORDER>  (1) 
1
71
318
483
60
559
5
54
587
575
27
634
49
24
234
320
237
42
2
193
35
153
639
281
527
218
442
407
12
43
390
411
359
208
18
512
7
304
592
603
124
456
694
128
202
433
68
16
183
451
432
647
403
578
239
659
216
399
196
58
420
499
642
207
51
41
39
6
221
492
52
506
284
582
695
40
435
200
531
335
623
429
323
13
321
121
660
302
524
418
358
666
517
644
555
568

>  <PUBCHEM_MMFF94_PARTIAL_CHARGES>  (1) 
4
1 -0.99
14 0.27
45 0.36
46 0.36

>  <PUBCHEM_EFFECTIVE_ROTOR_COUNT>  (1) 
12

>  <PUBCHEM_PHARMACOPHORE_FEATURES>  (1) 
3
1 1 cation
1 1 donor
1 15 hydrophobe

>  <PUBCHEM_HEAVY_ATOM_COUNT>  (1) 
15

>  <PUBCHEM_ATOM_DEF_STEREO_COUNT>  (1) 
0

>  <PUBCHEM_ATOM_UDEF_STEREO_COUNT>  (1) 
0

>  <PUBCHEM_BOND_DEF_STEREO_COUNT>  (1) 
0

>  <PUBCHEM_BOND_UDEF_STEREO_COUNT>  (1) 
0

>  <PUBCHEM_ISOTOPIC_ATOM_COUNT>  (1) 
0

>  <PUBCHEM_COMPONENT_COUNT>  (1) 
1

>  <PUBCHEM_CACTVS_TAUTO_COUNT>  (1) 
1

>  <PUBCHEM_CONFORMER_ID>  (1) 
00003F5900000001

>  <PUBCHEM_MMFF94_ENERGY>  (1) 
-8.0324

>  <PUBCHEM_FEATURE_SELFOVERLAP>  (1) 
15.223

>  <PUBCHEM_SHAPE_FINGERPRINT>  (1) 
11315181 36 18272655658533775809
12091667 2 18260830398118516395
13533116 47 17095510765256531464
14123256 10 18410573980861765103
14251764 18 18411982442398457283
14251764 46 18409730659738306147
17834076 25 18410292514469714283
18006028 8 17418093217428265401
20621476 8 18260545619478583407
21150785 3 18410293609691643018
22224240 67 11959728270021419068
232437 2 18413671309470563495
23521765 1 18341894095129018371
246663 6 16200154296130989596
28498 318 18201720630690553446
33684 2 18410573980856490347
4325135 7 18411700984585752583
59567204 34 17240755135607672397
67123 10 18410574002331320334
8209 1 18410573985151451138

>  <PUBCHEM_SHAPE_MULTIPOLES>  (1) 
303.71
29.67
0.79
0.62
0.54
0.01
0
-0.7
1.85
-0.04
0
-0.04
0
-0.01

>  <PUBCHEM_SHAPE_SELFOVERLAP>  (1) 
539.006

>  <PUBCHEM_SHAPE_VOLUME>  (1) 
197

>  <PUBCHEM_COORDINATE_TYPE>  (1) 
2
5
10

$$$$
