1621
     RDKit          3D

 16 15  0  0  1  0  0  0  0  0999 V2000
   -3.6370    1.9757    1.3545 O   0  0  0  0  0  0  0  0  0  0  0  0
   -3.7264    2.6013   -0.8254 O   0  0  0  0  0  0  0  0  0  0  0  0
    6.4126    0.8235   -0.4428 O   0  0  0  0  0  0  0  0  0  0  0  0
    5.5368   -0.8277    0.8554 O   0  0  0  0  0  0  0  0  0  0  0  0
   -2.2121   -2.3460   -1.3549 N   0  0  0  0  0  0  0  0  0  0  0  0
   -2.3229   -0.4489    0.3097 C   0  0  0  0  0  0  0  0  0  0  0  0
   -1.0615    0.2655   -0.2503 C   0  0  0  0  0  0  0  0  0  0  0  0
   -2.2971   -1.9878    0.0615 C   0  0  0  0  0  0  0  0  0  0  0  0
    0.2594   -0.3208    0.2608 C   0  0  0  0  0  0  0  0  0  0  0  0
   -3.5911    0.2318   -0.2612 C   0  0  0  0  0  0  0  0  0  0  0  0
    1.4935    0.4091   -0.2784 C   0  0  0  0  0  0  0  0  0  0  0  0
   -3.5037   -2.7061    0.6730 C   0  0  0  0  0  0  0  0  0  0  0  0
    2.8545   -0.1144    0.1971 C   0  0  0  0  0  0  0  0  0  0  0  0
   -3.6486    1.7204    0.0197 C   0  0  0  0  0  0  0  0  0  0  0  0
    4.0559    0.6087   -0.4105 C   0  0  0  0  0  0  0  0  0  0  0  0
    5.3876    0.1157    0.0916 C   0  0  0  0  0  0  0  0  0  0  0  0
  1 14  1  0
  2 14  2  0
  3 16  1  0
  4 16  2  0
  5  8  1  0
  6  7  1  0
  6  8  1  0
  6 10  1  0
  7  9  1  0
  8 12  1  0
  9 11  1  0
 10 14  1  0
 11 13  1  0
 13 15  1  0
 15 16  1  0
M  END
>  <PUBCHEM_COMPOUND_CID>  (1) 
1621

>  <PUBCHEM_CONFORMER_RMSD>  (1) 
1

>  <PUBCHEM_CONFORMER_DIVERSEORDER>  (1) 
4
703
117
5
476
734
54
33
315
729
458
16
101
191
673
446
493
264
251
707
1
486
509
85
82
662
227
90
566
614
388
439
37
283
2
374
771
545
461
106
652
197
290
449
588
347
666
169
107
158
722
479
263
287
307
49
282
445
40
317
65
71
405
667
273
780
20
686
32
389
647
597
343
118
291
500
709
196
285
491
333
350
95
723
546
6
193
590
348
240
79
35
125
25
330
229
21
469
528
656
56
47
12
75
668
11
36
272
128
72
63
444
494
46
478
329
76
10
748
429
642
181
89
3
631
314
548
738
339
38
189
325
232
57
113
9
109
353
120
767
447
28
53
437
66
368
43
293
27
328
331
142
204
292
99
574
24
122
349
73
670
727
52
131
138
567
61
523
568
310
87
266
74
296
710
474
334
505
284

>  <PUBCHEM_MMFF94_PARTIAL_CHARGES>  (1) 
14
1 -0.65
10 0.06
14 0.66
15 0.06
16 0.66
2 -0.57
3 -0.65
32 0.36
33 0.36
36 0.5
37 0.5
4 -0.57
5 -0.99
8 0.27

>  <PUBCHEM_EFFECTIVE_ROTOR_COUNT>  (1) 
9

>  <PUBCHEM_PHARMACOPHORE_FEATURES>  (1) 
8
1 1 acceptor
1 2 acceptor
1 3 acceptor
1 4 acceptor
1 5 cation
1 5 donor
3 1 2 14 anion
3 3 4 16 anion

>  <PUBCHEM_HEAVY_ATOM_COUNT>  (1) 
16

>  <PUBCHEM_ATOM_DEF_STEREO_COUNT>  (1) 
0

>  <PUBCHEM_ATOM_UDEF_STEREO_COUNT>  (1) 
2

>  <PUBCHEM_BOND_DEF_STEREO_COUNT>  (1) 
0

>  <PUBCHEM_BOND_UDEF_STEREO_COUNT>  (1) 
0

>  <PUBCHEM_ISOTOPIC_ATOM_COUNT>  (1) 
0

>  <PUBCHEM_COMPONENT_COUNT>  (1) 
1

>  <PUBCHEM_CACTVS_TAUTO_COUNT>  (1) 
1

>  <PUBCHEM_CONFORMER_ID>  (1) 
0000065500000004

>  <PUBCHEM_MMFF94_ENERGY>  (1) 
12.3476

>  <PUBCHEM_FEATURE_SELFOVERLAP>  (1) 
40.712

>  <PUBCHEM_SHAPE_FINGERPRINT>  (1) 
10014705 185 18335419049678507949
10680689 15 18131351955237796694
10912923 1 17822006541207545432
11405975 8 18412823607939243008
12091667 2 18261115210084382016
12500047 106 18343295955306355054
12616971 3 17313103047542630204
13073987 5 18260827142290966610
13167823 11 18334855052460026106
14508225 48 18195233637284246805
15375358 24 17775568611346576998
167882 2 18054225432344806647
17093844 174 18343294873760411402
17844677 252 18340774857407827736
19489759 90 17989483000581985416
20645477 56 18341898480691671265
20645477 70 16916795016002186342
21426921 1 18409449228128090791
220451 1 18041001726857424146
2306618 200 17917438661314319227
23081809 10 17822009840027245764
23402539 116 18187079577311065862
23402655 69 18407759231891146132
23557571 272 18343026609507218516
23559900 14 18267856358238861529
300161 21 18335133194620891992
4214541 1 18410012147816274480
5104073 3 18409163338278435080
559249 180 18337666430382464658
573450 72 18334569153445240346
6327066 14 18116707418635305085
633830 44 17603307055482184674
77188 2 17831585645602114595
90127 26 17632291307240130368

>  <PUBCHEM_SHAPE_MULTIPOLES>  (1) 
300.81
12.94
2.5
0.92
23.71
0.38
0
-2.29
-0.72
-5.2
0.06
-0.5
0.05
-0.48

>  <PUBCHEM_SHAPE_SELFOVERLAP>  (1) 
565.476

>  <PUBCHEM_SHAPE_VOLUME>  (1) 
185.3

>  <PUBCHEM_COORDINATE_TYPE>  (1) 
2
5
10

$$$$
