16221
     RDKit          3D

 19 18  0  0  0  0  0  0  0  0999 V2000
   -8.9880    0.2412   -0.3107 N   0  0  0  0  0  0  0  0  0  0  0  0
    1.0991    0.3085   -0.1495 C   0  0  0  0  0  0  0  0  0  0  0  0
   -0.1554   -0.4939    0.2013 C   0  0  0  0  0  0  0  0  0  0  0  0
    2.4043   -0.4067    0.2129 C   0  0  0  0  0  0  0  0  0  0  0  0
   -1.4259    0.2774   -0.1633 C   0  0  0  0  0  0  0  0  0  0  0  0
    3.6925    0.3833   -0.0377 C   0  0  0  0  0  0  0  0  0  0  0  0
   -2.6829   -0.5092    0.2159 C   0  0  0  0  0  0  0  0  0  0  0  0
    4.9644   -0.4025    0.2898 C   0  0  0  0  0  0  0  0  0  0  0  0
   -3.9511    0.2505   -0.1793 C   0  0  0  0  0  0  0  0  0  0  0  0
    6.2169    0.4039   -0.0621 C   0  0  0  0  0  0  0  0  0  0  0  0
   -5.2436   -0.4960    0.1661 C   0  0  0  0  0  0  0  0  0  0  0  0
    7.5229   -0.3443    0.2221 C   0  0  0  0  0  0  0  0  0  0  0  0
   -6.5105    0.2528   -0.2616 C   0  0  0  0  0  0  0  0  0  0  0  0
    8.8091    0.3810   -0.1879 C   0  0  0  0  0  0  0  0  0  0  0  0
   -7.7972   -0.4973    0.0913 C   0  0  0  0  0  0  0  0  0  0  0  0
   10.1088   -0.3923    0.0459 C   0  0  0  0  0  0  0  0  0  0  0  0
   11.3575    0.4031   -0.3016 C   0  0  0  0  0  0  0  0  0  0  0  0
   -9.2875    1.3012    0.6538 C   0  0  0  0  0  0  0  0  0  0  0  0
  -10.1334   -0.6606   -0.4454 C   0  0  0  0  0  0  0  0  0  0  0  0
  1 15  1  0
  1 18  1  0
  1 19  1  0
  2  3  1  0
  2  4  1  0
  3  5  1  0
  4  6  1  0
  5  7  1  0
  6  8  1  0
  7  9  1  0
  8 10  1  0
  9 11  1  0
 10 12  1  0
 11 13  1  0
 12 14  1  0
 13 15  1  0
 14 16  1  0
 16 17  1  0
M  END
>  <PUBCHEM_COMPOUND_CID>  (1) 
16221

>  <PUBCHEM_CONFORMER_RMSD>  (1) 
1.4

>  <PUBCHEM_CONFORMER_DIVERSEORDER>  (1) 
1
47
48
16
56
44
6
13
24
36
15
18
61
49
58
64
4
43
20
12
40
19
51
29
34
31
25
14
11
7
62
57
35
38
52
28
30
45
65
59
2
63
42
26
32
39
5
55
21
9
46
50
23
22
41
27
66
60
33
54
17
53
3
10
37
8

>  <PUBCHEM_MMFF94_PARTIAL_CHARGES>  (1) 
4
1 -0.81
15 0.27
18 0.27
19 0.27

>  <PUBCHEM_EFFECTIVE_ROTOR_COUNT>  (1) 
15

>  <PUBCHEM_PHARMACOPHORE_FEATURES>  (1) 
2
1 1 cation
1 17 hydrophobe

>  <PUBCHEM_HEAVY_ATOM_COUNT>  (1) 
19

>  <PUBCHEM_ATOM_DEF_STEREO_COUNT>  (1) 
0

>  <PUBCHEM_ATOM_UDEF_STEREO_COUNT>  (1) 
0

>  <PUBCHEM_BOND_DEF_STEREO_COUNT>  (1) 
0

>  <PUBCHEM_BOND_UDEF_STEREO_COUNT>  (1) 
0

>  <PUBCHEM_ISOTOPIC_ATOM_COUNT>  (1) 
0

>  <PUBCHEM_COMPONENT_COUNT>  (1) 
1

>  <PUBCHEM_CACTVS_TAUTO_COUNT>  (1) 
1

>  <PUBCHEM_CONFORMER_ID>  (1) 
00003F5D00000001

>  <PUBCHEM_MMFF94_ENERGY>  (1) 
5.0797

>  <PUBCHEM_FEATURE_SELFOVERLAP>  (1) 
10.148

>  <PUBCHEM_SHAPE_FINGERPRINT>  (1) 
14251764 46 18410855464428416838
14251920 1 18410573985151470639
14344974 52 18130503132493028504
15061470 23 18410572877092684476
15510794 2 18411704283195209766
21362267 2 17895464947188060236
21362267 313 18270117886190194482
232437 2 18410011035704652886
23521765 1 18341894095129031371
23528940 14 17346032395158201727
23581129 1 18409448089539575814
33684 2 11743840266025101270
59521270 166 17917429801044622933
67123 10 18333449850486669382
8209 1 18410573989446424931

>  <PUBCHEM_SHAPE_MULTIPOLES>  (1) 
386.03
46.18
0.86
0.68
19.75
0.08
0.01
3.19
-2.41
-0.9
0.06
-0.25
0.02
-0.65

>  <PUBCHEM_SHAPE_SELFOVERLAP>  (1) 
690.356

>  <PUBCHEM_SHAPE_VOLUME>  (1) 
250.6

>  <PUBCHEM_COORDINATE_TYPE>  (1) 
2
5
10

$$$$
