16231
     RDKit          3D

 15 15  0  0  0  0  0  0  0  0999 V2000
   -2.3546    2.6599   -0.5229 Cl  0  0  0  0  0  0  0  0  0  0  0  0
    1.6926   -1.6986   -1.2164 O   0  0  0  0  0  0  0  0  0  0  0  0
   -2.0899   -1.1792    0.5167 N   0  0  0  0  0  0  0  0  0  0  0  0
   -0.5153    0.8520   -0.6063 N   0  0  0  0  0  0  0  0  0  0  0  0
   -0.2504   -2.6725    0.3395 N   0  0  0  0  0  0  0  0  0  0  0  0
    2.1600    0.5125   -0.7213 N   0  0  0  0  0  0  0  0  0  0  0  0
   -3.9055    0.3375    0.6773 N   0  0  0  0  0  0  0  0  0  0  0  0
    3.6599    1.7951    0.6579 N   0  0  0  0  0  0  0  0  0  0  0  0
    2.6926   -0.1091    1.4587 N   0  0  0  0  0  0  0  0  0  0  0  0
   -0.0703   -0.3859   -0.3913 C   0  0  0  0  0  0  0  0  0  0  0  0
   -0.8098   -1.3886    0.1504 C   0  0  0  0  0  0  0  0  0  0  0  0
   -2.5686    0.0638    0.3118 C   0  0  0  0  0  0  0  0  0  0  0  0
   -1.7954    1.0616   -0.2398 C   0  0  0  0  0  0  0  0  0  0  0  0
    1.3465   -0.5957   -0.8037 C   0  0  0  0  0  0  0  0  0  0  0  0
    2.8080    0.7473    0.3896 C   0  0  0  0  0  0  0  0  0  0  0  0
  1 13  1  0
  2 14  2  0
  3 11  2  0
  3 12  1  0
  4 10  2  0
  4 13  1  0
  5 11  1  0
  6 14  1  0
  6 15  2  3
  7 12  1  0
  8 15  1  0
  9 15  1  0
 10 11  1  0
 10 14  1  0
 12 13  2  0
M  END
>  <PUBCHEM_COMPOUND_CID>  (1) 
16231

>  <PUBCHEM_CONFORMER_RMSD>  (1) 
0.6

>  <PUBCHEM_CONFORMER_DIVERSEORDER>  (1) 
1
8
10
4
12
6
3
7
13
9
5
2
11

>  <PUBCHEM_MMFF94_PARTIAL_CHARGES>  (1) 
23
1 -0.18
10 0.4
11 0.41
12 0.41
13 0.49
14 0.69
15 0.55
16 0.4
17 0.4
18 0.4
19 0.4
2 -0.57
20 0.4
21 0.4
22 0.4
23 0.4
3 -0.62
4 -0.62
5 -0.9
6 -0.66
7 -0.9
8 -0.85
9 -0.85

>  <PUBCHEM_EFFECTIVE_ROTOR_COUNT>  (1) 
2

>  <PUBCHEM_PHARMACOPHORE_FEATURES>  (1) 
10
1 2 acceptor
1 4 acceptor
1 5 cation
1 5 donor
1 6 donor
1 7 donor
1 8 donor
1 9 donor
3 3 7 12 cation
6 3 4 10 11 12 13 rings

>  <PUBCHEM_HEAVY_ATOM_COUNT>  (1) 
15

>  <PUBCHEM_ATOM_DEF_STEREO_COUNT>  (1) 
0

>  <PUBCHEM_ATOM_UDEF_STEREO_COUNT>  (1) 
0

>  <PUBCHEM_BOND_DEF_STEREO_COUNT>  (1) 
0

>  <PUBCHEM_BOND_UDEF_STEREO_COUNT>  (1) 
0

>  <PUBCHEM_ISOTOPIC_ATOM_COUNT>  (1) 
0

>  <PUBCHEM_COMPONENT_COUNT>  (1) 
1

>  <PUBCHEM_CACTVS_TAUTO_COUNT>  (1) 
33

>  <PUBCHEM_CONFORMER_ID>  (1) 
00003F6700000001

>  <PUBCHEM_MMFF94_ENERGY>  (1) 
63.9563

>  <PUBCHEM_FEATURE_SELFOVERLAP>  (1) 
50.878

>  <PUBCHEM_SHAPE_FINGERPRINT>  (1) 
10608611 8 18340770342758948204
11132069 177 18341334499761508465
12251169 10 18187922932462395380
12382932 28 18337398256618334753
13839132 238 18411137991851619228
15219456 202 18270683065083832012
15490181 7 18338235938708710103
15775835 57 18335982055730086184
16945 1 18335991955497756543
17804303 29 18117559518381460706
17846911 113 18410008853734672569
18186145 218 17987244339205017005
19786989 88 17274824610440292869
20510252 161 18411984658871068593
20871998 184 18125445460193386775
21524375 3 18201429307438306854
21947302 44 17988368083032976234
22445834 79 17458613493834814906
23211744 41 18343024350296424687
23402539 116 18197205069832997511
27216 239 17555717056695053712
2748010 2 18191034404324016733
305870 269 18191016816174554402
5255222 1 17612039170196713629
7364860 26 17979070483870383791
8050 44 18342171120651998889
81228 2 18123480641710441243
90316 7 18041550446730073797

>  <PUBCHEM_SHAPE_MULTIPOLES>  (1) 
269.83
5.34
2.37
1.01
0.61
0.04
0.03
2.8
1.52
-0.49
-0.11
0.52
-0.06
0.87

>  <PUBCHEM_SHAPE_SELFOVERLAP>  (1) 
560.641

>  <PUBCHEM_SHAPE_VOLUME>  (1) 
155.3

>  <PUBCHEM_COORDINATE_TYPE>  (1) 
2
5
10

$$$$
