16238
     RDKit          3D

 13 14  0  0  0  0  0  0  0  0999 V2000
   -3.0003    0.0501    0.0000 C   0  0  0  0  0  0  0  0  0  0  0  0
   -1.5315    0.3103    0.0002 C   0  0  0  0  0  0  0  0  0  0  0  0
    0.7518   -0.5294    0.0001 C   0  0  0  0  0  0  0  0  0  0  0  0
   -0.6338   -0.7578    0.0000 C   0  0  0  0  0  0  0  0  0  0  0  0
    1.2342    0.8010   -0.0001 C   0  0  0  0  0  0  0  0  0  0  0  0
   -1.0572    1.6186    0.0001 C   0  0  0  0  0  0  0  0  0  0  0  0
   -3.4646   -0.7036    1.2604 C   0  0  0  0  0  0  0  0  0  0  0  0
   -3.4645   -0.7037   -1.2605 C   0  0  0  0  0  0  0  0  0  0  0  0
    0.3163    1.8641   -0.0002 C   0  0  0  0  0  0  0  0  0  0  0  0
    1.6696   -1.5925   -0.0002 C   0  0  0  0  0  0  0  0  0  0  0  0
    2.6199    1.0293    0.0000 C   0  0  0  0  0  0  0  0  0  0  0  0
    3.0430   -1.3474    0.0000 C   0  0  0  0  0  0  0  0  0  0  0  0
    3.5172   -0.0391    0.0002 C   0  0  0  0  0  0  0  0  0  0  0  0
  1  2  1  0
  1  7  1  0
  1  8  1  0
  2  4  2  0
  2  6  1  0
  3  4  1  0
  3  5  2  0
  3 10  1  0
  5  9  1  0
  5 11  1  0
  6  9  2  0
 10 12  2  0
 11 13  2  0
 12 13  1  0
M  END
>  <PUBCHEM_COMPOUND_CID>  (1) 
16238

>  <PUBCHEM_CONFORMER_RMSD>  (1) 
0.4

>  <PUBCHEM_CONFORMER_DIVERSEORDER>  (1) 
1
2

>  <PUBCHEM_MMFF94_PARTIAL_CHARGES>  (1) 
16
1 0.14
10 -0.15
11 -0.15
12 -0.15
13 -0.15
15 0.15
16 0.15
2 -0.14
23 0.15
24 0.15
25 0.15
26 0.15
27 0.15
4 -0.15
6 -0.15
9 -0.15

>  <PUBCHEM_EFFECTIVE_ROTOR_COUNT>  (1) 
1

>  <PUBCHEM_PHARMACOPHORE_FEATURES>  (1) 
3
3 1 7 8 hydrophobe
6 2 3 4 5 6 9 rings
6 3 5 10 11 12 13 rings

>  <PUBCHEM_HEAVY_ATOM_COUNT>  (1) 
13

>  <PUBCHEM_ATOM_DEF_STEREO_COUNT>  (1) 
0

>  <PUBCHEM_ATOM_UDEF_STEREO_COUNT>  (1) 
0

>  <PUBCHEM_BOND_DEF_STEREO_COUNT>  (1) 
0

>  <PUBCHEM_BOND_UDEF_STEREO_COUNT>  (1) 
0

>  <PUBCHEM_ISOTOPIC_ATOM_COUNT>  (1) 
0

>  <PUBCHEM_COMPONENT_COUNT>  (1) 
1

>  <PUBCHEM_CACTVS_TAUTO_COUNT>  (1) 
1

>  <PUBCHEM_CONFORMER_ID>  (1) 
00003F6E00000001

>  <PUBCHEM_MMFF94_ENERGY>  (1) 
36.0505

>  <PUBCHEM_FEATURE_SELFOVERLAP>  (1) 
15.249

>  <PUBCHEM_SHAPE_FINGERPRINT>  (1) 
10219947 1 18341895203246489502
11132069 177 18272360984299871722
11206711 2 18262520273553084268
11471102 20 18409726274629470589
11471102 22 18337404802053639515
11769659 78 18341887450946610246
11806522 49 18270952574392497303
12032990 46 18408612447944346674
12932764 1 17917709106234641201
13296908 3 18186803582285506411
13705890 14 17168147844856171146
14144814 61 18413109454717731651
14251717 144 18340760533037644567
14252887 29 18201170891919689722
14289901 80 14907895015704221919
14325111 11 18410573968072029600
14576447 43 18056744636758823151
14993402 34 18202278134551668583
15309172 13 18202568367072443823
15375462 189 18201442501524976003
15501101 241 18412544335927411368
16945 1 18410855507473223716
17844478 74 18113624482071187037
18186145 218 17385723577878879253
19026448 4 16515682268761042972
19026448 5 16558753437755912216
19422 9 17775850133251520591
200 152 18201145599168130397
20201158 50 18333449841606779443
20279233 1 17967248711073843411
20645477 70 18411693258272344855
20871998 22 18270694047225725478
21501502 16 18266460906247636872
21501925 9 18336252458597599186
2334 1 17618222144902174540
23402539 116 18340476799219340078
23402655 69 18412257307626448701
23463225 33 18410576162921494300
23552423 10 18189338974547435676
23559900 14 18040994004237376218
25610 137 18335147500434430816
2748010 2 18267017263331339452
528886 8 18411695530341335370
57096353 35 18410015450788524508
57812782 119 18040148513511503486
581208 293 18341324582803295832
77492 1 17703794751385422499
8809292 202 18041288750130431187

>  <PUBCHEM_SHAPE_MULTIPOLES>  (1) 
267.53
6.03
1.7
0.86
1.43
0.35
0
-1.8
0
-0.61
0
0.85
-0.17
0

>  <PUBCHEM_SHAPE_SELFOVERLAP>  (1) 
575

>  <PUBCHEM_SHAPE_VOLUME>  (1) 
140.1

>  <PUBCHEM_COORDINATE_TYPE>  (1) 
2
5
10

$$$$
