16247
     RDKit          3D

 15 15  0  0  0  0  0  0  0  0999 V2000
    2.0721    0.0584   -0.9689 O   0  0  0  0  0  0  0  0  0  0  0  0
    2.5554    0.0765    1.3053 O   0  0  0  0  0  0  0  0  0  0  0  0
   -3.3396    0.3317    0.2904 N   0  0  0  0  0  0  0  0  0  0  0  0
    4.2557   -0.0241   -0.2699 N   0  0  0  0  0  0  0  0  0  0  0  0
   -1.9665    0.2479   -0.0286 C   0  0  0  0  0  0  0  0  0  0  0  0
   -1.3402   -0.9908   -0.1673 C   0  0  0  0  0  0  0  0  0  0  0  0
   -1.2358    1.4227   -0.2059 C   0  0  0  0  0  0  0  0  0  0  0  0
    0.0170   -1.0547   -0.4832 C   0  0  0  0  0  0  0  0  0  0  0  0
    0.7478    0.1202   -0.6606 C   0  0  0  0  0  0  0  0  0  0  0  0
    0.1213    1.3589   -0.5220 C   0  0  0  0  0  0  0  0  0  0  0  0
   -2.0989   -2.2647    0.0168 C   0  0  0  0  0  0  0  0  0  0  0  0
   -4.3348    0.3678   -0.7614 C   0  0  0  0  0  0  0  0  0  0  0  0
   -3.7689    0.3686    1.6734 C   0  0  0  0  0  0  0  0  0  0  0  0
    2.9399    0.0390    0.1401 C   0  0  0  0  0  0  0  0  0  0  0  0
    5.3755   -0.0576    0.6418 C   0  0  0  0  0  0  0  0  0  0  0  0
  1  9  1  0
  1 14  1  0
  2 14  2  0
  3  5  1  0
  3 12  1  0
  3 13  1  0
  4 14  1  0
  4 15  1  0
  5  6  2  0
  5  7  1  0
  6  8  1  0
  6 11  1  0
  7 10  2  0
  8  9  2  0
  9 10  1  0
M  END
>  <PUBCHEM_COMPOUND_CID>  (1) 
16247

>  <PUBCHEM_CONFORMER_RMSD>  (1) 
0.6

>  <PUBCHEM_CONFORMER_DIVERSEORDER>  (1) 
1
17
16
9
15
22
19
7
25
18
14
20
10
23
21
27
8
26
13
6
4
24
5
11
12
2
3

>  <PUBCHEM_MMFF94_PARTIAL_CHARGES>  (1) 
19
1 -0.23
10 -0.15
11 0.14
12 0.37
13 0.37
14 0.78
15 0.3
16 0.15
17 0.15
18 0.15
2 -0.57
28 0.37
3 -0.84
4 -0.73
5 0.1
6 -0.14
7 -0.15
8 -0.15
9 0.08

>  <PUBCHEM_EFFECTIVE_ROTOR_COUNT>  (1) 
4

>  <PUBCHEM_PHARMACOPHORE_FEATURES>  (1) 
4
1 2 acceptor
1 3 cation
1 4 donor
6 5 6 7 8 9 10 rings

>  <PUBCHEM_HEAVY_ATOM_COUNT>  (1) 
15

>  <PUBCHEM_ATOM_DEF_STEREO_COUNT>  (1) 
0

>  <PUBCHEM_ATOM_UDEF_STEREO_COUNT>  (1) 
0

>  <PUBCHEM_BOND_DEF_STEREO_COUNT>  (1) 
0

>  <PUBCHEM_BOND_UDEF_STEREO_COUNT>  (1) 
0

>  <PUBCHEM_ISOTOPIC_ATOM_COUNT>  (1) 
0

>  <PUBCHEM_COMPONENT_COUNT>  (1) 
1

>  <PUBCHEM_CACTVS_TAUTO_COUNT>  (1) 
2

>  <PUBCHEM_CONFORMER_ID>  (1) 
00003F7700000001

>  <PUBCHEM_MMFF94_ENERGY>  (1) 
61.4335

>  <PUBCHEM_FEATURE_SELFOVERLAP>  (1) 
20.297

>  <PUBCHEM_SHAPE_FINGERPRINT>  (1) 
11132069 177 18410856564061435598
11401426 45 18412539895321396901
12119455 92 17275099514095876556
12236239 1 17530965783112211620
12251169 10 18410012139300199444
124424 183 17603585231818445517
13140716 1 18266750253936285545
13214271 11 18202279242679585198
13380535 76 18341897381106561023
13675066 3 17748828522702557356
15048467 5 13470696928000299123
15209294 21 17773890709379381041
15375462 189 17749104509001175392
16945 1 18410586075959234277
18175812 5 17988922314281862652
200 152 15213020449100519564
20279233 1 17703795833791183950
20510252 161 18270963418974306384
20528008 55 18272645757600423669
20600515 1 18270695224026074788
21339142 149 17418098728477824287
21501502 16 18122353633780631549
21637258 2 15719677670690652633
22485316 2 14707205513383139216
23402539 116 18342447137030913613
23559900 14 18341611547254600028
25147074 1 18122075453180883189
265663 24 16128653037564797308
26918003 58 16732700545420757080
2748010 2 18124041384287445389
5104073 3 18339921640689879304
69090 78 17988920067813701935

>  <PUBCHEM_SHAPE_MULTIPOLES>  (1) 
286.99
8.66
1.42
1.08
7.84
0.57
-0.36
-0.41
-2.21
-1.08
0.13
-0.42
-0.11
-0.1

>  <PUBCHEM_SHAPE_SELFOVERLAP>  (1) 
584.271

>  <PUBCHEM_SHAPE_VOLUME>  (1) 
167

>  <PUBCHEM_COORDINATE_TYPE>  (1) 
2
5
10

$$$$
