16255
     RDKit          3D

 15 14  0  0  0  0  0  0  0  0999 V2000
   -1.9311   -0.3627    0.1190 O   0  0  0  0  0  0  0  0  0  0  0  0
   -0.8368    1.6496    0.3907 O   0  0  0  0  0  0  0  0  0  0  0  0
    2.9506   -0.4721   -0.0896 C   0  0  0  0  0  0  0  0  0  0  0  0
    4.2321    0.3564    0.0214 C   0  0  0  0  0  0  0  0  0  0  0  0
    1.7083    0.3936    0.1432 C   0  0  0  0  0  0  0  0  0  0  0  0
    5.4752   -0.5127   -0.1778 C   0  0  0  0  0  0  0  0  0  0  0  0
   -5.7183   -0.1204    0.1486 C   0  0  0  0  0  0  0  0  0  0  0  0
   -4.3057   -0.7227    0.0803 C   0  0  0  0  0  0  0  0  0  0  0  0
    0.4120   -0.4128    0.0662 C   0  0  0  0  0  0  0  0  0  0  0  0
    6.7563    0.3082   -0.0339 C   0  0  0  0  0  0  0  0  0  0  0  0
   -3.1917    0.3082    0.2169 C   0  0  0  0  0  0  0  0  0  0  0  0
   -5.9053    0.8958   -0.9803 C   0  0  0  0  0  0  0  0  0  0  0  0
   -6.8111   -1.1874    0.0693 C   0  0  0  0  0  0  0  0  0  0  0  0
   -0.8291    0.4376    0.2240 C   0  0  0  0  0  0  0  0  0  0  0  0
    7.9947   -0.5585   -0.1979 C   0  0  0  0  0  0  0  0  0  0  0  0
  1 11  1  0
  1 14  1  0
  2 14  2  0
  3  4  1  0
  3  5  1  0
  4  6  1  0
  5  9  1  0
  6 10  1  0
  7  8  1  0
  7 12  1  0
  7 13  1  0
  8 11  1  0
  9 14  1  0
 10 15  1  0
M  END
>  <PUBCHEM_COMPOUND_CID>  (1) 
16255

>  <PUBCHEM_CONFORMER_RMSD>  (1) 
1

>  <PUBCHEM_CONFORMER_DIVERSEORDER>  (1) 
1
35
125
6
5
171
124
136
48
26
224
27
104
173
64
184
2
150
181
217
84
166
222
93
121
198
36
14
148
186
194
165
29
111
43
3
215
192
58
62
122
164
187
68
8
158
135
226
102
23
49
112
147
32
75
61
152
139
31
66
204
116
138
174
71
209
211
89
144
193
146
118
169
126
228
78
56
79
22
132
201
65
133
21
51
30
10
52
197
199
85
151
4
70
195
50
137
123
208
155
183
39
143
176
80
96
20
42
13
200
7
115
119
108
38
81
159
105
33
69
44
180
140
55
18
203
154
59
218
46
157
15
168
188
170
216
76
214
82
87
177
212
19
129
160
117
130
213
67
11
221
145
225
219
24
12
41
92
190
162
182
91
37
189
175
97
17
45
107
196
90
60
142
73
98
40
77
99
16
34
210
109
156
161
178
28
54
127
223
9
53
114
167
153
63
100
172
131
227
149
103
113
72
83
206
185
88
207
25
106
120
95
134
94
220
86
128
163
205
74
202
179
191
101
57
141
110
47

>  <PUBCHEM_MMFF94_PARTIAL_CHARGES>  (1) 
5
1 -0.43
11 0.28
14 0.66
2 -0.57
9 0.06

>  <PUBCHEM_EFFECTIVE_ROTOR_COUNT>  (1) 
10

>  <PUBCHEM_PHARMACOPHORE_FEATURES>  (1) 
5
1 15 hydrophobe
1 2 acceptor
3 3 5 9 hydrophobe
3 4 6 10 hydrophobe
3 7 12 13 hydrophobe

>  <PUBCHEM_HEAVY_ATOM_COUNT>  (1) 
15

>  <PUBCHEM_ATOM_DEF_STEREO_COUNT>  (1) 
0

>  <PUBCHEM_ATOM_UDEF_STEREO_COUNT>  (1) 
0

>  <PUBCHEM_BOND_DEF_STEREO_COUNT>  (1) 
0

>  <PUBCHEM_BOND_UDEF_STEREO_COUNT>  (1) 
0

>  <PUBCHEM_ISOTOPIC_ATOM_COUNT>  (1) 
0

>  <PUBCHEM_COMPONENT_COUNT>  (1) 
1

>  <PUBCHEM_CACTVS_TAUTO_COUNT>  (1) 
1

>  <PUBCHEM_CONFORMER_ID>  (1) 
00003F7F00000001

>  <PUBCHEM_MMFF94_ENERGY>  (1) 
5.3923

>  <PUBCHEM_FEATURE_SELFOVERLAP>  (1) 
25.386

>  <PUBCHEM_SHAPE_FINGERPRINT>  (1) 
10066227 49 18340207372191131190
10968037 39 18411419514347218027
11315181 36 18272373079492215033
12091667 2 17748828514682263577
12714333 28 16515404066675960472
13288520 33 18411981382490990263
13533116 47 16805873014711948256
13964095 4 18040714753652590253
14123256 10 18343584040517328550
1420 363 17988927772969043886
14251764 18 10015862072599853792
14251764 46 16515404071171491787
14729087 3 8214149542652201791
15716309 27 16415480449912035662
17834076 25 16515402971390754170
18006028 8 17847061086098396992
20281389 69 10159701279152373466
20621476 8 14851597752535020703
20767249 213 7997967973209013834
21150785 3 17168144550531897978
21267235 1 18342181080559455865
21315763 28 18187365445337934268
22224240 67 15626500593156206790
23035841 295 18343865528226096715
23402539 116 18409164424150714951
23521765 1 18342176670060539930
23536379 177 16877659050156266937
23559900 14 18340482373817995136
246663 6 17418099815062254918
33684 2 18187363229240297931
42788 4 18261110781493116781
4463277 17 18412825793629216424
57583515 80 17822013107384437433
59755656 520 17385438851734037946
8209 1 18334013895725355430

>  <PUBCHEM_SHAPE_MULTIPOLES>  (1) 
296.95
22.49
1.05
0.69
14.65
0.12
-0.06
-4.33
-2.8
-0.92
0.01
-0.34
0.07
0.47

>  <PUBCHEM_SHAPE_SELFOVERLAP>  (1) 
541.89

>  <PUBCHEM_SHAPE_VOLUME>  (1) 
189.8

>  <PUBCHEM_COORDINATE_TYPE>  (1) 
2
5
10

$$$$
