16262
     RDKit          3D

 20 22  0  0  0  0  0  0  0  0999 V2000
    0.0818    0.4503   -0.0303 N   0  0  0  0  0  0  0  0  0  0  0  0
    1.1713   -1.6830    0.1109 N   0  0  0  0  0  0  0  0  0  0  0  0
   -1.2250   -1.5575    0.1056 N   0  0  0  0  0  0  0  0  0  0  0  0
   -0.1321   -3.6282    0.2423 N   0  0  0  0  0  0  0  0  0  0  0  0
   -2.2847    0.5563   -0.0341 C   0  0  0  0  0  0  0  0  0  0  0  0
    2.4462    0.3089   -0.0243 C   0  0  0  0  0  0  0  0  0  0  0  0
   -1.0711   -0.2300    0.0166 C   0  0  0  0  0  0  0  0  0  0  0  0
    1.1639   -0.3432    0.0213 C   0  0  0  0  0  0  0  0  0  0  0  0
   -0.0584   -2.2211    0.1483 C   0  0  0  0  0  0  0  0  0  0  0  0
   -2.2990    1.8509    0.4853 C   0  0  0  0  0  0  0  0  0  0  0  0
   -3.4401    0.0202   -0.6026 C   0  0  0  0  0  0  0  0  0  0  0  0
    2.6000    1.5987    0.4946 C   0  0  0  0  0  0  0  0  0  0  0  0
    3.5488   -0.3422   -0.5871 C   0  0  0  0  0  0  0  0  0  0  0  0
   -3.4687    2.6092    0.4363 C   0  0  0  0  0  0  0  0  0  0  0  0
   -4.6098    0.7786   -0.6516 C   0  0  0  0  0  0  0  0  0  0  0  0
    3.8427    2.2306    0.4507 C   0  0  0  0  0  0  0  0  0  0  0  0
    4.7916    0.2898   -0.6308 C   0  0  0  0  0  0  0  0  0  0  0  0
   -4.6240    2.0731   -0.1321 C   0  0  0  0  0  0  0  0  0  0  0  0
    4.9384    1.5763   -0.1118 C   0  0  0  0  0  0  0  0  0  0  0  0
   -1.3718   -4.3376    0.2928 C   0  0  0  0  0  0  0  0  0  0  0  0
  1  7  2  0
  1  8  1  0
  2  8  2  0
  2  9  1  0
  3  7  1  0
  3  9  2  0
  4  9  1  0
  4 20  1  0
  5  7  1  0
  5 10  2  0
  5 11  1  0
  6  8  1  0
  6 12  2  0
  6 13  1  0
 10 14  1  0
 11 15  2  0
 12 16  1  0
 13 17  2  0
 14 18  2  0
 15 18  1  0
 16 19  2  0
 17 19  1  0
M  END
>  <PUBCHEM_COMPOUND_CID>  (1) 
16262

>  <PUBCHEM_CONFORMER_RMSD>  (1) 
0.6

>  <PUBCHEM_CONFORMER_DIVERSEORDER>  (1) 
1
3
2

>  <PUBCHEM_MMFF94_PARTIAL_CHARGES>  (1) 
29
1 -0.62
10 -0.15
11 -0.15
12 -0.15
13 -0.15
14 -0.15
15 -0.15
16 -0.15
17 -0.15
18 -0.15
19 -0.15
2 -0.62
20 0.37
21 0.15
22 0.15
23 0.15
24 0.15
25 0.15
26 0.15
27 0.15
28 0.15
29 0.15
3 -0.62
30 0.15
31 0.4
4 -0.87
7 0.62
8 0.62
9 0.72

>  <PUBCHEM_EFFECTIVE_ROTOR_COUNT>  (1) 
3

>  <PUBCHEM_PHARMACOPHORE_FEATURES>  (1) 
5
1 4 donor
4 2 3 4 9 cation
6 1 2 3 7 8 9 rings
6 5 10 11 14 15 18 rings
6 6 12 13 16 17 19 rings

>  <PUBCHEM_HEAVY_ATOM_COUNT>  (1) 
20

>  <PUBCHEM_ATOM_DEF_STEREO_COUNT>  (1) 
0

>  <PUBCHEM_ATOM_UDEF_STEREO_COUNT>  (1) 
0

>  <PUBCHEM_BOND_DEF_STEREO_COUNT>  (1) 
0

>  <PUBCHEM_BOND_UDEF_STEREO_COUNT>  (1) 
0

>  <PUBCHEM_ISOTOPIC_ATOM_COUNT>  (1) 
0

>  <PUBCHEM_COMPONENT_COUNT>  (1) 
1

>  <PUBCHEM_CACTVS_TAUTO_COUNT>  (1) 
3

>  <PUBCHEM_CONFORMER_ID>  (1) 
00003F8600000001

>  <PUBCHEM_MMFF94_ENERGY>  (1) 
63.9408

>  <PUBCHEM_FEATURE_SELFOVERLAP>  (1) 
25.373

>  <PUBCHEM_SHAPE_FINGERPRINT>  (1) 
10319926 262 18125421241991091928
10411042 1 17473545132186763514
10498660 4 18338511950376646605
10608611 8 18198624539597416832
12173636 292 18410571824788182908
12390115 104 18269293351153545473
12500047 106 18410575132482732172
12730499 353 18336837373082318009
12769317 202 18267573607525300317
12788726 201 17756419723012024130
12969540 114 18189035586579276165
13140716 1 18262237703423347875
13583140 156 17023177279515137537
138480 1 17545882629190156507
13878862 14 17541083283048704469
13955234 65 18048322137567314859
14123255 52 18410291397794229968
14178342 30 18191854842294252210
14790565 3 18410017593761667444
15042514 8 18047760578946349043
15196674 1 18412825772159940428
15664445 248 17408815319328366679
1741750 31 18409445916565835474
17539 30 18053658367628170799
19591789 44 18337672997202532078
19784866 34 18339360769242431945
204376 136 18407761421744374253
20510252 161 18269278030936460195
20602899 9 15554170358356507534
21033648 29 18411976983511647633
21049683 118 18191280815071737465
212916 134 18269817797004538624
21307412 95 17985574199066892486
21524375 3 18260266317628931810
22182313 1 18265358194627047967
22182937 141 18341339992898079856
2255824 54 18051409565965252483
22950370 63 9439398055794413092
23366157 5 17828206497807896507
23402539 116 18343013415188499772
23402655 69 18131349687410954316
23557571 272 18197223770046251078
23558518 356 17900258908031021936
23559900 14 18343304791093183180
23845131 108 18335994056448973155
283562 15 17901379318785622354
3091708 16 9194657715434025923
335352 9 18410575046989652974
3759504 43 18335421287488298959
394222 165 18187358771032681546
4028521 119 18342737420616640101
474 4 18338233743953859657
474229 33 18336267933507373251
5104073 3 18335422335396958033
5486654 2 18338797931279803399
59755656 520 18334571352315580086
6138700 20 18053388700160135142
633830 44 18272086046237129221
7164475 11 17904206171849040646
7364860 26 18050567335594402335
77188 2 17256812724513649887
7808743 9 18263925613118576112
81228 2 17900261110932727882
84936 182 18198619939075480929
9709674 26 18271813488045041622
9981440 41 18408319961008905081

>  <PUBCHEM_SHAPE_MULTIPOLES>  (1) 
391.67
9.59
3.95
0.74
3
5.06
0.03
-8.7
1.58
-2.23
-0.87
0
-0.09
0.24

>  <PUBCHEM_SHAPE_SELFOVERLAP>  (1) 
860.185

>  <PUBCHEM_SHAPE_VOLUME>  (1) 
204.6

>  <PUBCHEM_COORDINATE_TYPE>  (1) 
2
5
10

$$$$
