16263
     RDKit          3D

  9  9  0  0  0  0  0  0  0  0999 V2000
    3.6252   -0.2674    0.1125 Br  0  0  0  0  0  0  0  0  0  0  0  0
   -1.0243    0.2142   -0.1080 C   0  0  0  0  0  0  0  0  0  0  0  0
   -0.2101    1.3426   -0.0114 C   0  0  0  0  0  0  0  0  0  0  0  0
   -0.4526   -1.0578   -0.1389 C   0  0  0  0  0  0  0  0  0  0  0  0
    1.1758    1.1990    0.0542 C   0  0  0  0  0  0  0  0  0  0  0  0
    0.9333   -1.2013   -0.0731 C   0  0  0  0  0  0  0  0  0  0  0  0
    1.7475   -0.0729    0.0235 C   0  0  0  0  0  0  0  0  0  0  0  0
   -2.4694    0.3638   -0.1766 C   0  0  0  0  0  0  0  0  0  0  0  0
   -3.3254   -0.5201    0.3177 C   0  0  0  0  0  0  0  0  0  0  0  0
  1  7  1  0
  2  3  2  0
  2  4  1  0
  2  8  1  0
  3  5  1  0
  4  6  2  0
  5  7  2  0
  6  7  1  0
  8  9  2  0
M  END
>  <PUBCHEM_COMPOUND_CID>  (1) 
16263

>  <PUBCHEM_CONFORMER_RMSD>  (1) 
0.4

>  <PUBCHEM_CONFORMER_DIVERSEORDER>  (1) 
1

>  <PUBCHEM_MMFF94_PARTIAL_CHARGES>  (1) 
16
1 -0.11
10 0.15
11 0.15
12 0.15
13 0.15
14 0.15
15 0.15
16 0.15
2 0.03
3 -0.15
4 -0.15
5 -0.15
6 -0.15
7 0.11
8 -0.18
9 -0.3

>  <PUBCHEM_EFFECTIVE_ROTOR_COUNT>  (1) 
1

>  <PUBCHEM_PHARMACOPHORE_FEATURES>  (1) 
3
1 1 hydrophobe
1 9 hydrophobe
6 2 3 4 5 6 7 rings

>  <PUBCHEM_HEAVY_ATOM_COUNT>  (1) 
9

>  <PUBCHEM_ATOM_DEF_STEREO_COUNT>  (1) 
0

>  <PUBCHEM_ATOM_UDEF_STEREO_COUNT>  (1) 
0

>  <PUBCHEM_BOND_DEF_STEREO_COUNT>  (1) 
0

>  <PUBCHEM_BOND_UDEF_STEREO_COUNT>  (1) 
0

>  <PUBCHEM_ISOTOPIC_ATOM_COUNT>  (1) 
0

>  <PUBCHEM_COMPONENT_COUNT>  (1) 
1

>  <PUBCHEM_CACTVS_TAUTO_COUNT>  (1) 
1

>  <PUBCHEM_CONFORMER_ID>  (1) 
00003F8700000001

>  <PUBCHEM_MMFF94_ENERGY>  (1) 
22.4921

>  <PUBCHEM_FEATURE_SELFOVERLAP>  (1) 
15.223

>  <PUBCHEM_SHAPE_FINGERPRINT>  (1) 
10219947 1 18342458140404679678
10857977 72 18410003334421908129
11062470 55 10231757785977714258
12032990 46 18411143515258806382
14325111 11 18410292518865044780
15310529 11 16733254677848316150
16945 1 18413665807606544054
193761 8 17690560105904765662
20201158 50 18334576828414726019
21040471 1 18195527218929875413
21293036 1 18408047320748286188
23235685 24 18412538812630727424
23402655 69 18195789788405276077
23552423 10 17973168331274942574
2748010 2 18122624117756540598
29004967 10 18409169891860314961
5084963 1 17967532380493914733

>  <PUBCHEM_SHAPE_MULTIPOLES>  (1) 
191.16
5
1.32
0.65
0.45
0.13
0.01
-0.78
0.44
0.1
-0.01
0.01
-0.01
0.08

>  <PUBCHEM_SHAPE_SELFOVERLAP>  (1) 
380.379

>  <PUBCHEM_SHAPE_VOLUME>  (1) 
113.6

>  <PUBCHEM_COORDINATE_TYPE>  (1) 
2
5
10

$$$$
