1627
     RDKit          3D

 24 27  0  0  1  0  0  0  0  0999 V2000
    2.0450   -2.1382   -0.0518 O   0  0  0  0  0  0  0  0  0  0  0  0
    1.2936    3.2057   -0.3244 O   0  0  0  0  0  0  0  0  0  0  0  0
   -1.2194   -2.9755   -1.1352 O   0  0  0  0  0  0  0  0  0  0  0  0
    4.2444   -0.5110   -0.2815 N   0  0  0  0  0  0  0  0  0  0  0  0
   -0.9870    1.2877   -0.0754 N   0  0  0  0  0  0  0  0  0  0  0  0
    5.2906    0.0118    0.5929 C   0  0  0  0  0  0  0  0  0  0  0  0
    4.6576   -1.3109    0.8682 C   0  0  0  0  0  0  0  0  0  0  0  0
    2.9995    0.0529   -0.2402 C   0  0  0  0  0  0  0  0  0  0  0  0
    6.7087    0.0735    0.1635 C   0  0  0  0  0  0  0  0  0  0  0  0
    0.5436   -0.3265   -0.0700 C   0  0  0  0  0  0  0  0  0  0  0  0
    1.8578   -0.9285   -0.1131 C   0  0  0  0  0  0  0  0  0  0  0  0
    0.3572    1.0372   -0.1397 C   0  0  0  0  0  0  0  0  0  0  0  0
    2.7870    1.3821   -0.3063 C   0  0  0  0  0  0  0  0  0  0  0  0
   -0.7386   -0.9208    0.0416 C   0  0  0  0  0  0  0  0  0  0  0  0
   -1.6650    0.1003    0.0353 C   0  0  0  0  0  0  0  0  0  0  0  0
    1.4241    1.9875   -0.2602 C   0  0  0  0  0  0  0  0  0  0  0  0
   -1.0326   -2.3664    0.1443 C   0  0  0  0  0  0  0  0  0  0  0  0
   -3.1081    0.0275    0.1247 C   0  0  0  0  0  0  0  0  0  0  0  0
   -1.6010    2.5991   -0.1171 C   0  0  0  0  0  0  0  0  0  0  0  0
   -3.7266    0.0645    1.3716 C   0  0  0  0  0  0  0  0  0  0  0  0
   -3.8699   -0.0800   -1.0359 C   0  0  0  0  0  0  0  0  0  0  0  0
   -5.1169   -0.0065    1.4587 C   0  0  0  0  0  0  0  0  0  0  0  0
   -5.2603   -0.1510   -0.9487 C   0  0  0  0  0  0  0  0  0  0  0  0
   -5.8838   -0.1142    0.2987 C   0  0  0  0  0  0  0  0  0  0  0  0
  1 11  2  0
  2 16  2  0
  3 17  1  0
  4  6  1  0
  4  7  1  0
  4  8  1  0
  5 12  1  0
  5 15  1  0
  5 19  1  0
  6  7  1  0
  6  9  1  0
  8 11  1  0
  8 13  2  0
 10 11  1  0
 10 12  2  0
 10 14  1  0
 12 16  1  0
 13 16  1  0
 14 15  2  0
 14 17  1  0
 15 18  1  0
 18 20  2  0
 18 21  1  0
 20 22  1  0
 21 23  2  0
 22 24  2  0
 23 24  1  0
M  END
>  <PUBCHEM_COMPOUND_CID>  (1) 
1627

>  <PUBCHEM_CONFORMER_RMSD>  (1) 
0.6

>  <PUBCHEM_CONFORMER_DIVERSEORDER>  (1) 
1
6
5
2
3
4

>  <PUBCHEM_MMFF94_PARTIAL_CHARGES>  (1) 
34
1 -0.57
10 -0.09
11 0.64
12 -0.24
13 -0.14
14 -0.18
15 -0.2
16 0.64
17 0.46
18 0.05
19 0.26
2 -0.57
20 -0.15
21 -0.15
22 -0.15
23 -0.15
24 -0.15
25 0.1
26 0.1
27 0.1
3 -0.68
31 0.15
37 0.15
38 0.15
39 0.4
4 -0.44
40 0.15
41 0.15
42 0.15
5 0.05
6 -0.03
7 -0.03
8 0.11
9 0.09

>  <PUBCHEM_EFFECTIVE_ROTOR_COUNT>  (1) 
3.6

>  <PUBCHEM_PHARMACOPHORE_FEATURES>  (1) 
9
1 1 acceptor
1 2 acceptor
1 3 acceptor
1 3 donor
1 4 cation
1 5 cation
5 5 10 12 14 15 rings
6 18 20 21 22 23 24 rings
6 8 10 11 12 13 16 rings

>  <PUBCHEM_HEAVY_ATOM_COUNT>  (1) 
24

>  <PUBCHEM_ATOM_DEF_STEREO_COUNT>  (1) 
0

>  <PUBCHEM_ATOM_UDEF_STEREO_COUNT>  (1) 
1

>  <PUBCHEM_BOND_DEF_STEREO_COUNT>  (1) 
0

>  <PUBCHEM_BOND_UDEF_STEREO_COUNT>  (1) 
0

>  <PUBCHEM_ISOTOPIC_ATOM_COUNT>  (1) 
0

>  <PUBCHEM_COMPONENT_COUNT>  (1) 
1

>  <PUBCHEM_CACTVS_TAUTO_COUNT>  (1) 
1

>  <PUBCHEM_CONFORMER_ID>  (1) 
0000065B00000001

>  <PUBCHEM_MMFF94_ENERGY>  (1) 
77.0034

>  <PUBCHEM_FEATURE_SELFOVERLAP>  (1) 
45.757

>  <PUBCHEM_SHAPE_FINGERPRINT>  (1) 
10 15 18187920721213660440
10688039 33 17894912901686591060
10906281 52 18340786900205689636
10967382 1 18410295817299578021
1100329 8 18338516455643722722
11545043 162 16732989747423480561
11578080 2 17272560900539981762
11796584 16 16515404057985845410
12011746 2 18409728448130777294
12236239 1 17846781815294132877
12553582 1 18411426111258755412
12633257 1 18412829113654481324
12715332 25 18341893025988318359
12838862 33 18338496600036325940
13140716 1 18266744769051902634
13533116 47 17417814985737782662
13540713 5 18052259784383663342
13583140 156 17748825233095550435
13862211 1 18409444778162235458
14466204 15 18269560442522568313
14790565 3 18411147921684781652
14849402 71 17845651594223813624
15099037 51 18408322198344143151
15196674 1 18337673147315332383
16945 1 18410578404715165764
17349148 13 18272933834194945953
17492 89 17972592183393800218
19141452 34 18272087236127770638
19489759 90 16081087065573565159
200 152 18341326726018480269
20028762 73 18201154442569993223
21033648 29 17895177935908170773
21033650 10 16413825693344211120
21236236 1 18337389327587697605
21267235 1 18335989684124746874
21641784 216 17896337847750942268
21682296 61 18267026042276673498
22182313 1 18196094343649394796
23184049 59 18410300237311587869
2334 1 17906174310215313004
23402539 116 18343013380923459981
23536379 177 15285356206631946024
23559900 14 18269548502613400064
23569943 247 17700148611809680342
23622692 88 18410857681037795150
25147074 1 18196373838704295094
26918003 58 17967536774530165441
2748010 2 18122628249541479284
283562 15 18339923697710539001
3178227 256 18334587845274651691
335352 9 18410011060978396598
34934 24 18408879638240015730
350125 39 18410293584028146289
4340502 62 14764631918980286725
465052 167 18187656820456946451
5104073 3 18267025131505542147
7495541 125 17677062333553078409

>  <PUBCHEM_SHAPE_MULTIPOLES>  (1) 
466.34
12.55
2.42
0.97
3.89
0.46
0.14
-1.51
2.29
0.62
-0.47
-0.99
-0.17
-0.43

>  <PUBCHEM_SHAPE_SELFOVERLAP>  (1) 
1031.887

>  <PUBCHEM_SHAPE_VOLUME>  (1) 
254

>  <PUBCHEM_COORDINATE_TYPE>  (1) 
2
5
10

$$$$
