16272
     RDKit          3D

  9  9  0  0  0  0  0  0  0  0999 V2000
    0.9896   -2.4741    0.0003 Br  0  0  0  0  0  0  0  0  0  0  0  0
    2.9715    0.7992    0.0005 N   0  0  0  0  0  0  0  0  0  0  0  0
    0.4174    0.3644   -0.0007 C   0  0  0  0  0  0  0  0  0  0  0  0
   -0.1127   -0.9259   -0.0006 C   0  0  0  0  0  0  0  0  0  0  0  0
   -0.4350    1.4686   -0.0002 C   0  0  0  0  0  0  0  0  0  0  0  0
   -1.4952   -1.1118    0.0000 C   0  0  0  0  0  0  0  0  0  0  0  0
   -1.8174    1.2825    0.0003 C   0  0  0  0  0  0  0  0  0  0  0  0
   -2.3476   -0.0077    0.0004 C   0  0  0  0  0  0  0  0  0  0  0  0
    1.8294    0.6047    0.0000 C   0  0  0  0  0  0  0  0  0  0  0  0
  1  4  1  0
  2  9  3  0
  3  4  2  0
  3  5  1  0
  3  9  1  0
  4  6  1  0
  5  7  2  0
  6  8  2  0
  7  8  1  0
M  END
>  <PUBCHEM_COMPOUND_CID>  (1) 
16272

>  <PUBCHEM_CONFORMER_RMSD>  (1) 
0.4

>  <PUBCHEM_CONFORMER_DIVERSEORDER>  (1) 
1

>  <PUBCHEM_MMFF94_PARTIAL_CHARGES>  (1) 
13
1 -0.11
10 0.15
11 0.15
12 0.15
13 0.15
2 -0.56
3 0.07
4 0.11
5 -0.15
6 -0.15
7 -0.15
8 -0.15
9 0.48

>  <PUBCHEM_EFFECTIVE_ROTOR_COUNT>  (1) 
0

>  <PUBCHEM_PHARMACOPHORE_FEATURES>  (1) 
3
1 1 hydrophobe
1 2 acceptor
6 3 4 5 6 7 8 rings

>  <PUBCHEM_HEAVY_ATOM_COUNT>  (1) 
9

>  <PUBCHEM_ATOM_DEF_STEREO_COUNT>  (1) 
0

>  <PUBCHEM_ATOM_UDEF_STEREO_COUNT>  (1) 
0

>  <PUBCHEM_BOND_DEF_STEREO_COUNT>  (1) 
0

>  <PUBCHEM_BOND_UDEF_STEREO_COUNT>  (1) 
0

>  <PUBCHEM_ISOTOPIC_ATOM_COUNT>  (1) 
0

>  <PUBCHEM_COMPONENT_COUNT>  (1) 
1

>  <PUBCHEM_CACTVS_TAUTO_COUNT>  (1) 
1

>  <PUBCHEM_CONFORMER_ID>  (1) 
00003F9000000001

>  <PUBCHEM_MMFF94_ENERGY>  (1) 
17.2013

>  <PUBCHEM_FEATURE_SELFOVERLAP>  (1) 
15.223

>  <PUBCHEM_SHAPE_FINGERPRINT>  (1) 
14325111 11 18410856572888935168
16945 1 18410573998252773765
193761 8 18122624955349048709
20871998 184 17910964861135058606
21040471 1 18410856546760324833
23235685 24 18408880754677960757
23552423 10 18263648368077496934
241688 4 16611105236508715347
2748010 2 18264773147298295887
369184 2 18201155554675735352
5084963 1 17987240108424769217

>  <PUBCHEM_SHAPE_MULTIPOLES>  (1) 
186.18
3.16
2.22
0.62
0.48
1.04
0
-0.76
0
0.96
0
0
0.05
0

>  <PUBCHEM_SHAPE_SELFOVERLAP>  (1) 
374.012

>  <PUBCHEM_SHAPE_VOLUME>  (1) 
111.9

>  <PUBCHEM_COORDINATE_TYPE>  (1) 
2
5
10

$$$$
