16284
     RDKit          3D

 13 13  0  0  0  0  0  0  0  0999 V2000
    2.5856    3.7767   -0.0212 Br  0  0  0  0  0  0  0  0  0  0  0  0
    2.5761   -3.7830    0.0349 Br  0  0  0  0  0  0  0  0  0  0  0  0
    0.7826   -0.0010   -0.0088 N   0  0  0  0  0  0  0  0  0  0  0  0
    1.5194    1.1613    0.4461 C   0  0  0  0  0  0  0  0  0  0  0  0
    1.5137   -1.1702   -0.4553 C   0  0  0  0  0  0  0  0  0  0  0  0
   -0.6278    0.0008   -0.0045 C   0  0  0  0  0  0  0  0  0  0  0  0
    1.5802    2.2232   -0.6348 C   0  0  0  0  0  0  0  0  0  0  0  0
    1.5784   -2.2201    0.6371 C   0  0  0  0  0  0  0  0  0  0  0  0
   -1.3227    1.1259    0.4397 C   0  0  0  0  0  0  0  0  0  0  0  0
   -1.3278   -1.1229   -0.4439 C   0  0  0  0  0  0  0  0  0  0  0  0
   -2.7176    1.1271    0.4445 C   0  0  0  0  0  0  0  0  0  0  0  0
   -2.7227   -1.1214   -0.4391 C   0  0  0  0  0  0  0  0  0  0  0  0
   -3.4175    0.0036    0.0052 C   0  0  0  0  0  0  0  0  0  0  0  0
  1  7  1  0
  2  8  1  0
  3  4  1  0
  3  5  1  0
  3  6  1  0
  4  7  1  0
  5  8  1  0
  6  9  2  0
  6 10  1  0
  9 11  1  0
 10 12  2  0
 11 13  2  0
 12 13  1  0
M  END
>  <PUBCHEM_COMPOUND_CID>  (1) 
16284

>  <PUBCHEM_CONFORMER_RMSD>  (1) 
0.6

>  <PUBCHEM_CONFORMER_DIVERSEORDER>  (1) 
7
23
45
39
42
50
46
27
35
44
5
47
38
28
4
37
41
21
14
19
53
1
25
30
6
40
34
52
12
22
31
8
51
43
29
54
33
26
2
13
32
24
49
15
3
17
36
10
9
11
48
20
18
16

>  <PUBCHEM_MMFF94_PARTIAL_CHARGES>  (1) 
18
1 -0.23
10 -0.15
11 -0.15
12 -0.15
13 -0.15
2 -0.23
22 0.15
23 0.15
24 0.15
25 0.15
26 0.15
3 -0.84
4 0.37
5 0.37
6 0.1
7 0.23
8 0.23
9 -0.15

>  <PUBCHEM_EFFECTIVE_ROTOR_COUNT>  (1) 
5

>  <PUBCHEM_PHARMACOPHORE_FEATURES>  (1) 
4
1 1 hydrophobe
1 2 hydrophobe
1 3 cation
6 6 9 10 11 12 13 rings

>  <PUBCHEM_HEAVY_ATOM_COUNT>  (1) 
13

>  <PUBCHEM_ATOM_DEF_STEREO_COUNT>  (1) 
0

>  <PUBCHEM_ATOM_UDEF_STEREO_COUNT>  (1) 
0

>  <PUBCHEM_BOND_DEF_STEREO_COUNT>  (1) 
0

>  <PUBCHEM_BOND_UDEF_STEREO_COUNT>  (1) 
0

>  <PUBCHEM_ISOTOPIC_ATOM_COUNT>  (1) 
0

>  <PUBCHEM_COMPONENT_COUNT>  (1) 
1

>  <PUBCHEM_CACTVS_TAUTO_COUNT>  (1) 
1

>  <PUBCHEM_CONFORMER_ID>  (1) 
00003F9C00000007

>  <PUBCHEM_MMFF94_ENERGY>  (1) 
40.5686

>  <PUBCHEM_FEATURE_SELFOVERLAP>  (1) 
20.297

>  <PUBCHEM_SHAPE_FINGERPRINT>  (1) 
11357001 24 17255117848824572578
15042514 8 17112413871264606690
16945 1 18410011039756734735
17841504 4 18336552599212196731
19021347 4 17905048401940081760
20645476 183 17612586031250480396
20671657 1 18411708681156766268
20871998 184 17478601313753068950
21426921 1 17401488144303499318
21524375 3 18055072318211889140
21650355 55 17904752285314812514
2255824 54 18410857680848027390
23402539 116 17623284283641731284
23419403 2 13415714735902599722
23552423 10 18411699911181635927
23598294 1 16966604868320133754
2748010 2 18050836724358698508
305870 269 18264203789159184476
3071541 12 18411142441485151988
3071541 236 17472407124940582752
3091708 16 9183682403387130544
4175511 71 18122914131022779619
43471831 8 18194398016235360714
57177213 63 18267584787409106549
6992083 37 17839190605989109401
7364860 26 18412263934718508674
81228 2 17471292847236030362
90316 7 17761771767458169386

>  <PUBCHEM_SHAPE_MULTIPOLES>  (1) 
274.44
4.94
4.72
0.78
3.03
0.07
0
-0.06
0.01
-7.49
0.02
-0.06
0
-0.56

>  <PUBCHEM_SHAPE_SELFOVERLAP>  (1) 
519.674

>  <PUBCHEM_SHAPE_VOLUME>  (1) 
175.6

>  <PUBCHEM_COORDINATE_TYPE>  (1) 
2
5
10

$$$$
