16287
     RDKit          3D

 20 20  0  0  0  0  0  0  0  0999 V2000
    4.6078   -3.6473   -0.6010 Cl  0  0  0  0  0  0  0  0  0  0  0  0
    5.3745    2.9526   -1.0297 Cl  0  0  0  0  0  0  0  0  0  0  0  0
   -4.5993    0.4606    0.2984 O   0  0  0  0  0  0  0  0  0  0  0  0
   -3.2667   -1.3914    0.4555 O   0  0  0  0  0  0  0  0  0  0  0  0
    3.1637   -0.0479    0.5254 N   0  0  0  0  0  0  0  0  0  0  0  0
   -2.3682    0.7716    0.3345 N   0  0  0  0  0  0  0  0  0  0  0  0
    1.7692    0.1586    0.4772 C   0  0  0  0  0  0  0  0  0  0  0  0
    3.7035   -1.3880    0.6409 C   0  0  0  0  0  0  0  0  0  0  0  0
    4.0745    1.0784    0.4739 C   0  0  0  0  0  0  0  0  0  0  0  0
    1.2589    1.4530    0.3795 C   0  0  0  0  0  0  0  0  0  0  0  0
    0.9005   -0.9315    0.5280 C   0  0  0  0  0  0  0  0  0  0  0  0
    3.9342   -2.0033   -0.7304 C   0  0  0  0  0  0  0  0  0  0  0  0
    4.2646    1.5614   -0.9553 C   0  0  0  0  0  0  0  0  0  0  0  0
   -0.9888    0.5673    0.3833 C   0  0  0  0  0  0  0  0  0  0  0  0
   -0.1202    1.6575    0.3326 C   0  0  0  0  0  0  0  0  0  0  0  0
   -0.4785   -0.7272    0.4810 C   0  0  0  0  0  0  0  0  0  0  0  0
   -5.6588   -0.2743   -0.3254 C   0  0  0  0  0  0  0  0  0  0  0  0
   -3.3886   -0.1754    0.3718 C   0  0  0  0  0  0  0  0  0  0  0  0
   -6.9314    0.5582   -0.2940 C   0  0  0  0  0  0  0  0  0  0  0  0
   -5.2509   -0.6327   -1.7463 C   0  0  0  0  0  0  0  0  0  0  0  0
  1 12  1  0
  2 13  1  0
  3 17  1  0
  3 18  1  0
  4 18  2  0
  5  7  1  0
  5  8  1  0
  5  9  1  0
  6 14  1  0
  6 18  1  0
  7 10  2  0
  7 11  1  0
  8 12  1  0
  9 13  1  0
 10 15  1  0
 11 16  2  0
 14 15  2  0
 14 16  1  0
 17 19  1  0
 17 20  1  0
M  END
>  <PUBCHEM_COMPOUND_CID>  (1) 
16287

>  <PUBCHEM_CONFORMER_RMSD>  (1) 
0.8

>  <PUBCHEM_CONFORMER_DIVERSEORDER>  (1) 
3
69
121
78
61
142
45
110
127
119
37
100
36
34
109
58
128
12
113
135
130
106
108
131
86
105
91
87
139
112
134
63
136
66
33
95
137
117
6
122
114
73
53
5
133
27
83
48
120
71
35
90
123
129
65
85
141
75
47
116
19
124
104
72
88
118
82
68
57
74
20
126
107
94
54
93
14
62
43
59
98
32
13
103
39
7
84
64
101
115
42
23
140
77
89
24
99
92
81
49
31
97
60
96
143
15
132
25
30
52
22
80
55
79
38
56
44
76
28
46
51
70
8
138
41
21
40
125
9
18
67
102
4
26
29
2
11
50
10
17
1
111
16

>  <PUBCHEM_MMFF94_PARTIAL_CHARGES>  (1) 
23
1 -0.29
10 -0.15
11 -0.15
12 0.29
13 0.29
14 0.12
15 -0.15
16 -0.15
17 0.28
18 0.78
2 -0.29
25 0.15
26 0.15
3 -0.43
31 0.15
32 0.15
34 0.37
4 -0.57
5 -0.84
6 -0.55
7 0.1
8 0.37
9 0.37

>  <PUBCHEM_EFFECTIVE_ROTOR_COUNT>  (1) 
9

>  <PUBCHEM_PHARMACOPHORE_FEATURES>  (1) 
5
1 4 acceptor
1 5 cation
1 6 donor
3 17 19 20 hydrophobe
6 7 10 11 14 15 16 rings

>  <PUBCHEM_HEAVY_ATOM_COUNT>  (1) 
20

>  <PUBCHEM_ATOM_DEF_STEREO_COUNT>  (1) 
0

>  <PUBCHEM_ATOM_UDEF_STEREO_COUNT>  (1) 
0

>  <PUBCHEM_BOND_DEF_STEREO_COUNT>  (1) 
0

>  <PUBCHEM_BOND_UDEF_STEREO_COUNT>  (1) 
0

>  <PUBCHEM_ISOTOPIC_ATOM_COUNT>  (1) 
0

>  <PUBCHEM_COMPONENT_COUNT>  (1) 
1

>  <PUBCHEM_CACTVS_TAUTO_COUNT>  (1) 
2

>  <PUBCHEM_CONFORMER_ID>  (1) 
00003F9F00000003

>  <PUBCHEM_MMFF94_ENERGY>  (1) 
61.0116

>  <PUBCHEM_FEATURE_SELFOVERLAP>  (1) 
25.371

>  <PUBCHEM_SHAPE_FINGERPRINT>  (1) 
10912923 1 17632582643160929459
11796584 16 16487251114649799471
12236239 1 18131630076567508489
12596602 18 9223225261428367125
13533116 47 18273213075577815763
13540713 5 18057061124651893576
13760787 5 18409455773426109201
14528608 73 18342175626046286120
15048467 5 17895192254938816685
15183329 4 17704075093044830541
17834072 33 18130783486557335649
18335252 98 18262807392781778363
200 152 18131345333025753081
20554085 129 18129091394630208424
20612939 158 18408608045491968608
20645477 70 18409728439446234930
21150785 3 18059295490934711805
21267235 1 18341055107738733899
21279426 13 18264481785581488309
220451 1 17917714630216523159
23081809 10 18060419102019228161
23402539 116 18131342008847893609
23402655 69 18336543914798698209
23522609 53 17915767369301986873
23559900 14 18335143085820155986
239999 70 18333450928835106682
25147074 1 18058463027298504416
2871803 45 18261671476298798059
29717793 49 18340765953497232127
300161 21 18113896117082812745
3004659 81 18409446951769167274
314194 84 18273495689027003227
34797466 226 17168155545774809239
4340502 62 15791724226351848416
465052 167 18059857238002001575
59682541 52 18340762668016231567
6025842 7 18410858768060198902
6327066 14 17973170814589590236
633830 44 18187081728425257451
7164475 11 18340772520808806560
7364860 26 18411427190144768560
90127 26 17895199857220724361
960060 61 18412547617297912182

>  <PUBCHEM_SHAPE_MULTIPOLES>  (1) 
393.63
15.17
2.85
1.05
19.05
1.32
-0.35
-0.21
-5.35
-7.42
-0.96
0.07
0
-0.68

>  <PUBCHEM_SHAPE_SELFOVERLAP>  (1) 
770.944

>  <PUBCHEM_SHAPE_VOLUME>  (1) 
239.6

>  <PUBCHEM_COORDINATE_TYPE>  (1) 
2
5
10

$$$$
