16282
     RDKit          3D

 17 17  0  0  0  0  0  0  0  0999 V2000
    3.4743    3.8454   -0.4608 Br  0  0  0  0  0  0  0  0  0  0  0  0
    4.6946   -2.9849   -0.6337 Br  0  0  0  0  0  0  0  0  0  0  0  0
   -4.3124    1.4126   -0.1281 O   0  0  0  0  0  0  0  0  0  0  0  0
    2.0709    0.0419    0.5812 N   0  0  0  0  0  0  0  0  0  0  0  0
   -3.4205   -0.7698   -0.1229 N   0  0  0  0  0  0  0  0  0  0  0  0
    0.6867   -0.1628    0.4036 C   0  0  0  0  0  0  0  0  0  0  0  0
    2.6034    1.3835    0.7123 C   0  0  0  0  0  0  0  0  0  0  0  0
    2.9770   -1.0873    0.6486 C   0  0  0  0  0  0  0  0  0  0  0  0
   -0.1791    0.9297    0.3534 C   0  0  0  0  0  0  0  0  0  0  0  0
    0.1834   -1.4576    0.2790 C   0  0  0  0  0  0  0  0  0  0  0  0
    2.7430    2.0474   -0.6439 C   0  0  0  0  0  0  0  0  0  0  0  0
    3.4890   -1.4560   -0.7304 C   0  0  0  0  0  0  0  0  0  0  0  0
   -2.0513   -0.5675    0.0538 C   0  0  0  0  0  0  0  0  0  0  0  0
   -1.5481    0.7274    0.1786 C   0  0  0  0  0  0  0  0  0  0  0  0
   -1.1856   -1.6601    0.1040 C   0  0  0  0  0  0  0  0  0  0  0  0
   -4.4346    0.1941   -0.1994 C   0  0  0  0  0  0  0  0  0  0  0  0
   -5.7908   -0.4358   -0.3955 C   0  0  0  0  0  0  0  0  0  0  0  0
  1 11  1  0
  2 12  1  0
  3 16  2  0
  4  6  1  0
  4  7  1  0
  4  8  1  0
  5 13  1  0
  5 16  1  0
  6  9  2  0
  6 10  1  0
  7 11  1  0
  8 12  1  0
  9 14  1  0
 10 15  2  0
 13 14  2  0
 13 15  1  0
 16 17  1  0
M  END
>  <PUBCHEM_COMPOUND_CID>  (1) 
16282

>  <PUBCHEM_CONFORMER_RMSD>  (1) 
0.8

>  <PUBCHEM_CONFORMER_DIVERSEORDER>  (1) 
5
32
7
6
24
28
22
14
17
30
26
31
18
23
29
25
20
13
21
27
3
8
1
4
19
11
12
9
16
2
15
10

>  <PUBCHEM_MMFF94_PARTIAL_CHARGES>  (1) 
22
1 -0.23
10 -0.15
11 0.23
12 0.23
13 0.12
14 -0.15
15 -0.15
16 0.57
17 0.06
2 -0.23
22 0.15
23 0.15
28 0.15
29 0.15
3 -0.57
30 0.37
4 -0.84
5 -0.55
6 0.1
7 0.37
8 0.37
9 -0.15

>  <PUBCHEM_EFFECTIVE_ROTOR_COUNT>  (1) 
7

>  <PUBCHEM_PHARMACOPHORE_FEATURES>  (1) 
6
1 1 hydrophobe
1 2 hydrophobe
1 3 acceptor
1 4 cation
1 5 donor
6 6 9 10 13 14 15 rings

>  <PUBCHEM_HEAVY_ATOM_COUNT>  (1) 
17

>  <PUBCHEM_ATOM_DEF_STEREO_COUNT>  (1) 
0

>  <PUBCHEM_ATOM_UDEF_STEREO_COUNT>  (1) 
0

>  <PUBCHEM_BOND_DEF_STEREO_COUNT>  (1) 
0

>  <PUBCHEM_BOND_UDEF_STEREO_COUNT>  (1) 
0

>  <PUBCHEM_ISOTOPIC_ATOM_COUNT>  (1) 
0

>  <PUBCHEM_COMPONENT_COUNT>  (1) 
1

>  <PUBCHEM_CACTVS_TAUTO_COUNT>  (1) 
2

>  <PUBCHEM_CONFORMER_ID>  (1) 
00003F9A00000005

>  <PUBCHEM_MMFF94_ENERGY>  (1) 
55.1201

>  <PUBCHEM_FEATURE_SELFOVERLAP>  (1) 
30.446

>  <PUBCHEM_SHAPE_FINGERPRINT>  (1) 
12617007 42 18341618066883210102
13955234 65 18341053016479641880
14178000 15 18342459210421638520
15099037 51 18340206288983276359
15163728 17 17681293357877636436
15196674 1 18411415112295955009
15536298 74 18412542123865954905
18186145 218 18187356619470258679
19784866 240 17632302216003731998
200 152 17560794386390654211
20369508 70 18260822662355422034
20388580 30 18343026549836566750
20612939 158 18410295813099725109
20645477 70 18411416215385326646
20671657 53 18341055095344123950
20871999 31 18191315870985307078
21267235 1 18341054030329670395
21709351 56 18338508626398325405
2255824 54 18408038511865619474
23402539 116 18058161726752729063
23559900 14 18411699889881191106
29717793 49 18201992210653321663
3286 77 17274815827000122395
474 4 17532089586521788404
4990 188 18272369733306756191
5104073 3 18260830423561559273
5281201 14 18409165493787644685
59755656 215 18410579522266954260
633830 44 18334568053975959727
7364860 26 18340488958725416048
90127 26 18113339704681506809
9709674 26 18410012182012904971
9841814 1 18114453484206185480
9971528 1 18271238331762838434
9981440 41 17905324379707067240
9999458 23 18261109660137894262

>  <PUBCHEM_SHAPE_MULTIPOLES>  (1) 
345.91
10.47
3.51
0.83
11.4
2.25
0.02
-1.59
2.56
-7.45
0.89
-0.49
-0.01
0.19

>  <PUBCHEM_SHAPE_SELFOVERLAP>  (1) 
666.905

>  <PUBCHEM_SHAPE_VOLUME>  (1) 
216.9

>  <PUBCHEM_COORDINATE_TYPE>  (1) 
2
5
10

$$$$
