16306
     RDKit          3D

 14 13  0  0  0  0  0  0  0  0999 V2000
   -1.7390    0.2029   -0.0114 O   0  0  0  0  0  0  0  0  0  0  0  0
    1.7318   -0.2073   -0.0111 O   0  0  0  0  0  0  0  0  0  0  0  0
   -0.4114   -1.6936   -0.0116 O   0  0  0  0  0  0  0  0  0  0  0  0
    0.4126    1.6943   -0.0116 O   0  0  0  0  0  0  0  0  0  0  0  0
   -4.1292    0.3447   -0.0106 C   0  0  0  0  0  0  0  0  0  0  0  0
    4.1304   -0.3438   -0.0105 C   0  0  0  0  0  0  0  0  0  0  0  0
   -5.4404   -0.4358    0.0061 C   0  0  0  0  0  0  0  0  0  0  0  0
    5.4416    0.4365    0.0059 C   0  0  0  0  0  0  0  0  0  0  0  0
   -2.9226   -0.5832   -0.0108 C   0  0  0  0  0  0  0  0  0  0  0  0
    2.9238    0.5841   -0.0108 C   0  0  0  0  0  0  0  0  0  0  0  0
   -6.6420    0.4943    0.0499 C   0  0  0  0  0  0  0  0  0  0  0  0
    6.6432   -0.4938    0.0498 C   0  0  0  0  0  0  0  0  0  0  0  0
   -0.5765   -0.4890   -0.0118 C   0  0  0  0  0  0  0  0  0  0  0  0
    0.5777    0.4897   -0.0115 C   0  0  0  0  0  0  0  0  0  0  0  0
  1  9  1  0
  1 13  1  0
  2 10  1  0
  2 14  1  0
  3 13  2  0
  4 14  2  0
  5  7  1  0
  5  9  1  0
  6  8  1  0
  6 10  1  0
  7 11  1  0
  8 12  1  0
 13 14  1  0
M  END
>  <PUBCHEM_COMPOUND_CID>  (1) 
16306

>  <PUBCHEM_CONFORMER_RMSD>  (1) 
0.8

>  <PUBCHEM_CONFORMER_DIVERSEORDER>  (1) 
1
163
71
124
73
155
9
227
8
19
121
190
91
5
204
160
6
218
44
194
105
96
46
170
177
56
221
45
21
20
192
132
223
181
183
26
99
35
32
104
228
90
146
52
220
14
209
106
89
154
94
78
92
47
48
191
165
127
28
168
226
139
65
205
178
84
13
110
25
158
144
63
169
214
126
171
29
41
197
51
141
138
217
201
187
198
70
149
22
4
27
10
211
128
42
3
147
185
54
118
16
213
210
24
64
37
12
131
173
175
60
59
23
195
150
142
69
143
30
55
86
188
72
85
159
49
156
207
67
58
108
87
2
196
107
79
57
11
167
134
219
166
193
97
184
157
174
40
81
203
38
116
15
122
232
83
50
33
199
77
229
62
7
135
61
152
36
136
216
93
180
179
112
18
39
31
82
162
225
161
66
200
76
172
75
222
98
140
189
117
153
130
109
74
230
208
100
148
119
111
101
215
212
202
34
137
103
53
114
176
88
120
113
129
125
206
224
123
182
186
43
164
80
231
17
68
102
133
95
145
115
151

>  <PUBCHEM_MMFF94_PARTIAL_CHARGES>  (1) 
8
1 -0.43
10 0.28
13 0.72
14 0.72
2 -0.43
3 -0.57
4 -0.57
9 0.28

>  <PUBCHEM_EFFECTIVE_ROTOR_COUNT>  (1) 
9

>  <PUBCHEM_PHARMACOPHORE_FEATURES>  (1) 
4
1 11 hydrophobe
1 12 hydrophobe
1 3 acceptor
1 4 acceptor

>  <PUBCHEM_HEAVY_ATOM_COUNT>  (1) 
14

>  <PUBCHEM_ATOM_DEF_STEREO_COUNT>  (1) 
0

>  <PUBCHEM_ATOM_UDEF_STEREO_COUNT>  (1) 
0

>  <PUBCHEM_BOND_DEF_STEREO_COUNT>  (1) 
0

>  <PUBCHEM_BOND_UDEF_STEREO_COUNT>  (1) 
0

>  <PUBCHEM_ISOTOPIC_ATOM_COUNT>  (1) 
0

>  <PUBCHEM_COMPONENT_COUNT>  (1) 
1

>  <PUBCHEM_CACTVS_TAUTO_COUNT>  (1) 
1

>  <PUBCHEM_CONFORMER_ID>  (1) 
00003FB200000001

>  <PUBCHEM_MMFF94_ENERGY>  (1) 
7.2327

>  <PUBCHEM_FEATURE_SELFOVERLAP>  (1) 
20.297

>  <PUBCHEM_SHAPE_FINGERPRINT>  (1) 
11401426 45 18273495684547120655
12091667 2 18410012139927771475
13533116 47 13686028557806443764
14251764 46 17060619997100391622
15048467 5 15719391737115836646
17834072 8 18410573989446418599
17834076 25 18410573985151451138
18006028 8 18131632283748532672
187816 3 17346882255938823699
20281389 69 18259982678115570812
20621476 8 18411140191075263365
23218964 4 18408322189653851709
23402539 116 17917988399726557933
23521765 1 18341894090834051077
347723 3 18410855460128162080
366044 4 18411419522605200563
42788 4 18410292519007398124
4463277 17 18408322193954405588
8209 1 18410855460133443069

>  <PUBCHEM_SHAPE_MULTIPOLES>  (1) 
264.64
16.44
1.09
0.59
0.02
0
0
0
0.31
0
0
0
0
-0.02

>  <PUBCHEM_SHAPE_SELFOVERLAP>  (1) 
494.004

>  <PUBCHEM_SHAPE_VOLUME>  (1) 
165.2

>  <PUBCHEM_COORDINATE_TYPE>  (1) 
2
5
10

$$$$
