16300
     RDKit          3D

 15 14  0  0  0  0  0  0  0  0999 V2000
   -4.8782    0.5266   -0.0125 O   0  0  0  0  0  0  0  0  0  0  0  0
    4.8768    0.5280    0.0055 O   0  0  0  0  0  0  0  0  0  0  0  0
   -3.8313   -1.5288   -0.0003 O   0  0  0  0  0  0  0  0  0  0  0  0
    3.8184   -1.5221    0.0272 O   0  0  0  0  0  0  0  0  0  0  0  0
    0.0092    0.5515    0.0024 C   0  0  0  0  0  0  0  0  0  0  0  0
   -1.2564   -0.3102   -0.0458 C   0  0  0  0  0  0  0  0  0  0  0  0
    1.2699   -0.3142   -0.0212 C   0  0  0  0  0  0  0  0  0  0  0  0
   -2.5342    0.5287   -0.0519 C   0  0  0  0  0  0  0  0  0  0  0  0
    2.5343    0.5432   -0.0017 C   0  0  0  0  0  0  0  0  0  0  0  0
   -3.7955   -0.3062   -0.0282 C   0  0  0  0  0  0  0  0  0  0  0  0
    3.7893   -0.2991    0.0133 C   0  0  0  0  0  0  0  0  0  0  0  0
   -6.1532   -0.1215    0.0414 C   0  0  0  0  0  0  0  0  0  0  0  0
    6.1494   -0.1270    0.0149 C   0  0  0  0  0  0  0  0  0  0  0  0
   -7.2412    0.9311    0.0523 C   0  0  0  0  0  0  0  0  0  0  0  0
    7.2429    0.9199    0.0046 C   0  0  0  0  0  0  0  0  0  0  0  0
  1 10  1  0
  1 12  1  0
  2 11  1  0
  2 13  1  0
  3 10  2  0
  4 11  2  0
  5  6  1  0
  5  7  1  0
  6  8  1  0
  7  9  1  0
  8 10  1  0
  9 11  1  0
 12 14  1  0
 13 15  1  0
M  END
>  <PUBCHEM_COMPOUND_CID>  (1) 
16300

>  <PUBCHEM_CONFORMER_RMSD>  (1) 
0.8

>  <PUBCHEM_CONFORMER_DIVERSEORDER>  (1) 
1
115
149
31
44
75
13
126
173
34
27
163
56
120
119
74
148
4
121
157
162
19
11
67
7
100
71
146
136
55
32
117
137
82
58
63
169
113
116
110
130
46
29
10
112
20
95
144
30
109
61
97
158
9
81
153
104
26
49
101
66
72
140
68
70
129
57
8
69
164
94
167
60
99
159
3
2
87
54
123
80
48
165
86
93
14
143
40
96
59
73
18
16
150
154
50
12
118
64
65
147
142
88
155
156
132
127
78
85
89
145
22
125
35
39
41
105
103
92
77
98
122
21
133
139
5
76
151
42
91
51
108
160
36
102
23
25
90
83
152
171
138
172
134
53
79
43
166
107
47
161
28
52
15
114
38
128
106
168
141
111
37
45
17
124
131
24
33
62
84
6
170
135

>  <PUBCHEM_MMFF94_PARTIAL_CHARGES>  (1) 
10
1 -0.43
10 0.66
11 0.66
12 0.28
13 0.28
2 -0.43
3 -0.57
4 -0.57
8 0.06
9 0.06

>  <PUBCHEM_EFFECTIVE_ROTOR_COUNT>  (1) 
10

>  <PUBCHEM_PHARMACOPHORE_FEATURES>  (1) 
3
1 3 acceptor
1 4 acceptor
5 5 6 7 8 9 hydrophobe

>  <PUBCHEM_HEAVY_ATOM_COUNT>  (1) 
15

>  <PUBCHEM_ATOM_DEF_STEREO_COUNT>  (1) 
0

>  <PUBCHEM_ATOM_UDEF_STEREO_COUNT>  (1) 
0

>  <PUBCHEM_BOND_DEF_STEREO_COUNT>  (1) 
0

>  <PUBCHEM_BOND_UDEF_STEREO_COUNT>  (1) 
0

>  <PUBCHEM_ISOTOPIC_ATOM_COUNT>  (1) 
0

>  <PUBCHEM_COMPONENT_COUNT>  (1) 
1

>  <PUBCHEM_CACTVS_TAUTO_COUNT>  (1) 
1

>  <PUBCHEM_CONFORMER_ID>  (1) 
00003FAC00000001

>  <PUBCHEM_MMFF94_ENERGY>  (1) 
5.9016

>  <PUBCHEM_FEATURE_SELFOVERLAP>  (1) 
15.223

>  <PUBCHEM_SHAPE_FINGERPRINT>  (1) 
10968037 39 18413388744188954877
11315181 36 17775569762687917241
12091667 2 18272370880663943031
12815109 37 18410856559639802567
13073987 5 15936678268821902916
13533116 47 17346319237466795022
14123256 10 18272933821447369480
1420 363 9511458944472969365
14251718 22 18408322203013494322
14251764 18 18408601474455912139
14251764 46 18410573989446450920
14729087 3 18334572417879185805
15048467 5 18411699889353436457
17834076 25 18410293613981355040
18006028 8 17346597469690254921
20281389 69 18259982656503558276
20621476 8 18335421231642921438
20645477 70 18338234848225087502
21130983 4 18334860528274192684
22224240 67 17240481433540045642
23035841 295 18259702298123061370
23402539 116 18411132562954921871
23521765 1 18341894095129154796
23559900 14 18342451594800843385
300161 21 18409726261691950963
33532 11 10591770870214444172
33684 2 18412544306115484088
3545911 37 18410855460128168292
42788 4 18410573985151464132
4463277 17 18411136935110446016
57583515 80 13901908912787454255
8209 1 18272369771591962724

>  <PUBCHEM_SHAPE_MULTIPOLES>  (1) 
285.22
20.82
1.07
0.59
0.08
0.23
0
-4.3
0.33
0.01
0.01
0
-0.01
-0.03

>  <PUBCHEM_SHAPE_SELFOVERLAP>  (1) 
530.114

>  <PUBCHEM_SHAPE_VOLUME>  (1) 
179.1

>  <PUBCHEM_COORDINATE_TYPE>  (1) 
2
5
10

$$$$
