16313
     RDKit          3D

 13 14  0  0  0  0  0  0  0  0999 V2000
    0.0859    3.3217    0.0008 Cl  0  0  0  0  0  0  0  0  0  0  0  0
   -3.7067   -0.4292   -0.0002 Cl  0  0  0  0  0  0  0  0  0  0  0  0
   -1.4536   -2.3628    0.0004 O   0  0  0  0  0  0  0  0  0  0  0  0
    0.3116   -0.7329    0.0000 C   0  0  0  0  0  0  0  0  0  0  0  0
    0.7033    0.6271   -0.0002 C   0  0  0  0  0  0  0  0  0  0  0  0
   -1.0556   -1.0539    0.0001 C   0  0  0  0  0  0  0  0  0  0  0  0
   -0.2839    1.6261   -0.0003 C   0  0  0  0  0  0  0  0  0  0  0  0
    1.2987   -1.7320    0.0001 C   0  0  0  0  0  0  0  0  0  0  0  0
    2.0705    0.9479   -0.0002 C   0  0  0  0  0  0  0  0  0  0  0  0
   -2.0227   -0.0484   -0.0001 C   0  0  0  0  0  0  0  0  0  0  0  0
   -1.6376    1.2889   -0.0003 C   0  0  0  0  0  0  0  0  0  0  0  0
    2.6526   -1.3949    0.0001 C   0  0  0  0  0  0  0  0  0  0  0  0
    3.0377   -0.0576   -0.0002 C   0  0  0  0  0  0  0  0  0  0  0  0
  1  7  1  0
  2 10  1  0
  3  6  1  0
  4  5  1  0
  4  6  2  0
  4  8  1  0
  5  7  2  0
  5  9  1  0
  6 10  1  0
  7 11  1  0
  8 12  2  0
  9 13  2  0
 10 11  2  0
 12 13  1  0
M  END
>  <PUBCHEM_COMPOUND_CID>  (1) 
16313

>  <PUBCHEM_CONFORMER_RMSD>  (1) 
0.4

>  <PUBCHEM_CONFORMER_DIVERSEORDER>  (1) 
1

>  <PUBCHEM_MMFF94_PARTIAL_CHARGES>  (1) 
17
1 -0.18
10 0.18
11 -0.15
12 -0.15
13 -0.15
14 0.15
15 0.15
16 0.15
17 0.15
18 0.15
19 0.45
2 -0.18
3 -0.53
6 0.08
7 0.18
8 -0.15
9 -0.15

>  <PUBCHEM_EFFECTIVE_ROTOR_COUNT>  (1) 
0

>  <PUBCHEM_PHARMACOPHORE_FEATURES>  (1) 
3
1 3 donor
6 4 5 6 7 10 11 rings
6 4 5 8 9 12 13 rings

>  <PUBCHEM_HEAVY_ATOM_COUNT>  (1) 
13

>  <PUBCHEM_ATOM_DEF_STEREO_COUNT>  (1) 
0

>  <PUBCHEM_ATOM_UDEF_STEREO_COUNT>  (1) 
0

>  <PUBCHEM_BOND_DEF_STEREO_COUNT>  (1) 
0

>  <PUBCHEM_BOND_UDEF_STEREO_COUNT>  (1) 
0

>  <PUBCHEM_ISOTOPIC_ATOM_COUNT>  (1) 
0

>  <PUBCHEM_COMPONENT_COUNT>  (1) 
1

>  <PUBCHEM_CACTVS_TAUTO_COUNT>  (1) 
3

>  <PUBCHEM_CONFORMER_ID>  (1) 
00003FB900000001

>  <PUBCHEM_MMFF94_ENERGY>  (1) 
39.7508

>  <PUBCHEM_FEATURE_SELFOVERLAP>  (1) 
15.249

>  <PUBCHEM_SHAPE_FINGERPRINT>  (1) 
10967382 1 18410575131923556420
11206711 2 18193561060348263460
11471102 20 18410288142720501831
12032990 46 18410017619636407523
12382932 28 18411696625394524178
12423570 1 10934991297161503528
12524768 44 18342742905305435078
13140716 1 17978510059357557553
13897977 150 18122058968890847869
14648413 74 18120091951226099169
16945 1 18338517550865644805
193761 8 17762337319987510055
20510252 161 18198901418547599464
20511035 2 17913768585599465581
20588541 1 18410857684926515363
20871998 184 18129095624006605230
21501502 16 18194686969029604592
2334 1 17545884188400149121
23402539 116 18271230647654941311
23419403 2 16114503551444908023
23463225 33 18409450267098570374
23552423 10 18189056554488061470
23559900 14 18270683070428533510
241688 4 18338517430543335321
2748010 2 18338795589947685557
3071541 158 18260826050805050357
5084963 1 17986384486636306850
528886 8 18411696625341886922
53812653 166 18198901603157320560
7364860 26 18124597745392093993
81228 2 18265903462241939672

>  <PUBCHEM_SHAPE_MULTIPOLES>  (1) 
265.4
4.29
2.81
0.62
0.92
1.81
0
-1.58
0
0.12
0
0
0.03
0

>  <PUBCHEM_SHAPE_SELFOVERLAP>  (1) 
565.978

>  <PUBCHEM_SHAPE_VOLUME>  (1) 
149.8

>  <PUBCHEM_COORDINATE_TYPE>  (1) 
2
5
10

$$$$
