16326
     RDKit          3D

 18 19  0  0  0  0  0  0  0  0999 V2000
   -3.2363    1.2828   -0.2167 S   0  0  0  0  0  0  0  0  0  0  0  0
   -3.9370    1.3976    1.2545 O   0  0  0  0  0  0  0  0  0  0  0  0
   -2.5357    2.5344   -0.4554 O   0  0  0  0  0  0  0  0  0  0  0  0
   -4.2308    0.7941   -1.1569 O   0  0  0  0  0  0  0  0  0  0  0  0
   -3.7621   -1.6991    0.1370 N   0  0  0  0  0  0  0  0  0  0  0  0
    5.7580    0.8183   -0.0476 N   0  0  0  0  0  0  0  0  0  0  0  0
    0.2958   -0.6102    0.0526 C   0  0  0  0  0  0  0  0  0  0  0  0
   -2.0347    0.0199   -0.0508 C   0  0  0  0  0  0  0  0  0  0  0  0
    1.6950   -0.2441    0.0261 C   0  0  0  0  0  0  0  0  0  0  0  0
   -0.6853    0.3730   -0.0776 C   0  0  0  0  0  0  0  0  0  0  0  0
   -2.4028   -1.3165    0.1059 C   0  0  0  0  0  0  0  0  0  0  0  0
   -0.0728   -1.9465    0.2095 C   0  0  0  0  0  0  0  0  0  0  0  0
   -1.4218   -2.2996    0.2363 C   0  0  0  0  0  0  0  0  0  0  0  0
    2.6423   -1.1443   -0.4615 C   0  0  0  0  0  0  0  0  0  0  0  0
    2.0968    1.0089    0.4891 C   0  0  0  0  0  0  0  0  0  0  0  0
    3.9916   -0.7916   -0.4859 C   0  0  0  0  0  0  0  0  0  0  0  0
    3.4461    1.3616    0.4646 C   0  0  0  0  0  0  0  0  0  0  0  0
    4.3937    0.4614   -0.0230 C   0  0  0  0  0  0  0  0  0  0  0  0
  1  2  1  0
  1  3  2  0
  1  4  2  0
  1  8  1  0
  5 11  1  0
  6 18  1  0
  7  9  1  0
  7 10  1  0
  7 12  2  0
  8 10  2  0
  8 11  1  0
  9 14  2  0
  9 15  1  0
 11 13  2  0
 12 13  1  0
 14 16  1  0
 15 17  2  0
 16 18  2  0
 17 18  1  0
M  END
>  <PUBCHEM_COMPOUND_CID>  (1) 
16326

>  <PUBCHEM_CONFORMER_RMSD>  (1) 
0.6

>  <PUBCHEM_CONFORMER_DIVERSEORDER>  (1) 
1
2

>  <PUBCHEM_MMFF94_PARTIAL_CHARGES>  (1) 
28
1 1.49
10 -0.15
11 0.1
12 -0.15
13 -0.15
14 -0.15
15 -0.15
16 -0.15
17 -0.15
18 0.1
19 0.15
2 -0.68
20 0.15
21 0.15
22 0.15
23 0.15
24 0.15
25 0.15
26 0.4
27 0.4
28 0.5
29 0.4
3 -0.65
30 0.4
4 -0.65
5 -0.9
6 -0.9
8 -0.01

>  <PUBCHEM_EFFECTIVE_ROTOR_COUNT>  (1) 
2

>  <PUBCHEM_PHARMACOPHORE_FEATURES>  (1) 
10
1 2 acceptor
1 3 acceptor
1 4 acceptor
1 5 cation
1 5 donor
1 6 cation
1 6 donor
4 1 2 3 4 anion
6 7 8 10 11 12 13 rings
6 9 14 15 16 17 18 rings

>  <PUBCHEM_HEAVY_ATOM_COUNT>  (1) 
18

>  <PUBCHEM_ATOM_DEF_STEREO_COUNT>  (1) 
0

>  <PUBCHEM_ATOM_UDEF_STEREO_COUNT>  (1) 
0

>  <PUBCHEM_BOND_DEF_STEREO_COUNT>  (1) 
0

>  <PUBCHEM_BOND_UDEF_STEREO_COUNT>  (1) 
0

>  <PUBCHEM_ISOTOPIC_ATOM_COUNT>  (1) 
0

>  <PUBCHEM_COMPONENT_COUNT>  (1) 
1

>  <PUBCHEM_CACTVS_TAUTO_COUNT>  (1) 
1

>  <PUBCHEM_CONFORMER_ID>  (1) 
00003FC600000001

>  <PUBCHEM_MMFF94_ENERGY>  (1) 
69.7223

>  <PUBCHEM_FEATURE_SELFOVERLAP>  (1) 
50.8

>  <PUBCHEM_SHAPE_FINGERPRINT>  (1) 
10014705 185 18259981574324442901
10498660 4 18261664913810413213
10608611 8 18341047518837113048
10646746 165 18409728456857835812
11132069 177 18187082845137840437
11543360 7 16558738035960997381
12173636 292 18408600331968069215
12236239 1 17240477044373593058
12390115 104 18270699588013073289
12403259 415 18059010704785947544
12500047 106 18410570712824455390
12596602 18 16081378470309539984
15042514 8 18048601713747292699
15196674 1 18411702084646240098
15219456 202 18343587351979454838
15375358 24 18273496775912029486
18186145 218 18343025445518190690
200 152 17060338530623983686
20300324 65 18131625699658204325
20510252 161 18412265068774679931
20645477 56 18408042909426703740
20645477 70 17417818292862165990
21267235 1 18338244876646435658
21524375 3 18411696548148597991
22182937 141 18342465811559311561
23402539 116 18338507638070628494
23402655 69 18130787858823305188
23557571 272 18342183314032153166
23559900 14 18343304730884883510
25 1 18270681956839844706
335352 9 18267305335741898278
350125 39 18339087106579020321
3545911 37 18411983563501069728
4028521 119 18335974299182705773
4214541 1 18411419527131769744
495365 180 17560784547079125498
5104073 3 18410011040089343866
633830 44 18129666274984094335
69090 78 18342453738063383351
77779 3 18411984680493227558
9709674 26 18341337768421999254

>  <PUBCHEM_SHAPE_MULTIPOLES>  (1) 
346.71
9.52
2.22
0.79
6.03
0.17
-0.01
-3.44
0.52
-1.81
-0.09
-0.38
-0.15
0.53

>  <PUBCHEM_SHAPE_SELFOVERLAP>  (1) 
741.361

>  <PUBCHEM_SHAPE_VOLUME>  (1) 
193.3

>  <PUBCHEM_COORDINATE_TYPE>  (1) 
2
5
10

$$$$
