16346
     RDKit          3D

 28 29  0  0  0  0  0  0  0  0999 V2000
    1.2502    1.6984   -1.7508 Cl  0  0  0  0  0  0  0  0  0  0  0  0
   -0.6792   -3.8134    1.8389 Cl  0  0  0  0  0  0  0  0  0  0  0  0
    2.2308    1.2689    1.7041 N   0  0  0  0  0  0  0  0  0  0  0  0
    0.5720   -0.4337    2.1412 N   0  0  0  0  0  0  0  0  0  0  0  0
   -4.5251    1.0289   -0.2003 C   0  0  0  0  0  0  0  0  0  0  0  0
   -3.7861    1.2901    1.1132 C   0  0  0  0  0  0  0  0  0  0  0  0
   -6.0246    0.8383    0.0331 C   0  0  0  0  0  0  0  0  0  0  0  0
   -2.2817    1.4471    0.8833 C   0  0  0  0  0  0  0  0  0  0  0  0
   -6.7585    0.5439   -1.2763 C   0  0  0  0  0  0  0  0  0  0  0  0
   -1.5395    1.6753    2.2007 C   0  0  0  0  0  0  0  0  0  0  0  0
   -8.2517    0.3203   -1.0389 C   0  0  0  0  0  0  0  0  0  0  0  0
   -0.0630    1.8601    1.9686 C   0  0  0  0  0  0  0  0  0  0  0  0
    0.9038    0.9072    1.9340 C   0  0  0  0  0  0  0  0  0  0  0  0
   -8.9790   -0.0054   -2.3338 C   0  0  0  0  0  0  0  0  0  0  0  0
    2.6984    2.3668    0.8921 C   0  0  0  0  0  0  0  0  0  0  0  0
    1.4383   -1.5877    2.1426 C   0  0  0  0  0  0  0  0  0  0  0  0
    3.5240    1.8585   -0.2570 C   0  0  0  0  0  0  0  0  0  0  0  0
    1.3562   -2.3102    0.8265 C   0  0  0  0  0  0  0  0  0  0  0  0
    2.9476    1.5335   -1.4851 C   0  0  0  0  0  0  0  0  0  0  0  0
    0.4278   -3.3280    0.6069 C   0  0  0  0  0  0  0  0  0  0  0  0
    4.8991    1.7147   -0.0723 C   0  0  0  0  0  0  0  0  0  0  0  0
    2.2380   -1.9397   -0.1887 C   0  0  0  0  0  0  0  0  0  0  0  0
    3.7463    1.0650   -2.5282 C   0  0  0  0  0  0  0  0  0  0  0  0
    0.3814   -3.9750   -0.6280 C   0  0  0  0  0  0  0  0  0  0  0  0
    5.6978    1.2462   -1.1156 C   0  0  0  0  0  0  0  0  0  0  0  0
    2.1916   -2.5869   -1.4236 C   0  0  0  0  0  0  0  0  0  0  0  0
    5.1214    0.9212   -2.3434 C   0  0  0  0  0  0  0  0  0  0  0  0
    1.2635   -3.6045   -1.6431 C   0  0  0  0  0  0  0  0  0  0  0  0
  1 19  1  0
  2 20  1  0
  3 13  1  0
  3 15  1  0
  4 13  1  0
  4 16  1  0
  5  6  1  0
  5  7  1  0
  6  8  1  0
  7  9  1  0
  8 10  1  0
  9 11  1  0
 10 12  1  0
 11 14  1  0
 12 13  2  3
 15 17  1  0
 16 18  1  0
 17 19  2  0
 17 21  1  0
 18 20  2  0
 18 22  1  0
 19 23  1  0
 20 24  1  0
 21 25  2  0
 22 26  2  0
 23 27  2  0
 24 28  2  0
 25 27  1  0
 26 28  1  0
M  END
>  <PUBCHEM_COMPOUND_CID>  (1) 
16346

>  <PUBCHEM_CONFORMER_RMSD>  (1) 
1.6

>  <PUBCHEM_CONFORMER_DIVERSEORDER>  (1) 
1
78
22
14
31
81
37
18
12
13
21
55
19
39
77
60
57
23
15
53
7
68
20
11
36
82
47
62
83
66
73
54
44
49
64
35
50
58
24
27
61
48
69
71
30
42
17
74
10
63
28
52
6
59
56
65
26
80
40
9
25
84
72
67
5
16
51
76
70
41
4
46
34
32
3
29
33
8
45
38
2
75
79
43

>  <PUBCHEM_MMFF94_PARTIAL_CHARGES>  (1) 
32
1 -0.18
10 0.14
12 -0.29
13 0.2
15 0.51
16 0.51
17 -0.14
18 -0.14
19 0.18
2 -0.18
20 0.18
21 -0.15
22 -0.15
23 -0.15
24 -0.15
25 -0.15
26 -0.15
27 -0.15
28 -0.15
3 -0.87
4 -0.87
43 0.15
47 0.4
48 0.4
53 0.15
54 0.15
55 0.15
56 0.15
57 0.15
58 0.15
59 0.15
60 0.15

>  <PUBCHEM_EFFECTIVE_ROTOR_COUNT>  (1) 
13

>  <PUBCHEM_PHARMACOPHORE_FEATURES>  (1) 
7
1 14 hydrophobe
1 3 cation
1 3 donor
1 4 cation
1 4 donor
6 17 19 21 23 25 27 rings
6 18 20 22 24 26 28 rings

>  <PUBCHEM_HEAVY_ATOM_COUNT>  (1) 
28

>  <PUBCHEM_ATOM_DEF_STEREO_COUNT>  (1) 
0

>  <PUBCHEM_ATOM_UDEF_STEREO_COUNT>  (1) 
0

>  <PUBCHEM_BOND_DEF_STEREO_COUNT>  (1) 
0

>  <PUBCHEM_BOND_UDEF_STEREO_COUNT>  (1) 
0

>  <PUBCHEM_ISOTOPIC_ATOM_COUNT>  (1) 
0

>  <PUBCHEM_COMPONENT_COUNT>  (1) 
1

>  <PUBCHEM_CACTVS_TAUTO_COUNT>  (1) 
2

>  <PUBCHEM_CONFORMER_ID>  (1) 
00003FDA00000001

>  <PUBCHEM_MMFF94_ENERGY>  (1) 
54.1517

>  <PUBCHEM_FEATURE_SELFOVERLAP>  (1) 
35.579

>  <PUBCHEM_SHAPE_FINGERPRINT>  (1) 
10764073 3 14707472686625215192
12156800 1 17273956057054161790
13150687 139 18410298038557643472
13383661 66 17342099552763987847
14114207 22 17894916175485476346
14863182 85 18129645422854725194
15484559 13 18334285505051872529
17134984 74 18272646879351805269
20721686 146 15068629305033339590
20775438 99 18129394725698702918
21304303 94 18343582932394881611
21344244 181 17846225500305788506
21344244 246 18270970033819930678
25222932 49 17488438868110136517
26353 1 17325223827029453488
404807 78 18192714664767231107
4112364 45 11963689832297126231
439807 62 16558756724171492965
57359948 33 18043232567310262093
58260988 114 11813410683479271876

>  <PUBCHEM_SHAPE_MULTIPOLES>  (1) 
570
15.81
4.57
2.86
47.79
6.74
0
-10.39
-15.22
-3.62
0.4
-0.32
-0.32
-0.74

>  <PUBCHEM_SHAPE_SELFOVERLAP>  (1) 
1137.99

>  <PUBCHEM_SHAPE_VOLUME>  (1) 
335.2

>  <PUBCHEM_COORDINATE_TYPE>  (1) 
2
5
10

$$$$
