16342
     RDKit          3D

 25 26  0  0  0  0  0  0  0  0999 V2000
   -7.1564    1.2285    1.9441 Cl  0  0  0  0  0  0  0  0  0  0  0  0
    6.0275   -0.5132    2.5025 Cl  0  0  0  0  0  0  0  0  0  0  0  0
   -4.4069   -0.0047   -0.0824 N   0  0  0  0  0  0  0  0  0  0  0  0
    4.7590    1.2024   -0.4360 N   0  0  0  0  0  0  0  0  0  0  0  0
    0.2983    1.6318   -0.6077 C   0  0  0  0  0  0  0  0  0  0  0  0
   -0.6258    0.6917    0.1701 C   0  0  0  0  0  0  0  0  0  0  0  0
    1.7352    1.5581   -0.0856 C   0  0  0  0  0  0  0  0  0  0  0  0
   -2.0684    0.7899   -0.3352 C   0  0  0  0  0  0  0  0  0  0  0  0
    2.6629    2.4773   -0.8855 C   0  0  0  0  0  0  0  0  0  0  0  0
   -3.0420   -0.1200    0.4167 C   0  0  0  0  0  0  0  0  0  0  0  0
    4.0999    2.5008   -0.3590 C   0  0  0  0  0  0  0  0  0  0  0  0
   -5.3069   -0.8768    0.6593 C   0  0  0  0  0  0  0  0  0  0  0  0
    6.1424    1.2951    0.0085 C   0  0  0  0  0  0  0  0  0  0  0  0
   -6.7223   -0.7814    0.1551 C   0  0  0  0  0  0  0  0  0  0  0  0
    6.8423   -0.0364   -0.0543 C   0  0  0  0  0  0  0  0  0  0  0  0
   -7.6154    0.1421    0.6839 C   0  0  0  0  0  0  0  0  0  0  0  0
    6.8351   -0.9064    1.0286 C   0  0  0  0  0  0  0  0  0  0  0  0
   -7.1122   -1.6472   -0.8596 C   0  0  0  0  0  0  0  0  0  0  0  0
    7.4987   -0.3724   -1.2322 C   0  0  0  0  0  0  0  0  0  0  0  0
   -8.9189    0.2009    0.1906 C   0  0  0  0  0  0  0  0  0  0  0  0
    7.4945   -2.1320    0.9326 C   0  0  0  0  0  0  0  0  0  0  0  0
   -8.4157   -1.5884   -1.3527 C   0  0  0  0  0  0  0  0  0  0  0  0
    8.1581   -1.5979   -1.3282 C   0  0  0  0  0  0  0  0  0  0  0  0
   -9.3190   -0.6644   -0.8276 C   0  0  0  0  0  0  0  0  0  0  0  0
    8.1561   -2.4775   -0.2458 C   0  0  0  0  0  0  0  0  0  0  0  0
  1 16  1  0
  2 17  1  0
  3 10  1  0
  3 12  1  0
  4 11  1  0
  4 13  1  0
  5  6  1  0
  5  7  1  0
  6  8  1  0
  7  9  1  0
  8 10  1  0
  9 11  1  0
 12 14  1  0
 13 15  1  0
 14 16  2  0
 14 18  1  0
 15 17  2  0
 15 19  1  0
 16 20  1  0
 17 21  1  0
 18 22  2  0
 19 23  2  0
 20 24  2  0
 21 25  2  0
 22 24  1  0
 23 25  1  0
M  END
>  <PUBCHEM_COMPOUND_CID>  (1) 
16342

>  <PUBCHEM_CONFORMER_RMSD>  (1) 
1.2

>  <PUBCHEM_CONFORMER_DIVERSEORDER>  (1) 
5
230
222
6
185
82
173
104
163
70
4
228
160
181
257
199
92
102
63
244
18
291
11
200
21
128
165
331
73
298
289
87
144
192
182
263
327
135
223
205
15
67
309
28
262
78
167
224
120
285
145
27
236
217
151
138
198
271
2
130
334
134
256
75
258
62
180
267
84
209
14
213
274
34
312
159
216
303
108
210
74
32
305
321
50
178
52
284
65
304
121
150
59
261
280
201
333
325
110
105
195
85
187
76
212
323
22
255
234
324
215
328
71
47
147
10
95
153
39
252
51
122
66
81
326
296
45
332
24
229
162
226
281
292
279
250
306
106
275
126
233
188
56
114
154
89
208
141
12
69
270
124
137
112
206
322
310
176
241
277
57
26
253
175
155
311
49
293
41
88
238
318
61
100
194
177
237
43
211
207
80
297
196
202
273
191
214
313
3
93
46
132
330
246
288
266
149
251
156
190
235
319
96
197
40
48
231
264
219
218
35
232
101
54
307
107
68
260
23
169
283
1
125
189
242
245
290
166
172
148
221
16
329
119
186
286
316
72
58
254
17
220
299
183
294
77
168
113
98
142
55
123
94
204
317
193
259
7
225
53
320
30
64
133
248
282
19
276
127
302
146
99
139
97
158
227
268
314
60
90
171
247
31
91
272
300
308
103
129
170
174
203
278
265
164
86
315
118
13
109
131
157
295
36
140
25
152
301
243
20
161
38
136
249
37
240
44
111
239
83
179
29
117
269
143
42
287
115
116
79
8
184
9
33

>  <PUBCHEM_MMFF94_PARTIAL_CHARGES>  (1) 
30
1 -0.18
10 0.27
11 0.27
12 0.41
13 0.41
14 -0.14
15 -0.14
16 0.18
17 0.18
18 -0.15
19 -0.15
2 -0.18
20 -0.15
21 -0.15
22 -0.15
23 -0.15
24 -0.15
25 -0.15
3 -0.9
4 -0.9
40 0.36
41 0.36
46 0.15
47 0.15
48 0.15
49 0.15
50 0.15
51 0.15
52 0.15
53 0.15

>  <PUBCHEM_EFFECTIVE_ROTOR_COUNT>  (1) 
12

>  <PUBCHEM_PHARMACOPHORE_FEATURES>  (1) 
7
1 3 cation
1 3 donor
1 4 cation
1 4 donor
5 5 6 7 8 9 hydrophobe
6 14 16 18 20 22 24 rings
6 15 17 19 21 23 25 rings

>  <PUBCHEM_HEAVY_ATOM_COUNT>  (1) 
25

>  <PUBCHEM_ATOM_DEF_STEREO_COUNT>  (1) 
0

>  <PUBCHEM_ATOM_UDEF_STEREO_COUNT>  (1) 
0

>  <PUBCHEM_BOND_DEF_STEREO_COUNT>  (1) 
0

>  <PUBCHEM_BOND_UDEF_STEREO_COUNT>  (1) 
0

>  <PUBCHEM_ISOTOPIC_ATOM_COUNT>  (1) 
0

>  <PUBCHEM_COMPONENT_COUNT>  (1) 
1

>  <PUBCHEM_CACTVS_TAUTO_COUNT>  (1) 
1

>  <PUBCHEM_CONFORMER_ID>  (1) 
00003FD600000005

>  <PUBCHEM_MMFF94_ENERGY>  (1) 
37.5992

>  <PUBCHEM_FEATURE_SELFOVERLAP>  (1) 
35.521

>  <PUBCHEM_SHAPE_FINGERPRINT>  (1) 
10319688 67 15123790699428755669
10666366 153 18040712554402696149
10981352 41 18343021091159961206
11146346 29 18261399889329547782
11638347 137 16128382558289914132
12089408 11 18130791192119158673
12522641 24 18130782400231570216
12539765 74 11458411427984354761
12592606 108 18410856568229724164
12728208 25 18413390955712192506
13008946 170 18046348797490381636
13617811 41 15719389534768493388
14202775 3 18189339130122047723
14216079 64 18335138687736416100
14919807 6 17241031125309109589
15198563 99 17023172809124395493
16126227 98 9727633904135653101
1754908 1 15554449621683828423
1818759 1 18260833700363123059
19301679 30 17988932111661914844
21095123 293 11386630903061930951
22224240 67 13183027323768741229
2835820 82 18261389993376302762
2835820 83 18266178341199371190
28498 318 18259702311340454541
33532 11 18410292523455300924
3418910 222 11963383025888777471
3711267 37 8069755117394057303
437795 160 15913321429945412679
439807 62 17603865590420228922
445580 167 9943809963340794633
45270241 37 11602808082794983792
5470011 282 16008754615156361902
59682541 35 12679464205439930159
60111433 81 8717669806794605738
6204607 403 8286199478558447199

>  <PUBCHEM_SHAPE_MULTIPOLES>  (1) 
508.27
39.65
2.42
1.51
25.59
0.28
-0.73
-22.45
1.28
-4.25
0.53
-0.91
-0.24
-2.63

>  <PUBCHEM_SHAPE_SELFOVERLAP>  (1) 
1013.308

>  <PUBCHEM_SHAPE_VOLUME>  (1) 
298.8

>  <PUBCHEM_COORDINATE_TYPE>  (1) 
2
5
10

$$$$
