16340
     RDKit          3D

 24 25  0  0  0  0  0  0  0  0999 V2000
    6.8318   -2.5031   -0.5311 Cl  0  0  0  0  0  0  0  0  0  0  0  0
   -6.7707   -2.4811    0.5984 Cl  0  0  0  0  0  0  0  0  0  0  0  0
    4.3746    0.1532   -0.1595 N   0  0  0  0  0  0  0  0  0  0  0  0
   -4.3765    0.2200    0.1447 N   0  0  0  0  0  0  0  0  0  0  0  0
    0.5598    0.1394   -0.4883 C   0  0  0  0  0  0  0  0  0  0  0  0
   -0.5869    0.1993    0.5235 C   0  0  0  0  0  0  0  0  0  0  0  0
    1.9463    0.1326    0.1632 C   0  0  0  0  0  0  0  0  0  0  0  0
   -1.9474    0.1722   -0.1783 C   0  0  0  0  0  0  0  0  0  0  0  0
    3.0897    0.1510   -0.8508 C   0  0  0  0  0  0  0  0  0  0  0  0
   -3.0908    0.2682    0.8305 C   0  0  0  0  0  0  0  0  0  0  0  0
    5.4749    0.2096   -1.1109 C   0  0  0  0  0  0  0  0  0  0  0  0
   -5.4759    0.2774    1.0978 C   0  0  0  0  0  0  0  0  0  0  0  0
    6.8131    0.2200   -0.4210 C   0  0  0  0  0  0  0  0  0  0  0  0
   -6.8156    0.2375    0.4119 C   0  0  0  0  0  0  0  0  0  0  0  0
    7.4923   -0.9615   -0.1231 C   0  0  0  0  0  0  0  0  0  0  0  0
   -7.4678   -0.9674    0.1493 C   0  0  0  0  0  0  0  0  0  0  0  0
    7.3725    1.4511   -0.0788 C   0  0  0  0  0  0  0  0  0  0  0  0
   -7.4042    1.4452    0.0370 C   0  0  0  0  0  0  0  0  0  0  0  0
    8.7308   -0.9116    0.5167 C   0  0  0  0  0  0  0  0  0  0  0  0
   -8.7087   -0.9642   -0.4880 C   0  0  0  0  0  0  0  0  0  0  0  0
    8.6109    1.5009    0.5611 C   0  0  0  0  0  0  0  0  0  0  0  0
   -8.6451    1.4482   -0.6004 C   0  0  0  0  0  0  0  0  0  0  0  0
    9.2901    0.3195    0.8589 C   0  0  0  0  0  0  0  0  0  0  0  0
   -9.2972    0.2436   -0.8628 C   0  0  0  0  0  0  0  0  0  0  0  0
  1 15  1  0
  2 16  1  0
  3  9  1  0
  3 11  1  0
  4 10  1  0
  4 12  1  0
  5  6  1  0
  5  7  1  0
  6  8  1  0
  7  9  1  0
  8 10  1  0
 11 13  1  0
 12 14  1  0
 13 15  2  0
 13 17  1  0
 14 16  2  0
 14 18  1  0
 15 19  1  0
 16 20  1  0
 17 21  2  0
 18 22  2  0
 19 23  2  0
 20 24  2  0
 21 23  1  0
 22 24  1  0
M  END
>  <PUBCHEM_COMPOUND_CID>  (1) 
16340

>  <PUBCHEM_CONFORMER_RMSD>  (1) 
1.2

>  <PUBCHEM_CONFORMER_DIVERSEORDER>  (1) 
1
39
90
45
63
80
118
58
50
96
68
105
72
16
8
3
133
89
127
85
76
17
91
7
126
79
110
101
106
40
84
19
109
29
108
107
95
73
49
14
64
21
98
25
83
74
94
41
97
18
124
28
78
69
135
104
38
116
6
11
36
35
34
32
114
112
128
30
119
131
87
115
125
47
31
15
71
67
82
22
70
54
53
113
66
13
102
9
103
44
43
132
62
122
93
10
46
75
99
100
134
130
48
88
56
61
33
77
92
57
136
65
60
37
2
129
117
123
51
81
121
24
4
111
52
59
120
86
42
23
20
55
27
26
5
12

>  <PUBCHEM_MMFF94_PARTIAL_CHARGES>  (1) 
30
1 -0.18
10 0.27
11 0.41
12 0.41
13 -0.14
14 -0.14
15 0.18
16 0.18
17 -0.15
18 -0.15
19 -0.15
2 -0.18
20 -0.15
21 -0.15
22 -0.15
23 -0.15
24 -0.15
3 -0.9
37 0.36
38 0.36
4 -0.9
43 0.15
44 0.15
45 0.15
46 0.15
47 0.15
48 0.15
49 0.15
50 0.15
9 0.27

>  <PUBCHEM_EFFECTIVE_ROTOR_COUNT>  (1) 
11

>  <PUBCHEM_PHARMACOPHORE_FEATURES>  (1) 
7
1 3 cation
1 3 donor
1 4 cation
1 4 donor
4 5 6 7 8 hydrophobe
6 13 15 17 19 21 23 rings
6 14 16 18 20 22 24 rings

>  <PUBCHEM_HEAVY_ATOM_COUNT>  (1) 
24

>  <PUBCHEM_ATOM_DEF_STEREO_COUNT>  (1) 
0

>  <PUBCHEM_ATOM_UDEF_STEREO_COUNT>  (1) 
0

>  <PUBCHEM_BOND_DEF_STEREO_COUNT>  (1) 
0

>  <PUBCHEM_BOND_UDEF_STEREO_COUNT>  (1) 
0

>  <PUBCHEM_ISOTOPIC_ATOM_COUNT>  (1) 
0

>  <PUBCHEM_COMPONENT_COUNT>  (1) 
1

>  <PUBCHEM_CACTVS_TAUTO_COUNT>  (1) 
1

>  <PUBCHEM_CONFORMER_ID>  (1) 
00003FD400000001

>  <PUBCHEM_MMFF94_ENERGY>  (1) 
36.7985

>  <PUBCHEM_FEATURE_SELFOVERLAP>  (1) 
35.52

>  <PUBCHEM_SHAPE_FINGERPRINT>  (1) 
10076449 9 14764629711910246523
10162869 55 16917062278426049396
10904742 90 18410009935697744114
11135926 11 15936124184166421059
11315181 36 17846785105640021625
12082328 90 18342457007145535909
12089408 11 17489592233773336545
13885169 127 18335140878138133917
14251764 18 15985107400859798498
14251764 46 18410573985151451141
14428016 248 12895353313300923722
15510794 2 18410575084668678474
16120349 18 18272087219438622320
21095123 145 10231751189715199233
21360442 43 17822296847044180275
21362267 313 17417258602282428722
21792934 111 18040432205398968196
22224240 67 18410013239007174894
232437 2 18410856559639997455
249057 3 15769770281890375061
28498 318 14273452583452718640
33684 2 17457781189492412681
395649 100 18334857260347756707
5758199 1 13183025107174823661
59682541 35 17346597486911938706
6126387 218 18408041793421099893
6394761 36 15357699699167500404
6691757 9 15769497616788602631
67123 10 18272369775913277768
99344 41 18334296470019255667
9962374 69 16343409687921427841

>  <PUBCHEM_SHAPE_MULTIPOLES>  (1) 
487.69
43.02
1.72
0.96
0.1
0.99
0
0.27
0.04
0.06
-0.02
-0.02
-0.01
1.15

>  <PUBCHEM_SHAPE_SELFOVERLAP>  (1) 
974.35

>  <PUBCHEM_SHAPE_VOLUME>  (1) 
286.3

>  <PUBCHEM_COORDINATE_TYPE>  (1) 
2
5
10

$$$$
