16354
     RDKit          3D

 18 19  0  0  1  0  0  0  0  0999 V2000
    4.4095   -0.2803   -0.0250 N   0  0  0  0  0  0  0  0  0  0  0  0
   -1.1543   -0.1667   -0.6392 N   0  0  0  0  0  0  0  0  0  0  0  0
   -1.7034    0.0503    0.4667 N   0  0  0  0  0  0  0  0  0  0  0  0
    3.0077   -0.2519   -0.1796 C   0  0  0  0  0  0  0  0  0  0  0  0
    5.1890    0.9324   -0.1753 C   0  0  0  0  0  0  0  0  0  0  0  0
    5.0900   -1.5249    0.2722 C   0  0  0  0  0  0  0  0  0  0  0  0
    2.2672   -1.4265   -0.0464 C   0  0  0  0  0  0  0  0  0  0  0  0
    2.3619    0.9510   -0.4655 C   0  0  0  0  0  0  0  0  0  0  0  0
    5.3080    1.6816    1.1358 C   0  0  0  0  0  0  0  0  0  0  0  0
    0.8811   -1.3984   -0.1995 C   0  0  0  0  0  0  0  0  0  0  0  0
    0.9757    0.9791   -0.6185 C   0  0  0  0  0  0  0  0  0  0  0  0
    0.2423   -0.1958   -0.4847 C   0  0  0  0  0  0  0  0  0  0  0  0
   -3.0929    0.0796    0.3134 C   0  0  0  0  0  0  0  0  0  0  0  0
   -3.8340   -1.0948    0.4461 C   0  0  0  0  0  0  0  0  0  0  0  0
   -3.7382    1.2828    0.0271 C   0  0  0  0  0  0  0  0  0  0  0  0
   -5.2201   -1.0660    0.2925 C   0  0  0  0  0  0  0  0  0  0  0  0
   -5.1244    1.3115   -0.1265 C   0  0  0  0  0  0  0  0  0  0  0  0
   -5.8653    0.1370    0.0062 C   0  0  0  0  0  0  0  0  0  0  0  0
  1  4  1  0
  1  5  1  0
  1  6  1  0
  2  3  2  0
  2 12  1  0
  3 13  1  0
  4  7  2  0
  4  8  1  0
  5  9  1  0
  7 10  1  0
  8 11  2  0
 10 12  2  0
 11 12  1  0
 13 14  2  0
 13 15  1  0
 14 16  1  0
 15 17  2  0
 16 18  2  0
 17 18  1  0
M  END
>  <PUBCHEM_COMPOUND_CID>  (1) 
16354

>  <PUBCHEM_CONFORMER_RMSD>  (1) 
0.6

>  <PUBCHEM_CONFORMER_DIVERSEORDER>  (1) 
2
8
6
10
4
7
9
5
1
3

>  <PUBCHEM_MMFF94_PARTIAL_CHARGES>  (1) 
26
1 -0.84
10 -0.15
11 -0.15
12 0.18
13 0.18
14 -0.15
15 -0.15
16 -0.15
17 -0.15
18 -0.15
2 -0.18
24 0.15
25 0.15
29 0.15
3 -0.18
30 0.15
31 0.15
32 0.15
33 0.15
34 0.15
35 0.15
4 0.1
5 0.37
6 0.37
7 -0.15
8 -0.15

>  <PUBCHEM_EFFECTIVE_ROTOR_COUNT>  (1) 
4

>  <PUBCHEM_PHARMACOPHORE_FEATURES>  (1) 
3
1 1 cation
6 13 14 15 16 17 18 rings
6 4 7 8 10 11 12 rings

>  <PUBCHEM_HEAVY_ATOM_COUNT>  (1) 
18

>  <PUBCHEM_ATOM_DEF_STEREO_COUNT>  (1) 
0

>  <PUBCHEM_ATOM_UDEF_STEREO_COUNT>  (1) 
0

>  <PUBCHEM_BOND_DEF_STEREO_COUNT>  (1) 
0

>  <PUBCHEM_BOND_UDEF_STEREO_COUNT>  (1) 
0

>  <PUBCHEM_ISOTOPIC_ATOM_COUNT>  (1) 
0

>  <PUBCHEM_COMPONENT_COUNT>  (1) 
1

>  <PUBCHEM_CACTVS_TAUTO_COUNT>  (1) 
1

>  <PUBCHEM_CONFORMER_ID>  (1) 
00003FE200000002

>  <PUBCHEM_MMFF94_ENERGY>  (1) 
60.4261

>  <PUBCHEM_FEATURE_SELFOVERLAP>  (1) 
15.223

>  <PUBCHEM_SHAPE_FINGERPRINT>  (1) 
10 15 18337103579434740184
11045977 3 18409451409966235218
11128504 68 14908179776410132936
12107183 9 17615687332692725017
12236239 1 18202844348854307927
12507557 5 18411140255705832305
12596602 18 18413106169057155755
13167823 11 18334295375039582211
13533116 47 18409729517963126354
13675066 3 18411138047849542404
14251732 16 18340767147529775971
14251764 18 18333726927970796002
14341114 176 18408610253252799827
15196674 1 18408887321434867638
15788980 27 18041005033328120787
16079462 125 18334846208826997197
17834072 33 18343863320475600758
17844677 252 18271534108542892120
1813 80 16443067183842017182
18222031 100 16443067192711591270
19489759 90 18187364329258295489
200 152 18342458140963770903
20281389 69 18335984182113833425
20645477 70 18269840821965996790
21267235 1 18334587832331928303
21641784 216 15123245346151492808
21709351 56 18261108586843924519
22079108 93 18342734165394945834
221357 26 9583519798227830587
23402539 116 18261108569848684245
23557571 272 17168708514113504158
23559900 14 18408885114312313987
26918003 58 18334860515531527275
2916195 48 18201432627500956384
300161 21 18333726901931901775
314173 85 16298386850957740541
34797466 226 17346606299989898084
351380 180 18333733528755346073
3545911 37 18409170991788661053
4073 2 17895202137552875307
4214541 1 18334579014927457109
42788 4 18410576175695613399
5104073 3 18337113375890892523
542803 24 16773800290198710793
67856867 119 18189620608554513901
7495541 125 17346313860172612427
9709674 26 18335995207448051403
9971528 1 17967818232290129252

>  <PUBCHEM_SHAPE_MULTIPOLES>  (1) 
355.49
14.88
1.63
0.79
3.82
0.02
0.06
-2.07
2.51
-0.91
0.16
-0.36
-0.13
0.58

>  <PUBCHEM_SHAPE_SELFOVERLAP>  (1) 
749.777

>  <PUBCHEM_SHAPE_VOLUME>  (1) 
200.8

>  <PUBCHEM_COORDINATE_TYPE>  (1) 
2
5
10

$$$$
