16357
     RDKit          3D

 13 14  0  0  0  0  0  0  0  0999 V2000
   -4.3192   -0.6705    0.0002 Br  0  0  0  0  0  0  0  0  0  0  0  0
    1.2664   -2.4941   -0.0013 O   0  0  0  0  0  0  0  0  0  0  0  0
    3.3489   -0.5367    0.0008 O   0  0  0  0  0  0  0  0  0  0  0  0
    1.5070    0.9655    0.0000 N   0  0  0  0  0  0  0  0  0  0  0  0
    0.1122    0.7781    0.0000 C   0  0  0  0  0  0  0  0  0  0  0  0
   -0.1985   -0.5803    0.0003 C   0  0  0  0  0  0  0  0  0  0  0  0
    1.0704   -1.3031    0.0002 C   0  0  0  0  0  0  0  0  0  0  0  0
    2.1715   -0.2493    0.0003 C   0  0  0  0  0  0  0  0  0  0  0  0
   -0.8937    1.7269   -0.0004 C   0  0  0  0  0  0  0  0  0  0  0  0
   -1.4923   -1.0565    0.0003 C   0  0  0  0  0  0  0  0  0  0  0  0
    2.1585    2.2529   -0.0003 C   0  0  0  0  0  0  0  0  0  0  0  0
   -2.2177    1.2724   -0.0003 C   0  0  0  0  0  0  0  0  0  0  0  0
   -2.5136   -0.1052    0.0002 C   0  0  0  0  0  0  0  0  0  0  0  0
  1 13  1  0
  2  7  2  0
  3  8  2  0
  4  5  1  0
  4  8  1  0
  4 11  1  0
  5  6  2  0
  5  9  1  0
  6  7  1  0
  6 10  1  0
  7  8  1  0
  9 12  2  0
 10 13  2  0
 12 13  1  0
M  END
>  <PUBCHEM_COMPOUND_CID>  (1) 
16357

>  <PUBCHEM_CONFORMER_RMSD>  (1) 
0.4

>  <PUBCHEM_CONFORMER_DIVERSEORDER>  (1) 
1

>  <PUBCHEM_MMFF94_PARTIAL_CHARGES>  (1) 
16
1 -0.11
10 -0.15
11 0.3
12 -0.15
13 0.11
14 0.15
15 0.15
19 0.15
2 -0.57
3 -0.57
4 -0.48
5 0.12
6 0.09
7 0.48
8 0.63
9 -0.15

>  <PUBCHEM_EFFECTIVE_ROTOR_COUNT>  (1) 
0.2

>  <PUBCHEM_PHARMACOPHORE_FEATURES>  (1) 
5
1 1 hydrophobe
1 2 acceptor
1 3 acceptor
5 4 5 6 7 8 rings
6 5 6 9 10 12 13 rings

>  <PUBCHEM_HEAVY_ATOM_COUNT>  (1) 
13

>  <PUBCHEM_ATOM_DEF_STEREO_COUNT>  (1) 
0

>  <PUBCHEM_ATOM_UDEF_STEREO_COUNT>  (1) 
0

>  <PUBCHEM_BOND_DEF_STEREO_COUNT>  (1) 
0

>  <PUBCHEM_BOND_UDEF_STEREO_COUNT>  (1) 
0

>  <PUBCHEM_ISOTOPIC_ATOM_COUNT>  (1) 
0

>  <PUBCHEM_COMPONENT_COUNT>  (1) 
1

>  <PUBCHEM_CACTVS_TAUTO_COUNT>  (1) 
1

>  <PUBCHEM_CONFORMER_ID>  (1) 
00003FE500000001

>  <PUBCHEM_MMFF94_ENERGY>  (1) 
33.4103

>  <PUBCHEM_FEATURE_SELFOVERLAP>  (1) 
25.464

>  <PUBCHEM_SHAPE_FINGERPRINT>  (1) 
10219947 1 18337675325317302153
10608611 8 18335697235206258997
10967382 1 18338516446948104549
11206711 2 18336268942133526701
11471102 20 18410288151305259085
12032990 46 18410016546068539891
12423570 1 8971543153773084286
13140716 1 18266455593077816442
13380535 76 18264204875563987667
14251717 144 18340482374261002487
14325111 11 18410856581230988901
15775835 57 18129103501103414685
16945 1 18410575054640518853
17844478 74 18113624482408784149
17990270 104 18338797788833810451
193761 8 16681193145886538341
19973954 147 18339080367828086729
200 152 18201991132511022087
20201158 50 18407760326665026339
20645477 70 18413103975057120831
21501502 16 18265617580707579561
2334 1 18050568744085004678
23402655 69 18412818071947834117
23463225 33 18408602565108417585
23552423 10 18408887317319280909
2748010 2 18121224435064579278
449060 62 18341618165419459985
5084963 1 18202283610624330288
528886 8 18339357594849838363
581208 293 18340762753836247841
7364860 26 18342740719377850548
8809292 202 18187089498311545179

>  <PUBCHEM_SHAPE_MULTIPOLES>  (1) 
256.76
5.35
2.16
0.61
3.63
0.06
0
-0.53
0
-1.12
0
0.09
0.01
0

>  <PUBCHEM_SHAPE_SELFOVERLAP>  (1) 
547.08

>  <PUBCHEM_SHAPE_VOLUME>  (1) 
148.2

>  <PUBCHEM_COORDINATE_TYPE>  (1) 
2
5
10

$$$$
