16368
     RDKit          3D

  8  7  0  0  0  0  0  0  0  0999 V2000
   -4.4279    0.3191    0.0670 Br  0  0  0  0  0  0  0  0  0  0  0  0
    3.3226    0.8324    0.0089 O   0  0  0  0  0  0  0  0  0  0  0  0
    2.4139   -1.2505    0.0410 O   0  0  0  0  0  0  0  0  0  0  0  0
   -0.2260   -0.3131   -0.0593 C   0  0  0  0  0  0  0  0  0  0  0  0
   -1.5838    0.3940   -0.0238 C   0  0  0  0  0  0  0  0  0  0  0  0
    0.9436    0.6654   -0.0121 C   0  0  0  0  0  0  0  0  0  0  0  0
   -2.7219   -0.6132   -0.0355 C   0  0  0  0  0  0  0  0  0  0  0  0
    2.2795   -0.0341    0.0139 C   0  0  0  0  0  0  0  0  0  0  0  0
  1  7  1  0
  2  8  1  0
  3  8  2  0
  4  5  1  0
  4  6  1  0
  5  7  1  0
  6  8  1  0
M  END
>  <PUBCHEM_COMPOUND_CID>  (1) 
16368

>  <PUBCHEM_CONFORMER_RMSD>  (1) 
0.6

>  <PUBCHEM_CONFORMER_DIVERSEORDER>  (1) 
1
27
3
24
20
26
4
25
5
6
23
19
14
13
18
9
11
15
16
22
10
17
7
8
12
21
2

>  <PUBCHEM_MMFF94_PARTIAL_CHARGES>  (1) 
7
1 -0.23
17 0.5
2 -0.65
3 -0.57
6 0.06
7 0.23
8 0.66

>  <PUBCHEM_EFFECTIVE_ROTOR_COUNT>  (1) 
4

>  <PUBCHEM_PHARMACOPHORE_FEATURES>  (1) 
4
1 1 hydrophobe
1 2 acceptor
1 3 acceptor
3 2 3 8 anion

>  <PUBCHEM_HEAVY_ATOM_COUNT>  (1) 
8

>  <PUBCHEM_ATOM_DEF_STEREO_COUNT>  (1) 
0

>  <PUBCHEM_ATOM_UDEF_STEREO_COUNT>  (1) 
0

>  <PUBCHEM_BOND_DEF_STEREO_COUNT>  (1) 
0

>  <PUBCHEM_BOND_UDEF_STEREO_COUNT>  (1) 
0

>  <PUBCHEM_ISOTOPIC_ATOM_COUNT>  (1) 
0

>  <PUBCHEM_COMPONENT_COUNT>  (1) 
1

>  <PUBCHEM_CACTVS_TAUTO_COUNT>  (1) 
1

>  <PUBCHEM_CONFORMER_ID>  (1) 
00003FF000000001

>  <PUBCHEM_MMFF94_ENERGY>  (1) 
2.542

>  <PUBCHEM_FEATURE_SELFOVERLAP>  (1) 
20.355

>  <PUBCHEM_SHAPE_FINGERPRINT>  (1) 
11062470 55 18343865524184109641
12932764 1 17489576870680677741
14325111 11 18410855464781903183
190213 19 17530967977782516389
20645477 70 18339922615194378423
20719005 15 18411138043939703299
5460574 1 9295293841222510676

>  <PUBCHEM_SHAPE_MULTIPOLES>  (1) 
158.84
7.39
0.98
0.61
4.02
0.1
0
-0.59
0.19
-0.37
0.01
0.15
-0.01
-0.03

>  <PUBCHEM_SHAPE_SELFOVERLAP>  (1) 
274.334

>  <PUBCHEM_SHAPE_VOLUME>  (1) 
107.1

>  <PUBCHEM_COORDINATE_TYPE>  (1) 
2
5
10

$$$$
