16366
     RDKit          3D

 12 13  0  0  0  0  0  0  0  0999 V2000
    4.1858    0.5409   -0.0009 Cl  0  0  0  0  0  0  0  0  0  0  0  0
   -4.1860   -0.5409   -0.0008 Cl  0  0  0  0  0  0  0  0  0  0  0  0
    0.1744    0.6858    0.0002 C   0  0  0  0  0  0  0  0  0  0  0  0
   -0.1744   -0.6857    0.0002 C   0  0  0  0  0  0  0  0  0  0  0  0
    1.5309    1.0495    0.0003 C   0  0  0  0  0  0  0  0  0  0  0  0
   -1.5308   -1.0495    0.0001 C   0  0  0  0  0  0  0  0  0  0  0  0
    0.8436   -1.6533    0.0002 C   0  0  0  0  0  0  0  0  0  0  0  0
   -0.8437    1.6534    0.0002 C   0  0  0  0  0  0  0  0  0  0  0  0
    2.5291    0.0748    0.0002 C   0  0  0  0  0  0  0  0  0  0  0  0
   -2.5290   -0.0749    0.0001 C   0  0  0  0  0  0  0  0  0  0  0  0
    2.1862   -1.2739    0.0002 C   0  0  0  0  0  0  0  0  0  0  0  0
   -2.1861    1.2739    0.0001 C   0  0  0  0  0  0  0  0  0  0  0  0
  1  9  1  0
  2 10  1  0
  3  4  1  0
  3  5  2  0
  3  8  1  0
  4  6  1  0
  4  7  2  0
  5  9  1  0
  6 10  2  0
  7 11  1  0
  8 12  2  0
  9 11  2  0
 10 12  1  0
M  END
>  <PUBCHEM_COMPOUND_CID>  (1) 
16366

>  <PUBCHEM_CONFORMER_RMSD>  (1) 
0.4

>  <PUBCHEM_CONFORMER_DIVERSEORDER>  (1) 
1

>  <PUBCHEM_MMFF94_PARTIAL_CHARGES>  (1) 
16
1 -0.18
10 0.18
11 -0.15
12 -0.15
13 0.15
14 0.15
15 0.15
16 0.15
17 0.15
18 0.15
2 -0.18
5 -0.15
6 -0.15
7 -0.15
8 -0.15
9 0.18

>  <PUBCHEM_EFFECTIVE_ROTOR_COUNT>  (1) 
0

>  <PUBCHEM_PHARMACOPHORE_FEATURES>  (1) 
2
6 3 4 5 7 9 11 rings
6 3 4 6 8 10 12 rings

>  <PUBCHEM_HEAVY_ATOM_COUNT>  (1) 
12

>  <PUBCHEM_ATOM_DEF_STEREO_COUNT>  (1) 
0

>  <PUBCHEM_ATOM_UDEF_STEREO_COUNT>  (1) 
0

>  <PUBCHEM_BOND_DEF_STEREO_COUNT>  (1) 
0

>  <PUBCHEM_BOND_UDEF_STEREO_COUNT>  (1) 
0

>  <PUBCHEM_ISOTOPIC_ATOM_COUNT>  (1) 
0

>  <PUBCHEM_COMPONENT_COUNT>  (1) 
1

>  <PUBCHEM_CACTVS_TAUTO_COUNT>  (1) 
1

>  <PUBCHEM_CONFORMER_ID>  (1) 
00003FEE00000001

>  <PUBCHEM_MMFF94_ENERGY>  (1) 
30.1129

>  <PUBCHEM_FEATURE_SELFOVERLAP>  (1) 
10.175

>  <PUBCHEM_SHAPE_FINGERPRINT>  (1) 
10608611 8 18338231557599416396
10967382 1 18410574010963491910
11132069 177 18341326785920987282
11471102 20 18410569578915932239
11806522 49 18411134783732621047
12032990 46 18410300215668082731
12932764 1 17131818846533976070
13380535 76 18408886252294323362
14144814 61 18410856525280051371
14325111 11 18410573942386602368
14576447 43 18128519648035119079
15536298 74 18271244924484961566
15775835 57 18272091599476595312
16945 1 18410573998036353030
17844478 74 18186528687399127153
193761 8 17906452130063974405
200 152 18201710765604231789
20201158 50 18407760343702392763
20510252 161 18272934882003839017
20588541 1 18410578413310388035
20645477 70 18339636729629074759
21501502 16 18266741277074666313
2334 1 17762338419456868356
23402539 116 18340477954307060487
23402655 69 18341039732372713573
23463225 33 18408040693191735564
23552423 10 18189620449186711587
23559900 14 18052812555977340370
2748010 2 18194401095663485175
5104073 3 18338517443380511720
528886 8 18411414042163328650
53655031 270 18410855473018345009
53812653 166 18271802454094599624
7364860 26 18198341758824235974
8809292 202 18115030826147109691

>  <PUBCHEM_SHAPE_MULTIPOLES>  (1) 
250.69
6.1
1.65
0.62
0
0
0
0
0
0
0
0
0
0

>  <PUBCHEM_SHAPE_SELFOVERLAP>  (1) 
530.546

>  <PUBCHEM_SHAPE_VOLUME>  (1) 
136.3

>  <PUBCHEM_COORDINATE_TYPE>  (1) 
2
5
10

$$$$
