16365
     RDKit          3D

 12 12  0  0  0  0  0  0  0  0999 V2000
    0.1829   -0.4936   -0.6043 O   0  0  0  0  0  0  0  0  0  0  0  0
    3.4088    0.8189    0.2089 O   0  0  0  0  0  0  0  0  0  0  0  0
    2.6731   -1.3529   -0.0562 O   0  0  0  0  0  0  0  0  0  0  0  0
   -1.1107   -0.2237   -0.2793 C   0  0  0  0  0  0  0  0  0  0  0  0
    1.1495    0.5151   -0.3139 C   0  0  0  0  0  0  0  0  0  0  0  0
   -1.5736    1.0921   -0.2928 C   0  0  0  0  0  0  0  0  0  0  0  0
   -1.9739   -1.2631    0.0679 C   0  0  0  0  0  0  0  0  0  0  0  0
   -2.8994    1.3687    0.0410 C   0  0  0  0  0  0  0  0  0  0  0  0
   -3.2998   -0.9865    0.4017 C   0  0  0  0  0  0  0  0  0  0  0  0
   -3.7624    0.3294    0.3882 C   0  0  0  0  0  0  0  0  0  0  0  0
    2.4760   -0.1455   -0.0452 C   0  0  0  0  0  0  0  0  0  0  0  0
    4.7295    0.3410    0.4841 C   0  0  0  0  0  0  0  0  0  0  0  0
  1  4  1  0
  1  5  1  0
  2 11  1  0
  2 12  1  0
  3 11  2  0
  4  6  2  0
  4  7  1  0
  5 11  1  0
  6  8  1  0
  7  9  2  0
  8 10  2  0
  9 10  1  0
M  END
>  <PUBCHEM_COMPOUND_CID>  (1) 
16365

>  <PUBCHEM_CONFORMER_RMSD>  (1) 
0.6

>  <PUBCHEM_CONFORMER_DIVERSEORDER>  (1) 
1
10
9
8
11
26
16
15
7
13
5
4
22
25
3
17
2
23
14
19
6
21
24
12
20
18

>  <PUBCHEM_MMFF94_PARTIAL_CHARGES>  (1) 
17
1 -0.36
10 -0.15
11 0.66
12 0.28
15 0.15
16 0.15
17 0.15
18 0.15
19 0.15
2 -0.43
3 -0.57
4 0.08
5 0.34
6 -0.15
7 -0.15
8 -0.15
9 -0.15

>  <PUBCHEM_EFFECTIVE_ROTOR_COUNT>  (1) 
4

>  <PUBCHEM_PHARMACOPHORE_FEATURES>  (1) 
3
1 1 acceptor
1 3 acceptor
6 4 6 7 8 9 10 rings

>  <PUBCHEM_HEAVY_ATOM_COUNT>  (1) 
12

>  <PUBCHEM_ATOM_DEF_STEREO_COUNT>  (1) 
0

>  <PUBCHEM_ATOM_UDEF_STEREO_COUNT>  (1) 
0

>  <PUBCHEM_BOND_DEF_STEREO_COUNT>  (1) 
0

>  <PUBCHEM_BOND_UDEF_STEREO_COUNT>  (1) 
0

>  <PUBCHEM_ISOTOPIC_ATOM_COUNT>  (1) 
0

>  <PUBCHEM_COMPONENT_COUNT>  (1) 
1

>  <PUBCHEM_CACTVS_TAUTO_COUNT>  (1) 
1

>  <PUBCHEM_CONFORMER_ID>  (1) 
00003FED00000001

>  <PUBCHEM_MMFF94_ENERGY>  (1) 
31.3075

>  <PUBCHEM_FEATURE_SELFOVERLAP>  (1) 
15.23

>  <PUBCHEM_SHAPE_FINGERPRINT>  (1) 
10608611 8 18340486668737824445
11132069 177 18334860506614538557
12251169 10 18408606980450946429
12932764 1 17489577978824425230
13024252 1 14273454778265337893
13214271 11 18343581854516079765
13897977 58 18336552710833997076
14144814 61 18408323263427350227
14325111 11 18410857633487108695
14445660 50 18411426111068929113
15219456 202 18201445731087376431
190213 19 17749111084216316615
19050596 39 18334015025096142872
20279233 1 18341898484591032239
20510252 161 18343024342007319905
20528008 55 18412259541141090213
20645464 45 18202852049862408527
20645477 70 17489028141649038294
20711985 327 16877663478573413828
20828058 44 18334011696675706754
20871998 184 18272096045348528399
20871999 31 10735873929465517505
21119208 17 10447931667624114536
22485316 2 17167856457021010402
23402539 116 18340761629071976231
3248919 1 17385734607323396366
42 15 18260829276515016642
449060 50 18412263947804072116
77779 3 18410576176038452762

>  <PUBCHEM_SHAPE_MULTIPOLES>  (1) 
229.35
8.13
1.32
0.69
6.88
0.06
-0.01
-0.66
-1.82
-0.68
-0.01
-0.02
-0.01
0.2

>  <PUBCHEM_SHAPE_SELFOVERLAP>  (1) 
467.217

>  <PUBCHEM_SHAPE_VOLUME>  (1) 
133.5

>  <PUBCHEM_COORDINATE_TYPE>  (1) 
2
5
10

$$$$
