16372
     RDKit          3D

 10  9  0  0  1  0  0  0  0  0999 V2000
   -3.3270   -0.5899    0.7766 S   0  0  0  0  0  0  0  0  0  0  0  0
    0.7115   -1.7658    0.5168 O   0  0  0  0  0  0  0  0  0  0  0  0
   -1.5676    0.0264   -1.6130 O   0  0  0  0  0  0  0  0  0  0  0  0
    2.4225   -0.9533   -0.7314 O   0  0  0  0  0  0  0  0  0  0  0  0
    2.2707    1.4043    0.6540 N   0  0  0  0  0  0  0  0  0  0  0  0
   -1.8855    0.2890    0.6825 N   0  0  0  0  0  0  0  0  0  0  0  0
    1.0559    0.5974    0.5653 C   0  0  0  0  0  0  0  0  0  0  0  0
    0.0514    1.2845   -0.3659 C   0  0  0  0  0  0  0  0  0  0  0  0
   -1.2190    0.4660   -0.5189 C   0  0  0  0  0  0  0  0  0  0  0  0
    1.4872   -0.7586    0.0339 C   0  0  0  0  0  0  0  0  0  0  0  0
  1  6  1  0
  2 10  1  0
  3  9  2  0
  4 10  2  0
  5  7  1  0
  6  9  1  0
  7  8  1  0
  7 10  1  0
  8  9  1  0
M  END
>  <PUBCHEM_COMPOUND_CID>  (1) 
16372

>  <PUBCHEM_CONFORMER_RMSD>  (1) 
0.6

>  <PUBCHEM_CONFORMER_DIVERSEORDER>  (1) 
1
4
16
36
8
17
28
21
32
10
31
18
23
12
15
40
9
5
2
7
6
34
20
24
3
37
33
39
19
30
35
22
13
38
25
41
29
14
27
26
11

>  <PUBCHEM_MMFF94_PARTIAL_CHARGES>  (1) 
15
1 -0.17
10 0.66
14 0.36
15 0.36
16 0.37
17 0.5
18 0.18
2 -0.65
3 -0.57
4 -0.57
5 -0.99
6 -0.44
7 0.33
8 0.06
9 0.57

>  <PUBCHEM_EFFECTIVE_ROTOR_COUNT>  (1) 
4

>  <PUBCHEM_PHARMACOPHORE_FEATURES>  (1) 
7
1 2 acceptor
1 3 acceptor
1 4 acceptor
1 5 cation
1 5 donor
1 6 donor
3 2 4 10 anion

>  <PUBCHEM_HEAVY_ATOM_COUNT>  (1) 
10

>  <PUBCHEM_ATOM_DEF_STEREO_COUNT>  (1) 
1

>  <PUBCHEM_ATOM_UDEF_STEREO_COUNT>  (1) 
0

>  <PUBCHEM_BOND_DEF_STEREO_COUNT>  (1) 
0

>  <PUBCHEM_BOND_UDEF_STEREO_COUNT>  (1) 
0

>  <PUBCHEM_ISOTOPIC_ATOM_COUNT>  (1) 
0

>  <PUBCHEM_COMPONENT_COUNT>  (1) 
1

>  <PUBCHEM_CACTVS_TAUTO_COUNT>  (1) 
2

>  <PUBCHEM_CONFORMER_ID>  (1) 
00003FF400000001

>  <PUBCHEM_MMFF94_ENERGY>  (1) 
12.0557

>  <PUBCHEM_FEATURE_SELFOVERLAP>  (1) 
35.579

>  <PUBCHEM_SHAPE_FINGERPRINT>  (1) 
10857977 72 17895194432671338841
12897270 3 15285655290821660927
20653085 51 15839306833584821680
20711978 78 18341892952852535415
20711985 344 16588303822497117805
21922407 69 16987693831678480993
23235685 24 18267301117609253256
23552333 60 17628599146713880653
24536 1 17314784101256621252
29004967 10 18334571343483039129
5084963 1 17240768337249923106

>  <PUBCHEM_SHAPE_MULTIPOLES>  (1) 
182.07
4.06
1.44
1.09
2.3
0.24
-0.28
0.76
0.78
-0.7
0.12
0.3
-0.08
0.55

>  <PUBCHEM_SHAPE_SELFOVERLAP>  (1) 
338.705

>  <PUBCHEM_SHAPE_VOLUME>  (1) 
115

>  <PUBCHEM_COORDINATE_TYPE>  (1) 
2
5
10

$$$$
