16395
     RDKit          3D

 19 19  0  0  0  0  0  0  0  0999 V2000
    0.2470    0.3575   -0.7093 O   0  0  0  0  0  0  0  0  0  0  0  0
   -0.6479    0.1930    1.4444 O   0  0  0  0  0  0  0  0  0  0  0  0
   -3.1740    0.1431    0.2487 N   0  0  0  0  0  0  0  0  0  0  0  0
   -2.0536    0.7519   -0.4675 C   0  0  0  0  0  0  0  0  0  0  0  0
    1.4933    0.0401   -0.1637 C   0  0  0  0  0  0  0  0  0  0  0  0
   -4.4425    0.5103   -0.3797 C   0  0  0  0  0  0  0  0  0  0  0  0
   -3.0253   -1.3112    0.2885 C   0  0  0  0  0  0  0  0  0  0  0  0
    1.8659   -1.2851   -0.0849 C   0  0  0  0  0  0  0  0  0  0  0  0
    2.3064    1.0629    0.2762 C   0  0  0  0  0  0  0  0  0  0  0  0
    0.9788   -2.3860   -0.5650 C   0  0  0  0  0  0  0  0  0  0  0  0
    1.8944    2.4954    0.1862 C   0  0  0  0  0  0  0  0  0  0  0  0
   -0.7697    0.4018    0.2447 C   0  0  0  0  0  0  0  0  0  0  0  0
    3.1105   -1.6021    0.4593 C   0  0  0  0  0  0  0  0  0  0  0  0
    3.5510    0.7457    0.8204 C   0  0  0  0  0  0  0  0  0  0  0  0
   -4.6418    2.0165   -0.3746 C   0  0  0  0  0  0  0  0  0  0  0  0
   -4.1815   -1.9611    1.0295 C   0  0  0  0  0  0  0  0  0  0  0  0
    3.9530   -0.5866    0.9120 C   0  0  0  0  0  0  0  0  0  0  0  0
    1.2185   -2.7237   -2.0337 C   0  0  0  0  0  0  0  0  0  0  0  0
    2.3176    3.1376   -1.1315 C   0  0  0  0  0  0  0  0  0  0  0  0
  1  5  1  0
  1 12  1  0
  2 12  2  0
  3  4  1  0
  3  6  1  0
  3  7  1  0
  4 12  1  0
  5  8  2  0
  5  9  1  0
  6 15  1  0
  7 16  1  0
  8 10  1  0
  8 13  1  0
  9 11  1  0
  9 14  2  0
 10 18  1  0
 11 19  1  0
 13 17  2  0
 14 17  1  0
M  END
>  <PUBCHEM_COMPOUND_CID>  (1) 
16395

>  <PUBCHEM_CONFORMER_RMSD>  (1) 
0.8

>  <PUBCHEM_CONFORMER_DIVERSEORDER>  (1) 
1
46
26
33
40
17
13
7
48
52
4
15
20
51
16
49
39
44
41
43
50
37
6
36
14
23
5
22
18
30
24
45
28
35
32
27
38
42
47
8
3
29
12
9
21
34
25
2
10
11
31
19

>  <PUBCHEM_MMFF94_PARTIAL_CHARGES>  (1) 
18
1 -0.23
10 0.14
11 0.14
12 0.66
13 -0.15
14 -0.15
17 -0.15
2 -0.57
3 -0.81
30 0.15
31 0.15
38 0.15
4 0.33
5 0.08
6 0.27
7 0.27
8 -0.14
9 -0.14

>  <PUBCHEM_EFFECTIVE_ROTOR_COUNT>  (1) 
8

>  <PUBCHEM_PHARMACOPHORE_FEATURES>  (1) 
5
1 18 hydrophobe
1 19 hydrophobe
1 2 acceptor
1 3 cation
6 5 8 9 13 14 17 rings

>  <PUBCHEM_HEAVY_ATOM_COUNT>  (1) 
19

>  <PUBCHEM_ATOM_DEF_STEREO_COUNT>  (1) 
0

>  <PUBCHEM_ATOM_UDEF_STEREO_COUNT>  (1) 
0

>  <PUBCHEM_BOND_DEF_STEREO_COUNT>  (1) 
0

>  <PUBCHEM_BOND_UDEF_STEREO_COUNT>  (1) 
0

>  <PUBCHEM_ISOTOPIC_ATOM_COUNT>  (1) 
0

>  <PUBCHEM_COMPONENT_COUNT>  (1) 
1

>  <PUBCHEM_CACTVS_TAUTO_COUNT>  (1) 
1

>  <PUBCHEM_CONFORMER_ID>  (1) 
0000400B00000001

>  <PUBCHEM_MMFF94_ENERGY>  (1) 
42.5587

>  <PUBCHEM_FEATURE_SELFOVERLAP>  (1) 
25.371

>  <PUBCHEM_SHAPE_FINGERPRINT>  (1) 
10498660 4 12823301156913327115
10616163 171 18339643459705430423
108634 29 17685195193304507637
10871710 139 16750445877008850516
11370993 70 18340761577142179555
11405975 8 18333169470943176793
116883 192 18052258397141440156
12633257 1 18114452375529772153
13134695 92 18188198824102849804
13836976 161 18343297093477859726
14178342 30 18270970020386013250
14289901 80 18263645233178574089
15375358 24 18340482262570870607
1601671 61 18408886222572352868
17492 89 18261393398842055539
18186145 218 18342751710225528393
200 152 17989196024068471785
20645477 56 18259985942997454573
20645477 70 18201715103226094103
21065198 57 18334293163141623609
21524375 3 17978524348946125916
21709351 56 18409721885236191445
221490 88 18261961833193997818
23558518 356 17687171407437767616
23559900 14 18411415077218623153
26918003 58 18339916035114031355
2748010 2 18054504699792170910
3060560 45 18273215279491988374
4214541 1 18334572430700498289
495365 180 17988060249863218889
5104073 3 18335698360239641649
58051976 378 18411979165728787407
6443956 14 18270118981412187684
7364860 26 17987800704973690622
81228 2 17762350110680017392
8272917 22 18130506319226912909
9709674 26 18340207397707162183

>  <PUBCHEM_SHAPE_MULTIPOLES>  (1) 
374.29
8.36
3.14
1.22
8.83
0.45
0.31
1.05
-1.6
-1.18
1.27
-0.38
-0.52
0.74

>  <PUBCHEM_SHAPE_SELFOVERLAP>  (1) 
753.154

>  <PUBCHEM_SHAPE_VOLUME>  (1) 
220.3

>  <PUBCHEM_COORDINATE_TYPE>  (1) 
2
5
10

$$$$
