16400
     RDKit          3D

 13 12  0  0  0  0  0  0  0  0999 V2000
    0.5274    0.8576   -0.5819 S   0  0  0  0  0  0  0  0  0  0  0  0
    2.2676    0.1755    0.3785 P   0  0  0  0  0  0  0  0  0  0  0  0
    3.5697    0.8022   -0.3673 O   0  0  0  0  0  0  0  0  0  0  0  0
    2.4587   -1.4232    0.1542 O   0  0  0  0  0  0  0  0  0  0  0  0
   -3.1493   -0.2549    0.3395 O   0  0  0  0  0  0  0  0  0  0  0  0
    2.2258    0.5291    1.8427 O   0  0  0  0  0  0  0  0  0  0  0  0
   -2.3461    1.1993   -1.2571 O   0  0  0  0  0  0  0  0  0  0  0  0
   -0.8348    0.0208    0.2533 C   0  0  0  0  0  0  0  0  0  0  0  0
   -2.1657    0.4162   -0.3350 C   0  0  0  0  0  0  0  0  0  0  0  0
   -4.4871    0.0063   -0.0976 C   0  0  0  0  0  0  0  0  0  0  0  0
   -5.4481   -0.8068    0.7433 C   0  0  0  0  0  0  0  0  0  0  0  0
    4.8604    0.4312    0.0861 C   0  0  0  0  0  0  0  0  0  0  0  0
    2.5217   -1.9533   -1.1586 C   0  0  0  0  0  0  0  0  0  0  0  0
  1  2  1  0
  1  8  1  0
  2  3  1  0
  2  4  1  0
  2  6  2  0
  3 12  1  0
  4 13  1  0
  5  9  1  0
  5 10  1  0
  7  9  2  0
  8  9  1  0
 10 11  1  0
M  END
>  <PUBCHEM_COMPOUND_CID>  (1) 
16400

>  <PUBCHEM_CONFORMER_RMSD>  (1) 
0.8

>  <PUBCHEM_CONFORMER_DIVERSEORDER>  (1) 
1
74
11
33
127
99
29
55
83
10
101
2
129
44
118
34
39
23
41
13
114
117
35
54
9
115
80
72
121
37
63
76
21
96
75
26
97
20
49
69
120
24
98
93
92
104
17
3
112
125
124
111
43
64
88
45
123
40
30
14
126
90
32
89
102
95
38
15
128
22
18
82
48
46
77
12
57
78
5
116
56
66
122
60
107
42
81
85
58
25
73
4
94
119
84
7
100
110
31
51
19
52
70
106
105
50
6
61
28
47
36
16
79
62
108
91
109
8
65
53
113
87
86
67
59
68
71
103
27

>  <PUBCHEM_MMFF94_PARTIAL_CHARGES>  (1) 
12
1 -0.48
10 0.28
12 0.28
13 0.28
2 1.49
3 -0.55
4 -0.55
5 -0.43
6 -0.7
7 -0.57
8 0.29
9 0.66

>  <PUBCHEM_EFFECTIVE_ROTOR_COUNT>  (1) 
7

>  <PUBCHEM_PHARMACOPHORE_FEATURES>  (1) 
2
1 6 acceptor
1 7 acceptor

>  <PUBCHEM_HEAVY_ATOM_COUNT>  (1) 
13

>  <PUBCHEM_ATOM_DEF_STEREO_COUNT>  (1) 
0

>  <PUBCHEM_ATOM_UDEF_STEREO_COUNT>  (1) 
0

>  <PUBCHEM_BOND_DEF_STEREO_COUNT>  (1) 
0

>  <PUBCHEM_BOND_UDEF_STEREO_COUNT>  (1) 
0

>  <PUBCHEM_ISOTOPIC_ATOM_COUNT>  (1) 
0

>  <PUBCHEM_COMPONENT_COUNT>  (1) 
1

>  <PUBCHEM_CACTVS_TAUTO_COUNT>  (1) 
1

>  <PUBCHEM_CONFORMER_ID>  (1) 
0000401000000001

>  <PUBCHEM_MMFF94_ENERGY>  (1) 
9.2141

>  <PUBCHEM_FEATURE_SELFOVERLAP>  (1) 
10.149

>  <PUBCHEM_SHAPE_FINGERPRINT>  (1) 
11543360 7 12829498073382674531
124424 183 9439404644469170804
12616999 72 18410580586959322894
12932764 1 17346021312411613804
13296908 3 18335416807847751021
13533116 47 17774726368666532639
13911882 115 18339376243656535306
14123238 8 18114181955978164201
14252887 29 18334301963054872361
17802600 8 8430322324481110079
17834072 33 18187368787022983117
20279233 1 17676496042051758547
20645477 70 18270680861639437567
22485316 2 18342738516402538663
23402539 116 17240475936161170175
23557571 272 17676203546199749996
449060 50 18342175591654587580
58051976 378 18334012813077092390

>  <PUBCHEM_SHAPE_MULTIPOLES>  (1) 
245.89
10.61
1.34
1.13
7.65
0.74
0.14
1.18
1.63
-1.08
-0.36
-0.15
-0.12
0.94

>  <PUBCHEM_SHAPE_SELFOVERLAP>  (1) 
427.841

>  <PUBCHEM_SHAPE_VOLUME>  (1) 
164

>  <PUBCHEM_COORDINATE_TYPE>  (1) 
2
5
10

$$$$
