16410
     RDKit          3D

 24 26  0  0  0  0  0  0  0  0999 V2000
    4.4492    1.6148    0.1379 S   0  0  0  0  0  0  0  0  0  0  0  0
   -2.1683   -3.0409    0.3305 O   0  0  0  0  0  0  0  0  0  0  0  0
    1.2249   -3.3070   -0.2765 O   0  0  0  0  0  0  0  0  0  0  0  0
    4.9514    1.9289   -1.3859 O   0  0  0  0  0  0  0  0  0  0  0  0
    3.5660    2.7047    0.5268 O   0  0  0  0  0  0  0  0  0  0  0  0
    5.6174    1.2849    0.9394 O   0  0  0  0  0  0  0  0  0  0  0  0
   -0.6372   -0.7482    0.5284 N   0  0  0  0  0  0  0  0  0  0  0  0
   -0.0237   -0.8116   -0.5603 N   0  0  0  0  0  0  0  0  0  0  0  0
   -2.6361    0.6072    0.1471 C   0  0  0  0  0  0  0  0  0  0  0  0
   -4.0293    0.6683   -0.0939 C   0  0  0  0  0  0  0  0  0  0  0  0
   -2.0181   -0.6460    0.2884 C   0  0  0  0  0  0  0  0  0  0  0  0
   -4.7634   -0.5254   -0.1868 C   0  0  0  0  0  0  0  0  0  0  0  0
   -1.9022    1.8010    0.2397 C   0  0  0  0  0  0  0  0  0  0  0  0
   -2.7628   -1.8220    0.1937 C   0  0  0  0  0  0  0  0  0  0  0  0
   -4.6475    1.9213   -0.2354 C   0  0  0  0  0  0  0  0  0  0  0  0
    3.4899    0.1612    0.0141 C   0  0  0  0  0  0  0  0  0  0  0  0
   -4.1329   -1.7619   -0.0437 C   0  0  0  0  0  0  0  0  0  0  0  0
    1.3574   -0.9136   -0.3208 C   0  0  0  0  0  0  0  0  0  0  0  0
    2.1180    0.2484   -0.2231 C   0  0  0  0  0  0  0  0  0  0  0  0
   -2.5328    3.0373    0.0968 C   0  0  0  0  0  0  0  0  0  0  0  0
   -3.9030    3.0974   -0.1402 C   0  0  0  0  0  0  0  0  0  0  0  0
    1.9580   -2.1620   -0.1831 C   0  0  0  0  0  0  0  0  0  0  0  0
    4.0956   -1.0877    0.1528 C   0  0  0  0  0  0  0  0  0  0  0  0
    3.3297   -2.2493    0.0541 C   0  0  0  0  0  0  0  0  0  0  0  0
  1  4  1  0
  1  5  2  0
  1  6  2  0
  1 16  1  0
  2 14  1  0
  3 22  1  0
  7  8  2  0
  7 11  1  0
  8 18  1  0
  9 10  1  0
  9 11  2  0
  9 13  1  0
 10 12  2  0
 10 15  1  0
 11 14  1  0
 12 17  1  0
 13 20  2  0
 14 17  2  0
 15 21  2  0
 16 19  2  0
 16 23  1  0
 18 19  1  0
 18 22  2  0
 20 21  1  0
 22 24  1  0
 23 24  2  0
M  END
>  <PUBCHEM_COMPOUND_CID>  (1) 
16410

>  <PUBCHEM_CONFORMER_RMSD>  (1) 
0.6

>  <PUBCHEM_CONFORMER_DIVERSEORDER>  (1) 
1
17
4
18
12
10
19
11
2
3
13
15
20
5
16
9
8
6
7
14

>  <PUBCHEM_MMFF94_PARTIAL_CHARGES>  (1) 
34
1 1.49
11 0.18
12 -0.15
13 -0.15
14 0.08
15 -0.15
16 -0.01
17 -0.15
18 0.18
19 -0.15
2 -0.53
20 -0.15
21 -0.15
22 0.08
23 -0.15
24 -0.15
25 0.15
26 0.15
27 0.15
28 0.15
29 0.15
3 -0.53
30 0.15
31 0.15
32 0.15
33 0.15
34 0.45
35 0.45
36 0.5
4 -0.68
5 -0.65
6 -0.65
7 -0.18
8 -0.18

>  <PUBCHEM_EFFECTIVE_ROTOR_COUNT>  (1) 
3

>  <PUBCHEM_PHARMACOPHORE_FEATURES>  (1) 
9
1 2 donor
1 3 donor
1 4 acceptor
1 5 acceptor
1 6 acceptor
4 1 4 5 6 anion
6 16 18 19 22 23 24 rings
6 9 10 11 12 14 17 rings
6 9 10 13 15 20 21 rings

>  <PUBCHEM_HEAVY_ATOM_COUNT>  (1) 
24

>  <PUBCHEM_ATOM_DEF_STEREO_COUNT>  (1) 
0

>  <PUBCHEM_ATOM_UDEF_STEREO_COUNT>  (1) 
0

>  <PUBCHEM_BOND_DEF_STEREO_COUNT>  (1) 
0

>  <PUBCHEM_BOND_UDEF_STEREO_COUNT>  (1) 
0

>  <PUBCHEM_ISOTOPIC_ATOM_COUNT>  (1) 
0

>  <PUBCHEM_COMPONENT_COUNT>  (1) 
1

>  <PUBCHEM_CACTVS_TAUTO_COUNT>  (1) 
8

>  <PUBCHEM_CONFORMER_ID>  (1) 
0000401A00000001

>  <PUBCHEM_MMFF94_ENERGY>  (1) 
60.77

>  <PUBCHEM_FEATURE_SELFOVERLAP>  (1) 
45.752

>  <PUBCHEM_SHAPE_FINGERPRINT>  (1) 
10411042 1 17762055841244327227
10498660 4 18413393141787553752
10616163 171 18410858797375773127
10670039 82 18262815054992956836
11370993 70 18339077073598934583
11405975 8 18263081037410551210
11595378 159 17531235132858656281
12107183 9 17902785267739481506
12173636 292 18337671911008440159
12403259 118 18340754975740431618
12403260 363 18338506439822491667
12596602 18 16806164496324356144
12633257 1 18117549639908798082
12925494 130 18341888542191031737
14251764 38 18334859441610719000
14466204 15 18411973685725597192
14739800 52 18338216259463829736
14790565 3 18191313882579564268
15196674 1 18411136905145830281
15961568 22 18260552259794150252
17492 89 18410576154385171171
17844677 252 18339931423950418358
18681886 176 18271800169504970034
20510252 161 18340771451582963411
20645477 56 18263369096962087685
20715895 44 17978222764885231473
21033648 144 18336537210096624725
21033648 29 17314226657836733565
21065198 57 18338517426222292734
21315763 129 18411415090446799490
21315764 268 18116992187550692341
21623110 236 18413112740958979209
21709351 56 18341889633032999438
21756936 100 18199741622136542716
21859007 373 17099447991863131893
22393880 68 18341622490530590278
23227448 37 18412260623430878333
23558518 356 18187655699576159011
23559900 14 18127406748614537634
245318 6 17026860759918069412
3380486 145 18046926032752293147
350125 39 18409730643312752678
4214541 1 18338517422111526007
474 4 17749677371612560636
5104073 3 18335423426482239947
67856867 119 18337946797246972698
7808743 9 17979914136360692880
9709674 26 18269278971761677343
9981440 41 18335138712952741843

>  <PUBCHEM_SHAPE_MULTIPOLES>  (1) 
458.45
11.77
3.86
0.74
5.07
0.26
-0.06
5.76
-0.1
-0.6
0.02
0.44
0.17
0.24

>  <PUBCHEM_SHAPE_SELFOVERLAP>  (1) 
1002.245

>  <PUBCHEM_SHAPE_VOLUME>  (1) 
249.1

>  <PUBCHEM_COORDINATE_TYPE>  (1) 
2
5
10

$$$$
