16415
     RDKit          3D

 15 14  0  0  1  0  0  0  0  0999 V2000
    0.9573    2.3180    0.9170 Cl  0  0  0  0  0  0  0  0  0  0  0  0
   -1.7562    0.3786    0.1083 P   0  0  0  0  0  0  0  0  0  0  0  0
    0.0638   -1.2799   -0.6416 O   0  0  0  0  0  0  0  0  0  0  0  0
   -2.6559   -0.4205   -0.9786 O   0  0  0  0  0  0  0  0  0  0  0  0
   -1.9229   -0.4663    1.4791 O   0  0  0  0  0  0  0  0  0  0  0  0
   -2.1334    1.8271    0.2523 O   0  0  0  0  0  0  0  0  0  0  0  0
    2.5377   -1.1467    0.0514 O   0  0  0  0  0  0  0  0  0  0  0  0
    3.3277    1.0161   -0.0212 O   0  0  0  0  0  0  0  0  0  0  0  0
   -0.0458    0.1345   -0.4613 C   0  0  0  0  0  0  0  0  0  0  0  0
    1.0056    0.5621    0.5828 C   0  0  0  0  0  0  0  0  0  0  0  0
    0.1652    0.7888   -1.8323 C   0  0  0  0  0  0  0  0  0  0  0  0
    2.4280    0.2101    0.1779 C   0  0  0  0  0  0  0  0  0  0  0  0
   -4.0640   -0.4262   -0.8186 C   0  0  0  0  0  0  0  0  0  0  0  0
   -1.7320   -1.8678    1.5330 C   0  0  0  0  0  0  0  0  0  0  0  0
    3.8250   -1.6278   -0.3481 C   0  0  0  0  0  0  0  0  0  0  0  0
  1 10  1  0
  2  4  1  0
  2  5  1  0
  2  6  2  0
  2  9  1  0
  3  9  1  0
  4 13  1  0
  5 14  1  0
  7 12  1  0
  7 15  1  0
  8 12  2  0
  9 10  1  0
  9 11  1  0
 10 12  1  0
M  END
>  <PUBCHEM_COMPOUND_CID>  (1) 
16415

>  <PUBCHEM_CONFORMER_RMSD>  (1) 
0.6

>  <PUBCHEM_CONFORMER_DIVERSEORDER>  (1) 
1
27
37
84
26
38
98
66
83
93
36
94
22
80
85
77
52
86
64
58
40
44
32
3
28
74
65
53
45
70
20
69
76
90
99
11
41
5
55
87
18
82
21
95
43
10
54
8
13
88
73
56
79
33
34
97
91
39
59
62
12
81
60
23
14
96
57
15
4
89
19
63
7
29
9
46
72
49
31
78
35
75
42
50
17
67
47
48
51
71
16
92
68
61
2
6
100
30
25
24

>  <PUBCHEM_MMFF94_PARTIAL_CHARGES>  (1) 
15
1 -0.29
10 0.35
12 0.66
13 0.28
14 0.28
15 0.28
2 1.24
20 0.4
3 -0.68
4 -0.55
5 -0.55
6 -0.7
7 -0.43
8 -0.57
9 0.28

>  <PUBCHEM_EFFECTIVE_ROTOR_COUNT>  (1) 
6

>  <PUBCHEM_PHARMACOPHORE_FEATURES>  (1) 
4
1 3 acceptor
1 3 donor
1 6 acceptor
1 8 acceptor

>  <PUBCHEM_HEAVY_ATOM_COUNT>  (1) 
15

>  <PUBCHEM_ATOM_DEF_STEREO_COUNT>  (1) 
0

>  <PUBCHEM_ATOM_UDEF_STEREO_COUNT>  (1) 
2

>  <PUBCHEM_BOND_DEF_STEREO_COUNT>  (1) 
0

>  <PUBCHEM_BOND_UDEF_STEREO_COUNT>  (1) 
0

>  <PUBCHEM_ISOTOPIC_ATOM_COUNT>  (1) 
0

>  <PUBCHEM_COMPONENT_COUNT>  (1) 
1

>  <PUBCHEM_CACTVS_TAUTO_COUNT>  (1) 
1

>  <PUBCHEM_CONFORMER_ID>  (1) 
0000401F00000001

>  <PUBCHEM_MMFF94_ENERGY>  (1) 
26.5065

>  <PUBCHEM_FEATURE_SELFOVERLAP>  (1) 
20.297

>  <PUBCHEM_SHAPE_FINGERPRINT>  (1) 
12932764 1 17917719023598970832
14993402 34 17775004630458781108
15375462 478 16988836168340756484
15775835 57 17846500369643857929
16945 1 18268716184953157464
17841504 4 18271803540431389472
18186145 218 17968641784080103197
19010151 120 17489584589063871883
20201158 50 18334575698864895858
20279233 1 18040996258778584922
20645477 70 18341608205195446910
21501502 16 18342741779971359817
23402539 116 18259974990603613463
23419403 2 15588182917738950701
23526113 38 18334847342302308738
23557571 272 17241334710466437004
23559900 14 18261668263953371816
2748010 2 18271805688257837652
3248919 1 18187083970667204528
3286 77 18342725317356121421
5084963 1 18186791479099405885

>  <PUBCHEM_SHAPE_MULTIPOLES>  (1) 
279.2
5.69
1.98
1.37
0.39
0.31
-0.05
-2.01
-0.86
0.65
0.63
-0.68
-0.08
0.58

>  <PUBCHEM_SHAPE_SELFOVERLAP>  (1) 
513.149

>  <PUBCHEM_SHAPE_VOLUME>  (1) 
178.6

>  <PUBCHEM_COORDINATE_TYPE>  (1) 
2
5
10

$$$$
