16420
     RDKit          3D

 15 16  0  0  0  0  0  0  0  0999 V2000
   -4.0892    1.1466    0.3391 S   0  0  0  0  0  0  0  0  0  0  0  0
    4.5680    0.8877   -0.2962 O   0  0  0  0  0  0  0  0  0  0  0  0
    4.4339   -1.2453    0.2051 O   0  0  0  0  0  0  0  0  0  0  0  0
   -2.5392   -0.8343   -0.2573 N   0  0  0  0  0  0  0  0  0  0  0  0
    3.8944   -0.1381   -0.0345 N   0  0  0  0  0  0  0  0  0  0  0  0
   -4.8547   -1.2911   -0.3999 N   0  0  0  0  0  0  0  0  0  0  0  0
   -0.3051    0.1446    0.0433 C   0  0  0  0  0  0  0  0  0  0  0  0
   -1.7376    0.2410    0.0696 C   0  0  0  0  0  0  0  0  0  0  0  0
    0.4644    1.2715   -0.2451 C   0  0  0  0  0  0  0  0  0  0  0  0
    0.3166   -1.0762    0.3060 C   0  0  0  0  0  0  0  0  0  0  0  0
    2.4779   -0.0429   -0.0083 C   0  0  0  0  0  0  0  0  0  0  0  0
    1.8559    1.1778   -0.2710 C   0  0  0  0  0  0  0  0  0  0  0  0
    1.7082   -1.1700    0.2802 C   0  0  0  0  0  0  0  0  0  0  0  0
   -2.3950    1.4009    0.4193 C   0  0  0  0  0  0  0  0  0  0  0  0
   -3.7984   -0.4722   -0.1502 C   0  0  0  0  0  0  0  0  0  0  0  0
  1 14  1  0
  1 15  1  0
  2  5  1  0
  3  5  2  0
  4  8  1  0
  4 15  2  0
  5 11  1  0
  6 15  1  0
  7  8  1  0
  7  9  2  0
  7 10  1  0
  8 14  2  0
  9 12  1  0
 10 13  2  0
 11 12  2  0
 11 13  1  0
M  CHG  2   2  -1   5   1
M  END
>  <PUBCHEM_COMPOUND_CID>  (1) 
16420

>  <PUBCHEM_CONFORMER_RMSD>  (1) 
0.6

>  <PUBCHEM_CONFORMER_DIVERSEORDER>  (1) 
1

>  <PUBCHEM_MMFF94_PARTIAL_CHARGES>  (1) 
22
1 -0.08
10 -0.15
11 0.13
12 -0.15
13 -0.15
14 -0.11
15 0.46
16 0.15
17 0.15
18 0.15
19 0.15
2 -0.52
20 0.15
21 0.4
22 0.4
3 -0.52
4 -0.57
5 0.91
6 -0.88
7 0.05
8 0.17
9 -0.15

>  <PUBCHEM_EFFECTIVE_ROTOR_COUNT>  (1) 
2

>  <PUBCHEM_PHARMACOPHORE_FEATURES>  (1) 
7
1 2 acceptor
1 2 anion
1 3 acceptor
1 6 donor
3 4 6 15 cation
5 1 4 8 14 15 rings
6 7 9 10 11 12 13 rings

>  <PUBCHEM_HEAVY_ATOM_COUNT>  (1) 
15

>  <PUBCHEM_ATOM_DEF_STEREO_COUNT>  (1) 
0

>  <PUBCHEM_ATOM_UDEF_STEREO_COUNT>  (1) 
0

>  <PUBCHEM_BOND_DEF_STEREO_COUNT>  (1) 
0

>  <PUBCHEM_BOND_UDEF_STEREO_COUNT>  (1) 
0

>  <PUBCHEM_ISOTOPIC_ATOM_COUNT>  (1) 
0

>  <PUBCHEM_COMPONENT_COUNT>  (1) 
1

>  <PUBCHEM_CACTVS_TAUTO_COUNT>  (1) 
2

>  <PUBCHEM_CONFORMER_ID>  (1) 
0000402400000001

>  <PUBCHEM_MMFF94_ENERGY>  (1) 
37.9388

>  <PUBCHEM_FEATURE_SELFOVERLAP>  (1) 
35.602

>  <PUBCHEM_SHAPE_FINGERPRINT>  (1) 
10465860 250 17418371372342287873
11401426 45 18408318882603049208
11471102 20 18260546727738414228
11806522 49 18409728490880003039
12032990 46 18410858737515340742
12236239 1 18411702076129970225
13167823 11 18412261718373355406
13288520 33 18343303647571585862
13581323 91 17346598581790969500
13690532 89 18408039611034193202
13760787 5 17749116573474632388
13862211 1 18333727992806596610
14144814 61 18410573959777312377
14325111 11 18410294704961265416
14576447 43 18338790217075713959
14993402 34 18333734632556530046
15196674 1 18410293592511780320
15536298 74 18342174496712376552
17834072 33 18412545439612485916
17862501 102 18411696582254921002
18186145 218 17530965773942028146
18522853 276 18413108368259921209
19026448 4 16917068832820066232
19422 9 18411984641416411868
200 152 18413103983541150791
20279233 1 15574715785578321619
20300324 65 18343584053649975017
20645477 70 18409448051449833926
21267235 1 18410864273960475715
221490 88 18045506571439988531
22485316 2 18408884010030932616
23402539 116 18272364270255776021
23402655 69 18336261250369475149
23557571 272 17418103104569522497
23559900 14 18201998820550123584
3286 77 18411978095902466940
3312278 4 18342177739612930889
42 15 18341896276977724976
4214541 1 18412545379841737177
4990 188 18130515154138177646
5104073 3 18411700976006407161
57096353 35 18410294756896375925
573450 72 18340481171279613841
69090 78 18342454871929526622
77779 3 18413390912498670785
9709674 26 18412834576995917167
9981440 41 17327737808653423264

>  <PUBCHEM_SHAPE_MULTIPOLES>  (1) 
285.86
9.14
1.51
0.66
0.71
0.05
0.02
-1.09
-0.38
-0.36
0.01
-0.13
0.02
-0.65

>  <PUBCHEM_SHAPE_SELFOVERLAP>  (1) 
609.563

>  <PUBCHEM_SHAPE_VOLUME>  (1) 
162.1

>  <PUBCHEM_COORDINATE_TYPE>  (1) 
2
5
10

$$$$
