1642
     RDKit          3D

 20 22  0  0  1  0  0  0  0  0999 V2000
    1.2050   -1.9007    1.0227 O   0  0  0  0  0  0  0  0  0  0  0  0
    5.1093   -1.4995   -0.6812 O   0  0  0  0  0  0  0  0  0  0  0  0
    1.8962    1.4554    0.0717 N   0  0  0  0  0  0  0  0  0  0  0  0
    2.0955    0.0904    0.2974 N   0  0  0  0  0  0  0  0  0  0  0  0
   -0.5109   -1.0660   -1.2702 N   0  0  0  0  0  0  0  0  0  0  0  0
   -0.3335   -0.3420   -0.0023 C   0  0  0  0  0  0  0  0  0  0  0  0
   -0.4414    1.1693   -0.2605 C   0  0  0  0  0  0  0  0  0  0  0  0
    3.5018   -0.1989    0.5433 C   0  0  0  0  0  0  0  0  0  0  0  0
    0.8339    1.7306   -0.8795 C   0  0  0  0  0  0  0  0  0  0  0  0
    3.1953    2.0030   -0.3259 C   0  0  0  0  0  0  0  0  0  0  0  0
    4.1698    1.1654    0.5001 C   0  0  0  0  0  0  0  0  0  0  0  0
    1.0456   -0.7814    0.5272 C   0  0  0  0  0  0  0  0  0  0  0  0
   -1.4390   -0.7920    0.9587 C   0  0  0  0  0  0  0  0  0  0  0  0
    3.9626   -1.0760   -0.5806 C   0  0  0  0  0  0  0  0  0  0  0  0
   -2.7961   -0.3766    0.4671 C   0  0  0  0  0  0  0  0  0  0  0  0
   -3.3161    0.8554    0.8451 C   0  0  0  0  0  0  0  0  0  0  0  0
   -3.5173   -1.2283   -0.3610 C   0  0  0  0  0  0  0  0  0  0  0  0
   -4.5763    1.2414    0.3885 C   0  0  0  0  0  0  0  0  0  0  0  0
   -4.7774   -0.8422   -0.8177 C   0  0  0  0  0  0  0  0  0  0  0  0
   -5.3070    0.3927   -0.4429 C   0  0  0  0  0  0  0  0  0  0  0  0
  1 12  2  0
  2 14  2  0
  3  4  1  0
  3  9  1  0
  3 10  1  0
  4  8  1  0
  4 12  1  0
  5  6  1  0
  6  7  1  0
  6 12  1  0
  6 13  1  0
  7  9  1  0
  8 11  1  0
  8 14  1  0
 10 11  1  0
 13 15  1  0
 15 16  2  0
 15 17  1  0
 16 18  1  0
 17 19  2  0
 18 20  2  0
 19 20  1  0
M  END
>  <PUBCHEM_COMPOUND_CID>  (1) 
1642

>  <PUBCHEM_CONFORMER_RMSD>  (1) 
0.6

>  <PUBCHEM_CONFORMER_DIVERSEORDER>  (1) 
1
30
7
31
3
9
4
22
5
33
23
32
14
25
26
13
29
2
28
12
11
10
6
17
27
18
8
21
16
19
24
20
15

>  <PUBCHEM_MMFF94_PARTIAL_CHARGES>  (1) 
26
1 -0.57
10 0.27
12 0.57
13 0.14
14 0.45
15 -0.14
16 -0.15
17 -0.15
18 -0.15
19 -0.15
2 -0.57
20 -0.15
3 -0.55
32 0.36
33 0.36
34 0.06
35 0.15
36 0.15
37 0.15
38 0.15
39 0.15
4 -0.35
5 -0.99
6 0.33
8 0.36
9 0.27

>  <PUBCHEM_EFFECTIVE_ROTOR_COUNT>  (1) 
4.2

>  <PUBCHEM_PHARMACOPHORE_FEATURES>  (1) 
7
1 1 acceptor
1 2 acceptor
1 5 cation
1 5 donor
5 3 4 8 10 11 rings
6 15 16 17 18 19 20 rings
6 3 4 6 7 9 12 rings

>  <PUBCHEM_HEAVY_ATOM_COUNT>  (1) 
20

>  <PUBCHEM_ATOM_DEF_STEREO_COUNT>  (1) 
0

>  <PUBCHEM_ATOM_UDEF_STEREO_COUNT>  (1) 
2

>  <PUBCHEM_BOND_DEF_STEREO_COUNT>  (1) 
0

>  <PUBCHEM_BOND_UDEF_STEREO_COUNT>  (1) 
0

>  <PUBCHEM_ISOTOPIC_ATOM_COUNT>  (1) 
0

>  <PUBCHEM_COMPONENT_COUNT>  (1) 
1

>  <PUBCHEM_CACTVS_TAUTO_COUNT>  (1) 
2

>  <PUBCHEM_CONFORMER_ID>  (1) 
0000066A00000001

>  <PUBCHEM_MMFF94_ENERGY>  (1) 
49.1902

>  <PUBCHEM_FEATURE_SELFOVERLAP>  (1) 
35.614

>  <PUBCHEM_SHAPE_FINGERPRINT>  (1) 
10366900 7 17458063755258895977
10906281 52 18115878563198717860
11471102 20 18333730234489023808
12011746 2 18114464474389315295
12107183 9 17766000493605250531
12236239 1 18272650156422219305
12670546 56 18202843253358157121
12788726 201 14562804417818731477
128620 24 10087642589443747137
13167823 11 18271804644448922535
13583140 156 17131544063185105426
13675066 3 18338237166757828089
14341114 176 18335990856529610019
14528608 73 18409447007260668799
15099037 51 18408608045729533766
15196674 1 18410293631414600785
15536298 74 18412545426917436056
15788980 27 18272373079180900387
15848700 24 18408322177243781556
15848702 151 18272092664797608334
16945 1 17312820502280266904
17349148 13 17918279757359641589
17492 89 18267305528715213703
17834072 33 18272931643656207991
18186145 218 17967530194286898331
200 152 18272365404269443257
20645477 70 18413108359881061262
21033648 29 17095511908140201597
21267235 1 18410301306948459171
21452121 103 18340479063004962272
21503847 285 18334014990752287232
22854114 59 18113332037668894153
23402539 116 16988841657799785649
23402655 69 18412262869376767188
23557571 272 16343427202829658129
23559900 14 18272930540034183960
296302 2 18113898290673627705
29717793 49 18131630071782060861
3060560 45 18410291398248332902
3286 77 17561079207157165472
34797466 226 16916228908805047241
351380 180 18342455958851762073
3545911 37 18333450941888430107
4072396 5 17823117017375177568
4214541 1 18342458127968209697
474 4 18114180895153085569
4990 188 18273219677111406614
5104073 3 18409449215063750897
633830 44 18260828223826133407
7495541 125 14490481914577524317
8272917 22 18336544928453515875
9709674 26 18263649626666471083
9971528 1 18409166619290765012
9981440 41 17186992636606819241

>  <PUBCHEM_SHAPE_MULTIPOLES>  (1) 
384.91
10.67
1.86
0.99
3.3
0.28
0.03
-0.15
1.15
-1.17
0.14
0.15
-0.14
-0.21

>  <PUBCHEM_SHAPE_SELFOVERLAP>  (1) 
825.15

>  <PUBCHEM_SHAPE_VOLUME>  (1) 
211.7

>  <PUBCHEM_COORDINATE_TYPE>  (1) 
2
5
10

$$$$
