16440
     RDKit          3D

 23 24  0  0  1  0  0  0  0  0999 V2000
    1.2763    0.2778    1.8368 O   0  0  0  0  0  0  0  0  0  0  0  0
   -3.7504    0.2094   -0.0514 N   0  0  0  0  0  0  0  0  0  0  0  0
    2.0687    0.9872   -0.2884 C   0  0  0  0  0  0  0  0  0  0  0  0
    1.8415    2.4539    0.1020 C   0  0  0  0  0  0  0  0  0  0  0  0
    3.5100    0.5575    0.0168 C   0  0  0  0  0  0  0  0  0  0  0  0
    1.0716    0.0778    0.4273 C   0  0  0  0  0  0  0  0  0  0  0  0
    2.8610    3.3779   -0.5601 C   0  0  0  0  0  0  0  0  0  0  0  0
    4.5269    1.4848   -0.6450 C   0  0  0  0  0  0  0  0  0  0  0  0
    4.2923    2.9426   -0.2617 C   0  0  0  0  0  0  0  0  0  0  0  0
    1.2456   -1.4172    0.1543 C   0  0  0  0  0  0  0  0  0  0  0  0
   -2.7894    1.2294   -0.5392 C   0  0  0  0  0  0  0  0  0  0  0  0
   -0.3097    0.4898    0.0836 C   0  0  0  0  0  0  0  0  0  0  0  0
   -3.6519    0.0517    1.4723 C   0  0  0  0  0  0  0  0  0  0  0  0
   -5.1916    0.6088   -0.3975 C   0  0  0  0  0  0  0  0  0  0  0  0
   -3.4674   -1.1568   -0.6915 C   0  0  0  0  0  0  0  0  0  0  0  0
   -1.4289    0.8245   -0.1970 C   0  0  0  0  0  0  0  0  0  0  0  0
    1.0542   -1.8799   -1.1277 C   0  0  0  0  0  0  0  0  0  0  0  0
    1.5874   -2.2433    1.2006 C   0  0  0  0  0  0  0  0  0  0  0  0
   -3.9270    1.3862    2.1301 C   0  0  0  0  0  0  0  0  0  0  0  0
   -5.3377    0.6940   -1.9010 C   0  0  0  0  0  0  0  0  0  0  0  0
    1.2129   -3.2431   -1.3769 C   0  0  0  0  0  0  0  0  0  0  0  0
    1.7464   -3.6065    0.9512 C   0  0  0  0  0  0  0  0  0  0  0  0
    1.5591   -4.1063   -0.3376 C   0  0  0  0  0  0  0  0  0  0  0  0
  1  6  1  0
  2 11  1  0
  2 13  1  0
  2 14  1  0
  2 15  1  0
  3  4  1  0
  3  5  1  0
  3  6  1  0
  4  7  1  0
  5  8  1  0
  6 10  1  0
  6 12  1  0
  7  9  1  0
  8  9  1  0
 10 17  2  0
 10 18  1  0
 11 16  1  0
 12 16  3  0
 13 19  1  0
 14 20  1  0
 17 21  1  0
 18 22  2  0
 21 23  2  0
 22 23  1  0
M  CHG  1   2   1
M  END
>  <PUBCHEM_COMPOUND_CID>  (1) 
16440

>  <PUBCHEM_CONFORMER_RMSD>  (1) 
0.8

>  <PUBCHEM_CONFORMER_DIVERSEORDER>  (1) 
1
31
20
22
30
9
18
14
23
29
12
26
4
32
6
15
7
19
3
24
8
16
13
21
10
5
2
17
25
28
27
11

>  <PUBCHEM_MMFF94_PARTIAL_CHARGES>  (1) 
21
1 -0.68
10 -0.14
11 0.7
12 -0.2
13 0.5
14 0.5
15 0.5
16 -0.2
17 -0.15
18 -0.15
2 -1.01
21 -0.15
22 -0.15
23 -0.15
44 0.4
45 0.15
46 0.15
53 0.15
54 0.15
55 0.15
6 0.62

>  <PUBCHEM_EFFECTIVE_ROTOR_COUNT>  (1) 
6.2

>  <PUBCHEM_PHARMACOPHORE_FEATURES>  (1) 
5
1 1 acceptor
1 1 donor
1 2 cation
6 10 17 18 21 22 23 rings
6 3 4 5 7 8 9 rings

>  <PUBCHEM_HEAVY_ATOM_COUNT>  (1) 
23

>  <PUBCHEM_ATOM_DEF_STEREO_COUNT>  (1) 
0

>  <PUBCHEM_ATOM_UDEF_STEREO_COUNT>  (1) 
1

>  <PUBCHEM_BOND_DEF_STEREO_COUNT>  (1) 
0

>  <PUBCHEM_BOND_UDEF_STEREO_COUNT>  (1) 
0

>  <PUBCHEM_ISOTOPIC_ATOM_COUNT>  (1) 
0

>  <PUBCHEM_COMPONENT_COUNT>  (1) 
1

>  <PUBCHEM_CACTVS_TAUTO_COUNT>  (1) 
1

>  <PUBCHEM_CONFORMER_ID>  (1) 
0000403800000001

>  <PUBCHEM_MMFF94_ENERGY>  (1) 
67.7479

>  <PUBCHEM_FEATURE_SELFOVERLAP>  (1) 
25.371

>  <PUBCHEM_SHAPE_FINGERPRINT>  (1) 
10693767 8 18129944469181382614
10764073 3 16661182786180953714
11069576 57 18058713711960742463
11421498 54 17846233136805166433
11488393 25 18263367993118900666
11578080 2 16517641444121530310
12363563 72 17905041461384207895
12553582 1 17907871599924236039
12592029 89 18408042909901269338
12707595 3 18045791078690217779
12730499 353 18334581252394363313
12788726 201 17473814504303810642
13149001 5 17249187125975005028
13533116 47 18130220455505847035
13631057 29 18055347192435789391
13681431 1 18124034533656365578
14251751 93 18127696147589417534
14790565 3 18338238296371819276
14955137 171 18263347132842435818
15375358 24 17821441366308363113
15502722 9 18338238167601181006
15842332 3 17845658041227511481
15849732 13 18262501651508416096
17138139 8 17556270081058292519
17809404 112 17240482490555505447
17818456 19 17198830623437028537
17980427 26 17265032368773850354
1813 80 17767410084460455958
19591789 44 18266459999930331702
20101258 96 17474967432461030450
20197701 30 18338513170325959636
20600515 1 17262711084789345820
20645477 70 18335976459693738775
21033650 10 17057002655659981856
21054139 6 18200016478004427519
21421861 104 18124894372986908840
21452121 199 18049714123176864266
21524375 3 18265897032923739152
2255824 54 18341333297054835495
23419403 2 17407176213863441302
23557571 272 16443343122827422805
23558518 356 17106774454783457936
23559900 14 18264477400293161439
25147074 1 17917433060872111321
298252 57 18263081171018585712
3060560 45 18409163329467064332
38695281 34 18410571825094124822
458136 41 18339375122632491888
474 4 18410578413268326489
6025842 7 18409439268162176831
6138700 20 18338805507945206518
633830 44 18129403599000610516
6669772 16 18412269463111825414
7364860 26 18337952290298933102
7615 1 17774719741468334409
81228 2 17329136383243107256
81539 233 18335138700215149198
8272917 22 18410854326636759917
9709674 26 18262796255883645495
9841814 1 17971469602694525282

>  <PUBCHEM_SHAPE_MULTIPOLES>  (1) 
462.48
9.43
4.49
1.52
10.96
3.67
0.38
-6.94
-1.8
-6.49
-0.52
1.55
0.18
-0.74

>  <PUBCHEM_SHAPE_SELFOVERLAP>  (1) 
945.817

>  <PUBCHEM_SHAPE_VOLUME>  (1) 
266.9

>  <PUBCHEM_COORDINATE_TYPE>  (1) 
2
5
10

$$$$
