16456
     RDKit          3D

  7  6  0  0  0  0  0  0  0  0999 V2000
    2.7487   -0.8709   -0.5459 Cl  0  0  0  0  0  0  0  0  0  0  0  0
   -0.1300   -0.2557    0.2805 O   0  0  0  0  0  0  0  0  0  0  0  0
   -1.9065    1.0109   -0.4539 O   0  0  0  0  0  0  0  0  0  0  0  0
   -2.1789   -1.1762    0.2013 N   0  0  0  0  0  0  0  0  0  0  0  0
    0.7457    0.8597    0.0815 C   0  0  0  0  0  0  0  0  0  0  0  0
    2.1622    0.4737    0.4658 C   0  0  0  0  0  0  0  0  0  0  0  0
   -1.4412   -0.0414   -0.0292 C   0  0  0  0  0  0  0  0  0  0  0  0
  1  6  1  0
  2  5  1  0
  2  7  1  0
  3  7  2  0
  4  7  1  0
  5  6  1  0
M  END
>  <PUBCHEM_COMPOUND_CID>  (1) 
16456

>  <PUBCHEM_CONFORMER_RMSD>  (1) 
0.4

>  <PUBCHEM_CONFORMER_DIVERSEORDER>  (1) 
1
28
23
18
22
6
26
12
7
27
3
14
25
13
4
19
2
17
24
8
9
21
20
16
15
11
10
5

>  <PUBCHEM_MMFF94_PARTIAL_CHARGES>  (1) 
9
1 -0.29
12 0.37
13 0.37
2 -0.43
3 -0.57
4 -0.8
5 0.28
6 0.29
7 0.78

>  <PUBCHEM_EFFECTIVE_ROTOR_COUNT>  (1) 
3

>  <PUBCHEM_PHARMACOPHORE_FEATURES>  (1) 
2
1 3 acceptor
1 4 donor

>  <PUBCHEM_HEAVY_ATOM_COUNT>  (1) 
7

>  <PUBCHEM_ATOM_DEF_STEREO_COUNT>  (1) 
0

>  <PUBCHEM_ATOM_UDEF_STEREO_COUNT>  (1) 
0

>  <PUBCHEM_BOND_DEF_STEREO_COUNT>  (1) 
0

>  <PUBCHEM_BOND_UDEF_STEREO_COUNT>  (1) 
0

>  <PUBCHEM_ISOTOPIC_ATOM_COUNT>  (1) 
0

>  <PUBCHEM_COMPONENT_COUNT>  (1) 
1

>  <PUBCHEM_CACTVS_TAUTO_COUNT>  (1) 
2

>  <PUBCHEM_CONFORMER_ID>  (1) 
0000404800000001

>  <PUBCHEM_MMFF94_ENERGY>  (1) 
5.3421

>  <PUBCHEM_FEATURE_SELFOVERLAP>  (1) 
10.148

>  <PUBCHEM_SHAPE_FINGERPRINT>  (1) 
12932741 1 18341041973791734236
16714656 1 18041279863700404269
21040471 1 18043798797763901157
23552423 10 18259706700722950442
29004967 10 18059855082207525960
5460574 1 9799421035144331448

>  <PUBCHEM_SHAPE_MULTIPOLES>  (1) 
129.21
4
1.16
0.7
0.85
0.1
0.02
0.99
0.33
-0.05
0.04
0.13
-0.01
0.47

>  <PUBCHEM_SHAPE_SELFOVERLAP>  (1) 
226.395

>  <PUBCHEM_SHAPE_VOLUME>  (1) 
85.5

>  <PUBCHEM_COORDINATE_TYPE>  (1) 
2
5
10

$$$$
