16463
     RDKit          3D

 14 15  0  0  0  0  0  0  0  0999 V2000
    1.0179    0.4718   -0.0002 O   0  0  0  0  0  0  0  0  0  0  0  0
   -2.3425   -0.7800    0.0001 O   0  0  0  0  0  0  0  0  0  0  0  0
   -4.6169   -0.4486    0.0004 O   0  0  0  0  0  0  0  0  0  0  0  0
    4.4537   -0.1798    0.0011 O   0  0  0  0  0  0  0  0  0  0  0  0
    3.3261    1.7037   -0.0003 O   0  0  0  0  0  0  0  0  0  0  0  0
   -1.7029    1.3767   -0.0003 N   0  0  0  0  0  0  0  0  0  0  0  0
   -3.0545    1.2898    0.0001 N   0  0  0  0  0  0  0  0  0  0  0  0
    3.3477    0.4374    0.0002 N   0  0  0  0  0  0  0  0  0  0  0  0
   -0.0262   -0.3980   -0.0003 C   0  0  0  0  0  0  0  0  0  0  0  0
   -1.3434    0.1409   -0.0002 C   0  0  0  0  0  0  0  0  0  0  0  0
    0.4268   -1.6967   -0.0002 C   0  0  0  0  0  0  0  0  0  0  0  0
    2.1498   -0.2798   -0.0004 C   0  0  0  0  0  0  0  0  0  0  0  0
    1.8400   -1.6200   -0.0004 C   0  0  0  0  0  0  0  0  0  0  0  0
   -3.4755   -0.0173    0.0003 C   0  0  0  0  0  0  0  0  0  0  0  0
  1  9  1  0
  1 12  1  0
  2 10  1  0
  2 14  1  0
  3 14  2  0
  4  8  1  0
  5  8  2  0
  6  7  1  0
  6 10  2  0
  7 14  1  0
  8 12  1  0
  9 10  1  0
  9 11  2  0
 11 13  1  0
 12 13  2  0
M  CHG  2   4  -1   8   1
M  END
>  <PUBCHEM_COMPOUND_CID>  (1) 
16463

>  <PUBCHEM_CONFORMER_RMSD>  (1) 
0.6

>  <PUBCHEM_CONFORMER_DIVERSEORDER>  (1) 
1
3
2
4

>  <PUBCHEM_MMFF94_PARTIAL_CHARGES>  (1) 
17
1 -0.28
10 0.69
11 -0.15
12 0.22
13 -0.15
14 0.78
15 0.15
16 0.15
17 0.37
2 -0.3
3 -0.57
4 -0.52
5 -0.52
6 -0.51
7 -0.37
8 0.96
9 0.05

>  <PUBCHEM_EFFECTIVE_ROTOR_COUNT>  (1) 
2

>  <PUBCHEM_PHARMACOPHORE_FEATURES>  (1) 
8
1 1 acceptor
1 3 acceptor
1 4 acceptor
1 4 anion
1 5 acceptor
1 7 donor
5 1 9 11 12 13 rings
5 2 6 7 10 14 rings

>  <PUBCHEM_HEAVY_ATOM_COUNT>  (1) 
14

>  <PUBCHEM_ATOM_DEF_STEREO_COUNT>  (1) 
0

>  <PUBCHEM_ATOM_UDEF_STEREO_COUNT>  (1) 
0

>  <PUBCHEM_BOND_DEF_STEREO_COUNT>  (1) 
0

>  <PUBCHEM_BOND_UDEF_STEREO_COUNT>  (1) 
0

>  <PUBCHEM_ISOTOPIC_ATOM_COUNT>  (1) 
0

>  <PUBCHEM_COMPONENT_COUNT>  (1) 
1

>  <PUBCHEM_CACTVS_TAUTO_COUNT>  (1) 
2

>  <PUBCHEM_CONFORMER_ID>  (1) 
0000404F00000001

>  <PUBCHEM_MMFF94_ENERGY>  (1) 
20.9032

>  <PUBCHEM_FEATURE_SELFOVERLAP>  (1) 
40.689

>  <PUBCHEM_SHAPE_FINGERPRINT>  (1) 
10608611 8 18336262323778963701
11062470 55 13118000002398229695
124424 183 9295287235942676059
12932764 1 17059759049499669619
13081056 2 18412826897652050268
13380535 76 18408887343057903938
14144814 61 18337954493717278859
14325111 11 18410856529575037987
14415576 193 18409452483618388348
14445660 50 18200603501581780513
14897335 6 18411134744856544622
15775835 57 18272652354749324615
170605 34 18408604747173564450
17802600 8 18410006637431476844
18186145 218 18200883880940767308
200 152 18272079492591470613
20279233 1 17749115474047621683
20645477 70 18268424638531709327
21524375 3 18410574002764116354
23402539 116 18411972581174768159
23402655 69 18341887442826167845
23557571 272 17240761744838997717
23559900 14 18267297630106520722
25610 137 18412829083980210665
366044 4 18410574007138354394
4990 188 17989215823899439734
5104073 3 18337673010261417243
57096353 35 18413385458206677535
58051976 378 18272086084791666391
6333272 397 18335702792672075584
7364860 26 18268711602297340870

>  <PUBCHEM_SHAPE_MULTIPOLES>  (1) 
243.82
7.47
1.52
0.56
1
0.02
0
-1.35
0
-0.54
0
0
0.03
0

>  <PUBCHEM_SHAPE_SELFOVERLAP>  (1) 
535.401

>  <PUBCHEM_SHAPE_VOLUME>  (1) 
132.9

>  <PUBCHEM_COORDINATE_TYPE>  (1) 
2
5
10

$$$$
