16461
     RDKit          3D

 11 11  0  0  0  0  0  0  0  0999 V2000
   -2.7294    2.2596    0.0000 I   0  0  0  0  0  0  0  0  0  0  0  0
    3.1505   -0.8300    0.0008 O   0  0  0  0  0  0  0  0  0  0  0  0
    2.8391    1.4215   -0.0002 O   0  0  0  0  0  0  0  0  0  0  0  0
   -3.1408   -1.0214    0.0003 N   0  0  0  0  0  0  0  0  0  0  0  0
    0.9459   -0.0413   -0.0002 C   0  0  0  0  0  0  0  0  0  0  0  0
   -1.7738   -0.6623   -0.0001 C   0  0  0  0  0  0  0  0  0  0  0  0
   -0.0030    0.9811    0.0001 C   0  0  0  0  0  0  0  0  0  0  0  0
    0.5349   -1.3742   -0.0004 C   0  0  0  0  0  0  0  0  0  0  0  0
   -1.3627    0.6706    0.0001 C   0  0  0  0  0  0  0  0  0  0  0  0
   -0.8249   -1.6848   -0.0003 C   0  0  0  0  0  0  0  0  0  0  0  0
    2.3641    0.2811   -0.0003 C   0  0  0  0  0  0  0  0  0  0  0  0
  1  9  1  0
  2 11  1  0
  3 11  2  0
  4  6  1  0
  5  7  2  0
  5  8  1  0
  5 11  1  0
  6  9  2  0
  6 10  1  0
  7  9  1  0
  8 10  2  0
M  END
>  <PUBCHEM_COMPOUND_CID>  (1) 
16461

>  <PUBCHEM_CONFORMER_RMSD>  (1) 
0.4

>  <PUBCHEM_CONFORMER_DIVERSEORDER>  (1) 
1
2

>  <PUBCHEM_MMFF94_PARTIAL_CHARGES>  (1) 
17
1 -0.08
10 -0.15
11 0.63
12 0.15
13 0.15
14 0.15
15 0.4
16 0.4
17 0.5
2 -0.65
3 -0.57
4 -0.9
5 0.09
6 0.1
7 -0.15
8 -0.15
9 0.08

>  <PUBCHEM_EFFECTIVE_ROTOR_COUNT>  (1) 
1

>  <PUBCHEM_PHARMACOPHORE_FEATURES>  (1) 
7
1 1 hydrophobe
1 2 acceptor
1 3 acceptor
1 4 cation
1 4 donor
3 2 3 11 anion
6 5 6 7 8 9 10 rings

>  <PUBCHEM_HEAVY_ATOM_COUNT>  (1) 
11

>  <PUBCHEM_ATOM_DEF_STEREO_COUNT>  (1) 
0

>  <PUBCHEM_ATOM_UDEF_STEREO_COUNT>  (1) 
0

>  <PUBCHEM_BOND_DEF_STEREO_COUNT>  (1) 
0

>  <PUBCHEM_BOND_UDEF_STEREO_COUNT>  (1) 
0

>  <PUBCHEM_ISOTOPIC_ATOM_COUNT>  (1) 
0

>  <PUBCHEM_COMPONENT_COUNT>  (1) 
1

>  <PUBCHEM_CACTVS_TAUTO_COUNT>  (1) 
2

>  <PUBCHEM_CONFORMER_ID>  (1) 
0000404D00000001

>  <PUBCHEM_MMFF94_ENERGY>  (1) 
40.703

>  <PUBCHEM_FEATURE_SELFOVERLAP>  (1) 
35.578

>  <PUBCHEM_SHAPE_FINGERPRINT>  (1) 
10608611 8 18413105069741056984
11206711 2 18411979178592713997
12932764 1 17561077055352059044
13380535 21 18195257624159597207
13380535 76 18195242222464896047
14325111 11 18410856551160852128
14897335 6 18267016151129949461
15775835 57 18189342281545854428
16945 1 18266458882990823911
193761 8 18122343484820558983
19973954 147 18410576205897781356
20510252 161 18342740745031876489
20653085 51 18336838502089069520
20871998 184 18200600331505805247
21040471 1 18338797814577058533
21501502 16 18409445847587791795
21524375 3 18266456499674559637
23402539 116 18342163518828637863
23402655 69 18196917900341458933
23552423 10 18333450945703576686
23559900 14 18200315408551148518
241688 4 17979911941062257195
2748010 2 18339648828155821311
369184 2 18342457083863862850
5084963 1 18272370879767267834
528886 8 18266734684394961921
6333449 129 18411416172799533693

>  <PUBCHEM_SHAPE_MULTIPOLES>  (1) 
221.59
4.77
2.16
0.62
0.74
0.09
0
1.88
0
-1.17
0
-0.12
0.06
0

>  <PUBCHEM_SHAPE_SELFOVERLAP>  (1) 
444.421

>  <PUBCHEM_SHAPE_VOLUME>  (1) 
134.4

>  <PUBCHEM_COORDINATE_TYPE>  (1) 
2
5
10

$$$$
