16467
     RDKit          3D

 15 15  0  0  0  0  0  0  0  0999 V2000
    0.5946    1.3022    0.1809 N   0  0  0  0  0  0  0  0  0  0  0  0
    1.8195   -0.6353   -0.5986 N   0  0  0  0  0  0  0  0  0  0  0  0
    2.1198    1.3280   -1.6641 N   0  0  0  0  0  0  0  0  0  0  0  0
    3.1970   -2.2728    0.3292 N   0  0  0  0  0  0  0  0  0  0  0  0
    3.6108   -0.1045    0.9154 N   0  0  0  0  0  0  0  0  0  0  0  0
   -0.1514    0.5170    1.1588 C   0  0  0  0  0  0  0  0  0  0  0  0
   -1.4408    0.0221    0.5646 C   0  0  0  0  0  0  0  0  0  0  0  0
   -2.5873    0.7988    0.6715 C   0  0  0  0  0  0  0  0  0  0  0  0
   -1.4699   -1.2055   -0.0845 C   0  0  0  0  0  0  0  0  0  0  0  0
    0.2602    2.7198    0.1032 C   0  0  0  0  0  0  0  0  0  0  0  0
    1.4982    0.7050   -0.7047 C   0  0  0  0  0  0  0  0  0  0  0  0
   -3.7835    0.3400    0.1201 C   0  0  0  0  0  0  0  0  0  0  0  0
   -2.6662   -1.6642   -0.6360 C   0  0  0  0  0  0  0  0  0  0  0  0
   -3.8230   -0.8914   -0.5336 C   0  0  0  0  0  0  0  0  0  0  0  0
    2.8220   -0.9594    0.1777 C   0  0  0  0  0  0  0  0  0  0  0  0
  1  6  1  0
  1 10  1  0
  1 11  1  0
  2 11  1  0
  2 15  2  3
  3 11  2  0
  4 15  1  0
  5 15  1  0
  6  7  1  0
  7  8  2  0
  7  9  1  0
  8 12  1  0
  9 13  2  0
 12 14  2  0
 13 14  1  0
M  END
>  <PUBCHEM_COMPOUND_CID>  (1) 
16467

>  <PUBCHEM_CONFORMER_RMSD>  (1) 
0.6

>  <PUBCHEM_CONFORMER_DIVERSEORDER>  (1) 
6
124
112
33
51
115
117
98
96
87
40
93
76
80
74
53
36
1
92
2
68
116
45
64
97
123
82
104
77
63
113
70
38
25
105
58
27
62
114
94
122
65
95
103
48
107
56
18
30
60
71
11
10
101
66
37
72
84
102
5
88
8
4
31
110
7
39
24
89
75
9
69
109
44
79
13
106
29
50
12
21
55
100
15
52
32
59
35
61
54
67
41
81
78
17
83
3
90
85
28
108
16
23
119
46
42
22
73
34
26
20
14
57
99
86
19
121
91
49
47
111
43
118
120

>  <PUBCHEM_MMFF94_PARTIAL_CHARGES>  (1) 
25
1 -0.79
10 0.37
11 0.71
12 -0.15
13 -0.15
14 -0.15
15 0.55
18 0.15
19 0.15
2 -0.66
23 0.15
24 0.15
25 0.15
26 0.4
27 0.4
28 0.4
29 0.4
3 -0.85
30 0.4
4 -0.85
5 -0.85
6 0.51
7 -0.14
8 -0.15
9 -0.15

>  <PUBCHEM_EFFECTIVE_ROTOR_COUNT>  (1) 
4

>  <PUBCHEM_PHARMACOPHORE_FEATURES>  (1) 
6
1 3 donor
1 4 donor
1 5 donor
4 1 2 3 11 cation
4 2 4 5 15 cation
6 7 8 9 12 13 14 rings

>  <PUBCHEM_HEAVY_ATOM_COUNT>  (1) 
15

>  <PUBCHEM_ATOM_DEF_STEREO_COUNT>  (1) 
0

>  <PUBCHEM_ATOM_UDEF_STEREO_COUNT>  (1) 
0

>  <PUBCHEM_BOND_DEF_STEREO_COUNT>  (1) 
0

>  <PUBCHEM_BOND_UDEF_STEREO_COUNT>  (1) 
0

>  <PUBCHEM_ISOTOPIC_ATOM_COUNT>  (1) 
0

>  <PUBCHEM_COMPONENT_COUNT>  (1) 
1

>  <PUBCHEM_CACTVS_TAUTO_COUNT>  (1) 
3

>  <PUBCHEM_CONFORMER_ID>  (1) 
0000405300000006

>  <PUBCHEM_MMFF94_ENERGY>  (1) 
46.2123

>  <PUBCHEM_FEATURE_SELFOVERLAP>  (1) 
30.545

>  <PUBCHEM_SHAPE_FINGERPRINT>  (1) 
10062212 137 18343015567610777311
10130415 120 18335423460741549417
10465860 71 17987258748672758277
10922049 32 8790600455021864048
10922523 26 18260265201032224549
12808571 1 8070027765821863088
12932764 1 18270133442677784609
13296908 3 15625955222118903101
16945 1 18195537101981913537
17834072 14 18270948090182915449
18186145 218 16732988630251779505
18511873 20 18334580088247183911
18619055 16 18335990834548325853
20559304 39 18341054124111711927
20645476 183 18265346177508702567
21501502 16 18199189662608916069
21501925 9 18201431519166966931
22802520 49 17895762927564981689
232386 152 18131070458596261222
23402539 116 18059000684706529333
23419403 2 18046307995273974348
23463225 33 18412266107930048335
23532345 88 18114186345250209372
23552423 10 18053666051672108009
23559900 14 17346329150382747620
23598291 2 18336279963051263085
2748010 2 13876573329646144581
6338986 31 18411699876568709408
7364860 26 18127121098845011777
74978 22 18339361989049781443
81228 2 18195260918204769992

>  <PUBCHEM_SHAPE_MULTIPOLES>  (1) 
283.79
6.43
2.16
1.06
0.83
0.46
0.16
-2.74
0.07
-0.83
0.12
-0.41
0.2
-0.92

>  <PUBCHEM_SHAPE_SELFOVERLAP>  (1) 
580.521

>  <PUBCHEM_SHAPE_VOLUME>  (1) 
160.5

>  <PUBCHEM_COORDINATE_TYPE>  (1) 
2
5
10

$$$$
