16471
     RDKit          3D

 13 13  0  0  0  0  0  0  0  0999 V2000
   -2.8768    0.3649    0.1558 N   0  0  0  0  0  0  0  0  0  0  0  0
   -1.5548    0.0988   -0.5495 C   0  0  0  0  0  0  0  0  0  0  0  0
   -0.9919   -1.2605   -0.1461 C   0  0  0  0  0  0  0  0  0  0  0  0
   -3.4149    1.7233   -0.2703 C   0  0  0  0  0  0  0  0  0  0  0  0
   -3.8785   -0.7179   -0.2190 C   0  0  0  0  0  0  0  0  0  0  0  0
   -2.6593    0.3552    1.6621 C   0  0  0  0  0  0  0  0  0  0  0  0
    0.3709   -1.6162   -0.7549 C   0  0  0  0  0  0  0  0  0  0  0  0
    1.4827   -0.6813   -0.3504 C   0  0  0  0  0  0  0  0  0  0  0  0
    1.7416    0.4425   -1.1205 C   0  0  0  0  0  0  0  0  0  0  0  0
    2.2278   -0.9602    0.7856 C   0  0  0  0  0  0  0  0  0  0  0  0
    2.7699    1.3075   -0.7463 C   0  0  0  0  0  0  0  0  0  0  0  0
    3.2561   -0.0951    1.1597 C   0  0  0  0  0  0  0  0  0  0  0  0
    3.5271    1.0388    0.3937 C   0  0  0  0  0  0  0  0  0  0  0  0
  1  2  1  0
  1  4  1  0
  1  5  1  0
  1  6  1  0
  2  3  1  0
  3  7  1  0
  7  8  1  0
  8  9  2  0
  8 10  1  0
  9 11  1  0
 10 12  2  0
 11 13  2  0
 12 13  1  0
M  CHG  1   1   1
M  END
>  <PUBCHEM_COMPOUND_CID>  (1) 
16471

>  <PUBCHEM_CONFORMER_RMSD>  (1) 
0.6

>  <PUBCHEM_CONFORMER_DIVERSEORDER>  (1) 
2
1
3
4

>  <PUBCHEM_MMFF94_PARTIAL_CHARGES>  (1) 
17
1 -1.01
10 -0.15
11 -0.15
12 -0.15
13 -0.15
2 0.5
29 0.15
30 0.15
31 0.15
32 0.15
33 0.15
4 0.5
5 0.5
6 0.5
7 0.14
8 -0.14
9 -0.15

>  <PUBCHEM_EFFECTIVE_ROTOR_COUNT>  (1) 
4

>  <PUBCHEM_PHARMACOPHORE_FEATURES>  (1) 
2
1 1 cation
6 8 9 10 11 12 13 rings

>  <PUBCHEM_HEAVY_ATOM_COUNT>  (1) 
13

>  <PUBCHEM_ATOM_DEF_STEREO_COUNT>  (1) 
0

>  <PUBCHEM_ATOM_UDEF_STEREO_COUNT>  (1) 
0

>  <PUBCHEM_BOND_DEF_STEREO_COUNT>  (1) 
0

>  <PUBCHEM_BOND_UDEF_STEREO_COUNT>  (1) 
0

>  <PUBCHEM_ISOTOPIC_ATOM_COUNT>  (1) 
0

>  <PUBCHEM_COMPONENT_COUNT>  (1) 
1

>  <PUBCHEM_CACTVS_TAUTO_COUNT>  (1) 
1

>  <PUBCHEM_CONFORMER_ID>  (1) 
0000405700000002

>  <PUBCHEM_MMFF94_ENERGY>  (1) 
39.7603

>  <PUBCHEM_FEATURE_SELFOVERLAP>  (1) 
10.148

>  <PUBCHEM_SHAPE_FINGERPRINT>  (1) 
10149128 111 18201723967774608296
10366900 7 17095243626711868344
10465860 228 18269558243166372718
10498660 4 17489593324922286265
10618630 7 11025790994512805000
11471102 22 17167853180261676266
11715629 250 15841550747526860169
12162725 195 18260266343572600893
12251169 10 18040431122486356278
12707595 3 10953748802143224047
13296908 3 10881692320686474599
13705890 14 12175619586075123332
13764800 53 18059589030326850891
14144814 61 18408041822847255797
14252887 29 13118004383681590060
15239191 94 8070017879050033049
15775835 57 18410854395171581176
18186145 218 17774734073067189327
19107657 47 17894620461604982671
19107657 9 18059588982849900592
20233049 118 18201432584709597576
20279233 1 15140674799984902579
20281407 28 13623523550306927162
20281475 54 9583522018535648381
20361792 2 11025799820560081875
20645477 70 11098152096973384011
20671657 1 18201444636229775870
20671657 53 11527680678124703946
20871999 31 13038897825098835209
21028194 46 18272652337553787055
21524375 3 18272369801810007134
21713013 43 12103839068762173537
22169311 14 16877943810809339377
22485316 2 11674876701728512626
230 275 18059579053096411198
232386 152 10809336758870857650
23402539 116 16988550317108869276
23402655 69 12535358903957049882
23557571 272 16558461015171477335
305870 269 18340201895273878598
57812782 119 16732979829942865691
6333272 397 18410012173602025975
94968 8 9294989285134022285
9882013 296 18261396688823381395

>  <PUBCHEM_SHAPE_MULTIPOLES>  (1) 
262.55
7.23
1.57
1.23
2.6
0.08
-0.33
2.39
-1.27
0.19
0.26
-0.14
0.06
-0.34

>  <PUBCHEM_SHAPE_SELFOVERLAP>  (1) 
517.897

>  <PUBCHEM_SHAPE_VOLUME>  (1) 
159.3

>  <PUBCHEM_COORDINATE_TYPE>  (1) 
2
5
10

$$$$
