16487
     RDKit          3D

 24 25  0  0  0  0  0  0  0  0999 V2000
   -3.3179    1.6368    2.0748 O   0  0  0  0  0  0  0  0  0  0  0  0
    3.3180    1.6368   -2.0748 O   0  0  0  0  0  0  0  0  0  0  0  0
   -0.5763    1.6788    1.7792 O   0  0  0  0  0  0  0  0  0  0  0  0
    0.5763    1.6787   -1.7793 O   0  0  0  0  0  0  0  0  0  0  0  0
   -5.0258   -1.6801   -1.0543 O   0  0  0  0  0  0  0  0  0  0  0  0
    5.0257   -1.6801    1.0543 O   0  0  0  0  0  0  0  0  0  0  0  0
   -3.2680   -2.5790   -2.1808 O   0  0  0  0  0  0  0  0  0  0  0  0
    3.2682   -2.5790    2.1808 O   0  0  0  0  0  0  0  0  0  0  0  0
   -0.7192   -0.0170    0.0893 C   0  0  0  0  0  0  0  0  0  0  0  0
    0.7191   -0.0170   -0.0893 C   0  0  0  0  0  0  0  0  0  0  0  0
   -1.3258    0.8301    1.0168 C   0  0  0  0  0  0  0  0  0  0  0  0
    1.3258    0.8301   -1.0168 C   0  0  0  0  0  0  0  0  0  0  0  0
   -1.4985   -0.8789   -0.6824 C   0  0  0  0  0  0  0  0  0  0  0  0
    1.4986   -0.8788    0.6824 C   0  0  0  0  0  0  0  0  0  0  0  0
   -2.8845   -0.8938   -0.5265 C   0  0  0  0  0  0  0  0  0  0  0  0
    2.8845   -0.8938    0.5265 C   0  0  0  0  0  0  0  0  0  0  0  0
   -2.7119    0.8152    1.1727 C   0  0  0  0  0  0  0  0  0  0  0  0
    2.7119    0.8152   -1.1727 C   0  0  0  0  0  0  0  0  0  0  0  0
   -3.4912   -0.0468    0.4010 C   0  0  0  0  0  0  0  0  0  0  0  0
    3.4912   -0.0468   -0.4011 C   0  0  0  0  0  0  0  0  0  0  0  0
   -3.6978   -1.7909   -1.3320 C   0  0  0  0  0  0  0  0  0  0  0  0
    3.6977   -1.7909    1.3321 C   0  0  0  0  0  0  0  0  0  0  0  0
   -3.7163    2.9256    1.6119 C   0  0  0  0  0  0  0  0  0  0  0  0
    3.7162    2.9257   -1.6119 C   0  0  0  0  0  0  0  0  0  0  0  0
  1 17  1  0
  1 23  1  0
  2 18  1  0
  2 24  1  0
  3 11  1  0
  4 12  1  0
  5 21  1  0
  6 22  1  0
  7 21  2  0
  8 22  2  0
  9 10  1  0
  9 11  2  0
  9 13  1  0
 10 12  2  0
 10 14  1  0
 11 17  1  0
 12 18  1  0
 13 15  2  0
 14 16  2  0
 15 19  1  0
 15 21  1  0
 16 20  1  0
 16 22  1  0
 17 19  2  0
 18 20  2  0
M  END
>  <PUBCHEM_COMPOUND_CID>  (1) 
16487

>  <PUBCHEM_CONFORMER_RMSD>  (1) 
0.8

>  <PUBCHEM_CONFORMER_DIVERSEORDER>  (1) 
2
1
3
4

>  <PUBCHEM_MMFF94_PARTIAL_CHARGES>  (1) 
30
1 -0.36
11 0.08
12 0.08
13 -0.15
14 -0.15
15 0.09
16 0.09
17 0.08
18 0.08
19 -0.15
2 -0.36
20 -0.15
21 0.63
22 0.63
23 0.28
24 0.28
25 0.15
26 0.15
27 0.15
28 0.15
29 0.45
3 -0.53
30 0.45
37 0.5
38 0.5
4 -0.53
5 -0.65
6 -0.65
7 -0.57
8 -0.57

>  <PUBCHEM_EFFECTIVE_ROTOR_COUNT>  (1) 
5

>  <PUBCHEM_PHARMACOPHORE_FEATURES>  (1) 
12
1 1 acceptor
1 2 acceptor
1 3 donor
1 4 donor
1 5 acceptor
1 6 acceptor
1 7 acceptor
1 8 acceptor
3 5 7 21 anion
3 6 8 22 anion
6 10 12 14 16 18 20 rings
6 9 11 13 15 17 19 rings

>  <PUBCHEM_HEAVY_ATOM_COUNT>  (1) 
24

>  <PUBCHEM_ATOM_DEF_STEREO_COUNT>  (1) 
0

>  <PUBCHEM_ATOM_UDEF_STEREO_COUNT>  (1) 
0

>  <PUBCHEM_BOND_DEF_STEREO_COUNT>  (1) 
0

>  <PUBCHEM_BOND_UDEF_STEREO_COUNT>  (1) 
0

>  <PUBCHEM_ISOTOPIC_ATOM_COUNT>  (1) 
0

>  <PUBCHEM_COMPONENT_COUNT>  (1) 
1

>  <PUBCHEM_CACTVS_TAUTO_COUNT>  (1) 
9

>  <PUBCHEM_CONFORMER_ID>  (1) 
0000406700000002

>  <PUBCHEM_MMFF94_ENERGY>  (1) 
100.0492

>  <PUBCHEM_FEATURE_SELFOVERLAP>  (1) 
61.014

>  <PUBCHEM_SHAPE_FINGERPRINT>  (1) 
10062212 137 18411139100084992067
10319926 262 17273679989325609610
10369192 42 15650758104471678462
11049842 53 17701000758947578758
11578080 2 18122310623651776581
11640471 11 18194430889852273376
12236239 1 18410858762958096870
12553582 1 17702387436985378967
12788726 201 18201446929963662875
13009979 54 18412826867539910578
13134695 92 17530961350690332886
13140716 1 17677912295524158736
13583140 156 18042709285089321361
13911987 19 17098637956762474084
14178342 30 17988641839816637383
14294032 229 17915479216157584985
14739800 52 18130220575501876392
15806764 133 14996579372995547231
15842332 3 18410580582221224288
16752209 62 17989211451675629151
17357779 13 16950839203043911790
173720 79 18198906916675443929
17818456 19 18126850386977106592
17980427 23 18340762668311435408
1813 80 17971765376319081302
18186145 218 15502369006870630743
18915476 22 17240489147364547526
20511986 3 18410564093842119232
20600515 1 17059483188414876275
20642791 268 18409728418614833824
20645477 70 17313096488605544150
20693207 138 15123243172560631620
21033648 29 17481694270206057704
21065201 7 17489598839375178086
21304303 282 17484778456668266149
22112679 90 18412831261127781008
22182313 1 15719397251859158220
2255824 54 18114472210342976474
23419403 2 17696425824314091205
23557571 272 16773802488942495609
23559900 14 17130725876716489844
23598288 3 18269854081062139849
23598291 2 18409456881374593286
25147074 1 18410578387493111424
266924 1 18411141376227852092
312423 11 18410017645184554774
474 4 17970645197118948516
495365 180 15936953232686001072
57527293 21 16199571614998019110
57527295 17 16299489609707710851
59025328 239 17897416507117122022
602551 16 17561081414733808750
603831 33 18268998746377096733
633830 44 17972631958806028932
6823239 73 16773245088403559296
70251023 43 17749655303749061202
7471813 234 18334283267579353596
7615 1 18410855460128376161
77492 1 18410582781244473358
88987 49 17846506893656963089
9658208 31 16557364639286474761
9981440 41 17049653726483420360

>  <PUBCHEM_SHAPE_MULTIPOLES>  (1) 
446.95
9.21
2.92
2.17
0
0.76
0
-2.17
0
0
0
0
0.19
-5.66

>  <PUBCHEM_SHAPE_SELFOVERLAP>  (1) 
973.763

>  <PUBCHEM_SHAPE_VOLUME>  (1) 
244.2

>  <PUBCHEM_COORDINATE_TYPE>  (1) 
2
5
10

$$$$
