16481
     RDKit          3D

 10 10  0  0  0  0  0  0  0  0999 V2000
   -3.0298    1.9019    0.1407 Br  0  0  0  0  0  0  0  0  0  0  0  0
    3.5521    0.7656    1.0591 S   0  0  0  0  0  0  0  0  0  0  0  0
    1.7780    0.0356   -0.9452 N   0  0  0  0  0  0  0  0  0  0  0  0
    0.4855   -0.2361   -0.4855 C   0  0  0  0  0  0  0  0  0  0  0  0
   -0.4595    0.7874   -0.4142 C   0  0  0  0  0  0  0  0  0  0  0  0
    0.1409   -1.5315   -0.0997 C   0  0  0  0  0  0  0  0  0  0  0  0
   -1.7489    0.5156    0.0429 C   0  0  0  0  0  0  0  0  0  0  0  0
   -1.1486   -1.8034    0.3575 C   0  0  0  0  0  0  0  0  0  0  0  0
   -2.0935   -0.7798    0.4287 C   0  0  0  0  0  0  0  0  0  0  0  0
    2.5240    0.3446   -0.0842 C   0  0  0  0  0  0  0  0  0  0  0  0
  1  7  1  0
  2 10  2  0
  3  4  1  0
  3 10  2  0
  4  5  2  0
  4  6  1  0
  5  7  1  0
  6  8  2  0
  7  9  2  0
  8  9  1  0
M  END
>  <PUBCHEM_COMPOUND_CID>  (1) 
16481

>  <PUBCHEM_CONFORMER_RMSD>  (1) 
0.4

>  <PUBCHEM_CONFORMER_DIVERSEORDER>  (1) 
1
6
4
3
2
5

>  <PUBCHEM_MMFF94_PARTIAL_CHARGES>  (1) 
14
1 -0.11
10 0.57
11 0.15
12 0.15
13 0.15
14 0.15
2 -0.27
3 -0.48
4 0.18
5 -0.15
6 -0.15
7 0.11
8 -0.15
9 -0.15

>  <PUBCHEM_EFFECTIVE_ROTOR_COUNT>  (1) 
1

>  <PUBCHEM_PHARMACOPHORE_FEATURES>  (1) 
4
1 1 hydrophobe
1 2 acceptor
1 3 acceptor
6 4 5 6 7 8 9 rings

>  <PUBCHEM_HEAVY_ATOM_COUNT>  (1) 
10

>  <PUBCHEM_ATOM_DEF_STEREO_COUNT>  (1) 
0

>  <PUBCHEM_ATOM_UDEF_STEREO_COUNT>  (1) 
0

>  <PUBCHEM_BOND_DEF_STEREO_COUNT>  (1) 
0

>  <PUBCHEM_BOND_UDEF_STEREO_COUNT>  (1) 
0

>  <PUBCHEM_ISOTOPIC_ATOM_COUNT>  (1) 
0

>  <PUBCHEM_COMPONENT_COUNT>  (1) 
1

>  <PUBCHEM_CACTVS_TAUTO_COUNT>  (1) 
1

>  <PUBCHEM_CONFORMER_ID>  (1) 
0000406100000001

>  <PUBCHEM_MMFF94_ENERGY>  (1) 
22.1945

>  <PUBCHEM_FEATURE_SELFOVERLAP>  (1) 
20.302

>  <PUBCHEM_SHAPE_FINGERPRINT>  (1) 
10857977 72 18267870664648018474
12897270 3 9583528620137700560
12932764 1 17846227691039783670
13024252 1 13262660539730733727
13380535 76 18335983065232010127
14390081 3 18200877275218087313
14897335 6 18337667504171339189
16945 1 18264501731013939415
20645464 45 18202004352088127534
20653085 51 16414653557001658169
20871998 184 18198069272676005839
21040471 1 18263097547322579823
23211744 41 18131078129376268359
23402539 116 18340190999469090383
23500284 214 18272654523681740985
23552423 10 17247249112002359294
2748010 2 18191886543100041983
305870 269 18263077708657617043
3071541 236 18187081780323580555
369184 2 18201718500402728602
6333449 129 18413387644329297373
7364860 26 17910111309220093927

>  <PUBCHEM_SHAPE_MULTIPOLES>  (1) 
210.61
5.01
1.86
0.9
2.66
0.27
-0.05
-3.11
-1.35
-1.33
-0.25
0.42
-0.08
0.4

>  <PUBCHEM_SHAPE_SELFOVERLAP>  (1) 
415.197

>  <PUBCHEM_SHAPE_VOLUME>  (1) 
129.8

>  <PUBCHEM_COORDINATE_TYPE>  (1) 
2
5
10

$$$$
