16494
     RDKit          3D

 11 11  0  0  0  0  0  0  0  0999 V2000
    0.1614    2.4986   -0.0188 Cl  0  0  0  0  0  0  0  0  0  0  0  0
    2.0945   -1.9860    0.0095 Cl  0  0  0  0  0  0  0  0  0  0  0  0
    2.3236    0.5109   -1.4119 Cl  0  0  0  0  0  0  0  0  0  0  0  0
    2.1696    0.5496    1.4692 Cl  0  0  0  0  0  0  0  0  0  0  0  0
    0.0180   -0.2230   -0.0047 C   0  0  0  0  0  0  0  0  0  0  0  0
   -0.6739    0.9881   -0.0126 C   0  0  0  0  0  0  0  0  0  0  0  0
   -0.6849   -1.4278    0.0001 C   0  0  0  0  0  0  0  0  0  0  0  0
    1.5120   -0.2732   -0.0010 C   0  0  0  0  0  0  0  0  0  0  0  0
   -2.0687    0.9945   -0.0158 C   0  0  0  0  0  0  0  0  0  0  0  0
   -2.0798   -1.4214   -0.0031 C   0  0  0  0  0  0  0  0  0  0  0  0
   -2.7718   -0.2103   -0.0110 C   0  0  0  0  0  0  0  0  0  0  0  0
  1  6  1  0
  2  8  1  0
  3  8  1  0
  4  8  1  0
  5  6  2  0
  5  7  1  0
  5  8  1  0
  6  9  1  0
  7 10  2  0
  9 11  2  0
 10 11  1  0
M  END
>  <PUBCHEM_COMPOUND_CID>  (1) 
16494

>  <PUBCHEM_CONFORMER_RMSD>  (1) 
0.4

>  <PUBCHEM_CONFORMER_DIVERSEORDER>  (1) 
1

>  <PUBCHEM_MMFF94_PARTIAL_CHARGES>  (1) 
15
1 -0.18
10 -0.15
11 -0.15
12 0.15
13 0.15
14 0.15
15 0.15
2 -0.29
3 -0.29
4 -0.29
5 -0.14
6 0.18
7 -0.15
8 1.01
9 -0.15

>  <PUBCHEM_EFFECTIVE_ROTOR_COUNT>  (1) 
1

>  <PUBCHEM_PHARMACOPHORE_FEATURES>  (1) 
1
6 5 6 7 9 10 11 rings

>  <PUBCHEM_HEAVY_ATOM_COUNT>  (1) 
11

>  <PUBCHEM_ATOM_DEF_STEREO_COUNT>  (1) 
0

>  <PUBCHEM_ATOM_UDEF_STEREO_COUNT>  (1) 
0

>  <PUBCHEM_BOND_DEF_STEREO_COUNT>  (1) 
0

>  <PUBCHEM_BOND_UDEF_STEREO_COUNT>  (1) 
0

>  <PUBCHEM_ISOTOPIC_ATOM_COUNT>  (1) 
0

>  <PUBCHEM_COMPONENT_COUNT>  (1) 
1

>  <PUBCHEM_CACTVS_TAUTO_COUNT>  (1) 
1

>  <PUBCHEM_CONFORMER_ID>  (1) 
0000406E00000001

>  <PUBCHEM_MMFF94_ENERGY>  (1) 
35.0172

>  <PUBCHEM_FEATURE_SELFOVERLAP>  (1) 
5.074

>  <PUBCHEM_SHAPE_FINGERPRINT>  (1) 
10857977 72 18339913922085041113
12326174 3 16443066084636369754
12423570 1 15193851464423564720
12524768 44 18272367555494372071
12897270 3 18337123353052389398
12932764 1 18060140950788321103
14128692 85 18193849145570059062
15310529 11 16660641886315225253
16945 1 18338516460170642531
20645464 45 17917985109491510754
20711985 344 17699595574608174108
21040471 1 18338516326863132553
22802520 49 18128842775261326518
23552423 10 18187650158709722222
23559900 14 18199183976610565806
241688 4 18266460910289247505
2748010 2 18339638945525815399
369184 2 18059845152116660427
4369600 1 18265063603035902244
5084963 1 18191025594992670850
7364860 26 18412265034604734894

>  <PUBCHEM_SHAPE_MULTIPOLES>  (1) 
233.85
3.74
2.21
1.03
0.55
0.39
-0.03
-0.74
0.08
-0.2
0
-0.89
0.22
0

>  <PUBCHEM_SHAPE_SELFOVERLAP>  (1) 
448.377

>  <PUBCHEM_SHAPE_VOLUME>  (1) 
138.8

>  <PUBCHEM_COORDINATE_TYPE>  (1) 
2
5
10

$$$$
