16491
     RDKit          3D

 18 17  0  0  0  0  0  0  0  0999 V2000
    7.0147    0.0768    0.1759 O   0  0  0  0  0  0  0  0  0  0  0  0
    9.3126    1.4929   -0.5608 O   0  0  0  0  0  0  0  0  0  0  0  0
   -1.7689   -0.5118   -0.0809 C   0  0  0  0  0  0  0  0  0  0  0  0
   -3.0538    0.2312    0.3007 C   0  0  0  0  0  0  0  0  0  0  0  0
   -0.4923    0.2428    0.2989 C   0  0  0  0  0  0  0  0  0  0  0  0
   -4.3647   -0.4662   -0.0801 C   0  0  0  0  0  0  0  0  0  0  0  0
    0.7578   -0.5536   -0.0824 C   0  0  0  0  0  0  0  0  0  0  0  0
   -5.6110    0.3488    0.2730 C   0  0  0  0  0  0  0  0  0  0  0  0
    2.0666    0.1643    0.2650 C   0  0  0  0  0  0  0  0  0  0  0  0
   -6.9169   -0.3142   -0.1786 C   0  0  0  0  0  0  0  0  0  0  0  0
    3.3158   -0.6648   -0.0488 C   0  0  0  0  0  0  0  0  0  0  0  0
   -8.1934    0.4981    0.0650 C   0  0  0  0  0  0  0  0  0  0  0  0
    4.6219    0.0797    0.2337 C   0  0  0  0  0  0  0  0  0  0  0  0
   -9.4702   -0.2311   -0.3553 C   0  0  0  0  0  0  0  0  0  0  0  0
    5.8706   -0.7012   -0.1532 C   0  0  0  0  0  0  0  0  0  0  0  0
  -10.7052    0.6192   -0.0999 C   0  0  0  0  0  0  0  0  0  0  0  0
    8.2184   -0.5985   -0.1617 C   0  0  0  0  0  0  0  0  0  0  0  0
    9.3981    0.2874    0.1894 C   0  0  0  0  0  0  0  0  0  0  0  0
  1 15  1  0
  1 17  1  0
  2 18  1  0
  3  4  1  0
  3  5  1  0
  4  6  1  0
  5  7  1  0
  6  8  1  0
  7  9  1  0
  8 10  1  0
  9 11  1  0
 10 12  1  0
 11 13  1  0
 12 14  1  0
 13 15  1  0
 14 16  1  0
 17 18  1  0
M  END
>  <PUBCHEM_COMPOUND_CID>  (1) 
16491

>  <PUBCHEM_CONFORMER_RMSD>  (1) 
1.2

>  <PUBCHEM_CONFORMER_DIVERSEORDER>  (1) 
1
93
92
73
44
11
30
75
67
99
50
54
104
47
106
13
76
57
34
35
17
95
27
66
53
72
46
105
70
96
48
24
15
33
78
41
29
19
2
61
58
60
100
68
23
91
56
16
40
22
39
12
37
25
45
82
85
90
63
9
88
79
38
74
64
101
49
51
55
65
71
69
59
42
18
14
102
103
31
4
89
83
81
52
43
26
94
107
5
98
97
21
87
62
7
36
32
28
77
80
20
84
3
86
8
10
6

>  <PUBCHEM_MMFF94_PARTIAL_CHARGES>  (1) 
6
1 -0.56
15 0.28
17 0.28
18 0.28
2 -0.68
52 0.4

>  <PUBCHEM_EFFECTIVE_ROTOR_COUNT>  (1) 
15

>  <PUBCHEM_PHARMACOPHORE_FEATURES>  (1) 
4
1 1 acceptor
1 16 hydrophobe
1 2 acceptor
1 2 donor

>  <PUBCHEM_HEAVY_ATOM_COUNT>  (1) 
18

>  <PUBCHEM_ATOM_DEF_STEREO_COUNT>  (1) 
0

>  <PUBCHEM_ATOM_UDEF_STEREO_COUNT>  (1) 
0

>  <PUBCHEM_BOND_DEF_STEREO_COUNT>  (1) 
0

>  <PUBCHEM_BOND_UDEF_STEREO_COUNT>  (1) 
0

>  <PUBCHEM_ISOTOPIC_ATOM_COUNT>  (1) 
0

>  <PUBCHEM_COMPONENT_COUNT>  (1) 
1

>  <PUBCHEM_CACTVS_TAUTO_COUNT>  (1) 
1

>  <PUBCHEM_CONFORMER_ID>  (1) 
0000406B00000001

>  <PUBCHEM_MMFF94_ENERGY>  (1) 
4.44

>  <PUBCHEM_FEATURE_SELFOVERLAP>  (1) 
20.301

>  <PUBCHEM_SHAPE_FINGERPRINT>  (1) 
11315181 36 18272092704000700051
14123256 10 18411699876500137611
14251764 18 17561086891291462314
14251764 46 18410573985151464131
15510794 2 18408045108561326891
155225 1 18334296496775171844
16120349 18 18410011070455067284
21095086 128 12031789158167108245
21362267 2 17968084386987763948
21362267 313 18042115462593971736
22224240 67 17240202145324362810
232437 2 16415478251210650575
23521765 1 18342175561595065195
23581129 1 18409448085244615011
246663 6 13039187013488526419
335352 9 17989485234349789407
33684 2 18411699876479058162
67123 10 18410855464423129095
8209 1 18201719552643257946

>  <PUBCHEM_SHAPE_MULTIPOLES>  (1) 
358.69
41.11
0.88
0.66
7.82
0.09
0
7.61
4.15
-0.81
0.07
-0.04
0.02
-0.37

>  <PUBCHEM_SHAPE_SELFOVERLAP>  (1) 
641.738

>  <PUBCHEM_SHAPE_VOLUME>  (1) 
232.1

>  <PUBCHEM_COORDINATE_TYPE>  (1) 
2
5
10

$$$$
