16501
     RDKit          3D

  7  6  0  0  0  0  0  0  0  0999 V2000
    0.8324   -0.1163    0.2169 O   0  0  0  0  0  0  0  0  0  0  0  0
   -2.5220    1.2794   -0.1871 N   0  0  0  0  0  0  0  0  0  0  0  0
   -0.0114   -1.1413   -0.2936 C   0  0  0  0  0  0  0  0  0  0  0  0
    2.1318   -0.1790   -0.3542 C   0  0  0  0  0  0  0  0  0  0  0  0
   -1.3890   -1.0345    0.3451 C   0  0  0  0  0  0  0  0  0  0  0  0
    2.9797    0.9326    0.2261 C   0  0  0  0  0  0  0  0  0  0  0  0
   -2.0215    0.2591    0.0469 C   0  0  0  0  0  0  0  0  0  0  0  0
  1  3  1  0
  1  4  1  0
  2  7  3  0
  3  5  1  0
  4  6  1  0
  5  7  1  0
M  END
>  <PUBCHEM_COMPOUND_CID>  (1) 
16501

>  <PUBCHEM_CONFORMER_RMSD>  (1) 
0.4

>  <PUBCHEM_CONFORMER_DIVERSEORDER>  (1) 
1
9
16
5
3
15
14
4
11
17
6
2
7
13
10
8
12

>  <PUBCHEM_MMFF94_PARTIAL_CHARGES>  (1) 
6
1 -0.56
2 -0.56
3 0.28
4 0.28
5 0.2
7 0.36

>  <PUBCHEM_EFFECTIVE_ROTOR_COUNT>  (1) 
3

>  <PUBCHEM_PHARMACOPHORE_FEATURES>  (1) 
2
1 1 acceptor
1 2 acceptor

>  <PUBCHEM_HEAVY_ATOM_COUNT>  (1) 
7

>  <PUBCHEM_ATOM_DEF_STEREO_COUNT>  (1) 
0

>  <PUBCHEM_ATOM_UDEF_STEREO_COUNT>  (1) 
0

>  <PUBCHEM_BOND_DEF_STEREO_COUNT>  (1) 
0

>  <PUBCHEM_BOND_UDEF_STEREO_COUNT>  (1) 
0

>  <PUBCHEM_ISOTOPIC_ATOM_COUNT>  (1) 
0

>  <PUBCHEM_COMPONENT_COUNT>  (1) 
1

>  <PUBCHEM_CACTVS_TAUTO_COUNT>  (1) 
1

>  <PUBCHEM_CONFORMER_ID>  (1) 
0000407500000001

>  <PUBCHEM_MMFF94_ENERGY>  (1) 
3.8418

>  <PUBCHEM_FEATURE_SELFOVERLAP>  (1) 
10.149

>  <PUBCHEM_SHAPE_FINGERPRINT>  (1) 
14325111 11 18411419509714634142
14390081 3 18412544310009628696
20096714 4 18337391530894922707
21040471 1 18408608036912804311
23552449 1 18195246839291202963
29004967 10 11386373650919560102
5460574 1 8286214828865546658

>  <PUBCHEM_SHAPE_MULTIPOLES>  (1) 
133.21
4.42
1.29
0.66
1.73
0.07
0
1.99
0.08
-0.49
-0.03
0.04
-0.04
0.28

>  <PUBCHEM_SHAPE_SELFOVERLAP>  (1) 
234.826

>  <PUBCHEM_SHAPE_VOLUME>  (1) 
85.7

>  <PUBCHEM_COORDINATE_TYPE>  (1) 
2
5
10

$$$$
