16518
     RDKit          3D

 18 19  0  0  0  0  0  0  0  0999 V2000
    1.6484   -1.7726   -0.2427 O   0  0  0  0  0  0  0  0  0  0  0  0
   -5.6489    0.5044   -0.0789 O   0  0  0  0  0  0  0  0  0  0  0  0
    5.5205    0.5049   -0.1420 N   0  0  0  0  0  0  0  0  0  0  0  0
    0.2757   -1.8155   -0.4547 N   0  0  0  0  0  0  0  0  0  0  0  0
    3.3885   -0.4075    0.6999 C   0  0  0  0  0  0  0  0  0  0  0  0
    4.1014    0.3189   -0.4424 C   0  0  0  0  0  0  0  0  0  0  0  0
    1.9283   -0.6238    0.3877 C   0  0  0  0  0  0  0  0  0  0  0  0
    0.8319    0.1157    0.6169 C   0  0  0  0  0  0  0  0  0  0  0  0
   -0.1903   -0.6773    0.0671 C   0  0  0  0  0  0  0  0  0  0  0  0
   -1.5957   -0.3729    0.0300 C   0  0  0  0  0  0  0  0  0  0  0  0
    5.6860    1.3360    1.0499 C   0  0  0  0  0  0  0  0  0  0  0  0
    6.2103    1.1048   -1.2834 C   0  0  0  0  0  0  0  0  0  0  0  0
   -2.0180    0.9537   -0.0292 C   0  0  0  0  0  0  0  0  0  0  0  0
   -2.5311   -1.4058    0.0530 C   0  0  0  0  0  0  0  0  0  0  0  0
   -3.3810    1.2487   -0.0654 C   0  0  0  0  0  0  0  0  0  0  0  0
   -3.8940   -1.1107    0.0167 C   0  0  0  0  0  0  0  0  0  0  0  0
   -4.3189    0.2165   -0.0425 C   0  0  0  0  0  0  0  0  0  0  0  0
   -6.0133    1.8824   -0.1402 C   0  0  0  0  0  0  0  0  0  0  0  0
  1  4  1  0
  1  7  1  0
  2 17  1  0
  2 18  1  0
  3  6  1  0
  3 11  1  0
  3 12  1  0
  4  9  2  0
  5  6  1  0
  5  7  1  0
  7  8  2  0
  8  9  1  0
  9 10  1  0
 10 13  2  0
 10 14  1  0
 13 15  1  0
 14 16  2  0
 15 17  2  0
 16 17  1  0
M  END
>  <PUBCHEM_COMPOUND_CID>  (1) 
16518

>  <PUBCHEM_CONFORMER_RMSD>  (1) 
0.6

>  <PUBCHEM_CONFORMER_DIVERSEORDER>  (1) 
1
30
18
22
42
8
19
28
10
24
5
13
36
31
29
26
41
15
16
11
23
27
37
32
14
40
6
39
21
12
38
3
7
35
20
34
25
9
33
4
17
2

>  <PUBCHEM_MMFF94_PARTIAL_CHARGES>  (1) 
23
1 -0.02
10 0.05
11 0.27
12 0.27
13 -0.15
14 -0.15
15 -0.15
16 -0.15
17 0.08
18 0.28
2 -0.36
23 0.15
3 -0.81
30 0.15
31 0.15
32 0.15
33 0.15
4 -0.41
5 0.18
6 0.27
7 -0.04
8 -0.15
9 0.23

>  <PUBCHEM_EFFECTIVE_ROTOR_COUNT>  (1) 
5

>  <PUBCHEM_PHARMACOPHORE_FEATURES>  (1) 
5
1 2 acceptor
1 3 cation
1 4 acceptor
5 1 4 7 8 9 rings
6 10 13 14 15 16 17 rings

>  <PUBCHEM_HEAVY_ATOM_COUNT>  (1) 
18

>  <PUBCHEM_ATOM_DEF_STEREO_COUNT>  (1) 
0

>  <PUBCHEM_ATOM_UDEF_STEREO_COUNT>  (1) 
0

>  <PUBCHEM_BOND_DEF_STEREO_COUNT>  (1) 
0

>  <PUBCHEM_BOND_UDEF_STEREO_COUNT>  (1) 
0

>  <PUBCHEM_ISOTOPIC_ATOM_COUNT>  (1) 
0

>  <PUBCHEM_COMPONENT_COUNT>  (1) 
1

>  <PUBCHEM_CACTVS_TAUTO_COUNT>  (1) 
1

>  <PUBCHEM_CONFORMER_ID>  (1) 
0000408600000001

>  <PUBCHEM_MMFF94_ENERGY>  (1) 
46.5804

>  <PUBCHEM_FEATURE_SELFOVERLAP>  (1) 
25.371

>  <PUBCHEM_SHAPE_FINGERPRINT>  (1) 
100836 57 18408325484099548012
10354089 29 17530966886871444172
10411042 1 17761493995261206747
106641 1 14201409316819262376
10670039 82 18271535200134992088
10803635 8 12319463155802693609
117890 112 18334292050402280465
12236239 1 18040152933338903642
12390115 104 17987529121670978145
12403259 415 18059289975916739378
12596602 18 16298386876807172272
12670543 26 17632584816430159588
13288520 33 9727635007946951195
13533116 47 16516240731011737042
13685833 64 9295283954197447308
13897977 58 18335139799847998613
14252887 29 13334728004157227216
14341114 328 17530962497193315344
14528608 73 18272647965456213412
15048467 5 18335420153743526861
15183329 4 18272382936705786470
17980427 23 17822296824687784439
1813 80 11959739295734932498
18222031 100 13326848920585497338
19784866 140 16128664024476430962
19784866 170 18409168801155061923
20281389 69 18334853900791599409
20374829 77 10159699092464997435
20526848 3 18334299755500217812
20645477 56 18409728448426117793
21150785 3 16343695560638623037
21637258 2 12103564147968463668
220451 1 15719111375263747162
221357 26 16917067746267518912
22224240 67 15285360634822544937
23198884 109 16343707625359818273
23253445 4 13984664776385731846
23402539 116 18187359965007286599
23402655 69 18131064897109406911
23559900 14 18054785092284888890
26918003 58 12468357946920921335
2916195 48 18129654331223551600
293599 30 18413671313770571658
300161 21 18334287656761493443
3004659 81 18340208501951639398
3472631 163 18337116782412206068
34797466 226 17632301215328917692
34934 24 18409725136975047843
3545911 37 18410576175584772107
4340502 62 16443346459890281440
474 4 17603592953990256636
5104073 3 18262239919948025163
542803 24 17822008726834221994
59682541 35 18335148609706898121
59682541 52 16486977232959126764
7062679 6 18335423447872907005

>  <PUBCHEM_SHAPE_MULTIPOLES>  (1) 
348.73
15.11
1.7
0.85
7.67
0.06
0.02
-9.29
1.46
-0.96
0.11
1.16
-0.16
-0.05

>  <PUBCHEM_SHAPE_SELFOVERLAP>  (1) 
730.834

>  <PUBCHEM_SHAPE_VOLUME>  (1) 
200.9

>  <PUBCHEM_COORDINATE_TYPE>  (1) 
2
5
10

$$$$
