16512
     RDKit          3D

 19 21  0  0  0  0  0  0  0  0999 V2000
   -0.4866   -1.8159    0.4671 O   0  0  0  0  0  0  0  0  0  0  0  0
    3.6963   -0.2807   -0.1145 N   0  0  0  0  0  0  0  0  0  0  0  0
   -1.8502   -1.7370    0.2117 N   0  0  0  0  0  0  0  0  0  0  0  0
   -3.6306    1.3777    0.0153 N   0  0  0  0  0  0  0  0  0  0  0  0
    4.0001    0.9262    0.6672 C   0  0  0  0  0  0  0  0  0  0  0  0
    4.4697   -0.3133   -1.3637 C   0  0  0  0  0  0  0  0  0  0  0  0
    5.4879    0.9988    1.0144 C   0  0  0  0  0  0  0  0  0  0  0  0
    5.9728   -0.2809   -1.0831 C   0  0  0  0  0  0  0  0  0  0  0  0
    6.3535    0.9299   -0.2385 C   0  0  0  0  0  0  0  0  0  0  0  0
    2.2634   -0.3598   -0.3976 C   0  0  0  0  0  0  0  0  0  0  0  0
    1.4525   -0.4610    0.8958 C   0  0  0  0  0  0  0  0  0  0  0  0
   -0.0255   -0.5660    0.6114 C   0  0  0  0  0  0  0  0  0  0  0  0
   -0.9904    0.3561    0.4698 C   0  0  0  0  0  0  0  0  0  0  0  0
   -2.1280   -0.4301    0.2182 C   0  0  0  0  0  0  0  0  0  0  0  0
   -3.4684    0.0375   -0.0147 C   0  0  0  0  0  0  0  0  0  0  0  0
   -4.4893   -0.8669   -0.2480 C   0  0  0  0  0  0  0  0  0  0  0  0
   -5.7659   -0.3608   -0.4662 C   0  0  0  0  0  0  0  0  0  0  0  0
   -4.8853    1.8326   -0.2009 C   0  0  0  0  0  0  0  0  0  0  0  0
   -5.9761    1.0135   -0.4439 C   0  0  0  0  0  0  0  0  0  0  0  0
  1  3  1  0
  1 12  1  0
  2  5  1  0
  2  6  1  0
  2 10  1  0
  3 14  2  0
  4 15  2  0
  4 18  1  0
  5  7  1  0
  6  8  1  0
  7  9  1  0
  8  9  1  0
 10 11  1  0
 11 12  1  0
 12 13  2  0
 13 14  1  0
 14 15  1  0
 15 16  1  0
 16 17  2  0
 17 19  1  0
 18 19  2  0
M  END
>  <PUBCHEM_COMPOUND_CID>  (1) 
16512

>  <PUBCHEM_CONFORMER_RMSD>  (1) 
0.8

>  <PUBCHEM_CONFORMER_DIVERSEORDER>  (1) 
1
4
8
33
26
6
25
34
17
20
7
36
9
16
31
29
22
5
24
10
3
15
23
28
35
32
2
21
11
13
30
27
18
12
19
14

>  <PUBCHEM_MMFF94_PARTIAL_CHARGES>  (1) 
21
1 -0.02
10 0.27
11 0.18
12 -0.04
13 -0.15
14 0.23
15 0.36
16 -0.15
17 -0.15
18 0.16
19 -0.15
2 -0.81
3 -0.41
34 0.15
35 0.15
36 0.15
37 0.15
38 0.15
4 -0.62
5 0.27
6 0.27

>  <PUBCHEM_EFFECTIVE_ROTOR_COUNT>  (1) 
5.2

>  <PUBCHEM_PHARMACOPHORE_FEATURES>  (1) 
6
1 2 cation
1 3 acceptor
1 4 acceptor
5 1 3 12 13 14 rings
6 2 5 6 7 8 9 rings
6 4 15 16 17 18 19 rings

>  <PUBCHEM_HEAVY_ATOM_COUNT>  (1) 
19

>  <PUBCHEM_ATOM_DEF_STEREO_COUNT>  (1) 
0

>  <PUBCHEM_ATOM_UDEF_STEREO_COUNT>  (1) 
0

>  <PUBCHEM_BOND_DEF_STEREO_COUNT>  (1) 
0

>  <PUBCHEM_BOND_UDEF_STEREO_COUNT>  (1) 
0

>  <PUBCHEM_ISOTOPIC_ATOM_COUNT>  (1) 
0

>  <PUBCHEM_COMPONENT_COUNT>  (1) 
1

>  <PUBCHEM_CACTVS_TAUTO_COUNT>  (1) 
1

>  <PUBCHEM_CONFORMER_ID>  (1) 
0000408000000001

>  <PUBCHEM_MMFF94_ENERGY>  (1) 
24.0619

>  <PUBCHEM_FEATURE_SELFOVERLAP>  (1) 
30.447

>  <PUBCHEM_SHAPE_FINGERPRINT>  (1) 
10 15 11458430176328055886
10354089 29 14851606588036901830
10447042 23 15985107397255901820
10670039 82 18335702685203473908
10730089 173 18409167697095382701
11089746 13 18186798110655459228
11646440 116 18410304613667556713
11719270 70 17775283834289758350
117890 112 18334857234255692764
12236239 1 17530679922594226650
12390115 104 18269843025980389417
12516196 113 9511458927040061486
12596602 18 13406798821745929469
12670543 26 18131354081177867474
12714333 28 18410011035208585830
12916748 109 18409169913245474241
13167372 99 16226038960233438724
13288520 33 11024106551821697779
13533116 47 18337105658352171434
13631057 29 17096092527874084819
13668630 136 15482674589043537420
13685833 64 11095876086402781277
1420 363 8790886285227106112
14251718 22 18202844370297417775
14251752 14 18201718427409409750
14251764 18 16008753536697564259
14528608 73 18412542111065500910
14573314 32 18273217482383033844
15048467 5 18113898255971075957
15183329 4 18201723912251211474
15348495 7 12180139690834824220
15716309 27 8862941671467273032
15778101 99 18341334397362963945
16079462 125 18131059468339485864
1813 80 12679464204886127138
18222031 100 12751239212073183738
19489759 90 18408604768653409249
200 152 15626229004793460002
20281389 69 17748821908527093012
20645477 56 18407759248401251779
20645477 70 17203619159916397902
21150785 3 17918265476994283245
21267235 1 18341894143645263759
21637258 2 12895068488054211492
22061861 79 17203613674799919164
221357 26 17703788106818347768
22224240 67 13839986625297804505
22289505 5 18131633392261649248
23035841 295 11455892468308717765
23198884 109 18411703170998464615
23402539 116 18411696599429431125
23522609 53 12174789561970830626
23536379 177 17060342907158676689
23559900 14 17917423271955757432
2767999 5 17821444664247076316
2916195 48 18411694413291356784
293599 30 18335420149522198291
29717793 49 15841560656623196556
300161 21 18260543415975939034
3004659 81 18336829685344559234
312425 54 11458421310898963013
3472631 163 18187088403479590820
34797466 226 17917714633831248893
351380 3 12679461975861539924
3545911 37 18410858763053126922
441001 317 18410292506375807977
5104073 3 18114464444894257299
5283173 99 18202284662976233736
542803 24 17167863071560750968
59682541 52 17560520599531647188
59755656 215 18410297969933229534
59755656 520 17967809465961892746

>  <PUBCHEM_SHAPE_MULTIPOLES>  (1) 
370.2
17.44
1.45
0.98
5.97
0.09
-0.09
5.81
-4.24
-1.18
0.1
1.13
-0.03
0.84

>  <PUBCHEM_SHAPE_SELFOVERLAP>  (1) 
784.455

>  <PUBCHEM_SHAPE_VOLUME>  (1) 
207.3

>  <PUBCHEM_COORDINATE_TYPE>  (1) 
2
5
10

$$$$
