16520
     RDKit          3D

 15 15  0  0  0  0  0  0  0  0999 V2000
    4.1121    2.1003    0.2207 Cl  0  0  0  0  0  0  0  0  0  0  0  0
    4.9482   -1.0262    0.2168 Cl  0  0  0  0  0  0  0  0  0  0  0  0
   -2.9650    0.5233   -0.4819 O   0  0  0  0  0  0  0  0  0  0  0  0
   -1.8515   -1.4738   -0.4321 O   0  0  0  0  0  0  0  0  0  0  0  0
   -0.7226    0.5756   -0.2701 N   0  0  0  0  0  0  0  0  0  0  0  0
   -4.1669   -0.0594    0.0354 C   0  0  0  0  0  0  0  0  0  0  0  0
   -3.9651   -0.4032    1.5032 C   0  0  0  0  0  0  0  0  0  0  0  0
   -5.3208    0.9111   -0.1659 C   0  0  0  0  0  0  0  0  0  0  0  0
    0.6197    0.2133   -0.1538 C   0  0  0  0  0  0  0  0  0  0  0  0
   -1.8375   -0.2494   -0.3970 C   0  0  0  0  0  0  0  0  0  0  0  0
    1.6008    1.1978   -0.0356 C   0  0  0  0  0  0  0  0  0  0  0  0
    0.9805   -1.1341   -0.1564 C   0  0  0  0  0  0  0  0  0  0  0  0
    2.9427    0.8347    0.0801 C   0  0  0  0  0  0  0  0  0  0  0  0
    2.3222   -1.4972   -0.0408 C   0  0  0  0  0  0  0  0  0  0  0  0
    3.3033   -0.5128    0.0776 C   0  0  0  0  0  0  0  0  0  0  0  0
  1 13  1  0
  2 15  1  0
  3  6  1  0
  3 10  1  0
  4 10  2  0
  5  9  1  0
  5 10  1  0
  6  7  1  0
  6  8  1  0
  9 11  2  0
  9 12  1  0
 11 13  1  0
 12 14  2  0
 13 15  2  0
 14 15  1  0
M  END
>  <PUBCHEM_COMPOUND_CID>  (1) 
16520

>  <PUBCHEM_CONFORMER_RMSD>  (1) 
0.6

>  <PUBCHEM_CONFORMER_DIVERSEORDER>  (1) 
2
30
21
26
10
34
25
33
9
16
8
27
23
24
14
7
31
3
32
15
36
5
17
4
28
35
1
29
22
6
12
11
13
18
19
20

>  <PUBCHEM_MMFF94_PARTIAL_CHARGES>  (1) 
17
1 -0.18
10 0.78
11 -0.15
12 -0.15
13 0.18
14 -0.15
15 0.18
2 -0.18
23 0.37
24 0.15
25 0.15
26 0.15
3 -0.43
4 -0.57
5 -0.55
6 0.28
9 0.12

>  <PUBCHEM_EFFECTIVE_ROTOR_COUNT>  (1) 
4

>  <PUBCHEM_PHARMACOPHORE_FEATURES>  (1) 
4
1 4 acceptor
1 5 donor
3 6 7 8 hydrophobe
6 9 11 12 13 14 15 rings

>  <PUBCHEM_HEAVY_ATOM_COUNT>  (1) 
15

>  <PUBCHEM_ATOM_DEF_STEREO_COUNT>  (1) 
0

>  <PUBCHEM_ATOM_UDEF_STEREO_COUNT>  (1) 
0

>  <PUBCHEM_BOND_DEF_STEREO_COUNT>  (1) 
0

>  <PUBCHEM_BOND_UDEF_STEREO_COUNT>  (1) 
0

>  <PUBCHEM_ISOTOPIC_ATOM_COUNT>  (1) 
0

>  <PUBCHEM_COMPONENT_COUNT>  (1) 
1

>  <PUBCHEM_CACTVS_TAUTO_COUNT>  (1) 
2

>  <PUBCHEM_CONFORMER_ID>  (1) 
0000408800000002

>  <PUBCHEM_MMFF94_ENERGY>  (1) 
36.5211

>  <PUBCHEM_FEATURE_SELFOVERLAP>  (1) 
20.297

>  <PUBCHEM_SHAPE_FINGERPRINT>  (1) 
11089746 13 17632568340746032993
11471102 20 18412823590474335492
12236239 1 17560796619657265759
12251169 10 18342174449156389558
12507560 40 18333736840438745505
13675066 3 18186802504174887941
13760787 5 18342168981652433509
14445660 50 18271810163333977351
15196674 1 18411416254024078223
15375358 24 18186801391973420331
17834072 33 18131064978618866263
18186145 218 17967805063883599574
200 152 18202276988280560397
20279233 1 18113342998842184467
20645477 70 18341046337341532686
21267235 1 18412269402296499982
212847 35 18059855069080258448
22485316 2 17749108885557188051
23048698 100 18202004326149544913
23402539 116 17703781501643611605
23402655 69 18272086110587648949
23503953 91 18272358794072383162
23557571 272 17023181565939582359
23559900 14 17458350719225137194
26918003 58 18333732399152430809
42 15 18260831483948774215
449060 50 18409450323149657077
449060 62 18341894125747865812
5104073 3 18410572928626628331
602551 16 16371017359209926267
69090 78 18412539921059727375
77779 3 18410575110649232039
90127 26 18333455339333833801
9999458 23 18259703402757922526

>  <PUBCHEM_SHAPE_MULTIPOLES>  (1) 
295.71
10.87
1.65
0.81
6.85
0.31
-0.22
1.54
-1.48
-1.86
-0.01
0.63
-0.06
0.3

>  <PUBCHEM_SHAPE_SELFOVERLAP>  (1) 
587.702

>  <PUBCHEM_SHAPE_VOLUME>  (1) 
177.6

>  <PUBCHEM_COORDINATE_TYPE>  (1) 
2
5
10

$$$$
