16533
     RDKit          3D

 34 37  0  0  1  0  0  0  0  0999 V2000
    1.9128   -1.1783    0.2016 F   0  0  0  0  0  0  0  0  0  0  0  0
   -2.3942   -0.3236    0.1112 O   0  0  0  0  0  0  0  0  0  0  0  0
    1.8881    1.9393    1.9903 O   0  0  0  0  0  0  0  0  0  0  0  0
   -3.8901    2.5241   -0.0343 O   0  0  0  0  0  0  0  0  0  0  0  0
   -4.3060    1.8310    2.6014 O   0  0  0  0  0  0  0  0  0  0  0  0
   -4.4965   -0.0134   -0.7870 O   0  0  0  0  0  0  0  0  0  0  0  0
    6.4079   -3.0732    0.1752 O   0  0  0  0  0  0  0  0  0  0  0  0
   -0.5665    1.3103    0.1661 C   0  0  0  0  0  0  0  0  0  0  0  0
    0.1638    0.6730   -1.0365 C   0  0  0  0  0  0  0  0  0  0  0  0
    1.6898    0.8453   -0.9847 C   0  0  0  0  0  0  0  0  0  0  0  0
    2.2383    0.1645    0.3166 C   0  0  0  0  0  0  0  0  0  0  0  0
   -2.0477    1.0243   -0.2328 C   0  0  0  0  0  0  0  0  0  0  0  0
   -0.5994    1.2284   -2.2349 C   0  0  0  0  0  0  0  0  0  0  0  0
   -0.0596    0.6002    1.4395 C   0  0  0  0  0  0  0  0  0  0  0  0
   -2.0823    1.1496   -1.7893 C   0  0  0  0  0  0  0  0  0  0  0  0
    1.4785    0.6405    1.5912 C   0  0  0  0  0  0  0  0  0  0  0  0
    3.8155    0.2131    0.3915 C   0  0  0  0  0  0  0  0  0  0  0  0
    2.3394    0.2426   -2.2441 C   0  0  0  0  0  0  0  0  0  0  0  0
   -0.3402    2.8434    0.2785 C   0  0  0  0  0  0  0  0  0  0  0  0
    3.8616    0.2830   -2.1855 C   0  0  0  0  0  0  0  0  0  0  0  0
    4.3555   -0.3699   -0.9199 C   0  0  0  0  0  0  0  0  0  0  0  0
   -3.0664    1.8121    0.5380 C   0  0  0  0  0  0  0  0  0  0  0  0
   -2.8826    2.3129   -2.3665 C   0  0  0  0  0  0  0  0  0  0  0  0
    4.3956    1.6368    0.5545 C   0  0  0  0  0  0  0  0  0  0  0  0
    4.3089   -0.5835    1.5909 C   0  0  0  0  0  0  0  0  0  0  0  0
    5.1836   -1.4245   -0.9827 C   0  0  0  0  0  0  0  0  0  0  0  0
   -3.0174    1.6781    2.0451 C   0  0  0  0  0  0  0  0  0  0  0  0
    5.1318   -1.6352    1.5349 C   0  0  0  0  0  0  0  0  0  0  0  0
   -3.6592   -0.7085   -0.2283 C   0  0  0  0  0  0  0  0  0  0  0  0
    5.6387   -2.1203    0.2383 C   0  0  0  0  0  0  0  0  0  0  0  0
   -3.8617   -2.1445    0.1983 C   0  0  0  0  0  0  0  0  0  0  0  0
   -5.2679   -2.6456   -0.1273 C   0  0  0  0  0  0  0  0  0  0  0  0
   -5.4434   -4.1094    0.2741 C   0  0  0  0  0  0  0  0  0  0  0  0
   -6.8290   -4.6227   -0.0834 C   0  0  0  0  0  0  0  0  0  0  0  0
  1 11  1  0
  2 12  1  0
  2 29  1  0
  3 16  1  0
  4 22  2  0
  5 27  1  0
  6 29  2  0
  7 30  2  0
  8  9  1  0
  8 12  1  0
  8 14  1  0
  8 19  1  0
  9 10  1  0
  9 13  1  0
 10 11  1  0
 10 18  1  0
 11 16  1  0
 11 17  1  0
 12 15  1  0
 12 22  1  0
 13 15  1  0
 14 16  1  0
 15 23  1  0
 17 21  1  0
 17 24  1  0
 17 25  1  0
 18 20  1  0
 20 21  1  0
 21 26  2  0
 22 27  1  0
 25 28  2  0
 26 30  1  0
 28 30  1  0
 29 31  1  0
 31 32  1  0
 32 33  1  0
 33 34  1  0
M  END
>  <PUBCHEM_COMPOUND_CID>  (1) 
16533

>  <PUBCHEM_CONFORMER_RMSD>  (1) 
1

>  <PUBCHEM_CONFORMER_DIVERSEORDER>  (1) 
1
5
3
2
6
4

>  <PUBCHEM_MMFF94_PARTIAL_CHARGES>  (1) 
26
1 -0.34
11 0.34
12 0.34
16 0.28
17 0.28
2 -0.43
20 0.14
21 -0.28
22 0.45
25 -0.29
26 -0.14
27 0.34
28 -0.14
29 0.66
3 -0.68
30 0.54
31 0.06
4 -0.57
5 -0.68
56 0.15
57 0.4
58 0.15
6 -0.57
61 0.15
64 0.4
7 -0.57

>  <PUBCHEM_EFFECTIVE_ROTOR_COUNT>  (1) 
8.4

>  <PUBCHEM_PHARMACOPHORE_FEATURES>  (1) 
12
1 3 acceptor
1 3 donor
1 34 hydrophobe
1 4 acceptor
1 5 acceptor
1 5 donor
1 6 acceptor
1 7 acceptor
5 8 9 12 13 15 rings
6 10 11 17 18 20 21 rings
6 17 21 25 26 28 30 rings
6 8 9 10 11 14 16 rings

>  <PUBCHEM_HEAVY_ATOM_COUNT>  (1) 
34

>  <PUBCHEM_ATOM_DEF_STEREO_COUNT>  (1) 
8

>  <PUBCHEM_ATOM_UDEF_STEREO_COUNT>  (1) 
0

>  <PUBCHEM_BOND_DEF_STEREO_COUNT>  (1) 
0

>  <PUBCHEM_BOND_UDEF_STEREO_COUNT>  (1) 
0

>  <PUBCHEM_ISOTOPIC_ATOM_COUNT>  (1) 
0

>  <PUBCHEM_COMPONENT_COUNT>  (1) 
1

>  <PUBCHEM_CACTVS_TAUTO_COUNT>  (1) 
9

>  <PUBCHEM_CONFORMER_ID>  (1) 
0000409500000001

>  <PUBCHEM_MMFF94_ENERGY>  (1) 
113.1531

>  <PUBCHEM_FEATURE_SELFOVERLAP>  (1) 
61.007

>  <PUBCHEM_SHAPE_FINGERPRINT>  (1) 
10622 236 18187355571451564775
11115154 58 17023732551164065919
11497681 19 18335983181370499646
11578080 2 18041540525292901837
11607047 403 17833262400222816336
117089 54 18342183249967405254
11763715 3 18188791524883833133
11796584 16 18265893558532651670
12633046 712 18342166748306628908
12633257 1 18200880556589049632
131258 38 17403449071609931127
13224815 77 18335416833913291676
13583140 156 17917139486344825756
13782708 43 18343014536634211487
14347332 77 18260543442057303895
14739800 52 10519690156457109678
14856354 85 18271249292308433404
15788980 27 18115591435585824008
17349148 13 17822302219398608208
17492 89 18410291419775455654
20775438 99 17389381837801494186
21033648 29 15913051963059269465
23559900 14 18410281515111853364
3388396 114 16951144991519282604
392239 28 14691988243023158890
460360 51 15626232277690415152
484985 159 18412265009178121427
5104073 3 17988924457602484240
563151 248 18267888132987089027
6009941 240 17987513706711183608
70251023 43 17896886645844806965
7970288 3 18191023602635215575
9981440 41 16199311963319747785

>  <PUBCHEM_SHAPE_MULTIPOLES>  (1) 
657.21
14.14
3.95
2.18
1.96
4.12
-0.13
17.56
0.94
6.96
0.24
-0.33
-1.44
-0.62

>  <PUBCHEM_SHAPE_SELFOVERLAP>  (1) 
1409.078

>  <PUBCHEM_SHAPE_VOLUME>  (1) 
363

>  <PUBCHEM_COORDINATE_TYPE>  (1) 
2
5
10

$$$$
