16536
     RDKit          3D

 14 14  0  0  0  0  0  0  0  0999 V2000
   -5.2584    0.0252   -1.2796 Cl  0  0  0  0  0  0  0  0  0  0  0  0
    3.4326   -0.4854    0.2757 O   0  0  0  0  0  0  0  0  0  0  0  0
   -3.0115   -1.4051    0.1922 O   0  0  0  0  0  0  0  0  0  0  0  0
   -1.9822    0.7114    0.2089 N   0  0  0  0  0  0  0  0  0  0  0  0
   -0.6200    0.4103    0.2251 C   0  0  0  0  0  0  0  0  0  0  0  0
    2.1038   -0.1917    0.2581 C   0  0  0  0  0  0  0  0  0  0  0  0
    0.3216    1.4393    0.2288 C   0  0  0  0  0  0  0  0  0  0  0  0
   -0.1998   -0.9198    0.2380 C   0  0  0  0  0  0  0  0  0  0  0  0
    1.6836    1.1382    0.2452 C   0  0  0  0  0  0  0  0  0  0  0  0
    1.1622   -1.2207    0.2545 C   0  0  0  0  0  0  0  0  0  0  0  0
    4.3117    0.4450   -0.3545 C   0  0  0  0  0  0  0  0  0  0  0  0
   -3.0654   -0.1781    0.2029 C   0  0  0  0  0  0  0  0  0  0  0  0
    5.5216   -0.2978   -0.8798 C   0  0  0  0  0  0  0  0  0  0  0  0
   -4.3998    0.5294    0.1844 C   0  0  0  0  0  0  0  0  0  0  0  0
  1 14  1  0
  2  6  1  0
  2 11  1  0
  3 12  2  0
  4  5  1  0
  4 12  1  0
  5  7  2  0
  5  8  1  0
  6  9  2  0
  6 10  1  0
  7  9  1  0
  8 10  2  0
 11 13  1  0
 12 14  1  0
M  END
>  <PUBCHEM_COMPOUND_CID>  (1) 
16536

>  <PUBCHEM_CONFORMER_RMSD>  (1) 
0.6

>  <PUBCHEM_CONFORMER_DIVERSEORDER>  (1) 
1
17
11
21
10
4
24
13
12
22
6
19
9
18
14
25
3
5
20
16
2
26
7
23
8
15

>  <PUBCHEM_MMFF94_PARTIAL_CHARGES>  (1) 
18
1 -0.29
10 -0.15
11 0.28
12 0.57
14 0.35
15 0.15
16 0.15
17 0.15
18 0.15
19 0.37
2 -0.36
3 -0.57
4 -0.55
5 0.12
6 0.08
7 -0.15
8 -0.15
9 -0.15

>  <PUBCHEM_EFFECTIVE_ROTOR_COUNT>  (1) 
5

>  <PUBCHEM_PHARMACOPHORE_FEATURES>  (1) 
4
1 2 acceptor
1 3 acceptor
1 4 donor
6 5 6 7 8 9 10 rings

>  <PUBCHEM_HEAVY_ATOM_COUNT>  (1) 
14

>  <PUBCHEM_ATOM_DEF_STEREO_COUNT>  (1) 
0

>  <PUBCHEM_ATOM_UDEF_STEREO_COUNT>  (1) 
0

>  <PUBCHEM_BOND_DEF_STEREO_COUNT>  (1) 
0

>  <PUBCHEM_BOND_UDEF_STEREO_COUNT>  (1) 
0

>  <PUBCHEM_ISOTOPIC_ATOM_COUNT>  (1) 
0

>  <PUBCHEM_COMPONENT_COUNT>  (1) 
1

>  <PUBCHEM_CACTVS_TAUTO_COUNT>  (1) 
2

>  <PUBCHEM_CONFORMER_ID>  (1) 
0000409800000001

>  <PUBCHEM_MMFF94_ENERGY>  (1) 
41.1524

>  <PUBCHEM_FEATURE_SELFOVERLAP>  (1) 
20.297

>  <PUBCHEM_SHAPE_FINGERPRINT>  (1) 
11062470 55 16587743131305948041
11401426 45 18409445903622826832
11471102 20 18409725162180128337
117890 112 14996283613173809950
12032990 46 18342746238505765026
12119455 92 13984662585926017714
12670543 26 18337391539431902310
12714333 28 17095244731009113052
13760787 19 17458060477882585178
13862211 1 18342453721231738542
14576447 43 18201144529795464607
14911166 2 18410294718025313996
14993402 34 18413671318134071730
15048467 5 16732702753023209564
15242439 84 18410573998089178561
17834072 33 17489583497783761893
17834072 8 18410855468728665717
17834076 25 15719393936387031316
200 152 17846495937569775033
20645477 70 18262513685094812115
21119208 17 18342736325668472215
21267235 1 18341620347547754395
21637258 2 16200425836911694086
23402539 116 16056881308324309273
23402655 69 18339070494220571397
23557571 272 18262523589494950068
23559900 14 18341334487567729176
2916195 48 13840271419856707300
29717793 49 17489866046950780733
4072396 5 18188754090306946962
42 15 11743839170470837181
4990 188 18059864947895046044

>  <PUBCHEM_SHAPE_MULTIPOLES>  (1) 
273.26
10.77
1.24
0.84
0.19
0.01
0.22
-0.46
4.3
0
-0.14
0.31
-0.02
0.04

>  <PUBCHEM_SHAPE_SELFOVERLAP>  (1) 
545.827

>  <PUBCHEM_SHAPE_VOLUME>  (1) 
161.8

>  <PUBCHEM_COORDINATE_TYPE>  (1) 
2
5
10

$$$$
