16542
     RDKit          3D

 14 13  0  0  0  0  0  0  0  0999 V2000
   -2.4396    0.1679    0.0049 O   0  0  0  0  0  0  0  0  0  0  0  0
   -3.7828   -1.7012   -0.0241 O   0  0  0  0  0  0  0  0  0  0  0  0
    2.4755    0.3264    0.0865 C   0  0  0  0  0  0  0  0  0  0  0  0
    3.7990   -0.4435    0.0579 C   0  0  0  0  0  0  0  0  0  0  0  0
    1.2434   -0.5790    0.0239 C   0  0  0  0  0  0  0  0  0  0  0  0
    5.0312    0.4639    0.0461 C   0  0  0  0  0  0  0  0  0  0  0  0
   -0.0462    0.2405    0.0319 C   0  0  0  0  0  0  0  0  0  0  0  0
    6.3196   -0.3540   -0.0556 C   0  0  0  0  0  0  0  0  0  0  0  0
   -1.2791   -0.6519    0.0116 C   0  0  0  0  0  0  0  0  0  0  0  0
    7.5461    0.5430   -0.1064 C   0  0  0  0  0  0  0  0  0  0  0  0
   -3.6378   -0.4870   -0.0134 C   0  0  0  0  0  0  0  0  0  0  0  0
   -4.7557    0.4974   -0.0196 C   0  0  0  0  0  0  0  0  0  0  0  0
   -4.4687    1.9676   -0.0053 C   0  0  0  0  0  0  0  0  0  0  0  0
   -6.0048    0.0098   -0.0383 C   0  0  0  0  0  0  0  0  0  0  0  0
  1  9  1  0
  1 11  1  0
  2 11  2  0
  3  4  1  0
  3  5  1  0
  4  6  1  0
  5  7  1  0
  6  8  1  0
  7  9  1  0
  8 10  1  0
 11 12  1  0
 12 13  1  0
 12 14  2  0
M  END
>  <PUBCHEM_COMPOUND_CID>  (1) 
16542

>  <PUBCHEM_CONFORMER_RMSD>  (1) 
1

>  <PUBCHEM_CONFORMER_DIVERSEORDER>  (1) 
1
100
35
373
38
518
568
90
314
93
19
65
272
95
2
593
201
31
171
185
26
282
43
62
70
426
3
520
566
269
17
13
79
33
415
117
208
77
96
411
121
28
122
169
576
8
56
527
4
48
25
443
7
381
547
221
346
280
54
114
5
533
483
175
376
595
84
384
401
345
163
207
441
235
341
459
388
177
68
420

>  <PUBCHEM_MMFF94_PARTIAL_CHARGES>  (1) 
9
1 -0.43
11 0.71
12 -0.12
13 0.14
14 -0.3
2 -0.57
35 0.15
36 0.15
9 0.28

>  <PUBCHEM_EFFECTIVE_ROTOR_COUNT>  (1) 
9

>  <PUBCHEM_PHARMACOPHORE_FEATURES>  (1) 
4
1 10 hydrophobe
1 2 acceptor
3 3 5 7 hydrophobe
3 4 6 8 hydrophobe

>  <PUBCHEM_HEAVY_ATOM_COUNT>  (1) 
14

>  <PUBCHEM_ATOM_DEF_STEREO_COUNT>  (1) 
0

>  <PUBCHEM_ATOM_UDEF_STEREO_COUNT>  (1) 
0

>  <PUBCHEM_BOND_DEF_STEREO_COUNT>  (1) 
0

>  <PUBCHEM_BOND_UDEF_STEREO_COUNT>  (1) 
0

>  <PUBCHEM_ISOTOPIC_ATOM_COUNT>  (1) 
0

>  <PUBCHEM_COMPONENT_COUNT>  (1) 
1

>  <PUBCHEM_CACTVS_TAUTO_COUNT>  (1) 
1

>  <PUBCHEM_CONFORMER_ID>  (1) 
0000409E00000001

>  <PUBCHEM_MMFF94_ENERGY>  (1) 
8.1018

>  <PUBCHEM_FEATURE_SELFOVERLAP>  (1) 
20.31

>  <PUBCHEM_SHAPE_FINGERPRINT>  (1) 
11315181 36 18187086170022762953
12091667 2 18410293626929742403
13533116 47 18201154348576350634
14251752 14 18341330011947776840
14251764 18 18187363233445627042
14251764 46 17312822684239788715
14729087 3 18409443665829256228
15048467 5 18335138674334672844
15242439 84 17917709110508431715
15501527 16 18411983546405499209
15716309 27 8358255943214108752
17834072 8 17775283867794330256
17834076 25 17822010913004230690
19489759 90 18412825785350245409
20281389 69 18260827086060934372
20621476 66 18334862688204983589
20621476 8 17968094184260715358
20645477 56 18412544297931666441
20645477 70 16988289659559438558
21130983 4 17748830731059669668
220451 1 17458343044377074882
22224240 67 15068341237603686520
23402539 116 18412259553820309486
23521765 1 18341895194651221634
23536379 177 18408040698056447762
23559900 14 18201432618863341344
300161 21 18113612374310596250
33684 2 18411417306728727162
3545911 37 18343302561198080467
42788 4 18411136939716344368
441001 317 18273215261969643401
4463277 17 18410292519513995180
8209 1 18410855464423129110

>  <PUBCHEM_SHAPE_MULTIPOLES>  (1) 
276.37
19.37
1.21
0.61
20.07
0.22
0
3.32
-0.6
-1.64
-0.01
0.05
0.01
-0.03

>  <PUBCHEM_SHAPE_SELFOVERLAP>  (1) 
510.397

>  <PUBCHEM_SHAPE_VOLUME>  (1) 
174.6

>  <PUBCHEM_COORDINATE_TYPE>  (1) 
2
5
10

$$$$
