16545
     RDKit          3D

 13 14  0  0  0  0  0  0  0  0999 V2000
    2.9125   -0.0018    0.0565 N   0  0  0  0  0  0  0  0  0  0  0  0
    0.7897   -1.1277    0.0055 N   0  0  0  0  0  0  0  0  0  0  0  0
    0.8400    1.1429    0.0540 N   0  0  0  0  0  0  0  0  0  0  0  0
    1.5449    0.0385    0.0395 C   0  0  0  0  0  0  0  0  0  0  0  0
   -0.4493   -0.7255   -0.0014 C   0  0  0  0  0  0  0  0  0  0  0  0
   -0.4739    0.7390    0.0288 C   0  0  0  0  0  0  0  0  0  0  0  0
   -1.6177   -1.6111   -0.0328 C   0  0  0  0  0  0  0  0  0  0  0  0
   -1.5170    1.5713    0.0323 C   0  0  0  0  0  0  0  0  0  0  0  0
    3.6142   -1.2674    0.0384 C   0  0  0  0  0  0  0  0  0  0  0  0
    3.6896    1.1997   -0.1609 C   0  0  0  0  0  0  0  0  0  0  0  0
   -2.9064   -1.2585   -0.0414 C   0  0  0  0  0  0  0  0  0  0  0  0
   -2.9195    1.2508    0.0064 C   0  0  0  0  0  0  0  0  0  0  0  0
   -3.5070    0.0497   -0.0248 C   0  0  0  0  0  0  0  0  0  0  0  0
  1  4  1  0
  1  9  1  0
  1 10  1  0
  2  4  2  0
  2  5  1  0
  3  4  1  0
  3  6  2  0
  5  6  1  0
  5  7  2  0
  6  8  1  0
  7 11  1  0
  8 12  2  0
 11 13  2  0
 12 13  1  0
M  END
>  <PUBCHEM_COMPOUND_CID>  (1) 
16545

>  <PUBCHEM_CONFORMER_RMSD>  (1) 
0.4

>  <PUBCHEM_CONFORMER_DIVERSEORDER>  (1) 
1
2

>  <PUBCHEM_MMFF94_PARTIAL_CHARGES>  (1) 
18
1 -0.79
10 0.37
11 -0.15
12 -0.15
13 -0.15
14 0.15
15 0.15
2 -0.66
22 0.15
23 0.15
24 0.15
3 -0.62
4 0.71
5 0.42
6 0.19
7 -0.14
8 -0.15
9 0.37

>  <PUBCHEM_EFFECTIVE_ROTOR_COUNT>  (1) 
1

>  <PUBCHEM_PHARMACOPHORE_FEATURES>  (1) 
4
1 2 acceptor
4 1 2 3 4 cation
5 2 3 4 5 6 rings
7 5 6 7 8 11 12 13 rings

>  <PUBCHEM_HEAVY_ATOM_COUNT>  (1) 
13

>  <PUBCHEM_ATOM_DEF_STEREO_COUNT>  (1) 
0

>  <PUBCHEM_ATOM_UDEF_STEREO_COUNT>  (1) 
0

>  <PUBCHEM_BOND_DEF_STEREO_COUNT>  (1) 
0

>  <PUBCHEM_BOND_UDEF_STEREO_COUNT>  (1) 
0

>  <PUBCHEM_ISOTOPIC_ATOM_COUNT>  (1) 
0

>  <PUBCHEM_COMPONENT_COUNT>  (1) 
1

>  <PUBCHEM_CACTVS_TAUTO_COUNT>  (1) 
1

>  <PUBCHEM_CONFORMER_ID>  (1) 
000040A100000001

>  <PUBCHEM_MMFF94_ENERGY>  (1) 
41.6327

>  <PUBCHEM_FEATURE_SELFOVERLAP>  (1) 
20.335

>  <PUBCHEM_SHAPE_FINGERPRINT>  (1) 
10608611 8 18412259532366883568
11132069 177 18410848854558300408
11769659 78 18410568496299512262
12032990 46 18411423899055270026
12932764 1 17489018366229391398
13380535 76 18341048510837687735
14144814 61 18409729560284668330
14325111 11 18410575071931359208
15196674 1 18410573985489048263
15219456 202 18130512941929567166
15442244 35 18337671893617340210
15536298 74 18413108360128662574
15669948 3 18342170115624240606
15775835 57 18335986376593805633
16945 1 18411415107578812625
18186145 218 17749104487378827494
20510252 161 18343866606352585257
20871998 184 18201442518910872383
21267235 1 18410019818459371922
21501502 16 18411418410308442918
23402539 116 18201147815788097103
23402655 69 18269822139738954549
23463225 33 18336544924168877130
23552423 10 18188771772228231734
23559900 14 18342736291794069536
2748010 2 18051406563735081141
3312278 4 18336267950043651235
5104073 3 18410575084668367650
57096353 35 18336828713953495926
6333449 129 18413386536196015005
69090 78 18343577430546868407
8809292 202 18334581260699825219
9709674 26 18411986862279163446

>  <PUBCHEM_SHAPE_MULTIPOLES>  (1) 
252.59
6.38
1.76
0.6
3.11
0.05
0
0
0.13
-0.33
0.01
-0.02
0
-0.1

>  <PUBCHEM_SHAPE_SELFOVERLAP>  (1) 
537.556

>  <PUBCHEM_SHAPE_VOLUME>  (1) 
138.5

>  <PUBCHEM_COORDINATE_TYPE>  (1) 
2
5
10

$$$$
