16544
     RDKit          3D

 10 10  0  0  0  0  0  0  0  0999 V2000
   -2.5277   -1.1941   -0.0005 O   0  0  0  0  0  0  0  0  0  0  0  0
   -1.4484    1.9095   -0.6261 O   0  0  0  0  0  0  0  0  0  0  0  0
   -0.4164   -0.0902    0.1760 C   0  0  0  0  0  0  0  0  0  0  0  0
    0.4871    0.7181    1.1347 C   0  0  0  0  0  0  0  0  0  0  0  0
    0.3173   -1.3890   -0.2450 C   0  0  0  0  0  0  0  0  0  0  0  0
   -1.7248   -0.4583    0.8977 C   0  0  0  0  0  0  0  0  0  0  0  0
   -0.7761    0.7504   -1.0665 C   0  0  0  0  0  0  0  0  0  0  0  0
    1.8609    1.0430    0.5361 C   0  0  0  0  0  0  0  0  0  0  0  0
    1.7691   -1.1927   -0.5749 C   0  0  0  0  0  0  0  0  0  0  0  0
    2.4589   -0.0967   -0.2316 C   0  0  0  0  0  0  0  0  0  0  0  0
  1  6  1  0
  2  7  1  0
  3  4  1  0
  3  5  1  0
  3  6  1  0
  3  7  1  0
  4  8  1  0
  5  9  1  0
  8 10  1  0
  9 10  2  0
M  END
>  <PUBCHEM_COMPOUND_CID>  (1) 
16544

>  <PUBCHEM_CONFORMER_RMSD>  (1) 
0.6

>  <PUBCHEM_CONFORMER_DIVERSEORDER>  (1) 
2
3
4
6
5
1

>  <PUBCHEM_MMFF94_PARTIAL_CHARGES>  (1) 
12
1 -0.68
10 -0.29
2 -0.68
21 0.15
22 0.15
23 0.4
24 0.4
5 0.14
6 0.28
7 0.28
8 0.14
9 -0.29

>  <PUBCHEM_EFFECTIVE_ROTOR_COUNT>  (1) 
2.8

>  <PUBCHEM_PHARMACOPHORE_FEATURES>  (1) 
5
1 1 acceptor
1 1 donor
1 2 acceptor
1 2 donor
6 3 4 5 8 9 10 rings

>  <PUBCHEM_HEAVY_ATOM_COUNT>  (1) 
10

>  <PUBCHEM_ATOM_DEF_STEREO_COUNT>  (1) 
0

>  <PUBCHEM_ATOM_UDEF_STEREO_COUNT>  (1) 
0

>  <PUBCHEM_BOND_DEF_STEREO_COUNT>  (1) 
0

>  <PUBCHEM_BOND_UDEF_STEREO_COUNT>  (1) 
0

>  <PUBCHEM_ISOTOPIC_ATOM_COUNT>  (1) 
0

>  <PUBCHEM_COMPONENT_COUNT>  (1) 
1

>  <PUBCHEM_CACTVS_TAUTO_COUNT>  (1) 
1

>  <PUBCHEM_CONFORMER_ID>  (1) 
000040A000000002

>  <PUBCHEM_MMFF94_ENERGY>  (1) 
20.3472

>  <PUBCHEM_FEATURE_SELFOVERLAP>  (1) 
25.372

>  <PUBCHEM_SHAPE_FINGERPRINT>  (1) 
10219947 1 18192153913340784075
12138202 97 18042958788049282077
12423570 1 16895697938780306570
12897270 3 18335421274513628990
137420 1 15617570445140073594
15310529 11 18113901567876099330
16945 1 18338244867745004914
20711978 78 17418100905519685414
21040471 1 17826222991378465996
21922407 69 15791725283055934892
21930827 45 18189887617754063825
23235685 24 17845371218826535256
241688 4 18051965111094095906
2748010 2 18271243816272395566
29004967 10 17988646272407236842
5084963 1 18410579495921643538

>  <PUBCHEM_SHAPE_MULTIPOLES>  (1) 
194.06
3
1.59
1.05
0.06
0.12
0.02
-0.41
0
-0.19
-0.22
-0.18
0.24
0.56

>  <PUBCHEM_SHAPE_SELFOVERLAP>  (1) 
384.369

>  <PUBCHEM_SHAPE_VOLUME>  (1) 
113.7

>  <PUBCHEM_COORDINATE_TYPE>  (1) 
2
5
10

$$$$
