16551
     RDKit          3D

  8  7  0  0  0  0  0  0  0  0999 V2000
    4.4420   -0.6595   -0.1909 Cl  0  0  0  0  0  0  0  0  0  0  0  0
   -3.6818   -1.2740    0.3111 Cl  0  0  0  0  0  0  0  0  0  0  0  0
    0.5268    0.6297    0.2347 C   0  0  0  0  0  0  0  0  0  0  0  0
   -0.7852   -0.0117   -0.2262 C   0  0  0  0  0  0  0  0  0  0  0  0
    1.7311   -0.2347   -0.1506 C   0  0  0  0  0  0  0  0  0  0  0  0
   -1.9858    0.8745    0.1189 C   0  0  0  0  0  0  0  0  0  0  0  0
    3.0650    0.3573    0.2929 C   0  0  0  0  0  0  0  0  0  0  0  0
   -3.3120    0.3183   -0.3898 C   0  0  0  0  0  0  0  0  0  0  0  0
  1  7  1  0
  2  8  1  0
  3  4  1  0
  3  5  1  0
  4  6  1  0
  5  7  1  0
  6  8  1  0
M  END
>  <PUBCHEM_COMPOUND_CID>  (1) 
16551

>  <PUBCHEM_CONFORMER_RMSD>  (1) 
0.6

>  <PUBCHEM_CONFORMER_DIVERSEORDER>  (1) 
2
31
20
4
34
22
39
1
11
3
48
45
28
37
21
24
29
12
5
35
23
27
36
44
32
30
40
49
25
33
15
42
10
18
13
26
47
46
38
41
19
7
14
43
9
17
8
6
16

>  <PUBCHEM_MMFF94_PARTIAL_CHARGES>  (1) 
4
1 -0.29
2 -0.29
7 0.29
8 0.29

>  <PUBCHEM_EFFECTIVE_ROTOR_COUNT>  (1) 
5

>  <PUBCHEM_PHARMACOPHORE_FEATURES>  (1) 
1
4 3 4 5 6 hydrophobe

>  <PUBCHEM_HEAVY_ATOM_COUNT>  (1) 
8

>  <PUBCHEM_ATOM_DEF_STEREO_COUNT>  (1) 
0

>  <PUBCHEM_ATOM_UDEF_STEREO_COUNT>  (1) 
0

>  <PUBCHEM_BOND_DEF_STEREO_COUNT>  (1) 
0

>  <PUBCHEM_BOND_UDEF_STEREO_COUNT>  (1) 
0

>  <PUBCHEM_ISOTOPIC_ATOM_COUNT>  (1) 
0

>  <PUBCHEM_COMPONENT_COUNT>  (1) 
1

>  <PUBCHEM_CACTVS_TAUTO_COUNT>  (1) 
1

>  <PUBCHEM_CONFORMER_ID>  (1) 
000040A700000002

>  <PUBCHEM_MMFF94_ENERGY>  (1) 
-0.1276

>  <PUBCHEM_FEATURE_SELFOVERLAP>  (1) 
5.074

>  <PUBCHEM_SHAPE_FINGERPRINT>  (1) 
11062470 55 8646767802847965700
11987891 38 18410294675244868298
12032990 46 18342741814557542230
12932764 1 16271916091281232272
14325111 11 18410854356353319176
177051 138 18409730685560889930
190213 19 18413105056882210484
20211469 26 18411416228612756167
20719005 15 18412825785355546030
20767249 213 11887957644814152059
20828058 44 18413952780120424499
21293036 1 14273736269788888955
22485316 2 18187359913615157746
23402539 116 16877937226851315102

>  <PUBCHEM_SHAPE_MULTIPOLES>  (1) 
168.38
8.51
1.08
0.69
3.54
0.19
0
2.7
0.15
-0.67
-0.07
-0.05
0.01
0.34

>  <PUBCHEM_SHAPE_SELFOVERLAP>  (1) 
277.11

>  <PUBCHEM_SHAPE_VOLUME>  (1) 
115.5

>  <PUBCHEM_COORDINATE_TYPE>  (1) 
2
5
10

$$$$
