16563
     RDKit          3D

 14 15  0  0  1  0  0  0  0  0999 V2000
    3.3818   -2.1765   -0.1222 Cl  0  0  0  0  0  0  0  0  0  0  0  0
    4.1426    0.9491    0.2186 Cl  0  0  0  0  0  0  0  0  0  0  0  0
   -1.4611   -0.8090   -0.1748 O   0  0  0  0  0  0  0  0  0  0  0  0
   -0.7803    1.9823    0.0461 O   0  0  0  0  0  0  0  0  0  0  0  0
   -4.0506   -1.5239    0.4540 O   0  0  0  0  0  0  0  0  0  0  0  0
   -2.4024    0.1919    0.2365 C   0  0  0  0  0  0  0  0  0  0  0  0
   -2.0546    1.5232   -0.4161 C   0  0  0  0  0  0  0  0  0  0  0  0
   -0.1677   -0.3640   -0.0973 C   0  0  0  0  0  0  0  0  0  0  0  0
   -3.7895   -0.2804   -0.1738 C   0  0  0  0  0  0  0  0  0  0  0  0
    0.1618    0.9880    0.0209 C   0  0  0  0  0  0  0  0  0  0  0  0
    0.8404   -1.3269   -0.1519 C   0  0  0  0  0  0  0  0  0  0  0  0
    1.4979    1.3746    0.1292 C   0  0  0  0  0  0  0  0  0  0  0  0
    2.1769   -0.9383   -0.0575 C   0  0  0  0  0  0  0  0  0  0  0  0
    2.5048    0.4099    0.0884 C   0  0  0  0  0  0  0  0  0  0  0  0
  1 13  1  0
  2 14  1  0
  3  6  1  0
  3  8  1  0
  4  7  1  0
  4 10  1  0
  5  9  1  0
  6  7  1  0
  6  9  1  0
  8 10  2  0
  8 11  1  0
 10 12  1  0
 11 13  2  0
 12 14  2  0
 13 14  1  0
M  END
>  <PUBCHEM_COMPOUND_CID>  (1) 
16563

>  <PUBCHEM_CONFORMER_RMSD>  (1) 
0.6

>  <PUBCHEM_CONFORMER_DIVERSEORDER>  (1) 
1
2
3

>  <PUBCHEM_MMFF94_PARTIAL_CHARGES>  (1) 
17
1 -0.18
10 0.08
11 -0.15
12 -0.15
13 0.18
14 0.18
2 -0.18
20 0.15
21 0.15
22 0.4
3 -0.36
4 -0.36
5 -0.68
6 0.28
7 0.28
8 0.08
9 0.28

>  <PUBCHEM_EFFECTIVE_ROTOR_COUNT>  (1) 
1.8

>  <PUBCHEM_PHARMACOPHORE_FEATURES>  (1) 
6
1 3 acceptor
1 4 acceptor
1 5 acceptor
1 5 donor
6 3 4 6 7 8 10 rings
6 8 10 11 12 13 14 rings

>  <PUBCHEM_HEAVY_ATOM_COUNT>  (1) 
14

>  <PUBCHEM_ATOM_DEF_STEREO_COUNT>  (1) 
0

>  <PUBCHEM_ATOM_UDEF_STEREO_COUNT>  (1) 
1

>  <PUBCHEM_BOND_DEF_STEREO_COUNT>  (1) 
0

>  <PUBCHEM_BOND_UDEF_STEREO_COUNT>  (1) 
0

>  <PUBCHEM_ISOTOPIC_ATOM_COUNT>  (1) 
0

>  <PUBCHEM_COMPONENT_COUNT>  (1) 
1

>  <PUBCHEM_CACTVS_TAUTO_COUNT>  (1) 
1

>  <PUBCHEM_CONFORMER_ID>  (1) 
000040B300000001

>  <PUBCHEM_MMFF94_ENERGY>  (1) 
39.431

>  <PUBCHEM_FEATURE_SELFOVERLAP>  (1) 
30.493

>  <PUBCHEM_SHAPE_FINGERPRINT>  (1) 
10608611 8 18338230458235520708
10618630 7 18409731746544295759
10967382 1 18411417353830890654
11132069 177 18342170128387459347
11471102 20 18411694374847433229
11543360 7 15864367855823989911
11769659 78 18336825290743286610
11806522 49 18337107964116112671
12032990 46 18410578361770838927
12932764 1 17387131962111551492
13140716 1 17979910841661353808
13296908 3 18409728417797039182
13380535 76 18336826489508712674
14144814 61 18412825767822203586
14252887 29 18410018766234342451
14325111 11 18411135792891770908
14576447 43 18057307595418269087
15196674 1 18411136900750415333
15219456 202 18410852118722908780
15375462 6 18410573968145785366
15536298 74 18343300336710976198
16945 1 18340759442348066260
17844478 74 18334017189902104365
18186145 218 17822571603499055175
200 152 18059563703394913989
20201158 50 18335420192318935947
20510252 161 18343582914982962697
20588541 1 18337674229726108378
20645477 70 18341887455447624615
20871998 22 18410862061719729607
21267235 1 18411708660204415966
21501502 16 18339929194999528856
21501925 9 18338224978052189610
221490 88 18337959995686819218
2334 1 18411697647749714636
23402539 116 18187353376463878255
23402655 69 18342165649359283053
23463225 33 18410856551092098572
23552423 10 18261395486163901780
23557571 272 17458335351842721685
23559900 14 18194955241641169098
25610 137 18411420617710844381
2748010 2 18339635625584719436
2871803 45 18333726905942292327
5104073 3 18339923723047430465
53812653 166 18201431536784920072
5493415 88 18267861692572126482
7364860 26 18343580716708377190
8809292 202 18261681367819639603
9709674 26 18335424577375400906

>  <PUBCHEM_SHAPE_MULTIPOLES>  (1) 
274.25
6.82
2.05
0.64
1.4
0.21
0
1.81
0.42
-0.72
-0.02
0.02
0
0.42

>  <PUBCHEM_SHAPE_SELFOVERLAP>  (1) 
567.446

>  <PUBCHEM_SHAPE_VOLUME>  (1) 
158.8

>  <PUBCHEM_COORDINATE_TYPE>  (1) 
2
5
10

$$$$
