16572
     RDKit          3D

 19 19  0  0  0  0  0  0  0  0999 V2000
   -0.4583    1.9411   -0.3734 O   0  0  0  0  0  0  0  0  0  0  0  0
    6.2406    0.3813    0.0189 O   0  0  0  0  0  0  0  0  0  0  0  0
    5.6884   -1.6363    0.6846 O   0  0  0  0  0  0  0  0  0  0  0  0
   -4.5647   -0.0447    0.0808 N   0  0  0  0  0  0  0  0  0  0  0  0
   -0.9399   -0.3005   -0.7261 N   0  0  0  0  0  0  0  0  0  0  0  0
    5.3766   -0.4920    0.2748 N   0  0  0  0  0  0  0  0  0  0  0  0
   -3.1382   -0.2409    0.3369 C   0  0  0  0  0  0  0  0  0  0  0  0
   -5.3213   -0.1049    1.3308 C   0  0  0  0  0  0  0  0  0  0  0  0
   -5.0570   -1.0469   -0.8635 C   0  0  0  0  0  0  0  0  0  0  0  0
   -2.3490   -0.1383   -0.9600 C   0  0  0  0  0  0  0  0  0  0  0  0
   -4.8228    0.9305    2.3247 C   0  0  0  0  0  0  0  0  0  0  0  0
   -6.5239   -0.8210   -1.1886 C   0  0  0  0  0  0  0  0  0  0  0  0
   -0.0974    0.7694   -0.4477 C   0  0  0  0  0  0  0  0  0  0  0  0
    1.3382    0.4387   -0.2565 C   0  0  0  0  0  0  0  0  0  0  0  0
    2.2860    1.4009   -0.5369 C   0  0  0  0  0  0  0  0  0  0  0  0
    1.6780   -0.8203    0.1937 C   0  0  0  0  0  0  0  0  0  0  0  0
    3.6342    1.0902   -0.3590 C   0  0  0  0  0  0  0  0  0  0  0  0
    3.0261   -1.1308    0.3717 C   0  0  0  0  0  0  0  0  0  0  0  0
    4.0043   -0.1756    0.0952 C   0  0  0  0  0  0  0  0  0  0  0  0
  1 13  2  0
  2  6  1  0
  3  6  2  0
  4  7  1  0
  4  8  1  0
  4  9  1  0
  5 10  1  0
  5 13  1  0
  6 19  1  0
  7 10  1  0
  8 11  1  0
  9 12  1  0
 13 14  1  0
 14 15  2  0
 14 16  1  0
 15 17  1  0
 16 18  2  0
 17 19  2  0
 18 19  1  0
M  CHG  2   2  -1   6   1
M  END
>  <PUBCHEM_COMPOUND_CID>  (1) 
16572

>  <PUBCHEM_CONFORMER_RMSD>  (1) 
0.8

>  <PUBCHEM_CONFORMER_DIVERSEORDER>  (1) 
2
19
17
7
12
13
16
23
9
26
1
11
21
10
24
5
4
25
8
18
6
22
20
3
15
14

>  <PUBCHEM_MMFF94_PARTIAL_CHARGES>  (1) 
22
1 -0.57
10 0.3
13 0.54
14 0.09
15 -0.15
16 -0.15
17 -0.15
18 -0.15
19 0.13
2 -0.52
3 -0.52
34 0.37
35 0.15
36 0.15
37 0.15
38 0.15
4 -0.81
5 -0.73
6 0.91
7 0.27
8 0.27
9 0.27

>  <PUBCHEM_EFFECTIVE_ROTOR_COUNT>  (1) 
8

>  <PUBCHEM_PHARMACOPHORE_FEATURES>  (1) 
7
1 1 acceptor
1 2 acceptor
1 2 anion
1 3 acceptor
1 4 cation
1 5 donor
6 14 15 16 17 18 19 rings

>  <PUBCHEM_HEAVY_ATOM_COUNT>  (1) 
19

>  <PUBCHEM_ATOM_DEF_STEREO_COUNT>  (1) 
0

>  <PUBCHEM_ATOM_UDEF_STEREO_COUNT>  (1) 
0

>  <PUBCHEM_BOND_DEF_STEREO_COUNT>  (1) 
0

>  <PUBCHEM_BOND_UDEF_STEREO_COUNT>  (1) 
0

>  <PUBCHEM_ISOTOPIC_ATOM_COUNT>  (1) 
0

>  <PUBCHEM_COMPONENT_COUNT>  (1) 
1

>  <PUBCHEM_CACTVS_TAUTO_COUNT>  (1) 
2

>  <PUBCHEM_CONFORMER_ID>  (1) 
000040BC00000002

>  <PUBCHEM_MMFF94_ENERGY>  (1) 
42.8737

>  <PUBCHEM_FEATURE_SELFOVERLAP>  (1) 
35.602

>  <PUBCHEM_SHAPE_FINGERPRINT>  (1) 
10 15 14907887293854521442
10912923 1 18201725093351620749
11089746 13 17632855330608412265
11287383 113 15574720222100261772
11315181 36 18131069372771245435
11796584 16 15647050464798910480
12107183 9 17412199655152739467
12236239 1 18131351912071650995
12507557 5 14764348249924121171
12596602 18 17775564260339185923
13403585 85 16343701036943244507
13862211 1 18334851706363958870
1420 363 17095528387306931530
14251731 8 15936127469731732851
14251764 18 18202566206598145517
14386348 63 17022904562424791867
14455015 7 17603590720190453400
15188451 53 17346025775742393495
15242439 84 16660358195420148629
17844677 252 17821733844780439637
19489759 90 17060340726011726387
200 152 18334572434441545084
20281389 69 14333405653553387594
20645477 70 18114170922313091775
21267235 1 18334859369329419890
21623969 137 17894922827440219819
22224240 67 18201993353093964626
23402539 116 18131348609964675373
23522609 53 18197243458161394772
23559900 14 16008748043624453101
26918003 58 17894631465422023209
2838139 119 10735876157999993882
2871803 45 17676199156916953858
2916195 48 14836400333049554955
465052 167 18409730681456125958
5104073 3 18270964664503837971
59682541 35 18337662123147134136
59755656 520 11095880480249790549

>  <PUBCHEM_SHAPE_MULTIPOLES>  (1) 
358.46
16.22
1.38
1.27
3.38
0.23
-0.38
-3.48
-3.34
0.57
-0.1
1.26
0.29
-2.46

>  <PUBCHEM_SHAPE_SELFOVERLAP>  (1) 
726.859

>  <PUBCHEM_SHAPE_VOLUME>  (1) 
210.6

>  <PUBCHEM_COORDINATE_TYPE>  (1) 
2
5
10

$$$$
