16589
     RDKit          3D

 17 17  0  0  0  0  0  0  0  0999 V2000
    3.3138   -0.0409   -0.2157 S   0  0  0  0  0  0  0  0  0  0  0  0
   -2.4741   -0.0157    0.9575 O   0  0  0  0  0  0  0  0  0  0  0  0
    3.9755    0.7353    0.8196 O   0  0  0  0  0  0  0  0  0  0  0  0
    3.7273   -1.4098   -0.4777 O   0  0  0  0  0  0  0  0  0  0  0  0
   -2.8911    0.0357   -1.3294 O   0  0  0  0  0  0  0  0  0  0  0  0
   -4.6383    0.0174    0.1969 N   0  0  0  0  0  0  0  0  0  0  0  0
    1.5940   -0.0333    0.1324 C   0  0  0  0  0  0  0  0  0  0  0  0
    0.9204    1.1773    0.2950 C   0  0  0  0  0  0  0  0  0  0  0  0
    0.9004   -1.2382    0.2470 C   0  0  0  0  0  0  0  0  0  0  0  0
   -0.4466    1.1833    0.5722 C   0  0  0  0  0  0  0  0  0  0  0  0
   -0.4667   -1.2321    0.5242 C   0  0  0  0  0  0  0  0  0  0  0  0
   -1.1401   -0.0214    0.6868 C   0  0  0  0  0  0  0  0  0  0  0  0
    1.6300    2.4872    0.1794 C   0  0  0  0  0  0  0  0  0  0  0  0
    1.5878   -2.5542    0.0801 C   0  0  0  0  0  0  0  0  0  0  0  0
    3.4496    0.8501   -1.7465 C   0  0  0  0  0  0  0  0  0  0  0  0
   -3.3098    0.0139   -0.1757 C   0  0  0  0  0  0  0  0  0  0  0  0
   -5.7320    0.0453   -0.7462 C   0  0  0  0  0  0  0  0  0  0  0  0
  1  3  2  0
  1  4  2  0
  1  7  1  0
  1 15  1  0
  2 12  1  0
  2 16  1  0
  5 16  2  0
  6 16  1  0
  6 17  1  0
  7  8  2  0
  7  9  1  0
  8 10  1  0
  8 13  1  0
  9 11  2  0
  9 14  1  0
 10 12  2  0
 11 12  1  0
M  END
>  <PUBCHEM_COMPOUND_CID>  (1) 
16589

>  <PUBCHEM_CONFORMER_RMSD>  (1) 
0.6

>  <PUBCHEM_CONFORMER_DIVERSEORDER>  (1) 
1
29
10
18
33
22
19
15
24
12
4
21
26
20
34
13
32
25
17
5
30
9
23
16
14
11
27
7
28
31
6
3
8
2

>  <PUBCHEM_MMFF94_PARTIAL_CHARGES>  (1) 
20
1 1.2
10 -0.15
11 -0.15
12 0.08
13 0.14
14 0.14
15 0.11
16 0.78
17 0.3
18 0.15
19 0.15
2 -0.23
29 0.37
3 -0.65
4 -0.65
5 -0.57
6 -0.73
7 -0.01
8 -0.14
9 -0.14

>  <PUBCHEM_EFFECTIVE_ROTOR_COUNT>  (1) 
4

>  <PUBCHEM_PHARMACOPHORE_FEATURES>  (1) 
5
1 3 acceptor
1 4 acceptor
1 5 acceptor
1 6 donor
6 7 8 9 10 11 12 rings

>  <PUBCHEM_HEAVY_ATOM_COUNT>  (1) 
17

>  <PUBCHEM_ATOM_DEF_STEREO_COUNT>  (1) 
0

>  <PUBCHEM_ATOM_UDEF_STEREO_COUNT>  (1) 
0

>  <PUBCHEM_BOND_DEF_STEREO_COUNT>  (1) 
0

>  <PUBCHEM_BOND_UDEF_STEREO_COUNT>  (1) 
0

>  <PUBCHEM_ISOTOPIC_ATOM_COUNT>  (1) 
0

>  <PUBCHEM_COMPONENT_COUNT>  (1) 
1

>  <PUBCHEM_CACTVS_TAUTO_COUNT>  (1) 
2

>  <PUBCHEM_CONFORMER_ID>  (1) 
000040CD00000001

>  <PUBCHEM_MMFF94_ENERGY>  (1) 
51.0084

>  <PUBCHEM_FEATURE_SELFOVERLAP>  (1) 
25.389

>  <PUBCHEM_SHAPE_FINGERPRINT>  (1) 
11401426 45 18341607135489698424
11471102 20 18410292510311890641
11806522 49 18202561791329489425
12236239 1 17704072889678875137
12616999 72 18335140886295688255
12730499 353 18187087261081710483
13140716 1 18266457805112301768
13760787 5 18336845116322809680
13836976 161 18411979187193217591
14251717 144 18412263930323470562
14576447 43 18201709678946247127
14911166 2 18410863174126821788
14993402 34 18202007628895031854
15848700 24 18272091578466190308
16945 1 18339655507004053016
18186145 218 18341615965990132913
200 152 18131349709375901057
20645476 183 17605853627443921078
20645477 70 18343864390191736263
21501502 16 18122631552313385608
21637258 2 15769499712283743228
221357 26 18337380553581357613
221490 88 18266463294402752787
22289505 5 18262226717223825045
22713019 99 18201166489942032950
2334 1 17907022029522446280
23402539 116 18201157638082845126
23402655 69 18410849933317732685
23419403 2 17320371837019335096
23557571 272 14261367841928960905
23559900 14 18197518388504193596
23598291 2 17843416085194122891
25 1 18334294283743050339
2748010 2 18050578635679387904
2871803 45 18411700945936392863
29717793 49 17346595284163726909
3060560 45 18341609330350037406
3071541 37 18334017181101316162
4047638 21 16588027917734196356
4072396 5 18262221266794067626
42630746 31 18272644688174770064
4990 188 18131355228139799117
537710 114 18410298003685890440

>  <PUBCHEM_SHAPE_MULTIPOLES>  (1) 
325.24
8.67
1.93
1.07
10.99
0.26
-0.35
-0.45
-2.77
-1.9
0.15
-0.21
-0.2
0.01

>  <PUBCHEM_SHAPE_SELFOVERLAP>  (1) 
661.088

>  <PUBCHEM_SHAPE_VOLUME>  (1) 
191.3

>  <PUBCHEM_COORDINATE_TYPE>  (1) 
2
5
10

$$$$
