16592
     RDKit          3D

  6  5  0  0  0  0  0  0  0  0999 V2000
    0.6368   -1.0045    0.3901 S   0  0  0  0  0  0  0  0  0  0  0  0
    2.2786   -0.3530   -0.6610 S   0  0  0  0  0  0  0  0  0  0  0  0
   -2.0132   -0.2726    0.3611 C   0  0  0  0  0  0  0  0  0  0  0  0
   -0.6742    0.0489   -0.2931 C   0  0  0  0  0  0  0  0  0  0  0  0
   -3.1218    0.6063   -0.1995 C   0  0  0  0  0  0  0  0  0  0  0  0
    2.8937    0.9749    0.4024 C   0  0  0  0  0  0  0  0  0  0  0  0
  1  2  1  0
  1  4  1  0
  2  6  1  0
  3  4  1  0
  3  5  1  0
M  END
>  <PUBCHEM_COMPOUND_CID>  (1) 
16592

>  <PUBCHEM_CONFORMER_RMSD>  (1) 
0.4

>  <PUBCHEM_CONFORMER_DIVERSEORDER>  (1) 
1
13
15
32
11
16
14
9
30
5
31
26
10
22
18
6
12
8
20
29
25
2
27
7
24
17
28
19
21
4
3
23

>  <PUBCHEM_MMFF94_PARTIAL_CHARGES>  (1) 
4
1 -0.23
2 -0.23
4 0.23
6 0.23

>  <PUBCHEM_EFFECTIVE_ROTOR_COUNT>  (1) 
3

>  <PUBCHEM_PHARMACOPHORE_FEATURES>  (1) 
3
1 5 hydrophobe
1 6 hydrophobe
4 1 2 3 4 hydrophobe

>  <PUBCHEM_HEAVY_ATOM_COUNT>  (1) 
6

>  <PUBCHEM_ATOM_DEF_STEREO_COUNT>  (1) 
0

>  <PUBCHEM_ATOM_UDEF_STEREO_COUNT>  (1) 
0

>  <PUBCHEM_BOND_DEF_STEREO_COUNT>  (1) 
0

>  <PUBCHEM_BOND_UDEF_STEREO_COUNT>  (1) 
0

>  <PUBCHEM_ISOTOPIC_ATOM_COUNT>  (1) 
0

>  <PUBCHEM_COMPONENT_COUNT>  (1) 
1

>  <PUBCHEM_CACTVS_TAUTO_COUNT>  (1) 
1

>  <PUBCHEM_CONFORMER_ID>  (1) 
000040D000000001

>  <PUBCHEM_MMFF94_ENERGY>  (1) 
-4.9927

>  <PUBCHEM_FEATURE_SELFOVERLAP>  (1) 
15.223

>  <PUBCHEM_SHAPE_FINGERPRINT>  (1) 
10857977 72 17603595157123791683
12932741 1 18339938063985714758
14325111 11 18409449201989002410
14390081 3 18409448068275865833
20651381 32 17632298943106276860
20765181 27 18040709234704134493
21293036 1 16773510049051356581
3248919 1 17132119013240312831
5460574 1 10879988043298434567

>  <PUBCHEM_SHAPE_MULTIPOLES>  (1) 
131.18
5.23
1.07
0.82
1.16
0.02
-0.03
-1.77
-0.12
-0.42
0.12
-0.24
0.03
0.34

>  <PUBCHEM_SHAPE_SELFOVERLAP>  (1) 
198.675

>  <PUBCHEM_SHAPE_VOLUME>  (1) 
96.8

>  <PUBCHEM_COORDINATE_TYPE>  (1) 
2
5
10

$$$$
