16598
     RDKit          3D

 23 23  0  0  1  0  0  0  0  0999 V2000
    3.6160    1.2463   -1.8388 Cl  0  0  0  0  0  0  0  0  0  0  0  0
    0.6156   -0.0134    0.3452 O   0  0  0  0  0  0  0  0  0  0  0  0
    0.7750    0.8264   -1.8191 O   0  0  0  0  0  0  0  0  0  0  0  0
   -1.9362   -3.1786    0.6634 O   0  0  0  0  0  0  0  0  0  0  0  0
    0.1210   -2.4126    0.6479 O   0  0  0  0  0  0  0  0  0  0  0  0
   -5.3157    1.9594   -0.1780 O   0  0  0  0  0  0  0  0  0  0  0  0
   -5.6592   -0.1914    0.0961 O   0  0  0  0  0  0  0  0  0  0  0  0
   -1.1175   -2.2337    0.5702 N   0  0  0  0  0  0  0  0  0  0  0  0
   -4.8876    0.7932   -0.0030 N   0  0  0  0  0  0  0  0  0  0  0  0
    3.3238    0.5310    0.8200 C   0  0  0  0  0  0  0  0  0  0  0  0
    2.8142    0.1585   -0.6165 C   0  0  0  0  0  0  0  0  0  0  0  0
    4.8344    0.2459    1.0224 C   0  0  0  0  0  0  0  0  0  0  0  0
    3.1207   -1.2931   -1.0645 C   0  0  0  0  0  0  0  0  0  0  0  0
    3.0023    1.9916    1.1960 C   0  0  0  0  0  0  0  0  0  0  0  0
    1.3005    0.3950   -0.7989 C   0  0  0  0  0  0  0  0  0  0  0  0
    5.3365    0.5689    2.4253 C   0  0  0  0  0  0  0  0  0  0  0  0
    2.7491   -1.6332   -2.5040 C   0  0  0  0  0  0  0  0  0  0  0  0
   -0.7669    0.1689    0.2591 C   0  0  0  0  0  0  0  0  0  0  0  0
   -1.6102   -0.9149    0.3691 C   0  0  0  0  0  0  0  0  0  0  0  0
   -1.2331    1.4519    0.0651 C   0  0  0  0  0  0  0  0  0  0  0  0
   -2.9866   -0.7069    0.2809 C   0  0  0  0  0  0  0  0  0  0  0  0
   -2.6096    1.6600   -0.0229 C   0  0  0  0  0  0  0  0  0  0  0  0
   -3.4863    0.5806    0.0850 C   0  0  0  0  0  0  0  0  0  0  0  0
  1 11  1  0
  2 15  1  0
  2 18  1  0
  3 15  2  0
  4  8  1  0
  5  8  2  0
  6  9  1  0
  7  9  2  0
  8 19  1  0
  9 23  1  0
 10 11  1  0
 10 12  1  0
 10 14  1  0
 11 13  1  0
 11 15  1  0
 12 16  1  0
 13 17  1  0
 18 19  2  0
 18 20  1  0
 19 21  1  0
 20 22  2  0
 21 23  2  0
 22 23  1  0
M  CHG  4   4  -1   6  -1   8   1   9   1
M  END
>  <PUBCHEM_COMPOUND_CID>  (1) 
16598

>  <PUBCHEM_CONFORMER_RMSD>  (1) 
0.8

>  <PUBCHEM_CONFORMER_DIVERSEORDER>  (1) 
1
128
171
212
82
178
196
217
100
38
109
158
201
27
159
218
141
177
137
220
191
135
79
130
91
209
138
161
29
87
175
115
114
222
202
103
111
151
21
75
140
145
154
61
173
46
221
133
181
76
162
129
90
112
97
207
55
182
176
194
101
84
204
134
168
96
200
36
167
58
166
195
187
105
89
203
72
122
155
174
170
179
57
54
99
153
157
74
185
163
120
198
136
41
125
50
131
214
180
20
211
184
156
192
183
193
95
139
213
147
149
94
28
119
165
102
71
18
19
108
152
197
51
142
216
160
86
10
52
164
45
144
47
146
25
9
126
17
24
113
117
59
22
11
219
189
106
2
64
26
206
186
150
127
85
83
8
62
98
208
33
12
80
205
172
121
107
92
123
169
4
63
78
48
35
124
15
215
53
77
118
81
199
66
143
42
110
73
30
70
23
14
6
116
68
43
37
69
34
5
148
210
60
13
44
32
40
67
190
39
49
104
16
7
88
3
56
65
93
31
188
132

>  <PUBCHEM_MMFF94_PARTIAL_CHARGES>  (1) 
20
1 -0.29
11 0.35
15 0.66
18 0.08
19 0.13
2 -0.23
20 -0.15
21 -0.15
22 -0.15
23 0.13
3 -0.57
38 0.15
39 0.15
4 -0.52
40 0.15
5 -0.52
6 -0.52
7 -0.52
8 0.91
9 0.91

>  <PUBCHEM_EFFECTIVE_ROTOR_COUNT>  (1) 
8

>  <PUBCHEM_PHARMACOPHORE_FEATURES>  (1) 
11
1 14 hydrophobe
1 16 hydrophobe
1 17 hydrophobe
1 3 acceptor
1 4 acceptor
1 4 anion
1 5 acceptor
1 6 acceptor
1 6 anion
1 7 acceptor
6 18 19 20 21 22 23 rings

>  <PUBCHEM_HEAVY_ATOM_COUNT>  (1) 
23

>  <PUBCHEM_ATOM_DEF_STEREO_COUNT>  (1) 
0

>  <PUBCHEM_ATOM_UDEF_STEREO_COUNT>  (1) 
2

>  <PUBCHEM_BOND_DEF_STEREO_COUNT>  (1) 
0

>  <PUBCHEM_BOND_UDEF_STEREO_COUNT>  (1) 
0

>  <PUBCHEM_ISOTOPIC_ATOM_COUNT>  (1) 
0

>  <PUBCHEM_COMPONENT_COUNT>  (1) 
1

>  <PUBCHEM_CACTVS_TAUTO_COUNT>  (1) 
1

>  <PUBCHEM_CONFORMER_ID>  (1) 
000040D600000001

>  <PUBCHEM_MMFF94_ENERGY>  (1) 
74.6799

>  <PUBCHEM_FEATURE_SELFOVERLAP>  (1) 
55.987

>  <PUBCHEM_SHAPE_FINGERPRINT>  (1) 
10366900 7 17917727789780267820
12236239 1 17385721400230590944
12403259 327 18338783590283717216
12422481 6 17097199537755019189
12500047 106 18338806705359873534
12553582 1 17545057342581950711
12592029 89 17603872161261061219
12633257 1 18337095852767495304
12670545 47 18130800000521965988
12788726 201 17609231382366508811
13533116 47 17988088776819844382
13544592 145 18341623572419399422
14178342 30 18260264196115885602
15375358 24 18201719582702643872
17980427 23 18265882743789345316
1813 80 15792285978800463530
18186145 218 18267878198084037245
20279233 1 18130793373345035328
20600515 1 18336260227861706164
20645477 70 16702030742558977516
212916 134 18409440384405170411
21618674 25 17917424333108039170
21781051 124 17823159894366633235
21859007 373 17532631473839650244
22149856 69 18267891457639838115
23402539 116 18340757213344500741
23557571 272 18269286813997127418
23559900 14 18341063977368121556
25147074 1 17604431937381350094
2916195 48 18202273706709717145
351380 180 18273489078829702672
4072396 5 17749103353554895145
4340502 62 18341608204952411859
465052 167 16515696537096217649
474 4 14620223235115858744
495365 180 17847061069398465182
5104073 3 18059019376272047491
59554788 281 18259988145492641203
633830 44 18271523092479376765
70251023 43 15840731586095581716
9709674 26 18272096019082767950

>  <PUBCHEM_SHAPE_MULTIPOLES>  (1) 
430.02
10.64
2.33
1.76
5.42
1.33
-0.42
-4.14
2.24
0.62
0.28
-3.12
0.22
1.93

>  <PUBCHEM_SHAPE_SELFOVERLAP>  (1) 
878.418

>  <PUBCHEM_SHAPE_VOLUME>  (1) 
249.4

>  <PUBCHEM_COORDINATE_TYPE>  (1) 
2
5
10

$$$$
