1660
     RDKit          3D

 22 21  0  0  1  0  0  0  0  0999 V2000
   -2.0413    1.8584   -1.7362 O   0  0  0  0  0  0  0  0  0  0  0  0
    1.8506   -3.2866   -1.6249 C   0  0  0  0  0  0  0  0  0  0  0  0
    2.6465   -2.0026   -1.3697 C   0  0  0  0  0  0  0  0  0  0  0  0
    0.4270   -3.3140   -1.0558 C   0  0  0  0  0  0  0  0  0  0  0  0
    2.7903   -1.6571    0.1144 C   0  0  0  0  0  0  0  0  0  0  0  0
   -0.4653   -2.1921   -1.5929 C   0  0  0  0  0  0  0  0  0  0  0  0
    3.6628   -0.4149    0.3076 C   0  0  0  0  0  0  0  0  0  0  0  0
   -1.8847   -2.2158   -1.0160 C   0  0  0  0  0  0  0  0  0  0  0  0
    3.8161    0.0041    1.7733 C   0  0  0  0  0  0  0  0  0  0  0  0
   -1.9900   -2.0265    0.5028 C   0  0  0  0  0  0  0  0  0  0  0  0
    2.5149    0.3268    2.5180 C   0  0  0  0  0  0  0  0  0  0  0  0
   -3.4193   -1.9900    1.0750 C   0  0  0  0  0  0  0  0  0  0  0  0
    1.6496    1.4288    1.8990 C   0  0  0  0  0  0  0  0  0  0  0  0
    0.4004    1.7584    2.7216 C   0  0  0  0  0  0  0  0  0  0  0  0
   -4.2001   -0.8313    0.4494 C   0  0  0  0  0  0  0  0  0  0  0  0
   -3.4343   -1.8603    2.5981 C   0  0  0  0  0  0  0  0  0  0  0  0
   -0.4528    2.8701    2.0994 C   0  0  0  0  0  0  0  0  0  0  0  0
   -0.9665    2.5171    0.7309 C   0  0  0  0  0  0  0  0  0  0  0  0
   -0.6473    3.1972   -0.3821 C   0  0  0  0  0  0  0  0  0  0  0  0
   -1.0997    2.9301   -1.7921 C   0  0  0  0  0  0  0  0  0  0  0  0
   -0.0230    2.5834   -2.7289 C   0  0  0  0  0  0  0  0  0  0  0  0
    0.8658    2.3167   -3.4913 C   0  0  0  0  0  0  0  0  0  0  0  0
  1 20  1  0
  2  3  1  0
  2  4  1  0
  3  5  1  0
  4  6  1  0
  5  7  1  0
  6  8  1  0
  7  9  1  0
  8 10  1  0
  9 11  1  0
 10 12  1  0
 11 13  1  0
 12 15  1  0
 12 16  1  0
 13 14  1  0
 14 17  1  0
 17 18  1  0
 18 19  2  0
 19 20  1  0
 20 21  1  0
 21 22  3  0
M  END
>  <PUBCHEM_COMPOUND_CID>  (1) 
1660

>  <PUBCHEM_CONFORMER_RMSD>  (1) 
1.6

>  <PUBCHEM_CONFORMER_DIVERSEORDER>  (1) 
1
4
63
2
43
25
21
47
8
22
12
49
34
38
27
24
70
66
73
35
57
53
58
9
6
40
44
29
19
28
56
36
46
71
15
26
55
41
69
30
16
72
48
60
51
10
61
39
23
11
32
52
67
59
42
64
62
65
31
14
3
20
33
45
37
17
18
50
5
7
68
54
13

>  <PUBCHEM_MMFF94_PARTIAL_CHARGES>  (1) 
11
1 -0.68
17 0.14
18 -0.29
19 -0.29
20 0.62
21 -0.2
22 -0.18
56 0.15
57 0.15
59 0.4
60 0.18

>  <PUBCHEM_EFFECTIVE_ROTOR_COUNT>  (1) 
15

>  <PUBCHEM_PHARMACOPHORE_FEATURES>  (1) 
4
1 1 acceptor
1 1 donor
1 22 hydrophobe
3 12 15 16 hydrophobe

>  <PUBCHEM_HEAVY_ATOM_COUNT>  (1) 
22

>  <PUBCHEM_ATOM_DEF_STEREO_COUNT>  (1) 
0

>  <PUBCHEM_ATOM_UDEF_STEREO_COUNT>  (1) 
1

>  <PUBCHEM_BOND_DEF_STEREO_COUNT>  (1) 
0

>  <PUBCHEM_BOND_UDEF_STEREO_COUNT>  (1) 
1

>  <PUBCHEM_ISOTOPIC_ATOM_COUNT>  (1) 
0

>  <PUBCHEM_COMPONENT_COUNT>  (1) 
1

>  <PUBCHEM_CACTVS_TAUTO_COUNT>  (1) 
1

>  <PUBCHEM_CONFORMER_ID>  (1) 
0000067C00000001

>  <PUBCHEM_MMFF94_ENERGY>  (1) 
7.1908

>  <PUBCHEM_FEATURE_SELFOVERLAP>  (1) 
20.297

>  <PUBCHEM_SHAPE_FINGERPRINT>  (1) 
10708813 3 16249367650674746060
11244481 83 16953654171627561931
12156800 1 16192055194580564192
13615921 28 15221537205702179223
14279260 333 16044228931698096654
20600515 1 17822279202473722493
20764821 26 17843086339127172282
238 59 17341210863467594294
35225 105 17179899377931321014
3524813 1 18269554935978569895
4409770 3 17767920464799547610
539174 4 17042581679807327094
81228 2 17973469623415496871

>  <PUBCHEM_SHAPE_MULTIPOLES>  (1) 
446.88
5.73
5.38
3.75
2.83
0.8
0.75
-4.32
-3.98
-0.27
3.1
-1.14
2.74
1.1

>  <PUBCHEM_SHAPE_SELFOVERLAP>  (1) 
824.443

>  <PUBCHEM_SHAPE_VOLUME>  (1) 
280.4

>  <PUBCHEM_COORDINATE_TYPE>  (1) 
2
5
10

$$$$
