16615
     RDKit          3D

 14 15  0  0  0  0  0  0  0  0999 V2000
   -0.5123    2.6687    0.0204 O   0  0  0  0  0  0  0  0  0  0  0  0
   -0.5125   -2.6687   -0.0200 O   0  0  0  0  0  0  0  0  0  0  0  0
    0.7464    0.6955    0.0027 C   0  0  0  0  0  0  0  0  0  0  0  0
    0.7463   -0.6956   -0.0026 C   0  0  0  0  0  0  0  0  0  0  0  0
   -1.8042    0.6732   -0.0052 C   0  0  0  0  0  0  0  0  0  0  0  0
   -1.8042   -0.6732    0.0052 C   0  0  0  0  0  0  0  0  0  0  0  0
   -0.5215    1.4421    0.0051 C   0  0  0  0  0  0  0  0  0  0  0  0
   -0.5216   -1.4420   -0.0048 C   0  0  0  0  0  0  0  0  0  0  0  0
    1.9610    1.3939    0.0056 C   0  0  0  0  0  0  0  0  0  0  0  0
    1.9608   -1.3940   -0.0057 C   0  0  0  0  0  0  0  0  0  0  0  0
   -3.0381    1.5354   -0.0453 C   0  0  0  0  0  0  0  0  0  0  0  0
   -3.0382   -1.5353    0.0448 C   0  0  0  0  0  0  0  0  0  0  0  0
    3.1691    0.6962    0.0027 C   0  0  0  0  0  0  0  0  0  0  0  0
    3.1690   -0.6963   -0.0030 C   0  0  0  0  0  0  0  0  0  0  0  0
  1  7  2  0
  2  8  2  0
  3  4  2  0
  3  7  1  0
  3  9  1  0
  4  8  1  0
  4 10  1  0
  5  6  2  0
  5  7  1  0
  5 11  1  0
  6  8  1  0
  6 12  1  0
  9 13  2  0
 10 14  2  0
 13 14  1  0
M  END
>  <PUBCHEM_COMPOUND_CID>  (1) 
16615

>  <PUBCHEM_CONFORMER_RMSD>  (1) 
0.4

>  <PUBCHEM_CONFORMER_DIVERSEORDER>  (1) 
1

>  <PUBCHEM_MMFF94_PARTIAL_CHARGES>  (1) 
18
1 -0.57
10 -0.15
11 0.14
12 0.14
13 -0.15
14 -0.15
15 0.15
16 0.15
2 -0.57
23 0.15
24 0.15
3 0.09
4 0.09
5 -0.12
6 -0.12
7 0.47
8 0.47
9 -0.15

>  <PUBCHEM_EFFECTIVE_ROTOR_COUNT>  (1) 
0

>  <PUBCHEM_PHARMACOPHORE_FEATURES>  (1) 
4
1 1 acceptor
1 2 acceptor
6 3 4 5 6 7 8 rings
6 3 4 9 10 13 14 rings

>  <PUBCHEM_HEAVY_ATOM_COUNT>  (1) 
14

>  <PUBCHEM_ATOM_DEF_STEREO_COUNT>  (1) 
0

>  <PUBCHEM_ATOM_UDEF_STEREO_COUNT>  (1) 
0

>  <PUBCHEM_BOND_DEF_STEREO_COUNT>  (1) 
0

>  <PUBCHEM_BOND_UDEF_STEREO_COUNT>  (1) 
0

>  <PUBCHEM_ISOTOPIC_ATOM_COUNT>  (1) 
0

>  <PUBCHEM_COMPONENT_COUNT>  (1) 
1

>  <PUBCHEM_CACTVS_TAUTO_COUNT>  (1) 
3

>  <PUBCHEM_CONFORMER_ID>  (1) 
000040E700000001

>  <PUBCHEM_MMFF94_ENERGY>  (1) 
35.8511

>  <PUBCHEM_FEATURE_SELFOVERLAP>  (1) 
20.318

>  <PUBCHEM_SHAPE_FINGERPRINT>  (1) 
10608611 8 18412259562463264208
10967382 1 18266740168994196327
11132069 177 18341326708680180280
12032990 46 18338241560456870995
12382932 28 18412261739927144560
13140716 1 18339079293964729545
13380535 76 18266455408663000807
13897977 150 18339077094989154213
14325111 11 18410573985267690564
14790565 3 15595564016995947185
15196674 1 18410575089285080836
15775835 57 18335145245708378284
16945 1 18410856559987923206
17804303 29 18413107243558537002
17844478 74 18115317790128655387
193761 8 18410575071899502822
20510252 161 18272090521429521288
20588541 1 18267587896981097221
20645476 183 17896059722484244198
20871998 184 18273216412809596311
21267235 1 18410020960957582882
21501502 16 18410292510449040588
22802520 49 18057903354457903318
2334 1 18410856594178869511
23402539 116 18271231824333718047
23463225 33 18408323284881055184
23552423 10 18260831518287420052
23559900 14 18343303635841906686
2748010 2 18410856564114105055
2897 32 18336547114459597958
335352 9 18050285869017410815
528886 8 18339073800617226577
53812653 166 18342453729404851080
6333449 129 18411696586570961172
7364860 26 17837489648405378902
8809292 202 18335145241403050050

>  <PUBCHEM_SHAPE_MULTIPOLES>  (1) 
276.37
4.68
2.52
0.6
0.59
0
0
0
0
-0.92
0
0.01
0
0.03

>  <PUBCHEM_SHAPE_SELFOVERLAP>  (1) 
603.873

>  <PUBCHEM_SHAPE_VOLUME>  (1) 
150.1

>  <PUBCHEM_COORDINATE_TYPE>  (1) 
2
5
10

$$$$
