16628
     RDKit          3D

  8  8  0  0  1  0  0  0  0  0999 V2000
   -0.4175    0.9765   -0.3929 C   0  0  0  0  0  0  0  0  0  0  0  0
   -0.8867   -0.4977   -0.4589 C   0  0  0  0  0  0  0  0  0  0  0  0
    1.0886    1.0651   -0.6972 C   0  0  0  0  0  0  0  0  0  0  0  0
   -0.0412   -1.4145    0.4391 C   0  0  0  0  0  0  0  0  0  0  0  0
    1.9298    0.1529    0.1929 C   0  0  0  0  0  0  0  0  0  0  0  0
    1.4486   -1.2924    0.1295 C   0  0  0  0  0  0  0  0  0  0  0  0
   -0.7476    1.6748    0.9319 C   0  0  0  0  0  0  0  0  0  0  0  0
   -2.3741   -0.6646   -0.1445 C   0  0  0  0  0  0  0  0  0  0  0  0
  1  2  1  0
  1  3  1  0
  1  7  1  0
  2  4  1  0
  2  8  1  0
  3  5  1  0
  4  6  1  0
  5  6  1  0
M  END
>  <PUBCHEM_COMPOUND_CID>  (1) 
16628

>  <PUBCHEM_CONFORMER_RMSD>  (1) 
0.4

>  <PUBCHEM_CONFORMER_DIVERSEORDER>  (1) 
1
2
3
4

>  <PUBCHEM_MMFF94_PARTIAL_CHARGES>  (1) 
0

>  <PUBCHEM_EFFECTIVE_ROTOR_COUNT>  (1) 
1.2

>  <PUBCHEM_PHARMACOPHORE_FEATURES>  (1) 
1
6 1 2 3 4 5 6 rings

>  <PUBCHEM_HEAVY_ATOM_COUNT>  (1) 
8

>  <PUBCHEM_ATOM_DEF_STEREO_COUNT>  (1) 
2

>  <PUBCHEM_ATOM_UDEF_STEREO_COUNT>  (1) 
0

>  <PUBCHEM_BOND_DEF_STEREO_COUNT>  (1) 
0

>  <PUBCHEM_BOND_UDEF_STEREO_COUNT>  (1) 
0

>  <PUBCHEM_ISOTOPIC_ATOM_COUNT>  (1) 
0

>  <PUBCHEM_COMPONENT_COUNT>  (1) 
1

>  <PUBCHEM_CACTVS_TAUTO_COUNT>  (1) 
1

>  <PUBCHEM_CONFORMER_ID>  (1) 
000040F400000001

>  <PUBCHEM_MMFF94_ENERGY>  (1) 
7.3993

>  <PUBCHEM_FEATURE_SELFOVERLAP>  (1) 
5.074

>  <PUBCHEM_SHAPE_FINGERPRINT>  (1) 
12423570 1 12432911302522348688
137420 1 16186425991457344121
16945 1 18188766270369922382
18185500 45 18410570699543797711
21040471 1 17758395557906416892
23552333 60 18333728013737672385
23552423 10 18261395490337842198
241688 4 18046060463164665426
24536 1 17841410554288475254
29004967 10 17967249831812147385
5084963 1 18334293115670194878

>  <PUBCHEM_SHAPE_MULTIPOLES>  (1) 
164.64
2.39
1.78
0.86
0.38
0.18
-0.05
-0.49
0.07
0.02
-0.3
0.04
0.21
-0.3

>  <PUBCHEM_SHAPE_SELFOVERLAP>  (1) 
312.686

>  <PUBCHEM_SHAPE_VOLUME>  (1) 
101.6

>  <PUBCHEM_COORDINATE_TYPE>  (1) 
2
5
10

$$$$
