16645
     RDKit          3D

  8  7  0  0  0  0  0  0  0  0999 V2000
   -0.0065    0.6859    0.5796 S   0  0  0  0  0  0  0  0  0  0  0  0
   -0.2162    1.9071   -0.2544 O   0  0  0  0  0  0  0  0  0  0  0  0
    1.3603   -0.2533   -0.1964 C   0  0  0  0  0  0  0  0  0  0  0  0
   -1.2893   -0.5103    0.1449 C   0  0  0  0  0  0  0  0  0  0  0  0
    1.4925   -1.6294    0.4429 C   0  0  0  0  0  0  0  0  0  0  0  0
    2.6542    0.5413   -0.0816 C   0  0  0  0  0  0  0  0  0  0  0  0
   -1.3733   -0.6767   -1.3666 C   0  0  0  0  0  0  0  0  0  0  0  0
   -2.6218   -0.0645    0.7317 C   0  0  0  0  0  0  0  0  0  0  0  0
  1  2  2  0
  1  3  1  0
  1  4  1  0
  3  5  1  0
  3  6  1  0
  4  7  1  0
  4  8  1  0
M  END
>  <PUBCHEM_COMPOUND_CID>  (1) 
16645

>  <PUBCHEM_CONFORMER_RMSD>  (1) 
0.4

>  <PUBCHEM_CONFORMER_DIVERSEORDER>  (1) 
1
2

>  <PUBCHEM_MMFF94_PARTIAL_CHARGES>  (1) 
4
1 0.11
2 -0.5
3 0.19
4 0.19

>  <PUBCHEM_EFFECTIVE_ROTOR_COUNT>  (1) 
2

>  <PUBCHEM_PHARMACOPHORE_FEATURES>  (1) 
3
1 2 acceptor
3 3 5 6 hydrophobe
3 4 7 8 hydrophobe

>  <PUBCHEM_HEAVY_ATOM_COUNT>  (1) 
8

>  <PUBCHEM_ATOM_DEF_STEREO_COUNT>  (1) 
0

>  <PUBCHEM_ATOM_UDEF_STEREO_COUNT>  (1) 
0

>  <PUBCHEM_BOND_DEF_STEREO_COUNT>  (1) 
0

>  <PUBCHEM_BOND_UDEF_STEREO_COUNT>  (1) 
0

>  <PUBCHEM_ISOTOPIC_ATOM_COUNT>  (1) 
0

>  <PUBCHEM_COMPONENT_COUNT>  (1) 
1

>  <PUBCHEM_CACTVS_TAUTO_COUNT>  (1) 
1

>  <PUBCHEM_CONFORMER_ID>  (1) 
0000410500000001

>  <PUBCHEM_MMFF94_ENERGY>  (1) 
10.1535

>  <PUBCHEM_FEATURE_SELFOVERLAP>  (1) 
15.223

>  <PUBCHEM_SHAPE_FINGERPRINT>  (1) 
12897270 3 18335422365730565252
15310529 11 18334859381100926875
16714656 1 17989214732529236310
18185500 45 18271519892085052398
23235685 24 18260553367694491848
23552333 60 18341335496241342402
23552423 10 18115594725224720274
24536 1 17968928678783340706
29004967 10 18259991491176985065

>  <PUBCHEM_SHAPE_MULTIPOLES>  (1) 
162.62
3.35
1.49
1.01
0.16
0.18
-0.21
-0.2
0.3
0.38
0
-0.43
-0.17
-0.32

>  <PUBCHEM_SHAPE_SELFOVERLAP>  (1) 
278.427

>  <PUBCHEM_SHAPE_VOLUME>  (1) 
110

>  <PUBCHEM_COORDINATE_TYPE>  (1) 
2
5
10

$$$$
