16646
     RDKit          3D

 13 14  0  0  1  0  0  0  0  0999 V2000
    4.6466    0.8460   -0.0100 O   0  0  0  0  0  0  0  0  0  0  0  0
    1.4540   -0.4711    0.2910 O   0  0  0  0  0  0  0  0  0  0  0  0
   -4.0278   -0.1086   -0.1554 O   0  0  0  0  0  0  0  0  0  0  0  0
    3.5670    0.1685   -0.6366 C   0  0  0  0  0  0  0  0  0  0  0  0
    4.4670   -0.5401    0.3077 C   0  0  0  0  0  0  0  0  0  0  0  0
    2.2172    0.6509   -0.1499 C   0  0  0  0  0  0  0  0  0  0  0  0
    0.1004   -0.3815    0.1807 C   0  0  0  0  0  0  0  0  0  0  0  0
   -0.5261    0.8614    0.2721 C   0  0  0  0  0  0  0  0  0  0  0  0
   -0.6603   -1.5326   -0.0240 C   0  0  0  0  0  0  0  0  0  0  0  0
   -2.6741   -0.1980   -0.0461 C   0  0  0  0  0  0  0  0  0  0  0  0
   -1.9134    0.9532    0.1587 C   0  0  0  0  0  0  0  0  0  0  0  0
   -2.0475   -1.4409   -0.1374 C   0  0  0  0  0  0  0  0  0  0  0  0
   -4.6031    1.1929   -0.0510 C   0  0  0  0  0  0  0  0  0  0  0  0
  1  4  1  0
  1  5  1  0
  2  6  1  0
  2  7  1  0
  3 10  1  0
  3 13  1  0
  4  5  1  0
  4  6  1  0
  7  8  2  0
  7  9  1  0
  8 11  1  0
  9 12  2  0
 10 11  2  0
 10 12  1  0
M  END
>  <PUBCHEM_COMPOUND_CID>  (1) 
16646

>  <PUBCHEM_CONFORMER_RMSD>  (1) 
0.6

>  <PUBCHEM_CONFORMER_DIVERSEORDER>  (1) 
2
27
25
16
7
10
1
12
26
3
18
5
9
8
23
4
19
6
21
11
22
24
20
17
15
14
13

>  <PUBCHEM_MMFF94_PARTIAL_CHARGES>  (1) 
20
1 -0.3
10 0.08
11 -0.15
12 -0.15
13 0.28
14 0.1
15 0.1
16 0.1
19 0.15
2 -0.36
20 0.15
21 0.15
22 0.15
3 -0.36
4 -0.05
5 -0.05
6 0.38
7 0.08
8 -0.15
9 -0.15

>  <PUBCHEM_EFFECTIVE_ROTOR_COUNT>  (1) 
4.6

>  <PUBCHEM_PHARMACOPHORE_FEATURES>  (1) 
4
1 1 acceptor
1 2 acceptor
1 3 acceptor
6 7 8 9 10 11 12 rings

>  <PUBCHEM_HEAVY_ATOM_COUNT>  (1) 
13

>  <PUBCHEM_ATOM_DEF_STEREO_COUNT>  (1) 
0

>  <PUBCHEM_ATOM_UDEF_STEREO_COUNT>  (1) 
1

>  <PUBCHEM_BOND_DEF_STEREO_COUNT>  (1) 
0

>  <PUBCHEM_BOND_UDEF_STEREO_COUNT>  (1) 
0

>  <PUBCHEM_ISOTOPIC_ATOM_COUNT>  (1) 
0

>  <PUBCHEM_COMPONENT_COUNT>  (1) 
1

>  <PUBCHEM_CACTVS_TAUTO_COUNT>  (1) 
1

>  <PUBCHEM_CONFORMER_ID>  (1) 
0000410600000002

>  <PUBCHEM_MMFF94_ENERGY>  (1) 
47.6324

>  <PUBCHEM_FEATURE_SELFOVERLAP>  (1) 
20.297

>  <PUBCHEM_SHAPE_FINGERPRINT>  (1) 
10014705 185 18411134779036837469
11401426 45 18272646852917284885
12932764 1 13696141972784801280
13380535 76 18412266120709721534
14123238 8 11167936965800533616
14252887 29 11314308308723927728
14897335 6 18410856533954706662
14911166 2 18272364283182869237
14943859 89 18409449193425435243
15375358 24 17918277553962297542
17834072 8 18411142394578232670
18186145 218 17023178375111203022
187816 3 17704354359917610769
200 152 15770059423372906210
20279233 1 17418100927289973102
20300324 65 17917709111035939165
20645477 56 18410012152058585252
20645477 70 16988290772593992350
21119208 17 18334576845473061460
22485316 2 16559029389499600070
23402539 116 18273207595189009605
23402655 69 18273214175073684124
23559900 14 18273495689564748528
293599 30 18341615867860110337
366044 4 18411418406187815315
4990 188 17918276441491934359
5104073 3 18336264630371262984
6430166 295 18408319973445575701
69090 78 18273212006236531990

>  <PUBCHEM_SHAPE_MULTIPOLES>  (1) 
249.93
9.08
1.34
0.66
4.41
0.26
0.02
-2.29
0.43
-0.72
0
0.13
0
-0.17

>  <PUBCHEM_SHAPE_SELFOVERLAP>  (1) 
516.027

>  <PUBCHEM_SHAPE_VOLUME>  (1) 
145.2

>  <PUBCHEM_COORDINATE_TYPE>  (1) 
2
5
10

$$$$
