16650
     RDKit          3D

 10  9  0  0  0  0  0  0  0  0999 V2000
    0.5977   -2.6121    1.2294 Cl  0  0  0  0  0  0  0  0  0  0  0  0
   -0.0438   -0.3255   -0.5446 Si  0  0  0  0  0  4  0  0  0  0  0  0
    0.9972    0.6868    0.2977 O   0  0  0  0  0  0  0  0  0  0  0  0
   -1.5750   -0.2143    0.1387 O   0  0  0  0  0  0  0  0  0  0  0  0
    0.5465   -2.1043   -0.4721 C   0  0  0  0  0  0  0  0  0  0  0  0
   -0.1172    0.1624   -2.3636 C   0  0  0  0  0  0  0  0  0  0  0  0
    2.3647    0.7621   -0.0774 C   0  0  0  0  0  0  0  0  0  0  0  0
   -2.2475    1.0368    0.1444 C   0  0  0  0  0  0  0  0  0  0  0  0
    3.0735    1.7393    0.8361 C   0  0  0  0  0  0  0  0  0  0  0  0
   -3.5961    0.8688    0.8114 C   0  0  0  0  0  0  0  0  0  0  0  0
  1  5  1  0
  2  3  1  0
  2  4  1  0
  2  5  1  0
  2  6  1  0
  3  7  1  0
  4  8  1  0
  7  9  1  0
  8 10  1  0
M  END
>  <PUBCHEM_COMPOUND_CID>  (1) 
16650

>  <PUBCHEM_CONFORMER_RMSD>  (1) 
0.6

>  <PUBCHEM_CONFORMER_DIVERSEORDER>  (1) 
1
16
18
14
8
20
7
15
21
5
19
11
12
17
2
9
13
6
3
10
4

>  <PUBCHEM_MMFF94_PARTIAL_CHARGES>  (1) 
8
1 -0.29
2 0.76
3 -0.58
4 -0.58
5 0.21
6 -0.08
7 0.28
8 0.28

>  <PUBCHEM_EFFECTIVE_ROTOR_COUNT>  (1) 
5

>  <PUBCHEM_PHARMACOPHORE_FEATURES>  (1) 
0

>  <PUBCHEM_HEAVY_ATOM_COUNT>  (1) 
10

>  <PUBCHEM_ATOM_DEF_STEREO_COUNT>  (1) 
0

>  <PUBCHEM_ATOM_UDEF_STEREO_COUNT>  (1) 
0

>  <PUBCHEM_BOND_DEF_STEREO_COUNT>  (1) 
0

>  <PUBCHEM_BOND_UDEF_STEREO_COUNT>  (1) 
0

>  <PUBCHEM_ISOTOPIC_ATOM_COUNT>  (1) 
0

>  <PUBCHEM_COMPONENT_COUNT>  (1) 
1

>  <PUBCHEM_CACTVS_TAUTO_COUNT>  (1) 
1

>  <PUBCHEM_CONFORMER_ID>  (1) 
0000410A00000001

>  <PUBCHEM_MMFF94_ENERGY>  (1) 
3.1102

>  <PUBCHEM_FEATURE_SELFOVERLAP>  (1) 
0

>  <PUBCHEM_SHAPE_FINGERPRINT>  (1) 
12932764 1 18194702375531112413
13024252 1 13408719677412845414
14817 1 17833570250361407982
15775835 57 17917711322459144345
170605 34 17989496199269713033
20539784 86 18267317434342679785
20653085 51 17346324868084179508
20653091 64 18051987917422945019
20711978 78 18120357775051858814
21061003 4 17757535374958080138
21524375 3 18131064969601949336
23211744 41 18059306455722149365
23382010 3 14692557862348679785
23419403 2 17390488719455584374
23552449 11 18121220870589948219
298252 57 17060338556388603772
3250762 1 17318151836616138332
430814 3 18131343120310603756
528862 383 18267012873663746810
68250623 7 17989487445857514462
68419 9 17199625754420550087
76951 1 17908179540256946246
81228 2 17832135400608855274
81539 233 18411138013405693773

>  <PUBCHEM_SHAPE_MULTIPOLES>  (1) 
214.14
4.14
2.38
1.57
2.05
1.79
-0.97
-3.46
2.1
-1.39
0.99
0
0.11
0.06

>  <PUBCHEM_SHAPE_SELFOVERLAP>  (1) 
364.621

>  <PUBCHEM_SHAPE_VOLUME>  (1) 
145.2

>  <PUBCHEM_COORDINATE_TYPE>  (1) 
2
5
10

$$$$
