16684
     RDKit          3D

 14 15  0  0  0  0  0  0  0  0999 V2000
    1.8018    0.9939   -0.1457 S   0  0  0  0  0  0  0  0  0  0  0  0
    1.7018    1.2108   -1.5775 O   0  0  0  0  0  0  0  0  0  0  0  0
    2.9213    1.5388    0.5997 O   0  0  0  0  0  0  0  0  0  0  0  0
    0.3367   -2.6234    0.1406 O   0  0  0  0  0  0  0  0  0  0  0  0
    1.6720   -0.6983    0.1560 N   0  0  0  0  0  0  0  0  0  0  0  0
    0.3702    1.5348    0.6062 N   0  0  0  0  0  0  0  0  0  0  0  0
   -0.8198    0.8184    0.2482 C   0  0  0  0  0  0  0  0  0  0  0  0
   -0.8194   -0.5700    0.0593 C   0  0  0  0  0  0  0  0  0  0  0  0
    0.4120   -1.4006    0.1207 C   0  0  0  0  0  0  0  0  0  0  0  0
    2.9452   -1.4656    0.0243 C   0  0  0  0  0  0  0  0  0  0  0  0
   -2.0289    1.5255    0.2379 C   0  0  0  0  0  0  0  0  0  0  0  0
   -2.0337   -1.2238   -0.2011 C   0  0  0  0  0  0  0  0  0  0  0  0
   -3.2288    0.8662   -0.0219 C   0  0  0  0  0  0  0  0  0  0  0  0
   -3.2304   -0.5067   -0.2465 C   0  0  0  0  0  0  0  0  0  0  0  0
  1  2  2  0
  1  3  2  0
  1  5  1  0
  1  6  1  0
  4  9  2  0
  5  9  1  0
  5 10  1  0
  6  7  1  0
  7  8  2  0
  7 11  1  0
  8  9  1  0
  8 12  1  0
 11 13  2  0
 12 14  2  0
 13 14  1  0
M  END
>  <PUBCHEM_COMPOUND_CID>  (1) 
16684

>  <PUBCHEM_CONFORMER_RMSD>  (1) 
0.4

>  <PUBCHEM_CONFORMER_DIVERSEORDER>  (1) 
1
2

>  <PUBCHEM_MMFF94_PARTIAL_CHARGES>  (1) 
19
1 1.58
10 0.36
11 -0.15
12 -0.15
13 -0.15
14 -0.15
15 0.42
19 0.15
2 -0.65
20 0.15
21 0.15
22 0.15
3 -0.65
4 -0.57
5 -0.73
6 -0.76
7 0.2
8 0.09
9 0.72

>  <PUBCHEM_EFFECTIVE_ROTOR_COUNT>  (1) 
0.4

>  <PUBCHEM_PHARMACOPHORE_FEATURES>  (1) 
4
1 4 acceptor
1 6 donor
6 1 5 6 7 8 9 rings
6 7 8 11 12 13 14 rings

>  <PUBCHEM_HEAVY_ATOM_COUNT>  (1) 
14

>  <PUBCHEM_ATOM_DEF_STEREO_COUNT>  (1) 
0

>  <PUBCHEM_ATOM_UDEF_STEREO_COUNT>  (1) 
0

>  <PUBCHEM_BOND_DEF_STEREO_COUNT>  (1) 
0

>  <PUBCHEM_BOND_UDEF_STEREO_COUNT>  (1) 
0

>  <PUBCHEM_ISOTOPIC_ATOM_COUNT>  (1) 
0

>  <PUBCHEM_COMPONENT_COUNT>  (1) 
1

>  <PUBCHEM_CACTVS_TAUTO_COUNT>  (1) 
2

>  <PUBCHEM_CONFORMER_ID>  (1) 
0000412C00000001

>  <PUBCHEM_MMFF94_ENERGY>  (1) 
42.6876

>  <PUBCHEM_FEATURE_SELFOVERLAP>  (1) 
20.32

>  <PUBCHEM_SHAPE_FINGERPRINT>  (1) 
10967382 1 18339921618713927635
11471102 20 18411411805086617629
12423570 1 14227623422266873574
13140716 1 18411140203643595987
13380535 76 18340199821120776570
13897977 150 18411976996675526225
14325111 11 18411698798637549633
14614273 12 18334564759725533421
15536298 74 18272367564490300178
15775835 57 18342461464772826209
16945 1 18123462783072192649
18186145 218 18411986849119461381
193761 8 14232642649961249497
20201158 50 18265612091860960883
20511035 2 18409453613168549638
20645476 183 17969514890258557934
21501502 16 18412544306099666369
2334 1 18411138077587278787
23463225 33 18336544932473786834
23552423 10 18336265652536724123
23559900 14 18273218569874812638
241688 4 17185316439482130531
2748010 2 18410577305177027695
2897 32 18337673022766445079
5084963 1 18040714757752333159
528886 8 18339072787237020881
53812653 166 18200870806770538617
63268167 104 18342460352413051217
7364860 26 18271525290990890174

>  <PUBCHEM_SHAPE_MULTIPOLES>  (1) 
264.39
4.75
2.22
0.79
0.79
0.57
-0.2
-0.41
-0.15
-0.76
0.12
-0.26
-0.24
-0.21

>  <PUBCHEM_SHAPE_SELFOVERLAP>  (1) 
550.855

>  <PUBCHEM_SHAPE_VOLUME>  (1) 
150.4

>  <PUBCHEM_COORDINATE_TYPE>  (1) 
2
5
10

$$$$
