16690
     RDKit          3D

  6  5  0  0  0  0  0  0  0  0999 V2000
    0.4647    0.4902   -1.7113 Cl  0  0  0  0  0  0  0  0  0  0  0  0
    1.6241    0.8778    0.9310 Cl  0  0  0  0  0  0  0  0  0  0  0  0
    0.7218   -1.7521    0.1083 Cl  0  0  0  0  0  0  0  0  0  0  0  0
    0.3665   -0.0065    0.0086 C   0  0  0  0  0  0  0  0  0  0  0  0
   -0.9833    0.3886    0.5431 C   0  0  0  0  0  0  0  0  0  0  0  0
   -2.1939    0.0020    0.1204 C   0  0  0  0  0  0  0  0  0  0  0  0
  1  4  1  0
  2  4  1  0
  3  4  1  0
  4  5  1  0
  5  6  2  0
M  END
>  <PUBCHEM_COMPOUND_CID>  (1) 
16690

>  <PUBCHEM_CONFORMER_RMSD>  (1) 
0.4

>  <PUBCHEM_CONFORMER_DIVERSEORDER>  (1) 
1

>  <PUBCHEM_MMFF94_PARTIAL_CHARGES>  (1) 
9
1 -0.29
2 -0.29
3 -0.29
4 1.01
5 -0.29
6 -0.3
7 0.15
8 0.15
9 0.15

>  <PUBCHEM_EFFECTIVE_ROTOR_COUNT>  (1) 
1

>  <PUBCHEM_PHARMACOPHORE_FEATURES>  (1) 
1
1 6 hydrophobe

>  <PUBCHEM_HEAVY_ATOM_COUNT>  (1) 
6

>  <PUBCHEM_ATOM_DEF_STEREO_COUNT>  (1) 
0

>  <PUBCHEM_ATOM_UDEF_STEREO_COUNT>  (1) 
0

>  <PUBCHEM_BOND_DEF_STEREO_COUNT>  (1) 
0

>  <PUBCHEM_BOND_UDEF_STEREO_COUNT>  (1) 
0

>  <PUBCHEM_ISOTOPIC_ATOM_COUNT>  (1) 
0

>  <PUBCHEM_COMPONENT_COUNT>  (1) 
1

>  <PUBCHEM_CACTVS_TAUTO_COUNT>  (1) 
1

>  <PUBCHEM_CONFORMER_ID>  (1) 
0000413200000001

>  <PUBCHEM_MMFF94_ENERGY>  (1) 
5.3317

>  <PUBCHEM_FEATURE_SELFOVERLAP>  (1) 
5.074

>  <PUBCHEM_SHAPE_FINGERPRINT>  (1) 
137420 1 7944194621411236874
20096714 4 17346310557057918768
21040471 1 18266186199849098059
23552449 11 18198053690682082635
24536 1 17749690518549684185
29004967 10 17171271449779234042
5943 1 9537286897447069654

>  <PUBCHEM_SHAPE_MULTIPOLES>  (1) 
129.09
2.16
1.37
1.35
1.1
0.8
-0.53
-0.26
0.63
-0.55
-0.12
-0.43
-0.48
0.12

>  <PUBCHEM_SHAPE_SELFOVERLAP>  (1) 
208.509

>  <PUBCHEM_SHAPE_VOLUME>  (1) 
91.2

>  <PUBCHEM_COORDINATE_TYPE>  (1) 
2
5
10

$$$$
