16712
     RDKit          3D

 14 14  0  0  0  0  0  0  0  0999 V2000
    5.2960   -0.4437   -0.2401 Cl  0  0  0  0  0  0  0  0  0  0  0  0
   -2.7110    0.5064    0.4468 O   0  0  0  0  0  0  0  0  0  0  0  0
   -1.4533   -1.4013    0.5425 O   0  0  0  0  0  0  0  0  0  0  0  0
   -0.4801    0.7053    0.2022 N   0  0  0  0  0  0  0  0  0  0  0  0
   -3.8699   -0.2024   -0.0076 C   0  0  0  0  0  0  0  0  0  0  0  0
   -5.0909    0.6941    0.1301 C   0  0  0  0  0  0  0  0  0  0  0  0
   -3.6528   -0.6474   -1.4459 C   0  0  0  0  0  0  0  0  0  0  0  0
    0.8844    0.4340    0.0982 C   0  0  0  0  0  0  0  0  0  0  0  0
   -1.5299   -0.1860    0.4098 C   0  0  0  0  0  0  0  0  0  0  0  0
    1.7884    1.4749   -0.1124 C   0  0  0  0  0  0  0  0  0  0  0  0
    1.3446   -0.8786    0.2043 C   0  0  0  0  0  0  0  0  0  0  0  0
    3.1527    1.2036   -0.2170 C   0  0  0  0  0  0  0  0  0  0  0  0
    2.7088   -1.1501    0.0999 C   0  0  0  0  0  0  0  0  0  0  0  0
    3.6129   -0.1089   -0.1107 C   0  0  0  0  0  0  0  0  0  0  0  0
  1 14  1  0
  2  5  1  0
  2  9  1  0
  3  9  2  0
  4  8  1  0
  4  9  1  0
  5  6  1  0
  5  7  1  0
  8 10  2  0
  8 11  1  0
 10 12  1  0
 11 13  2  0
 12 14  2  0
 13 14  1  0
M  END
>  <PUBCHEM_COMPOUND_CID>  (1) 
16712

>  <PUBCHEM_CONFORMER_RMSD>  (1) 
0.6

>  <PUBCHEM_CONFORMER_DIVERSEORDER>  (1) 
1
15
10
8
4
11
7
13
5
2
6
14
12
3
9

>  <PUBCHEM_MMFF94_PARTIAL_CHARGES>  (1) 
17
1 -0.18
10 -0.15
11 -0.15
12 -0.15
13 -0.15
14 0.18
2 -0.43
22 0.37
23 0.15
24 0.15
25 0.15
26 0.15
3 -0.57
4 -0.55
5 0.28
8 0.12
9 0.78

>  <PUBCHEM_EFFECTIVE_ROTOR_COUNT>  (1) 
4

>  <PUBCHEM_PHARMACOPHORE_FEATURES>  (1) 
4
1 3 acceptor
1 4 donor
3 5 6 7 hydrophobe
6 8 10 11 12 13 14 rings

>  <PUBCHEM_HEAVY_ATOM_COUNT>  (1) 
14

>  <PUBCHEM_ATOM_DEF_STEREO_COUNT>  (1) 
0

>  <PUBCHEM_ATOM_UDEF_STEREO_COUNT>  (1) 
0

>  <PUBCHEM_BOND_DEF_STEREO_COUNT>  (1) 
0

>  <PUBCHEM_BOND_UDEF_STEREO_COUNT>  (1) 
0

>  <PUBCHEM_ISOTOPIC_ATOM_COUNT>  (1) 
0

>  <PUBCHEM_COMPONENT_COUNT>  (1) 
1

>  <PUBCHEM_CACTVS_TAUTO_COUNT>  (1) 
2

>  <PUBCHEM_CONFORMER_ID>  (1) 
0000414800000001

>  <PUBCHEM_MMFF94_ENERGY>  (1) 
34.0812

>  <PUBCHEM_FEATURE_SELFOVERLAP>  (1) 
20.297

>  <PUBCHEM_SHAPE_FINGERPRINT>  (1) 
11401426 45 18273210902355888832
11471102 20 18408323302593810772
12236239 1 18060701688638120269
124424 183 18113339717244362930
12500047 106 16732984253669757234
12815109 37 18413669097767764056
14115302 16 18041292031669710582
14123238 8 14923945656524084491
14251717 144 18411980252160561798
14911166 2 18334298664878743534
17834072 33 17917710236185579932
17834072 8 18411978032089679509
17834076 25 18259706691900861830
18186145 218 17968088746504966929
200 152 18131068242408869611
20201158 50 18408045100134383402
20279233 1 18040724666300050442
20645477 56 16805037411591796575
20645477 70 18260267408756697762
21119208 17 18343021094558090270
21267235 1 18411147925936855954
22485316 2 17418091022546703694
23402539 116 18272366464715097253
23402655 69 18412542081196077709
23557571 272 15267069098889201168
23559900 14 18342735265017571128
29717793 49 17775287144569768164
4072396 5 18260817186625294378
5104073 3 18336829796137568377
522135 26 18333449828711139616
69090 78 18409727378699991555

>  <PUBCHEM_SHAPE_MULTIPOLES>  (1) 
273.26
10.39
1.28
0.81
3.03
0.09
0.2
-0.18
1.4
-0.51
0
0.56
-0.12
-0.36

>  <PUBCHEM_SHAPE_SELFOVERLAP>  (1) 
548.348

>  <PUBCHEM_SHAPE_VOLUME>  (1) 
162

>  <PUBCHEM_COORDINATE_TYPE>  (1) 
2
5
10

$$$$
