1671
     RDKit          3D

 19 22  0  0  1  0  0  0  0  0999 V2000
    3.8623   -0.7668   -0.6464 O   0  0  0  0  0  0  0  0  0  0  0  0
   -2.4202    2.1816   -0.5409 N   0  0  0  0  0  0  0  0  0  0  0  0
   -1.0841   -0.4286   -0.7425 C   0  0  0  0  0  0  0  0  0  0  0  0
   -2.2140   -0.1316    0.2819 C   0  0  0  0  0  0  0  0  0  0  0  0
   -2.1582    1.3567    0.6524 C   0  0  0  0  0  0  0  0  0  0  0  0
   -1.1861   -1.9278   -1.1362 C   0  0  0  0  0  0  0  0  0  0  0  0
   -1.3648    0.4467   -1.9954 C   0  0  0  0  0  0  0  0  0  0  0  0
   -2.1707   -1.0673    1.5055 C   0  0  0  0  0  0  0  0  0  0  0  0
    0.2893   -0.0150   -0.1798 C   0  0  0  0  0  0  0  0  0  0  0  0
   -0.8325    1.7148    1.3447 C   0  0  0  0  0  0  0  0  0  0  0  0
   -1.1324   -2.8671    0.0699 C   0  0  0  0  0  0  0  0  0  0  0  0
   -2.2205   -2.5335    1.0848 C   0  0  0  0  0  0  0  0  0  0  0  0
   -1.5141    1.9362   -1.6613 C   0  0  0  0  0  0  0  0  0  0  0  0
    0.3856    1.0082    0.7923 C   0  0  0  0  0  0  0  0  0  0  0  0
    1.4819   -0.5846   -0.6619 C   0  0  0  0  0  0  0  0  0  0  0  0
    1.6443    1.3908    1.2870 C   0  0  0  0  0  0  0  0  0  0  0  0
    2.7263   -0.1903   -0.1658 C   0  0  0  0  0  0  0  0  0  0  0  0
    2.8076    0.7922    0.8127 C   0  0  0  0  0  0  0  0  0  0  0  0
    5.1004   -0.3145   -0.1009 C   0  0  0  0  0  0  0  0  0  0  0  0
  1 17  1  0
  1 19  1  0
  2  5  1  0
  2 13  1  0
  3  4  1  0
  3  6  1  0
  3  7  1  0
  3  9  1  0
  4  5  1  0
  4  8  1  0
  5 10  1  0
  6 11  1  0
  7 13  1  0
  8 12  1  0
  9 14  2  0
  9 15  1  0
 10 14  1  0
 11 12  1  0
 14 16  1  0
 15 17  2  0
 16 18  2  0
 17 18  1  0
M  END
>  <PUBCHEM_COMPOUND_CID>  (1) 
1671

>  <PUBCHEM_CONFORMER_RMSD>  (1) 
0.6

>  <PUBCHEM_CONFORMER_DIVERSEORDER>  (1) 
3
5
1
2
4
6

>  <PUBCHEM_MMFF94_PARTIAL_CHARGES>  (1) 
17
1 -0.36
10 0.14
13 0.27
14 -0.14
15 -0.15
16 -0.15
17 0.08
18 -0.15
19 0.28
2 -0.9
3 0.14
36 0.36
37 0.15
38 0.15
39 0.15
5 0.27
9 -0.14

>  <PUBCHEM_EFFECTIVE_ROTOR_COUNT>  (1) 
2.6

>  <PUBCHEM_PHARMACOPHORE_FEATURES>  (1) 
7
1 1 acceptor
1 2 cation
1 2 donor
6 2 3 4 5 7 13 rings
6 3 4 5 9 10 14 rings
6 3 4 6 8 11 12 rings
6 9 14 15 16 17 18 rings

>  <PUBCHEM_HEAVY_ATOM_COUNT>  (1) 
19

>  <PUBCHEM_ATOM_DEF_STEREO_COUNT>  (1) 
0

>  <PUBCHEM_ATOM_UDEF_STEREO_COUNT>  (1) 
3

>  <PUBCHEM_BOND_DEF_STEREO_COUNT>  (1) 
0

>  <PUBCHEM_BOND_UDEF_STEREO_COUNT>  (1) 
0

>  <PUBCHEM_ISOTOPIC_ATOM_COUNT>  (1) 
0

>  <PUBCHEM_COMPONENT_COUNT>  (1) 
1

>  <PUBCHEM_CACTVS_TAUTO_COUNT>  (1) 
1

>  <PUBCHEM_CONFORMER_ID>  (1) 
0000068700000003

>  <PUBCHEM_MMFF94_ENERGY>  (1) 
56.9525

>  <PUBCHEM_FEATURE_SELFOVERLAP>  (1) 
37.178

>  <PUBCHEM_SHAPE_FINGERPRINT>  (1) 
10863032 1 17897162412535297585
10948715 1 17900258607156613773
12011746 2 18412831278708433871
12403814 3 18186812395336949156
12423570 1 12126247038690074485
12633257 1 17843992392190023091
12714826 92 18408890659062475378
13024252 1 14129063603706306453
13140716 1 17988367091027536458
13681431 1 17248641106919365943
14223421 5 18125714828021085672
14817 1 16023025305216492301
15163728 17 17392208321340223589
16945 1 18260839206474013329
17357779 13 18124579028125059063
1813 80 17679866195652118075
18927931 339 17775010051504009390
20645476 183 18261951834589266668
21330990 113 18335147479513469523
23419403 2 18054212504787962325
23493267 7 18335417911933966512
23557571 272 17825372231619693520
23559900 14 18201718402631382618
25 1 17982726377233824149
2748010 2 17988068019659556096
3759504 43 18336549291850047301
4175511 318 18261115115030943516
4340502 62 18050584954040939353
576247 118 17680988805650889851
5845 1 11774013527913041093
598444 67 18341905069002782731
6049 1 18341608287084434568
81228 2 18190164862462034649
8809292 202 18343585157287953458
9981440 41 16623999647517885912

>  <PUBCHEM_SHAPE_MULTIPOLES>  (1) 
380.16
5.46
2.58
1.6
8.96
0.82
0.27
1.07
-0.13
-2.27
-0.17
-0.83
-0.36
1.03

>  <PUBCHEM_SHAPE_SELFOVERLAP>  (1) 
827.891

>  <PUBCHEM_SHAPE_VOLUME>  (1) 
202.4

>  <PUBCHEM_COORDINATE_TYPE>  (1) 
2
5
10

$$$$
