16715
     RDKit          3D

 10  9  0  0  0  0  0  0  0  0999 V2000
    5.4291   -0.6959   -0.0332 N   0  0  0  0  0  0  0  0  0  0  0  0
   -0.5667   -0.3060   -0.0134 C   0  0  0  0  0  0  0  0  0  0  0  0
   -1.8686    0.4975   -0.0065 C   0  0  0  0  0  0  0  0  0  0  0  0
    0.6542    0.6179   -0.0116 C   0  0  0  0  0  0  0  0  0  0  0  0
   -3.1253   -0.3777    0.0235 C   0  0  0  0  0  0  0  0  0  0  0  0
    1.9587   -0.1862    0.0140 C   0  0  0  0  0  0  0  0  0  0  0  0
   -4.4585    0.3699   -0.0540 C   0  0  0  0  0  0  0  0  0  0  0  0
    3.2034    0.7020    0.0463 C   0  0  0  0  0  0  0  0  0  0  0  0
   -5.6727   -0.5413    0.0326 C   0  0  0  0  0  0  0  0  0  0  0  0
    4.4464   -0.0800    0.0022 C   0  0  0  0  0  0  0  0  0  0  0  0
  1 10  3  0
  2  3  1  0
  2  4  1  0
  3  5  1  0
  4  6  1  0
  5  7  1  0
  6  8  1  0
  7  9  1  0
  8 10  1  0
M  END
>  <PUBCHEM_COMPOUND_CID>  (1) 
16715

>  <PUBCHEM_CONFORMER_RMSD>  (1) 
0.6

>  <PUBCHEM_CONFORMER_DIVERSEORDER>  (1) 
1
93
30
91
12
118
140
165
66
158
21
173
3
120
110
65
109
72
56
16
164
32
123
167
18
154
20
26
136
70
166
19
10
124
8
127
52
171
53
162
54
82
62
37
113
156
47
35
157
76
17
143
137
168
41
151
169
7
55
36
63
83
5
73
51
75
122
14
170
38
116
79
50
2
172
144
74
80
153
13
90
102
27
134
145
42
44
117
100
88
155
133
28
33
78
9
103
161
129
68
43
148
111
24
112
57
25
152
48
163
95
34
141
61
135
39
23
160
15
89
94
98
104
107
11
108
4
59
138
67
121
125
96
6
105
131
49
64
85
22
149
119
71
99
40
87
46
101
77
126
84
159
142
58
29
31
146
114
132
115
130
60
106
150
45
92
86
69
147
139
128
81
97

>  <PUBCHEM_MMFF94_PARTIAL_CHARGES>  (1) 
3
1 -0.56
10 0.36
8 0.2

>  <PUBCHEM_EFFECTIVE_ROTOR_COUNT>  (1) 
6

>  <PUBCHEM_PHARMACOPHORE_FEATURES>  (1) 
2
1 1 acceptor
1 9 hydrophobe

>  <PUBCHEM_HEAVY_ATOM_COUNT>  (1) 
10

>  <PUBCHEM_ATOM_DEF_STEREO_COUNT>  (1) 
0

>  <PUBCHEM_ATOM_UDEF_STEREO_COUNT>  (1) 
0

>  <PUBCHEM_BOND_DEF_STEREO_COUNT>  (1) 
0

>  <PUBCHEM_BOND_UDEF_STEREO_COUNT>  (1) 
0

>  <PUBCHEM_ISOTOPIC_ATOM_COUNT>  (1) 
0

>  <PUBCHEM_COMPONENT_COUNT>  (1) 
1

>  <PUBCHEM_CACTVS_TAUTO_COUNT>  (1) 
1

>  <PUBCHEM_CONFORMER_ID>  (1) 
0000414B00000001

>  <PUBCHEM_MMFF94_ENERGY>  (1) 
-2.1295

>  <PUBCHEM_FEATURE_SELFOVERLAP>  (1) 
10.148

>  <PUBCHEM_SHAPE_FINGERPRINT>  (1) 
11401426 45 10879992458635500177
114248 4 8502654809321030557
14123238 8 11963389648052366593
1420 363 18260554432999544067
14251718 22 10737290151559726497
15242439 84 17312823792278086569
17834072 33 18410856602631712717
17834076 25 12612752419397715984
187816 3 15719392832828648389
20645477 70 18341333280144245230
20719005 15 18410855464423148576
20767249 13 18130787862828134989
20767249 213 9727630609452118579
23402539 116 17560796628743228517
366044 4 18334012804508672643
42788 4 18410011039551129837
57483677 66 18410290315526041251

>  <PUBCHEM_SHAPE_MULTIPOLES>  (1) 
200.81
13.12
0.83
0.61
1.13
0.03
0
-2.48
0.01
-0.09
0
0.05
0.01
0.04

>  <PUBCHEM_SHAPE_SELFOVERLAP>  (1) 
355.524

>  <PUBCHEM_SHAPE_VOLUME>  (1) 
129.3

>  <PUBCHEM_COORDINATE_TYPE>  (1) 
2
5
10

$$$$
