16710
     RDKit          3D

 19 19  0  0  1  0  0  0  0  0999 V2000
    1.0339    1.4630   -1.5975 O   0  0  0  0  0  0  0  0  0  0  0  0
   -3.4714   -2.4566    0.3979 O   0  0  0  0  0  0  0  0  0  0  0  0
    3.8461   -1.3005    0.0107 N   0  0  0  0  0  0  0  0  0  0  0  0
    0.8456    1.1235   -0.2170 C   0  0  0  0  0  0  0  0  0  0  0  0
    2.1837    0.4884    0.2631 C   0  0  0  0  0  0  0  0  0  0  0  0
    0.6069    2.4468    0.5704 C   0  0  0  0  0  0  0  0  0  0  0  0
   -0.3253    0.1530   -0.0503 C   0  0  0  0  0  0  0  0  0  0  0  0
    2.5773   -0.7863   -0.4961 C   0  0  0  0  0  0  0  0  0  0  0  0
   -0.6667    3.2022    0.2357 C   0  0  0  0  0  0  0  0  0  0  0  0
   -0.6465   -0.2806    1.2154 C   0  0  0  0  0  0  0  0  0  0  0  0
   -1.0118   -0.2497   -1.1726 C   0  0  0  0  0  0  0  0  0  0  0  0
   -1.9092    2.8540    1.0037 C   0  0  0  0  0  0  0  0  0  0  0  0
    4.2495   -2.4952   -0.7318 C   0  0  0  0  0  0  0  0  0  0  0  0
    3.7454   -1.5993    1.4397 C   0  0  0  0  0  0  0  0  0  0  0  0
   -1.7136   -1.1661    1.3670 C   0  0  0  0  0  0  0  0  0  0  0  0
   -2.0789   -1.1351   -1.0210 C   0  0  0  0  0  0  0  0  0  0  0  0
   -2.4298   -1.5934    0.2488 C   0  0  0  0  0  0  0  0  0  0  0  0
   -0.6742    4.1851   -0.6791 C   0  0  0  0  0  0  0  0  0  0  0  0
   -4.1608   -2.8531   -0.7868 C   0  0  0  0  0  0  0  0  0  0  0  0
  1  4  1  0
  2 17  1  0
  2 19  1  0
  3  8  1  0
  3 13  1  0
  3 14  1  0
  4  5  1  0
  4  6  1  0
  4  7  1  0
  5  8  1  0
  6  9  1  0
  7 10  2  0
  7 11  1  0
  9 12  1  0
  9 18  2  0
 10 15  1  0
 11 16  2  0
 15 17  2  0
 16 17  1  0
M  END
>  <PUBCHEM_COMPOUND_CID>  (1) 
16710

>  <PUBCHEM_CONFORMER_RMSD>  (1) 
0.8

>  <PUBCHEM_CONFORMER_DIVERSEORDER>  (1) 
3
122
100
130
89
62
87
57
135
114
26
129
133
116
88
128
2
69
134
115
132
41
73
59
99
101
106
103
105
9
93
52
53
19
110
67
24
78
104
17
111
108
65
118
123
98
90
28
71
107
131
5
120
32
85
54
117
72
80
97
60
39
45
76
79
33
10
56
44
1
4
68
12
121
82
22
35
42
25
34
8
11
95
84
70
126
36
20
7
37
29
94
61
109
86
38
18
21
16
48
43
23
91
77
102
55
112
46
64
74
81
30
124
31
66
75
51
50
119
13
49
6
113
47
27
92
96
127
14
58
83
15
63
125
40

>  <PUBCHEM_MMFF94_PARTIAL_CHARGES>  (1) 
25
1 -0.68
10 -0.15
11 -0.15
12 0.14
13 0.27
14 0.27
15 -0.15
16 -0.15
17 0.08
18 -0.3
19 0.28
2 -0.36
26 0.4
27 0.15
28 0.15
3 -0.81
38 0.15
39 0.15
4 0.42
40 0.15
41 0.15
6 0.14
7 -0.14
8 0.27
9 -0.28

>  <PUBCHEM_EFFECTIVE_ROTOR_COUNT>  (1) 
7

>  <PUBCHEM_PHARMACOPHORE_FEATURES>  (1) 
5
1 1 acceptor
1 1 donor
1 2 acceptor
1 3 cation
6 7 10 11 15 16 17 rings

>  <PUBCHEM_HEAVY_ATOM_COUNT>  (1) 
19

>  <PUBCHEM_ATOM_DEF_STEREO_COUNT>  (1) 
0

>  <PUBCHEM_ATOM_UDEF_STEREO_COUNT>  (1) 
1

>  <PUBCHEM_BOND_DEF_STEREO_COUNT>  (1) 
0

>  <PUBCHEM_BOND_UDEF_STEREO_COUNT>  (1) 
0

>  <PUBCHEM_ISOTOPIC_ATOM_COUNT>  (1) 
0

>  <PUBCHEM_COMPONENT_COUNT>  (1) 
1

>  <PUBCHEM_CACTVS_TAUTO_COUNT>  (1) 
1

>  <PUBCHEM_CONFORMER_ID>  (1) 
0000414600000003

>  <PUBCHEM_MMFF94_ENERGY>  (1) 
65.3311

>  <PUBCHEM_FEATURE_SELFOVERLAP>  (1) 
25.371

>  <PUBCHEM_SHAPE_FINGERPRINT>  (1) 
11265709 11 18410577318141258914
11322862 65 17762343517931423030
11578080 2 17560503063053928288
11725454 13 13828186520289662371
121448 382 17764846031923874077
12363563 72 18409448098510039622
12553582 1 18338532935602425786
12788726 201 18263086517783143362
13004483 165 18341601633779380586
13052359 8 18049435950861283501
13134695 92 18266168625127759743
13533116 47 17976264848683801779
13681431 1 18191586560808565868
13911987 19 17684671096358358556
13955234 65 17762901365717242195
14178000 15 18267865162979567553
14178342 30 18119797033429397026
14866123 147 17978790112684664995
15042514 8 18267313032054007369
15422964 175 18340479088320883650
15906896 17 18045794381176787360
16945 1 18194401082931940632
17539 30 18338792295580961220
1813 80 18129676299332749086
19591789 44 17401771817654092875
20626108 58 18058444477488155527
20645477 70 18118959441386329935
20671657 53 18341053029153955975
20832881 197 18260260876385773259
21296965 67 18412259570947560858
21452121 199 18335976579741644472
2255824 54 17763747993374337309
23402539 116 18200027327487578933
23419403 2 17757225553408134164
23526113 38 17969776582679148251
23558518 356 18261395490944419288
23559900 14 17835233824655684915
23598288 3 18046092387867677084
23598291 2 17554641704215930785
23728640 28 17977103461931656642
257057 1 18411702114157207840
3060560 45 17618504723664706404
3091708 16 9063749899442848529
495365 180 17473536332198739249
6443956 14 18337387248760047567
7364860 26 17905888428496570545
81228 2 18337659811679638552

>  <PUBCHEM_SHAPE_MULTIPOLES>  (1) 
374.29
6.2
4.63
1.33
5.1
3.77
0.08
-8.22
-0.08
-3.65
-0.46
0.02
-0.13
-0.43

>  <PUBCHEM_SHAPE_SELFOVERLAP>  (1) 
754.454

>  <PUBCHEM_SHAPE_VOLUME>  (1) 
221.7

>  <PUBCHEM_COORDINATE_TYPE>  (1) 
2
5
10

$$$$
