16717
     RDKit          3D

 13 14  0  0  0  0  0  0  0  0999 V2000
    3.4920   -1.8439    0.0001 N   0  0  0  0  0  0  0  0  0  0  0  0
    0.4275    0.2386    0.0000 C   0  0  0  0  0  0  0  0  0  0  0  0
   -1.0094    0.0683    0.0000 C   0  0  0  0  0  0  0  0  0  0  0  0
    1.2624   -0.8788    0.0001 C   0  0  0  0  0  0  0  0  0  0  0  0
    0.9776    1.5204    0.0000 C   0  0  0  0  0  0  0  0  0  0  0  0
    2.6475   -0.7144   -0.0001 C   0  0  0  0  0  0  0  0  0  0  0  0
   -1.7021   -0.0137    1.2079 C   0  0  0  0  0  0  0  0  0  0  0  0
   -1.7019   -0.0137   -1.2080 C   0  0  0  0  0  0  0  0  0  0  0  0
    2.3627    1.6848    0.0000 C   0  0  0  0  0  0  0  0  0  0  0  0
    3.1977    0.5674    0.0000 C   0  0  0  0  0  0  0  0  0  0  0  0
   -3.0873   -0.1777    1.2079 C   0  0  0  0  0  0  0  0  0  0  0  0
   -3.0871   -0.1776   -1.2080 C   0  0  0  0  0  0  0  0  0  0  0  0
   -3.7797   -0.2597    0.0000 C   0  0  0  0  0  0  0  0  0  0  0  0
  1  6  1  0
  2  3  1  0
  2  4  2  0
  2  5  1  0
  3  7  2  0
  3  8  1  0
  4  6  1  0
  5  9  2  0
  6 10  2  0
  7 11  1  0
  8 12  2  0
  9 10  1  0
 11 13  2  0
 12 13  1  0
M  END
>  <PUBCHEM_COMPOUND_CID>  (1) 
16717

>  <PUBCHEM_CONFORMER_RMSD>  (1) 
0.4

>  <PUBCHEM_CONFORMER_DIVERSEORDER>  (1) 
1
2

>  <PUBCHEM_MMFF94_PARTIAL_CHARGES>  (1) 
22
1 -0.9
10 -0.15
11 -0.15
12 -0.15
13 -0.15
14 0.15
15 0.15
16 0.15
17 0.15
18 0.15
19 0.15
20 0.15
21 0.15
22 0.15
23 0.4
24 0.4
4 -0.15
5 -0.15
6 0.1
7 -0.15
8 -0.15
9 -0.15

>  <PUBCHEM_EFFECTIVE_ROTOR_COUNT>  (1) 
1

>  <PUBCHEM_PHARMACOPHORE_FEATURES>  (1) 
4
1 1 cation
1 1 donor
6 2 4 5 6 9 10 rings
6 3 7 8 11 12 13 rings

>  <PUBCHEM_HEAVY_ATOM_COUNT>  (1) 
13

>  <PUBCHEM_ATOM_DEF_STEREO_COUNT>  (1) 
0

>  <PUBCHEM_ATOM_UDEF_STEREO_COUNT>  (1) 
0

>  <PUBCHEM_BOND_DEF_STEREO_COUNT>  (1) 
0

>  <PUBCHEM_BOND_UDEF_STEREO_COUNT>  (1) 
0

>  <PUBCHEM_ISOTOPIC_ATOM_COUNT>  (1) 
0

>  <PUBCHEM_COMPONENT_COUNT>  (1) 
1

>  <PUBCHEM_CACTVS_TAUTO_COUNT>  (1) 
1

>  <PUBCHEM_CONFORMER_ID>  (1) 
0000414D00000001

>  <PUBCHEM_MMFF94_ENERGY>  (1) 
51.1381

>  <PUBCHEM_FEATURE_SELFOVERLAP>  (1) 
20.297

>  <PUBCHEM_SHAPE_FINGERPRINT>  (1) 
10219947 1 18341895186240687182
10465860 71 15719402710873634446
10608611 8 17822284717032629733
11031198 65 18261960759731826644
11471102 20 18408601465639013868
11578080 2 17415243249003587777
12236239 1 17775568658280064961
12932764 1 17847061103294109817
13296908 3 17894631461021586891
13538477 17 17418088875363742703
13581323 91 15140951889863398481
14144814 61 17775006803585469677
15219456 202 17967531302414925357
15669948 3 16414912066930642605
15775835 57 17775291602809098705
16945 1 18410574032802520128
17844478 74 17894916234723253917
1813 80 17986408706589963662
18175812 5 17821449088247974919
18186145 218 18411139138491764607
19049666 15 17677600986860681909
19422 9 17988925591278768383
200 152 18272643554788466655
20201158 50 18113336409782025842
20279233 1 17748823042176575259
20281407 28 17313111851502939723
204376 136 18122621927861881016
20645464 45 17458619068808035121
20645477 70 18409440367209931703
20715346 28 17749391511257962777
20871998 22 18056486050047843926
21639500 275 18268140036333393260
21730867 7 18260830431650125140
2255824 54 18343023324221019532
23402539 116 16298652975753119903
23557571 272 16805611416116032037
23559900 14 16877936114787127074
3248919 1 17275107240720929943
474 4 17699837716438334664
57812782 119 17894625972053311065
581208 293 18411132580387939928
6049 1 17748829617919458477
77492 1 17703793643104564037

>  <PUBCHEM_SHAPE_MULTIPOLES>  (1) 
262.55
6.48
1.35
1.07
0.87
0.04
0
-1.16
0
-1.72
0
1.09
-0.02
0

>  <PUBCHEM_SHAPE_SELFOVERLAP>  (1) 
570.786

>  <PUBCHEM_SHAPE_VOLUME>  (1) 
143.1

>  <PUBCHEM_COORDINATE_TYPE>  (1) 
2
5
10

$$$$
