16742
     RDKit          3D

  8  7  0  0  0  0  0  0  0  0999 V2000
   -0.0958   -2.1769   -0.2069 Cl  0  0  0  0  0  0  0  0  0  0  0  0
    2.7008   -0.6266    0.0064 Cl  0  0  0  0  0  0  0  0  0  0  0  0
    1.2903    1.9244    0.2316 Cl  0  0  0  0  0  0  0  0  0  0  0  0
   -2.2645   -0.5214    0.5039 O   0  0  0  0  0  0  0  0  0  0  0  0
   -1.4993    1.3880   -0.4677 O   0  0  0  0  0  0  0  0  0  0  0  0
    0.0004   -0.4493   -0.0554 C   0  0  0  0  0  0  0  0  0  0  0  0
   -1.3044    0.2584   -0.0476 C   0  0  0  0  0  0  0  0  0  0  0  0
    1.1724    0.2034    0.0357 C   0  0  0  0  0  0  0  0  0  0  0  0
  1  6  1  0
  2  8  1  0
  3  8  1  0
  4  7  1  0
  5  7  2  0
  6  7  1  0
  6  8  2  3
M  END
>  <PUBCHEM_COMPOUND_CID>  (1) 
16742

>  <PUBCHEM_CONFORMER_RMSD>  (1) 
0.4

>  <PUBCHEM_CONFORMER_DIVERSEORDER>  (1) 
1
3
2

>  <PUBCHEM_MMFF94_PARTIAL_CHARGES>  (1) 
9
1 -0.14
2 -0.14
3 -0.14
4 -0.65
5 -0.57
6 0.15
7 0.71
8 0.28
9 0.5

>  <PUBCHEM_EFFECTIVE_ROTOR_COUNT>  (1) 
1

>  <PUBCHEM_PHARMACOPHORE_FEATURES>  (1) 
3
1 4 acceptor
1 5 acceptor
3 4 5 7 anion

>  <PUBCHEM_HEAVY_ATOM_COUNT>  (1) 
8

>  <PUBCHEM_ATOM_DEF_STEREO_COUNT>  (1) 
0

>  <PUBCHEM_ATOM_UDEF_STEREO_COUNT>  (1) 
0

>  <PUBCHEM_BOND_DEF_STEREO_COUNT>  (1) 
0

>  <PUBCHEM_BOND_UDEF_STEREO_COUNT>  (1) 
0

>  <PUBCHEM_ISOTOPIC_ATOM_COUNT>  (1) 
0

>  <PUBCHEM_COMPONENT_COUNT>  (1) 
1

>  <PUBCHEM_CACTVS_TAUTO_COUNT>  (1) 
1

>  <PUBCHEM_CONFORMER_ID>  (1) 
0000416600000001

>  <PUBCHEM_MMFF94_ENERGY>  (1) 
15.9495

>  <PUBCHEM_FEATURE_SELFOVERLAP>  (1) 
15.28

>  <PUBCHEM_SHAPE_FINGERPRINT>  (1) 
16714656 1 18409171012810018302
20096714 4 18411416245544822392
21040471 1 18267584783008553256
23552423 10 17974285731520341966
29004967 10 18270402685445107538
5084963 1 18131345332213480011

>  <PUBCHEM_SHAPE_MULTIPOLES>  (1) 
158.51
2.93
2.1
0.67
0.53
0.17
0
-0.01
-0.21
0.23
0.11
-0.04
-0.01
0.19

>  <PUBCHEM_SHAPE_SELFOVERLAP>  (1) 
280.633

>  <PUBCHEM_SHAPE_VOLUME>  (1) 
104.5

>  <PUBCHEM_COORDINATE_TYPE>  (1) 
2
5
10

$$$$
