16740
     RDKit          3D

 32 35  0  0  1  0  0  0  0  0999 V2000
   -4.8679    3.8418   -2.2779 Cl  0  0  0  0  0  0  0  0  0  0  0  0
    1.7629   -3.1227    0.8849 F   0  0  0  0  0  0  0  0  0  0  0  0
   -2.8269   -1.7152   -1.7664 O   0  0  0  0  0  0  0  0  0  0  0  0
    5.4038   -1.2604   -1.7098 O   0  0  0  0  0  0  0  0  0  0  0  0
    0.6260   -1.4787   -0.2346 N   0  0  0  0  0  0  0  0  0  0  0  0
   -3.9581   -1.3706    0.2183 N   0  0  0  0  0  0  0  0  0  0  0  0
   -1.9673   -0.0469   -0.2999 C   0  0  0  0  0  0  0  0  0  0  0  0
   -1.2801   -0.5032    1.0105 C   0  0  0  0  0  0  0  0  0  0  0  0
   -0.9119    0.0525   -1.4286 C   0  0  0  0  0  0  0  0  0  0  0  0
   -0.3721   -1.7239    0.8132 C   0  0  0  0  0  0  0  0  0  0  0  0
   -0.0196   -1.1920   -1.5213 C   0  0  0  0  0  0  0  0  0  0  0  0
   -2.9478   -1.1227   -0.6930 C   0  0  0  0  0  0  0  0  0  0  0  0
   -2.6748    1.3029   -0.0989 C   0  0  0  0  0  0  0  0  0  0  0  0
   -4.5476   -0.4136    1.1495 C   0  0  0  0  0  0  0  0  0  0  0  0
   -4.5738   -2.6821    0.3581 C   0  0  0  0  0  0  0  0  0  0  0  0
    1.5279   -2.6238   -0.3594 C   0  0  0  0  0  0  0  0  0  0  0  0
   -5.7755   -1.1260    1.6989 C   0  0  0  0  0  0  0  0  0  0  0  0
   -5.3689   -2.5934    1.6515 C   0  0  0  0  0  0  0  0  0  0  0  0
    2.8589   -2.1980   -0.9779 C   0  0  0  0  0  0  0  0  0  0  0  0
   -3.3707    1.8898   -1.1559 C   0  0  0  0  0  0  0  0  0  0  0  0
   -2.6190    1.9420    1.1397 C   0  0  0  0  0  0  0  0  0  0  0  0
    3.5544   -1.0990   -0.1679 C   0  0  0  0  0  0  0  0  0  0  0  0
   -4.0106    3.1159   -0.9742 C   0  0  0  0  0  0  0  0  0  0  0  0
   -3.2589    3.1679    1.3213 C   0  0  0  0  0  0  0  0  0  0  0  0
   -3.9548    3.7549    0.2645 C   0  0  0  0  0  0  0  0  0  0  0  0
    4.9215   -0.7183   -0.7182 C   0  0  0  0  0  0  0  0  0  0  0  0
    5.7069    0.3351   -0.0139 C   0  0  0  0  0  0  0  0  0  0  0  0
    5.1855    0.9496    1.1248 C   0  0  0  0  0  0  0  0  0  0  0  0
    6.9633    0.7060   -0.4930 C   0  0  0  0  0  0  0  0  0  0  0  0
    5.9203    1.9349    1.7840 C   0  0  0  0  0  0  0  0  0  0  0  0
    7.6982    1.6914    0.1664 C   0  0  0  0  0  0  0  0  0  0  0  0
    7.1766    2.3058    1.3049 C   0  0  0  0  0  0  0  0  0  0  0  0
  1 23  1  0
  2 16  1  0
  3 12  2  0
  4 26  2  0
  5 10  1  0
  5 11  1  0
  5 16  1  0
  6 12  1  0
  6 14  1  0
  6 15  1  0
  7  8  1  0
  7  9  1  0
  7 12  1  0
  7 13  1  0
  8 10  1  0
  9 11  1  0
 13 20  2  0
 13 21  1  0
 14 17  1  0
 15 18  1  0
 16 19  1  0
 17 18  1  0
 19 22  1  0
 20 23  1  0
 21 24  2  0
 22 26  1  0
 23 25  2  0
 24 25  1  0
 26 27  1  0
 27 28  2  0
 27 29  1  0
 28 30  1  0
 29 31  2  0
 30 32  2  0
 31 32  1  0
M  END
>  <PUBCHEM_COMPOUND_CID>  (1) 
16740

>  <PUBCHEM_CONFORMER_RMSD>  (1) 
1

>  <PUBCHEM_CONFORMER_DIVERSEORDER>  (1) 
4
68
233
128
289
176
311
310
8
232
131
105
236
181
348
297
282
259
227
329
61
6
138
40
127
170
312
90
249
248
56
192
214
290
206
10
279
222
125
323
252
38
191
351
296
66
272
220
153
333
197
109
339
11
195
331
5
285
309
161
254
337
179
253
180
166
110
29
234
143
338
341
325
240
13
84
276
172
286
188
162
335
104
93
303
116
146
82
201
246
183
71
178
306
95
343
319
115
295
322
340
305
113
301
76
34
281
241
308
203
204
107
198
86
287
277
332
53
209
265
149
262
224
315
137
26
118
258
140
160
270
96
54
25
320
150
91
239
237
344
32
321
260
144
101
89
102
154
24
304
307
255
2
328
221
218
182
37
199
300
81
326
251
334
45
223
39
148
299
156
65
152
267
184
342
33
114
67
139
327
200
16
247
42
92
142
52
62
171
103
268
19
173
231
47
330
30
292
245
230
345
318
228
80
133
88
51
134
336
316
244
72
57
207
185
275
126
151
242
174
123
74
257
273
349
94
3
175
278
302
157
155
229
100
243
21
135
48
350
324
64
193
169
87
205
219
190
314
202
97
225
256
136
194
83
294
17
212
347
288
317
78
283
60
1
106
119
50
59
168
18
122
163
261
235
120
9
217
196
215
158
117
186
79
250
77
346
121
313
141
280
20
269
75
284
167
189
238
266
132
211
27
43
49
165
124
22
208
14
264
108
55
271
129
99
210
98
274
213
226
28
145
216
130
73
85
263
23
58
164
293
291
69
41
70
31
159
15
147
46
187
298
44
12
111
35
177
7
63
36
112

>  <PUBCHEM_MMFF94_PARTIAL_CHARGES>  (1) 
36
1 -0.18
10 0.27
11 0.27
12 0.57
13 -0.14
14 0.3
15 0.3
16 0.61
2 -0.34
20 -0.15
21 -0.15
22 0.06
23 0.18
24 -0.15
25 -0.15
26 0.42
27 0.09
28 -0.15
29 -0.15
3 -0.57
30 -0.15
31 -0.15
32 -0.15
4 -0.57
5 -0.81
52 0.15
53 0.15
56 0.15
57 0.15
58 0.15
59 0.15
6 -0.66
60 0.15
61 0.15
62 0.15
7 0.2

>  <PUBCHEM_EFFECTIVE_ROTOR_COUNT>  (1) 
10.2

>  <PUBCHEM_PHARMACOPHORE_FEATURES>  (1) 
7
1 3 acceptor
1 4 acceptor
1 5 cation
5 6 14 15 17 18 rings
6 13 20 21 23 24 25 rings
6 27 28 29 30 31 32 rings
6 5 7 8 9 10 11 rings

>  <PUBCHEM_HEAVY_ATOM_COUNT>  (1) 
32

>  <PUBCHEM_ATOM_DEF_STEREO_COUNT>  (1) 
0

>  <PUBCHEM_ATOM_UDEF_STEREO_COUNT>  (1) 
1

>  <PUBCHEM_BOND_DEF_STEREO_COUNT>  (1) 
0

>  <PUBCHEM_BOND_UDEF_STEREO_COUNT>  (1) 
0

>  <PUBCHEM_ISOTOPIC_ATOM_COUNT>  (1) 
0

>  <PUBCHEM_COMPONENT_COUNT>  (1) 
1

>  <PUBCHEM_CACTVS_TAUTO_COUNT>  (1) 
2

>  <PUBCHEM_CONFORMER_ID>  (1) 
0000416400000004

>  <PUBCHEM_MMFF94_ENERGY>  (1) 
97.3688

>  <PUBCHEM_FEATURE_SELFOVERLAP>  (1) 
35.523

>  <PUBCHEM_SHAPE_FINGERPRINT>  (1) 
10290309 65 18202006499519769038
10369192 42 17131563824371748038
10930396 42 18261111907312677683
11578080 2 18337950074475649337
12633257 1 16805329894574890350
12664476 115 18131636690616872624
12741549 16 17313667179029199215
12925494 130 18269556044164892057
13073987 5 18333729113940611066
13914758 101 13334999625994462919
14068700 675 17532377663263945323
14190465 44 18118110386517817649
14400156 147 15505776591316717881
15082195 135 17772450327313202135
15183329 4 17203328931811895632
15274700 21 18200315545066981779
15575132 122 18273491282295261278
16114785 44 18334018251429063419
18393751 57 18264209287097313586
18470217 77 18187083944966583341
18608769 82 18199752612562636594
21033648 144 18266175037361484765
23569914 2 17905283465754425964
249057 3 9799698082310804283
27425 322 17551796915959902405
2747138 104 18262815080008522594
283562 15 18333734607351924067
2838139 119 18055632815770678668
44317340 157 17918000464791125038
5081480 168 15626214737028213034
5104073 3 18188487969928340954
550186 72 18412828009927689497
57527585 21 16987435296734424889
613672 6 12180114351171096322
6697151 62 17696468482378156206
6703917 75 18041857211566239870

>  <PUBCHEM_SHAPE_MULTIPOLES>  (1) 
631.44
18.67
4.5
1.83
34.52
2.63
-0.17
9.37
4.38
-6.07
-0.21
-1.07
0.53
4.47

>  <PUBCHEM_SHAPE_SELFOVERLAP>  (1) 
1343.949

>  <PUBCHEM_SHAPE_VOLUME>  (1) 
351.8

>  <PUBCHEM_COORDINATE_TYPE>  (1) 
2
5
10

$$$$
