16752
     RDKit          3D

 36 40  0  0  1  0  0  0  0  0999 V2000
    3.0158    0.4687    1.2142 F   0  0  0  0  0  0  0  0  0  0  0  0
   -0.9876   -1.1740    1.6879 O   0  0  0  0  0  0  0  0  0  0  0  0
    1.6906    1.3465   -2.0096 O   0  0  0  0  0  0  0  0  0  0  0  0
   -2.9365   -2.3535   -0.6730 O   0  0  0  0  0  0  0  0  0  0  0  0
   -4.1807    0.0346   -0.0815 O   0  0  0  0  0  0  0  0  0  0  0  0
    7.5302    2.2437    1.7264 O   0  0  0  0  0  0  0  0  0  0  0  0
   -4.1699    2.3361   -0.1302 O   0  0  0  0  0  0  0  0  0  0  0  0
   -8.9830    0.9712    0.3286 N   0  0  0  0  0  0  0  0  0  0  0  0
    0.2302   -0.9083   -0.4226 C   0  0  0  0  0  0  0  0  0  0  0  0
    1.4553   -1.6474    0.1588 C   0  0  0  0  0  0  0  0  0  0  0  0
    2.7911   -1.1880   -0.4460 C   0  0  0  0  0  0  0  0  0  0  0  0
    2.9816    0.3424   -0.1660 C   0  0  0  0  0  0  0  0  0  0  0  0
   -0.9006   -1.6506    0.3494 C   0  0  0  0  0  0  0  0  0  0  0  0
    1.0713   -3.1235    0.0586 C   0  0  0  0  0  0  0  0  0  0  0  0
    0.4001    0.5904   -0.0983 C   0  0  0  0  0  0  0  0  0  0  0  0
   -0.4627   -3.1455    0.2935 C   0  0  0  0  0  0  0  0  0  0  0  0
    1.7394    1.1761   -0.6017 C   0  0  0  0  0  0  0  0  0  0  0  0
    4.3820    0.8680   -0.6743 C   0  0  0  0  0  0  0  0  0  0  0  0
    3.9547   -2.0097    0.1393 C   0  0  0  0  0  0  0  0  0  0  0  0
    0.0549   -1.1174   -1.9524 C   0  0  0  0  0  0  0  0  0  0  0  0
    5.3125   -1.5137   -0.3433 C   0  0  0  0  0  0  0  0  0  0  0  0
    5.4600   -0.0390   -0.0688 C   0  0  0  0  0  0  0  0  0  0  0  0
   -2.2703   -1.4235   -0.2208 C   0  0  0  0  0  0  0  0  0  0  0  0
   -0.8304   -3.9772    1.5189 C   0  0  0  0  0  0  0  0  0  0  0  0
    4.5454    0.8417   -2.2114 C   0  0  0  0  0  0  0  0  0  0  0  0
    4.5833    2.3168   -0.2531 C   0  0  0  0  0  0  0  0  0  0  0  0
    6.4638    0.4073    0.7025 C   0  0  0  0  0  0  0  0  0  0  0  0
   -2.7746    0.0038   -0.2057 C   0  0  0  0  0  0  0  0  0  0  0  0
    5.5799    2.7672    0.5152 C   0  0  0  0  0  0  0  0  0  0  0  0
    6.6010    1.8399    1.0355 C   0  0  0  0  0  0  0  0  0  0  0  0
   -4.7617    1.2705   -0.0556 C   0  0  0  0  0  0  0  0  0  0  0  0
   -6.2367    1.1658    0.0788 C   0  0  0  0  0  0  0  0  0  0  0  0
   -6.9207    2.1695    0.7239 C   0  0  0  0  0  0  0  0  0  0  0  0
   -6.8781    0.0682   -0.4457 C   0  0  0  0  0  0  0  0  0  0  0  0
   -8.2952    2.0250    0.8228 C   0  0  0  0  0  0  0  0  0  0  0  0
   -8.2546    0.0178   -0.2944 C   0  0  0  0  0  0  0  0  0  0  0  0
  1 12  1  0
  2 13  1  0
  3 17  1  0
  4 23  2  0
  5 28  1  0
  5 31  1  0
  6 30  2  0
  7 31  2  0
  8 35  2  0
  8 36  1  0
  9 10  1  0
  9 13  1  0
  9 15  1  0
  9 20  1  0
 10 11  1  0
 10 14  1  0
 11 12  1  0
 11 19  1  0
 12 17  1  0
 12 18  1  0
 13 16  1  0
 13 23  1  0
 14 16  1  0
 15 17  1  0
 16 24  1  0
 18 22  1  0
 18 25  1  0
 18 26  1  0
 19 21  1  0
 21 22  1  0
 22 27  2  0
 23 28  1  0
 26 29  2  0
 27 30  1  0
 29 30  1  0
 31 32  1  0
 32 33  2  0
 32 34  1  0
 33 35  1  0
 34 36  2  0
M  END
>  <PUBCHEM_COMPOUND_CID>  (1) 
16752

>  <PUBCHEM_CONFORMER_RMSD>  (1) 
1

>  <PUBCHEM_CONFORMER_DIVERSEORDER>  (1) 
1
20
8
17
24
18
3
13
22
19
14
21
7
10
5
16
9
2
11
15
23
12
6
4

>  <PUBCHEM_MMFF94_PARTIAL_CHARGES>  (1) 
35
1 -0.34
12 0.34
13 0.34
17 0.28
18 0.28
2 -0.68
21 0.14
22 -0.28
23 0.45
26 -0.29
27 -0.14
28 0.34
29 -0.14
3 -0.68
30 0.54
31 0.63
32 0.09
33 -0.15
34 -0.15
35 0.16
36 0.16
4 -0.57
5 -0.43
58 0.4
59 0.15
6 -0.57
60 0.4
61 0.15
64 0.15
65 0.15
66 0.15
67 0.15
68 0.15
7 -0.57
8 -0.62

>  <PUBCHEM_EFFECTIVE_ROTOR_COUNT>  (1) 
6.4

>  <PUBCHEM_PHARMACOPHORE_FEATURES>  (1) 
13
1 2 acceptor
1 2 donor
1 3 acceptor
1 3 donor
1 4 acceptor
1 6 acceptor
1 7 acceptor
1 8 acceptor
5 9 10 13 14 16 rings
6 11 12 18 19 21 22 rings
6 18 22 26 27 29 30 rings
6 8 32 33 34 35 36 rings
6 9 10 11 12 15 17 rings

>  <PUBCHEM_HEAVY_ATOM_COUNT>  (1) 
36

>  <PUBCHEM_ATOM_DEF_STEREO_COUNT>  (1) 
8

>  <PUBCHEM_ATOM_UDEF_STEREO_COUNT>  (1) 
0

>  <PUBCHEM_BOND_DEF_STEREO_COUNT>  (1) 
0

>  <PUBCHEM_BOND_UDEF_STEREO_COUNT>  (1) 
0

>  <PUBCHEM_ISOTOPIC_ATOM_COUNT>  (1) 
0

>  <PUBCHEM_COMPONENT_COUNT>  (1) 
1

>  <PUBCHEM_CACTVS_TAUTO_COUNT>  (1) 
6

>  <PUBCHEM_CONFORMER_ID>  (1) 
0000417000000001

>  <PUBCHEM_MMFF94_ENERGY>  (1) 
128.0102

>  <PUBCHEM_FEATURE_SELFOVERLAP>  (1) 
66.074

>  <PUBCHEM_SHAPE_FINGERPRINT>  (1) 
10 15 18113899372673317345
10411042 1 17689435988843192718
10673678 19 18272374135606237911
11136131 41 18041835087651674067
11456790 92 18408879629639097248
11578080 2 17344606335957855248
12035758 1 17530677714817545358
12422481 6 17313101930291958318
12539765 74 18060425685750841647
12838862 33 18336531773443649989
12925494 130 18267580389489391352
13540713 5 17170686754907625014
13673619 4 10881392141174636830
13782708 43 11530756037416269657
13811026 1 18411420630685248411
14190465 44 18189618409172328057
14565420 104 18187646869223852907
14849402 71 18341611538475424217
15183329 4 18060427893411315409
15238133 3 18334299811999119324
15510800 12 11963659002642197713
1577012 14 18343579625897421669
15840311 113 18341051834883645989
16126227 98 18341894113110669491
18608769 82 18340205289152234075
19302320 297 18260550060660332084
19611394 137 17969800738524754859
20157964 124 18343303639261375534
20554085 129 18059564806864100810
20715895 44 18411139156251778640
21033648 29 18261115200835428482
21298829 104 18411698811469717020
21403212 168 17749382668168155299
21424621 283 18412824690012233321
21521721 280 18412265013124727931
22224240 67 18335137588208892517
23559900 14 18339094769776694518
24771293 8 18410288155263051908
2838139 119 18412820262001457389
335352 9 18336271159175778782
3633792 109 18131074818652899594
3711267 37 17845664642956840657
3918712 181 18341325618207705361
4073 2 18333739009988489843
4093350 32 17704072872024304676
4173938 188 18339648936770039059
4340502 62 18408040697882387516
4516262 110 18337662045784923151
5104073 3 17242170374069532160
5372103 7 15768910507627791370
5385378 56 18334293124123369315
563151 248 15213021578692906185
57527293 21 16226332641892572918
5758199 1 18410576172059996649
59682541 35 18187373130210735809
99344 41 18409448073262150493

>  <PUBCHEM_SHAPE_MULTIPOLES>  (1) 
693.39
22.08
3.53
1.32
36.25
2.05
-0.27
-20.08
4.76
-1.06
1.15
-1.36
-0.1
0.3

>  <PUBCHEM_SHAPE_SELFOVERLAP>  (1) 
1518.549

>  <PUBCHEM_SHAPE_VOLUME>  (1) 
375.2

>  <PUBCHEM_COORDINATE_TYPE>  (1) 
2
5
10

$$$$
