16756
     RDKit          3D

 23 25  0  0  0  0  0  0  0  0999 V2000
   -1.3237    0.0811    2.6066 O   0  0  0  0  0  0  0  0  0  0  0  0
    3.5825    0.1379   -0.4886 N   0  0  0  0  0  0  0  0  0  0  0  0
    5.1038    0.2758   -0.6405 C   0  0  0  0  0  0  0  0  0  0  0  0
    3.1947   -1.3005   -0.8584 C   0  0  0  0  0  0  0  0  0  0  0  0
    3.1599    0.4578    0.8973 C   0  0  0  0  0  0  0  0  0  0  0  0
   -0.9365    0.0711    1.2378 C   0  0  0  0  0  0  0  0  0  0  0  0
    2.9151    1.0856   -1.4950 C   0  0  0  0  0  0  0  0  0  0  0  0
   -1.6833    1.1810    0.5100 C   0  0  0  0  0  0  0  0  0  0  0  0
   -1.4655   -1.1706    0.5279 C   0  0  0  0  0  0  0  0  0  0  0  0
   -2.5248    0.6364   -0.4873 C   0  0  0  0  0  0  0  0  0  0  0  0
   -2.3913   -0.8047   -0.4764 C   0  0  0  0  0  0  0  0  0  0  0  0
    5.5050    1.7071   -0.3584 C   0  0  0  0  0  0  0  0  0  0  0  0
    3.8403   -2.2578    0.1194 C   0  0  0  0  0  0  0  0  0  0  0  0
    1.7108    0.3191    1.0142 C   0  0  0  0  0  0  0  0  0  0  0  0
    0.5194    0.2066    1.1148 C   0  0  0  0  0  0  0  0  0  0  0  0
   -1.6230    2.5493    0.7284 C   0  0  0  0  0  0  0  0  0  0  0  0
   -1.1515   -2.5011    0.7625 C   0  0  0  0  0  0  0  0  0  0  0  0
   -3.3071    1.4619   -1.2788 C   0  0  0  0  0  0  0  0  0  0  0  0
   -3.0066   -1.7712   -1.2558 C   0  0  0  0  0  0  0  0  0  0  0  0
   -2.4116    3.3801   -0.0696 C   0  0  0  0  0  0  0  0  0  0  0  0
   -1.7720   -3.4740   -0.0232 C   0  0  0  0  0  0  0  0  0  0  0  0
   -3.2446    2.8418   -1.0640 C   0  0  0  0  0  0  0  0  0  0  0  0
   -2.6901   -3.1126   -1.0228 C   0  0  0  0  0  0  0  0  0  0  0  0
  1  6  1  0
  2  3  1  0
  2  4  1  0
  2  5  1  0
  2  7  1  0
  3 12  1  0
  4 13  1  0
  5 14  1  0
  6  8  1  0
  6  9  1  0
  6 15  1  0
  8 10  2  0
  8 16  1  0
  9 11  2  0
  9 17  1  0
 10 11  1  0
 10 18  1  0
 11 19  1  0
 14 15  3  0
 16 20  2  0
 17 21  2  0
 18 22  2  0
 19 23  2  0
 20 22  1  0
 21 23  1  0
M  CHG  1   2   1
M  END
>  <PUBCHEM_COMPOUND_CID>  (1) 
16756

>  <PUBCHEM_CONFORMER_RMSD>  (1) 
0.6

>  <PUBCHEM_CONFORMER_DIVERSEORDER>  (1) 
1
6
3
4
2
5

>  <PUBCHEM_MMFF94_PARTIAL_CHARGES>  (1) 
28
1 -0.68
14 -0.2
15 -0.2
16 -0.15
17 -0.15
18 -0.15
19 -0.15
2 -1.01
20 -0.15
21 -0.15
22 -0.15
23 -0.15
3 0.5
39 0.15
4 0.5
40 0.15
41 0.15
42 0.15
43 0.4
44 0.15
45 0.15
46 0.15
47 0.15
5 0.7
6 0.77
7 0.5
8 -0.14
9 -0.14

>  <PUBCHEM_EFFECTIVE_ROTOR_COUNT>  (1) 
3.2

>  <PUBCHEM_PHARMACOPHORE_FEATURES>  (1) 
6
1 1 acceptor
1 1 donor
1 2 cation
5 6 8 9 10 11 rings
6 8 10 16 18 20 22 rings
6 9 11 17 19 21 23 rings

>  <PUBCHEM_HEAVY_ATOM_COUNT>  (1) 
23

>  <PUBCHEM_ATOM_DEF_STEREO_COUNT>  (1) 
0

>  <PUBCHEM_ATOM_UDEF_STEREO_COUNT>  (1) 
0

>  <PUBCHEM_BOND_DEF_STEREO_COUNT>  (1) 
0

>  <PUBCHEM_BOND_UDEF_STEREO_COUNT>  (1) 
0

>  <PUBCHEM_ISOTOPIC_ATOM_COUNT>  (1) 
0

>  <PUBCHEM_COMPONENT_COUNT>  (1) 
1

>  <PUBCHEM_CACTVS_TAUTO_COUNT>  (1) 
1

>  <PUBCHEM_CONFORMER_ID>  (1) 
0000417400000001

>  <PUBCHEM_MMFF94_ENERGY>  (1) 
79.0698

>  <PUBCHEM_FEATURE_SELFOVERLAP>  (1) 
30.606

>  <PUBCHEM_SHAPE_FINGERPRINT>  (1) 
10764073 3 17548467697418710243
11370993 70 18268145362298296230
11640471 11 17749380430179198104
12173636 292 18338506435711900613
12553582 1 18193833975418678131
12788726 201 18262225733460159739
13224815 77 14189571910737442344
13583140 156 17917134071066013112
14420673 8 9438033558271599904
14790565 3 18126852590791740929
15463212 79 18260540104598183088
15475509 35 11883107806383092765
15475509 8 18198894998305059471
1813 80 18051133897900351243
18785283 64 17402619550331619729
20693207 138 17917424397400823008
20871999 31 18340479049797968949
21709351 56 18409459098606554700
22393880 68 18341619209555384238
22907989 373 18271812349308982997
23419403 2 17201338905706720489
23557571 272 18197199550509767992
23559900 14 18129650895450259338
25265897 201 18123504654903892068
26353 1 17977653535630887039
312425 83 18335706005740143124
484985 159 16773811302257903647
4921388 177 18271814531162918556
497634 4 17630348512964408832
531348 171 18409173182464867582
57262259 84 18270678787639341895
633830 44 17095536080421436126
81228 2 18267859657010745355
9709674 26 18343587330736792038

>  <PUBCHEM_SHAPE_MULTIPOLES>  (1) 
462.48
8.73
3.92
1.53
13.89
0.86
-0.41
-2.19
3.47
-4.24
0.73
-0.4
-0.12
-0.24

>  <PUBCHEM_SHAPE_SELFOVERLAP>  (1) 
994.024

>  <PUBCHEM_SHAPE_VOLUME>  (1) 
257.6

>  <PUBCHEM_COORDINATE_TYPE>  (1) 
2
5
10

$$$$
