16758
     RDKit          3D

 18 19  0  0  0  0  0  0  0  0999 V2000
    4.1682    0.5276    1.4570 O   0  0  0  0  0  0  0  0  0  0  0  0
   -4.1682    0.5308   -1.4583 O   0  0  0  0  0  0  0  0  0  0  0  0
    4.2821    1.2347   -0.7624 N   0  0  0  0  0  0  0  0  0  0  0  0
   -4.2851    1.2269    0.7643 N   0  0  0  0  0  0  0  0  0  0  0  0
    3.5449   -0.8854   -0.2778 N   0  0  0  0  0  0  0  0  0  0  0  0
   -3.5322   -0.8853    0.2693 N   0  0  0  0  0  0  0  0  0  0  0  0
    5.2993    2.2367   -0.6366 C   0  0  0  0  0  0  0  0  0  0  0  0
    3.8698    2.6051   -0.6801 C   0  0  0  0  0  0  0  0  0  0  0  0
   -3.8833    2.6008    0.6879 C   0  0  0  0  0  0  0  0  0  0  0  0
   -5.3100    2.2218    0.6442 C   0  0  0  0  0  0  0  0  0  0  0  0
    0.7168   -1.9800   -0.2140 C   0  0  0  0  0  0  0  0  0  0  0  0
   -0.7450   -2.0246    0.2377 C   0  0  0  0  0  0  0  0  0  0  0  0
    1.7155   -2.0077    0.9488 C   0  0  0  0  0  0  0  0  0  0  0  0
   -1.6960   -1.9872   -0.9635 C   0  0  0  0  0  0  0  0  0  0  0  0
    4.0139    0.3140    0.2549 C   0  0  0  0  0  0  0  0  0  0  0  0
   -4.0110    0.3130   -0.2574 C   0  0  0  0  0  0  0  0  0  0  0  0
    3.1839   -2.0239    0.5340 C   0  0  0  0  0  0  0  0  0  0  0  0
   -3.1636   -2.0173   -0.5481 C   0  0  0  0  0  0  0  0  0  0  0  0
  1 15  2  0
  2 16  2  0
  3  7  1  0
  3  8  1  0
  3 15  1  0
  4  9  1  0
  4 10  1  0
  4 16  1  0
  5 15  1  0
  5 17  1  0
  6 16  1  0
  6 18  1  0
  7  8  1  0
  9 10  1  0
 11 12  1  0
 11 13  1  0
 12 14  1  0
 13 17  1  0
 14 18  1  0
M  END
>  <PUBCHEM_COMPOUND_CID>  (1) 
16758

>  <PUBCHEM_CONFORMER_RMSD>  (1) 
1

>  <PUBCHEM_CONFORMER_DIVERSEORDER>  (1) 
1
25
41
44
57
45
62
20
15
33
63
34
46
52
56
18
31
51
32
61
11
4
28
55
47
5
42
35
38
13
21
22
40
10
9
49
14
48
53
7
60
8
12
36
27
2
17
26
6
37
43
39
3
29
50
54
16
19
58
30
23
59
24

>  <PUBCHEM_MMFF94_PARTIAL_CHARGES>  (1) 
24
1 -0.57
10 -0.05
15 0.69
16 0.69
17 0.3
18 0.3
19 0.1
2 -0.57
20 0.1
21 0.1
22 0.1
23 0.1
24 0.1
25 0.1
26 0.1
3 -0.36
39 0.37
4 -0.36
40 0.37
5 -0.73
6 -0.73
7 -0.05
8 -0.05
9 -0.05

>  <PUBCHEM_EFFECTIVE_ROTOR_COUNT>  (1) 
12.2

>  <PUBCHEM_PHARMACOPHORE_FEATURES>  (1) 
5
1 1 acceptor
1 2 acceptor
1 5 donor
1 6 donor
4 11 12 13 14 hydrophobe

>  <PUBCHEM_HEAVY_ATOM_COUNT>  (1) 
18

>  <PUBCHEM_ATOM_DEF_STEREO_COUNT>  (1) 
0

>  <PUBCHEM_ATOM_UDEF_STEREO_COUNT>  (1) 
0

>  <PUBCHEM_BOND_DEF_STEREO_COUNT>  (1) 
0

>  <PUBCHEM_BOND_UDEF_STEREO_COUNT>  (1) 
0

>  <PUBCHEM_ISOTOPIC_ATOM_COUNT>  (1) 
0

>  <PUBCHEM_COMPONENT_COUNT>  (1) 
1

>  <PUBCHEM_CACTVS_TAUTO_COUNT>  (1) 
3

>  <PUBCHEM_CONFORMER_ID>  (1) 
0000417600000001

>  <PUBCHEM_MMFF94_ENERGY>  (1) 
34.2713

>  <PUBCHEM_FEATURE_SELFOVERLAP>  (1) 
25.371

>  <PUBCHEM_SHAPE_FINGERPRINT>  (1) 
10670039 82 18341051899693329028
11408170 253 15230776840278069700
13398642 44 17605857999151332812
13590594 115 17686051700520877394
13887833 79 15769784519685660908
1420 369 8286192868655596763
14251757 17 17561074864802804936
14251764 38 18410576188469680484
14251764 75 18340498814984757857
14429114 114 18195808702808497592
14848178 96 18408316687932659794
15142526 21 18186524297753037083
15163728 17 18131081419543029831
15239154 128 18410855464423603302
15342168 16 18198623238306455855
16760501 71 18336838519997036529
1768 23 17916042165604143137
17810953 82 18337958878599637981
17834072 32 18341051818094231475
17959699 21 18413390925521099754
20567600 9 18408328787420152390
21315763 76 18263342772569635973
21623110 236 18335417963721669349
21734292 116 18411419501125264833
23559900 14 17630608920821110302
23590187 138 18409167688610793791
245318 6 17969521439989174541
2838139 119 18199186373012107628
312425 83 17916879031365356486
3472631 163 18342178817712974007
474 4 18260826007871227458
5104073 3 18040434395225472034
633830 44 18409727339877098166

>  <PUBCHEM_SHAPE_MULTIPOLES>  (1) 
338.77
13.78
3.73
1.1
0.02
0.91
0
11.93
-0.02
-0.03
-0.01
0.01
0.08
-2.43

>  <PUBCHEM_SHAPE_SELFOVERLAP>  (1) 
659.001

>  <PUBCHEM_SHAPE_VOLUME>  (1) 
205.3

>  <PUBCHEM_COORDINATE_TYPE>  (1) 
2
5
10

$$$$
