16750
     RDKit          3D

 26 28  0  0  1  0  0  0  0  0999 V2000
    6.7201   -1.0274   -0.1720 O   0  0  0  0  0  0  0  0  0  0  0  0
   -4.6755    1.3128   -0.2248 O   0  0  0  0  0  0  0  0  0  0  0  0
   -3.6293    2.0772    1.6879 O   0  0  0  0  0  0  0  0  0  0  0  0
    0.3755    0.7141   -0.5140 N   0  0  0  0  0  0  0  0  0  0  0  0
   -2.5099    0.5101    0.2198 C   0  0  0  0  0  0  0  0  0  0  0  0
   -1.9966    1.1110   -1.1164 C   0  0  0  0  0  0  0  0  0  0  0  0
   -1.3542    0.6642    1.2443 C   0  0  0  0  0  0  0  0  0  0  0  0
   -0.6408    0.5442   -1.5582 C   0  0  0  0  0  0  0  0  0  0  0  0
   -0.0370    0.0695    0.7375 C   0  0  0  0  0  0  0  0  0  0  0  0
    1.6656    0.1906   -0.9617 C   0  0  0  0  0  0  0  0  0  0  0  0
   -3.0442   -0.9281    0.1508 C   0  0  0  0  0  0  0  0  0  0  0  0
    2.8012    0.8145   -0.1520 C   0  0  0  0  0  0  0  0  0  0  0  0
   -3.6506    1.3978    0.6705 C   0  0  0  0  0  0  0  0  0  0  0  0
    4.1631    0.2962   -0.6189 C   0  0  0  0  0  0  0  0  0  0  0  0
    6.6530    0.4054   -0.2690 C   0  0  0  0  0  0  0  0  0  0  0  0
    5.2996    0.8911    0.2122 C   0  0  0  0  0  0  0  0  0  0  0  0
    7.8150    0.9399    0.5502 C   0  0  0  0  0  0  0  0  0  0  0  0
    8.8562   -0.1281    0.3270 C   0  0  0  0  0  0  0  0  0  0  0  0
   -3.5532   -1.5387    1.2971 C   0  0  0  0  0  0  0  0  0  0  0  0
   -3.0210   -1.6237   -1.0581 C   0  0  0  0  0  0  0  0  0  0  0  0
    8.0169   -1.3881    0.3269 C   0  0  0  0  0  0  0  0  0  0  0  0
   -4.0387   -2.8448    1.2346 C   0  0  0  0  0  0  0  0  0  0  0  0
   -3.5066   -2.9298   -1.1206 C   0  0  0  0  0  0  0  0  0  0  0  0
   -4.0154   -3.5404    0.0258 C   0  0  0  0  0  0  0  0  0  0  0  0
   -5.8264    2.1067    0.0810 C   0  0  0  0  0  0  0  0  0  0  0  0
   -6.8668    1.9037   -0.9998 C   0  0  0  0  0  0  0  0  0  0  0  0
  1 15  1  0
  1 21  1  0
  2 13  1  0
  2 25  1  0
  3 13  2  0
  4  8  1  0
  4  9  1  0
  4 10  1  0
  5  6  1  0
  5  7  1  0
  5 11  1  0
  5 13  1  0
  6  8  1  0
  7  9  1  0
 10 12  1  0
 11 19  2  0
 11 20  1  0
 12 14  1  0
 14 16  1  0
 15 16  1  0
 15 17  1  0
 17 18  1  0
 18 21  1  0
 19 22  1  0
 20 23  2  0
 22 24  2  0
 23 24  1  0
 25 26  1  0
M  END
>  <PUBCHEM_COMPOUND_CID>  (1) 
16750

>  <PUBCHEM_CONFORMER_RMSD>  (1) 
1.2

>  <PUBCHEM_CONFORMER_DIVERSEORDER>  (1) 
1
18
68
17
48
30
50
54
41
67
27
60
15
36
52
32
10
37
16
31
46
53
71
43
28
39
70
73
63
22
65
38
42
33
59
19
62
49
13
8
9
61
23
58
21
3
11
6
74
2
14
69
34
40
47
64
4
45
66
20
56
44
35
72
51
57
24
26
29
7
55
12
25
5

>  <PUBCHEM_MMFF94_PARTIAL_CHARGES>  (1) 
23
1 -0.56
10 0.27
11 -0.14
13 0.66
15 0.28
19 -0.15
2 -0.43
20 -0.15
21 0.28
22 -0.15
23 -0.15
24 -0.15
25 0.28
3 -0.57
4 -0.81
48 0.15
49 0.15
5 0.2
52 0.15
53 0.15
54 0.15
8 0.27
9 0.27

>  <PUBCHEM_EFFECTIVE_ROTOR_COUNT>  (1) 
11.2

>  <PUBCHEM_PHARMACOPHORE_FEATURES>  (1) 
6
1 1 acceptor
1 3 acceptor
1 4 cation
5 1 15 17 18 21 rings
6 11 19 20 22 23 24 rings
6 4 5 6 7 8 9 rings

>  <PUBCHEM_HEAVY_ATOM_COUNT>  (1) 
26

>  <PUBCHEM_ATOM_DEF_STEREO_COUNT>  (1) 
0

>  <PUBCHEM_ATOM_UDEF_STEREO_COUNT>  (1) 
1

>  <PUBCHEM_BOND_DEF_STEREO_COUNT>  (1) 
0

>  <PUBCHEM_BOND_UDEF_STEREO_COUNT>  (1) 
0

>  <PUBCHEM_ISOTOPIC_ATOM_COUNT>  (1) 
0

>  <PUBCHEM_COMPONENT_COUNT>  (1) 
1

>  <PUBCHEM_CACTVS_TAUTO_COUNT>  (1) 
1

>  <PUBCHEM_CONFORMER_ID>  (1) 
0000416E00000001

>  <PUBCHEM_MMFF94_ENERGY>  (1) 
53.3706

>  <PUBCHEM_FEATURE_SELFOVERLAP>  (1) 
30.446

>  <PUBCHEM_SHAPE_FINGERPRINT>  (1) 
10 15 17489307521214301740
11135926 11 15213010549480555984
11315181 36 18131350816897571905
11331351 85 17749111046258509556
11545043 162 18201718487823665416
12373685 5 18270668793097983486
12596602 18 18343582963239991680
12616971 3 17168154455032451284
12643181 29 18411133628291427472
13073987 5 10375879562987433924
13583140 156 17632860836439818604
13782708 43 18260826030142239618
13885169 127 18410008836180237580
14844126 61 18342742965931122227
15131766 46 14420710252822472015
15183329 4 12540687146617853718
15461852 350 16773791515560063196
1577012 14 17968104157538988372
17093844 174 18343016709749948088
17780758 139 18413672421935379076
17913733 40 16271938120907401406
21130935 74 18409728474792404146
21150785 3 10735868474862657412
21236236 1 18408886269474173018
23081809 10 18041006180728058452
23402539 116 17821729459449817052
23522609 53 17970659392413403004
23559900 14 18272644670974074969
249057 3 18407759235785830181
3663271 9 18413389861307771976
397830 11 18058442274791840744
4073 2 18412266142949234638
4403749 210 18201430437447430574
44802255 64 17895183365168468903
4874694 18 18272644620241530318
5104073 3 18201725102205553416
559249 180 18334577949538119391
58260988 114 16878805914679437403
6009941 240 18411419501272451184
6691757 9 18341619200928435369
9953998 17 18409446990566232596

>  <PUBCHEM_SHAPE_MULTIPOLES>  (1) 
512.48
22.46
2.9
1.29
58.08
2.5
-0.04
-0.9
-1.81
-7.14
-0.12
-1.38
0.02
0.14

>  <PUBCHEM_SHAPE_SELFOVERLAP>  (1) 
1056.957

>  <PUBCHEM_SHAPE_VOLUME>  (1) 
294.1

>  <PUBCHEM_COORDINATE_TYPE>  (1) 
2
5
10

$$$$
