1675
     RDKit          3D

 18 19  0  0  1  0  0  0  0  0999 V2000
    1.7336   -0.2774    0.8116 O   0  0  0  0  0  0  0  0  0  0  0  0
    3.6789    0.9102   -1.9610 O   0  0  0  0  0  0  0  0  0  0  0  0
    3.9268   -1.9223    1.4465 O   0  0  0  0  0  0  0  0  0  0  0  0
   -1.3156    2.4095    0.7776 O   0  0  0  0  0  0  0  0  0  0  0  0
   -4.1851   -1.0999   -0.3257 O   0  0  0  0  0  0  0  0  0  0  0  0
   -0.4367    0.3461    0.1850 N   0  0  0  0  0  0  0  0  0  0  0  0
   -2.7860    0.6851    0.2418 N   0  0  0  0  0  0  0  0  0  0  0  0
    0.9111    0.8062    0.3500 C   0  0  0  0  0  0  0  0  0  0  0  0
    2.9883    0.9935   -0.7321 C   0  0  0  0  0  0  0  0  0  0  0  0
    1.5274    1.3135   -0.9409 C   0  0  0  0  0  0  0  0  0  0  0  0
    2.9013   -0.3487   -0.0236 C   0  0  0  0  0  0  0  0  0  0  0  0
    4.1185   -0.6621    0.8282 C   0  0  0  0  0  0  0  0  0  0  0  0
   -1.4916    1.2378    0.4294 C   0  0  0  0  0  0  0  0  0  0  0  0
   -0.6510   -0.9547   -0.2075 C   0  0  0  0  0  0  0  0  0  0  0  0
   -1.8637   -1.4844   -0.3898 C   0  0  0  0  0  0  0  0  0  0  0  0
   -3.0602   -0.6307   -0.1591 C   0  0  0  0  0  0  0  0  0  0  0  0
   -3.9129    1.5793    0.4872 C   0  0  0  0  0  0  0  0  0  0  0  0
   -2.0832   -2.9012   -0.8177 C   0  0  0  0  0  0  0  0  0  0  0  0
  1  8  1  0
  1 11  1  0
  2  9  1  0
  3 12  1  0
  4 13  2  0
  5 16  2  0
  6  8  1  0
  6 13  1  0
  6 14  1  0
  7 13  1  0
  7 16  1  0
  7 17  1  0
  8 10  1  0
  9 10  1  0
  9 11  1  0
 11 12  1  0
 14 15  2  0
 15 16  1  0
 15 18  1  0
M  END
>  <PUBCHEM_COMPOUND_CID>  (1) 
1675

>  <PUBCHEM_CONFORMER_RMSD>  (1) 
0.6

>  <PUBCHEM_CONFORMER_DIVERSEORDER>  (1) 
2
28
24
47
56
21
54
1
25
49
5
44
45
35
20
26
40
55
34
9
50
52
42
27
14
43
13
32
18
4
23
48
10
30
53
19
57
3
8
51
15
12
38
29
46
36
17
37
39
6
33
16
11
7
31
22
41

>  <PUBCHEM_MMFF94_PARTIAL_CHARGES>  (1) 
20
1 -0.56
11 0.28
12 0.28
13 0.69
14 -0.04
15 -0.12
16 0.62
17 0.3
18 0.14
2 -0.68
26 0.15
27 0.4
28 0.4
3 -0.68
4 -0.57
5 -0.57
6 -0.47
7 -0.42
8 0.58
9 0.28

>  <PUBCHEM_EFFECTIVE_ROTOR_COUNT>  (1) 
3

>  <PUBCHEM_PHARMACOPHORE_FEATURES>  (1) 
9
1 1 acceptor
1 2 acceptor
1 2 donor
1 3 acceptor
1 3 donor
1 4 acceptor
1 5 acceptor
5 1 8 9 10 11 rings
6 6 7 13 14 15 16 rings

>  <PUBCHEM_HEAVY_ATOM_COUNT>  (1) 
18

>  <PUBCHEM_ATOM_DEF_STEREO_COUNT>  (1) 
0

>  <PUBCHEM_ATOM_UDEF_STEREO_COUNT>  (1) 
3

>  <PUBCHEM_BOND_DEF_STEREO_COUNT>  (1) 
0

>  <PUBCHEM_BOND_UDEF_STEREO_COUNT>  (1) 
0

>  <PUBCHEM_ISOTOPIC_ATOM_COUNT>  (1) 
0

>  <PUBCHEM_COMPONENT_COUNT>  (1) 
1

>  <PUBCHEM_CACTVS_TAUTO_COUNT>  (1) 
1

>  <PUBCHEM_CONFORMER_ID>  (1) 
0000068B00000002

>  <PUBCHEM_MMFF94_ENERGY>  (1) 
40.2428

>  <PUBCHEM_FEATURE_SELFOVERLAP>  (1) 
45.677

>  <PUBCHEM_SHAPE_FINGERPRINT>  (1) 
10062212 137 18410285896263000731
10616163 171 18341053007663483774
11132069 177 18131354064209111937
11578080 2 18044906134801667500
12236239 1 18333170566038303152
12553582 1 17982733270572172295
13538477 17 18410294726562644004
13862211 1 18272081760656651391
14115302 16 18412825759464500984
15375358 24 16917061148991646544
15442244 35 18408319965166773480
15669948 3 18341899635647483935
16752209 62 18342167874099483975
16945 1 18273220789323157357
17804303 29 18272929397536018298
1813 80 17532938191209369286
18186145 218 15647053763513310112
19422 9 18259705609606143539
20279233 1 16630525124537526164
20510252 161 17989211443032927769
20645476 183 18189066424412682575
20645477 70 17095518509235689186
21486144 27 15647063684824427720
21634736 98 18193843866717531812
22112679 90 18407757032419835520
2255824 54 17821450162527901602
23184049 29 18056471987865603897
232386 152 18343575261677931138
23402539 116 17988066860308237935
23463225 33 18335699408280154738
23557571 272 17846500374223857064
23559900 14 17989214724725597316
23598291 2 18114184099024517628
2748010 2 17551220097382326407
3082319 5 18261399983084416084
474 4 17534353515755797180
5104073 3 18411699889358660240
58051976 100 18261676982367542181
58807428 26 18199194988426626203
603831 33 18335706108613525676
633830 44 16443062781426905989
6992083 37 18190746332182911808
74978 22 18341613775641201517
77492 1 18260269659129234276
81228 2 16772691913584824640
90525 40 18411423894881674167
9709674 26 18131075939154139070
9981440 41 17467914516261669320

>  <PUBCHEM_SHAPE_MULTIPOLES>  (1) 
331.12
7.74
2.36
1.13
2.2
0.78
0.21
1.11
-0.38
-1.61
0.01
1.3
0
-1.92

>  <PUBCHEM_SHAPE_SELFOVERLAP>  (1) 
692.185

>  <PUBCHEM_SHAPE_VOLUME>  (1) 
189.3

>  <PUBCHEM_COORDINATE_TYPE>  (1) 
2
5
10

$$$$
