16751
     RDKit          3D

 16 17  0  0  0  0  0  0  0  0999 V2000
   -3.9917    1.0430   -0.0011 F   0  0  0  0  0  0  0  0  0  0  0  0
   -3.6987   -0.8187   -1.0852 F   0  0  0  0  0  0  0  0  0  0  0  0
   -3.6732   -0.8150    1.0949 F   0  0  0  0  0  0  0  0  0  0  0  0
    4.5110   -0.2418    0.0015 O   0  0  0  0  0  0  0  0  0  0  0  0
    2.3949    0.7447   -0.0002 N   0  0  0  0  0  0  0  0  0  0  0  0
    0.9734    0.5580   -0.0012 C   0  0  0  0  0  0  0  0  0  0  0  0
    0.4575   -0.7479   -0.0014 C   0  0  0  0  0  0  0  0  0  0  0  0
   -0.9279   -0.9627   -0.0009 C   0  0  0  0  0  0  0  0  0  0  0  0
   -1.8063    0.1181   -0.0005 C   0  0  0  0  0  0  0  0  0  0  0  0
    0.0740    1.6364   -0.0011 C   0  0  0  0  0  0  0  0  0  0  0  0
    1.3686   -1.8852   -0.0022 C   0  0  0  0  0  0  0  0  0  0  0  0
   -1.3056    1.4156   -0.0009 C   0  0  0  0  0  0  0  0  0  0  0  0
    3.2830   -0.3354    0.0003 C   0  0  0  0  0  0  0  0  0  0  0  0
    2.6891   -1.6971   -0.0016 C   0  0  0  0  0  0  0  0  0  0  0  0
    2.9311    2.1028    0.0002 C   0  0  0  0  0  0  0  0  0  0  0  0
   -3.2793   -0.1148   -0.0006 C   0  0  0  0  0  0  0  0  0  0  0  0
  1 16  1  0
  2 16  1  0
  3 16  1  0
  4 13  2  0
  5  6  1  0
  5 13  1  0
  5 15  1  0
  6  7  2  0
  6 10  1  0
  7  8  1  0
  7 11  1  0
  8  9  2  0
  9 12  1  0
  9 16  1  0
 10 12  2  0
 11 14  2  0
 13 14  1  0
M  END
>  <PUBCHEM_COMPOUND_CID>  (1) 
16751

>  <PUBCHEM_CONFORMER_RMSD>  (1) 
0.6

>  <PUBCHEM_CONFORMER_DIVERSEORDER>  (1) 
1

>  <PUBCHEM_MMFF94_PARTIAL_CHARGES>  (1) 
21
1 -0.34
10 -0.15
11 -0.18
12 -0.15
13 0.62
14 -0.14
15 0.3
16 1.16
17 0.15
18 0.15
19 0.15
2 -0.34
20 0.15
21 0.15
3 -0.34
4 -0.57
5 -0.48
6 0.12
7 0.03
8 -0.15
9 -0.14

>  <PUBCHEM_EFFECTIVE_ROTOR_COUNT>  (1) 
1

>  <PUBCHEM_PHARMACOPHORE_FEATURES>  (1) 
3
1 4 acceptor
6 5 6 7 11 13 14 rings
6 6 7 8 9 10 12 rings

>  <PUBCHEM_HEAVY_ATOM_COUNT>  (1) 
16

>  <PUBCHEM_ATOM_DEF_STEREO_COUNT>  (1) 
0

>  <PUBCHEM_ATOM_UDEF_STEREO_COUNT>  (1) 
0

>  <PUBCHEM_BOND_DEF_STEREO_COUNT>  (1) 
0

>  <PUBCHEM_BOND_UDEF_STEREO_COUNT>  (1) 
0

>  <PUBCHEM_ISOTOPIC_ATOM_COUNT>  (1) 
0

>  <PUBCHEM_COMPONENT_COUNT>  (1) 
1

>  <PUBCHEM_CACTVS_TAUTO_COUNT>  (1) 
1

>  <PUBCHEM_CONFORMER_ID>  (1) 
0000416F00000001

>  <PUBCHEM_MMFF94_ENERGY>  (1) 
37.6185

>  <PUBCHEM_FEATURE_SELFOVERLAP>  (1) 
15.247

>  <PUBCHEM_SHAPE_FINGERPRINT>  (1) 
10608611 8 18335416850808317645
10967382 1 18410575127997938692
10980938 120 18341330075897558418
11132069 177 18271517667471243706
11401426 45 18341324535326521029
11471102 20 18410289194665716446
11806522 49 18411134744735056510
12032990 46 18408610257389654443
13140716 1 18266456688769152618
13221675 6 18411702062870664862
13296908 3 18187368735641501171
13380535 76 18409448102820571402
13862211 1 18410849941876414886
13897977 150 18337952423400753664
14144814 61 18411139099805430018
14251717 144 18412538833936973414
14325111 11 18410855486061736229
14576447 43 18200296840590188495
15196674 1 18410574010942392900
15219456 202 18334016116017667321
15309172 13 18273501165062871663
15375462 189 18202004352093396051
15442244 35 18124034520623679632
15536298 74 18272088318533226160
16945 1 18410856551392798310
17844478 74 18113622270147166461
18175812 5 18186803599201514581
18186145 218 17603302639801954691
19422 9 18060420235347255855
200 152 18201993322612079053
20201158 50 18335140873326292970
20645477 70 18341608200979334607
21267235 1 18412271644237968359
21501502 16 18266179418269888896
21501925 9 18337663140468748826
221490 88 18336273374798388058
22854114 111 18410009957514809356
2334 1 17978511159027323498
23402539 116 18342729707076474550
23402655 69 18340764841011194285
23463225 33 18410292493200671116
23559900 14 18335980849134744346
2748010 2 18052251787629422142
5104073 3 18410293609749705249
528886 8 18411695504576942778
53655031 270 18341333318566322440
581208 293 18340762723713506464
7364860 26 18343020004327603952
77492 1 17703792530866315911
8809292 202 18114470044951673851
9709674 26 18410860940559724734

>  <PUBCHEM_SHAPE_MULTIPOLES>  (1) 
296.6
7.01
1.94
0.69
2.08
0.3
0
-0.36
0
-1.11
0
0.36
-0.09
0

>  <PUBCHEM_SHAPE_SELFOVERLAP>  (1) 
645.632

>  <PUBCHEM_SHAPE_VOLUME>  (1) 
162.8

>  <PUBCHEM_COORDINATE_TYPE>  (1) 
2
5
10

$$$$
