16768
     RDKit          3D

 11 10  0  0  0  0  0  0  0  0999 V2000
    0.1311    0.0076   -1.7954 O   0  0  0  0  0  0  0  0  0  0  0  0
    2.7837    0.0217   -0.8804 O   0  0  0  0  0  0  0  0  0  0  0  0
    0.8430    0.0030    0.4200 N   0  0  0  0  0  0  0  0  0  0  0  0
    2.9201    0.0135    1.4130 N   0  0  0  0  0  0  0  0  0  0  0  0
   -1.5616   -0.0086   -0.0858 C   0  0  0  0  0  0  0  0  0  0  0  0
   -1.8758   -1.2789    0.7256 C   0  0  0  0  0  0  0  0  0  0  0  0
   -1.8870    1.2510    0.7375 C   0  0  0  0  0  0  0  0  0  0  0  0
   -0.1161    0.0008   -0.5896 C   0  0  0  0  0  0  0  0  0  0  0  0
   -1.6877   -2.5566   -0.0826 C   0  0  0  0  0  0  0  0  0  0  0  0
   -1.7759    2.5333   -0.0776 C   0  0  0  0  0  0  0  0  0  0  0  0
    2.2261    0.0132    0.2153 C   0  0  0  0  0  0  0  0  0  0  0  0
  1  8  2  0
  2 11  2  0
  3  8  1  0
  3 11  1  0
  4 11  1  0
  5  6  1  0
  5  7  1  0
  5  8  1  0
  6  9  1  0
  7 10  1  0
M  END
>  <PUBCHEM_COMPOUND_CID>  (1) 
16768

>  <PUBCHEM_CONFORMER_RMSD>  (1) 
0.6

>  <PUBCHEM_CONFORMER_DIVERSEORDER>  (1) 
1
19
23
17
14
24
21
20
2
22
16
8
11
3
15
12
7
10
18
13
6
4
9
5

>  <PUBCHEM_MMFF94_PARTIAL_CHARGES>  (1) 
10
1 -0.57
11 0.69
2 -0.57
23 0.37
24 0.37
25 0.37
3 -0.49
4 -0.8
5 0.06
8 0.57

>  <PUBCHEM_EFFECTIVE_ROTOR_COUNT>  (1) 
5

>  <PUBCHEM_PHARMACOPHORE_FEATURES>  (1) 
6
1 1 acceptor
1 10 hydrophobe
1 2 acceptor
1 3 donor
1 4 donor
1 9 hydrophobe

>  <PUBCHEM_HEAVY_ATOM_COUNT>  (1) 
11

>  <PUBCHEM_ATOM_DEF_STEREO_COUNT>  (1) 
0

>  <PUBCHEM_ATOM_UDEF_STEREO_COUNT>  (1) 
0

>  <PUBCHEM_BOND_DEF_STEREO_COUNT>  (1) 
0

>  <PUBCHEM_BOND_UDEF_STEREO_COUNT>  (1) 
0

>  <PUBCHEM_ISOTOPIC_ATOM_COUNT>  (1) 
0

>  <PUBCHEM_COMPONENT_COUNT>  (1) 
1

>  <PUBCHEM_CACTVS_TAUTO_COUNT>  (1) 
5

>  <PUBCHEM_CONFORMER_ID>  (1) 
0000418000000001

>  <PUBCHEM_MMFF94_ENERGY>  (1) 
14.1078

>  <PUBCHEM_FEATURE_SELFOVERLAP>  (1) 
30.5

>  <PUBCHEM_SHAPE_FINGERPRINT>  (1) 
10857977 72 18058169607848860138
12716758 59 18270124504449856594
13380537 58 18266477428823236117
14128692 85 17534348034960451239
16945 1 18410855464565560475
20653085 51 16343420583826190089
20715346 28 17632578262373421336
20871998 184 18339095851359307675
21930827 45 18199770071229784293
23211744 41 17915180113848490229
23402539 116 18272076211310381031
23598294 1 18263950837017737977
3248919 1 18409160005030241918
5084963 1 17632583772457746430
54338 74 18336545005841879501
81228 2 18341051904025070267

>  <PUBCHEM_SHAPE_MULTIPOLES>  (1) 
204.67
3.87
2.21
1.18
3.36
0.07
0.2
-0.11
-0.92
-2.64
-0.06
0.51
-0.01
0

>  <PUBCHEM_SHAPE_SELFOVERLAP>  (1) 
384.3

>  <PUBCHEM_SHAPE_VOLUME>  (1) 
127.4

>  <PUBCHEM_COORDINATE_TYPE>  (1) 
2
5
10

$$$$
