16775
     RDKit          3D

 16 15  0  0  0  0  0  0  0  0999 V2000
   -1.0033    3.1325    0.6068 S   0  0  0  0  0  0  0  0  0  0  0  0
    2.9722    1.4767   -0.2213 S   0  0  0  0  0  0  0  0  0  0  0  0
    2.5158   -0.5576   -0.4851 P   0  0  0  0  0  0  0  0  0  0  0  0
    1.4907   -1.0311    0.6849 O   0  0  0  0  0  0  0  0  0  0  0  0
    3.8258   -1.4805   -0.2117 O   0  0  0  0  0  0  0  0  0  0  0  0
    1.9519   -0.7892   -1.8633 O   0  0  0  0  0  0  0  0  0  0  0  0
   -3.3858   -0.3012   -1.3954 O   0  0  0  0  0  0  0  0  0  0  0  0
   -3.6684   -1.2969    0.6832 N   0  0  0  0  0  0  0  0  0  0  0  0
    0.5772    2.2630    0.8319 C   0  0  0  0  0  0  0  0  0  0  0  0
   -1.8682    1.8593   -0.3398 C   0  0  0  0  0  0  0  0  0  0  0  0
    1.4074    2.3466   -0.4411 C   0  0  0  0  0  0  0  0  0  0  0  0
   -2.4178    0.7561    0.5581 C   0  0  0  0  0  0  0  0  0  0  0  0
   -3.1937   -0.3224   -0.1826 C   0  0  0  0  0  0  0  0  0  0  0  0
   -4.4601   -2.4201    0.2381 C   0  0  0  0  0  0  0  0  0  0  0  0
    0.7563   -2.2300    0.5051 C   0  0  0  0  0  0  0  0  0  0  0  0
    4.5002   -1.4051    1.0324 C   0  0  0  0  0  0  0  0  0  0  0  0
  1  9  1  0
  1 10  1  0
  2  3  1  0
  2 11  1  0
  3  4  1  0
  3  5  1  0
  3  6  2  0
  4 15  1  0
  5 16  1  0
  7 13  2  0
  8 13  1  0
  8 14  1  0
  9 11  1  0
 10 12  1  0
 12 13  1  0
M  END
>  <PUBCHEM_COMPOUND_CID>  (1) 
16775

>  <PUBCHEM_CONFORMER_RMSD>  (1) 
1

>  <PUBCHEM_CONFORMER_DIVERSEORDER>  (1) 
1
17
146
95
59
52
34
94
154
145
131
123
41
71
8
67
36
21
128
5
31
133
42
51
98
120
78
129
63
160
48
77
9
46
53
75
7
135
100
113
70
159
112
3
22
26
74
13
157
106
38
43
167
25
28
45
72
168
24
144
29
169
16
132
136
156
140
150
126
86
2
15
6
166
65
158
153
80
84
58
91
14
148
82
143
163
54
83
37
122
19
121
97
81
69
56
32
4
60
161
68
33
49
55
109
116
10
110
107
152
79
93
96
88
99
61
115
162
35
102
149
147
134
39
117
23
119
130
103
125
27
66
105
142
57
141
12
40
137
138
18
108
89
101
114
85
151
87
64
30
104
90
124
44
111
20
11
118
164
50
62
76
139
127
92
165
73
155
47

>  <PUBCHEM_MMFF94_PARTIAL_CHARGES>  (1) 
17
1 -0.46
10 0.23
11 0.23
12 0.06
13 0.57
14 0.3
15 0.28
16 0.28
2 -0.48
25 0.37
3 1.49
4 -0.55
5 -0.55
6 -0.7
7 -0.57
8 -0.73
9 0.23

>  <PUBCHEM_EFFECTIVE_ROTOR_COUNT>  (1) 
10

>  <PUBCHEM_PHARMACOPHORE_FEATURES>  (1) 
4
1 6 acceptor
1 7 acceptor
1 8 donor
5 1 9 10 11 12 hydrophobe

>  <PUBCHEM_HEAVY_ATOM_COUNT>  (1) 
16

>  <PUBCHEM_ATOM_DEF_STEREO_COUNT>  (1) 
0

>  <PUBCHEM_ATOM_UDEF_STEREO_COUNT>  (1) 
0

>  <PUBCHEM_BOND_DEF_STEREO_COUNT>  (1) 
0

>  <PUBCHEM_BOND_UDEF_STEREO_COUNT>  (1) 
0

>  <PUBCHEM_ISOTOPIC_ATOM_COUNT>  (1) 
0

>  <PUBCHEM_COMPONENT_COUNT>  (1) 
1

>  <PUBCHEM_CACTVS_TAUTO_COUNT>  (1) 
2

>  <PUBCHEM_CONFORMER_ID>  (1) 
0000418700000001

>  <PUBCHEM_MMFF94_ENERGY>  (1) 
15.4752

>  <PUBCHEM_FEATURE_SELFOVERLAP>  (1) 
20.297

>  <PUBCHEM_SHAPE_FINGERPRINT>  (1) 
12596599 1 17986697946492979275
14251705 54 18411983576349139301
14251717 144 18194404618043089483
14251731 5 18409733984364766179
14251757 5 16900768323588481478
19433438 48 18200033928161171320
20291156 8 18412831291340336013
20645477 70 18055624260659866989
23402539 116 18339075970150951234
23557571 272 17986951847621303064

>  <PUBCHEM_SHAPE_MULTIPOLES>  (1) 
312.36
8.18
3.63
1.14
2.18
1.45
0.3
-6.58
-0.34
0.64
-0.77
-0.28
-0.14
-0.29

>  <PUBCHEM_SHAPE_SELFOVERLAP>  (1) 
537.795

>  <PUBCHEM_SHAPE_VOLUME>  (1) 
209.7

>  <PUBCHEM_COORDINATE_TYPE>  (1) 
2
5
10

$$$$
