16772
     RDKit          3D

 13 14  0  0  0  0  0  0  0  0999 V2000
   -4.3215   -0.1499   -0.1845 Cl  0  0  0  0  0  0  0  0  0  0  0  0
    0.5555   -1.8416   -0.1062 O   0  0  0  0  0  0  0  0  0  0  0  0
    2.7907    1.8304   -0.8318 O   0  0  0  0  0  0  0  0  0  0  0  0
    2.8480   -1.6423    0.0613 O   0  0  0  0  0  0  0  0  0  0  0  0
    1.4671    0.2383    0.2270 N   0  0  0  0  0  0  0  0  0  0  0  0
    0.1001    0.3995    0.1638 C   0  0  0  0  0  0  0  0  0  0  0  0
   -0.4233   -0.8615   -0.0363 C   0  0  0  0  0  0  0  0  0  0  0  0
   -0.6967    1.5210    0.2634 C   0  0  0  0  0  0  0  0  0  0  0  0
    1.7449   -1.1093    0.0647 C   0  0  0  0  0  0  0  0  0  0  0  0
    2.4078    1.3115    0.4273 C   0  0  0  0  0  0  0  0  0  0  0  0
   -1.7813   -1.0727   -0.1488 C   0  0  0  0  0  0  0  0  0  0  0  0
   -2.0766    1.3313    0.1522 C   0  0  0  0  0  0  0  0  0  0  0  0
   -2.6147    0.0452   -0.0522 C   0  0  0  0  0  0  0  0  0  0  0  0
  1 13  1  0
  2  7  1  0
  2  9  1  0
  3 10  1  0
  4  9  2  0
  5  6  1  0
  5  9  1  0
  5 10  1  0
  6  7  2  0
  6  8  1  0
  7 11  1  0
  8 12  2  0
 11 13  2  0
 12 13  1  0
M  END
>  <PUBCHEM_COMPOUND_CID>  (1) 
16772

>  <PUBCHEM_CONFORMER_RMSD>  (1) 
0.4

>  <PUBCHEM_CONFORMER_DIVERSEORDER>  (1) 
2
1
3
4

>  <PUBCHEM_MMFF94_PARTIAL_CHARGES>  (1) 
17
1 -0.18
10 0.58
11 -0.15
12 -0.15
13 0.18
14 0.15
17 0.15
18 0.15
19 0.4
2 -0.23
3 -0.68
4 -0.57
5 -0.48
6 0.12
7 0.08
8 -0.15
9 0.78

>  <PUBCHEM_EFFECTIVE_ROTOR_COUNT>  (1) 
1

>  <PUBCHEM_PHARMACOPHORE_FEATURES>  (1) 
5
1 3 acceptor
1 3 donor
1 4 acceptor
5 2 5 6 7 9 rings
6 6 7 8 11 12 13 rings

>  <PUBCHEM_HEAVY_ATOM_COUNT>  (1) 
13

>  <PUBCHEM_ATOM_DEF_STEREO_COUNT>  (1) 
0

>  <PUBCHEM_ATOM_UDEF_STEREO_COUNT>  (1) 
0

>  <PUBCHEM_BOND_DEF_STEREO_COUNT>  (1) 
0

>  <PUBCHEM_BOND_UDEF_STEREO_COUNT>  (1) 
0

>  <PUBCHEM_ISOTOPIC_ATOM_COUNT>  (1) 
0

>  <PUBCHEM_COMPONENT_COUNT>  (1) 
1

>  <PUBCHEM_CACTVS_TAUTO_COUNT>  (1) 
1

>  <PUBCHEM_CONFORMER_ID>  (1) 
0000418400000002

>  <PUBCHEM_MMFF94_ENERGY>  (1) 
33.5616

>  <PUBCHEM_FEATURE_SELFOVERLAP>  (1) 
25.484

>  <PUBCHEM_SHAPE_FINGERPRINT>  (1) 
10465860 71 17984724241780617118
10967382 1 18411698819969720929
11471102 20 18411693288611045413
12032990 46 18411703154077337555
12932764 1 17489579091468952665
13380535 21 18339089301238782171
13380535 76 18337669818900398346
14325111 11 18411698773105064201
14576447 43 17842258540353489071
14897335 6 18340481265647561676
15536298 74 18272087193183027952
15775835 57 18272653492920978201
16945 1 18195247719759446707
18186145 218 17895187767188018037
19973954 147 18339360760251473297
20645477 70 18340762664037918151
21501502 16 18341336587168485425
21501925 9 18339066108325667754
2334 1 18411699919454981451
23402655 69 18342726426423048093
23463225 33 18411134706053788659
23552423 10 18336544932436999963
2748010 2 18411418422987603551
449060 62 18412548738416381473
5084963 1 18200870665094354131
528886 8 18340199812362017497
537710 114 18340487858892184249
53812653 166 18129373976605681145
7364860 26 18272087193378174338

>  <PUBCHEM_SHAPE_MULTIPOLES>  (1) 
246.81
5.34
1.92
0.67
2.84
0.02
0.03
0.29
0.44
-1.19
0.07
-0.1
0.12
-0.27

>  <PUBCHEM_SHAPE_SELFOVERLAP>  (1) 
527.977

>  <PUBCHEM_SHAPE_VOLUME>  (1) 
140.1

>  <PUBCHEM_COORDINATE_TYPE>  (1) 
2
5
10

$$$$
