16782
     RDKit          3D

  8  7  0  0  0  0  0  0  0  0999 V2000
    0.5214    0.5365    0.0000 O   0  0  0  0  0  0  0  0  0  0  0  0
   -0.5189   -0.4872    0.0006 O   0  0  0  0  0  0  0  0  0  0  0  0
    1.8822   -1.3346   -0.0008 O   0  0  0  0  0  0  0  0  0  0  0  0
   -1.8606    1.2709   -0.0005 O   0  0  0  0  0  0  0  0  0  0  0  0
   -2.7476   -0.7803    0.0000 O   0  0  0  0  0  0  0  0  0  0  0  0
   -1.8288    0.0406    0.0001 N   0  0  0  0  0  0  0  0  0  0  0  0
    2.8352    0.8762    0.0000 C   0  0  0  0  0  0  0  0  0  0  0  0
    1.7173   -0.1221    0.0006 C   0  0  0  0  0  0  0  0  0  0  0  0
  1  2  1  0
  1  8  1  0
  2  6  1  0
  3  8  2  0
  4  6  1  0
  5  6  2  0
  7  8  1  0
M  CHG  2   4  -1   6   1
M  END
>  <PUBCHEM_COMPOUND_CID>  (1) 
16782

>  <PUBCHEM_CONFORMER_RMSD>  (1) 
0.6

>  <PUBCHEM_CONFORMER_DIVERSEORDER>  (1) 
1
9
10
5
3
6
11
2
4
7
8

>  <PUBCHEM_MMFF94_PARTIAL_CHARGES>  (1) 
8
1 -0.15
2 0.01
3 -0.57
4 -0.52
5 -0.52
6 1.03
7 0.06
8 0.66

>  <PUBCHEM_EFFECTIVE_ROTOR_COUNT>  (1) 
3

>  <PUBCHEM_PHARMACOPHORE_FEATURES>  (1) 
3
1 3 acceptor
1 4 acceptor
1 5 acceptor

>  <PUBCHEM_HEAVY_ATOM_COUNT>  (1) 
8

>  <PUBCHEM_ATOM_DEF_STEREO_COUNT>  (1) 
0

>  <PUBCHEM_ATOM_UDEF_STEREO_COUNT>  (1) 
0

>  <PUBCHEM_BOND_DEF_STEREO_COUNT>  (1) 
0

>  <PUBCHEM_BOND_UDEF_STEREO_COUNT>  (1) 
0

>  <PUBCHEM_ISOTOPIC_ATOM_COUNT>  (1) 
0

>  <PUBCHEM_COMPONENT_COUNT>  (1) 
1

>  <PUBCHEM_CACTVS_TAUTO_COUNT>  (1) 
1

>  <PUBCHEM_CONFORMER_ID>  (1) 
0000418E00000001

>  <PUBCHEM_MMFF94_ENERGY>  (1) 
6.5075

>  <PUBCHEM_FEATURE_SELFOVERLAP>  (1) 
15.292

>  <PUBCHEM_SHAPE_FINGERPRINT>  (1) 
12897270 3 18411136973796579428
14325111 11 18410575080383948864
14390081 3 18341893013029680256
21040471 1 18410575132408931042
23552423 10 18261958435938202354
29004967 10 18333454248406606056
5460574 1 9295296040261590464

>  <PUBCHEM_SHAPE_MULTIPOLES>  (1) 
130.31
4.34
1.17
0.53
0.6
0.02
0
-0.24
0
-0.13
0
-0.08
-0.01
0

>  <PUBCHEM_SHAPE_SELFOVERLAP>  (1) 
239.86

>  <PUBCHEM_SHAPE_VOLUME>  (1) 
83

>  <PUBCHEM_COORDINATE_TYPE>  (1) 
2
5
10

$$$$
