16795
     RDKit          3D

 22 24  0  0  0  0  0  0  0  0999 V2000
   -4.7319   -0.1889   -0.1357 F   0  0  0  0  0  0  0  0  0  0  0  0
   -3.4212   -1.9129   -0.2531 F   0  0  0  0  0  0  0  0  0  0  0  0
   -3.7116   -0.8989    1.6486 F   0  0  0  0  0  0  0  0  0  0  0  0
    2.8782    3.7934   -0.3926 O   0  0  0  0  0  0  0  0  0  0  0  0
    0.8048    2.8772   -0.7148 N   0  0  0  0  0  0  0  0  0  0  0  0
    2.3536    0.8352    0.8824 N   0  0  0  0  0  0  0  0  0  0  0  0
    0.0035    0.6793    0.1395 C   0  0  0  0  0  0  0  0  0  0  0  0
   -0.2087    1.9277   -0.4684 C   0  0  0  0  0  0  0  0  0  0  0  0
    1.3748    0.1459    0.4029 C   0  0  0  0  0  0  0  0  0  0  0  0
   -1.0939   -0.1548    0.4100 C   0  0  0  0  0  0  0  0  0  0  0  0
   -2.3809    0.2224    0.0283 C   0  0  0  0  0  0  0  0  0  0  0  0
    1.6669   -1.2762    0.0614 C   0  0  0  0  0  0  0  0  0  0  0  0
   -1.5019    2.2711   -0.8907 C   0  0  0  0  0  0  0  0  0  0  0  0
   -2.5825    1.4265   -0.6374 C   0  0  0  0  0  0  0  0  0  0  0  0
    2.1291    2.2194    1.2382 C   0  0  0  0  0  0  0  0  0  0  0  0
    1.9950    3.0132   -0.0339 C   0  0  0  0  0  0  0  0  0  0  0  0
   -3.5372   -0.6754    0.3135 C   0  0  0  0  0  0  0  0  0  0  0  0
    0.9915   -1.8813   -0.9907 C   0  0  0  0  0  0  0  0  0  0  0  0
    2.6114   -1.9786    0.7992 C   0  0  0  0  0  0  0  0  0  0  0  0
    1.2649   -3.2113   -1.3105 C   0  0  0  0  0  0  0  0  0  0  0  0
    2.8847   -3.3085    0.4793 C   0  0  0  0  0  0  0  0  0  0  0  0
    2.2115   -3.9247   -0.5755 C   0  0  0  0  0  0  0  0  0  0  0  0
  1 17  1  0
  2 17  1  0
  3 17  1  0
  4 16  2  0
  5  8  1  0
  5 16  1  0
  6  9  2  0
  6 15  1  0
  7  8  2  0
  7  9  1  0
  7 10  1  0
  8 13  1  0
  9 12  1  0
 10 11  2  0
 11 14  1  0
 11 17  1  0
 12 18  2  0
 12 19  1  0
 13 14  2  0
 15 16  1  0
 18 20  1  0
 19 21  2  0
 20 22  2  0
 21 22  1  0
M  END
>  <PUBCHEM_COMPOUND_CID>  (1) 
16795

>  <PUBCHEM_CONFORMER_RMSD>  (1) 
0.6

>  <PUBCHEM_CONFORMER_DIVERSEORDER>  (1) 
1
2

>  <PUBCHEM_MMFF94_PARTIAL_CHARGES>  (1) 
31
1 -0.34
10 -0.15
11 -0.14
12 0.09
13 -0.15
14 -0.15
15 0.31
16 0.57
17 1.16
18 -0.15
19 -0.15
2 -0.34
20 -0.15
21 -0.15
22 -0.15
23 0.15
24 0.15
25 0.37
26 0.15
29 0.15
3 -0.34
30 0.15
31 0.15
32 0.15
33 0.15
4 -0.57
5 -0.55
6 -0.7
7 0.09
8 0.12
9 0.28

>  <PUBCHEM_EFFECTIVE_ROTOR_COUNT>  (1) 
2.4

>  <PUBCHEM_PHARMACOPHORE_FEATURES>  (1) 
6
1 4 acceptor
1 5 donor
1 6 acceptor
6 12 18 19 20 21 22 rings
6 7 8 10 11 13 14 rings
7 5 6 7 8 9 15 16 rings

>  <PUBCHEM_HEAVY_ATOM_COUNT>  (1) 
22

>  <PUBCHEM_ATOM_DEF_STEREO_COUNT>  (1) 
0

>  <PUBCHEM_ATOM_UDEF_STEREO_COUNT>  (1) 
0

>  <PUBCHEM_BOND_DEF_STEREO_COUNT>  (1) 
0

>  <PUBCHEM_BOND_UDEF_STEREO_COUNT>  (1) 
0

>  <PUBCHEM_ISOTOPIC_ATOM_COUNT>  (1) 
0

>  <PUBCHEM_COMPONENT_COUNT>  (1) 
1

>  <PUBCHEM_CACTVS_TAUTO_COUNT>  (1) 
3

>  <PUBCHEM_CONFORMER_ID>  (1) 
0000419B00000001

>  <PUBCHEM_MMFF94_ENERGY>  (1) 
77.6362

>  <PUBCHEM_FEATURE_SELFOVERLAP>  (1) 
30.457

>  <PUBCHEM_SHAPE_FINGERPRINT>  (1) 
1100329 8 16609131162418596111
11578080 2 16372387217918080772
11680986 33 18266725905503343025
12035758 1 17907298750303066145
12054548 360 18195813968490546190
12363563 72 18194404377272343303
12506688 2 18197218040354435474
12553582 1 18196666089791355103
12714826 92 17682701527034239467
12788726 201 17185868394387774058
12839892 36 18122607616370857483
13140716 1 18195521725914623986
13149001 5 17899679177424448685
13533116 47 18272652360009454883
138480 1 18338516339695241508
14022347 108 17689162205581911011
14251757 5 17474966319885003534
14363568 33 18339944661329917862
14790565 3 18121503723882610428
14863182 85 18046077222332737367
14866123 147 17762613293902372992
15309172 13 18050572038594271017
16752209 62 16750989516873204616
16945 1 18261664995114111329
17138139 8 16909163602141762127
19591789 44 18194683898254556116
20028762 73 17262451007314252871
20510252 161 16972228870148345600
20600515 1 17765438643063587044
20645477 70 18335973268627820951
21285901 2 17823958191616407989
21452121 199 18191026707742725934
2255824 54 18341055198048760146
23184049 29 18048030779317071610
23419403 2 17823390782769592974
23557571 272 17549818889929703790
23559900 14 18337659837396499793
2748010 2 18194664991518589524
3060560 45 18192715759435090284
3091708 16 9071322210311495378
314173 41 18192997015231149755
3729539 64 18194996069900966076
458136 41 18268163126056192009
6669772 16 18198070368783963492
7364860 26 18411138056102178552
81228 2 17334215624499783560
8809292 202 17261023325866898174
9709674 26 18195514896927153239

>  <PUBCHEM_SHAPE_MULTIPOLES>  (1) 
415.1
5.99
4.96
1.09
0.63
4.14
-0.08
-6.92
-0.29
-1.09
0.41
-0.1
-0.16
1.4

>  <PUBCHEM_SHAPE_SELFOVERLAP>  (1) 
917.762

>  <PUBCHEM_SHAPE_VOLUME>  (1) 
222

>  <PUBCHEM_COORDINATE_TYPE>  (1) 
2
5
10

$$$$
