16796
     RDKit          3D

 18 19  0  0  0  0  0  0  0  0999 V2000
    3.8016   -0.6044    1.6040 O   0  0  0  0  0  0  0  0  0  0  0  0
    4.7922   -0.2297   -0.5607 O   0  0  0  0  0  0  0  0  0  0  0  0
   -3.9167   -0.2680    0.0475 O   0  0  0  0  0  0  0  0  0  0  0  0
   -3.2287    1.8617    0.5855 O   0  0  0  0  0  0  0  0  0  0  0  0
   -1.2931   -2.2870   -0.7659 N   0  0  0  0  0  0  0  0  0  0  0  0
    2.9106   -0.0983    0.7084 C   0  0  0  0  0  0  0  0  0  0  0  0
    3.4763    0.1158   -0.5277 C   0  0  0  0  0  0  0  0  0  0  0  0
    0.8229    0.7056   -0.0912 C   0  0  0  0  0  0  0  0  0  0  0  0
    1.5841    0.1869    0.9589 C   0  0  0  0  0  0  0  0  0  0  0  0
    2.7468    0.6269   -1.5814 C   0  0  0  0  0  0  0  0  0  0  0  0
    1.4009    0.9243   -1.3541 C   0  0  0  0  0  0  0  0  0  0  0  0
    4.9914   -0.6857    0.7929 C   0  0  0  0  0  0  0  0  0  0  0  0
   -0.5809    1.0229    0.1224 C   0  0  0  0  0  0  0  0  0  0  0  0
   -1.6259    0.1748   -0.0409 C   0  0  0  0  0  0  0  0  0  0  0  0
   -2.9913    0.7131    0.2391 C   0  0  0  0  0  0  0  0  0  0  0  0
   -5.2780    0.1095    0.2797 C   0  0  0  0  0  0  0  0  0  0  0  0
   -6.1715   -1.0857    0.0247 C   0  0  0  0  0  0  0  0  0  0  0  0
   -1.4408   -1.1827   -0.4412 C   0  0  0  0  0  0  0  0  0  0  0  0
  1  6  1  0
  1 12  1  0
  2  7  1  0
  2 12  1  0
  3 15  1  0
  3 16  1  0
  4 15  2  0
  5 18  3  0
  6  7  2  0
  6  9  1  0
  7 10  1  0
  8  9  2  0
  8 11  1  0
  8 13  1  0
 10 11  2  0
 13 14  2  0
 14 15  1  0
 14 18  1  0
 16 17  1  0
M  END
>  <PUBCHEM_COMPOUND_CID>  (1) 
16796

>  <PUBCHEM_CONFORMER_RMSD>  (1) 
0.6

>  <PUBCHEM_CONFORMER_DIVERSEORDER>  (1) 
1
19
30
17
8
15
5
12
6
11
39
40
41
37
4
14
13
36
29
32
38
24
21
9
16
33
35
28
7
10
42
25
2
23
3
27
18
31
26
34
20
22

>  <PUBCHEM_MMFF94_PARTIAL_CHARGES>  (1) 
21
1 -0.36
10 -0.15
11 -0.15
12 0.56
13 -0.18
14 0.08
15 0.71
16 0.28
18 0.49
19 0.15
2 -0.36
20 0.15
21 0.15
24 0.15
3 -0.43
4 -0.57
5 -0.56
6 0.08
7 0.08
8 0.03
9 -0.15

>  <PUBCHEM_EFFECTIVE_ROTOR_COUNT>  (1) 
4.6

>  <PUBCHEM_PHARMACOPHORE_FEATURES>  (1) 
6
1 1 acceptor
1 2 acceptor
1 4 acceptor
1 5 acceptor
5 1 2 6 7 12 rings
6 6 7 8 9 10 11 rings

>  <PUBCHEM_HEAVY_ATOM_COUNT>  (1) 
18

>  <PUBCHEM_ATOM_DEF_STEREO_COUNT>  (1) 
0

>  <PUBCHEM_ATOM_UDEF_STEREO_COUNT>  (1) 
0

>  <PUBCHEM_BOND_DEF_STEREO_COUNT>  (1) 
0

>  <PUBCHEM_BOND_UDEF_STEREO_COUNT>  (1) 
1

>  <PUBCHEM_ISOTOPIC_ATOM_COUNT>  (1) 
0

>  <PUBCHEM_COMPONENT_COUNT>  (1) 
1

>  <PUBCHEM_CACTVS_TAUTO_COUNT>  (1) 
1

>  <PUBCHEM_CONFORMER_ID>  (1) 
0000419C00000001

>  <PUBCHEM_MMFF94_ENERGY>  (1) 
40.7798

>  <PUBCHEM_FEATURE_SELFOVERLAP>  (1) 
30.603

>  <PUBCHEM_SHAPE_FINGERPRINT>  (1) 
11287383 113 15267341842793458431
11471102 20 16370730331241590108
12236239 1 18186522098460463141
12592029 89 18409735032331973139
12670546 56 17894914022614915837
13581323 91 18413387622564427500
13862211 1 18342736360624640991
14115302 16 18411705421429452476
15042514 8 18199186360090841263
15375358 24 17060616685859960900
17834072 33 17458628942927143163
1813 80 17604151403171620254
18785283 64 16701162257037606457
19422 9 17967258606330262265
200 152 17458343035618302349
20028762 73 17702943772900427807
20279233 1 17132120151717603478
20612939 158 16660655067802056644
20645477 70 16515677819407091842
21267235 1 18334020479535803850
23402539 116 17988636394367662453
23559900 14 17917721235697175612
26918003 58 15051734196534105255
2871803 45 15140675865263515872
29717793 49 18040436572868251549
34797466 226 17845947324729508116
4340502 62 14548741733399175669
465052 167 18041570225634473747
474 4 17533510177463005596
522135 26 17022903462591391044
59755656 215 18272371928340889455
69090 78 16702299062098138405
8272917 22 17313662634225416219

>  <PUBCHEM_SHAPE_MULTIPOLES>  (1) 
341.97
11.7
1.39
1.17
8.82
0.23
-0.1
3.05
1.43
0.77
-0.2
-1.06
-0.01
-1.23

>  <PUBCHEM_SHAPE_SELFOVERLAP>  (1) 
730.187

>  <PUBCHEM_SHAPE_VOLUME>  (1) 
188.6

>  <PUBCHEM_COORDINATE_TYPE>  (1) 
2
5
10

$$$$
