16806
     RDKit          3D

 14 14  0  0  0  0  0  0  0  0999 V2000
    2.3432   -0.3858   -0.0998 O   0  0  0  0  0  0  0  0  0  0  0  0
   -3.8730    0.6802   -0.8544 O   0  0  0  0  0  0  0  0  0  0  0  0
   -3.4294   -1.5084    0.7646 O   0  0  0  0  0  0  0  0  0  0  0  0
    4.1482    1.0333    0.2089 O   0  0  0  0  0  0  0  0  0  0  0  0
    1.6052    0.7730    0.1524 N   0  0  0  0  0  0  0  0  0  0  0  0
    0.3412    0.4655    0.0851 C   0  0  0  0  0  0  0  0  0  0  0  0
   -0.6344    1.5561    0.3229 C   0  0  0  0  0  0  0  0  0  0  0  0
   -0.0679   -0.9280   -0.2229 C   0  0  0  0  0  0  0  0  0  0  0  0
   -1.9581    1.5954    0.1718 C   0  0  0  0  0  0  0  0  0  0  0  0
   -1.2612   -1.5192   -0.1606 C   0  0  0  0  0  0  0  0  0  0  0  0
   -2.8334    0.4943   -0.2362 C   0  0  0  0  0  0  0  0  0  0  0  0
   -2.5371   -0.8944    0.1953 C   0  0  0  0  0  0  0  0  0  0  0  0
    3.6688   -0.0674   -0.0300 C   0  0  0  0  0  0  0  0  0  0  0  0
    4.4878   -1.2946   -0.2971 C   0  0  0  0  0  0  0  0  0  0  0  0
  1  5  1  0
  1 13  1  0
  2 11  2  0
  3 12  2  0
  4 13  2  0
  5  6  2  3
  6  7  1  0
  6  8  1  0
  7  9  2  0
  8 10  2  0
  9 11  1  0
 10 12  1  0
 11 12  1  0
 13 14  1  0
M  END
>  <PUBCHEM_COMPOUND_CID>  (1) 
16806

>  <PUBCHEM_CONFORMER_RMSD>  (1) 
0.6

>  <PUBCHEM_CONFORMER_DIVERSEORDER>  (1) 
1
6
17
15
18
11
9
5
16
4
3
14
13
10
12
2
7
8

>  <PUBCHEM_MMFF94_PARTIAL_CHARGES>  (1) 
18
1 -0.09
10 -0.14
11 0.56
12 0.56
13 0.66
14 0.06
15 0.15
16 0.15
17 0.15
18 0.15
2 -0.57
3 -0.57
4 -0.57
5 -0.51
6 0.42
7 -0.14
8 -0.14
9 -0.14

>  <PUBCHEM_EFFECTIVE_ROTOR_COUNT>  (1) 
2

>  <PUBCHEM_PHARMACOPHORE_FEATURES>  (1) 
5
1 2 acceptor
1 3 acceptor
1 4 acceptor
1 5 acceptor
7 6 7 8 9 10 11 12 rings

>  <PUBCHEM_HEAVY_ATOM_COUNT>  (1) 
14

>  <PUBCHEM_ATOM_DEF_STEREO_COUNT>  (1) 
0

>  <PUBCHEM_ATOM_UDEF_STEREO_COUNT>  (1) 
0

>  <PUBCHEM_BOND_DEF_STEREO_COUNT>  (1) 
0

>  <PUBCHEM_BOND_UDEF_STEREO_COUNT>  (1) 
0

>  <PUBCHEM_ISOTOPIC_ATOM_COUNT>  (1) 
0

>  <PUBCHEM_COMPONENT_COUNT>  (1) 
1

>  <PUBCHEM_CACTVS_TAUTO_COUNT>  (1) 
1

>  <PUBCHEM_CONFORMER_ID>  (1) 
000041A600000001

>  <PUBCHEM_MMFF94_ENERGY>  (1) 
45.9165

>  <PUBCHEM_FEATURE_SELFOVERLAP>  (1) 
25.393

>  <PUBCHEM_SHAPE_FINGERPRINT>  (1) 
10751810 167 18187373112260752430
11132069 177 18410006641742054112
12032990 46 18411423933425480010
124424 183 18412260631725296759
13024252 1 14923946743477987921
13296908 3 18410857676727009938
14144814 61 18411702071613378986
14325111 11 18412545384126090024
14911166 2 18410564072984357613
15196674 1 18411700993165137382
17834074 16 18341615876275906702
18186145 218 17603861213400044238
190213 19 18260266352273279316
200 152 17346310475384799196
20201158 50 18202002105456299982
20510252 161 18272655640351918144
20528008 55 18272363187686692312
20645476 183 17676202468532138971
20645477 70 18130785621193219902
21339142 51 18335136501424093061
23402539 116 18202556272839833197
23463225 33 18409731733954916382
23559900 14 18413103957903423744
2748010 2 18267292326217334545
3312278 4 18334575741624391979
4175511 318 17821721707123473365
5104073 3 18411982455742256792
69090 78 18131062723529018206
8809292 202 18335425685524319219
9709674 26 18200599081770607478

>  <PUBCHEM_SHAPE_MULTIPOLES>  (1) 
259.66
7.82
1.72
0.69
7.01
0.03
0.01
1.09
0.47
-0.6
-0.14
-0.3
0.03
0.51

>  <PUBCHEM_SHAPE_SELFOVERLAP>  (1) 
535.453

>  <PUBCHEM_SHAPE_VOLUME>  (1) 
145.7

>  <PUBCHEM_COORDINATE_TYPE>  (1) 
2
5
10

$$$$
