16807
     RDKit          3D

 11 11  0  0  0  0  0  0  0  0999 V2000
    2.8843    1.2199    0.0148 O   0  0  0  0  0  0  0  0  0  0  0  0
    2.4438   -1.4190    0.6275 O   0  0  0  0  0  0  0  0  0  0  0  0
   -3.2713   -0.1342    0.9413 O   0  0  0  0  0  0  0  0  0  0  0  0
   -2.8580    0.1466   -0.1826 N   0  0  0  0  0  0  0  0  0  0  0  0
    1.6017    0.6874   -0.0020 C   0  0  0  0  0  0  0  0  0  0  0  0
   -1.5195    0.1328   -0.2721 C   0  0  0  0  0  0  0  0  0  0  0  0
    0.5708    1.5310   -0.1171 C   0  0  0  0  0  0  0  0  0  0  0  0
   -0.8458    1.2758   -0.0486 C   0  0  0  0  0  0  0  0  0  0  0  0
    1.5114   -0.7893    0.1289 C   0  0  0  0  0  0  0  0  0  0  0  0
   -0.8875   -1.1204   -0.6407 C   0  0  0  0  0  0  0  0  0  0  0  0
    0.3701   -1.5306   -0.4495 C   0  0  0  0  0  0  0  0  0  0  0  0
  1  5  1  0
  2  9  2  0
  3  4  2  0
  4  6  1  0
  5  7  2  0
  5  9  1  0
  6  8  2  0
  6 10  1  0
  7  8  1  0
  9 11  1  0
 10 11  2  0
M  END
>  <PUBCHEM_COMPOUND_CID>  (1) 
16807

>  <PUBCHEM_CONFORMER_RMSD>  (1) 
0.4

>  <PUBCHEM_CONFORMER_DIVERSEORDER>  (1) 
1
2
3
4

>  <PUBCHEM_MMFF94_PARTIAL_CHARGES>  (1) 
16
1 -0.53
10 -0.15
11 -0.14
12 0.15
13 0.15
14 0.15
15 0.15
16 0.45
2 -0.57
3 -0.16
4 -0.13
5 0.09
6 0.29
7 -0.15
8 -0.15
9 0.54

>  <PUBCHEM_EFFECTIVE_ROTOR_COUNT>  (1) 
1

>  <PUBCHEM_PHARMACOPHORE_FEATURES>  (1) 
3
1 1 donor
1 2 acceptor
7 5 6 7 8 9 10 11 rings

>  <PUBCHEM_HEAVY_ATOM_COUNT>  (1) 
11

>  <PUBCHEM_ATOM_DEF_STEREO_COUNT>  (1) 
0

>  <PUBCHEM_ATOM_UDEF_STEREO_COUNT>  (1) 
0

>  <PUBCHEM_BOND_DEF_STEREO_COUNT>  (1) 
0

>  <PUBCHEM_BOND_UDEF_STEREO_COUNT>  (1) 
0

>  <PUBCHEM_ISOTOPIC_ATOM_COUNT>  (1) 
0

>  <PUBCHEM_COMPONENT_COUNT>  (1) 
1

>  <PUBCHEM_CACTVS_TAUTO_COUNT>  (1) 
4

>  <PUBCHEM_CONFORMER_ID>  (1) 
000041A700000001

>  <PUBCHEM_MMFF94_ENERGY>  (1) 
37.8011

>  <PUBCHEM_FEATURE_SELFOVERLAP>  (1) 
15.223

>  <PUBCHEM_SHAPE_FINGERPRINT>  (1) 
10219947 1 18411983550842839293
15775835 57 18271810167449707041
16945 1 18336256950642897188
18185500 45 18268136733608589580
21040471 1 18269269230553621748
23235685 24 18341328989149734148
23552423 10 18261391096580724798
241688 4 17405153919784690506
2748010 2 18267012856684389844
29004967 10 18113337526552806313
5084963 1 18059285448921222402
528862 383 18334855038878428130
63268167 104 18413101779748265185

>  <PUBCHEM_SHAPE_MULTIPOLES>  (1) 
203.79
3.93
1.72
0.75
1.29
0.04
0.03
-0.17
0.92
-0.78
-0.1
0.18
0.11
-0.2

>  <PUBCHEM_SHAPE_SELFOVERLAP>  (1) 
425.684

>  <PUBCHEM_SHAPE_VOLUME>  (1) 
113

>  <PUBCHEM_COORDINATE_TYPE>  (1) 
2
5
10

$$$$
