16805
     RDKit          3D

 29 32  0  0  1  0  0  0  0  0999 V2000
   -5.2358    0.8125   -0.1183 O   0  0  0  0  0  0  0  0  0  0  0  0
    5.8788   -0.4897   -0.0630 O   0  0  0  0  0  0  0  0  0  0  0  0
   -6.7505   -0.1614    1.3243 O   0  0  0  0  0  0  0  0  0  0  0  0
    6.5547    0.8751    1.6703 O   0  0  0  0  0  0  0  0  0  0  0  0
   -2.0841   -0.9775    0.2912 C   0  0  0  0  0  0  0  0  0  0  0  0
   -2.8230    0.2661   -0.2336 C   0  0  0  0  0  0  0  0  0  0  0  0
   -0.6671   -1.1161   -0.2733 C   0  0  0  0  0  0  0  0  0  0  0  0
    0.1596    0.1548    0.0801 C   0  0  0  0  0  0  0  0  0  0  0  0
    1.6230    0.0768   -0.5143 C   0  0  0  0  0  0  0  0  0  0  0  0
   -2.0486    1.5034    0.2380 C   0  0  0  0  0  0  0  0  0  0  0  0
   -0.5914    1.4735   -0.2547 C   0  0  0  0  0  0  0  0  0  0  0  0
   -4.1860    0.0577    0.4554 C   0  0  0  0  0  0  0  0  0  0  0  0
   -3.0816   -2.1104    0.0656 C   0  0  0  0  0  0  0  0  0  0  0  0
   -4.4520   -1.4531    0.3107 C   0  0  0  0  0  0  0  0  0  0  0  0
    0.0216   -2.3688    0.2883 C   0  0  0  0  0  0  0  0  0  0  0  0
    2.2334   -1.3125   -0.2815 C   0  0  0  0  0  0  0  0  0  0  0  0
    2.4993    1.1458    0.2044 C   0  0  0  0  0  0  0  0  0  0  0  0
   -2.9975    0.3110   -1.7724 C   0  0  0  0  0  0  0  0  0  0  0  0
    1.5031   -2.3790    0.0880 C   0  0  0  0  0  0  0  0  0  0  0  0
    1.6273    0.3511   -2.0375 C   0  0  0  0  0  0  0  0  0  0  0  0
    3.7253   -1.4522   -0.4785 C   0  0  0  0  0  0  0  0  0  0  0  0
    3.9980    1.0157   -0.0634 C   0  0  0  0  0  0  0  0  0  0  0  0
    4.5015   -0.3820    0.2824 C   0  0  0  0  0  0  0  0  0  0  0  0
   -6.4864    0.6092    0.4116 C   0  0  0  0  0  0  0  0  0  0  0  0
   -7.4867    1.4848   -0.3060 C   0  0  0  0  0  0  0  0  0  0  0  0
    6.7191    0.3962    0.5566 C   0  0  0  0  0  0  0  0  0  0  0  0
   -8.8974    1.2925    0.2223 C   0  0  0  0  0  0  0  0  0  0  0  0
    7.8875    0.6911   -0.3545 C   0  0  0  0  0  0  0  0  0  0  0  0
    8.8560    1.6855    0.2616 C   0  0  0  0  0  0  0  0  0  0  0  0
  1 12  1  0
  1 24  1  0
  2 23  1  0
  2 26  1  0
  3 24  2  0
  4 26  2  0
  5  6  1  0
  5  7  1  0
  5 13  1  0
  6 10  1  0
  6 12  1  0
  6 18  1  0
  7  8  1  0
  7 15  1  0
  8  9  1  0
  8 11  1  0
  9 16  1  0
  9 17  1  0
  9 20  1  0
 10 11  1  0
 12 14  1  0
 13 14  1  0
 15 19  1  0
 16 19  2  0
 16 21  1  0
 17 22  1  0
 21 23  1  0
 22 23  1  0
 24 25  1  0
 25 27  1  0
 26 28  1  0
 28 29  1  0
M  END
>  <PUBCHEM_COMPOUND_CID>  (1) 
16805

>  <PUBCHEM_CONFORMER_RMSD>  (1) 
1

>  <PUBCHEM_CONFORMER_DIVERSEORDER>  (1) 
1
3
9
10
2
5
4
8
7
6

>  <PUBCHEM_MMFF94_PARTIAL_CHARGES>  (1) 
16
1 -0.43
12 0.28
15 0.14
16 -0.28
19 -0.29
2 -0.43
21 0.14
23 0.28
24 0.66
25 0.06
26 0.66
28 0.06
3 -0.57
4 -0.57
49 0.15
9 0.14

>  <PUBCHEM_EFFECTIVE_ROTOR_COUNT>  (1) 
8

>  <PUBCHEM_PHARMACOPHORE_FEATURES>  (1) 
8
1 27 hydrophobe
1 29 hydrophobe
1 3 acceptor
1 4 acceptor
5 5 6 12 13 14 rings
6 5 6 7 8 10 11 rings
6 7 8 9 15 16 19 rings
6 9 16 17 21 22 23 rings

>  <PUBCHEM_HEAVY_ATOM_COUNT>  (1) 
29

>  <PUBCHEM_ATOM_DEF_STEREO_COUNT>  (1) 
7

>  <PUBCHEM_ATOM_UDEF_STEREO_COUNT>  (1) 
0

>  <PUBCHEM_BOND_DEF_STEREO_COUNT>  (1) 
0

>  <PUBCHEM_BOND_UDEF_STEREO_COUNT>  (1) 
0

>  <PUBCHEM_ISOTOPIC_ATOM_COUNT>  (1) 
0

>  <PUBCHEM_COMPONENT_COUNT>  (1) 
1

>  <PUBCHEM_CACTVS_TAUTO_COUNT>  (1) 
1

>  <PUBCHEM_CONFORMER_ID>  (1) 
000041A500000001

>  <PUBCHEM_MMFF94_ENERGY>  (1) 
77.0736

>  <PUBCHEM_FEATURE_SELFOVERLAP>  (1) 
40.693

>  <PUBCHEM_SHAPE_FINGERPRINT>  (1) 
10 15 18186238428855593800
10076449 9 9871746910225171467
106641 1 17458064889367710224
10670039 82 10231767668792849763
11315181 36 17632298995263043737
12107698 1 16081091471941252773
12236239 1 17676487272261244302
12788726 201 17489311811675628257
12838862 33 18337095813970175861
13685833 64 10737287939329698715
14251764 18 18040434421369327714
14251764 46 18260548922509108305
15247644 1 14056723452756179641
15461852 350 17632291315819431167
15840311 113 18040441014729963068
15849732 13 17822012017005972484
16087824 20 18337955589588930973
16728433 281 14331743081357947155
18335252 114 16128655263117720112
18603816 31 14346085269369693593
19315958 150 18411423886265521607
20505436 4 18131344202743395487
21033648 29 18200860886113256554
21150785 3 15195564598582736785
22224240 67 18408319990625555338
23559900 14 18341325695442672216
23576562 1 15840688820758380689
24771293 8 18271811194633121785
335352 9 18411135853343073237
350125 39 18409448111647759380
4073 2 18261117382568525898
4093350 32 17418099776154575798
5104073 3 18190178983903099891
5385378 56 18261954046587621474
5758199 1 18413671305275628266
59682541 35 18187650236060942384
59755656 215 18335708191298644055

>  <PUBCHEM_SHAPE_MULTIPOLES>  (1) 
573.33
22.6
2.04
1.06
3.98
0.9
0.3
-13.57
-5.19
-0.21
-0.11
0.15
-0.15
0.61

>  <PUBCHEM_SHAPE_SELFOVERLAP>  (1) 
1203.979

>  <PUBCHEM_SHAPE_VOLUME>  (1) 
320.2

>  <PUBCHEM_COORDINATE_TYPE>  (1) 
2
5
10

$$$$
