16818
     RDKit          3D

 23 26  0  0  1  0  0  0  0  0999 V2000
    5.1198   -1.1271   -0.1227 O   0  0  0  0  0  0  0  0  0  0  0  0
   -4.5281   -2.3101    0.5331 O   0  0  0  0  0  0  0  0  0  0  0  0
   -5.3568    0.2432    1.2797 O   0  0  0  0  0  0  0  0  0  0  0  0
    2.7334   -0.5265   -0.2215 C   0  0  0  0  0  0  0  0  0  0  0  0
    1.9938    0.7083    0.3364 C   0  0  0  0  0  0  0  0  0  0  0  0
    0.6397    0.9546   -0.3418 C   0  0  0  0  0  0  0  0  0  0  0  0
   -0.2743   -0.2998   -0.1260 C   0  0  0  0  0  0  0  0  0  0  0  0
    4.0794   -0.4329    0.5625 C   0  0  0  0  0  0  0  0  0  0  0  0
    1.8545   -1.7584    0.0478 C   0  0  0  0  0  0  0  0  0  0  0  0
    3.0478    1.8096    0.2812 C   0  0  0  0  0  0  0  0  0  0  0  0
    0.4477   -1.6063   -0.5609 C   0  0  0  0  0  0  0  0  0  0  0  0
    4.3782    1.0897    0.5707 C   0  0  0  0  0  0  0  0  0  0  0  0
   -1.7067   -0.1067   -0.7527 C   0  0  0  0  0  0  0  0  0  0  0  0
   -0.0353    2.2243    0.2001 C   0  0  0  0  0  0  0  0  0  0  0  0
    3.0188   -0.4417   -1.7497 C   0  0  0  0  0  0  0  0  0  0  0  0
   -1.4130    2.4378   -0.4185 C   0  0  0  0  0  0  0  0  0  0  0  0
   -2.2734    1.2143   -0.2244 C   0  0  0  0  0  0  0  0  0  0  0  0
    4.0489   -0.9877    1.9923 C   0  0  0  0  0  0  0  0  0  0  0  0
   -1.6736   -0.0613   -2.2970 C   0  0  0  0  0  0  0  0  0  0  0  0
   -2.6071   -1.2786   -0.3863 C   0  0  0  0  0  0  0  0  0  0  0  0
   -3.4414    1.3146    0.4292 C   0  0  0  0  0  0  0  0  0  0  0  0
   -3.7719   -1.1892    0.2660 C   0  0  0  0  0  0  0  0  0  0  0  0
   -4.2803    0.1300    0.7024 C   0  0  0  0  0  0  0  0  0  0  0  0
  1  8  1  0
  2 22  1  0
  3 23  2  0
  4  5  1  0
  4  8  1  0
  4  9  1  0
  4 15  1  0
  5  6  1  0
  5 10  1  0
  6  7  1  0
  6 14  1  0
  7 11  1  0
  7 13  1  0
  8 12  1  0
  8 18  1  0
  9 11  1  0
 10 12  1  0
 13 17  1  0
 13 19  1  0
 13 20  1  0
 14 16  1  0
 16 17  1  0
 17 21  2  0
 20 22  2  0
 21 23  1  0
 22 23  1  0
M  END
>  <PUBCHEM_COMPOUND_CID>  (1) 
16818

>  <PUBCHEM_CONFORMER_RMSD>  (1) 
0.6

>  <PUBCHEM_CONFORMER_DIVERSEORDER>  (1) 
1

>  <PUBCHEM_MMFF94_PARTIAL_CHARGES>  (1) 
15
1 -0.68
13 0.28
16 0.14
17 -0.28
2 -0.53
20 -0.29
21 -0.14
22 0.09
23 0.54
3 -0.57
48 0.15
49 0.4
50 0.15
51 0.45
8 0.28

>  <PUBCHEM_EFFECTIVE_ROTOR_COUNT>  (1) 
1.4

>  <PUBCHEM_PHARMACOPHORE_FEATURES>  (1) 
8
1 1 acceptor
1 1 donor
1 2 donor
1 3 acceptor
5 4 5 8 10 12 rings
6 13 17 20 21 22 23 rings
6 4 5 6 7 9 11 rings
6 6 7 13 14 16 17 rings

>  <PUBCHEM_HEAVY_ATOM_COUNT>  (1) 
23

>  <PUBCHEM_ATOM_DEF_STEREO_COUNT>  (1) 
6

>  <PUBCHEM_ATOM_UDEF_STEREO_COUNT>  (1) 
0

>  <PUBCHEM_BOND_DEF_STEREO_COUNT>  (1) 
0

>  <PUBCHEM_BOND_UDEF_STEREO_COUNT>  (1) 
0

>  <PUBCHEM_ISOTOPIC_ATOM_COUNT>  (1) 
0

>  <PUBCHEM_COMPONENT_COUNT>  (1) 
1

>  <PUBCHEM_CACTVS_TAUTO_COUNT>  (1) 
6

>  <PUBCHEM_CONFORMER_ID>  (1) 
000041B200000001

>  <PUBCHEM_MMFF94_ENERGY>  (1) 
80.0276

>  <PUBCHEM_FEATURE_SELFOVERLAP>  (1) 
40.696

>  <PUBCHEM_SHAPE_FINGERPRINT>  (1) 
11132069 177 18343022177216883517
11552529 35 17774720969665846815
11578080 2 17604409886439842541
11796584 16 16153419576178548227
12236239 1 17749395815442837092
12403259 415 18272925008522910760
12403814 3 18201711852009651885
12553582 1 18410570669473726044
12633257 1 18409738361200243715
128620 24 16515402975770182468
13140716 1 18341330088666506849
13214271 11 18342172254855219965
13224815 77 18409443687372255276
13544653 18 17967532410859223155
13583140 156 17604967304896599254
13675066 3 17775282763855866290
14178342 30 18124593081426843560
14223421 5 18339079268057788453
14289901 80 16588019083223754462
14341114 176 18409172095131175560
14341114 328 18408326587737279899
14787075 74 18041842942761190360
14790565 3 17905898328545043732
15196674 1 18411982485321840696
15209289 33 18040437680943674179
15788980 27 16660640761007543351
16945 1 18268143167395999428
17349148 13 17458065954150393234
17492 89 18335132047522473514
1813 80 17458635518580141581
18186145 218 18334285462365469204
19050596 39 18409448081092241475
19141452 34 18060421330848973975
19784866 170 18343588417052073543
200 152 13551193290391466957
20028762 73 18057324105399960983
20261772 1 18201997741917220214
20739085 24 18410581716377979300
20775438 99 12329075306082146153
21033648 29 16845003520736451211
21267235 1 18411428301423148175
21421861 104 18115869590178392634
21637258 2 16153997949728684065
22182313 1 17986112915833153716
23402539 116 18187077347537431767
23557571 272 18271813358731772932
23559900 14 18197501723150019406
2838139 119 14762951732928921905
296302 2 14117794730249532292
3286 77 18260544566984749014
34934 24 18411695448974352981
350125 39 18412547617873327680
392239 28 18408886247703704219
4340502 62 15195571208247190597
5104073 3 18413386557396578264
7097593 13 17682385954085748234
9709674 26 18198339563504623655

>  <PUBCHEM_SHAPE_MULTIPOLES>  (1) 
455.72
9.82
2.19
1.36
0.79
0.45
0.33
-2.28
-3.82
0.58
-0.13
-0.23
-0.26
0.1

>  <PUBCHEM_SHAPE_SELFOVERLAP>  (1) 
985.558

>  <PUBCHEM_SHAPE_VOLUME>  (1) 
248.8

>  <PUBCHEM_COORDINATE_TYPE>  (1) 
2
5
10

$$$$
