1682
     RDKit          3D

  9  8  0  0  0  0  0  0  0  0999 V2000
   -1.8598   -0.0669   -0.0795 P   0  0  0  0  0  0  0  0  0  0  0  0
   -2.7635    1.2618    0.0167 O   0  0  0  0  0  0  0  0  0  0  0  0
   -1.9799   -0.7263    1.3843 O   0  0  0  0  0  0  0  0  0  0  0  0
   -2.1361   -0.9683   -1.2311 O   0  0  0  0  0  0  0  0  0  0  0  0
    3.2034   -0.9249    0.0732 O   0  0  0  0  0  0  0  0  0  0  0  0
    2.5684    1.2501   -0.0829 O   0  0  0  0  0  0  0  0  0  0  0  0
   -0.1813    0.6021   -0.0689 C   0  0  0  0  0  0  0  0  0  0  0  0
    0.8728   -0.4922   -0.0010 C   0  0  0  0  0  0  0  0  0  0  0  0
    2.2761    0.0646   -0.0106 C   0  0  0  0  0  0  0  0  0  0  0  0
  1  2  1  0
  1  3  1  0
  1  4  2  0
  1  7  1  0
  5  9  1  0
  6  9  2  0
  7  8  1  0
  8  9  1  0
M  END
>  <PUBCHEM_COMPOUND_CID>  (1) 
1682

>  <PUBCHEM_CONFORMER_RMSD>  (1) 
0.6

>  <PUBCHEM_CONFORMER_DIVERSEORDER>  (1) 
1
3
5
4
2
6

>  <PUBCHEM_MMFF94_PARTIAL_CHARGES>  (1) 
11
1 1.24
14 0.5
15 0.5
16 0.5
2 -0.77
3 -0.77
4 -0.7
5 -0.65
6 -0.57
8 0.06
9 0.66

>  <PUBCHEM_EFFECTIVE_ROTOR_COUNT>  (1) 
3

>  <PUBCHEM_PHARMACOPHORE_FEATURES>  (1) 
7
1 2 acceptor
1 3 acceptor
1 4 acceptor
1 5 acceptor
1 6 acceptor
3 5 6 9 anion
4 1 2 3 4 anion

>  <PUBCHEM_HEAVY_ATOM_COUNT>  (1) 
9

>  <PUBCHEM_ATOM_DEF_STEREO_COUNT>  (1) 
0

>  <PUBCHEM_ATOM_UDEF_STEREO_COUNT>  (1) 
0

>  <PUBCHEM_BOND_DEF_STEREO_COUNT>  (1) 
0

>  <PUBCHEM_BOND_UDEF_STEREO_COUNT>  (1) 
0

>  <PUBCHEM_ISOTOPIC_ATOM_COUNT>  (1) 
0

>  <PUBCHEM_COMPONENT_COUNT>  (1) 
1

>  <PUBCHEM_CACTVS_TAUTO_COUNT>  (1) 
1

>  <PUBCHEM_CONFORMER_ID>  (1) 
0000069200000001

>  <PUBCHEM_MMFF94_ENERGY>  (1) 
-24.7395

>  <PUBCHEM_FEATURE_SELFOVERLAP>  (1) 
35.618

>  <PUBCHEM_SHAPE_FINGERPRINT>  (1) 
12932741 1 17603301583229508862
12932764 1 18130794498547468992
14325111 11 18411698798716488988
14390081 3 18409445903401540480
29004967 10 18187932810686469376
3248919 1 17968372437605804412

>  <PUBCHEM_SHAPE_MULTIPOLES>  (1) 
159.72
4.91
1.15
0.89
1.68
0.18
0.07
0.06
-0.01
-0.05
-0.04
-0.65
-0.26
-0.1

>  <PUBCHEM_SHAPE_SELFOVERLAP>  (1) 
284.767

>  <PUBCHEM_SHAPE_VOLUME>  (1) 
103.4

>  <PUBCHEM_COORDINATE_TYPE>  (1) 
2
5
10

$$$$
