16820
     RDKit          3D

 18 21  0  0  0  0  0  0  0  0999 V2000
    3.5185    2.0296   -0.0017 O   0  0  0  0  0  0  0  0  0  0  0  0
   -3.5187    2.0296   -0.0001 O   0  0  0  0  0  0  0  0  0  0  0  0
    0.7073   -0.2470    0.0004 C   0  0  0  0  0  0  0  0  0  0  0  0
   -0.7074   -0.2470    0.0003 C   0  0  0  0  0  0  0  0  0  0  0  0
    1.3920    0.9823    0.0003 C   0  0  0  0  0  0  0  0  0  0  0  0
   -1.3920    0.9823    0.0004 C   0  0  0  0  0  0  0  0  0  0  0  0
    1.4019   -1.4711    0.0003 C   0  0  0  0  0  0  0  0  0  0  0  0
   -1.4019   -1.4713   -0.0002 C   0  0  0  0  0  0  0  0  0  0  0  0
    0.6965    2.1951    0.0004 C   0  0  0  0  0  0  0  0  0  0  0  0
   -0.6966    2.1951    0.0006 C   0  0  0  0  0  0  0  0  0  0  0  0
    0.6971   -2.6793   -0.0002 C   0  0  0  0  0  0  0  0  0  0  0  0
   -0.6970   -2.6793   -0.0005 C   0  0  0  0  0  0  0  0  0  0  0  0
    2.8754    0.9877   -0.0005 C   0  0  0  0  0  0  0  0  0  0  0  0
   -2.8755    0.9876    0.0003 C   0  0  0  0  0  0  0  0  0  0  0  0
    2.8669   -1.4696    0.0010 C   0  0  0  0  0  0  0  0  0  0  0  0
   -2.8669   -1.4696   -0.0007 C   0  0  0  0  0  0  0  0  0  0  0  0
    3.5632   -0.3274    0.0003 C   0  0  0  0  0  0  0  0  0  0  0  0
   -3.5631   -0.3275   -0.0004 C   0  0  0  0  0  0  0  0  0  0  0  0
  1 13  2  0
  2 14  2  0
  3  4  2  0
  3  5  1  0
  3  7  1  0
  4  6  1  0
  4  8  1  0
  5  9  2  0
  5 13  1  0
  6 10  2  0
  6 14  1  0
  7 11  2  0
  7 15  1  0
  8 12  2  0
  8 16  1  0
  9 10  1  0
 11 12  1  0
 13 17  1  0
 14 18  1  0
 15 17  2  0
 16 18  2  0
M  END
>  <PUBCHEM_COMPOUND_CID>  (1) 
16820

>  <PUBCHEM_CONFORMER_RMSD>  (1) 
0.4

>  <PUBCHEM_CONFORMER_DIVERSEORDER>  (1) 
1

>  <PUBCHEM_MMFF94_PARTIAL_CHARGES>  (1) 
24
1 -0.57
10 -0.15
11 -0.15
12 -0.15
13 0.47
14 0.47
15 -0.18
16 -0.18
17 -0.14
18 -0.14
19 0.15
2 -0.57
20 0.15
21 0.15
22 0.15
23 0.15
24 0.15
25 0.15
26 0.15
5 0.09
6 0.09
7 0.03
8 0.03
9 -0.15

>  <PUBCHEM_EFFECTIVE_ROTOR_COUNT>  (1) 
0

>  <PUBCHEM_PHARMACOPHORE_FEATURES>  (1) 
6
1 1 acceptor
1 2 acceptor
6 3 4 5 6 9 10 rings
6 3 4 7 8 11 12 rings
6 3 5 7 13 15 17 rings
6 4 6 8 14 16 18 rings

>  <PUBCHEM_HEAVY_ATOM_COUNT>  (1) 
18

>  <PUBCHEM_ATOM_DEF_STEREO_COUNT>  (1) 
0

>  <PUBCHEM_ATOM_UDEF_STEREO_COUNT>  (1) 
0

>  <PUBCHEM_BOND_DEF_STEREO_COUNT>  (1) 
0

>  <PUBCHEM_BOND_UDEF_STEREO_COUNT>  (1) 
0

>  <PUBCHEM_ISOTOPIC_ATOM_COUNT>  (1) 
0

>  <PUBCHEM_COMPONENT_COUNT>  (1) 
1

>  <PUBCHEM_CACTVS_TAUTO_COUNT>  (1) 
1

>  <PUBCHEM_CONFORMER_ID>  (1) 
000041B400000001

>  <PUBCHEM_MMFF94_ENERGY>  (1) 
56.0335

>  <PUBCHEM_FEATURE_SELFOVERLAP>  (1) 
30.568

>  <PUBCHEM_SHAPE_FINGERPRINT>  (1) 
10608611 8 18410572889935011521
10863032 1 18411136939399846247
10967382 1 18410575119028137510
11132069 177 18339917130415042192
12382932 28 18411700967411151585
13132413 78 18411983602034540829
13140716 1 18410292467230362186
13380535 76 18410571790423500675
13583140 156 16950551195068470481
13897977 150 18338232648652608141
14178342 30 17764298454053674048
14790565 3 18338535087107078625
15196674 1 18410575088958046213
15309172 13 18411428288754323033
15442244 35 18338233769691969354
15536298 74 18343021094937839932
16945 1 18410856559639984454
18186145 218 18272379641558586776
193761 8 18410575076073319719
19591789 44 18410578383198501415
20510252 161 18271529800717133353
20739085 24 18119839974132672561
20905425 154 18197784516407363734
21267235 1 18410583880756529858
21501502 16 18410853265399938502
2334 1 18410855494493187914
23402539 116 18342446016018205302
23463225 33 18408321068883665290
23559900 14 18343585127935156964
238 59 17467870170692021117
2748010 2 18410577292281628383
335352 9 18194402182369416982
350125 39 18410016537056449753
5104073 3 18410293605391414945
7364860 26 18125159329540647014
8809292 202 18262243222287297122
9709674 26 18341055198112427646

>  <PUBCHEM_SHAPE_MULTIPOLES>  (1) 
358.69
5.59
3.05
0.61
0
0.4
0
-1.29
0
0
0
0
0.02
0

>  <PUBCHEM_SHAPE_SELFOVERLAP>  (1) 
834.415

>  <PUBCHEM_SHAPE_VOLUME>  (1) 
182.7

>  <PUBCHEM_COORDINATE_TYPE>  (1) 
2
5
10

$$$$
