16824
     RDKit          3D

 14 14  0  0  0  0  0  0  0  0999 V2000
   -1.6442    2.5241    0.0881 Cl  0  0  0  0  0  0  0  0  0  0  0  0
    0.2374   -3.4316   -0.1862 Cl  0  0  0  0  0  0  0  0  0  0  0  0
   -3.7603    0.1141    0.1409 Cl  0  0  0  0  0  0  0  0  0  0  0  0
    2.0020   -1.0225   -0.2175 O   0  0  0  0  0  0  0  0  0  0  0  0
    1.9857    1.6199   -1.2321 O   0  0  0  0  0  0  0  0  0  0  0  0
    1.4063    2.4820    0.7897 O   0  0  0  0  0  0  0  0  0  0  0  0
    0.2373    0.5809   -0.0722 C   0  0  0  0  0  0  0  0  0  0  0  0
    0.6676   -0.7446   -0.1344 C   0  0  0  0  0  0  0  0  0  0  0  0
   -1.1251    0.8685    0.0128 C   0  0  0  0  0  0  0  0  0  0  0  0
   -0.2644   -1.7823   -0.1114 C   0  0  0  0  0  0  0  0  0  0  0  0
   -2.0569   -0.1693    0.0356 C   0  0  0  0  0  0  0  0  0  0  0  0
   -1.6265   -1.4947   -0.0264 C   0  0  0  0  0  0  0  0  0  0  0  0
    1.2376    1.6458   -0.0982 C   0  0  0  0  0  0  0  0  0  0  0  0
    2.7034   -1.1901    1.0113 C   0  0  0  0  0  0  0  0  0  0  0  0
  1  9  1  0
  2 10  1  0
  3 11  1  0
  4  8  1  0
  4 14  1  0
  5 13  1  0
  6 13  2  0
  7  8  2  0
  7  9  1  0
  7 13  1  0
  8 10  1  0
  9 11  2  0
 10 12  2  0
 11 12  1  0
M  END
>  <PUBCHEM_COMPOUND_CID>  (1) 
16824

>  <PUBCHEM_CONFORMER_RMSD>  (1) 
0.6

>  <PUBCHEM_CONFORMER_DIVERSEORDER>  (1) 
2
1

>  <PUBCHEM_MMFF94_PARTIAL_CHARGES>  (1) 
16
1 -0.18
10 0.18
11 0.18
12 -0.15
13 0.63
14 0.28
15 0.15
19 0.5
2 -0.18
3 -0.18
4 -0.36
5 -0.65
6 -0.57
7 0.09
8 0.08
9 0.18

>  <PUBCHEM_EFFECTIVE_ROTOR_COUNT>  (1) 
2

>  <PUBCHEM_PHARMACOPHORE_FEATURES>  (1) 
5
1 4 acceptor
1 5 acceptor
1 6 acceptor
3 5 6 13 anion
6 7 8 9 10 11 12 rings

>  <PUBCHEM_HEAVY_ATOM_COUNT>  (1) 
14

>  <PUBCHEM_ATOM_DEF_STEREO_COUNT>  (1) 
0

>  <PUBCHEM_ATOM_UDEF_STEREO_COUNT>  (1) 
0

>  <PUBCHEM_BOND_DEF_STEREO_COUNT>  (1) 
0

>  <PUBCHEM_BOND_UDEF_STEREO_COUNT>  (1) 
0

>  <PUBCHEM_ISOTOPIC_ATOM_COUNT>  (1) 
0

>  <PUBCHEM_COMPONENT_COUNT>  (1) 
1

>  <PUBCHEM_CACTVS_TAUTO_COUNT>  (1) 
1

>  <PUBCHEM_CONFORMER_ID>  (1) 
000041B800000002

>  <PUBCHEM_MMFF94_ENERGY>  (1) 
50.0527

>  <PUBCHEM_FEATURE_SELFOVERLAP>  (1) 
25.433

>  <PUBCHEM_SHAPE_FINGERPRINT>  (1) 
10967382 1 18411138030606512463
13140716 1 18410292557878713323
15490181 7 17906459075094683395
16945 1 18338802208661152127
193761 8 18051127287418044915
20511035 2 18188499097813947635
20559304 39 18337397028373855867
20645477 70 18335417972564934631
21501502 16 18265893738620623567
22802520 49 17695936674904711956
2334 1 18194402418946292583
23388829 49 18267851822726880095
23552423 10 18116996800034078350
23559900 14 17839751357764229678
241688 4 17545327371607376707
2748010 2 18265902534792708663
5255222 1 18266458895934092453
7364860 26 18413672404634112622
81228 2 16968862161249186659

>  <PUBCHEM_SHAPE_MULTIPOLES>  (1) 
276.11
3.85
3.38
0.81
1.67
0.01
-0.01
0.77
0.64
-0.78
-0.19
-0.32
-0.23
-0.08

>  <PUBCHEM_SHAPE_SELFOVERLAP>  (1) 
555.845

>  <PUBCHEM_SHAPE_VOLUME>  (1) 
165.4

>  <PUBCHEM_COORDINATE_TYPE>  (1) 
2
5
10

$$$$
