16835
     RDKit          3D

  8  7  0  0  1  0  0  0  0  0999 V2000
   -2.6546   -0.3458    0.7673 O   0  0  0  0  0  0  0  0  0  0  0  0
   -0.2740   -0.4278    0.2609 C   0  0  0  0  0  0  0  0  0  0  0  0
    0.9946    0.4322    0.0858 C   0  0  0  0  0  0  0  0  0  0  0  0
   -1.5365    0.4589    0.3894 C   0  0  0  0  0  0  0  0  0  0  0  0
    2.2921   -0.3778    0.1640 C   0  0  0  0  0  0  0  0  0  0  0  0
   -0.4116   -1.4759   -0.8509 C   0  0  0  0  0  0  0  0  0  0  0  0
   -1.9244    1.2141   -0.8761 C   0  0  0  0  0  0  0  0  0  0  0  0
    3.5144    0.5221    0.0596 C   0  0  0  0  0  0  0  0  0  0  0  0
  1  4  1  0
  2  3  1  0
  2  4  1  0
  2  6  1  0
  3  5  1  0
  4  7  1  0
  5  8  1  0
M  END
>  <PUBCHEM_COMPOUND_CID>  (1) 
16835

>  <PUBCHEM_CONFORMER_RMSD>  (1) 
0.6

>  <PUBCHEM_CONFORMER_DIVERSEORDER>  (1) 
1
33
22
31
28
7
24
11
6
25
20
14
21
29
32
17
18
16
27
26
15
12
34
19
5
30
13
8
23
4
3
2
10
9

>  <PUBCHEM_MMFF94_PARTIAL_CHARGES>  (1) 
3
1 -0.68
24 0.4
4 0.28

>  <PUBCHEM_EFFECTIVE_ROTOR_COUNT>  (1) 
3

>  <PUBCHEM_PHARMACOPHORE_FEATURES>  (1) 
4
1 1 acceptor
1 1 donor
1 6 hydrophobe
1 8 hydrophobe

>  <PUBCHEM_HEAVY_ATOM_COUNT>  (1) 
8

>  <PUBCHEM_ATOM_DEF_STEREO_COUNT>  (1) 
0

>  <PUBCHEM_ATOM_UDEF_STEREO_COUNT>  (1) 
2

>  <PUBCHEM_BOND_DEF_STEREO_COUNT>  (1) 
0

>  <PUBCHEM_BOND_UDEF_STEREO_COUNT>  (1) 
0

>  <PUBCHEM_ISOTOPIC_ATOM_COUNT>  (1) 
0

>  <PUBCHEM_COMPONENT_COUNT>  (1) 
1

>  <PUBCHEM_CACTVS_TAUTO_COUNT>  (1) 
1

>  <PUBCHEM_CONFORMER_ID>  (1) 
000041C300000001

>  <PUBCHEM_MMFF94_ENERGY>  (1) 
7.4675

>  <PUBCHEM_FEATURE_SELFOVERLAP>  (1) 
20.297

>  <PUBCHEM_SHAPE_FINGERPRINT>  (1) 
11062470 55 8358261423286377954
12897270 3 11527947850659884824
12932764 1 18411693318623023544
14325111 11 18412826858917950536
14390081 3 18260543394712150988
15310529 11 18113897156680890402
16714656 1 18341894103750620960
21040471 1 18201997707636674474
21293036 1 18130494297376236861
23235685 24 17775288257082030234
3248919 1 17132111364509882272
5084963 1 18334862718322229521
5460574 1 10015866470456331064

>  <PUBCHEM_SHAPE_MULTIPOLES>  (1) 
158.77
4.48
1.22
0.88
3.12
0.22
0.09
-1.12
-0.36
-0.37
0.35
-0.42
0.02
0.21

>  <PUBCHEM_SHAPE_SELFOVERLAP>  (1) 
280.094

>  <PUBCHEM_SHAPE_VOLUME>  (1) 
105.3

>  <PUBCHEM_COORDINATE_TYPE>  (1) 
2
5
10

$$$$
