16837
     RDKit          3D

 19 20  0  0  0  0  0  0  0  0999 V2000
    5.1416   -0.3482    0.1429 O   0  0  0  0  0  0  0  0  0  0  0  0
   -0.9161   -0.1251   -0.4631 N   0  0  0  0  0  0  0  0  0  0  0  0
   -0.3834   -0.2932    0.6590 N   0  0  0  0  0  0  0  0  0  0  0  0
   -2.3059    2.3061    0.0031 N   0  0  0  0  0  0  0  0  0  0  0  0
   -6.4949   -0.1402    0.0340 N   0  0  0  0  0  0  0  0  0  0  0  0
   -2.3155   -0.1117   -0.3334 C   0  0  0  0  0  0  0  0  0  0  0  0
   -2.9992    1.0801   -0.1059 C   0  0  0  0  0  0  0  0  0  0  0  0
    3.7864   -0.3346    0.2698 C   0  0  0  0  0  0  0  0  0  0  0  0
   -5.0899   -0.1306   -0.0890 C   0  0  0  0  0  0  0  0  0  0  0  0
   -4.3887    1.0706    0.0165 C   0  0  0  0  0  0  0  0  0  0  0  0
    1.0090   -0.3069    0.5304 C   0  0  0  0  0  0  0  0  0  0  0  0
   -3.0122   -1.3128   -0.4394 C   0  0  0  0  0  0  0  0  0  0  0  0
   -4.4015   -1.3224   -0.3169 C   0  0  0  0  0  0  0  0  0  0  0  0
    3.1195    0.8683    0.5022 C   0  0  0  0  0  0  0  0  0  0  0  0
    3.0645   -1.5239    0.1676 C   0  0  0  0  0  0  0  0  0  0  0  0
    1.7309    0.8822    0.6326 C   0  0  0  0  0  0  0  0  0  0  0  0
    1.6757   -1.5099    0.2979 C   0  0  0  0  0  0  0  0  0  0  0  0
    5.7555    0.8236   -0.3916 C   0  0  0  0  0  0  0  0  0  0  0  0
    7.0242    0.4286   -1.1168 C   0  0  0  0  0  0  0  0  0  0  0  0
  1  8  1  0
  1 18  1  0
  2  3  2  0
  2  6  1  0
  3 11  1  0
  4  7  1  0
  5  9  1  0
  6  7  2  0
  6 12  1  0
  7 10  1  0
  8 14  2  0
  8 15  1  0
  9 10  2  0
  9 13  1  0
 11 16  2  0
 11 17  1  0
 12 13  2  0
 14 16  1  0
 15 17  2  0
 18 19  1  0
M  END
>  <PUBCHEM_COMPOUND_CID>  (1) 
16837

>  <PUBCHEM_CONFORMER_RMSD>  (1) 
0.6

>  <PUBCHEM_CONFORMER_DIVERSEORDER>  (1) 
1
8
13
9
14
11
20
15
7
19
16
4
18
17
6
3
10
5
2
12

>  <PUBCHEM_MMFF94_PARTIAL_CHARGES>  (1) 
29
1 -0.36
10 -0.15
11 0.18
12 -0.15
13 -0.15
14 -0.15
15 -0.15
16 -0.15
17 -0.15
18 0.28
2 -0.18
20 0.15
21 0.15
22 0.15
23 0.15
24 0.15
25 0.15
26 0.15
29 0.4
3 -0.18
30 0.4
34 0.4
35 0.4
4 -0.9
5 -0.9
6 0.18
7 0.1
8 0.08
9 0.1

>  <PUBCHEM_EFFECTIVE_ROTOR_COUNT>  (1) 
4

>  <PUBCHEM_PHARMACOPHORE_FEATURES>  (1) 
7
1 1 acceptor
1 4 cation
1 4 donor
1 5 cation
1 5 donor
6 6 7 9 10 12 13 rings
6 8 11 14 15 16 17 rings

>  <PUBCHEM_HEAVY_ATOM_COUNT>  (1) 
19

>  <PUBCHEM_ATOM_DEF_STEREO_COUNT>  (1) 
0

>  <PUBCHEM_ATOM_UDEF_STEREO_COUNT>  (1) 
0

>  <PUBCHEM_BOND_DEF_STEREO_COUNT>  (1) 
0

>  <PUBCHEM_BOND_UDEF_STEREO_COUNT>  (1) 
0

>  <PUBCHEM_ISOTOPIC_ATOM_COUNT>  (1) 
0

>  <PUBCHEM_COMPONENT_COUNT>  (1) 
1

>  <PUBCHEM_CACTVS_TAUTO_COUNT>  (1) 
12

>  <PUBCHEM_CONFORMER_ID>  (1) 
000041C500000001

>  <PUBCHEM_MMFF94_ENERGY>  (1) 
76.5616

>  <PUBCHEM_FEATURE_SELFOVERLAP>  (1) 
35.52

>  <PUBCHEM_SHAPE_FINGERPRINT>  (1) 
10 15 12179848342788259036
10366900 7 18408316709512991883
10595046 47 18334856100046852986
106641 1 15936418870029776337
10968037 39 18334857230066207623
11524674 6 15985104132701222527
11796584 16 14333408965358139388
12107183 9 17617091408751244659
12236239 1 18040150695360197073
12670543 26 18343028766371981526
13288520 33 18272932739384493333
13631057 29 16951415501740242323
13668630 136 16200434688633588918
13897977 58 18411136918468523613
14123256 10 18261112985032950844
14251718 22 18260548926418778318
14251764 18 18202001024089911963
14341114 176 18410295787409062047
14528608 73 18408886265627260964
14617045 38 18343023289592690975
15183329 4 18272660017783331614
15196674 1 18338795602647789193
15788980 27 14261351358071182120
17834072 33 18409728473916457156
17834072 8 17632579357590029886
18335252 98 18041287633992874235
19784866 140 17060345098082692538
200 152 18060415815852399115
20281389 69 17312818295569410388
20645477 70 18270962328506430182
21267235 1 18340490058226383859
221357 26 18273213097406391784
22224240 67 12107788545210970856
2297311 6 18202849855039421393
23035841 295 17989489610826791270
23402539 116 18333724728045531799
23402655 69 18412260606166340144
23557571 272 18202005404060066773
23559900 14 18340479071204396185
335352 9 18412539917555875701
34797466 226 17846504759691486276
3545911 37 18412261740048268729
4073 2 17968101936160305098
4214541 1 18341327808418687281
4325135 7 18334014995141966556
474 4 17676211303200687084
5104073 3 18340762633360990659
542803 24 18040150721166917626
59755656 215 17846504720667411854
59755656 520 17312818303231281306
77779 3 18412822469593392283

>  <PUBCHEM_SHAPE_MULTIPOLES>  (1) 
365.22
15.6
1.56
0.79
7.35
0.16
-0.05
1.48
-3.63
-0.62
0.02
0.59
0.02
-0.45

>  <PUBCHEM_SHAPE_SELFOVERLAP>  (1) 
776.846

>  <PUBCHEM_SHAPE_VOLUME>  (1) 
203.8

>  <PUBCHEM_COORDINATE_TYPE>  (1) 
2
5
10

$$$$
