16847
     RDKit          3D

 24 27  0  0  1  0  0  0  0  0999 V2000
   -1.6085   -3.3011   -1.0783 O   0  0  0  0  0  0  0  0  0  0  0  0
   -3.6062   -2.5263   -0.2518 O   0  0  0  0  0  0  0  0  0  0  0  0
   -1.5167    3.7556   -1.5416 O   0  0  0  0  0  0  0  0  0  0  0  0
   -3.3962    3.6316    0.5013 O   0  0  0  0  0  0  0  0  0  0  0  0
    3.8956    0.6908    2.2084 O   0  0  0  0  0  0  0  0  0  0  0  0
    5.5299    0.7178   -0.0398 O   0  0  0  0  0  0  0  0  0  0  0  0
   -0.1638   -2.0824    0.3067 C   0  0  0  0  0  0  0  0  0  0  0  0
   -1.5240   -2.1754    0.9768 C   0  0  0  0  0  0  0  0  0  0  0  0
    0.0801   -0.7682   -0.5025 C   0  0  0  0  0  0  0  0  0  0  0  0
   -1.9751   -0.8968    1.6578 C   0  0  0  0  0  0  0  0  0  0  0  0
   -0.2470   -3.2848   -0.6257 C   0  0  0  0  0  0  0  0  0  0  0  0
   -0.8642    0.3901   -0.2139 C   0  0  0  0  0  0  0  0  0  0  0  0
   -1.8371    0.3220    0.7930 C   0  0  0  0  0  0  0  0  0  0  0  0
   -2.3957   -2.6523   -0.1613 C   0  0  0  0  0  0  0  0  0  0  0  0
    1.5489   -0.3677   -0.3740 C   0  0  0  0  0  0  0  0  0  0  0  0
   -0.7836    1.5561   -0.9997 C   0  0  0  0  0  0  0  0  0  0  0  0
   -2.6718    1.4262    1.0306 C   0  0  0  0  0  0  0  0  0  0  0  0
    2.0579   -0.0175    0.8699 C   0  0  0  0  0  0  0  0  0  0  0  0
    2.3578   -0.3576   -1.5031 C   0  0  0  0  0  0  0  0  0  0  0  0
   -1.6274    2.6415   -0.7663 C   0  0  0  0  0  0  0  0  0  0  0  0
   -2.5688    2.5785    0.2539 C   0  0  0  0  0  0  0  0  0  0  0  0
    3.3986    0.3489    0.9869 C   0  0  0  0  0  0  0  0  0  0  0  0
    3.6985    0.0089   -1.3862 C   0  0  0  0  0  0  0  0  0  0  0  0
    4.2189    0.3621   -0.1412 C   0  0  0  0  0  0  0  0  0  0  0  0
  1 11  1  0
  1 14  1  0
  2 14  2  0
  3 20  1  0
  4 21  1  0
  5 22  1  0
  6 24  1  0
  7  8  1  0
  7  9  1  0
  7 11  1  0
  8 10  1  0
  8 14  1  0
  9 12  1  0
  9 15  1  0
 10 13  1  0
 12 13  2  0
 12 16  1  0
 13 17  1  0
 15 18  2  0
 15 19  1  0
 16 20  2  0
 17 21  2  0
 18 22  1  0
 19 23  2  0
 20 21  1  0
 22 24  2  0
 23 24  1  0
M  END
>  <PUBCHEM_COMPOUND_CID>  (1) 
16847

>  <PUBCHEM_CONFORMER_RMSD>  (1) 
0.6

>  <PUBCHEM_CONFORMER_DIVERSEORDER>  (1) 
1
23
22
19
32
28
29
8
16
6
20
17
24
21
14
4
18
31
10
26
5
2
15
25
7
11
9
12
3
30
27
13

>  <PUBCHEM_MMFF94_PARTIAL_CHARGES>  (1) 
32
1 -0.43
10 0.14
11 0.28
12 -0.14
13 -0.14
14 0.66
15 -0.14
16 -0.15
17 -0.15
18 -0.15
19 -0.15
2 -0.57
20 0.08
21 0.08
22 0.08
23 -0.15
24 0.08
3 -0.53
32 0.15
33 0.15
34 0.15
35 0.15
36 0.15
37 0.45
38 0.45
39 0.45
4 -0.53
40 0.45
5 -0.53
6 -0.53
8 0.06
9 0.29

>  <PUBCHEM_EFFECTIVE_ROTOR_COUNT>  (1) 
1.8

>  <PUBCHEM_PHARMACOPHORE_FEATURES>  (1) 
9
1 2 acceptor
1 3 donor
1 4 donor
1 5 donor
1 6 donor
5 1 7 8 11 14 rings
6 12 13 16 17 20 21 rings
6 15 18 19 22 23 24 rings
6 7 8 9 10 12 13 rings

>  <PUBCHEM_HEAVY_ATOM_COUNT>  (1) 
24

>  <PUBCHEM_ATOM_DEF_STEREO_COUNT>  (1) 
0

>  <PUBCHEM_ATOM_UDEF_STEREO_COUNT>  (1) 
3

>  <PUBCHEM_BOND_DEF_STEREO_COUNT>  (1) 
0

>  <PUBCHEM_BOND_UDEF_STEREO_COUNT>  (1) 
0

>  <PUBCHEM_ISOTOPIC_ATOM_COUNT>  (1) 
0

>  <PUBCHEM_COMPONENT_COUNT>  (1) 
1

>  <PUBCHEM_CACTVS_TAUTO_COUNT>  (1) 
998

>  <PUBCHEM_CONFORMER_ID>  (1) 
000041CF00000001

>  <PUBCHEM_MMFF94_ENERGY>  (1) 
65.0316

>  <PUBCHEM_FEATURE_SELFOVERLAP>  (1) 
45.938

>  <PUBCHEM_SHAPE_FINGERPRINT>  (1) 
10165383 225 17982483445135112528
10871710 139 18190193445131779604
11595378 159 18334289911877923586
11646440 116 18269279118428628467
11833330 49 18265892639092963715
12553582 1 17976280219638004886
12730499 353 17980776934965725409
12788726 201 18263370359144473954
13004483 165 18194391414934105715
13140716 1 18192446383523209643
13583140 156 17986927787979564658
13681431 1 17544750587474416183
13878862 14 16894266890249436741
14142880 1 18335422357172357181
15230672 131 18119260463730103966
15961568 22 17835796774862853032
16752209 62 18336264634366029718
16945 1 18270973443596663251
17357779 13 18057876034197229199
17492 54 18189312655504830655
1813 80 17980201108135951847
20600515 1 17687438558034083362
21033648 29 18272088241250702416
21304303 282 17760317259524219981
21524375 3 18119250567011415523
21731228 192 18118959200645972328
22112679 90 18047772651682089038
22907989 373 18409164454220904053
23402539 116 18199464544426316567
23419403 2 17409049906436340593
23557571 272 18271250525169612956
23558518 356 18334296426964087698
23559900 14 18201449090453499854
238 59 17469311548884377813
2748010 2 17683828513773510261
350125 39 18267311928005299635
3729539 64 17476952072434845246
495365 180 17761206614376734397
5265222 85 18194433085667272070
6442390 28 18269004085301182673
7097593 13 17241043176903120984
7364860 26 17402333668338265229
7808743 9 18408892819711074452
81228 2 18337961206556256563
84936 182 17623574142162352264
90316 7 18264485255440134378
9862522 239 18262243209365198926

>  <PUBCHEM_SHAPE_MULTIPOLES>  (1) 
458.69
6.97
4.17
1.49
9.24
0.29
0.28
2.73
1.18
-6.06
-1.27
0.66
0.24
0.3

>  <PUBCHEM_SHAPE_SELFOVERLAP>  (1) 
1026.466

>  <PUBCHEM_SHAPE_VOLUME>  (1) 
242.3

>  <PUBCHEM_COORDINATE_TYPE>  (1) 
2
5
10

$$$$
