16840
     RDKit          3D

  6  5  0  0  0  0  0  0  0  0999 V2000
   -1.2028   -0.5408   -0.8708 S   0  0  0  0  0  0  0  0  0  0  0  0
    1.2014   -0.5429    0.8696 S   0  0  0  0  0  0  0  0  0  0  0  0
    0.0001    2.0824    0.0011 S   0  0  0  0  0  0  0  0  0  0  0  0
    0.0003    0.4070   -0.0006 C   0  0  0  0  0  0  0  0  0  0  0  0
   -2.4513   -0.7033    0.4270 C   0  0  0  0  0  0  0  0  0  0  0  0
    2.4522   -0.7024   -0.4263 C   0  0  0  0  0  0  0  0  0  0  0  0
  1  4  1  0
  1  5  1  0
  2  4  1  0
  2  6  1  0
  3  4  2  0
M  END
>  <PUBCHEM_COMPOUND_CID>  (1) 
16840

>  <PUBCHEM_CONFORMER_RMSD>  (1) 
0.4

>  <PUBCHEM_CONFORMER_DIVERSEORDER>  (1) 
1
15
16
2
6
13
14
4
9
7
8
5
11
12
3
10

>  <PUBCHEM_MMFF94_PARTIAL_CHARGES>  (1) 
6
1 -0.37
2 -0.37
3 -0.38
4 0.66
5 0.23
6 0.23

>  <PUBCHEM_EFFECTIVE_ROTOR_COUNT>  (1) 
2

>  <PUBCHEM_PHARMACOPHORE_FEATURES>  (1) 
3
1 3 acceptor
1 5 hydrophobe
1 6 hydrophobe

>  <PUBCHEM_HEAVY_ATOM_COUNT>  (1) 
6

>  <PUBCHEM_ATOM_DEF_STEREO_COUNT>  (1) 
0

>  <PUBCHEM_ATOM_UDEF_STEREO_COUNT>  (1) 
0

>  <PUBCHEM_BOND_DEF_STEREO_COUNT>  (1) 
0

>  <PUBCHEM_BOND_UDEF_STEREO_COUNT>  (1) 
0

>  <PUBCHEM_ISOTOPIC_ATOM_COUNT>  (1) 
0

>  <PUBCHEM_COMPONENT_COUNT>  (1) 
1

>  <PUBCHEM_CACTVS_TAUTO_COUNT>  (1) 
1

>  <PUBCHEM_CONFORMER_ID>  (1) 
000041C800000001

>  <PUBCHEM_MMFF94_ENERGY>  (1) 
7.2629

>  <PUBCHEM_FEATURE_SELFOVERLAP>  (1) 
15.223

>  <PUBCHEM_SHAPE_FINGERPRINT>  (1) 
137420 1 12907209578773771161
139733 1 9222950421390222435
16714656 1 18271526381812122790
20711978 78 18122053471448558831
21040471 1 17475781062179978032
23552449 1 18268144250070720552
23552449 11 18118386565762779627
29004967 10 18409441518292497082
5943 1 11479366143976822061

>  <PUBCHEM_SHAPE_MULTIPOLES>  (1) 
135.03
3.01
1.72
0.98
0
1.43
0
-1.62
0
0
0
0
-0.19
0.06

>  <PUBCHEM_SHAPE_SELFOVERLAP>  (1) 
204.205

>  <PUBCHEM_SHAPE_VOLUME>  (1) 
98.7

>  <PUBCHEM_COORDINATE_TYPE>  (1) 
2
5
10

$$$$
