16848
     RDKit          3D

 15 15  0  0  0  0  0  0  0  0999 V2000
   -2.2288    1.7982    0.4219 O   0  0  0  0  0  0  0  0  0  0  0  0
   -3.6901   -0.4632   -0.2682 O   0  0  0  0  0  0  0  0  0  0  0  0
    4.8087    1.3527    0.0070 O   0  0  0  0  0  0  0  0  0  0  0  0
    4.7749   -0.9198    0.2052 O   0  0  0  0  0  0  0  0  0  0  0  0
    0.4518   -0.6434   -0.0429 C   0  0  0  0  0  0  0  0  0  0  0  0
   -1.5975    0.6209    0.1549 C   0  0  0  0  0  0  0  0  0  0  0  0
   -2.3309   -0.5141   -0.1910 C   0  0  0  0  0  0  0  0  0  0  0  0
   -0.2060    0.5563    0.2290 C   0  0  0  0  0  0  0  0  0  0  0  0
   -0.2818   -1.7783   -0.3887 C   0  0  0  0  0  0  0  0  0  0  0  0
   -1.6731   -1.7137   -0.4628 C   0  0  0  0  0  0  0  0  0  0  0  0
    1.9025   -0.7114    0.0351 C   0  0  0  0  0  0  0  0  0  0  0  0
    2.7387    0.3489   -0.0225 C   0  0  0  0  0  0  0  0  0  0  0  0
   -2.4482    2.6798   -0.6775 C   0  0  0  0  0  0  0  0  0  0  0  0
   -4.4183   -0.7601    0.9216 C   0  0  0  0  0  0  0  0  0  0  0  0
    4.1980    0.1470    0.0788 C   0  0  0  0  0  0  0  0  0  0  0  0
  1  6  1  0
  1 13  1  0
  2  7  1  0
  2 14  1  0
  3 15  1  0
  4 15  2  0
  5  8  2  0
  5  9  1  0
  5 11  1  0
  6  7  2  0
  6  8  1  0
  7 10  1  0
  9 10  2  0
 11 12  2  0
 12 15  1  0
M  END
>  <PUBCHEM_COMPOUND_CID>  (1) 
16848

>  <PUBCHEM_CONFORMER_RMSD>  (1) 
0.6

>  <PUBCHEM_CONFORMER_DIVERSEORDER>  (1) 
3
6
2
4
5
1

>  <PUBCHEM_MMFF94_PARTIAL_CHARGES>  (1) 
21
1 -0.36
10 -0.15
11 -0.18
12 -0.14
13 0.28
14 0.28
15 0.71
16 0.15
17 0.15
18 0.15
19 0.15
2 -0.36
20 0.15
27 0.5
3 -0.65
4 -0.57
5 0.03
6 0.08
7 0.08
8 -0.15
9 -0.15

>  <PUBCHEM_EFFECTIVE_ROTOR_COUNT>  (1) 
4

>  <PUBCHEM_PHARMACOPHORE_FEATURES>  (1) 
6
1 1 acceptor
1 2 acceptor
1 3 acceptor
1 4 acceptor
3 3 4 15 anion
6 5 6 7 8 9 10 rings

>  <PUBCHEM_HEAVY_ATOM_COUNT>  (1) 
15

>  <PUBCHEM_ATOM_DEF_STEREO_COUNT>  (1) 
0

>  <PUBCHEM_ATOM_UDEF_STEREO_COUNT>  (1) 
0

>  <PUBCHEM_BOND_DEF_STEREO_COUNT>  (1) 
0

>  <PUBCHEM_BOND_UDEF_STEREO_COUNT>  (1) 
1

>  <PUBCHEM_ISOTOPIC_ATOM_COUNT>  (1) 
0

>  <PUBCHEM_COMPONENT_COUNT>  (1) 
1

>  <PUBCHEM_CACTVS_TAUTO_COUNT>  (1) 
1

>  <PUBCHEM_CONFORMER_ID>  (1) 
000041D000000003

>  <PUBCHEM_MMFF94_ENERGY>  (1) 
60.245

>  <PUBCHEM_FEATURE_SELFOVERLAP>  (1) 
30.508

>  <PUBCHEM_SHAPE_FINGERPRINT>  (1) 
10608611 8 18342735217820266840
12186901 62 18341614789295460684
12390115 104 18058751103761521537
12403814 3 18410576201776679593
13081056 2 18342459253254870468
13140716 1 18196378245631046883
13214271 11 18412266147265242471
13296909 8 18261390022760111237
13897977 58 18411423950742479732
14325111 11 18412544276108735266
14614273 12 18338800005490460141
15042514 8 18339926046878853791
15219456 202 17916593024707563550
16945 1 18341319059591566623
17802600 8 18413384354321246512
17834072 32 18265894666091317284
18186145 218 17418371407208298384
200 152 13984661481655419667
20510252 161 18272091565201428689
20645477 56 18201435913361622402
20645477 70 16917080923770313734
21029758 27 18335426819717405997
21267235 1 18410864248317441410
21339142 126 18412260649395704991
21652331 79 18410011082801710528
2306618 200 18202286883410515729
23402539 116 18341606045069347231
23557571 272 18202014213481063812
23559900 14 17987236617545298758
2748010 2 18126290731701327759
4214541 1 18411698756146630592
474 4 17459756011519219500
5104073 3 18337951195504084776
559249 180 18265327305965962866
69090 78 18060135461799147974

>  <PUBCHEM_SHAPE_MULTIPOLES>  (1) 
285.22
8.63
2.05
0.74
8.41
1.09
0.02
0.76
1.22
-1.52
-0.4
-0.41
0
0.24

>  <PUBCHEM_SHAPE_SELFOVERLAP>  (1) 
589.037

>  <PUBCHEM_SHAPE_VOLUME>  (1) 
164.3

>  <PUBCHEM_COORDINATE_TYPE>  (1) 
2
5
10

$$$$
