16852
     RDKit          3D

  8  8  0  0  1  0  0  0  0  0999 V2000
    0.6150   -2.1022    0.1147 N   0  0  0  0  0  0  0  0  0  0  0  0
   -2.6094    0.0506   -0.5979 N   0  0  0  0  0  0  0  0  0  0  0  0
    0.3361    1.4166    0.7219 C   0  0  0  0  0  0  0  0  0  0  0  0
    1.2062    1.3779   -0.5344 C   0  0  0  0  0  0  0  0  0  0  0  0
   -0.3637    0.0549    0.7654 C   0  0  0  0  0  0  0  0  0  0  0  0
    1.7666   -0.0376   -0.5706 C   0  0  0  0  0  0  0  0  0  0  0  0
    0.6668   -0.8129    0.0968 C   0  0  0  0  0  0  0  0  0  0  0  0
   -1.6176    0.0526    0.0042 C   0  0  0  0  0  0  0  0  0  0  0  0
  1  7  2  0
  2  8  3  0
  3  4  1  0
  3  5  1  0
  4  6  1  0
  5  7  1  0
  5  8  1  0
  6  7  1  0
M  END
>  <PUBCHEM_COMPOUND_CID>  (1) 
16852

>  <PUBCHEM_CONFORMER_RMSD>  (1) 
0.4

>  <PUBCHEM_CONFORMER_DIVERSEORDER>  (1) 
1
2

>  <PUBCHEM_MMFF94_PARTIAL_CHARGES>  (1) 
7
1 -0.85
16 0.4
2 -0.56
5 0.26
6 0.06
7 0.33
8 0.36

>  <PUBCHEM_EFFECTIVE_ROTOR_COUNT>  (1) 
0.8

>  <PUBCHEM_PHARMACOPHORE_FEATURES>  (1) 
4
1 1 acceptor
1 1 donor
1 2 acceptor
5 3 4 5 6 7 rings

>  <PUBCHEM_HEAVY_ATOM_COUNT>  (1) 
8

>  <PUBCHEM_ATOM_DEF_STEREO_COUNT>  (1) 
0

>  <PUBCHEM_ATOM_UDEF_STEREO_COUNT>  (1) 
1

>  <PUBCHEM_BOND_DEF_STEREO_COUNT>  (1) 
0

>  <PUBCHEM_BOND_UDEF_STEREO_COUNT>  (1) 
0

>  <PUBCHEM_ISOTOPIC_ATOM_COUNT>  (1) 
0

>  <PUBCHEM_COMPONENT_COUNT>  (1) 
1

>  <PUBCHEM_CACTVS_TAUTO_COUNT>  (1) 
3

>  <PUBCHEM_CONFORMER_ID>  (1) 
000041D400000001

>  <PUBCHEM_MMFF94_ENERGY>  (1) 
9.1616

>  <PUBCHEM_FEATURE_SELFOVERLAP>  (1) 
20.297

>  <PUBCHEM_SHAPE_FINGERPRINT>  (1) 
12423570 1 16970845688614980858
137420 1 9076249195156928616
18185500 45 18198348351102753851
21040471 1 18121778597536063976
29004967 10 18335988562447186395
5084963 1 17604154855655172497
5943 1 12962959117648518104

>  <PUBCHEM_SHAPE_MULTIPOLES>  (1) 
154.67
2.37
1.64
0.86
1.49
0.53
0.04
-0.25
-0.8
-0.62
0.15
0.01
-0.15
-0.04

>  <PUBCHEM_SHAPE_SELFOVERLAP>  (1) 
310.014

>  <PUBCHEM_SHAPE_VOLUME>  (1) 
88.3

>  <PUBCHEM_COORDINATE_TYPE>  (1) 
2
5
10

$$$$
