16857
     RDKit          3D

 12 12  0  0  0  0  0  0  0  0999 V2000
    1.7567   -3.1553   -0.0024 I   0  0  0  0  0  0  0  0  0  0  0  0
    1.8935    3.1173   -0.0031 I   0  0  0  0  0  0  0  0  0  0  0  0
    3.8003   -0.0622    0.0016 I   0  0  0  0  0  0  0  0  0  0  0  0
   -3.1369   -1.1684   -0.0011 O   0  0  0  0  0  0  0  0  0  0  0  0
   -3.2825    1.1000    0.0002 O   0  0  0  0  0  0  0  0  0  0  0  0
   -1.1349    0.0456    0.0006 C   0  0  0  0  0  0  0  0  0  0  0  0
   -0.4113    1.2381    0.0008 C   0  0  0  0  0  0  0  0  0  0  0  0
   -0.4640   -1.1773    0.0006 C   0  0  0  0  0  0  0  0  0  0  0  0
    0.9306   -1.2077    0.0008 C   0  0  0  0  0  0  0  0  0  0  0  0
    0.9833    1.2076    0.0009 C   0  0  0  0  0  0  0  0  0  0  0  0
    1.6542   -0.0153    0.0009 C   0  0  0  0  0  0  0  0  0  0  0  0
   -2.5891    0.0777    0.0003 C   0  0  0  0  0  0  0  0  0  0  0  0
  1  9  1  0
  2 10  1  0
  3 11  1  0
  4 12  1  0
  5 12  2  0
  6  7  2  0
  6  8  1  0
  6 12  1  0
  7 10  1  0
  8  9  2  0
  9 11  1  0
 10 11  2  0
M  END
>  <PUBCHEM_COMPOUND_CID>  (1) 
16857

>  <PUBCHEM_CONFORMER_RMSD>  (1) 
0.4

>  <PUBCHEM_CONFORMER_DIVERSEORDER>  (1) 
1
2

>  <PUBCHEM_MMFF94_PARTIAL_CHARGES>  (1) 
15
1 -0.08
10 0.08
11 0.08
12 0.63
13 0.15
14 0.15
15 0.5
2 -0.08
3 -0.08
4 -0.65
5 -0.57
6 0.09
7 -0.15
8 -0.15
9 0.08

>  <PUBCHEM_EFFECTIVE_ROTOR_COUNT>  (1) 
1

>  <PUBCHEM_PHARMACOPHORE_FEATURES>  (1) 
7
1 1 hydrophobe
1 2 hydrophobe
1 3 hydrophobe
1 4 acceptor
1 5 acceptor
3 4 5 12 anion
6 6 7 8 9 10 11 rings

>  <PUBCHEM_HEAVY_ATOM_COUNT>  (1) 
12

>  <PUBCHEM_ATOM_DEF_STEREO_COUNT>  (1) 
0

>  <PUBCHEM_ATOM_UDEF_STEREO_COUNT>  (1) 
0

>  <PUBCHEM_BOND_DEF_STEREO_COUNT>  (1) 
0

>  <PUBCHEM_BOND_UDEF_STEREO_COUNT>  (1) 
0

>  <PUBCHEM_ISOTOPIC_ATOM_COUNT>  (1) 
0

>  <PUBCHEM_COMPONENT_COUNT>  (1) 
1

>  <PUBCHEM_CACTVS_TAUTO_COUNT>  (1) 
1

>  <PUBCHEM_CONFORMER_ID>  (1) 
000041D900000001

>  <PUBCHEM_MMFF94_ENERGY>  (1) 
39.2335

>  <PUBCHEM_FEATURE_SELFOVERLAP>  (1) 
35.578

>  <PUBCHEM_SHAPE_FINGERPRINT>  (1) 
1 1 18338516442816667814
10967382 1 18338798897135663942
12032990 46 18411987940362966214
13140716 1 18266463281174511464
13380535 76 17907856550400665020
13380536 305 18338803428563629068
14325111 11 18338516472818531361
14648413 74 18408604751573942465
16945 1 18410856551129015232
17990270 104 18409728430861529579
19021347 11 18410011022672278806
193761 8 17689999355264821678
20510252 161 16540181887821320312
20511035 2 17898300651988657044
20588541 1 18334861588972716266
20645476 183 17825406316922896558
20645477 70 18336256955444435567
20671657 1 18120376707832643676
21501502 16 17980195619504792580
21524375 3 18054790851714122388
2334 1 17978511158863663264
23402539 116 18343575232045755006
23402655 69 18268695123051041669
23419403 2 13921526351256683027
23463225 33 18335698296152624498
23526114 1 18266458887454960140
23552423 10 18411701002029404639
23557571 272 17048234832413157558
23598294 1 16605476836771389090
241688 4 17906173949569825256
2748010 2 18119815969412164222
3071541 158 18334576836978572852
53812653 166 18341608200926450424
7364860 26 18411981355935209442
81228 2 17401770722526947482

>  <PUBCHEM_SHAPE_MULTIPOLES>  (1) 
271.02
5.1
3.63
0.68
2.17
0.14
0
-0.17
0
-2.81
-0.01
-0.21
0
0

>  <PUBCHEM_SHAPE_SELFOVERLAP>  (1) 
501.512

>  <PUBCHEM_SHAPE_VOLUME>  (1) 
179

>  <PUBCHEM_COORDINATE_TYPE>  (1) 
2
5
10

$$$$
