1686
     RDKit          3D

 18 20  0  0  0  0  0  0  0  0999 V2000
    6.3022    0.5427    0.0505 Br  0  0  0  0  0  0  0  0  0  0  0  0
   -0.5330    0.8496    0.0795 O   0  0  0  0  0  0  0  0  0  0  0  0
   -2.3395   -2.7871   -0.2526 O   0  0  0  0  0  0  0  0  0  0  0  0
   -2.5840   -0.4465   -0.0368 C   0  0  0  0  0  0  0  0  0  0  0  0
    0.2022   -0.3197   -0.0420 C   0  0  0  0  0  0  0  0  0  0  0  0
   -1.9022    0.7640    0.0756 C   0  0  0  0  0  0  0  0  0  0  0  0
    1.6644   -0.1140   -0.0213 C   0  0  0  0  0  0  0  0  0  0  0  0
   -1.8072   -1.6900   -0.1557 C   0  0  0  0  0  0  0  0  0  0  0  0
   -0.3377   -1.5442   -0.1497 C   0  0  0  0  0  0  0  0  0  0  0  0
   -3.9805   -0.4737   -0.0345 C   0  0  0  0  0  0  0  0  0  0  0  0
   -2.6151    1.9574    0.1917 C   0  0  0  0  0  0  0  0  0  0  0  0
    2.5050   -1.1003    0.5006 C   0  0  0  0  0  0  0  0  0  0  0  0
    2.2141    1.0691   -0.5222 C   0  0  0  0  0  0  0  0  0  0  0  0
   -4.6910    0.7217    0.0811 C   0  0  0  0  0  0  0  0  0  0  0  0
   -4.0101    1.9346    0.1941 C   0  0  0  0  0  0  0  0  0  0  0  0
    3.8860   -0.9051    0.5218 C   0  0  0  0  0  0  0  0  0  0  0  0
    3.5951    1.2644   -0.5011 C   0  0  0  0  0  0  0  0  0  0  0  0
    4.4311    0.2772    0.0209 C   0  0  0  0  0  0  0  0  0  0  0  0
  1 18  1  0
  2  5  1  0
  2  6  1  0
  3  8  2  0
  4  6  2  0
  4  8  1  0
  4 10  1  0
  5  7  1  0
  5  9  2  0
  6 11  1  0
  7 12  2  0
  7 13  1  0
  8  9  1  0
 10 14  2  0
 11 15  2  0
 12 16  1  0
 13 17  2  0
 14 15  1  0
 16 18  2  0
 17 18  1  0
M  END
>  <PUBCHEM_COMPOUND_CID>  (1) 
1686

>  <PUBCHEM_CONFORMER_RMSD>  (1) 
0.6

>  <PUBCHEM_CONFORMER_DIVERSEORDER>  (1) 
1

>  <PUBCHEM_MMFF94_PARTIAL_CHARGES>  (1) 
27
1 -0.11
10 -0.15
11 -0.15
12 -0.15
13 -0.15
14 -0.15
15 -0.15
16 -0.15
17 -0.15
18 0.11
19 0.15
2 -0.16
20 0.15
21 0.15
22 0.15
23 0.15
24 0.15
25 0.15
26 0.15
27 0.15
3 -0.57
4 0.09
5 0.05
6 0.08
7 0.03
8 0.47
9 -0.14

>  <PUBCHEM_EFFECTIVE_ROTOR_COUNT>  (1) 
1

>  <PUBCHEM_PHARMACOPHORE_FEATURES>  (1) 
6
1 1 hydrophobe
1 2 acceptor
1 3 acceptor
6 2 4 5 6 8 9 rings
6 4 6 10 11 14 15 rings
6 7 12 13 16 17 18 rings

>  <PUBCHEM_HEAVY_ATOM_COUNT>  (1) 
18

>  <PUBCHEM_ATOM_DEF_STEREO_COUNT>  (1) 
0

>  <PUBCHEM_ATOM_UDEF_STEREO_COUNT>  (1) 
0

>  <PUBCHEM_BOND_DEF_STEREO_COUNT>  (1) 
0

>  <PUBCHEM_BOND_UDEF_STEREO_COUNT>  (1) 
0

>  <PUBCHEM_ISOTOPIC_ATOM_COUNT>  (1) 
0

>  <PUBCHEM_COMPONENT_COUNT>  (1) 
1

>  <PUBCHEM_CACTVS_TAUTO_COUNT>  (1) 
1

>  <PUBCHEM_CONFORMER_ID>  (1) 
0000069600000001

>  <PUBCHEM_MMFF94_ENERGY>  (1) 
53.0737

>  <PUBCHEM_FEATURE_SELFOVERLAP>  (1) 
30.474

>  <PUBCHEM_SHAPE_FINGERPRINT>  (1) 
10411042 1 17907296907831304055
10616163 171 18411702131448197606
12107183 9 17759235202933607360
12173636 292 18412538838369051975
12236239 1 18186801387847199520
12251169 10 18335138687287971212
12390115 104 18058465213785257945
12403814 3 17967530156128279469
12500047 106 18342734122186868514
13140716 1 18196660816056357779
13167823 11 18334294275401133138
13760787 19 18408040719478711954
13897977 58 18409450288673711597
14508225 48 18126267878475517847
15042514 8 18266464381256461667
15196674 1 18410293571036956858
15442244 35 18336261233126191874
15669948 3 18341608260977157031
17492 89 18408605880977151482
1813 80 16805609119031215534
19050596 39 18260828232853696986
200 152 18342173379682983560
20510252 161 18201160949392094777
20645477 56 18413108355185017769
20645477 70 16486986042443180478
21267235 1 18336554892619231066
21524375 3 18339360769284435019
23402539 116 18272082803383807309
23402655 69 18407760344113622028
23557571 272 18130793399093876534
23559900 14 18202003201543365854
300161 21 18410004434350351496
3004659 81 18337397033618694526
335352 9 18338235956004292758
34797466 226 17703519899828992516
34934 24 18335698326037930594
3545911 37 18412827980194584544
4073 2 18187088403907170634
4214541 1 18410855469018926172
474 4 17531534299227561380
474229 33 18411702084952169231
5104073 3 18335135414918459890
542803 24 17489870423263771440
573450 72 18335973238399662658
58051976 100 18408605893950723782
59755656 215 18270970046947289678
67856867 119 18191022503350064548
69090 78 18409728439514488251
77779 3 18409450293216559762
9709674 26 18342463633589269486

>  <PUBCHEM_SHAPE_MULTIPOLES>  (1) 
364.64
11.39
2.07
0.68
9.88
0.54
0
-3.62
-0.52
-1.9
0.07
0.2
-0.01
-0.64

>  <PUBCHEM_SHAPE_SELFOVERLAP>  (1) 
795.692

>  <PUBCHEM_SHAPE_VOLUME>  (1) 
204.3

>  <PUBCHEM_COORDINATE_TYPE>  (1) 
2
5
10

$$$$
