16871
     RDKit          3D

 14 15  0  0  0  0  0  0  0  0999 V2000
   -3.1440   -0.2174   -0.3586 O   0  0  0  0  0  0  0  0  0  0  0  0
   -1.2084   -2.1950   -0.2329 O   0  0  0  0  0  0  0  0  0  0  0  0
    0.3566    2.9112   -0.0132 O   0  0  0  0  0  0  0  0  0  0  0  0
    0.5998   -0.6911   -0.0573 C   0  0  0  0  0  0  0  0  0  0  0  0
    1.0118    0.6422    0.0004 C   0  0  0  0  0  0  0  0  0  0  0  0
   -0.8319   -1.0300   -0.1810 C   0  0  0  0  0  0  0  0  0  0  0  0
    0.0219    1.7339   -0.0613 C   0  0  0  0  0  0  0  0  0  0  0  0
   -1.8035    0.0895   -0.2417 C   0  0  0  0  0  0  0  0  0  0  0  0
    1.5491   -1.7180    0.0023 C   0  0  0  0  0  0  0  0  0  0  0  0
    2.3720    0.9499    0.1174 C   0  0  0  0  0  0  0  0  0  0  0  0
   -1.4024    1.3615   -0.1858 C   0  0  0  0  0  0  0  0  0  0  0  0
    2.9045   -1.4075    0.1191 C   0  0  0  0  0  0  0  0  0  0  0  0
    3.3150   -0.0768    0.1762 C   0  0  0  0  0  0  0  0  0  0  0  0
   -3.7406   -0.3522    0.9164 C   0  0  0  0  0  0  0  0  0  0  0  0
  1  8  1  0
  1 14  1  0
  2  6  2  0
  3  7  2  0
  4  5  2  0
  4  6  1  0
  4  9  1  0
  5  7  1  0
  5 10  1  0
  6  8  1  0
  7 11  1  0
  8 11  2  0
  9 12  2  0
 10 13  2  0
 12 13  1  0
M  END
>  <PUBCHEM_COMPOUND_CID>  (1) 
16871

>  <PUBCHEM_CONFORMER_RMSD>  (1) 
0.4

>  <PUBCHEM_CONFORMER_DIVERSEORDER>  (1) 
1
3
2

>  <PUBCHEM_MMFF94_PARTIAL_CHARGES>  (1) 
19
1 -0.36
10 -0.15
11 -0.14
12 -0.15
13 -0.15
14 0.28
15 0.15
16 0.15
17 0.15
18 0.15
19 0.15
2 -0.57
3 -0.57
4 0.09
5 0.09
6 0.47
7 0.47
8 0.09
9 -0.15

>  <PUBCHEM_EFFECTIVE_ROTOR_COUNT>  (1) 
1

>  <PUBCHEM_PHARMACOPHORE_FEATURES>  (1) 
5
1 1 acceptor
1 2 acceptor
1 3 acceptor
6 4 5 6 7 8 11 rings
6 4 5 9 10 12 13 rings

>  <PUBCHEM_HEAVY_ATOM_COUNT>  (1) 
14

>  <PUBCHEM_ATOM_DEF_STEREO_COUNT>  (1) 
0

>  <PUBCHEM_ATOM_UDEF_STEREO_COUNT>  (1) 
0

>  <PUBCHEM_BOND_DEF_STEREO_COUNT>  (1) 
0

>  <PUBCHEM_BOND_UDEF_STEREO_COUNT>  (1) 
0

>  <PUBCHEM_ISOTOPIC_ATOM_COUNT>  (1) 
0

>  <PUBCHEM_COMPONENT_COUNT>  (1) 
1

>  <PUBCHEM_CACTVS_TAUTO_COUNT>  (1) 
1

>  <PUBCHEM_CONFORMER_ID>  (1) 
000041E700000001

>  <PUBCHEM_MMFF94_ENERGY>  (1) 
42.9207

>  <PUBCHEM_FEATURE_SELFOVERLAP>  (1) 
25.398

>  <PUBCHEM_SHAPE_FINGERPRINT>  (1) 
10219947 1 18413109454928734563
10967382 1 18410853300007551278
11132069 177 18340194280581205808
11471102 20 18410006650400417661
11471102 22 18336281088575222971
12032990 46 18409453552738262154
12251169 10 18340216288262954803
12382932 28 18340198687091226450
12423570 1 12642072623666541902
12524768 44 18343301453007081334
13140716 1 18050566536461330401
16945 1 18338510940821260116
17844478 74 18040720251200134085
193761 8 17762053637450434774
20510252 161 18200027327118216704
20588541 1 18411139151429491918
20871998 184 18128250091090948924
20871998 22 18269847423214283191
21029758 27 18260840301316471796
21501502 16 18194684761569395248
22802520 49 17554334613896251854
2334 1 17617938470828407357
23402539 116 18271511022961827126
23419403 2 15374781509963812418
23463225 33 18409448068222981932
23552423 10 18048875496209702965
23559900 14 16903556677367788646
2748010 2 18266734684315905709
528886 8 18339917207930344162
53812653 166 18199181970174880632
63268167 104 18411136969680979753
7364860 26 18197216073196149248

>  <PUBCHEM_SHAPE_MULTIPOLES>  (1) 
270.51
4.92
2.29
0.68
1.36
0.82
-0.06
-1.34
-0.87
-0.3
0.09
0.23
-0.04
0.08

>  <PUBCHEM_SHAPE_SELFOVERLAP>  (1) 
591.767

>  <PUBCHEM_SHAPE_VOLUME>  (1) 
145.9

>  <PUBCHEM_COORDINATE_TYPE>  (1) 
2
5
10

$$$$
