16883
     RDKit          3D

 14 15  0  0  0  0  0  0  0  0999 V2000
   -0.0470   -0.0755    0.0003 C   0  0  0  0  0  0  0  0  0  0  0  0
   -1.4920   -0.0029    0.0004 C   0  0  0  0  0  0  0  0  0  0  0  0
    0.5975   -1.1432   -0.6239 C   0  0  0  0  0  0  0  0  0  0  0  0
    0.7012    0.9226    0.6246 C   0  0  0  0  0  0  0  0  0  0  0  0
    2.7391   -0.2149    0.0001 C   0  0  0  0  0  0  0  0  0  0  0  0
   -2.1573    0.6551   -1.0342 C   0  0  0  0  0  0  0  0  0  0  0  0
   -2.2203   -0.5914    1.0345 C   0  0  0  0  0  0  0  0  0  0  0  0
    1.9906   -1.2130   -0.6240 C   0  0  0  0  0  0  0  0  0  0  0  0
    2.0943    0.8529    0.6244 C   0  0  0  0  0  0  0  0  0  0  0  0
   -3.5504    0.7250   -1.0345 C   0  0  0  0  0  0  0  0  0  0  0  0
   -3.6133   -0.5217    1.0339 C   0  0  0  0  0  0  0  0  0  0  0  0
   -4.2784    0.1366   -0.0006 C   0  0  0  0  0  0  0  0  0  0  0  0
    4.1917   -0.2874   -0.0007 C   0  0  0  0  0  0  0  0  0  0  0  0
    5.0443    0.7580   -0.0003 C   0  0  0  0  0  0  0  0  0  0  0  0
  1  2  1  0
  1  3  2  0
  1  4  1  0
  2  6  2  0
  2  7  1  0
  3  8  1  0
  4  9  2  0
  5  8  2  0
  5  9  1  0
  5 13  1  0
  6 10  1  0
  7 11  2  0
 10 12  2  0
 11 12  1  0
 13 14  2  0
M  END
>  <PUBCHEM_COMPOUND_CID>  (1) 
16883

>  <PUBCHEM_CONFORMER_RMSD>  (1) 
0.6

>  <PUBCHEM_CONFORMER_DIVERSEORDER>  (1) 
1
2

>  <PUBCHEM_MMFF94_PARTIAL_CHARGES>  (1) 
24
10 -0.15
11 -0.15
12 -0.15
13 -0.18
14 -0.3
15 0.15
16 0.15
17 0.15
18 0.15
19 0.15
20 0.15
21 0.15
22 0.15
23 0.15
24 0.15
25 0.15
26 0.15
3 -0.15
4 -0.15
5 0.03
6 -0.15
7 -0.15
8 -0.15
9 -0.15

>  <PUBCHEM_EFFECTIVE_ROTOR_COUNT>  (1) 
2

>  <PUBCHEM_PHARMACOPHORE_FEATURES>  (1) 
3
1 14 hydrophobe
6 1 3 4 5 8 9 rings
6 2 6 7 10 11 12 rings

>  <PUBCHEM_HEAVY_ATOM_COUNT>  (1) 
14

>  <PUBCHEM_ATOM_DEF_STEREO_COUNT>  (1) 
0

>  <PUBCHEM_ATOM_UDEF_STEREO_COUNT>  (1) 
0

>  <PUBCHEM_BOND_DEF_STEREO_COUNT>  (1) 
0

>  <PUBCHEM_BOND_UDEF_STEREO_COUNT>  (1) 
0

>  <PUBCHEM_ISOTOPIC_ATOM_COUNT>  (1) 
0

>  <PUBCHEM_COMPONENT_COUNT>  (1) 
1

>  <PUBCHEM_CACTVS_TAUTO_COUNT>  (1) 
1

>  <PUBCHEM_CONFORMER_ID>  (1) 
000041F300000001

>  <PUBCHEM_MMFF94_ENERGY>  (1) 
46.3155

>  <PUBCHEM_FEATURE_SELFOVERLAP>  (1) 
15.223

>  <PUBCHEM_SHAPE_FINGERPRINT>  (1) 
10219947 1 18202566168106840190
10465860 250 17967246494744137584
11401426 45 17703783726288789272
11471102 20 18202845444229067878
12236239 1 16559033783488487931
124424 183 18260824886636375586
12500047 106 17676482856634230011
13214271 11 18260264157544997887
13581323 91 16950280706612750099
13760787 5 18060420197061789270
14144814 61 16917349212532630655
14911166 2 17917711323097045068
14943859 89 17748824116066124736
14993402 34 16917063360815414532
15219456 202 18334295323135828399
15309172 13 18059858367551805655
15375358 24 18335138678534603674
15653759 3 18040152928743249585
16945 1 18060697282297125674
17834072 33 15195279867867952088
18175812 5 18261110806993927885
18186145 218 17203317936147147528
19026448 4 17822010887392799342
19026448 5 16298107588279557406
200 152 17703784825963895367
20201158 50 18410857637887791931
20279233 1 18333736805783854827
204376 136 18271807951626611470
20645477 56 17531245011794919253
20645477 70 18271523074819739206
21119208 17 15841550777517823364
22485316 2 17967249797500115914
23402539 116 17240759605676492319
23402655 69 17846494786439723677
23557571 272 17821731598085074437
23559900 14 17822569405098408818
296302 2 18410293596806747631
474 4 16843862360879488216
573450 72 16298657339360829880
77492 1 16487254361576366439

>  <PUBCHEM_SHAPE_MULTIPOLES>  (1) 
288.11
8.87
1.09
1.03
3.26
0.08
0
-1.18
-0.08
0.33
0.08
-0.73
0
0.78

>  <PUBCHEM_SHAPE_SELFOVERLAP>  (1) 
622.677

>  <PUBCHEM_SHAPE_VOLUME>  (1) 
147.7

>  <PUBCHEM_COORDINATE_TYPE>  (1) 
2
5
10

$$$$
