16893
     RDKit          3D

 15 15  0  0  0  0  0  0  0  0999 V2000
    3.5606   -0.3590    2.5060 Br  0  0  0  0  0  0  0  0  0  0  0  0
   -1.6706   -3.9760   -0.4051 Cl  0  0  0  0  0  0  0  0  0  0  0  0
   -4.7533    2.1303    0.5123 Cl  0  0  0  0  0  0  0  0  0  0  0  0
   -1.3563    0.0109    0.0742 N   0  0  0  0  0  0  0  0  0  0  0  0
   -0.5512    1.0086   -0.6294 C   0  0  0  0  0  0  0  0  0  0  0  0
   -1.1132   -1.3222   -0.4757 C   0  0  0  0  0  0  0  0  0  0  0  0
   -2.7769    0.3478   -0.0113 C   0  0  0  0  0  0  0  0  0  0  0  0
    0.9227    0.7254   -0.5105 C   0  0  0  0  0  0  0  0  0  0  0  0
   -1.9748   -2.3474    0.2452 C   0  0  0  0  0  0  0  0  0  0  0  0
   -3.0232    1.7207    0.5948 C   0  0  0  0  0  0  0  0  0  0  0  0
    1.4545    0.3771    0.7232 C   0  0  0  0  0  0  0  0  0  0  0  0
    1.7285    0.8158   -1.6368 C   0  0  0  0  0  0  0  0  0  0  0  0
    2.8198    0.1139    0.8328 C   0  0  0  0  0  0  0  0  0  0  0  0
    3.0938    0.5526   -1.5272 C   0  0  0  0  0  0  0  0  0  0  0  0
    3.6395    0.2017   -0.2924 C   0  0  0  0  0  0  0  0  0  0  0  0
  1 13  1  0
  2  9  1  0
  3 10  1  0
  4  5  1  0
  4  6  1  0
  4  7  1  0
  5  8  1  0
  6  9  1  0
  7 10  1  0
  8 11  2  0
  8 12  1  0
 11 13  1  0
 12 14  2  0
 13 15  2  0
 14 15  1  0
M  END
>  <PUBCHEM_COMPOUND_CID>  (1) 
16893

>  <PUBCHEM_CONFORMER_RMSD>  (1) 
0.6

>  <PUBCHEM_CONFORMER_DIVERSEORDER>  (1) 
1
42
21
41
4
55
2
43
39
24
6
45
3
50
52
37
8
33
61
59
10
22
29
58
5
23
7
57
34
38
49
35
14
60
12
54
9
36
53
56
17
32
19
46
48
20
18
15
44
47
51
16
40
13
11
64
66
67
28
62
27
65
25
63
30
31
26

>  <PUBCHEM_MMFF94_PARTIAL_CHARGES>  (1) 
19
1 -0.11
10 0.29
11 -0.15
12 -0.15
13 0.11
14 -0.15
15 -0.15
2 -0.29
26 0.15
27 0.15
28 0.15
29 0.15
3 -0.29
4 -0.81
5 0.41
6 0.27
7 0.27
8 -0.14
9 0.29

>  <PUBCHEM_EFFECTIVE_ROTOR_COUNT>  (1) 
6

>  <PUBCHEM_PHARMACOPHORE_FEATURES>  (1) 
3
1 1 hydrophobe
1 4 cation
6 8 11 12 13 14 15 rings

>  <PUBCHEM_HEAVY_ATOM_COUNT>  (1) 
15

>  <PUBCHEM_ATOM_DEF_STEREO_COUNT>  (1) 
0

>  <PUBCHEM_ATOM_UDEF_STEREO_COUNT>  (1) 
0

>  <PUBCHEM_BOND_DEF_STEREO_COUNT>  (1) 
0

>  <PUBCHEM_BOND_UDEF_STEREO_COUNT>  (1) 
0

>  <PUBCHEM_ISOTOPIC_ATOM_COUNT>  (1) 
0

>  <PUBCHEM_COMPONENT_COUNT>  (1) 
1

>  <PUBCHEM_CACTVS_TAUTO_COUNT>  (1) 
1

>  <PUBCHEM_CONFORMER_ID>  (1) 
000041FD00000001

>  <PUBCHEM_MMFF94_ENERGY>  (1) 
34.0697

>  <PUBCHEM_FEATURE_SELFOVERLAP>  (1) 
15.223

>  <PUBCHEM_SHAPE_FINGERPRINT>  (1) 
11725454 13 17058621033216058257
12403259 327 17986364781700906410
124424 183 17274830108235886164
12500047 106 18342742913974250598
12553582 1 17905896133805900631
12788726 201 18119818160072910371
12839892 36 18335702707416379771
12932764 1 17821725065740633852
13294875 104 16836297381435827184
13538477 17 18260832639057775533
14178342 30 18338784715259518186
15279307 12 18259706700559719146
15375462 189 17675926495324352680
15669948 3 18262806275330203727
15842332 3 17968374666730702470
15852999 172 18059024894951614239
15906896 17 18188788256824793835
16752209 62 18339080496988595327
18186145 218 17418100862749704841
19422 9 17749115512306564905
20600515 1 18270949202922895656
20645477 70 15864339264152438538
20681677 155 18335431166334852100
20715346 28 17274826912616564124
212916 134 18271516495098321921
21452121 199 17547842410024655871
22096605 113 15123499303109524880
22112679 90 18040986388896135888
23402539 116 18201716224323620477
23419403 2 11091324232743883341
23526113 38 16915682297065021188
23532345 11 18269540784287935954
23557571 272 17988362688438170488
23559900 14 18202569458563654492
23598288 3 18116166630411949955
23598291 2 17823429347286127510
23598294 1 18335994167548338667
45790113 50 16153995638150405741
495365 180 17274253942351499598
603831 33 17826799436419805462
6049 1 17345206677680290152
633830 44 17169575080174969052
74978 22 18337676420154563973
7615 1 17969211403616666108
77492 1 17967532406374462332
81228 2 18127410266587950199
81539 233 18191311464485900861
88987 49 18341333387285786164

>  <PUBCHEM_SHAPE_MULTIPOLES>  (1) 
313.39
7.49
2.95
1.68
1.85
4.37
0.57
-3.75
2.68
4.68
-0.25
-2.5
-0.21
-1.36

>  <PUBCHEM_SHAPE_SELFOVERLAP>  (1) 
595.531

>  <PUBCHEM_SHAPE_VOLUME>  (1) 
199.6

>  <PUBCHEM_COORDINATE_TYPE>  (1) 
2
5
10

$$$$
