16896
     RDKit          3D

  9  9  0  0  0  0  0  0  0  0999 V2000
    3.3689   -0.4336    0.0001 Br  0  0  0  0  0  0  0  0  0  0  0  0
   -2.5373    0.8425    0.0000 O   0  0  0  0  0  0  0  0  0  0  0  0
   -0.7785   -0.7862   -0.0003 C   0  0  0  0  0  0  0  0  0  0  0  0
   -1.2086    0.5407   -0.0001 C   0  0  0  0  0  0  0  0  0  0  0  0
    0.5857   -1.0773   -0.0003 C   0  0  0  0  0  0  0  0  0  0  0  0
   -1.7647   -1.9074    0.0004 C   0  0  0  0  0  0  0  0  0  0  0  0
   -0.2747    1.5767    0.0001 C   0  0  0  0  0  0  0  0  0  0  0  0
    1.5198   -0.0412    0.0000 C   0  0  0  0  0  0  0  0  0  0  0  0
    1.0894    1.2857    0.0001 C   0  0  0  0  0  0  0  0  0  0  0  0
  1  8  1  0
  2  4  1  0
  3  4  2  0
  3  5  1  0
  3  6  1  0
  4  7  1  0
  5  8  2  0
  7  9  2  0
  8  9  1  0
M  END
>  <PUBCHEM_COMPOUND_CID>  (1) 
16896

>  <PUBCHEM_CONFORMER_RMSD>  (1) 
0.4

>  <PUBCHEM_CONFORMER_DIVERSEORDER>  (1) 
1

>  <PUBCHEM_MMFF94_PARTIAL_CHARGES>  (1) 
13
1 -0.11
10 0.15
14 0.15
15 0.15
16 0.45
2 -0.53
3 -0.14
4 0.08
5 -0.15
6 0.14
7 -0.15
8 0.11
9 -0.15

>  <PUBCHEM_EFFECTIVE_ROTOR_COUNT>  (1) 
0

>  <PUBCHEM_PHARMACOPHORE_FEATURES>  (1) 
3
1 1 hydrophobe
1 2 donor
6 3 4 5 7 8 9 rings

>  <PUBCHEM_HEAVY_ATOM_COUNT>  (1) 
9

>  <PUBCHEM_ATOM_DEF_STEREO_COUNT>  (1) 
0

>  <PUBCHEM_ATOM_UDEF_STEREO_COUNT>  (1) 
0

>  <PUBCHEM_BOND_DEF_STEREO_COUNT>  (1) 
0

>  <PUBCHEM_BOND_UDEF_STEREO_COUNT>  (1) 
0

>  <PUBCHEM_ISOTOPIC_ATOM_COUNT>  (1) 
0

>  <PUBCHEM_COMPONENT_COUNT>  (1) 
1

>  <PUBCHEM_CACTVS_TAUTO_COUNT>  (1) 
3

>  <PUBCHEM_CONFORMER_ID>  (1) 
0000420000000001

>  <PUBCHEM_MMFF94_ENERGY>  (1) 
20.5273

>  <PUBCHEM_FEATURE_SELFOVERLAP>  (1) 
15.223

>  <PUBCHEM_SHAPE_FINGERPRINT>  (1) 
10857977 72 18341037614700492490
14128692 85 18337115686709819660
15310529 11 16588303826538792808
16714656 1 18337955584623160668
16945 1 18338517443523071940
18185500 45 18407757036466668570
193761 8 18122625217141795077
20871998 184 18273497892187029126
21040471 1 18338797801718640837
23235685 24 18340482253521883144
23402655 69 17979054009083167021
23552423 10 18188209935056377532
2748010 2 18267017434992770716
369184 2 18408881807161018306
5084963 1 18128822017542057386

>  <PUBCHEM_SHAPE_MULTIPOLES>  (1) 
185.29
3.73
1.8
0.62
2.31
0.11
0
0.72
0
-0.78
0
0.08
0.02
0

>  <PUBCHEM_SHAPE_SELFOVERLAP>  (1) 
369.872

>  <PUBCHEM_SHAPE_VOLUME>  (1) 
113.8

>  <PUBCHEM_COORDINATE_TYPE>  (1) 
2
5
10

$$$$
