16892
     RDKit          3D

 15 15  0  0  0  0  0  0  0  0999 V2000
    1.0526    2.5901    1.3568 Br  0  0  0  0  0  0  0  0  0  0  0  0
   -1.6996   -4.0278    0.6600 Cl  0  0  0  0  0  0  0  0  0  0  0  0
   -4.4866    2.1904   -0.4347 Cl  0  0  0  0  0  0  0  0  0  0  0  0
   -1.1943   -0.0777    0.0555 N   0  0  0  0  0  0  0  0  0  0  0  0
   -0.2763    0.6576   -0.8136 C   0  0  0  0  0  0  0  0  0  0  0  0
   -0.9843   -1.5185   -0.0815 C   0  0  0  0  0  0  0  0  0  0  0  0
   -2.5807    0.2686   -0.2559 C   0  0  0  0  0  0  0  0  0  0  0  0
    1.1634    0.3704   -0.4798 C   0  0  0  0  0  0  0  0  0  0  0  0
   -1.9616   -2.2734    0.8062 C   0  0  0  0  0  0  0  0  0  0  0  0
   -2.7963    1.7633   -0.0763 C   0  0  0  0  0  0  0  0  0  0  0  0
    1.8602    1.1349    0.4474 C   0  0  0  0  0  0  0  0  0  0  0  0
    1.7789   -0.6909   -1.1327 C   0  0  0  0  0  0  0  0  0  0  0  0
    3.1933    0.8340    0.7264 C   0  0  0  0  0  0  0  0  0  0  0  0
    3.1121   -0.9917   -0.8537 C   0  0  0  0  0  0  0  0  0  0  0  0
    3.8193   -0.2293    0.0759 C   0  0  0  0  0  0  0  0  0  0  0  0
  1 11  1  0
  2  9  1  0
  3 10  1  0
  4  5  1  0
  4  6  1  0
  4  7  1  0
  5  8  1  0
  6  9  1  0
  7 10  1  0
  8 11  2  0
  8 12  1  0
 11 13  1  0
 12 14  2  0
 13 15  2  0
 14 15  1  0
M  END
>  <PUBCHEM_COMPOUND_CID>  (1) 
16892

>  <PUBCHEM_CONFORMER_RMSD>  (1) 
0.6

>  <PUBCHEM_CONFORMER_DIVERSEORDER>  (1) 
1
50
20
24
28
52
4
44
9
18
33
53
39
25
3
51
16
26
13
34
38
27
2
54
14
23
43
49
55
10
21
41
29
42
7
40
36
12
32
35
8
56
30
31
57
37
11
5
6
19
17
47
22
15
45
46
48

>  <PUBCHEM_MMFF94_PARTIAL_CHARGES>  (1) 
19
1 -0.11
10 0.29
11 0.11
12 -0.15
13 -0.15
14 -0.15
15 -0.15
2 -0.29
26 0.15
27 0.15
28 0.15
29 0.15
3 -0.29
4 -0.81
5 0.41
6 0.27
7 0.27
8 -0.14
9 0.29

>  <PUBCHEM_EFFECTIVE_ROTOR_COUNT>  (1) 
6

>  <PUBCHEM_PHARMACOPHORE_FEATURES>  (1) 
3
1 1 hydrophobe
1 4 cation
6 8 11 12 13 14 15 rings

>  <PUBCHEM_HEAVY_ATOM_COUNT>  (1) 
15

>  <PUBCHEM_ATOM_DEF_STEREO_COUNT>  (1) 
0

>  <PUBCHEM_ATOM_UDEF_STEREO_COUNT>  (1) 
0

>  <PUBCHEM_BOND_DEF_STEREO_COUNT>  (1) 
0

>  <PUBCHEM_BOND_UDEF_STEREO_COUNT>  (1) 
0

>  <PUBCHEM_ISOTOPIC_ATOM_COUNT>  (1) 
0

>  <PUBCHEM_COMPONENT_COUNT>  (1) 
1

>  <PUBCHEM_CACTVS_TAUTO_COUNT>  (1) 
1

>  <PUBCHEM_CONFORMER_ID>  (1) 
000041FC00000001

>  <PUBCHEM_MMFF94_ENERGY>  (1) 
37.941

>  <PUBCHEM_FEATURE_SELFOVERLAP>  (1) 
15.223

>  <PUBCHEM_SHAPE_FINGERPRINT>  (1) 
10608611 8 18342734169336816552
10906281 52 17988375762751376392
1100329 8 16321469663296422665
124424 183 18273213062972605396
12500047 106 18408040701929486750
12507560 18 18268987592410462584
12532896 13 18410005508081743167
12553582 1 17542804443420057571
14115302 16 18263094240519424620
14178342 30 18188480389131546450
14648413 74 18199460133584444328
15279308 132 18338235964230295005
15885798 251 17901116527248978203
16945 1 18187641371633578012
18186145 218 18269271275179997109
19049666 15 18341896307079451938
20524608 308 18408324410437189643
20600515 1 18408886213977267188
21501502 16 18190745421691926300
21524375 3 18341328873786926173
23402539 116 18200017456951197477
23419403 2 16170267659112623263
23526113 38 18129101117370009855
23558518 356 18196073646629607229
25 1 18198056985043357005
2748010 2 18059582424919921980
3084891 72 18268426824142015906
31174 14 17697043900035334162
3250762 1 18196652015167513513
57426455 114 18410005511917735400
6049 1 18128551542092480200
633830 44 18199461070214388645
69090 78 18060128809205789717
7364860 26 17760363297822133559
81228 2 18043812211389780867
84936 182 17907009578750300337
8809292 202 18341335504947243172
9709674 26 18342456001437366871
9981440 41 17053821862772340481

>  <PUBCHEM_SHAPE_MULTIPOLES>  (1) 
313.39
6.5
3.67
1.11
1.22
3.12
0.1
-2.5
-0.61
3.78
1.56
-0.34
-0.11
1.73

>  <PUBCHEM_SHAPE_SELFOVERLAP>  (1) 
596.356

>  <PUBCHEM_SHAPE_VOLUME>  (1) 
199.1

>  <PUBCHEM_COORDINATE_TYPE>  (1) 
2
5
10

$$$$
