16897
     RDKit          3D

 15 16  0  0  0  0  0  0  0  0999 V2000
    1.7076    2.1963   -0.1737 O   0  0  0  0  0  0  0  0  0  0  0  0
    0.1945   -0.1397   -0.5273 N   0  0  0  0  0  0  0  0  0  0  0  0
   -0.4403   -0.1612    0.5534 N   0  0  0  0  0  0  0  0  0  0  0  0
    1.5758   -0.1956   -0.2743 C   0  0  0  0  0  0  0  0  0  0  0  0
    2.3088    0.9755   -0.1017 C   0  0  0  0  0  0  0  0  0  0  0  0
   -1.8148   -0.1055    0.3020 C   0  0  0  0  0  0  0  0  0  0  0  0
    2.2032   -1.4363   -0.1997 C   0  0  0  0  0  0  0  0  0  0  0  0
    3.6795    0.9051    0.1473 C   0  0  0  0  0  0  0  0  0  0  0  0
    3.5738   -1.5064    0.0492 C   0  0  0  0  0  0  0  0  0  0  0  0
    4.3120   -0.3358    0.2226 C   0  0  0  0  0  0  0  0  0  0  0  0
   -2.5403   -1.2843    0.1292 C   0  0  0  0  0  0  0  0  0  0  0  0
   -2.4604    1.1286    0.2237 C   0  0  0  0  0  0  0  0  0  0  0  0
   -3.9112   -1.2291   -0.1223 C   0  0  0  0  0  0  0  0  0  0  0  0
   -3.8313    1.1837   -0.0277 C   0  0  0  0  0  0  0  0  0  0  0  0
   -4.5567    0.0048   -0.2007 C   0  0  0  0  0  0  0  0  0  0  0  0
  1  5  1  0
  2  3  2  0
  2  4  1  0
  3  6  1  0
  4  5  2  0
  4  7  1  0
  5  8  1  0
  6 11  2  0
  6 12  1  0
  7  9  2  0
  8 10  2  0
  9 10  1  0
 11 13  1  0
 12 14  2  0
 13 15  2  0
 14 15  1  0
M  END
>  <PUBCHEM_COMPOUND_CID>  (1) 
16897

>  <PUBCHEM_CONFORMER_RMSD>  (1) 
0.6

>  <PUBCHEM_CONFORMER_DIVERSEORDER>  (1) 
1
3
2

>  <PUBCHEM_MMFF94_PARTIAL_CHARGES>  (1) 
25
1 -0.53
10 -0.15
11 -0.15
12 -0.15
13 -0.15
14 -0.15
15 -0.15
16 0.15
17 0.15
18 0.15
19 0.15
2 -0.18
20 0.15
21 0.15
22 0.15
23 0.15
24 0.15
25 0.45
3 -0.18
4 0.18
5 0.08
6 0.18
7 -0.15
8 -0.15
9 -0.15

>  <PUBCHEM_EFFECTIVE_ROTOR_COUNT>  (1) 
2

>  <PUBCHEM_PHARMACOPHORE_FEATURES>  (1) 
3
1 1 donor
6 4 5 7 8 9 10 rings
6 6 11 12 13 14 15 rings

>  <PUBCHEM_HEAVY_ATOM_COUNT>  (1) 
15

>  <PUBCHEM_ATOM_DEF_STEREO_COUNT>  (1) 
0

>  <PUBCHEM_ATOM_UDEF_STEREO_COUNT>  (1) 
0

>  <PUBCHEM_BOND_DEF_STEREO_COUNT>  (1) 
0

>  <PUBCHEM_BOND_UDEF_STEREO_COUNT>  (1) 
0

>  <PUBCHEM_ISOTOPIC_ATOM_COUNT>  (1) 
0

>  <PUBCHEM_COMPONENT_COUNT>  (1) 
1

>  <PUBCHEM_CACTVS_TAUTO_COUNT>  (1) 
3

>  <PUBCHEM_CONFORMER_ID>  (1) 
0000420100000001

>  <PUBCHEM_MMFF94_ENERGY>  (1) 
40.3106

>  <PUBCHEM_FEATURE_SELFOVERLAP>  (1) 
15.223

>  <PUBCHEM_SHAPE_FINGERPRINT>  (1) 
10014705 185 18260827077697645421
10608611 8 18410009948772075829
10616163 171 18270401710488272143
11471102 20 18409448085735232004
11615757 297 17418097645470709379
12162725 195 18412267241875157017
12251169 10 18411699897980262030
13167823 11 18411979161159916199
14004511 7 18411985728354361225
14144814 61 18411984641395397363
14251717 144 18409166614921925070
15196674 1 18410856559639796064
15375462 478 18202562865029394692
15442244 35 18267306430541593224
15536298 74 18413108359653947914
17492 89 18411983584992614063
17802600 8 18408880737466579541
17834072 33 18409732889311597212
18186145 218 17748821925854382267
18522853 276 18343019986472586193
19050596 39 18413673525910740283
200 152 18131066043786521191
20279233 1 18334301967376473315
20645477 56 18334859364691528901
20645477 70 18341050731225211494
21267235 1 18411709776368320751
21501925 9 18412259541104192962
221490 88 18264215866454116810
2255824 54 18040721385293215126
22646028 1 18202842162615753375
23402539 116 18343012277702453357
23402655 69 18411700971753728012
23557571 272 15123240883469715489
23559900 14 18341891862036363322
26918003 58 18410571790455038995
351380 180 18410852166294434237
3545911 37 18411983563501011289
42 15 18335139778025138890
4214541 1 18410573964077580257
5104073 3 18410856559708381811
58051976 100 18411138060745396743
69090 78 18410571790803328335
77779 3 18410857659320306859
93112 12 18410013243059250271
9709674 26 18411426124070473151
9971528 1 18260266339631204636
9981440 41 17469605569018195376

>  <PUBCHEM_SHAPE_MULTIPOLES>  (1) 
292.86
9.48
1.69
0.66
2.15
0.24
0
-0.69
-0.05
-0.4
0.05
0.01
-0.01
-0.05

>  <PUBCHEM_SHAPE_SELFOVERLAP>  (1) 
632.15

>  <PUBCHEM_SHAPE_VOLUME>  (1) 
161

>  <PUBCHEM_COORDINATE_TYPE>  (1) 
2
5
10

$$$$
