16901
     RDKit          3D

 24 25  0  0  0  0  0  0  0  0999 V2000
   -3.8806    1.9328   -1.6355 O   0  0  0  0  0  0  0  0  0  0  0  0
    3.8806    1.9328    1.6355 O   0  0  0  0  0  0  0  0  0  0  0  0
   -3.7707    2.5009    0.4821 O   0  0  0  0  0  0  0  0  0  0  0  0
    3.7707    2.5010   -0.4820 O   0  0  0  0  0  0  0  0  0  0  0  0
   -5.4781   -0.4314    1.3563 O   0  0  0  0  0  0  0  0  0  0  0  0
    5.4781   -0.4313   -1.3563 O   0  0  0  0  0  0  0  0  0  0  0  0
   -5.5872   -0.9999   -0.7612 O   0  0  0  0  0  0  0  0  0  0  0  0
    5.5872   -1.0000    0.7612 O   0  0  0  0  0  0  0  0  0  0  0  0
   -3.5285    1.7051   -0.4549 N   0  0  0  0  0  0  0  0  0  0  0  0
    3.5286    1.7051    0.4548 N   0  0  0  0  0  0  0  0  0  0  0  0
   -4.9296   -0.7017    0.2628 N   0  0  0  0  0  0  0  0  0  0  0  0
    4.9296   -0.7017   -0.2627 N   0  0  0  0  0  0  0  0  0  0  0  0
   -0.7224   -0.6668    0.0371 C   0  0  0  0  0  0  0  0  0  0  0  0
    0.7225   -0.6668   -0.0371 C   0  0  0  0  0  0  0  0  0  0  0  0
   -1.4358    0.4996   -0.2391 C   0  0  0  0  0  0  0  0  0  0  0  0
    1.4358    0.4995    0.2391 C   0  0  0  0  0  0  0  0  0  0  0  0
   -1.4022   -1.8341    0.3852 C   0  0  0  0  0  0  0  0  0  0  0  0
    1.4022   -1.8341   -0.3851 C   0  0  0  0  0  0  0  0  0  0  0  0
   -2.8288    0.4988   -0.1675 C   0  0  0  0  0  0  0  0  0  0  0  0
    2.8288    0.4987    0.1675 C   0  0  0  0  0  0  0  0  0  0  0  0
   -3.5086   -0.6684    0.1806 C   0  0  0  0  0  0  0  0  0  0  0  0
    3.5085   -0.6684   -0.1807 C   0  0  0  0  0  0  0  0  0  0  0  0
   -2.7953   -1.8348    0.4571 C   0  0  0  0  0  0  0  0  0  0  0  0
    2.7952   -1.8348   -0.4572 C   0  0  0  0  0  0  0  0  0  0  0  0
  1  9  1  0
  2 10  1  0
  3  9  2  0
  4 10  2  0
  5 11  1  0
  6 12  1  0
  7 11  2  0
  8 12  2  0
  9 19  1  0
 10 20  1  0
 11 21  1  0
 12 22  1  0
 13 14  1  0
 13 15  2  0
 13 17  1  0
 14 16  2  0
 14 18  1  0
 15 19  1  0
 16 20  1  0
 17 23  2  0
 18 24  2  0
 19 21  2  0
 20 22  2  0
 21 23  1  0
 22 24  1  0
M  CHG  8   1  -1   2  -1   5  -1   6  -1   9   1  10   1  11   1  12   1
M  END
>  <PUBCHEM_COMPOUND_CID>  (1) 
16901

>  <PUBCHEM_CONFORMER_RMSD>  (1) 
0.8

>  <PUBCHEM_CONFORMER_DIVERSEORDER>  (1) 
2
3
1
4

>  <PUBCHEM_MMFF94_PARTIAL_CHARGES>  (1) 
28
1 -0.52
10 0.91
11 0.91
12 0.91
15 -0.15
16 -0.15
17 -0.15
18 -0.15
19 0.13
2 -0.52
20 0.13
21 0.13
22 0.13
23 -0.15
24 -0.15
25 0.15
26 0.15
27 0.15
28 0.15
29 0.15
3 -0.52
30 0.15
4 -0.52
5 -0.52
6 -0.52
7 -0.52
8 -0.52
9 0.91

>  <PUBCHEM_EFFECTIVE_ROTOR_COUNT>  (1) 
5

>  <PUBCHEM_PHARMACOPHORE_FEATURES>  (1) 
14
1 1 acceptor
1 1 anion
1 2 acceptor
1 2 anion
1 3 acceptor
1 4 acceptor
1 5 acceptor
1 5 anion
1 6 acceptor
1 6 anion
1 7 acceptor
1 8 acceptor
6 13 15 17 19 21 23 rings
6 14 16 18 20 22 24 rings

>  <PUBCHEM_HEAVY_ATOM_COUNT>  (1) 
24

>  <PUBCHEM_ATOM_DEF_STEREO_COUNT>  (1) 
0

>  <PUBCHEM_ATOM_UDEF_STEREO_COUNT>  (1) 
0

>  <PUBCHEM_BOND_DEF_STEREO_COUNT>  (1) 
0

>  <PUBCHEM_BOND_UDEF_STEREO_COUNT>  (1) 
0

>  <PUBCHEM_ISOTOPIC_ATOM_COUNT>  (1) 
0

>  <PUBCHEM_COMPONENT_COUNT>  (1) 
1

>  <PUBCHEM_CACTVS_TAUTO_COUNT>  (1) 
1

>  <PUBCHEM_CONFORMER_ID>  (1) 
0000420500000002

>  <PUBCHEM_MMFF94_ENERGY>  (1) 
96.8299

>  <PUBCHEM_FEATURE_SELFOVERLAP>  (1) 
71.382

>  <PUBCHEM_SHAPE_FINGERPRINT>  (1) 
10498660 4 18042114389258634765
10608611 8 18410572885639836352
10646746 165 18407759235627100106
10670039 82 18187375332864795044
11405975 8 18409728469711148026
11595378 159 16660637423512155420
12107183 9 17684924704927551306
12236239 1 15719393940466162507
12390115 104 18197232364608301465
12403259 415 18410572889935095972
12507560 40 18411133662677591404
12596602 18 15719683137777805387
12616971 3 17275101738672657877
13081056 2 18412263956066764137
14251764 18 18186237325856204602
14341114 176 18334300906535206505
15042514 8 18189623924601952571
15196674 1 18410855460128597028
15788980 27 14764349323175288718
15961568 22 17750517450099911940
1601671 61 18338518535130437630
17844677 252 18410860961986913032
18186145 218 18343868822645140074
19433438 28 18333450945550368729
200 152 17489587848575200179
20510252 161 18410856547535726737
20645477 56 18335706014171951559
20645477 70 17846786213013798150
21033648 29 18335692845443707897
21065198 57 18409449193700040586
21267235 1 18410866459539848579
21279426 13 18195249914962852806
21709351 56 18413102853706361014
221357 26 18343582940931873729
23402539 116 18335414634583860303
23557571 272 18187369809188081661
23559900 14 18337674230021611418
350125 39 18410017632278352487
3545911 37 18410859858174958750
4214541 1 18409167684220737949
495365 180 17631727283745228082
5104073 3 18262799558096467859
5281201 14 18342462508407473566
7808743 9 17762899162578581544
9709674 26 18340774753838405103
9999458 23 18335422400602416030

>  <PUBCHEM_SHAPE_MULTIPOLES>  (1) 
427.03
12.64
2.36
1
0
1.07
0
0.88
0
0
0
0
0.28
1.13

>  <PUBCHEM_SHAPE_SELFOVERLAP>  (1) 
932.572

>  <PUBCHEM_SHAPE_VOLUME>  (1) 
232.9

>  <PUBCHEM_COORDINATE_TYPE>  (1) 
2
5
10

$$$$
