16907
     RDKit          3D

  6  5  0  0  0  0  0  0  0  0999 V2000
    2.6666   -0.0985    0.0020 S   0  0  0  0  0  0  0  0  0  0  0  0
   -1.2095    0.6862   -0.0001 O   0  0  0  0  0  0  0  0  0  0  0  0
   -0.0514   -1.3059   -0.0010 O   0  0  0  0  0  0  0  0  0  0  0  0
    1.1182    0.8358   -0.0012 C   0  0  0  0  0  0  0  0  0  0  0  0
   -0.0776   -0.0831   -0.0014 C   0  0  0  0  0  0  0  0  0  0  0  0
   -2.4464   -0.0345    0.0017 C   0  0  0  0  0  0  0  0  0  0  0  0
  1  4  1  0
  2  5  1  0
  2  6  1  0
  3  5  2  0
  4  5  1  0
M  END
>  <PUBCHEM_COMPOUND_CID>  (1) 
16907

>  <PUBCHEM_CONFORMER_RMSD>  (1) 
0.4

>  <PUBCHEM_CONFORMER_DIVERSEORDER>  (1) 
1
4
5
2
3

>  <PUBCHEM_MMFF94_PARTIAL_CHARGES>  (1) 
7
1 -0.41
12 0.18
2 -0.43
3 -0.57
4 0.29
5 0.66
6 0.28

>  <PUBCHEM_EFFECTIVE_ROTOR_COUNT>  (1) 
2

>  <PUBCHEM_PHARMACOPHORE_FEATURES>  (1) 
1
1 3 acceptor

>  <PUBCHEM_HEAVY_ATOM_COUNT>  (1) 
6

>  <PUBCHEM_ATOM_DEF_STEREO_COUNT>  (1) 
0

>  <PUBCHEM_ATOM_UDEF_STEREO_COUNT>  (1) 
0

>  <PUBCHEM_BOND_DEF_STEREO_COUNT>  (1) 
0

>  <PUBCHEM_BOND_UDEF_STEREO_COUNT>  (1) 
0

>  <PUBCHEM_ISOTOPIC_ATOM_COUNT>  (1) 
0

>  <PUBCHEM_COMPONENT_COUNT>  (1) 
1

>  <PUBCHEM_CACTVS_TAUTO_COUNT>  (1) 
1

>  <PUBCHEM_CONFORMER_ID>  (1) 
0000420B00000001

>  <PUBCHEM_MMFF94_ENERGY>  (1) 
6.7401

>  <PUBCHEM_FEATURE_SELFOVERLAP>  (1) 
5.074

>  <PUBCHEM_SHAPE_FINGERPRINT>  (1) 
16714656 1 18334858320418156116
20096714 4 18409729594718370008
21040471 1 18410856585557325380
29004967 10 15213300815980949112
5460574 1 9295290538609035296

>  <PUBCHEM_SHAPE_MULTIPOLES>  (1) 
115.59
3.56
1
0.6
0.26
0.15
0
-0.04
0
0.06
0
0.06
-0.01
0

>  <PUBCHEM_SHAPE_SELFOVERLAP>  (1) 
197.854

>  <PUBCHEM_SHAPE_VOLUME>  (1) 
79.3

>  <PUBCHEM_COORDINATE_TYPE>  (1) 
2
5
10

$$$$
