16916
     RDKit          3D

  4  3  0  0  0  0  0  0  0  0999 V2000
    2.2215   -0.1024   -0.0050 Cl  0  0  0  0  0  0  0  0  0  0  0  0
   -0.6561   -0.7480    0.0036 S   0  0  0  0  0  0  0  0  0  0  0  0
    0.5799    0.5728    0.0060 C   0  0  0  0  0  0  0  0  0  0  0  0
   -2.1453    0.2776   -0.0046 C   0  0  0  0  0  0  0  0  0  0  0  0
  1  3  1  0
  2  3  1  0
  2  4  1  0
M  END
>  <PUBCHEM_COMPOUND_CID>  (1) 
16916

>  <PUBCHEM_CONFORMER_RMSD>  (1) 
0.4

>  <PUBCHEM_CONFORMER_DIVERSEORDER>  (1) 
1
2
3

>  <PUBCHEM_MMFF94_PARTIAL_CHARGES>  (1) 
4
1 -0.29
2 -0.46
3 0.52
4 0.23

>  <PUBCHEM_EFFECTIVE_ROTOR_COUNT>  (1) 
1

>  <PUBCHEM_PHARMACOPHORE_FEATURES>  (1) 
1
1 4 hydrophobe

>  <PUBCHEM_HEAVY_ATOM_COUNT>  (1) 
4

>  <PUBCHEM_ATOM_DEF_STEREO_COUNT>  (1) 
0

>  <PUBCHEM_ATOM_UDEF_STEREO_COUNT>  (1) 
0

>  <PUBCHEM_BOND_DEF_STEREO_COUNT>  (1) 
0

>  <PUBCHEM_BOND_UDEF_STEREO_COUNT>  (1) 
0

>  <PUBCHEM_ISOTOPIC_ATOM_COUNT>  (1) 
0

>  <PUBCHEM_COMPONENT_COUNT>  (1) 
1

>  <PUBCHEM_CACTVS_TAUTO_COUNT>  (1) 
1

>  <PUBCHEM_CONFORMER_ID>  (1) 
0000421400000001

>  <PUBCHEM_MMFF94_ENERGY>  (1) 
3.1093

>  <PUBCHEM_FEATURE_SELFOVERLAP>  (1) 
5.074

>  <PUBCHEM_SHAPE_FINGERPRINT>  (1) 
139733 1 9223236243163915520
16714656 1 18261111859150171565
20096714 4 18408885169798683609
5460574 1 9223234048161314176

>  <PUBCHEM_SHAPE_MULTIPOLES>  (1) 
88.04
3.18
0.9
0.65
0.34
0.09
0
-0.19
0.01
-0.09
0
0.01
0.02
0

>  <PUBCHEM_SHAPE_SELFOVERLAP>  (1) 
123.995

>  <PUBCHEM_SHAPE_VOLUME>  (1) 
68.6

>  <PUBCHEM_COORDINATE_TYPE>  (1) 
2
5
10

$$$$
