16912
     RDKit          3D

  9  8  0  0  0  0  0  0  0  0999 V2000
    1.5368    2.0222   -0.0422 O   0  0  0  0  0  0  0  0  0  0  0  0
    1.2445   -0.4041    0.0170 C   0  0  0  0  0  0  0  0  0  0  0  0
   -0.1414   -0.3571   -0.6864 C   0  0  0  0  0  0  0  0  0  0  0  0
   -1.3455   -0.1321    0.2366 C   0  0  0  0  0  0  0  0  0  0  0  0
    1.5412    0.8858    0.8120 C   0  0  0  0  0  0  0  0  0  0  0  0
    2.3182   -0.5801   -1.0786 C   0  0  0  0  0  0  0  0  0  0  0  0
    1.3327   -1.6061    0.9743 C   0  0  0  0  0  0  0  0  0  0  0  0
   -2.6452   -0.0453   -0.5671 C   0  0  0  0  0  0  0  0  0  0  0  0
   -3.8413    0.2168    0.3344 C   0  0  0  0  0  0  0  0  0  0  0  0
  1  5  1  0
  2  3  1  0
  2  5  1  0
  2  6  1  0
  2  7  1  0
  3  4  1  0
  4  8  1  0
  8  9  1  0
M  END
>  <PUBCHEM_COMPOUND_CID>  (1) 
16912

>  <PUBCHEM_CONFORMER_RMSD>  (1) 
0.6

>  <PUBCHEM_CONFORMER_DIVERSEORDER>  (1) 
1
14
13
8
3
15
9
7
2
10
5
6
11
16
4
12

>  <PUBCHEM_MMFF94_PARTIAL_CHARGES>  (1) 
3
1 -0.68
27 0.4
5 0.28

>  <PUBCHEM_EFFECTIVE_ROTOR_COUNT>  (1) 
4

>  <PUBCHEM_PHARMACOPHORE_FEATURES>  (1) 
5
1 1 acceptor
1 1 donor
1 9 hydrophobe
3 2 6 7 hydrophobe
4 2 3 4 8 hydrophobe

>  <PUBCHEM_HEAVY_ATOM_COUNT>  (1) 
9

>  <PUBCHEM_ATOM_DEF_STEREO_COUNT>  (1) 
0

>  <PUBCHEM_ATOM_UDEF_STEREO_COUNT>  (1) 
0

>  <PUBCHEM_BOND_DEF_STEREO_COUNT>  (1) 
0

>  <PUBCHEM_BOND_UDEF_STEREO_COUNT>  (1) 
0

>  <PUBCHEM_ISOTOPIC_ATOM_COUNT>  (1) 
0

>  <PUBCHEM_COMPONENT_COUNT>  (1) 
1

>  <PUBCHEM_CACTVS_TAUTO_COUNT>  (1) 
1

>  <PUBCHEM_CONFORMER_ID>  (1) 
0000421000000001

>  <PUBCHEM_MMFF94_ENERGY>  (1) 
14.0721

>  <PUBCHEM_FEATURE_SELFOVERLAP>  (1) 
25.397

>  <PUBCHEM_SHAPE_FINGERPRINT>  (1) 
10857977 72 16805041843903015933
12932741 1 18335710476426694291
12932764 1 18334008381140425847
14390081 3 18410852192159306909
170605 34 18270677704817057393
20653091 64 18340768156683573464
21524375 3 17836913861016424824
230 275 18339068367573430345
23552333 60 18201718444372871465
23552449 11 18338222791586729715
3248919 1 17632003209360532567
5084963 1 16988566762454399031

>  <PUBCHEM_SHAPE_MULTIPOLES>  (1) 
179.35
4.78
1.4
1.03
5.71
0.46
0.03
0.17
0.09
-1.15
-0.29
-0.42
-0.19
-0.01

>  <PUBCHEM_SHAPE_SELFOVERLAP>  (1) 
321.479

>  <PUBCHEM_SHAPE_VOLUME>  (1) 
117.6

>  <PUBCHEM_COORDINATE_TYPE>  (1) 
2
5
10

$$$$
