16932
     RDKit          3D

 17 20  0  0  0  0  0  0  0  0999 V2000
   -0.4550    0.2433    0.0000 C   0  0  0  0  0  0  0  0  0  0  0  0
    0.9321   -0.0463    0.0000 C   0  0  0  0  0  0  0  0  0  0  0  0
   -1.3972   -0.8116    0.0000 C   0  0  0  0  0  0  0  0  0  0  0  0
   -0.8967    1.5869    0.0000 C   0  0  0  0  0  0  0  0  0  0  0  0
    1.3739   -1.3899    0.0000 C   0  0  0  0  0  0  0  0  0  0  0  0
    1.8744    1.0086    0.0000 C   0  0  0  0  0  0  0  0  0  0  0  0
   -2.7667   -0.5087    0.0000 C   0  0  0  0  0  0  0  0  0  0  0  0
   -0.9410   -2.1366    0.0000 C   0  0  0  0  0  0  0  0  0  0  0  0
    0.4258   -2.4219    0.0000 C   0  0  0  0  0  0  0  0  0  0  0  0
    0.0513    2.6189    0.0000 C   0  0  0  0  0  0  0  0  0  0  0  0
    1.4182    2.3336    0.0000 C   0  0  0  0  0  0  0  0  0  0  0  0
   -2.2730    1.8570    0.0000 C   0  0  0  0  0  0  0  0  0  0  0  0
   -3.1999    0.8161    0.0000 C   0  0  0  0  0  0  0  0  0  0  0  0
    2.7501   -1.6600    0.0000 C   0  0  0  0  0  0  0  0  0  0  0  0
    3.2438    0.7057   -0.0001 C   0  0  0  0  0  0  0  0  0  0  0  0
    3.6771   -0.6191    0.0000 C   0  0  0  0  0  0  0  0  0  0  0  0
   -3.8171   -1.5761    0.0000 C   0  0  0  0  0  0  0  0  0  0  0  0
  1  2  2  0
  1  3  1  0
  1  4  1  0
  2  5  1  0
  2  6  1  0
  3  7  2  0
  3  8  1  0
  4 10  2  0
  4 12  1  0
  5  9  1  0
  5 14  2  0
  6 11  2  0
  6 15  1  0
  7 13  1  0
  7 17  1  0
  8  9  2  0
 10 11  1  0
 12 13  2  0
 14 16  1  0
 15 16  2  0
M  END
>  <PUBCHEM_COMPOUND_CID>  (1) 
16932

>  <PUBCHEM_CONFORMER_RMSD>  (1) 
0.4

>  <PUBCHEM_CONFORMER_DIVERSEORDER>  (1) 
1

>  <PUBCHEM_MMFF94_PARTIAL_CHARGES>  (1) 
20
10 -0.15
11 -0.15
12 -0.15
13 -0.15
14 -0.15
15 -0.15
16 -0.15
17 0.14
18 0.15
19 0.15
20 0.15
21 0.15
22 0.15
23 0.15
24 0.15
25 0.15
26 0.15
7 -0.14
8 -0.15
9 -0.15

>  <PUBCHEM_EFFECTIVE_ROTOR_COUNT>  (1) 
0

>  <PUBCHEM_PHARMACOPHORE_FEATURES>  (1) 
4
6 1 2 3 5 8 9 rings
6 1 2 4 6 10 11 rings
6 1 3 4 7 12 13 rings
6 2 5 6 14 15 16 rings

>  <PUBCHEM_HEAVY_ATOM_COUNT>  (1) 
17

>  <PUBCHEM_ATOM_DEF_STEREO_COUNT>  (1) 
0

>  <PUBCHEM_ATOM_UDEF_STEREO_COUNT>  (1) 
0

>  <PUBCHEM_BOND_DEF_STEREO_COUNT>  (1) 
0

>  <PUBCHEM_BOND_UDEF_STEREO_COUNT>  (1) 
0

>  <PUBCHEM_ISOTOPIC_ATOM_COUNT>  (1) 
0

>  <PUBCHEM_COMPONENT_COUNT>  (1) 
1

>  <PUBCHEM_CACTVS_TAUTO_COUNT>  (1) 
1

>  <PUBCHEM_CONFORMER_ID>  (1) 
0000422400000001

>  <PUBCHEM_MMFF94_ENERGY>  (1) 
60.2649

>  <PUBCHEM_FEATURE_SELFOVERLAP>  (1) 
20.429

>  <PUBCHEM_SHAPE_FINGERPRINT>  (1) 
10411042 1 18410856520996445415
10967382 1 18194682789704717632
11132069 177 18339355258540668624
11471102 20 18410288129761772903
11578080 2 17273387643796787113
11680986 33 18048600609771009067
12382932 28 18268147565352625264
13132413 78 18412545400984283980
13140716 1 18267020565934135600
13221675 6 18410855485914004230
14178342 30 18268422451897366744
14790565 3 18266198255770440253
15196674 1 18410856559692550084
15442244 35 18410855425969110946
15536298 74 18343582958174923048
16945 1 18266741474669574532
193761 8 17834395996446906342
19591789 44 18411140212344819566
200 152 18131059464191990647
20510252 161 18344146986049325408
20905425 154 18124877854722127118
21267235 1 18410865360096779606
21501502 16 18409732828696758177
221490 88 18263931114617962187
22721475 48 18409735074970000168
2334 1 18410855451538240196
23402539 116 18341884174155796838
23419403 2 16112812498150253280
23463225 33 18408604730004004328
23559900 14 18343022156617662534
238 59 15443798812723164733
2748010 2 18411135796959683612
335352 9 18050568439147400471
34934 24 18265606589865306449
350125 39 18410298050925717137
5104073 3 18411135818518878018
528886 8 18339355271309460992
7364860 26 18197779006096289008
8809292 202 18261680280950119243
9709674 26 18411705395707667118

>  <PUBCHEM_SHAPE_MULTIPOLES>  (1) 
349.85
5.41
2.94
0.62
0.48
0.41
0
-1.14
0
0.11
0
0
0
0

>  <PUBCHEM_SHAPE_SELFOVERLAP>  (1) 
814.672

>  <PUBCHEM_SHAPE_VOLUME>  (1) 
162.8

>  <PUBCHEM_COORDINATE_TYPE>  (1) 
2
5
10

$$$$
