16933
     RDKit          3D

 19 22  0  0  0  0  0  0  0  0999 V2000
    0.5921    0.1615   -0.0002 C   0  0  0  0  0  0  0  0  0  0  0  0
    0.0870   -1.1619   -0.0002 C   0  0  0  0  0  0  0  0  0  0  0  0
   -2.2265   -0.3504   -0.0001 C   0  0  0  0  0  0  0  0  0  0  0  0
    2.0181    0.3693    0.0000 C   0  0  0  0  0  0  0  0  0  0  0  0
   -1.7542    0.9743   -0.0001 C   0  0  0  0  0  0  0  0  0  0  0  0
   -0.3657    1.2079   -0.0001 C   0  0  0  0  0  0  0  0  0  0  0  0
   -1.2985   -1.4004   -0.0002 C   0  0  0  0  0  0  0  0  0  0  0  0
    2.8824   -0.7567   -0.0001 C   0  0  0  0  0  0  0  0  0  0  0  0
   -3.6113   -0.5906   -0.0001 C   0  0  0  0  0  0  0  0  0  0  0  0
    0.9697   -2.2453   -0.0001 C   0  0  0  0  0  0  0  0  0  0  0  0
    2.3461   -2.0462    0.0000 C   0  0  0  0  0  0  0  0  0  0  0  0
   -2.6804    2.0319   -0.0001 C   0  0  0  0  0  0  0  0  0  0  0  0
    2.6375    1.6445   -0.0001 C   0  0  0  0  0  0  0  0  0  0  0  0
   -4.5179    0.4693    0.0000 C   0  0  0  0  0  0  0  0  0  0  0  0
    4.2777   -0.5887    0.0001 C   0  0  0  0  0  0  0  0  0  0  0  0
   -4.0526    1.7800    0.0002 C   0  0  0  0  0  0  0  0  0  0  0  0
   -4.1774   -1.9773    0.0006 C   0  0  0  0  0  0  0  0  0  0  0  0
    4.0268    1.7980    0.0002 C   0  0  0  0  0  0  0  0  0  0  0  0
    4.8471    0.6808    0.0003 C   0  0  0  0  0  0  0  0  0  0  0  0
  1  2  1  0
  1  4  1  0
  1  6  2  0
  2  7  2  0
  2 10  1  0
  3  5  2  0
  3  7  1  0
  3  9  1  0
  4  8  2  0
  4 13  1  0
  5  6  1  0
  5 12  1  0
  8 11  1  0
  8 15  1  0
  9 14  2  0
  9 17  1  0
 10 11  2  0
 12 16  2  0
 13 18  2  0
 14 16  1  0
 15 19  2  0
 18 19  1  0
M  END
>  <PUBCHEM_COMPOUND_CID>  (1) 
16933

>  <PUBCHEM_CONFORMER_RMSD>  (1) 
0.4

>  <PUBCHEM_CONFORMER_DIVERSEORDER>  (1) 
1

>  <PUBCHEM_MMFF94_PARTIAL_CHARGES>  (1) 
24
10 -0.15
11 -0.15
12 -0.15
13 -0.15
14 -0.15
15 -0.15
16 -0.15
17 0.14
18 -0.15
19 -0.15
20 0.15
21 0.15
22 0.15
23 0.15
24 0.15
25 0.15
26 0.15
27 0.15
28 0.15
32 0.15
33 0.15
6 -0.15
7 -0.15
9 -0.14

>  <PUBCHEM_EFFECTIVE_ROTOR_COUNT>  (1) 
0

>  <PUBCHEM_PHARMACOPHORE_FEATURES>  (1) 
4
6 1 2 3 5 6 7 rings
6 1 2 4 8 10 11 rings
6 3 5 9 12 14 16 rings
6 4 8 13 15 18 19 rings

>  <PUBCHEM_HEAVY_ATOM_COUNT>  (1) 
19

>  <PUBCHEM_ATOM_DEF_STEREO_COUNT>  (1) 
0

>  <PUBCHEM_ATOM_UDEF_STEREO_COUNT>  (1) 
0

>  <PUBCHEM_BOND_DEF_STEREO_COUNT>  (1) 
0

>  <PUBCHEM_BOND_UDEF_STEREO_COUNT>  (1) 
0

>  <PUBCHEM_ISOTOPIC_ATOM_COUNT>  (1) 
0

>  <PUBCHEM_COMPONENT_COUNT>  (1) 
1

>  <PUBCHEM_CACTVS_TAUTO_COUNT>  (1) 
1

>  <PUBCHEM_CONFORMER_ID>  (1) 
0000422500000001

>  <PUBCHEM_MMFF94_ENERGY>  (1) 
68.0949

>  <PUBCHEM_FEATURE_SELFOVERLAP>  (1) 
20.37

>  <PUBCHEM_SHAPE_FINGERPRINT>  (1) 
10411042 1 16897365915638283298
10498660 4 18409729547384299477
10608611 8 18337389344624693781
10616163 171 18412263952051800519
10646746 165 18411138021979628716
10967382 1 18410573937964872132
11471102 20 18411416172725414350
11578080 2 16952521382419123414
12107183 9 17761208817341010289
12403259 226 18410849979903457560
12403259 415 18201717401065395456
12403260 363 18337102471042760644
13140716 1 18264775350748563123
13224815 77 18410575080563322979
138480 1 17762055437126861826
14787075 74 18269273628563209587
14790565 3 18336553836506176108
15196674 1 18410573985357263910
15442244 35 18122906421619864826
15536298 74 18341895156239252102
17349148 13 17968095360475047335
17492 89 18411136905278517575
18186145 218 18272097049943263116
18681886 176 18341047502174280144
19591789 44 18340485689485027587
200 152 18131628989376396901
20510252 161 18343023306682681825
20645477 70 18272089340345215342
21267235 1 18410864260516528094
21421861 104 17679860410367879930
21501502 16 18410290268391917491
21709351 56 18408317791876528932
221490 88 18410301276361786410
23227448 37 18341893029998442799
23366157 5 18041846086835974194
23402539 116 18411693318058605719
23402655 69 18342737394777803428
23559900 14 18198339555331920238
245318 6 17026861855134794852
3004659 81 18262246517819742054
335352 9 18194683670405219774
34934 24 18409443653508362999
350125 39 18410858793144466608
3545911 37 18410013213036826653
4214541 1 18410856542586806753
474 4 17894918455279329252
4990 188 18059866051717446060
5104073 3 18410011022344842362
58051976 378 18341330015652056429
6138700 20 18267028259255115534
633830 44 18342174445056393622
69090 78 18341328972128055590
7364860 26 18269275669036957878
77779 3 18411139125591057876
9709674 26 18410299102955412247

>  <PUBCHEM_SHAPE_MULTIPOLES>  (1) 
391.01
9.49
2.42
0.62
0.28
0.28
0
-2
0
-0.36
0
0
0
0

>  <PUBCHEM_SHAPE_SELFOVERLAP>  (1) 
895.652

>  <PUBCHEM_SHAPE_VOLUME>  (1) 
185.2

>  <PUBCHEM_COORDINATE_TYPE>  (1) 
2
5
10

$$$$
