16931
     RDKit          3D

 19 22  0  0  0  0  0  0  0  0999 V2000
   -0.3276   -0.4060    0.0008 C   0  0  0  0  0  0  0  0  0  0  0  0
    1.0564    0.0814   -0.0460 C   0  0  0  0  0  0  0  0  0  0  0  0
   -1.5655    0.3819    0.0487 C   0  0  0  0  0  0  0  0  0  0  0  0
   -0.4897   -1.8204   -0.0005 C   0  0  0  0  0  0  0  0  0  0  0  0
    2.1374   -0.8281    0.1317 C   0  0  0  0  0  0  0  0  0  0  0  0
   -2.8242   -0.2591   -0.1305 C   0  0  0  0  0  0  0  0  0  0  0  0
    0.6013   -2.6808    0.1349 C   0  0  0  0  0  0  0  0  0  0  0  0
    1.8917   -2.1908    0.2454 C   0  0  0  0  0  0  0  0  0  0  0  0
   -1.7471   -2.4114   -0.1372 C   0  0  0  0  0  0  0  0  0  0  0  0
    1.4511    1.4168   -0.3239 C   0  0  0  0  0  0  0  0  0  0  0  0
    3.4738   -0.3911    0.1604 C   0  0  0  0  0  0  0  0  0  0  0  0
   -2.8931   -1.6420   -0.2467 C   0  0  0  0  0  0  0  0  0  0  0  0
    3.7966    0.9432   -0.0432 C   0  0  0  0  0  0  0  0  0  0  0  0
   -1.6480    1.7713    0.3292 C   0  0  0  0  0  0  0  0  0  0  0  0
    2.7840    1.8456   -0.3087 C   0  0  0  0  0  0  0  0  0  0  0  0
   -4.0269    0.4689   -0.1586 C   0  0  0  0  0  0  0  0  0  0  0  0
   -2.8491    2.4907    0.3149 C   0  0  0  0  0  0  0  0  0  0  0  0
   -4.0396    1.8414    0.0475 C   0  0  0  0  0  0  0  0  0  0  0  0
    5.2183    1.3883   -0.0181 C   0  0  0  0  0  0  0  0  0  0  0  0
  1  2  2  0
  1  3  1  0
  1  4  1  0
  2  5  1  0
  2 10  1  0
  3  6  2  0
  3 14  1  0
  4  7  2  0
  4  9  1  0
  5  8  2  0
  5 11  1  0
  6 12  1  0
  6 16  1  0
  7  8  1  0
  9 12  2  0
 10 15  2  0
 11 13  2  0
 13 15  1  0
 13 19  1  0
 14 17  2  0
 16 18  2  0
 17 18  1  0
M  END
>  <PUBCHEM_COMPOUND_CID>  (1) 
16931

>  <PUBCHEM_CONFORMER_RMSD>  (1) 
0.4

>  <PUBCHEM_CONFORMER_DIVERSEORDER>  (1) 
1

>  <PUBCHEM_MMFF94_PARTIAL_CHARGES>  (1) 
24
10 -0.15
11 -0.15
12 -0.15
13 -0.14
14 -0.15
15 -0.15
16 -0.15
17 -0.15
18 -0.15
19 0.14
20 0.15
21 0.15
22 0.15
23 0.15
24 0.15
25 0.15
26 0.15
27 0.15
28 0.15
29 0.15
30 0.15
7 -0.15
8 -0.15
9 -0.15

>  <PUBCHEM_EFFECTIVE_ROTOR_COUNT>  (1) 
0

>  <PUBCHEM_PHARMACOPHORE_FEATURES>  (1) 
4
6 1 2 4 5 7 8 rings
6 1 3 4 6 9 12 rings
6 2 5 10 11 13 15 rings
6 3 6 14 16 17 18 rings

>  <PUBCHEM_HEAVY_ATOM_COUNT>  (1) 
19

>  <PUBCHEM_ATOM_DEF_STEREO_COUNT>  (1) 
0

>  <PUBCHEM_ATOM_UDEF_STEREO_COUNT>  (1) 
0

>  <PUBCHEM_BOND_DEF_STEREO_COUNT>  (1) 
0

>  <PUBCHEM_BOND_UDEF_STEREO_COUNT>  (1) 
0

>  <PUBCHEM_ISOTOPIC_ATOM_COUNT>  (1) 
0

>  <PUBCHEM_COMPONENT_COUNT>  (1) 
1

>  <PUBCHEM_CACTVS_TAUTO_COUNT>  (1) 
1

>  <PUBCHEM_CONFORMER_ID>  (1) 
0000422300000001

>  <PUBCHEM_MMFF94_ENERGY>  (1) 
78.7702

>  <PUBCHEM_FEATURE_SELFOVERLAP>  (1) 
20.369

>  <PUBCHEM_SHAPE_FINGERPRINT>  (1) 
10319926 262 18127107879974846992
10382601 240 17968095262081183514
10411042 1 17402049397502394946
10498660 4 18411135848541671093
10608611 8 18411699885058293770
10616163 171 18411139181404650719
10646746 165 18341331180094790472
10967382 1 18338516322441571201
1100329 8 18193274083682509498
11370993 70 18410569578531135024
12173636 292 18412258467056362189
12390115 104 18270137789063544360
12403260 363 18265887145961582956
13140716 1 18192152603085647595
138480 1 17617941326960975859
14767858 380 18269537460658209877
14790565 3 18334866047603028708
15042514 8 18049447238114965403
15196674 1 18410292514754745774
15442244 35 18266173937928750346
15536298 74 18342176614078311086
16945 1 18410577262401850275
17492 89 18410854347885691363
18186145 218 18199756834093183245
19591789 44 17977388231364508886
20510252 161 18270123555256705707
20715895 44 17688299098077804613
21267235 1 18265340671128565478
21279426 13 18341338799762205094
21501502 16 18410285891693824155
21524375 3 18410012126119729518
22094290 62 18265895752764970171
23227448 37 18412262843949783679
2334 1 18337954618023358519
23366157 5 18042409036863352474
23402539 116 18269829968577780396
23557571 272 18129952302510198030
23558518 356 18261118499175405651
23559900 14 18273497875771758272
238 59 17250859509157243317
2748010 2 16609409789636622359
3091708 16 9192969960616531074
335352 9 18266177236690402878
34934 24 18410005520676436037
350125 39 18337676441639832841
3545911 37 18411140233692828148
474 4 17968099741542370284
5048184 11 18410859832410624673
5104073 3 18408603643192734538
58051976 378 18412824706965314140
5939293 188 17329426147422179523
6333272 397 18409731720880000041
633830 44 17985548849557630277
7364860 26 18268994176542715926
7832392 63 18410855417400190902
84936 182 18200589190292035440
9709674 26 18341618126411644990
9981440 41 18335978752821549882

>  <PUBCHEM_SHAPE_MULTIPOLES>  (1) 
391.01
7.92
3.05
0.65
3.5
0.79
0
-4.81
0.13
-0.86
-0.11
-0.01
-0.02
-0.49

>  <PUBCHEM_SHAPE_SELFOVERLAP>  (1) 
893.237

>  <PUBCHEM_SHAPE_VOLUME>  (1) 
187.7

>  <PUBCHEM_COORDINATE_TYPE>  (1) 
2
5
10

$$$$
