16942
     RDKit          3D

  8  7  0  0  1  0  0  0  0  0999 V2000
    1.4111    1.2666    0.0555 O   0  0  0  0  0  0  0  0  0  0  0  0
   -1.1060   -0.0783    0.0138 N   0  0  0  0  0  0  0  0  0  0  0  0
    0.1869   -0.7661    0.4281 C   0  0  0  0  0  0  0  0  0  0  0  0
    1.3917   -0.1251   -0.2529 C   0  0  0  0  0  0  0  0  0  0  0  0
   -1.2529   -0.1433   -1.4996 C   0  0  0  0  0  0  0  0  0  0  0  0
   -2.2865   -0.7808    0.6688 C   0  0  0  0  0  0  0  0  0  0  0  0
   -1.0716    1.3770    0.4580 C   0  0  0  0  0  0  0  0  0  0  0  0
    2.7273   -0.7501    0.1283 C   0  0  0  0  0  0  0  0  0  0  0  0
  1  4  1  0
  2  3  1  0
  2  5  1  0
  2  6  1  0
  2  7  1  0
  3  4  1  0
  4  8  1  0
M  CHG  1   2   1
M  END
>  <PUBCHEM_COMPOUND_CID>  (1) 
16942

>  <PUBCHEM_CONFORMER_RMSD>  (1) 
0.4

>  <PUBCHEM_CONFORMER_DIVERSEORDER>  (1) 
1
3
2

>  <PUBCHEM_MMFF94_PARTIAL_CHARGES>  (1) 
8
1 -0.68
2 -1.01
24 0.4
3 0.5
4 0.28
5 0.5
6 0.5
7 0.5

>  <PUBCHEM_EFFECTIVE_ROTOR_COUNT>  (1) 
2

>  <PUBCHEM_PHARMACOPHORE_FEATURES>  (1) 
3
1 1 acceptor
1 1 donor
1 2 cation

>  <PUBCHEM_HEAVY_ATOM_COUNT>  (1) 
8

>  <PUBCHEM_ATOM_DEF_STEREO_COUNT>  (1) 
0

>  <PUBCHEM_ATOM_UDEF_STEREO_COUNT>  (1) 
1

>  <PUBCHEM_BOND_DEF_STEREO_COUNT>  (1) 
0

>  <PUBCHEM_BOND_UDEF_STEREO_COUNT>  (1) 
0

>  <PUBCHEM_ISOTOPIC_ATOM_COUNT>  (1) 
0

>  <PUBCHEM_COMPONENT_COUNT>  (1) 
1

>  <PUBCHEM_CACTVS_TAUTO_COUNT>  (1) 
1

>  <PUBCHEM_CONFORMER_ID>  (1) 
0000422E00000001

>  <PUBCHEM_MMFF94_ENERGY>  (1) 
31.3737

>  <PUBCHEM_FEATURE_SELFOVERLAP>  (1) 
15.223

>  <PUBCHEM_SHAPE_FINGERPRINT>  (1) 
12932764 1 17417806219571874690
15310529 11 18272941517928394270
16714656 1 17561084696072472431
21040471 1 17907306446388484048
23235687 12 16917065590008955476
23552423 10 18186809088349170778
24536 1 18336817645775261888
29004967 10 18341898467727732538
369184 2 15267054818233840886
5084963 1 17530687614769896682

>  <PUBCHEM_SHAPE_MULTIPOLES>  (1) 
153.79
3.23
1.24
1.02
1.39
0.39
-0.39
-0.76
0.3
-0.1
0.23
-0.51
-0.08
0.01

>  <PUBCHEM_SHAPE_SELFOVERLAP>  (1) 
273.349

>  <PUBCHEM_SHAPE_VOLUME>  (1) 
102.9

>  <PUBCHEM_COORDINATE_TYPE>  (1) 
2
5
10

$$$$
