16951
     RDKit          3D

 15 14  0  0  0  0  0  0  0  0999 V2000
    5.1986    0.5125   -0.0365 O   0  0  0  0  0  0  0  0  0  0  0  0
    7.3930    0.8253   -0.0997 O   0  0  0  0  0  0  0  0  0  0  0  0
    6.6154   -1.3149   -0.0313 O   0  0  0  0  0  0  0  0  0  0  0  0
   -2.3454    0.4667    0.0661 C   0  0  0  0  0  0  0  0  0  0  0  0
   -1.0501   -0.3518    0.0673 C   0  0  0  0  0  0  0  0  0  0  0  0
   -3.6074   -0.3984    0.0988 C   0  0  0  0  0  0  0  0  0  0  0  0
    0.2485    0.4600    0.1151 C   0  0  0  0  0  0  0  0  0  0  0  0
   -4.9029    0.4164    0.0182 C   0  0  0  0  0  0  0  0  0  0  0  0
    1.5448   -0.3536    0.0602 C   0  0  0  0  0  0  0  0  0  0  0  0
   -6.1992   -0.3975   -0.0429 C   0  0  0  0  0  0  0  0  0  0  0  0
    2.8041    0.5100    0.0245 C   0  0  0  0  0  0  0  0  0  0  0  0
   -7.4602    0.4666   -0.0649 C   0  0  0  0  0  0  0  0  0  0  0  0
    4.0654   -0.3433    0.0117 C   0  0  0  0  0  0  0  0  0  0  0  0
   -8.7168   -0.3879   -0.1331 C   0  0  0  0  0  0  0  0  0  0  0  0
    6.4124   -0.1099   -0.0534 C   0  0  0  0  0  0  0  0  0  0  0  0
  1 13  1  0
  1 15  1  0
  2 15  1  0
  3 15  2  0
  4  5  1  0
  4  6  1  0
  5  7  1  0
  6  8  1  0
  7  9  1  0
  8 10  1  0
  9 11  1  0
 10 12  1  0
 11 13  1  0
 12 14  1  0
M  END
>  <PUBCHEM_COMPOUND_CID>  (1) 
16951

>  <PUBCHEM_CONFORMER_RMSD>  (1) 
1.2

>  <PUBCHEM_CONFORMER_DIVERSEORDER>  (1) 
1
8
5
4
19
18
40
37
2
35
42
36
24
7
21
25
29
10
20
47
44
30
48
46
38
14
27
32
13
34
28
22
39
6
9
12
16
15
45
17
41
3
43
33
23
11
31
26

>  <PUBCHEM_MMFF94_PARTIAL_CHARGES>  (1) 
6
1 -0.43
13 0.28
15 0.87
2 -0.65
3 -0.57
39 0.5

>  <PUBCHEM_EFFECTIVE_ROTOR_COUNT>  (1) 
11

>  <PUBCHEM_PHARMACOPHORE_FEATURES>  (1) 
4
1 14 hydrophobe
1 2 acceptor
1 3 acceptor
3 2 3 15 anion

>  <PUBCHEM_HEAVY_ATOM_COUNT>  (1) 
15

>  <PUBCHEM_ATOM_DEF_STEREO_COUNT>  (1) 
0

>  <PUBCHEM_ATOM_UDEF_STEREO_COUNT>  (1) 
0

>  <PUBCHEM_BOND_DEF_STEREO_COUNT>  (1) 
0

>  <PUBCHEM_BOND_UDEF_STEREO_COUNT>  (1) 
0

>  <PUBCHEM_ISOTOPIC_ATOM_COUNT>  (1) 
0

>  <PUBCHEM_COMPONENT_COUNT>  (1) 
1

>  <PUBCHEM_CACTVS_TAUTO_COUNT>  (1) 
1

>  <PUBCHEM_CONFORMER_ID>  (1) 
0000423700000001

>  <PUBCHEM_MMFF94_ENERGY>  (1) 
4.3082

>  <PUBCHEM_FEATURE_SELFOVERLAP>  (1) 
20.354

>  <PUBCHEM_SHAPE_FINGERPRINT>  (1) 
11315181 36 18343587361191563641
11638347 137 14045746998126423172
12091667 2 18408323290267922185
13533116 47 15719378517597338496
14123256 10 18410573985156725897
14251764 18 17988927756110850281
14251764 46 18410011039498291394
17834076 25 18410575084668353665
18006028 8 17846779607349016977
20281389 69 18335417963189107404
20621476 8 17748824099086787087
21315763 28 18413107264896567665
22224240 67 16370724846320264859
23035841 295 17704351074436505743
23521765 1 18342175570591038697
28498 318 18410855434469270927
33684 2 18334293167399622074
42788 4 18410856559977490664
59755656 520 18260260876438728271
67123 10 18411136960906383253
8209 1 18409166615164238877

>  <PUBCHEM_SHAPE_MULTIPOLES>  (1) 
291.09
26.7
0.87
0.6
8.31
0.07
0
1.25
-1.5
-0.56
0
0.13
0
-0.04

>  <PUBCHEM_SHAPE_SELFOVERLAP>  (1) 
528.32

>  <PUBCHEM_SHAPE_VOLUME>  (1) 
185.9

>  <PUBCHEM_COORDINATE_TYPE>  (1) 
2
5
10

$$$$
