16956
     RDKit          3D

 34 36  0  0  0  0  0  0  0  0999 V2000
   -5.5720    0.0688    0.0005 N   0  0  0  0  0  0  0  0  0  0  0  0
    2.5140   -5.0388   -0.0738 N   0  0  0  0  0  0  0  0  0  0  0  0
    2.6412    4.9746    0.0744 N   0  0  0  0  0  0  0  0  0  0  0  0
   -0.1170    0.0021   -0.0012 C   0  0  0  0  0  0  0  0  0  0  0  0
   -1.4602    0.0185   -0.0013 C   0  0  0  0  0  0  0  0  0  0  0  0
    0.5704   -1.3157   -0.0201 C   0  0  0  0  0  0  0  0  0  0  0  0
    0.6038    1.3023    0.0185 C   0  0  0  0  0  0  0  0  0  0  0  0
   -4.2881    0.0533    0.0004 C   0  0  0  0  0  0  0  0  0  0  0  0
    1.8611   -3.7886   -0.0558 C   0  0  0  0  0  0  0  0  0  0  0  0
    1.9568    3.7415    0.0556 C   0  0  0  0  0  0  0  0  0  0  0  0
   -2.2073   -1.2300   -0.0202 C   0  0  0  0  0  0  0  0  0  0  0  0
   -2.1765    1.2850    0.0180 C   0  0  0  0  0  0  0  0  0  0  0  0
    0.8940   -1.9161   -1.2368 C   0  0  0  0  0  0  0  0  0  0  0  0
    0.9412    1.8942    1.2356 C   0  0  0  0  0  0  0  0  0  0  0  0
    0.8922   -1.9520    1.1789 C   0  0  0  0  0  0  0  0  0  0  0  0
    0.9429    1.9300   -1.1801 C   0  0  0  0  0  0  0  0  0  0  0  0
   -3.5473   -1.2358   -0.0197 C   0  0  0  0  0  0  0  0  0  0  0  0
   -3.5160    1.3237    0.0195 C   0  0  0  0  0  0  0  0  0  0  0  0
    1.5394   -3.1525   -1.2547 C   0  0  0  0  0  0  0  0  0  0  0  0
    1.6177    3.1138    1.2542 C   0  0  0  0  0  0  0  0  0  0  0  0
    1.5374   -3.1884    1.1611 C   0  0  0  0  0  0  0  0  0  0  0  0
    1.6194    3.1496   -1.1616 C   0  0  0  0  0  0  0  0  0  0  0  0
   -6.3331    1.3445    0.0203 C   0  0  0  0  0  0  0  0  0  0  0  0
   -6.3639   -1.1878   -0.0195 C   0  0  0  0  0  0  0  0  0  0  0  0
    2.8421   -5.6772   -1.3330 C   0  0  0  0  0  0  0  0  0  0  0  0
    2.8528   -5.7077    1.1665 C   0  0  0  0  0  0  0  0  0  0  0  0
    2.9841    5.6045    1.3340 C   0  0  0  0  0  0  0  0  0  0  0  0
    2.9983    5.6347   -1.1655 C   0  0  0  0  0  0  0  0  0  0  0  0
   -6.5674    1.8084   -1.4012 C   0  0  0  0  0  0  0  0  0  0  0  0
   -6.6093   -1.6461    1.4021 C   0  0  0  0  0  0  0  0  0  0  0  0
    4.2132   -5.2309   -1.8032 C   0  0  0  0  0  0  0  0  0  0  0  0
    4.1311   -5.1276    1.7404 C   0  0  0  0  0  0  0  0  0  0  0  0
    4.3428    5.1235    1.8057 C   0  0  0  0  0  0  0  0  0  0  0  0
    4.2622    5.0223   -1.7380 C   0  0  0  0  0  0  0  0  0  0  0  0
  1  8  2  3
  1 23  1  0
  1 24  1  0
  2  9  1  0
  2 25  1  0
  2 26  1  0
  3 10  1  0
  3 27  1  0
  3 28  1  0
  4  5  2  3
  4  6  1  0
  4  7  1  0
  5 11  1  0
  5 12  1  0
  6 13  2  0
  6 15  1  0
  7 14  2  0
  7 16  1  0
  8 17  1  0
  8 18  1  0
  9 19  2  0
  9 21  1  0
 10 20  2  0
 10 22  1  0
 11 17  2  0
 12 18  2  0
 13 19  1  0
 14 20  1  0
 15 21  2  0
 16 22  2  0
 23 29  1  0
 24 30  1  0
 25 31  1  0
 26 32  1  0
 27 33  1  0
 28 34  1  0
M  CHG  1   1   1
M  END
>  <PUBCHEM_COMPOUND_CID>  (1) 
16956

>  <PUBCHEM_CONFORMER_RMSD>  (1) 
1

>  <PUBCHEM_CONFORMER_DIVERSEORDER>  (1) 
2
3
1
4

>  <PUBCHEM_MMFF94_PARTIAL_CHARGES>  (1) 
39
1 -0.09
10 0.1
11 -0.15
12 -0.15
13 -0.15
14 -0.15
15 -0.15
16 -0.15
17 -0.14
18 -0.14
19 -0.15
2 -0.84
20 -0.15
21 -0.15
22 -0.15
23 0.35
24 0.35
25 0.37
26 0.37
27 0.37
28 0.37
3 -0.84
35 0.15
36 0.15
37 0.15
38 0.15
39 0.15
4 -0.06
40 0.15
41 0.15
42 0.15
43 0.15
44 0.15
45 0.15
46 0.15
6 0.03
7 0.03
8 0.37
9 0.1

>  <PUBCHEM_EFFECTIVE_ROTOR_COUNT>  (1) 
10

>  <PUBCHEM_PHARMACOPHORE_FEATURES>  (1) 
5
1 2 cation
1 3 cation
6 5 8 11 12 17 18 rings
6 6 9 13 15 19 21 rings
6 7 10 14 16 20 22 rings

>  <PUBCHEM_HEAVY_ATOM_COUNT>  (1) 
34

>  <PUBCHEM_ATOM_DEF_STEREO_COUNT>  (1) 
0

>  <PUBCHEM_ATOM_UDEF_STEREO_COUNT>  (1) 
0

>  <PUBCHEM_BOND_DEF_STEREO_COUNT>  (1) 
0

>  <PUBCHEM_BOND_UDEF_STEREO_COUNT>  (1) 
0

>  <PUBCHEM_ISOTOPIC_ATOM_COUNT>  (1) 
0

>  <PUBCHEM_COMPONENT_COUNT>  (1) 
1

>  <PUBCHEM_CACTVS_TAUTO_COUNT>  (1) 
1

>  <PUBCHEM_CONFORMER_ID>  (1) 
0000423C00000002

>  <PUBCHEM_MMFF94_ENERGY>  (1) 
139.0924

>  <PUBCHEM_FEATURE_SELFOVERLAP>  (1) 
25.373

>  <PUBCHEM_SHAPE_FINGERPRINT>  (1) 
10074138 170 17331950033256006369
10169797 241 17968959585949168539
10290309 65 18265899240985043011
10319688 45 17762340206421830555
10721379 63 18341066141873519205
11056379 131 17258785819420044238
11062273 23 17112419913866770345
11445158 3 18043504275130083260
11763715 3 17833860195235503790
11991303 11 17688036726582396204
12758862 56 18047192948069165923
12788726 201 17469332430825979947
131258 43 18056774134684084182
13540713 4 18113900460512911253
13757389 114 17398681580353455005
13955234 65 18411146857086085427
14394314 77 18048313345764563267
15131766 46 15476981236421192954
15198563 99 17618505385015336892
15200665 1 17471303219244875497
15927050 60 17907299106848576774
18393751 57 17905329877518530161
19319366 153 18199466752492673797
20238998 120 18123461683523778048
20505436 4 17391064103725118664
21033648 29 17909555300150783025
21120745 212 17762918571166085406
21304303 282 17693921295686781229
21796203 349 17907056960961827531
22311459 1 18411138034637599232
23559900 14 18336259030303646339
23929065 36 17256507640180646442
24771750 20 18263655115602877884
249057 25 17103990019244277686
255183 313 17402910306495404099
3388396 114 17977416879260773382
3418910 222 18120662327985765654
3627633 1 17761773962075434341
4046055 4 17691687792428307069
4058900 60 18266189503175483681
4461854 278 17400102145562181211
508180 173 17755577141208748677
5219985 13 18122341556523116349
563151 97 18051677035432886983
6058803 2 18202845457762887703
6673363 416 18053396405806581990
6679774 75 18189885591241748578
6691757 9 17692506215843687960
6695519 79 17980224172800909331
6697151 62 18193539088071180063
6700243 42 17123695466188341566
77188 2 18195525883326765741
9658208 31 17765999789073280488
9981440 41 18119808273274219889

>  <PUBCHEM_SHAPE_MULTIPOLES>  (1) 
684.76
12.13
11.82
1.65
28.43
0.91
0
-0.92
0.03
-29.15
-0.02
-1.81
0.02
1.38

>  <PUBCHEM_SHAPE_SELFOVERLAP>  (1) 
1434.787

>  <PUBCHEM_SHAPE_VOLUME>  (1) 
385.4

>  <PUBCHEM_COORDINATE_TYPE>  (1) 
2
5
10

$$$$
