16960
     RDKit          3D

 19 20  0  0  1  0  0  0  0  0999 V2000
    5.8682    0.2521   -0.1514 Br  0  0  0  0  0  0  0  0  0  0  0  0
   -2.8348    1.9868   -0.2824 N   0  0  0  0  0  0  0  0  0  0  0  0
   -0.6193   -1.6812    1.0494 N   0  0  0  0  0  0  0  0  0  0  0  0
   -0.2988    0.4473   -0.0603 C   0  0  0  0  0  0  0  0  0  0  0  0
   -0.8619    1.3790    1.0449 C   0  0  0  0  0  0  0  0  0  0  0  0
   -2.3916    1.4742    1.0098 C   0  0  0  0  0  0  0  0  0  0  0  0
    1.2261    0.3991   -0.0840 C   0  0  0  0  0  0  0  0  0  0  0  0
   -0.8946   -0.9547   -0.0403 C   0  0  0  0  0  0  0  0  0  0  0  0
    1.8644    0.1728   -1.2839 C   0  0  0  0  0  0  0  0  0  0  0  0
    1.9122    0.5835    1.0966 C   0  0  0  0  0  0  0  0  0  0  0  0
   -1.6478   -1.3538   -1.1139 C   0  0  0  0  0  0  0  0  0  0  0  0
   -2.3141    3.3361   -0.5068 C   0  0  0  0  0  0  0  0  0  0  0  0
   -4.2962    1.9861   -0.3626 C   0  0  0  0  0  0  0  0  0  0  0  0
    3.2585    0.1288   -1.3041 C   0  0  0  0  0  0  0  0  0  0  0  0
    3.3063    0.5397    1.0762 C   0  0  0  0  0  0  0  0  0  0  0  0
   -2.1771   -2.6386   -1.0647 C   0  0  0  0  0  0  0  0  0  0  0  0
    3.9794    0.3123   -0.1242 C   0  0  0  0  0  0  0  0  0  0  0  0
   -1.1505   -2.9243    1.0616 C   0  0  0  0  0  0  0  0  0  0  0  0
   -1.9285   -3.4453    0.0402 C   0  0  0  0  0  0  0  0  0  0  0  0
  1 17  1  0
  2  6  1  0
  2 12  1  0
  2 13  1  0
  3  8  2  0
  3 18  1  0
  4  5  1  0
  4  7  1  0
  4  8  1  0
  5  6  1  0
  7  9  2  0
  7 10  1  0
  8 11  1  0
  9 14  1  0
 10 15  2  0
 11 16  2  0
 14 17  2  0
 15 17  1  0
 16 19  1  0
 18 19  2  0
M  END
>  <PUBCHEM_COMPOUND_CID>  (1) 
16960

>  <PUBCHEM_CONFORMER_RMSD>  (1) 
0.6

>  <PUBCHEM_CONFORMER_DIVERSEORDER>  (1) 
2
40
31
38
19
32
39
23
25
35
37
12
30
36
22
26
34
10
17
20
5
28
24
14
16
21
15
13
4
27
29
6
3
33
9
7
1
18
11
8

>  <PUBCHEM_MMFF94_PARTIAL_CHARGES>  (1) 
26
1 -0.11
10 -0.15
11 -0.15
12 0.27
13 0.27
14 -0.15
15 -0.15
16 -0.15
17 0.11
18 0.16
19 -0.15
2 -0.81
25 0.15
26 0.15
27 0.15
3 -0.62
34 0.15
35 0.15
36 0.15
37 0.15
38 0.15
4 0.29
6 0.27
7 -0.14
8 0.17
9 -0.15

>  <PUBCHEM_EFFECTIVE_ROTOR_COUNT>  (1) 
5

>  <PUBCHEM_PHARMACOPHORE_FEATURES>  (1) 
5
1 1 hydrophobe
1 2 cation
1 3 acceptor
6 3 8 11 16 18 19 rings
6 7 9 10 14 15 17 rings

>  <PUBCHEM_HEAVY_ATOM_COUNT>  (1) 
19

>  <PUBCHEM_ATOM_DEF_STEREO_COUNT>  (1) 
1

>  <PUBCHEM_ATOM_UDEF_STEREO_COUNT>  (1) 
0

>  <PUBCHEM_BOND_DEF_STEREO_COUNT>  (1) 
0

>  <PUBCHEM_BOND_UDEF_STEREO_COUNT>  (1) 
0

>  <PUBCHEM_ISOTOPIC_ATOM_COUNT>  (1) 
0

>  <PUBCHEM_COMPONENT_COUNT>  (1) 
1

>  <PUBCHEM_CACTVS_TAUTO_COUNT>  (1) 
2

>  <PUBCHEM_CONFORMER_ID>  (1) 
0000424000000002

>  <PUBCHEM_MMFF94_ENERGY>  (1) 
52.9598

>  <PUBCHEM_FEATURE_SELFOVERLAP>  (1) 
25.371

>  <PUBCHEM_SHAPE_FINGERPRINT>  (1) 
11578080 2 16198443572187209483
11582403 64 16118731010318694168
12138202 97 18272935994479255756
121448 382 18271241625844706557
12346177 29 18341614832503635366
12363563 72 17980481483727680846
12500047 106 18411418380586628160
12532896 13 18339643339203447687
12714826 92 18058188274219703758
12730499 353 17979362954623236057
12788726 201 18117574026580325231
13052359 8 18408885144371901171
13149001 5 18130215043014247681
13681431 1 17403455668435953979
13899415 180 17695605730521605687
14178000 22 18336824178325878916
15885798 251 18051419757901599099
15906896 17 18187656816188372451
16752209 62 18336537309144557731
16945 1 18337952393452033647
17357779 13 17844232141880777439
17539 30 18269829973099717935
20197701 30 18264487274201240677
20361792 2 17838907279644617222
20567600 347 18265337192832374385
20645476 183 18334016060009194457
20681677 76 17774151435690896552
20711985 344 18337386161990663011
21033648 29 18339913802096028304
21524375 3 18266743480667332105
22224240 67 18270694082477170369
23402539 116 18342168964652107317
23419403 2 13899616529268912791
23557571 272 18272091651544106852
23558518 356 18043536225244248008
23559900 14 18130795508777283422
23598288 3 17897187877164267555
298252 57 18188776037157520697
3759504 43 18261678090690741553
53917941 68 18335969917978551100
559249 180 18338232670697572530
58779409 54 18271803557468573918
59755656 520 18337947887793905357
633830 44 17628647353348345465
7364860 26 17547286701565359241
7615 1 17968951927879385180
81228 2 18268996556207500451
81539 233 18045217138115660117

>  <PUBCHEM_SHAPE_MULTIPOLES>  (1) 
386.99
8.07
3.57
1.29
11.29
1.47
0
-3.19
1.11
-6.25
0.01
0.17
0.18
0.17

>  <PUBCHEM_SHAPE_SELFOVERLAP>  (1) 
796.638

>  <PUBCHEM_SHAPE_VOLUME>  (1) 
228.1

>  <PUBCHEM_COORDINATE_TYPE>  (1) 
2
5
10

$$$$
