16965
     RDKit          3D

 16 18  0  0  0  0  0  0  0  0999 V2000
   -0.0002    2.3520    0.3674 O   0  0  0  0  0  0  0  0  0  0  0  0
   -1.2250    0.3085    0.1176 C   0  0  0  0  0  0  0  0  0  0  0  0
    1.2251    0.3086    0.1177 C   0  0  0  0  0  0  0  0  0  0  0  0
   -1.2250   -1.0932   -0.0536 C   0  0  0  0  0  0  0  0  0  0  0  0
    1.2252   -1.0931   -0.0537 C   0  0  0  0  0  0  0  0  0  0  0  0
    0.0000    0.9911    0.2010 C   0  0  0  0  0  0  0  0  0  0  0  0
    0.0001   -1.7758   -0.1371 C   0  0  0  0  0  0  0  0  0  0  0  0
   -2.4506    0.9902    0.2009 C   0  0  0  0  0  0  0  0  0  0  0  0
    2.4505    0.9904    0.2011 C   0  0  0  0  0  0  0  0  0  0  0  0
   -2.4504   -1.7751   -0.1367 C   0  0  0  0  0  0  0  0  0  0  0  0
    2.4506   -1.7749   -0.1371 C   0  0  0  0  0  0  0  0  0  0  0  0
   -3.6587    0.2980    0.1164 C   0  0  0  0  0  0  0  0  0  0  0  0
    3.6587    0.2982    0.1166 C   0  0  0  0  0  0  0  0  0  0  0  0
   -3.6587   -1.0830   -0.0521 C   0  0  0  0  0  0  0  0  0  0  0  0
    3.6588   -1.0827   -0.0523 C   0  0  0  0  0  0  0  0  0  0  0  0
   -0.0004    3.1408   -0.8160 C   0  0  0  0  0  0  0  0  0  0  0  0
  1  6  1  0
  1 16  1  0
  2  4  1  0
  2  6  2  0
  2  8  1  0
  3  5  2  0
  3  6  1  0
  3  9  1  0
  4  7  2  0
  4 10  1  0
  5  7  1  0
  5 11  1  0
  8 12  2  0
  9 13  2  0
 10 14  2  0
 11 15  2  0
 12 14  1  0
 13 15  1  0
M  END
>  <PUBCHEM_COMPOUND_CID>  (1) 
16965

>  <PUBCHEM_CONFORMER_RMSD>  (1) 
0.6

>  <PUBCHEM_CONFORMER_DIVERSEORDER>  (1) 
1

>  <PUBCHEM_MMFF94_PARTIAL_CHARGES>  (1) 
21
1 -0.36
10 -0.15
11 -0.15
12 -0.15
13 -0.15
14 -0.15
15 -0.15
16 0.28
17 0.15
18 0.15
19 0.15
20 0.15
21 0.15
22 0.15
23 0.15
24 0.15
25 0.15
6 0.08
7 -0.15
8 -0.15
9 -0.15

>  <PUBCHEM_EFFECTIVE_ROTOR_COUNT>  (1) 
1

>  <PUBCHEM_PHARMACOPHORE_FEATURES>  (1) 
4
1 1 acceptor
6 2 3 4 5 6 7 rings
6 2 4 8 10 12 14 rings
6 3 5 9 11 13 15 rings

>  <PUBCHEM_HEAVY_ATOM_COUNT>  (1) 
16

>  <PUBCHEM_ATOM_DEF_STEREO_COUNT>  (1) 
0

>  <PUBCHEM_ATOM_UDEF_STEREO_COUNT>  (1) 
0

>  <PUBCHEM_BOND_DEF_STEREO_COUNT>  (1) 
0

>  <PUBCHEM_BOND_UDEF_STEREO_COUNT>  (1) 
0

>  <PUBCHEM_ISOTOPIC_ATOM_COUNT>  (1) 
0

>  <PUBCHEM_COMPONENT_COUNT>  (1) 
1

>  <PUBCHEM_CACTVS_TAUTO_COUNT>  (1) 
1

>  <PUBCHEM_CONFORMER_ID>  (1) 
0000424500000001

>  <PUBCHEM_MMFF94_ENERGY>  (1) 
63.1629

>  <PUBCHEM_FEATURE_SELFOVERLAP>  (1) 
20.349

>  <PUBCHEM_SHAPE_FINGERPRINT>  (1) 
10608611 8 18412822482145932824
10967382 1 18339360880526310330
11132069 177 18342733001232033466
11471102 20 18411976970605035655
11680986 33 18122343746554783209
11806522 49 18341045341283679079
12032990 46 18411423911956139123
12382932 28 18413389817255688714
13132413 78 18412266172291345405
13140716 1 18411700941620560843
13221675 6 18411981355761467466
14144814 61 18412826893177767547
15196674 1 18412544309988640155
15442244 35 18413110532759687283
15536298 74 18273215309330094026
16945 1 17988925569550542410
193761 8 17690280408865381851
19591789 44 15822152828508943002
19868273 325 18408885135291193725
200 152 17917419956895203807
20510252 161 18199746947279019288
20511035 2 17840305845613056150
20588541 1 18341614784868702370
21029758 11 18342731927822616097
21029758 27 18334305296144692341
21267235 1 18412272739212133063
21501502 16 18268151950883467066
221490 88 18047756180931388875
2334 1 18411699919423579738
23402539 116 18342447136735644190
23419403 2 15041800156011039535
23463225 33 18410575084826732654
23559900 14 18270114596736037458
2748010 2 18412542110970633423
3071541 158 18334573598451671981
335352 9 18051976913532194390
34934 24 18410565180516207515
5104073 3 18412825784981344922
528886 8 18412821382671377834
537710 114 18410581707618921372
53812653 166 18272646895924922000
6992083 37 18341627983709567097
7364860 26 18124595542052817673
81228 2 18265065630102366336
8809292 202 18334862718306853579
90316 7 18189318118123391384
9709674 26 18413394249815575014

>  <PUBCHEM_SHAPE_MULTIPOLES>  (1) 
323.4
5.93
2.6
0.67
0
1.59
-0.03
-1.87
0.19
0
-0.46
0
0.13
0

>  <PUBCHEM_SHAPE_SELFOVERLAP>  (1) 
727.08

>  <PUBCHEM_SHAPE_VOLUME>  (1) 
172.1

>  <PUBCHEM_COORDINATE_TYPE>  (1) 
2
5
10

$$$$
