16970
     RDKit          3D

 10  9  0  0  0  0  0  0  0  0999 V2000
    2.1992   -0.4551    0.0005 O   0  0  0  0  0  0  0  0  0  0  0  0
    1.2422    1.6477   -0.0004 O   0  0  0  0  0  0  0  0  0  0  0  0
    3.5069    0.1273   -0.0008 C   0  0  0  0  0  0  0  0  0  0  0  0
    4.5397   -0.9795   -0.0007 C   0  0  0  0  0  0  0  0  0  0  0  0
    1.1656    0.4293    0.0005 C   0  0  0  0  0  0  0  0  0  0  0  0
   -0.0913   -0.3511    0.0013 C   0  0  0  0  0  0  0  0  0  0  0  0
   -1.2704    0.2853    0.0007 C   0  0  0  0  0  0  0  0  0  0  0  0
   -2.5359   -0.4151    0.0003 C   0  0  0  0  0  0  0  0  0  0  0  0
   -3.7215    0.2115   -0.0002 C   0  0  0  0  0  0  0  0  0  0  0  0
   -5.0345   -0.5003   -0.0012 C   0  0  0  0  0  0  0  0  0  0  0  0
  1  3  1  0
  1  5  1  0
  2  5  2  0
  3  4  1  0
  5  6  1  0
  6  7  2  0
  7  8  1  0
  8  9  2  0
  9 10  1  0
M  END
>  <PUBCHEM_COMPOUND_CID>  (1) 
16970

>  <PUBCHEM_CONFORMER_RMSD>  (1) 
0.6

>  <PUBCHEM_CONFORMER_DIVERSEORDER>  (1) 
1
17
12
15
4
5
14
16
18
3
13
2
9
10
8
6
11
7

>  <PUBCHEM_MMFF94_PARTIAL_CHARGES>  (1) 
13
1 -0.43
10 0.14
16 0.15
17 0.15
18 0.15
19 0.15
2 -0.57
3 0.28
5 0.71
6 -0.14
7 -0.15
8 -0.15
9 -0.29

>  <PUBCHEM_EFFECTIVE_ROTOR_COUNT>  (1) 
4

>  <PUBCHEM_PHARMACOPHORE_FEATURES>  (1) 
2
1 10 hydrophobe
1 2 acceptor

>  <PUBCHEM_HEAVY_ATOM_COUNT>  (1) 
10

>  <PUBCHEM_ATOM_DEF_STEREO_COUNT>  (1) 
0

>  <PUBCHEM_ATOM_UDEF_STEREO_COUNT>  (1) 
0

>  <PUBCHEM_BOND_DEF_STEREO_COUNT>  (1) 
0

>  <PUBCHEM_BOND_UDEF_STEREO_COUNT>  (1) 
2

>  <PUBCHEM_ISOTOPIC_ATOM_COUNT>  (1) 
0

>  <PUBCHEM_COMPONENT_COUNT>  (1) 
1

>  <PUBCHEM_CACTVS_TAUTO_COUNT>  (1) 
1

>  <PUBCHEM_CONFORMER_ID>  (1) 
0000424A00000001

>  <PUBCHEM_MMFF94_ENERGY>  (1) 
8.4602

>  <PUBCHEM_FEATURE_SELFOVERLAP>  (1) 
10.148

>  <PUBCHEM_SHAPE_FINGERPRINT>  (1) 
10219947 1 18202567276276967934
11062470 55 12103846761042870967
12932764 1 16950827207120905091
13690532 89 18412262826443093867
14123238 8 18060700602127458471
14252887 29 18060145306127940830
14325111 11 18338797922441766881
15242439 84 17894908542943014471
17834072 33 18339924925717445908
17834076 25 15554448509286973530
20645477 70 18408886209497748142
20719005 15 18410855455838573186
21293036 1 13406795523242167998
22485316 2 18334855026215306226
23402539 116 17704066283956117173
42 15 17988926665004644515
42788 4 18410575084668379655

>  <PUBCHEM_SHAPE_MULTIPOLES>  (1) 
194.06
9.72
1.01
0.6
2.55
0.24
0
-2.86
0.01
-0.55
0
0.03
-0.01
0

>  <PUBCHEM_SHAPE_SELFOVERLAP>  (1) 
362.042

>  <PUBCHEM_SHAPE_VOLUME>  (1) 
121.4

>  <PUBCHEM_COORDINATE_TYPE>  (1) 
2
5
10

$$$$
