16971
     RDKit          3D

  9  9  0  0  0  0  0  0  0  0999 V2000
    3.2191   -1.1688   -0.0011 Br  0  0  0  0  0  0  0  0  0  0  0  0
   -2.0176   -1.0199    0.0000 O   0  0  0  0  0  0  0  0  0  0  0  0
   -0.8538   -0.3143   -0.0002 C   0  0  0  0  0  0  0  0  0  0  0  0
    0.3694   -0.9847    0.0007 C   0  0  0  0  0  0  0  0  0  0  0  0
   -0.8848    1.0802   -0.0007 C   0  0  0  0  0  0  0  0  0  0  0  0
    1.5615   -0.2606    0.0010 C   0  0  0  0  0  0  0  0  0  0  0  0
    0.3073    1.8044   -0.0002 C   0  0  0  0  0  0  0  0  0  0  0  0
    1.5305    1.1339    0.0005 C   0  0  0  0  0  0  0  0  0  0  0  0
   -3.2316   -0.2702   -0.0001 C   0  0  0  0  0  0  0  0  0  0  0  0
  1  6  1  0
  2  3  1  0
  2  9  1  0
  3  4  2  0
  3  5  1  0
  4  6  1  0
  5  7  2  0
  6  8  2  0
  7  8  1  0
M  END
>  <PUBCHEM_COMPOUND_CID>  (1) 
16971

>  <PUBCHEM_CONFORMER_RMSD>  (1) 
0.4

>  <PUBCHEM_CONFORMER_DIVERSEORDER>  (1) 
1
2

>  <PUBCHEM_MMFF94_PARTIAL_CHARGES>  (1) 
13
1 -0.11
10 0.15
11 0.15
12 0.15
13 0.15
2 -0.36
3 0.08
4 -0.15
5 -0.15
6 0.11
7 -0.15
8 -0.15
9 0.28

>  <PUBCHEM_EFFECTIVE_ROTOR_COUNT>  (1) 
1

>  <PUBCHEM_PHARMACOPHORE_FEATURES>  (1) 
3
1 1 hydrophobe
1 2 acceptor
6 3 4 5 6 7 8 rings

>  <PUBCHEM_HEAVY_ATOM_COUNT>  (1) 
9

>  <PUBCHEM_ATOM_DEF_STEREO_COUNT>  (1) 
0

>  <PUBCHEM_ATOM_UDEF_STEREO_COUNT>  (1) 
0

>  <PUBCHEM_BOND_DEF_STEREO_COUNT>  (1) 
0

>  <PUBCHEM_BOND_UDEF_STEREO_COUNT>  (1) 
0

>  <PUBCHEM_ISOTOPIC_ATOM_COUNT>  (1) 
0

>  <PUBCHEM_COMPONENT_COUNT>  (1) 
1

>  <PUBCHEM_CACTVS_TAUTO_COUNT>  (1) 
1

>  <PUBCHEM_CONFORMER_ID>  (1) 
0000424B00000001

>  <PUBCHEM_MMFF94_ENERGY>  (1) 
28.607

>  <PUBCHEM_FEATURE_SELFOVERLAP>  (1) 
15.223

>  <PUBCHEM_SHAPE_FINGERPRINT>  (1) 
10857977 72 18341036433573988538
12032990 46 18410299090065021242
14128692 85 18410016533104328460
16945 1 18193839468597141408
20871998 184 18057598768388604470
20871998 22 18271253707371510510
21040471 1 17762056940222392993
23552423 10 18260271832683191054
241688 4 18337110064423880872
2748010 2 18410283701365965900
29004967 10 18263363744973992057
5084963 1 18343864402928613762

>  <PUBCHEM_SHAPE_MULTIPOLES>  (1) 
185.29
4.3
1.66
0.62
0.14
0.61
0
-2.09
0
-0.26
0
-0.07
0
0

>  <PUBCHEM_SHAPE_SELFOVERLAP>  (1) 
366.023

>  <PUBCHEM_SHAPE_VOLUME>  (1) 
114.8

>  <PUBCHEM_COORDINATE_TYPE>  (1) 
2
5
10

$$$$
