16985
     RDKit          3D

 11 11  0  0  0  0  0  0  0  0999 V2000
    2.1053    2.6011   -0.0033 Cl  0  0  0  0  0  0  0  0  0  0  0  0
    2.1051   -2.6012    0.0009 Cl  0  0  0  0  0  0  0  0  0  0  0  0
   -2.1044    0.0000    0.0035 N   0  0  0  0  0  0  0  0  0  0  0  0
   -0.0897   -1.1998    0.0024 N   0  0  0  0  0  0  0  0  0  0  0  0
   -0.0896    1.1998    0.0006 N   0  0  0  0  0  0  0  0  0  0  0  0
    1.9885    0.0000   -0.0006 N   0  0  0  0  0  0  0  0  0  0  0  0
   -0.7095    0.0000    0.0022 C   0  0  0  0  0  0  0  0  0  0  0  0
   -2.8538    1.2498    0.0033 C   0  0  0  0  0  0  0  0  0  0  0  0
   -2.8538   -1.2498   -0.0088 C   0  0  0  0  0  0  0  0  0  0  0  0
    1.2509    1.1221   -0.0009 C   0  0  0  0  0  0  0  0  0  0  0  0
    1.2509   -1.1221    0.0008 C   0  0  0  0  0  0  0  0  0  0  0  0
  1 10  1  0
  2 11  1  0
  3  7  1  0
  3  8  1  0
  3  9  1  0
  4  7  2  0
  4 11  1  0
  5  7  1  0
  5 10  2  0
  6 10  1  0
  6 11  2  0
M  END
>  <PUBCHEM_COMPOUND_CID>  (1) 
16985

>  <PUBCHEM_CONFORMER_RMSD>  (1) 
0.4

>  <PUBCHEM_CONFORMER_DIVERSEORDER>  (1) 
1
2
3

>  <PUBCHEM_MMFF94_PARTIAL_CHARGES>  (1) 
11
1 -0.18
10 0.8
11 0.8
2 -0.18
3 -0.84
4 -0.62
5 -0.62
6 -0.62
7 0.72
8 0.37
9 0.37

>  <PUBCHEM_EFFECTIVE_ROTOR_COUNT>  (1) 
1

>  <PUBCHEM_PHARMACOPHORE_FEATURES>  (1) 
2
4 3 4 5 7 cation
6 4 5 6 7 10 11 rings

>  <PUBCHEM_HEAVY_ATOM_COUNT>  (1) 
11

>  <PUBCHEM_ATOM_DEF_STEREO_COUNT>  (1) 
0

>  <PUBCHEM_ATOM_UDEF_STEREO_COUNT>  (1) 
0

>  <PUBCHEM_BOND_DEF_STEREO_COUNT>  (1) 
0

>  <PUBCHEM_BOND_UDEF_STEREO_COUNT>  (1) 
0

>  <PUBCHEM_ISOTOPIC_ATOM_COUNT>  (1) 
0

>  <PUBCHEM_COMPONENT_COUNT>  (1) 
1

>  <PUBCHEM_CACTVS_TAUTO_COUNT>  (1) 
1

>  <PUBCHEM_CONFORMER_ID>  (1) 
0000425900000001

>  <PUBCHEM_MMFF94_ENERGY>  (1) 
29.5788

>  <PUBCHEM_FEATURE_SELFOVERLAP>  (1) 
10.148

>  <PUBCHEM_SHAPE_FINGERPRINT>  (1) 
1 1 18338799038922319476
13380535 76 18120088644032657402
14325111 11 18266459986966535841
14648413 74 18408886209275805897
16945 1 18410575088958046214
17990270 104 18410009909985507971
19021347 11 18338233894082425622
193761 8 18410573985241121923
19973954 147 18410575076453127865
20645477 70 18410003369441653159
20711985 344 17263587408383790614
21040471 1 18050568748675468516
21501502 16 18411419514399835617
21524375 3 17983296216372563596
23526114 1 18411139134249447518
23552423 10 18410294722272860535
241688 4 17906172854437554352
2748010 2 18409167740018422157
7364860 26 18413388739477262592
81228 2 17475803048196525290

>  <PUBCHEM_SHAPE_MULTIPOLES>  (1) 
210.19
4.11
2.8
0.59
2.73
0
0
0
0
-2.38
0
-0.02
0
-0.01

>  <PUBCHEM_SHAPE_SELFOVERLAP>  (1) 
408.374

>  <PUBCHEM_SHAPE_VOLUME>  (1) 
125.2

>  <PUBCHEM_COORDINATE_TYPE>  (1) 
2
5
10

$$$$
