16984
     RDKit          3D

 11 12  0  0  0  0  0  0  0  0999 V2000
   -1.5295   -1.5970    0.0004 S   0  0  0  0  0  0  0  0  0  0  0  0
   -2.2855    0.9847   -0.0003 N   0  0  0  0  0  0  0  0  0  0  0  0
    0.0649   -2.0435    0.0002 N   0  0  0  0  0  0  0  0  0  0  0  0
    0.0920    0.2987    0.0006 C   0  0  0  0  0  0  0  0  0  0  0  0
    0.8508   -0.9584    0.0000 C   0  0  0  0  0  0  0  0  0  0  0  0
   -1.2657    0.0913    0.0011 C   0  0  0  0  0  0  0  0  0  0  0  0
    0.6400    1.5821    0.0008 C   0  0  0  0  0  0  0  0  0  0  0  0
    2.2641   -0.9232   -0.0009 C   0  0  0  0  0  0  0  0  0  0  0  0
    2.0472    1.5649    0.0001 C   0  0  0  0  0  0  0  0  0  0  0  0
    2.8237    0.3709   -0.0009 C   0  0  0  0  0  0  0  0  0  0  0  0
   -3.7022    0.6293   -0.0013 C   0  0  0  0  0  0  0  0  0  0  0  0
  1  3  1  0
  1  6  1  0
  2  6  1  0
  2 11  1  0
  3  5  2  0
  4  5  1  0
  4  6  2  0
  4  7  1  0
  5  8  1  0
  7  9  2  0
  8 10  2  0
  9 10  1  0
M  END
>  <PUBCHEM_COMPOUND_CID>  (1) 
16984

>  <PUBCHEM_CONFORMER_RMSD>  (1) 
0.4

>  <PUBCHEM_CONFORMER_DIVERSEORDER>  (1) 
1
2
3

>  <PUBCHEM_MMFF94_PARTIAL_CHARGES>  (1) 
15
1 0.18
10 -0.15
11 0.37
12 0.15
13 0.15
14 0.4
15 0.15
16 0.15
2 -0.85
3 -0.51
5 0.29
6 0.12
7 -0.15
8 -0.15
9 -0.15

>  <PUBCHEM_EFFECTIVE_ROTOR_COUNT>  (1) 
1

>  <PUBCHEM_PHARMACOPHORE_FEATURES>  (1) 
5
1 2 cation
1 2 donor
1 3 acceptor
5 1 3 4 5 6 rings
6 4 5 7 8 9 10 rings

>  <PUBCHEM_HEAVY_ATOM_COUNT>  (1) 
11

>  <PUBCHEM_ATOM_DEF_STEREO_COUNT>  (1) 
0

>  <PUBCHEM_ATOM_UDEF_STEREO_COUNT>  (1) 
0

>  <PUBCHEM_BOND_DEF_STEREO_COUNT>  (1) 
0

>  <PUBCHEM_BOND_UDEF_STEREO_COUNT>  (1) 
0

>  <PUBCHEM_ISOTOPIC_ATOM_COUNT>  (1) 
0

>  <PUBCHEM_COMPONENT_COUNT>  (1) 
1

>  <PUBCHEM_CACTVS_TAUTO_COUNT>  (1) 
3

>  <PUBCHEM_CONFORMER_ID>  (1) 
0000425800000001

>  <PUBCHEM_MMFF94_ENERGY>  (1) 
31.4327

>  <PUBCHEM_FEATURE_SELFOVERLAP>  (1) 
25.47

>  <PUBCHEM_SHAPE_FINGERPRINT>  (1) 
10219947 1 18336549322072937473
11206711 2 18122909986379326366
11471102 20 18338511933391404117
12423570 1 17556843742180010422
13380535 21 18337123365726274895
13380535 76 18410853278533020079
14251717 144 18339354180878332781
14325111 11 18410574006969360869
14897335 6 18340480161957141085
14911166 2 18339933627658713414
15775835 57 18335425689718929692
16945 1 18338798918404700642
193761 8 17978510059183347364
19973954 147 18265898153635675964
21040471 1 18338517559650686752
21501502 16 18337669848801554566
23235685 24 18411975858192642657
23402655 69 18341884161624349021
23552423 10 18189334752547143470
23559900 14 18342750633154296476
241688 4 17259066194963663826
2748010 2 18338802324392985222
5084963 1 18057611068937524226
528886 8 18411132537206119520
53812653 166 18341889723147898840
63268167 104 18412830152957575585

>  <PUBCHEM_SHAPE_MULTIPOLES>  (1) 
220.26
4.4
1.94
0.61
2.21
0.4
0
-1.32
0
-0.06
0
0
0.01
0

>  <PUBCHEM_SHAPE_SELFOVERLAP>  (1) 
460.429

>  <PUBCHEM_SHAPE_VOLUME>  (1) 
127.2

>  <PUBCHEM_COORDINATE_TYPE>  (1) 
2
5
10

$$$$
