1700
     RDKit          3D

 22 23  0  0  0  0  0  0  0  0999 V2000
   -5.3868    0.7500   -0.2998 S   0  0  0  0  0  0  0  0  0  0  0  0
    3.6195    1.5342    1.6181 F   0  0  0  0  0  0  0  0  0  0  0  0
    5.2218    2.4952   -0.3675 F   0  0  0  0  0  0  0  0  0  0  0  0
    0.4506   -2.5363    0.0373 O   0  0  0  0  0  0  0  0  0  0  0  0
   -6.1366   -0.1915   -1.1196 O   0  0  0  0  0  0  0  0  0  0  0  0
   -5.9155    1.1644    0.9923 O   0  0  0  0  0  0  0  0  0  0  0  0
    1.0301   -0.6363    1.2335 N   0  0  0  0  0  0  0  0  0  0  0  0
   -5.0528    2.1450   -1.2282 N   0  0  0  0  0  0  0  0  0  0  0  0
    2.4013   -1.0129    1.4923 C   0  0  0  0  0  0  0  0  0  0  0  0
   -1.2082   -0.9026    0.3162 C   0  0  0  0  0  0  0  0  0  0  0  0
   -3.7780    0.1148   -0.0629 C   0  0  0  0  0  0  0  0  0  0  0  0
    3.2822   -0.4783    0.4046 C   0  0  0  0  0  0  0  0  0  0  0  0
    0.1317   -1.4323    0.5135 C   0  0  0  0  0  0  0  0  0  0  0  0
   -1.9577   -1.2966   -0.7920 C   0  0  0  0  0  0  0  0  0  0  0  0
   -1.7436    0.0001    1.2351 C   0  0  0  0  0  0  0  0  0  0  0  0
   -3.2424   -0.7879   -0.9818 C   0  0  0  0  0  0  0  0  0  0  0  0
   -3.0285    0.5088    1.0456 C   0  0  0  0  0  0  0  0  0  0  0  0
    3.8513    0.7853    0.5308 C   0  0  0  0  0  0  0  0  0  0  0  0
    3.5256   -1.2524   -0.7257 C   0  0  0  0  0  0  0  0  0  0  0  0
    4.6715    1.2797   -0.4834 C   0  0  0  0  0  0  0  0  0  0  0  0
    4.3458   -0.7581   -1.7398 C   0  0  0  0  0  0  0  0  0  0  0  0
    4.9187    0.5079   -1.6187 C   0  0  0  0  0  0  0  0  0  0  0  0
  1  5  2  0
  1  6  2  0
  1  8  1  0
  1 11  1  0
  2 18  1  0
  3 20  1  0
  4 13  2  0
  7  9  1  0
  7 13  1  0
  9 12  1  0
 10 13  1  0
 10 14  2  0
 10 15  1  0
 11 16  2  0
 11 17  1  0
 12 18  2  0
 12 19  1  0
 14 16  1  0
 15 17  2  0
 18 20  1  0
 19 21  2  0
 20 22  2  0
 21 22  1  0
M  END
>  <PUBCHEM_COMPOUND_CID>  (1) 
1700

>  <PUBCHEM_CONFORMER_RMSD>  (1) 
0.8

>  <PUBCHEM_CONFORMER_DIVERSEORDER>  (1) 
1
37
42
35
46
27
43
28
45
23
14
13
17
41
40
15
32
5
29
47
34
21
44
24
6
31
33
9
20
25
30
26
8
4
36
39
22
38
12
2
7
19
18
16
10
11
3

>  <PUBCHEM_MMFF94_PARTIAL_CHARGES>  (1) 
32
1 1.45
10 0.09
11 -0.01
12 -0.14
13 0.54
14 -0.15
15 -0.15
16 -0.15
17 -0.15
18 0.19
19 -0.15
2 -0.19
20 0.19
21 -0.15
22 -0.15
25 0.37
26 0.15
27 0.15
28 0.15
29 0.15
3 -0.19
30 0.15
31 0.15
32 0.15
33 0.42
34 0.42
4 -0.57
5 -0.65
6 -0.65
7 -0.73
8 -0.98
9 0.44

>  <PUBCHEM_EFFECTIVE_ROTOR_COUNT>  (1) 
5

>  <PUBCHEM_PHARMACOPHORE_FEATURES>  (1) 
7
1 4 acceptor
1 5 acceptor
1 6 acceptor
1 7 donor
1 8 donor
6 10 11 14 15 16 17 rings
6 12 18 19 20 21 22 rings

>  <PUBCHEM_HEAVY_ATOM_COUNT>  (1) 
22

>  <PUBCHEM_ATOM_DEF_STEREO_COUNT>  (1) 
0

>  <PUBCHEM_ATOM_UDEF_STEREO_COUNT>  (1) 
0

>  <PUBCHEM_BOND_DEF_STEREO_COUNT>  (1) 
0

>  <PUBCHEM_BOND_UDEF_STEREO_COUNT>  (1) 
0

>  <PUBCHEM_ISOTOPIC_ATOM_COUNT>  (1) 
0

>  <PUBCHEM_COMPONENT_COUNT>  (1) 
1

>  <PUBCHEM_CACTVS_TAUTO_COUNT>  (1) 
2

>  <PUBCHEM_CONFORMER_ID>  (1) 
000006A400000001

>  <PUBCHEM_MMFF94_ENERGY>  (1) 
33.2844

>  <PUBCHEM_FEATURE_SELFOVERLAP>  (1) 
35.538

>  <PUBCHEM_SHAPE_FINGERPRINT>  (1) 
10319926 262 13624073280456441570
10378564 45 17775287110452447132
10498660 4 18409453608978739752
10670039 82 18188497865448588540
11128504 68 17989486320733915555
11796584 16 12895064094650879581
12363563 72 12463580577704823890
12596602 18 14490196007495614637
12616971 3 18187914058701441378
12633257 1 14634875283479657126
12670546 177 17704076191860067590
12892183 10 13262387860910530574
12954195 1 15625673695971837819
13782708 43 12750935764529304613
13955234 65 17677608666326167802
1420 369 10519989257462001172
14211702 104 10087336951509316677
14251740 57 9727635016516131028
14251751 18 12751225991973994445
14251764 75 16083084998476410452
14341114 176 13406787831641465190
14341114 328 14996290244650845724
14528608 73 18411979157096667727
15183329 4 15913335663118910467
15188451 53 9223235109092167405
15210252 30 18187369865561629532
15342168 16 18113336422640833158
15575132 122 18337955589382936541
15885798 251 9583519819370513635
17349148 13 11312057681625802517
17959699 21 18410852131808192777
1813 80 11167943567292407722
18222031 100 12391517490250457722
19377110 9 16009032830094821635
193927 3 12391520797264531734
19784866 240 11672066350071155899
1979834 28 12468637183951022705
20369508 70 14476955680015727586
20567600 234 15647062577181697511
20645477 70 13686292487541296666
21065199 12 12757418467294787878
22061861 79 14333124161554933313
22079108 93 17312828186451727843
221357 26 17632298951775670960
2215653 11 15770055017211240181
22289505 5 18272090504972422560
23559900 14 16988554732266886034
25122255 55 11095883795732369437
270888 7 17823422780914719148
2838139 119 18187077356111737076
3004659 81 17346323653020015150
312425 54 11025793180899364901
3472631 163 18262520415624511196
34797466 226 18342462543173445855
463206 1 13470396773541048517
465052 167 13110962054201885028
474 4 18334577957716694874
5104073 3 13551467013226762069
5374978 207 13262397756472937002
53794403 172 18193276527260846985
59682541 52 16630522882770443253
633830 44 18412259536625129166
7970288 3 11527682868542980572
960060 61 16487256577763666924
9841814 1 7997673342294522642

>  <PUBCHEM_SHAPE_MULTIPOLES>  (1) 
414.48
14.68
1.92
1.55
7.84
0.35
0.04
8.3
4.66
-1
0.15
-0.73
0.06
0.11

>  <PUBCHEM_SHAPE_SELFOVERLAP>  (1) 
877.367

>  <PUBCHEM_SHAPE_VOLUME>  (1) 
235.1

>  <PUBCHEM_COORDINATE_TYPE>  (1) 
2
5
10

$$$$
