17003
     RDKit          3D

 20 20  0  0  1  0  0  0  0  0999 V2000
    0.2270    0.3865    0.5255 O   0  0  0  0  0  0  0  0  0  0  0  0
   -0.2825    0.5396   -1.7497 O   0  0  0  0  0  0  0  0  0  0  0  0
    2.2329    2.2590    0.1459 O   0  0  0  0  0  0  0  0  0  0  0  0
    0.7801   -2.3046    0.1770 O   0  0  0  0  0  0  0  0  0  0  0  0
   -2.9479    0.1050   -0.5067 N   0  0  0  0  0  0  0  0  0  0  0  0
   -1.9564    1.0784   -0.0539 C   0  0  0  0  0  0  0  0  0  0  0  0
   -2.5976   -1.2371   -0.0418 C   0  0  0  0  0  0  0  0  0  0  0  0
   -4.2822    0.4760   -0.0357 C   0  0  0  0  0  0  0  0  0  0  0  0
   -2.3128    2.4611   -0.5819 C   0  0  0  0  0  0  0  0  0  0  0  0
   -0.5971    0.6425   -0.5709 C   0  0  0  0  0  0  0  0  0  0  0  0
   -3.5845   -2.2713   -0.5562 C   0  0  0  0  0  0  0  0  0  0  0  0
   -4.3502    0.4690    1.4821 C   0  0  0  0  0  0  0  0  0  0  0  0
    1.5111   -0.0246    0.1603 C   0  0  0  0  0  0  0  0  0  0  0  0
    2.4880    0.9311   -0.0200 C   0  0  0  0  0  0  0  0  0  0  0  0
    1.7554   -1.3711   -0.0053 C   0  0  0  0  0  0  0  0  0  0  0  0
    3.7706    0.5208   -0.3836 C   0  0  0  0  0  0  0  0  0  0  0  0
    3.0381   -1.7814   -0.3689 C   0  0  0  0  0  0  0  0  0  0  0  0
    4.0457   -0.8354   -0.5580 C   0  0  0  0  0  0  0  0  0  0  0  0
    2.4282    2.7984    1.4517 C   0  0  0  0  0  0  0  0  0  0  0  0
    0.6344   -2.8417    1.4901 C   0  0  0  0  0  0  0  0  0  0  0  0
  1 10  1  0
  1 13  1  0
  2 10  2  0
  3 14  1  0
  3 19  1  0
  4 15  1  0
  4 20  1  0
  5  6  1  0
  5  7  1  0
  5  8  1  0
  6  9  1  0
  6 10  1  0
  7 11  1  0
  8 12  1  0
 13 14  2  0
 13 15  1  0
 14 16  1  0
 15 17  2  0
 16 18  2  0
 17 18  1  0
M  END
>  <PUBCHEM_COMPOUND_CID>  (1) 
17003

>  <PUBCHEM_CONFORMER_RMSD>  (1) 
0.8

>  <PUBCHEM_CONFORMER_DIVERSEORDER>  (1) 
9
91
68
142
59
112
160
104
58
109
148
147
164
82
161
120
27
57
146
132
108
141
162
69
154
78
156
76
46
26
118
113
102
90
149
150
144
67
116
60
138
88
70
55
137
127
98
99
75
42
66
140
123
105
152
134
11
158
38
103
110
52
81
111
129
96
136
71
83
117
155
159
33
49
15
84
119
87
63
20
157
37
163
16
92
24
139
28
53
124
8
50
145
80
65
133
61
126
39
97
48
135
36
106
143
125
25
95
29
153
17
122
77
62
44
30
72
41
23
115
51
114
165
45
128
47
21
7
64
107
130
93
3
32
89
101
79
19
54
43
35
121
100
10
151
14
131
5
2
31
18
12
86
13
73
4
22
74
34
56
1
6
85
94
40

>  <PUBCHEM_MMFF94_PARTIAL_CHARGES>  (1) 
20
1 -0.23
10 0.66
13 0.08
14 0.08
15 0.08
16 -0.15
17 -0.15
18 -0.15
19 0.28
2 -0.57
20 0.28
3 -0.36
35 0.15
36 0.15
37 0.15
4 -0.36
5 -0.81
6 0.33
7 0.27
8 0.27

>  <PUBCHEM_EFFECTIVE_ROTOR_COUNT>  (1) 
8

>  <PUBCHEM_PHARMACOPHORE_FEATURES>  (1) 
5
1 2 acceptor
1 3 acceptor
1 4 acceptor
1 5 cation
6 13 14 15 16 17 18 rings

>  <PUBCHEM_HEAVY_ATOM_COUNT>  (1) 
20

>  <PUBCHEM_ATOM_DEF_STEREO_COUNT>  (1) 
0

>  <PUBCHEM_ATOM_UDEF_STEREO_COUNT>  (1) 
1

>  <PUBCHEM_BOND_DEF_STEREO_COUNT>  (1) 
0

>  <PUBCHEM_BOND_UDEF_STEREO_COUNT>  (1) 
0

>  <PUBCHEM_ISOTOPIC_ATOM_COUNT>  (1) 
0

>  <PUBCHEM_COMPONENT_COUNT>  (1) 
1

>  <PUBCHEM_CACTVS_TAUTO_COUNT>  (1) 
1

>  <PUBCHEM_CONFORMER_ID>  (1) 
0000426B00000009

>  <PUBCHEM_MMFF94_ENERGY>  (1) 
75.147

>  <PUBCHEM_FEATURE_SELFOVERLAP>  (1) 
25.373

>  <PUBCHEM_SHAPE_FINGERPRINT>  (1) 
10366900 7 18261117348519400073
10616163 171 18412826893484002135
11132069 177 18262510498255068845
11552529 35 17845654888658420423
12500047 106 18190735345783195605
12507560 14 17400341361895573519
12553582 1 18267015072818871015
12596599 1 17845393135638646431
12633257 1 18343022147125875299
13140716 1 18409164454389754355
14178342 30 18192411005703766056
14223421 5 18412537738846984917
14251745 187 18334577957801227514
14787075 74 17481133927250038593
15196674 1 18410575110454417094
15209289 33 18335707143352802530
15238133 3 16629978628915039897
15375462 189 18264209123408235675
16945 1 18337660919722723799
17834074 16 18336266738962938125
18186145 218 18342175583170160912
19422 9 18060138781871774935
20645477 70 18267013973623728887
221490 88 18411986888059133374
23402539 116 16588025654676776302
23419403 2 15739332815363529110
23559900 14 18411973689239679829
2748010 2 17690011450035307946
2838139 119 16733849578775538892
2871803 45 18335691784845333271
3286 77 18409441501618919766
3323516 105 18411702092945868466
474 4 17986380295086395112
5104073 3 18341612658833569875
57003041 12 18268991058623117745
6287921 2 18262525904250506324
7364860 26 18272082803731999048
81228 2 17683798088009057106
9709674 26 18411421738840064903
9981440 41 17125052675959034432

>  <PUBCHEM_SHAPE_MULTIPOLES>  (1) 
383.13
7.83
3.03
1.17
3.56
0.2
0.25
-0.03
0.1
-0.73
0.84
0.22
-0.09
0.36

>  <PUBCHEM_SHAPE_SELFOVERLAP>  (1) 
777.65

>  <PUBCHEM_SHAPE_VOLUME>  (1) 
225.3

>  <PUBCHEM_COORDINATE_TYPE>  (1) 
2
5
10

$$$$
