1701
     RDKit          3D

 13 13  0  0  0  0  0  0  0  0999 V2000
    2.9314   -0.0031    0.2497 S   0  0  0  0  0  0  0  0  0  0  0  0
    3.6262   -0.0001   -1.1788 F   0  0  0  0  0  0  0  0  0  0  0  0
    3.2927    1.2660    0.8511 O   0  0  0  0  0  0  0  0  0  0  0  0
    3.2896   -1.2761    0.8444 O   0  0  0  0  0  0  0  0  0  0  0  0
   -5.2503   -0.0179    0.4629 N   0  0  0  0  0  0  0  0  0  0  0  0
   -1.5548    0.0058   -0.4182 C   0  0  0  0  0  0  0  0  0  0  0  0
   -3.0300    0.0088   -0.6381 C   0  0  0  0  0  0  0  0  0  0  0  0
   -3.8088    0.0061    0.6863 C   0  0  0  0  0  0  0  0  0  0  0  0
   -0.8629    1.2123   -0.3122 C   0  0  0  0  0  0  0  0  0  0  0  0
   -0.8671   -1.2038   -0.3188 C   0  0  0  0  0  0  0  0  0  0  0  0
    1.2046   -0.0003   -0.0076 C   0  0  0  0  0  0  0  0  0  0  0  0
    0.5167    1.2092   -0.1071 C   0  0  0  0  0  0  0  0  0  0  0  0
    0.5126   -1.2069   -0.1135 C   0  0  0  0  0  0  0  0  0  0  0  0
  1  2  1  0
  1  3  2  0
  1  4  2  0
  1 11  1  0
  5  8  1  0
  6  7  1  0
  6  9  2  0
  6 10  1  0
  7  8  1  0
  9 12  1  0
 10 13  2  0
 11 12  2  0
 11 13  1  0
M  END
>  <PUBCHEM_COMPOUND_CID>  (1) 
1701

>  <PUBCHEM_CONFORMER_RMSD>  (1) 
0.6

>  <PUBCHEM_CONFORMER_DIVERSEORDER>  (1) 
1
3
6
2
4
5

>  <PUBCHEM_MMFF94_PARTIAL_CHARGES>  (1) 
19
1 1.51
10 -0.15
11 -0.01
12 -0.15
13 -0.15
18 0.15
19 0.15
2 -0.2
20 0.15
21 0.15
22 0.36
23 0.36
3 -0.65
4 -0.65
5 -0.99
6 -0.14
7 0.14
8 0.27
9 -0.15

>  <PUBCHEM_EFFECTIVE_ROTOR_COUNT>  (1) 
3

>  <PUBCHEM_PHARMACOPHORE_FEATURES>  (1) 
3
1 5 cation
1 5 donor
6 6 9 10 11 12 13 rings

>  <PUBCHEM_HEAVY_ATOM_COUNT>  (1) 
13

>  <PUBCHEM_ATOM_DEF_STEREO_COUNT>  (1) 
0

>  <PUBCHEM_ATOM_UDEF_STEREO_COUNT>  (1) 
0

>  <PUBCHEM_BOND_DEF_STEREO_COUNT>  (1) 
0

>  <PUBCHEM_BOND_UDEF_STEREO_COUNT>  (1) 
0

>  <PUBCHEM_ISOTOPIC_ATOM_COUNT>  (1) 
0

>  <PUBCHEM_COMPONENT_COUNT>  (1) 
1

>  <PUBCHEM_CACTVS_TAUTO_COUNT>  (1) 
1

>  <PUBCHEM_CONFORMER_ID>  (1) 
000006A500000001

>  <PUBCHEM_MMFF94_ENERGY>  (1) 
14.5764

>  <PUBCHEM_FEATURE_SELFOVERLAP>  (1) 
15.223

>  <PUBCHEM_SHAPE_FINGERPRINT>  (1) 
10219947 1 18410291410926856853
11062470 55 13758355574705044447
11132069 177 18341885316400520733
12032990 46 18261673679574757607
12251169 10 18408325518849611619
12932764 1 18410564089842187484
13760787 5 18334007298386667735
14252887 29 18337682940305153483
14325111 11 18410566280075230140
14943859 89 15195565697904453967
16945 1 18410845564565710052
17844478 74 17967809431844214805
18186145 218 18202277013517750732
18522853 295 18412261710194741142
19026448 4 16225758601863744191
19026448 5 16200144417637786653
200 152 11891324361775497337
20281407 28 18040436602975265905
22485316 2 17240482520419946451
23402539 116 14549016551435254241
265663 24 15195567888290269861
2748010 2 18122054574975553014
4047638 21 18060701706002644866
449060 62 18341048609816951848
53655031 270 18272371940951263585

>  <PUBCHEM_SHAPE_MULTIPOLES>  (1) 
247.39
7.63
1.27
0.88
4.68
0
0.02
-0.03
-1.61
-0.6
-0.06
-0.19
0
0

>  <PUBCHEM_SHAPE_SELFOVERLAP>  (1) 
495.531

>  <PUBCHEM_SHAPE_VOLUME>  (1) 
147.6

>  <PUBCHEM_COORDINATE_TYPE>  (1) 
2
5
10

$$$$
