17025
     RDKit          3D

  8  8  0  0  1  0  0  0  0  0999 V2000
    0.3345   -0.8877    0.3273 O   0  0  0  0  0  0  0  0  0  0  0  0
   -0.1486    1.3905    0.0249 O   0  0  0  0  0  0  0  0  0  0  0  0
    1.4047   -0.2567   -0.3826 C   0  0  0  0  0  0  0  0  0  0  0  0
    1.2659    1.1944    0.0092 C   0  0  0  0  0  0  0  0  0  0  0  0
   -0.6790    0.1219    0.4306 C   0  0  0  0  0  0  0  0  0  0  0  0
    2.7337   -0.8732   -0.0018 C   0  0  0  0  0  0  0  0  0  0  0  0
   -1.8361   -0.2401   -0.4328 C   0  0  0  0  0  0  0  0  0  0  0  0
   -3.0750   -0.4492    0.0252 C   0  0  0  0  0  0  0  0  0  0  0  0
  1  3  1  0
  1  5  1  0
  2  4  1  0
  2  5  1  0
  3  4  1  0
  3  6  1  0
  5  7  1  0
  7  8  2  0
M  END
>  <PUBCHEM_COMPOUND_CID>  (1) 
17025

>  <PUBCHEM_CONFORMER_RMSD>  (1) 
0.4

>  <PUBCHEM_CONFORMER_DIVERSEORDER>  (1) 
3
6
5
2
1
7
4

>  <PUBCHEM_MMFF94_PARTIAL_CHARGES>  (1) 
10
1 -0.56
16 0.15
17 0.15
18 0.15
2 -0.56
3 0.28
4 0.28
5 0.7
7 -0.29
8 -0.3

>  <PUBCHEM_EFFECTIVE_ROTOR_COUNT>  (1) 
2

>  <PUBCHEM_PHARMACOPHORE_FEATURES>  (1) 
4
1 1 acceptor
1 2 acceptor
1 8 hydrophobe
5 1 2 3 4 5 rings

>  <PUBCHEM_HEAVY_ATOM_COUNT>  (1) 
8

>  <PUBCHEM_ATOM_DEF_STEREO_COUNT>  (1) 
0

>  <PUBCHEM_ATOM_UDEF_STEREO_COUNT>  (1) 
2

>  <PUBCHEM_BOND_DEF_STEREO_COUNT>  (1) 
0

>  <PUBCHEM_BOND_UDEF_STEREO_COUNT>  (1) 
0

>  <PUBCHEM_ISOTOPIC_ATOM_COUNT>  (1) 
0

>  <PUBCHEM_COMPONENT_COUNT>  (1) 
1

>  <PUBCHEM_CACTVS_TAUTO_COUNT>  (1) 
1

>  <PUBCHEM_CONFORMER_ID>  (1) 
0000428100000003

>  <PUBCHEM_MMFF94_ENERGY>  (1) 
10.963

>  <PUBCHEM_FEATURE_SELFOVERLAP>  (1) 
20.338

>  <PUBCHEM_SHAPE_FINGERPRINT>  (1) 
14128692 85 18343582970775027430
21040471 1 18049441744703431568
21293036 1 18187092771118439350
23552423 10 17972891258745296326
23552449 11 18131627919639467928
29004967 10 18412546521970520763
5084963 1 17458063767916937975

>  <PUBCHEM_SHAPE_MULTIPOLES>  (1) 
152.9
3.88
1.19
0.67
1.35
0.32
0.01
-1.3
0.17
-0.46
-0.02
0.03
-0.02
-0.02

>  <PUBCHEM_SHAPE_SELFOVERLAP>  (1) 
296.743

>  <PUBCHEM_SHAPE_VOLUME>  (1) 
93.5

>  <PUBCHEM_COORDINATE_TYPE>  (1) 
2
5
10

$$$$
