17037
     RDKit          3D

 13 14  0  0  0  0  0  0  0  0999 V2000
   -0.8692   -2.7164   -0.0118 Cl  0  0  0  0  0  0  0  0  0  0  0  0
   -3.2704   -1.0072    0.0191 S   0  0  0  0  0  0  0  0  0  0  0  0
   -3.2985    1.0281   -0.0416 S   0  0  0  0  0  0  0  0  0  0  0  0
   -1.0513    2.3739    0.0259 O   0  0  0  0  0  0  0  0  0  0  0  0
    0.6714    0.0120    0.0038 C   0  0  0  0  0  0  0  0  0  0  0  0
   -0.7971   -0.0077    0.0103 C   0  0  0  0  0  0  0  0  0  0  0  0
    1.3634    0.0272   -1.2072 C   0  0  0  0  0  0  0  0  0  0  0  0
    1.3743    0.0161    1.2087 C   0  0  0  0  0  0  0  0  0  0  0  0
   -1.5452   -1.1239    0.0083 C   0  0  0  0  0  0  0  0  0  0  0  0
   -1.5655    1.2653    0.0043 C   0  0  0  0  0  0  0  0  0  0  0  0
    2.7581    0.0465   -1.2135 C   0  0  0  0  0  0  0  0  0  0  0  0
    2.7690    0.0355    1.2024 C   0  0  0  0  0  0  0  0  0  0  0  0
    3.4609    0.0507   -0.0087 C   0  0  0  0  0  0  0  0  0  0  0  0
  1  9  1  0
  2  3  1  0
  2  9  1  0
  3 10  1  0
  4 10  2  0
  5  6  1  0
  5  7  2  0
  5  8  1  0
  6  9  2  0
  6 10  1  0
  7 11  1  0
  8 12  2  0
 11 13  2  0
 12 13  1  0
M  END
>  <PUBCHEM_COMPOUND_CID>  (1) 
17037

>  <PUBCHEM_CONFORMER_RMSD>  (1) 
0.4

>  <PUBCHEM_CONFORMER_DIVERSEORDER>  (1) 
1
2
3

>  <PUBCHEM_MMFF94_PARTIAL_CHARGES>  (1) 
18
1 -0.14
10 0.7
11 -0.15
12 -0.15
13 -0.15
14 0.15
15 0.15
16 0.15
17 0.15
18 0.15
2 -0.1
3 -0.14
4 -0.57
5 0.03
6 -0.01
7 -0.15
8 -0.15
9 0.24

>  <PUBCHEM_EFFECTIVE_ROTOR_COUNT>  (1) 
1

>  <PUBCHEM_PHARMACOPHORE_FEATURES>  (1) 
2
5 2 3 6 9 10 rings
6 5 7 8 11 12 13 rings

>  <PUBCHEM_HEAVY_ATOM_COUNT>  (1) 
13

>  <PUBCHEM_ATOM_DEF_STEREO_COUNT>  (1) 
0

>  <PUBCHEM_ATOM_UDEF_STEREO_COUNT>  (1) 
0

>  <PUBCHEM_BOND_DEF_STEREO_COUNT>  (1) 
0

>  <PUBCHEM_BOND_UDEF_STEREO_COUNT>  (1) 
0

>  <PUBCHEM_ISOTOPIC_ATOM_COUNT>  (1) 
0

>  <PUBCHEM_COMPONENT_COUNT>  (1) 
1

>  <PUBCHEM_CACTVS_TAUTO_COUNT>  (1) 
1

>  <PUBCHEM_CONFORMER_ID>  (1) 
0000428D00000001

>  <PUBCHEM_MMFF94_ENERGY>  (1) 
25.6624

>  <PUBCHEM_FEATURE_SELFOVERLAP>  (1) 
10.149

>  <PUBCHEM_SHAPE_FINGERPRINT>  (1) 
12236239 1 17676487250190302346
124424 183 17775001254978424590
12716758 59 18342182115883970382
12932764 1 17704069590447919454
13538477 17 18113336444120717010
13581323 91 18409443691646181994
14614273 12 18189611640762825245
14993402 34 18113617893517430775
15219456 202 17632574959311488136
15375462 175 18411146830799485611
15669948 3 18335985375618642286
15775835 57 18334294227887435193
16752209 62 18335129913002400111
16945 1 18410856576835534979
17844478 74 17704076196007445801
18175812 5 17703788149693790509
18186145 218 17917156000493838473
19049666 15 17773605922787504478
19422 9 17676489457798523322
20201158 50 17489592246705847574
20279233 1 17775565338254521046
20510252 161 18343304760200477689
20645476 183 17822015336704942751
20871998 184 18342741866160869247
22802520 49 17987248737040401806
23402539 116 18341884195250532973
23557571 272 18200038472721951168
23559900 14 18272091570234841710
23598294 1 18408040727657040875
2748010 2 18267596723429313911
276578 36 18267029357985430475
43471831 8 18335416821002366899
474 4 17024884903210371580
53812653 8 18260270750151095751
6333449 129 18343581837246468085
7364860 26 17838895932652173079
77492 1 17676205779503284226
81228 2 18269271438393964067

>  <PUBCHEM_SHAPE_MULTIPOLES>  (1) 
271.23
5.49
1.94
1.07
0.67
0.58
0
-0.39
0.02
-1.76
0
0.91
-0.01
0

>  <PUBCHEM_SHAPE_SELFOVERLAP>  (1) 
549.611

>  <PUBCHEM_SHAPE_VOLUME>  (1) 
161.2

>  <PUBCHEM_COORDINATE_TYPE>  (1) 
2
5
10

$$$$
