17047
     RDKit          3D

 23 25  0  0  0  0  0  0  0  0999 V2000
   -1.2021    3.0921    0.8389 O   0  0  0  0  0  0  0  0  0  0  0  0
    3.0770   -2.5010    1.7578 O   0  0  0  0  0  0  0  0  0  0  0  0
    1.0601   -1.6351    1.7166 O   0  0  0  0  0  0  0  0  0  0  0  0
   -0.1853    0.9032   -0.5082 N   0  0  0  0  0  0  0  0  0  0  0  0
    0.5045    0.3972    0.4050 N   0  0  0  0  0  0  0  0  0  0  0  0
    2.2631   -1.6327    1.3645 N   0  0  0  0  0  0  0  0  0  0  0  0
   -2.3849   -0.1608   -0.4185 C   0  0  0  0  0  0  0  0  0  0  0  0
   -3.7408   -0.1056   -0.0166 C   0  0  0  0  0  0  0  0  0  0  0  0
   -1.5375    0.9203   -0.1260 C   0  0  0  0  0  0  0  0  0  0  0  0
   -4.2092    1.0289    0.6661 C   0  0  0  0  0  0  0  0  0  0  0  0
   -1.9166   -1.2954   -1.1009 C   0  0  0  0  0  0  0  0  0  0  0  0
   -2.0199    2.0398    0.5528 C   0  0  0  0  0  0  0  0  0  0  0  0
   -4.5883   -1.1865   -0.3088 C   0  0  0  0  0  0  0  0  0  0  0  0
   -3.3532    2.0939    0.9484 C   0  0  0  0  0  0  0  0  0  0  0  0
    1.8569    0.3796    0.0230 C   0  0  0  0  0  0  0  0  0  0  0  0
    4.5296    0.3905   -0.7625 C   0  0  0  0  0  0  0  0  0  0  0  0
    2.7206   -0.6090    0.4887 C   0  0  0  0  0  0  0  0  0  0  0  0
   -2.7728   -2.3601   -1.3832 C   0  0  0  0  0  0  0  0  0  0  0  0
   -4.1062   -2.3058   -0.9880 C   0  0  0  0  0  0  0  0  0  0  0  0
    4.0589   -0.6035    0.0954 C   0  0  0  0  0  0  0  0  0  0  0  0
    2.3238    1.3736   -0.8339 C   0  0  0  0  0  0  0  0  0  0  0  0
    3.6619    1.3791   -1.2272 C   0  0  0  0  0  0  0  0  0  0  0  0
    5.9604    0.3972   -1.1833 C   0  0  0  0  0  0  0  0  0  0  0  0
  1 12  1  0
  2  6  1  0
  3  6  2  0
  4  5  2  0
  4  9  1  0
  5 15  1  0
  6 17  1  0
  7  8  1  0
  7  9  2  0
  7 11  1  0
  8 10  2  0
  8 13  1  0
  9 12  1  0
 10 14  1  0
 11 18  2  0
 12 14  2  0
 13 19  2  0
 15 17  2  0
 15 21  1  0
 16 20  2  0
 16 22  1  0
 16 23  1  0
 17 20  1  0
 18 19  1  0
 21 22  2  0
M  CHG  2   2  -1   6   1
M  END
>  <PUBCHEM_COMPOUND_CID>  (1) 
17047

>  <PUBCHEM_CONFORMER_RMSD>  (1) 
0.6

>  <PUBCHEM_CONFORMER_DIVERSEORDER>  (1) 
2
1
6
5
4
3

>  <PUBCHEM_MMFF94_PARTIAL_CHARGES>  (1) 
31
1 -0.53
10 -0.15
11 -0.15
12 0.08
13 -0.15
14 -0.15
15 0.18
16 -0.14
17 0.13
18 -0.15
19 -0.15
2 -0.52
20 -0.15
21 -0.15
22 -0.15
23 0.14
24 0.15
25 0.15
26 0.15
27 0.15
28 0.15
29 0.15
3 -0.52
30 0.15
31 0.15
32 0.15
36 0.45
4 -0.18
5 -0.18
6 0.91
9 0.18

>  <PUBCHEM_EFFECTIVE_ROTOR_COUNT>  (1) 
3

>  <PUBCHEM_PHARMACOPHORE_FEATURES>  (1) 
7
1 1 donor
1 2 acceptor
1 2 anion
1 3 acceptor
6 15 16 17 20 21 22 rings
6 7 8 11 13 18 19 rings
6 7 8 9 10 12 14 rings

>  <PUBCHEM_HEAVY_ATOM_COUNT>  (1) 
23

>  <PUBCHEM_ATOM_DEF_STEREO_COUNT>  (1) 
0

>  <PUBCHEM_ATOM_UDEF_STEREO_COUNT>  (1) 
0

>  <PUBCHEM_BOND_DEF_STEREO_COUNT>  (1) 
0

>  <PUBCHEM_BOND_UDEF_STEREO_COUNT>  (1) 
0

>  <PUBCHEM_ISOTOPIC_ATOM_COUNT>  (1) 
0

>  <PUBCHEM_COMPONENT_COUNT>  (1) 
1

>  <PUBCHEM_CACTVS_TAUTO_COUNT>  (1) 
3

>  <PUBCHEM_CONFORMER_ID>  (1) 
0000429700000002

>  <PUBCHEM_MMFF94_ENERGY>  (1) 
77.9017

>  <PUBCHEM_FEATURE_SELFOVERLAP>  (1) 
35.629

>  <PUBCHEM_SHAPE_FINGERPRINT>  (1) 
10616163 171 18343586252299171695
11545043 162 16917352540916104790
11578080 2 18118932945807155245
12107183 9 17687464563871176304
12236239 1 18335424564474486452
12553582 1 18271796986680599847
12714826 92 17632295692027030377
12788726 201 18341612603547581803
13009979 54 18194105340406293226
13167823 11 18410015429123738092
13583140 156 17894641327189700373
13631057 29 18190745421565559515
13726171 33 17773898521645857000
13760787 19 18409451362489544521
13911987 19 16371019537243778318
14386348 63 16272215193019938996
15375462 189 18408884061955584257
15537594 2 18408893927400524299
16752209 62 18130211697634910007
17349148 13 17822279194121126296
17804303 29 17846218903726515309
18222031 100 17702370944395137599
19377110 9 18334848420966860848
200 152 18259987097488958917
20511986 3 18261944181047514901
20645477 70 16732695031051812986
21033648 144 16878797156961714604
21033648 29 15697993003219455003
21054139 6 18261391200150823150
21267235 1 18270126828570625775
21634736 98 18267302217073291324
2297311 6 17988655115555034445
23402539 116 18411422825661749004
23557571 272 17703800210210137356
23559900 14 17918272073347164009
23598288 3 18267856199314333829
23598291 2 18262514771779105442
25147074 1 18261669277776682962
312423 11 18334854983192027178
335352 9 18273216435381659333
4214541 1 18273502272869074156
474 4 17895203237623671932
5265222 85 17346042290060361124
602551 16 17847057804954353390
603831 33 18335135397200623552
6823239 73 17632291311318878536
7097593 13 18121207680408064691
7495541 125 16988564645536753456
7970288 3 17842834692578053399

>  <PUBCHEM_SHAPE_MULTIPOLES>  (1) 
440.78
10.83
2.71
1.37
6.91
0.16
0.33
-1.63
-2.55
-2.48
0.5
0.92
-0.68
-2.79

>  <PUBCHEM_SHAPE_SELFOVERLAP>  (1) 
978.186

>  <PUBCHEM_SHAPE_VOLUME>  (1) 
236.2

>  <PUBCHEM_COORDINATE_TYPE>  (1) 
2
5
10

$$$$
