17056
     RDKit          3D

 50 55  0  0  0  0  0  0  0  0999 V2000
    9.5340   -2.9121   -0.6533 S   0  0  0  0  0  0  0  0  0  0  0  0
   -9.5341   -2.9122    0.6534 S   0  0  0  0  0  0  0  0  0  0  0  0
    6.9322    2.1329    0.9940 O   0  0  0  0  0  0  0  0  0  0  0  0
   -6.9324    2.1328   -0.9939 O   0  0  0  0  0  0  0  0  0  0  0  0
   10.3486   -3.4396    0.6587 O   0  0  0  0  0  0  0  0  0  0  0  0
  -10.3488   -3.4397   -0.6587 O   0  0  0  0  0  0  0  0  0  0  0  0
   10.4945   -2.6146   -1.6999 O   0  0  0  0  0  0  0  0  0  0  0  0
    8.4380   -3.8372   -0.8812 O   0  0  0  0  0  0  0  0  0  0  0  0
  -10.4947   -2.6146    1.7000 O   0  0  0  0  0  0  0  0  0  0  0  0
   -8.4381   -3.8373    0.8812 O   0  0  0  0  0  0  0  0  0  0  0  0
    3.5285    2.4914    0.2368 O   0  0  0  0  0  0  0  0  0  0  0  0
   -3.5293    2.4914   -0.2367 O   0  0  0  0  0  0  0  0  0  0  0  0
    5.4317   -0.1480    0.5433 N   0  0  0  0  0  0  0  0  0  0  0  0
   -5.4319   -0.1480   -0.5432 N   0  0  0  0  0  0  0  0  0  0  0  0
    4.8829    0.1615   -0.5399 N   0  0  0  0  0  0  0  0  0  0  0  0
   -4.8838    0.1614    0.5399 N   0  0  0  0  0  0  0  0  0  0  0  0
    9.6123   -0.2256    0.0617 C   0  0  0  0  0  0  0  0  0  0  0  0
   -9.6125   -0.2256   -0.0617 C   0  0  0  0  0  0  0  0  0  0  0  0
    8.9731    0.9741    0.4557 C   0  0  0  0  0  0  0  0  0  0  0  0
   -8.9732    0.9741   -0.4556 C   0  0  0  0  0  0  0  0  0  0  0  0
    8.8373   -1.3751   -0.1627 C   0  0  0  0  0  0  0  0  0  0  0  0
   -8.8376   -1.3750    0.1628 C   0  0  0  0  0  0  0  0  0  0  0  0
    7.5776    0.9888    0.6134 C   0  0  0  0  0  0  0  0  0  0  0  0
   -7.5778    0.9888   -0.6134 C   0  0  0  0  0  0  0  0  0  0  0  0
    7.4520   -1.3423   -0.0013 C   0  0  0  0  0  0  0  0  0  0  0  0
   -7.4522   -1.3423    0.0012 C   0  0  0  0  0  0  0  0  0  0  0  0
    6.8281   -0.1627    0.3855 C   0  0  0  0  0  0  0  0  0  0  0  0
   -6.8235   -0.1626   -0.3861 C   0  0  0  0  0  0  0  0  0  0  0  0
   11.0077   -0.2403   -0.0960 C   0  0  0  0  0  0  0  0  0  0  0  0
  -11.0079   -0.2404    0.0960 C   0  0  0  0  0  0  0  0  0  0  0  0
    9.7480    2.1236    0.6801 C   0  0  0  0  0  0  0  0  0  0  0  0
   -9.7482    2.1236   -0.6801 C   0  0  0  0  0  0  0  0  0  0  0  0
    0.7186    0.1765   -0.0789 C   0  0  0  0  0  0  0  0  0  0  0  0
   -0.7195    0.1765    0.0790 C   0  0  0  0  0  0  0  0  0  0  0  0
   11.7620    0.9112    0.1312 C   0  0  0  0  0  0  0  0  0  0  0  0
  -11.7623    0.9111   -0.1312 C   0  0  0  0  0  0  0  0  0  0  0  0
   11.1334    2.0908    0.5186 C   0  0  0  0  0  0  0  0  0  0  0  0
  -11.1336    2.0908   -0.5186 C   0  0  0  0  0  0  0  0  0  0  0  0
    1.4463    1.3432    0.1557 C   0  0  0  0  0  0  0  0  0  0  0  0
   -1.4471    1.3432   -0.1557 C   0  0  0  0  0  0  0  0  0  0  0  0
    3.4919    0.1760   -0.3832 C   0  0  0  0  0  0  0  0  0  0  0  0
   -3.4873    0.1760    0.3827 C   0  0  0  0  0  0  0  0  0  0  0  0
    2.8330    1.3429    0.0037 C   0  0  0  0  0  0  0  0  0  0  0  0
   -2.8337    1.3429   -0.0036 C   0  0  0  0  0  0  0  0  0  0  0  0
    1.3776   -0.9904   -0.4657 C   0  0  0  0  0  0  0  0  0  0  0  0
   -1.3784   -0.9905    0.4658 C   0  0  0  0  0  0  0  0  0  0  0  0
    2.7641   -0.9906   -0.6180 C   0  0  0  0  0  0  0  0  0  0  0  0
   -2.7649   -0.9907    0.6182 C   0  0  0  0  0  0  0  0  0  0  0  0
    3.7250    3.3660   -0.8722 C   0  0  0  0  0  0  0  0  0  0  0  0
   -3.7259    3.3660    0.8723 C   0  0  0  0  0  0  0  0  0  0  0  0
  1  5  1  0
  1  7  2  0
  1  8  2  0
  1 21  1  0
  2  6  1  0
  2  9  2  0
  2 10  2  0
  2 22  1  0
  3 23  1  0
  4 24  1  0
 11 43  1  0
 11 49  1  0
 12 44  1  0
 12 50  1  0
 13 15  2  0
 13 27  1  0
 14 16  2  0
 14 28  1  0
 15 41  1  0
 16 42  1  0
 17 19  1  0
 17 21  2  0
 17 29  1  0
 18 20  1  0
 18 22  2  0
 18 30  1  0
 19 23  2  0
 19 31  1  0
 20 24  2  0
 20 32  1  0
 21 25  1  0
 22 26  1  0
 23 27  1  0
 24 28  1  0
 25 27  2  0
 26 28  2  0
 29 35  2  0
 30 36  2  0
 31 37  2  0
 32 38  2  0
 33 34  1  0
 33 39  2  0
 33 45  1  0
 34 40  2  0
 34 46  1  0
 35 37  1  0
 36 38  1  0
 39 43  1  0
 40 44  1  0
 41 43  2  0
 41 47  1  0
 42 44  2  0
 42 48  1  0
 45 47  2  0
 46 48  2  0
M  END
>  <PUBCHEM_COMPOUND_CID>  (1) 
17056

>  <PUBCHEM_CONFORMER_RMSD>  (1) 
1.2

>  <PUBCHEM_CONFORMER_DIVERSEORDER>  (1) 
1
5
7
24
10
2
6
9
22
25
21
18
26
4
3
12
8
13
17
19
16
14
20
11
15
23

>  <PUBCHEM_MMFF94_PARTIAL_CHARGES>  (1) 
64
1 1.49
10 -0.65
11 -0.36
12 -0.36
13 -0.18
14 -0.18
15 -0.18
16 -0.18
2 1.49
21 -0.01
22 -0.01
23 0.08
24 0.08
25 -0.15
26 -0.15
27 0.18
28 0.18
29 -0.15
3 -0.53
30 -0.15
31 -0.15
32 -0.15
35 -0.15
36 -0.15
37 -0.15
38 -0.15
39 -0.15
4 -0.53
40 -0.15
41 0.18
42 0.18
43 0.08
44 0.08
45 -0.15
46 -0.15
47 -0.15
48 -0.15
49 0.28
5 -0.68
50 0.28
51 0.15
52 0.15
53 0.15
54 0.15
55 0.15
56 0.15
57 0.15
58 0.15
59 0.15
6 -0.68
60 0.15
61 0.15
62 0.15
63 0.15
64 0.15
65 0.15
66 0.15
67 0.45
68 0.45
69 0.5
7 -0.65
70 0.5
8 -0.65
9 -0.65

>  <PUBCHEM_EFFECTIVE_ROTOR_COUNT>  (1) 
9

>  <PUBCHEM_PHARMACOPHORE_FEATURES>  (1) 
18
1 10 acceptor
1 11 acceptor
1 12 acceptor
1 3 donor
1 4 donor
1 5 acceptor
1 6 acceptor
1 7 acceptor
1 8 acceptor
1 9 acceptor
4 1 5 7 8 anion
4 2 6 9 10 anion
6 17 19 21 23 25 27 rings
6 17 19 29 31 35 37 rings
6 18 20 22 24 26 28 rings
6 18 20 30 32 36 38 rings
6 33 39 41 43 45 47 rings
6 34 40 42 44 46 48 rings

>  <PUBCHEM_HEAVY_ATOM_COUNT>  (1) 
50

>  <PUBCHEM_ATOM_DEF_STEREO_COUNT>  (1) 
0

>  <PUBCHEM_ATOM_UDEF_STEREO_COUNT>  (1) 
0

>  <PUBCHEM_BOND_DEF_STEREO_COUNT>  (1) 
0

>  <PUBCHEM_BOND_UDEF_STEREO_COUNT>  (1) 
0

>  <PUBCHEM_ISOTOPIC_ATOM_COUNT>  (1) 
0

>  <PUBCHEM_COMPONENT_COUNT>  (1) 
1

>  <PUBCHEM_CACTVS_TAUTO_COUNT>  (1) 
5

>  <PUBCHEM_CONFORMER_ID>  (1) 
000042A000000001

>  <PUBCHEM_MMFF94_ENERGY>  (1) 
175.7423

>  <PUBCHEM_FEATURE_SELFOVERLAP>  (1) 
91.521

>  <PUBCHEM_SHAPE_FINGERPRINT>  (1) 
10168742 298 18337121085832624758
10580692 12 18413108364793096600
11061554 47 17894625929241561940
11409948 35 18272368625933148406
12013929 2 18409164403593990529
12522641 33 17632577136770743974
12664476 115 17458060469588309629
131240 100 18410855464423135610
13947934 56 18408323293787793220
15061470 23 18409727361203942540
15065858 18 18410854360622042626
15347591 1 17971199376258066384
15510794 2 18410577283692076939
15840311 113 18261111903181890108
16067689 302 18273215258471150798
16728433 110 18410854382888514276
21362267 20 18411698816224867403
21792961 116 18272932710000347361
232437 2 18410854364911559783
3092352 35 16081091498644622393
9937071 3 18131354089905433206

>  <PUBCHEM_SHAPE_MULTIPOLES>  (1) 
958.06
57.86
3.78
0.92
0
1.92
0
17.27
0
0
0
0
0.2
4.28

>  <PUBCHEM_SHAPE_SELFOVERLAP>  (1) 
2117.848

>  <PUBCHEM_SHAPE_VOLUME>  (1) 
516.8

>  <PUBCHEM_COORDINATE_TYPE>  (1) 
2
5
10

$$$$
