17050
     RDKit          3D

 12 11  0  0  0  0  0  0  0  0999 V2000
    1.4327    0.4511    0.1882 O   0  0  0  0  0  0  0  0  0  0  0  0
    2.7049   -1.2684   -0.6863 O   0  0  0  0  0  0  0  0  0  0  0  0
   -2.2079   -0.0022   -0.1662 N   0  0  0  0  0  0  0  0  0  0  0  0
   -0.9517    0.6369    0.2240 C   0  0  0  0  0  0  0  0  0  0  0  0
   -3.3455    0.8402    0.2010 C   0  0  0  0  0  0  0  0  0  0  0  0
   -2.3259   -1.3202    0.4563 C   0  0  0  0  0  0  0  0  0  0  0  0
    0.2364   -0.2145   -0.1944 C   0  0  0  0  0  0  0  0  0  0  0  0
   -3.2395    2.2148   -0.4376 C   0  0  0  0  0  0  0  0  0  0  0  0
   -3.5970   -2.0248    0.0135 C   0  0  0  0  0  0  0  0  0  0  0  0
    2.5958   -0.1920   -0.1209 C   0  0  0  0  0  0  0  0  0  0  0  0
    3.7192    0.6434    0.3519 C   0  0  0  0  0  0  0  0  0  0  0  0
    4.9786    0.2358    0.1706 C   0  0  0  0  0  0  0  0  0  0  0  0
  1  7  1  0
  1 10  1  0
  2 10  2  0
  3  4  1  0
  3  5  1  0
  3  6  1  0
  4  7  1  0
  5  8  1  0
  6  9  1  0
 10 11  1  0
 11 12  2  0
M  END
>  <PUBCHEM_COMPOUND_CID>  (1) 
17050

>  <PUBCHEM_CONFORMER_RMSD>  (1) 
0.8

>  <PUBCHEM_CONFORMER_DIVERSEORDER>  (1) 
1
43
6
15
40
3
32
29
53
9
52
28
34
17
56
42
21
24
4
60
18
55
49
20
16
14
54
8
46
39
26
13
30
7
59
57
12
58
36
27
63
37
33
47
61
35
11
45
10
50
38
22
23
25
64
31
19
62
48
5
2
41
51
44

>  <PUBCHEM_MMFF94_PARTIAL_CHARGES>  (1) 
13
1 -0.43
10 0.71
11 -0.14
12 -0.3
2 -0.57
27 0.15
28 0.15
29 0.15
3 -0.81
4 0.27
5 0.27
6 0.27
7 0.28

>  <PUBCHEM_EFFECTIVE_ROTOR_COUNT>  (1) 
7

>  <PUBCHEM_PHARMACOPHORE_FEATURES>  (1) 
3
1 12 hydrophobe
1 2 acceptor
1 3 cation

>  <PUBCHEM_HEAVY_ATOM_COUNT>  (1) 
12

>  <PUBCHEM_ATOM_DEF_STEREO_COUNT>  (1) 
0

>  <PUBCHEM_ATOM_UDEF_STEREO_COUNT>  (1) 
0

>  <PUBCHEM_BOND_DEF_STEREO_COUNT>  (1) 
0

>  <PUBCHEM_BOND_UDEF_STEREO_COUNT>  (1) 
0

>  <PUBCHEM_ISOTOPIC_ATOM_COUNT>  (1) 
0

>  <PUBCHEM_COMPONENT_COUNT>  (1) 
1

>  <PUBCHEM_CACTVS_TAUTO_COUNT>  (1) 
1

>  <PUBCHEM_CONFORMER_ID>  (1) 
0000429A00000001

>  <PUBCHEM_MMFF94_ENERGY>  (1) 
16.4486

>  <PUBCHEM_FEATURE_SELFOVERLAP>  (1) 
15.223

>  <PUBCHEM_SHAPE_FINGERPRINT>  (1) 
10014705 185 18260263032205985661
10608611 8 18413105065335248456
10680689 15 18335147496165681576
12500047 106 18410568457581379681
12932764 1 17385718071625447220
13214271 11 18342171180833996484
13296908 3 18202290190561849894
14325111 11 18412263926128671522
18186145 218 18201451237572871282
1986462 14 18409167722722482388
20279233 1 18343587325987929574
20645477 56 18336266752117241981
20645477 70 17345757369886902078
20711985 327 17313104180928752188
20828058 44 18409729564927782210
21426921 1 18408884053492282517
22169311 21 18343019960839815406
22485316 2 18335419045794828410
22943178 12 18272654528150547478
22959321 105 18411983576349093888
22959321 60 18272643589190656592
23380061 127 18335416889520688219
23402539 116 18187076261485666916
23557571 272 18341621416356398860
23559900 14 18270399374494976534
3248919 1 17022912258621194218
3312278 4 18343022176895123872
4214541 1 18410292493095286520
573450 72 18114730577862605882

>  <PUBCHEM_SHAPE_MULTIPOLES>  (1) 
230.23
9.24
1.82
0.69
7.63
0.04
0
0.36
0.29
-2.86
-0.16
0.03
-0.02
0.54

>  <PUBCHEM_SHAPE_SELFOVERLAP>  (1) 
427.975

>  <PUBCHEM_SHAPE_VOLUME>  (1) 
145.9

>  <PUBCHEM_COORDINATE_TYPE>  (1) 
2
5
10

$$$$
