17068
     RDKit          3D

 42 46  0  0  0  0  0  0  0  0999 V2000
    5.6813    2.7588   -0.6623 S   0  0  0  0  0  0  0  0  0  0  0  0
    5.5444   -2.3263   -0.0753 O   0  0  0  0  0  0  0  0  0  0  0  0
    4.8730    3.0720    0.7225 O   0  0  0  0  0  0  0  0  0  0  0  0
    6.7374    3.7520   -0.7748 O   0  0  0  0  0  0  0  0  0  0  0  0
    4.7079    2.5819   -1.7266 O   0  0  0  0  0  0  0  0  0  0  0  0
  -12.0853    0.3514    0.1462 O   0  0  0  0  0  0  0  0  0  0  0  0
   -9.9575   -2.6710   -1.6065 O   0  0  0  0  0  0  0  0  0  0  0  0
  -11.8799   -2.3341   -0.4415 O   0  0  0  0  0  0  0  0  0  0  0  0
    4.2875    0.0829   -0.4803 N   0  0  0  0  0  0  0  0  0  0  0  0
   10.3809   -3.7951    0.5660 N   0  0  0  0  0  0  0  0  0  0  0  0
    3.7533    0.2357    0.6418 N   0  0  0  0  0  0  0  0  0  0  0  0
   -6.0146    0.5850   -0.3398 N   0  0  0  0  0  0  0  0  0  0  0  0
   -6.5656    0.1340    0.6920 N   0  0  0  0  0  0  0  0  0  0  0  0
    7.7064   -1.2706    0.0094 C   0  0  0  0  0  0  0  0  0  0  0  0
    8.4741   -0.0834   -0.0571 C   0  0  0  0  0  0  0  0  0  0  0  0
    6.4372    1.2004   -0.4052 C   0  0  0  0  0  0  0  0  0  0  0  0
    6.3113   -1.1952   -0.1338 C   0  0  0  0  0  0  0  0  0  0  0  0
    7.8241    1.1440   -0.2650 C   0  0  0  0  0  0  0  0  0  0  0  0
    5.6822    0.0330   -0.3397 C   0  0  0  0  0  0  0  0  0  0  0  0
    8.3564   -2.4980    0.2173 C   0  0  0  0  0  0  0  0  0  0  0  0
    9.8691   -0.1588    0.0862 C   0  0  0  0  0  0  0  0  0  0  0  0
    9.7433   -2.5543    0.3575 C   0  0  0  0  0  0  0  0  0  0  0  0
   10.4982   -1.3869    0.2920 C   0  0  0  0  0  0  0  0  0  0  0  0
   -0.4113    0.3856    0.2236 C   0  0  0  0  0  0  0  0  0  0  0  0
   -1.8499    0.4372    0.0787 C   0  0  0  0  0  0  0  0  0  0  0  0
    2.3558    0.2860    0.5013 C   0  0  0  0  0  0  0  0  0  0  0  0
    0.2252   -0.8383    0.4292 C   0  0  0  0  0  0  0  0  0  0  0  0
    0.3391    1.5597    0.1572 C   0  0  0  0  0  0  0  0  0  0  0  0
    1.6122   -0.8882    0.5685 C   0  0  0  0  0  0  0  0  0  0  0  0
    1.7260    1.5096    0.2963 C   0  0  0  0  0  0  0  0  0  0  0  0
   -2.5345   -0.6469   -0.4706 C   0  0  0  0  0  0  0  0  0  0  0  0
   -2.5524    1.5705    0.4888 C   0  0  0  0  0  0  0  0  0  0  0  0
   -4.6240    0.5356   -0.1999 C   0  0  0  0  0  0  0  0  0  0  0  0
   -3.9215   -0.5976   -0.6100 C   0  0  0  0  0  0  0  0  0  0  0  0
   -3.9393    1.6195    0.3495 C   0  0  0  0  0  0  0  0  0  0  0  0
   -7.9629    0.1842    0.5511 C   0  0  0  0  0  0  0  0  0  0  0  0
  -10.0284   -0.8500   -0.1364 C   0  0  0  0  0  0  0  0  0  0  0  0
   -8.6413   -0.8999    0.0027 C   0  0  0  0  0  0  0  0  0  0  0  0
   -8.6578    1.3174    0.9619 C   0  0  0  0  0  0  0  0  0  0  0  0
  -10.7301    0.2835    0.2738 C   0  0  0  0  0  0  0  0  0  0  0  0
  -10.0448    1.3672    0.8229 C   0  0  0  0  0  0  0  0  0  0  0  0
  -10.7252   -1.9925   -0.7114 C   0  0  0  0  0  0  0  0  0  0  0  0
  1  3  1  0
  1  4  2  0
  1  5  2  0
  1 16  1  0
  2 17  1  0
  6 40  1  0
  7 42  1  0
  8 42  2  0
  9 11  2  0
  9 19  1  0
 10 22  1  0
 11 26  1  0
 12 13  2  0
 12 33  1  0
 13 36  1  0
 14 15  2  0
 14 17  1  0
 14 20  1  0
 15 18  1  0
 15 21  1  0
 16 18  2  0
 16 19  1  0
 17 19  2  0
 20 22  2  0
 21 23  2  0
 22 23  1  0
 24 25  1  0
 24 27  2  0
 24 28  1  0
 25 31  2  0
 25 32  1  0
 26 29  2  0
 26 30  1  0
 27 29  1  0
 28 30  2  0
 31 34  1  0
 32 35  2  0
 33 34  2  0
 33 35  1  0
 36 38  1  0
 36 39  2  0
 37 38  2  0
 37 40  1  0
 37 42  1  0
 39 41  1  0
 40 41  2  0
M  END
>  <PUBCHEM_COMPOUND_CID>  (1) 
17068

>  <PUBCHEM_CONFORMER_RMSD>  (1) 
1

>  <PUBCHEM_CONFORMER_DIVERSEORDER>  (1) 
2
6
8
3
1
7
5
4
9

>  <PUBCHEM_MMFF94_PARTIAL_CHARGES>  (1) 
59
1 1.49
10 -0.9
11 -0.18
12 -0.18
13 -0.18
16 -0.01
17 0.08
18 -0.15
19 0.18
2 -0.53
20 -0.15
21 -0.15
22 0.1
23 -0.15
26 0.18
27 -0.15
28 -0.15
29 -0.15
3 -0.68
30 -0.15
31 -0.15
32 -0.15
33 0.18
34 -0.15
35 -0.15
36 0.18
37 0.09
38 -0.15
39 -0.15
4 -0.65
40 0.08
41 -0.15
42 0.63
43 0.15
44 0.15
45 0.15
46 0.15
47 0.45
48 0.4
49 0.4
5 -0.65
50 0.15
51 0.15
52 0.15
53 0.15
54 0.15
55 0.15
56 0.5
57 0.15
58 0.15
59 0.15
6 -0.53
60 0.15
61 0.15
62 0.45
63 0.5
7 -0.65
8 -0.57
9 -0.18

>  <PUBCHEM_EFFECTIVE_ROTOR_COUNT>  (1) 
7

>  <PUBCHEM_PHARMACOPHORE_FEATURES>  (1) 
16
1 10 cation
1 10 donor
1 2 donor
1 3 acceptor
1 4 acceptor
1 5 acceptor
1 6 donor
1 7 acceptor
1 8 acceptor
3 7 8 42 anion
4 1 3 4 5 anion
6 14 15 16 17 18 19 rings
6 14 15 20 21 22 23 rings
6 24 26 27 28 29 30 rings
6 25 31 32 33 34 35 rings
6 36 37 38 39 40 41 rings

>  <PUBCHEM_HEAVY_ATOM_COUNT>  (1) 
42

>  <PUBCHEM_ATOM_DEF_STEREO_COUNT>  (1) 
0

>  <PUBCHEM_ATOM_UDEF_STEREO_COUNT>  (1) 
0

>  <PUBCHEM_BOND_DEF_STEREO_COUNT>  (1) 
0

>  <PUBCHEM_BOND_UDEF_STEREO_COUNT>  (1) 
0

>  <PUBCHEM_ISOTOPIC_ATOM_COUNT>  (1) 
0

>  <PUBCHEM_COMPONENT_COUNT>  (1) 
1

>  <PUBCHEM_CACTVS_TAUTO_COUNT>  (1) 
24

>  <PUBCHEM_CONFORMER_ID>  (1) 
000042AC00000002

>  <PUBCHEM_MMFF94_ENERGY>  (1) 
141.236

>  <PUBCHEM_FEATURE_SELFOVERLAP>  (1) 
81.338

>  <PUBCHEM_SHAPE_FINGERPRINT>  (1) 
10580692 12 18410013222091166808
12013929 2 18408884019781676665
12013929 94 18342739650965442939
12089408 11 18342461456990117081
12664476 115 18187364333310955476
13947934 56 18339641148934345641
14118638 360 16008739174849497289
14202775 3 18409733958479833923
14251764 46 18260268534053381803
15061470 23 18341892979060572569
15065858 18 18411692171344970681
15247644 1 17989208131355427070
15510794 2 18260270745835231243
15840311 113 18113622321771742212
16728433 110 18201996647318245360
20105231 36 18409446968716999259
21102433 48 18342173349645586751
21362267 20 18342454877037981735
21792934 111 18342454855409294296
21895431 317 18188485771158708970
22164985 6 18260264170440761375
232437 2 18411982455795133331
24893992 56 18040716962025572578
3092352 35 18413670223608819615
335507 130 18131068212391623684
3525247 94 18410574020344886223
439807 62 18412547613678639280
44389302 135 17989207005994711447
4625314 4 18260551155992166737
5381727 24 18408603656468324611
67123 10 18412826885188966201
9937071 3 16630530617705876198

>  <PUBCHEM_SHAPE_MULTIPOLES>  (1) 
802.2
51.16
3.09
0.89
76.43
0.02
-0.14
28.35
-0.72
-6.67
-0.44
0.54
-0.1
-4.09

>  <PUBCHEM_SHAPE_SELFOVERLAP>  (1) 
1782.426

>  <PUBCHEM_SHAPE_VOLUME>  (1) 
428.8

>  <PUBCHEM_COORDINATE_TYPE>  (1) 
2
5
10

$$$$
