17062
     RDKit          3D

 41 45  0  0  0  0  0  0  0  0999 V2000
   -8.2494   -2.7825   -0.4120 S   0  0  0  0  0  0  0  0  0  0  0  0
   -8.9667   -2.8592   -1.8759 O   0  0  0  0  0  0  0  0  0  0  0  0
   -7.1379   -3.7169   -0.4268 O   0  0  0  0  0  0  0  0  0  0  0  0
   -9.2795   -2.8578    0.6075 O   0  0  0  0  0  0  0  0  0  0  0  0
   12.0517    0.5336   -0.8369 O   0  0  0  0  0  0  0  0  0  0  0  0
   10.2320   -2.4257    1.3230 O   0  0  0  0  0  0  0  0  0  0  0  0
   11.9756   -2.1225   -0.1032 O   0  0  0  0  0  0  0  0  0  0  0  0
   -5.7008    2.6004   -0.1342 N   0  0  0  0  0  0  0  0  0  0  0  0
   -4.1784    0.2644   -0.3606 N   0  0  0  0  0  0  0  0  0  0  0  0
   -3.7071    0.2043    0.7982 N   0  0  0  0  0  0  0  0  0  0  0  0
    6.0965    0.7177    0.4459 N   0  0  0  0  0  0  0  0  0  0  0  0
    6.5134    0.2241   -0.6281 N   0  0  0  0  0  0  0  0  0  0  0  0
   -8.3767   -0.0115   -0.2116 C   0  0  0  0  0  0  0  0  0  0  0  0
   -7.7566    1.2591   -0.1472 C   0  0  0  0  0  0  0  0  0  0  0  0
   -7.5774   -1.1607   -0.3245 C   0  0  0  0  0  0  0  0  0  0  0  0
   -6.3556    1.3429   -0.1975 C   0  0  0  0  0  0  0  0  0  0  0  0
   -5.5771    0.1906   -0.3099 C   0  0  0  0  0  0  0  0  0  0  0  0
   -6.1869   -1.0589   -0.3733 C   0  0  0  0  0  0  0  0  0  0  0  0
   -9.7776   -0.0952   -0.1611 C   0  0  0  0  0  0  0  0  0  0  0  0
   -8.5558    2.4084   -0.0342 C   0  0  0  0  0  0  0  0  0  0  0  0
  -10.5561    1.0570   -0.0488 C   0  0  0  0  0  0  0  0  0  0  0  0
   -9.9463    2.3065    0.0146 C   0  0  0  0  0  0  0  0  0  0  0  0
    0.4728    0.4243    0.6477 C   0  0  0  0  0  0  0  0  0  0  0  0
    1.9166    0.4999    0.5961 C   0  0  0  0  0  0  0  0  0  0  0  0
   -2.3045    0.2782    0.7478 C   0  0  0  0  0  0  0  0  0  0  0  0
   -0.1630   -0.8157    0.5861 C   0  0  0  0  0  0  0  0  0  0  0  0
   -0.2836    1.5910    0.7594 C   0  0  0  0  0  0  0  0  0  0  0  0
   -1.5551   -0.8889    0.6361 C   0  0  0  0  0  0  0  0  0  0  0  0
   -1.6756    1.5178    0.8097 C   0  0  0  0  0  0  0  0  0  0  0  0
    2.6879   -0.5479    1.0985 C   0  0  0  0  0  0  0  0  0  0  0  0
    2.5372    1.6204    0.0437 C   0  0  0  0  0  0  0  0  0  0  0  0
    4.7007    0.6450    0.4961 C   0  0  0  0  0  0  0  0  0  0  0  0
    4.0801   -0.4754    1.0484 C   0  0  0  0  0  0  0  0  0  0  0  0
    3.9293    1.6928   -0.0064 C   0  0  0  0  0  0  0  0  0  0  0  0
    7.9159    0.2977   -0.6781 C   0  0  0  0  0  0  0  0  0  0  0  0
   10.0730   -0.6772   -0.2261 C   0  0  0  0  0  0  0  0  0  0  0  0
    8.6810   -0.7504   -0.1757 C   0  0  0  0  0  0  0  0  0  0  0  0
    8.5289    1.4180   -1.2302 C   0  0  0  0  0  0  0  0  0  0  0  0
   10.6931    0.4434   -0.7786 C   0  0  0  0  0  0  0  0  0  0  0  0
    9.9210    1.4910   -1.2807 C   0  0  0  0  0  0  0  0  0  0  0  0
   10.8610   -1.7822    0.3028 C   0  0  0  0  0  0  0  0  0  0  0  0
  1  2  1  0
  1  3  2  0
  1  4  2  0
  1 15  1  0
  5 39  1  0
  6 41  1  0
  7 41  2  0
  8 16  1  0
  9 10  2  0
  9 17  1  0
 10 25  1  0
 11 12  2  0
 11 32  1  0
 12 35  1  0
 13 14  1  0
 13 15  2  0
 13 19  1  0
 14 16  2  0
 14 20  1  0
 15 18  1  0
 16 17  1  0
 17 18  2  0
 19 21  2  0
 20 22  2  0
 21 22  1  0
 23 24  1  0
 23 26  2  0
 23 27  1  0
 24 30  2  0
 24 31  1  0
 25 28  2  0
 25 29  1  0
 26 28  1  0
 27 29  2  0
 30 33  1  0
 31 34  2  0
 32 33  2  0
 32 34  1  0
 35 37  1  0
 35 38  2  0
 36 37  2  0
 36 39  1  0
 36 41  1  0
 38 40  1  0
 39 40  2  0
M  END
>  <PUBCHEM_COMPOUND_CID>  (1) 
17062

>  <PUBCHEM_CONFORMER_RMSD>  (1) 
1

>  <PUBCHEM_CONFORMER_DIVERSEORDER>  (1) 
2
5
7
4
1
6
8
9
3

>  <PUBCHEM_MMFF94_PARTIAL_CHARGES>  (1) 
58
1 1.49
10 -0.18
11 -0.18
12 -0.18
15 -0.01
16 0.1
17 0.18
18 -0.15
19 -0.15
2 -0.68
20 -0.15
21 -0.15
22 -0.15
25 0.18
26 -0.15
27 -0.15
28 -0.15
29 -0.15
3 -0.65
30 -0.15
31 -0.15
32 0.18
33 -0.15
34 -0.15
35 0.18
36 0.09
37 -0.15
38 -0.15
39 0.08
4 -0.65
40 -0.15
41 0.63
42 0.15
43 0.15
44 0.15
45 0.15
46 0.15
47 0.4
48 0.4
49 0.15
5 -0.53
50 0.15
51 0.15
52 0.15
53 0.5
54 0.15
55 0.15
56 0.15
57 0.15
58 0.15
59 0.15
6 -0.65
60 0.15
61 0.45
62 0.5
7 -0.57
8 -0.9
9 -0.18

>  <PUBCHEM_EFFECTIVE_ROTOR_COUNT>  (1) 
7

>  <PUBCHEM_PHARMACOPHORE_FEATURES>  (1) 
15
1 2 acceptor
1 3 acceptor
1 4 acceptor
1 5 donor
1 6 acceptor
1 7 acceptor
1 8 cation
1 8 donor
3 6 7 41 anion
4 1 2 3 4 anion
6 13 14 15 16 17 18 rings
6 13 14 19 20 21 22 rings
6 23 25 26 27 28 29 rings
6 24 30 31 32 33 34 rings
6 35 36 37 38 39 40 rings

>  <PUBCHEM_HEAVY_ATOM_COUNT>  (1) 
41

>  <PUBCHEM_ATOM_DEF_STEREO_COUNT>  (1) 
0

>  <PUBCHEM_ATOM_UDEF_STEREO_COUNT>  (1) 
0

>  <PUBCHEM_BOND_DEF_STEREO_COUNT>  (1) 
0

>  <PUBCHEM_BOND_UDEF_STEREO_COUNT>  (1) 
0

>  <PUBCHEM_ISOTOPIC_ATOM_COUNT>  (1) 
0

>  <PUBCHEM_COMPONENT_COUNT>  (1) 
1

>  <PUBCHEM_CACTVS_TAUTO_COUNT>  (1) 
5

>  <PUBCHEM_CONFORMER_ID>  (1) 
000042A600000002

>  <PUBCHEM_MMFF94_ENERGY>  (1) 
143.4054

>  <PUBCHEM_FEATURE_SELFOVERLAP>  (1) 
76.263

>  <PUBCHEM_SHAPE_FINGERPRINT>  (1) 
10168742 298 17988375806170016308
10580692 12 18412826855398579705
11061554 47 17313098662566469732
11966995 178 8574706920120915626
12089408 11 18334858329303587184
12098696 120 14273455894888438500
12144603 126 18261392217509206083
12522641 33 18335139773883730922
12559415 86 18336272228010783564
12664476 115 17530682108690967132
12741549 16 15841831136473146448
131240 100 18272650199377771712
13553643 46 9871483014888331011
13740195 50 10303809882668480572
13947947 19 18040722488878595932
15061470 23 18407477761152082236
15065858 18 18272083924924224496
15247644 1 16487258768497715038
15461852 350 18410857685316977049
15510794 2 18059856185644842802
15840311 113 17676492778942653244
15890870 6 18411138026327915146
1754911 235 18040433308450630276
19315958 150 12757145771574551240
19841028 212 18340767031566484194
20105231 36 18200877383252023039
20580484 106 8790887358995661460
21102433 48 18410007699449507466
212700 22 17988926656636568614
21362267 2 13551475934306938326
21792961 116 17775849013235747353
232437 2 18410012135347954568
3092352 35 17894914027204938219
3991529 128 14057008213398044980
42767 2 18334297574447492132
5028188 123 18408603674175298853
54039377 194 18272933864560397565
54131252 152 18335425656124323459
54728670 133 16056057779602245579
57676310 188 18259981562083912179
58083652 198 17845944013494327128
9663363 56 15052013447245524353
9937071 3 17131836452459666646

>  <PUBCHEM_SHAPE_MULTIPOLES>  (1) 
787.49
53.58
2.79
1.03
68.96
1.79
0.08
12.92
13.96
-6.33
0.34
0.88
0.18
-3

>  <PUBCHEM_SHAPE_SELFOVERLAP>  (1) 
1748.341

>  <PUBCHEM_SHAPE_VOLUME>  (1) 
420.7

>  <PUBCHEM_COORDINATE_TYPE>  (1) 
2
5
10

$$$$
