1707
     RDKit          3D

 23 25  0  0  0  0  0  0  0  0999 V2000
   -4.5108   -3.8773    0.0568 Br  0  0  0  0  0  0  0  0  0  0  0  0
    5.7643   -0.4633    0.2897 S   0  0  0  0  0  0  0  0  0  0  0  0
    6.2704    0.7347    0.9569 O   0  0  0  0  0  0  0  0  0  0  0  0
    5.8310   -1.7595    0.9596 O   0  0  0  0  0  0  0  0  0  0  0  0
   -1.8583    3.2206    0.1996 O   0  0  0  0  0  0  0  0  0  0  0  0
   -3.8907    2.0879    0.0296 N   0  0  0  0  0  0  0  0  0  0  0  0
   -0.6164    0.6027    0.3548 N   0  0  0  0  0  0  0  0  0  0  0  0
   -0.0016    0.5010   -0.7297 N   0  0  0  0  0  0  0  0  0  0  0  0
    6.5862   -0.5993   -1.2168 N   0  0  0  0  0  0  0  0  0  0  0  0
   -2.9605   -0.0343    0.1458 C   0  0  0  0  0  0  0  0  0  0  0  0
   -4.1443    0.8202    0.0240 C   0  0  0  0  0  0  0  0  0  0  0  0
   -1.9481    0.8258    0.2276 C   0  0  0  0  0  0  0  0  0  0  0  0
    4.0680   -0.1800   -0.0107 C   0  0  0  0  0  0  0  0  0  0  0  0
   -3.0654   -1.4603    0.1563 C   0  0  0  0  0  0  0  0  0  0  0  0
   -5.4526    0.1458   -0.0876 C   0  0  0  0  0  0  0  0  0  0  0  0
    1.3643    0.2724   -0.4886 C   0  0  0  0  0  0  0  0  0  0  0  0
    3.1911   -1.2579   -0.1318 C   0  0  0  0  0  0  0  0  0  0  0  0
    3.5895    1.1250   -0.1291 C   0  0  0  0  0  0  0  0  0  0  0  0
   -2.5203    2.1951    0.1548 C   0  0  0  0  0  0  0  0  0  0  0  0
    1.8358   -1.0311   -0.3715 C   0  0  0  0  0  0  0  0  0  0  0  0
    2.2342    1.3517   -0.3688 C   0  0  0  0  0  0  0  0  0  0  0  0
   -4.2837   -2.0221    0.0513 C   0  0  0  0  0  0  0  0  0  0  0  0
   -5.4821   -1.1977   -0.0720 C   0  0  0  0  0  0  0  0  0  0  0  0
  1 22  1  0
  2  3  2  0
  2  4  2  0
  2  9  1  0
  2 13  1  0
  5 19  2  0
  6 11  2  0
  6 19  1  0
  7  8  2  0
  7 12  1  0
  8 16  1  0
 10 11  1  0
 10 12  2  0
 10 14  1  0
 11 15  1  0
 12 19  1  0
 13 17  2  0
 13 18  1  0
 14 22  2  0
 15 23  2  0
 16 20  2  0
 16 21  1  0
 17 20  1  0
 18 21  2  0
 22 23  1  0
M  END
>  <PUBCHEM_COMPOUND_CID>  (1) 
1707

>  <PUBCHEM_CONFORMER_RMSD>  (1) 
0.6

>  <PUBCHEM_CONFORMER_DIVERSEORDER>  (1) 
2
4
7
3
10
8
5
1
9
6

>  <PUBCHEM_MMFF94_PARTIAL_CHARGES>  (1) 
32
1 -0.11
10 0.01
11 0.42
12 0.19
13 -0.01
14 -0.15
15 -0.14
16 0.18
17 -0.15
18 -0.15
19 0.77
2 1.45
20 -0.15
21 -0.15
22 0.11
23 -0.15
24 0.15
25 0.15
26 0.15
27 0.15
28 0.15
29 0.15
3 -0.65
30 0.15
31 0.42
32 0.42
4 -0.65
5 -0.57
6 -0.66
7 -0.17
8 -0.18
9 -0.98

>  <PUBCHEM_EFFECTIVE_ROTOR_COUNT>  (1) 
3

>  <PUBCHEM_PHARMACOPHORE_FEATURES>  (1) 
10
1 1 hydrophobe
1 3 acceptor
1 4 acceptor
1 5 acceptor
1 6 acceptor
1 6 donor
1 9 donor
5 6 10 11 12 19 rings
6 10 11 14 15 22 23 rings
6 13 16 17 18 20 21 rings

>  <PUBCHEM_HEAVY_ATOM_COUNT>  (1) 
23

>  <PUBCHEM_ATOM_DEF_STEREO_COUNT>  (1) 
0

>  <PUBCHEM_ATOM_UDEF_STEREO_COUNT>  (1) 
0

>  <PUBCHEM_BOND_DEF_STEREO_COUNT>  (1) 
0

>  <PUBCHEM_BOND_UDEF_STEREO_COUNT>  (1) 
0

>  <PUBCHEM_ISOTOPIC_ATOM_COUNT>  (1) 
0

>  <PUBCHEM_COMPONENT_COUNT>  (1) 
1

>  <PUBCHEM_CACTVS_TAUTO_COUNT>  (1) 
1

>  <PUBCHEM_CONFORMER_ID>  (1) 
000006AB00000002

>  <PUBCHEM_MMFF94_ENERGY>  (1) 
40.8988

>  <PUBCHEM_FEATURE_SELFOVERLAP>  (1) 
50.913

>  <PUBCHEM_SHAPE_FINGERPRINT>  (1) 
10 15 18130213944324786296
10411042 1 18194965378165167507
10595046 47 18334579083393908172
10616163 171 18412267237891816007
11315181 36 18260832600408474445
11524674 6 17203609289854971607
12107183 9 17615403658703327800
12166972 35 17749393701675869421
12236239 1 17967253078744191056
12596602 18 18412538804668631992
12616971 3 17676216770509516733
12760667 363 18341612664004444079
13167823 11 18334857220732532970
13288520 33 18411139139008761789
13631057 29 18411980299505604307
13911882 115 17917722287827266606
14251732 16 18340484564884299024
14251751 18 18341330084350603122
14341114 176 18412266112504493032
14461889 52 18341886446847533682
14844126 61 18409730707748494027
15250474 111 18261103046178662442
15352361 1 18339081609495647983
17349148 13 17894634772404396776
17492 89 18263927816024816107
17844677 252 18341900675757887952
17857418 61 18407758140289191866
18222031 100 17749388174643633900
18681886 176 18412262865836232464
18927931 339 18410863170190719727
19489759 90 18334857199299920545
20028762 73 18341048618418280710
20511986 3 17968924323491538267
21033648 29 17059757924281659264
21267235 1 18409176527853851471
21792934 111 18412824708004986209
220451 1 18260554381560052778
22061861 79 13767923490804565450
22122407 14 15769781269002106523
2303208 19 17632025182566219550
23081809 10 17748830688020130780
23402539 116 18335136492712819725
23522609 53 17897473630620281628
23557571 272 18202289069617882305
23559900 14 18339353158544819217
26918003 58 18413670214485706253
3004659 81 18114177575174819351
335352 9 18410573990628197157
34797466 226 17703794730401436964
3545911 37 18412265004017971221
4073 2 18187369861113051490
4214541 1 18410012109251415053
5104073 3 18343866644769868960
531348 171 17459739337854425743
559249 180 18260544490313660555
5924683 9 18411418419093653875
59755656 215 18411419479602734982
67856867 119 18262521514883515916
7495541 125 17917709149432292888
7970288 3 18122342656072030995
9709674 26 18270689671097260191

>  <PUBCHEM_SHAPE_MULTIPOLES>  (1) 
445.59
16.23
3.04
0.77
16.44
0.98
0.02
7.37
-0.94
-4.99
-0.23
0.73
0.1
-0.16

>  <PUBCHEM_SHAPE_SELFOVERLAP>  (1) 
953.862

>  <PUBCHEM_SHAPE_VOLUME>  (1) 
252.7

>  <PUBCHEM_COORDINATE_TYPE>  (1) 
2
5
10

$$$$
