17079
     RDKit          3D

  8  7  0  0  0  0  0  0  0  0999 V2000
   -4.2834    0.5300   -0.0009 N   0  0  0  0  0  0  0  0  0  0  0  0
    4.1647    0.6103   -0.0209 N   0  0  0  0  0  0  0  0  0  0  0  0
   -0.6414   -0.5837   -0.0077 C   0  0  0  0  0  0  0  0  0  0  0  0
   -1.8375    0.3716    0.0002 C   0  0  0  0  0  0  0  0  0  0  0  0
    0.6834    0.1849    0.0455 C   0  0  0  0  0  0  0  0  0  0  0  0
   -3.1579   -0.3967   -0.0173 C   0  0  0  0  0  0  0  0  0  0  0  0
    1.9052   -0.7343    0.0089 C   0  0  0  0  0  0  0  0  0  0  0  0
    3.1671    0.0179   -0.0076 C   0  0  0  0  0  0  0  0  0  0  0  0
  1  6  1  0
  2  8  3  0
  3  4  1  0
  3  5  1  0
  4  6  1  0
  5  7  1  0
  7  8  1  0
M  END
>  <PUBCHEM_COMPOUND_CID>  (1) 
17079

>  <PUBCHEM_CONFORMER_RMSD>  (1) 
0.6

>  <PUBCHEM_CONFORMER_DIVERSEORDER>  (1) 
2
25
6
24
21
4
15
23
3
9
14
22
5
13
18
12
8
26
20
10
7
1
17
11
19
16

>  <PUBCHEM_MMFF94_PARTIAL_CHARGES>  (1) 
7
1 -0.99
19 0.36
2 -0.56
20 0.36
6 0.27
7 0.2
8 0.36

>  <PUBCHEM_EFFECTIVE_ROTOR_COUNT>  (1) 
4

>  <PUBCHEM_PHARMACOPHORE_FEATURES>  (1) 
4
1 1 cation
1 1 donor
1 2 acceptor
4 3 4 5 7 hydrophobe

>  <PUBCHEM_HEAVY_ATOM_COUNT>  (1) 
8

>  <PUBCHEM_ATOM_DEF_STEREO_COUNT>  (1) 
0

>  <PUBCHEM_ATOM_UDEF_STEREO_COUNT>  (1) 
0

>  <PUBCHEM_BOND_DEF_STEREO_COUNT>  (1) 
0

>  <PUBCHEM_BOND_UDEF_STEREO_COUNT>  (1) 
0

>  <PUBCHEM_ISOTOPIC_ATOM_COUNT>  (1) 
0

>  <PUBCHEM_COMPONENT_COUNT>  (1) 
1

>  <PUBCHEM_CACTVS_TAUTO_COUNT>  (1) 
1

>  <PUBCHEM_CONFORMER_ID>  (1) 
000042B700000002

>  <PUBCHEM_MMFF94_ENERGY>  (1) 
-3.2877

>  <PUBCHEM_FEATURE_SELFOVERLAP>  (1) 
20.297

>  <PUBCHEM_SHAPE_FINGERPRINT>  (1) 
11062470 55 18410293609702205507
12932764 1 15769482136808185799
14325111 11 18410573963766512811
177051 138 8142088667195585888
20645477 70 18129664088719770439
20719005 15 18410293618366077586
21293036 1 17274823566763135466
5460574 1 9223229650162418762

>  <PUBCHEM_SHAPE_MULTIPOLES>  (1) 
154.67
7.91
0.82
0.6
0.59
0.05
0
-1.59
-0.07
-0.05
0
0
0.01
-0.01

>  <PUBCHEM_SHAPE_SELFOVERLAP>  (1) 
273.161

>  <PUBCHEM_SHAPE_VOLUME>  (1) 
98

>  <PUBCHEM_COORDINATE_TYPE>  (1) 
2
5
10

$$$$
