17071
     RDKit          3D

 11 10  0  0  0  0  0  0  0  0999 V2000
   -1.6847   -1.8144   -0.0890 Cl  0  0  0  0  0  0  0  0  0  0  0  0
   -2.9866    0.8023    0.4561 Cl  0  0  0  0  0  0  0  0  0  0  0  0
   -1.4181    0.3873   -1.9147 Cl  0  0  0  0  0  0  0  0  0  0  0  0
   -0.4141    1.2007    1.5249 O   0  0  0  0  0  0  0  0  0  0  0  0
    0.9661   -0.0064    0.1403 N   0  0  0  0  0  0  0  0  0  0  0  0
    1.3049   -1.2786   -0.4967 C   0  0  0  0  0  0  0  0  0  0  0  0
    2.1124    0.8801    0.3278 C   0  0  0  0  0  0  0  0  0  0  0  0
   -0.2989    0.4290    0.5620 C   0  0  0  0  0  0  0  0  0  0  0  0
    1.6580   -2.3360    0.5287 C   0  0  0  0  0  0  0  0  0  0  0  0
    2.3186    1.7818   -0.8718 C   0  0  0  0  0  0  0  0  0  0  0  0
   -1.5574   -0.0458   -0.1676 C   0  0  0  0  0  0  0  0  0  0  0  0
  1 11  1  0
  2 11  1  0
  3 11  1  0
  4  8  2  0
  5  6  1  0
  5  7  1  0
  5  8  1  0
  6  9  1  0
  7 10  1  0
  8 11  1  0
M  END
>  <PUBCHEM_COMPOUND_CID>  (1) 
17071

>  <PUBCHEM_CONFORMER_RMSD>  (1) 
0.6

>  <PUBCHEM_CONFORMER_DIVERSEORDER>  (1) 
1
5
2
8
7
6
3
4

>  <PUBCHEM_MMFF94_PARTIAL_CHARGES>  (1) 
9
1 -0.29
11 0.93
2 -0.29
3 -0.29
4 -0.57
5 -0.66
6 0.3
7 0.3
8 0.57

>  <PUBCHEM_EFFECTIVE_ROTOR_COUNT>  (1) 
4

>  <PUBCHEM_PHARMACOPHORE_FEATURES>  (1) 
1
1 4 acceptor

>  <PUBCHEM_HEAVY_ATOM_COUNT>  (1) 
11

>  <PUBCHEM_ATOM_DEF_STEREO_COUNT>  (1) 
0

>  <PUBCHEM_ATOM_UDEF_STEREO_COUNT>  (1) 
0

>  <PUBCHEM_BOND_DEF_STEREO_COUNT>  (1) 
0

>  <PUBCHEM_BOND_UDEF_STEREO_COUNT>  (1) 
0

>  <PUBCHEM_ISOTOPIC_ATOM_COUNT>  (1) 
0

>  <PUBCHEM_COMPONENT_COUNT>  (1) 
1

>  <PUBCHEM_CACTVS_TAUTO_COUNT>  (1) 
1

>  <PUBCHEM_CONFORMER_ID>  (1) 
000042AF00000001

>  <PUBCHEM_MMFF94_ENERGY>  (1) 
28.7433

>  <PUBCHEM_FEATURE_SELFOVERLAP>  (1) 
5.074

>  <PUBCHEM_SHAPE_FINGERPRINT>  (1) 
12423570 1 17894628184067080645
12897270 3 18191299583857222077
12932764 1 17530955899981078176
13380535 21 18339939193815210795
14817 1 15866573338768235062
15775835 57 17969790872162384380
16945 1 18335411340248855630
19786989 88 18114455747126643797
20082192 1 18042380526558588113
21501502 16 18411414033900655919
23211744 25 17983855867527182216
23211744 41 17240754129361100672
23235687 12 18041271144964155565
23552333 60 18201160949101684578
23552423 10 18410576179938034555
241688 4 16903574272961777395
5084963 1 17970611107693922816
528862 383 18339083696301088731

>  <PUBCHEM_SHAPE_MULTIPOLES>  (1) 
221.13
3.65
2.17
1.32
0.6
1.12
-0.35
-0.87
-0.05
-1.16
0.02
0.44
-0.46
-0.39

>  <PUBCHEM_SHAPE_SELFOVERLAP>  (1) 
389.959

>  <PUBCHEM_SHAPE_VOLUME>  (1) 
145.9

>  <PUBCHEM_COORDINATE_TYPE>  (1) 
2
5
10

$$$$
