17087
     RDKit          3D

 14 15  0  0  0  0  0  0  0  0999 V2000
    3.2284   -0.5741   -0.6013 O   0  0  0  0  0  0  0  0  0  0  0  0
    0.4817   -1.7400   -0.1534 N   0  0  0  0  0  0  0  0  0  0  0  0
   -4.9842    0.3625   -0.2621 N   0  0  0  0  0  0  0  0  0  0  0  0
   -1.3541   -0.5907    0.3317 C   0  0  0  0  0  0  0  0  0  0  0  0
   -0.2756    0.3283    0.2007 C   0  0  0  0  0  0  0  0  0  0  0  0
    0.8645   -0.4186   -0.1040 C   0  0  0  0  0  0  0  0  0  0  0  0
   -2.7578   -0.2589    0.6500 C   0  0  0  0  0  0  0  0  0  0  0  0
   -0.8571   -1.8541    0.1087 C   0  0  0  0  0  0  0  0  0  0  0  0
    2.1198    0.1669   -0.3036 C   0  0  0  0  0  0  0  0  0  0  0  0
   -0.1595    1.7281    0.3121 C   0  0  0  0  0  0  0  0  0  0  0  0
   -3.6106    0.0091   -0.6036 C   0  0  0  0  0  0  0  0  0  0  0  0
    2.2107    1.5570   -0.1879 C   0  0  0  0  0  0  0  0  0  0  0  0
    1.0899    2.3275    0.1150 C   0  0  0  0  0  0  0  0  0  0  0  0
    4.0038   -1.0431    0.4977 C   0  0  0  0  0  0  0  0  0  0  0  0
  1  9  1  0
  1 14  1  0
  2  6  1  0
  2  8  1  0
  3 11  1  0
  4  5  1  0
  4  7  1  0
  4  8  2  0
  5  6  2  0
  5 10  1  0
  6  9  1  0
  7 11  1  0
  9 12  2  0
 10 13  2  0
 12 13  1  0
M  END
>  <PUBCHEM_COMPOUND_CID>  (1) 
17087

>  <PUBCHEM_CONFORMER_RMSD>  (1) 
0.6

>  <PUBCHEM_CONFORMER_DIVERSEORDER>  (1) 
1
8
4
7
9
6
5
2
3

>  <PUBCHEM_MMFF94_PARTIAL_CHARGES>  (1) 
20
1 -0.36
10 -0.15
11 0.27
12 -0.15
13 -0.15
14 0.28
17 0.15
18 0.27
19 0.15
2 0.03
22 0.15
23 0.15
24 0.36
25 0.36
3 -0.99
4 -0.18
6 -0.15
7 0.18
8 -0.3
9 0.08

>  <PUBCHEM_EFFECTIVE_ROTOR_COUNT>  (1) 
3

>  <PUBCHEM_PHARMACOPHORE_FEATURES>  (1) 
7
1 1 acceptor
1 2 cation
1 2 donor
1 3 cation
1 3 donor
5 2 4 5 6 8 rings
6 5 6 9 10 12 13 rings

>  <PUBCHEM_HEAVY_ATOM_COUNT>  (1) 
14

>  <PUBCHEM_ATOM_DEF_STEREO_COUNT>  (1) 
0

>  <PUBCHEM_ATOM_UDEF_STEREO_COUNT>  (1) 
0

>  <PUBCHEM_BOND_DEF_STEREO_COUNT>  (1) 
0

>  <PUBCHEM_BOND_UDEF_STEREO_COUNT>  (1) 
0

>  <PUBCHEM_ISOTOPIC_ATOM_COUNT>  (1) 
0

>  <PUBCHEM_COMPONENT_COUNT>  (1) 
1

>  <PUBCHEM_CACTVS_TAUTO_COUNT>  (1) 
1

>  <PUBCHEM_CONFORMER_ID>  (1) 
000042BF00000001

>  <PUBCHEM_MMFF94_ENERGY>  (1) 
27.3268

>  <PUBCHEM_FEATURE_SELFOVERLAP>  (1) 
35.612

>  <PUBCHEM_SHAPE_FINGERPRINT>  (1) 
10130415 120 18407760339507457482
11401426 45 18343857805890560363
11471102 20 18410854373833946789
124424 183 18186522098534303363
12654215 9 18408038520102086997
13571099 22 18341898523293178028
13690532 89 18410855434437706706
13922767 16 18411979178196983857
14251717 144 18342175557574385111
14648413 74 18120376720252951688
14911166 2 18411144631765524878
14993402 34 18341337738108794974
15219456 202 18262522623211223353
15279308 100 18264775530794324013
15848700 24 18272371940935341996
16945 1 18341910575040021378
18186145 218 18271256009658233513
18511873 20 18408322202565309234
193761 8 17907863151601816706
20233049 118 18187363207649508037
20511035 2 18124039189311224166
20606313 2 18412263943308534349
20645476 183 17751662045967303214
20645477 70 18412266155090273263
21029758 11 18343865506925457152
21130352 189 18409167735597055540
21501502 16 18123468538265293191
2334 1 18051981608089782066
23402539 116 18200866292775546270
23402655 69 18343017796793626349
23419403 2 17629731579388053624
23463225 33 18409453583209026802
23552423 10 17976265960578190380
23557571 272 14045473232141365627
23559900 14 18341902935242813356
25 1 18407758132142226063
2748010 2 18124044678168684438
3060560 45 18342734105270945327
34934 24 18339357582624403732
4072396 5 18264474118537344402
528886 8 18340486763232067985
53812654 25 18131348626769803228
63268167 104 18269002044822471665
74978 22 18338800146733893731
81228 2 18196389021762040792

>  <PUBCHEM_SHAPE_MULTIPOLES>  (1) 
272.28
6.43
2.01
0.73
4.37
0.55
-0.02
-0.67
0.55
-1.01
-0.11
0.05
-0.01
-0.01

>  <PUBCHEM_SHAPE_SELFOVERLAP>  (1) 
580.602

>  <PUBCHEM_SHAPE_VOLUME>  (1) 
153.8

>  <PUBCHEM_COORDINATE_TYPE>  (1) 
2
5
10

$$$$
