17088
     RDKit          3D

 12 13  0  0  0  0  0  0  0  0999 V2000
   -1.4104    2.0687    0.0000 O   0  0  0  0  0  0  0  0  0  0  0  0
   -2.0143   -0.1830    0.0000 N   0  0  0  0  0  0  0  0  0  0  0  0
   -0.3557   -1.8867    0.0002 N   0  0  0  0  0  0  0  0  0  0  0  0
    0.3185    0.4766    0.0002 C   0  0  0  0  0  0  0  0  0  0  0  0
    0.6334   -0.8889    0.0001 C   0  0  0  0  0  0  0  0  0  0  0  0
   -1.1067    0.8796    0.0004 C   0  0  0  0  0  0  0  0  0  0  0  0
    1.3277    1.4452    0.0001 C   0  0  0  0  0  0  0  0  0  0  0  0
   -1.5884   -1.4987    0.0001 C   0  0  0  0  0  0  0  0  0  0  0  0
    1.9798   -1.2701   -0.0002 C   0  0  0  0  0  0  0  0  0  0  0  0
   -3.4380    0.1156   -0.0006 C   0  0  0  0  0  0  0  0  0  0  0  0
    2.6641    1.0483   -0.0002 C   0  0  0  0  0  0  0  0  0  0  0  0
    2.9902   -0.3067   -0.0003 C   0  0  0  0  0  0  0  0  0  0  0  0
  1  6  2  0
  2  6  1  0
  2  8  1  0
  2 10  1  0
  3  5  1  0
  3  8  2  0
  4  5  2  0
  4  6  1  0
  4  7  1  0
  5  9  1  0
  7 11  2  0
  9 12  2  0
 11 12  1  0
M  END
>  <PUBCHEM_COMPOUND_CID>  (1) 
17088

>  <PUBCHEM_CONFORMER_RMSD>  (1) 
0.4

>  <PUBCHEM_CONFORMER_DIVERSEORDER>  (1) 
1

>  <PUBCHEM_MMFF94_PARTIAL_CHARGES>  (1) 
17
1 -0.57
10 0.3
11 -0.15
12 -0.15
13 0.15
14 0.06
15 0.15
19 0.15
2 -0.42
20 0.15
3 -0.63
4 0.09
5 0.18
6 0.54
7 -0.15
8 0.45
9 -0.15

>  <PUBCHEM_EFFECTIVE_ROTOR_COUNT>  (1) 
0

>  <PUBCHEM_PHARMACOPHORE_FEATURES>  (1) 
3
1 1 acceptor
6 2 3 4 5 6 8 rings
6 4 5 7 9 11 12 rings

>  <PUBCHEM_HEAVY_ATOM_COUNT>  (1) 
12

>  <PUBCHEM_ATOM_DEF_STEREO_COUNT>  (1) 
0

>  <PUBCHEM_ATOM_UDEF_STEREO_COUNT>  (1) 
0

>  <PUBCHEM_BOND_DEF_STEREO_COUNT>  (1) 
0

>  <PUBCHEM_BOND_UDEF_STEREO_COUNT>  (1) 
0

>  <PUBCHEM_ISOTOPIC_ATOM_COUNT>  (1) 
0

>  <PUBCHEM_COMPONENT_COUNT>  (1) 
1

>  <PUBCHEM_CACTVS_TAUTO_COUNT>  (1) 
1

>  <PUBCHEM_CONFORMER_ID>  (1) 
000042C000000001

>  <PUBCHEM_MMFF94_ENERGY>  (1) 
29.83

>  <PUBCHEM_FEATURE_SELFOVERLAP>  (1) 
15.253

>  <PUBCHEM_SHAPE_FINGERPRINT>  (1) 
10967382 1 18410855468718102887
11206711 2 18337391526399463365
11471102 20 18410288091101824957
12032990 46 18337399334940345771
12423570 1 12099124452990783042
12524768 44 18412268362666501038
12897270 3 18410856594126193524
13380535 76 18411697707626315510
13897977 150 18268143339221084209
14325111 11 18410856572640924389
15775835 57 18411989091118730960
16945 1 18410575093432452518
17844478 74 18041006150140872129
193761 8 17618222810606105765
19973954 147 18410577288255634356
20201158 50 18412544310083618174
20871998 184 18129386067033694743
21040471 1 18410855417590016928
21501502 16 18339358694562075470
23235685 24 18410568509110463709
2334 1 17978229692250079362
23402539 116 18342443846684875711
23402655 69 18341601608631738269
23463225 33 18335417911907670474
23552423 10 18189053268933018974
23559900 14 18199756835275033558
2748010 2 18123189279523245230
5084963 1 18130505245226638922
528886 8 18411414054990104346
53812653 166 18271521009103636224

>  <PUBCHEM_SHAPE_MULTIPOLES>  (1) 
231.12
4.36
1.9
0.59
0.72
0.04
0
0.28
0
0.1
0
-0.03
0
0

>  <PUBCHEM_SHAPE_SELFOVERLAP>  (1) 
502.157

>  <PUBCHEM_SHAPE_VOLUME>  (1) 
125.6

>  <PUBCHEM_COORDINATE_TYPE>  (1) 
2
5
10

$$$$
