17094
     RDKit          3D

 11 11  0  0  0  0  0  0  0  0999 V2000
    0.0002    3.0546   -0.0007 Br  0  0  0  0  0  0  0  0  0  0  0  0
    2.8274   -1.9282   -0.0007 Br  0  0  0  0  0  0  0  0  0  0  0  0
   -2.8277   -1.9278   -0.0001 Br  0  0  0  0  0  0  0  0  0  0  0  0
   -2.3928    1.1326   -0.0005 O   0  0  0  0  0  0  0  0  0  0  0  0
    2.3930    1.1324    0.0002 O   0  0  0  0  0  0  0  0  0  0  0  0
   -1.2079    0.4535    0.0004 C   0  0  0  0  0  0  0  0  0  0  0  0
    1.2081    0.4535    0.0005 C   0  0  0  0  0  0  0  0  0  0  0  0
    0.0001    1.1510    0.0006 C   0  0  0  0  0  0  0  0  0  0  0  0
    1.2079   -0.9415    0.0001 C   0  0  0  0  0  0  0  0  0  0  0  0
   -1.2081   -0.9413    0.0001 C   0  0  0  0  0  0  0  0  0  0  0  0
   -0.0002   -1.6388    0.0000 C   0  0  0  0  0  0  0  0  0  0  0  0
  1  8  1  0
  2  9  1  0
  3 10  1  0
  4  6  1  0
  5  7  1  0
  6  8  2  0
  6 10  1  0
  7  8  1  0
  7  9  2  0
  9 11  1  0
 10 11  2  0
M  END
>  <PUBCHEM_COMPOUND_CID>  (1) 
17094

>  <PUBCHEM_CONFORMER_RMSD>  (1) 
0.4

>  <PUBCHEM_CONFORMER_DIVERSEORDER>  (1) 
1

>  <PUBCHEM_MMFF94_PARTIAL_CHARGES>  (1) 
14
1 -0.11
10 0.11
11 -0.15
12 0.15
13 0.45
14 0.45
2 -0.11
3 -0.11
4 -0.53
5 -0.53
6 0.08
7 0.08
8 0.11
9 0.11

>  <PUBCHEM_EFFECTIVE_ROTOR_COUNT>  (1) 
0

>  <PUBCHEM_PHARMACOPHORE_FEATURES>  (1) 
6
1 1 hydrophobe
1 2 hydrophobe
1 3 hydrophobe
1 4 donor
1 5 donor
6 6 7 8 9 10 11 rings

>  <PUBCHEM_HEAVY_ATOM_COUNT>  (1) 
11

>  <PUBCHEM_ATOM_DEF_STEREO_COUNT>  (1) 
0

>  <PUBCHEM_ATOM_UDEF_STEREO_COUNT>  (1) 
0

>  <PUBCHEM_BOND_DEF_STEREO_COUNT>  (1) 
0

>  <PUBCHEM_BOND_UDEF_STEREO_COUNT>  (1) 
0

>  <PUBCHEM_ISOTOPIC_ATOM_COUNT>  (1) 
0

>  <PUBCHEM_COMPONENT_COUNT>  (1) 
1

>  <PUBCHEM_CACTVS_TAUTO_COUNT>  (1) 
5

>  <PUBCHEM_CONFORMER_ID>  (1) 
000042C600000001

>  <PUBCHEM_MMFF94_ENERGY>  (1) 
23.7766

>  <PUBCHEM_FEATURE_SELFOVERLAP>  (1) 
30.446

>  <PUBCHEM_SHAPE_FINGERPRINT>  (1) 
1 1 17833830855996997231
13140716 1 18410855417178729642
14817 1 14187587463404486174
16945 1 18410573989446496389
193761 8 18410575084663163365
20645477 70 17905036307671678071
20871998 184 18129377111947858726
21040471 1 18410855447259240064
21501502 16 18410859862475181287
2334 1 18410574015216449574
23402539 116 18053929668021808495
23526114 1 18411138051944361438
23552423 10 18333454248412160062
241688 4 18410292480110041219
2748010 2 18411978065811068686
7364860 26 18124597736733178344

>  <PUBCHEM_SHAPE_MULTIPOLES>  (1) 
232.46
3.71
3.26
0.64
0
1.95
0
-2.61
0
0
0
0
-0.03
0

>  <PUBCHEM_SHAPE_SELFOVERLAP>  (1) 
445.758

>  <PUBCHEM_SHAPE_VOLUME>  (1) 
149

>  <PUBCHEM_COORDINATE_TYPE>  (1) 
2
5
10

$$$$
