17098
     RDKit          3D

 13 13  0  0  0  0  0  0  0  0999 V2000
   -0.5530   -2.6368    0.0243 O   0  0  0  0  0  0  0  0  0  0  0  0
   -0.7377   -0.3073   -0.3351 N   0  0  0  0  0  0  0  0  0  0  0  0
   -1.6171    0.8300   -0.5782 C   0  0  0  0  0  0  0  0  0  0  0  0
   -2.0574    1.4516    0.7449 C   0  0  0  0  0  0  0  0  0  0  0  0
    0.6779   -0.0224   -0.1567 C   0  0  0  0  0  0  0  0  0  0  0  0
   -1.2296   -1.6262   -0.1826 C   0  0  0  0  0  0  0  0  0  0  0  0
   -2.9940    2.6285    0.5193 C   0  0  0  0  0  0  0  0  0  0  0  0
    1.3807   -0.8046    0.7154 C   0  0  0  0  0  0  0  0  0  0  0  0
    1.2163    1.0089   -0.8726 C   0  0  0  0  0  0  0  0  0  0  0  0
   -2.7319   -1.7819   -0.2413 C   0  0  0  0  0  0  0  0  0  0  0  0
    2.7379   -0.5320    0.8864 C   0  0  0  0  0  0  0  0  0  0  0  0
    2.5737    1.2813   -0.7016 C   0  0  0  0  0  0  0  0  0  0  0  0
    3.3343    0.5109    0.1779 C   0  0  0  0  0  0  0  0  0  0  0  0
  1  6  2  0
  2  3  1  0
  2  5  1  0
  2  6  1  0
  3  4  1  0
  4  7  1  0
  5  8  2  0
  5  9  1  0
  6 10  1  0
  8 11  1  0
  9 12  2  0
 11 13  2  0
 12 13  1  0
M  END
>  <PUBCHEM_COMPOUND_CID>  (1) 
17098

>  <PUBCHEM_CONFORMER_RMSD>  (1) 
0.6

>  <PUBCHEM_CONFORMER_DIVERSEORDER>  (1) 
2
5
21
12
11
16
13
14
17
20
19
4
9
8
18
6
3
1
15
10
7

>  <PUBCHEM_MMFF94_PARTIAL_CHARGES>  (1) 
16
1 -0.57
10 0.06
11 -0.15
12 -0.15
13 -0.15
2 -0.48
21 0.15
22 0.15
26 0.15
27 0.15
28 0.15
3 0.3
5 0.12
6 0.57
8 -0.15
9 -0.15

>  <PUBCHEM_EFFECTIVE_ROTOR_COUNT>  (1) 
4

>  <PUBCHEM_PHARMACOPHORE_FEATURES>  (1) 
3
1 1 acceptor
1 7 hydrophobe
6 5 8 9 11 12 13 rings

>  <PUBCHEM_HEAVY_ATOM_COUNT>  (1) 
13

>  <PUBCHEM_ATOM_DEF_STEREO_COUNT>  (1) 
0

>  <PUBCHEM_ATOM_UDEF_STEREO_COUNT>  (1) 
0

>  <PUBCHEM_BOND_DEF_STEREO_COUNT>  (1) 
0

>  <PUBCHEM_BOND_UDEF_STEREO_COUNT>  (1) 
0

>  <PUBCHEM_ISOTOPIC_ATOM_COUNT>  (1) 
0

>  <PUBCHEM_COMPONENT_COUNT>  (1) 
1

>  <PUBCHEM_CACTVS_TAUTO_COUNT>  (1) 
1

>  <PUBCHEM_CONFORMER_ID>  (1) 
000042CA00000002

>  <PUBCHEM_MMFF94_ENERGY>  (1) 
47.0742

>  <PUBCHEM_FEATURE_SELFOVERLAP>  (1) 
15.223

>  <PUBCHEM_SHAPE_FINGERPRINT>  (1) 
10465860 228 17693664718857466417
108231 29 17037267748826879226
12491281 212 18334581247951813440
13764800 53 18059584572245606873
13839132 238 18201726110900083108
14617773 55 18336261357194790839
15076042 46 18410854403582362623
15490181 8 18339642214085702471
15775835 57 18334863783527308040
15906896 17 18272364283045810503
16945 1 18267026248397576350
20510252 161 18271809076638699449
21501502 16 18408039615592943582
21524375 3 18128814140825386869
228727 97 17973737062080050420
23402539 116 18200020875992903191
23598294 1 18410581720482672497
2748010 2 16965182112979091726
276578 36 17984711021523120033
305870 269 17980483360585885865
3312278 4 17899977428305910026
353137 74 18043804497021823238
53812653 8 18337961198061059495
6333272 397 18267871592772794417
6992083 37 18187641367154137188
81228 2 18270129048873298499

>  <PUBCHEM_SHAPE_MULTIPOLES>  (1) 
256.68
4.97
2.56
0.92
0.94
0.35
-0.03
-1.89
-0.66
-2.61
-0.14
0.19
-0.18
-0.98

>  <PUBCHEM_SHAPE_SELFOVERLAP>  (1) 
519.805

>  <PUBCHEM_SHAPE_VOLUME>  (1) 
149.9

>  <PUBCHEM_COORDINATE_TYPE>  (1) 
2
5
10

$$$$
