17099
     RDKit          3D

 12 12  0  0  0  0  0  0  0  0999 V2000
    0.8087    2.2704    1.1904 O   0  0  0  0  0  0  0  0  0  0  0  0
    0.9230    2.3786   -1.0770 O   0  0  0  0  0  0  0  0  0  0  0  0
    1.5496   -0.8821   -0.0094 C   0  0  0  0  0  0  0  0  0  0  0  0
    0.0799   -0.6127   -0.0088 C   0  0  0  0  0  0  0  0  0  0  0  0
    2.0020   -1.6622   -1.2571 C   0  0  0  0  0  0  0  0  0  0  0  0
    2.0120   -1.6143    1.2634 C   0  0  0  0  0  0  0  0  0  0  0  0
   -0.4138    0.6917   -0.0324 C   0  0  0  0  0  0  0  0  0  0  0  0
   -0.8032   -1.6923    0.0150 C   0  0  0  0  0  0  0  0  0  0  0  0
   -1.7905    0.9164   -0.0324 C   0  0  0  0  0  0  0  0  0  0  0  0
   -2.1798   -1.4676    0.0150 C   0  0  0  0  0  0  0  0  0  0  0  0
   -2.6734   -0.1633   -0.0086 C   0  0  0  0  0  0  0  0  0  0  0  0
    0.4856    1.8372   -0.0580 C   0  0  0  0  0  0  0  0  0  0  0  0
  1 12  1  0
  2 12  2  0
  3  4  1  0
  3  5  1  0
  3  6  1  0
  4  7  2  0
  4  8  1  0
  7  9  1  0
  7 12  1  0
  8 10  2  0
  9 11  2  0
 10 11  1  0
M  END
>  <PUBCHEM_COMPOUND_CID>  (1) 
17099

>  <PUBCHEM_CONFORMER_RMSD>  (1) 
0.6

>  <PUBCHEM_CONFORMER_DIVERSEORDER>  (1) 
1
2

>  <PUBCHEM_MMFF94_PARTIAL_CHARGES>  (1) 
15
1 -0.65
10 -0.15
11 -0.15
12 0.63
2 -0.57
20 0.15
21 0.15
22 0.15
23 0.15
24 0.5
3 0.14
4 -0.14
7 0.09
8 -0.15
9 -0.15

>  <PUBCHEM_EFFECTIVE_ROTOR_COUNT>  (1) 
2

>  <PUBCHEM_PHARMACOPHORE_FEATURES>  (1) 
5
1 1 acceptor
1 2 acceptor
3 1 2 12 anion
3 3 5 6 hydrophobe
6 4 7 8 9 10 11 rings

>  <PUBCHEM_HEAVY_ATOM_COUNT>  (1) 
12

>  <PUBCHEM_ATOM_DEF_STEREO_COUNT>  (1) 
0

>  <PUBCHEM_ATOM_UDEF_STEREO_COUNT>  (1) 
0

>  <PUBCHEM_BOND_DEF_STEREO_COUNT>  (1) 
0

>  <PUBCHEM_BOND_UDEF_STEREO_COUNT>  (1) 
0

>  <PUBCHEM_ISOTOPIC_ATOM_COUNT>  (1) 
0

>  <PUBCHEM_COMPONENT_COUNT>  (1) 
1

>  <PUBCHEM_CACTVS_TAUTO_COUNT>  (1) 
1

>  <PUBCHEM_CONFORMER_ID>  (1) 
000042CB00000001

>  <PUBCHEM_MMFF94_ENERGY>  (1) 
36.9953

>  <PUBCHEM_FEATURE_SELFOVERLAP>  (1) 
25.429

>  <PUBCHEM_SHAPE_FINGERPRINT>  (1) 
1 1 17980480379725276900
12423570 1 11235169005030582442
12524768 44 18342735170027201830
14614273 12 17399230854930136156
14817 1 11290600256858844474
161256 15 18265345090982034063
16945 1 18262235646059717975
193761 8 18338236097685498039
20511035 2 18340758351552778791
20645477 70 18195525020788348239
20653091 64 18335987566115123987
20711985 344 17908713829898947102
21040471 1 17402049397074341037
21930827 45 17264129463379351794
23419403 2 15756460719653967727
23552423 10 18189897702537617967
241688 4 18196378009075419299
2748010 2 18339073779242597327
4369600 1 18335992986337906286
5084963 1 17262741261108423529
528862 383 18264481969784826075
54338 74 18191587441144693923
7364860 26 18200879607232075415
81228 2 17979638926870244345

>  <PUBCHEM_SHAPE_MULTIPOLES>  (1) 
235.22
3.05
2.66
1.04
0.36
1.62
0.03
-1.72
-0.01
-0.29
-0.02
0.69
0.13
0.01

>  <PUBCHEM_SHAPE_SELFOVERLAP>  (1) 
486.686

>  <PUBCHEM_SHAPE_VOLUME>  (1) 
135.4

>  <PUBCHEM_COORDINATE_TYPE>  (1) 
2
5
10

$$$$
