17112
     RDKit          3D

 15 14  0  0  0  0  0  0  0  0999 V2000
    2.1667    1.1991    0.0156 P   0  0  0  0  0  0  0  0  0  0  0  0
   -2.2786    0.9152   -0.0143 P   0  0  0  0  0  0  0  0  0  0  0  0
    3.7197    0.9987    0.4264 O   0  0  0  0  0  0  0  0  0  0  0  0
    2.1922    0.9775   -1.5865 O   0  0  0  0  0  0  0  0  0  0  0  0
   -2.9580    2.2846    0.5177 O   0  0  0  0  0  0  0  0  0  0  0  0
   -1.9934    1.2432   -1.5720 O   0  0  0  0  0  0  0  0  0  0  0  0
    1.5790    2.5018    0.4695 O   0  0  0  0  0  0  0  0  0  0  0  0
   -3.1025   -0.3129    0.2338 O   0  0  0  0  0  0  0  0  0  0  0  0
    0.4487   -3.5259    0.7846 O   0  0  0  0  0  0  0  0  0  0  0  0
    0.1397   -2.7182   -1.3165 O   0  0  0  0  0  0  0  0  0  0  0  0
    0.0193   -0.2022    0.1881 N   0  0  0  0  0  0  0  0  0  0  0  0
    1.4063   -0.2860    0.6519 C   0  0  0  0  0  0  0  0  0  0  0  0
   -0.6668    0.9617    0.7536 C   0  0  0  0  0  0  0  0  0  0  0  0
   -0.6836   -1.4381    0.5527 C   0  0  0  0  0  0  0  0  0  0  0  0
    0.0112   -2.5984   -0.1046 C   0  0  0  0  0  0  0  0  0  0  0  0
  1  3  1  0
  1  4  1  0
  1  7  2  0
  1 12  1  0
  2  5  1  0
  2  6  1  0
  2  8  2  0
  2 13  1  0
  9 15  1  0
 10 15  2  0
 11 12  1  0
 11 13  1  0
 11 14  1  0
 14 15  1  0
M  END
>  <PUBCHEM_COMPOUND_CID>  (1) 
17112

>  <PUBCHEM_CONFORMER_RMSD>  (1) 
0.6

>  <PUBCHEM_CONFORMER_DIVERSEORDER>  (1) 
1
6
4
7
3
2
5
8

>  <PUBCHEM_MMFF94_PARTIAL_CHARGES>  (1) 
20
1 1.24
10 -0.57
11 -0.81
12 0.27
13 0.27
14 0.33
15 0.66
2 1.24
22 0.5
23 0.5
24 0.5
25 0.5
26 0.5
3 -0.77
4 -0.77
5 -0.77
6 -0.77
7 -0.7
8 -0.7
9 -0.65

>  <PUBCHEM_EFFECTIVE_ROTOR_COUNT>  (1) 
6

>  <PUBCHEM_PHARMACOPHORE_FEATURES>  (1) 
12
1 10 acceptor
1 11 cation
1 3 acceptor
1 4 acceptor
1 5 acceptor
1 6 acceptor
1 7 acceptor
1 8 acceptor
1 9 acceptor
3 9 10 15 anion
4 1 3 4 7 anion
4 2 5 6 8 anion

>  <PUBCHEM_HEAVY_ATOM_COUNT>  (1) 
15

>  <PUBCHEM_ATOM_DEF_STEREO_COUNT>  (1) 
0

>  <PUBCHEM_ATOM_UDEF_STEREO_COUNT>  (1) 
0

>  <PUBCHEM_BOND_DEF_STEREO_COUNT>  (1) 
0

>  <PUBCHEM_BOND_UDEF_STEREO_COUNT>  (1) 
0

>  <PUBCHEM_ISOTOPIC_ATOM_COUNT>  (1) 
0

>  <PUBCHEM_COMPONENT_COUNT>  (1) 
1

>  <PUBCHEM_CACTVS_TAUTO_COUNT>  (1) 
1

>  <PUBCHEM_CONFORMER_ID>  (1) 
000042D800000001

>  <PUBCHEM_MMFF94_ENERGY>  (1) 
-14.0644

>  <PUBCHEM_FEATURE_SELFOVERLAP>  (1) 
61.036

>  <PUBCHEM_SHAPE_FINGERPRINT>  (1) 
1 1 18337104558148959678
14817 1 13933899439092954526
15775835 57 18260266369126601064
16945 1 18121513597985160289
20645476 183 17968956291471010566
20671657 1 18052826849301096721
20711985 344 17978794837248481922
21041028 32 17403178093068417985
21524375 3 18334292084677512451
23402539 116 18200018689659376965
23419403 2 16529269904713685874
23552423 10 18195810661470963251
23557571 272 17692541426058978372
23559900 14 18342746256614627116
2748010 2 18410582764286169898
305870 269 18339077077656434224
3060560 45 18338222813072382349
7364860 26 18125440804617266145
81228 2 17834107928611052635

>  <PUBCHEM_SHAPE_MULTIPOLES>  (1) 
264.46
4.14
3.49
1.12
0.44
3.11
0.48
-3.44
-0.02
-0.09
-0.11
0.07
0
-0.02

>  <PUBCHEM_SHAPE_SELFOVERLAP>  (1) 
486.483

>  <PUBCHEM_SHAPE_VOLUME>  (1) 
168.3

>  <PUBCHEM_COORDINATE_TYPE>  (1) 
2
5
10

$$$$
