17122
     RDKit          3D

 24 28  0  0  0  0  0  0  0  0999 V2000
    2.7025    0.6316   -0.3562 O   0  0  0  0  0  0  0  0  0  0  0  0
   -1.9356    0.4290    0.9734 O   0  0  0  0  0  0  0  0  0  0  0  0
    0.9569   -0.4987    0.5447 N   0  0  0  0  0  0  0  0  0  0  0  0
   -1.8324    0.2910   -1.2865 N   0  0  0  0  0  0  0  0  0  0  0  0
    0.7857    1.9397    0.0850 C   0  0  0  0  0  0  0  0  0  0  0  0
   -0.5995    2.0750   -0.0683 C   0  0  0  0  0  0  0  0  0  0  0  0
    1.4260    0.6538    0.1198 C   0  0  0  0  0  0  0  0  0  0  0  0
   -1.4589    0.9182   -0.2006 C   0  0  0  0  0  0  0  0  0  0  0  0
    3.0745   -0.6747   -0.2160 C   0  0  0  0  0  0  0  0  0  0  0  0
   -2.6992   -0.6329    0.5813 C   0  0  0  0  0  0  0  0  0  0  0  0
    2.0041   -1.3631    0.3355 C   0  0  0  0  0  0  0  0  0  0  0  0
   -2.6338   -0.7142   -0.8018 C   0  0  0  0  0  0  0  0  0  0  0  0
    1.5763    3.0881    0.2087 C   0  0  0  0  0  0  0  0  0  0  0  0
   -1.1851    3.3409   -0.0969 C   0  0  0  0  0  0  0  0  0  0  0  0
    0.9906    4.3538    0.1798 C   0  0  0  0  0  0  0  0  0  0  0  0
   -0.3900    4.4802    0.0270 C   0  0  0  0  0  0  0  0  0  0  0  0
    4.2948   -1.2470   -0.5531 C   0  0  0  0  0  0  0  0  0  0  0  0
   -3.4248   -1.4973    1.3917 C   0  0  0  0  0  0  0  0  0  0  0  0
    2.1364   -2.7373    0.5814 C   0  0  0  0  0  0  0  0  0  0  0  0
   -3.3418   -1.7331   -1.4551 C   0  0  0  0  0  0  0  0  0  0  0  0
    4.4104   -2.6184   -0.3018 C   0  0  0  0  0  0  0  0  0  0  0  0
   -4.1253   -2.5081    0.7245 C   0  0  0  0  0  0  0  0  0  0  0  0
    3.3543   -3.3509    0.2540 C   0  0  0  0  0  0  0  0  0  0  0  0
   -4.0862   -2.6257   -0.6704 C   0  0  0  0  0  0  0  0  0  0  0  0
  1  7  1  0
  1  9  1  0
  2  8  1  0
  2 10  1  0
  3  7  2  0
  3 11  1  0
  4  8  2  0
  4 12  1  0
  5  6  1  0
  5  7  1  0
  5 13  2  0
  6  8  1  0
  6 14  2  0
  9 11  2  0
  9 17  1  0
 10 12  2  0
 10 18  1  0
 11 19  1  0
 12 20  1  0
 13 15  1  0
 14 16  1  0
 15 16  2  0
 17 21  2  0
 18 22  2  0
 19 23  2  0
 20 24  2  0
 21 23  1  0
 22 24  1  0
M  END
>  <PUBCHEM_COMPOUND_CID>  (1) 
17122

>  <PUBCHEM_CONFORMER_RMSD>  (1) 
0.6

>  <PUBCHEM_CONFORMER_DIVERSEORDER>  (1) 
1
9
10
8
3
2
4
5
11
12
6
7

>  <PUBCHEM_MMFF94_PARTIAL_CHARGES>  (1) 
36
1 -0.28
10 0.14
11 0.23
12 0.23
13 -0.15
14 -0.15
15 -0.15
16 -0.15
17 -0.15
18 -0.15
19 -0.15
2 -0.28
20 -0.15
21 -0.15
22 -0.15
23 -0.15
24 -0.15
25 0.15
26 0.15
27 0.15
28 0.15
29 0.15
3 -0.57
30 0.15
31 0.15
32 0.15
33 0.15
34 0.15
35 0.15
36 0.15
4 -0.57
5 0.05
6 0.05
7 0.43
8 0.43
9 0.14

>  <PUBCHEM_EFFECTIVE_ROTOR_COUNT>  (1) 
2

>  <PUBCHEM_PHARMACOPHORE_FEATURES>  (1) 
5
5 1 3 7 9 11 rings
5 2 4 8 10 12 rings
6 10 12 18 20 22 24 rings
6 5 6 13 14 15 16 rings
6 9 11 17 19 21 23 rings

>  <PUBCHEM_HEAVY_ATOM_COUNT>  (1) 
24

>  <PUBCHEM_ATOM_DEF_STEREO_COUNT>  (1) 
0

>  <PUBCHEM_ATOM_UDEF_STEREO_COUNT>  (1) 
0

>  <PUBCHEM_BOND_DEF_STEREO_COUNT>  (1) 
0

>  <PUBCHEM_BOND_UDEF_STEREO_COUNT>  (1) 
0

>  <PUBCHEM_ISOTOPIC_ATOM_COUNT>  (1) 
0

>  <PUBCHEM_COMPONENT_COUNT>  (1) 
1

>  <PUBCHEM_CACTVS_TAUTO_COUNT>  (1) 
1

>  <PUBCHEM_CONFORMER_ID>  (1) 
000042E200000001

>  <PUBCHEM_MMFF94_ENERGY>  (1) 
57.6437

>  <PUBCHEM_FEATURE_SELFOVERLAP>  (1) 
25.612

>  <PUBCHEM_SHAPE_FINGERPRINT>  (1) 
10064457 181 16969147523298264433
10411042 1 18410856551129723322
10616163 171 18050852109327704934
11049842 53 14926711993921231371
114674 6 18044654432474579003
11578080 2 17702923890779143113
12107183 9 18270135560734965731
12553582 1 18410011018081906091
12788726 201 17975684005326068675
13004483 165 18267295448384024963
13140716 1 18340488842302525808
13533116 47 18054511585210958315
138480 1 14735637350689673226
13911987 19 17827941816491079860
14251757 5 18121218675592504908
14767858 380 18190761884944923462
14787075 74 18188497985960516198
14844126 61 17976252444195265474
14863182 85 17976259354882170204
14866123 147 18051411760935653393
15042514 8 18122632651951782657
15131766 46 15869193548524465406
16719943 64 16897646784454964490
16728300 4 17465331604734648776
17859628 97 16535950309725861802
1813 80 18200892741178964959
18915476 22 17976522138487645925
19591789 44 17256532344721360048
19930381 70 18193278713414089747
20028762 73 17840020737949490829
20101258 96 18339652143939080682
20291156 8 18412826875887329823
20645477 70 17975677696335706351
20775438 99 17763130957388849549
21133410 171 17324587355800745587
21133410 38 17116379792590897891
21452121 199 18335688447655328592
21583282 1 17607564325450321957
21731228 192 10303807704845702935
2255824 54 18124598849103373285
22849339 104 17693395347124710390
23559900 14 18338223990357248579
23598288 3 18195259818761454316
23728640 28 17689993432008977234
3091708 16 9138334162648459320
3421961 26 18339082721533332267
4017518 198 16396316739519497078
458136 41 17760938737155563569
46194498 28 17387126688393100143
463206 1 18334861653202859107
5265222 85 16754105533391500070
5309563 4 18410858780312779975
5364581 5 17980732997909107122
613672 6 18266437906371251866
6443956 14 18336546135418401949
6669772 16 17764597912317364252
70251023 43 18338509846153570011
7097593 13 18270977854939234361
81228 2 18123164836975744345
8272917 22 17979357787613282077
9709674 26 17766275376039620806

>  <PUBCHEM_SHAPE_MULTIPOLES>  (1) 
472.21
7.55
5.77
1.01
0.18
5.95
-0.06
-10.46
-0.56
1.5
0.35
-0.89
-0.47
0.02

>  <PUBCHEM_SHAPE_SELFOVERLAP>  (1) 
1089.304

>  <PUBCHEM_SHAPE_VOLUME>  (1) 
244.8

>  <PUBCHEM_COORDINATE_TYPE>  (1) 
2
5
10

$$$$
