17133
     RDKit          3D

 25 30  0  0  1  0  0  0  0  0999 V2000
    4.5243    1.3765    1.5383 O   0  0  0  0  0  0  0  0  0  0  0  0
    5.7506   -0.3889    0.4739 O   0  0  0  0  0  0  0  0  0  0  0  0
   -4.5529    1.6206    0.0210 O   0  0  0  0  0  0  0  0  0  0  0  0
   -5.8324   -0.2981    0.7023 O   0  0  0  0  0  0  0  0  0  0  0  0
   -0.3647    1.4254   -0.7604 N   0  0  0  0  0  0  0  0  0  0  0  0
    1.8058    0.3297   -0.8823 C   0  0  0  0  0  0  0  0  0  0  0  0
    2.4304   -1.0758   -1.2172 C   0  0  0  0  0  0  0  0  0  0  0  0
    0.3183    0.2760   -0.6271 C   0  0  0  0  0  0  0  0  0  0  0  0
   -0.3619   -0.8913   -0.2369 C   0  0  0  0  0  0  0  0  0  0  0  0
    2.5196    1.0811    0.2323 C   0  0  0  0  0  0  0  0  0  0  0  0
    1.6692   -2.2226   -0.5981 C   0  0  0  0  0  0  0  0  0  0  0  0
    3.8991   -1.1908   -0.8456 C   0  0  0  0  0  0  0  0  0  0  0  0
   -1.7616   -0.8315    0.0260 C   0  0  0  0  0  0  0  0  0  0  0  0
    0.4175   -2.1325   -0.1314 C   0  0  0  0  0  0  0  0  0  0  0  0
   -2.4121    0.4177   -0.1286 C   0  0  0  0  0  0  0  0  0  0  0  0
    3.7544    0.7338    0.6098 C   0  0  0  0  0  0  0  0  0  0  0  0
    4.4644   -0.3380    0.0149 C   0  0  0  0  0  0  0  0  0  0  0  0
   -1.6747    1.5293   -0.5288 C   0  0  0  0  0  0  0  0  0  0  0  0
   -3.7805    0.4994    0.1221 C   0  0  0  0  0  0  0  0  0  0  0  0
    0.2852    2.6584   -1.2255 C   0  0  0  0  0  0  0  0  0  0  0  0
   -2.5669   -1.9419    0.4285 C   0  0  0  0  0  0  0  0  0  0  0  0
   -4.5182   -0.5920    0.5109 C   0  0  0  0  0  0  0  0  0  0  0  0
    5.7743    0.6753    1.4388 C   0  0  0  0  0  0  0  0  0  0  0  0
   -3.9404   -1.8276    0.6725 C   0  0  0  0  0  0  0  0  0  0  0  0
   -5.8472    1.1077    0.3907 C   0  0  0  0  0  0  0  0  0  0  0  0
  1 16  1  0
  1 23  1  0
  2 17  1  0
  2 23  1  0
  3 19  1  0
  3 25  1  0
  4 22  1  0
  4 25  1  0
  5  8  1  0
  5 18  2  0
  5 20  1  0
  6  7  1  0
  6  8  1  0
  6 10  1  0
  7 11  1  0
  7 12  1  0
  8  9  2  0
  9 13  1  0
  9 14  1  0
 10 16  2  0
 11 14  2  0
 12 17  2  0
 13 15  2  0
 13 21  1  0
 15 18  1  0
 15 19  1  0
 16 17  1  0
 19 22  2  0
 21 24  2  0
 22 24  1  0
M  CHG  1   5   1
M  END
>  <PUBCHEM_COMPOUND_CID>  (1) 
17133

>  <PUBCHEM_CONFORMER_RMSD>  (1) 
0.6

>  <PUBCHEM_CONFORMER_DIVERSEORDER>  (1) 
2
1
3

>  <PUBCHEM_MMFF94_PARTIAL_CHARGES>  (1) 
30
1 -0.36
10 -0.29
11 -0.29
12 -0.29
14 -0.18
16 0.08
17 0.08
18 0.21
19 0.08
2 -0.36
20 0.49
21 -0.15
22 0.08
23 0.56
24 -0.15
25 0.56
28 0.15
29 0.15
3 -0.36
30 0.15
31 0.15
32 0.15
36 0.15
39 0.15
4 -0.36
5 -0.21
6 0.28
7 0.28
8 0.22
9 0.03

>  <PUBCHEM_EFFECTIVE_ROTOR_COUNT>  (1) 
1.2

>  <PUBCHEM_PHARMACOPHORE_FEATURES>  (1) 
10
1 1 acceptor
1 2 acceptor
1 3 acceptor
1 4 acceptor
5 1 2 16 17 23 rings
5 3 4 19 22 25 rings
6 13 15 19 21 22 24 rings
6 5 8 9 13 15 18 rings
6 6 7 10 12 16 17 rings
6 6 7 8 9 11 14 rings

>  <PUBCHEM_HEAVY_ATOM_COUNT>  (1) 
25

>  <PUBCHEM_ATOM_DEF_STEREO_COUNT>  (1) 
0

>  <PUBCHEM_ATOM_UDEF_STEREO_COUNT>  (1) 
2

>  <PUBCHEM_BOND_DEF_STEREO_COUNT>  (1) 
0

>  <PUBCHEM_BOND_UDEF_STEREO_COUNT>  (1) 
0

>  <PUBCHEM_ISOTOPIC_ATOM_COUNT>  (1) 
0

>  <PUBCHEM_COMPONENT_COUNT>  (1) 
1

>  <PUBCHEM_CACTVS_TAUTO_COUNT>  (1) 
1

>  <PUBCHEM_CONFORMER_ID>  (1) 
000042ED00000002

>  <PUBCHEM_MMFF94_ENERGY>  (1) 
79.9021

>  <PUBCHEM_FEATURE_SELFOVERLAP>  (1) 
51.148

>  <PUBCHEM_SHAPE_FINGERPRINT>  (1) 
10 15 18335422399795080264
10319926 262 18263911152226908962
10906281 52 18115892787217253244
11045977 3 18272371975189630586
11112241 14 17345171475954532409
11132069 177 18335425664212792087
11646440 116 18338811060931654129
11796584 16 15791457027925167515
11961588 58 12967118446083515818
12035758 1 18334303067526183945
12236239 1 16588025697536758788
12403259 415 18412542077154253228
12403260 363 18191868044818400839
12422481 6 18408039598001455382
12633257 1 17749111122945011683
13140716 1 18262805210584768877
13402501 40 18412824681432991032
13583140 156 16558743568100654543
13631057 29 16342557626639612967
13668630 136 14345797132244312224
13675066 3 18342181089254892023
14178342 30 18336273357576281845
14341114 176 18412546501012694536
14341114 328 17894350003583344176
14790565 3 17471019545820493956
15142383 8 15719382902790141231
15183329 4 9727363437159719228
15196674 1 18336553797529028431
15238133 3 17822018592263311925
15788980 27 15646770098293091655
15840311 113 17629783197037954305
17349148 13 16443068283274536018
17980427 23 18263923400634912869
1813 80 17022906748146356156
19141452 34 18413390960118117495
19784866 170 18410292501711562398
19784866 240 14707204384028241016
1979834 28 18272381870636265598
20567600 247 14129060352305521697
21033648 29 18131059476438712938
21267235 1 18263099785412322359
21421861 104 17677889028979844234
21452121 103 18343301435943340930
21637258 2 15285626716715613760
21792934 111 18189897514086538873
21859007 373 17461146661546583741
22122407 14 16558477464932976315
22182313 1 18263641771044420351
23366157 5 17316492995793046877
23402539 116 18408879659334797415
23559900 14 18336840679928035662
2838139 119 15482675710277655546
3004659 81 17749685042329147820
335352 9 18334019380672841117
3383291 50 18114189691885048955
3472631 163 13182724988546713562
34797466 226 16845579716421656421
34934 24 18335981978732196711
350125 39 18411704258168464142
3545911 37 18412832365192845399
3680242 22 18114748135446318747
3759504 43 13542458791179143180
392239 28 18131635603251571560
4093350 32 17346325830573332167
4340502 62 18131070437089834435
465052 167 17603594044569084472
5104073 3 18337963273026376803
58807428 26 18334006190491268914
5924683 9 18129939121857395159
59755656 215 18340211791295240782
653340 110 18120374259458834765
7226269 152 17967530160233361925
9777508 108 17904763275957242564

>  <PUBCHEM_SHAPE_MULTIPOLES>  (1) 
486.03
12.52
2.27
1.1
1.15
0.05
0.07
-1.57
5.43
0.55
-0.38
-1.1
-0.22
1.25

>  <PUBCHEM_SHAPE_SELFOVERLAP>  (1) 
1123.029

>  <PUBCHEM_SHAPE_VOLUME>  (1) 
246.9

>  <PUBCHEM_COORDINATE_TYPE>  (1) 
2
5
10

$$$$
