17140
     RDKit          3D

  4  3  0  0  0  0  0  0  0  0999 V2000
    2.0439    0.0000   -0.0001 N   0  0  0  0  0  0  0  0  0  0  0  0
   -2.0562    0.0000   -0.0001 C   0  0  0  0  0  0  0  0  0  0  0  0
   -0.5940    0.0000    0.0001 C   0  0  0  0  0  0  0  0  0  0  0  0
    0.6064    0.0001    0.0001 C   0  0  0  0  0  0  0  0  0  0  0  0
  1  4  1  0
  2  3  1  0
  3  4  3  0
M  END
>  <PUBCHEM_COMPOUND_CID>  (1) 
17140

>  <PUBCHEM_CONFORMER_RMSD>  (1) 
0.4

>  <PUBCHEM_CONFORMER_DIVERSEORDER>  (1) 
1

>  <PUBCHEM_MMFF94_PARTIAL_CHARGES>  (1) 
6
1 -0.86
2 0.2
3 -0.2
4 0.06
8 0.4
9 0.4

>  <PUBCHEM_EFFECTIVE_ROTOR_COUNT>  (1) 
0

>  <PUBCHEM_PHARMACOPHORE_FEATURES>  (1) 
3
1 1 cation
1 1 donor
1 2 hydrophobe

>  <PUBCHEM_HEAVY_ATOM_COUNT>  (1) 
4

>  <PUBCHEM_ATOM_DEF_STEREO_COUNT>  (1) 
0

>  <PUBCHEM_ATOM_UDEF_STEREO_COUNT>  (1) 
0

>  <PUBCHEM_BOND_DEF_STEREO_COUNT>  (1) 
0

>  <PUBCHEM_BOND_UDEF_STEREO_COUNT>  (1) 
0

>  <PUBCHEM_ISOTOPIC_ATOM_COUNT>  (1) 
0

>  <PUBCHEM_COMPONENT_COUNT>  (1) 
1

>  <PUBCHEM_CACTVS_TAUTO_COUNT>  (1) 
1

>  <PUBCHEM_CONFORMER_ID>  (1) 
000042F400000001

>  <PUBCHEM_MMFF94_ENERGY>  (1) 
1.7085

>  <PUBCHEM_FEATURE_SELFOVERLAP>  (1) 
15.223

>  <PUBCHEM_SHAPE_FINGERPRINT>  (1) 
139733 1 17822009808954996995
20096714 4 12247388021044417210
21015797 1 17534355718630141143
5460574 1 17822009800328106629

>  <PUBCHEM_SHAPE_MULTIPOLES>  (1) 
77.34
2.74
0.6
0.6
0.12
0
0
0
0
-0.05
0
-0.05
0
0

>  <PUBCHEM_SHAPE_SELFOVERLAP>  (1) 
129.622

>  <PUBCHEM_SHAPE_VOLUME>  (1) 
51

>  <PUBCHEM_COORDINATE_TYPE>  (1) 
2
5
10

$$$$
