17146
     RDKit          3D

 21 21  0  0  0  0  0  0  0  0999 V2000
    1.7531   -0.3046    0.0605 O   0  0  0  0  0  0  0  0  0  0  0  0
    1.2918   -2.4355    0.7989 O   0  0  0  0  0  0  0  0  0  0  0  0
    5.3308    0.5870    0.1582 N   0  0  0  0  0  0  0  0  0  0  0  0
   -4.4648   -0.0406   -0.7497 N   0  0  0  0  0  0  0  0  0  0  0  0
   -6.4519    0.9053    0.2336 N   0  0  0  0  0  0  0  0  0  0  0  0
    3.9050    0.7484   -0.0839 C   0  0  0  0  0  0  0  0  0  0  0  0
    5.8646   -0.5356   -0.6172 C   0  0  0  0  0  0  0  0  0  0  0  0
    6.0548    1.8175   -0.1704 C   0  0  0  0  0  0  0  0  0  0  0  0
    3.1493   -0.5143    0.2983 C   0  0  0  0  0  0  0  0  0  0  0  0
    7.3379   -0.7569   -0.3199 C   0  0  0  0  0  0  0  0  0  0  0  0
    5.5191    2.9978    0.6221 C   0  0  0  0  0  0  0  0  0  0  0  0
    0.9134   -1.3451    0.3506 C   0  0  0  0  0  0  0  0  0  0  0  0
   -0.4726   -1.0093    0.0657 C   0  0  0  0  0  0  0  0  0  0  0  0
   -1.4789   -1.9471    0.2971 C   0  0  0  0  0  0  0  0  0  0  0  0
   -0.7960    0.2512   -0.4368 C   0  0  0  0  0  0  0  0  0  0  0  0
   -3.1255   -0.3655   -0.4752 C   0  0  0  0  0  0  0  0  0  0  0  0
   -2.8086   -1.6244    0.0259 C   0  0  0  0  0  0  0  0  0  0  0  0
   -2.1256    0.5738   -0.7079 C   0  0  0  0  0  0  0  0  0  0  0  0
   -5.1319    0.4920    0.2259 C   0  0  0  0  0  0  0  0  0  0  0  0
   -7.2150    1.0159   -1.0016 C   0  0  0  0  0  0  0  0  0  0  0  0
   -7.0490    1.4903    1.4258 C   0  0  0  0  0  0  0  0  0  0  0  0
  1  9  1  0
  1 12  1  0
  2 12  2  0
  3  6  1  0
  3  7  1  0
  3  8  1  0
  4 16  1  0
  4 19  2  0
  5 19  1  0
  5 20  1  0
  5 21  1  0
  6  9  1  0
  7 10  1  0
  8 11  1  0
 12 13  1  0
 13 14  2  0
 13 15  1  0
 14 17  1  0
 15 18  2  0
 16 17  2  0
 16 18  1  0
M  END
>  <PUBCHEM_COMPOUND_CID>  (1) 
17146

>  <PUBCHEM_CONFORMER_RMSD>  (1) 
0.8

>  <PUBCHEM_CONFORMER_DIVERSEORDER>  (1) 
1
41
131
197
113
94
229
152
61
169
211
105
68
165
183
84
199
182
129
102
5
193
205
206
225
4
171
145
30
121
33
180
188
168
77
20
76
213
87
78
38
37
31
118
239
49
48
192
170
74
144
134
233
29
198
235
100
40
52
142
101
9
154
190
210
208
175
36
159
132
133
161
98
123
59
115
135
112
80
187
130
167
158
139
47
15
34
85
62
155
64
99
143
150
7
55
181
50
14
174
12
90
160
172
178
117
184
207
65
114
125
166
203
200
122
72
13
204
46
127
194
116
60
237
156
51
79
91
146
219
96
45
6
157
3
44
86
151
56
58
24
21
220
228
92
54
162
186
83
17
231
43
185
222
39
18
230
202
97
111
67
35
195
57
27
164
119
88
93
2
32
232
216
69
136
63
124
28
217
224
149
196
191
19
53
10
218
16
75
163
110
176
70
234
25
8
22
137
189
238
215
106
236
148
120
89
95
81
201
138
107
212
11
179
42
66
223
23
214
226
221
104
103
128
177
73
108
141
109
71
173
126
240
147
209
26
82
227
140
153
241

>  <PUBCHEM_MMFF94_PARTIAL_CHARGES>  (1) 
24
1 -0.43
12 0.63
13 0.09
14 -0.15
15 -0.15
16 0.18
17 -0.15
18 -0.15
19 0.44
2 -0.57
20 0.37
21 0.37
3 -0.81
36 0.15
37 0.15
38 0.15
39 0.15
4 -0.63
40 0.06
5 -0.79
6 0.27
7 0.27
8 0.27
9 0.28

>  <PUBCHEM_EFFECTIVE_ROTOR_COUNT>  (1) 
9

>  <PUBCHEM_PHARMACOPHORE_FEATURES>  (1) 
4
1 2 acceptor
1 3 cation
3 4 5 19 cation
6 13 14 15 16 17 18 rings

>  <PUBCHEM_HEAVY_ATOM_COUNT>  (1) 
21

>  <PUBCHEM_ATOM_DEF_STEREO_COUNT>  (1) 
0

>  <PUBCHEM_ATOM_UDEF_STEREO_COUNT>  (1) 
0

>  <PUBCHEM_BOND_DEF_STEREO_COUNT>  (1) 
0

>  <PUBCHEM_BOND_UDEF_STEREO_COUNT>  (1) 
0

>  <PUBCHEM_ISOTOPIC_ATOM_COUNT>  (1) 
0

>  <PUBCHEM_COMPONENT_COUNT>  (1) 
1

>  <PUBCHEM_CACTVS_TAUTO_COUNT>  (1) 
1

>  <PUBCHEM_CONFORMER_ID>  (1) 
000042FA00000001

>  <PUBCHEM_MMFF94_ENERGY>  (1) 
49.1481

>  <PUBCHEM_FEATURE_SELFOVERLAP>  (1) 
20.297

>  <PUBCHEM_SHAPE_FINGERPRINT>  (1) 
10 15 17676206849815252441
10354089 29 16950281810888694228
106641 1 13190350079841380942
10670039 82 16415200019266623393
10835480 77 18271522117522014896
12403259 415 18041267816881557308
12623949 98 11314569997646266496
12670543 26 12679463063205573627
13177829 20 13984671360016819086
13668630 136 11384113046829333765
13955234 65 18115019680702124474
13968360 50 16343707595342709438
14251752 14 15554446271503517273
15048467 5 18412262826986276449
15183329 4 16056887930963400208
15716309 27 12107503736769698945
15778101 99 18410858776349777811
1768 124 11530480030128879264
18006028 8 9583514313359421159
18335252 114 18342731906042071636
20281389 69 18259981565486724700
20526848 3 18341897389838783801
21033648 29 18263920107165129800
21150785 3 15339114641565302883
21585482 111 18191870012178011077
22224240 67 17967814951420567619
23198884 109 17203609277043421659
23559900 14 18339921628242774616
2838139 119 18412538799614197556
293599 30 18410011031341107319
29717793 49 17703795817128103990
3009799 131 12823291282260987643
3472631 163 18342458179143846772
3545911 37 18114180822270542902
4340502 62 16225766294208174523
5104073 3 18113611330939629186
5385378 56 18187363186765827314
59682541 35 17967823756340914529
59682541 52 16630529535943770748
59755656 520 18408319990921370311
636775 72 18271520996087710328

>  <PUBCHEM_SHAPE_MULTIPOLES>  (1) 
405.49
21.21
2.24
0.91
1.29
0.55
-0.06
12.91
0.37
-2.09
-0.62
1
0.18
0.06

>  <PUBCHEM_SHAPE_SELFOVERLAP>  (1) 
810.475

>  <PUBCHEM_SHAPE_VOLUME>  (1) 
241.5

>  <PUBCHEM_COORDINATE_TYPE>  (1) 
2
5
10

$$$$
