17149
     RDKit          3D

  7  7  0  0  1  0  0  0  0  0999 V2000
   -1.1891    0.1419    0.3607 C   0  0  0  0  0  0  0  0  0  0  0  0
    1.1892    0.1431    0.3613 C   0  0  0  0  0  0  0  0  0  0  0  0
   -0.0003    1.0213   -0.0178 C   0  0  0  0  0  0  0  0  0  0  0  0
   -0.7654   -1.2574   -0.0941 C   0  0  0  0  0  0  0  0  0  0  0  0
    0.7664   -1.2582   -0.0890 C   0  0  0  0  0  0  0  0  0  0  0  0
   -2.4964    0.6044   -0.2595 C   0  0  0  0  0  0  0  0  0  0  0  0
    2.4956    0.6049   -0.2615 C   0  0  0  0  0  0  0  0  0  0  0  0
  1  3  1  0
  1  4  1  0
  1  6  1  0
  2  3  1  0
  2  5  1  0
  2  7  1  0
  4  5  1  0
M  END
>  <PUBCHEM_COMPOUND_CID>  (1) 
17149

>  <PUBCHEM_CONFORMER_RMSD>  (1) 
0.4

>  <PUBCHEM_CONFORMER_DIVERSEORDER>  (1) 
3
2
1

>  <PUBCHEM_MMFF94_PARTIAL_CHARGES>  (1) 
0

>  <PUBCHEM_EFFECTIVE_ROTOR_COUNT>  (1) 
1

>  <PUBCHEM_PHARMACOPHORE_FEATURES>  (1) 
1
5 1 2 3 4 5 rings

>  <PUBCHEM_HEAVY_ATOM_COUNT>  (1) 
7

>  <PUBCHEM_ATOM_DEF_STEREO_COUNT>  (1) 
0

>  <PUBCHEM_ATOM_UDEF_STEREO_COUNT>  (1) 
2

>  <PUBCHEM_BOND_DEF_STEREO_COUNT>  (1) 
0

>  <PUBCHEM_BOND_UDEF_STEREO_COUNT>  (1) 
0

>  <PUBCHEM_ISOTOPIC_ATOM_COUNT>  (1) 
0

>  <PUBCHEM_COMPONENT_COUNT>  (1) 
1

>  <PUBCHEM_CACTVS_TAUTO_COUNT>  (1) 
1

>  <PUBCHEM_CONFORMER_ID>  (1) 
000042FD00000003

>  <PUBCHEM_MMFF94_ENERGY>  (1) 
9.9308

>  <PUBCHEM_FEATURE_SELFOVERLAP>  (1) 
5.074

>  <PUBCHEM_SHAPE_FINGERPRINT>  (1) 
14390081 3 18413386544501437857
16714656 1 18410298046567050084
20096714 4 18410292518780512394
21040471 1 18411695491312044274
23235685 24 18411135835730602617
23552423 10 18333734654205758086
29004967 10 18187092719351991441

>  <PUBCHEM_SHAPE_MULTIPOLES>  (1) 
144.06
2.97
1.33
0.68
0
0.35
0.01
-0.92
-0.33
0
-0.07
0
-0.01
0

>  <PUBCHEM_SHAPE_SELFOVERLAP>  (1) 
274.709

>  <PUBCHEM_SHAPE_VOLUME>  (1) 
87

>  <PUBCHEM_COORDINATE_TYPE>  (1) 
2
5
10

$$$$
