17142
     RDKit          3D

 21 24  0  0  1  0  0  0  0  0999 V2000
   -3.4073    2.5394    1.0222 O   0  0  0  0  0  0  0  0  0  0  0  0
    3.9225    1.6360    1.0558 O   0  0  0  0  0  0  0  0  0  0  0  0
   -0.5453   -4.1972    1.0575 O   0  0  0  0  0  0  0  0  0  0  0  0
    1.0683    2.4610   -0.5776 O   0  0  0  0  0  0  0  0  0  0  0  0
   -2.6544   -0.3113   -0.6723 O   0  0  0  0  0  0  0  0  0  0  0  0
    1.6101   -2.1488   -0.6715 O   0  0  0  0  0  0  0  0  0  0  0  0
   -0.8068    1.1000   -0.6690 N   0  0  0  0  0  0  0  0  0  0  0  0
    1.3671    0.1573   -0.6700 N   0  0  0  0  0  0  0  0  0  0  0  0
   -0.5359   -1.2543   -0.6842 N   0  0  0  0  0  0  0  0  0  0  0  0
   -2.0359    2.7221    0.7102 C   0  0  0  0  0  0  0  0  0  0  0  0
    3.3939    0.3674    0.7059 C   0  0  0  0  0  0  0  0  0  0  0  0
   -1.3682   -3.0924    0.7206 C   0  0  0  0  0  0  0  0  0  0  0  0
   -1.6755    2.2736   -0.6960 C   0  0  0  0  0  0  0  0  0  0  0  0
    2.8177    0.3242   -0.6993 C   0  0  0  0  0  0  0  0  0  0  0  0
   -1.1407   -2.5837   -0.6927 C   0  0  0  0  0  0  0  0  0  0  0  0
   -2.9308    3.8866    0.9095 C   0  0  0  0  0  0  0  0  0  0  0  0
    4.8507    0.5543    0.9036 C   0  0  0  0  0  0  0  0  0  0  0  0
   -1.9537   -4.4362    0.9388 C   0  0  0  0  0  0  0  0  0  0  0  0
    0.5842    1.3263   -0.6368 C   0  0  0  0  0  0  0  0  0  0  0  0
   -1.4283   -0.1626   -0.6774 C   0  0  0  0  0  0  0  0  0  0  0  0
    0.8683   -1.1614   -0.6772 C   0  0  0  0  0  0  0  0  0  0  0  0
  1 10  1  0
  1 16  1  0
  2 11  1  0
  2 17  1  0
  3 12  1  0
  3 18  1  0
  4 19  2  0
  5 20  2  0
  6 21  2  0
  7 13  1  0
  7 19  1  0
  7 20  1  0
  8 14  1  0
  8 19  1  0
  8 21  1  0
  9 15  1  0
  9 20  1  0
  9 21  1  0
 10 13  1  0
 10 16  1  0
 11 14  1  0
 11 17  1  0
 12 15  1  0
 12 18  1  0
M  END
>  <PUBCHEM_COMPOUND_CID>  (1) 
17142

>  <PUBCHEM_CONFORMER_RMSD>  (1) 
0.8

>  <PUBCHEM_CONFORMER_DIVERSEORDER>  (1) 
1
15
21
13
25
17
10
22
19
8
11
20
12
27
14
18
23
2
24
16
9
3
6
26
7
5
4

>  <PUBCHEM_MMFF94_PARTIAL_CHARGES>  (1) 
30
1 -0.3
10 -0.05
11 -0.05
12 -0.05
13 0.4
14 0.4
15 0.4
16 -0.05
17 -0.05
18 -0.05
19 0.69
2 -0.3
20 0.69
21 0.69
22 0.1
23 0.1
24 0.1
3 -0.3
31 0.1
32 0.1
33 0.1
34 0.1
35 0.1
36 0.1
4 -0.57
5 -0.57
6 -0.57
7 -0.42
8 -0.42
9 -0.42

>  <PUBCHEM_EFFECTIVE_ROTOR_COUNT>  (1) 
7.8

>  <PUBCHEM_PHARMACOPHORE_FEATURES>  (1) 
7
1 1 acceptor
1 2 acceptor
1 3 acceptor
1 4 acceptor
1 5 acceptor
1 6 acceptor
6 7 8 9 19 20 21 rings

>  <PUBCHEM_HEAVY_ATOM_COUNT>  (1) 
21

>  <PUBCHEM_ATOM_DEF_STEREO_COUNT>  (1) 
0

>  <PUBCHEM_ATOM_UDEF_STEREO_COUNT>  (1) 
3

>  <PUBCHEM_BOND_DEF_STEREO_COUNT>  (1) 
0

>  <PUBCHEM_BOND_UDEF_STEREO_COUNT>  (1) 
0

>  <PUBCHEM_ISOTOPIC_ATOM_COUNT>  (1) 
0

>  <PUBCHEM_COMPONENT_COUNT>  (1) 
1

>  <PUBCHEM_CACTVS_TAUTO_COUNT>  (1) 
1

>  <PUBCHEM_CONFORMER_ID>  (1) 
000042F600000001

>  <PUBCHEM_MMFF94_ENERGY>  (1) 
36.7264

>  <PUBCHEM_FEATURE_SELFOVERLAP>  (1) 
35.527

>  <PUBCHEM_SHAPE_FINGERPRINT>  (1) 
1100329 8 18264767856162422115
11036077 51 18337940212988254994
12160290 23 18410856598294502589
12293681 160 18052783032223844693
12549972 3 17989205933075125170
12553582 1 17690284137435448782
12788726 201 18339917241952329347
13140716 1 18122625225710370837
136203 1 18338797934841365864
14178342 30 18339644417198515261
14955137 171 16969718165695998164
15475509 84 17831596631938742795
16945 1 18338525230208998868
20510252 161 18272362087943183305
20600515 1 18118121596429939911
21041028 32 17905893926097076354
21524375 3 18126560128723502572
21731228 192 18267300937278460608
2334 1 17690279730202286948
23558518 356 18340486677338334943
23559900 14 18200883864773742372
23845131 108 18265054622549410833
2748010 2 18194127321584320116
3091708 16 9270371206844907565
31174 14 17329997889332255693
352729 6 18266740362246632788
394222 165 17555171346608522065
57003041 12 18270680849033856773
57672749 33 17041477787323367626
58807428 26 18121770634951358642
59554788 281 18336540542948710359
81228 2 18410574028106399309
9981440 41 17845350242364660074

>  <PUBCHEM_SHAPE_MULTIPOLES>  (1) 
382.01
5.85
5.76
1.17
6.92
4.35
-0.14
-4.43
-2.57
-6.87
-2.56
-0.01
0.04
0.03

>  <PUBCHEM_SHAPE_SELFOVERLAP>  (1) 
796.725

>  <PUBCHEM_SHAPE_VOLUME>  (1) 
215.5

>  <PUBCHEM_COORDINATE_TYPE>  (1) 
2
5
10

$$$$
