17154
     RDKit          3D

 11 11  0  0  0  0  0  0  0  0999 V2000
    0.8703   -2.4558   -0.2287 Cl  0  0  0  0  0  0  0  0  0  0  0  0
    2.5360    1.1384   -0.9384 O   0  0  0  0  0  0  0  0  0  0  0  0
    2.8085   -0.1699    0.9001 O   0  0  0  0  0  0  0  0  0  0  0  0
   -3.5844    0.0481   -0.0019 N   0  0  0  0  0  0  0  0  0  0  0  0
    0.6108    0.2450    0.0503 C   0  0  0  0  0  0  0  0  0  0  0  0
   -2.1756    0.1140    0.0148 C   0  0  0  0  0  0  0  0  0  0  0  0
   -0.0277   -0.9879   -0.0823 C   0  0  0  0  0  0  0  0  0  0  0  0
   -0.1438    1.4125    0.1654 C   0  0  0  0  0  0  0  0  0  0  0  0
   -1.4209   -1.0535   -0.1001 C   0  0  0  0  0  0  0  0  0  0  0  0
   -1.5370    1.3470    0.1475 C   0  0  0  0  0  0  0  0  0  0  0  0
    2.0638    0.3620    0.0733 C   0  0  0  0  0  0  0  0  0  0  0  0
  1  7  1  0
  2 11  1  0
  3 11  2  0
  4  6  1  0
  5  7  2  0
  5  8  1  0
  5 11  1  0
  6  9  2  0
  6 10  1  0
  7  9  1  0
  8 10  2  0
M  END
>  <PUBCHEM_COMPOUND_CID>  (1) 
17154

>  <PUBCHEM_CONFORMER_RMSD>  (1) 
0.4

>  <PUBCHEM_CONFORMER_DIVERSEORDER>  (1) 
1
2

>  <PUBCHEM_MMFF94_PARTIAL_CHARGES>  (1) 
17
1 -0.18
10 -0.15
11 0.63
12 0.15
13 0.15
14 0.15
15 0.4
16 0.4
17 0.5
2 -0.65
3 -0.57
4 -0.9
5 0.09
6 0.1
7 0.18
8 -0.15
9 -0.15

>  <PUBCHEM_EFFECTIVE_ROTOR_COUNT>  (1) 
1

>  <PUBCHEM_PHARMACOPHORE_FEATURES>  (1) 
6
1 2 acceptor
1 3 acceptor
1 4 cation
1 4 donor
3 2 3 11 anion
6 5 6 7 8 9 10 rings

>  <PUBCHEM_HEAVY_ATOM_COUNT>  (1) 
11

>  <PUBCHEM_ATOM_DEF_STEREO_COUNT>  (1) 
0

>  <PUBCHEM_ATOM_UDEF_STEREO_COUNT>  (1) 
0

>  <PUBCHEM_BOND_DEF_STEREO_COUNT>  (1) 
0

>  <PUBCHEM_BOND_UDEF_STEREO_COUNT>  (1) 
0

>  <PUBCHEM_ISOTOPIC_ATOM_COUNT>  (1) 
0

>  <PUBCHEM_COMPONENT_COUNT>  (1) 
1

>  <PUBCHEM_CACTVS_TAUTO_COUNT>  (1) 
2

>  <PUBCHEM_CONFORMER_ID>  (1) 
0000430200000001

>  <PUBCHEM_MMFF94_ENERGY>  (1) 
41.3654

>  <PUBCHEM_FEATURE_SELFOVERLAP>  (1) 
30.503

>  <PUBCHEM_SHAPE_FINGERPRINT>  (1) 
10219947 1 18334295379176001577
13380535 76 18409726262040370491
14325111 11 18410293622698065577
161256 15 18197503913224566055
16945 1 18413672417793418569
193761 8 17907580220588929729
20645476 183 17896613966618077774
21040471 1 18413107273016678994
21501502 16 18125445207069475329
23235685 24 18410290328442260381
23402655 69 18197479755162765205
23463225 33 18335134263508696546
23552423 10 18192719951106639751
241688 4 17615975404544062042
2748010 2 17979631561349569037
369184 2 18410847789348408184
5084963 1 18200882781376417992
528862 383 18263355915175128651
528886 8 18411978100307853179
7364860 26 17985827034283599134

>  <PUBCHEM_SHAPE_MULTIPOLES>  (1) 
211.52
3.96
1.92
0.72
0.98
0.98
-0.01
-0.65
0.1
-0.5
-0.16
-0.32
-0.06
-0.2

>  <PUBCHEM_SHAPE_SELFOVERLAP>  (1) 
437.218

>  <PUBCHEM_SHAPE_VOLUME>  (1) 
121.5

>  <PUBCHEM_COORDINATE_TYPE>  (1) 
2
5
10

$$$$
