1716
     RDKit          3D

 29 30  0  0  1  0  0  0  0  0999 V2000
   -3.9066    1.3715    0.2152 S   0  0  0  0  0  0  0  0  0  0  0  0
   -4.4643    2.0980    1.3408 O   0  0  0  0  0  0  0  0  0  0  0  0
   -4.2723    1.7262   -1.1436 O   0  0  0  0  0  0  0  0  0  0  0  0
   -4.8116   -2.4793   -2.3254 O   0  0  0  0  0  0  0  0  0  0  0  0
   -6.1426   -1.2217   -0.9681 O   0  0  0  0  0  0  0  0  0  0  0  0
    2.6159    2.3366    1.5593 O   0  0  0  0  0  0  0  0  0  0  0  0
    6.0493    1.1247   -1.9266 O   0  0  0  0  0  0  0  0  0  0  0  0
    3.9576    0.8511   -2.7633 O   0  0  0  0  0  0  0  0  0  0  0  0
    4.7346   -3.9276    0.3797 O   0  0  0  0  0  0  0  0  0  0  0  0
    5.7474   -2.5343    1.8565 O   0  0  0  0  0  0  0  0  0  0  0  0
   -4.1396   -0.2974    0.4452 N   0  0  0  0  0  0  0  0  0  0  0  0
    2.8238    1.0092   -0.3304 N   0  0  0  0  0  0  0  0  0  0  0  0
   -3.7511   -1.2163   -0.6604 C   0  0  0  0  0  0  0  0  0  0  0  0
   -3.0455   -2.3917    0.0069 C   0  0  0  0  0  0  0  0  0  0  0  0
   -3.6692   -0.8835    1.7302 C   0  0  0  0  0  0  0  0  0  0  0  0
   -3.5649   -2.3703    1.4348 C   0  0  0  0  0  0  0  0  0  0  0  0
   -5.0360   -1.6144   -1.3062 C   0  0  0  0  0  0  0  0  0  0  0  0
   -2.1462    1.4689    0.3388 C   0  0  0  0  0  0  0  0  0  0  0  0
   -1.3581    1.3288   -0.8035 C   0  0  0  0  0  0  0  0  0  0  0  0
   -1.5449    1.6845    1.5790 C   0  0  0  0  0  0  0  0  0  0  0  0
    0.6326    1.6199    0.5342 C   0  0  0  0  0  0  0  0  0  0  0  0
    0.0313    1.4044   -0.7059 C   0  0  0  0  0  0  0  0  0  0  0  0
   -0.1556    1.7600    1.6766 C   0  0  0  0  0  0  0  0  0  0  0  0
    4.2685    0.9715   -0.3507 C   0  0  0  0  0  0  0  0  0  0  0  0
    4.8425   -0.1835    0.4787 C   0  0  0  0  0  0  0  0  0  0  0  0
    2.0811    1.6980    0.6356 C   0  0  0  0  0  0  0  0  0  0  0  0
    4.4685   -1.5948    0.0077 C   0  0  0  0  0  0  0  0  0  0  0  0
    4.7064    0.9596   -1.8008 C   0  0  0  0  0  0  0  0  0  0  0  0
    5.0490   -2.6981    0.8658 C   0  0  0  0  0  0  0  0  0  0  0  0
  1  2  2  0
  1  3  2  0
  1 11  1  0
  1 18  1  0
  4 17  1  0
  5 17  2  0
  6 26  2  0
  7 28  1  0
  8 28  2  0
  9 29  1  0
 10 29  2  0
 11 13  1  0
 11 15  1  0
 12 24  1  0
 12 26  1  0
 13 14  1  0
 13 17  1  0
 14 16  1  0
 15 16  1  0
 18 19  2  0
 18 20  1  0
 19 22  1  0
 20 23  2  0
 21 22  2  0
 21 23  1  0
 21 26  1  0
 24 25  1  0
 24 28  1  0
 25 27  1  0
 27 29  1  0
M  END
>  <PUBCHEM_COMPOUND_CID>  (1) 
1716

>  <PUBCHEM_CONFORMER_RMSD>  (1) 
1

>  <PUBCHEM_CONFORMER_DIVERSEORDER>  (1) 
1
132
24
35
57
141
94
41
127
88
16
112
47
97
151
72
126
103
92
9
78
152
106
49
114
53
93
64
90
80
146
123
59
136
150
131
23
34
61
125
108
58
30
137
44
68
98
140
104
119
66
116
7
62
11
117
139
143
122
96
99
82
145
147
101
56
149
20
45
79
121
60
76
109
135
142
46
100
63
70
138
74
54
130
115
69
86
113
55
33
2
65
18
95
87
120
38
128
4
22
29
91
77
21
153
67
50
6
17
27
89
5
10
3
51
26
118
73
75
129
8
102
39
134
83
144
105
31
107
124
25
111
71
84
52
19
42
148
48
110
43
13
40
85
37
36
81
133
28
32
15
14
12

>  <PUBCHEM_MMFF94_PARTIAL_CHARGES>  (1) 
34
1 1.45
10 -0.57
11 -0.85
12 -0.73
13 0.42
15 0.36
17 0.66
18 -0.01
19 -0.15
2 -0.65
20 -0.15
21 0.09
22 -0.15
23 -0.15
24 0.36
26 0.54
27 0.06
28 0.66
29 0.66
3 -0.65
37 0.15
38 0.15
39 0.5
4 -0.65
40 0.15
41 0.15
45 0.37
48 0.5
49 0.5
5 -0.57
6 -0.57
7 -0.65
8 -0.57
9 -0.65

>  <PUBCHEM_EFFECTIVE_ROTOR_COUNT>  (1) 
11

>  <PUBCHEM_PHARMACOPHORE_FEATURES>  (1) 
15
1 10 acceptor
1 12 donor
1 2 acceptor
1 3 acceptor
1 4 acceptor
1 5 acceptor
1 6 acceptor
1 7 acceptor
1 8 acceptor
1 9 acceptor
3 4 5 17 anion
3 7 8 28 anion
3 9 10 29 anion
5 11 13 14 15 16 rings
6 18 19 20 21 22 23 rings

>  <PUBCHEM_HEAVY_ATOM_COUNT>  (1) 
29

>  <PUBCHEM_ATOM_DEF_STEREO_COUNT>  (1) 
0

>  <PUBCHEM_ATOM_UDEF_STEREO_COUNT>  (1) 
2

>  <PUBCHEM_BOND_DEF_STEREO_COUNT>  (1) 
0

>  <PUBCHEM_BOND_UDEF_STEREO_COUNT>  (1) 
0

>  <PUBCHEM_ISOTOPIC_ATOM_COUNT>  (1) 
0

>  <PUBCHEM_COMPONENT_COUNT>  (1) 
1

>  <PUBCHEM_CACTVS_TAUTO_COUNT>  (1) 
2

>  <PUBCHEM_CONFORMER_ID>  (1) 
000006B400000001

>  <PUBCHEM_MMFF94_ENERGY>  (1) 
50.932

>  <PUBCHEM_FEATURE_SELFOVERLAP>  (1) 
76.322

>  <PUBCHEM_SHAPE_FINGERPRINT>  (1) 
105312 117 13479131336677248289
10763959 59 8214151768014882672
10928967 22 18199760308627215486
11135609 149 16660913376194677234
11796584 16 17988651769939456532
12596602 18 14907907110279529327
12633257 1 17058954319063391611
14251751 18 18340477890188317808
14347332 77 18272079527004157743
14849402 71 12607394483079347130
14910302 57 18188195550889578677
15163728 17 11675155917373117193
15250474 111 18409448102852174354
15537594 2 18339941379863809426
15799311 1 18263662747775593240
17857418 61 18412541015922654586
18393751 57 9295294980407456189
19958102 18 18260255365910622679
20775530 9 17911803780038904055
21033648 29 15338837517158523833
23559900 14 18198894998015012729
25222932 49 18130498726326159220
312425 83 17458347429264384212
34797466 226 16226332615737270549
463206 1 18261678073732529490
5104073 3 17489864960060441241
59755656 520 18343019944715643705
633830 44 16443068283227582952

>  <PUBCHEM_SHAPE_MULTIPOLES>  (1) 
537.87
15.41
3.64
2.04
8.22
2.93
0.64
9.29
3.84
1.47
-0.95
0.45
0.01
-3.18

>  <PUBCHEM_SHAPE_SELFOVERLAP>  (1) 
1111.71

>  <PUBCHEM_SHAPE_VOLUME>  (1) 
306.9

>  <PUBCHEM_COORDINATE_TYPE>  (1) 
2
5
10

$$$$
