17166
     RDKit          3D

 10  9  0  0  0  0  0  0  0  0999 V2000
   -5.2467   -0.6705    0.3889 O   0  0  0  0  0  0  0  0  0  0  0  0
    1.8283    0.5783    0.1794 C   0  0  0  0  0  0  0  0  0  0  0  0
    2.9897   -0.3587   -0.1590 C   0  0  0  0  0  0  0  0  0  0  0  0
    0.4960    0.0113   -0.3178 C   0  0  0  0  0  0  0  0  0  0  0  0
    4.3438    0.1466    0.3436 C   0  0  0  0  0  0  0  0  0  0  0  0
   -0.6702    0.9318    0.0481 C   0  0  0  0  0  0  0  0  0  0  0  0
    5.5104   -0.7457   -0.0513 C   0  0  0  0  0  0  0  0  0  0  0  0
   -1.9730    0.3918   -0.4677 C   0  0  0  0  0  0  0  0  0  0  0  0
   -3.0196    0.1191    0.3208 C   0  0  0  0  0  0  0  0  0  0  0  0
   -4.2588   -0.4041   -0.2849 C   0  0  0  0  0  0  0  0  0  0  0  0
  1 10  2  0
  2  3  1  0
  2  4  1  0
  3  5  1  0
  4  6  1  0
  5  7  1  0
  6  8  1  0
  8  9  2  0
  9 10  1  0
M  END
>  <PUBCHEM_COMPOUND_CID>  (1) 
17166

>  <PUBCHEM_CONFORMER_RMSD>  (1) 
0.6

>  <PUBCHEM_CONFORMER_DIVERSEORDER>  (1) 
1
37
74
26
39
73
92
18
27
82
81
89
6
31
77
86
56
33
17
58
4
14
91
9
78
57
36
66
29
60
70
30
38
59
2
54
24
25
84
64
79
11
43
62
68
87
63
22
85
42
76
65
44
52
49
20
5
41
45
13
72
71
83
7
48
28
55
21
3
19
47
50
46
90
10
61
8
35
32
51
75
67
53
88
23
34
80
16
12
15
69
40

>  <PUBCHEM_MMFF94_PARTIAL_CHARGES>  (1) 
8
1 -0.57
10 0.5
24 0.15
25 0.15
26 0.06
6 0.14
8 -0.29
9 -0.14

>  <PUBCHEM_EFFECTIVE_ROTOR_COUNT>  (1) 
6

>  <PUBCHEM_PHARMACOPHORE_FEATURES>  (1) 
4
1 1 acceptor
1 7 hydrophobe
3 2 3 5 hydrophobe
3 4 6 8 hydrophobe

>  <PUBCHEM_HEAVY_ATOM_COUNT>  (1) 
10

>  <PUBCHEM_ATOM_DEF_STEREO_COUNT>  (1) 
0

>  <PUBCHEM_ATOM_UDEF_STEREO_COUNT>  (1) 
0

>  <PUBCHEM_BOND_DEF_STEREO_COUNT>  (1) 
0

>  <PUBCHEM_BOND_UDEF_STEREO_COUNT>  (1) 
1

>  <PUBCHEM_ISOTOPIC_ATOM_COUNT>  (1) 
0

>  <PUBCHEM_COMPONENT_COUNT>  (1) 
1

>  <PUBCHEM_CACTVS_TAUTO_COUNT>  (1) 
1

>  <PUBCHEM_CONFORMER_ID>  (1) 
0000430E00000001

>  <PUBCHEM_MMFF94_ENERGY>  (1) 
-0.7868

>  <PUBCHEM_FEATURE_SELFOVERLAP>  (1) 
20.308

>  <PUBCHEM_SHAPE_FINGERPRINT>  (1) 
100836 57 10447928390558903330
11401426 45 11746938693934154092
114248 4 14634869755782887497
12714333 28 12107787415027676750
13690532 89 18260547818591483562
14123238 8 18272932730499140124
1420 363 18410015433608732714
14251718 22 16225768531875540098
14252887 29 17704080568706068446
15242439 84 12685095882237822964
15501527 16 9871743611410641951
15501527 24 14056722361206048987
17834072 33 18041001777885283580
17834076 25 9295288339643685102
18342897 14 13398630554189361778
187816 3 15213019345172722197
20605781 2 9655576313869861710
20645477 56 10664097856931515377
20645477 70 12757415130332202312
20719005 15 18411981356167318038
20724930 31 18411419514162556240
20724930 69 11095883765466754772
20767249 13 18114180838975391970
20767249 213 11095880471363949723
20828058 44 16988840609574408591
21119208 17 14562530686757692899
22485316 2 18409726253376154103
23402539 116 17385719180011788085
23402655 69 12252173083064218195
42 15 17775567541535807500
42788 4 18410573985183210092
449060 50 14548738404325007284

>  <PUBCHEM_SHAPE_MULTIPOLES>  (1) 
199.93
12.22
0.87
0.69
1.73
0.04
-0.01
-4.11
1.08
0.04
0.01
-0.09
0
0.18

>  <PUBCHEM_SHAPE_SELFOVERLAP>  (1) 
359.474

>  <PUBCHEM_SHAPE_VOLUME>  (1) 
128.6

>  <PUBCHEM_COORDINATE_TYPE>  (1) 
2
5
10

$$$$
