17160
     RDKit          3D

 11 11  0  0  0  0  0  0  0  0999 V2000
   -2.1899    2.2477   -0.0001 Cl  0  0  0  0  0  0  0  0  0  0  0  0
   -3.2977   -0.7926    0.0000 Cl  0  0  0  0  0  0  0  0  0  0  0  0
    2.4792    0.3035    0.0001 O   0  0  0  0  0  0  0  0  0  0  0  0
    1.5277   -2.3078    0.0000 O   0  0  0  0  0  0  0  0  0  0  0  0
    1.1398    0.0548   -0.0001 C   0  0  0  0  0  0  0  0  0  0  0  0
    0.6622   -1.2558   -0.0001 C   0  0  0  0  0  0  0  0  0  0  0  0
    0.2435    1.1236    0.0000 C   0  0  0  0  0  0  0  0  0  0  0  0
   -0.7115   -1.4976    0.0001 C   0  0  0  0  0  0  0  0  0  0  0  0
   -1.1302    0.8819    0.0001 C   0  0  0  0  0  0  0  0  0  0  0  0
   -1.6077   -0.4287    0.0000 C   0  0  0  0  0  0  0  0  0  0  0  0
    2.8845    1.6709    0.0000 C   0  0  0  0  0  0  0  0  0  0  0  0
  1  9  1  0
  2 10  1  0
  3  5  1  0
  3 11  1  0
  4  6  1  0
  5  6  2  0
  5  7  1  0
  6  8  1  0
  7  9  2  0
  8 10  2  0
  9 10  1  0
M  END
>  <PUBCHEM_COMPOUND_CID>  (1) 
17160

>  <PUBCHEM_CONFORMER_RMSD>  (1) 
0.4

>  <PUBCHEM_CONFORMER_DIVERSEORDER>  (1) 
3
1
2

>  <PUBCHEM_MMFF94_PARTIAL_CHARGES>  (1) 
14
1 -0.18
10 0.18
11 0.28
12 0.15
13 0.15
17 0.45
2 -0.18
3 -0.36
4 -0.53
5 0.08
6 0.08
7 -0.15
8 -0.15
9 0.18

>  <PUBCHEM_EFFECTIVE_ROTOR_COUNT>  (1) 
1

>  <PUBCHEM_PHARMACOPHORE_FEATURES>  (1) 
3
1 3 acceptor
1 4 donor
6 5 6 7 8 9 10 rings

>  <PUBCHEM_HEAVY_ATOM_COUNT>  (1) 
11

>  <PUBCHEM_ATOM_DEF_STEREO_COUNT>  (1) 
0

>  <PUBCHEM_ATOM_UDEF_STEREO_COUNT>  (1) 
0

>  <PUBCHEM_BOND_DEF_STEREO_COUNT>  (1) 
0

>  <PUBCHEM_BOND_UDEF_STEREO_COUNT>  (1) 
0

>  <PUBCHEM_ISOTOPIC_ATOM_COUNT>  (1) 
0

>  <PUBCHEM_COMPONENT_COUNT>  (1) 
1

>  <PUBCHEM_CACTVS_TAUTO_COUNT>  (1) 
3

>  <PUBCHEM_CONFORMER_ID>  (1) 
0000430800000003

>  <PUBCHEM_MMFF94_ENERGY>  (1) 
33.4287

>  <PUBCHEM_FEATURE_SELFOVERLAP>  (1) 
15.223

>  <PUBCHEM_SHAPE_FINGERPRINT>  (1) 
12897270 3 18410855494598715565
13380535 21 18267034868354838761
13380535 76 18337383855519164049
14325111 11 18410573998242406144
14614273 12 18261382356401808229
14648413 74 18194404377134608731
16945 1 18410574032522763399
193761 8 18338798884145189063
19973954 147 18338797784686354285
20511035 2 17912906314906229791
21040471 1 18410856516790479808
21501502 16 18338796693854318929
23235685 24 18265046006338534525
2334 1 18338516344079912013
23402539 116 18198613535368770412
23402655 69 18340470215799191413
23552423 10 18263364698456893975
2748010 2 18338518513017271679
5084963 1 18130793394698662984
528886 8 18195522816656942931
68250623 7 18339362938047812143
7364860 26 18270399378378461254

>  <PUBCHEM_SHAPE_MULTIPOLES>  (1) 
218.38
4.13
2.38
0.61
0.05
0.13
0
1
0
0.02
0
0.05
0.02
0

>  <PUBCHEM_SHAPE_SELFOVERLAP>  (1) 
436.956

>  <PUBCHEM_SHAPE_VOLUME>  (1) 
131.9

>  <PUBCHEM_COORDINATE_TYPE>  (1) 
2
5
10

$$$$
