17167
     RDKit          3D

  8  7  0  0  0  0  0  0  0  0999 V2000
   -4.0818    0.4351   -0.3398 O   0  0  0  0  0  0  0  0  0  0  0  0
    1.7467    0.1876    0.2150 C   0  0  0  0  0  0  0  0  0  0  0  0
    3.1061   -0.2843   -0.3064 C   0  0  0  0  0  0  0  0  0  0  0  0
    0.6107   -0.8035   -0.0591 C   0  0  0  0  0  0  0  0  0  0  0  0
    4.1991    0.7281    0.0001 C   0  0  0  0  0  0  0  0  0  0  0  0
   -0.7190   -0.3483    0.4719 C   0  0  0  0  0  0  0  0  0  0  0  0
   -1.7987   -0.1775   -0.3006 C   0  0  0  0  0  0  0  0  0  0  0  0
   -3.0632    0.2628    0.3189 C   0  0  0  0  0  0  0  0  0  0  0  0
  1  8  2  0
  2  3  1  0
  2  4  1  0
  3  5  1  0
  4  6  1  0
  6  7  2  0
  7  8  1  0
M  END
>  <PUBCHEM_COMPOUND_CID>  (1) 
17167

>  <PUBCHEM_CONFORMER_RMSD>  (1) 
0.6

>  <PUBCHEM_CONFORMER_DIVERSEORDER>  (1) 
1
17
19
11
16
6
18
7
13
9
15
4
3
5
12
8
14
10
2

>  <PUBCHEM_MMFF94_PARTIAL_CHARGES>  (1) 
8
1 -0.57
18 0.15
19 0.15
20 0.06
4 0.14
6 -0.29
7 -0.14
8 0.5

>  <PUBCHEM_EFFECTIVE_ROTOR_COUNT>  (1) 
4

>  <PUBCHEM_PHARMACOPHORE_FEATURES>  (1) 
3
1 1 acceptor
1 5 hydrophobe
4 2 3 4 6 hydrophobe

>  <PUBCHEM_HEAVY_ATOM_COUNT>  (1) 
8

>  <PUBCHEM_ATOM_DEF_STEREO_COUNT>  (1) 
0

>  <PUBCHEM_ATOM_UDEF_STEREO_COUNT>  (1) 
0

>  <PUBCHEM_BOND_DEF_STEREO_COUNT>  (1) 
0

>  <PUBCHEM_BOND_UDEF_STEREO_COUNT>  (1) 
1

>  <PUBCHEM_ISOTOPIC_ATOM_COUNT>  (1) 
0

>  <PUBCHEM_COMPONENT_COUNT>  (1) 
1

>  <PUBCHEM_CACTVS_TAUTO_COUNT>  (1) 
1

>  <PUBCHEM_CONFORMER_ID>  (1) 
0000430F00000001

>  <PUBCHEM_MMFF94_ENERGY>  (1) 
-0.4035

>  <PUBCHEM_FEATURE_SELFOVERLAP>  (1) 
15.223

>  <PUBCHEM_SHAPE_FINGERPRINT>  (1) 
11062470 55 18059857272577523728
14325111 11 18410576197233967762
14390081 3 18409166597435802041
177051 138 9295296040741735848
18342897 14 16515405174888474828
20211469 26 8790889579203180590
20645477 70 18060144185152201966
21119208 17 16559033791862313620
21293036 1 17203609293695789610

>  <PUBCHEM_SHAPE_MULTIPOLES>  (1) 
158.77
7.81
0.82
0.69
0.34
0.03
-0.02
-2.3
0.71
0.24
0
-0.06
0.01
0.08

>  <PUBCHEM_SHAPE_SELFOVERLAP>  (1) 
283.588

>  <PUBCHEM_SHAPE_VOLUME>  (1) 
102.7

>  <PUBCHEM_COORDINATE_TYPE>  (1) 
2
5
10

$$$$
