17181
     RDKit          2D

 15 14  0  0  0  0  0  0  0  0999 V2000
    0.0000    0.0000    0.0000 Si  0  0  0  0  0  4  0  0  0  0  0  0
    0.0000    0.0000    0.0000 Si  0  0  0  0  0  4  0  0  0  0  0  0
    0.0000    0.0000    0.0000 O   0  0  0  0  0  0  0  0  0  0  0  0
    0.0000    0.0000    0.0000 N   0  0  0  0  0  0  0  0  0  0  0  0
    0.0000    0.0000    0.0000 N   0  0  0  0  0  0  0  0  0  0  0  0
    0.0000    0.0000    0.0000 C   0  0  0  0  0  0  0  0  0  0  0  0
    0.0000    0.0000    0.0000 C   0  0  0  0  0  0  0  0  0  0  0  0
    0.0000    0.0000    0.0000 C   0  0  0  0  0  0  0  0  0  0  0  0
    0.0000    0.0000    0.0000 C   0  0  0  0  0  0  0  0  0  0  0  0
    0.0000    0.0000    0.0000 C   0  0  0  0  0  0  0  0  0  0  0  0
    0.0000    0.0000    0.0000 C   0  0  0  0  0  0  0  0  0  0  0  0
    0.0000    0.0000    0.0000 C   0  0  0  0  0  0  0  0  0  0  0  0
    0.0000    0.0000    0.0000 C   0  0  0  0  0  0  0  0  0  0  0  0
    0.0000    0.0000    0.0000 C   0  0  0  0  0  0  0  0  0  0  0  0
    0.0000    0.0000    0.0000 C   0  0  0  0  0  0  0  0  0  0  0  0
  1  3  1  0
  1  6  1  0
  1  8  1  0
  1  9  1  0
  2  3  1  0
  2  7  1  0
  2 10  1  0
  2 11  1  0
  4 14  1  0
  5 15  1  0
  6 12  1  0
  7 13  1  0
 12 14  1  0
 13 15  1  0
M  END
>  <PUBCHEM_COMPOUND_CID>  (1) 
17181

>  <PUBCHEM_CONFORMER_RMSD>  (1) 
0.8

>  <PUBCHEM_CONFORMER_DIVERSEORDER>  (1) 
19
62
43
178
98
155
39
34
87
49
139
179
156
152
142
83
48
188
166
162
138
71
82
165
170
14
73
108
95
68
100
74
171
131
125
89
60
52
17
105
53
164
42
123
133
122
78
148
176
29
114
15
54
45
158
47
143
124
141
185
163
115
13
26
67
147
182
33
38
51
102
136
3
85
59
172
103
69
84
101
20
181
75
161
64
77
119
110
157
177
134
58
113
35
96
167
86
184
111
28
63
80
4
94
173
160
79
99
61
1
146
121
44
144
183
180
118
127
88
31
137
2
132
66
175
151
107
16
187
129
81
168
56
104
36
72
159
135
7
174
5
55
91
130
40
169
65
154
41
106
46
112
186
11
150
97
12
57
10
76
128
30
140
149
70
8
37
120
93
126
153
90
145
23
116
117
21
32
27
109
22
9
6
92
25
50
18
24

>  <PUBCHEM_MMFF94_PARTIAL_CHARGES>  (1) 
17
1 0.54
10 -0.08
11 -0.08
14 0.27
15 0.27
2 0.54
3 -0.59
4 -0.99
40 0.36
41 0.36
42 0.36
43 0.36
5 -0.99
6 -0.08
7 -0.08
8 -0.08
9 -0.08

>  <PUBCHEM_EFFECTIVE_ROTOR_COUNT>  (1) 
8

>  <PUBCHEM_PHARMACOPHORE_FEATURES>  (1) 
4
1 4 cation
1 4 donor
1 5 cation
1 5 donor

>  <PUBCHEM_HEAVY_ATOM_COUNT>  (1) 
15

>  <PUBCHEM_ATOM_DEF_STEREO_COUNT>  (1) 
0

>  <PUBCHEM_ATOM_UDEF_STEREO_COUNT>  (1) 
0

>  <PUBCHEM_BOND_DEF_STEREO_COUNT>  (1) 
0

>  <PUBCHEM_BOND_UDEF_STEREO_COUNT>  (1) 
0

>  <PUBCHEM_ISOTOPIC_ATOM_COUNT>  (1) 
0

>  <PUBCHEM_COMPONENT_COUNT>  (1) 
1

>  <PUBCHEM_CACTVS_TAUTO_COUNT>  (1) 
1

$$$$
