17200
     RDKit          3D

 13 12  0  0  1  0  0  0  0  0999 V2000
   -0.5321    1.0095    1.1152 S   0  0  0  0  0  0  0  0  0  0  0  0
   -2.2014    0.9849   -0.1491 P   0  0  0  0  0  0  0  0  0  0  0  0
   -2.6307   -0.5284   -0.5465 O   0  0  0  0  0  0  0  0  0  0  0  0
   -1.9583    1.8318   -1.3702 O   0  0  0  0  0  0  0  0  0  0  0  0
    3.2612   -0.1967   -0.0317 N   0  0  0  0  0  0  0  0  0  0  0  0
    2.1457    0.3260    0.8619 C   0  0  0  0  0  0  0  0  0  0  0  0
    2.9511   -1.6279   -0.4461 C   0  0  0  0  0  0  0  0  0  0  0  0
    3.3697    0.6782   -1.2722 C   0  0  0  0  0  0  0  0  0  0  0  0
    4.5786   -0.1632    0.7296 C   0  0  0  0  0  0  0  0  0  0  0  0
    0.8344    0.3783    0.0952 C   0  0  0  0  0  0  0  0  0  0  0  0
   -3.6088    1.5960    0.7787 C   0  0  0  0  0  0  0  0  0  0  0  0
   -2.9214   -1.4902    0.4516 C   0  0  0  0  0  0  0  0  0  0  0  0
   -3.2879   -2.7984   -0.2162 C   0  0  0  0  0  0  0  0  0  0  0  0
  1  2  1  0
  1 10  1  0
  2  3  1  0
  2  4  2  0
  2 11  1  0
  3 12  1  0
  5  6  1  0
  5  7  1  0
  5  8  1  0
  5  9  1  0
  6 10  1  0
 12 13  1  0
M  CHG  1   5   1
M  END
>  <PUBCHEM_COMPOUND_CID>  (1) 
17200

>  <PUBCHEM_CONFORMER_RMSD>  (1) 
0.6

>  <PUBCHEM_CONFORMER_DIVERSEORDER>  (1) 
5
78
14
57
47
19
30
36
6
50
44
15
37
4
73
42
11
51
67
16
69
35
34
22
3
59
60
10
77
23
21
17
32
52
1
31
76
64
58
68
53
27
18
8
46
39
25
56
41
29
2
62
20
66
33
9
13
54
75
7
79
55
38
72
28
70
65
45
26
74
49
40
12
71
63
43
61
24
48

>  <PUBCHEM_MMFF94_PARTIAL_CHARGES>  (1) 
11
1 -0.48
10 0.23
12 0.28
2 1.22
3 -0.55
4 -0.7
5 -1.01
6 0.5
7 0.5
8 0.5
9 0.5

>  <PUBCHEM_EFFECTIVE_ROTOR_COUNT>  (1) 
6

>  <PUBCHEM_PHARMACOPHORE_FEATURES>  (1) 
1
1 5 cation

>  <PUBCHEM_HEAVY_ATOM_COUNT>  (1) 
13

>  <PUBCHEM_ATOM_DEF_STEREO_COUNT>  (1) 
0

>  <PUBCHEM_ATOM_UDEF_STEREO_COUNT>  (1) 
1

>  <PUBCHEM_BOND_DEF_STEREO_COUNT>  (1) 
0

>  <PUBCHEM_BOND_UDEF_STEREO_COUNT>  (1) 
0

>  <PUBCHEM_ISOTOPIC_ATOM_COUNT>  (1) 
0

>  <PUBCHEM_COMPONENT_COUNT>  (1) 
1

>  <PUBCHEM_CACTVS_TAUTO_COUNT>  (1) 
1

>  <PUBCHEM_CONFORMER_ID>  (1) 
0000433000000005

>  <PUBCHEM_MMFF94_ENERGY>  (1) 
22.2957

>  <PUBCHEM_FEATURE_SELFOVERLAP>  (1) 
5.074

>  <PUBCHEM_SHAPE_FINGERPRINT>  (1) 
12500047 106 18340481158442483297
12932764 1 18040427759384811840
13296908 3 17846494846358061536
14252887 29 16559038207547460850
15375358 24 17274816909469147528
17834074 16 18413673504251521307
18785283 64 17182224617750172225
19107657 162 17703515436655942582
19107657 46 18272652337648739030
19766037 51 18268995460906645083
20279233 1 17275383179542948004
20281475 54 18411421730112447507
20388580 30 17828482806334537095
20645477 56 18335698278535379529
20645477 70 16056036823386123636
21061003 4 17561083661127818257
21079973 296 18343013428315741408
22169311 21 18342167818106471754
22485316 2 18342457015376429992
22959321 105 18410291419664724944
23402539 116 17240197725328092184
23557571 272 18341327804150528892
23559900 14 18201155452271578250
449060 23 18263640826568592939
53428517 46 18343866619015629041
58051976 100 18411142424120582188

>  <PUBCHEM_SHAPE_MULTIPOLES>  (1) 
258.51
8.61
2.28
1.16
4.56
1.48
0.17
1.92
-0.15
-3.19
0.19
0.27
-0.44
-0.03

>  <PUBCHEM_SHAPE_SELFOVERLAP>  (1) 
439.036

>  <PUBCHEM_SHAPE_VOLUME>  (1) 
178.4

>  <PUBCHEM_COORDINATE_TYPE>  (1) 
2
5
10

$$$$
