17209
     RDKit          3D

 21 24  0  0  1  0  0  0  0  0999 V2000
    5.1858    1.0436   -0.4297 O   0  0  0  0  0  0  0  0  0  0  0  0
   -5.7048   -0.1192   -0.6554 O   0  0  0  0  0  0  0  0  0  0  0  0
    2.7903    0.5605   -0.0202 C   0  0  0  0  0  0  0  0  0  0  0  0
    2.0037   -0.7450   -0.2778 C   0  0  0  0  0  0  0  0  0  0  0  0
    0.6372   -0.7395    0.4174 C   0  0  0  0  0  0  0  0  0  0  0  0
   -0.1930    0.4445   -0.1787 C   0  0  0  0  0  0  0  0  0  0  0  0
    1.9914    1.7347   -0.6037 C   0  0  0  0  0  0  0  0  0  0  0  0
   -1.6726    0.4386    0.3507 C   0  0  0  0  0  0  0  0  0  0  0  0
    4.0891    0.2206   -0.7772 C   0  0  0  0  0  0  0  0  0  0  0  0
    0.5599    1.7910   -0.0339 C   0  0  0  0  0  0  0  0  0  0  0  0
    3.0185   -1.8362    0.0581 C   0  0  0  0  0  0  0  0  0  0  0  0
    4.3646   -1.2486   -0.4041 C   0  0  0  0  0  0  0  0  0  0  0  0
    3.1001    0.8483    1.4720 C   0  0  0  0  0  0  0  0  0  0  0  0
   -0.1136   -2.0360    0.2751 C   0  0  0  0  0  0  0  0  0  0  0  0
   -2.3030   -0.9268    0.0353 C   0  0  0  0  0  0  0  0  0  0  0  0
   -2.4862    1.5467   -0.3702 C   0  0  0  0  0  0  0  0  0  0  0  0
   -1.7324    0.6760    1.8782 C   0  0  0  0  0  0  0  0  0  0  0  0
   -1.4396   -2.0984    0.0926 C   0  0  0  0  0  0  0  0  0  0  0  0
   -3.9862    1.4554   -0.1200 C   0  0  0  0  0  0  0  0  0  0  0  0
   -3.5923   -1.0826   -0.3097 C   0  0  0  0  0  0  0  0  0  0  0  0
   -4.5170    0.0724   -0.3988 C   0  0  0  0  0  0  0  0  0  0  0  0
  1  9  1  0
  2 21  2  0
  3  4  1  0
  3  7  1  0
  3  9  1  0
  3 13  1  0
  4  5  1  0
  4 11  1  0
  5  6  1  0
  5 14  1  0
  6  8  1  0
  6 10  1  0
  7 10  1  0
  8 15  1  0
  8 16  1  0
  8 17  1  0
  9 12  1  0
 11 12  1  0
 14 18  2  0
 15 18  1  0
 15 20  2  0
 16 19  1  0
 19 21  1  0
 20 21  1  0
M  END
>  <PUBCHEM_COMPOUND_CID>  (1) 
17209

>  <PUBCHEM_CONFORMER_RMSD>  (1) 
0.6

>  <PUBCHEM_CONFORMER_DIVERSEORDER>  (1) 
1

>  <PUBCHEM_MMFF94_PARTIAL_CHARGES>  (1) 
15
1 -0.68
14 -0.29
15 -0.14
18 -0.15
19 0.06
2 -0.57
20 -0.14
21 0.49
37 0.15
43 0.15
46 0.4
47 0.15
5 0.14
8 0.14
9 0.28

>  <PUBCHEM_EFFECTIVE_ROTOR_COUNT>  (1) 
1.4

>  <PUBCHEM_PHARMACOPHORE_FEATURES>  (1) 
7
1 1 acceptor
1 1 donor
1 2 acceptor
5 3 4 9 11 12 rings
6 3 4 5 6 7 10 rings
6 5 6 8 14 15 18 rings
6 8 15 16 19 20 21 rings

>  <PUBCHEM_HEAVY_ATOM_COUNT>  (1) 
21

>  <PUBCHEM_ATOM_DEF_STEREO_COUNT>  (1) 
6

>  <PUBCHEM_ATOM_UDEF_STEREO_COUNT>  (1) 
0

>  <PUBCHEM_BOND_DEF_STEREO_COUNT>  (1) 
0

>  <PUBCHEM_BOND_UDEF_STEREO_COUNT>  (1) 
0

>  <PUBCHEM_ISOTOPIC_ATOM_COUNT>  (1) 
0

>  <PUBCHEM_COMPONENT_COUNT>  (1) 
1

>  <PUBCHEM_CACTVS_TAUTO_COUNT>  (1) 
2

>  <PUBCHEM_CONFORMER_ID>  (1) 
0000433900000001

>  <PUBCHEM_MMFF94_ENERGY>  (1) 
67.1138

>  <PUBCHEM_FEATURE_SELFOVERLAP>  (1) 
35.619

>  <PUBCHEM_SHAPE_FINGERPRINT>  (1) 
10366900 7 17418098732382291242
10498660 4 18334857190805022548
10967382 1 18409167688304715182
11315181 36 17988650709651753008
11471102 20 18408887330431016710
12011746 2 18412831287277243862
12236239 1 18059859446084235061
12403259 415 18412537704719653905
12592029 89 18187643579326058619
13140716 1 17905895034177598642
13224815 77 18202566180838767890
13533116 47 17989207010220671382
13571099 22 18412266125225682684
14790565 3 18194692470941538569
15099037 51 18407759239985293175
15196674 1 18409730629684058727
15536298 74 18342735212971333666
16945 1 18265898149240644410
17349148 13 18131913745586750471
18186145 218 18340764858291153537
19591789 44 18192429671320475719
19862831 5 18413108355227215727
200 152 17846498132203098213
20645477 70 18340207388958978686
21029758 11 18342739628224360673
21267235 1 18410864234852245415
21285901 2 18187080603111989548
221357 26 18413102845306570629
221490 88 18264214779885257179
23402539 116 18272083894358040103
23402655 69 18413671300859211758
23557571 272 14620525497111874041
23559900 14 18272366529297998800
2748010 2 18410863148214859526
2838139 119 16300042677568762295
2871803 45 18409450263199300566
296302 2 16805044033808861656
3004659 81 18261112929441358902
3286 77 17703784774339931042
335352 9 18337672988390993359
34934 24 18336825385823410854
350125 39 18410577258729388185
3545911 37 18411420630674666230
4028521 119 18410292510296202791
4280585 95 17336193663009339030
474 4 17748831851275877156
495365 180 17632283614842946330
5104073 3 18410013212783457539
633830 44 17530967968691480347
69090 78 18341891896322300615
9709674 26 18338517568024635879
9981440 41 17542505389289936912

>  <PUBCHEM_SHAPE_MULTIPOLES>  (1) 
420.43
9.52
2.08
1.01
1.58
0.38
0.42
-0.63
-2.21
-0.25
-0.04
-0.08
-0.24
-0.02

>  <PUBCHEM_SHAPE_SELFOVERLAP>  (1) 
909.475

>  <PUBCHEM_SHAPE_VOLUME>  (1) 
228.7

>  <PUBCHEM_COORDINATE_TYPE>  (1) 
2
5
10

$$$$
