17202
     RDKit          3D

 15 16  0  0  1  0  0  0  0  0999 V2000
   -0.3006   -0.9014    1.7064 O   0  0  0  0  0  0  0  0  0  0  0  0
    1.8790   -0.3298   -0.0925 N   0  0  0  0  0  0  0  0  0  0  0  0
    2.2924    0.9932    0.3960 C   0  0  0  0  0  0  0  0  0  0  0  0
    2.7412   -0.7830   -1.1930 C   0  0  0  0  0  0  0  0  0  0  0  0
    3.7400    0.9718    0.8895 C   0  0  0  0  0  0  0  0  0  0  0  0
    4.2033   -0.8623   -0.7516 C   0  0  0  0  0  0  0  0  0  0  0  0
    4.6878    0.4715   -0.1945 C   0  0  0  0  0  0  0  0  0  0  0  0
    0.4793   -0.3043   -0.5164 C   0  0  0  0  0  0  0  0  0  0  0  0
   -0.4395    0.0560    0.6573 C   0  0  0  0  0  0  0  0  0  0  0  0
   -1.8920    0.0866    0.2348 C   0  0  0  0  0  0  0  0  0  0  0  0
   -2.4354    1.2714   -0.2315 C   0  0  0  0  0  0  0  0  0  0  0  0
   -2.6465   -1.0707    0.3229 C   0  0  0  0  0  0  0  0  0  0  0  0
   -3.7743    1.2999   -0.6213 C   0  0  0  0  0  0  0  0  0  0  0  0
   -3.9855   -1.0421   -0.0671 C   0  0  0  0  0  0  0  0  0  0  0  0
   -4.5493    0.1432   -0.5391 C   0  0  0  0  0  0  0  0  0  0  0  0
  1  9  1  0
  2  3  1  0
  2  4  1  0
  2  8  1  0
  3  5  1  0
  4  6  1  0
  5  7  1  0
  6  7  1  0
  8  9  1  0
  9 10  1  0
 10 11  2  0
 10 12  1  0
 11 13  1  0
 12 14  2  0
 13 15  2  0
 14 15  1  0
M  END
>  <PUBCHEM_COMPOUND_CID>  (1) 
17202

>  <PUBCHEM_CONFORMER_RMSD>  (1) 
0.6

>  <PUBCHEM_CONFORMER_DIVERSEORDER>  (1) 
1
12
9
13
3
11
6
4
10
15
7
14
8
5
2

>  <PUBCHEM_MMFF94_PARTIAL_CHARGES>  (1) 
18
1 -0.68
10 -0.14
11 -0.15
12 -0.15
13 -0.15
14 -0.15
15 -0.15
2 -0.81
29 0.4
3 0.27
30 0.15
31 0.15
32 0.15
33 0.15
34 0.15
4 0.27
8 0.27
9 0.42

>  <PUBCHEM_EFFECTIVE_ROTOR_COUNT>  (1) 
4.2

>  <PUBCHEM_PHARMACOPHORE_FEATURES>  (1) 
5
1 1 acceptor
1 1 donor
1 2 cation
6 10 11 12 13 14 15 rings
6 2 3 4 5 6 7 rings

>  <PUBCHEM_HEAVY_ATOM_COUNT>  (1) 
15

>  <PUBCHEM_ATOM_DEF_STEREO_COUNT>  (1) 
0

>  <PUBCHEM_ATOM_UDEF_STEREO_COUNT>  (1) 
1

>  <PUBCHEM_BOND_DEF_STEREO_COUNT>  (1) 
0

>  <PUBCHEM_BOND_UDEF_STEREO_COUNT>  (1) 
0

>  <PUBCHEM_ISOTOPIC_ATOM_COUNT>  (1) 
0

>  <PUBCHEM_COMPONENT_COUNT>  (1) 
1

>  <PUBCHEM_CACTVS_TAUTO_COUNT>  (1) 
1

>  <PUBCHEM_CONFORMER_ID>  (1) 
0000433200000001

>  <PUBCHEM_MMFF94_ENERGY>  (1) 
25.9835

>  <PUBCHEM_FEATURE_SELFOVERLAP>  (1) 
25.371

>  <PUBCHEM_SHAPE_FINGERPRINT>  (1) 
10680689 15 18334301972040439403
11287383 113 18272651276749385047
114248 4 18343864424324283413
11471102 20 17846780711297711756
11615757 297 16774080686911789850
12236239 1 16153423956565161072
12251169 10 10015577307514579707
128620 24 15985105210648147036
12916748 109 17894634755425124193
13296908 3 18272654545103394300
13760787 5 16200433576189598873
14004511 7 16515685550073800654
15242439 84 18413108338073623068
15375462 189 15051733079520958735
15961568 22 18041559277732026476
1813 80 13973968726569230728
18186145 218 18412267211673106225
19026448 4 18342738524354150167
1986462 14 18408606950528450821
200 152 16988844964433752626
20279233 1 18413675711843508558
20281475 54 13110965305629226268
20300324 65 18334858329356159381
20645477 56 18335985273093380053
20645477 70 17846222116230431390
21065201 7 18259982665119528954
22485316 2 17561362894110579095
23402539 116 18186794798792432663
23402655 69 17989208135828923236
23557571 272 18412548708409795173
23559900 14 18409730638875444886
26918003 58 17489871531180782246
2838139 119 14852423499602319599
3268164 11 18113889468921526637
351380 180 18408036325484561960
4028521 119 18261387815521454237
4990 188 18410012113577816454
5281201 14 18343869904929724876
53428517 58 18060699502636942664
542803 24 16805325496000923372
573450 72 17821716235013209393
57812782 119 18413953892559054700
633830 44 18113335323128822284
69090 78 18343299292559488055
74978 22 16443922689740162940
77779 3 18344148089697469701
9971528 1 17313105237896856366

>  <PUBCHEM_SHAPE_MULTIPOLES>  (1) 
297.84
10.06
1.29
1.06
1.82
0.11
0.2
0.38
-1.95
-0.14
-0.06
0.13
-0.11
1.05

>  <PUBCHEM_SHAPE_SELFOVERLAP>  (1) 
612.614

>  <PUBCHEM_SHAPE_VOLUME>  (1) 
171.4

>  <PUBCHEM_COORDINATE_TYPE>  (1) 
2
5
10

$$$$
