17203
     RDKit          3D

 12 12  0  0  1  0  0  0  0  0999 V2000
    3.0669   -0.3631   -1.2098 O   0  0  0  0  0  0  0  0  0  0  0  0
   -1.9894   -1.4171   -0.5402 O   0  0  0  0  0  0  0  0  0  0  0  0
   -2.9164    1.1588   -0.0586 O   0  0  0  0  0  0  0  0  0  0  0  0
    2.6186    0.0685    0.0803 C   0  0  0  0  0  0  0  0  0  0  0  0
    1.1552    0.3531    0.0434 C   0  0  0  0  0  0  0  0  0  0  0  0
    0.2518   -0.6729   -0.2340 C   0  0  0  0  0  0  0  0  0  0  0  0
    0.6898    1.6456    0.2854 C   0  0  0  0  0  0  0  0  0  0  0  0
   -1.1169   -0.4065   -0.2694 C   0  0  0  0  0  0  0  0  0  0  0  0
    2.9879   -1.0049    1.1087 C   0  0  0  0  0  0  0  0  0  0  0  0
   -1.5822    0.8860   -0.0273 C   0  0  0  0  0  0  0  0  0  0  0  0
   -0.6789    1.9121    0.2500 C   0  0  0  0  0  0  0  0  0  0  0  0
   -2.4864   -2.1596    0.5714 C   0  0  0  0  0  0  0  0  0  0  0  0
  1  4  1  0
  2  8  1  0
  2 12  1  0
  3 10  1  0
  4  5  1  0
  4  9  1  0
  5  6  2  0
  5  7  1  0
  6  8  1  0
  7 11  2  0
  8 10  2  0
 10 11  1  0
M  END
>  <PUBCHEM_COMPOUND_CID>  (1) 
17203

>  <PUBCHEM_CONFORMER_RMSD>  (1) 
0.6

>  <PUBCHEM_CONFORMER_DIVERSEORDER>  (1) 
2
7
6
4
5
3
1

>  <PUBCHEM_MMFF94_PARTIAL_CHARGES>  (1) 
16
1 -0.68
10 0.08
11 -0.15
12 0.28
14 0.15
15 0.15
19 0.15
2 -0.36
20 0.4
24 0.45
3 -0.53
4 0.42
5 -0.14
6 -0.15
7 -0.15
8 0.08

>  <PUBCHEM_EFFECTIVE_ROTOR_COUNT>  (1) 
2

>  <PUBCHEM_PHARMACOPHORE_FEATURES>  (1) 
5
1 1 acceptor
1 1 donor
1 2 acceptor
1 3 donor
6 5 6 7 8 10 11 rings

>  <PUBCHEM_HEAVY_ATOM_COUNT>  (1) 
12

>  <PUBCHEM_ATOM_DEF_STEREO_COUNT>  (1) 
0

>  <PUBCHEM_ATOM_UDEF_STEREO_COUNT>  (1) 
1

>  <PUBCHEM_BOND_DEF_STEREO_COUNT>  (1) 
0

>  <PUBCHEM_BOND_UDEF_STEREO_COUNT>  (1) 
0

>  <PUBCHEM_ISOTOPIC_ATOM_COUNT>  (1) 
0

>  <PUBCHEM_COMPONENT_COUNT>  (1) 
1

>  <PUBCHEM_CACTVS_TAUTO_COUNT>  (1) 
3

>  <PUBCHEM_CONFORMER_ID>  (1) 
0000433300000002

>  <PUBCHEM_MMFF94_ENERGY>  (1) 
38.7725

>  <PUBCHEM_FEATURE_SELFOVERLAP>  (1) 
25.371

>  <PUBCHEM_SHAPE_FINGERPRINT>  (1) 
10857977 72 18201146732907634114
12716758 59 18198625423875064742
12932764 1 17967814920881081628
13380535 76 18269548343514759895
13538477 17 18260830358741163170
14128692 85 18336836401955667308
15310529 11 17095812009783354732
161256 15 18052824937692490229
16945 1 18340206276077035064
20645476 183 17968956187885374014
20645477 70 17836360828480457695
20653091 64 18189610721386473192
20711983 138 17560246808235565186
20715346 28 17775282785499481814
20871998 184 18202280316257937263
20871998 22 18198350739088941094
21040471 1 18053383201994873132
21501502 16 18338797943626790829
22802520 49 17915477020695423758
2334 1 18268425926525811233
23552423 10 18189616214422908332
23559900 14 18271242713125391382
2748010 2 18269827773818148621
3312278 4 18408604760184885050
369184 2 18334568002167183952
81228 2 18271524182726012096

>  <PUBCHEM_SHAPE_MULTIPOLES>  (1) 
229.35
4.51
2.03
0.87
1.46
0.03
0.02
1.7
-0.12
-1.4
-0.38
0.49
0.2
-0.05

>  <PUBCHEM_SHAPE_SELFOVERLAP>  (1) 
471.407

>  <PUBCHEM_SHAPE_VOLUME>  (1) 
133.3

>  <PUBCHEM_COORDINATE_TYPE>  (1) 
2
5
10

$$$$
