17217
     RDKit          3D

 13 14  0  0  0  0  0  0  0  0999 V2000
    0.2586    0.1248    0.2155 C   0  0  0  0  0  0  0  0  0  0  0  0
   -0.8956   -0.6575    0.3834 C   0  0  0  0  0  0  0  0  0  0  0  0
    1.4743   -0.5037   -0.1452 C   0  0  0  0  0  0  0  0  0  0  0  0
   -2.2136   -0.0565    0.7643 C   0  0  0  0  0  0  0  0  0  0  0  0
   -0.8518   -2.0397    0.1987 C   0  0  0  0  0  0  0  0  0  0  0  0
    0.2328    1.5172    0.3975 C   0  0  0  0  0  0  0  0  0  0  0  0
    1.4999   -1.8959   -0.3270 C   0  0  0  0  0  0  0  0  0  0  0  0
    2.6285    0.2787   -0.3130 C   0  0  0  0  0  0  0  0  0  0  0  0
    0.3437   -2.6577   -0.1558 C   0  0  0  0  0  0  0  0  0  0  0  0
    1.3891    2.2789    0.2267 C   0  0  0  0  0  0  0  0  0  0  0  0
    2.5846    1.6607   -0.1278 C   0  0  0  0  0  0  0  0  0  0  0  0
   -3.0373    0.3468   -0.4280 C   0  0  0  0  0  0  0  0  0  0  0  0
   -3.4132    1.6038   -0.6892 C   0  0  0  0  0  0  0  0  0  0  0  0
  1  2  2  0
  1  3  1  0
  1  6  1  0
  2  4  1  0
  2  5  1  0
  3  7  2  0
  3  8  1  0
  4 12  1  0
  5  9  2  0
  6 10  2  0
  7  9  1  0
  8 11  2  0
 10 11  1  0
 12 13  2  0
M  END
>  <PUBCHEM_COMPOUND_CID>  (1) 
17217

>  <PUBCHEM_CONFORMER_RMSD>  (1) 
0.6

>  <PUBCHEM_CONFORMER_DIVERSEORDER>  (1) 
1
3
4
2

>  <PUBCHEM_MMFF94_PARTIAL_CHARGES>  (1) 
21
10 -0.15
11 -0.15
12 -0.29
13 -0.3
16 0.15
17 0.15
18 0.15
19 0.15
2 -0.14
20 0.15
21 0.15
22 0.15
23 0.15
24 0.15
25 0.15
4 0.28
5 -0.15
6 -0.15
7 -0.15
8 -0.15
9 -0.15

>  <PUBCHEM_EFFECTIVE_ROTOR_COUNT>  (1) 
2

>  <PUBCHEM_PHARMACOPHORE_FEATURES>  (1) 
3
1 13 hydrophobe
6 1 2 3 5 7 9 rings
6 1 3 6 8 10 11 rings

>  <PUBCHEM_HEAVY_ATOM_COUNT>  (1) 
13

>  <PUBCHEM_ATOM_DEF_STEREO_COUNT>  (1) 
0

>  <PUBCHEM_ATOM_UDEF_STEREO_COUNT>  (1) 
0

>  <PUBCHEM_BOND_DEF_STEREO_COUNT>  (1) 
0

>  <PUBCHEM_BOND_UDEF_STEREO_COUNT>  (1) 
0

>  <PUBCHEM_ISOTOPIC_ATOM_COUNT>  (1) 
0

>  <PUBCHEM_COMPONENT_COUNT>  (1) 
1

>  <PUBCHEM_CACTVS_TAUTO_COUNT>  (1) 
1

>  <PUBCHEM_CONFORMER_ID>  (1) 
0000434100000001

>  <PUBCHEM_MMFF94_ENERGY>  (1) 
35.8922

>  <PUBCHEM_FEATURE_SELFOVERLAP>  (1) 
15.249

>  <PUBCHEM_SHAPE_FINGERPRINT>  (1) 
1 1 18410572881503170247
10967382 1 18339082583772560280
11206711 2 17909273824893568662
11471102 20 18266457612229312437
12423570 1 11526220448873017899
12654215 9 18263358084201912069
12730499 353 18335139761800110317
13380535 76 18338512044612082851
13464514 151 18192151490836934229
13897977 150 18409167688705752245
14614273 12 17693942203445094393
14617773 55 17486502498640935273
15279308 100 18337396036262907868
15490181 7 18194402414340030618
16945 1 18341061734930891066
18186145 218 18271535242430043501
193761 8 18195811988415871722
20606313 2 18265890255380722791
21524375 3 18335978770011597523
21639500 275 18339632365788944293
21947302 44 18335696096897071897
2334 1 18124601048369228496
23493267 7 17604162475143427232
23559900 14 18128557019205042036
238 59 17756665760303097293
241688 4 17402617346491021082
25 1 18337111172609689621
2748010 2 18268724981035526130
3071541 158 18190185585420801254
5255222 1 17622453061276971656
528886 8 18412544353175553696
63268167 104 18342178821670337345
81228 2 17331395883801435035

>  <PUBCHEM_SHAPE_MULTIPOLES>  (1) 
267.53
4.27
2.81
0.77
2.71
0.8
0.01
-2.42
-0.88
-0.78
-0.11
0.23
-0.06
0.47

>  <PUBCHEM_SHAPE_SELFOVERLAP>  (1) 
577.326

>  <PUBCHEM_SHAPE_VOLUME>  (1) 
139.2

>  <PUBCHEM_COORDINATE_TYPE>  (1) 
2
5
10

$$$$
