17210
     RDKit          3D

 18 19  0  0  0  0  0  0  0  0999 V2000
    4.7228   -0.0013    0.2436 S   0  0  0  0  0  0  0  0  0  0  0  0
    5.3741    0.0013   -1.2561 O   0  0  0  0  0  0  0  0  0  0  0  0
    5.0875    1.2628    0.8667 O   0  0  0  0  0  0  0  0  0  0  0  0
    5.0592   -1.2657    0.8795 O   0  0  0  0  0  0  0  0  0  0  0  0
   -1.1504    0.0011   -0.6052 N   0  0  0  0  0  0  0  0  0  0  0  0
   -1.7426   -0.0009    0.4996 N   0  0  0  0  0  0  0  0  0  0  0  0
    2.9951   -0.0009   -0.0066 C   0  0  0  0  0  0  0  0  0  0  0  0
    2.3044   -1.2086   -0.1087 C   0  0  0  0  0  0  0  0  0  0  0  0
    2.3050    1.2075   -0.1039 C   0  0  0  0  0  0  0  0  0  0  0  0
    0.2407    0.0004   -0.4046 C   0  0  0  0  0  0  0  0  0  0  0  0
    0.9238   -1.2078   -0.3083 C   0  0  0  0  0  0  0  0  0  0  0  0
    0.9244    1.2081   -0.3033 C   0  0  0  0  0  0  0  0  0  0  0  0
   -3.1267    0.0002    0.3005 C   0  0  0  0  0  0  0  0  0  0  0  0
   -3.8173   -1.2076    0.1989 C   0  0  0  0  0  0  0  0  0  0  0  0
   -3.8169    1.2085    0.2029 C   0  0  0  0  0  0  0  0  0  0  0  0
   -5.1978   -1.2071   -0.0006 C   0  0  0  0  0  0  0  0  0  0  0  0
   -5.1974    1.2089    0.0037 C   0  0  0  0  0  0  0  0  0  0  0  0
   -5.8879    0.0011   -0.0981 C   0  0  0  0  0  0  0  0  0  0  0  0
  1  2  1  0
  1  3  2  0
  1  4  2  0
  1  7  1  0
  5  6  2  0
  5 10  1  0
  6 13  1  0
  7  8  2  0
  7  9  1  0
  8 11  1  0
  9 12  2  0
 10 11  2  0
 10 12  1  0
 13 14  2  0
 13 15  1  0
 14 16  1  0
 15 17  2  0
 16 18  2  0
 17 18  1  0
M  END
>  <PUBCHEM_COMPOUND_CID>  (1) 
17210

>  <PUBCHEM_CONFORMER_RMSD>  (1) 
0.6

>  <PUBCHEM_CONFORMER_DIVERSEORDER>  (1) 
1
2

>  <PUBCHEM_MMFF94_PARTIAL_CHARGES>  (1) 
28
1 1.49
10 0.18
11 -0.15
12 -0.15
13 0.18
14 -0.15
15 -0.15
16 -0.15
17 -0.15
18 -0.15
19 0.15
2 -0.68
20 0.15
21 0.15
22 0.15
23 0.15
24 0.15
25 0.15
26 0.15
27 0.15
28 0.5
3 -0.65
4 -0.65
5 -0.18
6 -0.18
7 -0.01
8 -0.15
9 -0.15

>  <PUBCHEM_EFFECTIVE_ROTOR_COUNT>  (1) 
3

>  <PUBCHEM_PHARMACOPHORE_FEATURES>  (1) 
6
1 2 acceptor
1 3 acceptor
1 4 acceptor
4 1 2 3 4 anion
6 13 14 15 16 17 18 rings
6 7 8 9 10 11 12 rings

>  <PUBCHEM_HEAVY_ATOM_COUNT>  (1) 
18

>  <PUBCHEM_ATOM_DEF_STEREO_COUNT>  (1) 
0

>  <PUBCHEM_ATOM_UDEF_STEREO_COUNT>  (1) 
0

>  <PUBCHEM_BOND_DEF_STEREO_COUNT>  (1) 
0

>  <PUBCHEM_BOND_UDEF_STEREO_COUNT>  (1) 
0

>  <PUBCHEM_ISOTOPIC_ATOM_COUNT>  (1) 
0

>  <PUBCHEM_COMPONENT_COUNT>  (1) 
1

>  <PUBCHEM_CACTVS_TAUTO_COUNT>  (1) 
1

>  <PUBCHEM_CONFORMER_ID>  (1) 
0000433A00000001

>  <PUBCHEM_MMFF94_ENERGY>  (1) 
39.4551

>  <PUBCHEM_FEATURE_SELFOVERLAP>  (1) 
30.503

>  <PUBCHEM_SHAPE_FINGERPRINT>  (1) 
11315181 36 18410295826512160761
12107183 9 17689716355426911721
12236239 1 17846778511868202951
12507557 5 18272089413903049625
12916748 109 17060342920286210728
13167823 11 18408039632809918003
13533116 47 18041555837531098906
13675066 3 18131631205489876884
1420 363 17846503633945525599
14251764 18 18334288782649489194
14341114 176 18411704291816110913
15788980 27 18334017198481327123
17834072 33 18410575097563805103
17844677 252 17917438617905794592
19489759 90 18411135831957732025
200 152 18272931631272329451
20645477 70 18271247101574854326
21033648 29 16988266591537751681
21267235 1 18410865382156886215
21709351 56 18409725188430117037
220451 1 18260835886105863747
23402539 116 18334571344010319541
23559900 14 18339354275536821217
26918003 58 18410293618877728699
300161 21 18408317766438891031
34797466 226 17417818373939029740
351380 180 18408039628382867617
3545911 37 18412547600635013941
4073 2 18040722510115912755
4214541 1 18409449176904987869
42788 4 18341894095250363665
4463277 17 18408605872834771780
465052 167 18260832596656936506
5104073 3 18411141363701517161
542803 24 17385726902299643525
59755656 215 18272658909159861502
67856867 119 18264489653798330085
7495541 125 16701733977361568771
9709674 26 18411146840101960015
9971528 1 17676487280255522189

>  <PUBCHEM_SHAPE_MULTIPOLES>  (1) 
346.71
14.59
1.43
0.79
2.33
0
-0.03
-0.02
1.05
0.22
0.08
-0.64
0
0

>  <PUBCHEM_SHAPE_SELFOVERLAP>  (1) 
731.902

>  <PUBCHEM_SHAPE_VOLUME>  (1) 
194.9

>  <PUBCHEM_COORDINATE_TYPE>  (1) 
2
5
10

$$$$
