17229
     RDKit          3D

 13 13  0  0  0  0  0  0  0  0999 V2000
   -3.3222   -1.6445    0.3052 O   0  0  0  0  0  0  0  0  0  0  0  0
   -1.1028   -0.0534    0.0029 N   0  0  0  0  0  0  0  0  0  0  0  0
   -2.3588    0.4386   -0.0459 N   0  0  0  0  0  0  0  0  0  0  0  0
   -4.6417    0.2164    0.0402 N   0  0  0  0  0  0  0  0  0  0  0  0
    1.2701    0.2362   -0.0595 C   0  0  0  0  0  0  0  0  0  0  0  0
   -0.1142    0.7775   -0.1511 C   0  0  0  0  0  0  0  0  0  0  0  0
    2.2738    1.0589    0.4026 C   0  0  0  0  0  0  0  0  0  0  0  0
    1.4976   -1.0683   -0.4398 C   0  0  0  0  0  0  0  0  0  0  0  0
   -0.2733    2.2616   -0.4167 C   0  0  0  0  0  0  0  0  0  0  0  0
    3.5703    0.5515    0.4886 C   0  0  0  0  0  0  0  0  0  0  0  0
    2.7941   -1.5756   -0.3536 C   0  0  0  0  0  0  0  0  0  0  0  0
    3.8304   -0.7658    0.1108 C   0  0  0  0  0  0  0  0  0  0  0  0
   -3.4233   -0.4331    0.1162 C   0  0  0  0  0  0  0  0  0  0  0  0
  1 13  2  0
  2  3  1  0
  2  6  2  0
  3 13  1  0
  4 13  1  0
  5  6  1  0
  5  7  2  0
  5  8  1  0
  6  9  1  0
  7 10  1  0
  8 11  2  0
 10 12  2  0
 11 12  1  0
M  END
>  <PUBCHEM_COMPOUND_CID>  (1) 
17229

>  <PUBCHEM_CONFORMER_RMSD>  (1) 
0.6

>  <PUBCHEM_CONFORMER_DIVERSEORDER>  (1) 
1
2

>  <PUBCHEM_MMFF94_PARTIAL_CHARGES>  (1) 
21
1 -0.57
10 -0.15
11 -0.15
12 -0.15
13 0.69
14 0.15
15 0.15
19 0.15
2 -0.51
20 0.15
21 0.15
22 0.37
23 0.37
24 0.37
3 -0.37
4 -0.8
5 0.09
6 0.3
7 -0.15
8 -0.15
9 0.06

>  <PUBCHEM_EFFECTIVE_ROTOR_COUNT>  (1) 
3

>  <PUBCHEM_PHARMACOPHORE_FEATURES>  (1) 
5
1 1 acceptor
1 2 acceptor
1 3 donor
1 4 donor
6 5 7 8 10 11 12 rings

>  <PUBCHEM_HEAVY_ATOM_COUNT>  (1) 
13

>  <PUBCHEM_ATOM_DEF_STEREO_COUNT>  (1) 
0

>  <PUBCHEM_ATOM_UDEF_STEREO_COUNT>  (1) 
0

>  <PUBCHEM_BOND_DEF_STEREO_COUNT>  (1) 
0

>  <PUBCHEM_BOND_UDEF_STEREO_COUNT>  (1) 
1

>  <PUBCHEM_ISOTOPIC_ATOM_COUNT>  (1) 
0

>  <PUBCHEM_COMPONENT_COUNT>  (1) 
1

>  <PUBCHEM_CACTVS_TAUTO_COUNT>  (1) 
3

>  <PUBCHEM_CONFORMER_ID>  (1) 
0000434D00000001

>  <PUBCHEM_MMFF94_ENERGY>  (1) 
38.7766

>  <PUBCHEM_FEATURE_SELFOVERLAP>  (1) 
25.429

>  <PUBCHEM_SHAPE_FINGERPRINT>  (1) 
10219947 1 18341332270536273348
10618630 7 18408605842258141780
12032990 46 18409169908871437422
12251169 10 17989202650944533718
13296908 3 18408039606744357815
14251717 144 18342454854681001190
14252887 29 18412271631110265651
15375358 24 18410007732716533699
15501101 241 18341611542337484768
17844478 74 18412260606256257788
18186145 218 16153708756025906885
20201158 50 18408605855079993555
20279233 1 18409169917836041795
20281407 28 18409172090704209384
20645477 70 18271804584198249791
20871998 22 18270407083481043326
21119208 17 13912322378080504731
21501925 9 18410853274058490368
22485316 2 18408319986525695331
23402539 116 18186792582958592286
26918003 58 18341890783804308915
2748010 2 18055622929135401124
276578 36 13758077381115133380
2871803 45 18335136440946495158
33824 294 18411697677698876434
4047638 21 9367341548672971692
581208 293 18341609343435171722
81228 2 18042697099940093489
8809292 202 18260553337471874667

>  <PUBCHEM_SHAPE_MULTIPOLES>  (1) 
246.72
7.66
1.73
0.67
5.82
0.33
0.01
-2.36
-0.93
-0.21
0.18
-0.18
0.03
0.48

>  <PUBCHEM_SHAPE_SELFOVERLAP>  (1) 
508.363

>  <PUBCHEM_SHAPE_VOLUME>  (1) 
142.1

>  <PUBCHEM_COORDINATE_TYPE>  (1) 
2
5
10

$$$$
