17225
     RDKit          3D

 20 21  0  0  0  0  0  0  0  0999 V2000
   -6.4649    1.1137    0.1015 O   0  0  0  0  0  0  0  0  0  0  0  0
   -6.4652   -1.0720    0.3060 O   0  0  0  0  0  0  0  0  0  0  0  0
    5.8307   -0.0143   -0.1257 N   0  0  0  0  0  0  0  0  0  0  0  0
    0.2740    0.0534    0.5554 N   0  0  0  0  0  0  0  0  0  0  0  0
   -0.2958   -0.0506   -0.5561 N   0  0  0  0  0  0  0  0  0  0  0  0
   -5.8616    0.0138    0.1296 N   0  0  0  0  0  0  0  0  0  0  0  0
    4.4308    0.0030    0.0457 C   0  0  0  0  0  0  0  0  0  0  0  0
    3.7394    1.2142    0.0176 C   0  0  0  0  0  0  0  0  0  0  0  0
    3.7376   -1.1913    0.2435 C   0  0  0  0  0  0  0  0  0  0  0  0
    1.6619    0.0372    0.3851 C   0  0  0  0  0  0  0  0  0  0  0  0
    2.3550    1.2313    0.1873 C   0  0  0  0  0  0  0  0  0  0  0  0
    2.3531   -1.1741    0.4131 C   0  0  0  0  0  0  0  0  0  0  0  0
    6.4832   -1.1649   -0.7186 C   0  0  0  0  0  0  0  0  0  0  0  0
    6.6364    1.1121    0.3012 C   0  0  0  0  0  0  0  0  0  0  0  0
   -1.6906   -0.0344   -0.3844 C   0  0  0  0  0  0  0  0  0  0  0  0
   -4.4523   -0.0026   -0.0436 C   0  0  0  0  0  0  0  0  0  0  0  0
   -2.3758    1.1762   -0.4125 C   0  0  0  0  0  0  0  0  0  0  0  0
   -2.3758   -1.2292   -0.1872 C   0  0  0  0  0  0  0  0  0  0  0  0
   -3.7600    1.1921   -0.2416 C   0  0  0  0  0  0  0  0  0  0  0  0
   -3.7601   -1.2134   -0.0164 C   0  0  0  0  0  0  0  0  0  0  0  0
  1  6  1  0
  2  6  2  0
  3  7  1  0
  3 13  1  0
  3 14  1  0
  4  5  2  0
  4 10  1  0
  5 15  1  0
  6 16  1  0
  7  8  2  0
  7  9  1  0
  8 11  1  0
  9 12  2  0
 10 11  2  0
 10 12  1  0
 15 17  2  0
 15 18  1  0
 16 19  2  0
 16 20  1  0
 17 19  1  0
 18 20  2  0
M  CHG  2   1  -1   6   1
M  END
>  <PUBCHEM_COMPOUND_CID>  (1) 
17225

>  <PUBCHEM_CONFORMER_RMSD>  (1) 
0.6

>  <PUBCHEM_CONFORMER_DIVERSEORDER>  (1) 
1
3
4
2

>  <PUBCHEM_MMFF94_PARTIAL_CHARGES>  (1) 
28
1 -0.52
10 0.18
11 -0.15
12 -0.15
13 0.37
14 0.37
15 0.18
16 0.13
17 -0.15
18 -0.15
19 -0.15
2 -0.52
20 -0.15
21 0.15
22 0.15
23 0.15
24 0.15
3 -0.84
31 0.15
32 0.15
33 0.15
34 0.15
4 -0.18
5 -0.18
6 0.91
7 0.1
8 -0.15
9 -0.15

>  <PUBCHEM_EFFECTIVE_ROTOR_COUNT>  (1) 
4

>  <PUBCHEM_PHARMACOPHORE_FEATURES>  (1) 
6
1 1 acceptor
1 1 anion
1 2 acceptor
1 3 cation
6 15 16 17 18 19 20 rings
6 7 8 9 10 11 12 rings

>  <PUBCHEM_HEAVY_ATOM_COUNT>  (1) 
20

>  <PUBCHEM_ATOM_DEF_STEREO_COUNT>  (1) 
0

>  <PUBCHEM_ATOM_UDEF_STEREO_COUNT>  (1) 
0

>  <PUBCHEM_BOND_DEF_STEREO_COUNT>  (1) 
0

>  <PUBCHEM_BOND_UDEF_STEREO_COUNT>  (1) 
0

>  <PUBCHEM_ISOTOPIC_ATOM_COUNT>  (1) 
0

>  <PUBCHEM_COMPONENT_COUNT>  (1) 
1

>  <PUBCHEM_CACTVS_TAUTO_COUNT>  (1) 
1

>  <PUBCHEM_CONFORMER_ID>  (1) 
0000434900000001

>  <PUBCHEM_MMFF94_ENERGY>  (1) 
73.8113

>  <PUBCHEM_FEATURE_SELFOVERLAP>  (1) 
30.527

>  <PUBCHEM_SHAPE_FINGERPRINT>  (1) 
10354089 29 18334574642508253432
10366900 7 16298385759962778497
10968037 39 18186801387852565199
11315181 36 18060703909479208041
11524674 6 16773797017529142935
12091667 2 18060699499054040991
12107183 9 17688868631793182297
12236239 1 18060138739027629440
12516196 113 18060698403236331816
12730499 353 18333453136453526082
12916748 109 18408603652373622280
13073987 5 18337387141522677544
13288520 33 18409730673456547503
13533116 47 13686029657065006868
1420 363 17967817153979070042
14251764 18 18272369793441196215
14251764 46 18410854364916815043
14341114 176 18411140246625098860
14617045 38 18334579027158672994
14933364 13 18411420609221156060
15183329 4 18271531914305207802
17844677 252 18411987957221419776
19489759 90 10159700196545977111
200 152 18202281407532902336
20281389 69 18335417954810169440
20645477 70 18339923702200925214
21267235 1 18410299107244507149
220451 1 17022619775511468026
221357 26 18410854348159328828
22224240 67 16805321124125123360
2297311 6 18410578366208289677
23035841 295 17821727234461520418
23402539 116 17775278378826230149
23536379 177 18343021086274097944
23559900 14 18340761645487058313
29717793 49 17846785100764863956
300161 21 18334568040579159982
3004659 81 18409449176778225024
34797466 226 18059862783548371372
3545911 37 18409165510793284300
4073 2 18113903814202420714
4214541 1 18410291397989460781
4325135 7 17967534571365014374
4340502 62 16443059505073481690
4463277 17 18411136939484443680
5104073 3 18335976454950437696
59755656 215 18410014308174619390
59755656 520 16950279624439644099
77779 3 18409165515051243876

>  <PUBCHEM_SHAPE_MULTIPOLES>  (1) 
379.93
17.96
1.45
0.7
0.94
0
-0.02
-0.08
-0.16
-0.21
-0.01
-0.23
0.03
0.47

>  <PUBCHEM_SHAPE_SELFOVERLAP>  (1) 
809.87

>  <PUBCHEM_SHAPE_VOLUME>  (1) 
212.8

>  <PUBCHEM_COORDINATE_TYPE>  (1) 
2
5
10

$$$$
