17221
     RDKit          3D

 18 19  0  0  0  0  0  0  0  0999 V2000
    5.4777   -0.2536    0.7651 O   0  0  0  0  0  0  0  0  0  0  0  0
    2.8158   -0.1055   -0.3448 N   0  0  0  0  0  0  0  0  0  0  0  0
   -0.4530    1.7842   -0.6432 N   0  0  0  0  0  0  0  0  0  0  0  0
   -2.6839    1.2073   -0.1870 N   0  0  0  0  0  0  0  0  0  0  0  0
    3.1525    0.3559    1.0777 C   0  0  0  0  0  0  0  0  0  0  0  0
    4.0824   -0.0548   -1.2071 C   0  0  0  0  0  0  0  0  0  0  0  0
    1.7838    0.8590   -0.9382 C   0  0  0  0  0  0  0  0  0  0  0  0
    2.1926   -1.4999   -0.3480 C   0  0  0  0  0  0  0  0  0  0  0  0
    4.3490   -0.4084    1.6223 C   0  0  0  0  0  0  0  0  0  0  0  0
    5.2246   -0.7953   -0.5291 C   0  0  0  0  0  0  0  0  0  0  0  0
    0.5481    0.8886   -0.0592 C   0  0  0  0  0  0  0  0  0  0  0  0
   -2.8563    0.0046    0.6393 C   0  0  0  0  0  0  0  0  0  0  0  0
   -4.1217    0.1516    1.4853 C   0  0  0  0  0  0  0  0  0  0  0  0
   -2.9107   -1.2228   -0.2709 C   0  0  0  0  0  0  0  0  0  0  0  0
   -5.4011    0.0746    0.6527 C   0  0  0  0  0  0  0  0  0  0  0  0
   -4.1972   -1.2924   -1.0932 C   0  0  0  0  0  0  0  0  0  0  0  0
   -5.4368   -1.1819   -0.2113 C   0  0  0  0  0  0  0  0  0  0  0  0
   -1.5657    1.4888   -0.4104 C   0  0  0  0  0  0  0  0  0  0  0  0
  1  9  1  0
  1 10  1  0
  2  5  1  0
  2  6  1  0
  2  7  1  0
  2  8  1  0
  3 11  1  0
  3 18  2  0
  4 12  1  0
  4 18  2  0
  5  9  1  0
  6 10  1  0
  7 11  1  0
 12 13  1  0
 12 14  1  0
 13 15  1  0
 14 16  1  0
 15 17  1  0
 16 17  1  0
M  CHG  1   2   1
M  END
>  <PUBCHEM_COMPOUND_CID>  (1) 
17221

>  <PUBCHEM_CONFORMER_RMSD>  (1) 
0.8

>  <PUBCHEM_CONFORMER_DIVERSEORDER>  (1) 
2
28
55
33
71
62
58
53
42
20
32
29
64
21
1
48
69
25
37
61
17
59
44
63
50
27
57
19
66
46
34
49
41
56
70
43
67
4
40
9
5
54
22
36
11
60
68
38
24
10
39
7
31
18
3
12
52
65
72
14
30
16
6
13
35
47
45
8
51
15
26
23

>  <PUBCHEM_MMFF94_PARTIAL_CHARGES>  (1) 
13
1 -0.56
10 0.28
11 0.25
12 0.25
18 0.6
2 -1.01
3 -0.55
4 -0.55
5 0.5
6 0.5
7 0.5
8 0.5
9 0.28

>  <PUBCHEM_EFFECTIVE_ROTOR_COUNT>  (1) 
6.4

>  <PUBCHEM_PHARMACOPHORE_FEATURES>  (1) 
7
1 1 acceptor
1 2 cation
1 3 acceptor
1 4 acceptor
3 3 4 18 cation
6 1 2 5 6 9 10 rings
6 12 13 14 15 16 17 rings

>  <PUBCHEM_HEAVY_ATOM_COUNT>  (1) 
18

>  <PUBCHEM_ATOM_DEF_STEREO_COUNT>  (1) 
0

>  <PUBCHEM_ATOM_UDEF_STEREO_COUNT>  (1) 
0

>  <PUBCHEM_BOND_DEF_STEREO_COUNT>  (1) 
0

>  <PUBCHEM_BOND_UDEF_STEREO_COUNT>  (1) 
0

>  <PUBCHEM_ISOTOPIC_ATOM_COUNT>  (1) 
0

>  <PUBCHEM_COMPONENT_COUNT>  (1) 
1

>  <PUBCHEM_CACTVS_TAUTO_COUNT>  (1) 
1

>  <PUBCHEM_CONFORMER_ID>  (1) 
0000434500000002

>  <PUBCHEM_MMFF94_ENERGY>  (1) 
36.0081

>  <PUBCHEM_FEATURE_SELFOVERLAP>  (1) 
35.561

>  <PUBCHEM_SHAPE_FINGERPRINT>  (1) 
100836 57 11095884877810465309
10354089 29 15339117944701167264
10447042 23 17313099752965130114
10803635 8 15791725313241921699
11045977 3 17060618914642123531
11046707 91 18407759235658924109
11370993 144 16845020008783499668
11552529 35 16702007734029029799
12553582 1 18334581252114833965
12596602 18 16917349242508043115
12633257 1 18336267924421572983
12892183 10 16773805774861521621
13551218 46 18339082588310796287
1420 369 18333730208413342907
14251752 14 17240754052716282629
14251764 18 18186810175788513865
14251764 75 16769548651150849744
14341114 176 16630813213726890978
15183329 4 15068610570538922525
15188451 53 17703219720095413823
15537594 2 18335143076834718731
15880784 105 17775567571669345427
1798214 20 17240760692081529120
1813 80 18259990374543900469
18222031 100 18335138704541946940
18785283 64 17702086170746757680
19489759 90 17060342907907730545
200 152 17385441011964852676
20261772 1 18413669119311529854
20281389 69 12175620655527547178
20374829 77 18260546736518278845
204376 136 12463576179647802397
20621476 91 18268409365379591306
20645477 56 9439401333007421365
20645477 70 17968664937779550813
20871999 31 16588020195673421709
21065199 12 16630253532338605221
212847 35 11527948937386804996
22646028 1 18187082857964667797
23402539 116 17313384487542729580
23402655 69 12396291560800114837
23557571 272 18272377429524004341
23559900 14 18270955860385850921
26918003 58 17203892954963828449
29717793 49 17313384492143430886
3004659 81 18040718082067686989
312425 54 17632304453834726083
314173 85 18410857659468298781
339767 52 18411694409518706839
351380 3 18186803582053430291
4325135 7 18336266834143588196
5104073 3 18199197359527914953
559249 180 17749943359069226449
5924683 9 16486681580785774751
59682541 52 13190598556299410003
602551 16 18343299288712894102

>  <PUBCHEM_SHAPE_MULTIPOLES>  (1) 
349.62
13.93
1.49
1.29
0.12
0.02
-0.31
4.52
-2.61
-0.88
0.39
0.65
-0.08
-0.33

>  <PUBCHEM_SHAPE_SELFOVERLAP>  (1) 
694.981

>  <PUBCHEM_SHAPE_VOLUME>  (1) 
205.4

>  <PUBCHEM_COORDINATE_TYPE>  (1) 
2
5
10

$$$$
