17227
     RDKit          3D

 19 21  0  0  0  0  0  0  0  0999 V2000
    0.0029   -0.0410   -0.0013 O   0  0  0  0  0  0  0  0  0  0  0  0
    0.6954   -2.1682    0.0002 N   0  0  0  0  0  0  0  0  0  0  0  0
   -0.6871   -2.1691    0.0002 N   0  0  0  0  0  0  0  0  0  0  0  0
    2.3577   -0.3087   -0.0010 C   0  0  0  0  0  0  0  0  0  0  0  0
   -2.3517   -0.3112    0.0004 C   0  0  0  0  0  0  0  0  0  0  0  0
    1.0461   -0.9092   -0.0008 C   0  0  0  0  0  0  0  0  0  0  0  0
   -1.0473   -0.9068   -0.0005 C   0  0  0  0  0  0  0  0  0  0  0  0
    4.8947    0.8516    0.0007 C   0  0  0  0  0  0  0  0  0  0  0  0
   -4.8977    0.8502    0.0001 C   0  0  0  0  0  0  0  0  0  0  0  0
    2.4894    1.0799   -0.0016 C   0  0  0  0  0  0  0  0  0  0  0  0
   -2.4927    1.0808    0.0004 C   0  0  0  0  0  0  0  0  0  0  0  0
    3.4943   -1.1173    0.0005 C   0  0  0  0  0  0  0  0  0  0  0  0
   -3.4954   -1.1173    0.0002 C   0  0  0  0  0  0  0  0  0  0  0  0
    3.7579    1.6600   -0.0009 C   0  0  0  0  0  0  0  0  0  0  0  0
   -3.7616    1.6596    0.0004 C   0  0  0  0  0  0  0  0  0  0  0  0
    4.7629   -0.5372    0.0013 C   0  0  0  0  0  0  0  0  0  0  0  0
   -4.7644   -0.5384    0.0000 C   0  0  0  0  0  0  0  0  0  0  0  0
    6.2507    1.4726    0.0011 C   0  0  0  0  0  0  0  0  0  0  0  0
   -6.2542    1.4697    0.0005 C   0  0  0  0  0  0  0  0  0  0  0  0
  1  6  1  0
  1  7  1  0
  2  3  1  0
  2  6  2  0
  3  7  2  0
  4  6  1  0
  4 10  2  0
  4 12  1  0
  5  7  1  0
  5 11  2  0
  5 13  1  0
  8 14  2  0
  8 16  1  0
  8 18  1  0
  9 15  2  0
  9 17  1  0
  9 19  1  0
 10 14  1  0
 11 15  1  0
 12 16  2  0
 13 17  2  0
M  END
>  <PUBCHEM_COMPOUND_CID>  (1) 
17227

>  <PUBCHEM_CONFORMER_RMSD>  (1) 
0.6

>  <PUBCHEM_CONFORMER_DIVERSEORDER>  (1) 
1

>  <PUBCHEM_MMFF94_PARTIAL_CHARGES>  (1) 
27
1 -0.28
10 -0.15
11 -0.15
12 -0.15
13 -0.15
14 -0.15
15 -0.15
16 -0.15
17 -0.15
18 0.14
19 0.14
2 -0.34
20 0.15
21 0.15
22 0.15
23 0.15
24 0.15
25 0.15
26 0.15
27 0.15
3 -0.34
4 0.05
5 0.05
6 0.43
7 0.43
8 -0.14
9 -0.14

>  <PUBCHEM_EFFECTIVE_ROTOR_COUNT>  (1) 
2

>  <PUBCHEM_PHARMACOPHORE_FEATURES>  (1) 
3
5 1 2 3 6 7 rings
6 4 8 10 12 14 16 rings
6 5 9 11 13 15 17 rings

>  <PUBCHEM_HEAVY_ATOM_COUNT>  (1) 
19

>  <PUBCHEM_ATOM_DEF_STEREO_COUNT>  (1) 
0

>  <PUBCHEM_ATOM_UDEF_STEREO_COUNT>  (1) 
0

>  <PUBCHEM_BOND_DEF_STEREO_COUNT>  (1) 
0

>  <PUBCHEM_BOND_UDEF_STEREO_COUNT>  (1) 
0

>  <PUBCHEM_ISOTOPIC_ATOM_COUNT>  (1) 
0

>  <PUBCHEM_COMPONENT_COUNT>  (1) 
1

>  <PUBCHEM_CACTVS_TAUTO_COUNT>  (1) 
1

>  <PUBCHEM_CONFORMER_ID>  (1) 
0000434B00000001

>  <PUBCHEM_MMFF94_ENERGY>  (1) 
42.4809

>  <PUBCHEM_FEATURE_SELFOVERLAP>  (1) 
15.223

>  <PUBCHEM_SHAPE_FINGERPRINT>  (1) 
10 15 18040438801808974857
10354089 29 17894352176810623432
10411042 1 17689998930201300746
11595378 159 16733252457118674453
12107183 9 17688587165258667696
12236239 1 18409727361214063282
12507557 5 17822013133655537605
12555020 224 9511170812666624673
12596602 18 17022903483971665760
12633257 1 15647059286698671912
12916748 109 18411706482164996714
13167372 99 18269557148103018145
13402501 40 18410572885640518453
13740256 8 9367343743042589765
13785724 45 17833264221595515898
14251764 18 18260823818128411768
14341114 176 18335145267077648337
14528608 73 18342172271966465327
15183329 4 18272661108662722782
15188451 53 15430611670355488345
15196674 1 18410575088958078692
20281389 69 18187644682631668669
20645477 56 18411136965254065538
20645477 70 17274837826682644254
21033648 29 18342169024850156592
21236236 1 18340486768260816791
212847 35 18412823582227285928
21421861 104 17822274753557537154
21652331 79 18408039589543779389
221357 26 17988644064678398424
23227448 37 18342737472266719023
23402539 116 18272082824842579151
23402655 69 18273493481255349638
23559900 14 18272652321033437198
245318 6 17171538889215026148
26918003 58 10809335655080047974
2916195 48 18271519896759873528
293599 30 18411419522810454624
3004659 81 18409451354764675790
335352 9 18411139117966624190
34797466 226 17632585984329208357
351380 180 18410855468739364304
3545911 37 18411139134138846420
4073 2 18040722510669898114
4214541 1 18410575101848222855
4325135 7 18271804657813710271
4340502 62 16588024597972306122
474 4 18113340829313929245
495365 180 17346307246402790762
5104073 3 18334014977693306435
542803 24 18410573989446437933
59682541 35 18261685844077350417
59682541 52 17489041374881023420
59755656 215 18339366262368492854
59755656 520 17894627071665802642
633830 44 18411413999155977999
77779 3 18410856559639984454
8272917 22 18341051822542550022
8863177 126 11527077097886814381

>  <PUBCHEM_SHAPE_MULTIPOLES>  (1) 
375.18
14.35
2.01
0.6
0.04
0.23
0
-7.86
0.01
0
0
0
-0.02
0

>  <PUBCHEM_SHAPE_SELFOVERLAP>  (1) 
825.915

>  <PUBCHEM_SHAPE_VOLUME>  (1) 
204.6

>  <PUBCHEM_COORDINATE_TYPE>  (1) 
2
5
10

$$$$
