17222
     RDKit          3D

 17 18  0  0  0  0  0  0  0  0999 V2000
    5.3462   -1.0978    0.2701 O   0  0  0  0  0  0  0  0  0  0  0  0
    5.3465    1.0975    0.2701 O   0  0  0  0  0  0  0  0  0  0  0  0
   -0.8081   -0.0001   -0.6051 N   0  0  0  0  0  0  0  0  0  0  0  0
   -1.3982    0.0000    0.5009 N   0  0  0  0  0  0  0  0  0  0  0  0
    4.7443   -0.0001    0.1848 N   0  0  0  0  0  0  0  0  0  0  0  0
    0.5834    0.0000   -0.4072 C   0  0  0  0  0  0  0  0  0  0  0  0
    3.3384    0.0001   -0.0149 C   0  0  0  0  0  0  0  0  0  0  0  0
    1.2669   -1.2080   -0.3101 C   0  0  0  0  0  0  0  0  0  0  0  0
    1.2669    1.2080   -0.3097 C   0  0  0  0  0  0  0  0  0  0  0  0
    2.6478   -1.2079   -0.1133 C   0  0  0  0  0  0  0  0  0  0  0  0
    2.6479    1.2082   -0.1131 C   0  0  0  0  0  0  0  0  0  0  0  0
   -2.7826    0.0002    0.3045 C   0  0  0  0  0  0  0  0  0  0  0  0
   -3.4732   -1.2079    0.2064 C   0  0  0  0  0  0  0  0  0  0  0  0
   -3.4733    1.2082    0.2061 C   0  0  0  0  0  0  0  0  0  0  0  0
   -4.8541   -1.2081    0.0097 C   0  0  0  0  0  0  0  0  0  0  0  0
   -4.8542    1.2079    0.0095 C   0  0  0  0  0  0  0  0  0  0  0  0
   -5.5446   -0.0003   -0.0888 C   0  0  0  0  0  0  0  0  0  0  0  0
  1  5  1  0
  2  5  2  0
  3  4  2  0
  3  6  1  0
  4 12  1  0
  5  7  1  0
  6  8  2  0
  6  9  1  0
  7 10  2  0
  7 11  1  0
  8 10  1  0
  9 11  2  0
 12 13  2  0
 12 14  1  0
 13 15  1  0
 14 16  2  0
 15 17  2  0
 16 17  1  0
M  CHG  2   1  -1   5   1
M  END
>  <PUBCHEM_COMPOUND_CID>  (1) 
17222

>  <PUBCHEM_CONFORMER_RMSD>  (1) 
0.6

>  <PUBCHEM_CONFORMER_DIVERSEORDER>  (1) 
1
2

>  <PUBCHEM_MMFF94_PARTIAL_CHARGES>  (1) 
26
1 -0.52
10 -0.15
11 -0.15
12 0.18
13 -0.15
14 -0.15
15 -0.15
16 -0.15
17 -0.15
18 0.15
19 0.15
2 -0.52
20 0.15
21 0.15
22 0.15
23 0.15
24 0.15
25 0.15
26 0.15
3 -0.18
4 -0.18
5 0.91
6 0.18
7 0.13
8 -0.15
9 -0.15

>  <PUBCHEM_EFFECTIVE_ROTOR_COUNT>  (1) 
3

>  <PUBCHEM_PHARMACOPHORE_FEATURES>  (1) 
5
1 1 acceptor
1 1 anion
1 2 acceptor
6 12 13 14 15 16 17 rings
6 6 7 8 9 10 11 rings

>  <PUBCHEM_HEAVY_ATOM_COUNT>  (1) 
17

>  <PUBCHEM_ATOM_DEF_STEREO_COUNT>  (1) 
0

>  <PUBCHEM_ATOM_UDEF_STEREO_COUNT>  (1) 
0

>  <PUBCHEM_BOND_DEF_STEREO_COUNT>  (1) 
0

>  <PUBCHEM_BOND_UDEF_STEREO_COUNT>  (1) 
0

>  <PUBCHEM_ISOTOPIC_ATOM_COUNT>  (1) 
0

>  <PUBCHEM_COMPONENT_COUNT>  (1) 
1

>  <PUBCHEM_CACTVS_TAUTO_COUNT>  (1) 
1

>  <PUBCHEM_CONFORMER_ID>  (1) 
0000434600000001

>  <PUBCHEM_MMFF94_ENERGY>  (1) 
50.0377

>  <PUBCHEM_FEATURE_SELFOVERLAP>  (1) 
25.453

>  <PUBCHEM_SHAPE_FINGERPRINT>  (1) 
11401426 45 18333731321131495943
12107183 9 17689716359558381185
12236239 1 18060136543993392567
12507557 5 18272089413728976329
12815109 37 18113898260408441983
13167823 11 18409447007582694915
13533116 47 14189304712669802926
14341114 176 18410580582237048657
15196674 1 18410857663472758408
15788980 27 18187088351401834771
17834072 33 18412263960335416236
19489759 90 18411135831883859489
200 152 18273494581125517473
20279233 1 18187374224557100827
20645477 70 18200033936809465966
21267235 1 18409739469127803811
21709351 56 18408599279727572517
23402539 116 18409162212828126413
23402655 69 18343021081963254397
23559900 14 18339354275468216937
26918003 58 18410856568678182187
300161 21 18335415751670833407
351380 180 18408603673442166553
3545911 37 18411702076077209641
42 15 18407762534161899093
4214541 1 18409730647465405437
42788 4 18411138034616500232
5104073 3 18410295821694805361
542803 24 18272089392021849065
67856867 119 18264209282501640013
7495541 125 17060052717814849827
77779 3 18410858763474951157
9709674 26 18411146839943717447
9971528 1 17894349999151623428
9981440 41 17106790951315219385

>  <PUBCHEM_SHAPE_MULTIPOLES>  (1) 
323.17
13.17
1.44
0.66
0.34
0
-0.02
0
1.18
-0.11
0
-0.05
0
0

>  <PUBCHEM_SHAPE_SELFOVERLAP>  (1) 
697.239

>  <PUBCHEM_SHAPE_VOLUME>  (1) 
177.5

>  <PUBCHEM_COORDINATE_TYPE>  (1) 
2
5
10

$$$$
