17233
     RDKit          3D

 12 11  0  0  0  0  0  0  0  0999 V2000
    0.5593   -0.5052    0.0171 O   0  0  0  0  0  0  0  0  0  0  0  0
    1.6757    1.5138    0.0060 O   0  0  0  0  0  0  0  0  0  0  0  0
   -3.1502   -0.0984   -0.0057 N   0  0  0  0  0  0  0  0  0  0  0  0
   -1.8184   -0.8341    0.0292 C   0  0  0  0  0  0  0  0  0  0  0  0
   -3.2176    0.7699   -1.2538 C   0  0  0  0  0  0  0  0  0  0  0  0
   -4.2875   -1.1094   -0.0290 C   0  0  0  0  0  0  0  0  0  0  0  0
   -3.2774    0.7799    1.2307 C   0  0  0  0  0  0  0  0  0  0  0  0
   -0.6882    0.1762    0.0210 C   0  0  0  0  0  0  0  0  0  0  0  0
    2.9093   -0.5824    0.0052 C   0  0  0  0  0  0  0  0  0  0  0  0
    1.6751    0.2905    0.0095 C   0  0  0  0  0  0  0  0  0  0  0  0
    4.1931    0.2431   -0.0294 C   0  0  0  0  0  0  0  0  0  0  0  0
    5.4270   -0.6439   -0.0006 C   0  0  0  0  0  0  0  0  0  0  0  0
  1  8  1  0
  1 10  1  0
  2 10  2  0
  3  4  1  0
  3  5  1  0
  3  6  1  0
  3  7  1  0
  4  8  1  0
  9 10  1  0
  9 11  1  0
 11 12  1  0
M  CHG  1   3   1
M  END
>  <PUBCHEM_COMPOUND_CID>  (1) 
17233

>  <PUBCHEM_CONFORMER_RMSD>  (1) 
0.6

>  <PUBCHEM_CONFORMER_DIVERSEORDER>  (1) 
1
117
37
88
7
101
106
74
83
9
89
81
103
2
114
3
47
109
10
54
34
107
36
116
41
63
82
79
59
80
78
49
43
87
94
52
25
42
69
15
44
57
39
33
48
115
29
6
17
68
60
110
20
76
58
96
111
70
11
112
50
26
108
90
46
45
4
104
64
100
73
91
30
97
66
93
65
105
99
38
56
62
12
23
113
95
98
28
19
86
40
5
92
61
14
31
21
8
85
22
18
35
72
67
53
16
32
55
51
77
24
13
27
102
75
71
84

>  <PUBCHEM_MMFF94_PARTIAL_CHARGES>  (1) 
10
1 -0.43
10 0.66
2 -0.57
3 -1.01
4 0.5
5 0.5
6 0.5
7 0.5
8 0.28
9 0.06

>  <PUBCHEM_EFFECTIVE_ROTOR_COUNT>  (1) 
6

>  <PUBCHEM_PHARMACOPHORE_FEATURES>  (1) 
3
1 12 hydrophobe
1 2 acceptor
1 3 cation

>  <PUBCHEM_HEAVY_ATOM_COUNT>  (1) 
12

>  <PUBCHEM_ATOM_DEF_STEREO_COUNT>  (1) 
0

>  <PUBCHEM_ATOM_UDEF_STEREO_COUNT>  (1) 
0

>  <PUBCHEM_BOND_DEF_STEREO_COUNT>  (1) 
0

>  <PUBCHEM_BOND_UDEF_STEREO_COUNT>  (1) 
0

>  <PUBCHEM_ISOTOPIC_ATOM_COUNT>  (1) 
0

>  <PUBCHEM_COMPONENT_COUNT>  (1) 
1

>  <PUBCHEM_CACTVS_TAUTO_COUNT>  (1) 
1

>  <PUBCHEM_CONFORMER_ID>  (1) 
0000435100000001

>  <PUBCHEM_MMFF94_ENERGY>  (1) 
25.2211

>  <PUBCHEM_FEATURE_SELFOVERLAP>  (1) 
15.223

>  <PUBCHEM_SHAPE_FINGERPRINT>  (1) 
10680689 15 17676490540209149595
11062470 55 12607407693264392014
124424 183 18260266347672382888
12916754 54 18262801894969944285
12932764 1 17967525787898307593
13690532 89 18412262843976371434
14123238 8 18409731776777988766
14144814 61 18342176643884573923
14252887 29 17988651770408695246
17834072 33 18341332301017652580
17834076 25 10519989261736031795
18186145 218 18410290324131456016
1986462 14 18334295370543843215
200 152 18202274832333702023
20279233 1 17458348528427845531
20645477 56 17968372347918056197
20645477 70 18340489972280188982
20671657 1 18193283111603577804
20719005 15 18410856568704653218
20828058 21 17240481407786000774
22485316 2 18187359918174018562
2306618 200 18409729526542589105
23380061 127 17775005691563415035
23402539 116 17060334111086915753
42 15 18059860570938398778
42788 4 18335138696468716910

>  <PUBCHEM_SHAPE_MULTIPOLES>  (1) 
230.23
10.54
1.12
0.87
7.67
0.09
-0.01
-1.8
-0.06
-0.39
0
-0.9
0.21
-0.02

>  <PUBCHEM_SHAPE_SELFOVERLAP>  (1) 
420.549

>  <PUBCHEM_SHAPE_VOLUME>  (1) 
149.4

>  <PUBCHEM_COORDINATE_TYPE>  (1) 
2
5
10

$$$$
