1723
     RDKit          3D

 29 31  0  0  0  0  0  0  0  0999 V2000
   -0.1428   -0.5430   -0.3627 S   0  0  0  0  0  0  0  0  0  0  0  0
   -5.7024   -2.2351    1.0246 F   0  0  0  0  0  0  0  0  0  0  0  0
    5.5566    0.8963    2.1946 F   0  0  0  0  0  0  0  0  0  0  0  0
    6.3610    2.4742    0.9253 F   0  0  0  0  0  0  0  0  0  0  0  0
    4.2143    2.0769    0.9486 F   0  0  0  0  0  0  0  0  0  0  0  0
    5.5079    1.2095   -1.4070 O   0  0  0  0  0  0  0  0  0  0  0  0
    6.9338   -0.0550   -0.0923 O   0  0  0  0  0  0  0  0  0  0  0  0
   -4.1278    2.0101   -0.5957 N   0  0  0  0  0  0  0  0  0  0  0  0
   -3.4537   -2.1173   -0.2168 N   0  0  0  0  0  0  0  0  0  0  0  0
   -2.7629    0.0572   -0.9843 C   0  0  0  0  0  0  0  0  0  0  0  0
   -3.7035   -0.7269   -0.3319 C   0  0  0  0  0  0  0  0  0  0  0  0
   -1.5158   -0.5319   -1.5550 C   0  0  0  0  0  0  0  0  0  0  0  0
   -4.8648   -0.1443    0.1931 C   0  0  0  0  0  0  0  0  0  0  0  0
    4.5882   -0.5966   -0.1082 C   0  0  0  0  0  0  0  0  0  0  0  0
    2.4273   -1.4662   -0.7084 C   0  0  0  0  0  0  0  0  0  0  0  0
    5.6056    0.4926   -0.1639 C   0  0  0  0  0  0  0  0  0  0  0  0
   -3.0208    1.4089   -1.0885 C   0  0  0  0  0  0  0  0  0  0  0  0
    1.1113   -1.3039   -1.4179 C   0  0  0  0  0  0  0  0  0  0  0  0
   -5.0390    1.2467    0.0368 C   0  0  0  0  0  0  0  0  0  0  0  0
    3.3679   -0.4462   -0.7672 C   0  0  0  0  0  0  0  0  0  0  0  0
    4.8567   -1.7658    0.6038 C   0  0  0  0  0  0  0  0  0  0  0  0
    2.6853   -2.6340   -0.0023 C   0  0  0  0  0  0  0  0  0  0  0  0
   -5.8365   -0.9108    0.8587 C   0  0  0  0  0  0  0  0  0  0  0  0
    5.4327    1.4944    0.9874 C   0  0  0  0  0  0  0  0  0  0  0  0
    3.9053   -2.7844    0.6566 C   0  0  0  0  0  0  0  0  0  0  0  0
   -2.0515    2.3128   -1.7779 C   0  0  0  0  0  0  0  0  0  0  0  0
   -6.1926    1.8250    0.5590 C   0  0  0  0  0  0  0  0  0  0  0  0
   -6.9809   -0.3064    1.3709 C   0  0  0  0  0  0  0  0  0  0  0  0
   -7.1588    1.0633    1.2208 C   0  0  0  0  0  0  0  0  0  0  0  0
  1 12  1  0
  1 18  1  0
  2 23  1  0
  3 24  1  0
  4 24  1  0
  5 24  1  0
  6 16  1  0
  7 16  1  0
  8 17  2  0
  8 19  1  0
  9 11  1  0
 10 11  2  0
 10 12  1  0
 10 17  1  0
 11 13  1  0
 13 19  2  0
 13 23  1  0
 14 16  1  0
 14 20  2  0
 14 21  1  0
 15 18  1  0
 15 20  1  0
 15 22  2  0
 16 24  1  0
 17 26  1  0
 19 27  1  0
 21 25  2  0
 22 25  1  0
 23 28  2  0
 27 29  2  0
 28 29  1  0
M  END
>  <PUBCHEM_COMPOUND_CID>  (1) 
1723

>  <PUBCHEM_CONFORMER_RMSD>  (1) 
0.8

>  <PUBCHEM_CONFORMER_DIVERSEORDER>  (1) 
1
220
239
180
64
200
127
9
134
201
177
114
39
103
196
235
245
12
195
184
124
254
249
92
120
252
205
211
15
230
260
122
216
125
173
187
67
33
94
104
131
34
16
59
165
210
190
183
140
160
36
219
13
213
234
74
144
208
126
171
202
69
148
85
228
133
119
139
3
151
248
258
232
42
147
105
164
116
253
255
106
63
186
161
162
49
28
154
128
32
115
145
188
221
257
123
82
261
259
137
174
21
95
14
175
143
86
56
83
107
191
30
170
61
222
203
51
176
54
44
81
198
8
149
214
129
231
194
31
251
263
70
24
118
156
142
135
4
262
10
264
27
141
227
204
209
152
246
166
207
197
53
169
192
7
47
20
136
223
52
117
240
233
172
215
99
110
236
35
225
167
68
229
84
212
146
163
77
182
66
155
60
256
37
62
65
250
238
185
138
97
17
199
153
6
130
96
46
111
178
41
237
76
206
132
150
265
226
100
98
11
242
87
157
121
72
109
168
22
108
25
89
189
43
23
179
45
26
40
5
158
18
2
19
102
113
80
78
29
90
73
79
91
57
218
50
193
88
244
48
55
217
71
93
38
243
241
58
101
75
112
181
159
247
224

>  <PUBCHEM_MMFF94_PARTIAL_CHARGES>  (1) 
39
1 -0.46
10 -0.14
11 0.1
12 0.37
14 -0.14
15 -0.14
16 0.7
17 0.17
18 0.37
19 0.31
2 -0.19
20 -0.15
21 -0.15
22 -0.15
23 0.19
24 1.02
25 -0.15
26 0.14
27 -0.15
28 -0.15
29 -0.15
3 -0.34
34 0.15
35 0.15
36 0.15
37 0.15
4 -0.34
41 0.15
42 0.4
43 0.4
44 0.15
45 0.15
46 0.4
47 0.4
5 -0.34
6 -0.68
7 -0.68
8 -0.62
9 -0.9

>  <PUBCHEM_EFFECTIVE_ROTOR_COUNT>  (1) 
6

>  <PUBCHEM_PHARMACOPHORE_FEATURES>  (1) 
10
1 6 acceptor
1 6 donor
1 7 acceptor
1 7 donor
1 8 acceptor
1 9 cation
1 9 donor
6 13 19 23 27 28 29 rings
6 14 15 20 21 22 25 rings
6 8 10 11 13 17 19 rings

>  <PUBCHEM_HEAVY_ATOM_COUNT>  (1) 
29

>  <PUBCHEM_ATOM_DEF_STEREO_COUNT>  (1) 
0

>  <PUBCHEM_ATOM_UDEF_STEREO_COUNT>  (1) 
0

>  <PUBCHEM_BOND_DEF_STEREO_COUNT>  (1) 
0

>  <PUBCHEM_BOND_UDEF_STEREO_COUNT>  (1) 
0

>  <PUBCHEM_ISOTOPIC_ATOM_COUNT>  (1) 
0

>  <PUBCHEM_COMPONENT_COUNT>  (1) 
1

>  <PUBCHEM_CACTVS_TAUTO_COUNT>  (1) 
8

>  <PUBCHEM_CONFORMER_ID>  (1) 
000006BB00000001

>  <PUBCHEM_MMFF94_ENERGY>  (1) 
82.702

>  <PUBCHEM_FEATURE_SELFOVERLAP>  (1) 
50.872

>  <PUBCHEM_SHAPE_FINGERPRINT>  (1) 
10 15 18341618101195456103
10290309 65 18264768766553545319
12166972 35 14345799356963492686
12596602 18 18412267203500332035
12616971 3 18130774626003225558
12925494 130 18048589331462021605
13383668 362 18191601950757666761
13668630 136 12468637218495026258
13782708 43 11097865090179055065
14341114 176 18335423422028971214
14347332 77 10809342235197162751
146900 427 18343863312281434930
14840074 17 15985385569223589273
14933364 13 18412829075210869518
15183329 4 11240002234871238335
15188451 53 16153427246763311079
15348495 7 18409449150697691635
15575132 122 14476686235653720667
16110190 28 18408890629182236527
16760501 71 18342738524581237381
17349148 13 14923947808165725302
17857418 61 12396302551679480004
19377110 9 17749107794229345271
2026 5 11963384159491248081
21033648 29 18201146763600126808
21130935 74 18336552625436279003
21136928 87 14733118142203626938
21458453 9 18042135408385417576
21792934 111 18113903715914103381
22122407 14 17418382389302550761
2215653 11 9295287244231943444
23198884 109 11383828247885279663
23559900 14 18050597070207141591
312425 54 18041002804498778315
3178227 256 18339075983532342466
3383291 50 17168161065583576883
3663271 9 18408889508122270099
394071 54 17704358766243320204
397830 11 18408887330489181815
4073 2 18261959647261716906
4258327 124 17131824375164832045
4340502 62 18187364329206009202
504843 32 13342123516265005567
5104073 3 18262233300891484555
531348 171 10737285762683256089
5364581 5 18337955705225532777
57307002 103 18269838627654745038
6443934 186 17894636984692356220
6608658 132 13686308928972037955
6697151 62 17615944639789202190

>  <PUBCHEM_SHAPE_MULTIPOLES>  (1) 
549.86
21.59
2.75
1.49
0.91
0.13
0.03
-5.69
9.98
-1.69
0.28
-0.08
-0.46
1.5

>  <PUBCHEM_SHAPE_SELFOVERLAP>  (1) 
1188.676

>  <PUBCHEM_SHAPE_VOLUME>  (1) 
308.1

>  <PUBCHEM_COORDINATE_TYPE>  (1) 
2
5
10

$$$$
