17231
     RDKit          3D

 18 18  0  0  0  0  0  0  0  0999 V2000
   -0.6305    1.2036    0.6395 O   0  0  0  0  0  0  0  0  0  0  0  0
   -6.0369   -1.8852    0.0560 O   0  0  0  0  0  0  0  0  0  0  0  0
   -6.6649   -0.0316   -1.1001 O   0  0  0  0  0  0  0  0  0  0  0  0
    4.1963    0.4557    0.0615 C   0  0  0  0  0  0  0  0  0  0  0  0
    5.3745   -0.5205    0.1241 C   0  0  0  0  0  0  0  0  0  0  0  0
    2.8589   -0.1788    0.4499 C   0  0  0  0  0  0  0  0  0  0  0  0
    6.6989    0.0935   -0.3347 C   0  0  0  0  0  0  0  0  0  0  0  0
    1.7170    0.8313    0.3477 C   0  0  0  0  0  0  0  0  0  0  0  0
    7.8235   -0.9431   -0.3207 C   0  0  0  0  0  0  0  0  0  0  0  0
    0.3881    0.2218    0.7714 C   0  0  0  0  0  0  0  0  0  0  0  0
    9.1342   -0.3496   -0.8118 C   0  0  0  0  0  0  0  0  0  0  0  0
   -1.8955    0.7500    0.3687 C   0  0  0  0  0  0  0  0  0  0  0  0
   -2.7692    1.5452   -0.3634 C   0  0  0  0  0  0  0  0  0  0  0  0
   -2.2913   -0.4995    0.8310 C   0  0  0  0  0  0  0  0  0  0  0  0
   -4.0571    1.0843   -0.6373 C   0  0  0  0  0  0  0  0  0  0  0  0
   -3.5791   -0.9605    0.5572 C   0  0  0  0  0  0  0  0  0  0  0  0
   -4.4619   -0.1684   -0.1770 C   0  0  0  0  0  0  0  0  0  0  0  0
   -5.8050   -0.6480   -0.4623 C   0  0  0  0  0  0  0  0  0  0  0  0
  1 10  1  0
  1 12  1  0
  2 18  1  0
  3 18  2  0
  4  5  1  0
  4  6  1  0
  5  7  1  0
  6  8  1  0
  7  9  1  0
  8 10  1  0
  9 11  1  0
 12 13  2  0
 12 14  1  0
 13 15  1  0
 14 16  2  0
 15 17  2  0
 16 17  1  0
 17 18  1  0
M  END
>  <PUBCHEM_COMPOUND_CID>  (1) 
17231

>  <PUBCHEM_CONFORMER_RMSD>  (1) 
0.8

>  <PUBCHEM_CONFORMER_DIVERSEORDER>  (1) 
1
290
192
201
124
121
78
272
20
126
217
260
49
19
82
251
270
32
280
2
85
147
71
51
158
41
261
90
109
105
61
30
210
63
118
285
65
28
69
47
254
48
59
200
283
42
140
57
166
219
237
16
111
76
108
99
132
13
122
246
256
214
27
37
67
23
127
193
287
139
96
86
253
8
163
18
227
191
220
7
185
31
72
33
172
98
115
238
145
119
54
46
173
6
275
11
167
156
262
36
62
68
12
77
264
107
75
223
212
288
129
24
53
25
184
232
125
268
150
9
102
64
101
26
183
203
128
94
196
138
180
206
79
133
56
100
182
143
243
66
169
120
276
187
259
286
80
106
249
134
83
229
279
60
149
50
188
226
152
103
117
136
269
97
38
202
240
157
34
93
199
112
21
92
148
81
204
164
168
29
186
146
216
22
211
233
207
3
87
155
174
239
14
266
110
215
231
277
189
178
74
161
160
10
45
197
5
153
176
222
195
104
141
95
91
52
273
70
43
209
137
218
281
198
205
154
162
267
255
151
213
181
35
252
245
234
230
170
39
73
165
58
179
89
284
114
4
236
175
84
123
171
17
88
159
224
135
130
248
221
235
15
271
241
177
116
190
258
225
44
113
244
282
289
144
142
274
40
194
247
265
208
257
131
242
278
55
250
228
263

>  <PUBCHEM_MMFF94_PARTIAL_CHARGES>  (1) 
16
1 -0.36
10 0.28
12 0.08
13 -0.15
14 -0.15
15 -0.15
16 -0.15
17 0.09
18 0.63
2 -0.65
3 -0.57
36 0.15
37 0.15
38 0.15
39 0.15
40 0.5

>  <PUBCHEM_EFFECTIVE_ROTOR_COUNT>  (1) 
9

>  <PUBCHEM_PHARMACOPHORE_FEATURES>  (1) 
8
1 1 acceptor
1 11 hydrophobe
1 2 acceptor
1 3 acceptor
3 2 3 18 anion
3 4 6 8 hydrophobe
3 5 7 9 hydrophobe
6 12 13 14 15 16 17 rings

>  <PUBCHEM_HEAVY_ATOM_COUNT>  (1) 
18

>  <PUBCHEM_ATOM_DEF_STEREO_COUNT>  (1) 
0

>  <PUBCHEM_ATOM_UDEF_STEREO_COUNT>  (1) 
0

>  <PUBCHEM_BOND_DEF_STEREO_COUNT>  (1) 
0

>  <PUBCHEM_BOND_UDEF_STEREO_COUNT>  (1) 
0

>  <PUBCHEM_ISOTOPIC_ATOM_COUNT>  (1) 
0

>  <PUBCHEM_COMPONENT_COUNT>  (1) 
1

>  <PUBCHEM_CACTVS_TAUTO_COUNT>  (1) 
1

>  <PUBCHEM_CONFORMER_ID>  (1) 
0000434F00000001

>  <PUBCHEM_MMFF94_ENERGY>  (1) 
35.8039

>  <PUBCHEM_FEATURE_SELFOVERLAP>  (1) 
40.667

>  <PUBCHEM_SHAPE_FINGERPRINT>  (1) 
10 15 10807932674269759302
10066227 49 18268713819265610182
10299344 5 13973963212738518412
106641 1 12895066332334121798
10968037 39 18113054939495843283
11315181 36 18260553324428665113
11524674 6 16559029411038130535
12091667 2 17822016389114199392
125118 31 7997679897490685502
13288520 33 18412824694797979649
13533116 47 14346057717075588696
13668630 136 18131636664920882958
13685833 64 17346880053163711880
13885169 127 17775289317928851497
13964095 4 18187361017722478717
14123256 10 18260267447664182010
1420 363 17418375792507122304
14251764 46 18411138030321532932
14729087 3 11818992989611408558
14849402 71 13038320624834836602
15048467 5 11746936490953541336
15183329 4 17530682092016811376
15461852 350 12757161189783736162
155225 1 13262671527043314335
15690457 1 16702015392002918254
15706992 2 13768207130845577271
15716309 27 15267340721954667592
18335252 98 15285366111259366521
18681886 176 18335416898606703216
20281389 69 8862946070083580746
20735858 18 14405186166745813956
21150785 3 17967816050868716174
21267235 1 18335423495607690113
22224240 67 12751234801110284596
22288116 15 15285645451516122219
2297311 6 18411135831562495889
23035841 295 16559030502059633902
23198884 109 16877660154099953699
23559900 14 18262513831250274889
246663 6 16988847177233382318
300161 21 14129059223256584720
3004659 81 18259981591842065064
33532 11 16845296004410842614
335352 9 18261384547874086517
4325135 7 18408323281087404022
5104073 3 12318916694587274878
5758199 1 12535622770427553668
59682541 35 13830122915196299238
636775 72 10665218255392408663
636775 8 18041006188970379115
8209 1 18259704498032338652

>  <PUBCHEM_SHAPE_MULTIPOLES>  (1) 
352.82
24.16
1.28
0.89
42.77
0.04
0.02
8.09
8.68
-1.59
0.01
-0.25
-0.01
0.42

>  <PUBCHEM_SHAPE_SELFOVERLAP>  (1) 
701.175

>  <PUBCHEM_SHAPE_VOLUME>  (1) 
209.9

>  <PUBCHEM_COORDINATE_TYPE>  (1) 
2
5
10

$$$$
