17257
     RDKit          3D

 12 11  0  0  0  0  0  0  0  0999 V2000
    2.1787   -0.4075   -0.0078 O   0  0  0  0  0  0  0  0  0  0  0  0
    3.5728    1.4354    0.0053 O   0  0  0  0  0  0  0  0  0  0  0  0
   -2.7385   -0.4727    0.0459 C   0  0  0  0  0  0  0  0  0  0  0  0
   -1.4893    0.4103    0.0102 C   0  0  0  0  0  0  0  0  0  0  0  0
   -4.0468    0.3234    0.0440 C   0  0  0  0  0  0  0  0  0  0  0  0
   -0.2157   -0.4338   -0.0100 C   0  0  0  0  0  0  0  0  0  0  0  0
   -5.2953   -0.5590    0.0050 C   0  0  0  0  0  0  0  0  0  0  0  0
    1.0343    0.4347   -0.0032 C   0  0  0  0  0  0  0  0  0  0  0  0
   -6.5633    0.2783   -0.0681 C   0  0  0  0  0  0  0  0  0  0  0  0
    3.3860    0.2289   -0.0027 C   0  0  0  0  0  0  0  0  0  0  0  0
    4.4457   -0.8007   -0.0106 C   0  0  0  0  0  0  0  0  0  0  0  0
    5.7315   -0.4374   -0.0080 C   0  0  0  0  0  0  0  0  0  0  0  0
  1  8  1  0
  1 10  1  0
  2 10  2  0
  3  4  1  0
  3  5  1  0
  4  6  1  0
  5  7  1  0
  6  8  1  0
  7  9  1  0
 10 11  1  0
 11 12  2  0
M  END
>  <PUBCHEM_COMPOUND_CID>  (1) 
17257

>  <PUBCHEM_CONFORMER_RMSD>  (1) 
0.8

>  <PUBCHEM_CONFORMER_DIVERSEORDER>  (1) 
1
139
40
115
121
88
61
198
167
8
3
207
69
152
144
145
228
93
194
217
28
237
222
89
78
160
4
230
21
32
165
141
26
224
72
202
74
64
223
62
46
119
233
169
114
18
154
200
35
54
196
47
103
94
108
128
98
173
159
101
116
113
27
242
187
17
166
33
240
29
164
95
138
37
220
5
245
111
24
13
227
208
201
137
235
41
123
2
180
92
218
188
213
48
241
43
65
96
112
57
247
52
87
203
20
189
142
125
122
63
127
12
36
58
239
238
185
182
79
150
226
136
212
6
151
23
199
109
192
133
86
221
91
25
140
106
67
216
214
14
68
170
190
130
73
49
34
126
107
163
77
243
168
56
42
179
155
7
44
229
195
99
45
244
215
117
85
11
81
236
225
204
210
9
105
146
176
175
55
149
171
232
178
51
19
82
10
191
129
157
174
59
39
162
70
30
60
197
231
134
143
90
161
75
83
104
100
50
15
209
147
53
135
211
183
158
22
181
193
186
206
16
124
97
156
31
219
71
120
84
66
102
177
118
184
148
110
80
76
246
205
131
172
234
153
132
38

>  <PUBCHEM_MMFF94_PARTIAL_CHARGES>  (1) 
9
1 -0.43
10 0.71
11 -0.14
12 -0.3
2 -0.57
28 0.15
29 0.15
30 0.15
8 0.28

>  <PUBCHEM_EFFECTIVE_ROTOR_COUNT>  (1) 
8

>  <PUBCHEM_PHARMACOPHORE_FEATURES>  (1) 
4
1 12 hydrophobe
1 2 acceptor
1 9 hydrophobe
5 3 4 5 6 7 hydrophobe

>  <PUBCHEM_HEAVY_ATOM_COUNT>  (1) 
12

>  <PUBCHEM_ATOM_DEF_STEREO_COUNT>  (1) 
0

>  <PUBCHEM_ATOM_UDEF_STEREO_COUNT>  (1) 
0

>  <PUBCHEM_BOND_DEF_STEREO_COUNT>  (1) 
0

>  <PUBCHEM_BOND_UDEF_STEREO_COUNT>  (1) 
0

>  <PUBCHEM_ISOTOPIC_ATOM_COUNT>  (1) 
0

>  <PUBCHEM_COMPONENT_COUNT>  (1) 
1

>  <PUBCHEM_CACTVS_TAUTO_COUNT>  (1) 
1

>  <PUBCHEM_CONFORMER_ID>  (1) 
0000436900000001

>  <PUBCHEM_MMFF94_ENERGY>  (1) 
6.5733

>  <PUBCHEM_FEATURE_SELFOVERLAP>  (1) 
20.297

>  <PUBCHEM_SHAPE_FINGERPRINT>  (1) 
114248 4 10735878369960534791
12091667 2 17458345235137105227
14123238 8 10881399833450488163
1420 363 18041003942606881347
14251718 22 10015860981683240557
15242439 84 17894915139247909763
17834072 33 18272368706846112391
17834076 25 14851605475049612771
187816 3 15863790591129484937
20621476 8 18341335479610124973
20645477 70 18342460283794366438
20719005 15 18410856559645070819
20767249 13 17418374696894790443
220451 1 14418132920378748569
23218964 4 18408602548329436031
23402539 116 18131627894555356117
23521765 1 18341895186056031783
23557571 272 17240762835528666847
42788 4 18410575084673628417
522135 26 18260830397754597430
57483677 66 18409727365767811763
8209 1 18410011031135203663

>  <PUBCHEM_SHAPE_MULTIPOLES>  (1) 
235.22
15.89
0.93
0.6
7.99
0.13
0
-1.15
0.19
-0.53
0
0.05
-0.01
0.02

>  <PUBCHEM_SHAPE_SELFOVERLAP>  (1) 
430.314

>  <PUBCHEM_SHAPE_VOLUME>  (1) 
149.4

>  <PUBCHEM_COORDINATE_TYPE>  (1) 
2
5
10

$$$$
