17252
     RDKit          3D

 20 23  0  0  0  0  0  0  0  0999 V2000
    3.1556   -2.6167   -0.0007 F   0  0  0  0  0  0  0  0  0  0  0  0
    0.2781    0.3898   -0.0001 C   0  0  0  0  0  0  0  0  0  0  0  0
   -0.0901   -0.9779   -0.0001 C   0  0  0  0  0  0  0  0  0  0  0  0
   -1.4442   -1.3559   -0.0001 C   0  0  0  0  0  0  0  0  0  0  0  0
    1.6756    0.7413    0.0000 C   0  0  0  0  0  0  0  0  0  0  0  0
   -2.4740   -0.4055    0.0000 C   0  0  0  0  0  0  0  0  0  0  0  0
   -2.1386    0.9604   -0.0001 C   0  0  0  0  0  0  0  0  0  0  0  0
   -0.7809    1.3336   -0.0001 C   0  0  0  0  0  0  0  0  0  0  0  0
    2.6497   -0.2912    0.0000 C   0  0  0  0  0  0  0  0  0  0  0  0
    0.8981   -1.9662    0.0000 C   0  0  0  0  0  0  0  0  0  0  0  0
    2.2472   -1.6285    0.0001 C   0  0  0  0  0  0  0  0  0  0  0  0
   -1.8092   -2.8180    0.0007 C   0  0  0  0  0  0  0  0  0  0  0  0
   -3.8273   -0.7849   -0.0001 C   0  0  0  0  0  0  0  0  0  0  0  0
    2.1625    2.0728   -0.0001 C   0  0  0  0  0  0  0  0  0  0  0  0
   -3.1672    1.9185   -0.0001 C   0  0  0  0  0  0  0  0  0  0  0  0
    4.0208    0.0176    0.0002 C   0  0  0  0  0  0  0  0  0  0  0  0
   -4.8367    0.1775    0.0000 C   0  0  0  0  0  0  0  0  0  0  0  0
   -4.5068    1.5287    0.0001 C   0  0  0  0  0  0  0  0  0  0  0  0
    3.5290    2.3665    0.0001 C   0  0  0  0  0  0  0  0  0  0  0  0
    4.4584    1.3383    0.0003 C   0  0  0  0  0  0  0  0  0  0  0  0
  1 11  1  0
  2  3  1  0
  2  5  1  0
  2  8  2  0
  3  4  2  0
  3 10  1  0
  4  6  1  0
  4 12  1  0
  5  9  2  0
  5 14  1  0
  6  7  2  0
  6 13  1  0
  7  8  1  0
  7 15  1  0
  9 11  1  0
  9 16  1  0
 10 11  2  0
 13 17  2  0
 14 19  2  0
 15 18  2  0
 16 20  2  0
 17 18  1  0
 19 20  1  0
M  END
>  <PUBCHEM_COMPOUND_CID>  (1) 
17252

>  <PUBCHEM_CONFORMER_RMSD>  (1) 
0.6

>  <PUBCHEM_CONFORMER_DIVERSEORDER>  (1) 
1

>  <PUBCHEM_MMFF94_PARTIAL_CHARGES>  (1) 
24
1 -0.19
10 -0.15
11 0.19
12 0.14
13 -0.15
14 -0.15
15 -0.15
16 -0.15
17 -0.15
18 -0.15
19 -0.15
20 -0.15
21 0.15
22 0.15
26 0.15
27 0.15
28 0.15
29 0.15
30 0.15
31 0.15
32 0.15
33 0.15
4 -0.14
8 -0.15

>  <PUBCHEM_EFFECTIVE_ROTOR_COUNT>  (1) 
0

>  <PUBCHEM_PHARMACOPHORE_FEATURES>  (1) 
4
6 2 3 4 6 7 8 rings
6 2 3 5 9 10 11 rings
6 5 9 14 16 19 20 rings
6 6 7 13 15 17 18 rings

>  <PUBCHEM_HEAVY_ATOM_COUNT>  (1) 
20

>  <PUBCHEM_ATOM_DEF_STEREO_COUNT>  (1) 
0

>  <PUBCHEM_ATOM_UDEF_STEREO_COUNT>  (1) 
0

>  <PUBCHEM_BOND_DEF_STEREO_COUNT>  (1) 
0

>  <PUBCHEM_BOND_UDEF_STEREO_COUNT>  (1) 
0

>  <PUBCHEM_ISOTOPIC_ATOM_COUNT>  (1) 
0

>  <PUBCHEM_COMPONENT_COUNT>  (1) 
1

>  <PUBCHEM_CACTVS_TAUTO_COUNT>  (1) 
1

>  <PUBCHEM_CONFORMER_ID>  (1) 
0000436400000001

>  <PUBCHEM_MMFF94_ENERGY>  (1) 
76.5292

>  <PUBCHEM_FEATURE_SELFOVERLAP>  (1) 
20.37

>  <PUBCHEM_SHAPE_FINGERPRINT>  (1) 
10411042 1 17329992396212158379
10608611 8 18409729556037323069
10616163 171 18339363096745538743
10967382 1 18410856559824503332
1100329 8 17476925653758496128
11370993 70 18410570708112555297
11471102 20 18410853222455481942
11680986 33 18335994107165835738
12107183 9 17764875688957584657
12390115 104 18053119577235054376
12403259 226 18118399549153574877
12403259 415 18114744816069945941
12403260 363 18267857294747070419
12644460 14 18261112928807973344
12788726 201 17489317325918238409
13140716 1 18338227284544547256
133893 2 16341483244327707783
13583140 156 16878211044049185801
138480 1 17834395622711567650
14178342 30 18192699258122876514
14790565 3 18269562633267118889
15196674 1 18410855430511803111
15442244 35 18267585706526586394
15536298 74 18341332206064219718
16945 1 18410856581188693446
17492 89 18411418406130488111
18186145 218 18270687454588030597
19591789 44 18265051340666843167
200 152 18060418032050359201
20510252 161 18343304747584659625
20645477 70 18343021051608612559
20739085 24 18047780142569842033
21267235 1 18411146822119906158
21421861 104 17896308135203539770
21501502 16 18411693305173969919
221490 88 18337117786595750323
23227448 37 18340486772001428823
23366157 5 18113620062824275938
23402539 116 18343294898966135005
23558518 356 17971192775146579250
23559900 14 18342737365188136618
238 59 17468154931292365381
2748010 2 18338243763785559006
335352 9 18410573960025355934
34934 24 18411695517155837446
350125 39 18265336114115503924
3545911 37 18410295825905577109
4214541 1 18410856581241557889
4409770 3 12361643149470511919
474 4 17822577212937476820
495365 180 17489295430396093208
5104073 3 18336549330889511929
543358 83 18340773641494064176
59755656 215 18412268320518441268
633830 44 18129100022644077109
69090 78 18411134745030254119
7364860 26 18412826854934382006
7832392 63 18411416232902409764
8272917 22 18342181020424574086
9709674 26 18411705395580969143
9981440 41 18120649390968381016

>  <PUBCHEM_SHAPE_MULTIPOLES>  (1) 
404.32
8.78
2.83
0.61
1.63
0.89
0
-3.45
0
-0.72
0
0.02
-0.01
0

>  <PUBCHEM_SHAPE_SELFOVERLAP>  (1) 
928.974

>  <PUBCHEM_SHAPE_VOLUME>  (1) 
211.6

>  <PUBCHEM_COORDINATE_TYPE>  (1) 
2
5
10

$$$$
