17271
     RDKit          3D

 15 17  0  0  0  0  0  0  0  0999 V2000
    4.6641   -0.2562    0.8264 O   0  0  0  0  0  0  0  0  0  0  0  0
    4.1162   -0.1609   -0.2816 N   0  0  0  0  0  0  0  0  0  0  0  0
   -0.5950   -1.8090   -0.0797 C   0  0  0  0  0  0  0  0  0  0  0  0
    0.5357   -0.8022   -0.1168 C   0  0  0  0  0  0  0  0  0  0  0  0
   -1.8091   -0.9069   -0.0036 C   0  0  0  0  0  0  0  0  0  0  0  0
    0.0269    0.5152   -0.0677 C   0  0  0  0  0  0  0  0  0  0  0  0
   -1.4171    0.4507    0.0020 C   0  0  0  0  0  0  0  0  0  0  0  0
    1.8954   -1.0500   -0.1879 C   0  0  0  0  0  0  0  0  0  0  0  0
    0.8849    1.6020   -0.0897 C   0  0  0  0  0  0  0  0  0  0  0  0
   -3.1418   -1.2749    0.0552 C   0  0  0  0  0  0  0  0  0  0  0  0
   -2.3665    1.4568    0.0673 C   0  0  0  0  0  0  0  0  0  0  0  0
    2.7600    0.0458   -0.2103 C   0  0  0  0  0  0  0  0  0  0  0  0
    2.2599    1.3585   -0.1617 C   0  0  0  0  0  0  0  0  0  0  0  0
   -4.0986   -0.2606    0.1210 C   0  0  0  0  0  0  0  0  0  0  0  0
   -3.7149    1.0917    0.1271 C   0  0  0  0  0  0  0  0  0  0  0  0
  1  2  2  0
  2 12  1  0
  3  4  1  0
  3  5  1  0
  4  6  2  0
  4  8  1  0
  5  7  2  0
  5 10  1  0
  6  7  1  0
  6  9  1  0
  7 11  1  0
  8 12  2  0
  9 13  2  0
 10 14  2  0
 11 15  2  0
 12 13  1  0
 14 15  1  0
M  END
>  <PUBCHEM_COMPOUND_CID>  (1) 
17271

>  <PUBCHEM_CONFORMER_RMSD>  (1) 
0.6

>  <PUBCHEM_CONFORMER_DIVERSEORDER>  (1) 
1

>  <PUBCHEM_MMFF94_PARTIAL_CHARGES>  (1) 
20
1 -0.16
10 -0.15
11 -0.15
12 0.3
13 -0.15
14 -0.15
15 -0.15
18 0.15
19 0.15
2 -0.14
20 0.15
21 0.15
22 0.15
23 0.15
24 0.15
3 0.29
4 -0.14
5 -0.14
8 -0.15
9 -0.15

>  <PUBCHEM_EFFECTIVE_ROTOR_COUNT>  (1) 
1.2

>  <PUBCHEM_PHARMACOPHORE_FEATURES>  (1) 
3
5 3 4 5 6 7 rings
6 4 6 8 9 12 13 rings
6 5 7 10 11 14 15 rings

>  <PUBCHEM_HEAVY_ATOM_COUNT>  (1) 
15

>  <PUBCHEM_ATOM_DEF_STEREO_COUNT>  (1) 
0

>  <PUBCHEM_ATOM_UDEF_STEREO_COUNT>  (1) 
0

>  <PUBCHEM_BOND_DEF_STEREO_COUNT>  (1) 
0

>  <PUBCHEM_BOND_UDEF_STEREO_COUNT>  (1) 
0

>  <PUBCHEM_ISOTOPIC_ATOM_COUNT>  (1) 
0

>  <PUBCHEM_COMPONENT_COUNT>  (1) 
1

>  <PUBCHEM_CACTVS_TAUTO_COUNT>  (1) 
1

>  <PUBCHEM_CONFORMER_ID>  (1) 
0000437700000001

>  <PUBCHEM_MMFF94_ENERGY>  (1) 
51.0383

>  <PUBCHEM_FEATURE_SELFOVERLAP>  (1) 
15.388

>  <PUBCHEM_SHAPE_FINGERPRINT>  (1) 
10062212 137 18410567396761640691
10130415 120 18334011713871439152
10608611 8 18411699911102845869
10967382 1 18410858733167664935
11132069 177 18412826863012483733
11401426 45 18343015592757718663
11471102 20 18411135852815370573
12032990 46 18412271631247331102
12119455 92 17132109130958161502
12251169 10 18408604759826110818
124424 183 18186518804204527987
13140716 1 18267027343746118915
13221675 6 18410013234279496079
13380535 76 18411421700227407759
13675066 3 18201719569928635170
13690532 89 18408322189653845198
13922767 16 18343581854241889936
14144814 61 18410013225789593449
14325111 11 18410577314041509285
15196674 1 18410576222866530541
15219456 202 18130514028419227511
15309172 13 18341623615711976627
15375462 189 17967525745101648322
15442244 35 18194967339888626786
15536298 74 18342739671474687856
15775835 57 18261397719515247141
16945 1 18339369655234244887
17802600 8 18411133654045484821
17804303 29 18411705408513038388
1813 80 17023747793781751110
18186145 218 18200887175059435565
18522853 276 18341894095134494648
200 152 18060129956114849933
20510252 161 18202285753781635601
21267235 1 18410022047652789615
21501502 16 18266462198742493397
21501925 9 18410569608959604184
23402539 116 18271516555296208437
23402655 69 18270390582834195573
23463225 33 18335421257491865812
23559900 14 18272934882784274598
2748010 2 18195816171613544687
43471831 8 18262798462795917434
474 4 16807586225532217748
5104073 3 18337956791377252377
528886 8 18411416189620420931
53655031 270 18409167696921043122
53812653 166 18342173349755362720
54173680 148 18120659290636590563
69090 78 18202279229831762327
7364860 26 18197218044560043782
8809292 202 18188496885990167043
9709674 26 18341057388282140950
9981440 41 17253150238476033688

>  <PUBCHEM_SHAPE_MULTIPOLES>  (1) 
297.84
7.32
1.7
0.65
2.53
0.05
0.02
0.09
0.81
-0.53
-0.04
0.15
-0.01
-0.09

>  <PUBCHEM_SHAPE_SELFOVERLAP>  (1) 
671.397

>  <PUBCHEM_SHAPE_VOLUME>  (1) 
159.1

>  <PUBCHEM_COORDINATE_TYPE>  (1) 
2
5
10

$$$$
