17284
     RDKit          3D

 16 15  0  0  0  0  0  0  0  0999 V2000
    4.9645    0.8868    0.4246 Cl  0  0  0  0  0  0  0  0  0  0  0  0
    3.3523    0.6396   -1.9766 Cl  0  0  0  0  0  0  0  0  0  0  0  0
    2.3382    2.1206    0.3365 Cl  0  0  0  0  0  0  0  0  0  0  0  0
   -4.9650    0.8873   -0.4244 Cl  0  0  0  0  0  0  0  0  0  0  0  0
   -3.3527    0.6404    1.9768 Cl  0  0  0  0  0  0  0  0  0  0  0  0
   -2.3384    2.1208   -0.3365 Cl  0  0  0  0  0  0  0  0  0  0  0  0
    1.3969   -0.6733   -0.1377 O   0  0  0  0  0  0  0  0  0  0  0  0
   -1.3932   -0.6804    0.1354 O   0  0  0  0  0  0  0  0  0  0  0  0
    3.2292   -1.3294    1.0832 O   0  0  0  0  0  0  0  0  0  0  0  0
   -3.2299   -1.3293   -1.0826 O   0  0  0  0  0  0  0  0  0  0  0  0
    0.6945   -1.8398    0.3038 C   0  0  0  0  0  0  0  0  0  0  0  0
   -0.6953   -1.8397   -0.3031 C   0  0  0  0  0  0  0  0  0  0  0  0
    2.6756   -0.5351    0.3320 C   0  0  0  0  0  0  0  0  0  0  0  0
   -2.6762   -0.5349   -0.3315 C   0  0  0  0  0  0  0  0  0  0  0  0
    3.3068    0.7330   -0.2033 C   0  0  0  0  0  0  0  0  0  0  0  0
   -3.3073    0.7334    0.2035 C   0  0  0  0  0  0  0  0  0  0  0  0
  1 15  1  0
  2 15  1  0
  3 15  1  0
  4 16  1  0
  5 16  1  0
  6 16  1  0
  7 11  1  0
  7 13  1  0
  8 12  1  0
  8 14  1  0
  9 13  2  0
 10 14  2  0
 11 12  1  0
 13 15  1  0
 14 16  1  0
M  END
>  <PUBCHEM_COMPOUND_CID>  (1) 
17284

>  <PUBCHEM_CONFORMER_RMSD>  (1) 
0.8

>  <PUBCHEM_CONFORMER_DIVERSEORDER>  (1) 
1
70
46
2
11
4
75
16
56
72
61
33
50
76
40
15
41
77
25
14
74
47
60
36
22
26
44
71
28
5
64
10
68
53
13
9
57
31
20
67
42
54
30
12
27
24
69
80
3
62
17
18
29
7
65
79
48
63
73
34
39
38
21
49
58
35
59
52
78
45
55
37
43
32
66
51
8
19
81
23
6

>  <PUBCHEM_MMFF94_PARTIAL_CHARGES>  (1) 
16
1 -0.29
10 -0.57
11 0.28
12 0.28
13 0.66
14 0.66
15 0.93
16 0.93
2 -0.29
3 -0.29
4 -0.29
5 -0.29
6 -0.29
7 -0.43
8 -0.43
9 -0.57

>  <PUBCHEM_EFFECTIVE_ROTOR_COUNT>  (1) 
7

>  <PUBCHEM_PHARMACOPHORE_FEATURES>  (1) 
2
1 10 acceptor
1 9 acceptor

>  <PUBCHEM_HEAVY_ATOM_COUNT>  (1) 
16

>  <PUBCHEM_ATOM_DEF_STEREO_COUNT>  (1) 
0

>  <PUBCHEM_ATOM_UDEF_STEREO_COUNT>  (1) 
0

>  <PUBCHEM_BOND_DEF_STEREO_COUNT>  (1) 
0

>  <PUBCHEM_BOND_UDEF_STEREO_COUNT>  (1) 
0

>  <PUBCHEM_ISOTOPIC_ATOM_COUNT>  (1) 
0

>  <PUBCHEM_COMPONENT_COUNT>  (1) 
1

>  <PUBCHEM_CACTVS_TAUTO_COUNT>  (1) 
1

>  <PUBCHEM_CONFORMER_ID>  (1) 
0000438400000001

>  <PUBCHEM_MMFF94_ENERGY>  (1) 
24.112

>  <PUBCHEM_FEATURE_SELFOVERLAP>  (1) 
10.149

>  <PUBCHEM_SHAPE_FINGERPRINT>  (1) 
10498660 4 18412261740101341221
12596599 1 17845946202946205253
13533116 47 16879063032648731355
14123260 362 18409175427967748943
14251764 38 17559103505385718536
15342168 16 18040724666584913335
15775835 57 18410576188469738945
17802600 8 18410566288570381505
17834072 32 18412262796716088817
18186145 218 18131078125260441064
18915474 69 10087634923164429306
19107657 9 18186808018933949958
20233049 118 18410294718484548732
20300324 65 17917425484038026719
20671657 1 18199475363338022294
20671657 53 12751243579585626546
212847 35 18334011679416755228
21524375 3 18410573985162552803
21652331 79 18408039593975844733
21713013 43 12895058618478120553
21864079 5 18410859862470023461
23402539 116 18060413638752281812
23557571 272 17345747620153020463
251288 83 13407370641207275542
351380 180 18260261915466736577
474 4 17894631456705579039
9882013 296 15937272129570395187

>  <PUBCHEM_SHAPE_MULTIPOLES>  (1) 
317.01
10.03
2.15
1.34
0
0.05
0
3.74
0
0
0
0
0.17
-0.61

>  <PUBCHEM_SHAPE_SELFOVERLAP>  (1) 
567.879

>  <PUBCHEM_SHAPE_VOLUME>  (1) 
205.3

>  <PUBCHEM_COORDINATE_TYPE>  (1) 
2
5
10

$$$$
