1728
     RDKit          3D

 25 28  0  0  1  0  0  0  0  0999 V2000
   -5.4364   -0.8573    1.3322 O   0  0  0  0  0  0  0  0  0  0  0  0
    3.6367   -0.9471   -0.6765 O   0  0  0  0  0  0  0  0  0  0  0  0
    4.6918    0.8844    1.0727 O   0  0  0  0  0  0  0  0  0  0  0  0
    2.7906   -2.1929    1.0998 O   0  0  0  0  0  0  0  0  0  0  0  0
   -1.3125    0.2272   -1.1480 C   0  0  0  0  0  0  0  0  0  0  0  0
   -0.7510    1.0972    0.0112 C   0  0  0  0  0  0  0  0  0  0  0  0
   -2.7765   -0.2223   -0.9435 C   0  0  0  0  0  0  0  0  0  0  0  0
   -3.1562   -0.7112    0.4736 C   0  0  0  0  0  0  0  0  0  0  0  0
    0.7591    1.5233   -0.2375 C   0  0  0  0  0  0  0  0  0  0  0  0
   -1.0241    0.4005    1.3635 C   0  0  0  0  0  0  0  0  0  0  0  0
   -2.5112    0.1257    1.5820 C   0  0  0  0  0  0  0  0  0  0  0  0
   -0.3985   -0.9810   -1.4124 C   0  0  0  0  0  0  0  0  0  0  0  0
   -3.7700    0.9206   -1.2168 C   0  0  0  0  0  0  0  0  0  0  0  0
    1.6295    0.3455   -0.6944 C   0  0  0  0  0  0  0  0  0  0  0  0
    1.0206   -0.5496   -1.7532 C   0  0  0  0  0  0  0  0  0  0  0  0
   -4.6603   -0.4389    0.4808 C   0  0  0  0  0  0  0  0  0  0  0  0
   -5.0983    0.4048   -0.6863 C   0  0  0  0  0  0  0  0  0  0  0  0
    1.3594    2.1630    1.0466 C   0  0  0  0  0  0  0  0  0  0  0  0
   -2.9150   -2.2083    0.6771 C   0  0  0  0  0  0  0  0  0  0  0  0
    0.7870    2.5956   -1.3618 C   0  0  0  0  0  0  0  0  0  0  0  0
    2.8557    2.4079    0.9532 C   0  0  0  0  0  0  0  0  0  0  0  0
    2.8872    0.1331   -0.2552 C   0  0  0  0  0  0  0  0  0  0  0  0
    3.5595    1.1111    0.6485 C   0  0  0  0  0  0  0  0  0  0  0  0
    3.4921   -2.0650    0.1044 C   0  0  0  0  0  0  0  0  0  0  0  0
    4.3407   -3.1665   -0.4599 C   0  0  0  0  0  0  0  0  0  0  0  0
  1 16  2  0
  2 22  1  0
  2 24  1  0
  3 23  2  0
  4 24  2  0
  5  6  1  0
  5  7  1  0
  5 12  1  0
  6  9  1  0
  6 10  1  0
  7  8  1  0
  7 13  1  0
  8 11  1  0
  8 16  1  0
  8 19  1  0
  9 14  1  0
  9 18  1  0
  9 20  1  0
 10 11  1  0
 12 15  1  0
 13 17  1  0
 14 15  1  0
 14 22  2  0
 16 17  1  0
 18 21  1  0
 21 23  1  0
 22 23  1  0
 24 25  1  0
M  END
>  <PUBCHEM_COMPOUND_CID>  (1) 
1728

>  <PUBCHEM_CONFORMER_RMSD>  (1) 
0.8

>  <PUBCHEM_CONFORMER_DIVERSEORDER>  (1) 
1
55
54
44
29
16
47
43
36
27
31
52
48
39
38
37
23
24
18
26
45
53
56
33
41
6
35
2
17
12
5
50
28
40
7
51
9
42
3
4
8
15
46
34
22
19
30
14
32
10
25
49
20
11
21
13

>  <PUBCHEM_MMFF94_PARTIAL_CHARGES>  (1) 
15
1 -0.57
14 -0.28
15 0.14
16 0.45
17 0.06
2 -0.23
21 0.06
22 0.09
23 0.49
24 0.66
25 0.06
3 -0.57
4 -0.57
8 0.06
9 0.14

>  <PUBCHEM_EFFECTIVE_ROTOR_COUNT>  (1) 
3.6

>  <PUBCHEM_PHARMACOPHORE_FEATURES>  (1) 
7
1 1 acceptor
1 3 acceptor
1 4 acceptor
5 7 8 13 16 17 rings
6 5 6 7 8 10 11 rings
6 5 6 9 12 14 15 rings
6 9 14 18 21 22 23 rings

>  <PUBCHEM_HEAVY_ATOM_COUNT>  (1) 
25

>  <PUBCHEM_ATOM_DEF_STEREO_COUNT>  (1) 
0

>  <PUBCHEM_ATOM_UDEF_STEREO_COUNT>  (1) 
5

>  <PUBCHEM_BOND_DEF_STEREO_COUNT>  (1) 
0

>  <PUBCHEM_BOND_UDEF_STEREO_COUNT>  (1) 
0

>  <PUBCHEM_ISOTOPIC_ATOM_COUNT>  (1) 
0

>  <PUBCHEM_COMPONENT_COUNT>  (1) 
1

>  <PUBCHEM_CACTVS_TAUTO_COUNT>  (1) 
10

>  <PUBCHEM_CONFORMER_ID>  (1) 
000006C000000001

>  <PUBCHEM_MMFF94_ENERGY>  (1) 
71.483

>  <PUBCHEM_FEATURE_SELFOVERLAP>  (1) 
35.722

>  <PUBCHEM_SHAPE_FINGERPRINT>  (1) 
10498660 4 11887680559119827427
11370993 70 18335414733378956483
11796584 16 17894909594608966323
12236239 1 16630246990929599997
12422481 6 17773052864660945553
12644460 14 18202561800209522148
12670546 177 8214144053573020033
13134695 92 18343860021983428661
13140716 1 17841419642761475536
13224815 77 16128664071715711957
13533116 47 18342741827680009651
13583140 156 18269832180739099621
13675066 3 18333729139404206317
14341114 328 16200433572058077403
14386348 63 18186237337965497024
14739800 52 15912744199057187234
14866123 147 17688871934607201689
15422964 175 18260826003681449900
15484559 13 13638791712230654426
15664445 248 16588030112863320820
16752209 62 14129878385020042607
16945 1 18200587116149976100
17349148 13 17632579336136370487
1813 80 18057898965275347846
18222031 100 17774720857806358278
18681886 176 15051172432060905368
192875 21 17703506614898585713
19862831 5 12107780839337924365
20511986 3 17417510506462190085
20645477 70 18341885282051403638
20715895 44 17344078364603799113
20739085 24 18201731625939024828
21033648 29 18270944817782359209
21033650 10 16371571354404825228
21279426 13 18191578658490819237
21421861 104 17845670173966602353
23184049 59 18273213101342292884
23559900 14 18113620075186685420
268830 7 17775009011663150377
296302 2 17703792556789217525
3323516 105 18113335301807213547
341906 21 14333412246270008819
345986 75 17774156795440602778
46194498 28 17458637773153109421
474 4 17274825813073534669
5104073 3 18202016438653866731
5161694 15 17967811639594398981
7288768 16 16551955321240590376
9709674 26 18042127707841410779

>  <PUBCHEM_SHAPE_MULTIPOLES>  (1) 
491.01
9.68
2.68
1.56
4.51
0.72
-0.07
3.61
1.91
-3.65
0.18
0.5
-0.16
1.17

>  <PUBCHEM_SHAPE_SELFOVERLAP>  (1) 
1056.045

>  <PUBCHEM_SHAPE_VOLUME>  (1) 
267

>  <PUBCHEM_COORDINATE_TYPE>  (1) 
2
5
10

$$$$
