17287
     RDKit          3D

 13 13  0  0  0  0  0  0  0  0999 V2000
   -2.7179   -1.9454   -0.1036 Cl  0  0  0  0  0  0  0  0  0  0  0  0
   -2.1440    1.9435   -0.9770 O   0  0  0  0  0  0  0  0  0  0  0  0
   -3.0110    1.0707    0.9344 O   0  0  0  0  0  0  0  0  0  0  0  0
    3.7041   -0.3098    0.0175 O   0  0  0  0  0  0  0  0  0  0  0  0
    2.8305    1.7013    0.1236 O   0  0  0  0  0  0  0  0  0  0  0  0
    2.7095    0.4543    0.0548 N   0  0  0  0  0  0  0  0  0  0  0  0
   -0.9936    0.1652    0.0211 C   0  0  0  0  0  0  0  0  0  0  0  0
    1.4068   -0.1097    0.0176 C   0  0  0  0  0  0  0  0  0  0  0  0
    0.2859    0.7196    0.0578 C   0  0  0  0  0  0  0  0  0  0  0  0
   -1.1520   -1.2186   -0.0559 C   0  0  0  0  0  0  0  0  0  0  0  0
    1.2484   -1.4933   -0.0594 C   0  0  0  0  0  0  0  0  0  0  0  0
   -0.0310   -2.0477   -0.0962 C   0  0  0  0  0  0  0  0  0  0  0  0
   -2.1358    1.0701    0.0654 C   0  0  0  0  0  0  0  0  0  0  0  0
  1 10  1  0
  2 13  1  0
  3 13  2  0
  4  6  1  0
  5  6  2  0
  6  8  1  0
  7  9  2  0
  7 10  1  0
  7 13  1  0
  8  9  1  0
  8 11  2  0
 10 12  2  0
 11 12  1  0
M  CHG  2   4  -1   6   1
M  END
>  <PUBCHEM_COMPOUND_CID>  (1) 
17287

>  <PUBCHEM_CONFORMER_RMSD>  (1) 
0.6

>  <PUBCHEM_CONFORMER_DIVERSEORDER>  (1) 
1

>  <PUBCHEM_MMFF94_PARTIAL_CHARGES>  (1) 
17
1 -0.18
10 0.18
11 -0.15
12 -0.15
13 0.63
14 0.15
15 0.15
16 0.15
17 0.5
2 -0.65
3 -0.57
4 -0.52
5 -0.52
6 0.91
7 0.09
8 0.13
9 -0.15

>  <PUBCHEM_EFFECTIVE_ROTOR_COUNT>  (1) 
2

>  <PUBCHEM_PHARMACOPHORE_FEATURES>  (1) 
7
1 2 acceptor
1 3 acceptor
1 4 acceptor
1 4 anion
1 5 acceptor
3 2 3 13 anion
6 7 8 9 10 11 12 rings

>  <PUBCHEM_HEAVY_ATOM_COUNT>  (1) 
13

>  <PUBCHEM_ATOM_DEF_STEREO_COUNT>  (1) 
0

>  <PUBCHEM_ATOM_UDEF_STEREO_COUNT>  (1) 
0

>  <PUBCHEM_BOND_DEF_STEREO_COUNT>  (1) 
0

>  <PUBCHEM_BOND_UDEF_STEREO_COUNT>  (1) 
0

>  <PUBCHEM_ISOTOPIC_ATOM_COUNT>  (1) 
0

>  <PUBCHEM_COMPONENT_COUNT>  (1) 
1

>  <PUBCHEM_CACTVS_TAUTO_COUNT>  (1) 
1

>  <PUBCHEM_CONFORMER_ID>  (1) 
0000438700000001

>  <PUBCHEM_MMFF94_ENERGY>  (1) 
40.6765

>  <PUBCHEM_FEATURE_SELFOVERLAP>  (1) 
35.662

>  <PUBCHEM_SHAPE_FINGERPRINT>  (1) 
11132069 177 18340767134613206235
11206711 2 18339919419643297087
12423570 1 16624605139264427775
12932764 1 18040713645598526520
13380535 21 18341062817136334831
13380535 76 18411979122552605327
14325111 11 18412263964957424568
14614273 12 18335693945171321391
14897335 6 18340199696413802551
15490181 7 18118121377413026375
15775835 57 18409737235396546448
16945 1 18123749751259593591
18186145 218 18272373049132122408
193761 8 18338796706576307631
20510252 161 18200032979052253864
20871998 184 18200037377199381335
21028194 46 18408608041339497464
21040471 1 18338797818861586774
21501502 16 18411416193910587651
21524375 3 18411417289121732995
2334 1 18411417349420054198
23402539 116 18198049490051398335
23559900 14 18201725038413539646
2748010 2 18412549777545500022
353137 74 18264476459421127463
5084963 1 18200877391145144778
6333449 129 18412824698459820815
81228 2 18122056773930503211

>  <PUBCHEM_SHAPE_MULTIPOLES>  (1) 
240.95
4.79
2.23
0.7
2.39
0.27
0.01
-1.04
-0.29
-1.15
0.2
-0.31
-0.15
0.04

>  <PUBCHEM_SHAPE_SELFOVERLAP>  (1) 
502.411

>  <PUBCHEM_SHAPE_VOLUME>  (1) 
138

>  <PUBCHEM_COORDINATE_TYPE>  (1) 
2
5
10

$$$$
