17297
     RDKit          3D

 24 26  0  0  0  0  0  0  0  0999 V2000
    1.0001   -0.8681    2.0561 O   0  0  0  0  0  0  0  0  0  0  0  0
   -2.4023    2.6488   -0.0620 O   0  0  0  0  0  0  0  0  0  0  0  0
   -4.0635    1.1195    0.3006 O   0  0  0  0  0  0  0  0  0  0  0  0
    0.5629   -1.0606   -0.2506 N   0  0  0  0  0  0  0  0  0  0  0  0
    2.1155   -0.1305   -1.7949 N   0  0  0  0  0  0  0  0  0  0  0  0
   -1.8290    0.4738    0.0046 N   0  0  0  0  0  0  0  0  0  0  0  0
   -0.7095   -1.6846   -0.0117 C   0  0  0  0  0  0  0  0  0  0  0  0
    1.0243   -0.7848   -1.5399 C   0  0  0  0  0  0  0  0  0  0  0  0
    2.5787    0.0272    0.5996 C   0  0  0  0  0  0  0  0  0  0  0  0
    1.3190   -0.6923    0.8826 C   0  0  0  0  0  0  0  0  0  0  0  0
    2.9105    0.2989   -0.7276 C   0  0  0  0  0  0  0  0  0  0  0  0
   -1.8646   -0.9198    0.1091 C   0  0  0  0  0  0  0  0  0  0  0  0
   -0.7631   -3.0701    0.0970 C   0  0  0  0  0  0  0  0  0  0  0  0
    3.4088    0.4498    1.6446 C   0  0  0  0  0  0  0  0  0  0  0  0
    0.2722   -1.3080   -2.7467 C   0  0  0  0  0  0  0  0  0  0  0  0
   -3.0881   -1.5481    0.3414 C   0  0  0  0  0  0  0  0  0  0  0  0
    4.0896    1.0021   -1.0009 C   0  0  0  0  0  0  0  0  0  0  0  0
   -1.9868   -3.6982    0.3294 C   0  0  0  0  0  0  0  0  0  0  0  0
   -3.1492   -2.9373    0.4516 C   0  0  0  0  0  0  0  0  0  0  0  0
    4.5807    1.1489    1.3586 C   0  0  0  0  0  0  0  0  0  0  0  0
    4.9208    1.4261    0.0368 C   0  0  0  0  0  0  0  0  0  0  0  0
   -2.8824    1.3769    0.1020 C   0  0  0  0  0  0  0  0  0  0  0  0
   -3.3713    3.7011    0.0109 C   0  0  0  0  0  0  0  0  0  0  0  0
   -2.6731    5.0292   -0.1904 C   0  0  0  0  0  0  0  0  0  0  0  0
  1 10  2  0
  2 22  1  0
  2 23  1  0
  3 22  2  0
  4  7  1  0
  4  8  1  0
  4 10  1  0
  5  8  2  0
  5 11  1  0
  6 12  1  0
  6 22  1  0
  7 12  2  0
  7 13  1  0
  8 15  1  0
  9 10  1  0
  9 11  2  0
  9 14  1  0
 11 17  1  0
 12 16  1  0
 13 18  2  0
 14 20  2  0
 16 19  2  0
 17 21  2  0
 18 19  1  0
 20 21  1  0
 23 24  1  0
M  END
>  <PUBCHEM_COMPOUND_CID>  (1) 
17297

>  <PUBCHEM_CONFORMER_RMSD>  (1) 
0.8

>  <PUBCHEM_CONFORMER_DIVERSEORDER>  (1) 
1
5
12
11
9
13
8
3
7
2
6
10
14
4

>  <PUBCHEM_MMFF94_PARTIAL_CHARGES>  (1) 
32
1 -0.57
10 0.54
11 0.18
12 0.12
13 -0.15
14 -0.15
15 0.06
16 -0.15
17 -0.15
18 -0.15
19 -0.15
2 -0.43
20 -0.15
21 -0.15
22 0.78
23 0.28
25 0.15
26 0.15
3 -0.57
30 0.15
31 0.15
32 0.15
33 0.37
34 0.15
35 0.15
36 0.15
4 -0.24
5 -0.63
6 -0.55
7 0.12
8 0.45
9 0.09

>  <PUBCHEM_EFFECTIVE_ROTOR_COUNT>  (1) 
5

>  <PUBCHEM_PHARMACOPHORE_FEATURES>  (1) 
6
1 1 acceptor
1 3 acceptor
1 6 donor
6 4 5 8 9 10 11 rings
6 7 12 13 16 18 19 rings
6 9 11 14 17 20 21 rings

>  <PUBCHEM_HEAVY_ATOM_COUNT>  (1) 
24

>  <PUBCHEM_ATOM_DEF_STEREO_COUNT>  (1) 
0

>  <PUBCHEM_ATOM_UDEF_STEREO_COUNT>  (1) 
0

>  <PUBCHEM_BOND_DEF_STEREO_COUNT>  (1) 
0

>  <PUBCHEM_BOND_UDEF_STEREO_COUNT>  (1) 
0

>  <PUBCHEM_ISOTOPIC_ATOM_COUNT>  (1) 
0

>  <PUBCHEM_COMPONENT_COUNT>  (1) 
1

>  <PUBCHEM_CACTVS_TAUTO_COUNT>  (1) 
2

>  <PUBCHEM_CONFORMER_ID>  (1) 
0000439100000001

>  <PUBCHEM_MMFF94_ENERGY>  (1) 
91.2177

>  <PUBCHEM_FEATURE_SELFOVERLAP>  (1) 
30.475

>  <PUBCHEM_SHAPE_FINGERPRINT>  (1) 
10165383 225 17620520893277659513
10937287 8 18193835929940202681
11582403 64 17341770548939928514
11640471 11 17894355462080699329
11725454 13 17774425136212246550
11796584 16 8645679282691028880
12107183 9 18117826704402612706
12173636 292 18410288078132481543
12236239 1 17387685239677959099
12403814 3 17629483265742766262
12788726 201 18044107966510187050
13583140 156 18059565949705417122
13911987 19 16486701393332838336
13965767 371 17608089771658960861
14739800 52 17903350756610119496
15484559 13 14753439775979698880
15961568 22 17763177347362586168
16988056 13 16606308071772662813
17876694 64 17823426061768021287
18219364 16 16845015739871220550
20600515 1 17981624954656863787
21033650 10 18189357782773857172
21133410 221 17484479608254120888
21427221 339 17895746288866744128
21591340 35 17407119859376296952
21860390 5 17046251308734695213
22149856 69 17975436624908497857
23402539 116 18126563650929663655
23557571 272 18199202839088642870
23559900 14 18341626927374680238
238 59 16558457587618919396
469060 322 18193579958716485123
550186 7 18341904016878155620
57124632 79 17760082922004090441
7808743 9 18409737257056616296
84936 182 17764871295232453025
90316 7 18194687188094419155
9849439 229 18193835929972130569
9981440 41 18263360288031909873

>  <PUBCHEM_SHAPE_MULTIPOLES>  (1) 
461.36
8.14
4.76
1.63
6.54
5.29
-0.71
4.84
1.73
-8.73
0.09
1.53
-0.59
0.64

>  <PUBCHEM_SHAPE_SELFOVERLAP>  (1) 
1000.325

>  <PUBCHEM_SHAPE_VOLUME>  (1) 
251.4

>  <PUBCHEM_COORDINATE_TYPE>  (1) 
2
5
10

$$$$
