173
     RDKit          3D

 13 12  0  0  1  0  0  0  0  0999 V2000
   -2.8311    1.4606    0.3230 O   0  0  0  0  0  0  0  0  0  0  0  0
    5.8041   -0.7024   -0.0867 O   0  0  0  0  0  0  0  0  0  0  0  0
    4.7849    1.2729    0.3755 O   0  0  0  0  0  0  0  0  0  0  0  0
   -5.1826    0.5378   -0.7244 N   0  0  0  0  0  0  0  0  0  0  0  0
   -0.3511    0.2499   -0.0453 C   0  0  0  0  0  0  0  0  0  0  0  0
    0.8895   -0.6169   -0.2675 C   0  0  0  0  0  0  0  0  0  0  0  0
   -1.6341   -0.5502   -0.2609 C   0  0  0  0  0  0  0  0  0  0  0  0
    2.1742    0.1754   -0.0058 C   0  0  0  0  0  0  0  0  0  0  0  0
   -2.8880    0.2768   -0.0109 C   0  0  0  0  0  0  0  0  0  0  0  0
   -4.2151   -0.4409   -0.2325 C   0  0  0  0  0  0  0  0  0  0  0  0
    3.4324   -0.6742   -0.1867 C   0  0  0  0  0  0  0  0  0  0  0  0
   -4.6953   -1.0820    1.0613 C   0  0  0  0  0  0  0  0  0  0  0  0
    4.7123    0.0932    0.0610 C   0  0  0  0  0  0  0  0  0  0  0  0
  1  9  2  0
  2 13  1  0
  3 13  2  0
  4 10  1  0
  5  6  1  0
  5  7  1  0
  6  8  1  0
  7  9  1  0
  8 11  1  0
  9 10  1  0
 10 12  1  0
 11 13  1  0
M  END
>  <PUBCHEM_COMPOUND_CID>  (1) 
173

>  <PUBCHEM_CONFORMER_RMSD>  (1) 
0.8

>  <PUBCHEM_CONFORMER_DIVERSEORDER>  (1) 
5
329
15
267
107
229
23
93
82
61
268
300
224
118
50
31
248
278
310
124
101
337
30
217
105
318
282
125
132
295
71
22
327
88
297
89
42
338
303
1
122
91
336
188
166
214
269
131
66
126
256
134
294
222
312
241
67
254
62
261
335
237
96
13
279
28
205
333
53
21
137
149
45
319
280
116
277
38
152
339
308
79
301
320
48
190
171
49
128
276
321
115
291
184
306
304
272
249
130
117
68
195
174
296
57
233
246
74
17
37
26
317
315
199
273
154
167
316
51
10
14
324
11
220
253
247
85
283
223
255
36
170
59
260
286
191
32
78
213
102
127
201
12
311
52
198
193
323
70
275
29
129
216
34
44
287
293
288
259
250
215
69
251
140
240
159
75
110
252
187
266
169
3
76
86
40
84
230
328
210
27
225
309
231
72
18
108
274
16
227
164
157
178
302
77
185
73
331
182
111
334
242
332
305
145
202
234
98
226
136
25
19
151
160
313
35
143
94
194
80
138
112
322
270
153
90
56
204
156
189
265
258
244
141
236
290
104
200
146
106
60
326
235
95
55
47
192
161
176
133
257
228
292
264
46
299
168
135
203
218
262
24
172
100
147
148
263
33
209
7
83
330
340
114
2
39
150
271
179
119
8
158
243
54
65
81
64
298
162
183
144
175
285
325
109
212
289
20
4
245
123
41
180
221
197
206
307
239
142
113
43
97
120
284
314
9
173
58
87
6
238
341
281
165
219
92
99
207
63
211
186
177
208
232
103
181
121
155
163
139
196

>  <PUBCHEM_MMFF94_PARTIAL_CHARGES>  (1) 
12
1 -0.57
10 0.33
11 0.06
13 0.66
2 -0.65
28 0.36
29 0.36
3 -0.57
30 0.5
4 -0.99
7 0.06
9 0.45

>  <PUBCHEM_EFFECTIVE_ROTOR_COUNT>  (1) 
7

>  <PUBCHEM_PHARMACOPHORE_FEATURES>  (1) 
7
1 1 acceptor
1 2 acceptor
1 3 acceptor
1 4 cation
1 4 donor
3 2 3 13 anion
5 5 6 7 8 11 hydrophobe

>  <PUBCHEM_HEAVY_ATOM_COUNT>  (1) 
13

>  <PUBCHEM_ATOM_DEF_STEREO_COUNT>  (1) 
0

>  <PUBCHEM_ATOM_UDEF_STEREO_COUNT>  (1) 
1

>  <PUBCHEM_BOND_DEF_STEREO_COUNT>  (1) 
0

>  <PUBCHEM_BOND_UDEF_STEREO_COUNT>  (1) 
0

>  <PUBCHEM_ISOTOPIC_ATOM_COUNT>  (1) 
0

>  <PUBCHEM_COMPONENT_COUNT>  (1) 
1

>  <PUBCHEM_CACTVS_TAUTO_COUNT>  (1) 
5

>  <PUBCHEM_CONFORMER_ID>  (1) 
000000AD00000005

>  <PUBCHEM_MMFF94_ENERGY>  (1) 
4.8282

>  <PUBCHEM_FEATURE_SELFOVERLAP>  (1) 
35.578

>  <PUBCHEM_SHAPE_FINGERPRINT>  (1) 
10912923 1 16487255465087867839
11287383 113 18334296504420399586
11401426 45 17167859764383244135
13081056 2 18272368676913463384
14123238 8 17418374700862736182
1420 363 18409454690957343186
14251718 22 17749392589242071610
17834072 33 18335422408680257846
17834076 25 14979958068719442462
19433438 28 18410854361080959288
19489759 90 17095519587182731581
200 152 13912321291627826111
20645477 70 17703515381365181014
20719005 15 18341894091282450510
20767249 13 14562528487755601362
220451 1 16153427233656843714
22485316 2 17530679896766458899
23402539 116 18410568505221756623
23557571 272 18187645743578223245
300161 21 17458334226719304667
42788 4 18411417314880785958
449060 50 18201722859799757078
542803 24 15913331303400070226
57483677 66 18040995141981872394

>  <PUBCHEM_SHAPE_MULTIPOLES>  (1) 
244.94
13.77
1.08
0.75
6.91
0.14
0.06
-0.42
0.75
-0.27
0.14
-0.55
-0.06
0.66

>  <PUBCHEM_SHAPE_SELFOVERLAP>  (1) 
457.659

>  <PUBCHEM_SHAPE_VOLUME>  (1) 
152.6

>  <PUBCHEM_COORDINATE_TYPE>  (1) 
2
5
10

$$$$
