17303
     RDKit          3D

  6  5  0  0  0  0  0  0  0  0999 V2000
   -1.7416   -0.8717    1.0838 Cl  0  0  0  0  0  0  0  0  0  0  0  0
   -0.3964   -0.8789   -1.7532 Cl  0  0  0  0  0  0  0  0  0  0  0  0
   -0.7828    1.9772   -0.1757 S   0  0  0  0  0  0  0  0  0  0  0  0
   -0.3635    0.0988   -0.0033 P   0  0  0  0  0  0  0  0  0  0  0  0
    1.0203   -0.3652    0.6970 O   0  0  0  0  0  0  0  0  0  0  0  0
    2.2640    0.0397    0.1514 C   0  0  0  0  0  0  0  0  0  0  0  0
  1  4  1  0
  2  4  1  0
  3  4  2  0
  4  5  1  0
  5  6  1  0
M  END
>  <PUBCHEM_COMPOUND_CID>  (1) 
17303

>  <PUBCHEM_CONFORMER_RMSD>  (1) 
0.4

>  <PUBCHEM_CONFORMER_DIVERSEORDER>  (1) 
1
2
3

>  <PUBCHEM_MMFF94_PARTIAL_CHARGES>  (1) 
6
1 -0.32
2 -0.32
3 -0.68
4 1.58
5 -0.55
6 0.28

>  <PUBCHEM_EFFECTIVE_ROTOR_COUNT>  (1) 
1

>  <PUBCHEM_PHARMACOPHORE_FEATURES>  (1) 
0

>  <PUBCHEM_HEAVY_ATOM_COUNT>  (1) 
6

>  <PUBCHEM_ATOM_DEF_STEREO_COUNT>  (1) 
0

>  <PUBCHEM_ATOM_UDEF_STEREO_COUNT>  (1) 
0

>  <PUBCHEM_BOND_DEF_STEREO_COUNT>  (1) 
0

>  <PUBCHEM_BOND_UDEF_STEREO_COUNT>  (1) 
0

>  <PUBCHEM_ISOTOPIC_ATOM_COUNT>  (1) 
0

>  <PUBCHEM_COMPONENT_COUNT>  (1) 
1

>  <PUBCHEM_CACTVS_TAUTO_COUNT>  (1) 
1

>  <PUBCHEM_CONFORMER_ID>  (1) 
0000439700000001

>  <PUBCHEM_MMFF94_ENERGY>  (1) 
6.6152

>  <PUBCHEM_FEATURE_SELFOVERLAP>  (1) 
0

>  <PUBCHEM_SHAPE_FINGERPRINT>  (1) 
137420 1 13801019979973963025
16714656 1 18131629002018686316
20096714 4 17903907860400322728
24536 1 17969480659548498274
5943 1 9746887640889965837

>  <PUBCHEM_SHAPE_MULTIPOLES>  (1) 
129.05
2.27
1.67
1.44
1.21
1.08
-0.58
-0.31
0.91
-0.73
-0.36
-0.35
-0.65
0.25

>  <PUBCHEM_SHAPE_SELFOVERLAP>  (1) 
189.351

>  <PUBCHEM_SHAPE_VOLUME>  (1) 
98.3

>  <PUBCHEM_COORDINATE_TYPE>  (1) 
2
5
10

$$$$
