17306
     RDKit          3D

 11 10  0  0  0  0  0  0  0  0999 V2000
    0.1591   -1.3739   -1.2197 S   0  0  0  0  0  0  0  0  0  0  0  0
   -0.3517    2.0360   -1.9188 S   0  0  0  0  0  0  0  0  0  0  0  0
   -0.1418    0.6289   -0.5676 P   0  0  0  0  0  0  0  0  0  0  0  0
   -1.3838    0.6006    0.4958 O   0  0  0  0  0  0  0  0  0  0  0  0
    1.0555    0.9703    0.4925 O   0  0  0  0  0  0  0  0  0  0  0  0
    0.5459   -2.3110    0.2728 C   0  0  0  0  0  0  0  0  0  0  0  0
   -2.7031    0.3333    0.0503 C   0  0  0  0  0  0  0  0  0  0  0  0
    2.3938    1.1057    0.0436 C   0  0  0  0  0  0  0  0  0  0  0  0
    0.7845   -3.7711   -0.0619 C   0  0  0  0  0  0  0  0  0  0  0  0
   -3.6369    0.3665    1.2111 C   0  0  0  0  0  0  0  0  0  0  0  0
    3.2786    1.4146    1.2020 C   0  0  0  0  0  0  0  0  0  0  0  0
  1  3  1  0
  1  6  1  0
  2  3  2  0
  3  4  1  0
  3  5  1  0
  4  7  1  0
  5  8  1  0
  6  9  1  0
  7 10  1  0
  8 11  1  0
M  END
>  <PUBCHEM_COMPOUND_CID>  (1) 
17306

>  <PUBCHEM_CONFORMER_RMSD>  (1) 
0.6

>  <PUBCHEM_CONFORMER_DIVERSEORDER>  (1) 
1
31
49
18
16
36
29
34
35
7
40
6
52
11
44
28
45
48
15
10
8
9
5
21
33
39
27
14
32
42
53
50
30
13
12
19
41
22
51
17
38
23
25
47
4
2
3
43
26
24
37
46
20

>  <PUBCHEM_MMFF94_PARTIAL_CHARGES>  (1) 
8
1 -0.48
2 -0.68
3 1.47
4 -0.55
5 -0.55
6 0.23
7 0.28
8 0.28

>  <PUBCHEM_EFFECTIVE_ROTOR_COUNT>  (1) 
6

>  <PUBCHEM_PHARMACOPHORE_FEATURES>  (1) 
1
1 9 hydrophobe

>  <PUBCHEM_HEAVY_ATOM_COUNT>  (1) 
11

>  <PUBCHEM_ATOM_DEF_STEREO_COUNT>  (1) 
0

>  <PUBCHEM_ATOM_UDEF_STEREO_COUNT>  (1) 
0

>  <PUBCHEM_BOND_DEF_STEREO_COUNT>  (1) 
0

>  <PUBCHEM_BOND_UDEF_STEREO_COUNT>  (1) 
0

>  <PUBCHEM_ISOTOPIC_ATOM_COUNT>  (1) 
0

>  <PUBCHEM_COMPONENT_COUNT>  (1) 
1

>  <PUBCHEM_CACTVS_TAUTO_COUNT>  (1) 
1

>  <PUBCHEM_CONFORMER_ID>  (1) 
0000439A00000001

>  <PUBCHEM_MMFF94_ENERGY>  (1) 
-1.01

>  <PUBCHEM_FEATURE_SELFOVERLAP>  (1) 
5.074

>  <PUBCHEM_SHAPE_FINGERPRINT>  (1) 
100427 49 17478874001537531886
14817 1 13939799371242875686
15502708 68 18413107234172134338
18380122 1 18187359879181806765
19021347 4 18269557306795209931
21061003 4 17766278665504534251
23419403 2 17828754050155394869
23532345 11 17836631295502935304
3250762 1 17829883244144391389
528862 383 18200870660825857799
68419 9 16269355307299256349
81228 2 17834375093110206002

>  <PUBCHEM_SHAPE_MULTIPOLES>  (1) 
226.18
4.29
3.5
1.51
1.96
4.48
-0.43
-2.32
3.1
-2.19
-0.77
0.19
-0.82
0.71

>  <PUBCHEM_SHAPE_SELFOVERLAP>  (1) 
367.278

>  <PUBCHEM_SHAPE_VOLUME>  (1) 
159

>  <PUBCHEM_COORDINATE_TYPE>  (1) 
2
5
10

$$$$
