17331
     RDKit          3D

 16 16  0  0  0  0  0  0  0  0999 V2000
    4.8661    2.1079   -0.0025 Cl  0  0  0  0  0  0  0  0  0  0  0  0
    5.6921   -1.0213    0.0038 Cl  0  0  0  0  0  0  0  0  0  0  0  0
   -1.1070   -1.4774   -0.0019 O   0  0  0  0  0  0  0  0  0  0  0  0
    0.0037    0.5922   -0.0033 N   0  0  0  0  0  0  0  0  0  0  0  0
   -3.6405   -0.3193   -0.0073 C   0  0  0  0  0  0  0  0  0  0  0  0
   -4.9158    0.5234    0.0288 C   0  0  0  0  0  0  0  0  0  0  0  0
   -2.3922    0.5605   -0.0065 C   0  0  0  0  0  0  0  0  0  0  0  0
   -6.1649   -0.3566   -0.0061 C   0  0  0  0  0  0  0  0  0  0  0  0
   -1.1040   -0.2509   -0.0039 C   0  0  0  0  0  0  0  0  0  0  0  0
   -7.4352    0.4787   -0.0043 C   0  0  0  0  0  0  0  0  0  0  0  0
    1.3696    0.2218   -0.0012 C   0  0  0  0  0  0  0  0  0  0  0  0
    2.3401    1.2100   -0.0013 C   0  0  0  0  0  0  0  0  0  0  0  0
    1.7067   -1.1215    0.0006 C   0  0  0  0  0  0  0  0  0  0  0  0
    3.6862    0.8442    0.0004 C   0  0  0  0  0  0  0  0  0  0  0  0
    3.0527   -1.4873    0.0023 C   0  0  0  0  0  0  0  0  0  0  0  0
    4.0424   -0.5045    0.0023 C   0  0  0  0  0  0  0  0  0  0  0  0
  1 14  1  0
  2 16  1  0
  3  9  2  0
  4  9  1  0
  4 11  1  0
  5  6  1  0
  5  7  1  0
  6  8  1  0
  7  9  1  0
  8 10  1  0
 11 12  2  0
 11 13  1  0
 12 14  1  0
 13 15  2  0
 14 16  2  0
 15 16  1  0
M  END
>  <PUBCHEM_COMPOUND_CID>  (1) 
17331

>  <PUBCHEM_CONFORMER_RMSD>  (1) 
0.8

>  <PUBCHEM_CONFORMER_DIVERSEORDER>  (1) 
1
31
49
34
52
23
50
45
33
32
36
5
13
38
41
53
29
51
21
35
39
12
2
30
42
46
25
19
22
14
47
11
37
44
17
10
48
4
24
40
28
6
43
9
27
8
7
26
3
20
18
16
15

>  <PUBCHEM_MMFF94_PARTIAL_CHARGES>  (1) 
16
1 -0.18
11 0.12
12 -0.15
13 -0.15
14 0.18
15 -0.15
16 0.18
2 -0.18
28 0.37
29 0.15
3 -0.57
30 0.15
31 0.15
4 -0.55
7 0.06
9 0.57

>  <PUBCHEM_EFFECTIVE_ROTOR_COUNT>  (1) 
6

>  <PUBCHEM_PHARMACOPHORE_FEATURES>  (1) 
5
1 10 hydrophobe
1 3 acceptor
1 4 donor
4 5 6 7 8 hydrophobe
6 11 12 13 14 15 16 rings

>  <PUBCHEM_HEAVY_ATOM_COUNT>  (1) 
16

>  <PUBCHEM_ATOM_DEF_STEREO_COUNT>  (1) 
0

>  <PUBCHEM_ATOM_UDEF_STEREO_COUNT>  (1) 
0

>  <PUBCHEM_BOND_DEF_STEREO_COUNT>  (1) 
0

>  <PUBCHEM_BOND_UDEF_STEREO_COUNT>  (1) 
0

>  <PUBCHEM_ISOTOPIC_ATOM_COUNT>  (1) 
0

>  <PUBCHEM_COMPONENT_COUNT>  (1) 
1

>  <PUBCHEM_CACTVS_TAUTO_COUNT>  (1) 
2

>  <PUBCHEM_CONFORMER_ID>  (1) 
000043B300000001

>  <PUBCHEM_MMFF94_ENERGY>  (1) 
29.0101

>  <PUBCHEM_FEATURE_SELFOVERLAP>  (1) 
25.372

>  <PUBCHEM_SHAPE_FINGERPRINT>  (1) 
10411042 1 18050286965252968490
11287383 113 18261112997775369459
11471102 20 18411138048113377284
12107183 9 17621324533303675531
12236239 1 18131350821777672893
13167372 99 18270966748117312361
13533116 47 18131351882144315898
1420 363 17967819345124450083
14251732 16 18337954601508244603
14251764 18 18413671300917350888
14251764 46 18272932708776546162
15048467 5 18411981403074802885
15196674 1 18338797917777950210
17834072 33 18343863337898037079
17834076 25 15195283119073642951
17844677 252 18336271163064589805
19427546 62 18263084469321282082
200 152 18131068216976604569
20281389 69 18333731308700755437
20645477 70 18340487776929200638
21267235 1 18340210704684020566
212847 35 18201718465890068176
220451 1 17489588974621250199
23402539 116 17988637502521738517
23402655 69 18272086131946382391
23536379 177 18413108343033222137
23557571 272 16950562129960222055
23559900 14 18339920523391934752
29717793 49 17846785087384051052
300161 21 18343297098173675295
335352 9 18410858759586510406
3545911 37 18408041818525914695
4047638 21 18333732433670398488
4073 2 18041565840330602579
42630746 31 18272373048821068270
42788 4 18410573981468413541
4340502 62 17022901255099611811
4463277 17 18410573981642746717
5104073 3 18337672018018645666
522135 26 18410575076373883138
542803 24 17346883351645912561
54446538 1 18342739589907258705
59755656 520 17603300471266243427
6025842 7 18342741806258102662
8209 1 18410573972266562263
9999458 23 18186521017014960566

>  <PUBCHEM_SHAPE_MULTIPOLES>  (1) 
322.16
16.52
1.56
0.61
25.29
0.27
0
1.81
-0.01
-2.47
0
-0.03
0.01
-0.01

>  <PUBCHEM_SHAPE_SELFOVERLAP>  (1) 
630.684

>  <PUBCHEM_SHAPE_VOLUME>  (1) 
195.1

>  <PUBCHEM_COORDINATE_TYPE>  (1) 
2
5
10

$$$$
