17335
     RDKit          3D

 11 12  0  0  0  0  0  0  0  0999 V2000
   -1.5606    1.5526   -0.0005 S   0  0  0  0  0  0  0  0  0  0  0  0
   -1.7164   -1.0219   -0.0002 N   0  0  0  0  0  0  0  0  0  0  0  0
   -3.7895    0.1093    0.0010 N   0  0  0  0  0  0  0  0  0  0  0  0
   -0.0809    0.6676   -0.0003 C   0  0  0  0  0  0  0  0  0  0  0  0
   -0.3668   -0.7011   -0.0002 C   0  0  0  0  0  0  0  0  0  0  0  0
    2.2822    0.2214    0.0000 C   0  0  0  0  0  0  0  0  0  0  0  0
    1.2379    1.1496   -0.0002 C   0  0  0  0  0  0  0  0  0  0  0  0
    0.7071   -1.6176   -0.0001 C   0  0  0  0  0  0  0  0  0  0  0  0
    2.0225   -1.1446    0.0000 C   0  0  0  0  0  0  0  0  0  0  0  0
   -2.4302    0.0797   -0.0002 C   0  0  0  0  0  0  0  0  0  0  0  0
    3.6945    0.7049    0.0007 C   0  0  0  0  0  0  0  0  0  0  0  0
  1  4  1  0
  1 10  1  0
  2  5  1  0
  2 10  2  0
  3 10  1  0
  4  5  2  0
  4  7  1  0
  5  8  1  0
  6  7  2  0
  6  9  1  0
  6 11  1  0
  8  9  2  0
M  END
>  <PUBCHEM_COMPOUND_CID>  (1) 
17335

>  <PUBCHEM_CONFORMER_RMSD>  (1) 
0.4

>  <PUBCHEM_CONFORMER_DIVERSEORDER>  (1) 
1

>  <PUBCHEM_MMFF94_PARTIAL_CHARGES>  (1) 
16
1 -0.08
10 0.46
11 0.14
12 0.15
13 0.15
14 0.15
18 0.4
19 0.4
2 -0.57
3 -0.88
4 0.04
5 0.23
6 -0.14
7 -0.15
8 -0.15
9 -0.15

>  <PUBCHEM_EFFECTIVE_ROTOR_COUNT>  (1) 
0

>  <PUBCHEM_PHARMACOPHORE_FEATURES>  (1) 
4
1 3 donor
3 2 3 10 cation
5 1 2 4 5 10 rings
6 4 5 6 7 8 9 rings

>  <PUBCHEM_HEAVY_ATOM_COUNT>  (1) 
11

>  <PUBCHEM_ATOM_DEF_STEREO_COUNT>  (1) 
0

>  <PUBCHEM_ATOM_UDEF_STEREO_COUNT>  (1) 
0

>  <PUBCHEM_BOND_DEF_STEREO_COUNT>  (1) 
0

>  <PUBCHEM_BOND_UDEF_STEREO_COUNT>  (1) 
0

>  <PUBCHEM_ISOTOPIC_ATOM_COUNT>  (1) 
0

>  <PUBCHEM_COMPONENT_COUNT>  (1) 
1

>  <PUBCHEM_CACTVS_TAUTO_COUNT>  (1) 
2

>  <PUBCHEM_CONFORMER_ID>  (1) 
000043B700000001

>  <PUBCHEM_MMFF94_ENERGY>  (1) 
21.4518

>  <PUBCHEM_FEATURE_SELFOVERLAP>  (1) 
20.368

>  <PUBCHEM_SHAPE_FINGERPRINT>  (1) 
10219947 1 18260831505196913276
11062470 55 17458061573114868069
11471102 20 18410569557456984989
12897270 3 18411699889353287108
12932764 1 17131818846581559273
13380535 76 18409729573238505666
14325111 11 18410856525311927072
15775835 57 18343586256430212012
16945 1 18410573998052196772
17844478 74 18113909238629797617
193761 8 17834395618584710340
19973954 147 18195247719643421629
20201158 50 18409166610378758675
20645477 70 18339355246078182303
21040471 1 18410575128008475202
21501502 16 18266458694038760145
23235685 24 18409161134332411940
23402539 116 18341320171560536404
23402655 69 18341319004131512701
23463225 33 18334572400508957754
23552423 10 18190745232444307242
2748010 2 18194119612181294412
5084963 1 18272089374678339312
528886 8 18411414042136844450
53812653 166 18271519888154062736
63268167 104 18412264999680572257
7364860 26 18270398266140492438

>  <PUBCHEM_SHAPE_MULTIPOLES>  (1) 
220.26
5
1.58
0.61
0.43
0.09
0
-0.82
0
-0.17
0
-0.03
-0.02
0

>  <PUBCHEM_SHAPE_SELFOVERLAP>  (1) 
465.758

>  <PUBCHEM_SHAPE_VOLUME>  (1) 
126.1

>  <PUBCHEM_COORDINATE_TYPE>  (1) 
2
5
10

$$$$
