17343
     RDKit          3D

 13 13  0  0  0  0  0  0  0  0999 V2000
   -1.5433    2.5713   -0.2180 Cl  0  0  0  0  0  0  0  0  0  0  0  0
    1.9325   -2.6294    0.0583 Cl  0  0  0  0  0  0  0  0  0  0  0  0
    1.6031    2.8174    0.0823 Cl  0  0  0  0  0  0  0  0  0  0  0  0
    3.3523    0.1994    0.2211 Cl  0  0  0  0  0  0  0  0  0  0  0  0
   -2.5037   -0.2078   -0.3375 O   0  0  0  0  0  0  0  0  0  0  0  0
   -0.9935   -2.4679   -0.2205 O   0  0  0  0  0  0  0  0  0  0  0  0
   -1.1494   -0.0944   -0.2069 C   0  0  0  0  0  0  0  0  0  0  0  0
   -0.3752   -1.2530   -0.1462 C   0  0  0  0  0  0  0  0  0  0  0  0
   -0.5380    1.1574   -0.1360 C   0  0  0  0  0  0  0  0  0  0  0  0
    1.0104   -1.1599   -0.0145 C   0  0  0  0  0  0  0  0  0  0  0  0
    0.8475    1.2505   -0.0042 C   0  0  0  0  0  0  0  0  0  0  0  0
    1.6216    0.0919    0.0566 C   0  0  0  0  0  0  0  0  0  0  0  0
   -3.2643   -0.2756    0.8655 C   0  0  0  0  0  0  0  0  0  0  0  0
  1  9  1  0
  2 10  1  0
  3 11  1  0
  4 12  1  0
  5  7  1  0
  5 13  1  0
  6  8  1  0
  7  8  2  0
  7  9  1  0
  8 10  1  0
  9 11  2  0
 10 12  2  0
 11 12  1  0
M  END
>  <PUBCHEM_COMPOUND_CID>  (1) 
17343

>  <PUBCHEM_CONFORMER_RMSD>  (1) 
0.4

>  <PUBCHEM_CONFORMER_DIVERSEORDER>  (1) 
2
1

>  <PUBCHEM_MMFF94_PARTIAL_CHARGES>  (1) 
14
1 -0.18
10 0.18
11 0.18
12 0.18
13 0.28
17 0.45
2 -0.18
3 -0.18
4 -0.18
5 -0.36
6 -0.53
7 0.08
8 0.08
9 0.18

>  <PUBCHEM_EFFECTIVE_ROTOR_COUNT>  (1) 
1

>  <PUBCHEM_PHARMACOPHORE_FEATURES>  (1) 
3
1 5 acceptor
1 6 donor
6 7 8 9 10 11 12 rings

>  <PUBCHEM_HEAVY_ATOM_COUNT>  (1) 
13

>  <PUBCHEM_ATOM_DEF_STEREO_COUNT>  (1) 
0

>  <PUBCHEM_ATOM_UDEF_STEREO_COUNT>  (1) 
0

>  <PUBCHEM_BOND_DEF_STEREO_COUNT>  (1) 
0

>  <PUBCHEM_BOND_UDEF_STEREO_COUNT>  (1) 
0

>  <PUBCHEM_ISOTOPIC_ATOM_COUNT>  (1) 
0

>  <PUBCHEM_COMPONENT_COUNT>  (1) 
1

>  <PUBCHEM_CACTVS_TAUTO_COUNT>  (1) 
3

>  <PUBCHEM_CONFORMER_ID>  (1) 
000043BF00000002

>  <PUBCHEM_MMFF94_ENERGY>  (1) 
42.7481

>  <PUBCHEM_FEATURE_SELFOVERLAP>  (1) 
15.223

>  <PUBCHEM_SHAPE_FINGERPRINT>  (1) 
10967382 1 18410854399419069188
11471102 22 18263385684046716091
11680986 33 18050561842409949368
12423570 1 12182424394514458632
12524768 44 18336826510534980821
13140716 1 18194400223964472328
13380535 21 18122353380240566708
161256 15 18340496551610462462
16945 1 18410849984160910524
193761 8 18050566235987510732
20511035 2 17980749450941886316
20588541 1 18410296929870401730
21501502 16 18194118504000623549
2334 1 17834111222982700732
23526114 1 18195244412687265958
23552423 10 17973999849886112556
23559900 14 17550101469072348918
241688 4 18050567335467399336
2748010 2 18195241109852121140
5084963 1 18131627902406935633
5255222 1 18411974784566759244
528886 8 18267580385035713448
53812653 166 18270674269080811952

>  <PUBCHEM_SHAPE_MULTIPOLES>  (1) 
263.27
4.03
3.23
0.7
0.41
0.72
-0.05
-0.45
-0.69
-0.7
0.11
0.16
-0.01
0.24

>  <PUBCHEM_SHAPE_SELFOVERLAP>  (1) 
516.348

>  <PUBCHEM_SHAPE_VOLUME>  (1) 
162.4

>  <PUBCHEM_COORDINATE_TYPE>  (1) 
2
5
10

$$$$
