17346
     RDKit          3D

 20 23  0  0  0  0  0  0  0  0999 V2000
    0.5390   -3.2810   -0.0008 F   0  0  0  0  0  0  0  0  0  0  0  0
    0.4314    0.3974   -0.0001 C   0  0  0  0  0  0  0  0  0  0  0  0
   -0.0178   -0.9459    0.0000 C   0  0  0  0  0  0  0  0  0  0  0  0
   -1.3921   -1.2425    0.0001 C   0  0  0  0  0  0  0  0  0  0  0  0
   -2.3633   -0.2323    0.0001 C   0  0  0  0  0  0  0  0  0  0  0  0
    1.8473    0.6649   -0.0001 C   0  0  0  0  0  0  0  0  0  0  0  0
   -1.9470    1.1111   -0.0001 C   0  0  0  0  0  0  0  0  0  0  0  0
   -0.5695    1.4027   -0.0001 C   0  0  0  0  0  0  0  0  0  0  0  0
    2.7581   -0.4238    0.0001 C   0  0  0  0  0  0  0  0  0  0  0  0
    0.9096   -1.9914    0.0002 C   0  0  0  0  0  0  0  0  0  0  0  0
    2.2765   -1.7347    0.0003 C   0  0  0  0  0  0  0  0  0  0  0  0
   -1.8675   -2.6723    0.0001 C   0  0  0  0  0  0  0  0  0  0  0  0
   -3.7368   -0.5303    0.0001 C   0  0  0  0  0  0  0  0  0  0  0  0
    2.4127    1.9650   -0.0002 C   0  0  0  0  0  0  0  0  0  0  0  0
   -2.9167    2.1289   -0.0002 C   0  0  0  0  0  0  0  0  0  0  0  0
    4.1452   -0.1974    0.0002 C   0  0  0  0  0  0  0  0  0  0  0  0
   -4.6871    0.4906    0.0001 C   0  0  0  0  0  0  0  0  0  0  0  0
   -4.2772    1.8196    0.0001 C   0  0  0  0  0  0  0  0  0  0  0  0
    3.7943    2.1766   -0.0001 C   0  0  0  0  0  0  0  0  0  0  0  0
    4.6608    1.0948    0.0002 C   0  0  0  0  0  0  0  0  0  0  0  0
  1 10  1  0
  2  3  1  0
  2  6  1  0
  2  8  2  0
  3  4  2  0
  3 10  1  0
  4  5  1  0
  4 12  1  0
  5  7  2  0
  5 13  1  0
  6  9  2  0
  6 14  1  0
  7  8  1  0
  7 15  1  0
  9 11  1  0
  9 16  1  0
 10 11  2  0
 13 17  2  0
 14 19  2  0
 15 18  2  0
 16 20  2  0
 17 18  1  0
 19 20  1  0
M  END
>  <PUBCHEM_COMPOUND_CID>  (1) 
17346

>  <PUBCHEM_CONFORMER_RMSD>  (1) 
0.6

>  <PUBCHEM_CONFORMER_DIVERSEORDER>  (1) 
1

>  <PUBCHEM_MMFF94_PARTIAL_CHARGES>  (1) 
24
1 -0.19
10 0.19
11 -0.15
12 0.14
13 -0.15
14 -0.15
15 -0.15
16 -0.15
17 -0.15
18 -0.15
19 -0.15
20 -0.15
21 0.15
22 0.15
26 0.15
27 0.15
28 0.15
29 0.15
30 0.15
31 0.15
32 0.15
33 0.15
4 -0.14
8 -0.15

>  <PUBCHEM_EFFECTIVE_ROTOR_COUNT>  (1) 
0

>  <PUBCHEM_PHARMACOPHORE_FEATURES>  (1) 
4
6 2 3 4 5 7 8 rings
6 2 3 6 9 10 11 rings
6 5 7 13 15 17 18 rings
6 6 9 14 16 19 20 rings

>  <PUBCHEM_HEAVY_ATOM_COUNT>  (1) 
20

>  <PUBCHEM_ATOM_DEF_STEREO_COUNT>  (1) 
0

>  <PUBCHEM_ATOM_UDEF_STEREO_COUNT>  (1) 
0

>  <PUBCHEM_BOND_DEF_STEREO_COUNT>  (1) 
0

>  <PUBCHEM_BOND_UDEF_STEREO_COUNT>  (1) 
0

>  <PUBCHEM_ISOTOPIC_ATOM_COUNT>  (1) 
0

>  <PUBCHEM_COMPONENT_COUNT>  (1) 
1

>  <PUBCHEM_CACTVS_TAUTO_COUNT>  (1) 
1

>  <PUBCHEM_CONFORMER_ID>  (1) 
000043C200000001

>  <PUBCHEM_MMFF94_ENERGY>  (1) 
79.191

>  <PUBCHEM_FEATURE_SELFOVERLAP>  (1) 
20.37

>  <PUBCHEM_SHAPE_FINGERPRINT>  (1) 
10319926 262 18054768836719618600
10411042 1 17257934789257634571
10608611 8 18409448051080321845
10616163 171 18338518646092997735
10646746 165 18410576205997871780
10948715 1 18410293618318695766
10967382 1 18410575050340289796
1100329 8 18263639568085757330
11370993 70 18410289215934999864
11471102 20 18339077086219689725
12173636 292 18339076111314893836
12390115 104 18197798758798758312
12403814 3 17749383776296325597
12592029 89 18408605829362794770
12644460 14 18189338974246736474
12788726 201 17611180855617147010
13140716 1 18409162225422949522
13380535 76 18409730651190745011
13583140 156 16878209939915601545
138480 1 17689998938184106179
14787075 74 18272085037331075873
14790565 3 18411427202102080657
15042514 8 18048601709325335035
15196674 1 18410855455833194503
15442244 35 18051412872688565760
15536298 74 18342176613830280830
16945 1 18338517439096339782
18186145 218 18271251503884359053
19591789 44 18411138043217003815
200 152 17988922275490260089
20510252 161 18198347457733660946
21267235 1 18410864251942242351
21524375 3 18334857216537707986
221490 88 18337681801743336939
22182313 1 18268171874868144214
23227448 37 18340768229740228551
2334 1 18266741470480167242
23366157 5 18042128643928133146
23402539 116 18342730849258349909
23558518 356 17972597964060324010
23559900 14 18272090492245386550
238 59 17540495108292554245
2748010 2 18338244871982086366
3004659 81 18261966138043900166
3091708 16 9264747187726485219
335352 9 18410573955793737630
34934 24 18410288125018451507
350125 39 18338240486794044921
3545911 37 18411140242319731444
4214541 1 18410856572551461472
474 4 18408604747015302417
495365 180 17346308350077646928
5104073 3 18408886213407152721
58051976 378 18341328894808231309
59755656 215 18340773654943273974
6138700 20 18267027146774144350
6333272 397 18410293596806799712
633830 44 18272089361793619717
69090 78 18411134744824629741
7364860 26 18268431226673723126
7808743 9 18121778598201319488
8272917 22 18269559338446232917
9709674 26 18413112761795388703
9981440 41 18408599292391201355

>  <PUBCHEM_SHAPE_MULTIPOLES>  (1) 
404.32
8.47
2.94
0.61
0.06
1.3
0
-4.51
0
0.05
0
0
-0.02
0

>  <PUBCHEM_SHAPE_SELFOVERLAP>  (1) 
930.747

>  <PUBCHEM_SHAPE_VOLUME>  (1) 
210.6

>  <PUBCHEM_COORDINATE_TYPE>  (1) 
2
5
10

$$$$
