17349
     RDKit          3D

 21 21  0  0  0  0  0  0  0  0999 V2000
   -3.7339    2.6763   -0.2192 Cl  0  0  0  0  0  0  0  0  0  0  0  0
   -4.1316   -3.5323    0.2988 Cl  0  0  0  0  0  0  0  0  0  0  0  0
   -6.5511   -1.8164   -0.9942 Cl  0  0  0  0  0  0  0  0  0  0  0  0
    4.4249    0.5678   -0.1066 O   0  0  0  0  0  0  0  0  0  0  0  0
    1.7101    1.2405   -0.1930 O   0  0  0  0  0  0  0  0  0  0  0  0
   -1.6537    0.8318    0.9334 O   0  0  0  0  0  0  0  0  0  0  0  0
    0.2614    2.7111    0.8400 O   0  0  0  0  0  0  0  0  0  0  0  0
    6.0203   -1.1939    0.1839 C   0  0  0  0  0  0  0  0  0  0  0  0
    7.2718   -1.8682   -0.3710 C   0  0  0  0  0  0  0  0  0  0  0  0
    5.5810   -0.0231   -0.6840 C   0  0  0  0  0  0  0  0  0  0  0  0
    3.9642    1.6717   -0.8743 C   0  0  0  0  0  0  0  0  0  0  0  0
    7.7320   -3.0096    0.5216 C   0  0  0  0  0  0  0  0  0  0  0  0
    2.7193    2.2424   -0.2226 C   0  0  0  0  0  0  0  0  0  0  0  0
   -0.4363    0.4470    0.3265 C   0  0  0  0  0  0  0  0  0  0  0  0
    0.5185    1.6107    0.3709 C   0  0  0  0  0  0  0  0  0  0  0  0
   -2.7986    0.2207    0.4818 C   0  0  0  0  0  0  0  0  0  0  0  0
   -3.8416    0.9606   -0.0753 C   0  0  0  0  0  0  0  0  0  0  0  0
   -2.9064   -1.1659    0.5889 C   0  0  0  0  0  0  0  0  0  0  0  0
   -4.0574   -1.8125    0.1386 C   0  0  0  0  0  0  0  0  0  0  0  0
   -4.9926    0.3138   -0.5255 C   0  0  0  0  0  0  0  0  0  0  0  0
   -5.1004   -1.0727   -0.4186 C   0  0  0  0  0  0  0  0  0  0  0  0
  1 17  1  0
  2 19  1  0
  3 21  1  0
  4 10  1  0
  4 11  1  0
  5 13  1  0
  5 15  1  0
  6 14  1  0
  6 16  1  0
  7 15  2  0
  8  9  1  0
  8 10  1  0
  9 12  1  0
 11 13  1  0
 14 15  1  0
 16 17  2  0
 16 18  1  0
 17 20  1  0
 18 19  2  0
 19 21  1  0
 20 21  2  0
M  END
>  <PUBCHEM_COMPOUND_CID>  (1) 
17349

>  <PUBCHEM_CONFORMER_RMSD>  (1) 
1

>  <PUBCHEM_CONFORMER_DIVERSEORDER>  (1) 
1
31
73
61
30
76
74
87
44
50
32
14
53
90
81
11
33
35
94
42
41
3
85
63
95
52
91
46
60
15
78
39
67
82
57
25
69
62
5
19
17
38
66
45
29
71
84
36
88
43
13
97
59
49
23
37
83
68
72
16
89
56
28
54
20
70
75
40
10
86
26
51
24
93
79
7
55
58
6
92
47
18
80
21
65
22
2
34
48
12
96
27
77
64
98
8
9
4
99

>  <PUBCHEM_MMFF94_PARTIAL_CHARGES>  (1) 
20
1 -0.18
10 0.28
11 0.28
13 0.28
14 0.34
15 0.66
16 0.08
17 0.18
18 -0.15
19 0.18
2 -0.18
20 -0.15
21 0.18
3 -0.18
37 0.15
38 0.15
4 -0.56
5 -0.43
6 -0.36
7 -0.57

>  <PUBCHEM_EFFECTIVE_ROTOR_COUNT>  (1) 
10

>  <PUBCHEM_PHARMACOPHORE_FEATURES>  (1) 
5
1 12 hydrophobe
1 4 acceptor
1 6 acceptor
1 7 acceptor
6 16 17 18 19 20 21 rings

>  <PUBCHEM_HEAVY_ATOM_COUNT>  (1) 
21

>  <PUBCHEM_ATOM_DEF_STEREO_COUNT>  (1) 
0

>  <PUBCHEM_ATOM_UDEF_STEREO_COUNT>  (1) 
0

>  <PUBCHEM_BOND_DEF_STEREO_COUNT>  (1) 
0

>  <PUBCHEM_BOND_UDEF_STEREO_COUNT>  (1) 
0

>  <PUBCHEM_ISOTOPIC_ATOM_COUNT>  (1) 
0

>  <PUBCHEM_COMPONENT_COUNT>  (1) 
1

>  <PUBCHEM_CACTVS_TAUTO_COUNT>  (1) 
1

>  <PUBCHEM_CONFORMER_ID>  (1) 
000043C500000001

>  <PUBCHEM_MMFF94_ENERGY>  (1) 
40.1517

>  <PUBCHEM_FEATURE_SELFOVERLAP>  (1) 
25.379

>  <PUBCHEM_SHAPE_FINGERPRINT>  (1) 
10 15 10807939279665723287
13533116 47 18411983581530564000
1361 4 18265899240542489966
13862211 1 18343022190228386022
13885169 86 10375571721570587330
14211702 104 18201166468636209686
14251751 18 18410577297104071004
14910302 57 18261663878544063773
15183329 4 17603583007004137714
15188451 53 18060136518856500560
20028762 73 18342459206464703702
20526848 3 8790880792359683878
20621476 30 18336549420767878411
21585483 132 18337374024783356354
23559900 14 18267015249456122185
23569943 247 18272087249704470443
25122255 55 18342748424586343358
3004659 81 18187363234147045616
3014063 24 18412824660565004350
5104073 3 17846510273706886472
531348 171 18334297539592134685
559249 180 18340205198187845885
5718773 13 18342735234562500758
59682541 52 14129332946244360466
6438161 24 18410849984382722946
7970288 3 18410293580508398706
96874 4 18336541621877590578

>  <PUBCHEM_SHAPE_MULTIPOLES>  (1) 
414.3
20.5
3.75
0.87
33.32
1.29
0.04
19.16
3.67
0.27
-0.31
-0.19
0
-0.95

>  <PUBCHEM_SHAPE_SELFOVERLAP>  (1) 
803.697

>  <PUBCHEM_SHAPE_VOLUME>  (1) 
252.9

>  <PUBCHEM_COORDINATE_TYPE>  (1) 
2
5
10

$$$$
