1734
     RDKit          3D

 24 26  0  0  0  0  0  0  0  0999 V2000
   -1.1232   -0.2039    0.9371 O   0  0  0  0  0  0  0  0  0  0  0  0
    0.2500    1.4154    1.8269 O   0  0  0  0  0  0  0  0  0  0  0  0
   -4.2005    0.4153   -0.8130 N   0  0  0  0  0  0  0  0  0  0  0  0
   -3.0368    1.4093   -0.7287 C   0  0  0  0  0  0  0  0  0  0  0  0
   -3.8634   -0.8797   -0.0657 C   0  0  0  0  0  0  0  0  0  0  0  0
   -2.3020    0.3930    1.4748 C   0  0  0  0  0  0  0  0  0  0  0  0
   -2.6226    1.6768    0.7155 C   0  0  0  0  0  0  0  0  0  0  0  0
   -3.4455   -0.6108    1.3775 C   0  0  0  0  0  0  0  0  0  0  0  0
   -4.4227    0.0676   -2.2908 C   0  0  0  0  0  0  0  0  0  0  0  0
   -5.4977    1.0343   -0.2931 C   0  0  0  0  0  0  0  0  0  0  0  0
    0.0108    0.5671    0.9767 C   0  0  0  0  0  0  0  0  0  0  0  0
    0.9525    0.1700   -0.1559 C   0  0  0  0  0  0  0  0  0  0  0  0
    2.2242    1.0054   -0.2210 C   0  0  0  0  0  0  0  0  0  0  0  0
    1.2495   -1.3239   -0.1865 C   0  0  0  0  0  0  0  0  0  0  0  0
    2.2275    2.1550   -0.9835 C   0  0  0  0  0  0  0  0  0  0  0  0
    1.5203   -1.9238   -1.3986 C   0  0  0  0  0  0  0  0  0  0  0  0
    3.3330    0.5868    0.4847 C   0  0  0  0  0  0  0  0  0  0  0  0
    1.2386   -2.0291    0.9987 C   0  0  0  0  0  0  0  0  0  0  0  0
    3.3921    2.9204   -1.0431 C   0  0  0  0  0  0  0  0  0  0  0  0
    1.7926   -3.2915   -1.4267 C   0  0  0  0  0  0  0  0  0  0  0  0
    4.4976    1.3522    0.4251 C   0  0  0  0  0  0  0  0  0  0  0  0
    1.5109   -3.3969    0.9704 C   0  0  0  0  0  0  0  0  0  0  0  0
    4.5270    2.5190   -0.3387 C   0  0  0  0  0  0  0  0  0  0  0  0
    1.7879   -4.0280   -0.2423 C   0  0  0  0  0  0  0  0  0  0  0  0
  1  6  1  0
  1 11  1  0
  2 11  2  0
  3  4  1  0
  3  5  1  0
  3  9  1  0
  3 10  1  0
  4  7  1  0
  5  8  1  0
  6  7  1  0
  6  8  1  0
 11 12  1  0
 12 13  1  0
 12 14  1  0
 13 15  2  0
 13 17  1  0
 14 16  2  0
 14 18  1  0
 15 19  1  0
 16 20  1  0
 17 21  2  0
 18 22  2  0
 19 23  2  0
 20 24  2  0
 21 23  1  0
 22 24  1  0
M  CHG  1   3   1
M  END
>  <PUBCHEM_COMPOUND_CID>  (1) 
1734

>  <PUBCHEM_CONFORMER_RMSD>  (1) 
0.8

>  <PUBCHEM_CONFORMER_DIVERSEORDER>  (1) 
1
38
17
22
65
67
31
13
54
19
48
46
68
2
7
43
36
28
26
4
55
32
58
30
57
59
8
21
11
3
69
16
63
56
40
61
33
60
66
70
14
39
34
45
51
64
29
5
25
44
20
12
24
47
35
27
53
49
62
18
37
6
15
41
42
52
50
10
9
23

>  <PUBCHEM_MMFF94_PARTIAL_CHARGES>  (1) 
32
1 -0.43
10 0.5
11 0.66
12 0.35
13 -0.14
14 -0.14
15 -0.15
16 -0.15
17 -0.15
18 -0.15
19 -0.15
2 -0.57
20 -0.15
21 -0.15
22 -0.15
23 -0.15
24 -0.15
3 -1.01
4 0.5
41 0.15
42 0.15
43 0.15
44 0.15
45 0.15
46 0.15
47 0.15
48 0.15
49 0.15
5 0.5
50 0.15
6 0.28
9 0.5

>  <PUBCHEM_EFFECTIVE_ROTOR_COUNT>  (1) 
6.2

>  <PUBCHEM_PHARMACOPHORE_FEATURES>  (1) 
5
1 2 acceptor
1 3 cation
6 13 15 17 19 21 23 rings
6 14 16 18 20 22 24 rings
6 3 4 5 6 7 8 rings

>  <PUBCHEM_HEAVY_ATOM_COUNT>  (1) 
24

>  <PUBCHEM_ATOM_DEF_STEREO_COUNT>  (1) 
0

>  <PUBCHEM_ATOM_UDEF_STEREO_COUNT>  (1) 
0

>  <PUBCHEM_BOND_DEF_STEREO_COUNT>  (1) 
0

>  <PUBCHEM_BOND_UDEF_STEREO_COUNT>  (1) 
0

>  <PUBCHEM_ISOTOPIC_ATOM_COUNT>  (1) 
0

>  <PUBCHEM_COMPONENT_COUNT>  (1) 
1

>  <PUBCHEM_CACTVS_TAUTO_COUNT>  (1) 
1

>  <PUBCHEM_CONFORMER_ID>  (1) 
000006C600000001

>  <PUBCHEM_MMFF94_ENERGY>  (1) 
74.1543

>  <PUBCHEM_FEATURE_SELFOVERLAP>  (1) 
25.373

>  <PUBCHEM_SHAPE_FINGERPRINT>  (1) 
10090160 65 18413392055139482144
10764073 3 16011803474916377850
10871710 139 15953328559875129828
11069576 57 17986655018300546967
11370993 70 18334576892522509912
11477941 20 17046590010383822526
11578080 2 17606973780499724212
121448 382 18056475286252820148
12160290 23 17619940656218151794
12553582 1 17689171014576335107
12788726 201 17616807078297054026
13052359 8 18124878121279118138
13083527 12 18194668277485212362
13257819 101 17603853533782287228
133893 2 18196674920459991226
13583140 156 17386570300833143816
13681431 1 18124317108202823594
13899415 180 17830724366392404678
13911987 19 18194695970975881533
14181834 199 18267303136375653630
14863182 85 17845638275387517090
15163728 17 17896058657232258124
15295992 7 9799422100950641099
15502722 9 18410580556462073982
15537594 2 17561081449784273711
15842332 3 17630621028544115481
15849732 13 18335128801212201080
16752209 62 17909829070229821546
17138139 8 17557679633205408695
17818456 19 17269762313136106937
1813 80 17838622153998576110
20197701 30 18339637953699476480
20567600 347 18340772632176957402
20600515 1 17121977994464815530
20645477 70 18339924818760273995
21033648 144 17895749724572296253
21033648 29 14346333728452842109
21054139 6 18129931403373396327
21524375 3 18267593579465371160
22182313 1 17822872904672363659
22950370 63 9799427632320067320
23114952 82 18335419020035671621
23419403 2 16083583987756097586
23557571 272 17168728395896723715
23559900 14 18335980865797421762
238 59 18410003356171122551
25147074 1 17773325543249085505
25222932 49 17988355001238216487
312425 83 18046035235138835853
352729 6 18194421097769268482
376196 1 18041271175024269297
4017518 198 18201723973341532046
404807 78 17830430033033255327
4280585 95 17979355257640895454
4409770 3 17834963344716292850
44802255 64 17898592010207622468
46194498 28 18263638477342509463
474 4 18408606971887392056
53917941 68 17980751955330176668
6138700 20 18267317443808801494
633830 44 17986139424513975704
6669772 16 18342186591957487174
81228 2 17189248830239924746
81539 233 18410014351203095082
9709674 26 18263646173834245513

>  <PUBCHEM_SHAPE_MULTIPOLES>  (1) 
477.19
9.25
4.05
1.62
8.26
3.86
-0.24
-6.2
-2.26
-5.59
-0.83
1.04
0.18
-0.05

>  <PUBCHEM_SHAPE_SELFOVERLAP>  (1) 
1011.709

>  <PUBCHEM_SHAPE_VOLUME>  (1) 
265.1

>  <PUBCHEM_COORDINATE_TYPE>  (1) 
2
5
10

$$$$
