17355
     RDKit          3D

 11 11  0  0  0  0  0  0  0  0999 V2000
    3.4353    0.0736    1.0864 O   0  0  0  0  0  0  0  0  0  0  0  0
    0.6586    0.0357    0.7543 C   0  0  0  0  0  0  0  0  0  0  0  0
    1.5806   -0.0110   -0.4628 C   0  0  0  0  0  0  0  0  0  0  0  0
   -0.7939    0.0159    0.3540 C   0  0  0  0  0  0  0  0  0  0  0  0
    3.0498   -0.0006   -0.0793 C   0  0  0  0  0  0  0  0  0  0  0  0
   -1.4544    1.2140    0.1238 C   0  0  0  0  0  0  0  0  0  0  0  0
   -1.4486   -1.2001    0.2215 C   0  0  0  0  0  0  0  0  0  0  0  0
   -2.7990    1.1958   -0.2470 C   0  0  0  0  0  0  0  0  0  0  0  0
   -2.7931   -1.2182   -0.1493 C   0  0  0  0  0  0  0  0  0  0  0  0
    4.0329   -0.0851   -1.2180 C   0  0  0  0  0  0  0  0  0  0  0  0
   -3.4683   -0.0202   -0.3836 C   0  0  0  0  0  0  0  0  0  0  0  0
  1  5  2  0
  2  3  1  0
  2  4  1  0
  3  5  1  0
  4  6  2  0
  4  7  1  0
  5 10  1  0
  6  8  1  0
  7  9  2  0
  8 11  2  0
  9 11  1  0
M  END
>  <PUBCHEM_COMPOUND_CID>  (1) 
17355

>  <PUBCHEM_CONFORMER_RMSD>  (1) 
0.6

>  <PUBCHEM_CONFORMER_DIVERSEORDER>  (1) 
1
10
4
3
6
5
8
11
7
2
12
9

>  <PUBCHEM_MMFF94_PARTIAL_CHARGES>  (1) 
16
1 -0.57
10 0.06
11 -0.15
16 0.15
17 0.15
18 0.15
19 0.15
2 0.14
23 0.15
3 0.06
4 -0.14
5 0.45
6 -0.15
7 -0.15
8 -0.15
9 -0.15

>  <PUBCHEM_EFFECTIVE_ROTOR_COUNT>  (1) 
3

>  <PUBCHEM_PHARMACOPHORE_FEATURES>  (1) 
2
1 1 acceptor
6 4 6 7 8 9 11 rings

>  <PUBCHEM_HEAVY_ATOM_COUNT>  (1) 
11

>  <PUBCHEM_ATOM_DEF_STEREO_COUNT>  (1) 
0

>  <PUBCHEM_ATOM_UDEF_STEREO_COUNT>  (1) 
0

>  <PUBCHEM_BOND_DEF_STEREO_COUNT>  (1) 
0

>  <PUBCHEM_BOND_UDEF_STEREO_COUNT>  (1) 
0

>  <PUBCHEM_ISOTOPIC_ATOM_COUNT>  (1) 
0

>  <PUBCHEM_COMPONENT_COUNT>  (1) 
1

>  <PUBCHEM_CACTVS_TAUTO_COUNT>  (1) 
3

>  <PUBCHEM_CONFORMER_ID>  (1) 
000043CB00000001

>  <PUBCHEM_MMFF94_ENERGY>  (1) 
20.5659

>  <PUBCHEM_FEATURE_SELFOVERLAP>  (1) 
10.148

>  <PUBCHEM_SHAPE_FINGERPRINT>  (1) 
12932764 1 18410576184454281874
13024252 1 17458347451065955963
13296908 3 17632578253656847138
14144814 61 17894630353104627848
14325111 11 18408321064462116986
14993402 34 17894348890880931031
15669948 3 18334573581139985714
15775835 57 17530686489340700836
18186145 218 18060139812605949240
1986462 14 18342179955293777174
200 152 15626221286457459284
20201158 50 17918276441333802046
20279233 1 17846777412499155734
20281407 28 18060422442765487850
20645476 183 17822295716317403779
20645477 70 16415200031771723308
21061003 4 17131840897085991187
22169311 21 17775562044283805830
22485316 2 16415476055997020054
23402539 116 18341037554407543501
23559900 14 18272367543300306778
3248919 1 17458063768112181962
528716 315 18334862735660373599
57812782 119 18060698390398636084
77492 1 17603578621367807440

>  <PUBCHEM_SHAPE_MULTIPOLES>  (1) 
220.51
7.08
1.15
0.94
5.05
0.01
0.01
0.07
1.56
-1.13
0.02
0.75
0
0.08

>  <PUBCHEM_SHAPE_SELFOVERLAP>  (1) 
445.926

>  <PUBCHEM_SHAPE_VOLUME>  (1) 
129

>  <PUBCHEM_COORDINATE_TYPE>  (1) 
2
5
10

$$$$
