17367
     RDKit          3D

 12 12  0  0  0  0  0  0  0  0999 V2000
   -4.5502   -0.0028   -0.0951 O   0  0  0  0  0  0  0  0  0  0  0  0
    4.5502   -0.0029    0.0958 O   0  0  0  0  0  0  0  0  0  0  0  0
   -2.2818   -0.0005    0.5108 N   0  0  0  0  0  0  0  0  0  0  0  0
    2.2819   -0.0005   -0.5108 N   0  0  0  0  0  0  0  0  0  0  0  0
   -1.3521    0.0019   -0.6271 C   0  0  0  0  0  0  0  0  0  0  0  0
    1.3519    0.0016    0.6269 C   0  0  0  0  0  0  0  0  0  0  0  0
   -0.4999    1.2695   -0.5795 C   0  0  0  0  0  0  0  0  0  0  0  0
   -0.5006   -1.2661   -0.5792 C   0  0  0  0  0  0  0  0  0  0  0  0
    0.5000    1.2695    0.5792 C   0  0  0  0  0  0  0  0  0  0  0  0
    0.5004   -1.2662    0.5787 C   0  0  0  0  0  0  0  0  0  0  0  0
   -3.4126   -0.0018    0.2042 C   0  0  0  0  0  0  0  0  0  0  0  0
    3.4127   -0.0018   -0.2038 C   0  0  0  0  0  0  0  0  0  0  0  0
  1 11  2  0
  2 12  2  0
  3  5  1  0
  3 11  2  0
  4  6  1  0
  4 12  2  0
  5  7  1  0
  5  8  1  0
  6  9  1  0
  6 10  1  0
  7  9  1  0
  8 10  1  0
M  END
>  <PUBCHEM_COMPOUND_CID>  (1) 
17367

>  <PUBCHEM_CONFORMER_RMSD>  (1) 
0.6

>  <PUBCHEM_CONFORMER_DIVERSEORDER>  (1) 
1
19
25
12
8
18
23
24
14
9
20
17
16
11
2
10
26
13
7
6
28
15
3
27
5
4
21
22

>  <PUBCHEM_MMFF94_PARTIAL_CHARGES>  (1) 
8
1 -0.49
11 0.79
12 0.79
2 -0.49
3 -0.55
4 -0.55
5 0.25
6 0.25

>  <PUBCHEM_EFFECTIVE_ROTOR_COUNT>  (1) 
3.2

>  <PUBCHEM_PHARMACOPHORE_FEATURES>  (1) 
3
1 3 acceptor
1 4 acceptor
6 5 6 7 8 9 10 rings

>  <PUBCHEM_HEAVY_ATOM_COUNT>  (1) 
12

>  <PUBCHEM_ATOM_DEF_STEREO_COUNT>  (1) 
0

>  <PUBCHEM_ATOM_UDEF_STEREO_COUNT>  (1) 
0

>  <PUBCHEM_BOND_DEF_STEREO_COUNT>  (1) 
0

>  <PUBCHEM_BOND_UDEF_STEREO_COUNT>  (1) 
0

>  <PUBCHEM_ISOTOPIC_ATOM_COUNT>  (1) 
0

>  <PUBCHEM_COMPONENT_COUNT>  (1) 
1

>  <PUBCHEM_CACTVS_TAUTO_COUNT>  (1) 
1

>  <PUBCHEM_CONFORMER_ID>  (1) 
000043D700000001

>  <PUBCHEM_MMFF94_ENERGY>  (1) 
10.6945

>  <PUBCHEM_FEATURE_SELFOVERLAP>  (1) 
15.223

>  <PUBCHEM_SHAPE_FINGERPRINT>  (1) 
10219947 1 18409453583193085581
14943859 89 18342174487974664474
14993402 34 18343861130432546567
16945 1 18338781373415817222
18175812 5 15647344073052878818
18511873 20 17846780736555877609
21293036 1 18411699889384929100
21501502 16 18045775685532326769
23235685 24 18410851062081728646
23402539 116 18272643546029766180
23402655 69 18266160757439075477
366044 4 18343582953685153790
528886 8 17988921176015523126
53655031 270 18341054029870435825

>  <PUBCHEM_SHAPE_MULTIPOLES>  (1) 
225.25
6.56
1.17
0.83
0
0
0
-0.01
0
0
0
0
0
0

>  <PUBCHEM_SHAPE_SELFOVERLAP>  (1) 
454.299

>  <PUBCHEM_SHAPE_VOLUME>  (1) 
127.9

>  <PUBCHEM_COORDINATE_TYPE>  (1) 
2
5
10

$$$$
