17369
     RDKit          3D

  9  9  0  0  0  0  0  0  0  0999 V2000
    1.9248    1.3937   -0.2430 O   0  0  0  0  0  0  0  0  0  0  0  0
    0.8884   -0.6507    0.1303 N   0  0  0  0  0  0  0  0  0  0  0  0
   -2.2634   -0.0329   -0.1252 C   0  0  0  0  0  0  0  0  0  0  0  0
   -1.4633   -1.3223   -0.2974 C   0  0  0  0  0  0  0  0  0  0  0  0
   -1.4745    1.2439   -0.4053 C   0  0  0  0  0  0  0  0  0  0  0  0
   -0.2573   -1.4119    0.6315 C   0  0  0  0  0  0  0  0  0  0  0  0
   -0.3142    1.4660    0.5587 C   0  0  0  0  0  0  0  0  0  0  0  0
    0.9410    0.7409    0.1139 C   0  0  0  0  0  0  0  0  0  0  0  0
    2.0185   -1.4266   -0.3633 C   0  0  0  0  0  0  0  0  0  0  0  0
  1  8  2  0
  2  6  1  0
  2  8  1  0
  2  9  1  0
  3  4  1  0
  3  5  1  0
  4  6  1  0
  5  7  1  0
  7  8  1  0
M  END
>  <PUBCHEM_COMPOUND_CID>  (1) 
17369

>  <PUBCHEM_CONFORMER_RMSD>  (1) 
0.4

>  <PUBCHEM_CONFORMER_DIVERSEORDER>  (1) 
1
2
4
3

>  <PUBCHEM_MMFF94_PARTIAL_CHARGES>  (1) 
6
1 -0.57
2 -0.66
6 0.3
7 0.06
8 0.57
9 0.3

>  <PUBCHEM_EFFECTIVE_ROTOR_COUNT>  (1) 
1.2

>  <PUBCHEM_PHARMACOPHORE_FEATURES>  (1) 
2
1 1 acceptor
7 2 3 4 5 6 7 8 rings

>  <PUBCHEM_HEAVY_ATOM_COUNT>  (1) 
9

>  <PUBCHEM_ATOM_DEF_STEREO_COUNT>  (1) 
0

>  <PUBCHEM_ATOM_UDEF_STEREO_COUNT>  (1) 
0

>  <PUBCHEM_BOND_DEF_STEREO_COUNT>  (1) 
0

>  <PUBCHEM_BOND_UDEF_STEREO_COUNT>  (1) 
0

>  <PUBCHEM_ISOTOPIC_ATOM_COUNT>  (1) 
0

>  <PUBCHEM_COMPONENT_COUNT>  (1) 
1

>  <PUBCHEM_CACTVS_TAUTO_COUNT>  (1) 
1

>  <PUBCHEM_CONFORMER_ID>  (1) 
000043D900000001

>  <PUBCHEM_MMFF94_ENERGY>  (1) 
13.0898

>  <PUBCHEM_FEATURE_SELFOVERLAP>  (1) 
10.148

>  <PUBCHEM_SHAPE_FINGERPRINT>  (1) 
12897270 3 18266457800727728285
16945 1 18410854352037155487
18185500 45 17760642573237369091
21040471 1 18337383950098271297
23235685 24 18118676853943907229
23552423 10 18334575741476705214
241688 4 18337107852383692129
2748010 2 18409727365751493871
5084963 1 18271239409467177307
66348 1 17762613993259316603

>  <PUBCHEM_SHAPE_MULTIPOLES>  (1) 
174.37
2.7
1.97
0.74
0.15
0.07
0.04
-0.26
-0.49
0.22
0.05
-0.04
-0.03
0.03

>  <PUBCHEM_SHAPE_SELFOVERLAP>  (1) 
336.711

>  <PUBCHEM_SHAPE_VOLUME>  (1) 
105.7

>  <PUBCHEM_COORDINATE_TYPE>  (1) 
2
5
10

$$$$
