17374
     RDKit          3D

 12 12  0  0  0  0  0  0  0  0999 V2000
    4.7311    0.5064    0.2378 Br  0  0  0  0  0  0  0  0  0  0  0  0
   -4.5859    0.0213    0.9854 Cl  0  0  0  0  0  0  0  0  0  0  0  0
   -2.1976    1.4169   -0.2829 O   0  0  0  0  0  0  0  0  0  0  0  0
   -1.2027   -0.7150   -0.2115 N   0  0  0  0  0  0  0  0  0  0  0  0
    0.1599   -0.4345   -0.1083 C   0  0  0  0  0  0  0  0  0  0  0  0
    1.0827   -1.4776   -0.0306 C   0  0  0  0  0  0  0  0  0  0  0  0
    0.5995    0.8891   -0.0830 C   0  0  0  0  0  0  0  0  0  0  0  0
    2.4451   -1.1971    0.0727 C   0  0  0  0  0  0  0  0  0  0  0  0
    1.9620    1.1697    0.0202 C   0  0  0  0  0  0  0  0  0  0  0  0
    2.8849    0.1265    0.0980 C   0  0  0  0  0  0  0  0  0  0  0  0
   -2.2689    0.1908   -0.2995 C   0  0  0  0  0  0  0  0  0  0  0  0
   -3.6103   -0.4964   -0.3984 C   0  0  0  0  0  0  0  0  0  0  0  0
  1 10  1  0
  2 12  1  0
  3 11  2  0
  4  5  1  0
  4 11  1  0
  5  6  2  0
  5  7  1  0
  6  8  1  0
  7  9  2  0
  8 10  2  0
  9 10  1  0
 11 12  1  0
M  END
>  <PUBCHEM_COMPOUND_CID>  (1) 
17374

>  <PUBCHEM_CONFORMER_RMSD>  (1) 
0.6

>  <PUBCHEM_CONFORMER_DIVERSEORDER>  (1) 
1
4
3
5
2

>  <PUBCHEM_MMFF94_PARTIAL_CHARGES>  (1) 
17
1 -0.11
10 0.11
11 0.57
12 0.35
13 0.15
14 0.15
15 0.37
16 0.15
17 0.15
2 -0.29
3 -0.57
4 -0.55
5 0.12
6 -0.15
7 -0.15
8 -0.15
9 -0.15

>  <PUBCHEM_EFFECTIVE_ROTOR_COUNT>  (1) 
3

>  <PUBCHEM_PHARMACOPHORE_FEATURES>  (1) 
4
1 1 hydrophobe
1 3 acceptor
1 4 donor
6 5 6 7 8 9 10 rings

>  <PUBCHEM_HEAVY_ATOM_COUNT>  (1) 
12

>  <PUBCHEM_ATOM_DEF_STEREO_COUNT>  (1) 
0

>  <PUBCHEM_ATOM_UDEF_STEREO_COUNT>  (1) 
0

>  <PUBCHEM_BOND_DEF_STEREO_COUNT>  (1) 
0

>  <PUBCHEM_BOND_UDEF_STEREO_COUNT>  (1) 
0

>  <PUBCHEM_ISOTOPIC_ATOM_COUNT>  (1) 
0

>  <PUBCHEM_COMPONENT_COUNT>  (1) 
1

>  <PUBCHEM_CACTVS_TAUTO_COUNT>  (1) 
2

>  <PUBCHEM_CONFORMER_ID>  (1) 
000043DE00000001

>  <PUBCHEM_MMFF94_ENERGY>  (1) 
29.7346

>  <PUBCHEM_FEATURE_SELFOVERLAP>  (1) 
20.297

>  <PUBCHEM_SHAPE_FINGERPRINT>  (1) 
11062470 55 14692572134630174536
11471102 20 18411695474158561935
12032990 46 18337393738534538670
12251169 10 18334575767267484523
12500047 106 13973961008697830381
12932764 1 17417513761862452853
13380535 76 18408602586937123658
14144814 61 18410853231161512987
14252887 29 18410581656142688826
14325111 11 18410289185896524692
15775835 57 18202283627830540607
17844478 74 18114183008334959173
18186145 218 17632289090562251712
18342897 14 18059859462905505865
18522853 276 18413107255747412001
200 152 18271794736307238199
20279233 1 17748828514508437179
20645477 70 18266166254443495119
20671657 1 17984419904144863377
20871998 22 18055073151636173726
21119208 17 9655577413423694065
23402539 116 17894904161680863647
23402655 69 18341602686336265557
23557571 272 16732974302472943797
26918003 58 17894633673562669337
449060 50 18335139812637968076
5104073 3 18336262323557314457
53812653 166 18342450482952686352

>  <PUBCHEM_SHAPE_MULTIPOLES>  (1) 
243.92
8.55
1.33
0.74
2.57
0.08
0.09
-1.01
1.72
-0.44
-0.05
0.39
-0.02
-0.01

>  <PUBCHEM_SHAPE_SELFOVERLAP>  (1) 
477.237

>  <PUBCHEM_SHAPE_VOLUME>  (1) 
150.8

>  <PUBCHEM_COORDINATE_TYPE>  (1) 
2
5
10

$$$$
