17376
     RDKit          3D

 12 12  0  0  0  0  0  0  0  0999 V2000
    0.7663    2.1355   -0.5904 O   0  0  0  0  0  0  0  0  0  0  0  0
    0.0815   -2.5095   -0.1449 O   0  0  0  0  0  0  0  0  0  0  0  0
   -3.3115    0.4655    0.6951 O   0  0  0  0  0  0  0  0  0  0  0  0
   -1.2888    1.2894   -0.0212 N   0  0  0  0  0  0  0  0  0  0  0  0
   -1.6303   -1.0210    0.1981 N   0  0  0  0  0  0  0  0  0  0  0  0
    0.4142   -0.2352   -0.8860 C   0  0  0  0  0  0  0  0  0  0  0  0
    1.9187   -0.4419   -0.7210 C   0  0  0  0  0  0  0  0  0  0  0  0
    0.0157    1.1677   -0.4726 C   0  0  0  0  0  0  0  0  0  0  0  0
   -0.3579   -1.3633   -0.2309 C   0  0  0  0  0  0  0  0  0  0  0  0
   -2.1617    0.2585    0.3034 C   0  0  0  0  0  0  0  0  0  0  0  0
    2.3280   -0.3162    0.7130 C   0  0  0  0  0  0  0  0  0  0  0  0
    3.2257    0.5706    1.1573 C   0  0  0  0  0  0  0  0  0  0  0  0
  1  8  2  0
  2  9  2  0
  3 10  2  0
  4  8  1  0
  4 10  1  0
  5  9  1  0
  5 10  1  0
  6  7  1  0
  6  8  1  0
  6  9  1  0
  7 11  1  0
 11 12  2  0
M  END
>  <PUBCHEM_COMPOUND_CID>  (1) 
17376

>  <PUBCHEM_CONFORMER_RMSD>  (1) 
0.6

>  <PUBCHEM_CONFORMER_DIVERSEORDER>  (1) 
1
2
5
3
4

>  <PUBCHEM_MMFF94_PARTIAL_CHARGES>  (1) 
17
1 -0.57
10 0.69
11 -0.29
12 -0.3
16 0.37
17 0.37
18 0.15
19 0.15
2 -0.57
20 0.15
3 -0.57
4 -0.49
5 -0.49
6 0.12
7 0.14
8 0.57
9 0.57

>  <PUBCHEM_EFFECTIVE_ROTOR_COUNT>  (1) 
2.6

>  <PUBCHEM_PHARMACOPHORE_FEATURES>  (1) 
8
1 1 acceptor
1 12 hydrophobe
1 2 acceptor
1 3 acceptor
1 4 donor
1 5 donor
1 6 anion
6 4 5 6 8 9 10 rings

>  <PUBCHEM_HEAVY_ATOM_COUNT>  (1) 
12

>  <PUBCHEM_ATOM_DEF_STEREO_COUNT>  (1) 
0

>  <PUBCHEM_ATOM_UDEF_STEREO_COUNT>  (1) 
0

>  <PUBCHEM_BOND_DEF_STEREO_COUNT>  (1) 
0

>  <PUBCHEM_BOND_UDEF_STEREO_COUNT>  (1) 
0

>  <PUBCHEM_ISOTOPIC_ATOM_COUNT>  (1) 
0

>  <PUBCHEM_COMPONENT_COUNT>  (1) 
1

>  <PUBCHEM_CACTVS_TAUTO_COUNT>  (1) 
5

>  <PUBCHEM_CONFORMER_ID>  (1) 
000043E000000001

>  <PUBCHEM_MMFF94_ENERGY>  (1) 
23.7657

>  <PUBCHEM_FEATURE_SELFOVERLAP>  (1) 
40.637

>  <PUBCHEM_SHAPE_FINGERPRINT>  (1) 
10219947 1 18409168779395252425
10857977 72 18335704909874707105
12382932 28 18339356465526796648
13839132 238 17632584829046107672
15310529 11 16443069421340577972
161256 15 17980771441027073678
16945 1 18335707126246500663
20645464 45 18131626794764205154
20653085 51 14620218823778308936
20653091 64 17753050784797451874
21040471 1 18339936964437105463
23552423 10 17539132065818693548
241688 4 17614864914990316379
27216 239 16911683601240402432
2748010 2 17903928759911281557
5084963 1 18130243569996408767
528862 383 17968949732623705876
54338 74 18121472890485841998

>  <PUBCHEM_SHAPE_MULTIPOLES>  (1) 
219.38
3.94
1.88
0.96
0.15
0.4
-0.03
-0.79
-1.88
-0.1
0.28
0.42
-0.11
0.07

>  <PUBCHEM_SHAPE_SELFOVERLAP>  (1) 
449.036

>  <PUBCHEM_SHAPE_VOLUME>  (1) 
123.6

>  <PUBCHEM_COORDINATE_TYPE>  (1) 
2
5
10

$$$$
