17378
     RDKit          3D

  6  5  0  0  0  0  0  0  0  0999 V2000
    2.7573   -0.3003    0.5648 Cl  0  0  0  0  0  0  0  0  0  0  0  0
   -2.3490   -1.0565    0.1801 Cl  0  0  0  0  0  0  0  0  0  0  0  0
   -1.1954    1.6538    0.1962 Cl  0  0  0  0  0  0  0  0  0  0  0  0
    1.5029    0.2702   -0.5576 C   0  0  0  0  0  0  0  0  0  0  0  0
    0.2482   -0.5193   -0.3558 C   0  0  0  0  0  0  0  0  0  0  0  0
   -0.9640   -0.0479   -0.0278 C   0  0  0  0  0  0  0  0  0  0  0  0
  1  4  1  0
  2  6  1  0
  3  6  1  0
  4  5  1  0
  5  6  2  3
M  END
>  <PUBCHEM_COMPOUND_CID>  (1) 
17378

>  <PUBCHEM_CONFORMER_RMSD>  (1) 
0.4

>  <PUBCHEM_CONFORMER_DIVERSEORDER>  (1) 
1
2
5
3
4

>  <PUBCHEM_MMFF94_PARTIAL_CHARGES>  (1) 
7
1 -0.29
2 -0.14
3 -0.14
4 0.43
5 -0.29
6 0.28
9 0.15

>  <PUBCHEM_EFFECTIVE_ROTOR_COUNT>  (1) 
1

>  <PUBCHEM_PHARMACOPHORE_FEATURES>  (1) 
0

>  <PUBCHEM_HEAVY_ATOM_COUNT>  (1) 
6

>  <PUBCHEM_ATOM_DEF_STEREO_COUNT>  (1) 
0

>  <PUBCHEM_ATOM_UDEF_STEREO_COUNT>  (1) 
0

>  <PUBCHEM_BOND_DEF_STEREO_COUNT>  (1) 
0

>  <PUBCHEM_BOND_UDEF_STEREO_COUNT>  (1) 
0

>  <PUBCHEM_ISOTOPIC_ATOM_COUNT>  (1) 
0

>  <PUBCHEM_COMPONENT_COUNT>  (1) 
1

>  <PUBCHEM_CACTVS_TAUTO_COUNT>  (1) 
1

>  <PUBCHEM_CONFORMER_ID>  (1) 
000043E200000001

>  <PUBCHEM_MMFF94_ENERGY>  (1) 
3.1425

>  <PUBCHEM_FEATURE_SELFOVERLAP>  (1) 
0

>  <PUBCHEM_SHAPE_FINGERPRINT>  (1) 
10857977 72 18201154463711740363
16714656 1 18272939357428079583
20096714 4 18052547564404279085
21040471 1 17979367364731118565
23552449 1 18341612590145981185
24536 1 18339083691990180444
29004967 10 18269283515725773843
5460574 1 9583526416666652782

>  <PUBCHEM_SHAPE_MULTIPOLES>  (1) 
129.09
3.68
1.38
0.77
1.6
0.55
0.01
-0.92
0.72
-0.95
0.12
0.2
-0.01
-0.1

>  <PUBCHEM_SHAPE_SELFOVERLAP>  (1) 
207.778

>  <PUBCHEM_SHAPE_VOLUME>  (1) 
89.5

>  <PUBCHEM_COORDINATE_TYPE>  (1) 
2
5
10

$$$$
