17371
     RDKit          3D

 17 18  0  0  0  0  0  0  0  0999 V2000
   -5.0431   -1.3808    0.7840 F   0  0  0  0  0  0  0  0  0  0  0  0
    3.4146   -0.0813   -0.0357 N   0  0  0  0  0  0  0  0  0  0  0  0
   -1.9595    2.2053   -0.3795 N   0  0  0  0  0  0  0  0  0  0  0  0
    2.0612    0.3602    0.2834 C   0  0  0  0  0  0  0  0  0  0  0  0
    1.1613    0.4027   -0.9653 C   0  0  0  0  0  0  0  0  0  0  0  0
   -0.2071    0.8749   -0.6734 C   0  0  0  0  0  0  0  0  0  0  0  0
   -1.3210    0.0689   -0.3067 C   0  0  0  0  0  0  0  0  0  0  0  0
    3.3943   -1.4259   -0.6139 C   0  0  0  0  0  0  0  0  0  0  0  0
    4.2600   -0.0545    1.1588 C   0  0  0  0  0  0  0  0  0  0  0  0
   -2.4075    0.9281   -0.1281 C   0  0  0  0  0  0  0  0  0  0  0  0
   -0.6311    2.1834   -0.7101 C   0  0  0  0  0  0  0  0  0  0  0  0
   -1.5099   -1.3134   -0.1092 C   0  0  0  0  0  0  0  0  0  0  0  0
    4.7834   -1.8793   -1.0131 C   0  0  0  0  0  0  0  0  0  0  0  0
    4.2999    1.3267    1.7794 C   0  0  0  0  0  0  0  0  0  0  0  0
   -3.6783    0.4721    0.2399 C   0  0  0  0  0  0  0  0  0  0  0  0
   -2.7756   -1.7838    0.2591 C   0  0  0  0  0  0  0  0  0  0  0  0
   -3.8417   -0.9031    0.4304 C   0  0  0  0  0  0  0  0  0  0  0  0
  1 17  1  0
  2  4  1  0
  2  8  1  0
  2  9  1  0
  3 10  1  0
  3 11  1  0
  4  5  1  0
  5  6  1  0
  6  7  1  0
  6 11  2  0
  7 10  2  0
  7 12  1  0
  8 13  1  0
  9 14  1  0
 10 15  1  0
 12 16  2  0
 15 17  2  0
 16 17  1  0
M  END
>  <PUBCHEM_COMPOUND_CID>  (1) 
17371

>  <PUBCHEM_CONFORMER_RMSD>  (1) 
0.6

>  <PUBCHEM_CONFORMER_DIVERSEORDER>  (1) 
1
48
31
25
19
43
6
23
5
49
44
28
26
8
29
40
30
32
37
36
27
47
7
46
41
14
21
34
13
45
33
42
39
9
22
20
2
3
4
16
38
35
24
12
15
11
18
17
10

>  <PUBCHEM_MMFF94_PARTIAL_CHARGES>  (1) 
19
1 -0.19
10 -0.15
11 -0.3
12 -0.15
15 -0.15
16 -0.15
17 0.19
2 -0.81
26 0.15
27 0.27
28 0.15
3 0.03
35 0.15
36 0.15
4 0.27
5 0.18
6 -0.18
8 0.27
9 0.27

>  <PUBCHEM_EFFECTIVE_ROTOR_COUNT>  (1) 
5

>  <PUBCHEM_PHARMACOPHORE_FEATURES>  (1) 
5
1 2 cation
1 3 cation
1 3 donor
5 3 6 7 10 11 rings
6 7 10 12 15 16 17 rings

>  <PUBCHEM_HEAVY_ATOM_COUNT>  (1) 
17

>  <PUBCHEM_ATOM_DEF_STEREO_COUNT>  (1) 
0

>  <PUBCHEM_ATOM_UDEF_STEREO_COUNT>  (1) 
0

>  <PUBCHEM_BOND_DEF_STEREO_COUNT>  (1) 
0

>  <PUBCHEM_BOND_UDEF_STEREO_COUNT>  (1) 
0

>  <PUBCHEM_ISOTOPIC_ATOM_COUNT>  (1) 
0

>  <PUBCHEM_COMPONENT_COUNT>  (1) 
1

>  <PUBCHEM_CACTVS_TAUTO_COUNT>  (1) 
1

>  <PUBCHEM_CONFORMER_ID>  (1) 
000043DB00000001

>  <PUBCHEM_MMFF94_ENERGY>  (1) 
22.4011

>  <PUBCHEM_FEATURE_SELFOVERLAP>  (1) 
25.463

>  <PUBCHEM_SHAPE_FINGERPRINT>  (1) 
11132069 177 18408319986478092617
11370993 144 17989211404045678712
11543360 7 13407082538768966643
11552529 35 17130980043779942670
11578080 2 16879044486595390900
12032990 46 18335427871868121815
12251169 10 18201718513087189908
12507560 40 18273211980767330404
12553582 1 17967254195414667002
12892183 10 17917717919707785075
13675066 3 18341894090860437925
14178342 30 18042391449045634792
14252887 29 18411420635296726794
14289901 80 17703777142056471280
15342168 16 15625942100862192104
15880784 105 17632293497172680927
15885798 251 18260833730374977541
17804303 29 18411427180452307053
1813 80 17531248382705813357
19107657 162 18410290294377901710
19141452 34 18272373105083060311
193927 3 17895207631185194755
19784866 240 16009015173521022082
200 152 14707201102599516568
20510252 161 18341610378311664081
20671657 53 16660639695591871341
21065199 12 18272083886116427440
21065201 7 18188767232938416752
21267235 1 18261689124746899283
21650355 55 18335132111835907445
22854114 59 17846495950238392528
22943178 12 18270109120457348500
22959321 94 18114175358734363418
2297311 6 18339092514216938468
23366157 5 17462008961835806397
23402539 116 18342451552716073823
23532345 42 18334576858157451404
23557571 272 18408318887394038304
23559900 14 18410576150416530852
2838139 119 15409771346537442921
3004659 81 17749114417163835663
3009799 131 18263905766332385191
43471831 8 18041838402933851171
474 4 14045745932510472068
5104073 3 18341891836419359128
6049 1 18270959047340943276
90316 7 18187363190665278925
9709674 26 18410574011264490590

>  <PUBCHEM_SHAPE_MULTIPOLES>  (1) 
332.62
9.94
2.14
1.14
4.57
0.13
0.24
-3.99
2.95
-0.2
-0.26
1.2
0.2
1.98

>  <PUBCHEM_SHAPE_SELFOVERLAP>  (1) 
696.484

>  <PUBCHEM_SHAPE_VOLUME>  (1) 
191.9

>  <PUBCHEM_COORDINATE_TYPE>  (1) 
2
5
10

$$$$
