17380
     RDKit          3D

 11 10  0  0  1  0  0  0  0  0999 V2000
   -1.0655   -0.8138   -0.5531 O   0  0  0  0  0  0  0  0  0  0  0  0
    1.0773   -0.8568    0.5159 O   0  0  0  0  0  0  0  0  0  0  0  0
   -1.6776   -0.0073    0.4495 C   0  0  0  0  0  0  0  0  0  0  0  0
    1.6628    0.0126   -0.4443 C   0  0  0  0  0  0  0  0  0  0  0  0
   -2.7743    0.8445   -0.1929 C   0  0  0  0  0  0  0  0  0  0  0  0
    2.7857    0.8108    0.2215 C   0  0  0  0  0  0  0  0  0  0  0  0
   -0.0059   -1.6109   -0.0281 C   0  0  0  0  0  0  0  0  0  0  0  0
   -2.2473   -0.9153    1.5311 C   0  0  0  0  0  0  0  0  0  0  0  0
    2.1914   -0.8202   -1.6043 C   0  0  0  0  0  0  0  0  0  0  0  0
   -2.2364    1.7338   -1.3063 C   0  0  0  0  0  0  0  0  0  0  0  0
    2.2897    1.6225    1.4110 C   0  0  0  0  0  0  0  0  0  0  0  0
  1  3  1  0
  1  7  1  0
  2  4  1  0
  2  7  1  0
  3  5  1  0
  3  8  1  0
  4  6  1  0
  4  9  1  0
  5 10  1  0
  6 11  1  0
M  END
>  <PUBCHEM_COMPOUND_CID>  (1) 
17380

>  <PUBCHEM_CONFORMER_RMSD>  (1) 
0.6

>  <PUBCHEM_CONFORMER_DIVERSEORDER>  (1) 
4
74
22
157
214
86
34
257
24
270
233
184
91
129
189
25
63
38
138
172
79
273
1
202
93
208
31
44
263
173
268
95
198
272
60
234
118
262
23
249
274
153
15
88
26
199
276
81
231
32
78
164
82
260
152
275
105
169
171
49
213
174
97
265
269
9
271
100
92
236
163
179
166
253
99
252
73
247
191
75
248
242
135
158
232
37
10
7
45
85
227
19
64
114
241
223
212
148
130
80
244
155
6
267
39
221
196
124
56
195
69
264
54
222
147
67
220
219
230
47
146
167
77
203
162
71
240
41
18
127
192
145
62
229
201
205
108
61
181
259
87
161
177
136
50
51
246
20
139
176
178
251
119
215
110
106
266
137
225
149
190
57
113
103
55
204
101
182
140
194
94
70
40
28
21
186
256
180
35
156
3
237
168
121
90
126
206
255
46
89
8
134
72
160
217
30
250
141
27
243
197
115
224
116
29
235
159
13
216
170
123
11
102
238
111
68
98
258
185
245
128
84
112
193
254
16
261
188
151
117
211
125
58
183
42
104
187
120
228
65
150
165
14
239
52
200
133
210
226
107
2
17
131
53
143
122
96
207
5
109
48
76
59
175
43
132
142
36
154
144
66
209
83
218
33
12

>  <PUBCHEM_MMFF94_PARTIAL_CHARGES>  (1) 
5
1 -0.56
2 -0.56
3 0.28
4 0.28
7 0.56

>  <PUBCHEM_EFFECTIVE_ROTOR_COUNT>  (1) 
6

>  <PUBCHEM_PHARMACOPHORE_FEATURES>  (1) 
4
1 1 acceptor
1 10 hydrophobe
1 11 hydrophobe
1 2 acceptor

>  <PUBCHEM_HEAVY_ATOM_COUNT>  (1) 
11

>  <PUBCHEM_ATOM_DEF_STEREO_COUNT>  (1) 
0

>  <PUBCHEM_ATOM_UDEF_STEREO_COUNT>  (1) 
2

>  <PUBCHEM_BOND_DEF_STEREO_COUNT>  (1) 
0

>  <PUBCHEM_BOND_UDEF_STEREO_COUNT>  (1) 
0

>  <PUBCHEM_ISOTOPIC_ATOM_COUNT>  (1) 
0

>  <PUBCHEM_COMPONENT_COUNT>  (1) 
1

>  <PUBCHEM_CACTVS_TAUTO_COUNT>  (1) 
1

>  <PUBCHEM_CONFORMER_ID>  (1) 
000043E400000004

>  <PUBCHEM_MMFF94_ENERGY>  (1) 
18.5802

>  <PUBCHEM_FEATURE_SELFOVERLAP>  (1) 
20.33

>  <PUBCHEM_SHAPE_FINGERPRINT>  (1) 
10857977 72 17969236688205260227
124424 183 18338226081979909058
12932741 1 18411710858815929095
12932764 1 18411429409498544670
13380536 127 17096099081044124403
13764800 53 18041289794018291817
14390081 3 18336262358222890197
15775835 57 18411133636570132041
20511035 2 17969494918523825470
20653085 51 17917150473203367737
21028194 46 18188769440330008903
21947302 44 18131627889775208848
230 275 18261106348823279332
23211744 41 18270115846064975538
23598291 2 15768676177731738116
23598294 1 16951715603936796041
25610 171 18040721397961936721
305870 269 18260817186119002482
3248919 1 17095243635265152507
5084963 1 18191612854440050887
8050 44 18340755005499487761
81228 2 17905622338199079955

>  <PUBCHEM_SHAPE_MULTIPOLES>  (1) 
214.64
4.7
1.76
1.51
0.02
0.3
0
1.72
0.11
-0.12
-0.01
0.11
0.16
1.61

>  <PUBCHEM_SHAPE_SELFOVERLAP>  (1) 
388.085

>  <PUBCHEM_SHAPE_VOLUME>  (1) 
138.7

>  <PUBCHEM_COORDINATE_TYPE>  (1) 
2
5
10

$$$$
