17386
     RDKit          3D

 16 15  0  0  0  0  0  0  0  0999 V2000
    9.4950   -0.3208    0.1200 N   0  0  0  0  0  0  0  0  0  0  0  0
   -0.6381   -0.3996   -0.1544 C   0  0  0  0  0  0  0  0  0  0  0  0
    0.6534    0.4262   -0.1348 C   0  0  0  0  0  0  0  0  0  0  0  0
   -1.9436    0.4037   -0.1763 C   0  0  0  0  0  0  0  0  0  0  0  0
    1.9231   -0.4275   -0.0892 C   0  0  0  0  0  0  0  0  0  0  0  0
   -3.1995   -0.4705   -0.1461 C   0  0  0  0  0  0  0  0  0  0  0  0
    3.2127    0.4015   -0.0587 C   0  0  0  0  0  0  0  0  0  0  0  0
   -4.4725    0.3774   -0.0895 C   0  0  0  0  0  0  0  0  0  0  0  0
    4.5164   -0.3981    0.0469 C   0  0  0  0  0  0  0  0  0  0  0  0
   -5.7526   -0.4629   -0.0236 C   0  0  0  0  0  0  0  0  0  0  0  0
    5.7723    0.4761    0.0486 C   0  0  0  0  0  0  0  0  0  0  0  0
   -7.0294    0.3769    0.0603 C   0  0  0  0  0  0  0  0  0  0  0  0
    7.0440   -0.3732    0.1168 C   0  0  0  0  0  0  0  0  0  0  0  0
   -8.3015   -0.4706    0.1467 C   0  0  0  0  0  0  0  0  0  0  0  0
    8.2939    0.5047    0.0773 C   0  0  0  0  0  0  0  0  0  0  0  0
   -9.5737    0.3568    0.2560 C   0  0  0  0  0  0  0  0  0  0  0  0
  1 15  1  0
  2  3  1  0
  2  4  1  0
  3  5  1  0
  4  6  1  0
  5  7  1  0
  6  8  1  0
  7  9  1  0
  8 10  1  0
  9 11  1  0
 10 12  1  0
 11 13  1  0
 12 14  1  0
 13 15  1  0
 14 16  1  0
M  END
>  <PUBCHEM_COMPOUND_CID>  (1) 
17386

>  <PUBCHEM_CONFORMER_RMSD>  (1) 
1.4

>  <PUBCHEM_CONFORMER_DIVERSEORDER>  (1) 
1
21
4
16
33
17
8
23
2
5
19
27
15
6
24
18
3
30
20
7
37
26
29
36
32
12
11
39
34
22
13
10
31
25
9
28
38
35
14

>  <PUBCHEM_MMFF94_PARTIAL_CHARGES>  (1) 
4
1 -0.99
15 0.27
48 0.36
49 0.36

>  <PUBCHEM_EFFECTIVE_ROTOR_COUNT>  (1) 
13

>  <PUBCHEM_PHARMACOPHORE_FEATURES>  (1) 
3
1 1 cation
1 1 donor
1 16 hydrophobe

>  <PUBCHEM_HEAVY_ATOM_COUNT>  (1) 
16

>  <PUBCHEM_ATOM_DEF_STEREO_COUNT>  (1) 
0

>  <PUBCHEM_ATOM_UDEF_STEREO_COUNT>  (1) 
0

>  <PUBCHEM_BOND_DEF_STEREO_COUNT>  (1) 
0

>  <PUBCHEM_BOND_UDEF_STEREO_COUNT>  (1) 
0

>  <PUBCHEM_ISOTOPIC_ATOM_COUNT>  (1) 
0

>  <PUBCHEM_COMPONENT_COUNT>  (1) 
1

>  <PUBCHEM_CACTVS_TAUTO_COUNT>  (1) 
1

>  <PUBCHEM_CONFORMER_ID>  (1) 
000043EA00000001

>  <PUBCHEM_MMFF94_ENERGY>  (1) 
-6.725

>  <PUBCHEM_FEATURE_SELFOVERLAP>  (1) 
15.223

>  <PUBCHEM_SHAPE_FINGERPRINT>  (1) 
12091667 2 18410573990427554911
14123256 10 18410573985151451146
14251764 18 18410854352031880715
14251764 46 18260548926756388483
22224240 67 18335137604798353298
232437 2 18259703393761877346
23521765 1 18341894095129018383
23581129 1 18409448085244608519
246663 6 15574434319297059749
33684 2 18410855460128161794
67123 10 18410575097547980805
8209 1 18410855464423129093

>  <PUBCHEM_SHAPE_MULTIPOLES>  (1) 
324.29
34.38
0.79
0.63
0.46
0
0
0.65
3.4
-0.04
0
-0.09
0
-0.05

>  <PUBCHEM_SHAPE_SELFOVERLAP>  (1) 
574.862

>  <PUBCHEM_SHAPE_VOLUME>  (1) 
210.5

>  <PUBCHEM_COORDINATE_TYPE>  (1) 
2
5
10

$$$$
