17384
     RDKit          3D

 13 13  0  0  0  0  0  0  0  0999 V2000
   -0.0024   -2.5957    0.0835 Cl  0  0  0  0  0  0  0  0  0  0  0  0
   -4.4346    0.3781   -0.6447 Cl  0  0  0  0  0  0  0  0  0  0  0  0
    1.2072    0.0157    0.9494 O   0  0  0  0  0  0  0  0  0  0  0  0
    4.4264    0.3724   -0.6347 O   0  0  0  0  0  0  0  0  0  0  0  0
    1.8153    0.4483   -1.2675 O   0  0  0  0  0  0  0  0  0  0  0  0
   -0.1022    0.0774    0.5748 C   0  0  0  0  0  0  0  0  0  0  0  0
   -0.7876   -1.0611    0.1505 C   0  0  0  0  0  0  0  0  0  0  0  0
   -0.7566    1.3083    0.6224 C   0  0  0  0  0  0  0  0  0  0  0  0
   -2.1275   -0.9686   -0.2262 C   0  0  0  0  0  0  0  0  0  0  0  0
   -2.0964    1.4007    0.2457 C   0  0  0  0  0  0  0  0  0  0  0  0
   -2.7819    0.2624   -0.1786 C   0  0  0  0  0  0  0  0  0  0  0  0
    2.1163    0.2265   -0.1023 C   0  0  0  0  0  0  0  0  0  0  0  0
    3.5241    0.1356    0.4277 C   0  0  0  0  0  0  0  0  0  0  0  0
  1  7  1  0
  2 11  1  0
  3  6  1  0
  3 12  1  0
  4 13  1  0
  5 12  2  0
  6  7  2  0
  6  8  1  0
  7  9  1  0
  8 10  2  0
  9 11  2  0
 10 11  1  0
 12 13  1  0
M  END
>  <PUBCHEM_COMPOUND_CID>  (1) 
17384

>  <PUBCHEM_CONFORMER_RMSD>  (1) 
0.6

>  <PUBCHEM_CONFORMER_DIVERSEORDER>  (1) 
1
21
14
13
10
9
23
20
8
19
16
3
7
24
18
11
17
22
2
15
5
4
12
6

>  <PUBCHEM_MMFF94_PARTIAL_CHARGES>  (1) 
17
1 -0.18
10 -0.15
11 0.18
12 0.66
13 0.34
14 0.15
15 0.15
16 0.15
19 0.4
2 -0.18
3 -0.23
4 -0.68
5 -0.57
6 0.08
7 0.18
8 -0.15
9 -0.15

>  <PUBCHEM_EFFECTIVE_ROTOR_COUNT>  (1) 
3

>  <PUBCHEM_PHARMACOPHORE_FEATURES>  (1) 
4
1 4 acceptor
1 4 donor
1 5 acceptor
6 6 7 8 9 10 11 rings

>  <PUBCHEM_HEAVY_ATOM_COUNT>  (1) 
13

>  <PUBCHEM_ATOM_DEF_STEREO_COUNT>  (1) 
0

>  <PUBCHEM_ATOM_UDEF_STEREO_COUNT>  (1) 
0

>  <PUBCHEM_BOND_DEF_STEREO_COUNT>  (1) 
0

>  <PUBCHEM_BOND_UDEF_STEREO_COUNT>  (1) 
0

>  <PUBCHEM_ISOTOPIC_ATOM_COUNT>  (1) 
0

>  <PUBCHEM_COMPONENT_COUNT>  (1) 
1

>  <PUBCHEM_CACTVS_TAUTO_COUNT>  (1) 
1

>  <PUBCHEM_CONFORMER_ID>  (1) 
000043E800000001

>  <PUBCHEM_MMFF94_ENERGY>  (1) 
26.8581

>  <PUBCHEM_FEATURE_SELFOVERLAP>  (1) 
20.304

>  <PUBCHEM_SHAPE_FINGERPRINT>  (1) 
10726558 24 18409450262951562575
12119455 92 14490463197252278353
12251169 10 10881404231185723997
12716758 59 18341047531526862314
13024252 1 12829485974032527203
13380535 76 18335981991311208515
14614273 12 18263358101682656541
14911166 2 18342730832663932501
14943859 89 18411698798727032051
14993402 34 18260828202409332260
15207287 21 17632858637706863118
15775835 57 17967250901216968604
16945 1 18341888585308470041
18186145 218 18343015605595472697
187816 3 18272933829689118473
200 152 15339120130312039100
20201158 50 17561086912280872022
20645476 183 18040996284311297587
20645477 56 18337670918749740160
20871999 31 18268707397281381983
21119208 17 18259702298160023580
21293036 1 18341889697483570305
21501502 16 18054504704245250681
23402539 116 18343292686873140388
23402655 69 18270666564605704877
23552423 10 18050001091701648059
23559900 14 18272930557841832976
2748010 2 18052239985249092825
3071541 37 18336821975387451115
3250762 1 17622434361158156969
366044 4 18409445890664299291
528886 8 18409722967752533603
53812653 8 18339637846130180321
69090 78 17632290189984169871
7364860 26 18055069861242760407
81539 233 18041273262546939635

>  <PUBCHEM_SHAPE_MULTIPOLES>  (1) 
253.67
6.54
1.71
0.89
1.98
1.23
0.08
-1.87
1.81
-0.45
-0.17
0.23
-0.11
-0.18

>  <PUBCHEM_SHAPE_SELFOVERLAP>  (1) 
508.596

>  <PUBCHEM_SHAPE_VOLUME>  (1) 
150.3

>  <PUBCHEM_COORDINATE_TYPE>  (1) 
2
5
10

$$$$
