17389
     RDKit          3D

 17 17  0  0  0  0  0  0  0  0999 V2000
   -0.5650   -0.5546   -0.3916 O   0  0  0  0  0  0  0  0  0  0  0  0
    0.8367    0.8929    0.7309 O   0  0  0  0  0  0  0  0  0  0  0  0
   -4.1500    0.0481    0.2171 N   0  0  0  0  0  0  0  0  0  0  0  0
   -2.9563   -0.5823   -0.3457 C   0  0  0  0  0  0  0  0  0  0  0  0
   -5.3562   -0.6376   -0.2450 C   0  0  0  0  0  0  0  0  0  0  0  0
   -4.1978    1.4647   -0.1426 C   0  0  0  0  0  0  0  0  0  0  0  0
   -1.6974    0.0994    0.1659 C   0  0  0  0  0  0  0  0  0  0  0  0
   -5.3237   -2.1120    0.1205 C   0  0  0  0  0  0  0  0  0  0  0  0
   -5.3997    2.1503    0.4847 C   0  0  0  0  0  0  0  0  0  0  0  0
    1.7446   -0.8539   -0.6990 C   0  0  0  0  0  0  0  0  0  0  0  0
    0.6566   -0.0533   -0.0237 C   0  0  0  0  0  0  0  0  0  0  0  0
    3.1305   -0.3967   -0.3233 C   0  0  0  0  0  0  0  0  0  0  0  0
    3.7528    0.5858   -1.0795 C   0  0  0  0  0  0  0  0  0  0  0  0
    3.7624   -0.9648    0.7733 C   0  0  0  0  0  0  0  0  0  0  0  0
    5.0356    1.0093   -0.7318 C   0  0  0  0  0  0  0  0  0  0  0  0
    5.0451   -0.5412    1.1211 C   0  0  0  0  0  0  0  0  0  0  0  0
    5.6817    0.4459    0.3685 C   0  0  0  0  0  0  0  0  0  0  0  0
  1  7  1  0
  1 11  1  0
  2 11  2  0
  3  4  1  0
  3  5  1  0
  3  6  1  0
  4  7  1  0
  5  8  1  0
  6  9  1  0
 10 11  1  0
 10 12  1  0
 12 13  2  0
 12 14  1  0
 13 15  1  0
 14 16  2  0
 15 17  2  0
 16 17  1  0
M  END
>  <PUBCHEM_COMPOUND_CID>  (1) 
17389

>  <PUBCHEM_CONFORMER_RMSD>  (1) 
0.8

>  <PUBCHEM_CONFORMER_DIVERSEORDER>  (1) 
1
32
19
100
118
158
117
239
173
191
168
212
21
309
35
178
256
94
95
43
206
266
202
254
221
208
116
45
279
244
287
252
171
76
179
176
79
66
90
277
204
104
47
101
219
110
98
121
258
167
80
112
230
194
186
144
156
238
218
286
283
96
132
257
81
261
124
16
113
151
297
23
237
5
224
185
14
89
175
138
292
52
288
130
155
213
235
267
77
251
180
106
225
240
72
8
164
157
107
249
114
67
33
184
170
2
233
268
291
46
58
99
269
24
28
281
228
147
246
49
242
93
115
160
105
247
243
29
201
293
140
296
177
103
182
22
149
74
34
169
301
199
42
189
73
129
250
120
273
57
17
299
135
137
183
259
102
44
209
306
139
215
303
97
38
163
187
41
241
227
141
20
232
255
18
231
30
150
197
62
7
39
145
193
181
159
305
200
198
190
123
304
78
13
84
146
282
82
220
192
15
64
125
165
3
263
148
75
126
70
234
63
161
294
37
109
174
48
275
260
223
265
87
248
31
210
131
310
162
276
134
88
65
133
27
85
119
59
307
53
86
9
92
207
290
274
245
214
271
285
68
61
216
211
91
152
26
153
278
50
4
222
308
217
264
284
128
6
272
127
111
25
188
280
69
253
295
262
298
10
270
195
154
36
122
51
108
229
236
55
172
142
166
143
54
226
203
71
300
302
83
60
40
205
12
136
196
11
289
56

>  <PUBCHEM_MMFF94_PARTIAL_CHARGES>  (1) 
20
1 -0.43
10 0.2
11 0.66
12 -0.14
13 -0.15
14 -0.15
15 -0.15
16 -0.15
17 -0.15
2 -0.57
3 -0.81
34 0.15
35 0.15
36 0.15
37 0.15
38 0.15
4 0.27
5 0.27
6 0.27
7 0.28

>  <PUBCHEM_EFFECTIVE_ROTOR_COUNT>  (1) 
8

>  <PUBCHEM_PHARMACOPHORE_FEATURES>  (1) 
3
1 2 acceptor
1 3 cation
6 12 13 14 15 16 17 rings

>  <PUBCHEM_HEAVY_ATOM_COUNT>  (1) 
17

>  <PUBCHEM_ATOM_DEF_STEREO_COUNT>  (1) 
0

>  <PUBCHEM_ATOM_UDEF_STEREO_COUNT>  (1) 
0

>  <PUBCHEM_BOND_DEF_STEREO_COUNT>  (1) 
0

>  <PUBCHEM_BOND_UDEF_STEREO_COUNT>  (1) 
0

>  <PUBCHEM_ISOTOPIC_ATOM_COUNT>  (1) 
0

>  <PUBCHEM_COMPONENT_COUNT>  (1) 
1

>  <PUBCHEM_CACTVS_TAUTO_COUNT>  (1) 
1

>  <PUBCHEM_CONFORMER_ID>  (1) 
000043ED00000001

>  <PUBCHEM_MMFF94_ENERGY>  (1) 
28.901

>  <PUBCHEM_FEATURE_SELFOVERLAP>  (1) 
15.223

>  <PUBCHEM_SHAPE_FINGERPRINT>  (1) 
10595046 47 18260830435771084183
10912923 1 18113900463673839451
11287383 113 18411138064770994106
11315181 36 18186521033951898631
117890 112 18412544280103288640
12091667 2 17989484130395592335
12107183 9 17612019383139917393
12236239 1 18335420162655013442
12596602 18 18410008836412171242
12616971 3 17095534980540771125
12730499 353 16200439091639932918
13073987 5 18408603651967479667
13167372 99 18260829241934206372
13167823 11 18260263053459392907
13533116 47 17530959147583016042
14123238 8 18334575754345698471
1420 363 16988567921863583847
14251718 22 18341051899471633311
14251732 16 18263081174696133736
14251764 18 18410577280288309017
15788980 27 13334740141334008683
17834072 33 18261110811299522463
17844677 252 18342741861918649665
19489759 90 18408039615719440339
20281389 69 18260830354684235397
20621476 66 18129388103644986081
220451 1 17894918403507716970
23081809 10 17967254204120548878
23402539 116 18040992938731747143
23536379 177 18187644691268679913
23559900 14 18127979607041693550
2916195 48 18201995551373181640
300161 21 18409164377322760389
34797466 226 17560529507241376548
4214541 1 18410575085248719349
42788 4 18410292514707136638
5104073 3 18260548926397751529
542803 24 18408041805646326548
7495541 125 18337952397535959040

>  <PUBCHEM_SHAPE_MULTIPOLES>  (1) 
333.13
16.28
1.62
0.93
5.03
0.19
-0.01
1.36
-1.46
2.85
-0.13
-0.92
0.02
-0.96

>  <PUBCHEM_SHAPE_SELFOVERLAP>  (1) 
663.419

>  <PUBCHEM_SHAPE_VOLUME>  (1) 
198.6

>  <PUBCHEM_COORDINATE_TYPE>  (1) 
2
5
10

$$$$
