17393
     RDKit          3D

 19 20  0  0  1  0  0  0  0  0999 V2000
    2.2482    1.5033   -0.0151 N   0  0  0  0  0  0  0  0  0  0  0  0
    1.4528   -3.6908    1.4251 N   0  0  0  0  0  0  0  0  0  0  0  0
    2.3863   -0.9070   -0.4520 C   0  0  0  0  0  0  0  0  0  0  0  0
    1.1822   -1.2361    0.4723 C   0  0  0  0  0  0  0  0  0  0  0  0
    2.2869    0.4926   -1.0666 C   0  0  0  0  0  0  0  0  0  0  0  0
   -0.1552   -1.0532   -0.1759 C   0  0  0  0  0  0  0  0  0  0  0  0
   -1.1011   -0.1376    0.3133 C   0  0  0  0  0  0  0  0  0  0  0  0
    2.0606    2.8364   -0.5894 C   0  0  0  0  0  0  0  0  0  0  0  0
   -2.3481   -0.0126   -0.3445 C   0  0  0  0  0  0  0  0  0  0  0  0
   -0.4348   -1.8346   -1.2974 C   0  0  0  0  0  0  0  0  0  0  0  0
    3.4740    1.4619    0.7837 C   0  0  0  0  0  0  0  0  0  0  0  0
   -0.8367    0.6569    1.4406 C   0  0  0  0  0  0  0  0  0  0  0  0
   -2.6123   -0.8072   -1.4719 C   0  0  0  0  0  0  0  0  0  0  0  0
   -1.6610   -1.7117   -1.9441 C   0  0  0  0  0  0  0  0  0  0  0  0
    1.3409   -2.6133    1.0087 C   0  0  0  0  0  0  0  0  0  0  0  0
    0.8138    2.9037   -1.4104 C   0  0  0  0  0  0  0  0  0  0  0  0
   -3.2940    0.9030    0.1446 C   0  0  0  0  0  0  0  0  0  0  0  0
   -1.7881    1.5616    1.9128 C   0  0  0  0  0  0  0  0  0  0  0  0
   -3.0143    1.6846    1.2662 C   0  0  0  0  0  0  0  0  0  0  0  0
  1  5  1  0
  1  8  1  0
  1 11  1  0
  2 15  3  0
  3  4  1  0
  3  5  1  0
  4  6  1  0
  4 15  1  0
  6  7  2  0
  6 10  1  0
  7  9  1  0
  7 12  1  0
  8 16  1  0
  9 13  2  0
  9 17  1  0
 10 14  2  0
 12 18  2  0
 13 14  1  0
 17 19  2  0
 18 19  1  0
M  END
>  <PUBCHEM_COMPOUND_CID>  (1) 
17393

>  <PUBCHEM_CONFORMER_RMSD>  (1) 
0.6

>  <PUBCHEM_CONFORMER_DIVERSEORDER>  (1) 
1
78
103
83
22
48
90
37
111
23
105
68
114
41
32
39
50
104
98
81
106
3
60
47
96
71
101
33
25
72
73
110
21
107
38
116
66
24
99
56
79
112
15
94
5
77
115
28
58
80
52
97
95
67
6
49
75
18
17
70
26
4
11
53
8
12
109
102
82
92
27
85
7
35
13
91
86
61
30
14
113
2
9
87
84
54
76
100
88
36
65
93
108
19
64
89
44
74
16
55
69
117
43
10
63
29
62
34
20
46
57
45
31
40
42
59
51

>  <PUBCHEM_MMFF94_PARTIAL_CHARGES>  (1) 
22
1 -0.81
10 -0.15
11 0.27
12 -0.15
13 -0.15
14 -0.15
15 0.36
17 -0.15
18 -0.15
19 -0.15
2 -0.56
27 0.15
31 0.15
32 0.15
33 0.15
37 0.15
38 0.15
39 0.15
4 0.34
5 0.27
6 -0.14
8 0.27

>  <PUBCHEM_EFFECTIVE_ROTOR_COUNT>  (1) 
5

>  <PUBCHEM_PHARMACOPHORE_FEATURES>  (1) 
4
1 1 cation
1 2 acceptor
6 6 7 9 10 13 14 rings
6 7 9 12 17 18 19 rings

>  <PUBCHEM_HEAVY_ATOM_COUNT>  (1) 
19

>  <PUBCHEM_ATOM_DEF_STEREO_COUNT>  (1) 
0

>  <PUBCHEM_ATOM_UDEF_STEREO_COUNT>  (1) 
1

>  <PUBCHEM_BOND_DEF_STEREO_COUNT>  (1) 
0

>  <PUBCHEM_BOND_UDEF_STEREO_COUNT>  (1) 
0

>  <PUBCHEM_ISOTOPIC_ATOM_COUNT>  (1) 
0

>  <PUBCHEM_COMPONENT_COUNT>  (1) 
1

>  <PUBCHEM_CACTVS_TAUTO_COUNT>  (1) 
1

>  <PUBCHEM_CONFORMER_ID>  (1) 
000043F100000001

>  <PUBCHEM_MMFF94_ENERGY>  (1) 
51.6078

>  <PUBCHEM_FEATURE_SELFOVERLAP>  (1) 
20.324

>  <PUBCHEM_SHAPE_FINGERPRINT>  (1) 
10382601 240 18050031916502629112
11578080 2 17549495723399444384
11640471 11 18343868818092034649
12035758 1 14882852075003485419
12592029 89 18334863844173633129
12654903 92 17558009254701846310
13583140 156 18115319856514138665
13965767 371 17768534884897453640
14787075 74 17762058040209177351
14817 1 14950054994597229949
15490181 8 18121225539356315246
16945 1 18260547801327224887
17357990 137 17985552156302613603
18219364 16 17967530224346563829
18981168 100 17757584071471134684
192875 21 17980746453260987748
19765921 60 18267856375207461163
19930374 2 16828392944998702587
20510252 161 17614279296437273330
20645476 183 18343019944034577167
21330990 113 10080534440186076464
21524375 3 18270418147100708264
22149856 69 16626322620516976481
23419403 2 15744442292784111759
23557571 272 17131274713032797292
23558518 356 18268440198881561926
23559900 14 16629964305669073406
23598291 2 18342172215836822742
3060560 45 17770799917536941621
353137 74 18199460137847171807
4340502 62 18186805816285919483
474 4 18335420200803563800
539174 4 18340481171279957920
6992083 37 17766825148600945499
7832392 63 18201166481146428548
81228 2 17698174180866964505
9981440 41 17697871824471332832

>  <PUBCHEM_SHAPE_MULTIPOLES>  (1) 
381.05
4.76
3.56
1.81
0.09
0.79
-0.02
-2.31
0.2
-1.96
0.41
0.6
0.19
-2.01

>  <PUBCHEM_SHAPE_SELFOVERLAP>  (1) 
802.105

>  <PUBCHEM_SHAPE_VOLUME>  (1) 
212.9

>  <PUBCHEM_COORDINATE_TYPE>  (1) 
2
5
10

$$$$
