17397
     RDKit          3D

 24 26  0  0  1  0  0  0  0  0999 V2000
   -2.8405    0.5791    0.1555 N   0  0  0  0  0  0  0  0  0  0  0  0
   -0.2256   -3.4129    1.4952 N   0  0  0  0  0  0  0  0  0  0  0  0
    0.4881   -1.4193   -0.1024 C   0  0  0  0  0  0  0  0  0  0  0  0
   -0.8322   -0.6722   -0.5113 C   0  0  0  0  0  0  0  0  0  0  0  0
   -1.6434   -0.0928    0.6605 C   0  0  0  0  0  0  0  0  0  0  0  0
    1.1798   -2.0402   -1.3898 C   0  0  0  0  0  0  0  0  0  0  0  0
   -3.7091   -0.3769   -0.5456 C   0  0  0  0  0  0  0  0  0  0  0  0
   -3.5583    1.2437    1.2523 C   0  0  0  0  0  0  0  0  0  0  0  0
   -4.9427    0.3192   -1.1228 C   0  0  0  0  0  0  0  0  0  0  0  0
   -4.7868    1.9929    0.7337 C   0  0  0  0  0  0  0  0  0  0  0  0
    1.4650   -0.4204    0.5618 C   0  0  0  0  0  0  0  0  0  0  0  0
   -5.7157    1.0652   -0.0411 C   0  0  0  0  0  0  0  0  0  0  0  0
    0.2395   -2.9471   -2.2065 C   0  0  0  0  0  0  0  0  0  0  0  0
    2.4741   -2.8198   -1.0990 C   0  0  0  0  0  0  0  0  0  0  0  0
    1.9294    0.6703   -0.1425 C   0  0  0  0  0  0  0  0  0  0  0  0
    0.0909   -2.5360    0.8033 C   0  0  0  0  0  0  0  0  0  0  0  0
    1.8117   -0.7075    1.8592 C   0  0  0  0  0  0  0  0  0  0  0  0
    2.8206    1.5466    0.5216 C   0  0  0  0  0  0  0  0  0  0  0  0
    2.6877    0.1544    2.5123 C   0  0  0  0  0  0  0  0  0  0  0  0
    1.5601    0.9426   -1.4698 C   0  0  0  0  0  0  0  0  0  0  0  0
    3.1898    1.2746    1.8491 C   0  0  0  0  0  0  0  0  0  0  0  0
    3.3161    2.6694   -0.1611 C   0  0  0  0  0  0  0  0  0  0  0  0
    2.0624    2.0627   -2.1329 C   0  0  0  0  0  0  0  0  0  0  0  0
    2.9388    2.9244   -1.4798 C   0  0  0  0  0  0  0  0  0  0  0  0
  1  5  1  0
  1  7  1  0
  1  8  1  0
  2 16  3  0
  3  4  1  0
  3  6  1  0
  3 11  1  0
  3 16  1  0
  4  5  1  0
  6 13  1  0
  6 14  1  0
  7  9  1  0
  8 10  1  0
  9 12  1  0
 10 12  1  0
 11 15  1  0
 11 17  2  0
 15 18  2  0
 15 20  1  0
 17 19  1  0
 18 21  1  0
 18 22  1  0
 19 21  2  0
 20 23  2  0
 22 24  2  0
 23 24  1  0
M  END
>  <PUBCHEM_COMPOUND_CID>  (1) 
17397

>  <PUBCHEM_CONFORMER_RMSD>  (1) 
0.8

>  <PUBCHEM_CONFORMER_DIVERSEORDER>  (1) 
3
43
50
51
2
49
52
54
27
40
20
41
10
23
31
38
44
55
46
57
19
6
33
29
32
53
42
37
47
12
56
1
58
48
59
8
30
45
36
24
21
7
25
16
34
17
11
26
5
14
35
9
22
4
18
15
39
13
28

>  <PUBCHEM_MMFF94_PARTIAL_CHARGES>  (1) 
22
1 -0.81
11 -0.14
16 0.36
17 -0.15
19 -0.15
2 -0.56
20 -0.15
21 -0.15
22 -0.15
23 -0.15
24 -0.15
3 0.34
46 0.15
47 0.15
48 0.15
49 0.15
5 0.27
50 0.15
51 0.15
52 0.15
7 0.27
8 0.27

>  <PUBCHEM_EFFECTIVE_ROTOR_COUNT>  (1) 
6.2

>  <PUBCHEM_PHARMACOPHORE_FEATURES>  (1) 
6
1 1 cation
1 2 acceptor
3 6 13 14 hydrophobe
6 1 7 8 9 10 12 rings
6 11 15 17 18 19 21 rings
6 15 18 20 22 23 24 rings

>  <PUBCHEM_HEAVY_ATOM_COUNT>  (1) 
24

>  <PUBCHEM_ATOM_DEF_STEREO_COUNT>  (1) 
0

>  <PUBCHEM_ATOM_UDEF_STEREO_COUNT>  (1) 
1

>  <PUBCHEM_BOND_DEF_STEREO_COUNT>  (1) 
0

>  <PUBCHEM_BOND_UDEF_STEREO_COUNT>  (1) 
0

>  <PUBCHEM_ISOTOPIC_ATOM_COUNT>  (1) 
0

>  <PUBCHEM_COMPONENT_COUNT>  (1) 
1

>  <PUBCHEM_CACTVS_TAUTO_COUNT>  (1) 
1

>  <PUBCHEM_CONFORMER_ID>  (1) 
000043F500000003

>  <PUBCHEM_MMFF94_ENERGY>  (1) 
80.7033

>  <PUBCHEM_FEATURE_SELFOVERLAP>  (1) 
30.472

>  <PUBCHEM_SHAPE_FINGERPRINT>  (1) 
10498660 4 17775567546411576177
10930396 42 18194949757491022986
11135609 201 18198078047853517297
11640471 11 18190452964341505716
11725454 13 15768340973109845762
12633257 1 16516233141282785520
12788726 201 17759797439722737419
13149001 5 18048915980598666398
13224815 77 18272093794906568737
13583140 156 16660923391583690497
13965767 371 18261944245561922668
14004458 79 17123931195188436470
16945 1 17534309462497014594
20600515 1 16835456250518296607
20715895 44 17898830385135322133
21524375 3 18341042012309218482
21756936 100 16882466317511235580
2255824 54 18267028258648343455
23419403 2 17768793287932166286
235170 7 15769773589601125761
23558518 356 18336541745561502859
23559900 14 17701816580097041383
23598288 3 17976813517490610106
238 59 17203344341489889556
283562 15 17398687705235827110
474 4 18334857208369773129
484985 159 13993605759618702704
633830 44 18336834096175121817
960060 61 12319735869573888041

>  <PUBCHEM_SHAPE_MULTIPOLES>  (1) 
483.95
8.46
3.66
2.2
15.71
1.9
0.16
-7.16
0.35
-2.64
-1.18
-1.89
0.15
-0.72

>  <PUBCHEM_SHAPE_SELFOVERLAP>  (1) 
1026.227

>  <PUBCHEM_SHAPE_VOLUME>  (1) 
268.4

>  <PUBCHEM_COORDINATE_TYPE>  (1) 
2
5
10

$$$$
