17408
     RDKit          3D

 36 40  0  0  0  0  0  0  0  0999 V2000
   -0.1308   -6.0734   -0.0338 N   0  0  0  0  0  0  0  0  0  0  0  0
    6.1769    1.6459   -0.0135 N   0  0  0  0  0  0  0  0  0  0  0  0
   -3.5572    2.6579    0.0321 N   0  0  0  0  0  0  0  0  0  0  0  0
   -0.0865    0.3280   -0.0017 C   0  0  0  0  0  0  0  0  0  0  0  0
    0.9555   -0.5243   -0.0087 C   0  0  0  0  0  0  0  0  0  0  0  0
    0.0765    1.8100    0.0054 C   0  0  0  0  0  0  0  0  0  0  0  0
   -1.0809    2.6246    0.0150 C   0  0  0  0  0  0  0  0  0  0  0  0
    0.6702   -1.9818   -0.0152 C   0  0  0  0  0  0  0  0  0  0  0  0
    2.3270    0.0458   -0.0099 C   0  0  0  0  0  0  0  0  0  0  0  0
   -1.4224   -0.2406   -0.0011 C   0  0  0  0  0  0  0  0  0  0  0  0
   -2.4404    1.9981    0.0189 C   0  0  0  0  0  0  0  0  0  0  0  0
    1.3350    2.4406    0.0027 C   0  0  0  0  0  0  0  0  0  0  0  0
   -2.5219    0.5158    0.0081 C   0  0  0  0  0  0  0  0  0  0  0  0
    0.5459   -2.6422    1.1898 C   0  0  0  0  0  0  0  0  0  0  0  0
    2.9388    0.3077   -1.2184 C   0  0  0  0  0  0  0  0  0  0  0  0
    0.5383   -2.6298   -1.2262 C   0  0  0  0  0  0  0  0  0  0  0  0
    2.9463    0.2954    1.1976 C   0  0  0  0  0  0  0  0  0  0  0  0
   -0.9514    4.0236    0.0211 C   0  0  0  0  0  0  0  0  0  0  0  0
    0.1400   -4.6894   -0.0276 C   0  0  0  0  0  0  0  0  0  0  0  0
    4.8747    1.1046   -0.0123 C   0  0  0  0  0  0  0  0  0  0  0  0
    0.2780   -4.0110    1.1835 C   0  0  0  0  0  0  0  0  0  0  0  0
    4.2268    0.8430   -1.2196 C   0  0  0  0  0  0  0  0  0  0  0  0
    0.2703   -3.9986   -1.2325 C   0  0  0  0  0  0  0  0  0  0  0  0
    4.2343    0.8307    1.1964 C   0  0  0  0  0  0  0  0  0  0  0  0
    1.4489    3.8316    0.0095 C   0  0  0  0  0  0  0  0  0  0  0  0
    0.3081    4.6210    0.0183 C   0  0  0  0  0  0  0  0  0  0  0  0
   -4.7206    1.8751    0.0334 C   0  0  0  0  0  0  0  0  0  0  0  0
   -0.9006   -6.6658   -1.1097 C   0  0  0  0  0  0  0  0  0  0  0  0
    0.3449   -6.9193    1.0427 C   0  0  0  0  0  0  0  0  0  0  0  0
    6.6117    2.5100   -1.0930 C   0  0  0  0  0  0  0  0  0  0  0  0
    7.0933    1.3563    1.0716 C   0  0  0  0  0  0  0  0  0  0  0  0
   -5.2876    1.4777    1.2422 C   0  0  0  0  0  0  0  0  0  0  0  0
   -5.3043    1.4975   -1.1738 C   0  0  0  0  0  0  0  0  0  0  0  0
   -6.4444    0.6984    1.2438 C   0  0  0  0  0  0  0  0  0  0  0  0
   -6.4612    0.7183   -1.1720 C   0  0  0  0  0  0  0  0  0  0  0  0
   -7.0311    0.3187    0.0368 C   0  0  0  0  0  0  0  0  0  0  0  0
  1 19  1  0
  1 28  1  0
  1 29  1  0
  2 20  1  0
  2 30  1  0
  2 31  1  0
  3 11  2  0
  3 27  1  0
  4  5  2  3
  4  6  1  0
  4 10  1  0
  5  8  1  0
  5  9  1  0
  6  7  2  0
  6 12  1  0
  7 11  1  0
  7 18  1  0
  8 14  2  0
  8 16  1  0
  9 15  2  0
  9 17  1  0
 10 13  2  0
 11 13  1  0
 12 25  2  0
 14 21  1  0
 15 22  1  0
 16 23  2  0
 17 24  2  0
 18 26  2  0
 19 21  2  0
 19 23  1  0
 20 22  2  0
 20 24  1  0
 25 26  1  0
 27 32  2  0
 27 33  1  0
 32 34  1  0
 33 35  2  0
 34 36  2  0
 35 36  1  0
M  END
>  <PUBCHEM_COMPOUND_CID>  (1) 
17408

>  <PUBCHEM_CONFORMER_RMSD>  (1) 
0.8

>  <PUBCHEM_CONFORMER_DIVERSEORDER>  (1) 
1

>  <PUBCHEM_MMFF94_PARTIAL_CHARGES>  (1) 
55
1 -0.84
10 -0.15
11 0.35
12 -0.15
13 -0.14
14 -0.15
15 -0.15
16 -0.15
17 -0.15
18 -0.15
19 0.1
2 -0.84
20 0.1
21 -0.15
22 -0.15
23 -0.15
24 -0.15
25 -0.15
26 -0.15
27 0.18
28 0.37
29 0.37
3 -0.63
30 0.37
31 0.37
32 -0.15
33 -0.15
34 -0.15
35 -0.15
36 -0.15
37 0.15
38 0.15
39 0.15
4 -0.03
40 0.15
41 0.15
42 0.15
43 0.15
44 0.15
45 0.15
46 0.15
47 0.15
48 0.15
49 0.15
5 -0.06
50 0.15
6 0.03
63 0.15
64 0.15
65 0.15
66 0.15
67 0.15
7 0.09
8 0.03
9 0.03

>  <PUBCHEM_EFFECTIVE_ROTOR_COUNT>  (1) 
5

>  <PUBCHEM_PHARMACOPHORE_FEATURES>  (1) 
8
1 1 cation
1 2 cation
1 3 acceptor
6 27 32 33 34 35 36 rings
6 4 6 7 10 11 13 rings
6 6 7 12 18 25 26 rings
6 8 14 16 19 21 23 rings
6 9 15 17 20 22 24 rings

>  <PUBCHEM_HEAVY_ATOM_COUNT>  (1) 
36

>  <PUBCHEM_ATOM_DEF_STEREO_COUNT>  (1) 
0

>  <PUBCHEM_ATOM_UDEF_STEREO_COUNT>  (1) 
0

>  <PUBCHEM_BOND_DEF_STEREO_COUNT>  (1) 
0

>  <PUBCHEM_BOND_UDEF_STEREO_COUNT>  (1) 
0

>  <PUBCHEM_ISOTOPIC_ATOM_COUNT>  (1) 
0

>  <PUBCHEM_COMPONENT_COUNT>  (1) 
1

>  <PUBCHEM_CACTVS_TAUTO_COUNT>  (1) 
1

>  <PUBCHEM_CONFORMER_ID>  (1) 
0000440000000001

>  <PUBCHEM_MMFF94_ENERGY>  (1) 
210.0615

>  <PUBCHEM_FEATURE_SELFOVERLAP>  (1) 
40.618

>  <PUBCHEM_SHAPE_FINGERPRINT>  (1) 
10010297 198 18125154936332123557
10074138 170 18196627783510454906
10169797 241 17972902279927278059
10290309 65 18264486200264484677
10411042 1 17546447139018488086
10906281 52 18262250927738779265
1100329 8 18194115450278843592
11135926 11 18337386046638540877
11136131 41 18191579753327834042
11421498 54 17917152689343592657
11445158 3 17894634794185897565
11719270 70 18337103484586652713
11991303 11 18261960772716689254
12058002 1 17486529054698532768
13140716 1 18337952277578009762
13911987 19 18334586745289023741
14068700 686 18263643974595615301
14790565 3 18410862061784182888
14863182 85 18337681818912449053
15131766 46 15649046204102542932
15444296 8 17694232466489759838
15927050 60 17905052799808173788
16090146 7 18199489769101432144
16728300 4 17461975723542306352
17492 89 17833548995190615475
17909252 39 17977956687392326251
18365409 1 18267304420481341471
19319366 153 18411695457105534167
20028762 73 18271806869616216645
21344244 181 18270414801975436110
21703447 108 17977383837470475299
22149856 69 18193299437607713785
22223350 30 17840304750587177528
22311459 1 18411135823584757125
22956985 138 17831574280417633930
23516275 137 16557934271692330487
23559900 14 17544187182444696793
23569917 315 18411704253478754270
24771293 8 18201717383780836656
283562 15 18270686355235516144
3178227 256 18336837463203395521
3383291 50 18410855486368055624
3737641 26 18126294038916102069
4461854 278 18267884941869098915
6058803 2 17769090143102835873
6669772 16 18343304734699972350
6673363 416 17187854117697011686
6700243 42 17479497790293584956
70251023 43 17762066436954124227

>  <PUBCHEM_SHAPE_MULTIPOLES>  (1) 
725.92
13.35
8.9
1.24
5
21.67
-0.01
-15.06
0.34
-0.58
-0.16
-0.13
0.59
-0.53

>  <PUBCHEM_SHAPE_SELFOVERLAP>  (1) 
1610.224

>  <PUBCHEM_SHAPE_VOLUME>  (1) 
384.6

>  <PUBCHEM_COORDINATE_TYPE>  (1) 
2
5
10

$$$$
