17413
     RDKit          3D

 23 24  0  0  0  0  0  0  0  0999 V2000
   -4.7338    0.3909   -1.2020 O   0  0  0  0  0  0  0  0  0  0  0  0
    4.7323    0.3897   -1.2021 O   0  0  0  0  0  0  0  0  0  0  0  0
   -2.6699   -2.9774   -0.1893 O   0  0  0  0  0  0  0  0  0  0  0  0
    2.6658   -2.9775   -0.1906 O   0  0  0  0  0  0  0  0  0  0  0  0
   -4.8034   -2.2046   -0.3217 O   0  0  0  0  0  0  0  0  0  0  0  0
    4.8002   -2.2070   -0.3227 O   0  0  0  0  0  0  0  0  0  0  0  0
   -0.0007    0.7636    1.8528 C   0  0  0  0  0  0  0  0  0  0  0  0
   -1.2511    0.6643    1.0460 C   0  0  0  0  0  0  0  0  0  0  0  0
    1.2698    0.6624    1.0327 C   0  0  0  0  0  0  0  0  0  0  0  0
   -1.8354    1.8168    0.5207 C   0  0  0  0  0  0  0  0  0  0  0  0
    1.8345    1.8164    0.5210 C   0  0  0  0  0  0  0  0  0  0  0  0
   -1.8361   -0.5809    0.8165 C   0  0  0  0  0  0  0  0  0  0  0  0
    1.8340   -0.5815    0.8161 C   0  0  0  0  0  0  0  0  0  0  0  0
   -3.0047    1.7242   -0.2343 C   0  0  0  0  0  0  0  0  0  0  0  0
    3.0040    1.7235   -0.2334 C   0  0  0  0  0  0  0  0  0  0  0  0
   -3.0052   -0.6738    0.0615 C   0  0  0  0  0  0  0  0  0  0  0  0
    3.0037   -0.6744    0.0617 C   0  0  0  0  0  0  0  0  0  0  0  0
   -3.5897    0.4789   -0.4639 C   0  0  0  0  0  0  0  0  0  0  0  0
    3.5886    0.4780   -0.4632 C   0  0  0  0  0  0  0  0  0  0  0  0
   -3.6151    2.9693   -0.7881 C   0  0  0  0  0  0  0  0  0  0  0  0
    3.6152    2.9685   -0.7867 C   0  0  0  0  0  0  0  0  0  0  0  0
   -3.5993   -1.9841   -0.1647 C   0  0  0  0  0  0  0  0  0  0  0  0
    3.5962   -1.9852   -0.1663 C   0  0  0  0  0  0  0  0  0  0  0  0
  1 18  1  0
  2 19  1  0
  3 22  1  0
  4 23  1  0
  5 22  2  0
  6 23  2  0
  7  8  1  0
  7  9  1  0
  8 10  2  0
  8 12  1  0
  9 11  2  0
  9 13  1  0
 10 14  1  0
 11 15  1  0
 12 16  2  0
 13 17  2  0
 14 18  2  0
 14 20  1  0
 15 19  2  0
 15 21  1  0
 16 18  1  0
 16 22  1  0
 17 19  1  0
 17 23  1  0
M  END
>  <PUBCHEM_COMPOUND_CID>  (1) 
17413

>  <PUBCHEM_CONFORMER_RMSD>  (1) 
0.8

>  <PUBCHEM_CONFORMER_DIVERSEORDER>  (1) 
1
14
10
5
7
18
2
16
13
4
3
8
6
11
15
12
9
17

>  <PUBCHEM_MMFF94_PARTIAL_CHARGES>  (1) 
31
1 -0.53
10 -0.15
11 -0.15
12 -0.15
13 -0.15
14 -0.14
15 -0.14
16 0.09
17 0.09
18 0.08
19 0.08
2 -0.53
20 0.14
21 0.14
22 0.63
23 0.63
26 0.15
27 0.15
28 0.15
29 0.15
3 -0.65
36 0.45
37 0.45
38 0.5
39 0.5
4 -0.65
5 -0.57
6 -0.57
7 0.29
8 -0.14
9 -0.14

>  <PUBCHEM_EFFECTIVE_ROTOR_COUNT>  (1) 
4

>  <PUBCHEM_PHARMACOPHORE_FEATURES>  (1) 
10
1 1 donor
1 2 donor
1 3 acceptor
1 4 acceptor
1 5 acceptor
1 6 acceptor
3 3 5 22 anion
3 4 6 23 anion
6 8 10 12 14 16 18 rings
6 9 11 13 15 17 19 rings

>  <PUBCHEM_HEAVY_ATOM_COUNT>  (1) 
23

>  <PUBCHEM_ATOM_DEF_STEREO_COUNT>  (1) 
0

>  <PUBCHEM_ATOM_UDEF_STEREO_COUNT>  (1) 
0

>  <PUBCHEM_BOND_DEF_STEREO_COUNT>  (1) 
0

>  <PUBCHEM_BOND_UDEF_STEREO_COUNT>  (1) 
0

>  <PUBCHEM_ISOTOPIC_ATOM_COUNT>  (1) 
0

>  <PUBCHEM_COMPONENT_COUNT>  (1) 
1

>  <PUBCHEM_CACTVS_TAUTO_COUNT>  (1) 
9

>  <PUBCHEM_CONFORMER_ID>  (1) 
0000440500000001

>  <PUBCHEM_MMFF94_ENERGY>  (1) 
71.6172

>  <PUBCHEM_FEATURE_SELFOVERLAP>  (1) 
50.862

>  <PUBCHEM_SHAPE_FINGERPRINT>  (1) 
10498660 4 17968083253368837813
10616163 171 18341334473891672903
10756046 5 18408886222007798456
10759866 29 18341054128823404462
11543360 7 18335984254489831177
12363563 72 16343411821982104144
12553582 1 16272215214252357449
12670546 177 18334293188468491069
12707595 3 17203325641154939960
12892183 10 10087629420979390457
13944108 23 16456838274860092589
14576447 43 18342464768108877642
14790565 3 18266741282420355113
15537594 2 17844533412304226687
17492 89 18409730672660819963
18186145 218 17168151104652258336
20281475 54 18272937137056445555
20626108 58 18263348232148491314
20775438 99 17836881855379396645
21713013 43 18271530883022498293
221357 26 18411135857448051687
221490 88 18410580608386868642
22393880 68 18412834577422769580
22907989 373 18337939169812316693
23379529 103 18200603509918923406
235170 7 17968925517676926927
23557571 272 18042117825174182721
23559900 14 18341602707557881408
238 59 18263373628173879250
2838139 119 16806184284072275660
2871803 45 18268430307365904090
3004659 81 18410286991252937914
312425 83 18187364290108023428
340366 18 18191308182403159501
4280585 95 17908714934455155086
44062 13 18340769239168572575
46194498 28 18260269646265529332
5281201 14 18333736805615153740
53777708 50 18340778082411471528
633830 44 17023194786002256888
67856867 119 18335975463388147720
7399639 24 17982717873188126457
9709674 26 18334580173904041034

>  <PUBCHEM_SHAPE_MULTIPOLES>  (1) 
438.11
10.25
3.46
1.13
0.02
0.66
0.28
2.21
-4.15
0
-0.86
0
-0.35
0

>  <PUBCHEM_SHAPE_SELFOVERLAP>  (1) 
952.576

>  <PUBCHEM_SHAPE_VOLUME>  (1) 
239.7

>  <PUBCHEM_COORDINATE_TYPE>  (1) 
2
5
10

$$$$
