17425
     RDKit          3D

 15 14  0  0  0  0  0  0  0  0999 V2000
    2.7462    0.1165   -0.4218 S   0  0  0  0  0  0  0  0  0  0  0  0
   -0.1089    0.1124   -1.3326 S   0  0  0  0  0  0  0  0  0  0  0  0
   -3.5795   -0.2426   -1.6952 S   0  0  0  0  0  0  0  0  0  0  0  0
   -2.0516   -0.0556   -0.4812 P   0  0  0  0  0  0  0  0  0  0  0  0
   -2.2387    1.1768    0.5755 O   0  0  0  0  0  0  0  0  0  0  0  0
   -2.0168   -1.3109    0.5663 O   0  0  0  0  0  0  0  0  0  0  0  0
    2.9776    1.4456   -0.9538 O   0  0  0  0  0  0  0  0  0  0  0  0
    3.0840   -1.0676   -1.1877 O   0  0  0  0  0  0  0  0  0  0  0  0
    1.0342   -0.0011    0.0643 C   0  0  0  0  0  0  0  0  0  0  0  0
    3.6014    0.0084    1.1308 C   0  0  0  0  0  0  0  0  0  0  0  0
    5.1001    0.0891    0.9453 C   0  0  0  0  0  0  0  0  0  0  0  0
   -2.3231    2.5127    0.1084 C   0  0  0  0  0  0  0  0  0  0  0  0
   -1.8645   -2.6414    0.1011 C   0  0  0  0  0  0  0  0  0  0  0  0
   -2.4924    3.4396    1.2933 C   0  0  0  0  0  0  0  0  0  0  0  0
   -1.8679   -3.5819    1.2873 C   0  0  0  0  0  0  0  0  0  0  0  0
  1  7  2  0
  1  8  2  0
  1  9  1  0
  1 10  1  0
  2  4  1  0
  2  9  1  0
  3  4  2  0
  4  5  1  0
  4  6  1  0
  5 12  1  0
  6 13  1  0
 10 11  1  0
 12 14  1  0
 13 15  1  0
M  END
>  <PUBCHEM_COMPOUND_CID>  (1) 
17425

>  <PUBCHEM_CONFORMER_RMSD>  (1) 
0.8

>  <PUBCHEM_CONFORMER_DIVERSEORDER>  (1) 
1
48
21
26
58
27
39
25
49
5
60
24
38
23
29
56
54
9
50
18
34
52
13
40
62
41
19
51
20
55
3
47
45
2
11
53
46
31
36
7
30
44
43
12
37
8
33
35
57
10
42
61
6
28
14
4
17
22
32
16
15
59

>  <PUBCHEM_MMFF94_PARTIAL_CHARGES>  (1) 
12
1 1.09
10 0.11
12 0.28
13 0.28
2 -0.48
3 -0.68
4 1.47
5 -0.55
6 -0.55
7 -0.65
8 -0.65
9 0.34

>  <PUBCHEM_EFFECTIVE_ROTOR_COUNT>  (1) 
8

>  <PUBCHEM_PHARMACOPHORE_FEATURES>  (1) 
2
1 7 acceptor
1 8 acceptor

>  <PUBCHEM_HEAVY_ATOM_COUNT>  (1) 
15

>  <PUBCHEM_ATOM_DEF_STEREO_COUNT>  (1) 
0

>  <PUBCHEM_ATOM_UDEF_STEREO_COUNT>  (1) 
0

>  <PUBCHEM_BOND_DEF_STEREO_COUNT>  (1) 
0

>  <PUBCHEM_BOND_UDEF_STEREO_COUNT>  (1) 
0

>  <PUBCHEM_ISOTOPIC_ATOM_COUNT>  (1) 
0

>  <PUBCHEM_COMPONENT_COUNT>  (1) 
1

>  <PUBCHEM_CACTVS_TAUTO_COUNT>  (1) 
1

>  <PUBCHEM_CONFORMER_ID>  (1) 
0000441100000001

>  <PUBCHEM_MMFF94_ENERGY>  (1) 
0.4604

>  <PUBCHEM_FEATURE_SELFOVERLAP>  (1) 
10.166

>  <PUBCHEM_SHAPE_FINGERPRINT>  (1) 
10366900 7 18129932481610523848
11036077 51 18337387128310838691
12596599 1 18113907078240051686
13275264 69 18120111712486679331
14178342 30 18407761422045360122
187816 3 18339061766783521303
20600515 1 17757789619979368641
20671657 1 17549542908025903249
21339142 149 18343581837373016751
21524375 3 17840597998337926693
21650355 55 18267026235686884411
2306618 200 18113607985260182469
23402539 116 18341880905848935781
23557571 272 18265608960808657786
23558518 356 18341334371065503175
3248919 1 18410856572867570300
81228 2 18342175574833628809
90127 26 17917709120058429664

>  <PUBCHEM_SHAPE_MULTIPOLES>  (1) 
300.61
7.97
3.53
1.54
10.2
0.42
0.18
-1.06
-0.53
-5.13
-2.46
-0.45
0.05
-0.32

>  <PUBCHEM_SHAPE_SELFOVERLAP>  (1) 
503.856

>  <PUBCHEM_SHAPE_VOLUME>  (1) 
205.3

>  <PUBCHEM_COORDINATE_TYPE>  (1) 
2
5
10

$$$$
