17427
     RDKit          3D

 15 14  0  0  0  0  0  0  0  0999 V2000
   -3.1172   -0.3085   -0.3730 S   0  0  0  0  0  0  0  0  0  0  0  0
   -0.1699   -0.7819   -0.6483 S   0  0  0  0  0  0  0  0  0  0  0  0
    1.5742   -0.5048    0.4882 P   0  0  0  0  0  0  0  0  0  0  0  0
    2.8545   -0.9293   -0.4196 O   0  0  0  0  0  0  0  0  0  0  0  0
    1.8453    1.0820    0.7134 O   0  0  0  0  0  0  0  0  0  0  0  0
   -3.4434   -1.7160   -0.4985 O   0  0  0  0  0  0  0  0  0  0  0  0
   -3.1465    0.5739   -1.5234 O   0  0  0  0  0  0  0  0  0  0  0  0
    1.5035   -1.2758    1.7805 O   0  0  0  0  0  0  0  0  0  0  0  0
   -1.5139   -0.1720    0.3960 C   0  0  0  0  0  0  0  0  0  0  0  0
   -4.1992    0.3811    0.8546 C   0  0  0  0  0  0  0  0  0  0  0  0
   -5.6404    0.3630    0.3968 C   0  0  0  0  0  0  0  0  0  0  0  0
    4.1559   -0.7625    0.1165 C   0  0  0  0  0  0  0  0  0  0  0  0
    1.9352    1.9275   -0.4199 C   0  0  0  0  0  0  0  0  0  0  0  0
    5.1730   -1.2232   -0.9057 C   0  0  0  0  0  0  0  0  0  0  0  0
    2.1889    3.3465    0.0424 C   0  0  0  0  0  0  0  0  0  0  0  0
  1  6  2  0
  1  7  2  0
  1  9  1  0
  1 10  1  0
  2  3  1  0
  2  9  1  0
  3  4  1  0
  3  5  1  0
  3  8  2  0
  4 12  1  0
  5 13  1  0
 10 11  1  0
 12 14  1  0
 13 15  1  0
M  END
>  <PUBCHEM_COMPOUND_CID>  (1) 
17427

>  <PUBCHEM_CONFORMER_RMSD>  (1) 
0.8

>  <PUBCHEM_CONFORMER_DIVERSEORDER>  (1) 
1
64
23
14
57
24
94
103
42
89
53
48
30
70
46
65
81
62
29
79
69
88
38
82
92
35
17
77
4
85
12
66
72
28
67
27
50
26
101
34
11
93
7
31
100
71
87
98
13
59
58
47
41
75
20
40
25
95
49
54
80
39
84
44
102
10
86
63
76
2
15
78
68
6
104
74
19
97
3
83
96
33
56
8
21
18
45
22
60
51
36
90
73
5
32
37
52
43
9
61
91
16
99
55

>  <PUBCHEM_MMFF94_PARTIAL_CHARGES>  (1) 
12
1 1.09
10 0.11
12 0.28
13 0.28
2 -0.48
3 1.49
4 -0.55
5 -0.55
6 -0.65
7 -0.65
8 -0.7
9 0.34

>  <PUBCHEM_EFFECTIVE_ROTOR_COUNT>  (1) 
8

>  <PUBCHEM_PHARMACOPHORE_FEATURES>  (1) 
3
1 6 acceptor
1 7 acceptor
1 8 acceptor

>  <PUBCHEM_HEAVY_ATOM_COUNT>  (1) 
15

>  <PUBCHEM_ATOM_DEF_STEREO_COUNT>  (1) 
0

>  <PUBCHEM_ATOM_UDEF_STEREO_COUNT>  (1) 
0

>  <PUBCHEM_BOND_DEF_STEREO_COUNT>  (1) 
0

>  <PUBCHEM_BOND_UDEF_STEREO_COUNT>  (1) 
0

>  <PUBCHEM_ISOTOPIC_ATOM_COUNT>  (1) 
0

>  <PUBCHEM_COMPONENT_COUNT>  (1) 
1

>  <PUBCHEM_CACTVS_TAUTO_COUNT>  (1) 
1

>  <PUBCHEM_CONFORMER_ID>  (1) 
0000441300000001

>  <PUBCHEM_MMFF94_ENERGY>  (1) 
1.3851

>  <PUBCHEM_FEATURE_SELFOVERLAP>  (1) 
15.24

>  <PUBCHEM_SHAPE_FINGERPRINT>  (1) 
10366900 7 17458064863545081417
12617007 42 18342469127548279668
12916754 54 18339357582540202863
12932764 1 17968084322836598407
14115302 16 17346600793810130478
15048467 5 17346591989897151394
15375358 24 11815896760224341013
17041 50 18409720742885673252
18186145 218 18335973238278284707
187816 3 18114191796381573402
20671657 1 18269274736823248468
20671657 53 18413110537492569300
21054139 6 8069443882256266441
21503847 285 18409167722775463929
21524375 3 17831007293257906872
23402539 116 13614229352626181067
23503958 25 17530954779190144037
23532345 12 17989207053301790839
23557571 272 16414927339702498048
23558518 356 17682960256006887274
23598291 2 18200583825967274207
312423 11 18199181965980185759
3250762 1 17829061149529829722
474229 33 9294993662185426540
58051976 100 18409729582218986359
633830 44 18262231226770595915
9971528 1 18201997725143558976

>  <PUBCHEM_SHAPE_MULTIPOLES>  (1) 
290.89
10.81
2.26
1.14
5.76
2.53
-0.11
-2.08
0.73
-2.65
0.13
0.1
-0.21
-0.08

>  <PUBCHEM_SHAPE_SELFOVERLAP>  (1) 
498.548

>  <PUBCHEM_SHAPE_VOLUME>  (1) 
194.7

>  <PUBCHEM_COORDINATE_TYPE>  (1) 
2
5
10

$$$$
