17434
     RDKit          3D

 19 18  0  0  0  0  0  0  0  0999 V2000
    2.0892   -2.1807   -0.7024 S   0  0  0  0  0  0  0  0  0  0  0  0
    4.1952   -0.0095    1.0814 S   0  0  0  0  0  0  0  0  0  0  0  0
    2.3962   -0.3869    0.3952 P   0  0  0  0  0  0  0  0  0  0  0  0
    1.8106    0.8385   -0.5156 O   0  0  0  0  0  0  0  0  0  0  0  0
    1.2680   -0.3483    1.5783 O   0  0  0  0  0  0  0  0  0  0  0  0
   -1.8112    0.9110   -0.6998 O   0  0  0  0  0  0  0  0  0  0  0  0
   -0.2138   -0.7500   -1.8473 O   0  0  0  0  0  0  0  0  0  0  0  0
   -3.5565    0.0045    0.4597 O   0  0  0  0  0  0  0  0  0  0  0  0
   -1.8107   -1.3806   -0.2674 N   0  0  0  0  0  0  0  0  0  0  0  0
    0.3482   -2.6101   -0.4325 C   0  0  0  0  0  0  0  0  0  0  0  0
   -0.5612   -1.5028   -0.9329 C   0  0  0  0  0  0  0  0  0  0  0  0
    2.4671    1.2186   -1.7135 C   0  0  0  0  0  0  0  0  0  0  0  0
    1.0874    0.8218    2.3588 C   0  0  0  0  0  0  0  0  0  0  0  0
   -2.5080   -2.5272    0.3069 C   0  0  0  0  0  0  0  0  0  0  0  0
   -2.4748   -0.1304   -0.1117 C   0  0  0  0  0  0  0  0  0  0  0  0
    1.7130    2.3691   -2.3454 C   0  0  0  0  0  0  0  0  0  0  0  0
   -0.0132    0.5757    3.3687 C   0  0  0  0  0  0  0  0  0  0  0  0
   -2.4450    2.1928   -0.6195 C   0  0  0  0  0  0  0  0  0  0  0  0
   -1.9807    2.8944    0.6390 C   0  0  0  0  0  0  0  0  0  0  0  0
  1  3  1  0
  1 10  1  0
  2  3  2  0
  3  4  1  0
  3  5  1  0
  4 12  1  0
  5 13  1  0
  6 15  1  0
  6 18  1  0
  7 11  2  0
  8 15  2  0
  9 11  1  0
  9 14  1  0
  9 15  1  0
 10 11  1  0
 12 16  1  0
 13 17  1  0
 18 19  1  0
M  END
>  <PUBCHEM_COMPOUND_CID>  (1) 
17434

>  <PUBCHEM_CONFORMER_RMSD>  (1) 
1

>  <PUBCHEM_CONFORMER_DIVERSEORDER>  (1) 
2
123
130
108
25
14
73
56
17
68
118
111
91
121
67
59
64
38
129
125
110
50
40
109
119
97
45
113
84
127
82
30
95
78
10
94
99
9
102
52
88
61
27
53
70
32
43
135
13
122
62
81
114
24
7
36
104
116
26
105
49
92
42
85
20
80
12
48
69
57
46
126
86
71
72
65
5
132
75
19
106
96
128
44
34
100
107
79
134
93
33
117
41
87
89
76
47
55
112
60
66
1
29
133
21
137
141
90
131
23
22
74
142
139
83
120
101
11
31
28
77
140
124
3
39
16
58
18
37
136
51
63
35
6
98
115
15
4
103
8
138
54

>  <PUBCHEM_MMFF94_PARTIAL_CHARGES>  (1) 
16
1 -0.48
10 0.29
11 0.57
12 0.28
13 0.28
14 0.3
15 0.78
18 0.28
2 -0.68
3 1.47
4 -0.55
5 -0.55
6 -0.43
7 -0.57
8 -0.57
9 -0.42

>  <PUBCHEM_EFFECTIVE_ROTOR_COUNT>  (1) 
11

>  <PUBCHEM_PHARMACOPHORE_FEATURES>  (1) 
2
1 7 acceptor
1 8 acceptor

>  <PUBCHEM_HEAVY_ATOM_COUNT>  (1) 
19

>  <PUBCHEM_ATOM_DEF_STEREO_COUNT>  (1) 
0

>  <PUBCHEM_ATOM_UDEF_STEREO_COUNT>  (1) 
0

>  <PUBCHEM_BOND_DEF_STEREO_COUNT>  (1) 
0

>  <PUBCHEM_BOND_UDEF_STEREO_COUNT>  (1) 
0

>  <PUBCHEM_ISOTOPIC_ATOM_COUNT>  (1) 
0

>  <PUBCHEM_COMPONENT_COUNT>  (1) 
1

>  <PUBCHEM_CACTVS_TAUTO_COUNT>  (1) 
1

>  <PUBCHEM_CONFORMER_ID>  (1) 
0000441A00000002

>  <PUBCHEM_MMFF94_ENERGY>  (1) 
21.1044

>  <PUBCHEM_FEATURE_SELFOVERLAP>  (1) 
10.149

>  <PUBCHEM_SHAPE_FINGERPRINT>  (1) 
11370993 70 18053928572721122000
12596599 1 17749100089416628106
14251757 17 17768572393258053604
14957384 54 17677036942001908445
15775835 57 17774993596503272175
16945 1 18412268319738044223
20511035 2 18199743648469959439
20600515 1 16963730061819669794
23352939 185 15962351143970964158
23419403 2 16471163855034099522
3524813 1 17917132975131940985
3797600 57 17172366846817745418

>  <PUBCHEM_SHAPE_MULTIPOLES>  (1) 
368.23
5.23
3.15
2.53
0.62
0.15
-1.53
-0.72
-0.42
-1.42
1.1
1.32
-1.53
-0.38

>  <PUBCHEM_SHAPE_SELFOVERLAP>  (1) 
658.285

>  <PUBCHEM_SHAPE_VOLUME>  (1) 
240.4

>  <PUBCHEM_COORDINATE_TYPE>  (1) 
2
5
10

$$$$
