17430
     RDKit          3D

 17 18  0  0  0  0  0  0  0  0999 V2000
   -5.4066   -0.2600    0.2187 O   0  0  0  0  0  0  0  0  0  0  0  0
    0.0835   -0.0893   -0.5707 N   0  0  0  0  0  0  0  0  0  0  0  0
    0.6725   -0.0324    0.5343 N   0  0  0  0  0  0  0  0  0  0  0  0
    6.2129    0.1347   -0.2536 N   0  0  0  0  0  0  0  0  0  0  0  0
   -1.3071   -0.1321   -0.3721 C   0  0  0  0  0  0  0  0  0  0  0  0
    2.0563    0.0100    0.3373 C   0  0  0  0  0  0  0  0  0  0  0  0
   -4.0602   -0.2180    0.0248 C   0  0  0  0  0  0  0  0  0  0  0  0
    4.8172    0.0929   -0.0552 C   0  0  0  0  0  0  0  0  0  0  0  0
   -2.0334    1.0530   -0.3138 C   0  0  0  0  0  0  0  0  0  0  0  0
   -1.9468   -1.3601   -0.2335 C   0  0  0  0  0  0  0  0  0  0  0  0
   -3.4134    1.0100   -0.1148 C   0  0  0  0  0  0  0  0  0  0  0  0
   -3.3267   -1.4032   -0.0345 C   0  0  0  0  0  0  0  0  0  0  0  0
    2.7046    1.2372    0.1996 C   0  0  0  0  0  0  0  0  0  0  0  0
    2.7884   -1.1760    0.2788 C   0  0  0  0  0  0  0  0  0  0  0  0
    4.0849    1.2788    0.0032 C   0  0  0  0  0  0  0  0  0  0  0  0
    4.1688   -1.1345    0.0825 C   0  0  0  0  0  0  0  0  0  0  0  0
   -6.0947    0.9889    0.2691 C   0  0  0  0  0  0  0  0  0  0  0  0
  1  7  1  0
  1 17  1  0
  2  3  2  0
  2  5  1  0
  3  6  1  0
  4  8  1  0
  5  9  2  0
  5 10  1  0
  6 13  2  0
  6 14  1  0
  7 11  2  0
  7 12  1  0
  8 15  2  0
  8 16  1  0
  9 11  1  0
 10 12  2  0
 13 15  1  0
 14 16  2  0
M  END
>  <PUBCHEM_COMPOUND_CID>  (1) 
17430

>  <PUBCHEM_CONFORMER_RMSD>  (1) 
0.6

>  <PUBCHEM_CONFORMER_DIVERSEORDER>  (1) 
1
3
2

>  <PUBCHEM_MMFF94_PARTIAL_CHARGES>  (1) 
27
1 -0.36
10 -0.15
11 -0.15
12 -0.15
13 -0.15
14 -0.15
15 -0.15
16 -0.15
17 0.28
18 0.15
19 0.15
2 -0.18
20 0.15
21 0.15
22 0.15
23 0.15
24 0.15
25 0.15
26 0.4
27 0.4
3 -0.18
4 -0.9
5 0.18
6 0.18
7 0.08
8 0.1
9 -0.15

>  <PUBCHEM_EFFECTIVE_ROTOR_COUNT>  (1) 
3

>  <PUBCHEM_PHARMACOPHORE_FEATURES>  (1) 
5
1 1 acceptor
1 4 cation
1 4 donor
6 5 7 9 10 11 12 rings
6 6 8 13 14 15 16 rings

>  <PUBCHEM_HEAVY_ATOM_COUNT>  (1) 
17

>  <PUBCHEM_ATOM_DEF_STEREO_COUNT>  (1) 
0

>  <PUBCHEM_ATOM_UDEF_STEREO_COUNT>  (1) 
0

>  <PUBCHEM_BOND_DEF_STEREO_COUNT>  (1) 
0

>  <PUBCHEM_BOND_UDEF_STEREO_COUNT>  (1) 
0

>  <PUBCHEM_ISOTOPIC_ATOM_COUNT>  (1) 
0

>  <PUBCHEM_COMPONENT_COUNT>  (1) 
1

>  <PUBCHEM_CACTVS_TAUTO_COUNT>  (1) 
2

>  <PUBCHEM_CONFORMER_ID>  (1) 
0000441600000001

>  <PUBCHEM_MMFF94_ENERGY>  (1) 
65.1514

>  <PUBCHEM_FEATURE_SELFOVERLAP>  (1) 
25.371

>  <PUBCHEM_SHAPE_FINGERPRINT>  (1) 
10354089 29 18409449185215308704
10968037 39 18259987084920373359
12107183 9 17689996734807147257
12236239 1 18040154019844212829
13167823 11 18410008844865325442
13533116 47 13254807793631407460
13760787 19 18342454859002524134
14123238 8 18407759235605929662
1420 363 17095246912335411297
14341114 176 18409735057837629744
15048467 5 18410856563934984256
15196674 1 18339359768098028203
15242433 33 18411136939537269134
17834072 33 18411698811353497086
18186145 218 18041268937619958266
19489759 90 14261354648359145611
200 152 18131068242382554442
20279233 1 9439404670043938540
20645477 56 18335417959268303413
20645477 70 18342176605879221502
21267235 1 18409455786184312738
21652331 79 18408038515717565869
2297311 6 18341621407682035700
23402539 116 18059849572096905149
23402655 69 18411980278278291302
23557571 272 18334577910693841452
23559900 14 18341044202763736032
29717793 49 17561370573897271772
300161 21 18341604927908156594
3004659 81 18336830784898378566
3545911 37 18410292510406946532
4073 2 18041284369743778770
42 15 18335420166380359535
4214541 1 18411135835709419149
42788 4 18410855468728652385
5104073 3 18337387244211477179
522135 26 18413387627397315530
542803 24 17458063776512127836
59755656 520 16877941650430565491
77779 3 18410292523291796430
8272917 22 18272654502497178230

>  <PUBCHEM_SHAPE_MULTIPOLES>  (1) 
329.04
13.92
1.4
0.67
0.69
0.08
0
-1.85
0.52
0.12
0.01
0.01
0
-0.13

>  <PUBCHEM_SHAPE_SELFOVERLAP>  (1) 
704.598

>  <PUBCHEM_SHAPE_VOLUME>  (1) 
182.1

>  <PUBCHEM_COORDINATE_TYPE>  (1) 
2
5
10

$$$$
