17447
     RDKit          3D

 19 20  0  0  1  0  0  0  0  0999 V2000
   -0.3510    1.4690   -0.1586 N   0  0  0  0  0  0  0  0  0  0  0  0
    0.3571    0.2413   -0.3642 N   0  0  0  0  0  0  0  0  0  0  0  0
   -1.7707    1.2164   -0.4215 C   0  0  0  0  0  0  0  0  0  0  0  0
   -2.2749    0.0974    0.5080 C   0  0  0  0  0  0  0  0  0  0  0  0
   -3.7235   -0.2664    0.2860 C   0  0  0  0  0  0  0  0  0  0  0  0
   -2.5358    2.5259   -0.2302 C   0  0  0  0  0  0  0  0  0  0  0  0
    1.7730    0.5014   -0.1401 C   0  0  0  0  0  0  0  0  0  0  0  0
    2.6047   -0.7615   -0.3677 C   0  0  0  0  0  0  0  0  0  0  0  0
    4.0705   -0.5114   -0.1172 C   0  0  0  0  0  0  0  0  0  0  0  0
   -4.7076    0.3968    1.0016 C   0  0  0  0  0  0  0  0  0  0  0  0
   -4.0423   -1.2569   -0.6290 C   0  0  0  0  0  0  0  0  0  0  0  0
    4.8788   -0.0936   -1.1637 C   0  0  0  0  0  0  0  0  0  0  0  0
    4.5864   -0.7036    1.1556 C   0  0  0  0  0  0  0  0  0  0  0  0
   -6.0458    0.0606    0.7969 C   0  0  0  0  0  0  0  0  0  0  0  0
   -5.3805   -1.5933   -0.8339 C   0  0  0  0  0  0  0  0  0  0  0  0
   -6.3821   -0.9345   -0.1209 C   0  0  0  0  0  0  0  0  0  0  0  0
    6.2349    0.1373   -0.9320 C   0  0  0  0  0  0  0  0  0  0  0  0
    5.9423   -0.4726    1.3873 C   0  0  0  0  0  0  0  0  0  0  0  0
    6.7665   -0.0522    0.3435 C   0  0  0  0  0  0  0  0  0  0  0  0
  1  2  1  0
  1  3  1  0
  2  7  1  0
  3  4  1  0
  3  6  1  0
  4  5  1  0
  5 10  2  0
  5 11  1  0
  7  8  1  0
  8  9  1  0
  9 12  2  0
  9 13  1  0
 10 14  1  0
 11 15  2  0
 12 17  1  0
 13 18  2  0
 14 16  2  0
 15 16  1  0
 17 19  2  0
 18 19  1  0
M  END
>  <PUBCHEM_COMPOUND_CID>  (1) 
17447

>  <PUBCHEM_CONFORMER_RMSD>  (1) 
0.8

>  <PUBCHEM_CONFORMER_DIVERSEORDER>  (1) 
1
26
18
92
57
52
2
70
81
6
74
76
94
50
91
41
84
73
63
40
53
62
107
32
96
17
97
34
98
38
105
23
86
4
71
31
85
37
66
33
46
75
65
90
3
72
13
87
103
60
108
58
8
104
83
29
54
56
22
27
36
99
19
78
93
21
12
88
89
106
25
7
80
77
82
24
35
79
39
59
67
16
47
102
68
11
45
43
5
61
64
44
49
14
30
28
69
20
95
10
51
15
9
100
101
48
42
55

>  <PUBCHEM_MMFF94_PARTIAL_CHARGES>  (1) 
30
1 -0.63
10 -0.15
11 -0.15
12 -0.15
13 -0.15
14 -0.15
15 -0.15
16 -0.15
17 -0.15
18 -0.15
19 -0.15
2 -0.63
23 0.36
3 0.27
31 0.36
32 0.15
33 0.15
34 0.15
35 0.15
36 0.15
37 0.15
38 0.15
39 0.15
4 0.14
40 0.15
41 0.15
5 -0.14
7 0.27
8 0.14
9 -0.14

>  <PUBCHEM_EFFECTIVE_ROTOR_COUNT>  (1) 
7

>  <PUBCHEM_PHARMACOPHORE_FEATURES>  (1) 
4
1 1 donor
1 2 donor
6 5 10 11 14 15 16 rings
6 9 12 13 17 18 19 rings

>  <PUBCHEM_HEAVY_ATOM_COUNT>  (1) 
19

>  <PUBCHEM_ATOM_DEF_STEREO_COUNT>  (1) 
0

>  <PUBCHEM_ATOM_UDEF_STEREO_COUNT>  (1) 
1

>  <PUBCHEM_BOND_DEF_STEREO_COUNT>  (1) 
0

>  <PUBCHEM_BOND_UDEF_STEREO_COUNT>  (1) 
0

>  <PUBCHEM_ISOTOPIC_ATOM_COUNT>  (1) 
0

>  <PUBCHEM_COMPONENT_COUNT>  (1) 
1

>  <PUBCHEM_CACTVS_TAUTO_COUNT>  (1) 
1

>  <PUBCHEM_CONFORMER_ID>  (1) 
0000442700000001

>  <PUBCHEM_MMFF94_ENERGY>  (1) 
36.8634

>  <PUBCHEM_FEATURE_SELFOVERLAP>  (1) 
21.604

>  <PUBCHEM_SHAPE_FINGERPRINT>  (1) 
10 15 16773508941366707778
10354089 29 15554445202526185210
10447042 23 17385721392220768474
10613725 11 10881398733917728870
10803635 8 16370722647624303611
10912923 1 17967817098798921632
10968037 39 18333454257181228367
11045977 3 16702016508731597995
11315181 36 17988646315915897209
11524674 6 16343703240151036031
11724838 91 18337950190930506380
12236239 1 17530965761104722440
12516196 113 18202284710020088912
12596602 18 15913329099997951459
12730499 353 16845294926363456166
13288520 33 18411982473286147965
13533116 47 17749384841780609106
13668630 136 16153429428501267714
14123256 10 18040437702871918038
1420 363 17775567537652296990
14251752 14 16225756407346322535
14341114 176 15841554080764373098
14848160 23 15719395036078000802
14933364 13 15985107414019137114
15183329 4 13623520247255472084
15348495 7 16414907655814846914
15716309 27 18412544305936213962
17834072 8 10809345533847629110
17857418 61 18333450945455539932
18006028 8 18413387644725176685
19377110 9 18261675883198832040
200 152 17603867792952474581
20157964 124 15864074282736387046
21315763 178 18334011666553218859
22061861 79 15502373409449706914
22224240 67 16988841687679934271
2303208 19 17561091272078918228
23035841 295 18412265034035249995
23081809 10 17603872161388018748
23198884 109 14996278111758501503
23402539 116 18187364320552309861
23522609 53 18193588664035554972
23536379 177 14707205517551492786
23559900 14 17459194143143318853
29717793 49 17023183799834408358
3009799 131 14273454790833696582
312425 54 17632305553319960619
34797466 226 18201729466177123628
351380 3 18333729126292645883
3545911 37 9295288339427641181
4325135 7 18335423469832566230
5104073 3 17915738678914602866
5283156 175 17894347756909305377
559249 180 18412544328276343767
59682541 35 18272366521082273074
59682541 52 12974147593274862185
59755656 520 14045736015441886413

>  <PUBCHEM_SHAPE_MULTIPOLES>  (1) 
381.05
20.31
1.5
1.1
9.34
0.71
0.14
-6.01
1.87
-2.14
-0.27
0.86
-0.14
-0.93

>  <PUBCHEM_SHAPE_SELFOVERLAP>  (1) 
786.885

>  <PUBCHEM_SHAPE_VOLUME>  (1) 
218

>  <PUBCHEM_COORDINATE_TYPE>  (1) 
2
5
10

$$$$
