17470
     RDKit          3D

 12 13  0  0  1  0  0  0  0  0999 V2000
   -1.4300   -0.7479   -0.0057 C   0  0  0  0  0  0  0  0  0  0  0  0
   -1.8393    0.7209    0.2828 C   0  0  0  0  0  0  0  0  0  0  0  0
   -0.7294    1.6144   -0.3109 C   0  0  0  0  0  0  0  0  0  0  0  0
    0.0760   -0.6171    0.0215 C   0  0  0  0  0  0  0  0  0  0  0  0
    0.4690    0.7219   -0.1399 C   0  0  0  0  0  0  0  0  0  0  0  0
   -1.9046   -1.1995   -1.3933 C   0  0  0  0  0  0  0  0  0  0  0  0
   -1.9804   -1.6861    1.0717 C   0  0  0  0  0  0  0  0  0  0  0  0
   -0.6403    2.9607    0.3921 C   0  0  0  0  0  0  0  0  0  0  0  0
    1.0241   -1.6223    0.1571 C   0  0  0  0  0  0  0  0  0  0  0  0
    1.8117    1.0688   -0.1771 C   0  0  0  0  0  0  0  0  0  0  0  0
    2.3761   -1.2749    0.1341 C   0  0  0  0  0  0  0  0  0  0  0  0
    2.7670    0.0610   -0.0323 C   0  0  0  0  0  0  0  0  0  0  0  0
  1  2  1  0
  1  4  1  0
  1  6  1  0
  1  7  1  0
  2  3  1  0
  3  5  1  0
  3  8  1  0
  4  5  2  0
  4  9  1  0
  5 10  1  0
  9 11  2  0
 10 12  2  0
 11 12  1  0
M  END
>  <PUBCHEM_COMPOUND_CID>  (1) 
17470

>  <PUBCHEM_CONFORMER_RMSD>  (1) 
0.4

>  <PUBCHEM_CONFORMER_DIVERSEORDER>  (1) 
1
2

>  <PUBCHEM_MMFF94_PARTIAL_CHARGES>  (1) 
12
1 0.14
10 -0.15
11 -0.15
12 -0.15
25 0.15
26 0.15
27 0.15
28 0.15
3 0.14
4 -0.14
5 -0.14
9 -0.15

>  <PUBCHEM_EFFECTIVE_ROTOR_COUNT>  (1) 
0.6

>  <PUBCHEM_PHARMACOPHORE_FEATURES>  (1) 
3
3 1 6 7 hydrophobe
5 1 2 3 4 5 rings
6 4 5 9 10 11 12 rings

>  <PUBCHEM_HEAVY_ATOM_COUNT>  (1) 
12

>  <PUBCHEM_ATOM_DEF_STEREO_COUNT>  (1) 
0

>  <PUBCHEM_ATOM_UDEF_STEREO_COUNT>  (1) 
1

>  <PUBCHEM_BOND_DEF_STEREO_COUNT>  (1) 
0

>  <PUBCHEM_BOND_UDEF_STEREO_COUNT>  (1) 
0

>  <PUBCHEM_ISOTOPIC_ATOM_COUNT>  (1) 
0

>  <PUBCHEM_COMPONENT_COUNT>  (1) 
1

>  <PUBCHEM_CACTVS_TAUTO_COUNT>  (1) 
1

>  <PUBCHEM_CONFORMER_ID>  (1) 
0000443E00000001

>  <PUBCHEM_MMFF94_ENERGY>  (1) 
38.2093

>  <PUBCHEM_FEATURE_SELFOVERLAP>  (1) 
15.303

>  <PUBCHEM_SHAPE_FINGERPRINT>  (1) 
1 1 17184467612215937620
100427 49 18268708496761270001
11206711 2 18408604755921547164
12423570 1 13121882352238902555
12524768 44 18341618049012244471
13024252 1 18041278759962270447
15076042 46 18195252121990142432
16945 1 18265341598825241920
18185500 45 18340767164430122319
193761 8 18193841444461296250
20511035 2 17761223115345147300
20645476 183 17177187827654759790
20871998 184 18272374113904054511
21040471 1 17906454329393314996
21061003 4 18120104032710458115
21524375 3 17619344308071730417
2334 1 18266179611490715072
23419403 2 16533053448842354140
23552423 10 18260270745961591134
23559900 14 17693946186046563814
241688 4 18340762727739487672
2748010 2 18338796835467076364
369184 2 16226044487756010850
5084963 1 17839735967940722537
528886 8 18409165536552603754
81228 2 18338229367065868825

>  <PUBCHEM_SHAPE_MULTIPOLES>  (1) 
246.95
3.26
2.54
0.91
1.44
1.55
-0.12
-1.06
0.01
-0.73
0.35
-0.51
-0.3
-0.12

>  <PUBCHEM_SHAPE_SELFOVERLAP>  (1) 
525.312

>  <PUBCHEM_SHAPE_VOLUME>  (1) 
134.9

>  <PUBCHEM_COORDINATE_TYPE>  (1) 
2
5
10

$$$$
