17499
     RDKit          3D

 14 14  0  0  0  0  0  0  0  0999 V2000
    2.7763   -0.0304    0.7716 O   0  0  0  0  0  0  0  0  0  0  0  0
   -3.5178    1.5345    0.0898 O   0  0  0  0  0  0  0  0  0  0  0  0
    3.0871    0.3803   -1.5119 O   0  0  0  0  0  0  0  0  0  0  0  0
   -2.6545   -0.6439   -0.1703 N   0  0  0  0  0  0  0  0  0  0  0  0
   -1.2884   -0.4893    0.0672 C   0  0  0  0  0  0  0  0  0  0  0  0
    1.4437   -0.1806    0.5392 C   0  0  0  0  0  0  0  0  0  0  0  0
   -0.7718    0.7692    0.3750 C   0  0  0  0  0  0  0  0  0  0  0  0
   -0.4391   -1.5935   -0.0047 C   0  0  0  0  0  0  0  0  0  0  0  0
    0.5942    0.9236    0.6109 C   0  0  0  0  0  0  0  0  0  0  0  0
    0.9270   -1.4392    0.2314 C   0  0  0  0  0  0  0  0  0  0  0  0
   -3.6537    0.3382   -0.1452 C   0  0  0  0  0  0  0  0  0  0  0  0
   -5.0119   -0.2379   -0.4581 C   0  0  0  0  0  0  0  0  0  0  0  0
    3.5300    0.2614   -0.3772 C   0  0  0  0  0  0  0  0  0  0  0  0
    4.9789    0.4076   -0.0178 C   0  0  0  0  0  0  0  0  0  0  0  0
  1  6  1  0
  1 13  1  0
  2 11  2  0
  3 13  2  0
  4  5  1  0
  4 11  1  0
  5  7  2  0
  5  8  1  0
  6  9  2  0
  6 10  1  0
  7  9  1  0
  8 10  2  0
 11 12  1  0
 13 14  1  0
M  END
>  <PUBCHEM_COMPOUND_CID>  (1) 
17499

>  <PUBCHEM_CONFORMER_RMSD>  (1) 
0.6

>  <PUBCHEM_CONFORMER_DIVERSEORDER>  (1) 
1
12
10
9
8
6
7
11
4
3
5
14
13
2

>  <PUBCHEM_MMFF94_PARTIAL_CHARGES>  (1) 
19
1 -0.23
10 -0.15
11 0.57
12 0.06
13 0.66
14 0.06
15 0.15
16 0.15
17 0.15
18 0.15
19 0.37
2 -0.57
3 -0.57
4 -0.55
5 0.12
6 0.08
7 -0.15
8 -0.15
9 -0.15

>  <PUBCHEM_EFFECTIVE_ROTOR_COUNT>  (1) 
4

>  <PUBCHEM_PHARMACOPHORE_FEATURES>  (1) 
4
1 2 acceptor
1 3 acceptor
1 4 donor
6 5 6 7 8 9 10 rings

>  <PUBCHEM_HEAVY_ATOM_COUNT>  (1) 
14

>  <PUBCHEM_ATOM_DEF_STEREO_COUNT>  (1) 
0

>  <PUBCHEM_ATOM_UDEF_STEREO_COUNT>  (1) 
0

>  <PUBCHEM_BOND_DEF_STEREO_COUNT>  (1) 
0

>  <PUBCHEM_BOND_UDEF_STEREO_COUNT>  (1) 
0

>  <PUBCHEM_ISOTOPIC_ATOM_COUNT>  (1) 
0

>  <PUBCHEM_COMPONENT_COUNT>  (1) 
1

>  <PUBCHEM_CACTVS_TAUTO_COUNT>  (1) 
2

>  <PUBCHEM_CONFORMER_ID>  (1) 
0000445B00000001

>  <PUBCHEM_MMFF94_ENERGY>  (1) 
41.4612

>  <PUBCHEM_FEATURE_SELFOVERLAP>  (1) 
20.297

>  <PUBCHEM_SHAPE_FINGERPRINT>  (1) 
11401426 45 18271802441093516522
114248 4 17132114658211773644
11543360 7 15913034465204152449
12119455 92 14996279236370072082
12251169 10 10665230353834206650
12815109 37 10592045756293857143
13705890 14 15985100842476483494
13760787 19 17676483968930695491
14911166 2 18272369797393278610
14943859 89 18261111893668217482
14993402 34 18335421283129911205
15375358 24 17846498166773813640
16945 1 18343021107480045635
18186145 218 17775278370257271217
187816 3 18059859475848241546
200 152 14692576507207568754
20233049 118 18409445890864830784
20279233 1 17632583772937891910
20645476 183 18187087303604381514
20645477 70 16773807961216160342
21119208 17 18187086161300764780
21293036 1 18272933829662608258
231179 274 17458337520505520815
23402539 116 18273489083646604052
23402655 69 18270389500486417621
23559900 14 18273496802198635552
2748010 2 17982162623957546699
3071541 37 18336546019064122083
366044 4 18411417327887390450
4047638 21 16443064993387447144
42 15 9079119955608249284
4990 188 17775288257008196823

>  <PUBCHEM_SHAPE_MULTIPOLES>  (1) 
265.52
8.96
1.27
0.85
1.09
0.21
-0.15
-1.94
-1.94
0.46
0.09
-0.5
-0.06
-0.2

>  <PUBCHEM_SHAPE_SELFOVERLAP>  (1) 
546.53

>  <PUBCHEM_SHAPE_VOLUME>  (1) 
150.4

>  <PUBCHEM_COORDINATE_TYPE>  (1) 
2
5
10

$$$$
