17496
     RDKit          3D

 13 13  0  0  0  0  0  0  0  0999 V2000
    5.0440    0.3996    0.0009 Cl  0  0  0  0  0  0  0  0  0  0  0  0
   -3.0069   -0.4174   -0.0002 O   0  0  0  0  0  0  0  0  0  0  0  0
   -1.7318    1.4811   -0.0001 O   0  0  0  0  0  0  0  0  0  0  0  0
   -0.7665   -0.6564   -0.0004 N   0  0  0  0  0  0  0  0  0  0  0  0
    0.6061   -0.4070   -0.0005 C   0  0  0  0  0  0  0  0  0  0  0  0
    1.5082   -1.4707   -0.0002 C   0  0  0  0  0  0  0  0  0  0  0  0
    1.0763    0.9063   -0.0004 C   0  0  0  0  0  0  0  0  0  0  0  0
   -4.1894    0.3910    0.0005 C   0  0  0  0  0  0  0  0  0  0  0  0
    2.8806   -1.2213    0.0002 C   0  0  0  0  0  0  0  0  0  0  0  0
    2.4486    1.1559   -0.0001 C   0  0  0  0  0  0  0  0  0  0  0  0
    3.3510    0.0920    0.0001 C   0  0  0  0  0  0  0  0  0  0  0  0
   -1.8161    0.2590   -0.0005 C   0  0  0  0  0  0  0  0  0  0  0  0
   -5.4041   -0.5123    0.0007 C   0  0  0  0  0  0  0  0  0  0  0  0
  1 11  1  0
  2  8  1  0
  2 12  1  0
  3 12  2  0
  4  5  1  0
  4 12  1  0
  5  6  2  0
  5  7  1  0
  6  9  1  0
  7 10  2  0
  8 13  1  0
  9 11  2  0
 10 11  1  0
M  END
>  <PUBCHEM_COMPOUND_CID>  (1) 
17496

>  <PUBCHEM_CONFORMER_RMSD>  (1) 
0.6

>  <PUBCHEM_CONFORMER_DIVERSEORDER>  (1) 
1
7
10
2
8
9
11
3
6
5
4

>  <PUBCHEM_MMFF94_PARTIAL_CHARGES>  (1) 
17
1 -0.18
10 -0.15
11 0.18
12 0.78
14 0.15
15 0.15
16 0.37
19 0.15
2 -0.43
20 0.15
3 -0.57
4 -0.55
5 0.12
6 -0.15
7 -0.15
8 0.28
9 -0.15

>  <PUBCHEM_EFFECTIVE_ROTOR_COUNT>  (1) 
4

>  <PUBCHEM_PHARMACOPHORE_FEATURES>  (1) 
3
1 3 acceptor
1 4 donor
6 5 6 7 9 10 11 rings

>  <PUBCHEM_HEAVY_ATOM_COUNT>  (1) 
13

>  <PUBCHEM_ATOM_DEF_STEREO_COUNT>  (1) 
0

>  <PUBCHEM_ATOM_UDEF_STEREO_COUNT>  (1) 
0

>  <PUBCHEM_BOND_DEF_STEREO_COUNT>  (1) 
0

>  <PUBCHEM_BOND_UDEF_STEREO_COUNT>  (1) 
0

>  <PUBCHEM_ISOTOPIC_ATOM_COUNT>  (1) 
0

>  <PUBCHEM_COMPONENT_COUNT>  (1) 
1

>  <PUBCHEM_CACTVS_TAUTO_COUNT>  (1) 
2

>  <PUBCHEM_CONFORMER_ID>  (1) 
0000445800000001

>  <PUBCHEM_MMFF94_ENERGY>  (1) 
27.1486

>  <PUBCHEM_FEATURE_SELFOVERLAP>  (1) 
15.223

>  <PUBCHEM_SHAPE_FINGERPRINT>  (1) 
11471102 20 18410573981088605478
12932764 1 16988264400866955620
13380535 76 18408888447022689610
14123238 8 18410855464444234617
14252887 29 17989215823598804550
14325111 11 18410573950797039488
15196674 1 18338798905498901124
17802600 8 18410570686680306592
17834072 33 18272930557145448711
18522853 276 18413388726508270160
200 152 18273211993657364161
20279233 1 17749116586211984363
20645477 70 18339079285275236966
21267235 1 18411990151849065526
22485316 2 18410571782487511951
23402539 116 18334569166150735575
23402655 69 18341326708806904325
26918003 58 18113337531237897627
33824 294 18334575720128859242
4047638 21 17060335249717271698
42788 4 18410855464423168076
5104073 3 18338797801771285377
69090 78 18410571803698864171

>  <PUBCHEM_SHAPE_MULTIPOLES>  (1) 
252.68
10.03
1.3
0.6
7.66
0.05
0
-0.06
0
-0.53
0
-0.06
0
0

>  <PUBCHEM_SHAPE_SELFOVERLAP>  (1) 
506.287

>  <PUBCHEM_SHAPE_VOLUME>  (1) 
149.5

>  <PUBCHEM_COORDINATE_TYPE>  (1) 
2
5
10

$$$$
