17492
     RDKit          3D

 28 29  0  0  0  0  0  0  0  0999 V2000
   -0.7392   -1.9448   -0.2671 S   0  0  0  0  0  0  0  0  0  0  0  0
   -0.1838   -2.0244    1.7119 S   0  0  0  0  0  0  0  0  0  0  0  0
   -1.5222    0.2430   -2.4702 O   0  0  0  0  0  0  0  0  0  0  0  0
    2.9701   -1.9044    2.0010 O   0  0  0  0  0  0  0  0  0  0  0  0
   -2.0240    1.9241   -0.9523 N   0  0  0  0  0  0  0  0  0  0  0  0
    3.3441   -0.5740    0.1390 N   0  0  0  0  0  0  0  0  0  0  0  0
    0.1821    3.0120   -1.0591 C   0  0  0  0  0  0  0  0  0  0  0  0
    3.7843   -2.4494   -1.4055 C   0  0  0  0  0  0  0  0  0  0  0  0
   -1.2502    2.9591   -1.5802 C   0  0  0  0  0  0  0  0  0  0  0  0
    4.3649   -1.4046   -0.4583 C   0  0  0  0  0  0  0  0  0  0  0  0
    1.0019    4.1310   -1.7055 C   0  0  0  0  0  0  0  0  0  0  0  0
    3.0307   -1.8232   -2.5810 C   0  0  0  0  0  0  0  0  0  0  0  0
    2.4055    4.1980   -1.1239 C   0  0  0  0  0  0  0  0  0  0  0  0
    2.5153   -2.8857   -3.5394 C   0  0  0  0  0  0  0  0  0  0  0  0
   -2.0978    0.6305   -1.4567 C   0  0  0  0  0  0  0  0  0  0  0  0
    2.7073   -0.8841    1.3441 C   0  0  0  0  0  0  0  0  0  0  0  0
   -2.9618   -0.3165   -0.7058 C   0  0  0  0  0  0  0  0  0  0  0  0
    1.6794    0.0433    1.8035 C   0  0  0  0  0  0  0  0  0  0  0  0
   -2.4645   -1.4889   -0.1362 C   0  0  0  0  0  0  0  0  0  0  0  0
    0.3561   -0.3496    2.0038 C   0  0  0  0  0  0  0  0  0  0  0  0
   -4.3143    0.0007   -0.5800 C   0  0  0  0  0  0  0  0  0  0  0  0
    2.0589    1.3639    2.0440 C   0  0  0  0  0  0  0  0  0  0  0  0
   -3.3198   -2.3436    0.5591 C   0  0  0  0  0  0  0  0  0  0  0  0
   -0.5878    0.5781    2.4448 C   0  0  0  0  0  0  0  0  0  0  0  0
   -5.1695   -0.8543    0.1154 C   0  0  0  0  0  0  0  0  0  0  0  0
    1.1149    2.2916    2.4847 C   0  0  0  0  0  0  0  0  0  0  0  0
   -4.6723   -2.0264    0.6849 C   0  0  0  0  0  0  0  0  0  0  0  0
   -0.2083    1.8987    2.6851 C   0  0  0  0  0  0  0  0  0  0  0  0
  1  2  1  0
  1 19  1  0
  2 20  1  0
  3 15  2  0
  4 16  2  0
  5  9  1  0
  5 15  1  0
  6 10  1  0
  6 16  1  0
  7  9  1  0
  7 11  1  0
  8 10  1  0
  8 12  1  0
 11 13  1  0
 12 14  1  0
 15 17  1  0
 16 18  1  0
 17 19  2  0
 17 21  1  0
 18 20  2  0
 18 22  1  0
 19 23  1  0
 20 24  1  0
 21 25  2  0
 22 26  2  0
 23 27  2  0
 24 28  2  0
 25 27  1  0
 26 28  1  0
M  END
>  <PUBCHEM_COMPOUND_CID>  (1) 
17492

>  <PUBCHEM_CONFORMER_RMSD>  (1) 
1.2

>  <PUBCHEM_CONFORMER_DIVERSEORDER>  (1) 
1
34
73
36
63
66
24
32
46
55
14
28
78
56
85
89
29
82
64
71
43
10
54
61
72
21
58
45
41
59
91
60
67
40
39
53
50
42
86
11
2
37
76
23
25
52
81
17
74
12
69
88
5
68
70
35
83
38
3
90
27
8
31
80
62
30
84
47
87
48
4
75
16
44
65
15
49
79
51
9
22
6
19
77
20
7
57
18
13
33
26

>  <PUBCHEM_MMFF94_PARTIAL_CHARGES>  (1) 
32
1 -0.1
10 0.3
15 0.54
16 0.54
17 0.09
18 0.09
19 0.1
2 -0.1
20 0.1
21 -0.15
22 -0.15
23 -0.15
24 -0.15
25 -0.15
26 -0.15
27 -0.15
28 -0.15
3 -0.57
4 -0.57
41 0.37
42 0.37
49 0.15
5 -0.73
50 0.15
51 0.15
52 0.15
53 0.15
54 0.15
55 0.15
56 0.15
6 -0.73
9 0.3

>  <PUBCHEM_EFFECTIVE_ROTOR_COUNT>  (1) 
13

>  <PUBCHEM_PHARMACOPHORE_FEATURES>  (1) 
8
1 13 hydrophobe
1 14 hydrophobe
1 3 acceptor
1 4 acceptor
1 5 donor
1 6 donor
6 17 19 21 23 25 27 rings
6 18 20 22 24 26 28 rings

>  <PUBCHEM_HEAVY_ATOM_COUNT>  (1) 
28

>  <PUBCHEM_ATOM_DEF_STEREO_COUNT>  (1) 
0

>  <PUBCHEM_ATOM_UDEF_STEREO_COUNT>  (1) 
0

>  <PUBCHEM_BOND_DEF_STEREO_COUNT>  (1) 
0

>  <PUBCHEM_BOND_UDEF_STEREO_COUNT>  (1) 
0

>  <PUBCHEM_ISOTOPIC_ATOM_COUNT>  (1) 
0

>  <PUBCHEM_COMPONENT_COUNT>  (1) 
1

>  <PUBCHEM_CACTVS_TAUTO_COUNT>  (1) 
3

>  <PUBCHEM_CONFORMER_ID>  (1) 
0000445400000001

>  <PUBCHEM_MMFF94_ENERGY>  (1) 
42.6656

>  <PUBCHEM_FEATURE_SELFOVERLAP>  (1) 
40.596

>  <PUBCHEM_SHAPE_FINGERPRINT>  (1) 
11399939 17 17626390383095942095
12156800 1 16412425942201915233
12623949 98 17698171990962125175
14840074 17 16487251076243272942
15664445 248 18335146409607793774
35225 105 15548856187074467652
3797600 57 16081356449969652203
469060 322 18123215436064228974
6287921 2 17973711769349999361

>  <PUBCHEM_SHAPE_MULTIPOLES>  (1) 
562.23
7.61
4.71
3.42
5.1
4.16
0.1
-5.96
1.93
-3.79
3.11
-2.56
0.19
1.83

>  <PUBCHEM_SHAPE_SELFOVERLAP>  (1) 
1128.255

>  <PUBCHEM_SHAPE_VOLUME>  (1) 
331.5

>  <PUBCHEM_COORDINATE_TYPE>  (1) 
2
5
10

$$$$
