17501
     RDKit          3D

 19 20  0  0  0  0  0  0  0  0999 V2000
   -5.1052    0.0009    0.2246 S   0  0  0  0  0  0  0  0  0  0  0  0
   -5.7461   -0.0023   -1.2796 O   0  0  0  0  0  0  0  0  0  0  0  0
   -5.4738   -1.2630    0.8456 O   0  0  0  0  0  0  0  0  0  0  0  0
   -5.4461    1.2655    0.8577 O   0  0  0  0  0  0  0  0  0  0  0  0
    6.8556   -0.0029   -0.2330 O   0  0  0  0  0  0  0  0  0  0  0  0
    0.7736   -0.0006   -0.5840 N   0  0  0  0  0  0  0  0  0  0  0  0
    1.3582    0.0019    0.5249 N   0  0  0  0  0  0  0  0  0  0  0  0
   -3.3757    0.0008   -0.0138 C   0  0  0  0  0  0  0  0  0  0  0  0
   -2.6845    1.2086   -0.1116 C   0  0  0  0  0  0  0  0  0  0  0  0
   -2.6848   -1.2075   -0.1058 C   0  0  0  0  0  0  0  0  0  0  0  0
   -0.6187   -0.0001   -0.3929 C   0  0  0  0  0  0  0  0  0  0  0  0
   -1.3027    1.2080   -0.3017 C   0  0  0  0  0  0  0  0  0  0  0  0
   -1.3028   -1.2079   -0.2960 C   0  0  0  0  0  0  0  0  0  0  0  0
    2.7438    0.0012    0.3353 C   0  0  0  0  0  0  0  0  0  0  0  0
    3.4354    1.2084    0.2379 C   0  0  0  0  0  0  0  0  0  0  0  0
    3.4338   -1.2076    0.2417 C   0  0  0  0  0  0  0  0  0  0  0  0
    5.5073   -0.0015   -0.0468 C   0  0  0  0  0  0  0  0  0  0  0  0
    4.8171    1.2071    0.0467 C   0  0  0  0  0  0  0  0  0  0  0  0
    4.8156   -1.2089    0.0506 C   0  0  0  0  0  0  0  0  0  0  0  0
  1  2  1  0
  1  3  2  0
  1  4  2  0
  1  8  1  0
  5 17  1  0
  6  7  2  0
  6 11  1  0
  7 14  1  0
  8  9  2  0
  8 10  1  0
  9 12  1  0
 10 13  2  0
 11 12  2  0
 11 13  1  0
 14 15  2  0
 14 16  1  0
 15 18  1  0
 16 19  2  0
 17 18  2  0
 17 19  1  0
M  END
>  <PUBCHEM_COMPOUND_CID>  (1) 
17501

>  <PUBCHEM_CONFORMER_RMSD>  (1) 
0.6

>  <PUBCHEM_CONFORMER_DIVERSEORDER>  (1) 
1
2

>  <PUBCHEM_MMFF94_PARTIAL_CHARGES>  (1) 
29
1 1.49
10 -0.15
11 0.18
12 -0.15
13 -0.15
14 0.18
15 -0.15
16 -0.15
17 0.08
18 -0.15
19 -0.15
2 -0.68
20 0.15
21 0.15
22 0.15
23 0.15
24 0.15
25 0.15
26 0.15
27 0.15
28 0.5
29 0.45
3 -0.65
4 -0.65
5 -0.53
6 -0.18
7 -0.18
8 -0.01
9 -0.15

>  <PUBCHEM_EFFECTIVE_ROTOR_COUNT>  (1) 
3

>  <PUBCHEM_PHARMACOPHORE_FEATURES>  (1) 
7
1 2 acceptor
1 3 acceptor
1 4 acceptor
1 5 donor
4 1 2 3 4 anion
6 14 15 16 17 18 19 rings
6 8 9 10 11 12 13 rings

>  <PUBCHEM_HEAVY_ATOM_COUNT>  (1) 
19

>  <PUBCHEM_ATOM_DEF_STEREO_COUNT>  (1) 
0

>  <PUBCHEM_ATOM_UDEF_STEREO_COUNT>  (1) 
0

>  <PUBCHEM_BOND_DEF_STEREO_COUNT>  (1) 
0

>  <PUBCHEM_BOND_UDEF_STEREO_COUNT>  (1) 
0

>  <PUBCHEM_ISOTOPIC_ATOM_COUNT>  (1) 
0

>  <PUBCHEM_COMPONENT_COUNT>  (1) 
1

>  <PUBCHEM_CACTVS_TAUTO_COUNT>  (1) 
3

>  <PUBCHEM_CONFORMER_ID>  (1) 
0000445D00000001

>  <PUBCHEM_MMFF94_ENERGY>  (1) 
41.5176

>  <PUBCHEM_FEATURE_SELFOVERLAP>  (1) 
35.577

>  <PUBCHEM_SHAPE_FINGERPRINT>  (1) 
10354089 29 18412263939551624216
10968037 39 18186803590690785631
11089746 13 17846494850663623792
11315181 36 18408325505822466881
12091667 2 17846779607364412157
12107183 9 17690561879720997898
12166972 35 11383828286007800986
12236239 1 17821447962839806404
13288520 33 18113619015284726915
13533116 47 12535358857261101292
1420 363 18113622287079076858
14251764 18 18341891892681142698
14341114 176 18411422829998797000
17834072 33 18412542132635334982
17844677 252 18410018736132972545
1813 80 16950567666468361814
19489759 90 14908183053871093059
200 152 17988921167272354451
20645477 70 18270681966200419526
21033648 29 18189315957744584149
21236236 1 18340767044983973325
21267235 1 18410862049335916190
2297311 6 18340776970252091220
23035841 295 17603866706721316290
23402539 116 17846774101264090925
23536379 177 18343022177063974402
23559900 14 18409725205214359944
29717793 49 17561089103426466532
300161 21 18410847785401515914
3004659 81 18411982443247718146
3545911 37 18410573990068917172
4214541 1 18411135818650999168
42788 4 18411418414376556904
4463277 17 18408886234850534612
5104073 3 18411132576040264938
542803 24 17704072897445967680
59755656 215 18341335513743341710
77779 3 18410572886256982364

>  <PUBCHEM_SHAPE_MULTIPOLES>  (1) 
361.42
15.96
1.39
0.78
3.21
0
-0.03
-0.02
0.65
-0.05
0.09
-0.66
0
0

>  <PUBCHEM_SHAPE_SELFOVERLAP>  (1) 
765.5

>  <PUBCHEM_SHAPE_VOLUME>  (1) 
203

>  <PUBCHEM_COORDINATE_TYPE>  (1) 
2
5
10

$$$$
