17518
     RDKit          3D

 18 18  0  0  0  0  0  0  0  0999 V2000
    3.1289   -0.2088   -0.0005 Cl  0  0  0  0  0  0  0  0  0  0  0  0
   -1.3836    2.8141   -0.0001 Cl  0  0  0  0  0  0  0  0  0  0  0  0
   -1.7456   -2.6050    0.0000 Cl  0  0  0  0  0  0  0  0  0  0  0  0
    2.8171    2.2324    0.0006 O   0  0  0  0  0  0  0  0  0  0  0  0
    2.4953   -2.5871    0.0005 O   0  0  0  0  0  0  0  0  0  0  0  0
   -3.3424    1.3232    0.0006 O   0  0  0  0  0  0  0  0  0  0  0  0
    0.9936    3.4545   -0.0001 O   0  0  0  0  0  0  0  0  0  0  0  0
    0.5255   -3.5560    0.0003 O   0  0  0  0  0  0  0  0  0  0  0  0
   -3.4885   -0.8673   -0.0002 O   0  0  0  0  0  0  0  0  0  0  0  0
    1.5718    2.3457    0.0002 N   0  0  0  0  0  0  0  0  0  0  0  0
    1.2460   -2.5339    0.0001 N   0  0  0  0  0  0  0  0  0  0  0  0
   -2.8175    0.1881    0.0002 N   0  0  0  0  0  0  0  0  0  0  0  0
    0.7764    1.1588   -0.0002 C   0  0  0  0  0  0  0  0  0  0  0  0
    0.6153   -1.2517   -0.0004 C   0  0  0  0  0  0  0  0  0  0  0  0
   -1.3920    0.0930   -0.0002 C   0  0  0  0  0  0  0  0  0  0  0  0
    1.3918   -0.0929   -0.0003 C   0  0  0  0  0  0  0  0  0  0  0  0
   -0.6155    1.2518   -0.0002 C   0  0  0  0  0  0  0  0  0  0  0  0
   -0.7765   -1.1589   -0.0003 C   0  0  0  0  0  0  0  0  0  0  0  0
  1 16  1  0
  2 17  1  0
  3 18  1  0
  4 10  1  0
  5 11  1  0
  6 12  1  0
  7 10  2  0
  8 11  2  0
  9 12  2  0
 10 13  1  0
 11 14  1  0
 12 15  1  0
 13 16  2  0
 13 17  1  0
 14 16  1  0
 14 18  2  0
 15 17  2  0
 15 18  1  0
M  CHG  6   4  -1   5  -1   6  -1  10   1  11   1  12   1
M  END
>  <PUBCHEM_COMPOUND_CID>  (1) 
17518

>  <PUBCHEM_CONFORMER_RMSD>  (1) 
0.6

>  <PUBCHEM_CONFORMER_DIVERSEORDER>  (1) 
1

>  <PUBCHEM_MMFF94_PARTIAL_CHARGES>  (1) 
18
1 -0.18
10 0.91
11 0.91
12 0.91
13 0.13
14 0.13
15 0.13
16 0.18
17 0.18
18 0.18
2 -0.18
3 -0.18
4 -0.52
5 -0.52
6 -0.52
7 -0.52
8 -0.52
9 -0.52

>  <PUBCHEM_EFFECTIVE_ROTOR_COUNT>  (1) 
3

>  <PUBCHEM_PHARMACOPHORE_FEATURES>  (1) 
10
1 4 acceptor
1 4 anion
1 5 acceptor
1 5 anion
1 6 acceptor
1 6 anion
1 7 acceptor
1 8 acceptor
1 9 acceptor
6 13 14 15 16 17 18 rings

>  <PUBCHEM_HEAVY_ATOM_COUNT>  (1) 
18

>  <PUBCHEM_ATOM_DEF_STEREO_COUNT>  (1) 
0

>  <PUBCHEM_ATOM_UDEF_STEREO_COUNT>  (1) 
0

>  <PUBCHEM_BOND_DEF_STEREO_COUNT>  (1) 
0

>  <PUBCHEM_BOND_UDEF_STEREO_COUNT>  (1) 
0

>  <PUBCHEM_ISOTOPIC_ATOM_COUNT>  (1) 
0

>  <PUBCHEM_COMPONENT_COUNT>  (1) 
1

>  <PUBCHEM_CACTVS_TAUTO_COUNT>  (1) 
1

>  <PUBCHEM_CONFORMER_ID>  (1) 
0000446E00000001

>  <PUBCHEM_MMFF94_ENERGY>  (1) 
131.0869

>  <PUBCHEM_FEATURE_SELFOVERLAP>  (1) 
50.995

>  <PUBCHEM_SHAPE_FINGERPRINT>  (1) 
10411042 1 18050568439601873191
10967382 1 18410855503083116005
12553582 1 17978795610263655823
13140716 1 18338799047206240699
14790565 3 16900761718582530408
16945 1 18410573972340395781
193761 8 18410575071841506535
19591789 44 18122069955274779142
20510252 161 16468948270331302562
20645477 70 18335129917587296895
21501502 16 18194680607877116551
2334 1 18050286169580634115
23402539 116 16754637704991450133
23526114 1 18266740379426488373
23559900 14 18198910211316403654
2748010 2 18193840580956527023
352729 6 17834113421826588678
54173680 148 17040917040762145474
7364860 26 18411700967395333603
81228 2 17402048898784035170

>  <PUBCHEM_SHAPE_MULTIPOLES>  (1) 
325.88
4.28
4.28
0.58
1.05
0.31
0
-0.31
0
-1.05
0
0
0
0

>  <PUBCHEM_SHAPE_SELFOVERLAP>  (1) 
684.197

>  <PUBCHEM_SHAPE_VOLUME>  (1) 
187.8

>  <PUBCHEM_COORDINATE_TYPE>  (1) 
2
5
10

$$$$
