17514
     RDKit          3D

 11 11  0  0  0  0  0  0  0  0999 V2000
   -2.5820   -1.9882    0.0031 O   0  0  0  0  0  0  0  0  0  0  0  0
   -1.6052    2.4911    0.0036 O   0  0  0  0  0  0  0  0  0  0  0  0
    1.8423   -0.5955   -0.0091 N   0  0  0  0  0  0  0  0  0  0  0  0
   -0.3909   -1.2717   -0.0023 N   0  0  0  0  0  0  0  0  0  0  0  0
   -2.1177    0.2717    0.0032 N   0  0  0  0  0  0  0  0  0  0  0  0
    0.1390    1.0146   -0.0031 N   0  0  0  0  0  0  0  0  0  0  0  0
    2.9012    0.3665   -0.0120 C   0  0  0  0  0  0  0  0  0  0  0  0
    0.5222   -0.2308   -0.0048 C   0  0  0  0  0  0  0  0  0  0  0  0
    4.2599   -0.3126    0.0184 C   0  0  0  0  0  0  0  0  0  0  0  0
   -1.7625   -1.0711    0.0015 C   0  0  0  0  0  0  0  0  0  0  0  0
   -1.2063    1.3259    0.0014 C   0  0  0  0  0  0  0  0  0  0  0  0
  1 10  2  0
  2 11  2  0
  3  7  1  0
  3  8  1  0
  4  8  1  0
  4 10  1  0
  5 10  1  0
  5 11  1  0
  6  8  2  0
  6 11  1  0
  7  9  1  0
M  END
>  <PUBCHEM_COMPOUND_CID>  (1) 
17514

>  <PUBCHEM_CONFORMER_RMSD>  (1) 
0.4

>  <PUBCHEM_CONFORMER_DIVERSEORDER>  (1) 
1
4
2
3

>  <PUBCHEM_MMFF94_PARTIAL_CHARGES>  (1) 
13
1 -0.57
10 0.69
11 0.84
14 0.4
15 0.37
19 0.37
2 -0.57
3 -0.82
4 -0.49
5 -0.49
6 -0.66
7 0.37
8 0.56

>  <PUBCHEM_EFFECTIVE_ROTOR_COUNT>  (1) 
2

>  <PUBCHEM_PHARMACOPHORE_FEATURES>  (1) 
7
1 1 acceptor
1 2 acceptor
1 3 donor
1 4 donor
1 5 donor
1 6 donor
6 4 5 6 8 10 11 rings

>  <PUBCHEM_HEAVY_ATOM_COUNT>  (1) 
11

>  <PUBCHEM_ATOM_DEF_STEREO_COUNT>  (1) 
0

>  <PUBCHEM_ATOM_UDEF_STEREO_COUNT>  (1) 
0

>  <PUBCHEM_BOND_DEF_STEREO_COUNT>  (1) 
0

>  <PUBCHEM_BOND_UDEF_STEREO_COUNT>  (1) 
0

>  <PUBCHEM_ISOTOPIC_ATOM_COUNT>  (1) 
0

>  <PUBCHEM_COMPONENT_COUNT>  (1) 
1

>  <PUBCHEM_CACTVS_TAUTO_COUNT>  (1) 
10

>  <PUBCHEM_CONFORMER_ID>  (1) 
0000446A00000001

>  <PUBCHEM_MMFF94_ENERGY>  (1) 
16.5906

>  <PUBCHEM_FEATURE_SELFOVERLAP>  (1) 
35.73

>  <PUBCHEM_SHAPE_FINGERPRINT>  (1) 
10857977 72 18269826661542626618
12716758 59 18268997488083599494
13024252 1 17603588525683782571
13380535 76 18197211447410499823
14325111 11 18410856521665539908
20871998 184 18273498987298051695
21040471 1 18122344571251904677
23402539 116 18343291570661665455
23552423 10 18187928438457189268
2748010 2 18195516219829873221
6333449 129 18341328911892972868

>  <PUBCHEM_SHAPE_MULTIPOLES>  (1) 
194.71
5.21
1.92
0.56
6.34
0.58
0
-0.99
0.02
-2.02
0
0.05
0
0

>  <PUBCHEM_SHAPE_SELFOVERLAP>  (1) 
393.039

>  <PUBCHEM_SHAPE_VOLUME>  (1) 
112.4

>  <PUBCHEM_COORDINATE_TYPE>  (1) 
2
5
10

$$$$
