17527
     RDKit          3D

 17 16  0  0  0  0  0  0  0  0999 V2000
    0.3495    0.2890   -1.6942 S   0  0  0  0  0  0  0  0  0  0  0  0
   -1.4914    0.0019   -0.7302 P   0  0  0  0  0  0  0  0  0  0  0  0
   -1.5469    0.9539    0.5869 O   0  0  0  0  0  0  0  0  0  0  0  0
   -1.5878   -1.4930   -0.0986 O   0  0  0  0  0  0  0  0  0  0  0  0
   -2.6288    0.2775   -1.6794 O   0  0  0  0  0  0  0  0  0  0  0  0
    4.0300   -0.2485    0.1292 N   0  0  0  0  0  0  0  0  0  0  0  0
    3.0172    0.0795   -0.9584 C   0  0  0  0  0  0  0  0  0  0  0  0
    3.8876    0.7463    1.2721 C   0  0  0  0  0  0  0  0  0  0  0  0
    3.7787   -1.6569    0.6484 C   0  0  0  0  0  0  0  0  0  0  0  0
    5.4367   -0.1632   -0.4455 C   0  0  0  0  0  0  0  0  0  0  0  0
    1.6017   -0.0793   -0.4283 C   0  0  0  0  0  0  0  0  0  0  0  0
   -1.4845    2.3596    0.4163 C   0  0  0  0  0  0  0  0  0  0  0  0
   -2.7228   -1.8707    0.6614 C   0  0  0  0  0  0  0  0  0  0  0  0
   -2.6574    2.8125   -0.4398 C   0  0  0  0  0  0  0  0  0  0  0  0
   -1.4869    3.0305    1.7815 C   0  0  0  0  0  0  0  0  0  0  0  0
   -3.9673   -1.7533   -0.2053 C   0  0  0  0  0  0  0  0  0  0  0  0
   -2.5274   -3.2858    1.1839 C   0  0  0  0  0  0  0  0  0  0  0  0
  1  2  1  0
  1 11  1  0
  2  3  1  0
  2  4  1  0
  2  5  2  0
  3 12  1  0
  4 13  1  0
  6  7  1  0
  6  8  1  0
  6  9  1  0
  6 10  1  0
  7 11  1  0
 12 14  1  0
 12 15  1  0
 13 16  1  0
 13 17  1  0
M  CHG  1   6   1
M  END
>  <PUBCHEM_COMPOUND_CID>  (1) 
17527

>  <PUBCHEM_CONFORMER_RMSD>  (1) 
0.8

>  <PUBCHEM_CONFORMER_DIVERSEORDER>  (1) 
1
66
70
48
52
54
84
46
58
50
13
56
75
71
92
55
20
99
89
29
53
57
96
59
15
64
82
38
60
83
24
68
74
76
108
43
31
101
27
63
62
41
98
107
65
6
32
14
97
94
35
2
72
47
78
39
67
26
16
36
95
17
100
44
90
93
34
12
91
9
105
22
33
21
106
102
25
81
40
3
87
7
85
86
69
37
4
19
49
61
28
77
45
5
104
103
11
10
8
80
23
79
30
18
51
42
73
88

>  <PUBCHEM_MMFF94_PARTIAL_CHARGES>  (1) 
13
1 -0.48
10 0.5
11 0.23
12 0.28
13 0.28
2 1.49
3 -0.55
4 -0.55
5 -0.7
6 -1.01
7 0.5
8 0.5
9 0.5

>  <PUBCHEM_EFFECTIVE_ROTOR_COUNT>  (1) 
8

>  <PUBCHEM_PHARMACOPHORE_FEATURES>  (1) 
4
1 5 acceptor
1 6 cation
3 12 14 15 hydrophobe
3 13 16 17 hydrophobe

>  <PUBCHEM_HEAVY_ATOM_COUNT>  (1) 
17

>  <PUBCHEM_ATOM_DEF_STEREO_COUNT>  (1) 
0

>  <PUBCHEM_ATOM_UDEF_STEREO_COUNT>  (1) 
0

>  <PUBCHEM_BOND_DEF_STEREO_COUNT>  (1) 
0

>  <PUBCHEM_BOND_UDEF_STEREO_COUNT>  (1) 
0

>  <PUBCHEM_ISOTOPIC_ATOM_COUNT>  (1) 
0

>  <PUBCHEM_COMPONENT_COUNT>  (1) 
1

>  <PUBCHEM_CACTVS_TAUTO_COUNT>  (1) 
1

>  <PUBCHEM_CONFORMER_ID>  (1) 
0000447700000001

>  <PUBCHEM_MMFF94_ENERGY>  (1) 
35.8075

>  <PUBCHEM_FEATURE_SELFOVERLAP>  (1) 
20.297

>  <PUBCHEM_SHAPE_FINGERPRINT>  (1) 
10366900 7 18273490178594420894
11036077 51 18194402182364337035
11357001 24 18410581673464722849
12500047 106 18265049142060474916
12596599 1 18041558036448859010
12824470 246 17895473734115230755
13032168 30 17968098672290790234
13275264 69 18268166386199944889
13533116 47 18268418045313765726
14178342 30 18261670390189043066
15806764 133 17274838938979108844
20510252 161 18411135844215055235
20600515 1 18338531849328556421
20645477 70 14056988413641028480
20681651 13 17967523563384940112
20681677 274 18336826523768217760
21524375 3 17696191409346835917
21650355 55 18339933713558188931
22182937 141 17845383145502758896
2306618 200 18114178623051972445
23402539 116 18342733027355245999
23419403 2 18123449838653075997
23503958 8 18408039590007925314
23557571 272 18341901796205879366
23559900 14 18188483717609810132
23598288 3 18342183301178965245
6049 1 17631752490544369596
633830 44 13183021843869973404
7615 1 18041577896171816780
81228 2 18197246722551901645
90127 26 17846776287771501684
9981440 41 17416111781505452206

>  <PUBCHEM_SHAPE_MULTIPOLES>  (1) 
334.96
8.91
3.42
1.53
12.07
0.53
-0.03
-3.23
0.69
-5.16
1.94
-0.24
0.47
0.27

>  <PUBCHEM_SHAPE_SELFOVERLAP>  (1) 
591.098

>  <PUBCHEM_SHAPE_VOLUME>  (1) 
224.2

>  <PUBCHEM_COORDINATE_TYPE>  (1) 
2
5
10

$$$$
