17534
     RDKit          3D

 19 22  0  0  0  0  0  0  0  0999 V2000
    2.1038    3.0570   -0.0008 N   0  0  0  0  0  0  0  0  0  0  0  0
   -0.5191    0.4186    0.0002 C   0  0  0  0  0  0  0  0  0  0  0  0
    0.2855   -0.7583    0.0001 C   0  0  0  0  0  0  0  0  0  0  0  0
    1.7275   -0.6653    0.0001 C   0  0  0  0  0  0  0  0  0  0  0  0
   -1.9611    0.3256    0.0002 C   0  0  0  0  0  0  0  0  0  0  0  0
    2.3386    0.6114   -0.0002 C   0  0  0  0  0  0  0  0  0  0  0  0
   -2.5725   -0.9510   -0.0003 C   0  0  0  0  0  0  0  0  0  0  0  0
    0.1549    1.6567    0.0002 C   0  0  0  0  0  0  0  0  0  0  0  0
    1.5446    1.7533   -0.0001 C   0  0  0  0  0  0  0  0  0  0  0  0
   -0.3886   -1.9965   -0.0001 C   0  0  0  0  0  0  0  0  0  0  0  0
   -1.7784   -2.0931   -0.0005 C   0  0  0  0  0  0  0  0  0  0  0  0
    2.6078   -1.7797    0.0004 C   0  0  0  0  0  0  0  0  0  0  0  0
   -2.8415    1.4401    0.0007 C   0  0  0  0  0  0  0  0  0  0  0  0
    3.7384    0.7449   -0.0001 C   0  0  0  0  0  0  0  0  0  0  0  0
   -3.9722   -1.0845   -0.0005 C   0  0  0  0  0  0  0  0  0  0  0  0
    3.9988   -1.6376    0.0003 C   0  0  0  0  0  0  0  0  0  0  0  0
    4.5648   -0.3733    0.0000 C   0  0  0  0  0  0  0  0  0  0  0  0
   -4.2326    1.2980    0.0004 C   0  0  0  0  0  0  0  0  0  0  0  0
   -4.7986    0.0337   -0.0002 C   0  0  0  0  0  0  0  0  0  0  0  0
  1  9  1  0
  2  3  1  0
  2  5  1  0
  2  8  2  0
  3  4  2  0
  3 10  1  0
  4  6  1  0
  4 12  1  0
  5  7  2  0
  5 13  1  0
  6  9  2  0
  6 14  1  0
  7 11  1  0
  7 15  1  0
  8  9  1  0
 10 11  2  0
 12 16  2  0
 13 18  2  0
 14 17  2  0
 15 19  2  0
 16 17  1  0
 18 19  1  0
M  END
>  <PUBCHEM_COMPOUND_CID>  (1) 
17534

>  <PUBCHEM_CONFORMER_RMSD>  (1) 
0.4

>  <PUBCHEM_CONFORMER_DIVERSEORDER>  (1) 
1

>  <PUBCHEM_MMFF94_PARTIAL_CHARGES>  (1) 
26
1 -0.9
10 -0.15
11 -0.15
12 -0.15
13 -0.15
14 -0.15
15 -0.15
16 -0.15
17 -0.15
18 -0.15
19 -0.15
20 0.15
21 0.15
22 0.15
23 0.15
24 0.15
25 0.15
26 0.15
27 0.15
28 0.15
29 0.15
30 0.15
31 0.4
32 0.4
8 -0.15
9 0.1

>  <PUBCHEM_EFFECTIVE_ROTOR_COUNT>  (1) 
0

>  <PUBCHEM_PHARMACOPHORE_FEATURES>  (1) 
6
1 1 cation
1 1 donor
6 2 3 4 6 8 9 rings
6 2 3 5 7 10 11 rings
6 4 6 12 14 16 17 rings
6 5 7 13 15 18 19 rings

>  <PUBCHEM_HEAVY_ATOM_COUNT>  (1) 
19

>  <PUBCHEM_ATOM_DEF_STEREO_COUNT>  (1) 
0

>  <PUBCHEM_ATOM_UDEF_STEREO_COUNT>  (1) 
0

>  <PUBCHEM_BOND_DEF_STEREO_COUNT>  (1) 
0

>  <PUBCHEM_BOND_UDEF_STEREO_COUNT>  (1) 
0

>  <PUBCHEM_ISOTOPIC_ATOM_COUNT>  (1) 
0

>  <PUBCHEM_COMPONENT_COUNT>  (1) 
1

>  <PUBCHEM_CACTVS_TAUTO_COUNT>  (1) 
1

>  <PUBCHEM_CONFORMER_ID>  (1) 
0000447E00000001

>  <PUBCHEM_MMFF94_ENERGY>  (1) 
84.7673

>  <PUBCHEM_FEATURE_SELFOVERLAP>  (1) 
30.515

>  <PUBCHEM_SHAPE_FINGERPRINT>  (1) 
10062212 137 18201432588941183159
10411042 1 17113819584286674671
10608611 8 18338233876939531649
10616163 171 18268151048555700318
10906281 52 18337690658624978906
10967382 1 18338798914115027590
11132069 177 18411132511357226930
11471102 20 18410571790576208758
11578080 2 16986580120947302283
11680986 33 18263648531417960707
116883 192 18127137372908340046
12011746 2 18410856529617301366
12236239 1 17846778499442262813
12251169 10 18411136952290022903
12403259 226 18408880741977954645
12403260 363 18412821396088847637
13140716 1 18266170824277758688
13221675 6 18408884040116958643
13862211 1 18338511950212797866
14115302 16 18113629992593401398
14178342 30 17907561877010280258
14790565 3 18122917429653459400
14866123 147 17262447197677663506
15099037 51 18410573963929965311
15196674 1 18410573980867085319
15442244 35 18411418401533885560
15536298 74 18342455962951173712
1601671 61 18411421687595369156
16945 1 18194682789720515910
17349148 13 18060699472646063655
17492 89 18339360893464843255
17804303 29 18410296908358486229
1813 80 17167863054180571764
18186145 218 17821721749999227839
19591789 44 18193556662259755238
200 152 18060696195939392703
20028762 73 18201434826852084887
20645477 70 18413108385228768022
21029758 11 18342172245922621201
21267235 1 18410865338859352418
21279426 13 18193556657922382567
21421861 104 17823689760128684890
21501502 16 18267303320842781191
221490 88 18263933291918156211
23366157 5 18041838553579225628
23402539 116 18271799090692192599
23463225 33 18410012134741325686
23558518 356 17827076513149668298
23559900 14 18343016722830243184
2748010 2 18410011073868579367
3004659 81 18187932721320825014
335352 9 18338797810287327455
34934 24 18411132550602873618
350125 39 18410296900370282521
4214541 1 18410856547161089057
474 4 17386856182583352596
495365 180 17489010643951994674
5104073 3 18410293622618776371
6138700 20 18266743468089073950
69090 78 18413666915935278055
7364860 26 18341049739419789472
77779 3 18410013234353284103
7832392 63 18412258471636360606
8809292 202 18261396684354620347
9709674 26 18339083795112125991
9981440 41 17544189841024497224

>  <PUBCHEM_SHAPE_MULTIPOLES>  (1) 
386.03
8.65
2.49
0.61
1.73
0.61
0
-0.45
0
-0.76
0
0.01
-0.01
0

>  <PUBCHEM_SHAPE_SELFOVERLAP>  (1) 
886.383

>  <PUBCHEM_SHAPE_VOLUME>  (1) 
195.1

>  <PUBCHEM_COORDINATE_TYPE>  (1) 
2
5
10

$$$$
