17545
     RDKit          3D

 14 13  0  0  0  0  0  0  0  0999 V2000
    2.0656    0.0807   -1.2315 O   0  0  0  0  0  0  0  0  0  0  0  0
   -0.3241    0.0695    0.0995 N   0  0  0  0  0  0  0  0  0  0  0  0
    3.0476    1.2050    0.5481 N   0  0  0  0  0  0  0  0  0  0  0  0
    4.3308    0.9227    0.1254 N   0  0  0  0  0  0  0  0  0  0  0  0
   -1.6271    0.3845    0.6756 C   0  0  0  0  0  0  0  0  0  0  0  0
    0.1498   -1.2297    0.5788 C   0  0  0  0  0  0  0  0  0  0  0  0
   -2.2264    1.6792    0.1002 C   0  0  0  0  0  0  0  0  0  0  0  0
   -0.8030   -2.3777    0.2034 C   0  0  0  0  0  0  0  0  0  0  0  0
    0.6474    1.1155    0.4219 C   0  0  0  0  0  0  0  0  0  0  0  0
   -2.3544    1.5579   -1.4207 C   0  0  0  0  0  0  0  0  0  0  0  0
   -3.5918    2.0145    0.7061 C   0  0  0  0  0  0  0  0  0  0  0  0
   -0.9801   -2.4257   -1.3167 C   0  0  0  0  0  0  0  0  0  0  0  0
   -0.3119   -3.7372    0.7074 C   0  0  0  0  0  0  0  0  0  0  0  0
    1.9776    0.7407   -0.1973 C   0  0  0  0  0  0  0  0  0  0  0  0
  1 14  2  0
  2  5  1  0
  2  6  1  0
  2  9  1  0
  3  4  1  0
  3 14  1  0
  5  7  1  0
  6  8  1  0
  7 10  1  0
  7 11  1  0
  8 12  1  0
  8 13  1  0
  9 14  1  0
M  END
>  <PUBCHEM_COMPOUND_CID>  (1) 
17545

>  <PUBCHEM_CONFORMER_RMSD>  (1) 
0.8

>  <PUBCHEM_CONFORMER_DIVERSEORDER>  (1) 
1
2

>  <PUBCHEM_MMFF94_PARTIAL_CHARGES>  (1) 
11
1 -0.57
14 0.57
2 -0.81
3 -0.42
35 0.37
36 0.36
37 0.36
4 -0.73
5 0.27
6 0.27
9 0.33

>  <PUBCHEM_EFFECTIVE_ROTOR_COUNT>  (1) 
7

>  <PUBCHEM_PHARMACOPHORE_FEATURES>  (1) 
6
1 1 acceptor
1 2 cation
1 3 donor
1 4 donor
3 7 10 11 hydrophobe
3 8 12 13 hydrophobe

>  <PUBCHEM_HEAVY_ATOM_COUNT>  (1) 
14

>  <PUBCHEM_ATOM_DEF_STEREO_COUNT>  (1) 
0

>  <PUBCHEM_ATOM_UDEF_STEREO_COUNT>  (1) 
0

>  <PUBCHEM_BOND_DEF_STEREO_COUNT>  (1) 
0

>  <PUBCHEM_BOND_UDEF_STEREO_COUNT>  (1) 
0

>  <PUBCHEM_ISOTOPIC_ATOM_COUNT>  (1) 
0

>  <PUBCHEM_COMPONENT_COUNT>  (1) 
1

>  <PUBCHEM_CACTVS_TAUTO_COUNT>  (1) 
2

>  <PUBCHEM_CONFORMER_ID>  (1) 
0000448900000001

>  <PUBCHEM_MMFF94_ENERGY>  (1) 
25.5806

>  <PUBCHEM_FEATURE_SELFOVERLAP>  (1) 
31.957

>  <PUBCHEM_SHAPE_FINGERPRINT>  (1) 
1 1 18192715544454233415
11322862 65 18339939172087225455
12138202 97 18343018925953144324
12500047 106 18410852183791041952
12532896 13 18411984658622758727
12759256 9 17762606301257849523
14817 1 12746208074170739039
15852999 172 18273498957575957412
16945 1 18193859242705641667
17954114 43 18195243313254857519
18186145 218 18270121201805025132
19021347 4 18410014333901848411
20524608 308 18341615970580272018
20645476 183 17896906355222582486
20645477 70 17979071588447151165
20671657 1 17979642238764887027
20711985 327 8069728720266131665
20711985 344 18124020488786480995
21524375 3 18411980230643351857
21665056 4 18408319999558556690
22713019 5 17912340302984310711
23402539 116 18269262642284896975
23419403 2 17480915953438899343
23557571 272 17907298007009986020
23598294 1 18262793089996961216
257057 1 17546723119882473762
2748010 2 18265072270032057003
305870 269 18266173920559048505
3071541 236 18338504343930731272
3250762 1 17839453728354968641
7364860 26 17908143174911126033
7615 1 17678733677760068996
81228 2 18122343746655055379
81539 233 18189901911711121557

>  <PUBCHEM_SHAPE_MULTIPOLES>  (1) 
267.3
4.93
3.65
1.14
1.74
4.79
0.4
-5.73
-0.27
-0.19
-0.32
-0.41
0.16
-0.11

>  <PUBCHEM_SHAPE_SELFOVERLAP>  (1) 
498.854

>  <PUBCHEM_SHAPE_VOLUME>  (1) 
169.3

>  <PUBCHEM_COORDINATE_TYPE>  (1) 
2
5
10

$$$$
