17542
     RDKit          3D

 12 11  0  0  0  0  0  0  0  0999 V2000
   -1.9128    0.1020    1.2778 O   0  0  0  0  0  0  0  0  0  0  0  0
    0.5758   -0.0288    0.1589 N   0  0  0  0  0  0  0  0  0  0  0  0
   -2.8254   -0.8579   -0.6302 N   0  0  0  0  0  0  0  0  0  0  0  0
   -4.1190   -0.5333   -0.2744 N   0  0  0  0  0  0  0  0  0  0  0  0
    0.3029    1.3299   -0.3155 C   0  0  0  0  0  0  0  0  0  0  0  0
    1.9076   -0.4580   -0.2747 C   0  0  0  0  0  0  0  0  0  0  0  0
   -0.4429   -0.9540   -0.3160 C   0  0  0  0  0  0  0  0  0  0  0  0
    1.3565    2.2983    0.2161 C   0  0  0  0  0  0  0  0  0  0  0  0
    2.2364   -1.8313    0.3051 C   0  0  0  0  0  0  0  0  0  0  0  0
    1.0834    3.7217   -0.2452 C   0  0  0  0  0  0  0  0  0  0  0  0
    3.6246   -2.2910   -0.1133 C   0  0  0  0  0  0  0  0  0  0  0  0
   -1.7871   -0.4977    0.2114 C   0  0  0  0  0  0  0  0  0  0  0  0
  1 12  2  0
  2  5  1  0
  2  6  1  0
  2  7  1  0
  3  4  1  0
  3 12  1  0
  5  8  1  0
  6  9  1  0
  7 12  1  0
  8 10  1  0
  9 11  1  0
M  END
>  <PUBCHEM_COMPOUND_CID>  (1) 
17542

>  <PUBCHEM_CONFORMER_RMSD>  (1) 
0.8

>  <PUBCHEM_CONFORMER_DIVERSEORDER>  (1) 
1
6
4
10
7
11
5
2
12
3
8
9

>  <PUBCHEM_MMFF94_PARTIAL_CHARGES>  (1) 
11
1 -0.57
12 0.57
2 -0.81
29 0.37
3 -0.42
30 0.36
31 0.36
4 -0.73
5 0.27
6 0.27
7 0.33

>  <PUBCHEM_EFFECTIVE_ROTOR_COUNT>  (1) 
7

>  <PUBCHEM_PHARMACOPHORE_FEATURES>  (1) 
6
1 1 acceptor
1 10 hydrophobe
1 11 hydrophobe
1 2 cation
1 3 donor
1 4 donor

>  <PUBCHEM_HEAVY_ATOM_COUNT>  (1) 
12

>  <PUBCHEM_ATOM_DEF_STEREO_COUNT>  (1) 
0

>  <PUBCHEM_ATOM_UDEF_STEREO_COUNT>  (1) 
0

>  <PUBCHEM_BOND_DEF_STEREO_COUNT>  (1) 
0

>  <PUBCHEM_BOND_UDEF_STEREO_COUNT>  (1) 
0

>  <PUBCHEM_ISOTOPIC_ATOM_COUNT>  (1) 
0

>  <PUBCHEM_COMPONENT_COUNT>  (1) 
1

>  <PUBCHEM_CACTVS_TAUTO_COUNT>  (1) 
2

>  <PUBCHEM_CONFORMER_ID>  (1) 
0000448600000001

>  <PUBCHEM_MMFF94_ENERGY>  (1) 
16.4216

>  <PUBCHEM_FEATURE_SELFOVERLAP>  (1) 
31.954

>  <PUBCHEM_SHAPE_FINGERPRINT>  (1) 
1 1 18121779705795979580
11357001 24 17758122497229653178
14648413 74 18263362662695084923
14817 1 8350744122628007696
18410436 195 18341046337504841732
19021347 4 17401203868632935148
20645477 70 18337379565527960703
20671657 1 18267870656015873061
20671657 53 18413107229998668239
20711985 327 18342182128747942334
20711985 344 17902505991785948066
20871998 184 17763755290840167240
20871998 22 18340482266828895170
21426921 1 17906734701096583406
21524375 3 17623857124730514812
23402539 116 17911506602724673045
23532345 88 18270101543971359023
23552423 10 18197777915116443647
2748010 2 18267286665271045012
305870 269 17977381964712006644
3250762 1 17900553568178030202
58734987 43 18410295804794711550
68521 5 18121782733942835662
7364860 26 18339922739658174316
81228 2 17903083235422126864

>  <PUBCHEM_SHAPE_MULTIPOLES>  (1) 
226.14
5.11
3.46
0.78
2.55
4.61
-0.11
-4.84
0.32
-2.91
0.23
0.23
-0.02
-0.18

>  <PUBCHEM_SHAPE_SELFOVERLAP>  (1) 
416.683

>  <PUBCHEM_SHAPE_VOLUME>  (1) 
144.6

>  <PUBCHEM_COORDINATE_TYPE>  (1) 
2
5
10

$$$$
