1755
     RDKit          3D

 15 14  0  0  0  0  0  0  0  0999 V2000
   -1.6931   -1.5732   -0.0484 O   0  0  0  0  0  0  0  0  0  0  0  0
    6.8977    0.7835    0.2380 O   0  0  0  0  0  0  0  0  0  0  0  0
    5.9454   -1.2740    0.0454 O   0  0  0  0  0  0  0  0  0  0  0  0
   -6.6662   -0.6125    0.2152 O   0  0  0  0  0  0  0  0  0  0  0  0
   -5.7305    1.4473    0.0217 O   0  0  0  0  0  0  0  0  0  0  0  0
    0.7904   -0.2511   -0.1544 C   0  0  0  0  0  0  0  0  0  0  0  0
    2.0186    0.6643   -0.1151 C   0  0  0  0  0  0  0  0  0  0  0  0
   -0.5200    0.5341   -0.1285 C   0  0  0  0  0  0  0  0  0  0  0  0
    3.3158   -0.1511   -0.0957 C   0  0  0  0  0  0  0  0  0  0  0  0
   -1.7612   -0.3461   -0.0948 C   0  0  0  0  0  0  0  0  0  0  0  0
    4.5598    0.7329   -0.0098 C   0  0  0  0  0  0  0  0  0  0  0  0
   -3.0907    0.3966   -0.0840 C   0  0  0  0  0  0  0  0  0  0  0  0
   -4.3003   -0.5260    0.0403 C   0  0  0  0  0  0  0  0  0  0  0  0
    5.8431   -0.0569    0.0799 C   0  0  0  0  0  0  0  0  0  0  0  0
   -5.6090    0.2322    0.0902 C   0  0  0  0  0  0  0  0  0  0  0  0
  1 10  2  0
  2 14  1  0
  3 14  2  0
  4 15  1  0
  5 15  2  0
  6  7  1  0
  6  8  1  0
  7  9  1  0
  8 10  1  0
  9 11  1  0
 10 12  1  0
 11 14  1  0
 12 13  1  0
 13 15  1  0
M  END
>  <PUBCHEM_COMPOUND_CID>  (1) 
1755

>  <PUBCHEM_CONFORMER_RMSD>  (1) 
0.8

>  <PUBCHEM_CONFORMER_DIVERSEORDER>  (1) 
1
235
65
106
14
41
243
126
105
145
57
256
125
101
39
8
83
76
149
211
24
226
63
220
90
202
107
13
273
208
69
234
115
197
46
28
45
207
192
26
238
64
36
245
81
214
152
21
12
179
270
155
42
58
50
119
92
2
191
219
131
175
49
82
48
15
73
247
223
237
110
163
216
4
190
221
100
173
71
250
144
3
55
246
59
236
56
199
160
193
260
38
200
10
257
134
72
275
47
227
85
251
122
244
162
259
136
54
117
118
252
262
20
222
174
189
44
148
254
241
128
61
228
18
111
17
249
53
205
68
32
161
91
23
201
218
11
242
96
123
9
188
62
261
272
30
180
87
116
141
263
184
37
114
60
95
239
129
187
264
6
52
153
78
150
240
132
109
143
183
224
22
196
232
16
121
89
225
103
186
93
194
33
206
99
40
139
124
248
159
34
158
120
104
35
229
29
98
255
135
203
265
127
151
164
77
170
75
94
172
185
274
79
177
233
165
182
156
215
27
258
108
147
253
43
231
230
268
195
102
112
266
212
181
171
176
25
271
169
80
67
168
5
66
157
88
133
138
84
70
74
166
210
97
213
19
178
167
204
137
51
140
7
86
142
31
146
267
209
113
217
154
269
198
130

>  <PUBCHEM_MMFF94_PARTIAL_CHARGES>  (1) 
14
1 -0.57
10 0.45
11 0.06
12 0.06
13 0.06
14 0.66
15 0.66
2 -0.65
3 -0.57
30 0.5
31 0.5
4 -0.65
5 -0.57
8 0.06

>  <PUBCHEM_EFFECTIVE_ROTOR_COUNT>  (1) 
9

>  <PUBCHEM_PHARMACOPHORE_FEATURES>  (1) 
8
1 1 acceptor
1 2 acceptor
1 3 acceptor
1 4 acceptor
1 5 acceptor
3 2 3 14 anion
3 4 5 15 anion
5 6 7 8 9 11 hydrophobe

>  <PUBCHEM_HEAVY_ATOM_COUNT>  (1) 
15

>  <PUBCHEM_ATOM_DEF_STEREO_COUNT>  (1) 
0

>  <PUBCHEM_ATOM_UDEF_STEREO_COUNT>  (1) 
0

>  <PUBCHEM_BOND_DEF_STEREO_COUNT>  (1) 
0

>  <PUBCHEM_BOND_UDEF_STEREO_COUNT>  (1) 
0

>  <PUBCHEM_ISOTOPIC_ATOM_COUNT>  (1) 
0

>  <PUBCHEM_COMPONENT_COUNT>  (1) 
1

>  <PUBCHEM_CACTVS_TAUTO_COUNT>  (1) 
3

>  <PUBCHEM_CONFORMER_ID>  (1) 
000006DB00000001

>  <PUBCHEM_MMFF94_ENERGY>  (1) 
8.0901

>  <PUBCHEM_FEATURE_SELFOVERLAP>  (1) 
40.714

>  <PUBCHEM_SHAPE_FINGERPRINT>  (1) 
12091667 2 18343864429347140455
12714333 28 14117801314529284173
13533116 47 13973695979651783620
14123238 8 11602537624308451868
1420 363 10881400924129679184
14251764 18 18412544327184145327
14251764 46 18113898273446220719
17834076 25 18410855468718102893
187816 3 13398632753676841159
20281389 69 18409448089582287097
20621476 8 17967812704661983317
20767249 213 16988843895224363696
220451 1 16081087082326192986
23035841 295 8142086455087202212
23218964 4 18411136930852187636
23402539 116 18202278117704121709
23521765 1 18341895198935619941
23536379 177 18410012126225276704
23559900 14 18131061688315306040
3545911 37 18411982463968342998
42788 4 18410293614203005093
4463277 17 18409448089872223012
57583515 80 12463571789953400701
59755656 520 18260543450995528011
8209 1 18411419518679082660

>  <PUBCHEM_SHAPE_MULTIPOLES>  (1) 
279.35
19.01
1.11
0.6
4.74
0.1
0.01
-1
-1.65
-0.19
0
0.02
-0.01
0.07

>  <PUBCHEM_SHAPE_SELFOVERLAP>  (1) 
529.108

>  <PUBCHEM_SHAPE_VOLUME>  (1) 
171

>  <PUBCHEM_COORDINATE_TYPE>  (1) 
2
5
10

$$$$
