1756
     RDKit          3D

 14 15  0  0  0  0  0  0  0  0999 V2000
    2.2629   -1.7447   -0.0003 O   0  0  0  0  0  0  0  0  0  0  0  0
    3.8148   -0.0805   -0.0009 O   0  0  0  0  0  0  0  0  0  0  0  0
    2.5943   -0.3560    0.0001 N   0  0  0  0  0  0  0  0  0  0  0  0
    0.8759   -1.8379    0.0003 N   0  0  0  0  0  0  0  0  0  0  0  0
    1.3576    2.9381   -0.0006 N   0  0  0  0  0  0  0  0  0  0  0  0
   -0.9934   -0.3264    0.0005 C   0  0  0  0  0  0  0  0  0  0  0  0
    0.4190   -0.5841    0.0010 C   0  0  0  0  0  0  0  0  0  0  0  0
   -1.6792   -0.2016   -1.2078 C   0  0  0  0  0  0  0  0  0  0  0  0
   -1.6799   -0.2006    1.2083 C   0  0  0  0  0  0  0  0  0  0  0  0
    1.4639    0.3494    0.0009 C   0  0  0  0  0  0  0  0  0  0  0  0
   -3.0514    0.0491   -1.2085 C   0  0  0  0  0  0  0  0  0  0  0  0
   -3.0522    0.0499    1.2076 C   0  0  0  0  0  0  0  0  0  0  0  0
   -3.7378    0.1748   -0.0008 C   0  0  0  0  0  0  0  0  0  0  0  0
    1.4055    1.7705    0.0001 C   0  0  0  0  0  0  0  0  0  0  0  0
  1  3  1  0
  1  4  1  0
  2  3  1  0
  3 10  2  0
  4  7  2  0
  5 14  3  0
  6  7  1  0
  6  8  2  0
  6  9  1  0
  7 10  1  0
  8 11  1  0
  9 12  2  0
 10 14  1  0
 11 13  2  0
 12 13  1  0
M  CHG  2   2  -1   3   1
M  END
>  <PUBCHEM_COMPOUND_CID>  (1) 
1756

>  <PUBCHEM_CONFORMER_RMSD>  (1) 
0.4

>  <PUBCHEM_CONFORMER_DIVERSEORDER>  (1) 
1
2
3

>  <PUBCHEM_MMFF94_PARTIAL_CHARGES>  (1) 
19
1 -0.12
10 -0.06
11 -0.15
12 -0.15
13 -0.15
14 0.54
15 0.15
16 0.15
17 0.15
18 0.15
19 0.15
2 -0.63
3 0.95
4 -0.41
5 -0.56
6 0.05
7 0.23
8 -0.15
9 -0.15

>  <PUBCHEM_EFFECTIVE_ROTOR_COUNT>  (1) 
1

>  <PUBCHEM_PHARMACOPHORE_FEATURES>  (1) 
5
1 2 anion
1 4 acceptor
1 5 acceptor
5 1 3 4 7 10 rings
6 6 8 9 11 12 13 rings

>  <PUBCHEM_HEAVY_ATOM_COUNT>  (1) 
14

>  <PUBCHEM_ATOM_DEF_STEREO_COUNT>  (1) 
0

>  <PUBCHEM_ATOM_UDEF_STEREO_COUNT>  (1) 
0

>  <PUBCHEM_BOND_DEF_STEREO_COUNT>  (1) 
0

>  <PUBCHEM_BOND_UDEF_STEREO_COUNT>  (1) 
0

>  <PUBCHEM_ISOTOPIC_ATOM_COUNT>  (1) 
0

>  <PUBCHEM_COMPONENT_COUNT>  (1) 
1

>  <PUBCHEM_CACTVS_TAUTO_COUNT>  (1) 
1

>  <PUBCHEM_CONFORMER_ID>  (1) 
000006DC00000001

>  <PUBCHEM_MMFF94_ENERGY>  (1) 
25.5563

>  <PUBCHEM_FEATURE_SELFOVERLAP>  (1) 
25.371

>  <PUBCHEM_SHAPE_FINGERPRINT>  (1) 
10219947 1 18412263913381049602
10465860 250 17749938982560628432
10857977 72 16588026848751426847
11031198 65 18261398844654436158
11471102 20 18409445881989760789
124424 183 17748816402294311722
12932764 1 17676480670685676411
14115302 16 17489574702149442143
14993402 34 18202562865076705222
15219456 202 17968097576778626237
15775835 57 17489593342038409897
16945 1 18410855464428462311
17357990 137 17559984097950151401
18175812 5 17822295729565847839
19049666 15 17677885734792259261
200 152 18343577469634220639
20201158 50 18186801353081454699
20279233 1 17603869974991228107
20645464 45 17603303756767836299
20645476 183 17917705812638323487
21130352 189 18334292080393503764
21639500 275 18339072804332701853
23175994 123 18260834748176673252
2748010 2 18048885383451258464
63268167 104 18413105056623643728
74978 22 18341614866510023847
77492 1 17703790310283821347
81228 2 17688027509840638920

>  <PUBCHEM_SHAPE_MULTIPOLES>  (1) 
261.43
5.62
1.78
1.04
0.71
1.09
0
-0.01
0
-1.84
0
1.06
-0.02
0

>  <PUBCHEM_SHAPE_SELFOVERLAP>  (1) 
565.019

>  <PUBCHEM_SHAPE_VOLUME>  (1) 
142.3

>  <PUBCHEM_COORDINATE_TYPE>  (1) 
2
5
10

$$$$
