17584
     RDKit          3D

 15 15  0  0  0  0  0  0  0  0999 V2000
   -0.8066   -2.4821   -0.0037 Cl  0  0  0  0  0  0  0  0  0  0  0  0
    2.9804    1.4116    0.0028 Cl  0  0  0  0  0  0  0  0  0  0  0  0
    0.6498    3.6044   -0.0006 Cl  0  0  0  0  0  0  0  0  0  0  0  0
    1.6568   -2.6150    0.0025 O   0  0  0  0  0  0  0  0  0  0  0  0
    3.1863   -1.0404    0.0000 O   0  0  0  0  0  0  0  0  0  0  0  0
   -3.6097    0.7486    0.0026 O   0  0  0  0  0  0  0  0  0  0  0  0
   -3.0793   -1.3816    0.0009 O   0  0  0  0  0  0  0  0  0  0  0  0
    1.9916   -1.4101    0.0007 N   0  0  0  0  0  0  0  0  0  0  0  0
   -2.7586   -0.1706    0.0012 N   0  0  0  0  0  0  0  0  0  0  0  0
    0.9668   -0.4148   -0.0011 C   0  0  0  0  0  0  0  0  0  0  0  0
   -1.3766    0.1736   -0.0008 C   0  0  0  0  0  0  0  0  0  0  0  0
   -0.3747   -0.7971   -0.0008 C   0  0  0  0  0  0  0  0  0  0  0  0
    1.3064    0.9382   -0.0013 C   0  0  0  0  0  0  0  0  0  0  0  0
   -1.0370    1.5264   -0.0010 C   0  0  0  0  0  0  0  0  0  0  0  0
    0.3044    1.9087   -0.0013 C   0  0  0  0  0  0  0  0  0  0  0  0
  1 12  1  0
  2 13  1  0
  3 15  1  0
  4  8  1  0
  5  8  2  0
  6  9  1  0
  7  9  2  0
  8 10  1  0
  9 11  1  0
 10 12  2  0
 10 13  1  0
 11 12  1  0
 11 14  2  0
 13 15  2  0
 14 15  1  0
M  CHG  4   4  -1   6  -1   8   1   9   1
M  END
>  <PUBCHEM_COMPOUND_CID>  (1) 
17584

>  <PUBCHEM_CONFORMER_RMSD>  (1) 
0.6

>  <PUBCHEM_CONFORMER_DIVERSEORDER>  (1) 
1

>  <PUBCHEM_MMFF94_PARTIAL_CHARGES>  (1) 
16
1 -0.18
10 0.13
11 0.13
12 0.18
13 0.18
14 -0.15
15 0.18
16 0.15
2 -0.18
3 -0.18
4 -0.52
5 -0.52
6 -0.52
7 -0.52
8 0.91
9 0.91

>  <PUBCHEM_EFFECTIVE_ROTOR_COUNT>  (1) 
2

>  <PUBCHEM_PHARMACOPHORE_FEATURES>  (1) 
7
1 4 acceptor
1 4 anion
1 5 acceptor
1 6 acceptor
1 6 anion
1 7 acceptor
6 10 11 12 13 14 15 rings

>  <PUBCHEM_HEAVY_ATOM_COUNT>  (1) 
15

>  <PUBCHEM_ATOM_DEF_STEREO_COUNT>  (1) 
0

>  <PUBCHEM_ATOM_UDEF_STEREO_COUNT>  (1) 
0

>  <PUBCHEM_BOND_DEF_STEREO_COUNT>  (1) 
0

>  <PUBCHEM_BOND_UDEF_STEREO_COUNT>  (1) 
0

>  <PUBCHEM_ISOTOPIC_ATOM_COUNT>  (1) 
0

>  <PUBCHEM_COMPONENT_COUNT>  (1) 
1

>  <PUBCHEM_CACTVS_TAUTO_COUNT>  (1) 
1

>  <PUBCHEM_CONFORMER_ID>  (1) 
000044B000000001

>  <PUBCHEM_MMFF94_ENERGY>  (1) 
78.7202

>  <PUBCHEM_FEATURE_SELFOVERLAP>  (1) 
35.686

>  <PUBCHEM_SHAPE_FINGERPRINT>  (1) 
10967382 1 18410575067488503973
11471102 20 18410288129756634565
12423570 1 12468625153763385664
13140716 1 18266742368075805905
13380535 76 18265047123030310890
14648413 74 18192150610268255961
16945 1 18266459995503573509
17990270 104 18337388343955173819
193761 8 17618222149286676196
20510252 161 18054502505084962240
20588541 1 18335984276080569132
20645477 70 18411414008489548591
21501502 16 18193837278227098023
2334 1 18410573959408358917
23402539 116 18270105834512156454
23463225 33 18409730625431243850
23526114 1 18410572868618359277
23552423 10 18335423443456133151
23559900 14 18053960721438205964
241688 4 18266459797840184720
2748010 2 18338511932948331396
528886 8 18267298910148771024
53812653 166 18198340847926990632
63268167 104 18411704300596105529
7364860 26 18268430311639921697
81228 2 17976264530011559944

>  <PUBCHEM_SHAPE_MULTIPOLES>  (1) 
280.86
4.36
3.43
0.59
1.63
0.31
0
0.27
0
-1.38
0
-0.04
0.04
0

>  <PUBCHEM_SHAPE_SELFOVERLAP>  (1) 
576.251

>  <PUBCHEM_SHAPE_VOLUME>  (1) 
165.2

>  <PUBCHEM_COORDINATE_TYPE>  (1) 
2
5
10

$$$$
