1759
     RDKit          3D

 20 20  0  0  0  0  0  0  0  0999 V2000
    4.8104    1.4049   -0.0794 S   0  0  0  0  0  0  0  0  0  0  0  0
   -6.6192    3.7378    0.0037 S   0  0  0  0  0  0  0  0  0  0  0  0
   -0.1585   -2.9016    1.0792 O   0  0  0  0  0  0  0  0  0  0  0  0
    5.6793    1.0616    1.0376 O   0  0  0  0  0  0  0  0  0  0  0  0
    5.3308    1.3667   -1.4389 O   0  0  0  0  0  0  0  0  0  0  0  0
   -1.0405   -1.8258   -0.7772 N   0  0  0  0  0  0  0  0  0  0  0  0
   -5.1589    1.4670   -0.1703 N   0  0  0  0  0  0  0  0  0  0  0  0
    4.1305    2.9465    0.2044 N   0  0  0  0  0  0  0  0  0  0  0  0
   -3.3786   -1.8970   -0.0093 C   0  0  0  0  0  0  0  0  0  0  0  0
   -3.7163   -0.4868   -0.5039 C   0  0  0  0  0  0  0  0  0  0  0  0
   -2.2755   -2.5579   -0.8295 C   0  0  0  0  0  0  0  0  0  0  0  0
   -4.8462    0.1298    0.3202 C   0  0  0  0  0  0  0  0  0  0  0  0
    1.1420   -1.2015    0.1218 C   0  0  0  0  0  0  0  0  0  0  0  0
   -0.0678   -2.0613    0.1881 C   0  0  0  0  0  0  0  0  0  0  0  0
    3.3883    0.3947   -0.0014 C   0  0  0  0  0  0  0  0  0  0  0  0
    1.5167   -0.6715   -1.0955 C   0  0  0  0  0  0  0  0  0  0  0  0
    1.8521   -0.9606    1.2795 C   0  0  0  0  0  0  0  0  0  0  0  0
    2.6526    0.1356   -1.1579 C   0  0  0  0  0  0  0  0  0  0  0  0
    2.9880   -0.1533    1.2172 C   0  0  0  0  0  0  0  0  0  0  0  0
   -6.2294    2.0728    0.6118 C   0  0  0  0  0  0  0  0  0  0  0  0
  1  4  2  0
  1  5  2  0
  1  8  1  0
  1 15  1  0
  2 20  1  0
  3 14  2  0
  6 11  1  0
  6 14  1  0
  7 12  1  0
  7 20  1  0
  9 10  1  0
  9 11  1  0
 10 12  1  0
 13 14  1  0
 13 16  2  0
 13 17  1  0
 15 18  2  0
 15 19  1  0
 16 18  1  0
 17 19  2  0
M  END
>  <PUBCHEM_COMPOUND_CID>  (1) 
1759

>  <PUBCHEM_CONFORMER_RMSD>  (1) 
0.8

>  <PUBCHEM_CONFORMER_DIVERSEORDER>  (1) 
1
3
195
52
26
107
186
164
56
7
44
122
87
147
12
214
127
137
162
134
191
140
105
64
67
49
185
203
90
159
48
198
119
111
138
13
133
208
142
193
156
209
65
55
118
211
139
61
21
73
28
216
92
99
154
163
19
161
121
41
51
143
35
182
212
132
57
91
189
106
113
112
181
58
17
194
8
160
50
62
184
166
192
97
31
165
54
32
80
200
187
16
172
43
4
158
204
72
188
207
40
206
178
14
109
29
213
25
96
100
135
45
150
202
169
34
152
196
146
59
157
108
114
179
101
9
141
136
173
10
177
46
168
68
104
155
145
27
176
23
24
190
84
128
116
42
125
38
199
81
88
76
85
110
78
144
63
115
197
79
149
151
102
39
180
53
210
153
86
37
69
15
175
120
174
11
22
83
89
33
167
94
171
129
93
117
77
71
148
131
2
70
124
201
75
123
18
215
103
36
98
126
47
205
95
130
183
66
5
82
170
6
74
30
60
20

>  <PUBCHEM_MMFF94_PARTIAL_CHARGES>  (1) 
27
1 1.45
11 0.3
12 0.27
13 0.09
14 0.54
15 -0.01
16 -0.15
17 -0.15
18 -0.15
19 -0.15
2 -0.41
20 0.5
29 0.37
3 -0.57
30 0.36
31 0.15
32 0.15
33 0.15
34 0.15
37 0.42
38 0.42
39 0.18
4 -0.65
5 -0.65
6 -0.73
7 -0.9
8 -0.98

>  <PUBCHEM_EFFECTIVE_ROTOR_COUNT>  (1) 
9

>  <PUBCHEM_PHARMACOPHORE_FEATURES>  (1) 
8
1 3 acceptor
1 4 acceptor
1 5 acceptor
1 6 donor
1 7 cation
1 7 donor
1 8 donor
6 13 15 16 17 18 19 rings

>  <PUBCHEM_HEAVY_ATOM_COUNT>  (1) 
20

>  <PUBCHEM_ATOM_DEF_STEREO_COUNT>  (1) 
0

>  <PUBCHEM_ATOM_UDEF_STEREO_COUNT>  (1) 
0

>  <PUBCHEM_BOND_DEF_STEREO_COUNT>  (1) 
0

>  <PUBCHEM_BOND_UDEF_STEREO_COUNT>  (1) 
0

>  <PUBCHEM_ISOTOPIC_ATOM_COUNT>  (1) 
0

>  <PUBCHEM_COMPONENT_COUNT>  (1) 
1

>  <PUBCHEM_CACTVS_TAUTO_COUNT>  (1) 
2

>  <PUBCHEM_CONFORMER_ID>  (1) 
000006DF00000001

>  <PUBCHEM_MMFF94_ENERGY>  (1) 
14.5271

>  <PUBCHEM_FEATURE_SELFOVERLAP>  (1) 
40.614

>  <PUBCHEM_SHAPE_FINGERPRINT>  (1) 
10042902 136 9223240662490220881
10498660 4 17989203708160726971
12107183 9 18264476304913588386
12390115 104 18410864286776955271
12633257 1 15647344073527691043
13944108 23 17911523086973159737
13965767 371 17968372360375735655
14251740 57 8502072051426761861
14251764 30 9367050165592376745
14251764 38 17979073013595883420
14251764 75 18270407079814258993
14774955 27 18267299834347422501
14848178 5 9079115532013318211
15188451 53 12540702535569915521
15209294 21 18188203316195744246
15238133 3 18341884213037070378
15475509 8 17968672570695909886
15519825 34 16588889974565694505
155225 6 18267590109570704753
1768 23 17822590389797116236
17834072 32 18411136948427708681
17959699 21 18268430325031083048
18769570 83 18339355374832041352
20626108 58 9799688190974890479
20843269 155 9511466601978106925
21585480 29 12903268774692496313
270888 7 18341048511423126593
2748736 6 18339634526611707381
2838139 119 18201150044190373261
316301 35 8141785180801659693
3472631 163 18342175570659701821
46194498 28 15983393378708156003
5104073 3 17895466020570486010
57724786 102 18264765468139759879
59682541 52 16414921833485833469
633830 44 18410005533482944527
636775 72 18051690242437301136
76465 3 9295286145163758439
7808743 9 18412822499948281203

>  <PUBCHEM_SHAPE_MULTIPOLES>  (1) 
386.74
15.7
3.76
1.17
16.02
1.39
0
20.14
-0.64
4.53
-0.07
-1.09
-0.17
-0.82

>  <PUBCHEM_SHAPE_SELFOVERLAP>  (1) 
755.436

>  <PUBCHEM_SHAPE_VOLUME>  (1) 
234.1

>  <PUBCHEM_COORDINATE_TYPE>  (1) 
2
5
10

$$$$
