17603
     RDKit          3D

 15 15  0  0  0  0  0  0  0  0999 V2000
    5.3036   -0.7528    0.7976 Cl  0  0  0  0  0  0  0  0  0  0  0  0
   -0.2268    0.2645   -0.8976 O   0  0  0  0  0  0  0  0  0  0  0  0
   -3.5009   -0.6104    0.2426 O   0  0  0  0  0  0  0  0  0  0  0  0
   -2.6718    1.3563   -0.6366 O   0  0  0  0  0  0  0  0  0  0  0  0
    1.7923    1.0445    0.1323 C   0  0  0  0  0  0  0  0  0  0  0  0
    1.0570    0.0417   -0.4996 C   0  0  0  0  0  0  0  0  0  0  0  0
    3.1056    0.7991    0.5334 C   0  0  0  0  0  0  0  0  0  0  0  0
    1.6351   -1.2066   -0.7304 C   0  0  0  0  0  0  0  0  0  0  0  0
   -1.2345   -0.5722   -0.3332 C   0  0  0  0  0  0  0  0  0  0  0  0
    1.1892    2.3864    0.3876 C   0  0  0  0  0  0  0  0  0  0  0  0
    3.6835   -0.4493    0.3028 C   0  0  0  0  0  0  0  0  0  0  0  0
    2.9483   -1.4521   -0.3293 C   0  0  0  0  0  0  0  0  0  0  0  0
   -2.5283    0.1963   -0.2748 C   0  0  0  0  0  0  0  0  0  0  0  0
   -4.7972   -0.0150    0.3599 C   0  0  0  0  0  0  0  0  0  0  0  0
   -5.7552   -1.0305    0.9454 C   0  0  0  0  0  0  0  0  0  0  0  0
  1 11  1  0
  2  6  1  0
  2  9  1  0
  3 13  1  0
  3 14  1  0
  4 13  2  0
  5  6  2  0
  5  7  1  0
  5 10  1  0
  6  8  1  0
  7 11  2  0
  8 12  2  0
  9 13  1  0
 11 12  1  0
 14 15  1  0
M  END
>  <PUBCHEM_COMPOUND_CID>  (1) 
17603

>  <PUBCHEM_CONFORMER_RMSD>  (1) 
0.6

>  <PUBCHEM_CONFORMER_DIVERSEORDER>  (1) 
1
52
75
205
57
89
81
166
122
88
117
175
212
221
32
177
104
91
173
195
118
204
179
142
155
107
154
48
210
200
45
218
114
26
50
156
96
49
126
51
36
31
170
147
71
186
78
100
109
83
84
74
85
34
58
35
197
12
203
19
185
148
111
141
110
121
161
17
136
46
70
135
42
41
9
119
215
33
164
4
183
90
188
55
130
13
152
62
168
190
132
208
223
159
157
10
7
134
97
16
95
76
193
8
54
131
181
149
127
153
160
87
158
145
72
68
38
43
214
144
139
102
37
206
151
6
213
15
171
150
39
65
165
115
59
129
222
101
125
108
184
92
191
56
93
22
61
105
224
211
201
66
217
202
180
28
23
14
138
69
98
220
47
123
140
172
2
25
53
124
207
209
40
30
112
219
11
21
128
29
194
5
169
18
178
146
137
20
199
167
73
60
192
82
189
176
162
94
63
27
182
113
64
3
44
187
77
133
120
198
24
99
103
106
116
174
67
79
80
163
86
143
196
216

>  <PUBCHEM_MMFF94_PARTIAL_CHARGES>  (1) 
17
1 -0.18
10 0.14
11 0.18
12 -0.15
13 0.66
14 0.28
16 0.15
17 0.15
2 -0.36
23 0.15
3 -0.43
4 -0.57
5 -0.14
6 0.08
7 -0.15
8 -0.15
9 0.34

>  <PUBCHEM_EFFECTIVE_ROTOR_COUNT>  (1) 
5

>  <PUBCHEM_PHARMACOPHORE_FEATURES>  (1) 
3
1 2 acceptor
1 4 acceptor
6 5 6 7 8 11 12 rings

>  <PUBCHEM_HEAVY_ATOM_COUNT>  (1) 
15

>  <PUBCHEM_ATOM_DEF_STEREO_COUNT>  (1) 
0

>  <PUBCHEM_ATOM_UDEF_STEREO_COUNT>  (1) 
0

>  <PUBCHEM_BOND_DEF_STEREO_COUNT>  (1) 
0

>  <PUBCHEM_BOND_UDEF_STEREO_COUNT>  (1) 
0

>  <PUBCHEM_ISOTOPIC_ATOM_COUNT>  (1) 
0

>  <PUBCHEM_COMPONENT_COUNT>  (1) 
1

>  <PUBCHEM_CACTVS_TAUTO_COUNT>  (1) 
1

>  <PUBCHEM_CONFORMER_ID>  (1) 
000044C300000001

>  <PUBCHEM_MMFF94_ENERGY>  (1) 
33.5188

>  <PUBCHEM_FEATURE_SELFOVERLAP>  (1) 
15.23

>  <PUBCHEM_SHAPE_FINGERPRINT>  (1) 
10354089 29 17775007894428184642
10693767 8 12468901097402858328
12251169 10 18272368689392060175
12670543 26 8430325662029116082
14252887 29 18130509639442711702
14341114 176 18411704304600825033
15048467 5 15769485505006869874
15375462 189 18261660503127043450
18522853 276 18131069316277489193
18785283 64 18265894842448714032
19050596 39 18060137691213968727
20645477 56 11743839162477111987
20871998 22 18129104429285725974
21041028 32 18343301452886255665
21119208 17 11602823496994212931
21267235 1 18341337717124588382
21637258 2 16370994192684001426
23402539 116 18272360971826303325
26918003 58 18411700989439966971
2748010 2 17698710412672472844
29717793 49 14707205500519687019
33382 64 16951120669594277098
42 15 18334296461539382719
465052 167 18335139782995618890
5104073 3 18198617736094628250
69090 78 18342173393085357023
7495541 125 18187369864843366488

>  <PUBCHEM_SHAPE_MULTIPOLES>  (1) 
292.95
11.04
1.65
0.9
10.69
0.77
-0.04
-4.04
-4.41
-0.8
-0.06
0.07
-0.09
0.61

>  <PUBCHEM_SHAPE_SELFOVERLAP>  (1) 
586.456

>  <PUBCHEM_SHAPE_VOLUME>  (1) 
174.1

>  <PUBCHEM_COORDINATE_TYPE>  (1) 
2
5
10

$$$$
