17602
     RDKit          3D

  8  7  0  0  0  0  0  0  0  0999 V2000
    0.5637   -0.3450   -0.0103 S   0  0  0  0  0  0  0  0  0  0  0  0
    1.6100    0.9114   -0.0176 O   0  0  0  0  0  0  0  0  0  0  0  0
    0.6191   -1.0036    1.2824 O   0  0  0  0  0  0  0  0  0  0  0  0
    0.7037   -1.0892   -1.2493 O   0  0  0  0  0  0  0  0  0  0  0  0
   -0.9202    0.6064   -0.0920 C   0  0  0  0  0  0  0  0  0  0  0  0
   -2.1500   -0.2716    0.0694 C   0  0  0  0  0  0  0  0  0  0  0  0
   -3.4300    0.5425   -0.0205 C   0  0  0  0  0  0  0  0  0  0  0  0
    3.0037    0.6491    0.0378 C   0  0  0  0  0  0  0  0  0  0  0  0
  1  2  1  0
  1  3  2  0
  1  4  2  0
  1  5  1  0
  2  8  1  0
  5  6  1  0
  6  7  1  0
M  END
>  <PUBCHEM_COMPOUND_CID>  (1) 
17602

>  <PUBCHEM_CONFORMER_RMSD>  (1) 
0.6

>  <PUBCHEM_CONFORMER_DIVERSEORDER>  (1) 
1
9
7
8
3
6
4
2
5

>  <PUBCHEM_MMFF94_PARTIAL_CHARGES>  (1) 
6
1 1.38
2 -0.46
3 -0.65
4 -0.65
5 0.11
8 0.28

>  <PUBCHEM_EFFECTIVE_ROTOR_COUNT>  (1) 
3

>  <PUBCHEM_PHARMACOPHORE_FEATURES>  (1) 
3
1 3 acceptor
1 4 acceptor
1 7 hydrophobe

>  <PUBCHEM_HEAVY_ATOM_COUNT>  (1) 
8

>  <PUBCHEM_ATOM_DEF_STEREO_COUNT>  (1) 
0

>  <PUBCHEM_ATOM_UDEF_STEREO_COUNT>  (1) 
0

>  <PUBCHEM_BOND_DEF_STEREO_COUNT>  (1) 
0

>  <PUBCHEM_BOND_UDEF_STEREO_COUNT>  (1) 
0

>  <PUBCHEM_ISOTOPIC_ATOM_COUNT>  (1) 
0

>  <PUBCHEM_COMPONENT_COUNT>  (1) 
1

>  <PUBCHEM_CACTVS_TAUTO_COUNT>  (1) 
1

>  <PUBCHEM_CONFORMER_ID>  (1) 
000044C200000001

>  <PUBCHEM_MMFF94_ENERGY>  (1) 
0.4687

>  <PUBCHEM_FEATURE_SELFOVERLAP>  (1) 
15.239

>  <PUBCHEM_SHAPE_FINGERPRINT>  (1) 
11062470 55 14706922951890498389
12897270 3 17918278657716346205
14325111 11 18410292553267013632
14390081 3 18410011027040975705
170605 34 18410857663615319649
20653085 51 18128826424437037216
21293036 1 14549016597946632353
23235685 24 18060413621150425861
23552449 11 17460018605138903211
24536 1 17986663767100993893
29004967 10 18060148634431806299
5084963 1 18334857251013737676
5460574 1 9367348132831625037

>  <PUBCHEM_SHAPE_MULTIPOLES>  (1) 
150.88
4.55
1.06
0.91
1.69
0.09
0
-1.55
0.06
-0.27
-0.02
-0.21
0.33
0.04

>  <PUBCHEM_SHAPE_SELFOVERLAP>  (1) 
259.944

>  <PUBCHEM_SHAPE_VOLUME>  (1) 
101.2

>  <PUBCHEM_COORDINATE_TYPE>  (1) 
2
5
10

$$$$
