17621
     RDKit          3D

 28 30  0  0  0  0  0  0  0  0999 V2000
   -0.4214    0.5949    1.7631 O   0  0  0  0  0  0  0  0  0  0  0  0
   -0.2079    2.5719   -2.3778 O   0  0  0  0  0  0  0  0  0  0  0  0
   -1.5174    0.8493   -1.5205 N   0  0  0  0  0  0  0  0  0  0  0  0
   -0.0588    1.8362   -0.1654 N   0  0  0  0  0  0  0  0  0  0  0  0
    4.9692   -0.0381    0.4717 N   0  0  0  0  0  0  0  0  0  0  0  0
   -1.7282    0.1286   -0.2674 C   0  0  0  0  0  0  0  0  0  0  0  0
   -0.6709    0.8609    0.5921 C   0  0  0  0  0  0  0  0  0  0  0  0
   -1.3512   -1.3557   -0.3480 C   0  0  0  0  0  0  0  0  0  0  0  0
   -3.1767    0.3609    0.1744 C   0  0  0  0  0  0  0  0  0  0  0  0
   -0.5460    1.8453   -1.4524 C   0  0  0  0  0  0  0  0  0  0  0  0
    0.9809    2.7141    0.3336 C   0  0  0  0  0  0  0  0  0  0  0  0
   -1.4277   -2.1616    0.7904 C   0  0  0  0  0  0  0  0  0  0  0  0
   -4.2318   -0.1539   -0.5826 C   0  0  0  0  0  0  0  0  0  0  0  0
   -0.9302   -1.9077   -1.5602 C   0  0  0  0  0  0  0  0  0  0  0  0
   -3.4477    1.0878    1.3360 C   0  0  0  0  0  0  0  0  0  0  0  0
   -1.0850   -3.5118    0.7171 C   0  0  0  0  0  0  0  0  0  0  0  0
   -5.5506    0.0573   -0.1803 C   0  0  0  0  0  0  0  0  0  0  0  0
   -0.5876   -3.2579   -1.6334 C   0  0  0  0  0  0  0  0  0  0  0  0
   -4.7666    1.2988    1.7383 C   0  0  0  0  0  0  0  0  0  0  0  0
   -0.6649   -4.0598   -0.4946 C   0  0  0  0  0  0  0  0  0  0  0  0
   -5.8180    0.7835    0.9801 C   0  0  0  0  0  0  0  0  0  0  0  0
    2.3054    2.1478    0.0835 C   0  0  0  0  0  0  0  0  0  0  0  0
    4.7255    1.1242   -0.3729 C   0  0  0  0  0  0  0  0  0  0  0  0
    6.2993   -0.5935    0.2144 C   0  0  0  0  0  0  0  0  0  0  0  0
    3.9425   -1.0591    0.2534 C   0  0  0  0  0  0  0  0  0  0  0  0
    3.3950    1.6851   -0.1200 C   0  0  0  0  0  0  0  0  0  0  0  0
    7.3859    0.4295    0.4990 C   0  0  0  0  0  0  0  0  0  0  0  0
    4.1849   -2.2772    1.1285 C   0  0  0  0  0  0  0  0  0  0  0  0
  1  7  2  0
  2 10  2  0
  3  6  1  0
  3 10  1  0
  4  7  1  0
  4 10  1  0
  4 11  1  0
  5 23  1  0
  5 24  1  0
  5 25  1  0
  6  7  1  0
  6  8  1  0
  6  9  1  0
  8 12  2  0
  8 14  1  0
  9 13  2  0
  9 15  1  0
 11 22  1  0
 12 16  1  0
 13 17  1  0
 14 18  2  0
 15 19  2  0
 16 20  2  0
 17 21  2  0
 18 20  1  0
 19 21  1  0
 22 26  3  0
 23 26  1  0
 24 27  1  0
 25 28  1  0
M  END
>  <PUBCHEM_COMPOUND_CID>  (1) 
17621

>  <PUBCHEM_CONFORMER_RMSD>  (1) 
0.8

>  <PUBCHEM_CONFORMER_DIVERSEORDER>  (1) 
1
53
47
5
21
46
45
34
7
50
3
37
48
24
32
4
51
31
18
52
17
30
42
36
28
43
13
35
9
44
14
12
27
38
16
29
11
22
33
41
2
23
39
26
8
20
10
6
25
15
40
19
49

>  <PUBCHEM_MMFF94_PARTIAL_CHARGES>  (1) 
37
1 -0.57
10 0.69
11 0.5
12 -0.15
13 -0.15
14 -0.15
15 -0.15
16 -0.15
17 -0.15
18 -0.15
19 -0.15
2 -0.57
20 -0.15
21 -0.15
22 -0.2
23 0.47
24 0.27
25 0.27
26 -0.2
29 0.37
3 -0.73
32 0.15
33 0.15
34 0.15
35 0.15
36 0.15
37 0.15
38 0.15
39 0.15
4 -0.42
40 0.15
41 0.15
5 -0.81
6 0.65
7 0.57
8 -0.14
9 -0.14

>  <PUBCHEM_EFFECTIVE_ROTOR_COUNT>  (1) 
6.6

>  <PUBCHEM_PHARMACOPHORE_FEATURES>  (1) 
7
1 1 acceptor
1 2 acceptor
1 3 donor
1 5 cation
5 3 4 6 7 10 rings
6 8 12 14 16 18 20 rings
6 9 13 15 17 19 21 rings

>  <PUBCHEM_HEAVY_ATOM_COUNT>  (1) 
28

>  <PUBCHEM_ATOM_DEF_STEREO_COUNT>  (1) 
0

>  <PUBCHEM_ATOM_UDEF_STEREO_COUNT>  (1) 
0

>  <PUBCHEM_BOND_DEF_STEREO_COUNT>  (1) 
0

>  <PUBCHEM_BOND_UDEF_STEREO_COUNT>  (1) 
0

>  <PUBCHEM_ISOTOPIC_ATOM_COUNT>  (1) 
0

>  <PUBCHEM_COMPONENT_COUNT>  (1) 
1

>  <PUBCHEM_CACTVS_TAUTO_COUNT>  (1) 
2

>  <PUBCHEM_CONFORMER_ID>  (1) 
000044D500000001

>  <PUBCHEM_MMFF94_ENERGY>  (1) 
61.3434

>  <PUBCHEM_FEATURE_SELFOVERLAP>  (1) 
35.522

>  <PUBCHEM_SHAPE_FINGERPRINT>  (1) 
11578080 2 17414706871964730704
12035758 1 18335436663819385123
12422481 6 18191311464037787361
12633257 1 18413669128122822212
12788726 201 17774737401941904480
12838862 33 18338496600674610032
14466204 15 18200602384680066753
14617045 38 18334860507142000682
14747281 78 17244679210654049357
14784336 7 18058436755458126385
14840074 17 18260834791252959942
14866123 147 18268710678821557731
15537594 2 18259701199465950066
15840311 113 17772207318897271361
15849732 13 18260267473249376109
16110190 28 18337111267584299292
16994733 274 15194742129483458787
19141452 34 18337670927107585540
19319366 153 17894631440275296882
19930381 70 18194682553756277714
20197701 30 18342738542225083313
21403212 168 18412265004645738329
21639891 77 12750653228078266317
23559900 14 18127123298121858320
3383291 50 18272089451967476546
3411729 13 18057052294319906385
3633792 109 18341314661782744477
38695281 34 18201441338158700463
4017518 198 17703799106936553214
404807 14 15188298831808403214
463206 1 18334853978807457224
59554788 281 17986979442992245833
6138700 20 18342179916765925342
7226269 152 17418097598316208017
9953998 17 18200580489706249640

>  <PUBCHEM_SHAPE_MULTIPOLES>  (1) 
549.55
12.8
3.91
1.55
15.69
3.79
0.39
-3.06
-4.62
-0.04
0.75
-1
-0.21
-1.26

>  <PUBCHEM_SHAPE_SELFOVERLAP>  (1) 
1167.443

>  <PUBCHEM_SHAPE_VOLUME>  (1) 
305.9

>  <PUBCHEM_COORDINATE_TYPE>  (1) 
2
5
10

$$$$
