17633
     RDKit          3D

  7  6  0  0  0  0  0  0  0  0999 V2000
    2.8324   -1.1640   -0.0007 S   0  0  0  0  0  0  0  0  0  0  0  0
    1.8590    1.6715    0.0038 S   0  0  0  0  0  0  0  0  0  0  0  0
    0.2561   -0.4755   -0.0043 O   0  0  0  0  0  0  0  0  0  0  0  0
   -2.1349   -0.5874    0.0111 C   0  0  0  0  0  0  0  0  0  0  0  0
   -0.9179    0.3248   -0.0055 C   0  0  0  0  0  0  0  0  0  0  0  0
   -3.4321    0.2010   -0.0043 C   0  0  0  0  0  0  0  0  0  0  0  0
    1.5374    0.0295   -0.0002 C   0  0  0  0  0  0  0  0  0  0  0  0
  1  7  1  0
  2  7  2  0
  3  5  1  0
  3  7  1  0
  4  5  1  0
  4  6  1  0
M  END
>  <PUBCHEM_COMPOUND_CID>  (1) 
17633

>  <PUBCHEM_CONFORMER_RMSD>  (1) 
0.4

>  <PUBCHEM_CONFORMER_DIVERSEORDER>  (1) 
1
16
5
10
6
7
12
15
9
4
3
2
14
8
13
11

>  <PUBCHEM_MMFF94_PARTIAL_CHARGES>  (1) 
6
1 -0.32
15 0.18
2 -0.38
3 -0.43
5 0.28
7 0.67

>  <PUBCHEM_EFFECTIVE_ROTOR_COUNT>  (1) 
3

>  <PUBCHEM_PHARMACOPHORE_FEATURES>  (1) 
3
1 2 acceptor
1 6 hydrophobe
3 1 2 7 anion

>  <PUBCHEM_HEAVY_ATOM_COUNT>  (1) 
7

>  <PUBCHEM_ATOM_DEF_STEREO_COUNT>  (1) 
0

>  <PUBCHEM_ATOM_UDEF_STEREO_COUNT>  (1) 
0

>  <PUBCHEM_BOND_DEF_STEREO_COUNT>  (1) 
0

>  <PUBCHEM_BOND_UDEF_STEREO_COUNT>  (1) 
0

>  <PUBCHEM_ISOTOPIC_ATOM_COUNT>  (1) 
0

>  <PUBCHEM_COMPONENT_COUNT>  (1) 
1

>  <PUBCHEM_CACTVS_TAUTO_COUNT>  (1) 
1

>  <PUBCHEM_CONFORMER_ID>  (1) 
000044E100000001

>  <PUBCHEM_MMFF94_ENERGY>  (1) 
10.5845

>  <PUBCHEM_FEATURE_SELFOVERLAP>  (1) 
15.223

>  <PUBCHEM_SHAPE_FINGERPRINT>  (1) 
12932741 1 17821733870222831547
12932764 1 17385713699702128771
14325111 11 18410575127976787719
14390081 3 18340486785023733761
20651381 32 18410569587342453373
23552423 10 18336826488986499166
23552449 11 18335693945123783482
3248919 1 18338225072356684763
5460574 1 9295291638205000643

>  <PUBCHEM_SHAPE_MULTIPOLES>  (1) 
145.89
5.3
1.41
0.63
3.22
0.45
0
-0.74
0
-1.34
0
-0.05
0.01
0

>  <PUBCHEM_SHAPE_SELFOVERLAP>  (1) 
240.458

>  <PUBCHEM_SHAPE_VOLUME>  (1) 
101.5

>  <PUBCHEM_COORDINATE_TYPE>  (1) 
2
5
10

$$$$
