17637
     RDKit          3D

 10  9  0  0  0  0  0  0  0  0999 V2000
    4.5610    1.2796   -0.0020 S   0  0  0  0  0  0  0  0  0  0  0  0
    3.7399   -1.6034   -0.0321 S   0  0  0  0  0  0  0  0  0  0  0  0
    2.0252    0.4549    0.0107 O   0  0  0  0  0  0  0  0  0  0  0  0
   -1.6266   -0.4287    0.0295 C   0  0  0  0  0  0  0  0  0  0  0  0
   -2.9268    0.3797    0.0001 C   0  0  0  0  0  0  0  0  0  0  0  0
   -0.3702    0.4406    0.0135 C   0  0  0  0  0  0  0  0  0  0  0  0
   -4.1842   -0.4897    0.0408 C   0  0  0  0  0  0  0  0  0  0  0  0
    0.8953   -0.4067    0.0106 C   0  0  0  0  0  0  0  0  0  0  0  0
   -5.4452    0.3548   -0.0637 C   0  0  0  0  0  0  0  0  0  0  0  0
    3.3315    0.0190   -0.0075 C   0  0  0  0  0  0  0  0  0  0  0  0
  1 10  1  0
  2 10  2  0
  3  8  1  0
  3 10  1  0
  4  5  1  0
  4  6  1  0
  5  7  1  0
  6  8  1  0
  7  9  1  0
M  END
>  <PUBCHEM_COMPOUND_CID>  (1) 
17637

>  <PUBCHEM_CONFORMER_RMSD>  (1) 
0.6

>  <PUBCHEM_CONFORMER_DIVERSEORDER>  (1) 
1
83
67
133
179
37
168
88
7
156
157
55
165
120
4
38
113
147
29
75
112
58
16
126
170
53
163
46
114
121
150
161
19
148
169
91
132
62
59
152
65
136
87
176
145
25
160
153
27
71
64
135
86
5
60
73
48
24
129
34
78
68
159
181
9
82
138
52
85
3
151
110
15
80
173
21
8
154
54
50
158
96
93
28
175
174
2
130
182
40
104
107
118
140
116
166
177
89
94
31
149
26
90
100
6
56
125
74
11
10
98
128
72
69
111
119
77
137
47
178
81
43
134
18
139
106
57
61
12
155
20
76
146
162
95
105
14
141
180
70
63
167
23
42
79
144
51
49
45
109
164
44
101
39
99
103
92
123
171
35
84
127
115
41
124
117
97
13
131
36
172
33
22
17
108
66
102
143
122
142
32
30

>  <PUBCHEM_MMFF94_PARTIAL_CHARGES>  (1) 
6
1 -0.32
10 0.67
2 -0.38
24 0.18
3 -0.43
8 0.28

>  <PUBCHEM_EFFECTIVE_ROTOR_COUNT>  (1) 
6

>  <PUBCHEM_PHARMACOPHORE_FEATURES>  (1) 
4
1 2 acceptor
1 9 hydrophobe
3 1 2 10 anion
4 4 5 6 7 hydrophobe

>  <PUBCHEM_HEAVY_ATOM_COUNT>  (1) 
10

>  <PUBCHEM_ATOM_DEF_STEREO_COUNT>  (1) 
0

>  <PUBCHEM_ATOM_UDEF_STEREO_COUNT>  (1) 
0

>  <PUBCHEM_BOND_DEF_STEREO_COUNT>  (1) 
0

>  <PUBCHEM_BOND_UDEF_STEREO_COUNT>  (1) 
0

>  <PUBCHEM_ISOTOPIC_ATOM_COUNT>  (1) 
0

>  <PUBCHEM_COMPONENT_COUNT>  (1) 
1

>  <PUBCHEM_CACTVS_TAUTO_COUNT>  (1) 
1

>  <PUBCHEM_CONFORMER_ID>  (1) 
000044E500000001

>  <PUBCHEM_MMFF94_ENERGY>  (1) 
10.2084

>  <PUBCHEM_FEATURE_SELFOVERLAP>  (1) 
20.297

>  <PUBCHEM_SHAPE_FINGERPRINT>  (1) 
10912923 1 17846500331210692131
11062470 55 18410575101943213865
14123238 8 17917992789119804669
14325111 11 18410856551419165578
15242433 33 18343021107459011454
17834072 33 18272930561361385631
17834076 25 18131070450148757676
190213 19 17749393667305113127
20279233 1 17821736039524246538
20645477 70 18340770347534112902
20719005 15 18410855451543508451
22485316 2 18411980277893377287
23402539 116 17917423212490924677
23402655 69 18343300370574836045
23532345 1 18335706082981125168
42788 4 18410292514849574373
449060 50 18334294305450054004
522135 26 18413108347133114366
5374978 207 18411131429426440712

>  <PUBCHEM_SHAPE_MULTIPOLES>  (1) 
207.62
11.98
1.24
0.63
7.68
0.21
0
-1.21
-0.16
-1.81
-0.01
-0.05
0.01
0.04

>  <PUBCHEM_SHAPE_SELFOVERLAP>  (1) 
353.676

>  <PUBCHEM_SHAPE_VOLUME>  (1) 
140.2

>  <PUBCHEM_COORDINATE_TYPE>  (1) 
2
5
10

$$$$
