17652
     RDKit          3D

 11 11  0  0  0  0  0  0  0  0999 V2000
    2.2928   -0.9235   -0.0009 O   0  0  0  0  0  0  0  0  0  0  0  0
   -2.4713   -0.9855    0.0000 O   0  0  0  0  0  0  0  0  0  0  0  0
    2.2906    1.8897   -0.0005 N   0  0  0  0  0  0  0  0  0  0  0  0
    1.1112   -0.2440    0.0004 C   0  0  0  0  0  0  0  0  0  0  0  0
    1.0874    1.1507   -0.0001 C   0  0  0  0  0  0  0  0  0  0  0  0
   -1.3045   -0.2849    0.0011 C   0  0  0  0  0  0  0  0  0  0  0  0
   -0.0848   -0.9619    0.0010 C   0  0  0  0  0  0  0  0  0  0  0  0
   -0.1321    1.8276    0.0001 C   0  0  0  0  0  0  0  0  0  0  0  0
   -1.3280    1.1098    0.0006 C   0  0  0  0  0  0  0  0  0  0  0  0
    2.2206   -2.3476   -0.0001 C   0  0  0  0  0  0  0  0  0  0  0  0
   -3.6820   -0.2304   -0.0015 C   0  0  0  0  0  0  0  0  0  0  0  0
  1  4  1  0
  1 10  1  0
  2  6  1  0
  2 11  1  0
  3  5  1  0
  4  5  2  0
  4  7  1  0
  5  8  1  0
  6  7  2  0
  6  9  1  0
  8  9  2  0
M  END
>  <PUBCHEM_COMPOUND_CID>  (1) 
17652

>  <PUBCHEM_CONFORMER_RMSD>  (1) 
0.4

>  <PUBCHEM_CONFORMER_DIVERSEORDER>  (1) 
5
3
4
1
2
6

>  <PUBCHEM_MMFF94_PARTIAL_CHARGES>  (1) 
16
1 -0.36
10 0.28
11 0.28
12 0.15
13 0.15
14 0.15
15 0.4
16 0.4
2 -0.36
3 -0.9
4 0.08
5 0.1
6 0.08
7 -0.15
8 -0.15
9 -0.15

>  <PUBCHEM_EFFECTIVE_ROTOR_COUNT>  (1) 
2

>  <PUBCHEM_PHARMACOPHORE_FEATURES>  (1) 
5
1 1 acceptor
1 2 acceptor
1 3 cation
1 3 donor
6 4 5 6 7 8 9 rings

>  <PUBCHEM_HEAVY_ATOM_COUNT>  (1) 
11

>  <PUBCHEM_ATOM_DEF_STEREO_COUNT>  (1) 
0

>  <PUBCHEM_ATOM_UDEF_STEREO_COUNT>  (1) 
0

>  <PUBCHEM_BOND_DEF_STEREO_COUNT>  (1) 
0

>  <PUBCHEM_BOND_UDEF_STEREO_COUNT>  (1) 
0

>  <PUBCHEM_ISOTOPIC_ATOM_COUNT>  (1) 
0

>  <PUBCHEM_COMPONENT_COUNT>  (1) 
1

>  <PUBCHEM_CACTVS_TAUTO_COUNT>  (1) 
1

>  <PUBCHEM_CONFORMER_ID>  (1) 
000044F400000005

>  <PUBCHEM_MMFF94_ENERGY>  (1) 
56.048

>  <PUBCHEM_FEATURE_SELFOVERLAP>  (1) 
25.371

>  <PUBCHEM_SHAPE_FINGERPRINT>  (1) 
12423570 1 10642266134497141576
13380535 76 18191300691995805066
14128692 85 18338805502795332830
161256 15 18408885126780601388
16945 1 18266741461932580069
193761 8 18338517413432297380
20201158 50 18335417980337133307
20645476 183 17391364283489547124
20645477 70 18410567410337808199
20871998 184 17841141156749563606
20871998 22 18270123383648365918
21040471 1 17617941773642557056
21501502 16 18339930315959762209
23402655 69 18341036511468884677
23552423 10 18335144176103168660
241688 4 18192431874744141896
2748010 2 18337383851240293989
5084963 1 18201154360648375523
528862 383 18336539525189127866
528886 8 18195242449734419305
63268167 104 18340491161700734761
7364860 26 18342738529039455584

>  <PUBCHEM_SHAPE_MULTIPOLES>  (1) 
209.66
4.18
2.21
0.59
2.61
0.15
0
-1.6
0
-1.59
0
0.02
0
0

>  <PUBCHEM_SHAPE_SELFOVERLAP>  (1) 
431.716

>  <PUBCHEM_SHAPE_VOLUME>  (1) 
121.6

>  <PUBCHEM_COORDINATE_TYPE>  (1) 
2
5
10

$$$$
