17668
     RDKit          3D

 30 33  0  0  0  0  0  0  0  0999 V2000
   -8.4826    1.2292   -0.0648 Cl  0  0  0  0  0  0  0  0  0  0  0  0
    7.1618   -2.0755    0.0737 Cl  0  0  0  0  0  0  0  0  0  0  0  0
    4.9083    4.8370   -0.0503 Cl  0  0  0  0  0  0  0  0  0  0  0  0
   -3.3200   -1.6691    0.0081 N   0  0  0  0  0  0  0  0  0  0  0  0
    1.2678   -2.6395    0.0468 N   0  0  0  0  0  0  0  0  0  0  0  0
   -0.1853    1.8184   -0.0283 N   0  0  0  0  0  0  0  0  0  0  0  0
   -1.0326   -2.1852    0.0269 N   0  0  0  0  0  0  0  0  0  0  0  0
   -1.7761    0.0959   -0.0114 N   0  0  0  0  0  0  0  0  0  0  0  0
    0.5714   -0.4007    0.0079 N   0  0  0  0  0  0  0  0  0  0  0  0
   -1.9809   -1.2325    0.0077 C   0  0  0  0  0  0  0  0  0  0  0  0
    0.2178   -1.6960    0.0260 C   0  0  0  0  0  0  0  0  0  0  0  0
   -0.4774    0.4375   -0.0099 C   0  0  0  0  0  0  0  0  0  0  0  0
   -4.5498   -0.9788   -0.0092 C   0  0  0  0  0  0  0  0  0  0  0  0
    2.6689   -2.5054    0.0532 C   0  0  0  0  0  0  0  0  0  0  0  0
    1.0256    2.5360   -0.0336 C   0  0  0  0  0  0  0  0  0  0  0  0
   -5.6733   -1.5400    0.5975 C   0  0  0  0  0  0  0  0  0  0  0  0
    3.4692   -3.4897   -0.5299 C   0  0  0  0  0  0  0  0  0  0  0  0
    1.0918    3.8019    0.5519 C   0  0  0  0  0  0  0  0  0  0  0  0
   -4.6424    0.2654   -0.6329 C   0  0  0  0  0  0  0  0  0  0  0  0
    3.2627   -1.3877    0.6427 C   0  0  0  0  0  0  0  0  0  0  0  0
    2.1641    1.9841   -0.6240 C   0  0  0  0  0  0  0  0  0  0  0  0
   -6.8895   -0.8573    0.5804 C   0  0  0  0  0  0  0  0  0  0  0  0
    4.8576   -3.3569   -0.5238 C   0  0  0  0  0  0  0  0  0  0  0  0
    2.2918    4.5129    0.5468 C   0  0  0  0  0  0  0  0  0  0  0  0
   -5.8586    0.9483   -0.6500 C   0  0  0  0  0  0  0  0  0  0  0  0
    4.6513   -1.2547    0.6489 C   0  0  0  0  0  0  0  0  0  0  0  0
    3.3641    2.6952   -0.6291 C   0  0  0  0  0  0  0  0  0  0  0  0
   -6.9822    0.3869   -0.0434 C   0  0  0  0  0  0  0  0  0  0  0  0
    5.4487   -2.2393    0.0657 C   0  0  0  0  0  0  0  0  0  0  0  0
    3.4279    3.9596   -0.0438 C   0  0  0  0  0  0  0  0  0  0  0  0
  1 28  1  0
  2 29  1  0
  3 30  1  0
  4 10  1  0
  4 13  1  0
  5 11  1  0
  5 14  1  0
  6 12  1  0
  6 15  1  0
  7 10  2  0
  7 11  1  0
  8 10  1  0
  8 12  2  0
  9 11  2  0
  9 12  1  0
 13 16  2  0
 13 19  1  0
 14 17  2  0
 14 20  1  0
 15 18  2  0
 15 21  1  0
 16 22  1  0
 17 23  1  0
 18 24  1  0
 19 25  2  0
 20 26  2  0
 21 27  2  0
 22 28  2  0
 23 29  2  0
 24 30  2  0
 25 28  1  0
 26 29  1  0
 27 30  1  0
M  END
>  <PUBCHEM_COMPOUND_CID>  (1) 
17668

>  <PUBCHEM_CONFORMER_RMSD>  (1) 
0.8

>  <PUBCHEM_CONFORMER_DIVERSEORDER>  (1) 
1
23
2
31
6
26
14
4
8
13
29
19
22
25
15
5
16
9
27
30
7
28
20
17
24
12
21
11
10
18
3

>  <PUBCHEM_MMFF94_PARTIAL_CHARGES>  (1) 
45
1 -0.18
10 0.72
11 0.72
12 0.72
13 0.1
14 0.1
15 0.1
16 -0.15
17 -0.15
18 -0.15
19 -0.15
2 -0.18
20 -0.15
21 -0.15
22 -0.15
23 -0.15
24 -0.15
25 -0.15
26 -0.15
27 -0.15
28 0.18
29 0.18
3 -0.18
30 0.18
31 0.4
32 0.4
33 0.4
34 0.15
35 0.15
36 0.15
37 0.15
38 0.15
39 0.15
4 -0.6
40 0.15
41 0.15
42 0.15
43 0.15
44 0.15
45 0.15
5 -0.6
6 -0.6
7 -0.62
8 -0.62
9 -0.62

>  <PUBCHEM_EFFECTIVE_ROTOR_COUNT>  (1) 
6

>  <PUBCHEM_PHARMACOPHORE_FEATURES>  (1) 
10
1 4 donor
1 5 donor
1 6 donor
4 4 7 8 10 cation
4 5 7 9 11 cation
4 6 8 9 12 cation
6 13 16 19 22 25 28 rings
6 14 17 20 23 26 29 rings
6 15 18 21 24 27 30 rings
6 7 8 9 10 11 12 rings

>  <PUBCHEM_HEAVY_ATOM_COUNT>  (1) 
30

>  <PUBCHEM_ATOM_DEF_STEREO_COUNT>  (1) 
0

>  <PUBCHEM_ATOM_UDEF_STEREO_COUNT>  (1) 
0

>  <PUBCHEM_BOND_DEF_STEREO_COUNT>  (1) 
0

>  <PUBCHEM_BOND_UDEF_STEREO_COUNT>  (1) 
0

>  <PUBCHEM_ISOTOPIC_ATOM_COUNT>  (1) 
0

>  <PUBCHEM_COMPONENT_COUNT>  (1) 
1

>  <PUBCHEM_CACTVS_TAUTO_COUNT>  (1) 
5

>  <PUBCHEM_CONFORMER_ID>  (1) 
0000450400000001

>  <PUBCHEM_MMFF94_ENERGY>  (1) 
107.4827

>  <PUBCHEM_FEATURE_SELFOVERLAP>  (1) 
50.878

>  <PUBCHEM_SHAPE_FINGERPRINT>  (1) 
10050765 1 18266177417306388907
10411042 1 18267023843538092166
10675989 125 18339360885048956208
10816530 90 18333446547683413436
12166972 35 18273211972367352435
12516196 113 18339079281048893271
12677640 9 17985551040018144000
13785724 45 18270126703742325990
138480 1 18411138039723818304
140371 6 18270691865683376683
14117953 113 18271247127603212230
14400156 266 17987531307376788700
14790565 3 17688593079445126988
14849402 71 18409174324499062685
14937079 2 18410575076242170295
14955137 171 18340206297673392431
15198563 99 18052263890778840524
15347591 1 18339924926852043503
15400415 2 17762617691401420584
15419008 47 18040996181368895557
15439362 3 18337670935528780088
15849732 13 18060413578454552111
15890870 6 18262807376234522308
15927050 60 18052257594525758046
16087824 20 18195245521253311757
167882 2 18338236088842251954
17913733 40 18050586323839796251
17980427 26 17628334267328076757
18681886 176 18341324526895550419
19611394 137 18261125075002919234
20238998 120 18341329985951464136
20721686 56 18334576863465365977
21049683 271 18260556614674177764
21304253 13 18341048527795737995
21781055 127 16557928762114438971
22311459 1 18337670811323251827
23559900 14 18410848850907145387
24771293 8 18128515211491897874
24771750 20 18190756408355192828
249057 25 17846503617646507945
249999 5 18338796822571735496
335352 9 18409728435636674983
3411729 13 18189331428005300616
4144715 1 18187935027617633843
5104073 3 18261117413661256787
5385378 56 18267029529948003425
552612 73 18113893849841520453

>  <PUBCHEM_SHAPE_MULTIPOLES>  (1) 
593.11
18.75
6.21
0.75
31.89
7.07
0
-4.61
-0.14
-14.23
-0.08
-0.02
0.05
0.6

>  <PUBCHEM_SHAPE_SELFOVERLAP>  (1) 
1266.306

>  <PUBCHEM_SHAPE_VOLUME>  (1) 
327.5

>  <PUBCHEM_COORDINATE_TYPE>  (1) 
2
5
10

$$$$
