17665
     RDKit          3D

 14 14  0  0  0  0  0  0  0  0999 V2000
    1.6375    2.3811   -0.3404 O   0  0  0  0  0  0  0  0  0  0  0  0
   -4.0491   -0.2711   -0.1891 N   0  0  0  0  0  0  0  0  0  0  0  0
   -0.4578    0.6534   -0.0728 N   0  0  0  0  0  0  0  0  0  0  0  0
   -2.8931    0.6024   -0.0330 C   0  0  0  0  0  0  0  0  0  0  0  0
   -1.6049   -0.1911   -0.1948 C   0  0  0  0  0  0  0  0  0  0  0  0
    0.8216    0.1646   -0.1437 C   0  0  0  0  0  0  0  0  0  0  0  0
   -5.2928    0.4928   -0.0723 C   0  0  0  0  0  0  0  0  0  0  0  0
   -4.0205   -1.3478    0.8029 C   0  0  0  0  0  0  0  0  0  0  0  0
    1.8773    1.2182   -0.0136 C   0  0  0  0  0  0  0  0  0  0  0  0
    1.0741   -1.1413   -0.3327 C   0  0  0  0  0  0  0  0  0  0  0  0
    3.1793    0.9171    0.6300 C   0  0  0  0  0  0  0  0  0  0  0  0
    2.3290   -1.8177   -0.5297 C   0  0  0  0  0  0  0  0  0  0  0  0
    3.8611   -0.2313    0.6062 C   0  0  0  0  0  0  0  0  0  0  0  0
    3.5384   -1.4293   -0.1170 C   0  0  0  0  0  0  0  0  0  0  0  0
  1  9  2  0
  2  4  1  0
  2  7  1  0
  2  8  1  0
  3  5  1  0
  3  6  1  0
  4  5  1  0
  6  9  1  0
  6 10  2  0
  9 11  1  0
 10 12  1  0
 11 13  2  0
 12 14  2  0
 13 14  1  0
M  END
>  <PUBCHEM_COMPOUND_CID>  (1) 
17665

>  <PUBCHEM_CONFORMER_RMSD>  (1) 
0.6

>  <PUBCHEM_CONFORMER_DIVERSEORDER>  (1) 
3
23
29
35
14
30
33
19
47
13
42
40
26
34
4
21
44
18
36
9
15
45
17
32
22
27
41
39
28
25
5
37
24
7
46
10
20
11
12
38
8
43
16
31
6
1
2

>  <PUBCHEM_MMFF94_PARTIAL_CHARGES>  (1) 
20
1 -0.57
10 -0.15
11 -0.14
12 -0.15
13 -0.15
14 -0.15
19 0.4
2 -0.81
26 0.15
27 0.15
28 0.15
29 0.15
3 -0.87
30 0.15
4 0.27
5 0.37
6 0.11
7 0.27
8 0.27
9 0.54

>  <PUBCHEM_EFFECTIVE_ROTOR_COUNT>  (1) 
4

>  <PUBCHEM_PHARMACOPHORE_FEATURES>  (1) 
5
1 1 acceptor
1 2 cation
1 3 cation
1 3 donor
7 6 9 10 11 12 13 14 rings

>  <PUBCHEM_HEAVY_ATOM_COUNT>  (1) 
14

>  <PUBCHEM_ATOM_DEF_STEREO_COUNT>  (1) 
0

>  <PUBCHEM_ATOM_UDEF_STEREO_COUNT>  (1) 
0

>  <PUBCHEM_BOND_DEF_STEREO_COUNT>  (1) 
0

>  <PUBCHEM_BOND_UDEF_STEREO_COUNT>  (1) 
0

>  <PUBCHEM_ISOTOPIC_ATOM_COUNT>  (1) 
0

>  <PUBCHEM_COMPONENT_COUNT>  (1) 
1

>  <PUBCHEM_CACTVS_TAUTO_COUNT>  (1) 
1

>  <PUBCHEM_CONFORMER_ID>  (1) 
0000450100000003

>  <PUBCHEM_MMFF94_ENERGY>  (1) 
46.1188

>  <PUBCHEM_FEATURE_SELFOVERLAP>  (1) 
25.371

>  <PUBCHEM_SHAPE_FINGERPRINT>  (1) 
11471102 20 18412542106765155054
12032990 46 18338800005416671934
12251169 10 18342173379725324663
12346645 6 18341894117084052332
13675066 3 18343014506342093377
14251717 144 18412824676927117982
14252887 29 18201158763390949202
15375358 24 18410009923350483651
15477762 27 18411419492677183342
17834072 33 18059568118626724959
17834074 16 18408887347600570211
18186145 218 17676201386347800385
200 152 18059850667360882237
20279233 1 18334580144451212323
20606313 2 18410573989757745764
20645477 70 18271804593036052287
20871998 22 18198627631704721342
21501925 9 18412543197613040592
21637258 2 15937233535875235674
221490 88 18335430117935921299
22485316 2 18411979157244588111
23402539 116 18187072975587648749
23557571 272 17749102245379590789
23559900 14 18409729556010910467
26918003 58 18410853252894838531
33824 294 18410853239846919338
42 15 18411138022016434971
4214541 1 18410012109778779749
5104073 3 18341049631686651977
9709674 26 18335425720274655531

>  <PUBCHEM_SHAPE_MULTIPOLES>  (1) 
272.28
9.51
1.8
0.75
11.28
0.19
-0.07
-1.23
-1.24
-1.34
0.14
-0.06
-0.08
0.59

>  <PUBCHEM_SHAPE_SELFOVERLAP>  (1) 
544.286

>  <PUBCHEM_SHAPE_VOLUME>  (1) 
159.1

>  <PUBCHEM_COORDINATE_TYPE>  (1) 
2
5
10

$$$$
