1768
     RDKit          3D

 23 22  0  0  1  0  0  0  0  0999 V2000
    1.7672    4.6401    1.5302 O   0  0  0  0  0  0  0  0  0  0  0  0
    4.7680   -1.2411   -1.5203 O   0  0  0  0  0  0  0  0  0  0  0  0
    2.7536   -0.5251   -2.3078 O   0  0  0  0  0  0  0  0  0  0  0  0
   -1.1485   -3.2103    0.5586 C   0  0  0  0  0  0  0  0  0  0  0  0
    0.2438   -2.6028    0.3681 C   0  0  0  0  0  0  0  0  0  0  0  0
   -2.2628   -2.3917   -0.0999 C   0  0  0  0  0  0  0  0  0  0  0  0
    1.3070   -3.4203    1.1063 C   0  0  0  0  0  0  0  0  0  0  0  0
   -3.6613   -2.9590    0.1570 C   0  0  0  0  0  0  0  0  0  0  0  0
    2.7243   -2.8701    0.9331 C   0  0  0  0  0  0  0  0  0  0  0  0
   -4.7378   -2.1111   -0.5264 C   0  0  0  0  0  0  0  0  0  0  0  0
    3.7918   -3.7192    1.6054 C   0  0  0  0  0  0  0  0  0  0  0  0
   -4.7340   -0.7078    0.0054 C   0  0  0  0  0  0  0  0  0  0  0  0
    2.7070    2.6708    0.5528 C   0  0  0  0  0  0  0  0  0  0  0  0
    2.5994    1.5703   -0.5052 C   0  0  0  0  0  0  0  0  0  0  0  0
    1.5363    3.6617    0.5122 C   0  0  0  0  0  0  0  0  0  0  0  0
    3.7940    0.6252   -0.4519 C   0  0  0  0  0  0  0  0  0  0  0  0
   -4.5580    0.3799   -0.7601 C   0  0  0  0  0  0  0  0  0  0  0  0
   -4.5259    1.7793   -0.2190 C   0  0  0  0  0  0  0  0  0  0  0  0
    0.2080    3.0073    0.7829 C   0  0  0  0  0  0  0  0  0  0  0  0
   -0.8918    3.0236    0.0130 C   0  0  0  0  0  0  0  0  0  0  0  0
   -3.2125    2.4434   -0.5169 C   0  0  0  0  0  0  0  0  0  0  0  0
    3.6852   -0.4260   -1.5223 C   0  0  0  0  0  0  0  0  0  0  0  0
   -2.1533    2.3826    0.3049 C   0  0  0  0  0  0  0  0  0  0  0  0
  1 15  1  0
  2 22  1  0
  3 22  2  0
  4  5  1  0
  4  6  1  0
  5  7  1  0
  6  8  1  0
  7  9  1  0
  8 10  1  0
  9 11  1  0
 10 12  1  0
 12 17  2  0
 13 14  1  0
 13 15  1  0
 14 16  1  0
 15 19  1  0
 16 22  1  0
 17 18  1  0
 18 21  1  0
 19 20  2  0
 20 23  1  0
 21 23  2  0
M  END
>  <PUBCHEM_COMPOUND_CID>  (1) 
1768

>  <PUBCHEM_CONFORMER_RMSD>  (1) 
1.2

>  <PUBCHEM_CONFORMER_DIVERSEORDER>  (1) 
1
122
18
97
144
20
160
150
104
42
118
74
198
51
129
130
22
39
184
57
165
70
73
163
182
205
193
103
62
155
208
195
69
168
59
94
50
207
143
102
14
148
159
152
86
210
161
11
120
101
153
84
181
154
128
64
56
179
172
48
114
175
26
202
15
147
96
176
166
107
85
188
98
77
197
186
206
116
58
157
158
190
12
164
145
38
112
135
171
65
68
46
75
203
151
162
72
67
185
194
83
19
123
127
174
31
23
170
140
82
115
189
47
41
93
177
141
32
63
76
156
88
142
173
17
2
9
201
211
113
169
111
89
7
200
92
196
43
61
44
146
180
126
87
119
132
91
131
110
60
71
34
106
199
117
121
167
95
21
178
6
125
109
40
133
124
66
149
136
204
183
105
187
138
49
54
108
27
8
78
90
139
192
52
191
30
13
134
81
35
55
137
79
45
28
99
5
25
36
24
16
100
209
29
53
80
37
4
10
33
3

>  <PUBCHEM_MMFF94_PARTIAL_CHARGES>  (1) 
22
1 -0.68
10 0.14
12 -0.29
15 0.42
16 0.06
17 -0.29
18 0.28
19 -0.29
2 -0.65
20 -0.15
21 -0.29
22 0.66
23 -0.15
3 -0.57
41 0.15
49 0.15
52 0.15
53 0.15
54 0.15
55 0.4
56 0.15
57 0.5

>  <PUBCHEM_EFFECTIVE_ROTOR_COUNT>  (1) 
15

>  <PUBCHEM_PHARMACOPHORE_FEATURES>  (1) 
6
1 1 acceptor
1 1 donor
1 11 hydrophobe
1 2 acceptor
1 3 acceptor
3 2 3 22 anion

>  <PUBCHEM_HEAVY_ATOM_COUNT>  (1) 
23

>  <PUBCHEM_ATOM_DEF_STEREO_COUNT>  (1) 
0

>  <PUBCHEM_ATOM_UDEF_STEREO_COUNT>  (1) 
1

>  <PUBCHEM_BOND_DEF_STEREO_COUNT>  (1) 
0

>  <PUBCHEM_BOND_UDEF_STEREO_COUNT>  (1) 
3

>  <PUBCHEM_ISOTOPIC_ATOM_COUNT>  (1) 
0

>  <PUBCHEM_COMPONENT_COUNT>  (1) 
1

>  <PUBCHEM_CACTVS_TAUTO_COUNT>  (1) 
1

>  <PUBCHEM_CONFORMER_ID>  (1) 
000006E800000001

>  <PUBCHEM_MMFF94_ENERGY>  (1) 
8.0337

>  <PUBCHEM_FEATURE_SELFOVERLAP>  (1) 
30.503

>  <PUBCHEM_SHAPE_FINGERPRINT>  (1) 
108634 29 18339086020057802468
1100329 8 18192987115600408371
13402501 40 18124034799775734141
14117953 113 17545595661319299493
14251757 17 18269842071980178153
14251757 5 17252029831705307117
144659 178 17833548998810960174
14647877 51 18270403935222880228
15264996 142 17397002157846588994
15274700 256 18410575099136012494
15351339 4 18334292042066027994
17093844 170 17907293604404977984
18336668 15 17825664456941705126
20621476 13 17980204406796870650
20765182 5 17977371747306686562
238918 7 17767395056443493712
463206 1 18193277399180665929
474144 1 17898575276281904354
5047190 48 17114379802192515825
6433294 58 18410287042892629281

>  <PUBCHEM_SHAPE_MULTIPOLES>  (1) 
455.72
10.24
7.09
1.39
5.18
1.18
0.42
-3.62
2.92
-2.58
-3.65
-1.96
-0.24
-0.3

>  <PUBCHEM_SHAPE_SELFOVERLAP>  (1) 
855.729

>  <PUBCHEM_SHAPE_VOLUME>  (1) 
281.8

>  <PUBCHEM_COORDINATE_TYPE>  (1) 
2
5
10

$$$$
