17685
     RDKit          3D

 15 16  0  0  1  0  0  0  0  0999 V2000
    1.3547   -0.3040    0.6758 O   0  0  0  0  0  0  0  0  0  0  0  0
    2.6135    1.3289   -0.3601 O   0  0  0  0  0  0  0  0  0  0  0  0
   -1.7032    0.4183   -0.7764 C   0  0  0  0  0  0  0  0  0  0  0  0
   -1.6446   -0.9007    0.0452 C   0  0  0  0  0  0  0  0  0  0  0  0
   -1.0149   -0.1635    1.2632 C   0  0  0  0  0  0  0  0  0  0  0  0
   -0.2268    0.9112   -0.7498 C   0  0  0  0  0  0  0  0  0  0  0  0
    0.2259    0.5530    0.6781 C   0  0  0  0  0  0  0  0  0  0  0  0
   -2.5032    1.3729    0.1538 C   0  0  0  0  0  0  0  0  0  0  0  0
   -2.0407    0.9531    1.5611 C   0  0  0  0  0  0  0  0  0  0  0  0
   -2.2752    0.3333   -2.1774 C   0  0  0  0  0  0  0  0  0  0  0  0
   -3.0104   -1.5530    0.3484 C   0  0  0  0  0  0  0  0  0  0  0  0
   -0.7725   -2.0167   -0.5625 C   0  0  0  0  0  0  0  0  0  0  0  0
    2.4998    0.2099    0.1212 C   0  0  0  0  0  0  0  0  0  0  0  0
    3.6012   -0.8214    0.1977 C   0  0  0  0  0  0  0  0  0  0  0  0
    4.8963   -0.3215   -0.4183 C   0  0  0  0  0  0  0  0  0  0  0  0
  1  7  1  0
  1 13  1  0
  2 13  2  0
  3  4  1  0
  3  6  1  0
  3  8  1  0
  3 10  1  0
  4  5  1  0
  4 11  1  0
  4 12  1  0
  5  7  1  0
  5  9  1  0
  6  7  1  0
  8  9  1  0
 13 14  1  0
 14 15  1  0
M  END
>  <PUBCHEM_COMPOUND_CID>  (1) 
17685

>  <PUBCHEM_CONFORMER_RMSD>  (1) 
0.6

>  <PUBCHEM_CONFORMER_DIVERSEORDER>  (1) 
1
13
28
15
27
4
19
25
8
20
3
11
18
14
17
9
21
10
26
7
22
5
16
2
6
24
12
23

>  <PUBCHEM_MMFF94_PARTIAL_CHARGES>  (1) 
5
1 -0.43
13 0.66
14 0.06
2 -0.57
7 0.28

>  <PUBCHEM_EFFECTIVE_ROTOR_COUNT>  (1) 
4

>  <PUBCHEM_PHARMACOPHORE_FEATURES>  (1) 
4
1 15 hydrophobe
1 2 acceptor
3 4 11 12 hydrophobe
7 3 4 5 6 7 8 9 rings

>  <PUBCHEM_HEAVY_ATOM_COUNT>  (1) 
15

>  <PUBCHEM_ATOM_DEF_STEREO_COUNT>  (1) 
0

>  <PUBCHEM_ATOM_UDEF_STEREO_COUNT>  (1) 
3

>  <PUBCHEM_BOND_DEF_STEREO_COUNT>  (1) 
0

>  <PUBCHEM_BOND_UDEF_STEREO_COUNT>  (1) 
0

>  <PUBCHEM_ISOTOPIC_ATOM_COUNT>  (1) 
0

>  <PUBCHEM_COMPONENT_COUNT>  (1) 
1

>  <PUBCHEM_CACTVS_TAUTO_COUNT>  (1) 
1

>  <PUBCHEM_CONFORMER_ID>  (1) 
0000451500000001

>  <PUBCHEM_MMFF94_ENERGY>  (1) 
57.7111

>  <PUBCHEM_FEATURE_SELFOVERLAP>  (1) 
20.297

>  <PUBCHEM_SHAPE_FINGERPRINT>  (1) 
11315181 36 16917062232098845738
12173636 292 18342177760571049297
12186901 62 17749100080747676343
12423570 1 11188834687978624833
12916754 54 18261396697413335466
12932764 1 17676482844007660976
13024252 1 15140680276363539089
13296908 3 18335699468636361912
15775835 57 18187085014349499770
16945 1 17751617902250963649
18186145 218 18333167263451162688
19422 9 18337120046054126272
19868273 293 17459169846454764166
200 152 18273206525858229783
20525323 117 9223230749721415464
20653085 51 17894619349388080485
21524375 3 17272303348879613657
23402539 116 17703786977737729737
23559900 14 18059847411617670064
3248919 1 18201997729359339880
369184 2 9223234052582992529
4175511 318 17749385927863801430
5706482 22 17917153788712294707
58051976 100 18334017198323292342
74978 22 18342173388742553120

>  <PUBCHEM_SHAPE_MULTIPOLES>  (1) 
296.95
6.24
1.55
1.4
9.6
0.49
0.41
0.72
0.55
-0.85
-0.04
-1.15
-0.23
-0.11

>  <PUBCHEM_SHAPE_SELFOVERLAP>  (1) 
617.294

>  <PUBCHEM_SHAPE_VOLUME>  (1) 
176.8

>  <PUBCHEM_COORDINATE_TYPE>  (1) 
2
5
10

$$$$
