17698
     RDKit          3D

 17 16  0  0  0  0  0  0  0  0999 V2000
   -3.0199   -1.3987    0.3814 O   0  0  0  0  0  0  0  0  0  0  0  0
   -1.9993   -0.6779   -1.5568 O   0  0  0  0  0  0  0  0  0  0  0  0
    0.2396   -0.0580   -0.0097 N   0  0  0  0  0  0  0  0  0  0  0  0
   -0.1589    1.2761    0.4413 C   0  0  0  0  0  0  0  0  0  0  0  0
    1.5911   -0.3701    0.4440 C   0  0  0  0  0  0  0  0  0  0  0  0
    0.4802    2.3454   -0.4467 C   0  0  0  0  0  0  0  0  0  0  0  0
    2.2176   -1.4339   -0.4592 C   0  0  0  0  0  0  0  0  0  0  0  0
    0.1027    3.7823   -0.0391 C   0  0  0  0  0  0  0  0  0  0  0  0
    3.6527   -1.8150   -0.0483 C   0  0  0  0  0  0  0  0  0  0  0  0
   -0.7095   -1.0623    0.4724 C   0  0  0  0  0  0  0  0  0  0  0  0
    0.5584    4.0510    1.3975 C   0  0  0  0  0  0  0  0  0  0  0  0
    0.7032    4.8323   -0.9751 C   0  0  0  0  0  0  0  0  0  0  0  0
    3.6539   -2.3701    1.3783 C   0  0  0  0  0  0  0  0  0  0  0  0
    4.2816   -2.8348   -0.9987 C   0  0  0  0  0  0  0  0  0  0  0  0
   -1.9526   -1.0112   -0.3804 C   0  0  0  0  0  0  0  0  0  0  0  0
   -4.2856   -1.4030   -0.2868 C   0  0  0  0  0  0  0  0  0  0  0  0
   -5.3552   -1.8520    0.6859 C   0  0  0  0  0  0  0  0  0  0  0  0
  1 15  1  0
  1 16  1  0
  2 15  2  0
  3  4  1  0
  3  5  1  0
  3 10  1  0
  4  6  1  0
  5  7  1  0
  6  8  1  0
  7  9  1  0
  8 11  1  0
  8 12  1  0
  9 13  1  0
  9 14  1  0
 10 15  1  0
 16 17  1  0
M  END
>  <PUBCHEM_COMPOUND_CID>  (1) 
17698

>  <PUBCHEM_CONFORMER_RMSD>  (1) 
0.8

>  <PUBCHEM_CONFORMER_DIVERSEORDER>  (1) 
1
27
79
4
246
58
229
213
195
72
237
257
156
26
245
33
85
47
187
200
181
113
157
206
162
247
201
78
219
71
6
249
130
161
186
154
166
158
46
199
179
125
193
138
131
163
87
188
52
256
91
67
94
209
123
185
202
141
153
190
24
60
102
168
22
224
35
230
255
207
189
241
80
42
194
259
164
214
21
20
252
110
38
208
254
266
192
62
198
170
70
89
120
183
146
83
150
203
104
205
43
36
28
18
176
65
107
134
41
216
210
215
228
139
37
236
222
233
118
231
242
32
251
59
173
250
234
265
74
66
151
7
152
25
63
204
243
147
57
165
15
220
95
61
124
145
221
19
2
106
103
132
128
159
149
225
191
223
248
126
116
30
111
5
127
196
117
45
239
121
137
119
11
227
182
212
49
142
171
143
235
217
197
96
167
48
31
17
76
54
14
264
263
77
53
184
84
169
260
172
16
135
108
115
253
29
98
64
262
69
82
160
258
133
97
39
174
99
55
180
178
112
144
177
34
238
40
81
136
56
51
129
68
50
93
88
13
175
244
92
122
218
226
155
100
114
240
140
232
148
211
109
3
261
12
75
23
105
90
101
8
86
9
10
73
44

>  <PUBCHEM_MMFF94_PARTIAL_CHARGES>  (1) 
8
1 -0.43
10 0.33
15 0.66
16 0.28
2 -0.57
3 -0.81
4 0.27
5 0.27

>  <PUBCHEM_EFFECTIVE_ROTOR_COUNT>  (1) 
10

>  <PUBCHEM_PHARMACOPHORE_FEATURES>  (1) 
4
1 2 acceptor
1 3 cation
3 8 11 12 hydrophobe
3 9 13 14 hydrophobe

>  <PUBCHEM_HEAVY_ATOM_COUNT>  (1) 
17

>  <PUBCHEM_ATOM_DEF_STEREO_COUNT>  (1) 
0

>  <PUBCHEM_ATOM_UDEF_STEREO_COUNT>  (1) 
0

>  <PUBCHEM_BOND_DEF_STEREO_COUNT>  (1) 
0

>  <PUBCHEM_BOND_UDEF_STEREO_COUNT>  (1) 
0

>  <PUBCHEM_ISOTOPIC_ATOM_COUNT>  (1) 
0

>  <PUBCHEM_COMPONENT_COUNT>  (1) 
1

>  <PUBCHEM_CACTVS_TAUTO_COUNT>  (1) 
1

>  <PUBCHEM_CONFORMER_ID>  (1) 
0000452200000001

>  <PUBCHEM_MMFF94_ENERGY>  (1) 
20.4687

>  <PUBCHEM_FEATURE_SELFOVERLAP>  (1) 
20.297

>  <PUBCHEM_SHAPE_FINGERPRINT>  (1) 
11809386 21 17976826381129417974
11833330 49 18264483979893071024
12500047 106 17548131131181088982
12532896 13 17259614851371204692
12788726 201 18045785585131504506
13052359 8 17760640369914053320
13590594 115 18336840697529910937
136203 1 18122623847200026792
13955234 65 18122631819028827507
14178000 15 18412829118118474409
14178342 30 17903342720546766002
15042514 8 18123194502472392219
15806764 133 18187914110994864599
15842332 3 17557701649698462479
15885798 251 18411983520520203179
17539 30 18123744262364982886
1813 80 18200889412642821847
18785283 64 17901383712257084329
20671657 1 18196094575926080303
20711985 344 18050270493177071578
20739085 24 18272101503703146923
21041028 32 18412262826843942621
21304303 282 17181893720204465444
21426921 1 18122910820278584950
21524375 3 17037234754819760409
2255824 54 18196935702015458303
22849341 161 18269579203049889427
23175994 123 18409728448431866951
23366157 5 18119239816814021783
23557571 272 17982992476833783242
23558518 356 17329693337322437295
23566358 27 18051413165211267407
3057174 1 16682031441729508780
3091708 16 9210952507663863480
314173 41 18409735092166538179
458136 41 17832150794067062617
58779409 8 17546171801032734734
621550 5 18040156214857572135
6442390 28 17041771357207688619
68521 5 18266459797935071518
7164475 11 18192719951592157566
7364860 26 18195809797829238665
77188 2 18410578379013972772
81228 2 18195520385874342976
9841814 1 18188760760148688067
9925002 15 18047497559354458324

>  <PUBCHEM_SHAPE_MULTIPOLES>  (1) 
333.13
7.66
6.13
1.18
3.64
11.62
-0.06
-13.61
-0.34
-1.17
0.12
-0.39
0.19
0.3

>  <PUBCHEM_SHAPE_SELFOVERLAP>  (1) 
617.287

>  <PUBCHEM_SHAPE_VOLUME>  (1) 
212.1

>  <PUBCHEM_COORDINATE_TYPE>  (1) 
2
5
10

$$$$
