17695
     RDKit          3D

 15 14  0  0  0  0  0  0  0  0999 V2000
    0.8493    0.0057   -0.0355 Si  0  0  0  0  0  4  0  0  0  0  0  0
    2.0827   -0.0228    1.1019 O   0  0  0  0  0  0  0  0  0  0  0  0
    1.0105    1.3723   -0.9941 O   0  0  0  0  0  0  0  0  0  0  0  0
    0.9807   -1.3575   -1.0043 O   0  0  0  0  0  0  0  0  0  0  0  0
   -0.8093    0.0096    0.8469 C   0  0  0  0  0  0  0  0  0  0  0  0
   -2.0727    0.0346   -0.0228 C   0  0  0  0  0  0  0  0  0  0  0  0
   -3.3724    0.0444    0.7905 C   0  0  0  0  0  0  0  0  0  0  0  0
   -4.5966   -0.0331   -0.1228 C   0  0  0  0  0  0  0  0  0  0  0  0
   -5.8902    0.0050    0.6752 C   0  0  0  0  0  0  0  0  0  0  0  0
    3.4343   -0.0301    0.6641 C   0  0  0  0  0  0  0  0  0  0  0  0
    0.9562    2.6591   -0.3955 C   0  0  0  0  0  0  0  0  0  0  0  0
    0.9057   -2.6463   -0.4122 C   0  0  0  0  0  0  0  0  0  0  0  0
    4.3443   -0.0564    1.8736 C   0  0  0  0  0  0  0  0  0  0  0  0
    1.1265    3.7108   -1.4709 C   0  0  0  0  0  0  0  0  0  0  0  0
    1.0511   -3.6952   -1.4941 C   0  0  0  0  0  0  0  0  0  0  0  0
  1  2  1  0
  1  3  1  0
  1  4  1  0
  1  5  1  0
  2 10  1  0
  3 11  1  0
  4 12  1  0
  5  6  1  0
  6  7  1  0
  7  8  1  0
  8  9  1  0
 10 13  1  0
 11 14  1  0
 12 15  1  0
M  END
>  <PUBCHEM_COMPOUND_CID>  (1) 
17695

>  <PUBCHEM_CONFORMER_RMSD>  (1) 
0.8

>  <PUBCHEM_CONFORMER_DIVERSEORDER>  (1) 
1
151
36
20
23
121
157
114
112
4
118
81
70
19
148
9
26
170
113
90
139
107
17
65
47
82
146
101
99
42
138
117
60
43
97
62
52
72
156
40
84
57
78
103
150
161
122
14
21
169
153
88
95
77
5
18
119
73
116
41
71
33
115
31
44
141
149
108
147
75
29
94
69
168
7
46
8
166
55
80
155
140
100
129
64
128
39
167
12
165
120
163
59
3
89
61
13
124
96
79
68
164
98
27
30
125
6
131
53
48
127
16
142
154
2
137
130
105
110
10
123
74
22
56
145
85
86
83
34
126
87
15
111
144
58
24
54
158
66
35
38
11
162
45
136
32
104
28
92
63
25
37
93
133
106
67
102
135
160
109
143
132
134
76
159
51
50
49
91
152

>  <PUBCHEM_MMFF94_PARTIAL_CHARGES>  (1) 
8
1 0.97
10 0.28
11 0.28
12 0.28
2 -0.58
3 -0.58
4 -0.58
5 -0.08

>  <PUBCHEM_EFFECTIVE_ROTOR_COUNT>  (1) 
10

>  <PUBCHEM_PHARMACOPHORE_FEATURES>  (1) 
1
1 9 hydrophobe

>  <PUBCHEM_HEAVY_ATOM_COUNT>  (1) 
15

>  <PUBCHEM_ATOM_DEF_STEREO_COUNT>  (1) 
0

>  <PUBCHEM_ATOM_UDEF_STEREO_COUNT>  (1) 
0

>  <PUBCHEM_BOND_DEF_STEREO_COUNT>  (1) 
0

>  <PUBCHEM_BOND_UDEF_STEREO_COUNT>  (1) 
0

>  <PUBCHEM_ISOTOPIC_ATOM_COUNT>  (1) 
0

>  <PUBCHEM_COMPONENT_COUNT>  (1) 
1

>  <PUBCHEM_CACTVS_TAUTO_COUNT>  (1) 
1

>  <PUBCHEM_CONFORMER_ID>  (1) 
0000451F00000001

>  <PUBCHEM_MMFF94_ENERGY>  (1) 
2.4101

>  <PUBCHEM_FEATURE_SELFOVERLAP>  (1) 
5.074

>  <PUBCHEM_SHAPE_FINGERPRINT>  (1) 
10756046 70 18191579955465148652
108634 29 17753874031629418205
13134695 92 17968087655351672108
14252887 29 18338804407737201059
14863182 85 18059584589262010599
14943834 7 17689145034708797870
20511035 2 17826244165730648656
20600515 1 17458631060061189996
20645477 70 18334584585547421761
21054139 6 17845353605435102287
21524375 3 17541403652599887541
23402539 116 18262784216800158057
23557571 272 18043815273120999949
2748010 2 18049726222020356029
3060560 45 18339378451221714197
3250762 1 17619338815282786358
3286 77 17530962501625581869
465052 167 18260547797270161178
81228 2 17756439165996689128
9999458 23 17703781548561113624

>  <PUBCHEM_SHAPE_MULTIPOLES>  (1) 
309.3
8.14
3.58
1.49
13.58
0.06
-0.05
-0.03
-4.61
-3.13
3.3
-1.35
-0.03
-0.08

>  <PUBCHEM_SHAPE_SELFOVERLAP>  (1) 
549.576

>  <PUBCHEM_SHAPE_VOLUME>  (1) 
201.7

>  <PUBCHEM_COORDINATE_TYPE>  (1) 
2
5
10

$$$$
