17726
     RDKit          3D

  7  6  0  0  0  0  0  0  0  0999 V2000
    2.0131   -0.5573    0.3997 O   0  0  0  0  0  0  0  0  0  0  0  0
    1.2816    1.3914   -0.3201 O   0  0  0  0  0  0  0  0  0  0  0  0
    1.1260    0.2113    0.0125 N   0  0  0  0  0  0  0  0  0  0  0  0
   -1.2665    0.7091    0.1721 C   0  0  0  0  0  0  0  0  0  0  0  0
   -0.2010   -0.3124   -0.0564 C   0  0  0  0  0  0  0  0  0  0  0  0
   -2.6943    0.1795    0.1049 C   0  0  0  0  0  0  0  0  0  0  0  0
   -0.2589   -1.6217   -0.3126 C   0  0  0  0  0  0  0  0  0  0  0  0
  1  3  1  0
  2  3  2  0
  3  5  1  0
  4  5  1  0
  4  6  1  0
  5  7  2  0
M  CHG  2   1  -1   3   1
M  END
>  <PUBCHEM_COMPOUND_CID>  (1) 
17726

>  <PUBCHEM_CONFORMER_RMSD>  (1) 
0.4

>  <PUBCHEM_CONFORMER_DIVERSEORDER>  (1) 
2
10
7
1
6
5
9
3
4
8

>  <PUBCHEM_MMFF94_PARTIAL_CHARGES>  (1) 
8
1 -0.52
13 0.15
14 0.15
2 -0.52
3 0.84
4 0.14
5 0.07
7 -0.3

>  <PUBCHEM_EFFECTIVE_ROTOR_COUNT>  (1) 
2

>  <PUBCHEM_PHARMACOPHORE_FEATURES>  (1) 
4
1 1 acceptor
1 1 anion
1 2 acceptor
1 6 hydrophobe

>  <PUBCHEM_HEAVY_ATOM_COUNT>  (1) 
7

>  <PUBCHEM_ATOM_DEF_STEREO_COUNT>  (1) 
0

>  <PUBCHEM_ATOM_UDEF_STEREO_COUNT>  (1) 
0

>  <PUBCHEM_BOND_DEF_STEREO_COUNT>  (1) 
0

>  <PUBCHEM_BOND_UDEF_STEREO_COUNT>  (1) 
0

>  <PUBCHEM_ISOTOPIC_ATOM_COUNT>  (1) 
0

>  <PUBCHEM_COMPONENT_COUNT>  (1) 
1

>  <PUBCHEM_CACTVS_TAUTO_COUNT>  (1) 
1

>  <PUBCHEM_CONFORMER_ID>  (1) 
0000453E00000002

>  <PUBCHEM_MMFF94_ENERGY>  (1) 
12.8154

>  <PUBCHEM_FEATURE_SELFOVERLAP>  (1) 
20.376

>  <PUBCHEM_SHAPE_FINGERPRINT>  (1) 
20096714 4 18410014372398291757
21040471 1 18341895241959171921
29004967 10 18262522463954626531
5084963 1 18272932695981139777
5460574 1 9295283945776135793

>  <PUBCHEM_SHAPE_MULTIPOLES>  (1) 
127.34
2.8
1.36
0.63
1.08
0.28
0
-0.44
0.28
-0.25
-0.17
0
0.02
-0.16

>  <PUBCHEM_SHAPE_SELFOVERLAP>  (1) 
236.483

>  <PUBCHEM_SHAPE_VOLUME>  (1) 
81.2

>  <PUBCHEM_COORDINATE_TYPE>  (1) 
2
5
10

$$$$
