17738
     RDKit          3D

 10 10  0  0  0  0  0  0  0  0999 V2000
   -1.3705    1.9252    0.0003 O   0  0  0  0  0  0  0  0  0  0  0  0
   -2.7841   -0.4513   -0.0005 O   0  0  0  0  0  0  0  0  0  0  0  0
    0.6912    0.7112   -0.0005 C   0  0  0  0  0  0  0  0  0  0  0  0
    1.3675   -0.5088    0.0003 C   0  0  0  0  0  0  0  0  0  0  0  0
   -0.7036    0.7354   -0.0008 C   0  0  0  0  0  0  0  0  0  0  0  0
    0.6491   -1.7045    0.0009 C   0  0  0  0  0  0  0  0  0  0  0  0
   -1.4218   -0.4604   -0.0003 C   0  0  0  0  0  0  0  0  0  0  0  0
    1.4578    1.9951    0.0010 C   0  0  0  0  0  0  0  0  0  0  0  0
    2.8600   -0.5615   -0.0012 C   0  0  0  0  0  0  0  0  0  0  0  0
   -0.7455   -1.6804    0.0006 C   0  0  0  0  0  0  0  0  0  0  0  0
  1  5  1  0
  2  7  1  0
  3  4  2  0
  3  5  1  0
  3  8  1  0
  4  6  1  0
  4  9  1  0
  5  7  2  0
  6 10  2  0
  7 10  1  0
M  END
>  <PUBCHEM_COMPOUND_CID>  (1) 
17738

>  <PUBCHEM_CONFORMER_RMSD>  (1) 
0.4

>  <PUBCHEM_CONFORMER_DIVERSEORDER>  (1) 
1

>  <PUBCHEM_MMFF94_PARTIAL_CHARGES>  (1) 
14
1 -0.53
10 -0.15
11 0.15
18 0.15
19 0.45
2 -0.53
20 0.45
3 -0.14
4 -0.14
5 0.08
6 -0.15
7 0.08
8 0.14
9 0.14

>  <PUBCHEM_EFFECTIVE_ROTOR_COUNT>  (1) 
0

>  <PUBCHEM_PHARMACOPHORE_FEATURES>  (1) 
3
1 1 donor
1 2 donor
6 3 4 5 6 7 10 rings

>  <PUBCHEM_HEAVY_ATOM_COUNT>  (1) 
10

>  <PUBCHEM_ATOM_DEF_STEREO_COUNT>  (1) 
0

>  <PUBCHEM_ATOM_UDEF_STEREO_COUNT>  (1) 
0

>  <PUBCHEM_BOND_DEF_STEREO_COUNT>  (1) 
0

>  <PUBCHEM_BOND_UDEF_STEREO_COUNT>  (1) 
0

>  <PUBCHEM_ISOTOPIC_ATOM_COUNT>  (1) 
0

>  <PUBCHEM_COMPONENT_COUNT>  (1) 
1

>  <PUBCHEM_CACTVS_TAUTO_COUNT>  (1) 
31

>  <PUBCHEM_CONFORMER_ID>  (1) 
0000454A00000001

>  <PUBCHEM_MMFF94_ENERGY>  (1) 
25.4305

>  <PUBCHEM_FEATURE_SELFOVERLAP>  (1) 
15.228

>  <PUBCHEM_SHAPE_FINGERPRINT>  (1) 
11206711 2 18336827498372249581
12423570 1 14223672876946024582
16945 1 18410575084721374022
18185500 45 18194119603565044314
193761 8 17618222144828444934
21040471 1 17978228588464583300
23402655 69 18123450706526789125
23552423 10 18045501073839417654
241688 4 17978795605836592674
2748010 2 18122345949794131414
5084963 1 18202845452391838666
66348 1 18409728447925048772

>  <PUBCHEM_SHAPE_MULTIPOLES>  (1) 
194.06
3.03
2.11
0.6
0.1
0.52
0
-0.24
0
0.17
0
0.04
-0.02
0

>  <PUBCHEM_SHAPE_SELFOVERLAP>  (1) 
405.664

>  <PUBCHEM_SHAPE_VOLUME>  (1) 
112

>  <PUBCHEM_COORDINATE_TYPE>  (1) 
2
5
10

$$$$
