17732
     RDKit          3D

 20 22  0  0  1  0  0  0  0  0999 V2000
   -0.4496    1.1079    2.3886 O   0  0  0  0  0  0  0  0  0  0  0  0
   -1.3904    3.7022   -1.2581 O   0  0  0  0  0  0  0  0  0  0  0  0
    5.0336   -1.1865   -0.0598 O   0  0  0  0  0  0  0  0  0  0  0  0
   -0.7153    1.4759   -1.0542 N   0  0  0  0  0  0  0  0  0  0  0  0
   -1.0147    2.6735    0.7893 N   0  0  0  0  0  0  0  0  0  0  0  0
   -0.3977    0.5084   -0.0036 C   0  0  0  0  0  0  0  0  0  0  0  0
    1.0660    0.0516   -0.0182 C   0  0  0  0  0  0  0  0  0  0  0  0
   -1.3918   -0.6522   -0.1103 C   0  0  0  0  0  0  0  0  0  0  0  0
   -0.6164    1.4315    1.2186 C   0  0  0  0  0  0  0  0  0  0  0  0
   -1.0783    2.7334   -0.5796 C   0  0  0  0  0  0  0  0  0  0  0  0
    1.5426   -0.8152    0.9691 C   0  0  0  0  0  0  0  0  0  0  0  0
    1.9315    0.4994   -1.0203 C   0  0  0  0  0  0  0  0  0  0  0  0
   -1.3695   -1.4892   -1.2260 C   0  0  0  0  0  0  0  0  0  0  0  0
   -2.3194   -0.8720    0.9080 C   0  0  0  0  0  0  0  0  0  0  0  0
    2.8741   -1.2307    0.9550 C   0  0  0  0  0  0  0  0  0  0  0  0
    3.2629    0.0837   -1.0345 C   0  0  0  0  0  0  0  0  0  0  0  0
   -2.2749   -2.5458   -1.3232 C   0  0  0  0  0  0  0  0  0  0  0  0
   -3.2246   -1.9288    0.8109 C   0  0  0  0  0  0  0  0  0  0  0  0
    3.7343   -0.7812   -0.0469 C   0  0  0  0  0  0  0  0  0  0  0  0
   -3.2024   -2.7658   -0.3048 C   0  0  0  0  0  0  0  0  0  0  0  0
  1  9  2  0
  2 10  2  0
  3 19  1  0
  4  6  1  0
  4 10  1  0
  5  9  1  0
  5 10  1  0
  6  7  1  0
  6  8  1  0
  6  9  1  0
  7 11  2  0
  7 12  1  0
  8 13  2  0
  8 14  1  0
 11 15  1  0
 12 16  2  0
 13 17  1  0
 14 18  2  0
 15 19  2  0
 16 19  1  0
 17 20  2  0
 18 20  1  0
M  END
>  <PUBCHEM_COMPOUND_CID>  (1) 
17732

>  <PUBCHEM_CONFORMER_RMSD>  (1) 
0.6

>  <PUBCHEM_CONFORMER_DIVERSEORDER>  (1) 
1
2
3
4
5
6

>  <PUBCHEM_MMFF94_PARTIAL_CHARGES>  (1) 
32
1 -0.57
10 0.69
11 -0.15
12 -0.15
13 -0.15
14 -0.15
15 -0.15
16 -0.15
17 -0.15
18 -0.15
19 0.08
2 -0.57
20 -0.15
21 0.37
22 0.37
23 0.15
24 0.15
25 0.15
26 0.15
27 0.15
28 0.15
29 0.15
3 -0.53
30 0.15
31 0.15
32 0.45
4 -0.73
5 -0.49
6 0.65
7 -0.14
8 -0.14
9 0.57

>  <PUBCHEM_EFFECTIVE_ROTOR_COUNT>  (1) 
2.6

>  <PUBCHEM_PHARMACOPHORE_FEATURES>  (1) 
8
1 1 acceptor
1 2 acceptor
1 3 donor
1 4 donor
1 5 donor
5 4 5 6 9 10 rings
6 7 11 12 15 16 19 rings
6 8 13 14 17 18 20 rings

>  <PUBCHEM_HEAVY_ATOM_COUNT>  (1) 
20

>  <PUBCHEM_ATOM_DEF_STEREO_COUNT>  (1) 
0

>  <PUBCHEM_ATOM_UDEF_STEREO_COUNT>  (1) 
1

>  <PUBCHEM_BOND_DEF_STEREO_COUNT>  (1) 
0

>  <PUBCHEM_BOND_UDEF_STEREO_COUNT>  (1) 
0

>  <PUBCHEM_ISOTOPIC_ATOM_COUNT>  (1) 
0

>  <PUBCHEM_COMPONENT_COUNT>  (1) 
1

>  <PUBCHEM_CACTVS_TAUTO_COUNT>  (1) 
10

>  <PUBCHEM_CONFORMER_ID>  (1) 
0000454400000001

>  <PUBCHEM_MMFF94_ENERGY>  (1) 
57.5721

>  <PUBCHEM_FEATURE_SELFOVERLAP>  (1) 
40.671

>  <PUBCHEM_SHAPE_FINGERPRINT>  (1) 
104564 63 18410852131734632055
10764073 3 14616348383565852242
11101153 10 18187933949813444796
11578080 2 18199455722748197921
11833330 49 18261382343411619069
12553582 1 18338234984941406422
12643181 29 17693101765395756934
12714826 92 18343580729029023602
12788726 201 18188761748048934755
13004483 165 18410291436543770759
13149001 5 17985236652263581064
13681431 1 18048869998831087389
13911987 19 17101459342549360948
13955234 65 17402058189495063979
14181834 199 17269453723940782703
14817 1 8742035971368505497
15375462 189 18125452048641472779
15852999 172 17768799871658011150
15906896 17 18116994386425981685
16752209 62 18267008480033509335
16945 1 18338227159652761821
17980427 23 14692294010292691795
1813 80 18268728266437893471
200 152 17894632582367065610
20361792 2 18268142239762405591
20600515 1 17987816192736432109
20602899 9 17911794678659656309
20645476 183 17976530624863149996
21296965 67 18339360889253472991
21524375 3 17536034355090564540
21731516 1 18340483481872155710
22112679 90 18268172983037752029
2255824 54 17689999359338483527
22907989 373 18340773641473089236
23419403 2 17630865257406445913
23598288 3 18262249810898692620
2748010 2 18124850577400355517
298252 57 17682952198242174864
427121 178 16051023020309055715
5845 1 11777175040285984669
6049 1 17989193842531047490
633830 44 7924818567998049003
7364860 26 17481428600650537887
81228 2 18341330015841888937
9981440 41 16769816656740399242

>  <PUBCHEM_SHAPE_MULTIPOLES>  (1) 
384.02
5.85
3.39
1.51
4.97
2.99
0.34
-5.95
-0.32
-2.6
-0.86
-0.3
0.33
-0.45

>  <PUBCHEM_SHAPE_SELFOVERLAP>  (1) 
850.501

>  <PUBCHEM_SHAPE_VOLUME>  (1) 
205.3

>  <PUBCHEM_COORDINATE_TYPE>  (1) 
2
5
10

$$$$
