17736
     RDKit          3D

 20 20  0  0  0  0  0  0  0  0999 V2000
    6.3043    0.2788    0.1544 N   0  0  0  0  0  0  0  0  0  0  0  0
   -2.5625    0.6441    0.1509 C   0  0  0  0  0  0  0  0  0  0  0  0
   -1.2401   -0.0593   -0.1636 C   0  0  0  0  0  0  0  0  0  0  0  0
   -3.7957   -0.2030   -0.1761 C   0  0  0  0  0  0  0  0  0  0  0  0
   -0.0430    0.8227    0.2028 C   0  0  0  0  0  0  0  0  0  0  0  0
   -5.1188    0.5099    0.1153 C   0  0  0  0  0  0  0  0  0  0  0  0
    1.2790    0.1324   -0.1407 C   0  0  0  0  0  0  0  0  0  0  0  0
   -6.3122   -0.4081   -0.1615 C   0  0  0  0  0  0  0  0  0  0  0  0
    2.5120    0.9425    0.2723 C   0  0  0  0  0  0  0  0  0  0  0  0
   -7.6649    0.2442    0.1390 C   0  0  0  0  0  0  0  0  0  0  0  0
    3.8328    0.2187   -0.0043 C   0  0  0  0  0  0  0  0  0  0  0  0
   -8.8985   -0.6208   -0.1401 C   0  0  0  0  0  0  0  0  0  0  0  0
    5.0568    1.0349    0.4053 C   0  0  0  0  0  0  0  0  0  0  0  0
  -10.2500    0.0574    0.0960 C   0  0  0  0  0  0  0  0  0  0  0  0
  -11.4390   -0.8580   -0.1512 C   0  0  0  0  0  0  0  0  0  0  0  0
    6.9071    0.4036   -1.0359 C   0  0  0  0  0  0  0  0  0  0  0  0
    6.7905   -0.5057    1.1259 C   0  0  0  0  0  0  0  0  0  0  0  0
    8.0782   -0.2929   -1.2988 C   0  0  0  0  0  0  0  0  0  0  0  0
    7.9582   -1.2262    0.9187 C   0  0  0  0  0  0  0  0  0  0  0  0
    8.6056   -1.1154   -0.3081 C   0  0  0  0  0  0  0  0  0  0  0  0
  1 13  1  0
  1 16  2  0
  1 17  1  0
  2  3  1  0
  2  4  1  0
  3  5  1  0
  4  6  1  0
  5  7  1  0
  6  8  1  0
  7  9  1  0
  8 10  1  0
  9 11  1  0
 10 12  1  0
 11 13  1  0
 12 14  1  0
 14 15  1  0
 16 18  1  0
 17 19  2  0
 18 20  2  0
 19 20  1  0
M  CHG  1   1   1
M  END
>  <PUBCHEM_COMPOUND_CID>  (1) 
17736

>  <PUBCHEM_CONFORMER_RMSD>  (1) 
1.4

>  <PUBCHEM_CONFORMER_DIVERSEORDER>  (1) 
1
60
52
34
20
10
6
49
72
11
66
9
23
22
68
35
4
30
37
57
2
63
7
27
26
31
15
51
61
41
69
24
28
40
29
42
3
55
8
39
59
32
12
67
64
38
16
43
17
54
71
25
14
13
5
65
21
48
56
18
50
53
36
62
19
47
44
45
58
46
33
70

>  <PUBCHEM_MMFF94_PARTIAL_CHARGES>  (1) 
12
1 -0.21
13 0.49
16 0.21
17 0.21
18 -0.15
19 -0.15
20 -0.15
50 0.15
51 0.15
52 0.15
53 0.15
54 0.15

>  <PUBCHEM_EFFECTIVE_ROTOR_COUNT>  (1) 
13

>  <PUBCHEM_PHARMACOPHORE_FEATURES>  (1) 
2
1 15 hydrophobe
6 1 16 17 18 19 20 rings

>  <PUBCHEM_HEAVY_ATOM_COUNT>  (1) 
20

>  <PUBCHEM_ATOM_DEF_STEREO_COUNT>  (1) 
0

>  <PUBCHEM_ATOM_UDEF_STEREO_COUNT>  (1) 
0

>  <PUBCHEM_BOND_DEF_STEREO_COUNT>  (1) 
0

>  <PUBCHEM_BOND_UDEF_STEREO_COUNT>  (1) 
0

>  <PUBCHEM_ISOTOPIC_ATOM_COUNT>  (1) 
0

>  <PUBCHEM_COMPONENT_COUNT>  (1) 
1

>  <PUBCHEM_CACTVS_TAUTO_COUNT>  (1) 
1

>  <PUBCHEM_CONFORMER_ID>  (1) 
0000454800000001

>  <PUBCHEM_MMFF94_ENERGY>  (1) 
16.1561

>  <PUBCHEM_FEATURE_SELFOVERLAP>  (1) 
10.148

>  <PUBCHEM_SHAPE_FINGERPRINT>  (1) 
10299344 5 18114181930334902586
11211813 74 14851896889319281638
11315181 36 12973887001516003013
11638347 137 15841556254344781812
12522641 33 16153425035203340107
14202775 3 18412830209816394191
14216079 64 18343021078090351668
14251764 18 18334295348879161169
14251764 46 17203610388970504829
14344974 52 12324250486171706305
14428016 248 11169911667895245191
15510794 2 17749113297005806459
155225 1 8574705807175798390
15773216 30 15285904824184849065
1754911 235 14996282535627758507
1818759 1 18114184146754597771
20812841 46 13830127291899985666
21095086 128 18333167267482210419
21150785 3 15357697487818492632
21360442 33 13696411225081758656
21360442 67 15502095242098630944
21362267 20 18187085105304690731
21362267 313 10807394987366714589
21792934 111 16272204193350374528
22224240 67 13902188188092550540
232437 2 18408041823818017995
23521765 1 18341894104483999905
246663 6 18410013234242514369
28498 318 18409446968990968044
335352 9 12973605552229578377
33684 2 18410855455838469249
59520647 119 17385730230768346267
59520757 100 17531257217707730290
59521099 67 18187368761897836844
59521120 56 16988267789855525679
67123 10 8646769998146005145
8209 1 13984661456186244101

>  <PUBCHEM_SHAPE_MULTIPOLES>  (1) 
406.61
42.98
1.02
0.89
65.3
0.07
-0.05
14.15
-2.44
-0.93
0.09
-1.87
0.08
-0.54

>  <PUBCHEM_SHAPE_SELFOVERLAP>  (1) 
772.492

>  <PUBCHEM_SHAPE_VOLUME>  (1) 
249.9

>  <PUBCHEM_COORDINATE_TYPE>  (1) 
2
5
10

$$$$
