17749
     RDKit          3D

 21 21  0  0  1  0  0  0  0  0999 V2000
   -5.1591    0.6285    0.7666 Cl  0  0  0  0  0  0  0  0  0  0  0  0
   -3.9774    3.1727   -0.0060 Cl  0  0  0  0  0  0  0  0  0  0  0  0
   -4.1080    1.0018   -1.9266 Cl  0  0  0  0  0  0  0  0  0  0  0  0
    5.1476    0.6660   -0.7668 Cl  0  0  0  0  0  0  0  0  0  0  0  0
    3.9389    3.1952    0.0133 Cl  0  0  0  0  0  0  0  0  0  0  0  0
    4.0885    1.0188    1.9262 Cl  0  0  0  0  0  0  0  0  0  0  0  0
   -2.2406    1.2876    1.6273 O   0  0  0  0  0  0  0  0  0  0  0  0
    2.2256    1.2947   -1.6310 O   0  0  0  0  0  0  0  0  0  0  0  0
   -2.3316   -0.5347    0.1198 N   0  0  0  0  0  0  0  0  0  0  0  0
    2.3513   -0.5145   -0.1228 N   0  0  0  0  0  0  0  0  0  0  0  0
    0.0098   -0.4929   -0.0003 N   0  0  0  0  0  0  0  0  0  0  0  0
    1.2170   -2.5656   -0.0617 N   0  0  0  0  0  0  0  0  0  0  0  0
   -1.1793   -2.5761    0.0626 N   0  0  0  0  0  0  0  0  0  0  0  0
    0.0276   -4.5857    0.0007 N   0  0  0  0  0  0  0  0  0  0  0  0
   -2.4566    0.9084    0.2679 C   0  0  0  0  0  0  0  0  0  0  0  0
    2.4415    0.9165   -0.2712 C   0  0  0  0  0  0  0  0  0  0  0  0
   -1.1299   -1.2225    0.0591 C   0  0  0  0  0  0  0  0  0  0  0  0
    1.1336   -1.2254   -0.0583 C   0  0  0  0  0  0  0  0  0  0  0  0
   -3.8493    1.3902   -0.1927 C   0  0  0  0  0  0  0  0  0  0  0  0
    3.8286    1.4109    0.1933 C   0  0  0  0  0  0  0  0  0  0  0  0
    0.0216   -3.1739    0.0006 C   0  0  0  0  0  0  0  0  0  0  0  0
  1 19  1  0
  2 19  1  0
  3 19  1  0
  4 20  1  0
  5 20  1  0
  6 20  1  0
  7 15  1  0
  8 16  1  0
  9 15  1  0
  9 17  1  0
 10 16  1  0
 10 18  1  0
 11 17  2  0
 11 18  1  0
 12 18  2  0
 12 21  1  0
 13 17  1  0
 13 21  2  0
 14 21  1  0
 15 19  1  0
 16 20  1  0
M  END
>  <PUBCHEM_COMPOUND_CID>  (1) 
17749

>  <PUBCHEM_CONFORMER_RMSD>  (1) 
0.8

>  <PUBCHEM_CONFORMER_DIVERSEORDER>  (1) 
1
32
76
2
77
85
20
107
28
63
90
87
105
29
49
72
11
84
53
33
98
65
95
82
48
94
88
38
43
89
67
61
86
56
68
108
62
104
60
79
13
93
102
22
40
24
30
81
23
106
27
52
83
109
47
44
36
37
5
54
69
64
91
58
75
70
35
80
110
59
100
46
51
17
73
9
19
55
8
96
92
34
50
78
41
57
21
15
25
97
74
66
45
7
6
31
12
26
10
99
42
18
16
103
101
3
4
14
71
39

>  <PUBCHEM_MMFF94_PARTIAL_CHARGES>  (1) 
27
1 -0.29
10 -0.87
11 -0.62
12 -0.62
13 -0.62
14 -0.9
15 0.65
16 0.65
17 0.72
18 0.72
19 0.87
2 -0.29
20 0.87
21 0.72
24 0.4
25 0.4
26 0.4
27 0.4
28 0.4
29 0.4
3 -0.29
4 -0.29
5 -0.29
6 -0.29
7 -0.68
8 -0.68
9 -0.87

>  <PUBCHEM_EFFECTIVE_ROTOR_COUNT>  (1) 
6

>  <PUBCHEM_PHARMACOPHORE_FEATURES>  (1) 
11
1 10 donor
1 14 donor
1 7 acceptor
1 7 donor
1 8 acceptor
1 8 donor
1 9 donor
4 10 11 12 18 cation
4 12 13 14 21 cation
4 9 11 13 17 cation
6 11 12 13 17 18 21 rings

>  <PUBCHEM_HEAVY_ATOM_COUNT>  (1) 
21

>  <PUBCHEM_ATOM_DEF_STEREO_COUNT>  (1) 
0

>  <PUBCHEM_ATOM_UDEF_STEREO_COUNT>  (1) 
2

>  <PUBCHEM_BOND_DEF_STEREO_COUNT>  (1) 
0

>  <PUBCHEM_BOND_UDEF_STEREO_COUNT>  (1) 
0

>  <PUBCHEM_ISOTOPIC_ATOM_COUNT>  (1) 
0

>  <PUBCHEM_COMPONENT_COUNT>  (1) 
1

>  <PUBCHEM_CACTVS_TAUTO_COUNT>  (1) 
10

>  <PUBCHEM_CONFORMER_ID>  (1) 
0000455500000001

>  <PUBCHEM_MMFF94_ENERGY>  (1) 
51.6971

>  <PUBCHEM_FEATURE_SELFOVERLAP>  (1) 
56.027

>  <PUBCHEM_SHAPE_FINGERPRINT>  (1) 
11370993 70 18410570690917310057
11725454 13 17386830765014315461
12107183 9 18335968823748250296
12173636 292 18338799042969639950
12500047 106 18340208600355695910
12769317 202 18269547260956596185
12788726 201 17758109689685156170
13134695 92 17615687332746076319
13583140 156 17095796706857148769
13590594 115 17114109863275617609
138480 1 17762057635969905347
13955234 65 18193845830087487011
13965767 371 18114170926645008236
14123255 52 18410575088958306049
14957384 54 18261103132341472912
1741750 31 18339922713914926298
17834072 32 18338237167021961728
1798214 55 18411140233645387840
1813 80 7997688743972685120
19784866 34 18342736300004371617
204376 136 18410013243106619153
20510252 161 17981051026640160762
20645477 56 18339374079161238542
212916 134 18341597236006819312
21524375 3 18260270771451982451
2255824 54 18053382102641890815
23557571 272 17913783974588671566
23558518 356 17900825156688267946
23559900 14 17977381638763951883
3091708 16 9120912383689919938
314173 85 8358261457619761901
474 4 18339078173136514009
59755656 520 18411703209410713974
633830 44 18130232566638564125
7808743 9 18194123156004697376
84936 182 18199743644280441529
9981440 41 18410005529435234955

>  <PUBCHEM_SHAPE_MULTIPOLES>  (1) 
401.76
10.35
4.31
1.28
0.2
4.1
0
-10.5
0
-0.07
0
0
-0.67
0.17

>  <PUBCHEM_SHAPE_SELFOVERLAP>  (1) 
756.665

>  <PUBCHEM_SHAPE_VOLUME>  (1) 
249.4

>  <PUBCHEM_COORDINATE_TYPE>  (1) 
2
5
10

$$$$
