17753
     RDKit          3D

 20 22  0  0  1  0  0  0  0  0999 V2000
   -5.6858    0.3249   -0.1492 F   0  0  0  0  0  0  0  0  0  0  0  0
    0.3313    1.3683   -0.6378 N   0  0  0  0  0  0  0  0  0  0  0  0
   -1.8642   -2.5366   -0.5327 N   0  0  0  0  0  0  0  0  0  0  0  0
    0.6399   -0.0575   -0.3894 C   0  0  0  0  0  0  0  0  0  0  0  0
    2.1105   -0.3543   -0.1440 C   0  0  0  0  0  0  0  0  0  0  0  0
    1.0348    2.2516    0.3006 C   0  0  0  0  0  0  0  0  0  0  0  0
    2.5576    2.1058    0.2589 C   0  0  0  0  0  0  0  0  0  0  0  0
   -0.2125   -0.5639    0.7853 C   0  0  0  0  0  0  0  0  0  0  0  0
    3.0090    0.6702    0.2039 C   0  0  0  0  0  0  0  0  0  0  0  0
    0.5664    1.7464   -2.0317 C   0  0  0  0  0  0  0  0  0  0  0  0
   -1.6728   -0.3465    0.5265 C   0  0  0  0  0  0  0  0  0  0  0  0
    2.5813   -1.6737   -0.2398 C   0  0  0  0  0  0  0  0  0  0  0  0
    4.3569    0.3623    0.4380 C   0  0  0  0  0  0  0  0  0  0  0  0
    3.9221   -1.9703    0.0036 C   0  0  0  0  0  0  0  0  0  0  0  0
    4.8093   -0.9529    0.3428 C   0  0  0  0  0  0  0  0  0  0  0  0
   -2.4398   -1.3181   -0.1110 C   0  0  0  0  0  0  0  0  0  0  0  0
   -2.2536    0.8508    0.9368 C   0  0  0  0  0  0  0  0  0  0  0  0
   -3.7970   -1.0910   -0.3396 C   0  0  0  0  0  0  0  0  0  0  0  0
   -3.6108    1.0778    0.7085 C   0  0  0  0  0  0  0  0  0  0  0  0
   -4.3826    0.1068    0.0703 C   0  0  0  0  0  0  0  0  0  0  0  0
  1 20  1  0
  2  4  1  0
  2  6  1  0
  2 10  1  0
  3 16  1  0
  4  5  1  0
  4  8  1  0
  5  9  2  0
  5 12  1  0
  6  7  1  0
  7  9  1  0
  8 11  1  0
  9 13  1  0
 11 16  2  0
 11 17  1  0
 12 14  2  0
 13 15  2  0
 14 15  1  0
 16 18  1  0
 17 19  2  0
 18 20  2  0
 19 20  1  0
M  END
>  <PUBCHEM_COMPOUND_CID>  (1) 
17753

>  <PUBCHEM_CONFORMER_RMSD>  (1) 
0.6

>  <PUBCHEM_CONFORMER_DIVERSEORDER>  (1) 
1
17
24
11
5
7
29
16
19
21
27
14
13
2
3
12
4
25
28
10
23
30
18
22
9
6
20
26
8
15

>  <PUBCHEM_MMFF94_PARTIAL_CHARGES>  (1) 
29
1 -0.19
10 0.27
11 -0.14
12 -0.15
13 -0.15
14 -0.15
15 -0.15
16 0.1
17 -0.15
18 -0.15
19 -0.15
2 -0.81
20 0.19
3 -0.9
31 0.15
32 0.15
33 0.15
34 0.15
35 0.15
36 0.15
37 0.15
38 0.4
39 0.4
4 0.41
5 -0.14
6 0.27
7 0.14
8 0.14
9 -0.14

>  <PUBCHEM_EFFECTIVE_ROTOR_COUNT>  (1) 
2.8

>  <PUBCHEM_PHARMACOPHORE_FEATURES>  (1) 
6
1 2 cation
1 3 cation
1 3 donor
6 11 16 17 18 19 20 rings
6 2 4 5 6 7 9 rings
6 5 9 12 13 14 15 rings

>  <PUBCHEM_HEAVY_ATOM_COUNT>  (1) 
20

>  <PUBCHEM_ATOM_DEF_STEREO_COUNT>  (1) 
0

>  <PUBCHEM_ATOM_UDEF_STEREO_COUNT>  (1) 
1

>  <PUBCHEM_BOND_DEF_STEREO_COUNT>  (1) 
0

>  <PUBCHEM_BOND_UDEF_STEREO_COUNT>  (1) 
0

>  <PUBCHEM_ISOTOPIC_ATOM_COUNT>  (1) 
0

>  <PUBCHEM_COMPONENT_COUNT>  (1) 
1

>  <PUBCHEM_CACTVS_TAUTO_COUNT>  (1) 
1

>  <PUBCHEM_CONFORMER_ID>  (1) 
0000455900000001

>  <PUBCHEM_MMFF94_ENERGY>  (1) 
68.172

>  <PUBCHEM_FEATURE_SELFOVERLAP>  (1) 
30.468

>  <PUBCHEM_SHAPE_FINGERPRINT>  (1) 
10616163 171 18200314462566846470
10906281 52 18187943797866946792
11370993 70 18202843253321519503
116883 192 18334295323463045140
11961588 58 12175046826849090880
12011746 2 18342182150591732230
12107183 9 17623578548909249786
12236239 1 18412262826996871595
12251169 10 18343021086263574266
12633257 1 18131080294061118688
12670546 56 17988922262462823385
128620 24 12031789158404511153
13134695 92 18411135857110844580
13533116 47 18342737459629509203
13583140 156 17345462872374092888
13675066 3 18186805811442091905
15196674 1 18412262878125093835
15375462 478 17775566425023951112
15442244 35 18413392012100034456
15536298 74 18342458161990234168
15848700 24 18260266326556294588
15848702 151 18341050722492468590
16945 1 18412271631569194864
17349148 13 17775005682762555253
17357779 13 18040702658792791029
17492 89 18267022945352201451
17980427 23 16988850466482668537
1813 80 17676209052732763292
18186145 218 17749381603111399859
18335252 114 18338504241791143293
19141452 34 18410853269906227327
200 152 18131629002287653091
204376 136 13398622862108669452
20645477 70 18408885156945618706
21033648 29 18336250276723149001
21267235 1 18340778082305852819
21285901 2 18041842792284562582
21421861 104 17823689768771334538
221490 88 18265339588881196722
23175994 123 16805328773108456021
23184049 59 18408889516179175031
23402539 116 17988918955992152309
23557571 272 15912780405304476929
23558518 356 17681274682742602667
23559900 14 18201715193367419520
335352 9 18411981334455247991
34934 24 18411133658456561714
351380 180 18343018887351160081
3545911 37 18343022206965176131
4214541 1 18341894086866267979
4340502 62 12535628293512922669
474 4 17969504985921723608
5104073 3 18341334491261330091
633830 44 17240480355455839729
6443956 14 18409168818292830548
67856867 119 18200024182949097784
69090 78 18341894086929629907
6992083 37 18410303492659395473
7495541 125 14490768882959746637
81228 2 17825119120854795580
9709674 26 18271814552712166823
9971528 1 18259984885654739180
9981440 41 17472415933644694537

>  <PUBCHEM_SHAPE_MULTIPOLES>  (1) 
394.35
9.47
2.3
1.01
3.9
0.03
0.36
-2.15
-1.08
-1.03
0.34
0.05
0.41
-0.37

>  <PUBCHEM_SHAPE_SELFOVERLAP>  (1) 
853.602

>  <PUBCHEM_SHAPE_VOLUME>  (1) 
216.7

>  <PUBCHEM_COORDINATE_TYPE>  (1) 
2
5
10

$$$$
