17755
     RDKit          3D

  7  6  0  0  0  0  0  0  0  0999 V2000
    0.6970    0.1889    0.2356 O   0  0  0  0  0  0  0  0  0  0  0  0
   -1.6210   -1.3793   -0.3318 O   0  0  0  0  0  0  0  0  0  0  0  0
   -0.2241    1.0888   -0.3670 C   0  0  0  0  0  0  0  0  0  0  0  0
   -1.5746    0.9627    0.3175 C   0  0  0  0  0  0  0  0  0  0  0  0
    1.9788    0.2702   -0.3724 C   0  0  0  0  0  0  0  0  0  0  0  0
    2.9113   -0.7077    0.3102 C   0  0  0  0  0  0  0  0  0  0  0  0
   -2.1675   -0.4235    0.2079 C   0  0  0  0  0  0  0  0  0  0  0  0
  1  3  1  0
  1  5  1  0
  2  7  2  0
  3  4  1  0
  4  7  1  0
  5  6  1  0
M  END
>  <PUBCHEM_COMPOUND_CID>  (1) 
17755

>  <PUBCHEM_CONFORMER_RMSD>  (1) 
0.6

>  <PUBCHEM_CONFORMER_DIVERSEORDER>  (1) 
1
14
15
17
13
5
18
8
10
16
12
2
3
9
4
6
7
11

>  <PUBCHEM_MMFF94_PARTIAL_CHARGES>  (1) 
7
1 -0.56
17 0.06
2 -0.57
3 0.28
4 0.06
5 0.28
7 0.45

>  <PUBCHEM_EFFECTIVE_ROTOR_COUNT>  (1) 
4

>  <PUBCHEM_PHARMACOPHORE_FEATURES>  (1) 
2
1 1 acceptor
1 2 acceptor

>  <PUBCHEM_HEAVY_ATOM_COUNT>  (1) 
7

>  <PUBCHEM_ATOM_DEF_STEREO_COUNT>  (1) 
0

>  <PUBCHEM_ATOM_UDEF_STEREO_COUNT>  (1) 
0

>  <PUBCHEM_BOND_DEF_STEREO_COUNT>  (1) 
0

>  <PUBCHEM_BOND_UDEF_STEREO_COUNT>  (1) 
0

>  <PUBCHEM_ISOTOPIC_ATOM_COUNT>  (1) 
0

>  <PUBCHEM_COMPONENT_COUNT>  (1) 
1

>  <PUBCHEM_CACTVS_TAUTO_COUNT>  (1) 
2

>  <PUBCHEM_CONFORMER_ID>  (1) 
0000455B00000001

>  <PUBCHEM_MMFF94_ENERGY>  (1) 
3.809

>  <PUBCHEM_FEATURE_SELFOVERLAP>  (1) 
10.151

>  <PUBCHEM_SHAPE_FINGERPRINT>  (1) 
14390081 3 8646479713685020206
16714656 1 18409170978423808661
20653085 51 8141817143473418902
23552423 10 18187931728291413740
29004967 10 17385731325952661840
5460574 1 9511457814669736672

>  <PUBCHEM_SHAPE_MULTIPOLES>  (1) 
132.32
3.99
1.24
0.69
2.17
0.11
0
1.14
-0.35
-0.49
0.09
0.02
-0.02
-0.25

>  <PUBCHEM_SHAPE_SELFOVERLAP>  (1) 
232.706

>  <PUBCHEM_SHAPE_VOLUME>  (1) 
86.7

>  <PUBCHEM_COORDINATE_TYPE>  (1) 
2
5
10

$$$$
