17751
     RDKit          3D

 16 15  0  0  1  0  0  0  0  0999 V2000
   -4.5099   -0.3971    0.6078 C   0  0  0  0  0  0  0  0  0  0  0  0
   -4.0088   -1.6712   -0.1078 C   0  0  0  0  0  0  0  0  0  0  0  0
   -2.6585   -1.5577   -0.8268 C   0  0  0  0  0  0  0  0  0  0  0  0
   -1.4737   -1.1263    0.0424 C   0  0  0  0  0  0  0  0  0  0  0  0
   -0.1405   -1.1180   -0.7082 C   0  0  0  0  0  0  0  0  0  0  0  0
   -4.6488    0.7893   -0.3685 C   0  0  0  0  0  0  0  0  0  0  0  0
    1.0077   -0.6868    0.2071 C   0  0  0  0  0  0  0  0  0  0  0  0
    2.3361   -0.6402   -0.5514 C   0  0  0  0  0  0  0  0  0  0  0  0
    3.4769   -0.1783    0.3573 C   0  0  0  0  0  0  0  0  0  0  0  0
   -5.8366   -0.7151    1.3091 C   0  0  0  0  0  0  0  0  0  0  0  0
   -5.0300    2.1065    0.3135 C   0  0  0  0  0  0  0  0  0  0  0  0
    4.8291   -0.0919   -0.3572 C   0  0  0  0  0  0  0  0  0  0  0  0
    5.9938    0.4465    0.4793 C   0  0  0  0  0  0  0  0  0  0  0  0
   -5.0825    3.2533   -0.6852 C   0  0  0  0  0  0  0  0  0  0  0  0
    7.3011    0.5680   -0.3039 C   0  0  0  0  0  0  0  0  0  0  0  0
    8.4444    1.0191    0.5925 C   0  0  0  0  0  0  0  0  0  0  0  0
  1  2  1  0
  1  6  1  0
  1 10  1  0
  2  3  1  0
  3  4  1  0
  4  5  1  0
  5  7  1  0
  6 11  1  0
  7  8  1  0
  8  9  1  0
  9 12  1  0
 11 14  1  0
 12 13  1  0
 13 15  1  0
 15 16  1  0
M  END
>  <PUBCHEM_COMPOUND_CID>  (1) 
17751

>  <PUBCHEM_CONFORMER_RMSD>  (1) 
1.2

>  <PUBCHEM_CONFORMER_DIVERSEORDER>  (1) 
1
88
42
727
136
97
91
593
86
231
283
53
22
738
8
56
225
98
109
301
351
380
732
20
725
616
409
38
79
250
220
29
4
320
154
697
500
57
391
358
382
90
323
105
311
182
549
241
185
131
10
507
14
3
518
48
55
32
145
83
238
107
251
70
700
438
94
318
9
233
165
2
126
379
168
273
31
397
67
12
287
76
583
366
46
276
71
541
73
13
80
377
332
478
40
173
21
7
116
143
607
207
208
142
237
585
664
170
166
396
676
544
537
622

>  <PUBCHEM_MMFF94_PARTIAL_CHARGES>  (1) 
0

>  <PUBCHEM_EFFECTIVE_ROTOR_COUNT>  (1) 
12

>  <PUBCHEM_PHARMACOPHORE_FEATURES>  (1) 
3
1 10 hydrophobe
1 14 hydrophobe
1 16 hydrophobe

>  <PUBCHEM_HEAVY_ATOM_COUNT>  (1) 
16

>  <PUBCHEM_ATOM_DEF_STEREO_COUNT>  (1) 
0

>  <PUBCHEM_ATOM_UDEF_STEREO_COUNT>  (1) 
1

>  <PUBCHEM_BOND_DEF_STEREO_COUNT>  (1) 
0

>  <PUBCHEM_BOND_UDEF_STEREO_COUNT>  (1) 
0

>  <PUBCHEM_ISOTOPIC_ATOM_COUNT>  (1) 
0

>  <PUBCHEM_COMPONENT_COUNT>  (1) 
1

>  <PUBCHEM_CACTVS_TAUTO_COUNT>  (1) 
1

>  <PUBCHEM_CONFORMER_ID>  (1) 
0000455700000001

>  <PUBCHEM_MMFF94_ENERGY>  (1) 
1.2303

>  <PUBCHEM_FEATURE_SELFOVERLAP>  (1) 
15.223

>  <PUBCHEM_SHAPE_FINGERPRINT>  (1) 
10066227 112 17989203776769511744
10087517 78 18334292067508647725
10730089 173 18342458140531423264
11315181 36 17530685441980746483
12091667 2 18410854399335036982
125118 31 18338232769882961408
13073987 5 18187085027139924171
13167372 99 18335138709464661572
13288520 33 8935002568635972271
13403585 85 18410013238780172205
14123256 34 11458424618403101518
1420 363 12540692622316118674
14251752 14 18342737395442500194
14251764 18 17603867840703542958
14598715 104 18130492107586812984
14729087 3 18201997738223626712
15183329 4 15123505887594998780
15501527 16 18272653449992521247
155225 5 18197498419936027736
15716309 27 13912321304597422770
16079462 125 17704065209987413962
20281389 69 18342176665660077754
20621476 66 18410577266812660884
20621476 8 18272374170772630174
20645477 56 18131635591131936791
21150785 3 16271923835086148943
21307412 95 10230885827263293289
22288116 15 13973956640642412780
270888 7 18194962929933692557
5104073 3 17968097452493776083
59567204 34 18342175561864740264
6327066 14 18265327310387511621
7062679 6 18408327674343108172
999808 66 11314310529369654392

>  <PUBCHEM_SHAPE_MULTIPOLES>  (1) 
329.27
22.8
2.27
0.95
39.94
2.08
0.08
12.01
4.26
-5.53
-0.5
-0.64
-0.06
1.09

>  <PUBCHEM_SHAPE_SELFOVERLAP>  (1) 
587.134

>  <PUBCHEM_SHAPE_VOLUME>  (1) 
215.1

>  <PUBCHEM_COORDINATE_TYPE>  (1) 
2
5
10

$$$$
