17750
     RDKit          3D

 18 19  0  0  0  0  0  0  0  0999 V2000
    5.6229    1.4629    0.0212 O   0  0  0  0  0  0  0  0  0  0  0  0
   -5.6170   -1.4511    0.0341 O   0  0  0  0  0  0  0  0  0  0  0  0
    6.8052   -0.5504    0.0431 N   0  0  0  0  0  0  0  0  0  0  0  0
   -6.7959    0.5642    0.0435 N   0  0  0  0  0  0  0  0  0  0  0  0
    7.9226   -0.2866   -0.8148 C   0  0  0  0  0  0  0  0  0  0  0  0
    8.0287   -0.1132    0.6479 C   0  0  0  0  0  0  0  0  0  0  0  0
   -7.9307    0.2870   -0.7868 C   0  0  0  0  0  0  0  0  0  0  0  0
   -8.0077    0.1401    0.6805 C   0  0  0  0  0  0  0  0  0  0  0  0
    0.6413    0.3897    0.0393 C   0  0  0  0  0  0  0  0  0  0  0  0
   -0.6572   -0.4178   -0.0039 C   0  0  0  0  0  0  0  0  0  0  0  0
    1.8674   -0.5255    0.0195 C   0  0  0  0  0  0  0  0  0  0  0  0
   -1.8816    0.4991   -0.0176 C   0  0  0  0  0  0  0  0  0  0  0  0
    3.1659    0.2871    0.0296 C   0  0  0  0  0  0  0  0  0  0  0  0
   -3.1804   -0.3071   -0.0271 C   0  0  0  0  0  0  0  0  0  0  0  0
    4.4090   -0.5969    0.0410 C   0  0  0  0  0  0  0  0  0  0  0  0
   -4.4002    0.6066   -0.0073 C   0  0  0  0  0  0  0  0  0  0  0  0
    5.6630    0.2349    0.0329 C   0  0  0  0  0  0  0  0  0  0  0  0
   -5.6552   -0.2231    0.0247 C   0  0  0  0  0  0  0  0  0  0  0  0
  1 17  2  0
  2 18  2  0
  3  5  1  0
  3  6  1  0
  3 17  1  0
  4  7  1  0
  4  8  1  0
  4 18  1  0
  5  6  1  0
  7  8  1  0
  9 10  1  0
  9 11  1  0
 10 12  1  0
 11 13  1  0
 12 14  1  0
 13 15  1  0
 14 16  1  0
 15 17  1  0
 16 18  1  0
M  END
>  <PUBCHEM_COMPOUND_CID>  (1) 
17750

>  <PUBCHEM_CONFORMER_RMSD>  (1) 
1

>  <PUBCHEM_CONFORMER_DIVERSEORDER>  (1) 
1
42
90
3
138
21
159
17
161
44
8
55
117
13
116
146
97
135
5
68
131
31
152
69
48
81
134
148
72
154
100
19
122
123
29
125
147
115
156
61
141
25
11
80
87
124
43
16
66
118
52
119
36
129
39
38
105
71
132
85
28
151
99
63
57
84
34
158
2
140
40
145
133
86
74
128
41
113
60
4
30
88
14
111
7
53
67
130
149
142
120
144
51
107
136
49
58
93
76
54
104
137
64
26
96
62
164
56
157
94
91
139
59
75
126
109
150
121
89
143
9
47
163
153
50
106
108
20
162
12
98
79
24
127
155
32
95
37
10
114
102
6
73
18
46
65
103
77
82
112
70
45
33
92
23
83
15
27
101
160
35
78
110
22

>  <PUBCHEM_MMFF94_PARTIAL_CHARGES>  (1) 
20
1 -0.57
15 0.06
16 0.06
17 0.57
18 0.57
19 0.1
2 -0.57
20 0.1
21 0.1
22 0.1
23 0.1
24 0.1
25 0.1
26 0.1
3 -0.36
4 -0.36
5 -0.05
6 -0.05
7 -0.05
8 -0.05

>  <PUBCHEM_EFFECTIVE_ROTOR_COUNT>  (1) 
12.2

>  <PUBCHEM_PHARMACOPHORE_FEATURES>  (1) 
2
1 1 acceptor
1 2 acceptor

>  <PUBCHEM_HEAVY_ATOM_COUNT>  (1) 
18

>  <PUBCHEM_ATOM_DEF_STEREO_COUNT>  (1) 
0

>  <PUBCHEM_ATOM_UDEF_STEREO_COUNT>  (1) 
0

>  <PUBCHEM_BOND_DEF_STEREO_COUNT>  (1) 
0

>  <PUBCHEM_BOND_UDEF_STEREO_COUNT>  (1) 
0

>  <PUBCHEM_ISOTOPIC_ATOM_COUNT>  (1) 
0

>  <PUBCHEM_COMPONENT_COUNT>  (1) 
1

>  <PUBCHEM_CACTVS_TAUTO_COUNT>  (1) 
1

>  <PUBCHEM_CONFORMER_ID>  (1) 
0000455600000001

>  <PUBCHEM_MMFF94_ENERGY>  (1) 
38.5205

>  <PUBCHEM_FEATURE_SELFOVERLAP>  (1) 
10.149

>  <PUBCHEM_SHAPE_FINGERPRINT>  (1) 
10299344 5 18333731316551815554
10968037 39 18411698786606962647
11315181 36 18131915966939346163
12091667 2 17312822676382966613
13885169 127 18412826859276952009
14123256 10 18410573976561516594
14251764 18 18410855434363632995
14251764 46 18131350813140278378
14428016 248 15936699198287013084
15716309 27 18410572894504155623
17834076 25 17203609285348493582
18006028 8 17490149712155025609
20238998 120 18114179731033209901
20621476 8 18113897156422485935
21095086 128 16630806599377061191
21315763 28 18413107259984441384
22224240 67 16128653055018966766
23035841 295 18409165523868161778
232437 2 18409449194280159347
23521765 1 18341894086539083779
28498 318 18272370854398312790
33684 2 18410573976561523051
4325135 7 18410293605396682460
59682541 35 14996290235850167909
59755656 520 17822005445258461179
67123 10 18410574002331320327
8209 1 18410855455833194501

>  <PUBCHEM_SHAPE_MULTIPOLES>  (1) 
348.73
30.13
0.92
0.73
0.29
0
-0.03
0.17
-0.43
0
0
0
0
0.14

>  <PUBCHEM_SHAPE_SELFOVERLAP>  (1) 
678.185

>  <PUBCHEM_SHAPE_VOLUME>  (1) 
212.1

>  <PUBCHEM_COORDINATE_TYPE>  (1) 
2
5
10

$$$$
