17769
     RDKit          3D

  8  7  0  0  0  0  0  0  0  0999 V2000
    1.9445   -0.4210    0.0224 C   0  0  0  0  0  0  0  0  0  0  0  0
    0.5235    0.1529    0.0093 C   0  0  0  0  0  0  0  0  0  0  0  0
    2.9916    0.6931    0.0069 C   0  0  0  0  0  0  0  0  0  0  0  0
   -0.5555   -0.9312   -0.0061 C   0  0  0  0  0  0  0  0  0  0  0  0
    4.4035    0.1300   -0.0226 C   0  0  0  0  0  0  0  0  0  0  0  0
   -1.9125   -0.3673   -0.0049 C   0  0  0  0  0  0  0  0  0  0  0  0
   -3.0223    0.0916   -0.0037 C   0  0  0  0  0  0  0  0  0  0  0  0
   -4.3728    0.6519   -0.0015 C   0  0  0  0  0  0  0  0  0  0  0  0
  1  2  1  0
  1  3  1  0
  2  4  1  0
  3  5  1  0
  4  6  1  0
  6  7  3  0
  7  8  1  0
M  END
>  <PUBCHEM_COMPOUND_CID>  (1) 
17769

>  <PUBCHEM_CONFORMER_RMSD>  (1) 
0.6

>  <PUBCHEM_CONFORMER_DIVERSEORDER>  (1) 
1
10
3
4
9
7
6
8
2
5

>  <PUBCHEM_MMFF94_PARTIAL_CHARGES>  (1) 
4
4 0.2
6 -0.2
7 -0.2
8 0.2

>  <PUBCHEM_EFFECTIVE_ROTOR_COUNT>  (1) 
3

>  <PUBCHEM_PHARMACOPHORE_FEATURES>  (1) 
3
1 5 hydrophobe
1 8 hydrophobe
5 1 2 3 4 6 hydrophobe

>  <PUBCHEM_HEAVY_ATOM_COUNT>  (1) 
8

>  <PUBCHEM_ATOM_DEF_STEREO_COUNT>  (1) 
0

>  <PUBCHEM_ATOM_UDEF_STEREO_COUNT>  (1) 
0

>  <PUBCHEM_BOND_DEF_STEREO_COUNT>  (1) 
0

>  <PUBCHEM_BOND_UDEF_STEREO_COUNT>  (1) 
0

>  <PUBCHEM_ISOTOPIC_ATOM_COUNT>  (1) 
0

>  <PUBCHEM_COMPONENT_COUNT>  (1) 
1

>  <PUBCHEM_CACTVS_TAUTO_COUNT>  (1) 
1

>  <PUBCHEM_CONFORMER_ID>  (1) 
0000456900000001

>  <PUBCHEM_MMFF94_ENERGY>  (1) 
-2.252

>  <PUBCHEM_FEATURE_SELFOVERLAP>  (1) 
15.223

>  <PUBCHEM_SHAPE_FINGERPRINT>  (1) 
11062470 55 18060420218046054192
12932764 1 15575262311634902914
14325111 11 18410855473250700355
177051 138 8790890687452553000
18342897 14 17458063763490303341
20211469 26 8862942775474191759
20645477 70 18059297552366273718
20719005 15 18410293622597715371
20828058 44 14490197115517646721
21119208 17 15913608367445484717
21293036 1 14333127481184682446
22485316 2 9007061244768022161
23402539 116 17775278357282854237

>  <PUBCHEM_SHAPE_MULTIPOLES>  (1) 
164.64
8.69
0.88
0.62
0.16
0.04
0
-2.36
0.05
-0.09
0
0
0
0

>  <PUBCHEM_SHAPE_SELFOVERLAP>  (1) 
289.777

>  <PUBCHEM_SHAPE_VOLUME>  (1) 
107.7

>  <PUBCHEM_COORDINATE_TYPE>  (1) 
2
5
10

$$$$
