17763
     RDKit          3D

 19 20  0  0  1  0  0  0  0  0999 V2000
    2.5075    0.4318    0.1612 N   0  0  0  0  0  0  0  0  0  0  0  0
   -1.6279    2.7937    1.6160 N   0  0  0  0  0  0  0  0  0  0  0  0
    1.0960    0.4598    0.5438 C   0  0  0  0  0  0  0  0  0  0  0  0
    0.2424    0.9579   -0.6329 C   0  0  0  0  0  0  0  0  0  0  0  0
   -1.2963    1.0398   -0.3437 C   0  0  0  0  0  0  0  0  0  0  0  0
    2.7185   -0.4971   -0.9581 C   0  0  0  0  0  0  0  0  0  0  0  0
    3.3455    0.0735    1.3140 C   0  0  0  0  0  0  0  0  0  0  0  0
    4.1817   -0.5015   -1.4033 C   0  0  0  0  0  0  0  0  0  0  0  0
    4.8293    0.0875    0.9431 C   0  0  0  0  0  0  0  0  0  0  0  0
    5.1135   -0.8283   -0.2419 C   0  0  0  0  0  0  0  0  0  0  0  0
   -1.9809    1.6381   -1.6181 C   0  0  0  0  0  0  0  0  0  0  0  0
   -1.8616   -0.3598   -0.0409 C   0  0  0  0  0  0  0  0  0  0  0  0
   -3.4862    1.8746   -1.4972 C   0  0  0  0  0  0  0  0  0  0  0  0
   -1.4872    2.0189    0.7629 C   0  0  0  0  0  0  0  0  0  0  0  0
   -2.4652   -0.5676    1.1730 C   0  0  0  0  0  0  0  0  0  0  0  0
   -1.7351   -1.3327   -0.9993 C   0  0  0  0  0  0  0  0  0  0  0  0
   -2.9776   -1.8357    1.4474 C   0  0  0  0  0  0  0  0  0  0  0  0
   -2.2476   -2.6007   -0.7248 C   0  0  0  0  0  0  0  0  0  0  0  0
   -2.8689   -2.8521    0.4986 C   0  0  0  0  0  0  0  0  0  0  0  0
  1  3  1  0
  1  6  1  0
  1  7  1  0
  2 14  3  0
  3  4  1  0
  4  5  1  0
  5 11  1  0
  5 12  1  0
  5 14  1  0
  6  8  1  0
  7  9  1  0
  8 10  1  0
  9 10  1  0
 11 13  1  0
 12 15  2  0
 12 16  1  0
 15 17  1  0
 16 18  2  0
 17 19  2  0
 18 19  1  0
M  END
>  <PUBCHEM_COMPOUND_CID>  (1) 
17763

>  <PUBCHEM_CONFORMER_RMSD>  (1) 
0.8

>  <PUBCHEM_CONFORMER_DIVERSEORDER>  (1) 
1
39
21
14
34
33
19
23
22
3
38
20
27
17
29
7
9
16
32
4
24
5
13
26
30
11
31
12
28
10
35
2
15
18
36
8
6
25
37

>  <PUBCHEM_MMFF94_PARTIAL_CHARGES>  (1) 
18
1 -0.81
12 -0.14
14 0.36
15 -0.15
16 -0.15
17 -0.15
18 -0.15
19 -0.15
2 -0.56
3 0.27
39 0.15
40 0.15
41 0.15
42 0.15
43 0.15
5 0.34
6 0.27
7 0.27

>  <PUBCHEM_EFFECTIVE_ROTOR_COUNT>  (1) 
6.2

>  <PUBCHEM_PHARMACOPHORE_FEATURES>  (1) 
5
1 1 cation
1 13 hydrophobe
1 2 acceptor
6 1 6 7 8 9 10 rings
6 12 15 16 17 18 19 rings

>  <PUBCHEM_HEAVY_ATOM_COUNT>  (1) 
19

>  <PUBCHEM_ATOM_DEF_STEREO_COUNT>  (1) 
0

>  <PUBCHEM_ATOM_UDEF_STEREO_COUNT>  (1) 
1

>  <PUBCHEM_BOND_DEF_STEREO_COUNT>  (1) 
0

>  <PUBCHEM_BOND_UDEF_STEREO_COUNT>  (1) 
0

>  <PUBCHEM_ISOTOPIC_ATOM_COUNT>  (1) 
0

>  <PUBCHEM_COMPONENT_COUNT>  (1) 
1

>  <PUBCHEM_CACTVS_TAUTO_COUNT>  (1) 
1

>  <PUBCHEM_CONFORMER_ID>  (1) 
0000456300000001

>  <PUBCHEM_MMFF94_ENERGY>  (1) 
39.2603

>  <PUBCHEM_FEATURE_SELFOVERLAP>  (1) 
25.371

>  <PUBCHEM_SHAPE_FINGERPRINT>  (1) 
10366900 7 17632282463786410056
11370993 144 17203063897680207458
11578080 2 18192706963574696149
12173636 292 18126576608560821049
12346177 29 18334850606651539950
12363563 72 18191587655935795874
12553582 1 18198354046277179750
12596599 1 18335428937384384940
12633257 1 17059513939716090922
12714826 92 18335421300425708019
13583140 156 18339624686793431946
14178342 30 18339929208337825666
14251764 30 17097228353065402059
15163728 17 17465093843623768805
16752209 62 18187631531542048163
1813 80 18116444823790819615
19433438 15 17023185981667135116
200 152 15051150346937843709
20279233 1 18130780136509049876
20645476 183 18041271050717572493
20671657 53 17459464640125046774
23419403 2 16340010105368907159
23557571 272 18341039805049475752
23559900 14 18340481167849816046
23598288 3 17895490171197620477
298252 57 17242994788536425445
3027735 51 18334285466508241723
312423 11 18115041800173308892
4921388 177 18409733928572324382
559249 180 17896305927384789602
59755656 520 18194967340173781689
6049 1 18131634500009556296
633830 44 15864364484991723558
90127 26 17274820217422101688
9709674 26 17703227304865006364

>  <PUBCHEM_SHAPE_MULTIPOLES>  (1) 
381.05
8.61
2.78
1.63
13.35
0.38
-0.05
2.48
0.15
-4.44
-0.2
-0.36
-0.4
0.93

>  <PUBCHEM_SHAPE_SELFOVERLAP>  (1) 
781.361

>  <PUBCHEM_SHAPE_VOLUME>  (1) 
217.8

>  <PUBCHEM_COORDINATE_TYPE>  (1) 
2
5
10

$$$$
