17774
     RDKit          3D

  6  5  0  0  0  0  0  0  0  0999 V2000
   -3.1454   -0.2029   -0.0060 Cl  0  0  0  0  0  0  0  0  0  0  0  0
   -0.2734   -0.8665    0.0046 S   0  0  0  0  0  0  0  0  0  0  0  0
    1.2379    1.2998   -0.0014 O   0  0  0  0  0  0  0  0  0  0  0  0
    1.2175    0.0749   -0.0005 C   0  0  0  0  0  0  0  0  0  0  0  0
    2.4625   -0.7656   -0.0025 C   0  0  0  0  0  0  0  0  0  0  0  0
   -1.4992    0.4603    0.0059 C   0  0  0  0  0  0  0  0  0  0  0  0
  1  6  1  0
  2  4  1  0
  2  6  1  0
  3  4  2  0
  4  5  1  0
M  END
>  <PUBCHEM_COMPOUND_CID>  (1) 
17774

>  <PUBCHEM_CONFORMER_RMSD>  (1) 
0.4

>  <PUBCHEM_CONFORMER_DIVERSEORDER>  (1) 
1
14
12
8
15
10
3
7
5
13
2
16
4
11
6
9

>  <PUBCHEM_MMFF94_PARTIAL_CHARGES>  (1) 
6
1 -0.29
2 -0.37
3 -0.57
4 0.65
5 0.06
6 0.52

>  <PUBCHEM_EFFECTIVE_ROTOR_COUNT>  (1) 
2

>  <PUBCHEM_PHARMACOPHORE_FEATURES>  (1) 
0

>  <PUBCHEM_HEAVY_ATOM_COUNT>  (1) 
6

>  <PUBCHEM_ATOM_DEF_STEREO_COUNT>  (1) 
0

>  <PUBCHEM_ATOM_UDEF_STEREO_COUNT>  (1) 
0

>  <PUBCHEM_BOND_DEF_STEREO_COUNT>  (1) 
0

>  <PUBCHEM_BOND_UDEF_STEREO_COUNT>  (1) 
0

>  <PUBCHEM_ISOTOPIC_ATOM_COUNT>  (1) 
0

>  <PUBCHEM_COMPONENT_COUNT>  (1) 
1

>  <PUBCHEM_CACTVS_TAUTO_COUNT>  (1) 
1

>  <PUBCHEM_CONFORMER_ID>  (1) 
0000456E00000001

>  <PUBCHEM_MMFF94_ENERGY>  (1) 
3.4524

>  <PUBCHEM_FEATURE_SELFOVERLAP>  (1) 
0

>  <PUBCHEM_SHAPE_FINGERPRINT>  (1) 
12932741 1 17530970223776112227
14325111 11 18410574011327462787
20096714 4 18410574023806156809
21040471 1 18266459986823753762
29004967 10 18411700941921091458
5460574 1 9223228546334679203

>  <PUBCHEM_SHAPE_MULTIPOLES>  (1) 
123.33
4.24
1.1
0.62
2.06
0.13
0
-0.5
0.01
-0.35
0
0.04
-0.03
0

>  <PUBCHEM_SHAPE_SELFOVERLAP>  (1) 
198.567

>  <PUBCHEM_SHAPE_VOLUME>  (1) 
87.1

>  <PUBCHEM_COORDINATE_TYPE>  (1) 
2
5
10

$$$$
